MODEL 1
REMARK VINA RESULT:    -7.919      0.000      0.000
REMARK INTER + INTRA:         -12.749
REMARK INTER:                 -11.160
REMARK INTRA:                  -1.589
REMARK UNBOUND:                -1.589
REMARK  8 active torsions:
REMARK  status: ('A' for Active; 'I' for Inactive)
REMARK    1  A    between atoms: C_6  and  C_9 
REMARK    2  A    between atoms: C_7  and  O_8 
REMARK    3  A    between atoms: N_10  and  N_11 
REMARK       I    between atoms: N_11  and  C_12 
REMARK    4  A    between atoms: C_12  and  C_14 
REMARK    5  A    between atoms: N_17  and  C_26 
REMARK    6  A    between atoms: C_18  and  C_19 
REMARK    7  A    between atoms: C_19  and  N_20 
REMARK    8  A    between atoms: C_30  and  N_31 
ROOT
ATOM      1  C   UNK d   1     -39.334 -67.166  50.295  0.00  0.00     0.162 A 
ATOM      2  N   UNK d   1     -38.636 -66.669  49.215  0.00  0.00    -0.125 NA
ATOM      3  N   UNK d   1     -37.420 -67.106  49.295  0.00  0.00    -0.058 NA
ATOM      4  N   UNK d   1     -37.292 -67.883  50.405  0.00  0.00    -0.191 N 
ATOM      5  C   UNK d   1     -38.458 -67.940  51.045  0.00  0.00     0.101 A 
ENDROOT
BRANCH   1   6
ATOM      6  C   UNK d   1     -40.731 -66.881  50.515  0.00  0.00     0.228 C 
ATOM      7  N   UNK d   1     -41.348 -66.020  51.431  0.00  0.00    -0.253 N 
ATOM      8  H   UNK d   1     -40.872 -65.439  52.101  0.00  0.00     0.191 HD
ATOM      9  O   UNK d   1     -41.540 -67.534  49.726  0.00  0.00    -0.168 OA
BRANCH   7  10
ATOM     10  N   UNK d   1     -42.784 -65.968  51.392  0.00  0.00    -0.184 NA
ATOM     11  C   UNK d   1     -43.469 -66.155  52.457  0.00  0.00     0.153 C 
BRANCH  11  12
ATOM     12  C   UNK d   1     -44.937 -66.111  52.468  0.00  0.00     0.019 A 
ATOM     13  C   UNK d   1     -45.704 -67.102  53.045  0.00  0.00     0.038 A 
ATOM     14  C   UNK d   1     -47.088 -67.053  53.051  0.00  0.00     0.049 A 
ATOM     15  C   UNK d   1     -47.754 -65.994  52.473  0.00  0.00     0.144 A 
ATOM     16 Br   UNK d   1     -48.148 -68.428  53.851  0.00  0.00    -0.048 Br
ATOM     17  C   UNK d   1     -46.990 -64.999  51.895  0.00  0.00     0.082 A 
ATOM     18  O   UNK d   1     -49.147 -65.911  52.461  0.00  0.00    -0.189 OA
ATOM     19 Br   UNK d   1     -47.891 -63.511  51.081  0.00  0.00    -0.045 Br
ATOM     20  C   UNK d   1     -45.611 -65.054  51.892  0.00  0.00     0.097 A 
BRANCH  20  21
ATOM     21  O   UNK d   1     -44.826 -64.045  51.305  0.00  0.00    -0.358 OA
ATOM     22  H   UNK d   1     -44.430 -63.324  51.889  0.00  0.00     0.217 HD
ENDBRANCH  20  21
ENDBRANCH  11  12
ENDBRANCH   7  10
ENDBRANCH   1   6
BRANCH   5  23
ATOM     23  C   UNK d   1     -38.801 -68.653  52.275  0.00  0.00     0.296 C 
BRANCH  23  24
ATOM     24  N   UNK d   1     -39.788 -69.666  52.248  0.00  0.00    -0.062 N 
ATOM     25  C   UNK d   1     -40.992 -69.319  52.988  0.00  0.00     0.261 C 
ATOM     26  C   UNK d   1     -40.670 -68.874  54.359  0.00  0.00     0.195 C 
ATOM     27  O   UNK d   1     -39.628 -69.389  55.014  0.00  0.00    -0.388 OA
ATOM     28  C   UNK d   1     -38.822 -70.289  54.395  0.00  0.00     0.195 C 
ATOM     29  C   UNK d   1     -39.257 -70.794  53.080  0.00  0.00     0.261 C 
ATOM     30  H   UNK d   1     -39.978 -70.017  51.321  0.00  0.00     0.280 HD
ENDBRANCH  23  24
ENDBRANCH   5  23
BRANCH   4  31
ATOM     31  C   UNK d   1     -36.025 -68.472  50.709  0.00  0.00     0.229 A 
ATOM     32  N   UNK d   1     -35.683 -69.705  51.061  0.00  0.00    -0.081 NA
ATOM     33  O   UNK d   1     -34.397 -69.732  51.189  0.00  0.00    -0.103 OA
ATOM     34  N   UNK d   1     -33.864 -68.577  50.939  0.00  0.00    -0.083 NA
ATOM     35  C   UNK d   1     -34.836 -67.731  50.627  0.00  0.00     0.201 A 
BRANCH  35  36
ATOM     36  N   UNK d   1     -34.758 -66.358  50.278  0.00  0.00    -0.379 N 
ATOM     37  H   UNK d   1     -33.832 -65.937  50.059  0.00  0.00     0.158 HD
ATOM     38  H   UNK d   1     -35.613 -65.733  50.230  0.00  0.00     0.158 HD
ENDBRANCH  35  36
ENDBRANCH   4  31
TORSDOF 8
ENDMDL
