MODEL 1
REMARK VINA RESULT:    -7.537      0.000      0.000
REMARK INTER + INTRA:         -12.332
REMARK INTER:                 -10.842
REMARK INTRA:                  -1.490
REMARK UNBOUND:                -1.490
REMARK  9 active torsions:
REMARK  status: ('A' for Active; 'I' for Inactive)
REMARK    1  A    between atoms: C_3  and  O_33 
REMARK    2  A    between atoms: C_6  and  C_9 
REMARK    3  A    between atoms: C_7  and  O_8 
REMARK    4  A    between atoms: N_10  and  N_11 
REMARK       I    between atoms: N_11  and  C_12 
REMARK    5  A    between atoms: C_12  and  C_14 
REMARK    6  A    between atoms: N_17  and  C_26 
REMARK    7  A    between atoms: C_18  and  C_19 
REMARK    8  A    between atoms: C_19  and  N_20 
REMARK    9  A    between atoms: C_30  and  N_31 
ROOT
ATOM      1  C   UNK d   1     -39.102 -62.826  47.941  0.00  0.00     0.176 A 
ATOM      2  N   UNK d   1     -39.810 -62.143  46.985  0.00  0.00    -0.124 NA
ATOM      3  N   UNK d   1     -38.992 -61.412  46.279  0.00  0.00    -0.058 NA
ATOM      4  N   UNK d   1     -37.744 -61.549  46.692  0.00  0.00    -0.191 N 
ATOM      5  C   UNK d   1     -37.783 -62.415  47.719  0.00  0.00     0.104 A 
ENDROOT
BRANCH   1   6
ATOM      6  C   UNK d   1     -39.674 -63.735  48.916  0.00  0.00     0.294 C 
ATOM      7  N   UNK d   1     -39.851 -65.109  48.832  0.00  0.00    -0.242 N 
ATOM      8  H   UNK d   1     -39.599 -65.734  48.030  0.00  0.00     0.192 HD
ATOM      9  O   UNK d   1     -40.067 -63.169  50.005  0.00  0.00    -0.264 OA
BRANCH   7  10
ATOM     10  N   UNK d   1     -40.450 -65.763  49.962  0.00  0.00    -0.183 NA
ATOM     11  C   UNK d   1     -39.738 -66.562  50.673  0.00  0.00     0.153 C 
BRANCH  11  12
ATOM     12  C   UNK d   1     -40.246 -67.273  51.837  0.00  0.00     0.019 A 
ATOM     13  C   UNK d   1     -41.425 -66.912  52.430  0.00  0.00     0.038 A 
ATOM     14  C   UNK d   1     -41.927 -67.579  53.543  0.00  0.00     0.046 A 
ATOM     15  C   UNK d   1     -41.218 -68.651  54.080  0.00  0.00     0.103 A 
ATOM     16 Br   UNK d   1     -43.565 -67.044  54.333  0.00  0.00    -0.048 Br
ATOM     17  C   UNK d   1     -40.042 -69.017  53.495  0.00  0.00     0.079 A 
ATOM     18 Br   UNK d   1     -39.047 -70.471  54.193  0.00  0.00    -0.045 Br
ATOM     19  C   UNK d   1     -39.555 -68.335  52.378  0.00  0.00     0.097 A 
BRANCH  15  20
ATOM     20  O   UNK d   1     -41.735 -69.303  55.190  0.00  0.00    -0.358 OA
ATOM     21  H   UNK d   1     -42.673 -69.122  55.509  0.00  0.00     0.217 HD
ENDBRANCH  15  20
BRANCH  19  22
ATOM     22  O   UNK d   1     -38.362 -68.692  51.769  0.00  0.00    -0.358 OA
ATOM     23  H   UNK d   1     -38.282 -69.578  51.287  0.00  0.00     0.217 HD
ENDBRANCH  19  22
ENDBRANCH  11  12
ENDBRANCH   7  10
ENDBRANCH   1   6
BRANCH   5  24
ATOM     24  C   UNK d   1     -36.643 -62.916  48.492  0.00  0.00     0.334 C 
BRANCH  24  25
ATOM     25  N   UNK d   1     -35.793 -63.866  47.768  0.00  0.00     0.098 N 
ATOM     26  C   UNK d   1     -36.194 -65.235  48.147  0.00  0.00     0.299 C 
ATOM     27  C   UNK d   1     -36.330 -65.330  49.626  0.00  0.00     0.198 C 
ATOM     28  O   UNK d   1     -35.170 -64.903  50.225  0.00  0.00    -0.388 OA
ATOM     29  C   UNK d   1     -34.129 -64.696  49.358  0.00  0.00     0.198 C 
ATOM     30  C   UNK d   1     -34.404 -63.703  48.259  0.00  0.00     0.299 C 
ENDBRANCH  24  25
ENDBRANCH   5  24
BRANCH   4  31
ATOM     31  C   UNK d   1     -36.635 -60.902  46.093  0.00  0.00     0.229 A 
ATOM     32  N   UNK d   1     -35.527 -61.437  45.538  0.00  0.00    -0.081 NA
ATOM     33  O   UNK d   1     -34.753 -60.485  45.089  0.00  0.00    -0.103 OA
ATOM     34  N   UNK d   1     -35.291 -59.314  45.317  0.00  0.00    -0.083 NA
ATOM     35  C   UNK d   1     -36.461 -59.535  45.939  0.00  0.00     0.201 A 
BRANCH  35  36
ATOM     36  N   UNK d   1     -37.345 -58.515  46.353  0.00  0.00    -0.379 N 
ATOM     37  H   UNK d   1     -37.693 -58.521  47.329  0.00  0.00     0.158 HD
ATOM     38  H   UNK d   1     -37.661 -57.759  45.720  0.00  0.00     0.158 HD
ENDBRANCH  35  36
ENDBRANCH   4  31
TORSDOF 9
ENDMDL
