MODEL 1
REMARK VINA RESULT:    -8.209      0.000      0.000
REMARK INTER + INTRA:         -11.952
REMARK INTER:                 -11.088
REMARK INTRA:                  -0.864
REMARK UNBOUND:                -0.864
REMARK  7 active torsions:
REMARK  status: ('A' for Active; 'I' for Inactive)
REMARK    1  A    between atoms: C_3  and  O_31 
REMARK    2  A    between atoms: C_6  and  C_9 
REMARK    3  A    between atoms: C_7  and  O_8 
REMARK    4  A    between atoms: N_10  and  N_11 
REMARK    5  A    between atoms: N_11  and  C_12 
REMARK    6  A    between atoms: C_14  and  N_24 
REMARK    7  A    between atoms: C_16  and  N_18 
ROOT
ATOM      1  C   UNK d   1     -38.025 -64.295  49.376  0.00  0.00     0.774 A 
ATOM      2  N   UNK d   1     -37.566 -65.519  49.627  0.00  0.00     0.133 NA
ATOM      3  C   UNK d   1     -36.274 -65.883  49.388  0.00  0.00     0.756 A 
ATOM      4  N   UNK d   1     -35.482 -64.939  48.884  0.00  0.00     0.131 NA
ATOM      5  C   UNK d   1     -35.865 -63.674  48.601  0.00  0.00     0.756 A 
ATOM      6  N   UNK d   1     -37.176 -63.393  48.869  0.00  0.00     0.133 NA
ENDROOT
BRANCH   1   7
ATOM      7  N   UNK d   1     -39.380 -63.954  49.640  0.00  0.00    -0.105 N 
ATOM      8  H   UNK d   1     -39.931 -63.297  49.077  0.00  0.00     0.208 HD
BRANCH   7   9
ATOM      9  N   UNK d   1     -40.034 -64.545  50.738  0.00  0.00    -0.171 NA
ATOM     10  C   UNK d   1     -40.780 -65.573  50.635  0.00  0.00     0.153 C 
BRANCH  10  11
ATOM     11  C   UNK d   1     -41.465 -66.200  51.753  0.00  0.00     0.019 A 
ATOM     12  C   UNK d   1     -40.772 -67.025  52.607  0.00  0.00     0.038 A 
ATOM     13  C   UNK d   1     -41.400 -67.634  53.679  0.00  0.00     0.046 A 
ATOM     14  C   UNK d   1     -42.741 -67.441  53.931  0.00  0.00     0.103 A 
ATOM     15 Br   UNK d   1     -40.411 -68.778  54.854  0.00  0.00    -0.048 Br
ATOM     16  C   UNK d   1     -43.446 -66.614  53.078  0.00  0.00     0.079 A 
ATOM     17 Br   UNK d   1     -45.305 -66.350  53.434  0.00  0.00    -0.045 Br
ATOM     18  C   UNK d   1     -42.807 -66.008  52.007  0.00  0.00     0.097 A 
BRANCH  14  19
ATOM     19  O   UNK d   1     -43.390 -68.046  55.005  0.00  0.00    -0.358 OA
ATOM     20  H   UNK d   1     -42.964 -68.835  55.461  0.00  0.00     0.217 HD
ENDBRANCH  14  19
BRANCH  18  21
ATOM     21  O   UNK d   1     -43.521 -65.188  51.166  0.00  0.00    -0.358 OA
ATOM     22  H   UNK d   1     -43.107 -64.844  50.294  0.00  0.00     0.217 HD
ENDBRANCH  18  21
ENDBRANCH  10  11
ENDBRANCH   7   9
ENDBRANCH   1   7
BRANCH   3  23
ATOM     23  N   UNK d   1     -35.807 -67.186  49.662  0.00  0.00    -0.209 N 
ATOM     24  C   UNK d   1     -36.717 -68.297  49.663  0.00  0.00     0.167 C 
ATOM     25  C   UNK d   1     -36.439 -69.108  50.919  0.00  0.00     0.188 C 
ATOM     26  O   UNK d   1     -35.080 -69.333  51.103  0.00  0.00    -0.388 OA
ATOM     27  C   UNK d   1     -34.349 -68.177  51.263  0.00  0.00     0.188 C 
ATOM     28  C   UNK d   1     -34.416 -67.404  49.940  0.00  0.00     0.167 C 
ENDBRANCH   3  23
BRANCH   5  29
ATOM     29  N   UNK d   1     -34.992 -62.708  48.068  0.00  0.00    -0.209 N 
ATOM     30  C   UNK d   1     -35.436 -61.797  47.060  0.00  0.00     0.167 C 
ATOM     31  C   UNK d   1     -34.422 -61.862  45.914  0.00  0.00     0.188 C 
ATOM     32  O   UNK d   1     -33.447 -62.811  46.140  0.00  0.00    -0.388 OA
ATOM     33  C   UNK d   1     -32.739 -62.632  47.303  0.00  0.00     0.188 C 
ATOM     34  C   UNK d   1     -33.641 -62.626  48.531  0.00  0.00     0.167 C 
ENDBRANCH   5  29
TORSDOF 7
ENDMDL
