MODEL 1
REMARK VINA RESULT:    -7.645      0.000      0.000
REMARK INTER + INTRA:         -12.777
REMARK INTER:                 -11.667
REMARK INTRA:                  -1.110
REMARK UNBOUND:                -1.110
REMARK  10 active torsions:
REMARK  status: ('A' for Active; 'I' for Inactive)
REMARK    1  A    between atoms: C_3  and  O_10 
REMARK    2  A    between atoms: O_10  and  C_11 
REMARK    3  A    between atoms: C_11  and  C_12 
REMARK    4  A    between atoms: C_12  and  O_13 
REMARK    5  A    between atoms: C_12  and  C_14 
REMARK    6  A    between atoms: C_14  and  N_15 
REMARK    7  A    between atoms: C_19  and  N_20 
REMARK    8  A    between atoms: N_23  and  C_26 
REMARK    9  A    between atoms: C_26  and  C_27 
REMARK   10  A    between atoms: C_27  and  O_28 
ROOT
ATOM      1  N   UNK d   1     -45.552 -65.543  52.835  0.00  0.00    -0.171 N 
ATOM      2  C   UNK d   1     -45.246 -64.646  51.861  0.00  0.00     0.154 A 
ATOM      3  C   UNK d   1     -46.271 -64.587  50.955  0.00  0.00     0.184 A 
ATOM      4  N   UNK d   1     -47.173 -65.439  51.395  0.00  0.00    -0.044 NA
ATOM      5  C   UNK d   1     -46.769 -66.041  52.547  0.00  0.00     0.707 A 
ATOM      6  N   UNK d   1     -46.286 -63.769  49.858  0.00  0.00    -0.284 N 
ATOM      7  C   UNK d   1     -45.217 -62.982  49.684  0.00  0.00     0.352 A 
ATOM      8  O   UNK d   1     -45.233 -62.228  48.670  0.00  0.00    -0.244 OA
ATOM      9  N   UNK d   1     -44.184 -63.000  50.548  0.00  0.00    -0.164 NA
ATOM     10  C   UNK d   1     -44.155 -63.797  51.628  0.00  0.00     0.236 A 
ATOM     11  O   UNK d   1     -43.090 -63.792  52.499  0.00  0.00    -0.167 OA
ATOM     12  C   UNK d   1     -47.428 -63.797  48.955  0.00  0.00     0.163 C 
ENDROOT
BRANCH   1  13
ATOM     13  C   UNK d   1     -44.732 -65.875  53.945  0.00  0.00     0.182 C 
BRANCH  13  14
ATOM     14  C   UNK d   1     -43.745 -66.940  53.900  0.00  0.00     0.161 C 
BRANCH  14  15
ATOM     15  C   UNK d   1     -42.344 -66.793  53.482  0.00  0.00     0.209 C 
BRANCH  15  16
ATOM     16  O   UNK d   1     -41.936 -67.911  52.696  0.00  0.00    -0.346 OA
BRANCH  16  17
ATOM     17  C   UNK d   1     -40.665 -68.288  52.435  0.00  0.00     0.103 A 
ATOM     18  C   UNK d   1     -40.096 -67.956  51.196  0.00  0.00     0.047 A 
ATOM     19 Br   UNK d   1     -41.177 -66.979  49.955  0.00  0.00    -0.048 Br
ATOM     20  C   UNK d   1     -38.811 -68.314  50.876  0.00  0.00     0.041 A 
ATOM     21  C   UNK d   1     -38.036 -69.018  51.773  0.00  0.00     0.013 A 
ATOM     22  C   UNK d   1     -38.572 -69.355  52.994  0.00  0.00     0.041 A 
ATOM     23 Br   UNK d   1     -36.264 -69.472  51.242  0.00  0.00    -0.051 Br
ATOM     24  C   UNK d   1     -39.886 -68.981  53.303  0.00  0.00     0.047 A 
ATOM     25 Br   UNK d   1     -40.541 -69.503  54.990  0.00  0.00    -0.048 Br
ENDBRANCH  16  17
ENDBRANCH  15  16
ENDBRANCH  14  15
BRANCH  14  26
ATOM     26  O   UNK d   1     -43.750 -67.909  54.920  0.00  0.00    -0.392 OA
ATOM     27  H   UNK d   1     -42.980 -67.823  55.510  0.00  0.00     0.210 HD
ENDBRANCH  14  26
ENDBRANCH  13  14
ENDBRANCH   1  13
BRANCH   5  28
ATOM     28  N   UNK d   1     -47.627 -66.926  53.289  0.00  0.00    -0.212 N 
ATOM     29  C   UNK d   1     -47.353 -68.249  53.702  0.00  0.00     0.169 C 
ATOM     30  C   UNK d   1     -48.559 -68.737  54.551  0.00  0.00     0.255 C 
ATOM     31  N   UNK d   1     -49.683 -68.719  53.635  0.00  0.00    -0.066 N 
ATOM     32  C   UNK d   1     -50.074 -67.297  53.615  0.00  0.00     0.255 C 
ATOM     33  H   UNK d   1     -49.428 -68.952  52.652  0.00  0.00     0.280 HD
ATOM     34  C   UNK d   1     -48.924 -66.376  53.705  0.00  0.00     0.169 C 
BRANCH  31  35
ATOM     35  C   UNK d   1     -50.786 -69.521  54.126  0.00  0.00     0.260 C 
BRANCH  35  36
ATOM     36  C   UNK d   1     -50.629 -70.934  53.608  0.00  0.00     0.192 C 
BRANCH  36  37
ATOM     37  O   UNK d   1     -50.551 -71.813  54.695  0.00  0.00    -0.399 OA
ATOM     38  H   UNK d   1     -50.897 -72.714  54.446  0.00  0.00     0.209 HD
ENDBRANCH  36  37
ENDBRANCH  35  36
ENDBRANCH  31  35
ENDBRANCH   5  28
TORSDOF 10
ENDMDL
