MODEL 1
REMARK VINA RESULT:    -8.855      0.000      0.000
REMARK INTER + INTRA:         -14.816
REMARK INTER:                 -13.255
REMARK INTRA:                  -1.561
REMARK UNBOUND:                -1.561
REMARK  9 active torsions:
REMARK  status: ('A' for Active; 'I' for Inactive)
REMARK    1  A    between atoms: C_4  and  O_29 
REMARK    2  A    between atoms: C_6  and  C_8 
REMARK    3  A    between atoms: C_8  and  N_9 
REMARK    4  A    between atoms: N_9  and  N_10 
REMARK       I    between atoms: N_10  and  C_11 
REMARK    5  A    between atoms: C_11  and  C_13 
REMARK    6  A    between atoms: C_13  and  N_14 
REMARK    7  A    between atoms: C_18  and  C_19 
REMARK    8  A    between atoms: C_23  and  N_24 
REMARK    9  A    between atoms: O_29  and  C_30 
ROOT
ATOM      1  N   UNK d   1     -35.753 -66.136  49.086  0.00  0.00    -0.319 N 
ATOM      2  C   UNK d   1     -35.984 -67.308  49.791  0.00  0.00     0.065 A 
ATOM      3  C   UNK d   1     -34.921 -67.506  50.589  0.00  0.00     0.086 A 
ATOM      4  N   UNK d   1     -34.086 -66.499  50.380  0.00  0.00    -0.226 NA
ATOM      5  C   UNK d   1     -34.600 -65.628  49.431  0.00  0.00     0.167 A 
ATOM      6  C   UNK d   1     -34.817 -68.592  51.444  0.00  0.00     0.034 A 
ATOM      7  C   UNK d   1     -35.869 -69.476  51.439  0.00  0.00     0.002 A 
ATOM      8  C   UNK d   1     -36.983 -69.323  50.637  0.00  0.00     0.002 A 
ATOM      9  C   UNK d   1     -37.035 -68.212  49.798  0.00  0.00     0.032 A 
ENDROOT
BRANCH   1  10
ATOM     10  C   UNK d   1     -36.719 -65.663  48.183  0.00  0.00     0.236 C 
BRANCH  10  11
ATOM     11  C   UNK d   1     -37.651 -64.612  48.826  0.00  0.00     0.264 C 
ATOM     12  N   UNK d   1     -38.655 -65.210  49.513  0.00  0.00    -0.202 N 
ATOM     13  H   UNK d   1     -39.115 -63.929  49.867  0.00  0.00     0.205 HD
ATOM     14  O   UNK d   1     -37.302 -63.458  48.587  0.00  0.00    -0.269 OA
BRANCH  12  15
ATOM     15  N   UNK d   1     -39.569 -65.751  50.140  0.00  0.00    -0.335 NA
BRANCH  15  16
ATOM     16  C   UNK d   1     -40.491 -66.272  50.664  0.00  0.00     0.220 C 
BRANCH  16  17
ATOM     17  C   UNK d   1     -40.673 -67.000  51.873  0.00  0.00    -0.001 A 
ATOM     18  C   UNK d   1     -41.710 -66.657  52.752  0.00  0.00     0.053 A 
ATOM     19  C   UNK d   1     -41.988 -67.294  53.927  0.00  0.00     0.107 A 
ATOM     20  C   UNK d   1     -41.164 -68.388  54.288  0.00  0.00     0.157 A 
ATOM     21  C   UNK d   1     -40.131 -68.757  53.454  0.00  0.00     0.051 A 
ATOM     22  O   UNK d   1     -41.448 -69.024  55.461  0.00  0.00    -0.188 OA
ATOM     23 Br   UNK d   1     -39.027 -70.236  53.895  0.00  0.00    -0.048 Br
ATOM     24  C   UNK d   1     -39.905 -68.069  52.277  0.00  0.00     0.036 A 
BRANCH  19  25
ATOM     25  O   UNK d   1     -43.017 -66.948  54.781  0.00  0.00    -0.348 OA
BRANCH  25  26
ATOM     26  C   UNK d   1     -44.150 -66.266  54.363  0.00  0.00     0.171 C 
ATOM     27  C   UNK d   1     -45.196 -67.086  53.662  0.00  0.00     0.034 C 
ENDBRANCH  25  26
ENDBRANCH  19  25
ENDBRANCH  16  17
ENDBRANCH  15  16
ENDBRANCH  12  15
ENDBRANCH  10  11
ENDBRANCH   1  10
BRANCH   5  28
ATOM     28  C   UNK d   1     -33.787 -64.466  49.120  0.00  0.00     0.187 A 
ATOM     29  N   UNK d   1     -34.312 -63.176  49.089  0.00  0.00    -0.097 NA
ATOM     30  O   UNK d   1     -33.402 -62.330  48.819  0.00  0.00    -0.104 OA
ATOM     31  N   UNK d   1     -32.284 -62.915  48.655  0.00  0.00    -0.077 NA
ATOM     32  C   UNK d   1     -32.484 -64.265  48.839  0.00  0.00     0.285 A 
BRANCH  32  33
ATOM     33  N   UNK d   1     -31.426 -65.194  48.748  0.00  0.00    -0.028 N 
ATOM     34  H   UNK d   1     -31.847 -66.194  48.832  0.00  0.00     0.283 HD
ATOM     35  H   UNK d   1     -30.822 -65.123  49.576  0.00  0.00     0.283 HD
ATOM     36  H   UNK d   1     -31.013 -65.208  47.820  0.00  0.00     0.283 HD
ENDBRANCH  32  33
ENDBRANCH   5  28
TORSDOF 9
ENDMDL
