/Users/jonathanwahrer/Desktop/Msc/3_Semester/Drug_Design_Praktikum/waehrer_HTS_screening/HTS_experiment/out/docking_results/vina_output/3e7o/0017_docked.pdbqt
 OpenBabel03192215163D

 38 41  0  0  0  0  0  0  0  0999 V2000
  -41.0290  -64.5830   50.2370 C   0  0  0  0  0  0  0  0  0  0  0  0
  -42.0340  -63.7740   49.8760 N   0  0  0  0  0  0  0  0  0  0  0  0
  -43.0270  -63.9030   50.7210 N   0  0  0  0  0  0  0  0  0  0  0  0
  -42.7240  -64.8000   51.6770 N   0  0  0  0  0  0  0  0  0  0  0  0
  -41.4910  -65.2340   51.3970 C   0  0  0  0  0  0  0  0  0  0  0  0
  -39.7340  -64.7730   49.5970 C   0  0  0  0  0  0  0  0  0  0  0  0
  -38.5490  -64.2230   50.1350 N   0  0  0  0  0  0  0  0  0  0  0  0
  -38.6210  -63.6590   51.0300 H   0  0  0  0  0  0  0  0  0  0  0  0
  -39.6700  -65.4400   48.5460 O   0  0  0  0  0  0  0  0  0  0  0  0
  -37.2990  -64.3650   49.5850 N   0  0  0  0  0  0  0  0  0  0  0  0
  -36.6320  -65.4570   49.5130 C   0  0  0  0  0  3  0  0  0  0  0  0
  -35.3110  -65.5110   48.9100 C   0  0  0  0  0  0  0  0  0  0  0  0
  -34.7640  -66.6670   48.3750 C   0  0  0  0  0  3  0  0  0  0  0  0
  -33.5110  -66.6890   47.8100 C   0  0  0  0  0  0  0  0  0  0  0  0
  -32.8020  -65.5100   47.7900 C   0  0  0  0  0  0  0  0  0  0  0  0
  -33.3190  -64.3320   48.3170 C   0  0  0  0  0  0  0  0  0  0  0  0
  -32.3290  -62.7030   48.2830 Br  0  0  0  0  0  0  0  0  0  0  0  0
  -34.5660  -64.3530   48.8680 C   0  0  0  0  0  3  0  0  0  0  0  0
  -32.9370  -67.8150   47.2710 O   0  0  0  0  0  0  0  0  0  0  0  0
  -32.8490  -68.1460   45.9230 C   0  0  0  0  0  2  0  0  0  0  0  0
  -31.8260  -69.1840   45.5920 C   0  0  0  0  0  1  0  0  0  0  0  0
  -31.5280  -65.4710   47.2300 O   0  0  0  0  0  0  0  0  0  0  0  0
  -31.3830  -65.8060   46.2850 H   0  0  0  0  0  0  0  0  0  0  0  0
  -40.6850  -66.2380   52.0940 C   0  0  0  0  0  2  0  0  0  0  0  0
  -41.1930  -67.5860   52.1120 N   0  0  0  0  0  0  0  0  0  0  0  0
  -40.6360  -68.2060   50.9030 C   0  0  0  0  0  2  0  0  0  0  0  0
  -39.1600  -68.2630   50.8550 C   0  0  0  0  0  2  0  0  0  0  0  0
  -38.6160  -68.4120   52.1210 O   0  0  0  0  0  0  0  0  0  0  0  0
  -39.4850  -69.1640   52.8810 C   0  0  0  0  0  2  0  0  0  0  0  0
  -40.6600  -68.2920   53.2790 C   0  0  0  0  0  2  0  0  0  0  0  0
  -43.6280  -65.1630   52.7250 C   0  0  0  0  0  0  0  0  0  0  0  0
  -43.3930  -65.2770   54.0420 N   0  0  0  0  0  0  0  0  0  0  0  0
  -44.5020  -65.6250   54.6490 O   0  0  0  0  0  0  0  0  0  0  0  0
  -45.4780  -65.7510   53.7820 N   0  0  0  0  0  0  0  0  0  0  0  0
  -44.9590  -65.4670   52.5730 C   0  0  0  0  0  0  0  0  0  0  0  0
  -45.7160  -65.4920   51.3730 N   0  0  0  0  0  0  0  0  0  0  0  0
  -46.6260  -65.0030   51.2500 H   0  0  0  0  0  0  0  0  0  0  0  0
  -45.3730  -66.0220   50.5320 H   0  0  0  0  0  0  0  0  0  0  0  0
  1  5  2  0  0  0  0
  2  1  1  0  0  0  0
  2  3  2  0  0  0  0
  3  4  1  0  0  0  0
  4 31  1  0  0  0  0
  5  4  1  0  0  0  0
  5 24  1  0  0  0  0
  6  7  1  0  0  0  0
  6  1  1  0  0  0  0
  7  8  1  0  0  0  0
  9  6  2  0  0  0  0
 10  7  1  0  0  0  0
 11 10  2  0  0  0  0
 12 11  1  0  0  0  0
 13 12  2  0  0  0  0
 14 13  1  0  0  0  0
 15 14  2  0  0  0  0
 15 16  1  0  0  0  0
 16 18  2  0  0  0  0
 17 16  1  0  0  0  0
 18 12  1  0  0  0  0
 19 14  1  0  0  0  0
 20 19  1  0  0  0  0
 21 20  1  0  0  0  0
 22 15  1  0  0  0  0
 23 22  1  0  0  0  0
 24 25  1  0  0  0  0
 25 30  1  0  0  0  0
 26 25  1  0  0  0  0
 27 26  1  0  0  0  0
 27 28  1  0  0  0  0
 28 29  1  0  0  0  0
 29 30  1  0  0  0  0
 31 32  2  0  0  0  0
 32 33  1  0  0  0  0
 34 33  1  0  0  0  0
 35 31  1  0  0  0  0
 35 34  2  0  0  0  0
 36 35  1  0  0  0  0
 37 36  1  0  0  0  0
 38 36  1  0  0  0  0
M  END
>  <Pose>
1

>  <Score>
-7.381

$$$$
