MODEL 1
REMARK VINA RESULT:    -8.068      0.000      0.000
REMARK INTER + INTRA:         -13.129
REMARK INTER:                 -11.841
REMARK INTRA:                  -1.288
REMARK UNBOUND:                -1.288
REMARK  9 active torsions:
REMARK  status: ('A' for Active; 'I' for Inactive)
REMARK    1  A    between atoms: C_3  and  O_33 
REMARK    2  A    between atoms: C_4  and  O_31 
REMARK    3  A    between atoms: C_6  and  C_8 
REMARK    4  A    between atoms: N_9  and  N_10 
REMARK       I    between atoms: N_10  and  C_11 
REMARK    5  A    between atoms: C_11  and  C_13 
REMARK    6  A    between atoms: N_16  and  C_25 
REMARK    7  A    between atoms: C_17  and  C_18 
REMARK    8  A    between atoms: C_18  and  N_19 
REMARK    9  A    between atoms: C_29  and  N_30 
ROOT
ATOM      1  C   UNK d   1     -37.291 -64.667  48.198  0.00  0.00     0.170 A 
ATOM      2  N   UNK d   1     -36.988 -64.145  47.063  0.00  0.00    -0.152 NA
ATOM      3  N   UNK d   1     -35.781 -64.538  46.692  0.00  0.00     0.012 NA
ATOM      4  N   UNK d   1     -35.287 -65.336  47.627  0.00  0.00    -0.215 N 
ATOM      5  C   UNK d   1     -36.128 -65.489  48.640  0.00  0.00     0.098 A 
ENDROOT
BRANCH   1   6
ATOM      6  C   UNK d   1     -38.515 -64.978  48.901  0.00  0.00     0.293 C 
ATOM      7  N   UNK d   1     -38.929 -64.180  50.034  0.00  0.00    -0.242 N 
ATOM      8  H   UNK d   1     -38.654 -63.600  50.709  0.00  0.00     0.192 HD
ATOM      9  O   UNK d   1     -39.242 -65.877  48.479  0.00  0.00    -0.264 OA
BRANCH   7  10
ATOM     10  N   UNK d   1     -40.506 -64.424  50.058  0.00  0.00    -0.183 NA
ATOM     11  C   UNK d   1     -40.513 -65.066  51.242  0.00  0.00     0.150 C 
BRANCH  11  12
ATOM     12  C   UNK d   1     -41.287 -65.685  52.183  0.00  0.00    -0.013 A 
ATOM     13  C   UNK d   1     -42.469 -65.255  52.760  0.00  0.00     0.052 A 
ATOM     14  C   UNK d   1     -43.174 -65.963  53.706  0.00  0.00     0.103 A 
ATOM     15  C   UNK d   1     -42.677 -67.174  54.101  0.00  0.00     0.116 A 
ATOM     16  C   UNK d   1     -41.501 -67.647  53.558  0.00  0.00     0.047 A 
ATOM     17 Br   UNK d   1     -40.817 -69.347  54.164  0.00  0.00    -0.048 Br
ATOM     18  C   UNK d   1     -40.815 -66.968  52.646  0.00  0.00     0.035 A 
BRANCH  14  19
ATOM     19  O   UNK d   1     -44.355 -65.441  54.246  0.00  0.00    -0.353 OA
ATOM     20  C   UNK d   1     -45.587 -65.619  53.519  0.00  0.00     0.210 C 
ENDBRANCH  14  19
BRANCH  15  21
ATOM     21  O   UNK d   1     -43.354 -67.940  55.055  0.00  0.00    -0.357 OA
ATOM     22  H   UNK d   1     -43.833 -68.808  54.734  0.00  0.00     0.218 HD
ENDBRANCH  15  21
ENDBRANCH  11  12
ENDBRANCH   7  10
ENDBRANCH   1   6
BRANCH   5  23
ATOM     23  C   UNK d   1     -36.175 -66.321  49.808  0.00  0.00     0.334 C 
BRANCH  23  24
ATOM     24  N   UNK d   1     -35.875 -67.746  49.649  0.00  0.00     0.098 N 
ATOM     25  C   UNK d   1     -37.049 -68.556  49.673  0.00  0.00     0.299 C 
ATOM     26  C   UNK d   1     -37.747 -68.617  51.002  0.00  0.00     0.198 C 
ATOM     27  O   UNK d   1     -37.017 -69.408  51.872  0.00  0.00    -0.388 OA
ATOM     28  C   UNK d   1     -35.670 -69.444  51.496  0.00  0.00     0.198 C 
ATOM     29  C   UNK d   1     -35.253 -68.101  50.998  0.00  0.00     0.299 C 
ENDBRANCH  23  24
ENDBRANCH   5  23
BRANCH   4  30
ATOM     30  C   UNK d   1     -34.196 -66.236  47.314  0.00  0.00     0.225 A 
ATOM     31  N   UNK d   1     -32.946 -66.217  47.525  0.00  0.00    -0.081 NA
ATOM     32  O   UNK d   1     -32.323 -67.268  46.991  0.00  0.00    -0.103 OA
ATOM     33  N   UNK d   1     -33.232 -67.975  46.422  0.00  0.00    -0.083 NA
ATOM     34  C   UNK d   1     -34.439 -67.424  46.560  0.00  0.00     0.201 A 
BRANCH  34  35
ATOM     35  N   UNK d   1     -35.669 -67.887  46.064  0.00  0.00    -0.379 N 
ATOM     36  H   UNK d   1     -35.862 -68.001  45.053  0.00  0.00     0.158 HD
ATOM     37  H   UNK d   1     -36.479 -68.164  46.715  0.00  0.00     0.158 HD
ENDBRANCH  34  35
ENDBRANCH   4  30
TORSDOF 9
ENDMDL
