MODEL 1
REMARK VINA RESULT:    -7.872      0.000      0.000
REMARK INTER + INTRA:         -12.919
REMARK INTER:                 -11.784
REMARK INTRA:                  -1.134
REMARK UNBOUND:                -1.134
REMARK  9 active torsions:
REMARK  status: ('A' for Active; 'I' for Inactive)
REMARK    1  A    between atoms: C_3  and  O_32 
REMARK    2  A    between atoms: C_4  and  O_29 
REMARK    3  A    between atoms: C_6  and  C_8 
REMARK    4  A    between atoms: C_8  and  N_9 
REMARK    5  A    between atoms: N_9  and  N_10 
REMARK    6  A    between atoms: N_10  and  C_11 
REMARK    7  A    between atoms: C_13  and  N_23 
REMARK    8  A    between atoms: C_15  and  N_17 
REMARK    9  A    between atoms: O_29  and  C_30 
ROOT
ATOM      1  C   UNK d   1     -38.801 -65.474  48.700  0.00  0.00     0.783 A 
ATOM      2  N   UNK d   1     -38.077 -66.473  49.167  0.00  0.00     0.133 NA
ATOM      3  C   UNK d   1     -36.718 -66.382  49.238  0.00  0.00     0.756 A 
ATOM      4  N   UNK d   1     -36.182 -65.217  48.805  0.00  0.00     0.131 NA
ATOM      5  C   UNK d   1     -36.869 -64.166  48.317  0.00  0.00     0.756 A 
ATOM      6  N   UNK d   1     -38.211 -64.325  48.271  0.00  0.00     0.133 NA
ENDROOT
BRANCH   1   7
ATOM      7  N   UNK d   1     -40.279 -65.402  48.783  0.00  0.00    -0.061 N 
ATOM      8  H   UNK d   1     -40.699 -64.631  48.302  0.00  0.00     0.221 HD
BRANCH   7   9
ATOM      9  N   UNK d   1     -40.737 -66.410  49.482  0.00  0.00    -0.323 NA
BRANCH   9  10
ATOM     10  C   UNK d   1     -41.160 -67.293  50.106  0.00  0.00     0.221 C 
BRANCH  10  11
ATOM     11  C   UNK d   1     -41.116 -67.536  51.562  0.00  0.00    -0.001 A 
ATOM     12  C   UNK d   1     -42.022 -67.052  52.461  0.00  0.00     0.053 A 
ATOM     13  C   UNK d   1     -42.038 -67.504  53.774  0.00  0.00     0.104 A 
ATOM     14  C   UNK d   1     -41.118 -68.461  54.196  0.00  0.00     0.116 A 
ATOM     15  C   UNK d   1     -40.200 -68.946  53.306  0.00  0.00     0.047 A 
ATOM     16 Br   UNK d   1     -38.946 -70.282  53.878  0.00  0.00    -0.048 Br
ATOM     17  C   UNK d   1     -40.218 -68.478  52.011  0.00  0.00     0.036 A 
BRANCH  13  18
ATOM     18  O   UNK d   1     -42.909 -67.071  54.724  0.00  0.00    -0.349 OA
BRANCH  18  19
ATOM     19  C   UNK d   1     -43.689 -65.928  54.754  0.00  0.00     0.171 C 
ATOM     20  C   UNK d   1     -45.060 -66.132  54.127  0.00  0.00     0.034 C 
ENDBRANCH  18  19
ENDBRANCH  13  18
BRANCH  14  21
ATOM     21  O   UNK d   1     -41.098 -68.943  55.487  0.00  0.00    -0.357 OA
ATOM     22  H   UNK d   1     -40.633 -69.774  55.765  0.00  0.00     0.218 HD
ENDBRANCH  14  21
ENDBRANCH  10  11
ENDBRANCH   9  10
ENDBRANCH   7   9
ENDBRANCH   1   7
BRANCH   3  23
ATOM     23  N   UNK d   1     -35.914 -67.394  49.812  0.00  0.00    -0.209 N 
ATOM     24  C   UNK d   1     -36.473 -68.741  50.009  0.00  0.00     0.167 C 
ATOM     25  C   UNK d   1     -36.073 -69.130  51.456  0.00  0.00     0.188 C 
ATOM     26  O   UNK d   1     -34.716 -69.269  51.408  0.00  0.00    -0.388 OA
ATOM     27  C   UNK d   1     -34.041 -68.092  51.242  0.00  0.00     0.188 C 
ATOM     28  C   UNK d   1     -34.592 -67.135  50.237  0.00  0.00     0.167 C 
ENDBRANCH   3  23
BRANCH   5  29
ATOM     29  N   UNK d   1     -36.265 -62.953  48.033  0.00  0.00    -0.209 N 
ATOM     30  C   UNK d   1     -36.696 -61.898  47.201  0.00  0.00     0.167 C 
ATOM     31  C   UNK d   1     -35.645 -61.755  46.096  0.00  0.00     0.188 C 
ATOM     32  O   UNK d   1     -34.423 -61.574  46.705  0.00  0.00    -0.388 OA
ATOM     33  C   UNK d   1     -33.997 -62.607  47.507  0.00  0.00     0.188 C 
ATOM     34  C   UNK d   1     -34.960 -62.725  48.722  0.00  0.00     0.167 C 
ENDBRANCH   5  29
TORSDOF 9
ENDMDL
