MODEL 1
REMARK VINA RESULT:    -7.548      0.000      0.000
REMARK INTER + INTRA:         -13.075
REMARK INTER:                 -11.298
REMARK INTRA:                  -1.776
REMARK UNBOUND:                -1.776
REMARK  9 active torsions:
REMARK  status: ('A' for Active; 'I' for Inactive)
REMARK    1  A    between atoms: C_3  and  O_35 
REMARK    2  A    between atoms: C_4  and  O_33 
REMARK    3  A    between atoms: C_6  and  C_8 
REMARK    4  A    between atoms: N_9  and  C_27 
REMARK    5  A    between atoms: C_14  and  C_15 
REMARK    6  A    between atoms: C_15  and  C_17 
REMARK    7  A    between atoms: C_27  and  C_28 
REMARK    8  A    between atoms: C_28  and  C_29 
REMARK    9  A    between atoms: C_29  and  N_30 
ROOT
ATOM      1  C   UNK d   1     -37.884 -64.421  47.761  0.00  0.00     0.161 C 
ATOM      2  N   UNK d   1     -37.149 -63.198  48.007  0.00  0.00    -0.332 N 
ATOM      3  C   UNK d   1     -36.150 -63.382  48.969  0.00  0.00     0.295 C 
ATOM      4  O   UNK d   1     -35.447 -62.494  49.475  0.00  0.00    -0.264 OA
ATOM      5  C   UNK d   1     -36.085 -64.812  49.272  0.00  0.00     0.250 C 
ATOM      6  O   UNK d   1     -35.280 -65.292  50.110  0.00  0.00    -0.282 OA
ATOM      7  C   UNK d   1     -37.075 -65.486  48.460  0.00  0.00     0.062 C 
ENDROOT
BRANCH   7   8
ATOM      8  C   UNK d   1     -37.248 -66.779  48.400  0.00  0.00     0.130 C 
ATOM      9  O   UNK d   1     -37.115 -67.432  47.185  0.00  0.00    -0.190 OA
BRANCH   8  10
ATOM     10  C   UNK d   1     -37.567 -67.564  49.566  0.00  0.00     0.002 A 
ATOM     11  C   UNK d   1     -38.912 -67.514  49.957  0.00  0.00     0.024 A 
ATOM     12  C   UNK d   1     -39.367 -68.241  51.029  0.00  0.00    -0.021 A 
ATOM     13  C   UNK d   1     -38.499 -69.035  51.742  0.00  0.00     0.075 A 
ATOM     14  C   UNK d   1     -40.746 -68.321  51.609  0.00  0.00     0.073 C 
ATOM     15  C   UNK d   1     -37.178 -69.068  51.339  0.00  0.00     0.038 A 
ATOM     16  O   UNK d   1     -39.228 -69.659  52.777  0.00  0.00    -0.345 OA
ATOM     17  C   UNK d   1     -36.703 -68.347  50.265  0.00  0.00     0.017 A 
ATOM     18  C   UNK d   1     -40.455 -68.958  52.949  0.00  0.00     0.129 C 
ATOM     19  C   UNK d   1     -40.336 -67.843  53.970  0.00  0.00     0.040 C 
ENDBRANCH   8  10
ENDBRANCH   7   8
BRANCH   1  20
ATOM     20  C   UNK d   1     -39.218 -64.266  48.396  0.00  0.00    -0.026 A 
ATOM     21  C   UNK d   1     -40.256 -63.891  47.558  0.00  0.00     0.049 A 
ATOM     22  C   UNK d   1     -41.524 -63.722  48.005  0.00  0.00     0.103 A 
ATOM     23  C   UNK d   1     -41.789 -63.933  49.352  0.00  0.00     0.116 A 
ATOM     24  C   UNK d   1     -40.738 -64.312  50.199  0.00  0.00     0.047 A 
ATOM     25 Br   UNK d   1     -41.102 -64.600  52.037  0.00  0.00    -0.048 Br
ATOM     26  C   UNK d   1     -39.450 -64.481  49.732  0.00  0.00     0.031 A 
BRANCH  22  27
ATOM     27  O   UNK d   1     -42.568 -63.344  47.157  0.00  0.00    -0.353 OA
ATOM     28  C   UNK d   1     -42.375 -62.972  45.820  0.00  0.00     0.210 C 
ENDBRANCH  22  27
BRANCH  23  29
ATOM     29  O   UNK d   1     -43.069 -63.765  49.819  0.00  0.00    -0.357 OA
ATOM     30  H   UNK d   1     -43.518 -62.885  49.750  0.00  0.00     0.218 HD
ENDBRANCH  23  29
ENDBRANCH   1  20
BRANCH   2  31
ATOM     31  C   UNK d   1     -37.473 -61.971  47.308  0.00  0.00     0.129 C 
BRANCH  31  32
ATOM     32  C   UNK d   1     -36.768 -61.729  46.041  0.00  0.00     0.048 C 
BRANCH  32  33
ATOM     33  C   UNK d   1     -35.383 -61.200  46.102  0.00  0.00     0.235 C 
BRANCH  33  34
ATOM     34  N   UNK d   1     -34.399 -62.038  45.463  0.00  0.00    -0.079 N 
ATOM     35  C   UNK d   1     -35.049 -63.275  45.007  0.00  0.00     0.269 C 
ATOM     36  C   UNK d   1     -33.432 -62.416  46.477  0.00  0.00     0.269 C 
ATOM     37  H   UNK d   1     -33.884 -61.599  44.694  0.00  0.00     0.278 HD
ENDBRANCH  33  34
ENDBRANCH  32  33
ENDBRANCH  31  32
ENDBRANCH   2  31
TORSDOF 9
ENDMDL
