MODEL 1
REMARK VINA RESULT:    -8.814      0.000      0.000
REMARK INTER + INTRA:         -10.309
REMARK INTER:                 -10.102
REMARK INTRA:                  -0.206
REMARK UNBOUND:                -0.206
REMARK  3 active torsions:
REMARK  status: ('A' for Active; 'I' for Inactive)
REMARK    1  A    between atoms: C_3  and  O_25 
REMARK    2  A    between atoms: C_6  and  C_8 
REMARK    3  A    between atoms: C_10  and  C_21 
ROOT
ATOM      1  C   UNK d   1     -38.988 -67.731  49.817  0.00  0.00     0.270 C 
ATOM      2  N   UNK d   1     -39.406 -66.638  49.041  0.00  0.00    -0.047 N 
ATOM      3  C   UNK d   1     -40.574 -65.930  49.403  0.00  0.00     0.291 C 
ATOM      4  C   UNK d   1     -41.532 -66.674  50.294  0.00  0.00     0.086 C 
ATOM      5  C   UNK d   1     -40.834 -67.369  51.402  0.00  0.00    -0.018 A 
ATOM      6  C   UNK d   1     -41.187 -67.624  52.700  0.00  0.00    -0.001 A 
ATOM      7  C   UNK d   1     -40.110 -68.311  53.235  0.00  0.00     0.043 A 
ATOM      8  N   UNK d   1     -39.155 -68.453  52.278  0.00  0.00    -0.356 N 
ATOM      9  C   UNK d   1     -39.596 -67.876  51.152  0.00  0.00     0.052 A 
ATOM     10  C   UNK d   1     -40.212 -68.694  54.555  0.00  0.00     0.030 A 
ATOM     11  C   UNK d   1     -41.330 -68.408  55.309  0.00  0.00     0.002 A 
ATOM     12  C   UNK d   1     -42.402 -67.723  54.774  0.00  0.00     0.001 A 
ATOM     13  C   UNK d   1     -42.317 -67.332  53.449  0.00  0.00     0.014 A 
ATOM     14  H   UNK d   1     -38.626 -65.932  48.903  0.00  0.00     0.279 HD
ATOM     15  H   UNK d   1     -39.546 -66.988  48.040  0.00  0.00     0.279 HD
ATOM     16  H   UNK d   1     -38.259 -68.946  52.481  0.00  0.00     0.166 HD
ENDROOT
BRANCH   1  17
ATOM     17  C   UNK d   1     -37.515 -67.652  50.028  0.00  0.00    -0.019 A 
ATOM     18  C   UNK d   1     -36.814 -68.633  50.696  0.00  0.00     0.031 A 
ATOM     19  C   UNK d   1     -35.455 -68.451  50.835  0.00  0.00     0.046 A 
ATOM     20  C   UNK d   1     -34.774 -67.356  50.346  0.00  0.00     0.100 A 
ATOM     21 Br   UNK d   1     -34.455 -69.788  51.754  0.00  0.00    -0.048 Br
ATOM     22  C   UNK d   1     -35.480 -66.383  49.681  0.00  0.00     0.046 A 
ATOM     23 Br   UNK d   1     -34.578 -64.858  48.992  0.00  0.00    -0.048 Br
ATOM     24  C   UNK d   1     -36.860 -66.548  49.529  0.00  0.00     0.031 A 
BRANCH  20  25
ATOM     25  O   UNK d   1     -33.381 -67.244  50.530  0.00  0.00    -0.358 OA
ATOM     26  H   UNK d   1     -32.781 -67.615  49.807  0.00  0.00     0.217 HD
ENDBRANCH  20  25
ENDBRANCH   1  17
BRANCH   3  27
ATOM     27  C   UNK d   1     -40.280 -64.629  50.064  0.00  0.00     0.205 C 
ATOM     28  O   UNK d   1     -39.128 -64.096  49.910  0.00  0.00    -0.646 OA
ATOM     29  O   UNK d   1     -41.252 -64.016  50.838  0.00  0.00    -0.646 OA
ENDBRANCH   3  27
TORSDOF 3
ENDMDL
