MODEL 1
REMARK VINA RESULT:    -7.054      0.000      0.000
REMARK INTER + INTRA:          -9.962
REMARK INTER:                  -9.528
REMARK INTRA:                  -0.434
REMARK UNBOUND:                -0.434
REMARK  6 active torsions:
REMARK  status: ('A' for Active; 'I' for Inactive)
REMARK    1  A    between atoms: C_3  and  O_19 
REMARK    2  A    between atoms: C_4  and  C_8 
REMARK    3  A    between atoms: C_8  and  N_9 
REMARK    4  A    between atoms: O_19  and  C_20 
REMARK    5  A    between atoms: C_20  and  C_21 
REMARK    6  A    between atoms: C_21  and  O_23 
ROOT
ATOM      1 Br   UNK d   1     -41.161 -68.202  55.071  0.00  0.00    -0.048 Br
ATOM      2  C   UNK d   1     -40.122 -68.570  53.498  0.00  0.00     0.044 A 
ATOM      3  C   UNK d   1     -40.064 -67.693  52.474  0.00  0.00     0.094 A 
ATOM      4  C   UNK d   1     -39.341 -68.005  51.286  0.00  0.00     0.003 A 
ATOM      5  C   UNK d   1     -38.729 -69.208  51.222  0.00  0.00     0.012 A 
ATOM      6  C   UNK d   1     -38.810 -70.098  52.276  0.00  0.00     0.002 A 
ATOM      7  C   UNK d   1     -39.495 -69.795  53.412  0.00  0.00     0.022 A 
ENDROOT
BRANCH   4   8
ATOM      8  C   UNK d   1     -39.708 -67.146  50.143  0.00  0.00     0.283 C 
BRANCH   8   9
ATOM      9  N   UNK d   1     -38.782 -66.265  49.558  0.00  0.00    -0.010 N 
ATOM     10  C   UNK d   1     -37.424 -66.458  49.653  0.00  0.00     0.512 C 
ATOM     11  N   UNK d   1     -36.672 -65.493  48.853  0.00  0.00     0.143 N 
ATOM     12  C   UNK d   1     -37.028 -64.164  49.324  0.00  0.00     0.547 C 
ATOM     13  C   UNK d   1     -36.991 -65.541  47.447  0.00  0.00     0.284 C 
ATOM     14  N   UNK d   1     -38.457 -63.932  49.275  0.00  0.00     0.143 N 
ATOM     15  C   UNK d   1     -39.212 -64.889  49.982  0.00  0.00     0.512 C 
ATOM     16  C   UNK d   1     -38.859 -63.909  47.884  0.00  0.00     0.284 C 
ATOM     17  C   UNK d   1     -38.484 -65.254  47.313  0.00  0.00     0.069 C 
ATOM     18  C   UNK d   1     -39.186 -66.293  48.108  0.00  0.00     0.250 C 
ENDBRANCH   8   9
ENDBRANCH   4   8
BRANCH   3  19
ATOM     19  O   UNK d   1     -40.685 -66.497  52.541  0.00  0.00    -0.340 OA
BRANCH  19  20
ATOM     20  C   UNK d   1     -42.077 -66.297  52.224  0.00  0.00     0.286 C 
BRANCH  20  21
ATOM     21  C   UNK d   1     -42.602 -64.939  52.338  0.00  0.00     0.282 C 
ATOM     22  O   UNK d   1     -42.484 -64.063  51.493  0.00  0.00    -0.263 OA
BRANCH  21  23
ATOM     23  O   UNK d   1     -43.327 -64.627  53.494  0.00  0.00    -0.325 OA
ATOM     24  C   UNK d   1     -43.797 -65.599  54.390  0.00  0.00     0.213 C 
ENDBRANCH  21  23
ENDBRANCH  20  21
ENDBRANCH  19  20
ENDBRANCH   3  19
TORSDOF 6
ENDMDL
