MODEL 1
REMARK VINA RESULT:    -8.144      0.000      0.000
REMARK INTER + INTRA:         -11.940
REMARK INTER:                 -11.001
REMARK INTRA:                  -0.939
REMARK UNBOUND:                -0.939
REMARK  7 active torsions:
REMARK  status: ('A' for Active; 'I' for Inactive)
REMARK    1  A    between atoms: C_3  and  O_30 
REMARK    2  A    between atoms: C_5  and  O_29 
REMARK    3  A    between atoms: C_7  and  C_8 
REMARK    4  A    between atoms: N_9  and  N_10 
REMARK    5  A    between atoms: N_10  and  C_11 
REMARK    6  A    between atoms: C_13  and  N_23 
REMARK    7  A    between atoms: C_15  and  N_17 
ROOT
ATOM      1  C   UNK d   1     -39.335 -66.299  49.063  0.00  0.00     0.774 A 
ATOM      2  N   UNK d   1     -38.376 -67.161  49.413  0.00  0.00     0.133 NA
ATOM      3  C   UNK d   1     -37.068 -66.799  49.489  0.00  0.00     0.756 A 
ATOM      4  N   UNK d   1     -36.730 -65.533  49.201  0.00  0.00     0.131 NA
ATOM      5  C   UNK d   1     -37.669 -64.643  48.846  0.00  0.00     0.756 A 
ATOM      6  N   UNK d   1     -38.973 -65.044  48.781  0.00  0.00     0.133 NA
ENDROOT
BRANCH   1   7
ATOM      7  N   UNK d   1     -40.674 -66.736  49.011  0.00  0.00    -0.105 N 
ATOM      8  H   UNK d   1     -41.148 -66.753  48.084  0.00  0.00     0.208 HD
BRANCH   7   9
ATOM      9  N   UNK d   1     -41.375 -67.149  50.178  0.00  0.00    -0.172 NA
ATOM     10  C   UNK d   1     -41.045 -66.688  51.339  0.00  0.00     0.152 C 
BRANCH  10  11
ATOM     11  C   UNK d   1     -41.694 -67.045  52.577  0.00  0.00     0.006 A 
ATOM     12  C   UNK d   1     -41.265 -68.092  53.357  0.00  0.00     0.056 A 
ATOM     13 Br   UNK d   1     -39.749 -69.075  52.748  0.00  0.00    -0.047 Br
ATOM     14  C   UNK d   1     -41.895 -68.436  54.539  0.00  0.00     0.086 A 
ATOM     15  C   UNK d   1     -42.995 -67.705  54.960  0.00  0.00     0.074 A 
ATOM     16  C   UNK d   1     -43.446 -66.652  54.196  0.00  0.00     0.069 A 
ATOM     17  C   UNK d   1     -42.787 -66.339  53.017  0.00  0.00     0.051 A 
BRANCH  14  18
ATOM     18  O   UNK d   1     -41.439 -69.495  55.303  0.00  0.00    -0.359 OA
ATOM     19  H   UNK d   1     -40.742 -70.109  54.902  0.00  0.00     0.217 HD
ENDBRANCH  14  18
BRANCH  16  20
ATOM     20  O   UNK d   1     -44.550 -65.949  54.653  0.00  0.00    -0.361 OA
ATOM     21  H   UNK d   1     -44.501 -65.049  55.111  0.00  0.00     0.217 HD
ENDBRANCH  16  20
ENDBRANCH  10  11
ENDBRANCH   7   9
ENDBRANCH   1   7
BRANCH   3  22
ATOM     22  N   UNK d   1     -36.137 -67.789  49.865  0.00  0.00    -0.209 N 
ATOM     23  C   UNK d   1     -34.733 -67.550  49.661  0.00  0.00     0.167 C 
ATOM     24  C   UNK d   1     -34.090 -67.724  51.046  0.00  0.00     0.188 C 
ATOM     25  O   UNK d   1     -34.327 -69.052  51.401  0.00  0.00    -0.388 OA
ATOM     26  C   UNK d   1     -35.672 -69.291  51.662  0.00  0.00     0.188 C 
ATOM     27  C   UNK d   1     -36.545 -69.044  50.447  0.00  0.00     0.167 C 
ENDBRANCH   3  22
BRANCH   5  28
ATOM     28  N   UNK d   1     -37.318 -63.294  48.536  0.00  0.00    -0.209 N 
ATOM     29  C   UNK d   1     -38.246 -62.334  47.989  0.00  0.00     0.167 C 
ATOM     30  C   UNK d   1     -37.618 -61.573  46.841  0.00  0.00     0.188 C 
ATOM     31  O   UNK d   1     -36.322 -61.986  46.575  0.00  0.00    -0.388 OA
ATOM     32  C   UNK d   1     -35.545 -61.832  47.740  0.00  0.00     0.188 C 
ATOM     33  C   UNK d   1     -35.957 -62.858  48.777  0.00  0.00     0.167 C 
ENDBRANCH   5  28
TORSDOF 7
ENDMDL
