/Users/jonathanwahrer/Desktop/Msc/3_Semester/Drug_Design_Praktikum/waehrer_HTS_screening/HTS_experiment/out/docking_results/vina_output/3e7o/0035_docked.pdbqt
 OpenBabel03192215183D

 33 36  0  0  0  0  0  0  0  0999 V2000
  -39.3350  -66.2990   49.0630 C   0  0  0  0  0  0  0  0  0  0  0  0
  -38.3760  -67.1610   49.4130 N   0  0  0  0  0  4  0  0  0  0  0  0
  -37.0680  -66.7990   49.4890 C   0  0  0  0  0  0  0  0  0  0  0  0
  -36.7300  -65.5330   49.2010 N   0  0  0  0  0  0  0  0  0  0  0  0
  -37.6690  -64.6430   48.8460 C   0  0  0  0  0  0  0  0  0  0  0  0
  -38.9730  -65.0440   48.7810 N   0  0  0  0  0  2  0  0  0  0  0  0
  -40.6740  -66.7360   49.0110 N   0  0  0  0  0  0  0  0  0  0  0  0
  -41.1480  -66.7530   48.0840 H   0  0  0  0  0  0  0  0  0  0  0  0
  -41.3750  -67.1490   50.1780 N   0  0  0  0  0  0  0  0  0  0  0  0
  -41.0450  -66.6880   51.3390 C   0  0  0  0  0  3  0  0  0  0  0  0
  -41.6940  -67.0450   52.5770 C   0  0  0  0  0  0  0  0  0  0  0  0
  -41.2650  -68.0920   53.3570 C   0  0  0  0  0  0  0  0  0  0  0  0
  -39.7490  -69.0750   52.7480 Br  0  0  0  0  0  0  0  0  0  0  0  0
  -41.8950  -68.4360   54.5390 C   0  0  0  0  0  0  0  0  0  0  0  0
  -42.9950  -67.7050   54.9600 C   0  0  0  0  0  3  0  0  0  0  0  0
  -43.4460  -66.6520   54.1960 C   0  0  0  0  0  0  0  0  0  0  0  0
  -42.7870  -66.3390   53.0170 C   0  0  0  0  0  3  0  0  0  0  0  0
  -41.4390  -69.4950   55.3030 O   0  0  0  0  0  0  0  0  0  0  0  0
  -40.7420  -70.1090   54.9020 H   0  0  0  0  0  0  0  0  0  0  0  0
  -44.5500  -65.9490   54.6530 O   0  0  0  0  0  0  0  0  0  0  0  0
  -44.5010  -65.0490   55.1110 H   0  0  0  0  0  0  0  0  0  0  0  0
  -36.1370  -67.7890   49.8650 N   0  0  0  0  0  0  0  0  0  0  0  0
  -34.7330  -67.5500   49.6610 C   0  0  0  0  0  2  0  0  0  0  0  0
  -34.0900  -67.7240   51.0460 C   0  0  0  0  0  2  0  0  0  0  0  0
  -34.3270  -69.0520   51.4010 O   0  0  0  0  0  0  0  0  0  0  0  0
  -35.6720  -69.2910   51.6620 C   0  0  0  0  0  2  0  0  0  0  0  0
  -36.5450  -69.0440   50.4470 C   0  0  0  0  0  2  0  0  0  0  0  0
  -37.3180  -63.2940   48.5360 N   0  0  0  0  0  0  0  0  0  0  0  0
  -38.2460  -62.3340   47.9890 C   0  0  0  0  0  2  0  0  0  0  0  0
  -37.6180  -61.5730   46.8410 C   0  0  0  0  0  2  0  0  0  0  0  0
  -36.3220  -61.9860   46.5750 O   0  0  0  0  0  0  0  0  0  0  0  0
  -35.5450  -61.8320   47.7400 C   0  0  0  0  0  2  0  0  0  0  0  0
  -35.9570  -62.8580   48.7770 C   0  0  0  0  0  2  0  0  0  0  0  0
  1  2  2  0  0  0  0
  2  3  2  0  0  0  0
  3 22  1  0  0  0  0
  4  3  1  0  0  0  0
  5  4  2  0  0  0  0
  6  5  1  0  0  0  0
  6  1  1  0  0  0  0
  7  1  1  0  0  0  0
  7  9  1  0  0  0  0
  8  7  1  0  0  0  0
  9 10  2  0  0  0  0
 10 11  1  0  0  0  0
 11 17  2  0  0  0  0
 11 12  1  0  0  0  0
 12 14  2  0  0  0  0
 13 12  1  0  0  0  0
 14 15  1  0  0  0  0
 14 18  1  0  0  0  0
 16 20  1  0  0  0  0
 16 15  2  0  0  0  0
 17 16  1  0  0  0  0
 19 18  1  0  0  0  0
 20 21  1  0  0  0  0
 22 27  1  0  0  0  0
 23 22  1  0  0  0  0
 23 24  1  0  0  0  0
 24 25  1  0  0  0  0
 25 26  1  0  0  0  0
 27 26  1  0  0  0  0
 28 33  1  0  0  0  0
 28  5  1  0  0  0  0
 29 28  1  0  0  0  0
 30 29  1  0  0  0  0
 31 30  1  0  0  0  0
 31 32  1  0  0  0  0
 32 33  1  0  0  0  0
M  END
>  <Pose>
1

>  <Score>
-8.144

$$$$
