/Users/jonathanwahrer/Desktop/Msc/3_Semester/Drug_Design_Praktikum/waehrer_HTS_screening/HTS_experiment/out/docking_results/vina_output/3e7o/0037_docked.pdbqt
 OpenBabel03192215193D

 27 30  0  0  1  0  0  0  0  0999 V2000
  -42.4150  -67.0630   52.9580 N   0  0  0  0  0  0  0  0  0  0  0  0
  -43.1140  -66.0480   52.2050 C   0  0  0  0  0  2  0  0  0  0  0  0
  -44.5590  -66.3760   52.5120 C   0  0  1  0  0  3  0  0  0  0  0  0
  -44.4980  -66.5960   54.0130 C   0  0  0  0  0  2  0  0  0  0  0  0
  -43.2090  -67.3330   54.0990 C   0  0  0  0  0  0  0  0  0  0  0  0
  -42.8860  -68.0790   55.0470 O   0  0  0  0  0  0  0  0  0  0  0  0
  -45.4700  -65.2680   52.1540 C   0  0  0  0  0  0  0  0  0  0  0  0
  -46.0540  -64.5950   53.0360 O   0  0  0  0  0  0  0  0  0  0  0  0
  -45.6790  -64.9690   50.7910 N   0  0  0  0  0  0  0  0  0  0  0  0
  -45.2020  -65.5200   50.0560 H   0  0  0  0  0  0  0  0  0  0  0  0
  -46.5570  -63.8940   50.3960 C   0  0  0  0  0  2  0  0  0  0  0  0
  -45.7820  -62.6950   49.9690 C   0  0  0  0  0  0  0  0  0  0  0  0
  -46.2560  -61.4540   49.6960 N   0  0  0  0  0  0  0  0  0  0  0  0
  -45.2350  -60.6530   49.3460 C   0  0  0  0  0  0  0  0  0  0  0  0
  -47.5230  -60.7450   49.6680 C   0  0  0  0  0  2  0  0  0  0  0  0
  -44.1280  -61.4360   49.4130 N   0  0  0  0  0  0  0  0  0  0  0  0
  -45.7240  -59.2700   49.0370 C   0  0  0  0  0  2  0  0  0  0  0  0
  -44.4530  -62.6570   49.7840 N   0  0  0  0  0  0  0  0  0  0  0  0
  -47.2140  -59.4830   48.8900 C   0  0  0  0  0  2  0  0  0  0  0  0
  -41.1700  -67.6270   52.5650 C   0  0  0  0  0  0  0  0  0  0  0  0
  -40.4940  -68.5870   53.2860 C   0  0  0  0  0  3  0  0  0  0  0  0
  -39.2980  -69.1410   52.9230 C   0  0  0  0  0  0  0  0  0  0  0  0
  -38.7220  -68.7010   51.7370 C   0  0  0  0  0  0  0  0  0  0  0  0
  -38.5960  -70.1790   53.7260 C   0  0  0  0  0  1  0  0  0  0  0  0
  -37.0530  -69.4500   51.2020 Br  0  0  0  0  0  0  0  0  0  0  0  0
  -39.3500  -67.7400   50.9700 C   0  0  0  0  0  3  0  0  0  0  0  0
  -40.5580  -67.2110   51.3800 C   0  0  0  0  0  3  0  0  0  0  0  0
  1  5  1  0  0  0  0
  2  3  1  0  0  0  0
  2  1  1  0  0  0  0
  3  7  1  1  0  0  0
  3  4  1  0  0  0  0
  4  5  1  0  0  0  0
  5  6  2  0  0  0  0
  7  8  2  0  0  0  0
  9  7  1  0  0  0  0
 10  9  1  0  0  0  0
 11  9  1  0  0  0  0
 12 11  1  0  0  0  0
 13 12  1  0  0  0  0
 14 16  2  0  0  0  0
 14 13  1  0  0  0  0
 15 13  1  0  0  0  0
 16 18  1  0  0  0  0
 17 14  1  0  0  0  0
 18 12  2  0  0  0  0
 19 17  1  0  0  0  0
 19 15  1  0  0  0  0
 20  1  1  0  0  0  0
 20 21  1  0  0  0  0
 22 21  2  0  0  0  0
 22 24  1  0  0  0  0
 23 22  1  0  0  0  0
 25 23  1  0  0  0  0
 26 27  1  0  0  0  0
 26 23  2  0  0  0  0
 27 20  2  0  0  0  0
M  END
>  <Pose>
1

>  <Score>
-8.595

$$$$
