MODEL 1
REMARK VINA RESULT:    -6.542      0.000      0.000
REMARK INTER + INTRA:          -7.866
REMARK INTER:                  -7.689
REMARK INTRA:                  -0.177
REMARK UNBOUND:                -0.177
REMARK  3 active torsions:
REMARK  status: ('A' for Active; 'I' for Inactive)
REMARK    1  A    between atoms: C_3  and  N_9 
REMARK       I    between atoms: N_9  and  C_10 
REMARK    2  A    between atoms: C_10  and  C_12 
REMARK    3  A    between atoms: C_12  and  N_13 
ROOT
ATOM      1  N   UNK d   1     -39.255 -67.356  49.915  0.00  0.00    -0.325 N 
ATOM      2  C   UNK d   1     -38.854 -66.115  49.417  0.00  0.00     0.248 C 
ATOM      3  O   UNK d   1     -38.948 -65.084  50.097  0.00  0.00    -0.271 OA
ATOM      4  H   UNK d   1     -39.135 -68.182  49.256  0.00  0.00     0.169 HD
ENDROOT
BRANCH   2   5
ATOM      5  C   UNK d   1     -38.306 -66.038  48.049  0.00  0.00     0.340 C 
BRANCH   5   6
ATOM      6  N   UNK d   1     -36.904 -66.272  47.923  0.00  0.00    -0.054 N 
ATOM      7  C   UNK d   1     -36.730 -67.600  47.315  0.00  0.00     0.268 C 
ATOM      8  C   UNK d   1     -35.375 -67.610  46.651  0.00  0.00     0.300 C 
ATOM      9  N   UNK d   1     -34.482 -66.879  47.549  0.00  0.00     0.093 N 
ATOM     10  C   UNK d   1     -34.725 -65.466  47.275  0.00  0.00     0.300 C 
ATOM     11  C   UNK d   1     -34.891 -67.116  48.925  0.00  0.00     0.300 C 
ATOM     12  C   UNK d   1     -36.225 -65.275  47.100  0.00  0.00     0.268 C 
ATOM     13  C   UNK d   1     -36.191 -66.336  49.182  0.00  0.00     0.268 C 
ENDBRANCH   5   6
ENDBRANCH   2   5
BRANCH   1  14
ATOM     14  C   UNK d   1     -39.802 -67.662  51.183  0.00  0.00     0.052 A 
ATOM     15  C   UNK d   1     -39.164 -68.580  52.030  0.00  0.00     0.038 A 
ATOM     16 Br   UNK d   1     -37.544 -69.364  51.355  0.00  0.00    -0.049 Br
ATOM     17  C   UNK d   1     -39.646 -68.916  53.271  0.00  0.00     0.028 A 
ATOM     18  C   UNK d   1     -40.803 -68.364  53.766  0.00  0.00    -0.061 A 
ATOM     19  C   UNK d   1     -41.445 -67.461  52.955  0.00  0.00     0.009 A 
ATOM     20  C   UNK d   1     -41.337 -68.723  55.115  0.00  0.00     0.048 C 
ATOM     21  C   UNK d   1     -40.961 -67.115  51.691  0.00  0.00     0.031 A 
ENDBRANCH   1  14
TORSDOF 3
ENDMDL
