/Users/jonathanwahrer/Desktop/Msc/3_Semester/Drug_Design_Praktikum/waehrer_HTS_screening/HTS_experiment/out/docking_results/vina_output/3e7o/0064_docked.pdbqt
 OpenBabel03192215193D

 22 25  0  0  1  0  0  0  0  0999 V2000
  -36.6090  -66.7150   49.1390 N   0  0  0  0  0  0  0  0  0  0  0  0
  -36.9260  -65.3380   49.2660 C   0  0  0  0  0  0  0  0  0  0  0  0
  -36.5910  -64.6280   50.2310 O   0  0  0  0  0  0  0  0  0  0  0  0
  -37.7050  -64.8600   48.1010 C   0  0  2  0  0  3  0  0  0  0  0  0
  -39.0870  -64.4330   48.4520 C   0  0  1  0  0  0  0  0  0  0  0  0
  -39.9370  -65.1490   47.5670 O   0  0  0  0  0  0  0  0  0  0  0  0
  -39.4100  -66.4350   47.8530 C   0  0  1  0  0  3  0  0  0  0  0  0
  -37.9880  -66.1690   47.3430 C   0  0  2  0  0  3  0  0  0  0  0  0
  -37.0340  -67.1660   47.8500 C   0  0  0  0  0  0  0  0  0  0  0  0
  -36.6430  -68.2160   47.2930 O   0  0  0  0  0  0  0  0  0  0  0  0
  -39.4750  -66.4330   49.3300 C   0  0  0  0  0  2  0  0  0  0  0  0
  -39.4590  -65.1550   49.7080 C   0  0  0  0  0  2  0  0  0  0  0  0
  -35.9890  -67.5830   50.0760 C   0  0  0  0  0  0  0  0  0  0  0  0
  -34.6460  -67.5490   50.3780 C   0  0  0  0  0  0  0  0  0  0  0  0
  -33.5770  -66.2360   49.4600 Br  0  0  0  0  0  0  0  0  0  0  0  0
  -34.0680  -68.4040   51.2900 C   0  0  0  0  0  3  0  0  0  0  0  0
  -34.8120  -69.3450   51.9500 C   0  0  0  0  0  3  0  0  0  0  0  0
  -36.1730  -69.4080   51.6690 C   0  0  0  0  0  3  0  0  0  0  0  0
  -36.7360  -68.5420   50.7510 C   0  0  0  0  0  3  0  0  0  0  0  0
  -39.3700  -62.9900   48.4780 C   0  0  0  0  0  2  0  0  0  0  0  0
  -39.7430  -62.6420   49.7900 O   0  0  0  0  0  0  0  0  0  0  0  0
  -40.3810  -63.3270   50.1450 H   0  0  0  0  0  0  0  0  0  0  0  0
  1  2  1  0  0  0  0
  1 13  1  0  0  0  0
  2  3  2  0  0  0  0
  4  5  1  0  0  0  0
  4  2  1  1  0  0  0
  5 20  1  1  0  0  0
  5 12  1  0  0  0  0
  6  7  1  0  0  0  0
  6  5  1  0  0  0  0
  7 11  1  1  0  0  0
  8  9  1  1  0  0  0
  8  7  1  0  0  0  0
  8  4  1  0  0  0  0
  9  1  1  0  0  0  0
 10  9  2  0  0  0  0
 11 12  1  0  0  0  0
 13 14  2  0  0  0  0
 13 19  1  0  0  0  0
 14 16  1  0  0  0  0
 15 14  1  0  0  0  0
 16 17  2  0  0  0  0
 18 17  1  0  0  0  0
 19 18  2  0  0  0  0
 20 21  1  0  0  0  0
 21 22  1  0  0  0  0
M  END
>  <Pose>
1

>  <Score>
-6.518

$$$$
