MODEL 1
REMARK VINA RESULT:    -6.518      0.000      0.000
REMARK INTER + INTRA:          -8.060
REMARK INTER:                  -7.470
REMARK INTRA:                  -0.590
REMARK UNBOUND:                -0.590
REMARK  3 active torsions:
REMARK  status: ('A' for Active; 'I' for Inactive)
REMARK    1  A    between atoms: C_3  and  N_8 
REMARK    2  A    between atoms: C_12  and  C_20 
REMARK    3  A    between atoms: C_20  and  O_21 
ROOT
ATOM      1  N   UNK d   1     -36.609 -66.715  49.139  0.00  0.00    -0.250 N 
ATOM      2  C   UNK d   1     -36.926 -65.338  49.266  0.00  0.00     0.239 C 
ATOM      3  O   UNK d   1     -36.591 -64.628  50.231  0.00  0.00    -0.272 OA
ATOM      4  C   UNK d   1     -37.705 -64.860  48.101  0.00  0.00     0.135 C 
ATOM      5  C   UNK d   1     -39.087 -64.433  48.452  0.00  0.00     0.113 C 
ATOM      6  O   UNK d   1     -39.937 -65.149  47.567  0.00  0.00    -0.363 OA
ATOM      7  C   UNK d   1     -39.410 -66.435  47.853  0.00  0.00     0.159 C 
ATOM      8  C   UNK d   1     -37.988 -66.169  47.343  0.00  0.00     0.128 C 
ATOM      9  C   UNK d   1     -37.034 -67.166  47.850  0.00  0.00     0.239 C 
ATOM     10  O   UNK d   1     -36.643 -68.216  47.293  0.00  0.00    -0.272 OA
ATOM     11  C   UNK d   1     -39.475 -66.433  49.330  0.00  0.00     0.005 C 
ATOM     12  C   UNK d   1     -39.459 -65.155  49.708  0.00  0.00     0.012 C 
ENDROOT
BRANCH   1  13
ATOM     13  C   UNK d   1     -35.989 -67.583  50.076  0.00  0.00     0.062 A 
ATOM     14  C   UNK d   1     -34.646 -67.549  50.378  0.00  0.00     0.038 A 
ATOM     15 Br   UNK d   1     -33.577 -66.236  49.460  0.00  0.00    -0.049 Br
ATOM     16  C   UNK d   1     -34.068 -68.404  51.290  0.00  0.00     0.021 A 
ATOM     17  C   UNK d   1     -34.812 -69.345  51.950  0.00  0.00     0.002 A 
ATOM     18  C   UNK d   1     -36.173 -69.408  51.669  0.00  0.00     0.002 A 
ATOM     19  C   UNK d   1     -36.736 -68.542  50.751  0.00  0.00     0.031 A 
ENDBRANCH   1  13
BRANCH   5  20
ATOM     20  C   UNK d   1     -39.370 -62.990  48.478  0.00  0.00     0.207 C 
BRANCH  20  21
ATOM     21  O   UNK d   1     -39.743 -62.642  49.790  0.00  0.00    -0.398 OA
ATOM     22  H   UNK d   1     -40.381 -63.327  50.145  0.00  0.00     0.209 HD
ENDBRANCH  20  21
ENDBRANCH   5  20
TORSDOF 3
ENDMDL
