/Users/jonathanwahrer/Desktop/Msc/3_Semester/Drug_Design_Praktikum/waehrer_HTS_screening/HTS_experiment/out/docking_results/vina_output/3e7o/0067_docked.pdbqt
 OpenBabel03192215193D

 22 25  0  0  1  0  0  0  0  0999 V2000
  -39.6060  -67.3530   50.8210 N   0  0  0  0  0  0  0  0  0  0  0  0
  -38.4050  -67.0050   50.0370 C   0  0  0  0  0  2  0  0  0  0  0  0
  -38.8610  -65.8280   49.3090 C   0  0  2  0  0  0  0  0  0  0  0  0
  -38.7520  -64.6020   49.9890 O   0  0  0  0  0  0  0  0  0  0  0  0
  -39.4650  -63.8400   49.0260 C   0  0  2  0  0  3  0  0  0  0  0  0
  -40.8150  -64.5560   49.1670 C   0  0  1  0  0  3  0  0  0  0  0  0
  -40.3690  -65.9810   49.0500 C   0  0  2  0  0  3  0  0  0  0  0  0
  -40.7540  -66.8790   50.1270 C   0  0  0  0  0  0  0  0  0  0  0  0
  -41.9220  -67.2040   50.4210 O   0  0  0  0  0  0  0  0  0  0  0  0
  -38.7500  -64.2400   47.7780 C   0  0  0  0  0  2  0  0  0  0  0  0
  -38.2590  -65.4740   48.0270 C   0  0  0  0  0  2  0  0  0  0  0  0
  -39.6510  -68.0390   52.0620 C   0  0  0  0  0  0  0  0  0  0  0  0
  -38.9340  -69.1990   52.2980 C   0  0  0  0  0  0  0  0  0  0  0  0
  -37.8300  -69.9680   50.9790 Br  0  0  0  0  0  0  0  0  0  0  0  0
  -39.0020  -69.8480   53.5330 C   0  0  0  0  0  3  0  0  0  0  0  0
  -39.7770  -69.3610   54.5510 C   0  0  0  0  0  3  0  0  0  0  0  0
  -40.4900  -68.2230   54.3390 C   0  0  0  0  0  3  0  0  0  0  0  0
  -40.4220  -67.5860   53.1260 C   0  0  0  0  0  3  0  0  0  0  0  0
  -41.2590  -64.2640   50.5670 C   0  0  0  0  0  0  0  0  0  0  0  0
  -40.4650  -64.1070   51.5060 O   0  0  0  0  0  0  0  0  0  0  0  0
  -42.6210  -64.1660   50.8210 O   0  0  0  0  0  0  0  0  0  0  0  0
  -43.0880  -64.4160   52.1520 C   0  0  0  0  0  1  0  0  0  0  0  0
  1 12  1  0  0  0  0
  2  1  1  0  0  0  0
  3 11  1  6  0  0  0
  3  4  1  0  0  0  0
  3  2  1  0  0  0  0
  5 10  1  6  0  0  0
  5  6  1  0  0  0  0
  5  4  1  0  0  0  0
  6 19  1  1  0  0  0
  7  6  1  0  0  0  0
  7  3  1  0  0  0  0
  7  8  1  1  0  0  0
  8  9  2  0  0  0  0
  8  1  1  0  0  0  0
 10 11  1  0  0  0  0
 12 13  2  0  0  0  0
 12 18  1  0  0  0  0
 13 15  1  0  0  0  0
 14 13  1  0  0  0  0
 15 16  2  0  0  0  0
 17 16  1  0  0  0  0
 18 17  2  0  0  0  0
 19 21  1  0  0  0  0
 19 20  2  0  0  0  0
 21 22  1  0  0  0  0
M  END
>  <Pose>
1

>  <Score>
-7.357

$$$$
