MODEL 1
REMARK VINA RESULT:    -7.597      0.000      0.000
REMARK INTER + INTRA:          -8.651
REMARK INTER:                  -8.485
REMARK INTRA:                  -0.166
REMARK UNBOUND:                -0.166
REMARK  2 active torsions:
REMARK  status: ('A' for Active; 'I' for Inactive)
REMARK    1  A    between atoms: N_4  and  C_8 
REMARK    2  A    between atoms: C_8  and  C_9 
ROOT
ATOM      1  C   UNK d   1     -36.891 -68.496  50.530  0.00  0.00     0.168 A 
ATOM      2  N   UNK d   1     -35.555 -68.645  50.573  0.00  0.00    -0.148 NA
ATOM      3  N   UNK d   1     -34.969 -67.516  50.172  0.00  0.00    -0.206 N 
ATOM      4  C   UNK d   1     -35.923 -66.615  49.862  0.00  0.00     0.169 A 
ATOM      5  N   UNK d   1     -37.093 -67.241  50.091  0.00  0.00    -0.209 NA
ATOM      6  C   UNK d   1     -35.549 -65.362  49.418  0.00  0.00     0.079 A 
ATOM      7  C   UNK d   1     -34.226 -64.993  49.279  0.00  0.00     0.162 A 
ATOM      8  N   UNK d   1     -34.143 -63.724  48.832  0.00  0.00    -0.256 N 
ATOM      9  N   UNK d   1     -35.377 -63.281  48.686  0.00  0.00    -0.182 NA
ATOM     10  C   UNK d   1     -36.273 -64.252  49.034  0.00  0.00     0.158 A 
ATOM     11  C   UNK d   1     -32.947 -62.948  48.551  0.00  0.00     0.182 C 
ATOM     12  N   UNK d   1     -33.305 -65.921  49.598  0.00  0.00    -0.222 NA
ATOM     13  C   UNK d   1     -33.681 -67.152  50.034  0.00  0.00     0.239 A 
ENDROOT
BRANCH   1  14
ATOM     14  C   UNK d   1     -37.934 -69.515  50.897  0.00  0.00     0.233 C 
BRANCH  14  15
ATOM     15  N   UNK d   1     -38.994 -68.926  51.683  0.00  0.00    -0.265 N 
ATOM     16  C   UNK d   1     -39.246 -69.224  52.965  0.00  0.00     0.046 A 
ATOM     17  C   UNK d   1     -40.320 -68.458  53.338  0.00  0.00     0.060 A 
ATOM     18  C   UNK d   1     -38.526 -70.193  53.853  0.00  0.00     0.071 C 
ATOM     19 Br   UNK d   1     -41.156 -68.428  55.043  0.00  0.00    -0.047 Br
ATOM     20  C   UNK d   1     -40.708 -67.699  52.266  0.00  0.00     0.070 A 
ATOM     21  N   UNK d   1     -39.858 -68.023  51.264  0.00  0.00    -0.176 NA
ATOM     22  C   UNK d   1     -41.839 -66.705  52.193  0.00  0.00     0.074 C 
ENDBRANCH  14  15
ENDBRANCH   1  14
TORSDOF 2
ENDMDL
