MODEL 1
REMARK VINA RESULT:    -7.623      0.000      0.000
REMARK INTER + INTRA:          -9.579
REMARK INTER:                  -8.960
REMARK INTRA:                  -0.619
REMARK UNBOUND:                -0.619
REMARK  3 active torsions:
REMARK  status: ('A' for Active; 'I' for Inactive)
REMARK    1  A    between atoms: C_3  and  C_8 
REMARK       I    between atoms: C_8  and  N_10 
REMARK    2  A    between atoms: N_10  and  C_11 
REMARK    3  A    between atoms: C_17  and  N_20 
ROOT
ATOM      1  C   UNK d   1     -39.264 -67.567  50.529  0.00  0.00     0.069 A 
ATOM      2  C   UNK d   1     -38.041 -68.228  50.764  0.00  0.00     0.146 A 
ATOM      3  N   UNK d   1     -37.683 -69.111  51.735  0.00  0.00    -0.101 NA
ATOM      4  O   UNK d   1     -36.444 -69.434  51.519  0.00  0.00    -0.106 OA
ATOM      5  N   UNK d   1     -35.987 -68.816  50.475  0.00  0.00    -0.101 NA
ATOM      6  C   UNK d   1     -36.950 -68.042  49.958  0.00  0.00     0.146 A 
ATOM      7  C   UNK d   1     -36.973 -67.198  48.866  0.00  0.00     0.064 A 
ATOM      8  C   UNK d   1     -38.173 -66.552  48.639  0.00  0.00     0.034 A 
ATOM      9  C   UNK d   1     -39.290 -66.734  49.452  0.00  0.00     0.034 A 
ENDROOT
BRANCH   1  10
ATOM     10  N   UNK d   1     -40.325 -67.838  51.430  0.00  0.00    -0.319 N 
ATOM     11  C   UNK d   1     -40.880 -66.924  52.322  0.00  0.00     0.275 C 
ATOM     12  O   UNK d   1     -40.431 -65.719  52.367  0.00  0.00    -0.266 OA
ATOM     13  H   UNK d   1     -40.764 -68.807  51.441  0.00  0.00     0.169 HD
BRANCH  11  14
ATOM     14  C   UNK d   1     -41.984 -67.246  53.250  0.00  0.00     0.139 A 
ATOM     15  C   UNK d   1     -43.261 -66.790  53.252  0.00  0.00     0.064 A 
ATOM     16 Br   UNK d   1     -44.120 -65.604  52.026  0.00  0.00    -0.047 Br
ATOM     17  C   UNK d   1     -43.902 -67.381  54.359  0.00  0.00     0.160 A 
ATOM     18  N   UNK d   1     -42.979 -68.141  54.938  0.00  0.00    -0.183 NA
ATOM     19  N   UNK d   1     -41.827 -68.097  54.322  0.00  0.00    -0.268 N 
ATOM     20  C   UNK d   1     -40.625 -68.799  54.689  0.00  0.00     0.180 C 
ENDBRANCH  11  14
ENDBRANCH   1  10
BRANCH   7  21
ATOM     21  N   UNK d   1     -35.860 -66.996  48.030  0.00  0.00    -0.375 N 
ATOM     22  C   UNK d   1     -35.741 -67.809  46.823  0.00  0.00     0.149 C 
ATOM     23  C   UNK d   1     -34.420 -67.596  46.136  0.00  0.00     0.187 C 
ATOM     24  O   UNK d   1     -33.342 -67.462  46.947  0.00  0.00    -0.388 OA
ATOM     25  C   UNK d   1     -33.518 -66.907  48.181  0.00  0.00     0.187 C 
ATOM     26  C   UNK d   1     -34.780 -66.070  48.192  0.00  0.00     0.149 C 
ENDBRANCH   7  21
TORSDOF 3
ENDMDL
