/Users/jonathanwahrer/Desktop/Msc/3_Semester/Drug_Design_Praktikum/waehrer_HTS_screening/HTS_experiment/out/docking_results/vina_output/3e7o/0095_docked.pdbqt
 OpenBabel03192215193D

 26 29  0  0  0  0  0  0  0  0999 V2000
  -36.3730  -67.8740   48.7200 C   0  0  0  0  0  0  0  0  0  0  0  0
  -35.8620  -68.3280   47.6460 O   0  0  0  0  0  0  0  0  0  0  0  0
  -37.0520  -68.6040   49.6670 N   0  0  0  0  0  0  0  0  0  0  0  0
  -36.8830  -69.7380   48.9320 H   0  0  0  0  0  0  0  0  0  0  0  0
  -36.1990  -66.3900   48.9420 C   0  0  0  0  0  0  0  0  0  0  0  0
  -37.1510  -65.4910   48.5340 C   0  0  0  0  0  3  0  0  0  0  0  0
  -36.9280  -64.1270   48.7580 C   0  0  0  0  0  0  0  0  0  0  0  0
  -38.2260  -62.8650   48.2030 Br  0  0  0  0  0  0  0  0  0  0  0  0
  -35.7770  -63.6980   49.3730 C   0  0  0  0  0  3  0  0  0  0  0  0
  -34.8190  -64.6040   49.7830 C   0  0  0  0  0  3  0  0  0  0  0  0
  -35.0490  -65.9720   49.5580 C   0  0  0  0  0  0  0  0  0  0  0  0
  -34.1130  -66.9570   49.9580 N   0  0  0  0  0  0  0  0  0  0  0  0
  -33.0470  -67.2840   49.2540 N   0  0  0  0  0  0  0  0  0  0  0  0
  -32.3550  -68.2240   49.8620 N   0  0  0  0  0  0  0  0  0  0  0  0
  -32.9750  -68.5260   50.9910 N   0  0  0  0  0  0  0  0  0  0  0  0
  -34.0570  -67.7430   51.0440 C   0  0  0  0  0  3  0  0  0  0  0  0
  -37.7260  -69.3300   50.6070 C   0  0  0  0  0  2  0  0  0  0  0  0
  -38.8170  -68.5520   51.3240 C   0  0  0  0  0  0  0  0  0  0  0  0
  -39.2760  -68.8240   52.5650 N   0  0  0  0  0  0  0  0  0  0  0  0
  -40.2350  -67.9530   52.9050 C   0  0  0  0  0  0  0  0  0  0  0  0
  -38.9130  -69.7980   53.4470 C   0  0  0  0  0  3  0  0  0  0  0  0
  -40.3680  -67.1290   51.8550 N   0  0  0  0  0  0  0  0  0  0  0  0
  -40.8630  -68.0360   54.1550 C   0  0  0  0  0  3  0  0  0  0  0  0
  -39.5070  -67.4910   50.8920 N   0  0  0  0  0  0  0  0  0  0  0  0
  -40.5030  -69.0100   55.0440 C   0  0  0  0  0  3  0  0  0  0  0  0
  -39.5150  -69.9080   54.6920 C   0  0  0  0  0  3  0  0  0  0  0  0
  1  5  1  0  0  0  0
  1  3  1  0  0  0  0
  2  1  2  0  0  0  0
  3 17  1  0  0  0  0
  4  3  1  0  0  0  0
  5 11  1  0  0  0  0
  6  7  1  0  0  0  0
  6  5  2  0  0  0  0
  7  9  2  0  0  0  0
  8  7  1  0  0  0  0
  9 10  1  0  0  0  0
 11 10  2  0  0  0  0
 11 12  1  0  0  0  0
 12 16  1  0  0  0  0
 13 14  2  0  0  0  0
 13 12  1  0  0  0  0
 14 15  1  0  0  0  0
 15 16  2  0  0  0  0
 17 18  1  0  0  0  0
 18 19  1  0  0  0  0
 19 20  1  0  0  0  0
 19 21  1  0  0  0  0
 20 23  1  0  0  0  0
 21 26  2  0  0  0  0
 22 20  2  0  0  0  0
 23 25  2  0  0  0  0
 24 18  2  0  0  0  0
 24 22  1  0  0  0  0
 26 25  1  0  0  0  0
M  END
>  <Pose>
1

>  <Score>
-8.134

$$$$
