MODEL 1
REMARK VINA RESULT:    -8.134      0.000      0.000
REMARK INTER + INTRA:         -10.525
REMARK INTER:                 -10.036
REMARK INTRA:                  -0.489
REMARK UNBOUND:                -0.489
REMARK  4 active torsions:
REMARK  status: ('A' for Active; 'I' for Inactive)
REMARK    1  A    between atoms: C_4  and  C_13 
REMARK    2  A    between atoms: C_5  and  N_8 
REMARK       I    between atoms: C_13  and  N_15 
REMARK    3  A    between atoms: N_15  and  C_16 
REMARK    4  A    between atoms: C_16  and  C_17 
ROOT
ATOM      1  C   UNK d   1     -36.373 -67.874  48.720  0.00  0.00     0.254 C 
ATOM      2  O   UNK d   1     -35.862 -68.328  47.646  0.00  0.00    -0.268 OA
ATOM      3  N   UNK d   1     -37.052 -68.604  49.667  0.00  0.00    -0.350 N 
ATOM      4  H   UNK d   1     -36.883 -69.738  48.932  0.00  0.00     0.163 HD
ENDROOT
BRANCH   1   5
ATOM      5  C   UNK d   1     -36.199 -66.390  48.942  0.00  0.00     0.062 A 
ATOM      6  C   UNK d   1     -37.151 -65.491  48.534  0.00  0.00     0.038 A 
ATOM      7  C   UNK d   1     -36.928 -64.127  48.758  0.00  0.00     0.012 A 
ATOM      8 Br   UNK d   1     -38.226 -62.865  48.203  0.00  0.00    -0.051 Br
ATOM      9  C   UNK d   1     -35.777 -63.698  49.373  0.00  0.00     0.021 A 
ATOM     10  C   UNK d   1     -34.819 -64.604  49.783  0.00  0.00     0.034 A 
ATOM     11  C   UNK d   1     -35.049 -65.972  49.558  0.00  0.00     0.077 A 
BRANCH  11  12
ATOM     12  N   UNK d   1     -34.113 -66.957  49.958  0.00  0.00    -0.205 N 
ATOM     13  N   UNK d   1     -33.047 -67.284  49.254  0.00  0.00    -0.040 NA
ATOM     14  N   UNK d   1     -32.355 -68.224  49.862  0.00  0.00    -0.023 NA
ATOM     15  N   UNK d   1     -32.975 -68.526  50.991  0.00  0.00    -0.122 NA
ATOM     16  C   UNK d   1     -34.057 -67.743  51.044  0.00  0.00     0.262 A 
ENDBRANCH  11  12
ENDBRANCH   1   5
BRANCH   3  17
ATOM     17  C   UNK d   1     -37.726 -69.330  50.607  0.00  0.00     0.203 C 
BRANCH  17  18
ATOM     18  C   UNK d   1     -38.817 -68.552  51.324  0.00  0.00     0.152 A 
ATOM     19  N   UNK d   1     -39.276 -68.824  52.565  0.00  0.00    -0.290 N 
ATOM     20  C   UNK d   1     -40.235 -67.953  52.905  0.00  0.00     0.157 A 
ATOM     21  C   UNK d   1     -38.913 -69.798  53.447  0.00  0.00     0.100 A 
ATOM     22  N   UNK d   1     -40.368 -67.129  51.855  0.00  0.00    -0.130 NA
ATOM     23  C   UNK d   1     -40.863 -68.036  54.155  0.00  0.00     0.053 A 
ATOM     24  N   UNK d   1     -39.507 -67.491  50.892  0.00  0.00    -0.132 NA
ATOM     25  C   UNK d   1     -40.503 -69.010  55.044  0.00  0.00     0.005 A 
ATOM     26  C   UNK d   1     -39.515 -69.908  54.692  0.00  0.00     0.018 A 
ENDBRANCH  17  18
ENDBRANCH   3  17
TORSDOF 4
ENDMDL
