MODEL 1
REMARK VINA RESULT:    -7.966      0.000      0.000
REMARK INTER + INTRA:         -11.713
REMARK INTER:                 -10.760
REMARK INTRA:                  -0.953
REMARK UNBOUND:                -0.953
REMARK  6 active torsions:
REMARK  status: ('A' for Active; 'I' for Inactive)
REMARK    1  A    between atoms: C_4  and  C_10 
REMARK    2  A    between atoms: C_5  and  O_8 
REMARK    3  A    between atoms: N_11  and  N_12 
REMARK    4  A    between atoms: N_12  and  C_13 
REMARK    5  A    between atoms: C_15  and  N_25 
REMARK    6  A    between atoms: C_17  and  N_19 
ROOT
ATOM      1  C   UNK d   1     -39.138 -66.171  49.067  0.00  0.00     0.774 A 
ATOM      2  N   UNK d   1     -38.194 -67.065  49.434  0.00  0.00     0.133 NA
ATOM      3  C   UNK d   1     -36.904 -66.725  49.529  0.00  0.00     0.756 A 
ATOM      4  N   UNK d   1     -36.553 -65.460  49.249  0.00  0.00     0.131 NA
ATOM      5  C   UNK d   1     -37.450 -64.509  48.874  0.00  0.00     0.756 A 
ATOM      6  N   UNK d   1     -38.743 -64.926  48.799  0.00  0.00     0.133 NA
ENDROOT
BRANCH   1   7
ATOM      7  N   UNK d   1     -40.517 -66.498  48.957  0.00  0.00    -0.105 N 
ATOM      8  H   UNK d   1     -40.992 -66.543  48.015  0.00  0.00     0.208 HD
BRANCH   7   9
ATOM      9  N   UNK d   1     -41.318 -66.776  50.066  0.00  0.00    -0.171 NA
ATOM     10  C   UNK d   1     -40.957 -66.574  51.277  0.00  0.00     0.153 C 
BRANCH  10  11
ATOM     11  C   UNK d   1     -41.807 -66.871  52.425  0.00  0.00     0.018 A 
ATOM     12  C   UNK d   1     -43.096 -66.402  52.506  0.00  0.00     0.034 A 
ATOM     13  C   UNK d   1     -43.889 -66.688  53.594  0.00  0.00     0.011 A 
ATOM     14 Br   UNK d   1     -45.677 -66.036  53.707  0.00  0.00    -0.051 Br
ATOM     15  C   UNK d   1     -43.422 -67.459  54.651  0.00  0.00     0.022 A 
ATOM     16  C   UNK d   1     -42.124 -67.936  54.575  0.00  0.00     0.039 A 
ATOM     17  C   UNK d   1     -41.329 -67.637  53.465  0.00  0.00     0.080 A 
BRANCH  17  18
ATOM     18  O   UNK d   1     -40.023 -68.100  53.357  0.00  0.00    -0.355 OA
ATOM     19  C   UNK d   1     -39.626 -69.412  53.680  0.00  0.00     0.210 C 
ENDBRANCH  17  18
ENDBRANCH  10  11
ENDBRANCH   7   9
ENDBRANCH   1   7
BRANCH   3  20
ATOM     20  N   UNK d   1     -35.911 -67.666  49.914  0.00  0.00    -0.209 N 
ATOM     21  C   UNK d   1     -36.239 -68.916  50.564  0.00  0.00     0.167 C 
ATOM     22  C   UNK d   1     -35.269 -69.218  51.697  0.00  0.00     0.188 C 
ATOM     23  O   UNK d   1     -33.951 -68.983  51.290  0.00  0.00    -0.388 OA
ATOM     24  C   UNK d   1     -33.753 -67.668  50.941  0.00  0.00     0.188 C 
ATOM     25  C   UNK d   1     -34.513 -67.396  49.661  0.00  0.00     0.167 C 
ENDBRANCH   3  20
BRANCH   5  26
ATOM     26  N   UNK d   1     -37.076 -63.184  48.581  0.00  0.00    -0.209 N 
ATOM     27  C   UNK d   1     -37.973 -62.286  47.919  0.00  0.00     0.167 C 
ATOM     28  C   UNK d   1     -37.227 -61.720  46.712  0.00  0.00     0.188 C 
ATOM     29  O   UNK d   1     -36.064 -61.142  47.190  0.00  0.00    -0.388 OA
ATOM     30  C   UNK d   1     -35.176 -62.062  47.697  0.00  0.00     0.188 C 
ATOM     31  C   UNK d   1     -35.773 -62.710  48.946  0.00  0.00     0.167 C 
ENDBRANCH   5  26
TORSDOF 6
ENDMDL
