MODEL 1
REMARK VINA RESULT:    -8.052      0.000      0.000
REMARK INTER + INTRA:         -10.355
REMARK INTER:                  -9.934
REMARK INTRA:                  -0.421
REMARK UNBOUND:                -0.421
REMARK  4 active torsions:
REMARK  status: ('A' for Active; 'I' for Inactive)
REMARK    1  A    between atoms: C_4  and  C_8 
REMARK    2  A    between atoms: C_8  and  C_10 
REMARK    3  A    between atoms: C_10  and  N_11 
REMARK    4  A    between atoms: N_14  and  C_17 
ROOT
ATOM      1  N   UNK d   1     -37.828 -67.780  50.499  0.00  0.00    -0.402 N 
ATOM      2  C   UNK d   1     -38.350 -66.622  49.875  0.00  0.00     0.137 C 
ATOM      3  C   UNK d   1     -37.356 -65.623  49.421  0.00  0.00     0.143 C 
ATOM      4  N   UNK d   1     -36.349 -66.227  48.610  0.00  0.00    -0.362 N 
ATOM      5  C   UNK d   1     -36.133 -67.641  48.727  0.00  0.00     0.143 C 
ATOM      6  C   UNK d   1     -36.548 -68.217  50.061  0.00  0.00     0.137 C 
ENDROOT
BRANCH   4   7
ATOM      7  C   UNK d   1     -35.540 -65.476  47.717  0.00  0.00     0.135 A 
ATOM      8  C   UNK d   1     -34.393 -64.981  48.178  0.00  0.00     0.125 A 
ATOM      9  N   UNK d   1     -33.716 -65.008  49.422  0.00  0.00    -0.291 N 
ATOM     10  C   UNK d   1     -33.581 -64.206  47.215  0.00  0.00     0.113 A 
ATOM     11  N   UNK d   1     -32.528 -64.271  49.212  0.00  0.00    -0.300 N 
ATOM     12  C   UNK d   1     -34.149 -65.653  50.638  0.00  0.00     0.178 C 
ATOM     13  C   UNK d   1     -32.501 -63.814  47.874  0.00  0.00     0.053 A 
ATOM     14  H   UNK d   1     -31.830 -64.128  49.972  0.00  0.00     0.187 HD
ATOM     15  C   UNK d   1     -31.433 -63.001  47.233  0.00  0.00     0.072 C 
ATOM     16  N   UNK d   1     -34.041 -64.025  45.880  0.00  0.00    -0.240 NA
ATOM     17  C   UNK d   1     -35.159 -64.526  45.484  0.00  0.00     0.209 A 
ATOM     18  N   UNK d   1     -35.974 -65.273  46.356  0.00  0.00    -0.335 N 
ATOM     19  H   UNK d   1     -36.879 -65.693  46.084  0.00  0.00     0.168 HD
ENDBRANCH   4   7
BRANCH   1  20
ATOM     20  C   UNK d   1     -38.753 -68.788  50.841  0.00  0.00     0.200 C 
BRANCH  20  21
ATOM     21  C   UNK d   1     -38.804 -69.097  52.271  0.00  0.00     0.176 C 
ATOM     22  O   UNK d   1     -37.878 -69.779  52.782  0.00  0.00    -0.291 OA
BRANCH  21  23
ATOM     23  C   UNK d   1     -39.926 -68.606  53.063  0.00  0.00     0.013 A 
ATOM     24  C   UNK d   1     -40.821 -67.716  52.530  0.00  0.00     0.034 A 
ATOM     25  C   UNK d   1     -41.900 -67.227  53.256  0.00  0.00     0.011 A 
ATOM     26 Br   UNK d   1     -43.142 -65.992  52.512  0.00  0.00    -0.051 Br
ATOM     27  C   UNK d   1     -42.078 -67.649  54.555  0.00  0.00     0.019 A 
ATOM     28  C   UNK d   1     -41.164 -68.551  55.082  0.00  0.00     0.002 A 
ATOM     29  C   UNK d   1     -40.100 -69.030  54.360  0.00  0.00     0.015 A 
ENDBRANCH  21  23
ENDBRANCH  20  21
ENDBRANCH   1  20
TORSDOF 4
ENDMDL
