/Users/jonathanwahrer/Desktop/Msc/3_Semester/Drug_Design_Praktikum/waehrer_HTS_screening/HTS_experiment/out/docking_results/vina_output/3e7o/0129_docked.pdbqt
 OpenBabel03192215213D

 31 34  0  0  1  0  0  0  0  0999 V2000
  -38.0850  -65.5730   49.4630 C   0  0  0  0  0  0  0  0  0  0  0  0
  -38.6040  -64.4300   49.6620 O   0  0  0  0  0  0  0  0  0  0  0  0
  -36.6770  -65.7100   49.3000 N   0  0  0  0  0  0  0  0  0  0  0  0
  -36.0570  -66.9510   48.9090 C   0  0  0  0  0  2  0  0  0  0  0  0
  -35.4750  -66.6210   47.5140 C   0  0  0  0  0  2  0  0  0  0  0  0
  -34.2800  -65.7510   47.7970 C   0  0  2  0  0  0  0  0  0  0  0  0
  -33.9220  -65.1160   46.5300 N   0  0  0  0  0  0  0  0  0  0  0  0
  -33.6610  -66.0430   45.4930 C   0  0  0  0  0  2  0  0  0  0  0  0
  -32.4570  -66.9250   45.7710 C   0  0  0  0  0  2  0  0  0  0  0  0
  -32.3160  -67.2230   47.2080 C   0  0  0  0  0  0  0  0  0  0  0  0
  -31.4240  -68.0140   47.8290 N   0  0  0  0  0  0  0  0  0  0  0  0
  -31.6920  -67.9600   49.1520 C   0  0  0  0  0  3  0  0  0  0  0  0
  -32.7530  -67.1340   49.3340 N   0  0  0  0  0  0  0  0  0  0  0  0
  -33.1660  -66.6620   48.1420 C   0  0  0  0  0  0  0  0  0  0  0  0
  -34.4960  -64.6790   48.8060 C   0  0  0  0  0  3  0  0  0  0  0  0
  -35.8120  -64.6040   49.5030 C   0  0  0  0  0  3  0  0  0  0  0  0
  -33.1560  -64.4050   46.6460 H   0  0  0  0  0  0  0  0  0  0  0  0
  -33.1020  -66.9680   50.2990 H   0  0  0  0  0  0  0  0  0  0  0  0
  -39.0000  -66.7040   49.3980 C   0  0  2  0  0  3  0  0  0  0  0  0
  -40.1310  -66.3940   48.4300 C   0  0  0  0  0  1  0  0  0  0  0  0
  -39.4150  -67.1930   50.6620 N   0  0  0  0  0  0  0  0  0  0  0  0
  -38.9620  -68.3690   51.2540 C   0  0  0  0  0  0  0  0  0  0  0  0
  -38.1300  -69.1760   50.8780 O   0  0  0  0  0  0  0  0  0  0  0  0
  -40.0880  -66.5670   51.1980 H   0  0  0  0  0  0  0  0  0  0  0  0
  -39.6370  -68.6760   52.5700 C   0  0  0  0  0  0  0  0  0  0  0  0
  -40.7550  -67.9380   52.8910 C   0  0  0  0  0  3  0  0  0  0  0  0
  -41.3820  -68.1530   54.0960 C   0  0  0  0  0  0  0  0  0  0  0  0
  -42.9540  -67.1350   54.5450 Br  0  0  0  0  0  0  0  0  0  0  0  0
  -40.9240  -69.0870   55.0020 C   0  0  0  0  0  3  0  0  0  0  0  0
  -39.7860  -69.8040   54.6260 C   0  0  0  0  0  3  0  0  0  0  0  0
  -39.1500  -69.6060   53.4320 C   0  0  0  0  0  3  0  0  0  0  0  0
  1  2  2  0  0  0  0
  3  1  1  0  0  0  0
  3 16  1  0  0  0  0
  4  3  1  0  0  0  0
  5  4  1  0  0  0  0
  6  5  1  6  0  0  0
  6 14  1  0  0  0  0
  6 15  1  0  0  0  0
  7 17  1  0  0  0  0
  7  6  1  0  0  0  0
  8  9  1  0  0  0  0
  8  7  1  0  0  0  0
  9 10  1  0  0  0  0
 10 11  1  0  0  0  0
 10 14  2  0  0  0  0
 11 12  2  0  0  0  0
 12 13  1  0  0  0  0
 13 18  1  0  0  0  0
 14 13  1  0  0  0  0
 15 16  2  0  0  0  0
 19 20  1  6  0  0  0
 19  1  1  0  0  0  0
 19 21  1  0  0  0  0
 21 24  1  0  0  0  0
 21 22  1  0  0  0  0
 22 25  1  0  0  0  0
 23 22  2  0  0  0  0
 25 26  2  0  0  0  0
 25 31  1  0  0  0  0
 26 27  1  0  0  0  0
 27 28  1  0  0  0  0
 27 29  2  0  0  0  0
 30 29  1  0  0  0  0
 31 30  2  0  0  0  0
M  END
>  <Pose>
1

>  <Score>
-8.350

$$$$
