/Users/jonathanwahrer/Desktop/Msc/3_Semester/Drug_Design_Praktikum/waehrer_HTS_screening/HTS_experiment/out/docking_results/vina_output/3e7o/0130_docked.pdbqt
 OpenBabel03192215213D

 30 33  0  0  1  0  0  0  0  0999 V2000
  -38.1500  -66.0310   48.3670 C   0  0  0  0  0  0  0  0  0  0  0  0
  -38.4050  -66.7920   47.3690 O   0  0  0  0  0  0  0  0  0  0  0  0
  -37.1480  -65.0530   48.3030 N   0  0  0  0  0  0  0  0  0  0  0  0
  -36.8330  -64.1900   49.3960 C   0  0  0  0  0  2  0  0  0  0  0  0
  -35.3650  -63.8830   49.4880 C   0  0  0  0  0  2  0  0  0  0  0  0
  -34.4610  -64.8840   48.8020 C   0  0  1  0  0  0  0  0  0  0  0  0
  -33.1650  -64.2200   48.7770 N   0  0  0  0  0  0  0  0  0  0  0  0
  -32.0670  -65.0130   48.3750 C   0  0  0  0  0  2  0  0  0  0  0  0
  -32.2250  -66.4880   48.4070 C   0  0  0  0  0  2  0  0  0  0  0  0
  -33.2260  -66.9160   49.4340 C   0  0  0  0  0  0  0  0  0  0  0  0
  -33.2720  -67.9710   50.2460 N   0  0  0  0  0  0  0  0  0  0  0  0
  -34.4110  -67.8390   50.9570 C   0  0  0  0  0  3  0  0  0  0  0  0
  -35.0640  -66.7150   50.5900 N   0  0  0  0  0  0  0  0  0  0  0  0
  -34.3230  -66.1120   49.6160 C   0  0  0  0  0  0  0  0  0  0  0  0
  -34.8960  -65.2400   47.4040 C   0  0  0  0  0  2  0  0  0  0  0  0
  -36.3360  -64.8670   47.1050 C   0  0  0  0  0  2  0  0  0  0  0  0
  -33.3150  -63.3970   48.1260 H   0  0  0  0  0  0  0  0  0  0  0  0
  -35.9620  -66.3840   50.9810 H   0  0  0  0  0  0  0  0  0  0  0  0
  -39.0060  -66.2840   49.5810 C   0  0  0  0  0  2  0  0  0  0  0  0
  -38.6460  -67.4590   50.2230 N   0  0  0  0  0  0  0  0  0  0  0  0
  -38.3020  -68.5800   50.8350 C   0  0  0  0  0  0  0  0  0  0  0  0
  -37.4520  -69.4640   50.4640 O   0  0  0  0  0  0  0  0  0  0  0  0
  -37.7730  -67.7400   49.1870 H   0  0  0  0  0  0  0  0  0  0  0  0
  -38.9680  -68.9080   52.1450 C   0  0  0  0  0  0  0  0  0  0  0  0
  -40.0880  -68.2410   52.5650 C   0  0  0  0  0  3  0  0  0  0  0  0
  -40.6730  -68.5300   53.7880 C   0  0  0  0  0  0  0  0  0  0  0  0
  -42.2200  -67.5910   54.3240 Br  0  0  0  0  0  0  0  0  0  0  0  0
  -40.0880  -69.5040   54.5580 C   0  0  0  0  0  3  0  0  0  0  0  0
  -38.9580  -70.1750   54.1310 C   0  0  0  0  0  3  0  0  0  0  0  0
  -38.3740  -69.8780   52.8950 C   0  0  0  0  0  3  0  0  0  0  0  0
  1 19  1  0  0  0  0
  2  1  2  0  0  0  0
  3  1  1  0  0  0  0
  3  4  1  0  0  0  0
  4  5  1  0  0  0  0
  6 15  1  6  0  0  0
  6  5  1  0  0  0  0
  6 14  1  0  0  0  0
  7  6  1  0  0  0  0
  8  9  1  0  0  0  0
  8  7  1  0  0  0  0
  9 10  1  0  0  0  0
 10 14  2  0  0  0  0
 10 11  1  0  0  0  0
 11 12  2  0  0  0  0
 13 12  1  0  0  0  0
 13 18  1  0  0  0  0
 14 13  1  0  0  0  0
 16 15  1  0  0  0  0
 16  3  1  0  0  0  0
 17  7  1  0  0  0  0
 19 20  1  0  0  0  0
 20 21  1  0  0  0  0
 21 24  1  0  0  0  0
 22 21  2  0  0  0  0
 23 20  1  0  0  0  0
 24 25  2  0  0  0  0
 24 30  1  0  0  0  0
 25 26  1  0  0  0  0
 26 27  1  0  0  0  0
 26 28  2  0  0  0  0
 29 28  1  0  0  0  0
 30 29  2  0  0  0  0
M  END
>  <Pose>
1

>  <Score>
-8.910

$$$$
