MODEL 1
REMARK VINA RESULT:    -8.491      0.000      0.000
REMARK INTER + INTRA:         -10.450
REMARK INTER:                  -9.981
REMARK INTRA:                  -0.470
REMARK UNBOUND:                -0.470
REMARK  3 active torsions:
REMARK  status: ('A' for Active; 'I' for Inactive)
REMARK    1  A    between atoms: C_4  and  C_8 
REMARK       I    between atoms: C_8  and  N_10 
REMARK    2  A    between atoms: N_10  and  C_11 
REMARK    3  A    between atoms: C_11  and  C_12 
REMARK       I    between atoms: C_12  and  N_14 
ROOT
ATOM      1  C   UNK d   1     -35.803 -68.690  50.719  0.00  0.00     0.237 C 
ATOM      2  O   UNK d   1     -35.017 -69.475  51.304  0.00  0.00    -0.272 OA
ATOM      3  N   UNK d   1     -35.371 -67.391  50.407  0.00  0.00    -0.351 N 
ATOM      4  C   UNK d   1     -36.216 -66.434  49.737  0.00  0.00     0.129 C 
ATOM      5  C   UNK d   1     -35.573 -66.143  48.398  0.00  0.00     0.068 C 
ATOM      6  C   UNK d   1     -34.118 -65.792  48.598  0.00  0.00     0.206 C 
ATOM      7  N   UNK d   1     -33.320 -66.794  47.924  0.00  0.00     0.099 N 
ATOM      8  C   UNK d   1     -31.922 -66.538  47.911  0.00  0.00     0.277 C 
ATOM      9  C   UNK d   1     -31.493 -65.131  47.705  0.00  0.00     0.089 C 
ATOM     10  C   UNK d   1     -32.595 -64.183  47.437  0.00  0.00     0.039 A 
ATOM     11  N   UNK d   1     -32.635 -62.968  46.809  0.00  0.00    -0.352 N 
ATOM     12  C   UNK d   1     -33.907 -62.552  46.860  0.00  0.00     0.207 A 
ATOM     13  N   UNK d   1     -34.647 -63.474  47.498  0.00  0.00    -0.244 NA
ATOM     14  C   UNK d   1     -33.858 -64.511  47.875  0.00  0.00     0.097 A 
ATOM     15  C   UNK d   1     -33.705 -65.662  50.028  0.00  0.00     0.068 C 
ATOM     16  C   UNK d   1     -34.040 -66.967  50.756  0.00  0.00     0.129 C 
ATOM     17  H   UNK d   1     -33.478 -67.719  48.404  0.00  0.00     0.317 HD
ATOM     18  H   UNK d   1     -31.790 -62.488  46.381  0.00  0.00     0.166 HD
ENDROOT
BRANCH   1  19
ATOM     19  C   UNK d   1     -37.158 -69.209  50.396  0.00  0.00     0.225 C 
BRANCH  19  20
ATOM     20  N   UNK d   1     -38.054 -69.104  51.527  0.00  0.00    -0.348 N 
ATOM     21  C   UNK d   1     -39.208 -68.289  51.496  0.00  0.00     0.252 C 
ATOM     22  O   UNK d   1     -39.437 -67.649  50.437  0.00  0.00    -0.268 OA
ATOM     23  H   UNK d   1     -37.844 -69.643  52.391  0.00  0.00     0.163 HD
BRANCH  21  24
ATOM     24  C   UNK d   1     -40.125 -68.166  52.620  0.00  0.00     0.033 A 
ATOM     25  C   UNK d   1     -41.145 -67.234  52.668  0.00  0.00     0.036 A 
ATOM     26  C   UNK d   1     -42.002 -67.140  53.750  0.00  0.00     0.011 A 
ATOM     27 Br   UNK d   1     -43.373 -65.834  53.732  0.00  0.00    -0.051 Br
ATOM     28  C   UNK d   1     -41.852 -67.999  54.840  0.00  0.00     0.019 A 
ATOM     29  C   UNK d   1     -40.831 -68.921  54.775  0.00  0.00     0.002 A 
ATOM     30  C   UNK d   1     -39.976 -69.020  53.703  0.00  0.00     0.017 A 
ENDBRANCH  21  24
ENDBRANCH  19  20
ENDBRANCH   1  19
TORSDOF 3
ENDMDL
