/Users/jonathanwahrer/Desktop/Msc/3_Semester/Drug_Design_Praktikum/waehrer_HTS_screening/HTS_experiment/out/docking_results/vina_output/3e7o/0136_docked.pdbqt
 OpenBabel03192215213D

 30 33  0  0  1  0  0  0  0  0999 V2000
  -45.6810  -66.7590   53.3890 C   0  0  2  0  0  3  0  0  0  0  0  0
  -44.4700  -67.4360   54.0020 C   0  0  0  0  0  2  0  0  0  0  0  0
  -43.3850  -66.9930   53.1490 N   0  0  0  0  0  0  0  0  0  0  0  0
  -43.8330  -65.9650   52.2310 C   0  0  1  0  0  3  0  0  0  0  0  0
  -45.0990  -65.4520   52.9300 C   0  0  0  0  0  2  0  0  0  0  0  0
  -42.8020  -64.9320   52.1490 C   0  0  0  0  0  0  0  0  0  0  0  0
  -43.0660  -63.7350   52.3410 O   0  0  0  0  0  0  0  0  0  0  0  0
  -41.4780  -65.3380   51.8410 N   0  0  0  0  0  0  0  0  0  0  0  0
  -41.0470  -66.6750   52.1820 C   0  0  1  0  0  3  0  0  0  0  0  0
  -42.0070  -67.3810   53.0610 C   0  0  0  0  0  0  0  0  0  0  0  0
  -41.6150  -68.3530   53.7590 O   0  0  0  0  0  0  0  0  0  0  0  0
  -40.7900  -64.7060   51.3730 H   0  0  0  0  0  0  0  0  0  0  0  0
  -46.7460  -66.5900   54.3620 N   0  0  0  0  0  0  0  0  0  0  0  0
  -47.7770  -67.5500   54.3700 C   0  0  0  0  0  0  0  0  0  0  0  0
  -47.7420  -68.5240   53.5300 O   0  0  0  0  0  0  0  0  0  0  0  0
  -46.7710  -65.8050   55.0270 H   0  0  0  0  0  0  0  0  0  0  0  0
  -48.8920  -67.4820   55.2990 C   0  0  0  0  0  0  0  0  0  0  0  0
  -49.0620  -68.4640   56.2670 C   0  0  0  0  0  3  0  0  0  0  0  0
  -50.1060  -68.4010   57.1470 C   0  0  0  0  0  0  0  0  0  0  0  0
  -50.3290  -69.7600   58.4760 Br  0  0  0  0  0  0  0  0  0  0  0  0
  -51.0120  -67.3800   57.1090 C   0  0  0  0  0  3  0  0  0  0  0  0
  -50.8460  -66.4070   56.1540 C   0  0  0  0  0  3  0  0  0  0  0  0
  -49.7910  -66.4620   55.2570 C   0  0  0  0  0  3  0  0  0  0  0  0
  -40.6820  -67.4960   50.9640 C   0  0  0  0  0  2  0  0  0  0  0  0
  -39.3040  -68.0130   51.0030 C   0  0  0  0  0  0  0  0  0  0  0  0
  -38.3480  -67.4890   50.1520 C   0  0  0  0  0  3  0  0  0  0  0  0
  -37.0580  -67.9670   50.1830 C   0  0  0  0  0  3  0  0  0  0  0  0
  -36.6550  -68.9700   51.0430 C   0  0  0  0  0  3  0  0  0  0  0  0
  -37.6050  -69.4950   51.8930 C   0  0  0  0  0  3  0  0  0  0  0  0
  -38.9050  -69.0280   51.8760 C   0  0  0  0  0  3  0  0  0  0  0  0
  1  2  1  0  0  0  0
  1 13  1  1  0  0  0
  3  2  1  0  0  0  0
  4  5  1  1  0  0  0
  4  3  1  0  0  0  0
  5  1  1  0  0  0  0
  6  4  1  0  0  0  0
  6  7  2  0  0  0  0
  8  6  1  0  0  0  0
  8  9  1  0  0  0  0
  9 24  1  6  0  0  0
  9 10  1  0  0  0  0
 10  3  1  0  0  0  0
 10 11  2  0  0  0  0
 12  8  1  0  0  0  0
 13 14  1  0  0  0  0
 13 16  1  0  0  0  0
 14 17  1  0  0  0  0
 15 14  2  0  0  0  0
 17 18  1  0  0  0  0
 18 19  2  0  0  0  0
 19 20  1  0  0  0  0
 21 19  1  0  0  0  0
 22 21  2  0  0  0  0
 23 17  2  0  0  0  0
 23 22  1  0  0  0  0
 24 25  1  0  0  0  0
 25 30  1  0  0  0  0
 26 27  1  0  0  0  0
 26 25  2  0  0  0  0
 27 28  2  0  0  0  0
 28 29  1  0  0  0  0
 30 29  2  0  0  0  0
M  END
>  <Pose>
1

>  <Score>
-8.496

$$$$
