/Users/jonathanwahrer/Desktop/Msc/3_Semester/Drug_Design_Praktikum/waehrer_HTS_screening/HTS_experiment/out/docking_results/vina_output/3e7o/0137_docked.pdbqt
 OpenBabel03192215213D

 25 28  0  0  1  0  0  0  0  0999 V2000
  -37.4920  -66.3550   48.9100 C   0  0  2  0  0  3  0  0  0  0  0  0
  -36.1760  -66.8230   49.6340 C   0  0  0  0  0  2  0  0  0  0  0  0
  -35.1710  -65.9850   49.0760 N   0  0  0  0  0  0  0  0  0  0  0  0
  -35.7990  -64.8000   48.5090 C   0  0  1  0  0  3  0  0  0  0  0  0
  -37.1820  -64.8300   49.0150 C   0  0  0  0  0  2  0  0  0  0  0  0
  -34.9930  -63.6050   48.8090 C   0  0  0  0  0  0  0  0  0  0  0  0
  -35.5650  -62.5440   49.1140 O   0  0  0  0  0  0  0  0  0  0  0  0
  -33.5830  -63.6610   48.7490 N   0  0  0  0  0  0  0  0  0  0  0  0
  -32.9010  -64.8920   49.0830 C   0  0  2  0  0  3  0  0  0  0  0  0
  -31.6670  -64.9250   48.2050 C   0  0  0  0  0  2  0  0  0  0  0  0
  -31.6680  -63.6200   47.4890 C   0  0  0  0  0  2  0  0  0  0  0  0
  -32.5210  -62.7230   48.4000 C   0  0  0  0  0  2  0  0  0  0  0  0
  -33.7540  -66.0700   48.9710 C   0  0  0  0  0  0  0  0  0  0  0  0
  -33.2300  -67.2210   48.7720 O   0  0  0  0  0  0  0  0  0  0  0  0
  -38.5980  -66.7990   49.4940 N   0  0  0  0  0  0  0  0  0  0  0  0
  -39.7460  -67.2530   50.0950 C   0  0  0  0  0  0  0  0  0  0  0  0
  -40.9620  -67.0270   49.8080 O   0  0  0  0  0  0  0  0  0  0  0  0
  -39.3710  -66.1010   48.5930 H   0  0  0  0  0  0  0  0  0  0  0  0
  -39.6360  -68.1720   51.2920 C   0  0  0  0  0  0  0  0  0  0  0  0
  -40.6130  -68.2000   52.2570 C   0  0  0  0  0  3  0  0  0  0  0  0
  -40.5440  -69.0240   53.3530 C   0  0  0  0  0  0  0  0  0  0  0  0
  -41.9090  -69.0840   54.6740 Br  0  0  0  0  0  0  0  0  0  0  0  0
  -39.4270  -69.8480   53.4580 C   0  0  0  0  0  3  0  0  0  0  0  0
  -38.4370  -69.8460   52.5160 C   0  0  0  0  0  3  0  0  0  0  0  0
  -38.5480  -68.9960   51.4220 C   0  0  0  0  0  3  0  0  0  0  0  0
  1  5  1  0  0  0  0
  1 15  1  1  0  0  0
  1  2  1  0  0  0  0
  3  2  1  0  0  0  0
  4  6  1  0  0  0  0
  4  5  1  1  0  0  0
  4  3  1  0  0  0  0
  6  7  2  0  0  0  0
  8  6  1  0  0  0  0
  8  9  1  0  0  0  0
  9 10  1  6  0  0  0
 11 10  1  0  0  0  0
 11 12  1  0  0  0  0
 12  8  1  0  0  0  0
 13  3  1  0  0  0  0
 13  9  1  0  0  0  0
 14 13  2  0  0  0  0
 15 16  1  0  0  0  0
 16 19  1  0  0  0  0
 17 16  2  0  0  0  0
 18 15  1  0  0  0  0
 19 25  2  0  0  0  0
 19 20  1  0  0  0  0
 20 21  2  0  0  0  0
 21 23  1  0  0  0  0
 21 22  1  0  0  0  0
 24 23  2  0  0  0  0
 25 24  1  0  0  0  0
M  END
>  <Pose>
1

>  <Score>
-8.394

$$$$
