MODEL 1
REMARK VINA RESULT:    -8.394      0.000      0.000
REMARK INTER + INTRA:          -9.782
REMARK INTER:                  -9.376
REMARK INTRA:                  -0.406
REMARK UNBOUND:                -0.406
REMARK  2 active torsions:
REMARK  status: ('A' for Active; 'I' for Inactive)
REMARK    1  A    between atoms: C_4  and  C_8 
REMARK       I    between atoms: C_8  and  N_10 
REMARK    2  A    between atoms: N_10  and  C_11 
ROOT
ATOM      1  C   UNK d   1     -37.492 -66.355  48.910  0.00  0.00     0.105 C 
ATOM      2  C   UNK d   1     -36.176 -66.823  49.634  0.00  0.00     0.152 C 
ATOM      3  N   UNK d   1     -35.171 -65.985  49.076  0.00  0.00    -0.335 N 
ATOM      4  C   UNK d   1     -35.799 -64.800  48.509  0.00  0.00     0.181 C 
ATOM      5  C   UNK d   1     -37.182 -64.830  49.015  0.00  0.00     0.061 C 
ATOM      6  C   UNK d   1     -34.993 -63.605  48.809  0.00  0.00     0.243 C 
ATOM      7  O   UNK d   1     -35.565 -62.544  49.114  0.00  0.00    -0.271 OA
ATOM      8  N   UNK d   1     -33.583 -63.661  48.749  0.00  0.00    -0.337 N 
ATOM      9  C   UNK d   1     -32.901 -64.892  49.083  0.00  0.00     0.179 C 
ATOM     10  C   UNK d   1     -31.667 -64.925  48.205  0.00  0.00     0.037 C 
ATOM     11  C   UNK d   1     -31.668 -63.620  47.489  0.00  0.00     0.022 C 
ATOM     12  C   UNK d   1     -32.521 -62.723  48.400  0.00  0.00     0.127 C 
ATOM     13  C   UNK d   1     -33.754 -66.070  48.971  0.00  0.00     0.243 C 
ATOM     14  O   UNK d   1     -33.230 -67.221  48.772  0.00  0.00    -0.271 OA
ENDROOT
BRANCH   1  15
ATOM     15  N   UNK d   1     -38.598 -66.799  49.494  0.00  0.00    -0.351 N 
ATOM     16  C   UNK d   1     -39.746 -67.253  50.095  0.00  0.00     0.252 C 
ATOM     17  O   UNK d   1     -40.962 -67.027  49.808  0.00  0.00    -0.268 OA
ATOM     18  H   UNK d   1     -39.371 -66.101  48.593  0.00  0.00     0.163 HD
BRANCH  16  19
ATOM     19  C   UNK d   1     -39.636 -68.172  51.292  0.00  0.00     0.033 A 
ATOM     20  C   UNK d   1     -40.613 -68.200  52.257  0.00  0.00     0.036 A 
ATOM     21  C   UNK d   1     -40.544 -69.024  53.353  0.00  0.00     0.011 A 
ATOM     22 Br   UNK d   1     -41.909 -69.084  54.674  0.00  0.00    -0.051 Br
ATOM     23  C   UNK d   1     -39.427 -69.848  53.458  0.00  0.00     0.019 A 
ATOM     24  C   UNK d   1     -38.437 -69.846  52.516  0.00  0.00     0.002 A 
ATOM     25  C   UNK d   1     -38.548 -68.996  51.422  0.00  0.00     0.017 A 
ENDBRANCH  16  19
ENDBRANCH   1  15
TORSDOF 2
ENDMDL
