MODEL 1
REMARK VINA RESULT:    -7.791      0.000      0.000
REMARK INTER + INTRA:          -8.889
REMARK INTER:                  -8.702
REMARK INTRA:                  -0.187
REMARK UNBOUND:                -0.187
REMARK  2 active torsions:
REMARK  status: ('A' for Active; 'I' for Inactive)
REMARK    1  A    between atoms: C_4  and  C_8 
REMARK       I    between atoms: C_8  and  N_10 
REMARK    2  A    between atoms: N_10  and  C_11 
ROOT
ATOM      1  C   UNK d   1     -43.654 -66.044  53.096  0.00  0.00     0.105 C 
ATOM      2  C   UNK d   1     -44.940 -66.796  53.190  0.00  0.00     0.152 C 
ATOM      3  N   UNK d   1     -45.950 -65.746  52.975  0.00  0.00    -0.335 N 
ATOM      4  C   UNK d   1     -45.296 -64.550  52.464  0.00  0.00     0.181 C 
ATOM      5  C   UNK d   1     -43.980 -65.060  51.962  0.00  0.00     0.061 C 
ATOM      6  C   UNK d   1     -46.153 -63.974  51.432  0.00  0.00     0.243 C 
ATOM      7  O   UNK d   1     -45.672 -63.431  50.431  0.00  0.00    -0.271 OA
ATOM      8  N   UNK d   1     -47.579 -64.039  51.578  0.00  0.00    -0.337 N 
ATOM      9  C   UNK d   1     -48.067 -64.446  52.874  0.00  0.00     0.179 C 
ATOM     10  C   UNK d   1     -49.535 -64.566  52.856  0.00  0.00     0.037 C 
ATOM     11  C   UNK d   1     -49.909 -63.789  51.609  0.00  0.00     0.022 C 
ATOM     12  C   UNK d   1     -48.705 -63.791  50.731  0.00  0.00     0.127 C 
ATOM     13  C   UNK d   1     -47.360 -65.738  53.180  0.00  0.00     0.243 C 
ATOM     14  O   UNK d   1     -47.978 -66.746  53.590  0.00  0.00    -0.271 OA
ENDROOT
BRANCH   1  15
ATOM     15  N   UNK d   1     -42.509 -66.831  52.826  0.00  0.00    -0.351 N 
ATOM     16  C   UNK d   1     -41.906 -67.589  53.854  0.00  0.00     0.252 C 
ATOM     17  O   UNK d   1     -42.406 -67.557  55.033  0.00  0.00    -0.268 OA
ATOM     18  H   UNK d   1     -42.102 -66.860  51.874  0.00  0.00     0.163 HD
BRANCH  16  19
ATOM     19  C   UNK d   1     -40.734 -68.432  53.697  0.00  0.00     0.033 A 
ATOM     20  C   UNK d   1     -39.926 -68.390  52.588  0.00  0.00     0.036 A 
ATOM     21  C   UNK d   1     -38.817 -69.180  52.427  0.00  0.00     0.011 A 
ATOM     22 Br   UNK d   1     -37.722 -69.095  50.875  0.00  0.00    -0.051 Br
ATOM     23  C   UNK d   1     -38.476 -70.072  53.420  0.00  0.00     0.019 A 
ATOM     24  C   UNK d   1     -39.261 -70.149  54.559  0.00  0.00     0.002 A 
ATOM     25  C   UNK d   1     -40.388 -69.323  54.684  0.00  0.00     0.017 A 
ENDBRANCH  16  19
ENDBRANCH   1  15
TORSDOF 2
ENDMDL
