MODEL 1
REMARK VINA RESULT:    -9.735      0.000      0.000
REMARK INTER + INTRA:         -11.740
REMARK INTER:                 -11.442
REMARK INTRA:                  -0.298
REMARK UNBOUND:                -0.298
REMARK  3 active torsions:
REMARK  status: ('A' for Active; 'I' for Inactive)
REMARK    1  A    between atoms: C_4  and  C_8 
REMARK    2  A    between atoms: C_16  and  C_17 
REMARK    3  A    between atoms: C_17  and  N_18 
ROOT
ATOM      1  C   UNK d   1     -39.529 -69.460  52.818  0.00  0.00     0.053 C 
ATOM      2  C   UNK d   1     -40.420 -68.484  53.026  0.00  0.00     0.127 A 
ATOM      3  O   UNK d   1     -40.451 -67.300  52.415  0.00  0.00    -0.305 OA
ATOM      4  C   UNK d   1     -41.560 -66.547  52.876  0.00  0.00     0.101 A 
ATOM      5  C   UNK d   1     -42.268 -67.243  53.797  0.00  0.00     0.051 A 
ATOM      6  C   UNK d   1     -43.435 -66.670  54.296  0.00  0.00     0.021 A 
ATOM      7  C   UNK d   1     -43.832 -65.438  53.881  0.00  0.00     0.041 A 
ATOM      8  C   UNK d   1     -43.072 -64.740  52.964  0.00  0.00     0.118 A 
ATOM      9  C   UNK d   1     -41.913 -65.245  52.425  0.00  0.00     0.039 A 
ATOM     10  O   UNK d   1     -43.514 -63.473  52.577  0.00  0.00    -0.191 OA
ATOM     11  C   UNK d   1     -41.558 -68.535  53.953  0.00  0.00     0.218 A 
ATOM     12  O   UNK d   1     -41.866 -69.468  54.718  0.00  0.00    -0.284 OA
ENDROOT
BRANCH   1  13
ATOM     13  C   UNK d   1     -38.447 -69.278  51.813  0.00  0.00    -0.032 A 
ATOM     14  C   UNK d   1     -37.137 -69.653  52.146  0.00  0.00     0.030 A 
ATOM     15  C   UNK d   1     -36.032 -69.190  51.419  0.00  0.00     0.011 A 
ATOM     16 Br   UNK d   1     -34.298 -69.750  51.985  0.00  0.00    -0.051 Br
ATOM     17  C   UNK d   1     -36.195 -68.368  50.365  0.00  0.00     0.019 A 
ATOM     18  C   UNK d   1     -37.504 -67.967  49.991  0.00  0.00     0.002 A 
ATOM     19  C   UNK d   1     -38.600 -68.448  50.740  0.00  0.00     0.011 A 
ENDBRANCH   1  13
BRANCH   9  20
ATOM     20  C   UNK d   1     -40.800 -64.515  51.852  0.00  0.00     0.279 C 
BRANCH  20  21
ATOM     21  N   UNK d   1     -40.320 -64.066  50.675  0.00  0.00    -0.063 N 
ATOM     22  C   UNK d   1     -39.298 -64.628  49.907  0.00  0.00     0.261 C 
ATOM     23  C   UNK d   1     -39.799 -65.560  48.782  0.00  0.00     0.195 C 
ATOM     24  O   UNK d   1     -40.516 -64.905  47.809  0.00  0.00    -0.388 OA
ATOM     25  C   UNK d   1     -41.328 -63.932  48.401  0.00  0.00     0.195 C 
ATOM     26  C   UNK d   1     -41.595 -64.181  49.791  0.00  0.00     0.261 C 
ATOM     27  H   UNK d   1     -40.170 -62.989  50.733  0.00  0.00     0.280 HD
ENDBRANCH  20  21
ENDBRANCH   9  20
TORSDOF 3
ENDMDL
