MODEL 1
REMARK VINA RESULT:    -7.825      0.000      0.000
REMARK INTER + INTRA:         -12.112
REMARK INTER:                 -10.799
REMARK INTRA:                  -1.313
REMARK UNBOUND:                -1.313
REMARK  7 active torsions:
REMARK  status: ('A' for Active; 'I' for Inactive)
REMARK    1  A    between atoms: C_4  and  C_8 
REMARK    2  A    between atoms: N_9  and  N_10 
REMARK       I    between atoms: N_10  and  C_11 
REMARK    3  A    between atoms: C_11  and  C_13 
REMARK    4  A    between atoms: N_16  and  C_26 
REMARK    5  A    between atoms: C_17  and  C_18 
REMARK    6  A    between atoms: C_18  and  N_19 
REMARK    7  A    between atoms: C_30  and  N_31 
ROOT
ATOM      1  C   UNK d   1     -36.232 -68.662  50.869  0.00  0.00     0.169 A 
ATOM      2  N   UNK d   1     -35.078 -69.061  51.283  0.00  0.00    -0.152 NA
ATOM      3  N   UNK d   1     -34.120 -68.305  50.755  0.00  0.00     0.012 NA
ATOM      4  N   UNK d   1     -34.696 -67.375  49.949  0.00  0.00    -0.215 N 
ATOM      5  C   UNK d   1     -35.978 -67.527  50.004  0.00  0.00     0.087 A 
ENDROOT
BRANCH   1   6
ATOM      6  C   UNK d   1     -37.619 -69.274  51.005  0.00  0.00     0.293 C 
ATOM      7  N   UNK d   1     -38.527 -68.502  51.670  0.00  0.00    -0.242 N 
ATOM      8  H   UNK d   1     -37.922 -67.453  51.840  0.00  0.00     0.192 HD
ATOM      9  O   UNK d   1     -37.790 -70.400  50.488  0.00  0.00    -0.264 OA
BRANCH   7  10
ATOM     10  N   UNK d   1     -39.706 -68.228  52.184  0.00  0.00    -0.183 NA
ATOM     11  C   UNK d   1     -40.391 -67.124  52.081  0.00  0.00     0.150 C 
BRANCH  11  12
ATOM     12  C   UNK d   1     -41.703 -66.936  52.730  0.00  0.00    -0.016 A 
ATOM     13  C   UNK d   1     -42.799 -66.331  52.146  0.00  0.00     0.032 A 
ATOM     14  C   UNK d   1     -44.021 -66.340  52.817  0.00  0.00     0.011 A 
ATOM     15 Br   UNK d   1     -45.596 -65.561  52.048  0.00  0.00    -0.051 Br
ATOM     16  C   UNK d   1     -44.208 -66.932  54.061  0.00  0.00     0.019 A 
ATOM     17  C   UNK d   1     -43.082 -67.504  54.594  0.00  0.00     0.002 A 
ATOM     18  C   UNK d   1     -41.868 -67.522  53.972  0.00  0.00     0.013 A 
ENDBRANCH  11  12
ENDBRANCH   7  10
ENDBRANCH   1   6
BRANCH   5  19
ATOM     19  C   UNK d   1     -37.139 -66.840  49.447  0.00  0.00     0.178 C 
BRANCH  19  20
ATOM     20  N   UNK d   1     -37.320 -65.462  49.514  0.00  0.00    -0.404 N 
ATOM     21  C   UNK d   1     -36.555 -64.399  49.806  0.00  0.00     0.136 C 
ATOM     22  C   UNK d   1     -36.287 -63.611  48.495  0.00  0.00     0.135 C 
ATOM     23  N   UNK d   1     -36.412 -64.529  47.419  0.00  0.00    -0.414 N 
ATOM     24  C   UNK d   1     -37.779 -64.911  47.225  0.00  0.00     0.135 C 
ATOM     25  C   UNK d   1     -35.636 -64.357  46.265  0.00  0.00     0.143 C 
ATOM     26  C   UNK d   1     -38.428 -65.032  48.610  0.00  0.00     0.136 C 
ENDBRANCH  19  20
ENDBRANCH   5  19
BRANCH   4  27
ATOM     27  C   UNK d   1     -33.847 -66.776  48.930  0.00  0.00     0.225 A 
ATOM     28  N   UNK d   1     -33.756 -67.562  47.723  0.00  0.00    -0.081 NA
ATOM     29  O   UNK d   1     -33.013 -67.013  46.885  0.00  0.00    -0.103 OA
ATOM     30  N   UNK d   1     -32.557 -65.904  47.383  0.00  0.00    -0.083 NA
ATOM     31  C   UNK d   1     -33.090 -65.769  48.664  0.00  0.00     0.201 A 
BRANCH  31  32
ATOM     32  N   UNK d   1     -32.757 -64.636  49.434  0.00  0.00    -0.379 N 
ATOM     33  H   UNK d   1     -32.981 -63.709  48.926  0.00  0.00     0.158 HD
ATOM     34  H   UNK d   1     -32.358 -64.534  50.347  0.00  0.00     0.158 HD
ENDBRANCH  31  32
ENDBRANCH   4  27
TORSDOF 7
ENDMDL
