MODEL 1
REMARK VINA RESULT:    -7.801      0.000      0.000
REMARK INTER + INTRA:         -12.656
REMARK INTER:                 -10.994
REMARK INTRA:                  -1.662
REMARK UNBOUND:                -1.662
REMARK  7 active torsions:
REMARK  status: ('A' for Active; 'I' for Inactive)
REMARK    1  A    between atoms: C_4  and  C_8 
REMARK    2  A    between atoms: N_9  and  C_28 
REMARK    3  A    between atoms: C_15  and  C_17 
REMARK    4  A    between atoms: C_20  and  C_23 
REMARK    5  A    between atoms: C_23  and  O_25 
REMARK    6  A    between atoms: C_28  and  C_29 
REMARK    7  A    between atoms: C_29  and  N_30 
ROOT
ATOM      1  C   UNK d   1     -40.145 -65.123  48.015  0.00  0.00     0.161 C 
ATOM      2  N   UNK d   1     -40.552 -63.732  47.966  0.00  0.00    -0.331 N 
ATOM      3  C   UNK d   1     -40.233 -63.180  49.234  0.00  0.00     0.295 C 
ATOM      4  O   UNK d   1     -39.998 -61.981  49.505  0.00  0.00    -0.264 OA
ATOM      5  C   UNK d   1     -40.224 -64.302  50.199  0.00  0.00     0.250 C 
ATOM      6  O   UNK d   1     -39.993 -64.245  51.427  0.00  0.00    -0.282 OA
ATOM      7  C   UNK d   1     -40.546 -65.489  49.419  0.00  0.00     0.062 C 
ATOM      8  C   UNK d   1     -41.098 -66.571  49.874  0.00  0.00     0.132 C 
ATOM      9  O   UNK d   1     -41.397 -67.600  48.955  0.00  0.00    -0.190 OA
ENDROOT
BRANCH   1  10
ATOM     10  C   UNK d   1     -38.671 -65.184  47.868  0.00  0.00    -0.029 A 
ATOM     11  C   UNK d   1     -37.909 -66.125  48.549  0.00  0.00     0.028 A 
ATOM     12  C   UNK d   1     -36.537 -66.181  48.424  0.00  0.00     0.011 A 
ATOM     13 Br   UNK d   1     -35.552 -67.499  49.388  0.00  0.00    -0.051 Br
ATOM     14  C   UNK d   1     -35.856 -65.300  47.613  0.00  0.00     0.019 A 
ATOM     15  C   UNK d   1     -36.591 -64.358  46.928  0.00  0.00     0.002 A 
ATOM     16  C   UNK d   1     -37.962 -64.309  47.059  0.00  0.00     0.009 A 
ENDBRANCH   1  10
BRANCH   8  17
ATOM     17  C   UNK d   1     -41.441 -66.831  51.265  0.00  0.00     0.032 A 
ATOM     18  C   UNK d   1     -42.485 -66.478  52.051  0.00  0.00     0.019 A 
ATOM     19  N   UNK d   1     -42.313 -67.047  53.262  0.00  0.00    -0.354 N 
ATOM     20  C   UNK d   1     -43.633 -65.574  51.707  0.00  0.00     0.069 C 
ATOM     21  C   UNK d   1     -41.184 -67.766  53.304  0.00  0.00     0.115 A 
ATOM     22  H   UNK d   1     -42.990 -66.932  54.071  0.00  0.00     0.166 HD
ATOM     23  C   UNK d   1     -40.616 -67.648  52.064  0.00  0.00    -0.014 A 
ATOM     24  C   UNK d   1     -39.333 -68.284  51.638  0.00  0.00     0.052 C 
BRANCH  21  25
ATOM     25  C   UNK d   1     -40.658 -68.529  54.453  0.00  0.00     0.310 C 
ATOM     26  O   UNK d   1     -40.462 -67.945  55.530  0.00  0.00    -0.258 OA
BRANCH  25  27
ATOM     27  O   UNK d   1     -40.384 -69.879  54.338  0.00  0.00    -0.321 OA
ATOM     28  C   UNK d   1     -39.089 -70.426  54.431  0.00  0.00     0.213 C 
ENDBRANCH  25  27
ENDBRANCH  21  25
ENDBRANCH   8  17
BRANCH   2  29
ATOM     29  C   UNK d   1     -41.173 -63.026  46.842  0.00  0.00     0.155 C 
BRANCH  29  30
ATOM     30  C   UNK d   1     -42.597 -62.630  47.165  0.00  0.00     0.255 C 
BRANCH  30  31
ATOM     31  N   UNK d   1     -42.715 -61.355  47.794  0.00  0.00    -0.066 N 
ATOM     32  C   UNK d   1     -44.078 -60.838  47.827  0.00  0.00     0.261 C 
ATOM     33  C   UNK d   1     -44.130 -59.765  48.881  0.00  0.00     0.195 C 
ATOM     34  O   UNK d   1     -42.868 -59.262  49.081  0.00  0.00    -0.388 OA
ATOM     35  C   UNK d   1     -42.149 -59.042  47.919  0.00  0.00     0.195 C 
ATOM     36  C   UNK d   1     -41.930 -60.327  47.123  0.00  0.00     0.261 C 
ATOM     37  H   UNK d   1     -42.334 -61.410  48.756  0.00  0.00     0.280 HD
ENDBRANCH  30  31
ENDBRANCH  29  30
ENDBRANCH   2  29
TORSDOF 7
ENDMDL
