/Users/jonathanwahrer/Desktop/Msc/3_Semester/Drug_Design_Praktikum/waehrer_HTS_screening/HTS_experiment/out/docking_results/vina_output/3e7o/0169_docked.pdbqt
 OpenBabel03192215233D

 37 40  0  0  1  0  0  0  0  0999 V2000
  -40.1450  -65.1230   48.0150 C   0  0  2  0  0  3  0  0  0  0  0  0
  -40.5520  -63.7320   47.9660 N   0  0  0  0  0  0  0  0  0  0  0  0
  -40.2330  -63.1800   49.2340 C   0  0  0  0  0  0  0  0  0  0  0  0
  -39.9980  -61.9810   49.5050 O   0  0  0  0  0  0  0  0  0  0  0  0
  -40.2240  -64.3020   50.1990 C   0  0  0  0  0  0  0  0  0  0  0  0
  -39.9930  -64.2450   51.4270 O   0  0  0  0  0  0  0  0  0  0  0  0
  -40.5460  -65.4890   49.4190 C   0  0  0  0  0  0  0  0  0  0  0  0
  -41.0980  -66.5710   49.8740 C   0  0  0  0  0  0  0  0  0  0  0  0
  -41.3970  -67.6000   48.9550 O   0  0  0  0  0  1  0  0  0  0  0  0
  -38.6710  -65.1840   47.8680 C   0  0  0  0  0  0  0  0  0  0  0  0
  -37.9090  -66.1250   48.5490 C   0  0  0  0  0  3  0  0  0  0  0  0
  -36.5370  -66.1810   48.4240 C   0  0  0  0  0  0  0  0  0  0  0  0
  -35.5520  -67.4990   49.3880 Br  0  0  0  0  0  0  0  0  0  0  0  0
  -35.8560  -65.3000   47.6130 C   0  0  0  0  0  3  0  0  0  0  0  0
  -36.5910  -64.3580   46.9280 C   0  0  0  0  0  3  0  0  0  0  0  0
  -37.9620  -64.3090   47.0590 C   0  0  0  0  0  3  0  0  0  0  0  0
  -41.4410  -66.8310   51.2650 C   0  0  0  0  0  0  0  0  0  0  0  0
  -42.4850  -66.4780   52.0510 C   0  0  0  0  0  0  0  0  0  0  0  0
  -42.3130  -67.0470   53.2620 N   0  0  0  0  0  0  0  0  0  0  0  0
  -43.6330  -65.5740   51.7070 C   0  0  0  0  0  1  0  0  0  0  0  0
  -41.1840  -67.7660   53.3040 C   0  0  0  0  0  0  0  0  0  0  0  0
  -42.9900  -66.9320   54.0710 H   0  0  0  0  0  0  0  0  0  0  0  0
  -40.6160  -67.6480   52.0640 C   0  0  0  0  0  0  0  0  0  0  0  0
  -39.3330  -68.2840   51.6380 C   0  0  0  0  0  1  0  0  0  0  0  0
  -40.6580  -68.5290   54.4530 C   0  0  0  0  0  0  0  0  0  0  0  0
  -40.4620  -67.9450   55.5300 O   0  0  0  0  0  0  0  0  0  0  0  0
  -40.3840  -69.8790   54.3380 O   0  0  0  0  0  0  0  0  0  0  0  0
  -39.0890  -70.4260   54.4310 C   0  0  0  0  0  1  0  0  0  0  0  0
  -41.1730  -63.0260   46.8420 C   0  0  0  0  0  2  0  0  0  0  0  0
  -42.5970  -62.6300   47.1650 C   0  0  0  0  0  2  0  0  0  0  0  0
  -42.7150  -61.3550   47.7940 N   0  0  0  0  0  4  0  0  0  0  0  0
  -44.0780  -60.8380   47.8270 C   0  0  0  0  0  2  0  0  0  0  0  0
  -44.1300  -59.7650   48.8810 C   0  0  0  0  0  2  0  0  0  0  0  0
  -42.8680  -59.2620   49.0810 O   0  0  0  0  0  0  0  0  0  0  0  0
  -42.1490  -59.0420   47.9190 C   0  0  0  0  0  2  0  0  0  0  0  0
  -41.9300  -60.3270   47.1230 C   0  0  0  0  0  2  0  0  0  0  0  0
  -42.3340  -61.4100   48.7560 H   0  0  0  0  0  0  0  0  0  0  0  0
  1 10  1  1  0  0  0
  1  7  1  0  0  0  0
  2  1  1  0  0  0  0
  2  3  1  0  0  0  0
  3  4  2  0  0  0  0
  3  5  1  0  0  0  0
  5  6  2  0  0  0  0
  7  8  2  0  0  0  0
  7  5  1  0  0  0  0
  8 17  1  0  0  0  0
  9  8  1  0  0  0  0
 10 11  1  0  0  0  0
 12 11  2  0  0  0  0
 12 13  1  0  0  0  0
 14 12  1  0  0  0  0
 15 16  1  0  0  0  0
 15 14  2  0  0  0  0
 16 10  2  0  0  0  0
 17 18  2  0  0  0  0
 17 23  1  0  0  0  0
 18 19  1  0  0  0  0
 19 21  1  0  0  0  0
 19 22  1  0  0  0  0
 20 18  1  0  0  0  0
 21 25  1  0  0  0  0
 23 21  2  0  0  0  0
 24 23  1  0  0  0  0
 25 26  2  0  0  0  0
 27 28  1  0  0  0  0
 27 25  1  0  0  0  0
 29 30  1  0  0  0  0
 29  2  1  0  0  0  0
 30 31  1  0  0  0  0
 31 32  1  0  0  0  0
 31 37  1  0  0  0  0
 32 33  1  0  0  0  0
 33 34  1  0  0  0  0
 35 34  1  0  0  0  0
 36 31  1  0  0  0  0
 36 35  1  0  0  0  0
M  END
>  <Pose>
1

>  <Score>
-7.801

$$$$
