MODEL 1
REMARK VINA RESULT:    -8.510      0.000      0.000
REMARK INTER + INTRA:         -12.621
REMARK INTER:                 -11.992
REMARK INTRA:                  -0.629
REMARK UNBOUND:                -0.629
REMARK  7 active torsions:
REMARK  status: ('A' for Active; 'I' for Inactive)
REMARK    1  A    between atoms: C_4  and  C_8 
REMARK    2  A    between atoms: N_9  and  C_26 
REMARK    3  A    between atoms: C_15  and  C_17 
REMARK    4  A    between atoms: C_20  and  O_23 
REMARK    5  A    between atoms: C_26  and  C_27 
REMARK    6  A    between atoms: C_27  and  C_28 
REMARK    7  A    between atoms: C_28  and  N_29 
ROOT
ATOM      1  C   UNK d   1     -38.148 -67.151  48.961  0.00  0.00     0.161 C 
ATOM      2  N   UNK d   1     -39.282 -66.346  49.371  0.00  0.00    -0.332 N 
ATOM      3  C   UNK d   1     -38.863 -65.064  49.783  0.00  0.00     0.295 C 
ATOM      4  O   UNK d   1     -39.442 -64.189  50.477  0.00  0.00    -0.264 OA
ATOM      5  C   UNK d   1     -37.501 -64.886  49.220  0.00  0.00     0.250 C 
ATOM      6  O   UNK d   1     -36.817 -63.856  49.381  0.00  0.00    -0.282 OA
ATOM      7  C   UNK d   1     -37.179 -66.100  48.492  0.00  0.00     0.062 C 
ATOM      8  C   UNK d   1     -36.258 -66.220  47.571  0.00  0.00     0.130 C 
ATOM      9  O   UNK d   1     -36.112 -67.448  46.903  0.00  0.00    -0.190 OA
ENDROOT
BRANCH   1  10
ATOM     10  C   UNK d   1     -37.586 -67.961  50.056  0.00  0.00    -0.029 A 
ATOM     11  C   UNK d   1     -38.384 -68.588  50.986  0.00  0.00     0.028 A 
ATOM     12  C   UNK d   1     -37.834 -69.349  52.011  0.00  0.00     0.011 A 
ATOM     13 Br   UNK d   1     -38.959 -70.205  53.288  0.00  0.00    -0.051 Br
ATOM     14  C   UNK d   1     -36.458 -69.485  52.107  0.00  0.00     0.019 A 
ATOM     15  C   UNK d   1     -35.667 -68.854  51.171  0.00  0.00     0.002 A 
ATOM     16  C   UNK d   1     -36.219 -68.101  50.154  0.00  0.00     0.009 A 
ENDBRANCH   1  10
BRANCH   8  17
ATOM     17  C   UNK d   1     -35.376 -65.140  47.217  0.00  0.00     0.002 A 
ATOM     18  C   UNK d   1     -34.215 -64.994  47.990  0.00  0.00     0.024 A 
ATOM     19  C   UNK d   1     -33.341 -63.970  47.751  0.00  0.00    -0.028 A 
ATOM     20  C   UNK d   1     -33.559 -63.038  46.744  0.00  0.00     0.074 A 
ATOM     21  C   UNK d   1     -32.106 -63.828  48.587  0.00  0.00     0.051 C 
ATOM     22  C   UNK d   1     -34.691 -63.199  46.007  0.00  0.00     0.038 A 
ATOM     23  C   UNK d   1     -35.584 -64.226  46.236  0.00  0.00     0.017 A 
BRANCH  20  24
ATOM     24  O   UNK d   1     -32.628 -62.035  46.566  0.00  0.00    -0.355 OA
ATOM     25  C   UNK d   1     -31.778 -62.023  45.429  0.00  0.00     0.210 C 
ENDBRANCH  20  24
ENDBRANCH   8  17
BRANCH   2  26
ATOM     26  C   UNK d   1     -40.690 -66.774  49.362  0.00  0.00     0.129 C 
BRANCH  26  27
ATOM     27  C   UNK d   1     -41.129 -67.114  50.759  0.00  0.00     0.048 C 
BRANCH  27  28
ATOM     28  C   UNK d   1     -42.053 -66.129  51.389  0.00  0.00     0.236 C 
BRANCH  28  29
ATOM     29  N   UNK d   1     -42.110 -66.224  52.831  0.00  0.00    -0.067 N 
ATOM     30  C   UNK d   1     -43.471 -66.134  53.324  0.00  0.00     0.261 C 
ATOM     31  C   UNK d   1     -43.887 -67.420  53.984  0.00  0.00     0.195 C 
ATOM     32  O   UNK d   1     -43.027 -67.636  55.081  0.00  0.00    -0.388 OA
ATOM     33  C   UNK d   1     -41.719 -67.831  54.644  0.00  0.00     0.195 C 
ATOM     34  C   UNK d   1     -41.508 -67.509  53.199  0.00  0.00     0.261 C 
ATOM     35  H   UNK d   1     -41.532 -65.506  53.317  0.00  0.00     0.280 HD
ENDBRANCH  28  29
ENDBRANCH  27  28
ENDBRANCH  26  27
ENDBRANCH   2  26
TORSDOF 7
ENDMDL
