MODEL 1
REMARK VINA RESULT:    -7.592      0.000      0.000
REMARK INTER + INTRA:         -10.682
REMARK INTER:                  -9.811
REMARK INTRA:                  -0.871
REMARK UNBOUND:                -0.871
REMARK  5 active torsions:
REMARK  status: ('A' for Active; 'I' for Inactive)
REMARK    1  A    between atoms: C_4  and  C_8 
REMARK    2  A    between atoms: N_9  and  C_24 
REMARK    3  A    between atoms: C_15  and  C_17 
REMARK    4  A    between atoms: C_24  and  C_25 
REMARK    5  A    between atoms: C_25  and  N_26 
ROOT
ATOM      1  C   UNK d   1     -39.863 -64.222  49.003  0.00  0.00     0.161 C 
ATOM      2  N   UNK d   1     -39.038 -64.976  48.108  0.00  0.00    -0.331 N 
ATOM      3  C   UNK d   1     -39.545 -66.302  48.119  0.00  0.00     0.295 C 
ATOM      4  O   UNK d   1     -39.331 -67.178  47.245  0.00  0.00    -0.264 OA
ATOM      5  C   UNK d   1     -40.372 -66.497  49.333  0.00  0.00     0.250 C 
ATOM      6  O   UNK d   1     -40.976 -67.524  49.686  0.00  0.00    -0.282 OA
ATOM      7  C   UNK d   1     -40.328 -65.224  50.028  0.00  0.00     0.062 C 
ATOM      8  C   UNK d   1     -40.583 -64.984  51.295  0.00  0.00     0.130 C 
ATOM      9  O   UNK d   1     -40.421 -63.711  51.799  0.00  0.00    -0.190 OA
ENDROOT
BRANCH   2  10
ATOM     10  C   UNK d   1     -37.886 -64.507  47.312  0.00  0.00     0.155 C 
BRANCH  10  11
ATOM     11  C   UNK d   1     -36.687 -64.507  48.220  0.00  0.00     0.255 C 
BRANCH  11  12
ATOM     12  N   UNK d   1     -35.536 -65.153  47.702  0.00  0.00    -0.066 N 
ATOM     13  C   UNK d   1     -34.392 -65.190  48.566  0.00  0.00     0.261 C 
ATOM     14  C   UNK d   1     -34.315 -66.413  49.439  0.00  0.00     0.195 C 
ATOM     15  O   UNK d   1     -34.657 -67.580  48.792  0.00  0.00    -0.388 OA
ATOM     16  C   UNK d   1     -35.914 -67.520  48.237  0.00  0.00     0.195 C 
ATOM     17  C   UNK d   1     -35.901 -66.446  47.182  0.00  0.00     0.261 C 
ATOM     18  H   UNK d   1     -35.241 -64.598  46.843  0.00  0.00     0.280 HD
ENDBRANCH  11  12
ENDBRANCH  10  11
ENDBRANCH   2  10
BRANCH   1  19
ATOM     19  C   UNK d   1     -41.035 -63.601  48.325  0.00  0.00    -0.029 A 
ATOM     20  C   UNK d   1     -42.250 -63.432  48.956  0.00  0.00     0.028 A 
ATOM     21  C   UNK d   1     -43.347 -62.853  48.325  0.00  0.00     0.011 A 
ATOM     22 Br   UNK d   1     -45.012 -62.639  49.236  0.00  0.00    -0.051 Br
ATOM     23  C   UNK d   1     -43.218 -62.435  47.038  0.00  0.00     0.019 A 
ATOM     24  C   UNK d   1     -42.029 -62.581  46.369  0.00  0.00     0.002 A 
ATOM     25  C   UNK d   1     -40.955 -63.158  47.012  0.00  0.00     0.009 A 
ENDBRANCH   1  19
BRANCH   8  26
ATOM     26  C   UNK d   1     -41.038 -66.021  52.185  0.00  0.00     0.001 A 
ATOM     27  C   UNK d   1     -42.326 -66.252  52.574  0.00  0.00     0.015 A 
ATOM     28  C   UNK d   1     -42.626 -67.315  53.406  0.00  0.00     0.007 A 
ATOM     29  C   UNK d   1     -41.682 -68.190  53.891  0.00  0.00    -0.062 A 
ATOM     30  C   UNK d   1     -40.381 -67.955  53.499  0.00  0.00     0.007 A 
ATOM     31  C   UNK d   1     -42.032 -69.328  54.787  0.00  0.00     0.048 C 
ATOM     32  C   UNK d   1     -40.062 -66.905  52.673  0.00  0.00     0.015 A 
ENDBRANCH   8  26
TORSDOF 5
ENDMDL
