MODEL 1
REMARK VINA RESULT:    -8.626      0.000      0.000
REMARK INTER + INTRA:         -11.939
REMARK INTER:                 -11.652
REMARK INTRA:                  -0.287
REMARK UNBOUND:                -0.287
REMARK  6 active torsions:
REMARK  status: ('A' for Active; 'I' for Inactive)
REMARK    1  A    between atoms: C_4  and  C_8 
REMARK    2  A    between atoms: N_9  and  C_24 
REMARK    3  A    between atoms: C_15  and  C_17 
REMARK    4  A    between atoms: C_24  and  C_25 
REMARK    5  A    between atoms: C_25  and  C_26 
REMARK    6  A    between atoms: C_26  and  N_27 
ROOT
ATOM      1  C   UNK d   1     -42.087 -66.769  51.510  0.00  0.00     0.161 C 
ATOM      2  N   UNK d   1     -43.195 -65.890  51.846  0.00  0.00    -0.332 N 
ATOM      3  C   UNK d   1     -42.634 -64.585  52.098  0.00  0.00     0.295 C 
ATOM      4  O   UNK d   1     -43.216 -63.664  52.721  0.00  0.00    -0.264 OA
ATOM      5  C   UNK d   1     -41.314 -64.569  51.502  0.00  0.00     0.250 C 
ATOM      6  O   UNK d   1     -40.469 -63.620  51.490  0.00  0.00    -0.282 OA
ATOM      7  C   UNK d   1     -41.093 -65.873  50.890  0.00  0.00     0.062 C 
ATOM      8  C   UNK d   1     -40.155 -66.152  49.997  0.00  0.00     0.130 C 
ATOM      9  O   UNK d   1     -40.119 -67.507  49.605  0.00  0.00    -0.190 OA
ENDROOT
BRANCH   2  10
ATOM     10  C   UNK d   1     -44.558 -66.287  51.998  0.00  0.00     0.129 C 
BRANCH  10  11
ATOM     11  C   UNK d   1     -45.173 -66.256  53.336  0.00  0.00     0.048 C 
BRANCH  11  12
ATOM     12  C   UNK d   1     -46.532 -65.691  53.519  0.00  0.00     0.236 C 
BRANCH  12  13
ATOM     13  N   UNK d   1     -47.534 -66.515  54.107  0.00  0.00    -0.067 N 
ATOM     14  C   UNK d   1     -48.822 -66.259  53.516  0.00  0.00     0.261 C 
ATOM     15  C   UNK d   1     -49.143 -67.179  52.357  0.00  0.00     0.195 C 
ATOM     16  O   UNK d   1     -49.266 -68.495  52.809  0.00  0.00    -0.388 OA
ATOM     17  C   UNK d   1     -48.536 -68.687  53.984  0.00  0.00     0.195 C 
ATOM     18  C   UNK d   1     -47.235 -67.952  53.821  0.00  0.00     0.261 C 
ATOM     19  H   UNK d   1     -47.536 -66.477  55.123  0.00  0.00     0.280 HD
ENDBRANCH  12  13
ENDBRANCH  11  12
ENDBRANCH  10  11
ENDBRANCH   2  10
BRANCH   1  20
ATOM     20  C   UNK d   1     -41.576 -67.455  52.723  0.00  0.00    -0.029 A 
ATOM     21  C   UNK d   1     -40.519 -68.332  52.629  0.00  0.00     0.028 A 
ATOM     22  C   UNK d   1     -40.008 -68.999  53.734  0.00  0.00     0.011 A 
ATOM     23 Br   UNK d   1     -38.546 -70.207  53.617  0.00  0.00    -0.051 Br
ATOM     24  C   UNK d   1     -40.562 -68.791  54.979  0.00  0.00     0.019 A 
ATOM     25  C   UNK d   1     -41.619 -67.915  55.076  0.00  0.00     0.002 A 
ATOM     26  C   UNK d   1     -42.126 -67.246  53.953  0.00  0.00     0.009 A 
ENDBRANCH   1  20
BRANCH   8  27
ATOM     27  C   UNK d   1     -39.225 -65.184  49.438  0.00  0.00     0.001 A 
ATOM     28  C   UNK d   1     -37.941 -64.968  49.878  0.00  0.00     0.016 A 
ATOM     29  C   UNK d   1     -37.091 -64.057  49.285  0.00  0.00     0.024 A 
ATOM     30  C   UNK d   1     -37.507 -63.311  48.206  0.00  0.00     0.034 A 
ATOM     31  C   UNK d   1     -38.794 -63.514  47.751  0.00  0.00     0.024 A 
ATOM     32 Cl   UNK d   1     -36.437 -62.139  47.429  0.00  0.00    -0.084 Cl
ATOM     33  C   UNK d   1     -39.638 -64.428  48.351  0.00  0.00     0.016 A 
ENDBRANCH   8  27
TORSDOF 6
ENDMDL
