MODEL 1
REMARK VINA RESULT:    -7.175      0.000      0.000
REMARK INTER + INTRA:         -10.304
REMARK INTER:                  -9.272
REMARK INTRA:                  -1.032
REMARK UNBOUND:                -1.032
REMARK  5 active torsions:
REMARK  status: ('A' for Active; 'I' for Inactive)
REMARK    1  A    between atoms: C_4  and  C_8 
REMARK    2  A    between atoms: N_9  and  C_28 
REMARK    3  A    between atoms: C_15  and  C_17 
REMARK    4  A    between atoms: C_28  and  C_29 
REMARK    5  A    between atoms: C_29  and  N_30 
ROOT
ATOM      1  C   UNK d   1     -37.477 -63.988  47.404  0.00  0.00     0.161 C 
ATOM      2  N   UNK d   1     -38.579 -63.110  47.223  0.00  0.00    -0.331 N 
ATOM      3  C   UNK d   1     -39.706 -64.023  47.010  0.00  0.00     0.295 C 
ATOM      4  O   UNK d   1     -40.737 -63.777  46.363  0.00  0.00    -0.264 OA
ATOM      5  C   UNK d   1     -39.363 -65.270  47.712  0.00  0.00     0.251 C 
ATOM      6  O   UNK d   1     -40.040 -66.320  47.800  0.00  0.00    -0.282 OA
ATOM      7  C   UNK d   1     -38.048 -65.033  48.303  0.00  0.00     0.064 C 
ATOM      8  C   UNK d   1     -37.559 -65.590  49.381  0.00  0.00     0.149 C 
ATOM      9  O   UNK d   1     -36.283 -65.158  49.804  0.00  0.00    -0.189 OA
ENDROOT
BRANCH   1  10
ATOM     10  C   UNK d   1     -36.179 -63.483  47.739  0.00  0.00    -0.029 A 
ATOM     11  C   UNK d   1     -35.043 -64.023  47.102  0.00  0.00     0.028 A 
ATOM     12  C   UNK d   1     -33.765 -63.609  47.370  0.00  0.00     0.011 A 
ATOM     13 Br   UNK d   1     -32.269 -64.388  46.462  0.00  0.00    -0.051 Br
ATOM     14  C   UNK d   1     -33.519 -62.628  48.292  0.00  0.00     0.019 A 
ATOM     15  C   UNK d   1     -34.596 -62.070  48.941  0.00  0.00     0.002 A 
ATOM     16  C   UNK d   1     -35.874 -62.502  48.656  0.00  0.00     0.009 A 
ENDBRANCH   1  10
BRANCH   8  17
ATOM     17  C   UNK d   1     -38.262 -66.618  50.132  0.00  0.00     0.102 A 
ATOM     18  N   UNK d   1     -39.335 -66.564  50.934  0.00  0.00    -0.302 N 
ATOM     19  C   UNK d   1     -39.583 -67.776  51.437  0.00  0.00     0.140 A 
ATOM     20  C   UNK d   1     -40.112 -65.483  51.222  0.00  0.00     0.099 A 
ATOM     21  N   UNK d   1     -38.641 -68.620  50.939  0.00  0.00    -0.233 NA
ATOM     22  C   UNK d   1     -40.656 -68.008  52.295  0.00  0.00    -0.015 A 
ATOM     23  C   UNK d   1     -37.811 -67.948  50.131  0.00  0.00     0.063 A 
ATOM     24  C   UNK d   1     -36.644 -68.497  49.384  0.00  0.00     0.073 C 
ATOM     25  C   UNK d   1     -41.461 -66.929  52.603  0.00  0.00     0.012 A 
ATOM     26  C   UNK d   1     -40.882 -69.375  52.825  0.00  0.00     0.052 C 
ATOM     27  C   UNK d   1     -41.177 -65.687  52.065  0.00  0.00     0.018 A 
ENDBRANCH   8  17
BRANCH   2  28
ATOM     28  C   UNK d   1     -38.737 -61.667  47.171  0.00  0.00     0.155 C 
BRANCH  28  29
ATOM     29  C   UNK d   1     -38.177 -61.010  45.957  0.00  0.00     0.255 C 
BRANCH  29  30
ATOM     30  N   UNK d   1     -37.168 -60.016  46.266  0.00  0.00    -0.066 N 
ATOM     31  C   UNK d   1     -35.877 -60.387  45.730  0.00  0.00     0.261 C 
ATOM     32  C   UNK d   1     -35.882 -60.213  44.208  0.00  0.00     0.195 C 
ATOM     33  O   UNK d   1     -36.022 -58.839  43.985  0.00  0.00    -0.388 OA
ATOM     34  C   UNK d   1     -37.350 -58.530  44.344  0.00  0.00     0.195 C 
ATOM     35  C   UNK d   1     -37.571 -58.694  45.829  0.00  0.00     0.261 C 
ATOM     36  H   UNK d   1     -37.052 -59.963  47.308  0.00  0.00     0.280 HD
ENDBRANCH  29  30
ENDBRANCH  28  29
ENDBRANCH   2  28
TORSDOF 5
ENDMDL
