MODEL 1
REMARK VINA RESULT:    -6.163      0.000      0.000
REMARK INTER + INTRA:          -9.070
REMARK INTER:                  -8.325
REMARK INTRA:                  -0.745
REMARK UNBOUND:                -0.745
REMARK  6 active torsions:
REMARK  status: ('A' for Active; 'I' for Inactive)
REMARK    1  A    between atoms: C_4  and  C_8 
REMARK    2  A    between atoms: N_9  and  C_27 
REMARK    3  A    between atoms: C_15  and  C_17 
REMARK    4  A    between atoms: C_27  and  C_28 
REMARK    5  A    between atoms: C_28  and  C_29 
REMARK    6  A    between atoms: C_29  and  N_30 
ROOT
ATOM      1  C   UNK d   1     -37.330 -64.135  49.609  0.00  0.00     0.161 C 
ATOM      2  N   UNK d   1     -37.317 -63.014  48.689  0.00  0.00    -0.332 N 
ATOM      3  C   UNK d   1     -35.947 -62.594  48.631  0.00  0.00     0.295 C 
ATOM      4  O   UNK d   1     -35.511 -61.466  48.342  0.00  0.00    -0.264 OA
ATOM      5  C   UNK d   1     -35.134 -63.753  48.978  0.00  0.00     0.251 C 
ATOM      6  O   UNK d   1     -33.876 -63.879  49.065  0.00  0.00    -0.282 OA
ATOM      7  C   UNK d   1     -36.065 -64.841  49.233  0.00  0.00     0.064 C 
ATOM      8  C   UNK d   1     -35.787 -66.128  49.176  0.00  0.00     0.149 C 
ATOM      9  O   UNK d   1     -36.829 -66.999  49.527  0.00  0.00    -0.189 OA
ENDROOT
BRANCH   1  10
ATOM     10  C   UNK d   1     -38.496 -65.018  49.486  0.00  0.00    -0.029 A 
ATOM     11  C   UNK d   1     -39.306 -65.359  50.516  0.00  0.00     0.028 A 
ATOM     12  C   UNK d   1     -40.392 -66.212  50.315  0.00  0.00     0.011 A 
ATOM     13 Br   UNK d   1     -41.505 -66.666  51.786  0.00  0.00    -0.051 Br
ATOM     14  C   UNK d   1     -40.678 -66.739  49.064  0.00  0.00     0.019 A 
ATOM     15  C   UNK d   1     -39.841 -66.380  48.030  0.00  0.00     0.002 A 
ATOM     16  C   UNK d   1     -38.780 -65.546  48.222  0.00  0.00     0.009 A 
ENDBRANCH   1  10
BRANCH   8  17
ATOM     17  C   UNK d   1     -34.506 -66.693  48.778  0.00  0.00     0.102 A 
ATOM     18  N   UNK d   1     -34.003 -66.787  47.539  0.00  0.00    -0.302 N 
ATOM     19  C   UNK d   1     -32.760 -67.334  47.562  0.00  0.00     0.134 A 
ATOM     20  C   UNK d   1     -34.512 -66.458  46.315  0.00  0.00     0.099 A 
ATOM     21  N   UNK d   1     -32.508 -67.580  48.877  0.00  0.00    -0.233 NA
ATOM     22  C   UNK d   1     -32.015 -67.558  46.415  0.00  0.00     0.051 A 
ATOM     23  C   UNK d   1     -33.525 -67.212  49.638  0.00  0.00     0.063 A 
ATOM     24  C   UNK d   1     -33.724 -67.276  51.103  0.00  0.00     0.073 C 
ATOM     25  C   UNK d   1     -32.535 -67.221  45.183  0.00  0.00     0.005 A 
ATOM     26  C   UNK d   1     -33.809 -66.663  45.168  0.00  0.00     0.018 A 
ENDBRANCH   8  17
BRANCH   2  27
ATOM     27  C   UNK d   1     -38.444 -62.409  47.975  0.00  0.00     0.129 C 
BRANCH  27  28
ATOM     28  C   UNK d   1     -38.259 -62.364  46.502  0.00  0.00     0.048 C 
BRANCH  28  29
ATOM     29  C   UNK d   1     -38.313 -61.057  45.825  0.00  0.00     0.235 C 
BRANCH  29  30
ATOM     30  N   UNK d   1     -37.347 -60.092  46.220  0.00  0.00    -0.079 N 
ATOM     31  C   UNK d   1     -37.889 -58.762  46.084  0.00  0.00     0.269 C 
ATOM     32  C   UNK d   1     -36.197 -60.151  45.298  0.00  0.00     0.269 C 
ATOM     33  H   UNK d   1     -36.923 -60.263  47.158  0.00  0.00     0.278 HD
ENDBRANCH  29  30
ENDBRANCH  28  29
ENDBRANCH  27  28
ENDBRANCH   2  27
TORSDOF 6
ENDMDL
