MODEL 1
REMARK VINA RESULT:    -6.835      0.000      0.000
REMARK INTER + INTRA:         -10.294
REMARK INTER:                  -9.232
REMARK INTRA:                  -1.062
REMARK UNBOUND:                -1.062
REMARK  6 active torsions:
REMARK  status: ('A' for Active; 'I' for Inactive)
REMARK    1  A    between atoms: C_4  and  C_8 
REMARK    2  A    between atoms: N_9  and  C_22 
REMARK    3  A    between atoms: C_15  and  C_17 
REMARK    4  A    between atoms: C_22  and  C_23 
REMARK    5  A    between atoms: C_23  and  C_24 
REMARK    6  A    between atoms: C_24  and  N_25 
ROOT
ATOM      1  C   UNK d   1     -39.614 -64.071  49.035  0.00  0.00     0.161 C 
ATOM      2  N   UNK d   1     -38.677 -64.874  48.263  0.00  0.00    -0.332 N 
ATOM      3  C   UNK d   1     -39.372 -66.135  48.114  0.00  0.00     0.295 C 
ATOM      4  O   UNK d   1     -39.197 -66.978  47.208  0.00  0.00    -0.264 OA
ATOM      5  C   UNK d   1     -40.328 -66.274  49.204  0.00  0.00     0.251 C 
ATOM      6  O   UNK d   1     -41.143 -67.192  49.477  0.00  0.00    -0.282 OA
ATOM      7  C   UNK d   1     -40.189 -65.064  50.013  0.00  0.00     0.064 C 
ATOM      8  C   UNK d   1     -40.501 -64.861  51.261  0.00  0.00     0.153 C 
ATOM      9  O   UNK d   1     -40.295 -63.571  51.795  0.00  0.00    -0.188 OA
ENDROOT
BRANCH   2  10
ATOM     10  C   UNK d   1     -37.378 -64.569  47.724  0.00  0.00     0.129 C 
BRANCH  10  11
ATOM     11  C   UNK d   1     -36.338 -64.256  48.774  0.00  0.00     0.048 C 
BRANCH  11  12
ATOM     12  C   UNK d   1     -36.224 -65.389  49.714  0.00  0.00     0.236 C 
BRANCH  12  13
ATOM     13  N   UNK d   1     -35.509 -66.539  49.207  0.00  0.00    -0.067 N 
ATOM     14  C   UNK d   1     -34.164 -66.627  49.724  0.00  0.00     0.261 C 
ATOM     15  C   UNK d   1     -34.004 -67.515  50.906  0.00  0.00     0.195 C 
ATOM     16  O   UNK d   1     -34.703 -68.703  50.857  0.00  0.00    -0.388 OA
ATOM     17  C   UNK d   1     -36.041 -68.549  50.522  0.00  0.00     0.195 C 
ATOM     18  C   UNK d   1     -36.221 -67.771  49.244  0.00  0.00     0.261 C 
ATOM     19  H   UNK d   1     -35.375 -66.316  48.170  0.00  0.00     0.280 HD
ENDBRANCH  12  13
ENDBRANCH  11  12
ENDBRANCH  10  11
ENDBRANCH   2  10
BRANCH   1  20
ATOM     20  C   UNK d   1     -40.760 -63.618  48.193  0.00  0.00    -0.029 A 
ATOM     21  C   UNK d   1     -42.003 -63.418  48.752  0.00  0.00     0.028 A 
ATOM     22  C   UNK d   1     -43.101 -62.998  48.017  0.00  0.00     0.011 A 
ATOM     23 Br   UNK d   1     -44.813 -62.730  48.839  0.00  0.00    -0.051 Br
ATOM     24  C   UNK d   1     -42.962 -62.766  46.664  0.00  0.00     0.019 A 
ATOM     25  C   UNK d   1     -41.723 -62.960  46.082  0.00  0.00     0.002 A 
ATOM     26  C   UNK d   1     -40.627 -63.384  46.837  0.00  0.00     0.009 A 
ENDBRANCH   1  20
BRANCH   8  27
ATOM     27  C   UNK d   1     -41.042 -65.935  52.074  0.00  0.00     0.112 A 
ATOM     28  O   UNK d   1     -40.315 -66.905  52.560  0.00  0.00    -0.320 OA
ATOM     29  C   UNK d   1     -41.041 -67.741  53.251  0.00  0.00     0.142 A 
ATOM     30  C   UNK d   1     -42.330 -67.303  53.225  0.00  0.00     0.027 A 
ATOM     31  C   UNK d   1     -42.339 -66.130  52.461  0.00  0.00     0.042 A 
ENDBRANCH   8  27
TORSDOF 6
ENDMDL
