/Users/jonathanwahrer/Desktop/Msc/3_Semester/Drug_Design_Praktikum/waehrer_HTS_screening/HTS_experiment/out/docking_results/vina_output/3e7o/0188_docked.pdbqt
 OpenBabel03192215253D

 31 34  0  0  1  0  0  0  0  0999 V2000
  -39.6140  -64.0710   49.0350 C   0  0  2  0  0  3  0  0  0  0  0  0
  -38.6770  -64.8740   48.2630 N   0  0  0  0  0  0  0  0  0  0  0  0
  -39.3720  -66.1350   48.1140 C   0  0  0  0  0  0  0  0  0  0  0  0
  -39.1970  -66.9780   47.2080 O   0  0  0  0  0  0  0  0  0  0  0  0
  -40.3280  -66.2740   49.2040 C   0  0  0  0  0  0  0  0  0  0  0  0
  -41.1430  -67.1920   49.4770 O   0  0  0  0  0  0  0  0  0  0  0  0
  -40.1890  -65.0640   50.0130 C   0  0  0  0  0  0  0  0  0  0  0  0
  -40.5010  -64.8610   51.2610 C   0  0  0  0  0  0  0  0  0  0  0  0
  -40.2950  -63.5710   51.7950 O   0  0  0  0  0  1  0  0  0  0  0  0
  -37.3780  -64.5690   47.7240 C   0  0  0  0  0  2  0  0  0  0  0  0
  -36.3380  -64.2560   48.7740 C   0  0  0  0  0  2  0  0  0  0  0  0
  -36.2240  -65.3890   49.7140 C   0  0  0  0  0  2  0  0  0  0  0  0
  -35.5090  -66.5390   49.2070 N   0  0  0  0  0  4  0  0  0  0  0  0
  -34.1640  -66.6270   49.7240 C   0  0  0  0  0  2  0  0  0  0  0  0
  -34.0040  -67.5150   50.9060 C   0  0  0  0  0  2  0  0  0  0  0  0
  -34.7030  -68.7030   50.8570 O   0  0  0  0  0  0  0  0  0  0  0  0
  -36.0410  -68.5490   50.5220 C   0  0  0  0  0  2  0  0  0  0  0  0
  -36.2210  -67.7710   49.2440 C   0  0  0  0  0  2  0  0  0  0  0  0
  -35.3750  -66.3160   48.1700 H   0  0  0  0  0  0  0  0  0  0  0  0
  -40.7600  -63.6180   48.1930 C   0  0  0  0  0  0  0  0  0  0  0  0
  -42.0030  -63.4180   48.7520 C   0  0  0  0  0  3  0  0  0  0  0  0
  -43.1010  -62.9980   48.0170 C   0  0  0  0  0  0  0  0  0  0  0  0
  -44.8130  -62.7300   48.8390 Br  0  0  0  0  0  0  0  0  0  0  0  0
  -42.9620  -62.7660   46.6640 C   0  0  0  0  0  3  0  0  0  0  0  0
  -41.7230  -62.9600   46.0820 C   0  0  0  0  0  3  0  0  0  0  0  0
  -40.6270  -63.3840   46.8370 C   0  0  0  0  0  3  0  0  0  0  0  0
  -41.0420  -65.9350   52.0740 C   0  0  0  0  0  0  0  0  0  0  0  0
  -40.3150  -66.9050   52.5600 O   0  0  0  0  0  0  0  0  0  0  0  0
  -41.0410  -67.7410   53.2510 C   0  0  0  0  0  3  0  0  0  0  0  0
  -42.3300  -67.3030   53.2250 C   0  0  0  0  0  3  0  0  0  0  0  0
  -42.3390  -66.1300   52.4610 C   0  0  0  0  0  3  0  0  0  0  0  0
  1 20  1  6  0  0  0
  1  7  1  0  0  0  0
  2  1  1  0  0  0  0
  3  2  1  0  0  0  0
  3  5  1  0  0  0  0
  4  3  2  0  0  0  0
  5  6  2  0  0  0  0
  5  7  1  0  0  0  0
  7  8  2  0  0  0  0
  8  9  1  0  0  0  0
  8 27  1  0  0  0  0
 10  2  1  0  0  0  0
 10 11  1  0  0  0  0
 11 12  1  0  0  0  0
 13 18  1  0  0  0  0
 13 12  1  0  0  0  0
 13 14  1  0  0  0  0
 14 15  1  0  0  0  0
 16 15  1  0  0  0  0
 17 16  1  0  0  0  0
 18 17  1  0  0  0  0
 19 13  1  0  0  0  0
 20 21  1  0  0  0  0
 22 21  2  0  0  0  0
 22 23  1  0  0  0  0
 24 22  1  0  0  0  0
 25 24  2  0  0  0  0
 25 26  1  0  0  0  0
 26 20  2  0  0  0  0
 27 31  2  0  0  0  0
 27 28  1  0  0  0  0
 28 29  1  0  0  0  0
 30 29  2  0  0  0  0
 31 30  1  0  0  0  0
M  END
>  <Pose>
1

>  <Score>
-6.835

$$$$
