MODEL 1
REMARK VINA RESULT:    -7.554      0.000      0.000
REMARK INTER + INTRA:         -11.861
REMARK INTER:                 -10.645
REMARK INTRA:                  -1.215
REMARK UNBOUND:                -1.215
REMARK  7 active torsions:
REMARK  status: ('A' for Active; 'I' for Inactive)
REMARK    1  A    between atoms: C_4  and  C_8 
REMARK    2  A    between atoms: N_9  and  C_28 
REMARK    3  A    between atoms: C_15  and  C_17 
REMARK    4  A    between atoms: C_25  and  O_26 
REMARK    5  A    between atoms: C_28  and  C_29 
REMARK    6  A    between atoms: C_29  and  C_30 
REMARK    7  A    between atoms: C_30  and  N_31 
ROOT
ATOM      1  C   UNK d   1     -39.561 -64.085  48.735  0.00  0.00     0.161 C 
ATOM      2  N   UNK d   1     -38.652 -64.932  47.989  0.00  0.00    -0.332 N 
ATOM      3  C   UNK d   1     -39.254 -66.245  47.987  0.00  0.00     0.295 C 
ATOM      4  O   UNK d   1     -39.022 -67.151  47.151  0.00  0.00    -0.264 OA
ATOM      5  C   UNK d   1     -40.162 -66.291  49.137  0.00  0.00     0.251 C 
ATOM      6  O   UNK d   1     -40.893 -67.241  49.519  0.00  0.00    -0.282 OA
ATOM      7  C   UNK d   1     -40.094 -65.000  49.812  0.00  0.00     0.064 C 
ATOM      8  C   UNK d   1     -40.434 -64.719  51.058  0.00  0.00     0.153 C 
ATOM      9  O   UNK d   1     -40.316 -63.430  51.513  0.00  0.00    -0.188 OA
ENDROOT
BRANCH   1  10
ATOM     10  C   UNK d   1     -40.671 -63.542  47.912  0.00  0.00    -0.029 A 
ATOM     11  C   UNK d   1     -41.949 -63.357  48.445  0.00  0.00     0.028 A 
ATOM     12  C   UNK d   1     -42.998 -62.865  47.725  0.00  0.00     0.011 A 
ATOM     13 Br   UNK d   1     -44.725 -62.645  48.547  0.00  0.00    -0.051 Br
ATOM     14  C   UNK d   1     -42.825 -62.525  46.416  0.00  0.00     0.019 A 
ATOM     15  C   UNK d   1     -41.596 -62.684  45.843  0.00  0.00     0.002 A 
ATOM     16  C   UNK d   1     -40.533 -63.188  46.588  0.00  0.00     0.009 A 
ENDBRANCH   1  10
BRANCH   8  17
ATOM     17  C   UNK d   1     -40.935 -65.764  51.972  0.00  0.00     0.114 A 
ATOM     18  O   UNK d   1     -40.257 -66.800  52.383  0.00  0.00    -0.304 OA
ATOM     19  C   UNK d   1     -40.920 -67.570  53.180  0.00  0.00     0.119 A 
ATOM     20  C   UNK d   1     -42.166 -67.010  53.326  0.00  0.00     0.003 A 
ATOM     21  C   UNK d   1     -40.553 -68.748  53.817  0.00  0.00     0.102 A 
ATOM     22  C   UNK d   1     -42.174 -65.864  52.559  0.00  0.00     0.054 A 
ATOM     23  C   UNK d   1     -43.077 -67.650  54.138  0.00  0.00     0.014 A 
ATOM     24  C   UNK d   1     -42.766 -68.824  54.794  0.00  0.00     0.004 A 
ATOM     25  C   UNK d   1     -41.486 -69.358  54.617  0.00  0.00     0.040 A 
BRANCH  21  26
ATOM     26  O   UNK d   1     -39.308 -69.305  53.671  0.00  0.00    -0.353 OA
ATOM     27  C   UNK d   1     -38.828 -70.453  54.294  0.00  0.00     0.210 C 
ENDBRANCH  21  26
ENDBRANCH   8  17
BRANCH   2  28
ATOM     28  C   UNK d   1     -37.411 -64.573  47.346  0.00  0.00     0.129 C 
BRANCH  28  29
ATOM     29  C   UNK d   1     -36.262 -64.566  48.324  0.00  0.00     0.048 C 
BRANCH  29  30
ATOM     30  C   UNK d   1     -35.533 -65.854  48.452  0.00  0.00     0.235 C 
BRANCH  30  31
ATOM     31  N   UNK d   1     -35.792 -66.579  49.657  0.00  0.00    -0.079 N 
ATOM     32  C   UNK d   1     -34.591 -66.637  50.495  0.00  0.00     0.269 C 
ATOM     33  C   UNK d   1     -36.271 -67.905  49.417  0.00  0.00     0.269 C 
ATOM     34  H   UNK d   1     -36.509 -66.096  50.272  0.00  0.00     0.278 HD
ENDBRANCH  30  31
ENDBRANCH  29  30
ENDBRANCH  28  29
ENDBRANCH   2  28
TORSDOF 7
ENDMDL
