MODEL 1
REMARK VINA RESULT:    -8.175      0.000      0.000
REMARK INTER + INTRA:         -10.209
REMARK INTER:                  -9.609
REMARK INTRA:                  -0.600
REMARK UNBOUND:                -0.600
REMARK  3 active torsions:
REMARK  status: ('A' for Active; 'I' for Inactive)
REMARK    1  A    between atoms: C_4  and  N_8 
REMARK       I    between atoms: N_8  and  C_9 
REMARK    2  A    between atoms: C_9  and  C_11 
REMARK    3  A    between atoms: N_13  and  C_15 
ROOT
ATOM      1  C   UNK d   1     -43.954 -66.382  54.219  0.00  0.00     0.114 C 
ATOM      2  C   UNK d   1     -44.610 -66.176  52.878  0.00  0.00     0.140 C 
ATOM      3  N   UNK d   1     -43.649 -65.115  52.539  0.00  0.00    -0.362 N 
ATOM      4  C   UNK d   1     -43.364 -65.027  53.959  0.00  0.00     0.140 C 
ENDROOT
BRANCH   1   5
ATOM      5  C   UNK d   1     -42.954 -67.505  54.242  0.00  0.00     0.229 C 
ATOM      6  N   UNK d   1     -41.660 -67.277  53.748  0.00  0.00    -0.327 N 
ATOM      7  H   UNK d   1     -41.417 -66.292  53.363  0.00  0.00     0.169 HD
ATOM      8  O   UNK d   1     -43.373 -68.573  54.710  0.00  0.00    -0.273 OA
BRANCH   6   9
ATOM      9  C   UNK d   1     -40.624 -68.231  53.706  0.00  0.00     0.035 A 
ATOM     10  C   UNK d   1     -39.841 -68.337  52.547  0.00  0.00     0.048 A 
ATOM     11  C   UNK d   1     -38.811 -69.240  52.421  0.00  0.00     0.013 A 
ATOM     12 Br   UNK d   1     -37.773 -69.351  50.828  0.00  0.00    -0.051 Br
ATOM     13  C   UNK d   1     -38.519 -70.080  53.455  0.00  0.00     0.019 A 
ATOM     14  C   UNK d   1     -39.262 -69.998  54.589  0.00  0.00     0.004 A 
ATOM     15  C   UNK d   1     -40.310 -69.084  54.726  0.00  0.00     0.029 A 
ENDBRANCH   6   9
ENDBRANCH   1   5
BRANCH   3  16
ATOM     16  C   UNK d   1     -43.245 -64.508  51.318  0.00  0.00     0.162 A 
ATOM     17  N   UNK d   1     -44.035 -63.624  50.655  0.00  0.00    -0.222 NA
ATOM     18  C   UNK d   1     -43.623 -63.054  49.484  0.00  0.00     0.237 A 
ATOM     19  N   UNK d   1     -42.432 -63.347  48.953  0.00  0.00    -0.220 NA
ATOM     20  C   UNK d   1     -41.606 -64.207  49.551  0.00  0.00     0.183 A 
ATOM     21  N   UNK d   1     -40.378 -64.660  49.226  0.00  0.00    -0.236 N 
ATOM     22  C   UNK d   1     -42.024 -64.782  50.734  0.00  0.00     0.173 A 
ATOM     23  N   UNK d   1     -40.028 -65.498  50.176  0.00  0.00    -0.064 NA
ATOM     24  C   UNK d   1     -39.569 -64.311  48.061  0.00  0.00     0.183 C 
ATOM     25  N   UNK d   1     -40.995 -65.594  51.097  0.00  0.00    -0.124 NA
ENDBRANCH   3  16
TORSDOF 3
ENDMDL
