MODEL 1
REMARK VINA RESULT:    -8.342      0.000      0.000
REMARK INTER + INTRA:          -9.612
REMARK INTER:                  -9.317
REMARK INTRA:                  -0.294
REMARK UNBOUND:                -0.294
REMARK  2 active torsions:
REMARK  status: ('A' for Active; 'I' for Inactive)
REMARK    1  A    between atoms: C_4  and  N_8 
REMARK    2  A    between atoms: N_8  and  C_9 
ROOT
ATOM      1  C   UNK d   1     -41.030 -67.617  51.919  0.00  0.00     0.180 A 
ATOM      2  N   UNK d   1     -41.323 -66.416  51.431  0.00  0.00    -0.202 NA
ATOM      3  C   UNK d   1     -42.093 -65.498  52.040  0.00  0.00     0.231 A 
ATOM      4  N   UNK d   1     -42.524 -64.255  51.767  0.00  0.00    -0.081 NA
ATOM      5  O   UNK d   1     -43.271 -63.796  52.721  0.00  0.00    -0.103 OA
ATOM      6  N   UNK d   1     -43.347 -64.706  53.625  0.00  0.00    -0.081 NA
ATOM      7  C   UNK d   1     -42.643 -65.796  53.279  0.00  0.00     0.229 A 
ATOM      8  N   UNK d   1     -42.376 -66.997  53.812  0.00  0.00    -0.196 N 
ATOM      9  N   UNK d   1     -42.782 -67.509  54.972  0.00  0.00     0.004 NA
ATOM     10  N   UNK d   1     -42.258 -68.740  55.066  0.00  0.00     0.018 NA
ATOM     11  N   UNK d   1     -41.538 -68.966  53.966  0.00  0.00    -0.138 NA
ATOM     12  C   UNK d   1     -41.603 -67.891  53.177  0.00  0.00     0.212 A 
ENDROOT
BRANCH   1  13
ATOM     13  N   UNK d   1     -40.227 -68.613  51.316  0.00  0.00    -0.338 N 
ATOM     14  H   UNK d   1     -40.651 -69.557  51.084  0.00  0.00     0.167 HD
BRANCH  13  15
ATOM     15  C   UNK d   1     -38.865 -68.455  50.985  0.00  0.00     0.035 A 
ATOM     16  C   UNK d   1     -38.328 -67.503  50.161  0.00  0.00     0.048 A 
ATOM     17  C   UNK d   1     -36.981 -67.382  49.861  0.00  0.00     0.013 A 
ATOM     18 Br   UNK d   1     -36.332 -66.018  48.697  0.00  0.00    -0.051 Br
ATOM     19  C   UNK d   1     -36.100 -68.272  50.420  0.00  0.00     0.019 A 
ATOM     20  C   UNK d   1     -36.577 -69.254  51.259  0.00  0.00     0.004 A 
ATOM     21  C   UNK d   1     -37.919 -69.345  51.534  0.00  0.00     0.029 A 
ENDBRANCH  13  15
ENDBRANCH   1  13
TORSDOF 2
ENDMDL
