/Users/jonathanwahrer/Desktop/Msc/3_Semester/Drug_Design_Praktikum/waehrer_HTS_screening/HTS_experiment/out/docking_results/vina_output/3e7o/0200_docked.pdbqt
 OpenBabel03192215263D

 21 24  0  0  1  0  0  0  0  0999 V2000
  -41.0300  -67.6170   51.9190 C   0  0  1  0  0  3  0  0  0  0  0  0
  -41.3230  -66.4160   51.4310 N   0  0  0  0  0  0  0  0  0  0  0  0
  -42.0930  -65.4980   52.0400 C   0  0  0  0  0  0  0  0  0  0  0  0
  -42.5240  -64.2550   51.7670 N   0  0  0  0  0  2  0  0  0  0  0  0
  -43.2710  -63.7960   52.7210 O   0  0  0  0  0  0  0  0  0  0  0  0
  -43.3470  -64.7060   53.6250 N   0  0  0  0  0  0  0  0  0  0  0  0
  -42.6430  -65.7960   53.2790 C   0  0  0  0  0  0  0  0  0  0  0  0
  -42.3760  -66.9970   53.8120 N   0  0  0  0  0  0  0  0  0  0  0  0
  -42.7820  -67.5090   54.9720 N   0  0  0  0  0  0  0  0  0  0  0  0
  -42.2580  -68.7400   55.0660 N   0  0  0  0  0  0  0  0  0  0  0  0
  -41.5380  -68.9660   53.9660 N   0  0  0  0  0  0  0  0  0  0  0  0
  -41.6030  -67.8910   53.1770 C   0  0  0  0  0  0  0  0  0  0  0  0
  -40.2270  -68.6130   51.3160 N   0  0  0  0  0  0  0  0  0  0  0  0
  -40.6510  -69.5570   51.0840 H   0  0  0  0  0  0  0  0  0  0  0  0
  -38.8650  -68.4550   50.9850 C   0  0  0  0  0  0  0  0  0  0  0  0
  -38.3280  -67.5030   50.1610 C   0  0  0  0  0  3  0  0  0  0  0  0
  -36.9810  -67.3820   49.8610 C   0  0  0  0  0  0  0  0  0  0  0  0
  -36.3320  -66.0180   48.6970 Br  0  0  0  0  0  0  0  0  0  0  0  0
  -36.1000  -68.2720   50.4200 C   0  0  0  0  0  3  0  0  0  0  0  0
  -36.5770  -69.2540   51.2590 C   0  0  0  0  0  3  0  0  0  0  0  0
  -37.9190  -69.3450   51.5340 C   0  0  0  0  0  3  0  0  0  0  0  0
  1 13  1  6  0  0  0
  1 12  1  0  0  0  0
  2  1  1  0  0  0  0
  2  3  2  0  0  0  0
  3  7  1  0  0  0  0
  4  3  1  0  0  0  0
  4  5  1  0  0  0  0
  5  6  1  0  0  0  0
  7  6  2  0  0  0  0
  7  8  1  0  0  0  0
  8  9  1  0  0  0  0
  9 10  2  0  0  0  0
 11 10  1  0  0  0  0
 12  8  1  0  0  0  0
 12 11  2  0  0  0  0
 14 13  1  0  0  0  0
 15 13  1  0  0  0  0
 15 21  1  0  0  0  0
 16 15  2  0  0  0  0
 17 16  1  0  0  0  0
 17 19  2  0  0  0  0
 18 17  1  0  0  0  0
 19 20  1  0  0  0  0
 20 21  2  0  0  0  0
M  END
>  <Pose>
1

>  <Score>
-8.342

$$$$
