/Users/jonathanwahrer/Desktop/Msc/3_Semester/Drug_Design_Praktikum/waehrer_HTS_screening/HTS_experiment/out/docking_results/vina_output/3e7o/0201_docked.pdbqt
 OpenBabel03192215263D

 25 28  0  0  0  0  0  0  0  0999 V2000
  -39.9150  -64.1280   49.0590 C   0  0  0  0  0  0  0  0  0  0  0  0
  -40.1890  -64.5180   47.8970 O   0  0  0  0  0  0  0  0  0  0  0  0
  -38.8740  -63.1950   49.2370 N   0  0  0  0  0  0  0  0  0  0  0  0
  -38.6610  -62.8820   50.2110 H   0  0  0  0  0  0  0  0  0  0  0  0
  -40.6950  -64.6640   50.1680 C   0  0  0  0  0  0  0  0  0  0  0  0
  -41.8670  -64.1970   50.6640 N   0  0  0  0  0  0  0  0  0  0  0  0
  -42.2310  -64.9770   51.6690 N   0  0  0  0  0  0  0  0  0  0  0  0
  -41.3570  -65.9310   51.8530 N   0  0  0  0  0  0  0  0  0  0  0  0
  -40.3900  -65.7640   50.9360 C   0  0  0  0  0  3  0  0  0  0  0  0
  -41.3550  -66.9880   52.8220 C   0  0  0  0  0  0  0  0  0  0  0  0
  -40.3470  -67.9170   52.9110 C   0  0  0  0  0  3  0  0  0  0  0  0
  -40.3900  -68.9290   53.8750 C   0  0  0  0  0  0  0  0  0  0  0  0
  -38.9930  -70.2200   54.0010 Br  0  0  0  0  0  0  0  0  0  0  0  0
  -41.4440  -69.0200   54.7570 C   0  0  0  0  0  3  0  0  0  0  0  0
  -42.4590  -68.0950   54.6780 C   0  0  0  0  0  3  0  0  0  0  0  0
  -42.4040  -67.0860   53.7090 C   0  0  0  0  0  3  0  0  0  0  0  0
  -38.0790  -62.6420   48.1640 C   0  0  0  0  0  2  0  0  0  0  0  0
  -36.6090  -62.7800   48.4520 C   0  0  0  0  0  0  0  0  0  0  0  0
  -35.9350  -63.8810   48.8620 N   0  0  0  0  0  0  0  0  0  0  0  0
  -34.6380  -63.5850   49.0010 C   0  0  0  0  0  0  0  0  0  0  0  0
  -36.1970  -65.2710   49.1950 C   0  0  0  0  0  2  0  0  0  0  0  0
  -34.5180  -62.2760   48.6710 N   0  0  0  0  0  0  0  0  0  0  0  0
  -33.8530  -64.7880   49.4570 C   0  0  0  0  0  2  0  0  0  0  0  0
  -35.7000  -61.7940   48.3410 N   0  0  0  0  0  0  0  0  0  0  0  0
  -34.9650  -65.6720   49.9830 C   0  0  0  0  0  2  0  0  0  0  0  0
  1  3  1  0  0  0  0
  1  5  1  0  0  0  0
  2  1  2  0  0  0  0
  3  4  1  0  0  0  0
  5  6  1  0  0  0  0
  5  9  2  0  0  0  0
  6  7  2  0  0  0  0
  7  8  1  0  0  0  0
  8 10  1  0  0  0  0
  9  8  1  0  0  0  0
 10 11  2  0  0  0  0
 10 16  1  0  0  0  0
 11 12  1  0  0  0  0
 12 13  1  0  0  0  0
 12 14  2  0  0  0  0
 15 14  1  0  0  0  0
 16 15  2  0  0  0  0
 17 18  1  0  0  0  0
 17  3  1  0  0  0  0
 18 19  1  0  0  0  0
 19 20  1  0  0  0  0
 19 21  1  0  0  0  0
 20 23  1  0  0  0  0
 21 25  1  0  0  0  0
 22 20  2  0  0  0  0
 23 25  1  0  0  0  0
 24 18  2  0  0  0  0
 24 22  1  0  0  0  0
M  END
>  <Pose>
1

>  <Score>
-7.982

$$$$
