MODEL 1
REMARK VINA RESULT:    -7.982      0.000      0.000
REMARK INTER + INTRA:         -10.373
REMARK INTER:                  -9.849
REMARK INTRA:                  -0.524
REMARK UNBOUND:                -0.524
REMARK  4 active torsions:
REMARK  status: ('A' for Active; 'I' for Inactive)
REMARK    1  A    between atoms: C_4  and  N_8 
REMARK    2  A    between atoms: C_11  and  C_13 
REMARK       I    between atoms: C_13  and  N_15 
REMARK    3  A    between atoms: N_15  and  C_16 
REMARK    4  A    between atoms: C_16  and  C_17 
ROOT
ATOM      1  C   UNK d   1     -39.915 -64.128  49.059  0.00  0.00     0.273 C 
ATOM      2  O   UNK d   1     -40.189 -64.518  47.897  0.00  0.00    -0.266 OA
ATOM      3  N   UNK d   1     -38.874 -63.195  49.237  0.00  0.00    -0.348 N 
ATOM      4  H   UNK d   1     -38.661 -62.882  50.211  0.00  0.00     0.163 HD
ENDROOT
BRANCH   1   5
ATOM      5  C   UNK d   1     -40.695 -64.664  50.168  0.00  0.00     0.165 A 
ATOM      6  N   UNK d   1     -41.867 -64.197  50.664  0.00  0.00    -0.125 NA
ATOM      7  N   UNK d   1     -42.231 -64.977  51.669  0.00  0.00    -0.060 NA
ATOM      8  N   UNK d   1     -41.357 -65.931  51.853  0.00  0.00    -0.224 N 
ATOM      9  C   UNK d   1     -40.390 -65.764  50.936  0.00  0.00     0.159 A 
BRANCH   8  10
ATOM     10  C   UNK d   1     -41.355 -66.988  52.822  0.00  0.00     0.060 A 
ATOM     11  C   UNK d   1     -40.347 -67.917  52.911  0.00  0.00     0.050 A 
ATOM     12  C   UNK d   1     -40.390 -68.929  53.875  0.00  0.00     0.013 A 
ATOM     13 Br   UNK d   1     -38.993 -70.220  54.001  0.00  0.00    -0.051 Br
ATOM     14  C   UNK d   1     -41.444 -69.020  54.757  0.00  0.00     0.019 A 
ATOM     15  C   UNK d   1     -42.459 -68.095  54.678  0.00  0.00     0.004 A 
ATOM     16  C   UNK d   1     -42.404 -67.086  53.709  0.00  0.00     0.032 A 
ENDBRANCH   8  10
ENDBRANCH   1   5
BRANCH   3  17
ATOM     17  C   UNK d   1     -38.079 -62.642  48.164  0.00  0.00     0.203 C 
BRANCH  17  18
ATOM     18  C   UNK d   1     -36.609 -62.780  48.452  0.00  0.00     0.148 A 
ATOM     19  N   UNK d   1     -35.935 -63.881  48.862  0.00  0.00    -0.319 N 
ATOM     20  C   UNK d   1     -34.638 -63.585  49.001  0.00  0.00     0.130 A 
ATOM     21  C   UNK d   1     -36.197 -65.271  49.195  0.00  0.00     0.132 C 
ATOM     22  N   UNK d   1     -34.518 -62.276  48.671  0.00  0.00    -0.135 NA
ATOM     23  C   UNK d   1     -33.853 -64.788  49.457  0.00  0.00     0.082 C 
ATOM     24  N   UNK d   1     -35.700 -61.794  48.341  0.00  0.00    -0.133 NA
ATOM     25  C   UNK d   1     -34.965 -65.672  49.983  0.00  0.00     0.028 C 
ENDBRANCH  17  18
ENDBRANCH   3  17
TORSDOF 4
ENDMDL
