/Users/jonathanwahrer/Desktop/Msc/3_Semester/Drug_Design_Praktikum/waehrer_HTS_screening/HTS_experiment/out/docking_results/vina_output/3e7o/0205_docked.pdbqt
 OpenBabel03192215263D

 25 28  0  0  1  0  0  0  0  0999 V2000
  -40.6320  -67.1500   52.0130 N   0  0  0  0  0  0  0  0  0  0  0  0
  -39.9830  -68.1330   52.8440 C   0  0  0  0  0  0  0  0  0  0  0  0
  -40.0960  -68.1710   54.1020 O   0  0  0  0  0  0  0  0  0  0  0  0
  -39.2070  -69.0390   51.9990 C   0  0  2  0  0  3  0  0  0  0  0  0
  -38.0180  -69.5090   52.4820 O   0  0  0  0  0  0  0  0  0  0  0  0
  -37.2450  -69.5940   51.3260 N   0  0  0  0  0  0  0  0  0  0  0  0
  -37.5370  -68.4760   50.5220 C   0  0  0  0  0  0  0  0  0  0  0  0
  -38.7580  -68.0890   50.9140 C   0  0  0  0  0  0  0  0  0  0  0  0
  -39.8540  -67.1320   50.8040 C   0  0  0  0  0  0  0  0  0  0  0  0
  -40.0790  -66.4080   49.8120 O   0  0  0  0  0  0  0  0  0  0  0  0
  -36.5780  -70.3420   51.1010 H   0  0  0  0  0  0  0  0  0  0  0  0
  -41.7680  -66.3550   52.2860 C   0  0  0  0  0  0  0  0  0  0  0  0
  -42.9970  -66.9160   52.6260 C   0  0  0  0  0  3  0  0  0  0  0  0
  -44.1230  -66.1820   52.9000 C   0  0  0  0  0  0  0  0  0  0  0  0
  -45.7910  -66.9860   53.3580 Br  0  0  0  0  0  0  0  0  0  0  0  0
  -44.0820  -64.8030   52.8470 C   0  0  0  0  0  3  0  0  0  0  0  0
  -42.8620  -64.2250   52.5110 C   0  0  0  0  0  3  0  0  0  0  0  0
  -41.7400  -64.9700   52.2370 C   0  0  0  0  0  3  0  0  0  0  0  0
  -36.7480  -67.8780   49.4560 C   0  0  0  0  0  0  0  0  0  0  0  0
  -35.4170  -67.4700   49.5860 C   0  0  0  0  0  0  0  0  0  0  0  0
  -35.0110  -66.9990   48.4230 N   0  0  0  0  0  0  0  0  0  0  0  0
  -34.6030  -67.5250   50.8230 C   0  0  0  0  0  1  0  0  0  0  0  0
  -36.0190  -67.0870   47.5580 N   0  0  0  0  0  0  0  0  0  0  0  0
  -33.6890  -66.4610   48.1090 C   0  0  0  0  0  1  0  0  0  0  0  0
  -37.0760  -67.6110   48.1560 C   0  0  0  0  0  3  0  0  0  0  0  0
  1 12  1  0  0  0  0
  1  2  1  0  0  0  0
  2  3  2  0  0  0  0
  4  8  1  6  0  0  0
  4  5  1  0  0  0  0
  4  2  1  0  0  0  0
  6  5  1  0  0  0  0
  7  8  2  0  0  0  0
  7  6  1  0  0  0  0
  9  8  1  0  0  0  0
  9  1  1  0  0  0  0
 10  9  2  0  0  0  0
 11  6  1  0  0  0  0
 12 13  1  0  0  0  0
 13 14  2  0  0  0  0
 14 15  1  0  0  0  0
 16 14  1  0  0  0  0
 17 16  2  0  0  0  0
 18 12  2  0  0  0  0
 18 17  1  0  0  0  0
 19 20  2  0  0  0  0
 19  7  1  0  0  0  0
 20 22  1  0  0  0  0
 21 20  1  0  0  0  0
 23 25  2  0  0  0  0
 23 21  1  0  0  0  0
 24 21  1  0  0  0  0
 25 19  1  0  0  0  0
M  END
>  <Pose>
1

>  <Score>
-8.052

$$$$
