MODEL 1
REMARK VINA RESULT:    -8.052      0.000      0.000
REMARK INTER + INTRA:          -9.526
REMARK INTER:                  -8.993
REMARK INTRA:                  -0.532
REMARK UNBOUND:                -0.532
REMARK  2 active torsions:
REMARK  status: ('A' for Active; 'I' for Inactive)
REMARK    1  A    between atoms: C_4  and  N_8 
REMARK    2  A    between atoms: C_14  and  C_18 
ROOT
ATOM      1  N   UNK d   1     -40.632 -67.150  52.013  0.00  0.00    -0.246 N 
ATOM      2  C   UNK d   1     -39.983 -68.133  52.844  0.00  0.00     0.268 C 
ATOM      3  O   UNK d   1     -40.096 -68.171  54.102  0.00  0.00    -0.269 OA
ATOM      4  C   UNK d   1     -39.207 -69.039  51.999  0.00  0.00     0.285 C 
ATOM      5  O   UNK d   1     -38.018 -69.509  52.482  0.00  0.00    -0.260 OA
ATOM      6  N   UNK d   1     -37.245 -69.594  51.326  0.00  0.00    -0.264 N 
ATOM      7  C   UNK d   1     -37.537 -68.476  50.522  0.00  0.00     0.083 C 
ATOM      8  C   UNK d   1     -38.758 -68.089  50.914  0.00  0.00     0.080 C 
ATOM      9  C   UNK d   1     -39.854 -67.132  50.804  0.00  0.00     0.266 C 
ATOM     10  O   UNK d   1     -40.079 -66.408  49.812  0.00  0.00    -0.267 OA
ATOM     11  H   UNK d   1     -36.578 -70.342  51.101  0.00  0.00     0.194 HD
ENDROOT
BRANCH   1  12
ATOM     12  C   UNK d   1     -41.768 -66.355  52.286  0.00  0.00     0.047 A 
ATOM     13  C   UNK d   1     -42.997 -66.916  52.626  0.00  0.00     0.049 A 
ATOM     14  C   UNK d   1     -44.123 -66.182  52.900  0.00  0.00     0.013 A 
ATOM     15 Br   UNK d   1     -45.791 -66.986  53.358  0.00  0.00    -0.051 Br
ATOM     16  C   UNK d   1     -44.082 -64.803  52.847  0.00  0.00     0.019 A 
ATOM     17  C   UNK d   1     -42.862 -64.225  52.511  0.00  0.00     0.004 A 
ATOM     18  C   UNK d   1     -41.740 -64.970  52.237  0.00  0.00     0.030 A 
ENDBRANCH   1  12
BRANCH   7  19
ATOM     19  C   UNK d   1     -36.748 -67.878  49.456  0.00  0.00     0.036 A 
ATOM     20  C   UNK d   1     -35.417 -67.470  49.586  0.00  0.00     0.040 A 
ATOM     21  N   UNK d   1     -35.011 -66.999  48.423  0.00  0.00    -0.278 N 
ATOM     22  C   UNK d   1     -34.603 -67.525  50.823  0.00  0.00     0.071 C 
ATOM     23  N   UNK d   1     -36.019 -67.087  47.558  0.00  0.00    -0.184 NA
ATOM     24  C   UNK d   1     -33.689 -66.461  48.109  0.00  0.00     0.179 C 
ATOM     25  C   UNK d   1     -37.076 -67.611  48.156  0.00  0.00     0.154 A 
ENDBRANCH   7  19
TORSDOF 2
ENDMDL
