MODEL 1
REMARK VINA RESULT:    -8.855      0.000      0.000
REMARK INTER + INTRA:         -10.190
REMARK INTER:                  -9.890
REMARK INTRA:                  -0.300
REMARK UNBOUND:                -0.300
REMARK  2 active torsions:
REMARK  status: ('A' for Active; 'I' for Inactive)
REMARK    1  A    between atoms: C_4  and  N_8 
REMARK    2  A    between atoms: C_14  and  C_18 
ROOT
ATOM      1  N   UNK d   1     -41.775 -66.988  53.117  0.00  0.00    -0.246 N 
ATOM      2  C   UNK d   1     -41.615 -65.730  52.425  0.00  0.00     0.268 C 
ATOM      3  O   UNK d   1     -40.776 -65.431  51.569  0.00  0.00    -0.269 OA
ATOM      4  C   UNK d   1     -42.672 -64.805  52.929  0.00  0.00     0.285 C 
ATOM      5  O   UNK d   1     -43.183 -63.949  51.970  0.00  0.00    -0.260 OA
ATOM      6  N   UNK d   1     -44.475 -63.780  52.411  0.00  0.00    -0.264 N 
ATOM      7  C   UNK d   1     -44.907 -65.107  52.762  0.00  0.00     0.083 C 
ATOM      8  C   UNK d   1     -43.826 -65.774  53.088  0.00  0.00     0.080 C 
ATOM      9  C   UNK d   1     -43.161 -67.006  53.528  0.00  0.00     0.266 C 
ATOM     10  O   UNK d   1     -43.749 -67.893  54.154  0.00  0.00    -0.267 OA
ATOM     11  H   UNK d   1     -45.029 -62.921  52.484  0.00  0.00     0.194 HD
ENDROOT
BRANCH   1  12
ATOM     12  C   UNK d   1     -40.767 -67.957  53.323  0.00  0.00     0.047 A 
ATOM     13  C   UNK d   1     -39.908 -68.290  52.300  0.00  0.00     0.049 A 
ATOM     14  C   UNK d   1     -38.905 -69.250  52.476  0.00  0.00     0.013 A 
ATOM     15 Br   UNK d   1     -37.733 -69.691  51.044  0.00  0.00    -0.051 Br
ATOM     16  C   UNK d   1     -38.741 -69.896  53.679  0.00  0.00     0.019 A 
ATOM     17  C   UNK d   1     -39.600 -69.564  54.704  0.00  0.00     0.004 A 
ATOM     18  C   UNK d   1     -40.604 -68.601  54.524  0.00  0.00     0.030 A 
ENDBRANCH   1  12
BRANCH   7  19
ATOM     19  C   UNK d   1     -46.241 -65.645  52.762  0.00  0.00     0.036 A 
ATOM     20  C   UNK d   1     -46.797 -66.266  53.878  0.00  0.00     0.127 A 
ATOM     21  N   UNK d   1     -48.054 -66.656  53.596  0.00  0.00    -0.284 N 
ATOM     22  N   UNK d   1     -48.271 -66.288  52.345  0.00  0.00    -0.177 NA
ATOM     23  C   UNK d   1     -48.982 -67.350  54.503  0.00  0.00     0.179 C 
ATOM     24  C   UNK d   1     -47.221 -65.679  51.797  0.00  0.00     0.065 A 
ATOM     25  C   UNK d   1     -47.093 -65.117  50.410  0.00  0.00     0.073 C 
ENDBRANCH   7  19
TORSDOF 2
ENDMDL
