MODEL 1
REMARK VINA RESULT:    -8.140      0.000      0.000
REMARK INTER + INTRA:         -11.579
REMARK INTER:                 -10.520
REMARK INTRA:                  -1.059
REMARK UNBOUND:                -1.059
REMARK  5 active torsions:
REMARK  status: ('A' for Active; 'I' for Inactive)
REMARK    1  A    between atoms: C_4  and  N_8 
REMARK    2  A    between atoms: C_10  and  C_14 
REMARK       I    between atoms: C_14  and  N_16 
REMARK    3  A    between atoms: N_19  and  C_22 
REMARK    4  A    between atoms: C_22  and  C_23 
REMARK    5  A    between atoms: C_23  and  N_24 
ROOT
ATOM      1  C   UNK d   1     -40.258 -64.148  49.341  0.00  0.00     0.226 C 
ATOM      2  O   UNK d   1     -40.202 -62.904  49.505  0.00  0.00    -0.273 OA
ATOM      3  N   UNK d   1     -39.485 -64.805  48.360  0.00  0.00    -0.348 N 
ATOM      4  C   UNK d   1     -39.522 -66.244  48.144  0.00  0.00     0.156 C 
ATOM      5  C   UNK d   1     -38.179 -66.691  47.580  0.00  0.00     0.292 C 
ATOM      6  N   UNK d   1     -37.087 -65.824  47.978  0.00  0.00     0.093 N 
ATOM      7  C   UNK d   1     -37.242 -64.559  47.351  0.00  0.00     0.292 C 
ATOM      8  C   UNK d   1     -38.604 -63.978  47.526  0.00  0.00     0.156 C 
ENDROOT
BRANCH   1   9
ATOM      9  C   UNK d   1     -41.144 -64.914  50.195  0.00  0.00     0.105 C 
ATOM     10  C   UNK d   1     -40.610 -65.035  51.638  0.00  0.00     0.146 C 
ATOM     11  N   UNK d   1     -41.741 -65.773  52.180  0.00  0.00    -0.317 N 
ATOM     12  C   UNK d   1     -42.864 -65.047  51.691  0.00  0.00     0.225 C 
ATOM     13  C   UNK d   1     -42.454 -64.196  50.540  0.00  0.00     0.119 C 
ATOM     14  O   UNK d   1     -44.023 -65.115  52.160  0.00  0.00    -0.273 OA
BRANCH  11  15
ATOM     15  C   UNK d   1     -41.637 -66.930  52.985  0.00  0.00     0.038 A 
ATOM     16  C   UNK d   1     -40.557 -67.780  52.832  0.00  0.00     0.048 A 
ATOM     17  C   UNK d   1     -40.402 -68.936  53.587  0.00  0.00     0.013 A 
ATOM     18 Br   UNK d   1     -38.889 -70.030  53.300  0.00  0.00    -0.051 Br
ATOM     19  C   UNK d   1     -41.376 -69.249  54.535  0.00  0.00     0.019 A 
ATOM     20  C   UNK d   1     -42.470 -68.431  54.721  0.00  0.00     0.004 A 
ATOM     21  C   UNK d   1     -42.560 -67.299  53.938  0.00  0.00     0.030 A 
ENDBRANCH  11  15
ENDBRANCH   1   9
BRANCH   6  22
ATOM     22  C   UNK d   1     -36.869 -65.833  49.381  0.00  0.00     0.292 C 
BRANCH  22  23
ATOM     23  C   UNK d   1     -35.441 -66.105  49.780  0.00  0.00     0.159 C 
BRANCH  23  24
ATOM     24  N   UNK d   1     -35.246 -67.367  50.434  0.00  0.00    -0.348 N 
ATOM     25  C   UNK d   1     -34.129 -67.861  50.971  0.00  0.00     0.209 A 
ATOM     26  N   UNK d   1     -34.377 -69.087  51.479  0.00  0.00    -0.255 NA
ATOM     27  C   UNK d   1     -35.666 -69.376  51.263  0.00  0.00     0.135 A 
ATOM     28  C   UNK d   1     -36.200 -68.292  50.607  0.00  0.00     0.111 A 
ENDBRANCH  23  24
ENDBRANCH  22  23
ENDBRANCH   6  22
TORSDOF 5
ENDMDL
