/Users/jonathanwahrer/Desktop/Msc/3_Semester/Drug_Design_Praktikum/waehrer_HTS_screening/HTS_experiment/out/docking_results/vina_output/3e7o/0219_docked.pdbqt
 OpenBabel03192215273D

 27 30  0  0  1  0  0  0  0  0999 V2000
  -41.5250  -64.8790   49.2430 N   0  0  0  0  0  0  0  0  0  0  0  0
  -41.6800  -64.8190   50.6550 C   0  0  0  0  0  0  0  0  0  0  0  0
  -41.0270  -63.8810   51.2310 O   0  0  0  0  0  0  0  0  0  0  0  0
  -42.0390  -65.6210   48.7210 H   0  0  0  0  0  0  0  0  0  0  0  0
  -42.5140  -65.7380   51.4570 C   0  0  0  0  0  2  0  0  0  0  0  0
  -41.7750  -66.6910   52.2400 N   0  0  0  0  0  0  0  0  0  0  0  0
  -40.8490  -67.6130   51.6430 C   0  0  0  0  0  0  0  0  0  0  0  0
  -40.7600  -67.9410   50.4330 O   0  0  0  0  0  0  0  0  0  0  0  0
  -39.9920  -68.1330   52.7080 C   0  0  1  0  0  3  0  0  0  0  0  0
  -40.4480  -67.4600   54.0180 C   0  0  2  0  0  3  0  0  0  0  0  0
  -40.2170  -69.5790   53.0560 C   0  0  1  0  0  3  0  0  0  0  0  0
  -40.6340  -68.5580   55.0060 C   0  0  2  0  0  3  0  0  0  0  0  0
  -41.7790  -66.9070   53.6580 C   0  0  0  0  0  0  0  0  0  0  0  0
  -39.6200  -69.5950   54.4770 C   0  0  0  0  0  2  0  0  0  0  0  0
  -41.8800  -69.2780   54.6420 C   0  0  0  0  0  2  0  0  0  0  0  0
  -41.6640  -69.7530   53.4200 C   0  0  0  0  0  2  0  0  0  0  0  0
  -42.7360  -66.6660   54.4140 O   0  0  0  0  0  0  0  0  0  0  0  0
  -40.6970  -63.9660   48.5150 C   0  0  0  0  0  2  0  0  0  0  0  0
  -39.7170  -64.7330   47.6130 C   0  0  0  0  0  2  0  0  0  0  0  0
  -38.7520  -65.2630   48.2900 O   0  0  0  0  0  0  0  0  0  0  0  0
  -37.7430  -65.7910   48.8800 C   0  0  0  0  0  0  0  0  0  0  0  0
  -37.8520  -67.0680   49.4590 C   0  0  0  0  0  3  0  0  0  0  0  0
  -36.8180  -67.6890   50.1040 C   0  0  0  0  0  0  0  0  0  0  0  0
  -37.0040  -69.4240   50.8780 Br  0  0  0  0  0  0  0  0  0  0  0  0
  -35.6040  -67.0660   50.2090 C   0  0  0  0  0  3  0  0  0  0  0  0
  -35.4350  -65.8100   49.6610 C   0  0  0  0  0  3  0  0  0  0  0  0
  -36.4760  -65.1900   49.0140 C   0  0  0  0  0  3  0  0  0  0  0  0
  1  2  1  0  0  0  0
  2  3  2  0  0  0  0
  2  5  1  0  0  0  0
  4  1  1  0  0  0  0
  5  6  1  0  0  0  0
  6 13  1  0  0  0  0
  7  6  1  0  0  0  0
  8  7  2  0  0  0  0
  9  7  1  6  0  0  0
  9 11  1  0  0  0  0
  9 10  1  0  0  0  0
 10 13  1  6  0  0  0
 10 12  1  0  0  0  0
 11 16  1  1  0  0  0
 11 14  1  0  0  0  0
 12 14  1  6  0  0  0
 13 17  2  0  0  0  0
 15 12  1  0  0  0  0
 16 15  1  0  0  0  0
 18  1  1  0  0  0  0
 19 20  1  0  0  0  0
 19 18  1  0  0  0  0
 20 21  1  0  0  0  0
 21 27  2  0  0  0  0
 21 22  1  0  0  0  0
 22 23  2  0  0  0  0
 23 25  1  0  0  0  0
 23 24  1  0  0  0  0
 26 25  2  0  0  0  0
 27 26  1  0  0  0  0
M  END
>  <Pose>
1

>  <Score>
-7.627

$$$$
