MODEL 1
REMARK VINA RESULT:    -7.455      0.000      0.000
REMARK INTER + INTRA:         -10.473
REMARK INTER:                  -9.198
REMARK INTRA:                  -1.275
REMARK UNBOUND:                -1.275
REMARK  4 active torsions:
REMARK  status: ('A' for Active; 'I' for Inactive)
REMARK    1  A    between atoms: C_5  and  C_8 
REMARK    2  A    between atoms: C_8  and  C_10 
REMARK    3  A    between atoms: C_10  and  N_11 
REMARK    4  A    between atoms: C_15  and  N_16 
ROOT
ATOM      1  N   UNK d   1     -39.145 -68.068  51.054  0.00  0.00    -0.165 N 
ATOM      2  C   UNK d   1     -39.800 -68.489  52.148  0.00  0.00     0.167 A 
ATOM      3  C   UNK d   1     -40.696 -67.519  52.557  0.00  0.00     0.185 A 
ATOM      4  N   UNK d   1     -40.551 -66.521  51.677  0.00  0.00    -0.044 NA
ATOM      5  C   UNK d   1     -39.619 -66.826  50.756  0.00  0.00     0.708 A 
ATOM      6  N   UNK d   1     -41.468 -67.726  53.639  0.00  0.00    -0.286 N 
ATOM      7  C   UNK d   1     -41.381 -68.873  54.336  0.00  0.00     0.330 A 
ATOM      8  O   UNK d   1     -42.082 -69.106  55.351  0.00  0.00    -0.246 OA
ATOM      9  N   UNK d   1     -40.503 -69.837  53.943  0.00  0.00    -0.273 N 
ATOM     10  C   UNK d   1     -39.710 -69.677  52.869  0.00  0.00     0.280 A 
ATOM     11  O   UNK d   1     -38.900 -70.602  52.535  0.00  0.00    -0.265 OA
ATOM     12  C   UNK d   1     -42.415 -66.729  54.094  0.00  0.00     0.163 C 
ATOM     13  H   UNK d   1     -40.467 -70.714  54.513  0.00  0.00     0.173 HD
ENDROOT
BRANCH   1  14
ATOM     14  C   UNK d   1     -38.139 -68.778  50.315  0.00  0.00     0.232 C 
BRANCH  14  15
ATOM     15  C   UNK d   1     -36.751 -68.516  50.809  0.00  0.00     0.178 C 
ATOM     16  O   UNK d   1     -36.364 -68.986  51.891  0.00  0.00    -0.290 OA
BRANCH  15  17
ATOM     17  C   UNK d   1     -35.822 -67.702  50.029  0.00  0.00     0.011 A 
ATOM     18  C   UNK d   1     -35.832 -67.712  48.656  0.00  0.00     0.016 A 
ATOM     19  C   UNK d   1     -34.948 -66.942  47.919  0.00  0.00     0.020 A 
ATOM     20  C   UNK d   1     -34.009 -66.126  48.534  0.00  0.00     0.011 A 
ATOM     21 Br   UNK d   1     -32.813 -65.083  47.486  0.00  0.00    -0.051 Br
ATOM     22  C   UNK d   1     -33.996 -66.115  49.911  0.00  0.00     0.020 A 
ATOM     23  C   UNK d   1     -34.881 -66.885  50.630  0.00  0.00     0.016 A 
ENDBRANCH  15  17
ENDBRANCH  14  15
ENDBRANCH   1  14
BRANCH   5  24
ATOM     24  N   UNK d   1     -39.171 -66.055  49.656  0.00  0.00    -0.212 N 
ATOM     25  C   UNK d   1     -38.277 -64.967  49.891  0.00  0.00     0.171 C 
ATOM     26  C   UNK d   1     -37.559 -64.415  48.716  0.00  0.00     0.292 C 
ATOM     27  N   UNK d   1     -38.196 -64.610  47.447  0.00  0.00     0.087 N 
ATOM     28  C   UNK d   1     -38.520 -66.017  47.320  0.00  0.00     0.292 C 
ATOM     29  C   UNK d   1     -39.329 -63.755  47.233  0.00  0.00     0.310 C 
ATOM     30  C   UNK d   1     -39.610 -66.372  48.332  0.00  0.00     0.171 C 
ENDBRANCH   5  24
TORSDOF 4
ENDMDL
