MODEL 1
REMARK VINA RESULT:    -7.616      0.000      0.000
REMARK INTER + INTRA:         -11.112
REMARK INTER:                 -10.733
REMARK INTRA:                  -0.379
REMARK UNBOUND:                -0.379
REMARK  7 active torsions:
REMARK  status: ('A' for Active; 'I' for Inactive)
REMARK    1  A    between atoms: C_5  and  C_8 
REMARK    2  A    between atoms: C_8  and  C_10 
REMARK    3  A    between atoms: C_11  and  C_25 
REMARK    4  A    between atoms: N_12  and  C_17 
REMARK    5  A    between atoms: C_17  and  C_18 
REMARK    6  A    between atoms: C_18  and  N_19 
REMARK    7  A    between atoms: C_27  and  O_32 
ROOT
ATOM      1  C   UNK d   1     -36.884 -67.147  49.475  0.00  0.00     0.167 C 
ATOM      2  C   UNK d   1     -36.266 -65.774  49.580  0.00  0.00     0.140 C 
ATOM      3  N   UNK d   1     -34.870 -66.049  49.324  0.00  0.00    -0.334 N 
ATOM      4  C   UNK d   1     -34.839 -67.115  48.380  0.00  0.00     0.291 C 
ATOM      5  O   UNK d   1     -33.804 -67.554  47.791  0.00  0.00    -0.264 OA
ATOM      6  C   UNK d   1     -36.216 -67.616  48.206  0.00  0.00     0.230 C 
ATOM      7  O   UNK d   1     -36.670 -68.258  47.245  0.00  0.00    -0.286 OA
ENDROOT
BRANCH   1   8
ATOM      8  C   UNK d   1     -38.332 -67.167  49.373  0.00  0.00     0.173 C 
ATOM      9  O   UNK d   1     -38.907 -66.952  48.286  0.00  0.00    -0.291 OA
BRANCH   8  10
ATOM     10  C   UNK d   1     -39.139 -67.440  50.548  0.00  0.00     0.011 A 
ATOM     11  C   UNK d   1     -38.890 -68.566  51.341  0.00  0.00     0.016 A 
ATOM     12  C   UNK d   1     -39.642 -68.849  52.451  0.00  0.00     0.020 A 
ATOM     13  C   UNK d   1     -40.671 -68.008  52.803  0.00  0.00     0.011 A 
ATOM     14 Br   UNK d   1     -41.702 -68.416  54.344  0.00  0.00    -0.051 Br
ATOM     15  C   UNK d   1     -40.966 -66.891  52.068  0.00  0.00     0.020 A 
ATOM     16  C   UNK d   1     -40.186 -66.638  50.955  0.00  0.00     0.016 A 
ENDBRANCH   8  10
ENDBRANCH   1   8
BRANCH   2  17
ATOM     17  C   UNK d   1     -36.854 -64.779  48.697  0.00  0.00    -0.031 A 
ATOM     18  C   UNK d   1     -37.952 -63.997  49.084  0.00  0.00     0.049 A 
ATOM     19  C   UNK d   1     -38.501 -63.052  48.243  0.00  0.00     0.105 A 
ATOM     20  C   UNK d   1     -37.986 -62.837  46.978  0.00  0.00     0.140 A 
ATOM     21  C   UNK d   1     -36.906 -63.594  46.577  0.00  0.00     0.043 A 
ATOM     22  O   UNK d   1     -38.520 -61.893  46.111  0.00  0.00    -0.189 OA
ATOM     23  C   UNK d   1     -36.365 -64.541  47.434  0.00  0.00     0.012 A 
BRANCH  19  24
ATOM     24  O   UNK d   1     -39.585 -62.278  48.618  0.00  0.00    -0.353 OA
ATOM     25  C   UNK d   1     -40.920 -62.634  48.366  0.00  0.00     0.210 C 
ENDBRANCH  19  24
ENDBRANCH   2  17
BRANCH   3  26
ATOM     26  C   UNK d   1     -33.690 -65.425  49.867  0.00  0.00     0.154 C 
BRANCH  26  27
ATOM     27  C   UNK d   1     -33.430 -64.055  49.319  0.00  0.00     0.255 C 
BRANCH  27  28
ATOM     28  N   UNK d   1     -32.106 -63.809  48.894  0.00  0.00    -0.066 N 
ATOM     29  C   UNK d   1     -32.121 -62.634  48.017  0.00  0.00     0.261 C 
ATOM     30  C   UNK d   1     -32.766 -62.911  46.699  0.00  0.00     0.195 C 
ATOM     31  O   UNK d   1     -32.945 -64.242  46.414  0.00  0.00    -0.388 OA
ATOM     32  C   UNK d   1     -31.833 -64.977  46.745  0.00  0.00     0.195 C 
ATOM     33  C   UNK d   1     -31.452 -64.858  48.196  0.00  0.00     0.261 C 
ATOM     34  H   UNK d   1     -31.492 -63.525  49.707  0.00  0.00     0.280 HD
ENDBRANCH  27  28
ENDBRANCH  26  27
ENDBRANCH   3  26
TORSDOF 7
ENDMDL
