/Users/jonathanwahrer/Desktop/Msc/3_Semester/Drug_Design_Praktikum/waehrer_HTS_screening/HTS_experiment/out/docking_results/vina_output/3e7o/0231_docked.pdbqt
 OpenBabel03192215283D

 34 37  0  0  1  0  0  0  0  0999 V2000
  -36.8840  -67.1470   49.4750 C   0  0  2  0  0  3  0  0  0  0  0  0
  -36.2660  -65.7740   49.5800 C   0  0  1  0  0  3  0  0  0  0  0  0
  -34.8700  -66.0490   49.3240 N   0  0  0  0  0  0  0  0  0  0  0  0
  -34.8390  -67.1150   48.3800 C   0  0  0  0  0  0  0  0  0  0  0  0
  -33.8040  -67.5540   47.7910 O   0  0  0  0  0  0  0  0  0  0  0  0
  -36.2160  -67.6160   48.2060 C   0  0  0  0  0  0  0  0  0  0  0  0
  -36.6700  -68.2580   47.2450 O   0  0  0  0  0  0  0  0  0  0  0  0
  -38.3320  -67.1670   49.3730 C   0  0  0  0  0  0  0  0  0  0  0  0
  -38.9070  -66.9520   48.2860 O   0  0  0  0  0  0  0  0  0  0  0  0
  -39.1390  -67.4400   50.5480 C   0  0  0  0  0  0  0  0  0  0  0  0
  -38.8900  -68.5660   51.3410 C   0  0  0  0  0  3  0  0  0  0  0  0
  -39.6420  -68.8490   52.4510 C   0  0  0  0  0  3  0  0  0  0  0  0
  -40.6710  -68.0080   52.8030 C   0  0  0  0  0  0  0  0  0  0  0  0
  -41.7020  -68.4160   54.3440 Br  0  0  0  0  0  0  0  0  0  0  0  0
  -40.9660  -66.8910   52.0680 C   0  0  0  0  0  3  0  0  0  0  0  0
  -40.1860  -66.6380   50.9550 C   0  0  0  0  0  3  0  0  0  0  0  0
  -36.8540  -64.7790   48.6970 C   0  0  0  0  0  0  0  0  0  0  0  0
  -37.9520  -63.9970   49.0840 C   0  0  0  0  0  3  0  0  0  0  0  0
  -38.5010  -63.0520   48.2430 C   0  0  0  0  0  0  0  0  0  0  0  0
  -37.9860  -62.8370   46.9780 C   0  0  0  0  0  0  0  0  0  0  0  0
  -36.9060  -63.5940   46.5770 C   0  0  0  0  0  3  0  0  0  0  0  0
  -38.5200  -61.8930   46.1110 O   0  0  0  0  0  1  0  0  0  0  0  0
  -36.3650  -64.5410   47.4340 C   0  0  0  0  0  3  0  0  0  0  0  0
  -39.5850  -62.2780   48.6180 O   0  0  0  0  0  0  0  0  0  0  0  0
  -40.9200  -62.6340   48.3660 C   0  0  0  0  0  1  0  0  0  0  0  0
  -33.6900  -65.4250   49.8670 C   0  0  0  0  0  2  0  0  0  0  0  0
  -33.4300  -64.0550   49.3190 C   0  0  0  0  0  2  0  0  0  0  0  0
  -32.1060  -63.8090   48.8940 N   0  0  0  0  0  4  0  0  0  0  0  0
  -32.1210  -62.6340   48.0170 C   0  0  0  0  0  2  0  0  0  0  0  0
  -32.7660  -62.9110   46.6990 C   0  0  0  0  0  2  0  0  0  0  0  0
  -32.9450  -64.2420   46.4140 O   0  0  0  0  0  0  0  0  0  0  0  0
  -31.8330  -64.9770   46.7450 C   0  0  0  0  0  2  0  0  0  0  0  0
  -31.4520  -64.8580   48.1960 C   0  0  0  0  0  2  0  0  0  0  0  0
  -31.4920  -63.5250   49.7070 H   0  0  0  0  0  0  0  0  0  0  0  0
  1  8  1  6  0  0  0
  1  2  1  0  0  0  0
  2 17  1  6  0  0  0
  3  2  1  0  0  0  0
  3 26  1  0  0  0  0
  4  3  1  0  0  0  0
  5  4  2  0  0  0  0
  6  4  1  0  0  0  0
  6  1  1  0  0  0  0
  7  6  2  0  0  0  0
  8 10  1  0  0  0  0
  9  8  2  0  0  0  0
 10 16  2  0  0  0  0
 10 11  1  0  0  0  0
 11 12  2  0  0  0  0
 12 13  1  0  0  0  0
 13 14  1  0  0  0  0
 15 13  2  0  0  0  0
 16 15  1  0  0  0  0
 17 18  1  0  0  0  0
 19 24  1  0  0  0  0
 19 18  2  0  0  0  0
 20 19  1  0  0  0  0
 21 20  2  0  0  0  0
 21 23  1  0  0  0  0
 22 20  1  0  0  0  0
 23 17  2  0  0  0  0
 25 24  1  0  0  0  0
 27 26  1  0  0  0  0
 28 27  1  0  0  0  0
 28 34  1  0  0  0  0
 29 28  1  0  0  0  0
 30 29  1  0  0  0  0
 31 30  1  0  0  0  0
 31 32  1  0  0  0  0
 32 33  1  0  0  0  0
 33 28  1  0  0  0  0
M  END
>  <Pose>
1

>  <Score>
-7.616

$$$$
