MODEL 1
REMARK VINA RESULT:    -7.596      0.000      0.000
REMARK INTER + INTRA:          -8.335
REMARK INTER:                  -8.928
REMARK INTRA:                   0.593
REMARK UNBOUND:                 0.593
REMARK  3 active torsions:
REMARK  status: ('A' for Active; 'I' for Inactive)
REMARK    1  A    between atoms: C_5  and  C_8 
REMARK    2  A    between atoms: C_8  and  C_10 
REMARK    3  A    between atoms: N_21  and  C_24 
ROOT
ATOM      1  C   UNK d   1     -35.043 -67.280  49.715  0.00  0.00     0.193 C 
ATOM      2  N   UNK d   1     -34.206 -67.192  48.529  0.00  0.00    -0.283 N 
ATOM      3  N   UNK d   1     -34.327 -67.470  47.183  0.00  0.00    -0.188 NA
ATOM      4  C   UNK d   1     -33.426 -67.179  46.312  0.00  0.00     0.138 A 
ATOM      5  C   UNK d   1     -32.204 -66.535  46.735  0.00  0.00     0.019 A 
ATOM      6  C   UNK d   1     -32.002 -66.264  48.004  0.00  0.00     0.002 A 
ATOM      7  C   UNK d   1     -32.970 -66.598  49.032  0.00  0.00     0.142 A 
ATOM      8  C   UNK d   1     -33.501 -65.463  49.834  0.00  0.00     0.122 C 
ATOM      9  C   UNK d   1     -34.922 -65.867  50.242  0.00  0.00     0.126 C 
ATOM     10  C   UNK d   1     -35.777 -64.916  49.534  0.00  0.00     0.234 C 
ATOM     11  O   UNK d   1     -37.022 -65.034  49.366  0.00  0.00    -0.272 OA
ATOM     12  N   UNK d   1     -34.981 -63.845  49.067  0.00  0.00    -0.288 N 
ATOM     13  C   UNK d   1     -33.605 -64.204  49.086  0.00  0.00     0.234 C 
ATOM     14  O   UNK d   1     -32.655 -63.572  48.565  0.00  0.00    -0.272 OA
ENDROOT
BRANCH   1  15
ATOM     15  C   UNK d   1     -36.424 -67.645  49.371  0.00  0.00     0.184 C 
ATOM     16  O   UNK d   1     -36.725 -67.620  48.133  0.00  0.00    -0.290 OA
BRANCH  15  17
ATOM     17  C   UNK d   1     -37.451 -68.027  50.314  0.00  0.00     0.012 A 
ATOM     18  C   UNK d   1     -38.715 -67.496  50.283  0.00  0.00     0.016 A 
ATOM     19  C   UNK d   1     -39.655 -67.899  51.204  0.00  0.00     0.020 A 
ATOM     20  C   UNK d   1     -39.400 -68.832  52.186  0.00  0.00     0.011 A 
ATOM     21 Br   UNK d   1     -40.750 -69.348  53.433  0.00  0.00    -0.051 Br
ATOM     22  C   UNK d   1     -38.129 -69.363  52.214  0.00  0.00     0.020 A 
ATOM     23  C   UNK d   1     -37.183 -68.965  51.297  0.00  0.00     0.016 A 
ENDBRANCH  15  17
ENDBRANCH   1  15
BRANCH  12  24
ATOM     24  C   UNK d   1     -35.470 -62.558  48.629  0.00  0.00     0.130 C 
ATOM     25  C   UNK d   1     -35.769 -62.499  47.162  0.00  0.00     0.027 C 
ENDBRANCH  12  24
TORSDOF 3
ENDMDL
