MODEL 1
REMARK VINA RESULT:    -8.318      0.000      0.000
REMARK INTER + INTRA:         -11.011
REMARK INTER:                 -10.263
REMARK INTRA:                  -0.748
REMARK UNBOUND:                -0.748
REMARK  4 active torsions:
REMARK  status: ('A' for Active; 'I' for Inactive)
REMARK    1  A    between atoms: C_5  and  C_8 
REMARK       I    between atoms: C_8  and  N_10 
REMARK    2  A    between atoms: N_10  and  C_11 
REMARK    3  A    between atoms: C_19  and  C_22 
REMARK    4  A    between atoms: C_22  and  C_23 
ROOT
ATOM      1  C   UNK d   1     -44.052 -67.119  54.214  0.00  0.00     0.105 C 
ATOM      2  C   UNK d   1     -45.291 -67.348  53.384  0.00  0.00     0.152 C 
ATOM      3  N   UNK d   1     -45.597 -66.046  52.832  0.00  0.00    -0.335 N 
ATOM      4  C   UNK d   1     -44.923 -65.011  53.599  0.00  0.00     0.181 C 
ATOM      5  C   UNK d   1     -44.055 -65.670  54.614  0.00  0.00     0.061 C 
ATOM      6  C   UNK d   1     -44.172 -64.198  52.616  0.00  0.00     0.241 C 
ATOM      7  O   UNK d   1     -42.969 -63.930  52.832  0.00  0.00    -0.271 OA
ATOM      8  N   UNK d   1     -44.854 -63.752  51.459  0.00  0.00    -0.346 N 
ATOM      9  C   UNK d   1     -46.086 -64.334  50.979  0.00  0.00     0.181 C 
ATOM     10  C   UNK d   1     -46.385 -65.578  51.745  0.00  0.00     0.243 C 
ATOM     11  O   UNK d   1     -47.404 -66.290  51.426  0.00  0.00    -0.271 OA
ATOM     12  H   UNK d   1     -44.411 -62.948  50.940  0.00  0.00     0.163 HD
ENDROOT
BRANCH   1  13
ATOM     13  N   UNK d   1     -42.841 -67.376  53.477  0.00  0.00    -0.351 N 
ATOM     14  C   UNK d   1     -41.892 -68.285  53.950  0.00  0.00     0.252 C 
ATOM     15  O   UNK d   1     -42.077 -68.912  55.048  0.00  0.00    -0.268 OA
ATOM     16  H   UNK d   1     -42.689 -66.871  52.589  0.00  0.00     0.163 HD
BRANCH  14  17
ATOM     17  C   UNK d   1     -40.639 -68.589  53.245  0.00  0.00     0.032 A 
ATOM     18  C   UNK d   1     -39.729 -69.499  53.742  0.00  0.00     0.018 A 
ATOM     19  C   UNK d   1     -38.552 -69.785  53.080  0.00  0.00     0.020 A 
ATOM     20  C   UNK d   1     -38.221 -69.176  51.887  0.00  0.00     0.011 A 
ATOM     21 Br   UNK d   1     -36.613 -69.539  50.942  0.00  0.00    -0.051 Br
ATOM     22  C   UNK d   1     -39.140 -68.259  51.388  0.00  0.00     0.020 A 
ATOM     23  C   UNK d   1     -40.309 -67.982  52.056  0.00  0.00     0.018 A 
ENDBRANCH  14  17
ENDBRANCH   1  13
BRANCH   9  24
ATOM     24  C   UNK d   1     -47.220 -63.339  51.033  0.00  0.00     0.073 C 
BRANCH  24  25
ATOM     25  C   UNK d   1     -47.321 -62.559  49.767  0.00  0.00    -0.056 A 
ATOM     26  C   UNK d   1     -47.581 -61.188  49.798  0.00  0.00     0.007 A 
ATOM     27  C   UNK d   1     -47.662 -60.518  48.598  0.00  0.00     0.001 A 
ATOM     28  C   UNK d   1     -47.498 -61.141  47.373  0.00  0.00     0.000 A 
ATOM     29  C   UNK d   1     -47.244 -62.492  47.393  0.00  0.00     0.001 A 
ATOM     30  C   UNK d   1     -47.151 -63.216  48.562  0.00  0.00     0.007 A 
ENDBRANCH  24  25
ENDBRANCH   9  24
TORSDOF 4
ENDMDL
