/Users/jonathanwahrer/Desktop/Msc/3_Semester/Drug_Design_Praktikum/waehrer_HTS_screening/HTS_experiment/out/docking_results/vina_output/3e7o/0244_docked.pdbqt
 OpenBabel03192215283D

 25 28  0  0  1  0  0  0  0  0999 V2000
  -36.3060  -68.2880   49.6570 C   0  0  2  0  0  3  0  0  0  0  0  0
  -35.0490  -67.5280   50.0110 C   0  0  0  0  0  2  0  0  0  0  0  0
  -35.1970  -66.2900   49.2660 N   0  0  0  0  0  0  0  0  0  0  0  0
  -36.0420  -66.5290   48.1130 C   0  0  1  0  0  3  0  0  0  0  0  0
  -36.6100  -67.9030   48.2300 C   0  0  0  0  0  2  0  0  0  0  0  0
  -37.0790  -65.4670   48.1200 C   0  0  0  0  0  0  0  0  0  0  0  0
  -38.2990  -65.6870   47.9340 O   0  0  0  0  0  0  0  0  0  0  0  0
  -36.7010  -64.1220   48.3480 N   0  0  0  0  0  0  0  0  0  0  0  0
  -35.5190  -63.7650   49.1050 C   0  0  2  0  0  3  0  0  0  0  0  0
  -34.8630  -62.8010   48.1670 C   0  0  0  0  0  2  0  0  0  0  0  0
  -36.0700  -62.0050   47.6560 C   0  0  0  0  0  2  0  0  0  0  0  0
  -37.2950  -62.8780   47.9440 C   0  0  0  0  0  2  0  0  0  0  0  0
  -34.7060  -64.9650   49.4270 C   0  0  0  0  0  0  0  0  0  0  0  0
  -33.5150  -64.8250   49.8690 O   0  0  0  0  0  0  0  0  0  0  0  0
  -37.4280  -67.9310   50.4620 N   0  0  0  0  0  0  0  0  0  0  0  0
  -38.2140  -68.9480   51.0620 C   0  0  0  0  0  0  0  0  0  0  0  0
  -37.9160  -70.1470   50.8810 O   0  0  0  0  0  0  0  0  0  0  0  0
  -37.6430  -66.9100   50.5880 H   0  0  0  0  0  0  0  0  0  0  0  0
  -39.3820  -68.6200   51.9010 C   0  0  0  0  0  0  0  0  0  0  0  0
  -40.1650  -67.5360   51.5670 C   0  0  0  0  0  3  0  0  0  0  0  0
  -41.2620  -67.2030   52.3300 C   0  0  0  0  0  3  0  0  0  0  0  0
  -41.6270  -67.9300   53.4500 C   0  0  0  0  0  0  0  0  0  0  0  0
  -43.1530  -67.4110   54.4530 Br  0  0  0  0  0  0  0  0  0  0  0  0
  -40.8430  -69.0170   53.7850 C   0  0  0  0  0  3  0  0  0  0  0  0
  -39.7360  -69.3390   53.0020 C   0  0  0  0  0  3  0  0  0  0  0  0
  1  2  1  0  0  0  0
  1 15  1  1  0  0  0
  3 13  1  0  0  0  0
  3  2  1  0  0  0  0
  4  6  1  0  0  0  0
  4  5  1  1  0  0  0
  4  3  1  0  0  0  0
  5  1  1  0  0  0  0
  6  8  1  0  0  0  0
  7  6  2  0  0  0  0
  8  9  1  0  0  0  0
  9 10  1  6  0  0  0
  9 13  1  0  0  0  0
 11 12  1  0  0  0  0
 11 10  1  0  0  0  0
 12  8  1  0  0  0  0
 13 14  2  0  0  0  0
 15 18  1  0  0  0  0
 15 16  1  0  0  0  0
 16 19  1  0  0  0  0
 17 16  2  0  0  0  0
 19 25  1  0  0  0  0
 20 19  2  0  0  0  0
 20 21  1  0  0  0  0
 21 22  2  0  0  0  0
 22 24  1  0  0  0  0
 22 23  1  0  0  0  0
 25 24  2  0  0  0  0
M  END
>  <Pose>
1

>  <Score>
-8.185

$$$$
