MODEL 1
REMARK VINA RESULT:    -8.185      0.000      0.000
REMARK INTER + INTRA:          -9.616
REMARK INTER:                  -9.142
REMARK INTRA:                  -0.474
REMARK UNBOUND:                -0.474
REMARK  2 active torsions:
REMARK  status: ('A' for Active; 'I' for Inactive)
REMARK    1  A    between atoms: C_5  and  C_8 
REMARK       I    between atoms: C_8  and  N_10 
REMARK    2  A    between atoms: N_10  and  C_11 
ROOT
ATOM      1  C   UNK d   1     -36.306 -68.288  49.657  0.00  0.00     0.105 C 
ATOM      2  C   UNK d   1     -35.049 -67.528  50.011  0.00  0.00     0.152 C 
ATOM      3  N   UNK d   1     -35.197 -66.290  49.266  0.00  0.00    -0.335 N 
ATOM      4  C   UNK d   1     -36.042 -66.529  48.113  0.00  0.00     0.181 C 
ATOM      5  C   UNK d   1     -36.610 -67.903  48.230  0.00  0.00     0.061 C 
ATOM      6  C   UNK d   1     -37.079 -65.467  48.120  0.00  0.00     0.243 C 
ATOM      7  O   UNK d   1     -38.299 -65.687  47.934  0.00  0.00    -0.271 OA
ATOM      8  N   UNK d   1     -36.701 -64.122  48.348  0.00  0.00    -0.337 N 
ATOM      9  C   UNK d   1     -35.519 -63.765  49.105  0.00  0.00     0.179 C 
ATOM     10  C   UNK d   1     -34.863 -62.801  48.167  0.00  0.00     0.037 C 
ATOM     11  C   UNK d   1     -36.070 -62.005  47.656  0.00  0.00     0.022 C 
ATOM     12  C   UNK d   1     -37.295 -62.878  47.944  0.00  0.00     0.127 C 
ATOM     13  C   UNK d   1     -34.706 -64.965  49.427  0.00  0.00     0.243 C 
ATOM     14  O   UNK d   1     -33.515 -64.825  49.869  0.00  0.00    -0.271 OA
ENDROOT
BRANCH   1  15
ATOM     15  N   UNK d   1     -37.428 -67.931  50.462  0.00  0.00    -0.351 N 
ATOM     16  C   UNK d   1     -38.214 -68.948  51.062  0.00  0.00     0.252 C 
ATOM     17  O   UNK d   1     -37.916 -70.147  50.881  0.00  0.00    -0.268 OA
ATOM     18  H   UNK d   1     -37.643 -66.910  50.588  0.00  0.00     0.163 HD
BRANCH  16  19
ATOM     19  C   UNK d   1     -39.382 -68.620  51.901  0.00  0.00     0.032 A 
ATOM     20  C   UNK d   1     -40.165 -67.536  51.567  0.00  0.00     0.018 A 
ATOM     21  C   UNK d   1     -41.262 -67.203  52.330  0.00  0.00     0.020 A 
ATOM     22  C   UNK d   1     -41.627 -67.930  53.450  0.00  0.00     0.011 A 
ATOM     23 Br   UNK d   1     -43.153 -67.411  54.453  0.00  0.00    -0.051 Br
ATOM     24  C   UNK d   1     -40.843 -69.017  53.785  0.00  0.00     0.020 A 
ATOM     25  C   UNK d   1     -39.736 -69.339  53.002  0.00  0.00     0.018 A 
ENDBRANCH  16  19
ENDBRANCH   1  15
TORSDOF 2
ENDMDL
