MODEL 1
REMARK VINA RESULT:    -7.513      0.000      0.000
REMARK INTER + INTRA:          -8.858
REMARK INTER:                  -8.391
REMARK INTRA:                  -0.467
REMARK UNBOUND:                -0.467
REMARK  2 active torsions:
REMARK  status: ('A' for Active; 'I' for Inactive)
REMARK    1  A    between atoms: C_5  and  C_8 
REMARK       I    between atoms: C_8  and  N_10 
REMARK    2  A    between atoms: N_10  and  N_11 
ROOT
ATOM      1  N   UNK d   1     -42.947 -66.059  52.185  0.00  0.00    -0.187 N 
ATOM      2  C   UNK d   1     -41.807 -66.751  52.683  0.00  0.00     0.251 C 
ATOM      3  O   UNK d   1     -41.925 -67.784  53.427  0.00  0.00    -0.271 OA
ATOM      4  C   UNK d   1     -40.555 -66.102  52.214  0.00  0.00     0.101 C 
ATOM      5  C   UNK d   1     -41.086 -65.055  51.254  0.00  0.00     0.101 C 
ATOM      6  C   UNK d   1     -40.880 -65.758  49.929  0.00  0.00     0.022 C 
ATOM      7  C   UNK d   1     -39.404 -66.153  50.145  0.00  0.00     0.018 C 
ATOM      8  C   UNK d   1     -39.742 -67.035  51.362  0.00  0.00     0.022 C 
ATOM      9  C   UNK d   1     -40.733 -67.943  50.682  0.00  0.00    -0.025 C 
ATOM     10  C   UNK d   1     -41.475 -67.123  49.947  0.00  0.00    -0.025 C 
ATOM     11  C   UNK d   1     -42.511 -64.863  51.572  0.00  0.00     0.251 C 
ATOM     12  O   UNK d   1     -43.179 -63.833  51.335  0.00  0.00    -0.271 OA
ENDROOT
BRANCH   1  13
ATOM     13  N   UNK d   1     -44.315 -66.430  52.247  0.00  0.00    -0.254 N 
ATOM     14  C   UNK d   1     -45.086 -66.208  53.407  0.00  0.00     0.270 C 
ATOM     15  O   UNK d   1     -44.590 -65.663  54.447  0.00  0.00    -0.266 OA
ATOM     16  H   UNK d   1     -44.748 -66.867  51.413  0.00  0.00     0.191 HD
BRANCH  14  17
ATOM     17  C   UNK d   1     -46.476 -66.593  53.452  0.00  0.00     0.033 A 
ATOM     18  C   UNK d   1     -46.798 -67.931  53.657  0.00  0.00     0.018 A 
ATOM     19  C   UNK d   1     -48.113 -68.348  53.696  0.00  0.00     0.020 A 
ATOM     20  C   UNK d   1     -49.129 -67.452  53.532  0.00  0.00     0.011 A 
ATOM     21 Br   UNK d   1     -50.943 -68.055  53.585  0.00  0.00    -0.051 Br
ATOM     22  C   UNK d   1     -48.823 -66.107  53.325  0.00  0.00     0.020 A 
ATOM     23  C   UNK d   1     -47.513 -65.704  53.289  0.00  0.00     0.018 A 
ENDBRANCH  14  17
ENDBRANCH   1  13
TORSDOF 2
ENDMDL
