MODEL 1
REMARK VINA RESULT:    -7.352      0.000      0.000
REMARK INTER + INTRA:         -11.923
REMARK INTER:                 -10.360
REMARK INTRA:                  -1.563
REMARK UNBOUND:                -1.563
REMARK  7 active torsions:
REMARK  status: ('A' for Active; 'I' for Inactive)
REMARK    1  A    between atoms: C_5  and  C_8 
REMARK    2  A    between atoms: C_8  and  C_9 
REMARK    3  A    between atoms: C_10  and  C_24 
REMARK    4  A    between atoms: N_11  and  C_16 
REMARK    5  A    between atoms: C_16  and  C_17 
REMARK    6  A    between atoms: C_17  and  C_18 
REMARK    7  A    between atoms: C_18  and  N_19 
ROOT
ATOM      1  C   UNK d   1     -39.354 -65.184  49.449  0.00  0.00     0.064 C 
ATOM      2  C   UNK d   1     -38.008 -64.533  49.545  0.00  0.00     0.180 C 
ATOM      3  N   UNK d   1     -38.219 -63.349  48.720  0.00  0.00    -0.331 N 
ATOM      4  C   UNK d   1     -39.551 -62.913  49.055  0.00  0.00     0.295 C 
ATOM      5  O   UNK d   1     -39.956 -61.744  48.947  0.00  0.00    -0.264 OA
ATOM      6  C   UNK d   1     -40.304 -64.085  49.531  0.00  0.00     0.251 C 
ATOM      7  O   UNK d   1     -41.498 -64.130  49.925  0.00  0.00    -0.282 OA
ENDROOT
BRANCH   1   8
ATOM      8  C   UNK d   1     -39.638 -66.457  49.353  0.00  0.00     0.130 C 
ATOM      9  O   UNK d   1     -40.057 -66.962  48.106  0.00  0.00    -0.190 OA
BRANCH   8  10
ATOM     10  C   UNK d   1     -39.520 -67.321  50.515  0.00  0.00     0.001 A 
ATOM     11  C   UNK d   1     -38.522 -68.303  50.547  0.00  0.00     0.015 A 
ATOM     12  C   UNK d   1     -38.405 -69.156  51.623  0.00  0.00     0.020 A 
ATOM     13  C   UNK d   1     -39.248 -69.092  52.711  0.00  0.00     0.011 A 
ATOM     14 Br   UNK d   1     -39.106 -70.258  54.210  0.00  0.00    -0.051 Br
ATOM     15  C   UNK d   1     -40.237 -68.131  52.700  0.00  0.00     0.020 A 
ATOM     16  C   UNK d   1     -40.355 -67.270  51.611  0.00  0.00     0.015 A 
ENDBRANCH   8  10
ENDBRANCH   1   8
BRANCH   2  17
ATOM     17  C   UNK d   1     -36.951 -65.429  49.014  0.00  0.00     0.061 A 
ATOM     18  N   UNK d   1     -37.003 -65.761  47.714  0.00  0.00    -0.263 NA
ATOM     19  C   UNK d   1     -36.102 -66.549  47.124  0.00  0.00     0.117 A 
ATOM     20  C   UNK d   1     -35.073 -67.044  47.891  0.00  0.00     0.019 A 
ATOM     21  C   UNK d   1     -34.981 -66.730  49.226  0.00  0.00     0.003 A 
ATOM     22  C   UNK d   1     -35.932 -65.915  49.785  0.00  0.00     0.029 A 
ENDBRANCH   2  17
BRANCH   3  23
ATOM     23  C   UNK d   1     -37.293 -62.758  47.798  0.00  0.00     0.129 C 
BRANCH  23  24
ATOM     24  C   UNK d   1     -35.994 -62.351  48.475  0.00  0.00     0.040 C 
BRANCH  24  25
ATOM     25  C   UNK d   1     -34.891 -62.381  47.416  0.00  0.00     0.131 C 
BRANCH  25  26
ATOM     26  N   UNK d   1     -33.795 -63.245  47.810  0.00  0.00    -0.352 N 
ATOM     27  C   UNK d   1     -33.280 -63.406  49.052  0.00  0.00     0.182 A 
ATOM     28  N   UNK d   1     -32.276 -64.297  48.994  0.00  0.00    -0.361 N 
ATOM     29  C   UNK d   1     -32.124 -64.722  47.731  0.00  0.00     0.106 A 
ATOM     30  H   UNK d   1     -31.682 -64.627  49.806  0.00  0.00     0.166 HD
ATOM     31  C   UNK d   1     -33.087 -64.051  47.005  0.00  0.00     0.108 A 
ENDBRANCH  25  26
ENDBRANCH  24  25
ENDBRANCH  23  24
ENDBRANCH   3  23
TORSDOF 7
ENDMDL
