MODEL 1
REMARK VINA RESULT:    -7.188      0.000      0.000
REMARK INTER + INTRA:         -11.246
REMARK INTER:                 -10.129
REMARK INTRA:                  -1.117
REMARK UNBOUND:                -1.117
REMARK  7 active torsions:
REMARK  status: ('A' for Active; 'I' for Inactive)
REMARK    1  A    between atoms: C_5  and  C_8 
REMARK    2  A    between atoms: C_10  and  C_24 
REMARK    3  A    between atoms: N_11  and  C_16 
REMARK    4  A    between atoms: C_16  and  C_17 
REMARK    5  A    between atoms: C_17  and  N_18 
REMARK    6  A    between atoms: C_27  and  C_30 
REMARK    7  A    between atoms: C_30  and  O_32 
ROOT
ATOM      1  C   UNK d   1     -37.972 -65.426  48.176  0.00  0.00     0.130 C 
ATOM      2  C   UNK d   1     -38.975 -64.582  48.274  0.00  0.00     0.062 A 
ATOM      3  C   UNK d   1     -40.438 -64.944  48.273  0.00  0.00     0.161 A 
ATOM      4  N   UNK d   1     -41.149 -63.713  48.314  0.00  0.00    -0.331 N 
ATOM      5  C   UNK d   1     -40.249 -62.598  48.481  0.00  0.00     0.295 A 
ATOM      6  O   UNK d   1     -40.521 -61.397  48.622  0.00  0.00    -0.264 OA
ATOM      7  C   UNK d   1     -38.876 -63.152  48.457  0.00  0.00     0.250 A 
ATOM      8  O   UNK d   1     -37.812 -62.464  48.581  0.00  0.00    -0.282 OA
ATOM      9  O   UNK d   1     -38.328 -66.790  48.067  0.00  0.00    -0.190 OA
ENDROOT
BRANCH   3  10
ATOM     10  C   UNK d   1     -40.628 -65.732  49.529  0.00  0.00    -0.030 A 
ATOM     11  C   UNK d   1     -40.374 -65.120  50.716  0.00  0.00     0.011 A 
ATOM     12  C   UNK d   1     -40.528 -65.801  51.906  0.00  0.00     0.018 A 
ATOM     13  C   UNK d   1     -40.941 -67.106  51.897  0.00  0.00     0.039 A 
ATOM     14  C   UNK d   1     -41.197 -67.721  50.699  0.00  0.00     0.018 A 
ATOM     15  C   UNK d   1     -41.045 -67.042  49.501  0.00  0.00     0.011 A 
BRANCH  13  16
ATOM     16  C   UNK d   1     -41.105 -67.841  53.154  0.00  0.00     0.292 C 
ATOM     17  O   UNK d   1     -40.640 -69.005  53.254  0.00  0.00    -0.259 OA
BRANCH  16  18
ATOM     18  O   UNK d   1     -41.748 -67.323  54.244  0.00  0.00    -0.323 OA
ATOM     19  C   UNK d   1     -43.144 -67.406  54.425  0.00  0.00     0.213 C 
ENDBRANCH  16  18
ENDBRANCH  13  16
ENDBRANCH   3  10
BRANCH   4  20
ATOM     20  C   UNK d   1     -42.569 -63.508  48.222  0.00  0.00     0.155 C 
BRANCH  20  21
ATOM     21  C   UNK d   1     -43.217 -62.970  49.451  0.00  0.00     0.255 C 
BRANCH  21  22
ATOM     22  N   UNK d   1     -44.190 -63.828  50.058  0.00  0.00    -0.066 N 
ATOM     23  C   UNK d   1     -45.517 -63.252  50.137  0.00  0.00     0.261 C 
ATOM     24  C   UNK d   1     -46.450 -64.346  50.615  0.00  0.00     0.195 C 
ATOM     25  O   UNK d   1     -46.074 -64.612  51.954  0.00  0.00    -0.388 OA
ATOM     26  C   UNK d   1     -44.818 -65.221  51.879  0.00  0.00     0.195 C 
ATOM     27  C   UNK d   1     -43.818 -64.161  51.448  0.00  0.00     0.261 C 
ATOM     28  H   UNK d   1     -44.226 -64.775  49.594  0.00  0.00     0.280 HD
ENDBRANCH  21  22
ENDBRANCH  20  21
ENDBRANCH   4  20
BRANCH   1  29
ATOM     29  C   UNK d   1     -36.572 -65.025  48.176  0.00  0.00     0.001 A 
ATOM     30  C   UNK d   1     -35.843 -65.011  49.372  0.00  0.00     0.015 A 
ATOM     31  C   UNK d   1     -34.507 -64.674  49.430  0.00  0.00     0.020 A 
ATOM     32  C   UNK d   1     -33.822 -64.330  48.285  0.00  0.00     0.011 A 
ATOM     33 Br   UNK d   1     -31.970 -63.863  48.393  0.00  0.00    -0.051 Br
ATOM     34  C   UNK d   1     -34.515 -64.335  47.098  0.00  0.00     0.020 A 
ATOM     35  C   UNK d   1     -35.872 -64.679  47.045  0.00  0.00     0.015 A 
ENDBRANCH   1  29
TORSDOF 7
ENDMDL
