MODEL 1
REMARK VINA RESULT:    -6.798      0.000      0.000
REMARK INTER + INTRA:          -9.932
REMARK INTER:                  -8.786
REMARK INTRA:                  -1.146
REMARK UNBOUND:                -1.146
REMARK  5 active torsions:
REMARK  status: ('A' for Active; 'I' for Inactive)
REMARK    1  A    between atoms: C_5  and  C_8 
REMARK    2  A    between atoms: C_10  and  C_24 
REMARK    3  A    between atoms: N_11  and  C_16 
REMARK    4  A    between atoms: C_16  and  C_17 
REMARK    5  A    between atoms: C_17  and  N_18 
ROOT
ATOM      1  C   UNK d   1     -38.833 -65.798  47.878  0.00  0.00     0.130 C 
ATOM      2  C   UNK d   1     -37.744 -65.922  48.611  0.00  0.00     0.062 C 
ATOM      3  C   UNK d   1     -36.868 -67.109  48.831  0.00  0.00     0.161 C 
ATOM      4  N   UNK d   1     -35.531 -66.508  48.972  0.00  0.00    -0.331 N 
ATOM      5  C   UNK d   1     -35.754 -65.282  49.641  0.00  0.00     0.295 C 
ATOM      6  O   UNK d   1     -34.899 -64.665  50.289  0.00  0.00    -0.264 OA
ATOM      7  C   UNK d   1     -37.141 -64.880  49.438  0.00  0.00     0.250 C 
ATOM      8  O   UNK d   1     -37.768 -63.872  49.850  0.00  0.00    -0.282 OA
ATOM      9  O   UNK d   1     -39.279 -66.938  47.181  0.00  0.00    -0.190 OA
ENDROOT
BRANCH   1  10
ATOM     10  C   UNK d   1     -39.604 -64.575  47.736  0.00  0.00     0.001 A 
ATOM     11  C   UNK d   1     -40.750 -64.358  48.469  0.00  0.00     0.015 A 
ATOM     12  C   UNK d   1     -41.505 -63.205  48.317  0.00  0.00     0.020 A 
ATOM     13  C   UNK d   1     -41.133 -62.230  47.421  0.00  0.00     0.011 A 
ATOM     14 Br   UNK d   1     -42.170 -60.631  47.204  0.00  0.00    -0.051 Br
ATOM     15  C   UNK d   1     -39.992 -62.434  46.682  0.00  0.00     0.020 A 
ATOM     16  C   UNK d   1     -39.235 -63.599  46.840  0.00  0.00     0.015 A 
ENDBRANCH   1  10
BRANCH   3  17
ATOM     17  C   UNK d   1     -37.249 -67.932  49.981  0.00  0.00    -0.031 A 
ATOM     18  C   UNK d   1     -38.570 -67.949  50.446  0.00  0.00     0.009 A 
ATOM     19  C   UNK d   1     -38.988 -68.691  51.507  0.00  0.00     0.001 A 
ATOM     20  C   UNK d   1     -38.085 -69.485  52.190  0.00  0.00     0.000 A 
ATOM     21  C   UNK d   1     -36.789 -69.489  51.760  0.00  0.00     0.001 A 
ATOM     22  C   UNK d   1     -36.361 -68.726  50.670  0.00  0.00     0.009 A 
ENDBRANCH   3  17
BRANCH   4  23
ATOM     23  C   UNK d   1     -34.355 -67.140  48.497  0.00  0.00     0.155 C 
BRANCH  23  24
ATOM     24  C   UNK d   1     -33.814 -66.740  47.186  0.00  0.00     0.255 C 
BRANCH  24  25
ATOM     25  N   UNK d   1     -32.466 -66.262  47.172  0.00  0.00    -0.066 N 
ATOM     26  C   UNK d   1     -31.958 -65.796  48.414  0.00  0.00     0.261 C 
ATOM     27  C   UNK d   1     -31.884 -64.285  48.377  0.00  0.00     0.195 C 
ATOM     28  O   UNK d   1     -32.985 -63.717  47.742  0.00  0.00    -0.388 OA
ATOM     29  C   UNK d   1     -33.020 -64.001  46.389  0.00  0.00     0.195 C 
ATOM     30  C   UNK d   1     -32.227 -65.266  46.150  0.00  0.00     0.261 C 
ATOM     31  H   UNK d   1     -31.879 -67.106  46.888  0.00  0.00     0.280 HD
ENDBRANCH  24  25
ENDBRANCH  23  24
ENDBRANCH   4  23
TORSDOF 5
ENDMDL
