MODEL 1
REMARK VINA RESULT:    -8.876      0.000      0.000
REMARK INTER + INTRA:         -12.993
REMARK INTER:                 -11.990
REMARK INTRA:                  -1.003
REMARK UNBOUND:                -1.003
REMARK  7 active torsions:
REMARK  status: ('A' for Active; 'I' for Inactive)
REMARK    1  A    between atoms: C_5  and  C_8 
REMARK    2  A    between atoms: C_8  and  O_9 
REMARK    3  A    between atoms: C_8  and  C_10 
REMARK    4  A    between atoms: C_10  and  N_11 
REMARK    5  A    between atoms: N_18  and  C_21 
REMARK    6  A    between atoms: C_19  and  N_20 
REMARK    7  A    between atoms: C_21  and  C_22 
ROOT
ATOM      1  N   UNK d   1     -40.589 -66.777  52.230  0.00  0.00    -0.178 N 
ATOM      2  C   UNK d   1     -40.395 -67.734  53.167  0.00  0.00     0.079 A 
ATOM      3  C   UNK d   1     -39.519 -68.651  52.608  0.00  0.00     0.079 A 
ATOM      4  C   UNK d   1     -39.147 -69.754  53.353  0.00  0.00     0.032 A 
ATOM      5  C   UNK d   1     -39.628 -69.966  54.651  0.00  0.00     0.002 A 
ATOM      6  C   UNK d   1     -40.503 -69.020  55.168  0.00  0.00     0.002 A 
ATOM      7  C   UNK d   1     -40.889 -67.915  54.450  0.00  0.00     0.032 A 
ATOM      8  N   UNK d   1     -39.179 -68.258  51.343  0.00  0.00    -0.177 N 
ATOM      9  C   UNK d   1     -39.861 -67.098  51.144  0.00  0.00     0.681 A 
ENDROOT
BRANCH   1  10
ATOM     10  C   UNK d   1     -41.446 -65.649  52.460  0.00  0.00     0.184 C 
BRANCH  10  11
ATOM     11  C   UNK d   1     -42.558 -65.532  51.463  0.00  0.00     0.170 C 
BRANCH  11  12
ATOM     12  C   UNK d   1     -43.882 -65.894  52.095  0.00  0.00    -0.028 A 
ATOM     13  C   UNK d   1     -45.044 -65.328  51.634  0.00  0.00     0.011 A 
ATOM     14  C   UNK d   1     -46.246 -65.658  52.203  0.00  0.00     0.019 A 
ATOM     15  C   UNK d   1     -46.266 -66.561  53.241  0.00  0.00     0.011 A 
ATOM     16 Br   UNK d   1     -47.941 -67.027  54.043  0.00  0.00    -0.051 Br
ATOM     17  C   UNK d   1     -45.132 -67.157  53.741  0.00  0.00     0.019 A 
ATOM     18  C   UNK d   1     -43.941 -66.792  53.133  0.00  0.00     0.011 A 
ENDBRANCH  11  12
BRANCH  11  19
ATOM     19  O   UNK d   1     -42.701 -64.271  50.918  0.00  0.00    -0.389 OA
ATOM     20  H   UNK d   1     -42.084 -63.611  51.288  0.00  0.00     0.210 HD
ENDBRANCH  11  19
ENDBRANCH  10  11
ENDBRANCH   1  10
BRANCH   9  21
ATOM     21  N   UNK d   1     -39.795 -66.420  50.048  0.00  0.00    -0.234 N 
ATOM     22  H   UNK d   1     -40.329 -65.502  49.980  0.00  0.00     0.174 HD
ATOM     23  H   UNK d   1     -39.277 -66.673  49.204  0.00  0.00     0.174 HD
ENDBRANCH   9  21
BRANCH   8  24
ATOM     24  C   UNK d   1     -38.278 -68.978  50.495  0.00  0.00     0.186 C 
BRANCH  24  25
ATOM     25  C   UNK d   1     -36.833 -68.622  50.711  0.00  0.00    -0.039 A 
ATOM     26  C   UNK d   1     -36.318 -67.502  50.083  0.00  0.00     0.009 A 
ATOM     27  C   UNK d   1     -35.002 -67.108  50.233  0.00  0.00     0.001 A 
ATOM     28  C   UNK d   1     -34.201 -67.875  51.042  0.00  0.00     0.000 A 
ATOM     29  C   UNK d   1     -34.685 -68.989  51.675  0.00  0.00     0.001 A 
ATOM     30  C   UNK d   1     -35.994 -69.352  51.505  0.00  0.00     0.009 A 
ENDBRANCH  24  25
ENDBRANCH   8  24
TORSDOF 7
ENDMDL
