/Users/jonathanwahrer/Desktop/Msc/3_Semester/Drug_Design_Praktikum/waehrer_HTS_screening/HTS_experiment/out/docking_results/vina_output/3e7o/0278_docked.pdbqt
 OpenBabel03192215303D

 30 33  0  0  1  0  0  0  0  0999 V2000
  -40.5890  -66.7770   52.2300 N   0  0  0  0  0  0  0  0  0  0  0  0
  -40.3950  -67.7340   53.1670 C   0  0  0  0  0  0  0  0  0  0  0  0
  -39.5190  -68.6510   52.6080 C   0  0  0  0  0  0  0  0  0  0  0  0
  -39.1470  -69.7540   53.3530 C   0  0  0  0  0  3  0  0  0  0  0  0
  -39.6280  -69.9660   54.6510 C   0  0  0  0  0  3  0  0  0  0  0  0
  -40.5030  -69.0200   55.1680 C   0  0  0  0  0  3  0  0  0  0  0  0
  -40.8890  -67.9150   54.4500 C   0  0  0  0  0  3  0  0  0  0  0  0
  -39.1790  -68.2580   51.3430 N   0  0  0  0  0  0  0  0  0  0  0  0
  -39.8610  -67.0980   51.1440 C   0  0  2  0  0  3  0  0  0  0  0  0
  -41.4460  -65.6490   52.4600 C   0  0  0  0  0  2  0  0  0  0  0  0
  -42.5580  -65.5320   51.4630 C   0  0  1  0  0  3  0  0  0  0  0  0
  -43.8820  -65.8940   52.0950 C   0  0  0  0  0  0  0  0  0  0  0  0
  -45.0440  -65.3280   51.6340 C   0  0  0  0  0  3  0  0  0  0  0  0
  -46.2460  -65.6580   52.2030 C   0  0  0  0  0  3  0  0  0  0  0  0
  -46.2660  -66.5610   53.2410 C   0  0  0  0  0  0  0  0  0  0  0  0
  -47.9410  -67.0270   54.0430 Br  0  0  0  0  0  0  0  0  0  0  0  0
  -45.1320  -67.1570   53.7410 C   0  0  0  0  0  3  0  0  0  0  0  0
  -43.9410  -66.7920   53.1330 C   0  0  0  0  0  3  0  0  0  0  0  0
  -42.7010  -64.2710   50.9180 O   0  0  0  0  0  0  0  0  0  0  0  0
  -42.0840  -63.6110   51.2880 H   0  0  0  0  0  0  0  0  0  0  0  0
  -39.7950  -66.4200   50.0480 N   0  0  0  0  0  0  0  0  0  0  0  0
  -40.3290  -65.5020   49.9800 H   0  0  0  0  0  0  0  0  0  0  0  0
  -39.2770  -66.6730   49.2040 H   0  0  0  0  0  0  0  0  0  0  0  0
  -38.2780  -68.9780   50.4950 C   0  0  0  0  0  2  0  0  0  0  0  0
  -36.8330  -68.6220   50.7110 C   0  0  0  0  0  0  0  0  0  0  0  0
  -36.3180  -67.5020   50.0830 C   0  0  0  0  0  3  0  0  0  0  0  0
  -35.0020  -67.1080   50.2330 C   0  0  0  0  0  3  0  0  0  0  0  0
  -34.2010  -67.8750   51.0420 C   0  0  0  0  0  3  0  0  0  0  0  0
  -34.6850  -68.9890   51.6750 C   0  0  0  0  0  3  0  0  0  0  0  0
  -35.9940  -69.3520   51.5050 C   0  0  0  0  0  3  0  0  0  0  0  0
  1 10  1  0  0  0  0
  1  2  1  0  0  0  0
  2  7  1  0  0  0  0
  3  2  2  0  0  0  0
  3  4  1  0  0  0  0
  4  5  2  0  0  0  0
  5  6  1  0  0  0  0
  7  6  2  0  0  0  0
  8  3  1  0  0  0  0
  9 21  1  1  0  0  0
  9  8  1  0  0  0  0
  9  1  1  0  0  0  0
 11 12  1  0  0  0  0
 11 10  1  1  0  0  0
 12 18  1  0  0  0  0
 13 12  2  0  0  0  0
 13 14  1  0  0  0  0
 14 15  2  0  0  0  0
 15 17  1  0  0  0  0
 15 16  1  0  0  0  0
 18 17  2  0  0  0  0
 19 20  1  0  0  0  0
 19 11  1  0  0  0  0
 22 21  1  0  0  0  0
 23 21  1  0  0  0  0
 24 25  1  0  0  0  0
 24  8  1  0  0  0  0
 25 30  1  0  0  0  0
 26 27  1  0  0  0  0
 26 25  2  0  0  0  0
 27 28  2  0  0  0  0
 28 29  1  0  0  0  0
 30 29  2  0  0  0  0
M  END
>  <Pose>
1

>  <Score>
-8.876

$$$$
