MODEL 1
REMARK VINA RESULT:    -7.589      0.000      0.000
REMARK INTER + INTRA:         -11.516
REMARK INTER:                 -10.251
REMARK INTRA:                  -1.265
REMARK UNBOUND:                -1.265
REMARK  6 active torsions:
REMARK  status: ('A' for Active; 'I' for Inactive)
REMARK    1  A    between atoms: C_5  and  C_8 
REMARK    2  A    between atoms: C_8  and  N_9 
REMARK    3  A    between atoms: N_12  and  C_15 
REMARK    4  A    between atoms: N_16  and  C_27 
REMARK    5  A    between atoms: C_27  and  C_28 
REMARK    6  A    between atoms: C_28  and  O_29 
ROOT
ATOM      1  C   UNK d   1     -40.669 -66.609  51.453  0.00  0.00     0.707 A 
ATOM      2  N   UNK d   1     -41.605 -66.842  52.388  0.00  0.00    -0.170 N 
ATOM      3  C   UNK d   1     -41.199 -67.861  53.180  0.00  0.00     0.166 A 
ATOM      4  C   UNK d   1     -39.968 -68.297  52.741  0.00  0.00     0.185 A 
ATOM      5  N   UNK d   1     -39.671 -67.524  51.696  0.00  0.00    -0.044 NA
ATOM      6  N   UNK d   1     -39.356 -69.311  53.380  0.00  0.00    -0.286 N 
ATOM      7  C   UNK d   1     -39.911 -69.917  54.439  0.00  0.00     0.330 A 
ATOM      8  O   UNK d   1     -39.300 -70.871  55.018  0.00  0.00    -0.246 OA
ATOM      9  N   UNK d   1     -41.111 -69.507  54.884  0.00  0.00    -0.273 N 
ATOM     10  C   UNK d   1     -41.748 -68.500  54.270  0.00  0.00     0.280 A 
ATOM     11  O   UNK d   1     -42.868 -68.119  54.688  0.00  0.00    -0.265 OA
ATOM     12  C   UNK d   1     -38.044 -69.743  52.887  0.00  0.00     0.163 C 
ATOM     13  H   UNK d   1     -41.556 -69.983  55.721  0.00  0.00     0.173 HD
ENDROOT
BRANCH   1  14
ATOM     14  N   UNK d   1     -40.662 -65.617  50.457  0.00  0.00    -0.213 N 
ATOM     15  C   UNK d   1     -41.155 -65.820  49.139  0.00  0.00     0.160 C 
ATOM     16  C   UNK d   1     -39.981 -65.619  48.185  0.00  0.00     0.137 C 
ATOM     17  N   UNK d   1     -38.822 -65.186  48.842  0.00  0.00    -0.405 N 
ATOM     18  C   UNK d   1     -38.876 -64.207  49.848  0.00  0.00     0.137 C 
ATOM     19  C   UNK d   1     -40.116 -64.313  50.744  0.00  0.00     0.160 C 
BRANCH  17  20
ATOM     20  C   UNK d   1     -37.728 -66.100  48.858  0.00  0.00     0.155 C 
BRANCH  20  21
ATOM     21  C   UNK d   1     -36.396 -65.465  48.842  0.00  0.00    -0.041 A 
ATOM     22  C   UNK d   1     -36.070 -64.670  47.772  0.00  0.00     0.010 A 
ATOM     23  C   UNK d   1     -34.835 -64.043  47.721  0.00  0.00     0.019 A 
ATOM     24  C   UNK d   1     -33.918 -64.205  48.739  0.00  0.00     0.011 A 
ATOM     25 Br   UNK d   1     -32.208 -63.331  48.666  0.00  0.00    -0.051 Br
ATOM     26  C   UNK d   1     -34.265 -65.007  49.802  0.00  0.00     0.019 A 
ATOM     27  C   UNK d   1     -35.491 -65.639  49.867  0.00  0.00     0.010 A 
ENDBRANCH  20  21
ENDBRANCH  17  20
ENDBRANCH   1  14
BRANCH   2  28
ATOM     28  C   UNK d   1     -42.879 -66.196  52.559  0.00  0.00     0.174 C 
BRANCH  28  29
ATOM     29  C   UNK d   1     -42.763 -64.902  53.333  0.00  0.00     0.187 C 
BRANCH  29  30
ATOM     30  O   UNK d   1     -43.123 -63.783  52.611  0.00  0.00    -0.394 OA
ATOM     31  C   UNK d   1     -44.009 -64.241  51.608  0.00  0.00     0.201 C 
ENDBRANCH  29  30
ENDBRANCH  28  29
ENDBRANCH   2  28
TORSDOF 6
ENDMDL
