MODEL 1
REMARK VINA RESULT:    -8.911      0.000      0.000
REMARK INTER + INTRA:         -11.414
REMARK INTER:                 -10.474
REMARK INTRA:                  -0.940
REMARK UNBOUND:                -0.940
REMARK  3 active torsions:
REMARK  status: ('A' for Active; 'I' for Inactive)
REMARK    1  A    between atoms: C_5  and  C_8 
REMARK    2  A    between atoms: C_16  and  C_17 
REMARK    3  A    between atoms: C_17  and  N_18 
ROOT
ATOM      1  C   UNK d   1     -43.146 -67.139  54.395  0.00  0.00     0.053 C 
ATOM      2  C   UNK d   1     -42.016 -67.717  53.969  0.00  0.00     0.127 A 
ATOM      3  O   UNK d   1     -41.490 -67.525  52.702  0.00  0.00    -0.305 OA
ATOM      4  C   UNK d   1     -40.311 -68.241  52.522  0.00  0.00     0.101 A 
ATOM      5  C   UNK d   1     -40.049 -68.918  53.674  0.00  0.00     0.051 A 
ATOM      6  C   UNK d   1     -38.927 -69.714  53.767  0.00  0.00     0.021 A 
ATOM      7  C   UNK d   1     -38.111 -69.790  52.669  0.00  0.00     0.041 A 
ATOM      8  C   UNK d   1     -38.378 -69.095  51.482  0.00  0.00     0.118 A 
ATOM      9  C   UNK d   1     -39.490 -68.298  51.370  0.00  0.00     0.039 A 
ATOM     10  O   UNK d   1     -37.496 -69.226  50.409  0.00  0.00    -0.191 OA
ATOM     11  C   UNK d   1     -41.116 -68.616  54.639  0.00  0.00     0.218 A 
ATOM     12  O   UNK d   1     -41.249 -69.036  55.817  0.00  0.00    -0.284 OA
ENDROOT
BRANCH   1  13
ATOM     13  C   UNK d   1     -43.884 -66.254  53.500  0.00  0.00    -0.033 A 
ATOM     14  C   UNK d   1     -45.071 -66.673  52.922  0.00  0.00     0.013 A 
ATOM     15  C   UNK d   1     -45.792 -65.862  52.067  0.00  0.00     0.020 A 
ATOM     16  C   UNK d   1     -45.357 -64.595  51.754  0.00  0.00     0.011 A 
ATOM     17 Br   UNK d   1     -46.363 -63.466  50.567  0.00  0.00    -0.051 Br
ATOM     18  C   UNK d   1     -44.177 -64.161  52.319  0.00  0.00     0.020 A 
ATOM     19  C   UNK d   1     -43.452 -64.986  53.183  0.00  0.00     0.013 A 
ENDBRANCH   1  13
BRANCH   9  20
ATOM     20  C   UNK d   1     -39.902 -67.515  50.198  0.00  0.00     0.279 C 
BRANCH  20  21
ATOM     21  N   UNK d   1     -39.897 -66.107  50.295  0.00  0.00    -0.063 N 
ATOM     22  C   UNK d   1     -38.890 -65.498  49.451  0.00  0.00     0.261 C 
ATOM     23  C   UNK d   1     -39.455 -65.289  48.058  0.00  0.00     0.195 C 
ATOM     24  O   UNK d   1     -40.267 -64.166  48.090  0.00  0.00    -0.388 OA
ATOM     25  C   UNK d   1     -40.900 -64.130  49.338  0.00  0.00     0.195 C 
ATOM     26  C   UNK d   1     -41.174 -65.544  49.823  0.00  0.00     0.261 C 
ATOM     27  H   UNK d   1     -39.821 -65.780  51.279  0.00  0.00     0.280 HD
ENDBRANCH  20  21
ENDBRANCH   9  20
TORSDOF 3
ENDMDL
