MODEL 1
REMARK VINA RESULT:    -8.244      0.000      0.000
REMARK INTER + INTRA:         -12.931
REMARK INTER:                 -11.618
REMARK INTRA:                  -1.312
REMARK UNBOUND:                -1.312
REMARK  8 active torsions:
REMARK  status: ('A' for Active; 'I' for Inactive)
REMARK    1  A    between atoms: C_5  and  C_8 
REMARK    2  A    between atoms: N_9  and  N_10 
REMARK       I    between atoms: N_10  and  C_11 
REMARK    3  A    between atoms: C_11  and  C_13 
REMARK    4  A    between atoms: C_13  and  N_14 
REMARK    5  A    between atoms: C_16  and  C_25 
REMARK    6  A    between atoms: C_18  and  C_19 
REMARK    7  A    between atoms: C_23  and  N_24 
REMARK    8  A    between atoms: C_29  and  N_30 
ROOT
ATOM      1  N   UNK d   1     -42.043 -65.784  52.577  0.00  0.00    -0.239 N 
ATOM      2  N   UNK d   1     -41.720 -66.930  53.250  0.00  0.00    -0.147 NA
ATOM      3  C   UNK d   1     -40.663 -67.498  52.654  0.00  0.00     0.206 A 
ATOM      4  N   UNK d   1     -40.354 -66.700  51.634  0.00  0.00    -0.203 NA
ATOM      5  C   UNK d   1     -41.218 -65.617  51.577  0.00  0.00     0.184 A 
ENDROOT
BRANCH   1   6
ATOM      6  C   UNK d   1     -43.149 -64.968  53.039  0.00  0.00     0.257 C 
BRANCH   6   7
ATOM      7  C   UNK d   1     -44.227 -65.804  53.629  0.00  0.00     0.257 C 
ATOM      8  N   UNK d   1     -44.955 -66.722  52.834  0.00  0.00    -0.246 N 
ATOM      9  H   UNK d   1     -44.745 -66.835  51.796  0.00  0.00     0.192 HD
ATOM     10  O   UNK d   1     -44.500 -65.699  54.846  0.00  0.00    -0.270 OA
BRANCH   8  11
ATOM     11  N   UNK d   1     -45.947 -67.482  53.413  0.00  0.00    -0.184 NA
ATOM     12  C   UNK d   1     -47.200 -67.337  53.226  0.00  0.00     0.150 C 
BRANCH  12  13
ATOM     13  C   UNK d   1     -48.210 -68.173  53.866  0.00  0.00    -0.017 A 
ATOM     14  C   UNK d   1     -48.653 -67.916  55.146  0.00  0.00     0.014 A 
ATOM     15  C   UNK d   1     -49.611 -68.723  55.734  0.00  0.00     0.020 A 
ATOM     16  C   UNK d   1     -50.162 -69.810  55.072  0.00  0.00     0.011 A 
ATOM     17 Br   UNK d   1     -51.483 -70.904  55.909  0.00  0.00    -0.051 Br
ATOM     18  C   UNK d   1     -49.718 -70.068  53.792  0.00  0.00     0.020 A 
ATOM     19  C   UNK d   1     -48.762 -69.256  53.217  0.00  0.00     0.014 A 
ENDBRANCH  12  13
ENDBRANCH   8  11
ENDBRANCH   6   7
ENDBRANCH   1   6
BRANCH   5  20
ATOM     20  C   UNK d   1     -41.109 -64.592  50.560  0.00  0.00     0.181 A 
ATOM     21  N   UNK d   1     -42.231 -63.971  50.018  0.00  0.00    -0.097 NA
ATOM     22  O   UNK d   1     -41.868 -63.100  49.161  0.00  0.00    -0.104 OA
ATOM     23  N   UNK d   1     -40.597 -63.074  49.074  0.00  0.00    -0.085 NA
ATOM     24  C   UNK d   1     -40.085 -64.001  49.940  0.00  0.00     0.186 A 
BRANCH  24  25
ATOM     25  N   UNK d   1     -38.701 -64.176  50.058  0.00  0.00    -0.380 N 
ATOM     26  H   UNK d   1     -38.320 -65.133  50.241  0.00  0.00     0.158 HD
ATOM     27  H   UNK d   1     -38.001 -63.410  49.965  0.00  0.00     0.158 HD
ENDBRANCH  24  25
ENDBRANCH   5  20
BRANCH   3  28
ATOM     28  C   UNK d   1     -39.985 -68.731  53.036  0.00  0.00     0.183 A 
ATOM     29  N   UNK d   1     -39.185 -69.482  52.273  0.00  0.00    -0.097 NA
ATOM     30  O   UNK d   1     -38.763 -70.519  52.976  0.00  0.00    -0.104 OA
ATOM     31  N   UNK d   1     -39.257 -70.481  54.181  0.00  0.00    -0.085 NA
ATOM     32  C   UNK d   1     -40.037 -69.359  54.254  0.00  0.00     0.186 A 
BRANCH  32  33
ATOM     33  N   UNK d   1     -40.750 -68.971  55.417  0.00  0.00    -0.380 N 
ATOM     34  H   UNK d   1     -40.253 -68.936  56.351  0.00  0.00     0.158 HD
ATOM     35  H   UNK d   1     -41.755 -68.710  55.420  0.00  0.00     0.158 HD
ENDBRANCH  32  33
ENDBRANCH   3  28
TORSDOF 8
ENDMDL
