MODEL 1
REMARK VINA RESULT:    -8.177      0.000      0.000
REMARK INTER + INTRA:         -10.893
REMARK INTER:                 -10.089
REMARK INTRA:                  -0.804
REMARK UNBOUND:                -0.804
REMARK  4 active torsions:
REMARK  status: ('A' for Active; 'I' for Inactive)
REMARK    1  A    between atoms: C_5  and  C_8 
REMARK    2  A    between atoms: N_19  and  C_20 
REMARK    3  A    between atoms: C_20  and  C_21 
REMARK    4  A    between atoms: C_21  and  N_22 
ROOT
ATOM      1  C   UNK d   1     -37.454 -67.778  49.836  0.00  0.00     0.076 A 
ATOM      2  N   UNK d   1     -38.681 -67.217  49.833  0.00  0.00    -0.189 N 
ATOM      3  C   UNK d   1     -39.385 -67.632  50.915  0.00  0.00     0.692 A 
ATOM      4  N   UNK d   1     -38.610 -68.468  51.627  0.00  0.00    -0.153 N 
ATOM      5  C   UNK d   1     -37.430 -68.561  50.972  0.00  0.00     0.146 A 
ATOM      6  C   UNK d   1     -39.349 -68.851  52.685  0.00  0.00     0.084 A 
ATOM      7  C   UNK d   1     -40.591 -68.254  52.638  0.00  0.00     0.079 A 
ATOM      8  C   UNK d   1     -41.557 -68.477  53.613  0.00  0.00     0.032 A 
ATOM      9  C   UNK d   1     -41.278 -69.318  54.665  0.00  0.00     0.002 A 
ATOM     10  C   UNK d   1     -40.035 -69.911  54.704  0.00  0.00     0.002 A 
ATOM     11  C   UNK d   1     -39.059 -69.708  53.752  0.00  0.00     0.033 A 
ATOM     12  N   UNK d   1     -40.580 -67.493  51.511  0.00  0.00    -0.179 N 
ATOM     13  H   UNK d   1     -39.056 -66.561  49.118  0.00  0.00     0.184 HD
ENDROOT
BRANCH  12  14
ATOM     14  C   UNK d   1     -41.718 -66.697  51.101  0.00  0.00     0.175 C 
BRANCH  14  15
ATOM     15  C   UNK d   1     -41.722 -65.341  51.772  0.00  0.00     0.256 C 
BRANCH  15  16
ATOM     16  N   UNK d   1     -43.002 -65.083  52.369  0.00  0.00    -0.066 N 
ATOM     17  C   UNK d   1     -42.890 -65.059  53.812  0.00  0.00     0.261 C 
ATOM     18  C   UNK d   1     -43.991 -65.833  54.495  0.00  0.00     0.195 C 
ATOM     19  O   UNK d   1     -45.221 -65.405  53.993  0.00  0.00    -0.388 OA
ATOM     20  C   UNK d   1     -45.319 -65.581  52.629  0.00  0.00     0.195 C 
ATOM     21  C   UNK d   1     -44.017 -66.031  52.020  0.00  0.00     0.261 C 
ATOM     22  H   UNK d   1     -43.354 -64.134  52.086  0.00  0.00     0.280 HD
ENDBRANCH  15  16
ENDBRANCH  14  15
ENDBRANCH  12  14
BRANCH   1  23
ATOM     23  C   UNK d   1     -36.403 -67.582  48.843  0.00  0.00    -0.007 A 
ATOM     24  C   UNK d   1     -36.563 -67.967  47.531  0.00  0.00     0.015 A 
ATOM     25  C   UNK d   1     -35.560 -67.779  46.584  0.00  0.00     0.020 A 
ATOM     26  C   UNK d   1     -34.363 -67.192  46.945  0.00  0.00     0.011 A 
ATOM     27 Br   UNK d   1     -32.993 -66.935  45.657  0.00  0.00    -0.051 Br
ATOM     28  C   UNK d   1     -34.190 -66.801  48.257  0.00  0.00     0.020 A 
ATOM     29  C   UNK d   1     -35.207 -66.998  49.195  0.00  0.00     0.015 A 
ENDBRANCH   1  23
TORSDOF 4
ENDMDL
