MODEL 1
REMARK VINA RESULT:    -8.660      0.000      0.000
REMARK INTER + INTRA:         -12.977
REMARK INTER:                 -11.697
REMARK INTRA:                  -1.279
REMARK UNBOUND:                -1.279
REMARK  6 active torsions:
REMARK  status: ('A' for Active; 'I' for Inactive)
REMARK    1  A    between atoms: C_5  and  C_8 
REMARK    2  A    between atoms: C_9  and  C_28 
REMARK    3  A    between atoms: C_16  and  C_17 
REMARK    4  A    between atoms: C_17  and  N_18 
REMARK    5  A    between atoms: C_28  and  O_30 
REMARK    6  A    between atoms: O_30  and  C_31 
ROOT
ATOM      1  C   UNK d   1     -37.161 -67.662  49.580  0.00  0.00     0.065 A 
ATOM      2  C   UNK d   1     -38.412 -67.096  49.543  0.00  0.00     0.166 A 
ATOM      3  O   UNK d   1     -39.354 -67.381  50.422  0.00  0.00    -0.302 OA
ATOM      4  C   UNK d   1     -39.148 -68.230  51.397  0.00  0.00     0.101 A 
ATOM      5  C   UNK d   1     -37.938 -68.821  51.487  0.00  0.00     0.050 A 
ATOM      6  C   UNK d   1     -37.690 -69.717  52.503  0.00  0.00     0.021 A 
ATOM      7  C   UNK d   1     -38.692 -69.981  53.400  0.00  0.00     0.041 A 
ATOM      8  C   UNK d   1     -39.951 -69.359  53.297  0.00  0.00     0.118 A 
ATOM      9  C   UNK d   1     -40.220 -68.470  52.300  0.00  0.00     0.039 A 
ATOM     10  O   UNK d   1     -40.835 -69.747  54.290  0.00  0.00    -0.191 OA
ATOM     11  C   UNK d   1     -36.903 -68.575  50.604  0.00  0.00     0.199 A 
ATOM     12  O   UNK d   1     -35.797 -69.117  50.689  0.00  0.00    -0.286 OA
ENDROOT
BRANCH   9  13
ATOM     13  C   UNK d   1     -41.458 -67.773  52.052  0.00  0.00     0.279 C 
BRANCH  13  14
ATOM     14  N   UNK d   1     -41.886 -66.663  52.801  0.00  0.00    -0.064 N 
ATOM     15  C   UNK d   1     -42.763 -67.025  53.857  0.00  0.00     0.254 C 
ATOM     16  C   UNK d   1     -43.760 -66.044  54.335  0.00  0.00     0.144 C 
ATOM     17  N   UNK d   1     -44.017 -65.012  53.426  0.00  0.00    -0.413 N 
ATOM     18  C   UNK d   1     -42.938 -64.404  52.778  0.00  0.00     0.144 C 
ATOM     19  C   UNK d   1     -45.333 -64.603  53.166  0.00  0.00     0.143 C 
ATOM     20  C   UNK d   1     -42.052 -65.422  52.134  0.00  0.00     0.254 C 
ATOM     21  H   UNK d   1     -40.941 -66.442  53.394  0.00  0.00     0.280 HD
ENDBRANCH  13  14
ENDBRANCH   9  13
BRANCH   2  22
ATOM     22  C   UNK d   1     -38.706 -66.133  48.470  0.00  0.00     0.318 C 
ATOM     23  O   UNK d   1     -39.334 -66.547  47.464  0.00  0.00    -0.257 OA
BRANCH  22  24
ATOM     24  O   UNK d   1     -38.336 -64.824  48.509  0.00  0.00    -0.316 OA
BRANCH  24  25
ATOM     25  C   UNK d   1     -38.393 -64.029  47.349  0.00  0.00     0.175 C 
ATOM     26  C   UNK d   1     -37.018 -63.935  46.749  0.00  0.00     0.034 C 
ENDBRANCH  24  25
ENDBRANCH  22  24
ENDBRANCH   2  22
BRANCH   1  27
ATOM     27  C   UNK d   1     -36.159 -67.296  48.615  0.00  0.00    -0.019 A 
ATOM     28  C   UNK d   1     -35.163 -66.357  48.868  0.00  0.00     0.014 A 
ATOM     29  C   UNK d   1     -34.195 -66.014  47.949  0.00  0.00     0.020 A 
ATOM     30  C   UNK d   1     -34.197 -66.616  46.725  0.00  0.00     0.011 A 
ATOM     31 Br   UNK d   1     -32.843 -66.131  45.464  0.00  0.00    -0.051 Br
ATOM     32  C   UNK d   1     -35.163 -67.552  46.424  0.00  0.00     0.020 A 
ATOM     33  C   UNK d   1     -36.140 -67.885  47.377  0.00  0.00     0.014 A 
ENDBRANCH   1  27
TORSDOF 6
ENDMDL
