/Users/jonathanwahrer/Desktop/Msc/3_Semester/Drug_Design_Praktikum/waehrer_HTS_screening/HTS_experiment/out/docking_results/vina_output/3e7o/0309_docked.pdbqt
 OpenBabel03192215313D

 33 36  0  0  0  0  0  0  0  0999 V2000
  -37.1610  -67.6620   49.5800 C   0  0  0  0  0  0  0  0  0  0  0  0
  -38.4120  -67.0960   49.5430 C   0  0  0  0  0  0  0  0  0  0  0  0
  -39.3540  -67.3810   50.4220 O   0  0  0  0  0  0  0  0  0  0  0  0
  -39.1480  -68.2300   51.3970 C   0  0  0  0  0  0  0  0  0  0  0  0
  -37.9380  -68.8210   51.4870 C   0  0  0  0  0  0  0  0  0  0  0  0
  -37.6900  -69.7170   52.5030 C   0  0  0  0  0  3  0  0  0  0  0  0
  -38.6920  -69.9810   53.4000 C   0  0  0  0  0  3  0  0  0  0  0  0
  -39.9510  -69.3590   53.2970 C   0  0  0  0  0  0  0  0  0  0  0  0
  -40.2200  -68.4700   52.3000 C   0  0  0  0  0  0  0  0  0  0  0  0
  -40.8350  -69.7470   54.2900 O   0  0  0  0  0  1  0  0  0  0  0  0
  -36.9030  -68.5750   50.6040 C   0  0  0  0  0  0  0  0  0  0  0  0
  -35.7970  -69.1170   50.6890 O   0  0  0  0  0  0  0  0  0  0  0  0
  -41.4580  -67.7730   52.0520 C   0  0  0  0  0  2  0  0  0  0  0  0
  -41.8860  -66.6630   52.8010 N   0  0  0  0  0  4  0  0  0  0  0  0
  -42.7630  -67.0250   53.8570 C   0  0  0  0  0  2  0  0  0  0  0  0
  -43.7600  -66.0440   54.3350 C   0  0  0  0  0  2  0  0  0  0  0  0
  -44.0170  -65.0120   53.4260 N   0  0  0  0  0  0  0  0  0  0  0  0
  -42.9380  -64.4040   52.7780 C   0  0  0  0  0  2  0  0  0  0  0  0
  -45.3330  -64.6030   53.1660 C   0  0  0  0  0  1  0  0  0  0  0  0
  -42.0520  -65.4220   52.1340 C   0  0  0  0  0  2  0  0  0  0  0  0
  -40.9410  -66.4420   53.3940 H   0  0  0  0  0  0  0  0  0  0  0  0
  -38.7060  -66.1330   48.4700 C   0  0  0  0  0  0  0  0  0  0  0  0
  -39.3340  -66.5470   47.4640 O   0  0  0  0  0  0  0  0  0  0  0  0
  -38.3360  -64.8240   48.5090 O   0  0  0  0  0  0  0  0  0  0  0  0
  -38.3930  -64.0290   47.3490 C   0  0  0  0  0  2  0  0  0  0  0  0
  -37.0180  -63.9350   46.7490 C   0  0  0  0  0  1  0  0  0  0  0  0
  -36.1590  -67.2960   48.6150 C   0  0  0  0  0  0  0  0  0  0  0  0
  -35.1630  -66.3570   48.8680 C   0  0  0  0  0  3  0  0  0  0  0  0
  -34.1950  -66.0140   47.9490 C   0  0  0  0  0  3  0  0  0  0  0  0
  -34.1970  -66.6160   46.7250 C   0  0  0  0  0  0  0  0  0  0  0  0
  -32.8430  -66.1310   45.4640 Br  0  0  0  0  0  0  0  0  0  0  0  0
  -35.1630  -67.5520   46.4240 C   0  0  0  0  0  3  0  0  0  0  0  0
  -36.1400  -67.8850   47.3770 C   0  0  0  0  0  3  0  0  0  0  0  0
  1 11  1  0  0  0  0
  2  1  2  0  0  0  0
  2  3  1  0  0  0  0
  3  4  1  0  0  0  0
  4  5  2  0  0  0  0
  4  9  1  0  0  0  0
  5  6  1  0  0  0  0
  6  7  2  0  0  0  0
  8  7  1  0  0  0  0
  8 10  1  0  0  0  0
  9  8  2  0  0  0  0
 11 12  2  0  0  0  0
 11  5  1  0  0  0  0
 13  9  1  0  0  0  0
 13 14  1  0  0  0  0
 14 21  1  0  0  0  0
 14 15  1  0  0  0  0
 15 16  1  0  0  0  0
 17 16  1  0  0  0  0
 18 17  1  0  0  0  0
 19 17  1  0  0  0  0
 20 18  1  0  0  0  0
 20 14  1  0  0  0  0
 22 24  1  0  0  0  0
 22  2  1  0  0  0  0
 23 22  2  0  0  0  0
 25 24  1  0  0  0  0
 26 25  1  0  0  0  0
 27 28  1  0  0  0  0
 27  1  1  0  0  0  0
 29 28  2  0  0  0  0
 30 29  1  0  0  0  0
 31 30  1  0  0  0  0
 32 30  2  0  0  0  0
 32 33  1  0  0  0  0
 33 27  2  0  0  0  0
M  END
>  <Pose>
1

>  <Score>
-8.660

$$$$
