MODEL 1
REMARK VINA RESULT:    -7.477      0.000      0.000
REMARK INTER + INTRA:         -12.292
REMARK INTER:                 -10.100
REMARK INTRA:                  -2.192
REMARK UNBOUND:                -2.192
REMARK  6 active torsions:
REMARK  status: ('A' for Active; 'I' for Inactive)
REMARK    1  A    between atoms: C_5  and  C_8 
REMARK    2  A    between atoms: N_15  and  C_16 
REMARK    3  A    between atoms: C_16  and  C_17 
REMARK    4  A    between atoms: C_17  and  C_18 
REMARK    5  A    between atoms: C_18  and  N_19 
REMARK    6  A    between atoms: N_19  and  C_20 
ROOT
ATOM      1  C   UNK d   1     -37.743 -67.678  49.718  0.00  0.00     0.078 A 
ATOM      2  C   UNK d   1     -37.632 -68.460  50.879  0.00  0.00     0.146 A 
ATOM      3  N   UNK d   1     -38.799 -68.381  51.505  0.00  0.00    -0.153 N 
ATOM      4  C   UNK d   1     -39.397 -68.850  52.643  0.00  0.00     0.083 A 
ATOM      5  C   UNK d   1     -40.662 -68.318  52.631  0.00  0.00     0.077 A 
ATOM      6  N   UNK d   1     -40.772 -67.583  51.536  0.00  0.00    -0.189 N 
ATOM      7  C   UNK d   1     -39.612 -67.613  50.819  0.00  0.00     0.692 A 
ATOM      8  N   UNK d   1     -38.977 -67.161  49.697  0.00  0.00    -0.180 N 
ATOM      9  C   UNK d   1     -41.574 -68.585  53.657  0.00  0.00     0.032 A 
ATOM     10  C   UNK d   1     -41.202 -69.400  54.705  0.00  0.00     0.002 A 
ATOM     11  C   UNK d   1     -39.928 -69.920  54.693  0.00  0.00     0.002 A 
ATOM     12  C   UNK d   1     -39.015 -69.659  53.677  0.00  0.00     0.033 A 
ATOM     13  H   UNK d   1     -41.634 -67.059  51.293  0.00  0.00     0.184 HD
ENDROOT
BRANCH   8  14
ATOM     14  C   UNK d   1     -39.633 -66.287  48.773  0.00  0.00     0.149 C 
BRANCH  14  15
ATOM     15  C   UNK d   1     -39.874 -64.898  49.206  0.00  0.00     0.048 C 
BRANCH  15  16
ATOM     16  C   UNK d   1     -39.351 -63.785  48.371  0.00  0.00     0.234 C 
BRANCH  16  17
ATOM     17  N   UNK d   1     -38.249 -63.100  49.010  0.00  0.00    -0.071 N 
ATOM     18  H   UNK d   1     -38.464 -62.210  49.453  0.00  0.00     0.277 HD
ATOM     19  H   UNK d   1     -37.968 -63.736  49.843  0.00  0.00     0.277 HD
BRANCH  17  20
ATOM     20  C   UNK d   1     -37.074 -63.032  48.193  0.00  0.00     0.185 C 
ATOM     21  C   UNK d   1     -35.774 -63.044  48.946  0.00  0.00     0.033 C 
ATOM     22  C   UNK d   1     -34.718 -62.482  47.981  0.00  0.00     0.002 C 
ATOM     23  C   UNK d   1     -34.621 -63.391  46.805  0.00  0.00     0.000 C 
ATOM     24  C   UNK d   1     -35.948 -63.670  46.139  0.00  0.00     0.002 C 
ATOM     25  C   UNK d   1     -36.975 -64.155  47.168  0.00  0.00     0.033 C 
ENDBRANCH  17  20
ENDBRANCH  16  17
ENDBRANCH  15  16
ENDBRANCH  14  15
ENDBRANCH   8  14
BRANCH   1  26
ATOM     26  C   UNK d   1     -36.655 -67.507  48.780  0.00  0.00    -0.007 A 
ATOM     27  C   UNK d   1     -35.500 -66.889  49.213  0.00  0.00     0.015 A 
ATOM     28  C   UNK d   1     -34.426 -66.701  48.391  0.00  0.00     0.020 A 
ATOM     29  C   UNK d   1     -34.444 -67.116  47.095  0.00  0.00     0.011 A 
ATOM     30 Br   UNK d   1     -32.934 -66.854  45.929  0.00  0.00    -0.051 Br
ATOM     31  C   UNK d   1     -35.570 -67.734  46.626  0.00  0.00     0.020 A 
ATOM     32  C   UNK d   1     -36.675 -67.921  47.491  0.00  0.00     0.015 A 
ENDBRANCH   1  26
TORSDOF 6
ENDMDL
