MODEL 1
REMARK VINA RESULT:    -7.628      0.000      0.000
REMARK INTER + INTRA:         -12.375
REMARK INTER:                 -10.973
REMARK INTRA:                  -1.402
REMARK UNBOUND:                -1.402
REMARK  8 active torsions:
REMARK  status: ('A' for Active; 'I' for Inactive)
REMARK    1  A    between atoms: C_5  and  C_8 
REMARK    2  A    between atoms: N_15  and  C_16 
REMARK    3  A    between atoms: C_16  and  C_17 
REMARK    4  A    between atoms: C_17  and  C_18 
REMARK    5  A    between atoms: C_18  and  N_19 
REMARK    6  A    between atoms: N_22  and  C_25 
REMARK    7  A    between atoms: C_25  and  C_26 
REMARK    8  A    between atoms: C_26  and  O_27 
ROOT
ATOM      1  C   UNK d   1     -37.344 -67.660  49.624  0.00  0.00     0.078 A 
ATOM      2  C   UNK d   1     -37.355 -68.550  50.715  0.00  0.00     0.146 A 
ATOM      3  N   UNK d   1     -38.486 -68.428  51.417  0.00  0.00    -0.153 N 
ATOM      4  C   UNK d   1     -39.164 -68.893  52.495  0.00  0.00     0.083 A 
ATOM      5  C   UNK d   1     -40.346 -68.195  52.534  0.00  0.00     0.077 A 
ATOM      6  N   UNK d   1     -40.356 -67.328  51.484  0.00  0.00    -0.189 N 
ATOM      7  C   UNK d   1     -39.203 -67.488  50.809  0.00  0.00     0.692 A 
ATOM      8  N   UNK d   1     -38.509 -67.014  49.713  0.00  0.00    -0.180 N 
ATOM      9  C   UNK d   1     -41.234 -68.479  53.551  0.00  0.00     0.032 A 
ATOM     10  C   UNK d   1     -40.958 -69.439  54.516  0.00  0.00     0.002 A 
ATOM     11  C   UNK d   1     -39.776 -70.135  54.476  0.00  0.00     0.002 A 
ATOM     12  C   UNK d   1     -38.876 -69.846  53.443  0.00  0.00     0.033 A 
ATOM     13  H   UNK d   1     -41.137 -66.669  51.269  0.00  0.00     0.184 HD
ENDROOT
BRANCH   8  14
ATOM     14  C   UNK d   1     -39.022 -65.964  48.857  0.00  0.00     0.149 C 
BRANCH  14  15
ATOM     15  C   UNK d   1     -38.762 -64.569  49.374  0.00  0.00     0.051 C 
BRANCH  15  16
ATOM     16  C   UNK d   1     -37.319 -64.176  49.181  0.00  0.00     0.274 C 
BRANCH  16  17
ATOM     17  N   UNK d   1     -37.058 -63.387  48.008  0.00  0.00     0.091 N 
ATOM     18  C   UNK d   1     -36.352 -64.265  47.088  0.00  0.00     0.300 C 
ATOM     19  C   UNK d   1     -35.165 -63.658  46.439  0.00  0.00     0.265 C 
ATOM     20  N   UNK d   1     -34.287 -62.913  47.299  0.00  0.00    -0.066 N 
ATOM     21  C   UNK d   1     -34.920 -62.456  48.518  0.00  0.00     0.265 C 
ATOM     22  H   UNK d   1     -34.060 -62.014  46.767  0.00  0.00     0.280 HD
ATOM     23  C   UNK d   1     -36.374 -62.155  48.215  0.00  0.00     0.300 C 
BRANCH  20  24
ATOM     24  C   UNK d   1     -33.031 -63.568  47.484  0.00  0.00     0.260 C 
BRANCH  24  25
ATOM     25  C   UNK d   1     -32.511 -63.604  48.880  0.00  0.00     0.192 C 
BRANCH  25  26
ATOM     26  O   UNK d   1     -31.464 -62.713  49.112  0.00  0.00    -0.399 OA
ATOM     27  H   UNK d   1     -31.801 -61.917  49.557  0.00  0.00     0.209 HD
ENDBRANCH  25  26
ENDBRANCH  24  25
ENDBRANCH  20  24
ENDBRANCH  16  17
ENDBRANCH  15  16
ENDBRANCH  14  15
ENDBRANCH   8  14
BRANCH   1  28
ATOM     28  C   UNK d   1     -36.223 -67.536  48.693  0.00  0.00    -0.007 A 
ATOM     29  C   UNK d   1     -34.975 -67.096  48.996  0.00  0.00     0.015 A 
ATOM     30  C   UNK d   1     -33.933 -67.047  48.055  0.00  0.00     0.020 A 
ATOM     31  C   UNK d   1     -34.136 -67.450  46.760  0.00  0.00     0.011 A 
ATOM     32 Br   UNK d   1     -32.716 -67.385  45.473  0.00  0.00    -0.051 Br
ATOM     33  C   UNK d   1     -35.387 -67.894  46.434  0.00  0.00     0.020 A 
ATOM     34  C   UNK d   1     -36.408 -67.939  47.370  0.00  0.00     0.015 A 
ENDBRANCH   1  28
TORSDOF 8
ENDMDL
