/Users/jonathanwahrer/Desktop/Msc/3_Semester/Drug_Design_Praktikum/waehrer_HTS_screening/HTS_experiment/out/docking_results/vina_output/3e7o/0346_docked.pdbqt
 OpenBabel03192215333D

 35 38  0  0  1  0  0  0  0  0999 V2000
  -40.7800  -68.8470   52.2280 C   0  0  2  0  0  3  0  0  0  0  0  0
  -41.3030  -68.6850   53.5570 N   0  0  0  0  0  0  0  0  0  0  0  0
  -40.3950  -69.1730   54.5260 C   0  0  0  0  0  0  0  0  0  0  0  0
  -40.5370  -69.2110   55.7870 O   0  0  0  0  0  0  0  0  0  0  0  0
  -39.1790  -69.6650   53.8400 C   0  0  0  0  0  0  0  0  0  0  0  0
  -38.1820  -70.1640   54.4080 O   0  0  0  0  0  0  0  0  0  0  0  0
  -39.4170  -69.4410   52.4290 C   0  0  1  0  0  3  0  0  0  0  0  0
  -38.5520  -69.7760   51.4980 C   0  0  1  0  0  3  0  0  0  0  0  0
  -38.6050  -71.0940   50.9990 O   0  0  0  0  0  1  0  0  0  0  0  0
  -37.5480  -68.9180   50.9210 C   0  0  0  0  0  0  0  0  0  0  0  0
  -37.7460  -67.9350   50.0170 C   0  0  0  0  0  3  0  0  0  0  0  0
  -36.6950  -67.1610   49.5710 C   0  0  0  0  0  0  0  0  0  0  0  0
  -35.3970  -67.3280   50.0050 C   0  0  0  0  0  0  0  0  0  0  0  0
  -36.9650  -66.0800   48.5660 C   0  0  0  0  0  1  0  0  0  0  0  0
  -35.2220  -68.3400   50.9280 C   0  0  0  0  0  3  0  0  0  0  0  0
  -36.2410  -69.1250   51.3900 C   0  0  0  0  0  3  0  0  0  0  0  0
  -34.3430  -66.5450   49.5510 O   0  0  0  0  0  0  0  0  0  0  0  0
  -33.9260  -65.4120   50.2980 C   0  0  0  0  0  1  0  0  0  0  0  0
  -40.7310  -67.5950   51.4670 C   0  0  0  0  0  0  0  0  0  0  0  0
  -41.1630  -67.5450   50.1590 C   0  0  0  0  0  3  0  0  0  0  0  0
  -41.1150  -66.3530   49.4300 C   0  0  0  0  0  3  0  0  0  0  0  0
  -40.6330  -65.1970   50.0020 C   0  0  0  0  0  0  0  0  0  0  0  0
  -40.5800  -63.5780   48.9700 Br  0  0  0  0  0  0  0  0  0  0  0  0
  -40.2020  -65.2390   51.2990 C   0  0  0  0  0  3  0  0  0  0  0  0
  -40.2560  -66.4190   52.0020 C   0  0  0  0  0  3  0  0  0  0  0  0
  -42.6010  -68.1000   53.8410 C   0  0  0  0  0  2  0  0  0  0  0  0
  -42.5250  -66.8590   54.6870 C   0  0  0  0  0  2  0  0  0  0  0  0
  -43.8430  -66.1490   54.7510 C   0  0  0  0  0  2  0  0  0  0  0  0
  -44.2530  -65.5990   53.4920 N   0  0  0  0  0  4  0  0  0  0  0  0
  -43.4280  -64.4920   53.0530 C   0  0  0  0  0  2  0  0  0  0  0  0
  -43.8330  -64.1870   51.6070 C   0  0  0  0  0  2  0  0  0  0  0  0
  -44.9940  -64.8670   51.2690 O   0  0  0  0  0  0  0  0  0  0  0  0
  -46.0080  -64.6020   52.2160 C   0  0  0  0  0  2  0  0  0  0  0  0
  -45.6440  -65.2490   53.5470 C   0  0  0  0  0  2  0  0  0  0  0  0
  -44.1510  -66.3520   52.7480 H   0  0  0  0  0  0  0  0  0  0  0  0
  1 19  1  1  0  0  0
  1  7  1  0  0  0  0
  1  2  1  0  0  0  0
  2 26  1  0  0  0  0
  2  3  1  0  0  0  0
  3  4  2  0  0  0  0
  5  6  2  0  0  0  0
  5  3  1  0  0  0  0
  7  8  1  6  0  0  0
  7  5  1  0  0  0  0
  8  9  1  6  0  0  0
 10 16  1  0  0  0  0
 10  8  1  0  0  0  0
 11 10  2  0  0  0  0
 12 13  2  0  0  0  0
 12 11  1  0  0  0  0
 13 15  1  0  0  0  0
 14 12  1  0  0  0  0
 15 16  2  0  0  0  0
 17 13  1  0  0  0  0
 17 18  1  0  0  0  0
 19 25  1  0  0  0  0
 20 19  2  0  0  0  0
 21 22  2  0  0  0  0
 21 20  1  0  0  0  0
 22 24  1  0  0  0  0
 23 22  1  0  0  0  0
 24 25  2  0  0  0  0
 26 27  1  0  0  0  0
 27 28  1  0  0  0  0
 29 34  1  0  0  0  0
 29 28  1  0  0  0  0
 30 29  1  0  0  0  0
 31 30  1  0  0  0  0
 32 31  1  0  0  0  0
 32 33  1  0  0  0  0
 33 34  1  0  0  0  0
 35 29  1  0  0  0  0
M  END
>  <Pose>
1

>  <Score>
-8.412

$$$$
