MODEL 1
REMARK VINA RESULT:    -7.584      0.000      0.000
REMARK INTER + INTRA:         -12.024
REMARK INTER:                 -10.688
REMARK INTRA:                  -1.336
REMARK UNBOUND:                -1.336
REMARK  7 active torsions:
REMARK  status: ('A' for Active; 'I' for Inactive)
REMARK    1  A    between atoms: C_5  and  C_8 
REMARK    2  A    between atoms: N_9  and  C_25 
REMARK    3  A    between atoms: C_15  and  C_17 
REMARK    4  A    between atoms: C_19  and  O_23 
REMARK    5  A    between atoms: C_25  and  C_26 
REMARK    6  A    between atoms: C_26  and  C_27 
REMARK    7  A    between atoms: C_27  and  N_28 
ROOT
ATOM      1  C   UNK d   1     -39.809 -64.229  49.143  0.00  0.00     0.161 C 
ATOM      2  N   UNK d   1     -38.907 -65.040  48.351  0.00  0.00    -0.332 N 
ATOM      3  C   UNK d   1     -39.533 -66.317  48.209  0.00  0.00     0.295 C 
ATOM      4  O   UNK d   1     -39.352 -67.145  47.283  0.00  0.00    -0.264 OA
ATOM      5  C   UNK d   1     -40.419 -66.455  49.360  0.00  0.00     0.250 C 
ATOM      6  O   UNK d   1     -41.179 -67.406  49.672  0.00  0.00    -0.282 OA
ATOM      7  C   UNK d   1     -40.289 -65.240  50.157  0.00  0.00     0.062 C 
ATOM      8  C   UNK d   1     -40.569 -65.094  51.429  0.00  0.00     0.130 C 
ATOM      9  O   UNK d   1     -40.409 -63.799  51.953  0.00  0.00    -0.190 OA
ENDROOT
BRANCH   2  10
ATOM     10  C   UNK d   1     -37.601 -64.648  47.792  0.00  0.00     0.129 C 
BRANCH  10  11
ATOM     11  C   UNK d   1     -36.613 -64.328  48.923  0.00  0.00     0.048 C 
BRANCH  11  12
ATOM     12  C   UNK d   1     -36.429 -65.549  49.778  0.00  0.00     0.236 C 
BRANCH  12  13
ATOM     13  N   UNK d   1     -35.828 -66.594  48.984  0.00  0.00    -0.067 N 
ATOM     14  C   UNK d   1     -36.361 -67.896  49.233  0.00  0.00     0.261 C 
ATOM     15  C   UNK d   1     -35.939 -68.463  50.546  0.00  0.00     0.195 C 
ATOM     16  O   UNK d   1     -34.560 -68.487  50.654  0.00  0.00    -0.388 OA
ATOM     17  C   UNK d   1     -34.106 -67.169  50.577  0.00  0.00     0.195 C 
ATOM     18  C   UNK d   1     -34.391 -66.666  49.175  0.00  0.00     0.261 C 
ATOM     19  H   UNK d   1     -35.976 -66.361  47.975  0.00  0.00     0.280 HD
ENDBRANCH  12  13
ENDBRANCH  11  12
ENDBRANCH  10  11
ENDBRANCH   2  10
BRANCH   1  20
ATOM     20  C   UNK d   1     -40.907 -63.715  48.337  0.00  0.00    -0.030 A 
ATOM     21  C   UNK d   1     -40.711 -63.381  47.020  0.00  0.00     0.011 A 
ATOM     22  C   UNK d   1     -41.752 -62.874  46.237  0.00  0.00     0.019 A 
ATOM     23  C   UNK d   1     -43.003 -62.699  46.780  0.00  0.00     0.011 A 
ATOM     24 Br   UNK d   1     -44.421 -62.005  45.708  0.00  0.00    -0.051 Br
ATOM     25  C   UNK d   1     -43.212 -63.028  48.093  0.00  0.00     0.019 A 
ATOM     26  C   UNK d   1     -42.170 -63.529  48.852  0.00  0.00     0.011 A 
ENDBRANCH   1  20
BRANCH   8  27
ATOM     27  C   UNK d   1     -41.017 -66.188  52.285  0.00  0.00     0.004 A 
ATOM     28  C   UNK d   1     -40.213 -67.228  52.692  0.00  0.00     0.051 A 
ATOM     29  C   UNK d   1     -40.636 -68.280  53.486  0.00  0.00     0.069 A 
ATOM     30  C   UNK d   1     -41.936 -68.298  53.901  0.00  0.00     0.037 A 
ATOM     31  C   UNK d   1     -42.785 -67.265  53.514  0.00  0.00     0.004 A 
ATOM     32  C   UNK d   1     -42.329 -66.233  52.722  0.00  0.00     0.014 A 
BRANCH  29  33
ATOM     33  O   UNK d   1     -39.695 -69.235  53.797  0.00  0.00    -0.356 OA
ATOM     34  C   UNK d   1     -38.950 -70.011  52.924  0.00  0.00     0.210 C 
ENDBRANCH  29  33
ENDBRANCH   8  27
TORSDOF 7
ENDMDL
