/Users/jonathanwahrer/Desktop/Msc/3_Semester/Drug_Design_Praktikum/waehrer_HTS_screening/HTS_experiment/out/docking_results/vina_output/3e7o/0349_docked.pdbqt
 OpenBabel03192215333D

 32 35  0  0  1  0  0  0  0  0999 V2000
  -38.1370  -65.7270   48.9690 C   0  0  1  0  0  3  0  0  0  0  0  0
  -36.9490  -66.2700   49.4720 N   0  0  0  0  0  0  0  0  0  0  0  0
  -37.3290  -67.6510   49.8350 C   0  0  0  0  0  0  0  0  0  0  0  0
  -36.5870  -68.6720   49.8270 O   0  0  0  0  0  0  0  0  0  0  0  0
  -38.7460  -67.5540   50.2010 C   0  0  0  0  0  0  0  0  0  0  0  0
  -39.5200  -68.4790   50.5970 O   0  0  0  0  0  0  0  0  0  0  0  0
  -39.1080  -66.1350   50.0230 C   0  0  0  0  0  0  0  0  0  0  0  0
  -40.0140  -65.4480   50.6800 C   0  0  0  0  0  0  0  0  0  0  0  0
  -40.1830  -64.0900   50.4350 O   0  0  0  0  0  1  0  0  0  0  0  0
  -35.5650  -65.8670   49.6710 C   0  0  0  0  0  2  0  0  0  0  0  0
  -34.6720  -66.1360   48.4880 C   0  0  0  0  0  2  0  0  0  0  0  0
  -33.8180  -65.0450   48.1490 N   0  0  0  0  0  4  0  0  0  0  0  0
  -32.4870  -65.2650   48.6820 C   0  0  0  0  0  2  0  0  0  0  0  0
  -31.6060  -64.1160   48.2670 C   0  0  0  0  0  2  0  0  0  0  0  0
  -32.0590  -62.9950   48.9810 O   0  0  0  0  0  0  0  0  0  0  0  0
  -33.3380  -62.7170   48.5570 C   0  0  0  0  0  2  0  0  0  0  0  0
  -34.3070  -63.8350   48.8400 C   0  0  0  0  0  2  0  0  0  0  0  0
  -33.7870  -64.8500   47.1380 H   0  0  0  0  0  0  0  0  0  0  0  0
  -38.3230  -64.4990   48.2970 C   0  0  0  0  0  0  0  0  0  0  0  0
  -39.2590  -64.4710   47.2530 C   0  0  0  0  0  3  0  0  0  0  0  0
  -39.5120  -63.3420   46.5280 C   0  0  0  0  0  3  0  0  0  0  0  0
  -38.8440  -62.1670   46.8000 C   0  0  0  0  0  0  0  0  0  0  0  0
  -39.1770  -60.5660   45.8020 Br  0  0  0  0  0  0  0  0  0  0  0  0
  -37.9260  -62.1890   47.8210 C   0  0  0  0  0  3  0  0  0  0  0  0
  -37.6710  -63.3460   48.5580 C   0  0  0  0  0  3  0  0  0  0  0  0
  -40.8920  -66.0420   51.6760 C   0  0  0  0  0  0  0  0  0  0  0  0
  -40.5010  -66.6640   52.8200 C   0  0  0  0  0  3  0  0  0  0  0  0
  -41.4460  -67.1500   53.7130 C   0  0  0  0  0  3  0  0  0  0  0  0
  -42.7900  -67.0090   53.4530 C   0  0  0  0  0  0  0  0  0  0  0  0
  -43.2260  -66.3860   52.3070 C   0  0  0  0  0  3  0  0  0  0  0  0
  -43.8350  -67.5190   54.3900 C   0  0  0  0  0  1  0  0  0  0  0  0
  -42.2630  -65.9080   51.4300 C   0  0  0  0  0  3  0  0  0  0  0  0
  1 19  1  1  0  0  0
  1  2  1  0  0  0  0
  1  7  1  0  0  0  0
  2 10  1  0  0  0  0
  2  3  1  0  0  0  0
  3  5  1  0  0  0  0
  4  3  2  0  0  0  0
  5  6  2  0  0  0  0
  7  5  1  0  0  0  0
  7  8  2  0  0  0  0
  8 26  1  0  0  0  0
  9  8  1  0  0  0  0
 11 10  1  0  0  0  0
 12 11  1  0  0  0  0
 12 13  1  0  0  0  0
 12 17  1  0  0  0  0
 14 13  1  0  0  0  0
 14 15  1  0  0  0  0
 16 17  1  0  0  0  0
 16 15  1  0  0  0  0
 18 12  1  0  0  0  0
 19 25  1  0  0  0  0
 20 19  2  0  0  0  0
 21 22  2  0  0  0  0
 21 20  1  0  0  0  0
 22 24  1  0  0  0  0
 23 22  1  0  0  0  0
 24 25  2  0  0  0  0
 26 27  1  0  0  0  0
 27 28  2  0  0  0  0
 29 28  1  0  0  0  0
 29 31  1  0  0  0  0
 30 29  2  0  0  0  0
 32 26  2  0  0  0  0
 32 30  1  0  0  0  0
M  END
>  <Pose>
1

>  <Score>
-7.588

$$$$
