MODEL 1
REMARK VINA RESULT:    -7.588      0.000      0.000
REMARK INTER + INTRA:         -10.392
REMARK INTER:                  -9.807
REMARK INTRA:                  -0.585
REMARK UNBOUND:                -0.585
REMARK  5 active torsions:
REMARK  status: ('A' for Active; 'I' for Inactive)
REMARK    1  A    between atoms: C_5  and  C_8 
REMARK    2  A    between atoms: N_9  and  C_24 
REMARK    3  A    between atoms: C_15  and  C_17 
REMARK    4  A    between atoms: C_24  and  C_25 
REMARK    5  A    between atoms: C_25  and  N_26 
ROOT
ATOM      1  C   UNK d   1     -38.137 -65.727  48.969  0.00  0.00     0.161 C 
ATOM      2  N   UNK d   1     -36.949 -66.270  49.472  0.00  0.00    -0.331 N 
ATOM      3  C   UNK d   1     -37.329 -67.651  49.835  0.00  0.00     0.295 C 
ATOM      4  O   UNK d   1     -36.587 -68.672  49.827  0.00  0.00    -0.264 OA
ATOM      5  C   UNK d   1     -38.746 -67.554  50.201  0.00  0.00     0.250 C 
ATOM      6  O   UNK d   1     -39.520 -68.479  50.597  0.00  0.00    -0.282 OA
ATOM      7  C   UNK d   1     -39.108 -66.135  50.023  0.00  0.00     0.062 C 
ATOM      8  C   UNK d   1     -40.014 -65.448  50.680  0.00  0.00     0.130 C 
ATOM      9  O   UNK d   1     -40.183 -64.090  50.435  0.00  0.00    -0.190 OA
ENDROOT
BRANCH   2  10
ATOM     10  C   UNK d   1     -35.565 -65.867  49.671  0.00  0.00     0.155 C 
BRANCH  10  11
ATOM     11  C   UNK d   1     -34.672 -66.136  48.488  0.00  0.00     0.255 C 
BRANCH  11  12
ATOM     12  N   UNK d   1     -33.818 -65.045  48.149  0.00  0.00    -0.066 N 
ATOM     13  C   UNK d   1     -32.487 -65.265  48.682  0.00  0.00     0.261 C 
ATOM     14  C   UNK d   1     -31.606 -64.116  48.267  0.00  0.00     0.195 C 
ATOM     15  O   UNK d   1     -32.059 -62.995  48.981  0.00  0.00    -0.388 OA
ATOM     16  C   UNK d   1     -33.338 -62.717  48.557  0.00  0.00     0.195 C 
ATOM     17  C   UNK d   1     -34.307 -63.835  48.840  0.00  0.00     0.261 C 
ATOM     18  H   UNK d   1     -33.787 -64.850  47.138  0.00  0.00     0.280 HD
ENDBRANCH  11  12
ENDBRANCH  10  11
ENDBRANCH   2  10
BRANCH   1  19
ATOM     19  C   UNK d   1     -38.323 -64.499  48.297  0.00  0.00    -0.030 A 
ATOM     20  C   UNK d   1     -39.259 -64.471  47.253  0.00  0.00     0.011 A 
ATOM     21  C   UNK d   1     -39.512 -63.342  46.528  0.00  0.00     0.019 A 
ATOM     22  C   UNK d   1     -38.844 -62.167  46.800  0.00  0.00     0.011 A 
ATOM     23 Br   UNK d   1     -39.177 -60.566  45.802  0.00  0.00    -0.051 Br
ATOM     24  C   UNK d   1     -37.926 -62.189  47.821  0.00  0.00     0.019 A 
ATOM     25  C   UNK d   1     -37.671 -63.346  48.558  0.00  0.00     0.011 A 
ENDBRANCH   1  19
BRANCH   8  26
ATOM     26  C   UNK d   1     -40.892 -66.042  51.676  0.00  0.00     0.001 A 
ATOM     27  C   UNK d   1     -40.501 -66.664  52.820  0.00  0.00     0.015 A 
ATOM     28  C   UNK d   1     -41.446 -67.150  53.713  0.00  0.00     0.007 A 
ATOM     29  C   UNK d   1     -42.790 -67.009  53.453  0.00  0.00    -0.062 A 
ATOM     30  C   UNK d   1     -43.226 -66.386  52.307  0.00  0.00     0.007 A 
ATOM     31  C   UNK d   1     -43.835 -67.519  54.390  0.00  0.00     0.048 C 
ATOM     32  C   UNK d   1     -42.263 -65.908  51.430  0.00  0.00     0.015 A 
ENDBRANCH   8  26
TORSDOF 5
ENDMDL
