MODEL 1
REMARK VINA RESULT:    -7.929      0.000      0.000
REMARK INTER + INTRA:         -10.618
REMARK INTER:                 -10.247
REMARK INTRA:                  -0.371
REMARK UNBOUND:                -0.371
REMARK  5 active torsions:
REMARK  status: ('A' for Active; 'I' for Inactive)
REMARK    1  A    between atoms: C_5  and  C_8 
REMARK    2  A    between atoms: N_9  and  C_24 
REMARK    3  A    between atoms: C_15  and  C_17 
REMARK    4  A    between atoms: C_24  and  C_25 
REMARK    5  A    between atoms: C_25  and  N_26 
ROOT
ATOM      1  C   UNK d   1     -40.823 -65.999  50.229  0.00  0.00     0.161 C 
ATOM      2  N   UNK d   1     -41.590 -64.864  50.595  0.00  0.00    -0.331 N 
ATOM      3  C   UNK d   1     -41.662 -64.094  49.358  0.00  0.00     0.295 C 
ATOM      4  O   UNK d   1     -42.593 -63.312  49.022  0.00  0.00    -0.264 OA
ATOM      5  C   UNK d   1     -40.446 -64.420  48.615  0.00  0.00     0.250 C 
ATOM      6  O   UNK d   1     -40.076 -63.985  47.493  0.00  0.00    -0.282 OA
ATOM      7  C   UNK d   1     -39.713 -65.376  49.448  0.00  0.00     0.062 C 
ATOM      8  C   UNK d   1     -38.408 -65.569  49.499  0.00  0.00     0.130 C 
ATOM      9  O   UNK d   1     -37.869 -66.476  50.398  0.00  0.00    -0.190 OA
ENDROOT
BRANCH   2  10
ATOM     10  C   UNK d   1     -42.264 -64.447  51.828  0.00  0.00     0.155 C 
BRANCH  10  11
ATOM     11  C   UNK d   1     -43.699 -64.863  51.920  0.00  0.00     0.255 C 
BRANCH  11  12
ATOM     12  N   UNK d   1     -44.234 -64.743  53.258  0.00  0.00    -0.066 N 
ATOM     13  C   UNK d   1     -43.596 -65.623  54.196  0.00  0.00     0.261 C 
ATOM     14  C   UNK d   1     -43.923 -67.073  53.990  0.00  0.00     0.195 C 
ATOM     15  O   UNK d   1     -45.300 -67.298  53.927  0.00  0.00    -0.388 OA
ATOM     16  C   UNK d   1     -45.768 -66.555  52.833  0.00  0.00     0.195 C 
ATOM     17  C   UNK d   1     -45.641 -65.094  53.209  0.00  0.00     0.261 C 
ATOM     18  H   UNK d   1     -44.174 -63.774  53.626  0.00  0.00     0.280 HD
ENDBRANCH  11  12
ENDBRANCH  10  11
ENDBRANCH   2  10
BRANCH   1  19
ATOM     19  C   UNK d   1     -40.464 -67.014  51.145  0.00  0.00    -0.030 A 
ATOM     20  C   UNK d   1     -40.093 -68.271  50.761  0.00  0.00     0.011 A 
ATOM     21  C   UNK d   1     -39.731 -69.237  51.712  0.00  0.00     0.019 A 
ATOM     22  C   UNK d   1     -39.736 -68.957  53.059  0.00  0.00     0.011 A 
ATOM     23 Br   UNK d   1     -39.254 -70.230  54.388  0.00  0.00    -0.051 Br
ATOM     24  C   UNK d   1     -40.108 -67.698  53.447  0.00  0.00     0.019 A 
ATOM     25  C   UNK d   1     -40.460 -66.763  52.501  0.00  0.00     0.011 A 
ENDBRANCH   1  19
BRANCH   8  26
ATOM     26  C   UNK d   1     -37.456 -64.877  48.641  0.00  0.00     0.001 A 
ATOM     27  C   UNK d   1     -36.961 -63.677  49.169  0.00  0.00     0.016 A 
ATOM     28  C   UNK d   1     -36.024 -62.921  48.504  0.00  0.00     0.024 A 
ATOM     29  C   UNK d   1     -35.565 -63.375  47.272  0.00  0.00     0.034 A 
ATOM     30  C   UNK d   1     -36.057 -64.556  46.760  0.00  0.00     0.024 A 
ATOM     31 Cl   UNK d   1     -34.375 -62.405  46.436  0.00  0.00    -0.084 Cl
ATOM     32  C   UNK d   1     -36.996 -65.307  47.435  0.00  0.00     0.016 A 
ENDBRANCH   8  26
TORSDOF 5
ENDMDL
