MODEL 1
REMARK VINA RESULT:    -7.621      0.000      0.000
REMARK INTER + INTRA:         -10.837
REMARK INTER:                 -10.294
REMARK INTRA:                  -0.543
REMARK UNBOUND:                -0.543
REMARK  6 active torsions:
REMARK  status: ('A' for Active; 'I' for Inactive)
REMARK    1  A    between atoms: C_5  and  C_8 
REMARK    2  A    between atoms: N_9  and  C_23 
REMARK    3  A    between atoms: C_15  and  C_17 
REMARK    4  A    between atoms: C_23  and  C_24 
REMARK    5  A    between atoms: C_24  and  C_25 
REMARK    6  A    between atoms: C_25  and  N_26 
ROOT
ATOM      1  C   UNK d   1     -37.874 -67.765  49.828  0.00  0.00     0.161 C 
ATOM      2  N   UNK d   1     -36.494 -67.963  50.136  0.00  0.00    -0.332 N 
ATOM      3  C   UNK d   1     -36.456 -69.099  51.038  0.00  0.00     0.295 C 
ATOM      4  O   UNK d   1     -35.439 -69.809  51.251  0.00  0.00    -0.264 OA
ATOM      5  C   UNK d   1     -37.775 -69.247  51.624  0.00  0.00     0.250 C 
ATOM      6  O   UNK d   1     -38.158 -70.116  52.465  0.00  0.00    -0.282 OA
ATOM      7  C   UNK d   1     -38.592 -68.193  51.058  0.00  0.00     0.062 C 
ATOM      8  C   UNK d   1     -39.712 -67.718  51.573  0.00  0.00     0.130 C 
ATOM      9  O   UNK d   1     -40.318 -66.650  50.868  0.00  0.00    -0.190 OA
ENDROOT
BRANCH   2  10
ATOM     10  C   UNK d   1     -35.277 -67.305  49.658  0.00  0.00     0.129 C 
BRANCH  10  11
ATOM     11  C   UNK d   1     -34.416 -66.713  50.721  0.00  0.00     0.048 C 
BRANCH  11  12
ATOM     12  C   UNK d   1     -34.225 -65.216  50.532  0.00  0.00     0.236 C 
BRANCH  12  13
ATOM     13  N   UNK d   1     -34.022 -64.886  49.140  0.00  0.00    -0.067 N 
ATOM     14  C   UNK d   1     -34.739 -63.696  48.742  0.00  0.00     0.261 C 
ATOM     15  C   UNK d   1     -34.114 -63.228  47.425  0.00  0.00     0.195 C 
ATOM     16  O   UNK d   1     -32.890 -62.624  47.710  0.00  0.00    -0.388 OA
ATOM     17  C   UNK d   1     -32.193 -63.317  48.698  0.00  0.00     0.195 C 
ATOM     18  C   UNK d   1     -32.642 -64.761  48.786  0.00  0.00     0.261 C 
ATOM     19  H   UNK d   1     -34.422 -65.680  48.586  0.00  0.00     0.280 HD
ENDBRANCH  12  13
ENDBRANCH  11  12
ENDBRANCH  10  11
ENDBRANCH   2  10
BRANCH   1  20
ATOM     20  C   UNK d   1     -38.292 -66.468  49.333  0.00  0.00    -0.030 A 
ATOM     21  C   UNK d   1     -37.971 -65.254  49.839  0.00  0.00     0.011 A 
ATOM     22  C   UNK d   1     -38.411 -64.075  49.269  0.00  0.00     0.019 A 
ATOM     23  C   UNK d   1     -39.208 -64.071  48.145  0.00  0.00     0.011 A 
ATOM     24 Br   UNK d   1     -39.827 -62.454  47.341  0.00  0.00    -0.051 Br
ATOM     25  C   UNK d   1     -39.555 -65.290  47.604  0.00  0.00     0.019 A 
ATOM     26  C   UNK d   1     -39.106 -66.452  48.188  0.00  0.00     0.011 A 
ENDBRANCH   1  20
BRANCH   8  27
ATOM     27  C   UNK d   1     -40.339 -68.221  52.778  0.00  0.00     0.004 A 
ATOM     28  C   UNK d   1     -40.013 -67.555  53.966  0.00  0.00     0.033 A 
ATOM     29  C   UNK d   1     -40.569 -67.900  55.180  0.00  0.00     0.117 A 
ATOM     30  N   UNK d   1     -41.456 -68.910  55.241  0.00  0.00    -0.273 NA
ATOM     31  C   UNK d   1     -41.789 -69.569  54.112  0.00  0.00     0.117 A 
ATOM     32  C   UNK d   1     -41.234 -69.230  52.879  0.00  0.00     0.033 A 
ENDBRANCH   8  27
TORSDOF 6
ENDMDL
