/Users/jonathanwahrer/Desktop/Msc/3_Semester/Drug_Design_Praktikum/waehrer_HTS_screening/HTS_experiment/out/docking_results/vina_output/3e7o/0354_docked.pdbqt
 OpenBabel03192215343D

 32 35  0  0  1  0  0  0  0  0999 V2000
  -37.8740  -67.7650   49.8280 C   0  0  1  0  0  3  0  0  0  0  0  0
  -36.4940  -67.9630   50.1360 N   0  0  0  0  0  0  0  0  0  0  0  0
  -36.4560  -69.0990   51.0380 C   0  0  0  0  0  0  0  0  0  0  0  0
  -35.4390  -69.8090   51.2510 O   0  0  0  0  0  0  0  0  0  0  0  0
  -37.7750  -69.2470   51.6240 C   0  0  0  0  0  0  0  0  0  0  0  0
  -38.1580  -70.1160   52.4650 O   0  0  0  0  0  0  0  0  0  0  0  0
  -38.5920  -68.1930   51.0580 C   0  0  0  0  0  0  0  0  0  0  0  0
  -39.7120  -67.7180   51.5730 C   0  0  0  0  0  0  0  0  0  0  0  0
  -40.3180  -66.6500   50.8680 O   0  0  0  0  0  1  0  0  0  0  0  0
  -35.2770  -67.3050   49.6580 C   0  0  0  0  0  2  0  0  0  0  0  0
  -34.4160  -66.7130   50.7210 C   0  0  0  0  0  2  0  0  0  0  0  0
  -34.2250  -65.2160   50.5320 C   0  0  0  0  0  2  0  0  0  0  0  0
  -34.0220  -64.8860   49.1400 N   0  0  0  0  0  4  0  0  0  0  0  0
  -34.7390  -63.6960   48.7420 C   0  0  0  0  0  2  0  0  0  0  0  0
  -34.1140  -63.2280   47.4250 C   0  0  0  0  0  2  0  0  0  0  0  0
  -32.8900  -62.6240   47.7100 O   0  0  0  0  0  0  0  0  0  0  0  0
  -32.1930  -63.3170   48.6980 C   0  0  0  0  0  2  0  0  0  0  0  0
  -32.6420  -64.7610   48.7860 C   0  0  0  0  0  2  0  0  0  0  0  0
  -34.4220  -65.6800   48.5860 H   0  0  0  0  0  0  0  0  0  0  0  0
  -38.2920  -66.4680   49.3330 C   0  0  0  0  0  0  0  0  0  0  0  0
  -37.9710  -65.2540   49.8390 C   0  0  0  0  0  3  0  0  0  0  0  0
  -38.4110  -64.0750   49.2690 C   0  0  0  0  0  3  0  0  0  0  0  0
  -39.2080  -64.0710   48.1450 C   0  0  0  0  0  0  0  0  0  0  0  0
  -39.8270  -62.4540   47.3410 Br  0  0  0  0  0  0  0  0  0  0  0  0
  -39.5550  -65.2900   47.6040 C   0  0  0  0  0  3  0  0  0  0  0  0
  -39.1060  -66.4520   48.1880 C   0  0  0  0  0  3  0  0  0  0  0  0
  -40.3390  -68.2210   52.7780 C   0  0  0  0  0  0  0  0  0  0  0  0
  -40.0130  -67.5550   53.9660 C   0  0  0  0  0  3  0  0  0  0  0  0
  -40.5690  -67.9000   55.1800 C   0  0  0  0  0  3  0  0  0  0  0  0
  -41.4560  -68.9100   55.2410 N   0  0  0  0  0  0  0  0  0  0  0  0
  -41.7890  -69.5690   54.1120 C   0  0  0  0  0  3  0  0  0  0  0  0
  -41.2340  -69.2300   52.8790 C   0  0  0  0  0  3  0  0  0  0  0  0
  1 20  1  1  0  0  0
  1  2  1  0  0  0  0
  1  7  1  0  0  0  0
  2  3  1  0  0  0  0
  3  4  2  0  0  0  0
  3  5  1  0  0  0  0
  5  6  2  0  0  0  0
  7  8  2  0  0  0  0
  7  5  1  0  0  0  0
  8 27  1  0  0  0  0
  9  8  1  0  0  0  0
 10  2  1  0  0  0  0
 10 11  1  0  0  0  0
 12 11  1  0  0  0  0
 13 12  1  0  0  0  0
 14 13  1  0  0  0  0
 15 16  1  0  0  0  0
 15 14  1  0  0  0  0
 16 17  1  0  0  0  0
 17 18  1  0  0  0  0
 18 13  1  0  0  0  0
 19 13  1  0  0  0  0
 20 21  1  0  0  0  0
 22 21  2  0  0  0  0
 23 22  1  0  0  0  0
 24 23  1  0  0  0  0
 25 23  2  0  0  0  0
 25 26  1  0  0  0  0
 26 20  2  0  0  0  0
 27 32  2  0  0  0  0
 27 28  1  0  0  0  0
 28 29  2  0  0  0  0
 29 30  1  0  0  0  0
 31 30  2  0  0  0  0
 32 31  1  0  0  0  0
M  END
>  <Pose>
1

>  <Score>
-7.621

$$$$
