/Users/jonathanwahrer/Desktop/Msc/3_Semester/Drug_Design_Praktikum/waehrer_HTS_screening/HTS_experiment/out/docking_results/vina_output/3e7o/0361_docked.pdbqt
 OpenBabel03192215343D

 33 36  0  0  1  0  0  0  0  0999 V2000
  -42.0760  -66.5560   50.9180 C   0  0  1  0  0  3  0  0  0  0  0  0
  -43.0220  -65.7600   51.7210 N   0  0  0  0  0  0  0  0  0  0  0  0
  -42.2090  -64.7870   52.3680 C   0  0  0  0  0  0  0  0  0  0  0  0
  -42.5140  -64.2130   53.4530 O   0  0  0  0  0  0  0  0  0  0  0  0
  -41.0010  -64.5810   51.5750 C   0  0  0  0  0  0  0  0  0  0  0  0
  -40.0620  -63.7990   51.8280 O   0  0  0  0  0  0  0  0  0  0  0  0
  -41.1380  -65.4750   50.4400 C   0  0  0  0  0  0  0  0  0  0  0  0
  -40.6060  -65.3600   49.2500 C   0  0  0  0  0  0  0  0  0  0  0  0
  -40.8800  -66.2830   48.2510 O   0  0  0  0  0  1  0  0  0  0  0  0
  -41.2840  -67.4580   51.7830 C   0  0  0  0  0  0  0  0  0  0  0  0
  -41.6170  -67.6600   53.1010 C   0  0  0  0  0  3  0  0  0  0  0  0
  -40.8910  -68.5160   53.9280 C   0  0  0  0  0  3  0  0  0  0  0  0
  -39.7960  -69.1970   53.4300 C   0  0  0  0  0  0  0  0  0  0  0  0
  -38.7820  -70.3810   54.5530 Br  0  0  0  0  0  0  0  0  0  0  0  0
  -39.4660  -68.9930   52.1130 C   0  0  0  0  0  3  0  0  0  0  0  0
  -40.1890  -68.1460   51.3070 C   0  0  0  0  0  3  0  0  0  0  0  0
  -39.7050  -64.2720   48.9180 C   0  0  0  0  0  0  0  0  0  0  0  0
  -38.3650  -64.1570   49.0170 N   0  0  0  0  0  0  0  0  0  0  0  0
  -37.9600  -62.9410   48.6210 C   0  0  0  0  0  0  0  0  0  0  0  0
  -37.4050  -65.0330   49.4100 C   0  0  0  0  0  3  0  0  0  0  0  0
  -39.0780  -62.2730   48.2640 N   0  0  0  0  0  0  0  0  0  0  0  0
  -36.6200  -62.5540   48.6030 C   0  0  0  0  0  3  0  0  0  0  0  0
  -40.1490  -63.0260   48.4220 C   0  0  0  0  0  0  0  0  0  0  0  0
  -41.5880  -62.7090   48.1530 C   0  0  0  0  0  1  0  0  0  0  0  0
  -35.6430  -63.4380   49.0020 C   0  0  0  0  0  3  0  0  0  0  0  0
  -36.0770  -64.6810   49.4020 C   0  0  0  0  0  3  0  0  0  0  0  0
  -44.4440  -65.9640   51.8160 C   0  0  0  0  0  2  0  0  0  0  0  0
  -44.9920  -66.7370   52.9500 C   0  0  0  0  0  2  0  0  0  0  0  0
  -45.8040  -66.0750   53.9920 C   0  0  0  0  0  2  0  0  0  0  0  0
  -47.1370  -66.5480   54.2090 N   0  0  0  0  0  4  0  0  0  0  0  0
  -48.0140  -65.7950   53.2660 C   0  0  0  0  0  1  0  0  0  0  0  0
  -47.2500  -67.9240   53.7720 C   0  0  0  0  0  1  0  0  0  0  0  0
  -47.5170  -66.4460   55.1500 H   0  0  0  0  0  0  0  0  0  0  0  0
  1  2  1  0  0  0  0
  1 10  1  1  0  0  0
  2 27  1  0  0  0  0
  2  3  1  0  0  0  0
  3  4  2  0  0  0  0
  5  6  2  0  0  0  0
  5  3  1  0  0  0  0
  7  1  1  0  0  0  0
  7  5  1  0  0  0  0
  8  7  2  0  0  0  0
  9  8  1  0  0  0  0
 10 11  1  0  0  0  0
 11 12  2  0  0  0  0
 13 12  1  0  0  0  0
 13 14  1  0  0  0  0
 15 13  2  0  0  0  0
 16 10  2  0  0  0  0
 16 15  1  0  0  0  0
 17 18  1  0  0  0  0
 17  8  1  0  0  0  0
 18 20  1  0  0  0  0
 19 18  1  0  0  0  0
 21 23  1  0  0  0  0
 21 19  2  0  0  0  0
 22 19  1  0  0  0  0
 22 25  2  0  0  0  0
 23 17  2  0  0  0  0
 24 23  1  0  0  0  0
 25 26  1  0  0  0  0
 26 20  2  0  0  0  0
 27 28  1  0  0  0  0
 28 29  1  0  0  0  0
 29 30  1  0  0  0  0
 30 33  1  0  0  0  0
 31 30  1  0  0  0  0
 32 30  1  0  0  0  0
M  END
>  <Pose>
1

>  <Score>
-8.178

$$$$
