MODEL 1
REMARK VINA RESULT:    -7.075      0.000      0.000
REMARK INTER + INTRA:         -10.895
REMARK INTER:                  -9.557
REMARK INTRA:                  -1.338
REMARK UNBOUND:                -1.338
REMARK  6 active torsions:
REMARK  status: ('A' for Active; 'I' for Inactive)
REMARK    1  A    between atoms: C_5  and  C_8 
REMARK    2  A    between atoms: N_9  and  C_27 
REMARK    3  A    between atoms: C_15  and  C_17 
REMARK    4  A    between atoms: C_27  and  C_28 
REMARK    5  A    between atoms: C_28  and  C_29 
REMARK    6  A    between atoms: C_29  and  N_30 
ROOT
ATOM      1  C   UNK d   1     -38.413 -62.938  48.100  0.00  0.00     0.161 C 
ATOM      2  N   UNK d   1     -37.276 -62.236  47.676  0.00  0.00    -0.332 N 
ATOM      3  C   UNK d   1     -36.282 -62.607  48.669  0.00  0.00     0.295 C 
ATOM      4  O   UNK d   1     -35.252 -61.945  49.038  0.00  0.00    -0.264 OA
ATOM      5  C   UNK d   1     -36.658 -63.911  49.202  0.00  0.00     0.251 C 
ATOM      6  O   UNK d   1     -36.105 -64.639  50.088  0.00  0.00    -0.282 OA
ATOM      7  C   UNK d   1     -37.883 -64.270  48.490  0.00  0.00     0.064 C 
ATOM      8  C   UNK d   1     -38.395 -65.469  48.291  0.00  0.00     0.149 C 
ATOM      9  O   UNK d   1     -39.609 -65.605  47.631  0.00  0.00    -0.189 OA
ENDROOT
BRANCH   1  10
ATOM     10  C   UNK d   1     -39.644 -62.952  47.373  0.00  0.00    -0.030 A 
ATOM     11  C   UNK d   1     -39.695 -62.977  46.009  0.00  0.00     0.011 A 
ATOM     12  C   UNK d   1     -40.912 -62.973  45.359  0.00  0.00     0.019 A 
ATOM     13  C   UNK d   1     -42.111 -62.944  46.045  0.00  0.00     0.011 A 
ATOM     14 Br   UNK d   1     -43.794 -62.938  45.146  0.00  0.00    -0.051 Br
ATOM     15  C   UNK d   1     -42.051 -62.919  47.426  0.00  0.00     0.019 A 
ATOM     16  C   UNK d   1     -40.827 -62.924  48.055  0.00  0.00     0.011 A 
ENDBRANCH   1  10
BRANCH   8  17
ATOM     17  C   UNK d   1     -37.738 -66.689  48.736  0.00  0.00     0.102 A 
ATOM     18  N   UNK d   1     -38.097 -67.499  49.746  0.00  0.00    -0.302 N 
ATOM     19  C   UNK d   1     -37.251 -68.553  49.819  0.00  0.00     0.134 A 
ATOM     20  C   UNK d   1     -39.087 -67.480  50.686  0.00  0.00     0.099 A 
ATOM     21  N   UNK d   1     -36.354 -68.386  48.834  0.00  0.00    -0.233 NA
ATOM     22  C   UNK d   1     -37.379 -69.540  50.772  0.00  0.00     0.051 A 
ATOM     23  C   UNK d   1     -36.611 -67.270  48.154  0.00  0.00     0.063 A 
ATOM     24  C   UNK d   1     -35.897 -66.679  46.992  0.00  0.00     0.073 C 
ATOM     25  C   UNK d   1     -38.387 -69.494  51.706  0.00  0.00     0.005 A 
ATOM     26  C   UNK d   1     -39.256 -68.427  51.648  0.00  0.00     0.018 A 
ENDBRANCH   8  17
BRANCH   2  27
ATOM     27  C   UNK d   1     -36.878 -61.322  46.654  0.00  0.00     0.129 C 
BRANCH  27  28
ATOM     28  C   UNK d   1     -36.117 -61.713  45.487  0.00  0.00     0.048 C 
BRANCH  28  29
ATOM     29  C   UNK d   1     -34.629 -61.455  45.495  0.00  0.00     0.236 C 
BRANCH  29  30
ATOM     30  N   UNK d   1     -33.885 -62.617  45.018  0.00  0.00    -0.067 N 
ATOM     31  C   UNK d   1     -34.108 -63.807  45.785  0.00  0.00     0.261 C 
ATOM     32  C   UNK d   1     -33.200 -63.971  46.968  0.00  0.00     0.195 C 
ATOM     33  O   UNK d   1     -32.522 -62.830  47.305  0.00  0.00    -0.388 OA
ATOM     34  C   UNK d   1     -31.833 -62.231  46.283  0.00  0.00     0.195 C 
ATOM     35  C   UNK d   1     -32.478 -62.367  44.943  0.00  0.00     0.261 C 
ATOM     36  H   UNK d   1     -34.239 -62.810  44.048  0.00  0.00     0.280 HD
ENDBRANCH  29  30
ENDBRANCH  28  29
ENDBRANCH  27  28
ENDBRANCH   2  27
TORSDOF 6
ENDMDL
