MODEL 1
REMARK VINA RESULT:    -8.196      0.000      0.000
REMARK INTER + INTRA:         -11.067
REMARK INTER:                 -10.113
REMARK INTRA:                  -0.954
REMARK UNBOUND:                -0.954
REMARK  4 active torsions:
REMARK  status: ('A' for Active; 'I' for Inactive)
REMARK    1  A    between atoms: C_5  and  N_8 
REMARK       I    between atoms: N_8  and  C_9 
REMARK    2  A    between atoms: C_9  and  C_11 
REMARK    3  A    between atoms: C_11  and  N_12 
REMARK    4  A    between atoms: N_19  and  C_22 
ROOT
ATOM      1  N   UNK d   1     -36.009 -69.231  51.192  0.00  0.00    -0.261 N 
ATOM      2  N   UNK d   1     -34.857 -69.447  51.827  0.00  0.00    -0.239 N 
ATOM      3  N   UNK d   1     -34.037 -68.448  51.596  0.00  0.00    -0.279 N 
ATOM      4  C   UNK d   1     -34.664 -67.555  50.794  0.00  0.00     0.152 A 
ATOM      5  C   UNK d   1     -35.883 -68.054  50.554  0.00  0.00     0.155 A 
ATOM      6  C   UNK d   1     -36.486 -67.121  49.738  0.00  0.00     0.286 A 
ATOM      7  O   UNK d   1     -37.668 -67.260  49.301  0.00  0.00    -0.265 OA
ATOM      8  N   UNK d   1     -35.679 -66.081  49.478  0.00  0.00    -0.241 N 
ATOM      9  C   UNK d   1     -34.521 -66.351  50.145  0.00  0.00     0.286 A 
ATOM     10  O   UNK d   1     -33.525 -65.578  50.125  0.00  0.00    -0.265 OA
ATOM     11  H   UNK d   1     -34.678 -70.293  52.407  0.00  0.00     0.208 HD
ATOM     12  H   UNK d   1     -33.056 -68.311  51.946  0.00  0.00     0.189 HD
ENDROOT
BRANCH   1  13
ATOM     13  C   UNK d   1     -37.144 -70.131  51.224  0.00  0.00     0.254 C 
BRANCH  13  14
ATOM     14  C   UNK d   1     -38.204 -69.541  52.139  0.00  0.00     0.242 C 
ATOM     15  N   UNK d   1     -39.260 -68.796  51.597  0.00  0.00    -0.326 N 
ATOM     16  H   UNK d   1     -39.291 -68.655  50.538  0.00  0.00     0.169 HD
ATOM     17  O   UNK d   1     -38.114 -69.730  53.370  0.00  0.00    -0.271 OA
BRANCH  15  18
ATOM     18  C   UNK d   1     -40.314 -68.197  52.324  0.00  0.00     0.034 A 
ATOM     19  C   UNK d   1     -40.988 -68.776  53.378  0.00  0.00     0.031 A 
ATOM     20  C   UNK d   1     -42.002 -68.134  54.076  0.00  0.00     0.021 A 
ATOM     21  C   UNK d   1     -42.382 -66.862  53.733  0.00  0.00     0.011 A 
ATOM     22 Br   UNK d   1     -43.760 -65.924  54.646  0.00  0.00    -0.051 Br
ATOM     23  C   UNK d   1     -41.723 -66.263  52.683  0.00  0.00     0.021 A 
ATOM     24  C   UNK d   1     -40.732 -66.892  52.000  0.00  0.00     0.031 A 
ENDBRANCH  15  18
ENDBRANCH  13  14
ENDBRANCH   1  13
BRANCH   8  25
ATOM     25  C   UNK d   1     -35.937 -64.917  48.680  0.00  0.00     0.046 A 
ATOM     26  C   UNK d   1     -36.417 -63.758  49.251  0.00  0.00     0.031 A 
ATOM     27  C   UNK d   1     -36.658 -62.630  48.492  0.00  0.00     0.009 A 
ATOM     28  C   UNK d   1     -36.434 -62.604  47.127  0.00  0.00    -0.062 A 
ATOM     29  C   UNK d   1     -35.954 -63.762  46.553  0.00  0.00     0.009 A 
ATOM     30  C   UNK d   1     -36.700 -61.370  46.339  0.00  0.00     0.048 C 
ATOM     31  C   UNK d   1     -35.713 -64.890  47.320  0.00  0.00     0.031 A 
ENDBRANCH   8  25
TORSDOF 4
ENDMDL
