MODEL 1
REMARK VINA RESULT:    -8.449      0.000      0.000
REMARK INTER + INTRA:         -10.701
REMARK INTER:                 -10.178
REMARK INTRA:                  -0.523
REMARK UNBOUND:                -0.523
REMARK  4 active torsions:
REMARK  status: ('A' for Active; 'I' for Inactive)
REMARK    1  A    between atoms: C_5  and  N_8 
REMARK       I    between atoms: N_8  and  C_9 
REMARK    2  A    between atoms: C_9  and  C_11 
REMARK    3  A    between atoms: C_18  and  N_23 
REMARK    4  A    between atoms: C_20  and  N_22 
ROOT
ATOM      1  C   UNK d   1     -40.745 -68.664  52.256  0.00  0.00     0.127 C 
ATOM      2  C   UNK d   1     -40.546 -69.856  53.144  0.00  0.00     0.122 C 
ATOM      3  C   UNK d   1     -39.151 -70.102  53.533  0.00  0.00     0.224 C 
ATOM      4  O   UNK d   1     -38.937 -70.638  54.654  0.00  0.00    -0.273 OA
ATOM      5  N   UNK d   1     -38.094 -69.739  52.664  0.00  0.00    -0.310 N 
ATOM      6  C   UNK d   1     -38.334 -68.856  51.589  0.00  0.00     0.160 A 
ATOM      7  N   UNK d   1     -37.299 -68.530  50.753  0.00  0.00    -0.044 NA
ATOM      8  C   UNK d   1     -37.458 -67.713  49.710  0.00  0.00     0.728 A 
ATOM      9  N   UNK d   1     -38.680 -67.208  49.497  0.00  0.00    -0.045 NA
ATOM     10  C   UNK d   1     -39.745 -67.499  50.300  0.00  0.00     0.151 A 
ATOM     11  C   UNK d   1     -39.607 -68.342  51.385  0.00  0.00     0.048 A 
ATOM     12  H   UNK d   1     -37.110 -70.115  52.795  0.00  0.00     0.170 HD
ENDROOT
BRANCH   1  13
ATOM     13  C   UNK d   1     -41.083 -67.500  53.212  0.00  0.00     0.231 C 
ATOM     14  N   UNK d   1     -42.297 -66.977  53.206  0.00  0.00    -0.327 N 
ATOM     15  H   UNK d   1     -41.879 -65.987  54.044  0.00  0.00     0.169 HD
ATOM     16  O   UNK d   1     -40.038 -67.203  53.917  0.00  0.00    -0.272 OA
BRANCH  14  17
ATOM     17  C   UNK d   1     -43.557 -66.433  53.202  0.00  0.00     0.034 A 
ATOM     18  C   UNK d   1     -43.665 -65.085  52.733  0.00  0.00     0.031 A 
ATOM     19  C   UNK d   1     -44.859 -64.471  52.615  0.00  0.00     0.021 A 
ATOM     20  C   UNK d   1     -46.030 -65.110  52.941  0.00  0.00     0.011 A 
ATOM     21 Br   UNK d   1     -47.723 -64.223  52.760  0.00  0.00    -0.051 Br
ATOM     22  C   UNK d   1     -45.970 -66.408  53.398  0.00  0.00     0.021 A 
ATOM     23  C   UNK d   1     -44.755 -67.035  53.517  0.00  0.00     0.031 A 
ENDBRANCH  14  17
ENDBRANCH   1  13
BRANCH  10  24
ATOM     24  N   UNK d   1     -41.022 -66.927  50.038  0.00  0.00    -0.383 N 
ATOM     25  H   UNK d   1     -41.403 -66.136  50.567  0.00  0.00     0.157 HD
ATOM     26  H   UNK d   1     -41.607 -67.340  49.268  0.00  0.00     0.157 HD
ENDBRANCH  10  24
BRANCH   8  27
ATOM     27  N   UNK d   1     -36.349 -67.381  48.843  0.00  0.00    -0.210 N 
ATOM     28  C   UNK d   1     -35.317 -66.574  49.393  0.00  0.00     0.167 C 
ATOM     29  C   UNK d   1     -34.020 -66.631  48.639  0.00  0.00     0.188 C 
ATOM     30  O   UNK d   1     -34.054 -67.543  47.590  0.00  0.00    -0.388 OA
ATOM     31  C   UNK d   1     -35.158 -67.348  46.771  0.00  0.00     0.188 C 
ATOM     32  C   UNK d   1     -36.365 -67.893  47.489  0.00  0.00     0.167 C 
ENDBRANCH   8  27
TORSDOF 4
ENDMDL
