MODEL 1
REMARK VINA RESULT:    -7.639      0.000      0.000
REMARK INTER + INTRA:          -9.687
REMARK INTER:                  -8.979
REMARK INTRA:                  -0.709
REMARK UNBOUND:                -0.709
REMARK  3 active torsions:
REMARK  status: ('A' for Active; 'I' for Inactive)
REMARK    1  A    between atoms: C_5  and  N_8 
REMARK    2  A    between atoms: C_11  and  C_18 
REMARK    3  A    between atoms: C_12  and  N_13 
REMARK       I    between atoms: C_18  and  N_20 
ROOT
ATOM      1  N   UNK d   1     -38.895 -67.914  50.990  0.00  0.00    -0.216 N 
ATOM      2  N   UNK d   1     -38.111 -68.943  51.198  0.00  0.00    -0.177 NA
ATOM      3  C   UNK d   1     -37.106 -69.015  50.302  0.00  0.00     0.160 A 
ATOM      4  C   UNK d   1     -37.274 -67.945  49.466  0.00  0.00     0.097 A 
ATOM      5  C   UNK d   1     -38.393 -67.275  49.913  0.00  0.00     0.153 A 
ENDROOT
BRANCH   4   6
ATOM      6  C   UNK d   1     -36.413 -67.618  48.336  0.00  0.00     0.259 C 
ATOM      7  O   UNK d   1     -36.486 -68.376  47.339  0.00  0.00    -0.267 OA
ATOM      8  N   UNK d   1     -35.530 -66.516  48.322  0.00  0.00    -0.338 N 
ATOM      9  C   UNK d   1     -34.721 -66.281  47.151  0.00  0.00     0.146 C 
ATOM     10  C   UNK d   1     -35.357 -65.576  49.406  0.00  0.00     0.228 C 
ATOM     11  C   UNK d   1     -35.184 -65.004  46.517  0.00  0.00     0.142 C 
ATOM     12  N   UNK d   1     -35.902 -64.150  47.457  0.00  0.00    -0.358 N 
ATOM     13  C   UNK d   1     -35.727 -64.246  48.867  0.00  0.00     0.235 C 
ATOM     14  H   UNK d   1     -36.578 -63.436  47.052  0.00  0.00     0.162 HD
ATOM     15  O   UNK d   1     -35.887 -63.230  49.586  0.00  0.00    -0.272 OA
ENDBRANCH   4   6
BRANCH   5  16
ATOM     16  N   UNK d   1     -38.956 -66.076  49.334  0.00  0.00    -0.317 N 
ATOM     17  C   UNK d   1     -38.996 -64.855  49.847  0.00  0.00     0.098 A 
ATOM     18  C   UNK d   1     -39.620 -63.988  48.981  0.00  0.00     0.019 A 
ATOM     19  C   UNK d   1     -39.967 -64.749  47.891  0.00  0.00     0.019 A 
ATOM     20  C   UNK d   1     -39.547 -66.039  48.129  0.00  0.00     0.098 A 
ENDBRANCH   5  16
BRANCH   1  21
ATOM     21  C   UNK d   1     -40.043 -67.570  51.769  0.00  0.00     0.060 A 
ATOM     22  C   UNK d   1     -41.177 -67.020  51.201  0.00  0.00     0.033 A 
ATOM     23  C   UNK d   1     -42.297 -66.680  51.932  0.00  0.00     0.021 A 
ATOM     24  C   UNK d   1     -42.312 -66.886  53.295  0.00  0.00     0.011 A 
ATOM     25 Br   UNK d   1     -43.853 -66.422  54.330  0.00  0.00    -0.051 Br
ATOM     26  C   UNK d   1     -41.186 -67.434  53.882  0.00  0.00     0.021 A 
ATOM     27  C   UNK d   1     -40.073 -67.770  53.137  0.00  0.00     0.033 A 
ENDBRANCH   1  21
TORSDOF 3
ENDMDL
