MODEL 1
REMARK VINA RESULT:    -8.619      0.000      0.000
REMARK INTER + INTRA:         -10.000
REMARK INTER:                 -10.131
REMARK INTRA:                   0.131
REMARK UNBOUND:                 0.131
REMARK  3 active torsions:
REMARK  status: ('A' for Active; 'I' for Inactive)
REMARK    1  A    between atoms: C_5  and  N_8 
REMARK    2  A    between atoms: C_11  and  N_15 
REMARK    3  A    between atoms: N_18  and  C_21 
ROOT
ATOM      1  N   UNK d   1     -43.387 -66.358  52.977  0.00  0.00    -0.251 N 
ATOM      2  C   UNK d   1     -42.528 -67.180  53.759  0.00  0.00     0.262 C 
ATOM      3  O   UNK d   1     -42.877 -67.824  54.771  0.00  0.00    -0.270 OA
ATOM      4  C   UNK d   1     -41.158 -67.181  53.224  0.00  0.00     0.289 C 
ATOM      5  C   UNK d   1     -41.117 -65.867  52.453  0.00  0.00     0.146 C 
ATOM      6  C   UNK d   1     -42.539 -65.708  52.011  0.00  0.00     0.233 C 
ATOM      7  O   UNK d   1     -42.822 -65.095  50.965  0.00  0.00    -0.273 OA
ENDROOT
BRANCH   4   8
ATOM      8  N   UNK d   1     -40.839 -68.286  52.348  0.00  0.00    -0.055 N 
ATOM      9  C   UNK d   1     -40.671 -67.871  50.976  0.00  0.00     0.255 C 
ATOM     10  C   UNK d   1     -39.232 -67.664  50.558  0.00  0.00     0.150 C 
ATOM     11  N   UNK d   1     -38.375 -68.689  51.098  0.00  0.00    -0.378 N 
ATOM     12  C   UNK d   1     -39.078 -69.799  51.698  0.00  0.00     0.150 C 
ATOM     13  C   UNK d   1     -39.853 -69.163  52.867  0.00  0.00     0.255 C 
ATOM     14  H   UNK d   1     -41.751 -68.857  52.326  0.00  0.00     0.281 HD
BRANCH  11  15
ATOM     15  C   UNK d   1     -36.978 -68.630  51.077  0.00  0.00     0.030 A 
ATOM     16  C   UNK d   1     -36.226 -67.736  50.342  0.00  0.00     0.032 A 
ATOM     17  C   UNK d   1     -34.840 -67.737  50.338  0.00  0.00     0.042 A 
ATOM     18  C   UNK d   1     -34.153 -68.656  51.085  0.00  0.00     0.107 A 
ATOM     19  C   UNK d   1     -34.855 -69.575  51.838  0.00  0.00     0.042 A 
ATOM     20  O   UNK d   1     -32.759 -68.712  51.125  0.00  0.00    -0.192 OA
ATOM     21  C   UNK d   1     -36.238 -69.553  51.826  0.00  0.00     0.032 A 
ENDBRANCH  11  15
ENDBRANCH   4   8
BRANCH   1  22
ATOM     22  C   UNK d   1     -44.801 -66.180  53.080  0.00  0.00     0.045 A 
ATOM     23  C   UNK d   1     -45.651 -67.243  53.187  0.00  0.00     0.031 A 
ATOM     24  C   UNK d   1     -47.035 -67.064  53.285  0.00  0.00     0.021 A 
ATOM     25  C   UNK d   1     -47.594 -65.815  53.279  0.00  0.00     0.011 A 
ATOM     26 Br   UNK d   1     -49.487 -65.561  53.415  0.00  0.00    -0.051 Br
ATOM     27  C   UNK d   1     -46.741 -64.741  53.173  0.00  0.00     0.021 A 
ATOM     28  C   UNK d   1     -45.355 -64.932  53.074  0.00  0.00     0.031 A 
ENDBRANCH   1  22
TORSDOF 3
ENDMDL
