MODEL 1
REMARK VINA RESULT:    -7.680      0.000      0.000
REMARK INTER + INTRA:         -10.647
REMARK INTER:                  -9.476
REMARK INTRA:                  -1.170
REMARK UNBOUND:                -1.170
REMARK  4 active torsions:
REMARK  status: ('A' for Active; 'I' for Inactive)
REMARK    1  A    between atoms: C_5  and  N_8 
REMARK    2  A    between atoms: C_11  and  N_15 
REMARK    3  A    between atoms: C_18  and  N_21 
REMARK    4  A    between atoms: C_18  and  C_27 
REMARK       I    between atoms: C_27  and  N_29 
ROOT
ATOM      1  N   UNK d   1     -38.512 -64.896  47.533  0.00  0.00    -0.399 N 
ATOM      2  C   UNK d   1     -38.709 -66.186  48.059  0.00  0.00     0.120 C 
ATOM      3  C   UNK d   1     -37.595 -67.103  47.538  0.00  0.00     0.060 C 
ATOM      4  C   UNK d   1     -36.250 -66.706  48.105  0.00  0.00     0.112 C 
ATOM      5  C   UNK d   1     -36.134 -65.235  48.122  0.00  0.00     0.060 C 
ATOM      6  C   UNK d   1     -37.166 -64.575  47.243  0.00  0.00     0.120 C 
ENDROOT
BRANCH   1   7
ATOM      7  C   UNK d   1     -39.340 -63.842  47.960  0.00  0.00     0.181 C 
ATOM      8  C   UNK d   1     -39.572 -63.949  49.423  0.00  0.00     0.254 C 
ATOM      9  N   UNK d   1     -40.948 -64.291  49.621  0.00  0.00    -0.251 N 
ATOM     10  O   UNK d   1     -38.694 -63.766  50.301  0.00  0.00    -0.270 OA
ATOM     11  C   UNK d   1     -41.624 -63.793  48.473  0.00  0.00     0.233 C 
ATOM     12  C   UNK d   1     -40.703 -63.820  47.305  0.00  0.00     0.138 C 
ATOM     13  O   UNK d   1     -42.840 -63.389  48.468  0.00  0.00    -0.273 OA
BRANCH   9  14
ATOM     14  C   UNK d   1     -41.505 -64.984  50.740  0.00  0.00     0.045 A 
ATOM     15  C   UNK d   1     -41.153 -66.285  50.984  0.00  0.00     0.031 A 
ATOM     16  C   UNK d   1     -41.687 -66.980  52.076  0.00  0.00     0.021 A 
ATOM     17  C   UNK d   1     -42.580 -66.392  52.942  0.00  0.00     0.011 A 
ATOM     18 Br   UNK d   1     -43.316 -67.331  54.437  0.00  0.00    -0.051 Br
ATOM     19  C   UNK d   1     -42.935 -65.083  52.697  0.00  0.00     0.021 A 
ATOM     20  C   UNK d   1     -42.399 -64.405  51.614  0.00  0.00     0.031 A 
ENDBRANCH   9  14
ENDBRANCH   1   7
BRANCH   4  21
ATOM     21  N   UNK d   1     -36.070 -67.371  49.329  0.00  0.00    -0.396 N 
ATOM     22  C   UNK d   1     -35.388 -66.713  50.363  0.00  0.00     0.118 C 
ATOM     23  C   UNK d   1     -34.230 -67.635  50.787  0.00  0.00     0.019 C 
ATOM     24  C   UNK d   1     -34.883 -68.868  51.377  0.00  0.00     0.003 C 
ATOM     25  C   UNK d   1     -36.326 -69.006  51.020  0.00  0.00     0.019 C 
ATOM     26  C   UNK d   1     -36.620 -68.617  49.564  0.00  0.00     0.118 C 
ENDBRANCH   4  21
BRANCH   4  27
ATOM     27  C   UNK d   1     -35.233 -67.248  47.136  0.00  0.00     0.243 C 
ATOM     28  O   UNK d   1     -34.046 -67.468  47.524  0.00  0.00    -0.271 OA
ATOM     29  N   UNK d   1     -35.536 -67.534  45.784  0.00  0.00    -0.368 N 
ATOM     30  H   UNK d   1     -35.055 -67.021  45.035  0.00  0.00     0.159 HD
ATOM     31  H   UNK d   1     -36.238 -68.258  45.535  0.00  0.00     0.159 HD
ENDBRANCH   4  27
TORSDOF 4
ENDMDL
