MODEL 1
REMARK VINA RESULT:    -8.587      0.000      0.000
REMARK INTER + INTRA:         -11.576
REMARK INTER:                 -10.595
REMARK INTRA:                  -0.981
REMARK UNBOUND:                -0.981
REMARK  4 active torsions:
REMARK  status: ('A' for Active; 'I' for Inactive)
REMARK    1  A    between atoms: C_5  and  N_8 
REMARK    2  A    between atoms: N_15  and  C_16 
REMARK    3  A    between atoms: C_16  and  C_17 
REMARK       I    between atoms: C_17  and  N_19 
REMARK    4  A    between atoms: N_19  and  C_20 
ROOT
ATOM      1  N   UNK d   1     -44.982 -63.860  50.921  0.00  0.00    -0.241 N 
ATOM      2  C   UNK d   1     -44.231 -64.224  51.974  0.00  0.00     0.286 A 
ATOM      3  O   UNK d   1     -43.065 -63.774  52.197  0.00  0.00    -0.265 OA
ATOM      4  C   UNK d   1     -44.904 -65.149  52.773  0.00  0.00     0.155 A 
ATOM      5  C   UNK d   1     -46.080 -65.338  52.181  0.00  0.00     0.152 A 
ATOM      6  N   UNK d   1     -46.709 -66.231  52.966  0.00  0.00    -0.279 N 
ATOM      7  N   UNK d   1     -45.942 -66.565  53.990  0.00  0.00    -0.239 N 
ATOM      8  N   UNK d   1     -44.818 -65.898  53.879  0.00  0.00    -0.261 N 
ATOM      9  C   UNK d   1     -46.136 -64.554  51.046  0.00  0.00     0.286 A 
ATOM     10  O   UNK d   1     -47.084 -64.467  50.235  0.00  0.00    -0.265 OA
ATOM     11  H   UNK d   1     -47.677 -66.572  52.736  0.00  0.00     0.189 HD
ATOM     12  H   UNK d   1     -46.237 -67.247  54.726  0.00  0.00     0.208 HD
ENDROOT
BRANCH   8  13
ATOM     13  C   UNK d   1     -43.685 -65.943  54.767  0.00  0.00     0.254 C 
BRANCH  13  14
ATOM     14  C   UNK d   1     -42.842 -67.164  54.538  0.00  0.00     0.242 C 
ATOM     15  O   UNK d   1     -43.416 -68.247  54.802  0.00  0.00    -0.271 OA
ATOM     16  N   UNK d   1     -41.528 -67.093  54.068  0.00  0.00    -0.325 N 
ATOM     17  H   UNK d   1     -41.175 -66.094  53.887  0.00  0.00     0.169 HD
BRANCH  16  18
ATOM     18  C   UNK d   1     -40.658 -68.161  53.820  0.00  0.00     0.040 A 
ATOM     19  C   UNK d   1     -40.283 -68.387  52.486  0.00  0.00    -0.035 A 
ATOM     20  C   UNK d   1     -39.431 -69.423  52.197  0.00  0.00     0.009 A 
ATOM     21  C   UNK d   1     -40.786 -67.535  51.391  0.00  0.00     0.050 C 
ATOM     22  C   UNK d   1     -38.918 -70.263  53.163  0.00  0.00     0.001 A 
ATOM     23  C   UNK d   1     -39.278 -70.050  54.461  0.00  0.00     0.002 A 
ATOM     24  C   UNK d   1     -40.134 -69.012  54.763  0.00  0.00     0.030 A 
ENDBRANCH  16  18
ENDBRANCH  13  14
ENDBRANCH   8  13
BRANCH   1  25
ATOM     25  C   UNK d   1     -44.639 -62.940  49.888  0.00  0.00     0.046 A 
ATOM     26  C   UNK d   1     -45.261 -61.705  49.812  0.00  0.00     0.031 A 
ATOM     27  C   UNK d   1     -44.944 -60.797  48.819  0.00  0.00     0.021 A 
ATOM     28  C   UNK d   1     -43.994 -61.087  47.864  0.00  0.00     0.011 A 
ATOM     29 Br   UNK d   1     -43.556 -59.823  46.486  0.00  0.00    -0.051 Br
ATOM     30  C   UNK d   1     -43.369 -62.312  47.930  0.00  0.00     0.021 A 
ATOM     31  C   UNK d   1     -43.691 -63.210  48.922  0.00  0.00     0.031 A 
ENDBRANCH   1  25
TORSDOF 4
ENDMDL
