/Users/jonathanwahrer/Desktop/Msc/3_Semester/Drug_Design_Praktikum/waehrer_HTS_screening/HTS_experiment/out/docking_results/vina_output/3e7o/0408_docked.pdbqt
 OpenBabel03192215373D

 31 34  0  0  0  0  0  0  0  0999 V2000
  -44.9820  -63.8600   50.9210 N   0  0  0  0  0  0  0  0  0  0  0  0
  -44.2310  -64.2240   51.9740 C   0  0  0  0  0  0  0  0  0  0  0  0
  -43.0650  -63.7740   52.1970 O   0  0  0  0  0  0  0  0  0  0  0  0
  -44.9040  -65.1490   52.7730 C   0  0  0  0  0  0  0  0  0  0  0  0
  -46.0800  -65.3380   52.1810 C   0  0  0  0  0  0  0  0  0  0  0  0
  -46.7090  -66.2310   52.9660 N   0  0  0  0  0  0  0  0  0  0  0  0
  -45.9420  -66.5650   53.9900 N   0  0  0  0  0  0  0  0  0  0  0  0
  -44.8180  -65.8980   53.8790 N   0  0  0  0  0  0  0  0  0  0  0  0
  -46.1360  -64.5540   51.0460 C   0  0  0  0  0  0  0  0  0  0  0  0
  -47.0840  -64.4670   50.2350 O   0  0  0  0  0  0  0  0  0  0  0  0
  -47.6770  -66.5720   52.7360 H   0  0  0  0  0  0  0  0  0  0  0  0
  -46.2370  -67.2470   54.7260 H   0  0  0  0  0  0  0  0  0  0  0  0
  -43.6850  -65.9430   54.7670 C   0  0  0  0  0  2  0  0  0  0  0  0
  -42.8420  -67.1640   54.5380 C   0  0  0  0  0  0  0  0  0  0  0  0
  -43.4160  -68.2470   54.8020 O   0  0  0  0  0  0  0  0  0  0  0  0
  -41.5280  -67.0930   54.0680 N   0  0  0  0  0  0  0  0  0  0  0  0
  -41.1750  -66.0940   53.8870 H   0  0  0  0  0  0  0  0  0  0  0  0
  -40.6580  -68.1610   53.8200 C   0  0  0  0  0  0  0  0  0  0  0  0
  -40.2830  -68.3870   52.4860 C   0  0  0  0  0  0  0  0  0  0  0  0
  -39.4310  -69.4230   52.1970 C   0  0  0  0  0  3  0  0  0  0  0  0
  -40.7860  -67.5350   51.3910 C   0  0  0  0  0  1  0  0  0  0  0  0
  -38.9180  -70.2630   53.1630 C   0  0  0  0  0  3  0  0  0  0  0  0
  -39.2780  -70.0500   54.4610 C   0  0  0  0  0  3  0  0  0  0  0  0
  -40.1340  -69.0120   54.7630 C   0  0  0  0  0  3  0  0  0  0  0  0
  -44.6390  -62.9400   49.8880 C   0  0  0  0  0  0  0  0  0  0  0  0
  -45.2610  -61.7050   49.8120 C   0  0  0  0  0  3  0  0  0  0  0  0
  -44.9440  -60.7970   48.8190 C   0  0  0  0  0  3  0  0  0  0  0  0
  -43.9940  -61.0870   47.8640 C   0  0  0  0  0  0  0  0  0  0  0  0
  -43.5560  -59.8230   46.4860 Br  0  0  0  0  0  0  0  0  0  0  0  0
  -43.3690  -62.3120   47.9300 C   0  0  0  0  0  3  0  0  0  0  0  0
  -43.6910  -63.2100   48.9220 C   0  0  0  0  0  3  0  0  0  0  0  0
  1  9  1  0  0  0  0
  1  2  1  0  0  0  0
  2  3  2  0  0  0  0
  2  4  1  0  0  0  0
  4  8  1  0  0  0  0
  5  4  2  0  0  0  0
  5  6  1  0  0  0  0
  6  7  1  0  0  0  0
  7 12  1  0  0  0  0
  8  7  1  0  0  0  0
  8 13  1  0  0  0  0
  9  5  1  0  0  0  0
 10  9  2  0  0  0  0
 11  6  1  0  0  0  0
 14 13  1  0  0  0  0
 14 15  2  0  0  0  0
 16 14  1  0  0  0  0
 17 16  1  0  0  0  0
 18 16  1  0  0  0  0
 18 24  1  0  0  0  0
 19 18  2  0  0  0  0
 20 19  1  0  0  0  0
 20 22  2  0  0  0  0
 21 19  1  0  0  0  0
 22 23  1  0  0  0  0
 23 24  2  0  0  0  0
 25  1  1  0  0  0  0
 26 25  1  0  0  0  0
 27 26  2  0  0  0  0
 28 30  2  0  0  0  0
 28 27  1  0  0  0  0
 29 28  1  0  0  0  0
 30 31  1  0  0  0  0
 31 25  2  0  0  0  0
M  END
>  <Pose>
1

>  <Score>
-8.587

$$$$
