MODEL 1
REMARK VINA RESULT:    -8.013      0.000      0.000
REMARK INTER + INTRA:         -11.870
REMARK INTER:                 -10.824
REMARK INTRA:                  -1.046
REMARK UNBOUND:                -1.046
REMARK  6 active torsions:
REMARK  status: ('A' for Active; 'I' for Inactive)
REMARK    1  A    between atoms: C_5  and  N_8 
REMARK    2  A    between atoms: N_15  and  C_16 
REMARK    3  A    between atoms: C_16  and  C_17 
REMARK       I    between atoms: C_17  and  N_19 
REMARK    4  A    between atoms: N_19  and  C_20 
REMARK    5  A    between atoms: C_22  and  O_28 
REMARK    6  A    between atoms: C_23  and  O_26 
ROOT
ATOM      1  N   UNK d   1     -35.823 -66.240  49.556  0.00  0.00    -0.241 N 
ATOM      2  C   UNK d   1     -36.738 -67.195  49.791  0.00  0.00     0.286 A 
ATOM      3  O   UNK d   1     -37.910 -67.132  49.340  0.00  0.00    -0.265 OA
ATOM      4  C   UNK d   1     -36.211 -68.211  50.570  0.00  0.00     0.155 A 
ATOM      5  C   UNK d   1     -34.953 -67.867  50.812  0.00  0.00     0.152 A 
ATOM      6  N   UNK d   1     -34.443 -68.852  51.567  0.00  0.00    -0.279 N 
ATOM      7  N   UNK d   1     -35.365 -69.773  51.780  0.00  0.00    -0.239 N 
ATOM      8  N   UNK d   1     -36.460 -69.398  51.175  0.00  0.00    -0.261 N 
ATOM      9  C   UNK d   1     -34.708 -66.658  50.194  0.00  0.00     0.286 A 
ATOM     10  O   UNK d   1     -33.598 -66.029  50.217  0.00  0.00    -0.265 OA
ATOM     11  H   UNK d   1     -33.477 -68.915  51.945  0.00  0.00     0.189 HD
ATOM     12  H   UNK d   1     -35.262 -70.671  52.341  0.00  0.00     0.208 HD
ENDROOT
BRANCH   8  13
ATOM     13  C   UNK d   1     -37.726 -70.090  51.133  0.00  0.00     0.254 C 
BRANCH  13  14
ATOM     14  C   UNK d   1     -38.708 -69.380  52.037  0.00  0.00     0.242 C 
ATOM     15  O   UNK d   1     -38.585 -69.492  53.277  0.00  0.00    -0.271 OA
ATOM     16  N   UNK d   1     -39.741 -68.608  51.486  0.00  0.00    -0.326 N 
ATOM     17  H   UNK d   1     -39.784 -68.558  50.417  0.00  0.00     0.169 HD
BRANCH  16  18
ATOM     18  C   UNK d   1     -40.715 -67.894  52.212  0.00  0.00     0.037 A 
ATOM     19  C   UNK d   1     -41.096 -66.596  51.986  0.00  0.00     0.069 A 
ATOM     20  C   UNK d   1     -42.047 -65.946  52.745  0.00  0.00     0.103 A 
ATOM     21  C   UNK d   1     -42.637 -66.642  53.779  0.00  0.00     0.101 A 
ATOM     22  C   UNK d   1     -42.281 -67.955  54.040  0.00  0.00     0.042 A 
ATOM     23  C   UNK d   1     -41.334 -68.579  53.275  0.00  0.00     0.032 A 
BRANCH  20  24
ATOM     24  O   UNK d   1     -42.414 -64.626  52.491  0.00  0.00    -0.353 OA
ATOM     25  C   UNK d   1     -43.338 -64.390  51.421  0.00  0.00     0.210 C 
ENDBRANCH  20  24
BRANCH  21  26
ATOM     26  O   UNK d   1     -43.599 -66.004  54.558  0.00  0.00    -0.353 OA
ATOM     27  C   UNK d   1     -44.966 -66.166  54.234  0.00  0.00     0.210 C 
ENDBRANCH  21  26
ENDBRANCH  16  18
ENDBRANCH  13  14
ENDBRANCH   8  13
BRANCH   1  28
ATOM     28  C   UNK d   1     -35.931 -65.031  48.812  0.00  0.00     0.046 A 
ATOM     29  C   UNK d   1     -36.216 -63.814  49.395  0.00  0.00     0.031 A 
ATOM     30  C   UNK d   1     -36.315 -62.652  48.637  0.00  0.00     0.021 A 
ATOM     31  C   UNK d   1     -36.131 -62.676  47.268  0.00  0.00     0.011 A 
ATOM     32 Br   UNK d   1     -36.266 -61.081  46.218  0.00  0.00    -0.051 Br
ATOM     33  C   UNK d   1     -35.847 -63.898  46.693  0.00  0.00     0.021 A 
ATOM     34  C   UNK d   1     -35.749 -65.050  47.447  0.00  0.00     0.031 A 
ENDBRANCH   1  28
TORSDOF 6
ENDMDL
