MODEL 1
REMARK VINA RESULT:    -7.877      0.000      0.000
REMARK INTER + INTRA:         -11.496
REMARK INTER:                 -10.640
REMARK INTRA:                  -0.855
REMARK UNBOUND:                -0.855
REMARK  6 active torsions:
REMARK  status: ('A' for Active; 'I' for Inactive)
REMARK    1  A    between atoms: C_5  and  N_8 
REMARK    2  A    between atoms: N_15  and  C_16 
REMARK    3  A    between atoms: C_16  and  C_17 
REMARK       I    between atoms: C_17  and  N_19 
REMARK    4  A    between atoms: N_19  and  C_20 
REMARK    5  A    between atoms: C_22  and  O_28 
REMARK    6  A    between atoms: C_24  and  O_26 
ROOT
ATOM      1  N   UNK d   1     -37.019 -64.153  48.549  0.00  0.00    -0.241 N 
ATOM      2  C   UNK d   1     -38.252 -64.587  48.820  0.00  0.00     0.286 A 
ATOM      3  O   UNK d   1     -38.526 -65.778  49.190  0.00  0.00    -0.265 OA
ATOM      4  C   UNK d   1     -39.220 -63.623  48.661  0.00  0.00     0.155 A 
ATOM      5  C   UNK d   1     -38.533 -62.532  48.269  0.00  0.00     0.152 A 
ATOM      6  N   UNK d   1     -39.466 -61.563  48.105  0.00  0.00    -0.279 N 
ATOM      7  N   UNK d   1     -40.667 -62.037  48.385  0.00  0.00    -0.239 N 
ATOM      8  N   UNK d   1     -40.521 -63.301  48.727  0.00  0.00    -0.261 N 
ATOM      9  C   UNK d   1     -37.195 -62.842  48.197  0.00  0.00     0.286 A 
ATOM     10  O   UNK d   1     -36.238 -62.099  47.871  0.00  0.00    -0.265 OA
ATOM     11  H   UNK d   1     -39.240 -60.589  47.798  0.00  0.00     0.189 HD
ATOM     12  H   UNK d   1     -41.544 -61.454  48.322  0.00  0.00     0.208 HD
ENDROOT
BRANCH   8  13
ATOM     13  C   UNK d   1     -41.595 -64.173  49.109  0.00  0.00     0.254 C 
BRANCH  13  14
ATOM     14  C   UNK d   1     -41.356 -64.891  50.358  0.00  0.00     0.242 C 
ATOM     15  O   UNK d   1     -41.014 -64.305  51.426  0.00  0.00    -0.271 OA
ATOM     16  N   UNK d   1     -41.511 -66.295  50.359  0.00  0.00    -0.326 N 
ATOM     17  H   UNK d   1     -41.793 -66.811  49.469  0.00  0.00     0.169 HD
BRANCH  16  18
ATOM     18  C   UNK d   1     -41.284 -67.009  51.563  0.00  0.00     0.040 A 
ATOM     19  C   UNK d   1     -42.147 -66.754  52.600  0.00  0.00     0.066 A 
ATOM     20  C   UNK d   1     -41.972 -67.396  53.832  0.00  0.00     0.073 A 
ATOM     21  C   UNK d   1     -40.938 -68.277  54.001  0.00  0.00     0.073 A 
ATOM     22  C   UNK d   1     -40.053 -68.546  52.958  0.00  0.00     0.073 A 
ATOM     23  C   UNK d   1     -40.255 -67.896  51.751  0.00  0.00     0.066 A 
BRANCH  20  24
ATOM     24  O   UNK d   1     -42.895 -67.068  54.796  0.00  0.00    -0.356 OA
ATOM     25  C   UNK d   1     -43.737 -65.975  54.736  0.00  0.00     0.210 C 
ENDBRANCH  20  24
BRANCH  22  26
ATOM     26  O   UNK d   1     -39.033 -69.441  53.203  0.00  0.00    -0.356 OA
ATOM     27  C   UNK d   1     -38.917 -70.309  54.287  0.00  0.00     0.210 C 
ENDBRANCH  22  26
ENDBRANCH  16  18
ENDBRANCH  13  14
ENDBRANCH   8  13
BRANCH   1  28
ATOM     28  C   UNK d   1     -35.769 -64.846  48.601  0.00  0.00     0.046 A 
ATOM     29  C   UNK d   1     -35.038 -64.894  49.763  0.00  0.00     0.031 A 
ATOM     30  C   UNK d   1     -33.812 -65.578  49.807  0.00  0.00     0.021 A 
ATOM     31  C   UNK d   1     -33.316 -66.214  48.694  0.00  0.00     0.011 A 
ATOM     32 Br   UNK d   1     -31.635 -67.157  48.752  0.00  0.00    -0.051 Br
ATOM     33  C   UNK d   1     -34.050 -66.164  47.532  0.00  0.00     0.021 A 
ATOM     34  C   UNK d   1     -35.249 -65.490  47.499  0.00  0.00     0.031 A 
ENDBRANCH   1  28
TORSDOF 6
ENDMDL
