MODEL 1
REMARK VINA RESULT:    -8.179      0.000      0.000
REMARK INTER + INTRA:         -12.148
REMARK INTER:                 -11.048
REMARK INTRA:                  -1.100
REMARK UNBOUND:                -1.100
REMARK  6 active torsions:
REMARK  status: ('A' for Active; 'I' for Inactive)
REMARK    1  A    between atoms: C_5  and  N_8 
REMARK    2  A    between atoms: N_15  and  C_16 
REMARK    3  A    between atoms: C_16  and  C_17 
REMARK       I    between atoms: C_17  and  N_19 
REMARK    4  A    between atoms: N_19  and  C_20 
REMARK    5  A    between atoms: C_23  and  O_26 
REMARK    6  A    between atoms: O_26  and  C_27 
ROOT
ATOM      1  N   UNK d   1     -35.735 -66.056  49.418  0.00  0.00    -0.241 N 
ATOM      2  C   UNK d   1     -36.557 -67.099  49.725  0.00  0.00     0.286 A 
ATOM      3  O   UNK d   1     -37.732 -67.207  49.301  0.00  0.00    -0.265 OA
ATOM      4  C   UNK d   1     -35.921 -67.999  50.553  0.00  0.00     0.155 A 
ATOM      5  C   UNK d   1     -34.707 -67.510  50.756  0.00  0.00     0.152 A 
ATOM      6  N   UNK d   1     -34.062 -68.370  51.564  0.00  0.00    -0.279 N 
ATOM      7  N   UNK d   1     -34.887 -69.368  51.843  0.00  0.00    -0.239 N 
ATOM      8  N   UNK d   1     -36.042 -69.172  51.236  0.00  0.00    -0.261 N 
ATOM      9  C   UNK d   1     -34.591 -66.325  50.064  0.00  0.00     0.286 A 
ATOM     10  O   UNK d   1     -33.570 -65.569  50.018  0.00  0.00    -0.265 OA
ATOM     11  H   UNK d   1     -33.093 -68.300  51.923  0.00  0.00     0.189 HD
ATOM     12  H   UNK d   1     -34.644 -70.197  52.461  0.00  0.00     0.208 HD
ENDROOT
BRANCH   8  13
ATOM     13  C   UNK d   1     -37.215 -69.995  51.274  0.00  0.00     0.254 C 
BRANCH  13  14
ATOM     14  C   UNK d   1     -38.292 -69.463  52.191  0.00  0.00     0.242 C 
ATOM     15  O   UNK d   1     -38.196 -69.801  53.390  0.00  0.00    -0.271 OA
ATOM     16  N   UNK d   1     -39.319 -68.646  51.723  0.00  0.00    -0.326 N 
ATOM     17  H   UNK d   1     -39.292 -68.435  50.665  0.00  0.00     0.169 HD
BRANCH  16  18
ATOM     18  C   UNK d   1     -40.391 -68.055  52.414  0.00  0.00     0.034 A 
ATOM     19  C   UNK d   1     -40.996 -68.728  53.475  0.00  0.00     0.032 A 
ATOM     20  C   UNK d   1     -42.053 -68.197  54.163  0.00  0.00     0.039 A 
ATOM     21  C   UNK d   1     -42.563 -66.946  53.814  0.00  0.00     0.068 A 
ATOM     22  C   UNK d   1     -41.945 -66.308  52.766  0.00  0.00     0.039 A 
ATOM     23  C   UNK d   1     -40.882 -66.836  52.073  0.00  0.00     0.032 A 
BRANCH  21  24
ATOM     24  O   UNK d   1     -43.629 -66.452  54.530  0.00  0.00    -0.352 OA
BRANCH  24  25
ATOM     25  C   UNK d   1     -44.868 -66.071  54.025  0.00  0.00     0.171 C 
ATOM     26  C   UNK d   1     -45.678 -67.191  53.470  0.00  0.00     0.034 C 
ENDBRANCH  24  25
ENDBRANCH  21  24
ENDBRANCH  16  18
ENDBRANCH  13  14
ENDBRANCH   8  13
BRANCH   1  27
ATOM     27  C   UNK d   1     -36.025 -64.927  48.599  0.00  0.00     0.046 A 
ATOM     28  C   UNK d   1     -35.820 -64.899  47.235  0.00  0.00     0.031 A 
ATOM     29  C   UNK d   1     -36.111 -63.777  46.473  0.00  0.00     0.021 A 
ATOM     30  C   UNK d   1     -36.622 -62.632  47.044  0.00  0.00     0.011 A 
ATOM     31 Br   UNK d   1     -37.026 -61.075  46.016  0.00  0.00    -0.051 Br
ATOM     32  C   UNK d   1     -36.829 -62.664  48.418  0.00  0.00     0.021 A 
ATOM     33  C   UNK d   1     -36.539 -63.780  49.176  0.00  0.00     0.031 A 
ENDBRANCH   1  27
TORSDOF 6
ENDMDL
