/Users/jonathanwahrer/Desktop/Msc/3_Semester/Drug_Design_Praktikum/waehrer_HTS_screening/HTS_experiment/out/docking_results/vina_output/3e7o/0416_docked.pdbqt
 OpenBabel03192215383D

 33 36  0  0  0  0  0  0  0  0999 V2000
  -35.7350  -66.0560   49.4180 N   0  0  0  0  0  0  0  0  0  0  0  0
  -36.5570  -67.0990   49.7250 C   0  0  0  0  0  0  0  0  0  0  0  0
  -37.7320  -67.2070   49.3010 O   0  0  0  0  0  0  0  0  0  0  0  0
  -35.9210  -67.9990   50.5530 C   0  0  0  0  0  0  0  0  0  0  0  0
  -34.7070  -67.5100   50.7560 C   0  0  0  0  0  0  0  0  0  0  0  0
  -34.0620  -68.3700   51.5640 N   0  0  0  0  0  0  0  0  0  0  0  0
  -34.8870  -69.3680   51.8430 N   0  0  0  0  0  0  0  0  0  0  0  0
  -36.0420  -69.1720   51.2360 N   0  0  0  0  0  0  0  0  0  0  0  0
  -34.5910  -66.3250   50.0640 C   0  0  0  0  0  0  0  0  0  0  0  0
  -33.5700  -65.5690   50.0180 O   0  0  0  0  0  0  0  0  0  0  0  0
  -33.0930  -68.3000   51.9230 H   0  0  0  0  0  0  0  0  0  0  0  0
  -34.6440  -70.1970   52.4610 H   0  0  0  0  0  0  0  0  0  0  0  0
  -37.2150  -69.9950   51.2740 C   0  0  0  0  0  2  0  0  0  0  0  0
  -38.2920  -69.4630   52.1910 C   0  0  0  0  0  0  0  0  0  0  0  0
  -38.1960  -69.8010   53.3900 O   0  0  0  0  0  0  0  0  0  0  0  0
  -39.3190  -68.6460   51.7230 N   0  0  0  0  0  0  0  0  0  0  0  0
  -39.2920  -68.4350   50.6650 H   0  0  0  0  0  0  0  0  0  0  0  0
  -40.3910  -68.0550   52.4140 C   0  0  0  0  0  0  0  0  0  0  0  0
  -40.9960  -68.7280   53.4750 C   0  0  0  0  0  3  0  0  0  0  0  0
  -42.0530  -68.1970   54.1630 C   0  0  0  0  0  3  0  0  0  0  0  0
  -42.5630  -66.9460   53.8140 C   0  0  0  0  0  0  0  0  0  0  0  0
  -41.9450  -66.3080   52.7660 C   0  0  0  0  0  3  0  0  0  0  0  0
  -40.8820  -66.8360   52.0730 C   0  0  0  0  0  3  0  0  0  0  0  0
  -43.6290  -66.4520   54.5300 O   0  0  0  0  0  0  0  0  0  0  0  0
  -44.8680  -66.0710   54.0250 C   0  0  0  0  0  2  0  0  0  0  0  0
  -45.6780  -67.1910   53.4700 C   0  0  0  0  0  1  0  0  0  0  0  0
  -36.0250  -64.9270   48.5990 C   0  0  0  0  0  0  0  0  0  0  0  0
  -35.8200  -64.8990   47.2350 C   0  0  0  0  0  3  0  0  0  0  0  0
  -36.1110  -63.7770   46.4730 C   0  0  0  0  0  3  0  0  0  0  0  0
  -36.6220  -62.6320   47.0440 C   0  0  0  0  0  0  0  0  0  0  0  0
  -37.0260  -61.0750   46.0160 Br  0  0  0  0  0  0  0  0  0  0  0  0
  -36.8290  -62.6640   48.4180 C   0  0  0  0  0  3  0  0  0  0  0  0
  -36.5390  -63.7800   49.1760 C   0  0  0  0  0  3  0  0  0  0  0  0
  1  2  1  0  0  0  0
  1  9  1  0  0  0  0
  2  4  1  0  0  0  0
  3  2  2  0  0  0  0
  4  5  2  0  0  0  0
  4  8  1  0  0  0  0
  5  6  1  0  0  0  0
  6  7  1  0  0  0  0
  6 11  1  0  0  0  0
  7 12  1  0  0  0  0
  8 13  1  0  0  0  0
  8  7  1  0  0  0  0
  9  5  1  0  0  0  0
 10  9  2  0  0  0  0
 13 14  1  0  0  0  0
 14 15  2  0  0  0  0
 16 14  1  0  0  0  0
 16 18  1  0  0  0  0
 17 16  1  0  0  0  0
 18 19  1  0  0  0  0
 19 20  2  0  0  0  0
 21 20  1  0  0  0  0
 21 24  1  0  0  0  0
 22 21  2  0  0  0  0
 23 18  2  0  0  0  0
 23 22  1  0  0  0  0
 25 24  1  0  0  0  0
 26 25  1  0  0  0  0
 27 33  1  0  0  0  0
 27  1  1  0  0  0  0
 28 27  2  0  0  0  0
 29 30  2  0  0  0  0
 29 28  1  0  0  0  0
 30 32  1  0  0  0  0
 31 30  1  0  0  0  0
 32 33  2  0  0  0  0
M  END
>  <Pose>
1

>  <Score>
-8.179

$$$$
