MODEL 1
REMARK VINA RESULT:    -7.762      0.000      0.000
REMARK INTER + INTRA:          -9.738
REMARK INTER:                  -9.123
REMARK INTRA:                  -0.616
REMARK UNBOUND:                -0.616
REMARK  3 active torsions:
REMARK  status: ('A' for Active; 'I' for Inactive)
REMARK    1  A    between atoms: C_5  and  N_8 
REMARK    2  A    between atoms: N_15  and  C_16 
REMARK    3  A    between atoms: C_19  and  N_22 
ROOT
ATOM      1  N   UNK d   1     -46.683 -66.122  53.259  0.00  0.00    -0.241 N 
ATOM      2  C   UNK d   1     -45.480 -66.734  53.323  0.00  0.00     0.286 A 
ATOM      3  O   UNK d   1     -45.247 -67.961  53.568  0.00  0.00    -0.265 OA
ATOM      4  C   UNK d   1     -44.457 -65.835  53.082  0.00  0.00     0.160 A 
ATOM      5  C   UNK d   1     -45.066 -64.666  52.870  0.00  0.00     0.152 A 
ATOM      6  N   UNK d   1     -44.067 -63.783  52.633  0.00  0.00    -0.278 N 
ATOM      7  N   UNK d   1     -42.912 -64.424  52.706  0.00  0.00    -0.234 N 
ATOM      8  N   UNK d   1     -43.123 -65.700  52.984  0.00  0.00    -0.234 N 
ATOM      9  C   UNK d   1     -46.431 -64.832  52.977  0.00  0.00     0.286 A 
ATOM     10  O   UNK d   1     -47.331 -63.966  52.842  0.00  0.00    -0.265 OA
ATOM     11  H   UNK d   1     -44.214 -62.760  52.427  0.00  0.00     0.189 HD
ATOM     12  H   UNK d   1     -41.948 -64.023  52.572  0.00  0.00     0.209 HD
ENDROOT
BRANCH   8  13
ATOM     13  C   UNK d   1     -42.129 -66.719  53.144  0.00  0.00     0.058 A 
ATOM     14  C   UNK d   1     -41.293 -67.069  52.104  0.00  0.00     0.034 A 
ATOM     15  C   UNK d   1     -40.319 -68.052  52.229  0.00  0.00     0.038 A 
ATOM     16  C   UNK d   1     -40.162 -68.718  53.426  0.00  0.00     0.103 A 
ATOM     17  C   UNK d   1     -40.995 -68.371  54.467  0.00  0.00     0.038 A 
ATOM     18  C   UNK d   1     -41.965 -67.389  54.339  0.00  0.00     0.034 A 
BRANCH  16  19
ATOM     19  N   UNK d   1     -39.172 -69.731  53.585  0.00  0.00    -0.116 N 
ATOM     20  O   UNK d   1     -39.206 -70.549  54.523  0.00  0.00    -0.532 OA
ATOM     21  O   UNK d   1     -38.155 -69.813  52.688  0.00  0.00    -0.532 OA
ENDBRANCH  16  19
ENDBRANCH   8  13
BRANCH   1  22
ATOM     22  C   UNK d   1     -47.958 -66.746  53.456  0.00  0.00     0.046 A 
ATOM     23  C   UNK d   1     -48.823 -67.010  52.415  0.00  0.00     0.031 A 
ATOM     24  C   UNK d   1     -50.055 -67.618  52.639  0.00  0.00     0.021 A 
ATOM     25  C   UNK d   1     -50.451 -67.975  53.912  0.00  0.00     0.011 A 
ATOM     26 Br   UNK d   1     -52.141 -68.812  54.241  0.00  0.00    -0.051 Br
ATOM     27  C   UNK d   1     -49.588 -67.713  54.956  0.00  0.00     0.021 A 
ATOM     28  C   UNK d   1     -48.367 -67.109  54.723  0.00  0.00     0.031 A 
ENDBRANCH   1  22
TORSDOF 3
ENDMDL
