MODEL 1
REMARK VINA RESULT:    -8.933      0.000      0.000
REMARK INTER + INTRA:         -12.032
REMARK INTER:                 -11.545
REMARK INTRA:                  -0.487
REMARK UNBOUND:                -0.487
REMARK  5 active torsions:
REMARK  status: ('A' for Active; 'I' for Inactive)
REMARK    1  A    between atoms: C_5  and  N_8 
REMARK    2  A    between atoms: C_14  and  C_18 
REMARK    3  A    between atoms: C_18  and  O_20 
REMARK    4  A    between atoms: O_20  and  C_21 
REMARK    5  A    between atoms: C_21  and  C_22 
ROOT
ATOM      1  N   UNK d   1     -42.730 -66.807  53.061  0.00  0.00    -0.247 N 
ATOM      2  C   UNK d   1     -42.901 -67.561  54.276  0.00  0.00     0.255 C 
ATOM      3  O   UNK d   1     -44.002 -67.907  54.791  0.00  0.00    -0.270 OA
ATOM      4  C   UNK d   1     -41.545 -67.848  54.798  0.00  0.00     0.210 C 
ATOM      5  N   UNK d   1     -41.420 -69.126  55.471  0.00  0.00    -0.222 NA
ATOM      6  N   UNK d   1     -40.097 -69.464  55.047  0.00  0.00    -0.314 N 
ATOM      7  C   UNK d   1     -39.954 -69.102  53.674  0.00  0.00     0.132 C 
ATOM      8  C   UNK d   1     -40.828 -68.118  53.494  0.00  0.00     0.073 C 
ATOM      9  C   UNK d   1     -41.429 -67.159  52.575  0.00  0.00     0.266 C 
ATOM     10  O   UNK d   1     -40.821 -66.764  51.542  0.00  0.00    -0.267 OA
ATOM     11  H   UNK d   1     -42.048 -69.784  54.929  0.00  0.00     0.147 HD
ATOM     12  H   UNK d   1     -39.358 -69.900  55.631  0.00  0.00     0.181 HD
ENDROOT
BRANCH   7  13
ATOM     13  C   UNK d   1     -39.052 -69.670  52.678  0.00  0.00     0.312 C 
ATOM     14  O   UNK d   1     -38.959 -70.907  52.501  0.00  0.00    -0.258 OA
BRANCH  13  15
ATOM     15  O   UNK d   1     -38.247 -68.877  51.874  0.00  0.00    -0.312 OA
BRANCH  15  16
ATOM     16  C   UNK d   1     -37.367 -69.441  50.910  0.00  0.00     0.217 C 
BRANCH  16  17
ATOM     17  C   UNK d   1     -36.203 -68.517  50.702  0.00  0.00    -0.034 A 
ATOM     18  C   UNK d   1     -36.316 -67.423  49.846  0.00  0.00     0.009 A 
ATOM     19  C   UNK d   1     -35.281 -66.553  49.632  0.00  0.00     0.001 A 
ATOM     20  C   UNK d   1     -34.073 -66.769  50.290  0.00  0.00     0.000 A 
ATOM     21  C   UNK d   1     -33.965 -67.851  51.135  0.00  0.00     0.001 A 
ATOM     22  C   UNK d   1     -35.029 -68.731  51.347  0.00  0.00     0.009 A 
ENDBRANCH  16  17
ENDBRANCH  15  16
ENDBRANCH  13  15
ENDBRANCH   7  13
BRANCH   1  23
ATOM     23  C   UNK d   1     -43.632 -65.908  52.449  0.00  0.00     0.045 A 
ATOM     24  C   UNK d   1     -44.969 -66.273  52.256  0.00  0.00     0.031 A 
ATOM     25  C   UNK d   1     -45.899 -65.471  51.677  0.00  0.00     0.021 A 
ATOM     26  C   UNK d   1     -45.521 -64.224  51.249  0.00  0.00     0.011 A 
ATOM     27 Br   UNK d   1     -46.823 -63.066  50.425  0.00  0.00    -0.051 Br
ATOM     28  C   UNK d   1     -44.210 -63.826  51.422  0.00  0.00     0.021 A 
ATOM     29  C   UNK d   1     -43.279 -64.659  52.014  0.00  0.00     0.031 A 
ENDBRANCH   1  23
TORSDOF 5
ENDMDL
