MODEL 1
REMARK VINA RESULT:    -7.340      0.000      0.000
REMARK INTER + INTRA:          -8.156
REMARK INTER:                  -7.769
REMARK INTRA:                  -0.387
REMARK UNBOUND:                -0.387
REMARK  1 active torsions:
REMARK  status: ('A' for Active; 'I' for Inactive)
REMARK    1  A    between atoms: C_5  and  N_8 
ROOT
ATOM      1  N   UNK d   1     -38.125 -64.828  48.604  0.00  0.00    -0.231 N 
ATOM      2  C   UNK d   1     -38.692 -64.143  47.472  0.00  0.00     0.357 A 
ATOM      3  O   UNK d   1     -37.941 -63.781  46.525  0.00  0.00    -0.244 OA
ATOM      4  N   UNK d   1     -40.083 -63.914  47.490  0.00  0.00    -0.169 NA
ATOM      5  C   UNK d   1     -40.857 -64.269  48.429  0.00  0.00     0.202 A 
ATOM      6  C   UNK d   1     -40.456 -64.981  49.668  0.00  0.00     0.140 A 
ATOM      7  C   UNK d   1     -40.928 -64.184  50.835  0.00  0.00     0.269 C 
ATOM      8  N   UNK d   1     -41.217 -64.895  52.028  0.00  0.00    -0.043 N 
ATOM      9  C   UNK d   1     -40.795 -66.240  52.063  0.00  0.00     0.140 A 
ATOM     10  C   UNK d   1     -40.782 -67.009  50.893  0.00  0.00    -0.021 A 
ATOM     11  C   UNK d   1     -40.370 -68.311  50.946  0.00  0.00     0.016 A 
ATOM     12  C   UNK d   1     -39.957 -68.934  52.101  0.00  0.00    -0.061 A 
ATOM     13  C   UNK d   1     -39.971 -68.172  53.251  0.00  0.00     0.009 A 
ATOM     14  C   UNK d   1     -40.385 -66.847  53.229  0.00  0.00     0.038 A 
ATOM     15  C   UNK d   1     -39.515 -70.349  52.119  0.00  0.00     0.048 C 
ATOM     16  C   UNK d   1     -41.235 -66.299  49.669  0.00  0.00     0.070 C 
ATOM     17  C   UNK d   1     -42.635 -64.792  52.410  0.00  0.00     0.276 C 
ATOM     18  C   UNK d   1     -38.998 -65.224  49.657  0.00  0.00     0.251 A 
ATOM     19  O   UNK d   1     -38.432 -65.824  50.630  0.00  0.00    -0.271 OA
ATOM     20  O   UNK d   1     -42.233 -63.975  48.316  0.00  0.00    -0.173 OA
ATOM     21  H   UNK d   1     -40.705 -64.406  52.822  0.00  0.00     0.286 HD
ENDROOT
BRANCH   1  22
ATOM     22  C   UNK d   1     -36.732 -65.096  48.658  0.00  0.00     0.047 A 
ATOM     23  C   UNK d   1     -36.276 -66.252  48.066  0.00  0.00     0.031 A 
ATOM     24  C   UNK d   1     -34.929 -66.596  48.072  0.00  0.00     0.021 A 
ATOM     25  C   UNK d   1     -34.026 -65.767  48.682  0.00  0.00     0.011 A 
ATOM     26 Br   UNK d   1     -32.180 -66.248  48.685  0.00  0.00    -0.051 Br
ATOM     27  C   UNK d   1     -34.459 -64.598  49.285  0.00  0.00     0.021 A 
ATOM     28  C   UNK d   1     -35.807 -64.277  49.265  0.00  0.00     0.031 A 
ENDBRANCH   1  22
TORSDOF 1
ENDMDL
