/Users/jonathanwahrer/Desktop/Msc/3_Semester/Drug_Design_Praktikum/waehrer_HTS_screening/HTS_experiment/out/docking_results/vina_output/3e7o/0428_docked.pdbqt
 OpenBabel03192215393D

 28 31  0  0  1  0  0  0  0  0999 V2000
  -38.1250  -64.8280   48.6040 N   0  0  0  0  0  0  0  0  0  0  0  0
  -38.6920  -64.1430   47.4720 C   0  0  0  0  0  0  0  0  0  0  0  0
  -37.9410  -63.7810   46.5250 O   0  0  0  0  0  0  0  0  0  0  0  0
  -40.0830  -63.9140   47.4900 N   0  0  0  0  0  2  0  0  0  0  0  0
  -40.8570  -64.2690   48.4290 C   0  0  0  0  0  0  0  0  0  0  0  0
  -40.4560  -64.9810   49.6680 C   0  0  1  0  0  0  0  0  0  0  0  0
  -40.9280  -64.1840   50.8350 C   0  0  0  0  0  2  0  0  0  0  0  0
  -41.2170  -64.8950   52.0280 N   0  0  0  0  0  4  0  0  0  0  0  0
  -40.7950  -66.2400   52.0630 C   0  0  0  0  0  0  0  0  0  0  0  0
  -40.7820  -67.0090   50.8930 C   0  0  0  0  0  0  0  0  0  0  0  0
  -40.3700  -68.3110   50.9460 C   0  0  0  0  0  3  0  0  0  0  0  0
  -39.9570  -68.9340   52.1010 C   0  0  0  0  0  0  0  0  0  0  0  0
  -39.9710  -68.1720   53.2510 C   0  0  0  0  0  3  0  0  0  0  0  0
  -40.3850  -66.8470   53.2290 C   0  0  0  0  0  3  0  0  0  0  0  0
  -39.5150  -70.3490   52.1190 C   0  0  0  0  0  1  0  0  0  0  0  0
  -41.2350  -66.2990   49.6690 C   0  0  0  0  0  2  0  0  0  0  0  0
  -42.6350  -64.7920   52.4100 C   0  0  0  0  0  1  0  0  0  0  0  0
  -38.9980  -65.2240   49.6570 C   0  0  0  0  0  0  0  0  0  0  0  0
  -38.4320  -65.8240   50.6300 O   0  0  0  0  0  0  0  0  0  0  0  0
  -42.2330  -63.9750   48.3160 O   0  0  0  0  0  0  0  0  0  0  0  0
  -40.7050  -64.4060   52.8220 H   0  0  0  0  0  0  0  0  0  0  0  0
  -36.7320  -65.0960   48.6580 C   0  0  0  0  0  0  0  0  0  0  0  0
  -36.2760  -66.2520   48.0660 C   0  0  0  0  0  3  0  0  0  0  0  0
  -34.9290  -66.5960   48.0720 C   0  0  0  0  0  3  0  0  0  0  0  0
  -34.0260  -65.7670   48.6820 C   0  0  0  0  0  0  0  0  0  0  0  0
  -32.1800  -66.2480   48.6850 Br  0  0  0  0  0  0  0  0  0  0  0  0
  -34.4590  -64.5980   49.2850 C   0  0  0  0  0  3  0  0  0  0  0  0
  -35.8070  -64.2770   49.2650 C   0  0  0  0  0  3  0  0  0  0  0  0
  1 22  1  0  0  0  0
  1 18  1  0  0  0  0
  2  4  1  0  0  0  0
  2  1  1  0  0  0  0
  3  2  2  0  0  0  0
  4  5  1  0  0  0  0
  5  6  1  0  0  0  0
  6 16  1  1  0  0  0
  6  7  1  0  0  0  0
  7  8  1  0  0  0  0
  8  9  1  0  0  0  0
  8 17  1  0  0  0  0
  8 21  1  0  0  0  0
  9 14  1  0  0  0  0
 10 11  1  0  0  0  0
 10  9  2  0  0  0  0
 11 12  2  0  0  0  0
 12 15  1  0  0  0  0
 12 13  1  0  0  0  0
 14 13  2  0  0  0  0
 16 10  1  0  0  0  0
 18  6  1  0  0  0  0
 18 19  2  0  0  0  0
 20  5  2  0  0  0  0
 22 28  1  0  0  0  0
 23 24  1  0  0  0  0
 23 22  2  0  0  0  0
 24 25  2  0  0  0  0
 25 26  1  0  0  0  0
 25 27  1  0  0  0  0
 28 27  2  0  0  0  0
M  END
>  <Pose>
1

>  <Score>
-7.340

$$$$
