MODEL 1
REMARK VINA RESULT:    -8.961      0.000      0.000
REMARK INTER + INTRA:         -11.995
REMARK INTER:                 -11.056
REMARK INTRA:                  -0.938
REMARK UNBOUND:                -0.938
REMARK  4 active torsions:
REMARK  status: ('A' for Active; 'I' for Inactive)
REMARK    1  A    between atoms: C_5  and  N_8 
REMARK    2  A    between atoms: C_15  and  N_16 
REMARK    3  A    between atoms: N_16  and  N_17 
REMARK    4  A    between atoms: N_17  and  C_18 
ROOT
ATOM      1  N   UNK d   1     -35.340 -65.825  49.253  0.00  0.00    -0.229 N 
ATOM      2  C   UNK d   1     -33.930 -65.718  49.463  0.00  0.00     0.337 A 
ATOM      3  O   UNK d   1     -33.344 -64.691  48.992  0.00  0.00    -0.246 OA
ATOM      4  N   UNK d   1     -33.245 -66.736  50.170  0.00  0.00    -0.274 N 
ATOM      5  C   UNK d   1     -33.880 -67.893  50.704  0.00  0.00     0.266 A 
ATOM      6  O   UNK d   1     -33.243 -68.785  51.332  0.00  0.00    -0.267 OA
ATOM      7  C   UNK d   1     -35.334 -68.036  50.508  0.00  0.00     0.117 A 
ATOM      8  C   UNK d   1     -35.982 -69.090  50.979  0.00  0.00     0.130 C 
ATOM      9  C   UNK d   1     -36.010 -66.971  49.776  0.00  0.00     0.273 A 
ATOM     10  O   UNK d   1     -37.250 -67.049  49.583  0.00  0.00    -0.266 OA
ATOM     11  H   UNK d   1     -32.214 -66.619  50.302  0.00  0.00     0.173 HD
ENDROOT
BRANCH   8  12
ATOM     12  N   UNK d   1     -37.383 -69.200  50.773  0.00  0.00    -0.296 N 
ATOM     13  H   UNK d   1     -37.708 -69.037  49.782  0.00  0.00     0.186 HD
BRANCH  12  14
ATOM     14  N   UNK d   1     -38.316 -69.494  51.754  0.00  0.00    -0.130 N 
ATOM     15  H   UNK d   1     -38.175 -70.428  52.238  0.00  0.00     0.205 HD
BRANCH  14  16
ATOM     16  C   UNK d   1     -39.399 -68.647  52.119  0.00  0.00     0.723 A 
ATOM     17  N   UNK d   1     -40.131 -68.768  53.231  0.00  0.00    -0.175 N 
ATOM     18  C   UNK d   1     -41.065 -67.804  53.261  0.00  0.00     0.166 A 
ATOM     19  C   UNK d   1     -40.017 -69.755  54.311  0.00  0.00     0.176 C 
ATOM     20  C   UNK d   1     -40.909 -67.044  52.110  0.00  0.00     0.186 A 
ATOM     21  C   UNK d   1     -42.068 -67.435  54.117  0.00  0.00     0.282 A 
ATOM     22  N   UNK d   1     -39.889 -67.598  51.457  0.00  0.00    -0.042 NA
ATOM     23  N   UNK d   1     -41.705 -65.992  51.845  0.00  0.00    -0.285 N 
ATOM     24  C   UNK d   1     -42.665 -65.676  52.714  0.00  0.00     0.332 A 
ATOM     25  C   UNK d   1     -41.484 -65.256  50.636  0.00  0.00     0.163 C 
ATOM     26  O   UNK d   1     -43.437 -64.691  52.502  0.00  0.00    -0.246 OA
ATOM     27  N   UNK d   1     -42.873 -66.377  53.860  0.00  0.00    -0.269 N 
ATOM     28  C   UNK d   1     -43.924 -65.994  54.768  0.00  0.00     0.164 C 
ATOM     29  O   UNK d   1     -42.256 -68.081  55.168  0.00  0.00    -0.265 OA
ENDBRANCH  14  16
ENDBRANCH  12  14
ENDBRANCH   8  12
BRANCH   1  30
ATOM     30  C   UNK d   1     -36.014 -64.819  48.552  0.00  0.00     0.047 A 
ATOM     31  C   UNK d   1     -36.511 -63.722  49.228  0.00  0.00     0.031 A 
ATOM     32  C   UNK d   1     -37.182 -62.704  48.578  0.00  0.00     0.021 A 
ATOM     33  C   UNK d   1     -37.379 -62.758  47.209  0.00  0.00     0.011 A 
ATOM     34 Br   UNK d   1     -38.308 -61.355  46.297  0.00  0.00    -0.051 Br
ATOM     35  C   UNK d   1     -36.876 -63.862  46.555  0.00  0.00     0.021 A 
ATOM     36  C   UNK d   1     -36.203 -64.888  47.188  0.00  0.00     0.031 A 
ENDBRANCH   1  30
TORSDOF 4
ENDMDL
