/Users/jonathanwahrer/Desktop/Msc/3_Semester/Drug_Design_Praktikum/waehrer_HTS_screening/HTS_experiment/out/docking_results/vina_output/3e7o/0436_docked.pdbqt
 OpenBabel03192215393D

 29 32  0  0  0  0  0  0  0  0999 V2000
  -39.0750  -65.7280   49.4550 N   0  0  0  0  0  0  0  0  0  0  0  0
  -39.7250  -64.9540   48.4150 C   0  0  0  0  0  2  0  0  0  0  0  0
  -41.1610  -64.6190   48.7400 C   0  0  0  0  0  2  0  0  0  0  0  0
  -41.1900  -64.1580   50.2050 C   0  0  0  0  0  2  0  0  0  0  0  0
  -40.9330  -65.3470   50.9740 N   0  0  0  0  0  0  0  0  0  0  0  0
  -39.8700  -66.1070   50.5710 C   0  0  0  0  0  0  0  0  0  0  0  0
  -39.7740  -67.1700   51.3870 N   0  0  0  0  0  0  0  0  0  0  0  0
  -40.7800  -67.0560   52.2900 C   0  0  0  0  0  0  0  0  0  0  0  0
  -41.5160  -65.9090   52.0370 C   0  0  0  0  0  0  0  0  0  0  0  0
  -42.5990  -65.5770   52.8280 C   0  0  0  0  0  0  0  0  0  0  0  0
  -43.2500  -64.5120   52.5620 O   0  0  0  0  0  0  0  0  0  0  0  0
  -42.9370  -66.3800   53.8530 N   0  0  0  0  0  0  0  0  0  0  0  0
  -42.2060  -67.4860   54.0760 C   0  0  0  0  0  0  0  0  0  0  0  0
  -42.5570  -68.2100   55.0470 O   0  0  0  0  0  0  0  0  0  0  0  0
  -41.1580  -67.8260   53.3260 N   0  0  0  0  0  0  0  0  0  0  0  0
  -40.3890  -69.0310   53.5960 C   0  0  0  0  0  1  0  0  0  0  0  0
  -37.7090  -66.0630   49.3130 C   0  0  0  0  0  0  0  0  0  0  0  0
  -37.2510  -67.3330   49.0470 C   0  0  0  0  0  3  0  0  0  0  0  0
  -35.8800  -67.5650   48.9230 C   0  0  0  0  0  3  0  0  0  0  0  0
  -34.9660  -66.5420   49.0620 C   0  0  0  0  0  0  0  0  0  0  0  0
  -33.1090  -66.8210   48.9010 Br  0  0  0  0  0  0  0  0  0  0  0  0
  -35.4200  -65.2650   49.3290 C   0  0  0  0  0  3  0  0  0  0  0  0
  -36.7690  -65.0670   49.4450 C   0  0  0  0  0  3  0  0  0  0  0  0
  -44.0730  -66.0400   54.6910 C   0  0  0  0  0  2  0  0  0  0  0  0
  -45.3310  -66.2820   53.9110 C   0  0  0  0  0  0  0  0  0  0  0  0
  -45.6320  -67.4380   53.5300 O   0  0  0  0  0  0  0  0  0  0  0  0
  -46.2100  -65.2250   53.5840 N   0  0  0  0  0  0  0  0  0  0  0  0
  -47.2480  -65.3380   53.5660 H   0  0  0  0  0  0  0  0  0  0  0  0
  -45.8470  -64.2690   53.3420 H   0  0  0  0  0  0  0  0  0  0  0  0
  1  6  1  0  0  0  0
  2  3  1  0  0  0  0
  2  1  1  0  0  0  0
  3  4  1  0  0  0  0
  4  5  1  0  0  0  0
  5  9  1  0  0  0  0
  6  5  1  0  0  0  0
  6  7  2  0  0  0  0
  7  8  1  0  0  0  0
  8 15  1  0  0  0  0
  9  8  2  0  0  0  0
  9 10  1  0  0  0  0
 10 12  1  0  0  0  0
 11 10  2  0  0  0  0
 12 13  1  0  0  0  0
 12 24  1  0  0  0  0
 13 14  2  0  0  0  0
 15 16  1  0  0  0  0
 15 13  1  0  0  0  0
 17 23  1  0  0  0  0
 17  1  1  0  0  0  0
 18 17  2  0  0  0  0
 19 18  1  0  0  0  0
 19 20  2  0  0  0  0
 20 22  1  0  0  0  0
 21 20  1  0  0  0  0
 22 23  2  0  0  0  0
 25 24  1  0  0  0  0
 26 25  2  0  0  0  0
 27 25  1  0  0  0  0
 28 27  1  0  0  0  0
 29 27  1  0  0  0  0
M  END
>  <Pose>
1

>  <Score>
-7.969

$$$$
