MODEL 1
REMARK VINA RESULT:    -7.969      0.000      0.000
REMARK INTER + INTRA:          -9.922
REMARK INTER:                  -9.366
REMARK INTRA:                  -0.555
REMARK UNBOUND:                -0.555
REMARK  3 active torsions:
REMARK  status: ('A' for Active; 'I' for Inactive)
REMARK    1  A    between atoms: C_5  and  N_8 
REMARK    2  A    between atoms: N_19  and  C_24 
REMARK    3  A    between atoms: C_24  and  C_25 
REMARK       I    between atoms: C_25  and  N_27 
ROOT
ATOM      1  N   UNK d   1     -39.075 -65.728  49.455  0.00  0.00    -0.181 N 
ATOM      2  C   UNK d   1     -39.725 -64.954  48.415  0.00  0.00     0.149 C 
ATOM      3  C   UNK d   1     -41.161 -64.619  48.740  0.00  0.00     0.042 C 
ATOM      4  C   UNK d   1     -41.190 -64.158  50.205  0.00  0.00     0.150 C 
ATOM      5  N   UNK d   1     -40.933 -65.347  50.974  0.00  0.00    -0.172 N 
ATOM      6  C   UNK d   1     -39.870 -66.107  50.571  0.00  0.00     0.712 A 
ATOM      7  N   UNK d   1     -39.774 -67.170  51.387  0.00  0.00    -0.043 NA
ATOM      8  C   UNK d   1     -40.780 -67.056  52.290  0.00  0.00     0.185 A 
ATOM      9  C   UNK d   1     -41.516 -65.909  52.037  0.00  0.00     0.166 A 
ATOM     10  C   UNK d   1     -42.599 -65.577  52.828  0.00  0.00     0.283 A 
ATOM     11  O   UNK d   1     -43.250 -64.512  52.562  0.00  0.00    -0.265 OA
ATOM     12  N   UNK d   1     -42.937 -66.380  53.853  0.00  0.00    -0.255 N 
ATOM     13  C   UNK d   1     -42.206 -67.486  54.076  0.00  0.00     0.333 A 
ATOM     14  O   UNK d   1     -42.557 -68.210  55.047  0.00  0.00    -0.246 OA
ATOM     15  N   UNK d   1     -41.158 -67.826  53.326  0.00  0.00    -0.285 N 
ATOM     16  C   UNK d   1     -40.389 -69.031  53.596  0.00  0.00     0.163 C 
ENDROOT
BRANCH   1  17
ATOM     17  C   UNK d   1     -37.709 -66.063  49.313  0.00  0.00     0.051 A 
ATOM     18  C   UNK d   1     -37.251 -67.333  49.047  0.00  0.00     0.031 A 
ATOM     19  C   UNK d   1     -35.880 -67.565  48.923  0.00  0.00     0.021 A 
ATOM     20  C   UNK d   1     -34.966 -66.542  49.062  0.00  0.00     0.011 A 
ATOM     21 Br   UNK d   1     -33.109 -66.821  48.901  0.00  0.00    -0.051 Br
ATOM     22  C   UNK d   1     -35.420 -65.265  49.329  0.00  0.00     0.021 A 
ATOM     23  C   UNK d   1     -36.769 -65.067  49.445  0.00  0.00     0.031 A 
ENDBRANCH   1  17
BRANCH  12  24
ATOM     24  C   UNK d   1     -44.073 -66.040  54.691  0.00  0.00     0.239 C 
BRANCH  24  25
ATOM     25  C   UNK d   1     -45.331 -66.282  53.911  0.00  0.00     0.233 C 
ATOM     26  O   UNK d   1     -45.632 -67.438  53.530  0.00  0.00    -0.272 OA
ATOM     27  N   UNK d   1     -46.210 -65.225  53.584  0.00  0.00    -0.369 N 
ATOM     28  H   UNK d   1     -47.248 -65.338  53.566  0.00  0.00     0.159 HD
ATOM     29  H   UNK d   1     -45.847 -64.269  53.342  0.00  0.00     0.159 HD
ENDBRANCH  24  25
ENDBRANCH  12  24
TORSDOF 3
ENDMDL
