MODEL 1
REMARK VINA RESULT:    -7.974      0.000      0.000
REMARK INTER + INTRA:         -12.585
REMARK INTER:                 -11.703
REMARK INTRA:                  -0.882
REMARK UNBOUND:                -0.882
REMARK  10 active torsions:
REMARK  status: ('A' for Active; 'I' for Inactive)
REMARK    1  A    between atoms: C_5  and  O_8 
REMARK    2  A    between atoms: O_8  and  C_9 
REMARK    3  A    between atoms: C_9  and  C_10 
REMARK       I    between atoms: C_10  and  N_12 
REMARK    4  A    between atoms: N_12  and  C_13 
REMARK    5  A    between atoms: N_16  and  C_23 
REMARK    6  A    between atoms: C_20  and  O_22 
REMARK    7  A    between atoms: C_25  and  C_30 
REMARK    8  A    between atoms: C_26  and  O_29 
REMARK    9  A    between atoms: C_27  and  O_28 
REMARK   10  A    between atoms: C_30  and  O_31 
ROOT
ATOM      1  C   UNK d   1     -39.324 -68.816  51.660  0.00  0.00     0.733 A 
ATOM      2  N   UNK d   1     -39.389 -67.859  50.716  0.00  0.00    -0.042 NA
ATOM      3  C   UNK d   1     -38.305 -67.547  50.025  0.00  0.00     0.185 A 
ATOM      4  N   UNK d   1     -38.120 -66.645  49.052  0.00  0.00    -0.293 N 
ATOM      5  C   UNK d   1     -36.818 -66.746  48.703  0.00  0.00     0.214 A 
ATOM      6  N   UNK d   1     -36.214 -67.683  49.440  0.00  0.00    -0.235 NA
ATOM      7  C   UNK d   1     -37.102 -68.216  50.282  0.00  0.00     0.158 A 
ATOM      8  C   UNK d   1     -37.028 -69.199  51.251  0.00  0.00     0.214 A 
ATOM      9  N   UNK d   1     -38.154 -69.472  51.915  0.00  0.00    -0.036 NA
ENDROOT
BRANCH   1  10
ATOM     10  N   UNK d   1     -40.470 -69.177  52.428  0.00  0.00    -0.154 N 
ATOM     11  C   UNK d   1     -40.848 -68.492  53.600  0.00  0.00     0.260 C 
ATOM     12  O   UNK d   1     -40.174 -67.530  54.010  0.00  0.00    -0.270 OA
ATOM     13  H   UNK d   1     -41.044 -69.997  52.078  0.00  0.00     0.187 HD
BRANCH  11  14
ATOM     14  C   UNK d   1     -42.047 -68.921  54.343  0.00  0.00     0.279 C 
BRANCH  14  15
ATOM     15  O   UNK d   1     -42.688 -67.873  55.010  0.00  0.00    -0.342 OA
BRANCH  15  16
ATOM     16  C   UNK d   1     -43.594 -67.086  54.333  0.00  0.00     0.069 A 
ATOM     17  C   UNK d   1     -44.744 -67.633  53.816  0.00  0.00     0.038 A 
ATOM     18  C   UNK d   1     -45.669 -66.844  53.126  0.00  0.00     0.022 A 
ATOM     19  C   UNK d   1     -45.428 -65.498  52.961  0.00  0.00     0.011 A 
ATOM     20 Br   UNK d   1     -46.698 -64.413  52.014  0.00  0.00    -0.051 Br
ATOM     21  C   UNK d   1     -44.272 -64.953  53.481  0.00  0.00     0.022 A 
ATOM     22  C   UNK d   1     -43.371 -65.743  54.157  0.00  0.00     0.038 A 
ENDBRANCH  15  16
ENDBRANCH  14  15
ENDBRANCH  11  14
ENDBRANCH   1  10
BRANCH   8  23
ATOM     23  O   UNK d   1     -35.810 -69.829  51.464  0.00  0.00    -0.343 OA
ATOM     24  H   UNK d   1     -35.107 -69.276  51.969  0.00  0.00     0.219 HD
ENDBRANCH   8  23
BRANCH   4  25
ATOM     25  C   UNK d   1     -39.013 -65.736  48.442  0.00  0.00     0.262 C 
ATOM     26  O   UNK d   1     -38.345 -64.818  47.621  0.00  0.00    -0.353 OA
ATOM     27  C   UNK d   1     -38.237 -63.698  48.441  0.00  0.00     0.179 C 
ATOM     28  C   UNK d   1     -39.682 -63.555  48.895  0.00  0.00     0.182 C 
ATOM     29  C   UNK d   1     -39.943 -65.000  49.311  0.00  0.00     0.198 C 
BRANCH  27  30
ATOM     30  C   UNK d   1     -37.753 -62.486  47.699  0.00  0.00     0.198 C 
BRANCH  30  31
ATOM     31  O   UNK d   1     -36.603 -61.946  48.208  0.00  0.00    -0.398 OA
ATOM     32  H   UNK d   1     -36.835 -61.413  49.012  0.00  0.00     0.209 HD
ENDBRANCH  30  31
ENDBRANCH  27  30
BRANCH  28  33
ATOM     33  O   UNK d   1     -39.851 -62.657  49.912  0.00  0.00    -0.390 OA
ATOM     34  H   UNK d   1     -40.350 -63.039  50.702  0.00  0.00     0.210 HD
ENDBRANCH  28  33
BRANCH  29  35
ATOM     35  O   UNK d   1     -41.291 -65.338  49.056  0.00  0.00    -0.388 OA
ATOM     36  H   UNK d   1     -41.648 -64.595  48.508  0.00  0.00     0.210 HD
ENDBRANCH  29  35
ENDBRANCH   4  25
TORSDOF 10
ENDMDL
