MODEL 1
REMARK VINA RESULT:    -7.796      0.000      0.000
REMARK INTER + INTRA:         -12.162
REMARK INTER:                 -10.758
REMARK INTRA:                  -1.404
REMARK UNBOUND:                -1.404
REMARK  7 active torsions:
REMARK  status: ('A' for Active; 'I' for Inactive)
REMARK    1  A    between atoms: C_5  and  O_8 
REMARK    2  A    between atoms: O_8  and  C_9 
REMARK    3  A    between atoms: C_9  and  C_10 
REMARK    4  A    between atoms: C_10  and  O_11 
REMARK    5  A    between atoms: C_10  and  C_12 
REMARK    6  A    between atoms: C_12  and  N_13 
REMARK    7  A    between atoms: C_17  and  N_18 
ROOT
ATOM      1  N   UNK d   1     -41.150 -66.850  52.291  0.00  0.00    -0.170 N 
ATOM      2  C   UNK d   1     -42.278 -66.782  53.035  0.00  0.00     0.166 A 
ATOM      3  C   UNK d   1     -43.223 -66.076  52.325  0.00  0.00     0.185 A 
ATOM      4  N   UNK d   1     -42.634 -65.747  51.194  0.00  0.00    -0.044 NA
ATOM      5  C   UNK d   1     -41.344 -66.204  51.131  0.00  0.00     0.707 A 
ATOM      6  N   UNK d   1     -44.483 -65.817  52.782  0.00  0.00    -0.286 N 
ATOM      7  C   UNK d   1     -44.805 -66.281  53.990  0.00  0.00     0.330 A 
ATOM      8  O   UNK d   1     -45.965 -66.052  54.427  0.00  0.00    -0.246 OA
ATOM      9  N   UNK d   1     -43.905 -66.970  54.705  0.00  0.00    -0.273 N 
ATOM     10  C   UNK d   1     -42.650 -67.243  54.279  0.00  0.00     0.280 A 
ATOM     11  O   UNK d   1     -41.838 -67.882  54.963  0.00  0.00    -0.265 OA
ATOM     12  C   UNK d   1     -45.421 -65.065  51.947  0.00  0.00     0.163 C 
ATOM     13  H   UNK d   1     -44.193 -67.315  55.644  0.00  0.00     0.173 HD
ENDROOT
BRANCH   1  14
ATOM     14  C   UNK d   1     -39.938 -67.555  52.648  0.00  0.00     0.182 C 
BRANCH  14  15
ATOM     15  C   UNK d   1     -39.873 -68.991  52.215  0.00  0.00     0.161 C 
BRANCH  15  16
ATOM     16  C   UNK d   1     -38.660 -69.765  52.622  0.00  0.00     0.209 C 
BRANCH  16  17
ATOM     17  O   UNK d   1     -37.599 -69.604  51.859  0.00  0.00    -0.349 OA
BRANCH  17  18
ATOM     18  C   UNK d   1     -36.590 -68.958  51.327  0.00  0.00     0.069 A 
ATOM     19  C   UNK d   1     -35.284 -69.029  51.769  0.00  0.00     0.038 A 
ATOM     20  C   UNK d   1     -34.264 -68.323  51.169  0.00  0.00     0.022 A 
ATOM     21  C   UNK d   1     -34.550 -67.520  50.098  0.00  0.00     0.011 A 
ATOM     22 Br   UNK d   1     -33.139 -66.549  49.276  0.00  0.00    -0.051 Br
ATOM     23  C   UNK d   1     -35.846 -67.429  49.633  0.00  0.00     0.022 A 
ATOM     24  C   UNK d   1     -36.852 -68.121  50.218  0.00  0.00     0.038 A 
ENDBRANCH  17  18
ENDBRANCH  16  17
ENDBRANCH  15  16
BRANCH  15  25
ATOM     25  O   UNK d   1     -40.996 -69.720  52.632  0.00  0.00    -0.392 OA
ATOM     26  H   UNK d   1     -40.700 -70.416  53.303  0.00  0.00     0.210 HD
ENDBRANCH  15  25
ENDBRANCH  14  15
ENDBRANCH   1  14
BRANCH   5  27
ATOM     27  N   UNK d   1     -40.451 -65.924  50.036  0.00  0.00    -0.212 N 
ATOM     28  C   UNK d   1     -39.519 -64.808  50.308  0.00  0.00     0.171 C 
ATOM     29  C   UNK d   1     -38.404 -64.690  49.349  0.00  0.00     0.292 C 
ATOM     30  N   UNK d   1     -38.763 -65.053  48.002  0.00  0.00     0.087 N 
ATOM     31  C   UNK d   1     -39.113 -66.438  48.044  0.00  0.00     0.292 C 
ATOM     32  C   UNK d   1     -39.749 -64.188  47.441  0.00  0.00     0.310 C 
ATOM     33  C   UNK d   1     -40.405 -66.667  48.827  0.00  0.00     0.171 C 
ENDBRANCH   5  27
TORSDOF 7
ENDMDL
