/Users/jonathanwahrer/Desktop/Msc/3_Semester/Drug_Design_Praktikum/waehrer_HTS_screening/HTS_experiment/out/docking_results/vina_output/3e7o/0444_docked.pdbqt
 OpenBabel03192215403D

 33 36  0  0  1  0  0  0  0  0999 V2000
  -41.1500  -66.8500   52.2910 N   0  0  0  0  0  0  0  0  0  0  0  0
  -42.2780  -66.7820   53.0350 C   0  0  0  0  0  0  0  0  0  0  0  0
  -43.2230  -66.0760   52.3250 C   0  0  0  0  0  0  0  0  0  0  0  0
  -42.6340  -65.7470   51.1940 N   0  0  0  0  0  0  0  0  0  0  0  0
  -41.3440  -66.2040   51.1310 C   0  0  0  0  0  0  0  0  0  0  0  0
  -44.4830  -65.8170   52.7820 N   0  0  0  0  0  0  0  0  0  0  0  0
  -44.8050  -66.2810   53.9900 C   0  0  0  0  0  0  0  0  0  0  0  0
  -45.9650  -66.0520   54.4270 O   0  0  0  0  0  0  0  0  0  0  0  0
  -43.9050  -66.9700   54.7050 N   0  0  0  0  0  0  0  0  0  0  0  0
  -42.6500  -67.2430   54.2790 C   0  0  0  0  0  0  0  0  0  0  0  0
  -41.8380  -67.8820   54.9630 O   0  0  0  0  0  0  0  0  0  0  0  0
  -45.4210  -65.0650   51.9470 C   0  0  0  0  0  1  0  0  0  0  0  0
  -44.1930  -67.3150   55.6440 H   0  0  0  0  0  0  0  0  0  0  0  0
  -39.9380  -67.5550   52.6480 C   0  0  0  0  0  2  0  0  0  0  0  0
  -39.8730  -68.9910   52.2150 C   0  0  1  0  0  3  0  0  0  0  0  0
  -38.6600  -69.7650   52.6220 C   0  0  0  0  0  2  0  0  0  0  0  0
  -37.5990  -69.6040   51.8590 O   0  0  0  0  0  0  0  0  0  0  0  0
  -36.5900  -68.9580   51.3270 C   0  0  0  0  0  0  0  0  0  0  0  0
  -35.2840  -69.0290   51.7690 C   0  0  0  0  0  3  0  0  0  0  0  0
  -34.2640  -68.3230   51.1690 C   0  0  0  0  0  3  0  0  0  0  0  0
  -34.5500  -67.5200   50.0980 C   0  0  0  0  0  0  0  0  0  0  0  0
  -33.1390  -66.5490   49.2760 Br  0  0  0  0  0  0  0  0  0  0  0  0
  -35.8460  -67.4290   49.6330 C   0  0  0  0  0  3  0  0  0  0  0  0
  -36.8520  -68.1210   50.2180 C   0  0  0  0  0  3  0  0  0  0  0  0
  -40.9960  -69.7200   52.6320 O   0  0  0  0  0  0  0  0  0  0  0  0
  -40.7000  -70.4160   53.3030 H   0  0  0  0  0  0  0  0  0  0  0  0
  -40.4510  -65.9240   50.0360 N   0  0  0  0  0  0  0  0  0  0  0  0
  -39.5190  -64.8080   50.3080 C   0  0  0  0  0  2  0  0  0  0  0  0
  -38.4040  -64.6900   49.3490 C   0  0  0  0  0  2  0  0  0  0  0  0
  -38.7630  -65.0530   48.0020 N   0  0  0  0  0  0  0  0  0  0  0  0
  -39.1130  -66.4380   48.0440 C   0  0  0  0  0  2  0  0  0  0  0  0
  -39.7490  -64.1880   47.4410 C   0  0  0  0  0  1  0  0  0  0  0  0
  -40.4050  -66.6670   48.8270 C   0  0  0  0  0  2  0  0  0  0  0  0
  1 14  1  0  0  0  0
  1  2  1  0  0  0  0
  2 10  1  0  0  0  0
  3  6  1  0  0  0  0
  3  2  2  0  0  0  0
  4  3  1  0  0  0  0
  5  4  2  0  0  0  0
  5  1  1  0  0  0  0
  6  7  1  0  0  0  0
  7  8  2  0  0  0  0
  7  9  1  0  0  0  0
  9 13  1  0  0  0  0
 10  9  1  0  0  0  0
 10 11  2  0  0  0  0
 12  6  1  0  0  0  0
 15 16  1  1  0  0  0
 15 25  1  0  0  0  0
 15 14  1  0  0  0  0
 17 16  1  0  0  0  0
 18 19  1  0  0  0  0
 18 17  1  0  0  0  0
 20 19  2  0  0  0  0
 21 20  1  0  0  0  0
 22 21  1  0  0  0  0
 23 21  2  0  0  0  0
 23 24  1  0  0  0  0
 24 18  2  0  0  0  0
 25 26  1  0  0  0  0
 27 28  1  0  0  0  0
 27  5  1  0  0  0  0
 29 28  1  0  0  0  0
 30 31  1  0  0  0  0
 30 29  1  0  0  0  0
 31 33  1  0  0  0  0
 32 30  1  0  0  0  0
 33 27  1  0  0  0  0
M  END
>  <Pose>
1

>  <Score>
-7.796

$$$$
