MODEL 1
REMARK VINA RESULT:    -6.870      0.000      0.000
REMARK INTER + INTRA:          -7.952
REMARK INTER:                  -7.674
REMARK INTRA:                  -0.279
REMARK UNBOUND:                -0.279
REMARK  2 active torsions:
REMARK  status: ('A' for Active; 'I' for Inactive)
REMARK    1  A    between atoms: C_7  and  C_8 
REMARK    2  A    between atoms: C_8  and  N_9 
ROOT
ATOM      1  C   UNK d   1     -40.381 -67.501  50.310  0.00  0.00     0.284 C 
ENDROOT
BRANCH   1   2
ATOM      2  C   UNK d   1     -41.071 -67.205  51.566  0.00  0.00    -0.012 A 
ATOM      3  C   UNK d   1     -40.775 -68.012  52.677  0.00  0.00     0.021 A 
ATOM      4 Br   UNK d   1     -39.408 -69.351  52.666  0.00  0.00    -0.050 Br
ATOM      5  C   UNK d   1     -41.541 -67.807  53.809  0.00  0.00     0.059 A 
ATOM      6  C   UNK d   1     -42.535 -66.849  53.830  0.00  0.00     0.106 A 
ATOM      7  C   UNK d   1     -42.852 -66.044  52.762  0.00  0.00     0.105 A 
ATOM      8  O   UNK d   1     -43.416 -66.507  54.901  0.00  0.00    -0.323 OA
ATOM      9  C   UNK d   1     -42.091 -66.253  51.645  0.00  0.00     0.050 A 
ATOM     10  O   UNK d   1     -43.898 -65.251  53.205  0.00  0.00    -0.323 OA
ATOM     11  C   UNK d   1     -44.609 -65.994  54.235  0.00  0.00     0.352 C 
ENDBRANCH   1   2
BRANCH   1  12
ATOM     12  N   UNK d   1     -39.399 -66.628  49.817  0.00  0.00     0.016 N 
ATOM     13  C   UNK d   1     -39.858 -66.466  48.391  0.00  0.00     0.517 C 
ATOM     14  N   UNK d   1     -38.917 -65.879  47.535  0.00  0.00     0.171 N 
ATOM     15  C   UNK d   1     -37.711 -66.687  47.598  0.00  0.00     0.551 C 
ATOM     16  C   UNK d   1     -38.717 -64.511  48.027  0.00  0.00     0.551 C 
ATOM     17  N   UNK d   1     -37.198 -66.584  48.941  0.00  0.00     0.171 N 
ATOM     18  C   UNK d   1     -38.064 -67.221  49.879  0.00  0.00     0.517 C 
ATOM     19  C   UNK d   1     -36.978 -65.202  49.383  0.00  0.00     0.551 C 
ATOM     20  N   UNK d   1     -38.277 -64.550  49.401  0.00  0.00     0.171 N 
ATOM     21  C   UNK d   1     -39.235 -65.279  50.261  0.00  0.00     0.517 C 
ENDBRANCH   1  12
TORSDOF 2
ENDMDL
