MODEL 1
REMARK VINA RESULT:    -7.256      0.000      0.000
REMARK INTER + INTRA:         -10.076
REMARK INTER:                  -9.377
REMARK INTRA:                  -0.699
REMARK UNBOUND:                -0.699
REMARK  5 active torsions:
REMARK  status: ('A' for Active; 'I' for Inactive)
REMARK    1  A    between atoms: C_7  and  C_8 
REMARK    2  A    between atoms: C_8  and  N_9 
REMARK    3  A    between atoms: N_12  and  C_15 
REMARK    4  A    between atoms: C_15  and  C_16 
REMARK       I    between atoms: C_16  and  N_18 
REMARK    5  A    between atoms: N_18  and  C_19 
ROOT
ATOM      1  N   UNK d   1     -41.363 -65.056  50.494  0.00  0.00     0.095 N 
ATOM      2  C   UNK d   1     -42.081 -64.154  49.556  0.00  0.00     0.292 C 
ATOM      3  C   UNK d   1     -41.166 -64.124  48.336  0.00  0.00     0.147 C 
ATOM      4  N   UNK d   1     -39.887 -64.690  48.562  0.00  0.00    -0.401 N 
ATOM      5  C   UNK d   1     -39.258 -64.200  49.761  0.00  0.00     0.147 C 
ATOM      6  C   UNK d   1     -40.226 -64.230  50.907  0.00  0.00     0.292 C 
ENDROOT
BRANCH   1   7
ATOM      7  C   UNK d   1     -42.219 -65.349  51.627  0.00  0.00     0.312 C 
BRANCH   7   8
ATOM      8  C   UNK d   1     -41.644 -66.450  52.440  0.00  0.00    -0.010 A 
ATOM      9  C   UNK d   1     -42.198 -66.804  53.669  0.00  0.00     0.021 A 
ATOM     10 Br   UNK d   1     -43.702 -65.792  54.270  0.00  0.00    -0.050 Br
ATOM     11  C   UNK d   1     -41.700 -67.834  54.433  0.00  0.00     0.059 A 
ATOM     12  C   UNK d   1     -40.620 -68.570  54.013  0.00  0.00     0.103 A 
ATOM     13  C   UNK d   1     -40.054 -68.250  52.812  0.00  0.00     0.102 A 
ATOM     14  O   UNK d   1     -40.089 -69.618  54.754  0.00  0.00    -0.346 OA
ATOM     15  C   UNK d   1     -40.561 -67.205  52.041  0.00  0.00     0.050 A 
ATOM     16  O   UNK d   1     -38.963 -68.981  52.371  0.00  0.00    -0.346 OA
ATOM     17  C   UNK d   1     -38.234 -69.860  53.189  0.00  0.00     0.202 C 
ATOM     18  C   UNK d   1     -39.100 -70.474  54.241  0.00  0.00     0.202 C 
ENDBRANCH   7   8
ENDBRANCH   1   7
BRANCH   4  19
ATOM     19  C   UNK d   1     -39.708 -66.065  48.287  0.00  0.00     0.219 C 
BRANCH  19  20
ATOM     20  C   UNK d   1     -38.340 -66.548  48.271  0.00  0.00     0.235 C 
ATOM     21  O   UNK d   1     -37.567 -66.267  47.331  0.00  0.00    -0.272 OA
ATOM     22  N   UNK d   1     -37.840 -67.351  49.322  0.00  0.00    -0.355 N 
ATOM     23  H   UNK d   1     -38.432 -67.631  50.156  0.00  0.00     0.162 HD
BRANCH  22  24
ATOM     24  C   UNK d   1     -36.472 -67.855  49.340  0.00  0.00     0.084 A 
ATOM     25  C   UNK d   1     -35.907 -68.445  50.564  0.00  0.00     0.027 A 
ATOM     26  C   UNK d   1     -35.506 -67.047  50.202  0.00  0.00     0.027 A 
ENDBRANCH  22  24
ENDBRANCH  19  20
ENDBRANCH   4  19
TORSDOF 5
ENDMDL
