MODEL 1
REMARK VINA RESULT:    -8.166      0.000      0.000
REMARK INTER + INTRA:         -12.055
REMARK INTER:                 -11.030
REMARK INTRA:                  -1.025
REMARK UNBOUND:                -1.025
REMARK  6 active torsions:
REMARK  status: ('A' for Active; 'I' for Inactive)
REMARK    1  A    between atoms: C_7  and  C_8 
REMARK    2  A    between atoms: C_8  and  O_9 
REMARK    3  A    between atoms: O_9  and  C_10 
REMARK    4  A    between atoms: C_13  and  C_16 
REMARK    5  A    between atoms: N_18  and  C_21 
REMARK    6  A    between atoms: C_21  and  C_22 
REMARK       I    between atoms: C_22  and  N_24 
ROOT
ATOM      1  C   UNK d   1     -39.134 -68.653  52.002  0.00  0.00     0.069 A 
ATOM      2  C   UNK d   1     -39.568 -68.779  53.329  0.00  0.00     0.038 A 
ATOM      3  C   UNK d   1     -40.711 -68.176  53.802  0.00  0.00     0.018 A 
ATOM      4  C   UNK d   1     -41.491 -67.405  52.967  0.00  0.00     0.015 A 
ATOM      5  C   UNK d   1     -41.079 -67.270  51.659  0.00  0.00     0.018 A 
ATOM      6  C   UNK d   1     -39.920 -67.880  51.177  0.00  0.00     0.038 A 
ENDROOT
BRANCH   1   7
ATOM      7  O   UNK d   1     -37.973 -69.278  51.581  0.00  0.00    -0.347 OA
BRANCH   7   8
ATOM      8  C   UNK d   1     -37.397 -69.087  50.323  0.00  0.00     0.215 C 
BRANCH   8   9
ATOM      9  C   UNK d   1     -36.409 -67.996  50.271  0.00  0.00    -0.014 A 
ATOM     10  C   UNK d   1     -35.144 -68.157  50.854  0.00  0.00     0.022 A 
ATOM     11 Br   UNK d   1     -34.800 -69.816  51.747  0.00  0.00    -0.050 Br
ATOM     12  C   UNK d   1     -34.197 -67.166  50.785  0.00  0.00     0.059 A 
ATOM     13  C   UNK d   1     -34.463 -65.977  50.137  0.00  0.00     0.106 A 
ATOM     14  C   UNK d   1     -35.699 -65.792  49.555  0.00  0.00     0.105 A 
ATOM     15  O   UNK d   1     -33.725 -64.814  49.905  0.00  0.00    -0.323 OA
ATOM     16  C   UNK d   1     -36.655 -66.804  49.629  0.00  0.00     0.050 A 
ATOM     17  O   UNK d   1     -35.692 -64.534  48.986  0.00  0.00    -0.323 OA
ATOM     18  C   UNK d   1     -34.372 -64.024  48.930  0.00  0.00     0.352 C 
ENDBRANCH   8   9
ENDBRANCH   7   8
ENDBRANCH   1   7
BRANCH   4  19
ATOM     19  C   UNK d   1     -42.711 -66.757  53.456  0.00  0.00     0.198 A 
ATOM     20  N   UNK d   1     -43.801 -66.387  52.765  0.00  0.00    -0.136 NA
ATOM     21  N   UNK d   1     -44.676 -65.831  53.611  0.00  0.00    -0.182 N 
ATOM     22  N   UNK d   1     -44.148 -65.846  54.826  0.00  0.00     0.025 NA
ATOM     23  N   UNK d   1     -42.956 -66.408  54.729  0.00  0.00    -0.136 NA
BRANCH  21  24
ATOM     24  C   UNK d   1     -45.985 -65.287  53.316  0.00  0.00     0.272 C 
BRANCH  24  25
ATOM     25  C   UNK d   1     -47.034 -66.279  53.637  0.00  0.00     0.236 C 
ATOM     26  O   UNK d   1     -48.229 -65.942  53.601  0.00  0.00    -0.272 OA
ATOM     27  N   UNK d   1     -46.659 -67.595  53.982  0.00  0.00    -0.369 N 
ATOM     28  H   UNK d   1     -45.745 -67.820  54.466  0.00  0.00     0.159 HD
ATOM     29  H   UNK d   1     -47.292 -68.392  53.760  0.00  0.00     0.159 HD
ENDBRANCH  24  25
ENDBRANCH  21  24
ENDBRANCH   4  19
TORSDOF 6
ENDMDL
