/Users/jonathanwahrer/Desktop/Msc/3_Semester/Drug_Design_Praktikum/waehrer_HTS_screening/HTS_experiment/out/docking_results/vina_output/3e7o/0467_docked.pdbqt
 OpenBabel03192215413D

 28 31  0  0  1  0  0  0  0  0999 V2000
  -36.4860  -67.4100   49.7130 C   0  0  0  0  0  0  0  0  0  0  0  0
  -35.9720  -66.2830   49.1920 N   0  0  0  0  0  0  0  0  0  0  0  0
  -34.6620  -65.9420   49.3260 C   0  0  1  0  0  3  0  0  0  0  0  0
  -33.9060  -66.7980   50.0120 N   0  0  0  0  0  0  0  0  0  0  0  0
  -34.3530  -67.9290   50.5530 C   0  0  0  0  0  0  0  0  0  0  0  0
  -35.6770  -68.2250   50.3880 N   0  0  0  0  0  0  0  0  0  0  0  0
  -37.8700  -67.6160   49.5230 N   0  0  0  0  0  0  0  0  0  0  0  0
  -38.2130  -67.8530   48.5670 H   0  0  0  0  0  0  0  0  0  0  0  0
  -38.7880  -67.5160   50.5490 N   0  0  0  0  0  0  0  0  0  0  0  0
  -39.1700  -68.4160   51.3510 C   0  0  0  0  0  3  0  0  0  0  0  0
  -40.1520  -68.1520   52.3830 C   0  0  0  0  0  0  0  0  0  0  0  0
  -40.1890  -68.8730   53.5560 C   0  0  0  0  0  0  0  0  0  0  0  0
  -38.9160  -70.2480   53.8390 Br  0  0  0  0  0  0  0  0  0  0  0  0
  -41.1420  -68.6000   54.5200 C   0  0  0  0  0  3  0  0  0  0  0  0
  -42.1000  -67.5980   54.3550 C   0  0  0  0  0  0  0  0  0  0  0  0
  -42.0710  -66.8640   53.1720 C   0  0  0  0  0  0  0  0  0  0  0  0
  -43.1470  -67.1170   55.1250 O   0  0  0  0  0  0  0  0  0  0  0  0
  -41.1110  -67.1540   52.2250 C   0  0  0  0  0  3  0  0  0  0  0  0
  -43.1010  -65.9540   53.2520 O   0  0  0  0  0  0  0  0  0  0  0  0
  -43.9120  -66.2030   54.3830 C   0  0  0  0  0  2  0  0  0  0  0  0
  -34.2070  -64.7570   48.7440 N   0  0  0  0  0  0  0  0  0  0  0  0
  -34.9840  -63.5420   48.8060 C   0  0  0  0  0  2  0  0  0  0  0  0
  -34.1330  -62.3330   48.4790 C   0  0  0  0  0  2  0  0  0  0  0  0
  -32.8370  -62.3980   48.8740 O   0  0  0  0  0  0  0  0  0  0  0  0
  -32.1730  -63.5820   48.7860 C   0  0  0  0  0  2  0  0  0  0  0  0
  -32.9340  -64.6950   48.0720 C   0  0  0  0  0  2  0  0  0  0  0  0
  -33.5410  -68.7980   51.2610 O   0  0  0  0  0  0  0  0  0  0  0  0
  -34.0820  -69.9210   51.9030 C   0  0  0  0  0  1  0  0  0  0  0  0
  1  6  1  0  0  0  0
  2  3  1  0  0  0  0
  2  1  2  0  0  0  0
  3 21  1  6  0  0  0
  3  4  1  0  0  0  0
  4  5  2  0  0  0  0
  5 27  1  0  0  0  0
  6  5  2  0  0  0  0
  7  1  1  0  0  0  0
  7  9  1  0  0  0  0
  8  7  1  0  0  0  0
  9 10  2  0  0  0  0
 10 11  1  0  0  0  0
 11 12  1  0  0  0  0
 12 13  1  0  0  0  0
 12 14  2  0  0  0  0
 15 14  1  0  0  0  0
 15 17  1  0  0  0  0
 16 19  1  0  0  0  0
 16 15  2  0  0  0  0
 18 11  2  0  0  0  0
 18 16  1  0  0  0  0
 19 20  1  0  0  0  0
 20 17  1  0  0  0  0
 21 22  1  0  0  0  0
 23 22  1  0  0  0  0
 23 24  1  0  0  0  0
 25 24  1  0  0  0  0
 26 21  1  0  0  0  0
 26 25  1  0  0  0  0
 27 28  1  0  0  0  0
M  END
>  <Pose>
1

>  <Score>
-8.112

$$$$
