MODEL 1
REMARK VINA RESULT:    -7.948      0.000      0.000
REMARK INTER + INTRA:         -10.611
REMARK INTER:                  -9.807
REMARK INTRA:                  -0.804
REMARK UNBOUND:                -0.804
REMARK  4 active torsions:
REMARK  status: ('A' for Active; 'I' for Inactive)
REMARK    1  A    between atoms: C_7  and  N_8 
REMARK       I    between atoms: N_8  and  C_9 
REMARK    2  A    between atoms: C_9  and  C_11 
REMARK    3  A    between atoms: C_11  and  N_12 
REMARK    4  A    between atoms: N_15  and  C_18 
ROOT
ATOM      1  N   UNK d   1     -40.459 -64.531  50.295  0.00  0.00    -0.401 N 
ATOM      2  C   UNK d   1     -40.906 -65.675  49.654  0.00  0.00     0.137 C 
ATOM      3  C   UNK d   1     -41.948 -66.528  50.269  0.00  0.00     0.144 C 
ATOM      4  N   UNK d   1     -42.023 -66.233  51.671  0.00  0.00    -0.362 N 
ATOM      5  C   UNK d   1     -42.241 -64.840  51.968  0.00  0.00     0.144 C 
ATOM      6  C   UNK d   1     -41.000 -64.108  51.528  0.00  0.00     0.137 C 
ENDROOT
BRANCH   1   7
ATOM      7  C   UNK d   1     -40.009 -63.457  49.441  0.00  0.00     0.220 C 
BRANCH   7   8
ATOM      8  C   UNK d   1     -38.689 -63.789  48.782  0.00  0.00     0.239 C 
ATOM      9  N   UNK d   1     -37.637 -64.223  49.615  0.00  0.00    -0.324 N 
ATOM     10  H   UNK d   1     -37.839 -64.293  50.662  0.00  0.00     0.169 HD
ATOM     11  O   UNK d   1     -38.629 -63.653  47.549  0.00  0.00    -0.271 OA
BRANCH   9  12
ATOM     12  C   UNK d   1     -36.337 -64.575  49.178  0.00  0.00     0.055 A 
ATOM     13  C   UNK d   1     -36.054 -65.936  48.992  0.00  0.00     0.040 A 
ATOM     14 Br   UNK d   1     -37.423 -67.204  49.334  0.00  0.00    -0.049 Br
ATOM     15  C   UNK d   1     -34.802 -66.319  48.570  0.00  0.00     0.061 A 
ATOM     16  C   UNK d   1     -33.814 -65.419  48.321  0.00  0.00     0.103 A 
ATOM     17  C   UNK d   1     -34.062 -64.075  48.495  0.00  0.00     0.104 A 
ATOM     18  O   UNK d   1     -32.537 -65.761  47.895  0.00  0.00    -0.346 OA
ATOM     19  C   UNK d   1     -35.328 -63.662  48.924  0.00  0.00     0.070 A 
ATOM     20  O   UNK d   1     -33.050 -63.186  48.237  0.00  0.00    -0.346 OA
ATOM     21  C   UNK d   1     -31.682 -63.510  48.283  0.00  0.00     0.202 C 
ATOM     22  C   UNK d   1     -31.424 -64.981  48.351  0.00  0.00     0.202 C 
ENDBRANCH   9  12
ENDBRANCH   7   8
ENDBRANCH   1   7
BRANCH   4  23
ATOM     23  C   UNK d   1     -41.905 -67.151  52.727  0.00  0.00     0.142 A 
ATOM     24  N   UNK d   1     -42.820 -67.282  53.721  0.00  0.00    -0.224 NA
ATOM     25  C   UNK d   1     -42.679 -68.173  54.719  0.00  0.00     0.237 A 
ATOM     26  N   UNK d   1     -41.611 -68.987  54.778  0.00  0.00    -0.222 NA
ATOM     27  C   UNK d   1     -40.651 -68.928  53.832  0.00  0.00     0.162 A 
ATOM     28  N   UNK d   1     -39.492 -69.609  53.641  0.00  0.00    -0.256 N 
ATOM     29  C   UNK d   1     -40.808 -68.014  52.821  0.00  0.00     0.076 A 
ATOM     30  N   UNK d   1     -38.956 -69.120  52.537  0.00  0.00    -0.182 NA
ATOM     31  C   UNK d   1     -38.969 -70.668  54.505  0.00  0.00     0.182 C 
ATOM     32  C   UNK d   1     -39.709 -68.156  52.003  0.00  0.00     0.158 A 
ENDBRANCH   4  23
TORSDOF 4
ENDMDL
