MODEL 1
REMARK VINA RESULT:    -8.646      0.000      0.000
REMARK INTER + INTRA:         -10.595
REMARK INTER:                 -10.162
REMARK INTRA:                  -0.433
REMARK UNBOUND:                -0.433
REMARK  3 active torsions:
REMARK  status: ('A' for Active; 'I' for Inactive)
REMARK    1  A    between atoms: C_11  and  C_13 
REMARK       I    between atoms: C_13  and  N_15 
REMARK    2  A    between atoms: N_18  and  C_21 
REMARK    3  A    between atoms: C_21  and  C_22 
ROOT
ATOM      1  C   UNK d   1     -41.054 -64.683  49.863  0.00  0.00     0.277 C 
ATOM      2  O   UNK d   1     -41.539 -63.515  49.834  0.00  0.00    -0.265 OA
ATOM      3  N   UNK d   1     -40.285 -65.139  48.774  0.00  0.00    -0.343 N 
ATOM      4  C   UNK d   1     -40.072 -64.257  47.654  0.00  0.00     0.145 C 
ATOM      5  C   UNK d   1     -38.606 -64.064  47.329  0.00  0.00     0.137 C 
ATOM      6  N   UNK d   1     -37.909 -65.247  47.675  0.00  0.00    -0.404 N 
ATOM      7  C   UNK d   1     -38.686 -66.412  47.508  0.00  0.00     0.137 C 
ATOM      8  C   UNK d   1     -39.678 -66.445  48.685  0.00  0.00     0.145 C 
ENDROOT
BRANCH   1   9
ATOM      9  C   UNK d   1     -41.325 -65.509  51.046  0.00  0.00     0.147 A 
ATOM     10  C   UNK d   1     -42.421 -65.244  51.833  0.00  0.00     0.098 A 
ATOM     11  C   UNK d   1     -42.715 -65.993  52.953  0.00  0.00     0.187 A 
ATOM     12  C   UNK d   1     -41.881 -67.042  53.294  0.00  0.00     0.048 A 
ATOM     13  O   UNK d   1     -43.734 -65.739  53.676  0.00  0.00    -0.287 OA
ATOM     14  C   UNK d   1     -40.796 -67.257  52.466  0.00  0.00     0.091 A 
ATOM     15  C   UNK d   1     -42.148 -67.804  54.404  0.00  0.00     0.020 A 
ATOM     16  C   UNK d   1     -39.962 -68.311  52.812  0.00  0.00     0.057 A 
ATOM     17  O   UNK d   1     -40.567 -66.512  51.412  0.00  0.00    -0.304 OA
ATOM     18  C   UNK d   1     -40.208 -69.096  53.926  0.00  0.00     0.013 A 
ATOM     19 Br   UNK d   1     -39.037 -70.535  54.368  0.00  0.00    -0.051 Br
ATOM     20  C   UNK d   1     -41.307 -68.842  54.725  0.00  0.00     0.020 A 
ENDBRANCH   1   9
BRANCH   6  21
ATOM     21  C   UNK d   1     -37.047 -65.185  48.786  0.00  0.00     0.181 C 
BRANCH  21  22
ATOM     22  C   UNK d   1     -35.846 -66.012  48.703  0.00  0.00     0.108 A 
ATOM     23  N   UNK d   1     -34.745 -65.718  47.992  0.00  0.00    -0.106 NA
ATOM     24  O   UNK d   1     -33.910 -66.679  48.166  0.00  0.00    -0.106 OA
ATOM     25  N   UNK d   1     -34.400 -67.599  48.959  0.00  0.00    -0.108 NA
ATOM     26  C   UNK d   1     -35.641 -67.211  49.327  0.00  0.00     0.088 A 
ATOM     27  C   UNK d   1     -36.582 -67.945  50.225  0.00  0.00     0.075 C 
ENDBRANCH  21  22
ENDBRANCH   6  21
TORSDOF 3
ENDMDL
