/Users/jonathanwahrer/Desktop/Msc/3_Semester/Drug_Design_Praktikum/waehrer_HTS_screening/HTS_experiment/out/docking_results/vina_output/3e7o/0471_docked.pdbqt
 OpenBabel03192215423D

 27 30  0  0  0  0  0  0  0  0999 V2000
  -41.0540  -64.6830   49.8630 C   0  0  0  0  0  0  0  0  0  0  0  0
  -41.5390  -63.5150   49.8340 O   0  0  0  0  0  0  0  0  0  0  0  0
  -40.2850  -65.1390   48.7740 N   0  0  0  0  0  0  0  0  0  0  0  0
  -40.0720  -64.2570   47.6540 C   0  0  0  0  0  2  0  0  0  0  0  0
  -38.6060  -64.0640   47.3290 C   0  0  0  0  0  2  0  0  0  0  0  0
  -37.9090  -65.2470   47.6750 N   0  0  0  0  0  0  0  0  0  0  0  0
  -38.6860  -66.4120   47.5080 C   0  0  0  0  0  2  0  0  0  0  0  0
  -39.6780  -66.4450   48.6850 C   0  0  0  0  0  2  0  0  0  0  0  0
  -41.3250  -65.5090   51.0460 C   0  0  0  0  0  0  0  0  0  0  0  0
  -42.4210  -65.2440   51.8330 C   0  0  0  0  0  3  0  0  0  0  0  0
  -42.7150  -65.9930   52.9530 C   0  0  0  0  0  0  0  0  0  0  0  0
  -41.8810  -67.0420   53.2940 C   0  0  0  0  0  0  0  0  0  0  0  0
  -43.7340  -65.7390   53.6760 O   0  0  0  0  0  0  0  0  0  0  0  0
  -40.7960  -67.2570   52.4660 C   0  0  0  0  0  0  0  0  0  0  0  0
  -42.1480  -67.8040   54.4040 C   0  0  0  0  0  3  0  0  0  0  0  0
  -39.9620  -68.3110   52.8120 C   0  0  0  0  0  3  0  0  0  0  0  0
  -40.5670  -66.5120   51.4120 O   0  0  0  0  0  0  0  0  0  0  0  0
  -40.2080  -69.0960   53.9260 C   0  0  0  0  0  0  0  0  0  0  0  0
  -39.0370  -70.5350   54.3680 Br  0  0  0  0  0  0  0  0  0  0  0  0
  -41.3070  -68.8420   54.7250 C   0  0  0  0  0  3  0  0  0  0  0  0
  -37.0470  -65.1850   48.7860 C   0  0  0  0  0  2  0  0  0  0  0  0
  -35.8460  -66.0120   48.7030 C   0  0  0  0  0  0  0  0  0  0  0  0
  -34.7450  -65.7180   47.9920 N   0  0  0  0  0  0  0  0  0  0  0  0
  -33.9100  -66.6790   48.1660 O   0  0  0  0  0  0  0  0  0  0  0  0
  -34.4000  -67.5990   48.9590 N   0  0  0  0  0  0  0  0  0  0  0  0
  -35.6410  -67.2110   49.3270 C   0  0  0  0  0  0  0  0  0  0  0  0
  -36.5820  -67.9450   50.2250 C   0  0  0  0  0  1  0  0  0  0  0  0
  1  9  1  0  0  0  0
  2  1  2  0  0  0  0
  3  1  1  0  0  0  0
  4  3  1  0  0  0  0
  5  4  1  0  0  0  0
  5  6  1  0  0  0  0
  6 21  1  0  0  0  0
  7  6  1  0  0  0  0
  7  8  1  0  0  0  0
  8  3  1  0  0  0  0
  9 17  1  0  0  0  0
  9 10  2  0  0  0  0
 10 11  1  0  0  0  0
 11 12  1  0  0  0  0
 11 13  2  0  0  0  0
 12 15  1  0  0  0  0
 14 16  1  0  0  0  0
 14 12  2  0  0  0  0
 15 20  2  0  0  0  0
 16 18  2  0  0  0  0
 17 14  1  0  0  0  0
 18 19  1  0  0  0  0
 18 20  1  0  0  0  0
 22 21  1  0  0  0  0
 22 26  1  0  0  0  0
 23 24  1  0  0  0  0
 23 22  2  0  0  0  0
 24 25  1  0  0  0  0
 25 26  2  0  0  0  0
 26 27  1  0  0  0  0
M  END
>  <Pose>
1

>  <Score>
-8.646

$$$$
