MODEL 1
REMARK VINA RESULT:    -8.650      0.000      0.000
REMARK INTER + INTRA:         -11.931
REMARK INTER:                 -11.178
REMARK INTRA:                  -0.753
REMARK UNBOUND:                -0.753
REMARK  5 active torsions:
REMARK  status: ('A' for Active; 'I' for Inactive)
REMARK    1  A    between atoms: N_10  and  C_13 
REMARK    2  A    between atoms: C_13  and  C_14 
REMARK    3  A    between atoms: C_14  and  C_15 
REMARK    4  A    between atoms: C_15  and  C_16 
REMARK       I    between atoms: C_16  and  N_18 
REMARK    5  A    between atoms: N_21  and  C_24 
ROOT
ATOM      1  C   UNK d   1     -36.206 -67.540  49.415  0.00  0.00     0.104 C 
ENDROOT
BRANCH   1   2
ATOM      2  C   UNK d   1     -36.389 -68.341  50.672  0.00  0.00     0.029 C 
BRANCH   2   3
ATOM      3  C   UNK d   1     -37.617 -69.168  50.569  0.00  0.00     0.136 C 
BRANCH   3   4
ATOM      4  N   UNK d   1     -38.689 -68.726  51.434  0.00  0.00    -0.280 N 
ATOM      5  C   UNK d   1     -38.888 -69.237  52.744  0.00  0.00     0.261 A 
ATOM      6  C   UNK d   1     -40.046 -68.575  53.318  0.00  0.00     0.048 A 
ATOM      7  O   UNK d   1     -38.203 -70.120  53.353  0.00  0.00    -0.267 OA
ATOM      8  C   UNK d   1     -40.521 -67.691  52.370  0.00  0.00     0.049 A 
ATOM      9  C   UNK d   1     -40.669 -68.691  54.544  0.00  0.00     0.019 A 
ATOM     10  C   UNK d   1     -41.634 -66.938  52.695  0.00  0.00     0.037 A 
ATOM     11  C   UNK d   1     -39.680 -67.767  51.165  0.00  0.00     0.261 A 
ATOM     12  C   UNK d   1     -42.249 -67.062  53.924  0.00  0.00     0.011 A 
ATOM     13 Br   UNK d   1     -43.781 -65.989  54.304  0.00  0.00    -0.051 Br
ATOM     14  C   UNK d   1     -41.780 -67.942  54.876  0.00  0.00     0.020 A 
ATOM     15  O   UNK d   1     -39.843 -67.089  50.114  0.00  0.00    -0.267 OA
ENDBRANCH   3   4
ENDBRANCH   2   3
ENDBRANCH   1   2
BRANCH   1  16
ATOM     16  C   UNK d   1     -34.867 -66.925  49.272  0.00  0.00     0.219 C 
ATOM     17  O   UNK d   1     -33.851 -67.551  48.874  0.00  0.00    -0.273 OA
ATOM     18  N   UNK d   1     -34.663 -65.535  49.595  0.00  0.00    -0.349 N 
ATOM     19  C   UNK d   1     -33.361 -64.925  49.458  0.00  0.00     0.145 C 
ATOM     20  C   UNK d   1     -35.742 -64.687  50.068  0.00  0.00     0.145 C 
ATOM     21  C   UNK d   1     -33.398 -63.577  48.819  0.00  0.00     0.144 C 
ATOM     22  N   UNK d   1     -34.722 -63.122  48.465  0.00  0.00    -0.362 N 
ATOM     23  C   UNK d   1     -35.927 -63.502  49.152  0.00  0.00     0.144 C 
BRANCH  22  24
ATOM     24  C   UNK d   1     -34.844 -62.231  47.352  0.00  0.00     0.143 A 
ATOM     25  N   UNK d   1     -35.867 -61.338  47.262  0.00  0.00    -0.241 NA
ATOM     26  C   UNK d   1     -36.016 -60.492  46.245  0.00  0.00     0.138 A 
ATOM     27  C   UNK d   1     -35.086 -60.512  45.216  0.00  0.00     0.135 A 
ATOM     28  N   UNK d   1     -34.054 -61.389  45.274  0.00  0.00    -0.268 NA
ATOM     29  C   UNK d   1     -33.937 -62.227  46.317  0.00  0.00     0.166 A 
ENDBRANCH  22  24
ENDBRANCH   1  16
TORSDOF 5
ENDMDL
