/Users/jonathanwahrer/Desktop/Msc/3_Semester/Drug_Design_Praktikum/waehrer_HTS_screening/HTS_experiment/out/docking_results/vina_output/3e7o/0473_docked.pdbqt
 OpenBabel03192215423D

 29 32  0  0  0  0  0  0  0  0999 V2000
  -36.2060  -67.5400   49.4150 C   0  0  0  0  0  2  0  0  0  0  0  0
  -36.3890  -68.3410   50.6720 C   0  0  0  0  0  2  0  0  0  0  0  0
  -37.6170  -69.1680   50.5690 C   0  0  0  0  0  2  0  0  0  0  0  0
  -38.6890  -68.7260   51.4340 N   0  0  0  0  0  0  0  0  0  0  0  0
  -38.8880  -69.2370   52.7440 C   0  0  0  0  0  0  0  0  0  0  0  0
  -40.0460  -68.5750   53.3180 C   0  0  0  0  0  0  0  0  0  0  0  0
  -38.2030  -70.1200   53.3530 O   0  0  0  0  0  0  0  0  0  0  0  0
  -40.5210  -67.6910   52.3700 C   0  0  0  0  0  0  0  0  0  0  0  0
  -40.6690  -68.6910   54.5440 C   0  0  0  0  0  3  0  0  0  0  0  0
  -41.6340  -66.9380   52.6950 C   0  0  0  0  0  3  0  0  0  0  0  0
  -39.6800  -67.7670   51.1650 C   0  0  0  0  0  0  0  0  0  0  0  0
  -42.2490  -67.0620   53.9240 C   0  0  0  0  0  0  0  0  0  0  0  0
  -43.7810  -65.9890   54.3040 Br  0  0  0  0  0  0  0  0  0  0  0  0
  -41.7800  -67.9420   54.8760 C   0  0  0  0  0  3  0  0  0  0  0  0
  -39.8430  -67.0890   50.1140 O   0  0  0  0  0  0  0  0  0  0  0  0
  -34.8670  -66.9250   49.2720 C   0  0  0  0  0  0  0  0  0  0  0  0
  -33.8510  -67.5510   48.8740 O   0  0  0  0  0  0  0  0  0  0  0  0
  -34.6630  -65.5350   49.5950 N   0  0  0  0  0  0  0  0  0  0  0  0
  -33.3610  -64.9250   49.4580 C   0  0  0  0  0  2  0  0  0  0  0  0
  -35.7420  -64.6870   50.0680 C   0  0  0  0  0  2  0  0  0  0  0  0
  -33.3980  -63.5770   48.8190 C   0  0  0  0  0  2  0  0  0  0  0  0
  -34.7220  -63.1220   48.4650 N   0  0  0  0  0  0  0  0  0  0  0  0
  -35.9270  -63.5020   49.1520 C   0  0  0  0  0  2  0  0  0  0  0  0
  -34.8440  -62.2310   47.3520 C   0  0  0  0  0  0  0  0  0  0  0  0
  -35.8670  -61.3380   47.2620 N   0  0  0  0  0  0  0  0  0  0  0  0
  -36.0160  -60.4920   46.2450 C   0  0  0  0  0  3  0  0  0  0  0  0
  -35.0860  -60.5120   45.2160 C   0  0  0  0  0  3  0  0  0  0  0  0
  -34.0540  -61.3890   45.2740 N   0  0  0  0  0  0  0  0  0  0  0  0
  -33.9370  -62.2270   46.3170 C   0  0  0  0  0  3  0  0  0  0  0  0
  1  2  1  0  0  0  0
  3  2  1  0  0  0  0
  3  4  1  0  0  0  0
  4  5  1  0  0  0  0
  5  6  1  0  0  0  0
  5  7  2  0  0  0  0
  6  9  1  0  0  0  0
  8 10  1  0  0  0  0
  8  6  2  0  0  0  0
  9 14  2  0  0  0  0
 10 12  2  0  0  0  0
 11  4  1  0  0  0  0
 11  8  1  0  0  0  0
 12 13  1  0  0  0  0
 12 14  1  0  0  0  0
 15 11  2  0  0  0  0
 16  1  1  0  0  0  0
 16 18  1  0  0  0  0
 17 16  2  0  0  0  0
 18 20  1  0  0  0  0
 19 18  1  0  0  0  0
 21 19  1  0  0  0  0
 22 21  1  0  0  0  0
 22 23  1  0  0  0  0
 23 20  1  0  0  0  0
 24 22  1  0  0  0  0
 25 24  1  0  0  0  0
 26 25  2  0  0  0  0
 27 28  2  0  0  0  0
 27 26  1  0  0  0  0
 28 29  1  0  0  0  0
 29 24  2  0  0  0  0
M  END
>  <Pose>
1

>  <Score>
-8.650

$$$$
