/Users/jonathanwahrer/Desktop/Msc/3_Semester/Drug_Design_Praktikum/waehrer_HTS_screening/HTS_experiment/out/docking_results/vina_output/3e7o/0483_docked.pdbqt
 OpenBabel03192215423D

 31 34  0  0  0  0  0  0  0  0999 V2000
  -42.2850  -67.2590   53.5540 C   0  0  0  0  0  2  0  0  0  0  0  0
  -41.4410  -67.8580   54.5760 C   0  0  0  0  0  0  0  0  0  0  0  0
  -40.7550  -68.3500   55.4340 C   0  0  0  0  0  3  0  0  0  0  0  0
  -41.4740  -66.6060   52.5460 N   0  0  0  0  0  0  0  0  0  0  0  0
  -40.3990  -67.1230   51.7710 C   0  0  0  0  0  0  0  0  0  0  0  0
  -39.8970  -66.1380   50.9110 C   0  0  0  0  0  0  0  0  0  0  0  0
  -39.8130  -68.3800   51.7450 C   0  0  0  0  0  3  0  0  0  0  0  0
  -38.8460  -66.4490   50.0750 C   0  0  0  0  0  3  0  0  0  0  0  0
  -40.6600  -64.9150   51.1120 C   0  0  0  0  0  0  0  0  0  0  0  0
  -38.2640  -67.7220   50.0590 C   0  0  0  0  0  0  0  0  0  0  0  0
  -36.8150  -68.1440   48.9030 Br  0  0  0  0  0  0  0  0  0  0  0  0
  -38.7660  -68.6710   50.9050 C   0  0  0  0  0  3  0  0  0  0  0  0
  -41.6500  -65.2520   52.1570 C   0  0  0  0  0  0  0  0  0  0  0  0
  -40.5150  -63.7800   50.5180 N   0  0  0  0  0  0  0  0  0  0  0  0
  -42.4790  -64.3940   52.5670 O   0  0  0  0  0  0  0  0  0  0  0  0
  -39.5400  -63.5700   49.5390 N   0  0  0  0  0  0  0  0  0  0  0  0
  -39.5500  -62.4410   48.6830 C   0  0  0  0  0  0  0  0  0  0  0  0
  -40.4650  -61.5950   48.8010 O   0  0  0  0  0  0  0  0  0  0  0  0
  -38.7860  -64.2790   49.4370 H   0  0  0  0  0  0  0  0  0  0  0  0
  -38.5090  -62.2720   47.6800 C   0  0  0  0  0  2  0  0  0  0  0  0
  -37.2000  -62.6930   48.1410 N   0  0  0  0  0  0  0  0  0  0  0  0
  -36.1480  -61.9250   48.3710 N   0  0  0  0  0  2  0  0  0  0  0  0
  -35.1260  -62.6560   48.7840 N   0  0  0  0  0  0  0  0  0  0  0  0
  -35.5230  -63.9400   48.8240 C   0  0  0  0  0  0  0  0  0  0  0  0
  -36.8020  -63.9250   48.4240 N   0  0  0  0  0  2  0  0  0  0  0  0
  -34.6950  -65.0710   49.2270 C   0  0  0  0  0  0  0  0  0  0  0  0
  -34.7670  -65.5570   50.5140 C   0  0  0  0  0  3  0  0  0  0  0  0
  -33.9760  -66.6400   50.9040 C   0  0  0  0  0  3  0  0  0  0  0  0
  -33.1080  -67.2510   50.0280 C   0  0  0  0  0  3  0  0  0  0  0  0
  -33.0330  -66.7660   48.7340 C   0  0  0  0  0  3  0  0  0  0  0  0
  -33.8230  -65.6890   48.3560 C   0  0  0  0  0  3  0  0  0  0  0  0
  1  2  1  0  0  0  0
  2  3  3  0  0  0  0
  4  1  1  0  0  0  0
  5  4  1  0  0  0  0
  6  9  1  0  0  0  0
  6  5  2  0  0  0  0
  7  5  1  0  0  0  0
  8  6  1  0  0  0  0
  9 13  1  0  0  0  0
 10  8  2  0  0  0  0
 10 12  1  0  0  0  0
 11 10  1  0  0  0  0
 12  7  2  0  0  0  0
 13  4  1  0  0  0  0
 13 15  2  0  0  0  0
 14  9  2  0  0  0  0
 16 14  1  0  0  0  0
 17 18  2  0  0  0  0
 17 16  1  0  0  0  0
 19 16  1  0  0  0  0
 20 21  1  0  0  0  0
 20 17  1  0  0  0  0
 21 22  1  0  0  0  0
 21 25  1  0  0  0  0
 22 23  1  0  0  0  0
 23 24  2  0  0  0  0
 24 26  1  0  0  0  0
 25 24  1  0  0  0  0
 26 27  1  0  0  0  0
 27 28  2  0  0  0  0
 29 28  1  0  0  0  0
 30 29  2  0  0  0  0
 31 30  1  0  0  0  0
 31 26  2  0  0  0  0
M  END
>  <Pose>
1

>  <Score>
-9.049

$$$$
