MODEL 1
REMARK VINA RESULT:    -9.049      0.000      0.000
REMARK INTER + INTRA:         -13.407
REMARK INTER:                 -11.694
REMARK INTRA:                  -1.713
REMARK UNBOUND:                -1.713
REMARK  5 active torsions:
REMARK  status: ('A' for Active; 'I' for Inactive)
REMARK    1  A    between atoms: N_8  and  C_28 
REMARK    2  A    between atoms: N_12  and  N_13 
REMARK       I    between atoms: N_13  and  C_14 
REMARK    3  A    between atoms: C_14  and  C_16 
REMARK    4  A    between atoms: C_16  and  N_17 
REMARK    5  A    between atoms: C_20  and  C_22 
ROOT
ATOM      1  C   UNK d   1     -42.285 -67.259  53.554  0.00  0.00     0.225 C 
ATOM      2  C   UNK d   1     -41.441 -67.858  54.576  0.00  0.00    -0.097 C 
ATOM      3  C   UNK d   1     -40.755 -68.350  55.434  0.00  0.00     0.014 C 
ENDROOT
BRANCH   1   4
ATOM      4  N   UNK d   1     -41.474 -66.606  52.546  0.00  0.00    -0.300 N 
ATOM      5  C   UNK d   1     -40.399 -67.123  51.771  0.00  0.00     0.051 A 
ATOM      6  C   UNK d   1     -39.897 -66.138  50.911  0.00  0.00     0.028 A 
ATOM      7  C   UNK d   1     -39.813 -68.380  51.745  0.00  0.00     0.032 A 
ATOM      8  C   UNK d   1     -38.846 -66.449  50.075  0.00  0.00     0.035 A 
ATOM      9  C   UNK d   1     -40.660 -64.915  51.112  0.00  0.00     0.157 A 
ATOM     10  C   UNK d   1     -38.264 -67.722  50.059  0.00  0.00     0.011 A 
ATOM     11 Br   UNK d   1     -36.815 -68.144  48.903  0.00  0.00    -0.051 Br
ATOM     12  C   UNK d   1     -38.766 -68.671  50.905  0.00  0.00     0.021 A 
ATOM     13  C   UNK d   1     -41.650 -65.252  52.157  0.00  0.00     0.280 A 
ATOM     14  N   UNK d   1     -40.515 -63.780  50.518  0.00  0.00    -0.166 NA
ATOM     15  O   UNK d   1     -42.479 -64.394  52.567  0.00  0.00    -0.265 OA
BRANCH  14  16
ATOM     16  N   UNK d   1     -39.540 -63.570  49.539  0.00  0.00    -0.245 N 
ATOM     17  C   UNK d   1     -39.550 -62.441  48.683  0.00  0.00     0.258 C 
ATOM     18  O   UNK d   1     -40.465 -61.595  48.801  0.00  0.00    -0.270 OA
ATOM     19  H   UNK d   1     -38.786 -64.279  49.437  0.00  0.00     0.192 HD
BRANCH  17  20
ATOM     20  C   UNK d   1     -38.509 -62.272  47.680  0.00  0.00     0.274 C 
BRANCH  20  21
ATOM     21  N   UNK d   1     -37.200 -62.693  48.141  0.00  0.00    -0.182 N 
ATOM     22  N   UNK d   1     -36.148 -61.925  48.371  0.00  0.00     0.025 NA
ATOM     23  N   UNK d   1     -35.126 -62.656  48.784  0.00  0.00    -0.136 NA
ATOM     24  C   UNK d   1     -35.523 -63.940  48.824  0.00  0.00     0.198 A 
ATOM     25  N   UNK d   1     -36.802 -63.925  48.424  0.00  0.00    -0.136 NA
BRANCH  24  26
ATOM     26  C   UNK d   1     -34.695 -65.071  49.227  0.00  0.00     0.015 A 
ATOM     27  C   UNK d   1     -34.767 -65.557  50.514  0.00  0.00     0.015 A 
ATOM     28  C   UNK d   1     -33.976 -66.640  50.904  0.00  0.00     0.001 A 
ATOM     29  C   UNK d   1     -33.108 -67.251  50.028  0.00  0.00     0.000 A 
ATOM     30  C   UNK d   1     -33.033 -66.766  48.734  0.00  0.00     0.001 A 
ATOM     31  C   UNK d   1     -33.823 -65.689  48.356  0.00  0.00     0.015 A 
ENDBRANCH  24  26
ENDBRANCH  20  21
ENDBRANCH  17  20
ENDBRANCH  14  16
ENDBRANCH   1   4
TORSDOF 5
ENDMDL
