MODEL 1
REMARK VINA RESULT:    -8.598      0.000      0.000
REMARK INTER + INTRA:         -14.168
REMARK INTER:                 -12.620
REMARK INTRA:                  -1.548
REMARK UNBOUND:                -1.548
REMARK  8 active torsions:
REMARK  status: ('A' for Active; 'I' for Inactive)
REMARK    1  A    between atoms: N_8  and  C_28 
REMARK    2  A    between atoms: C_11  and  N_12 
REMARK       I    between atoms: N_13  and  C_14 
REMARK    3  A    between atoms: C_14  and  C_16 
REMARK    4  A    between atoms: C_16  and  O_17 
REMARK    5  A    between atoms: O_17  and  N_18 
REMARK    6  A    between atoms: C_19  and  C_20 
REMARK    7  A    between atoms: C_23  and  O_26 
REMARK    8  A    between atoms: C_28  and  N_29 
ROOT
ATOM      1 Br   UNK d   1     -38.582 -69.757  52.818  0.00  0.00    -0.051 Br
ATOM      2  C   UNK d   1     -40.033 -68.517  52.809  0.00  0.00     0.011 A 
ATOM      3  C   UNK d   1     -40.052 -67.414  51.942  0.00  0.00     0.035 A 
ATOM      4  C   UNK d   1     -41.144 -66.599  52.017  0.00  0.00     0.028 A 
ATOM      5  C   UNK d   1     -42.201 -66.797  52.881  0.00  0.00     0.052 A 
ATOM      6  C   UNK d   1     -42.178 -67.877  53.734  0.00  0.00     0.032 A 
ATOM      7  C   UNK d   1     -41.075 -68.742  53.683  0.00  0.00     0.021 A 
ATOM      8  N   UNK d   1     -43.198 -65.793  52.740  0.00  0.00    -0.295 N 
ATOM      9  C   UNK d   1     -42.716 -64.892  51.709  0.00  0.00     0.281 A 
ATOM     10  O   UNK d   1     -43.326 -63.886  51.292  0.00  0.00    -0.265 OA
ATOM     11  C   UNK d   1     -41.432 -65.405  51.286  0.00  0.00     0.157 A 
ENDROOT
BRANCH  11  12
ATOM     12  N   UNK d   1     -40.571 -64.857  50.518  0.00  0.00    -0.166 NA
ATOM     13  N   UNK d   1     -40.335 -64.416  49.464  0.00  0.00    -0.244 N 
ATOM     14  C   UNK d   1     -40.058 -63.898  48.178  0.00  0.00     0.264 C 
ATOM     15  H   UNK d   1     -40.962 -65.468  48.809  0.00  0.00     0.192 HD
ATOM     16  O   UNK d   1     -40.390 -64.244  47.067  0.00  0.00    -0.269 OA
BRANCH  14  17
ATOM     17  C   UNK d   1     -39.138 -62.664  48.316  0.00  0.00     0.308 C 
BRANCH  17  18
ATOM     18  O   UNK d   1     -37.932 -63.052  47.624  0.00  0.00    -0.247 OA
BRANCH  18  19
ATOM     19  N   UNK d   1     -37.264 -64.175  48.191  0.00  0.00    -0.145 NA
ATOM     20  C   UNK d   1     -36.515 -64.056  49.216  0.00  0.00     0.157 C 
BRANCH  20  21
ATOM     21  C   UNK d   1     -35.836 -65.208  49.763  0.00  0.00    -0.016 A 
ATOM     22  C   UNK d   1     -34.576 -65.216  50.262  0.00  0.00     0.015 A 
ATOM     23  C   UNK d   1     -34.070 -66.473  50.681  0.00  0.00     0.037 A 
ATOM     24  C   UNK d   1     -34.704 -67.643  50.649  0.00  0.00     0.068 A 
ATOM     25  C   UNK d   1     -35.959 -67.582  50.148  0.00  0.00     0.037 A 
ATOM     26  C   UNK d   1     -36.605 -66.497  49.692  0.00  0.00     0.015 A 
BRANCH  24  27
ATOM     27  O   UNK d   1     -34.082 -68.811  51.105  0.00  0.00    -0.356 OA
ATOM     28  C   UNK d   1     -34.836 -69.829  51.753  0.00  0.00     0.210 C 
ENDBRANCH  24  27
ENDBRANCH  20  21
ENDBRANCH  18  19
ENDBRANCH  17  18
ENDBRANCH  14  17
ENDBRANCH  11  12
BRANCH   8  29
ATOM     29  C   UNK d   1     -44.494 -65.610  53.372  0.00  0.00     0.253 C 
BRANCH  29  30
ATOM     30  N   UNK d   1     -45.485 -66.334  52.742  0.00  0.00    -0.392 N 
ATOM     31  C   UNK d   1     -45.896 -67.454  53.488  0.00  0.00     0.145 C 
ATOM     32  C   UNK d   1     -47.424 -67.542  53.483  0.00  0.00     0.187 C 
ATOM     33  O   UNK d   1     -47.824 -66.243  53.900  0.00  0.00    -0.388 OA
ATOM     34  C   UNK d   1     -47.669 -65.352  52.830  0.00  0.00     0.187 C 
ATOM     35  C   UNK d   1     -46.444 -65.611  52.009  0.00  0.00     0.145 C 
ENDBRANCH  29  30
ENDBRANCH   8  29
TORSDOF 8
ENDMDL
