/Users/jonathanwahrer/Desktop/Msc/3_Semester/Drug_Design_Praktikum/waehrer_HTS_screening/HTS_experiment/out/docking_results/vina_output/3e7o/0484_docked.pdbqt
 OpenBabel03192215433D

 35 38  0  0  1  0  0  0  0  0999 V2000
  -38.5820  -69.7570   52.8180 Br  0  0  0  0  0  0  0  0  0  0  0  0
  -40.0330  -68.5170   52.8090 C   0  0  0  0  0  0  0  0  0  0  0  0
  -40.0520  -67.4140   51.9420 C   0  0  0  0  0  3  0  0  0  0  0  0
  -41.1440  -66.5990   52.0170 C   0  0  0  0  0  0  0  0  0  0  0  0
  -42.2010  -66.7970   52.8810 C   0  0  0  0  0  0  0  0  0  0  0  0
  -42.1780  -67.8770   53.7340 C   0  0  0  0  0  3  0  0  0  0  0  0
  -41.0750  -68.7420   53.6830 C   0  0  0  0  0  3  0  0  0  0  0  0
  -43.1980  -65.7930   52.7400 N   0  0  0  0  0  0  0  0  0  0  0  0
  -42.7160  -64.8920   51.7090 C   0  0  0  0  0  0  0  0  0  0  0  0
  -43.3260  -63.8860   51.2920 O   0  0  0  0  0  0  0  0  0  0  0  0
  -41.4320  -65.4050   51.2860 C   0  0  1  0  0  3  0  0  0  0  0  0
  -40.5710  -64.8570   50.5180 N   0  0  0  0  0  2  0  0  0  0  0  0
  -40.3350  -64.4160   49.4640 N   0  0  0  0  0  0  0  0  0  0  0  0
  -40.0580  -63.8980   48.1780 C   0  0  0  0  0  0  0  0  0  0  0  0
  -40.9620  -65.4680   48.8090 H   0  0  0  0  0  0  0  0  0  0  0  0
  -40.3900  -64.2440   47.0670 O   0  0  0  0  0  0  0  0  0  0  0  0
  -39.1380  -62.6640   48.3160 C   0  0  0  0  0  2  0  0  0  0  0  0
  -37.9320  -63.0520   47.6240 O   0  0  0  0  0  0  0  0  0  0  0  0
  -37.2640  -64.1750   48.1910 N   0  0  0  0  0  0  0  0  0  0  0  0
  -36.5150  -64.0560   49.2160 C   0  0  0  0  0  3  0  0  0  0  0  0
  -35.8360  -65.2080   49.7630 C   0  0  0  0  0  0  0  0  0  0  0  0
  -34.5760  -65.2160   50.2620 C   0  0  0  0  0  3  0  0  0  0  0  0
  -34.0700  -66.4730   50.6810 C   0  0  0  0  0  3  0  0  0  0  0  0
  -34.7040  -67.6430   50.6490 C   0  0  0  0  0  0  0  0  0  0  0  0
  -35.9590  -67.5820   50.1480 C   0  0  0  0  0  3  0  0  0  0  0  0
  -36.6050  -66.4970   49.6920 C   0  0  0  0  0  3  0  0  0  0  0  0
  -34.0820  -68.8110   51.1050 O   0  0  0  0  0  0  0  0  0  0  0  0
  -34.8360  -69.8290   51.7530 C   0  0  0  0  0  1  0  0  0  0  0  0
  -44.4940  -65.6100   53.3720 C   0  0  0  0  0  2  0  0  0  0  0  0
  -45.4850  -66.3340   52.7420 N   0  0  0  0  0  0  0  0  0  0  0  0
  -45.8960  -67.4540   53.4880 C   0  0  0  0  0  2  0  0  0  0  0  0
  -47.4240  -67.5420   53.4830 C   0  0  0  0  0  2  0  0  0  0  0  0
  -47.8240  -66.2430   53.9000 O   0  0  0  0  0  0  0  0  0  0  0  0
  -47.6690  -65.3520   52.8300 C   0  0  0  0  0  2  0  0  0  0  0  0
  -46.4440  -65.6110   52.0090 C   0  0  0  0  0  2  0  0  0  0  0  0
  2  1  1  0  0  0  0
  2  7  1  0  0  0  0
  3  4  1  0  0  0  0
  3  2  2  0  0  0  0
  4  5  2  0  0  0  0
  5  6  1  0  0  0  0
  7  6  2  0  0  0  0
  8  5  1  0  0  0  0
  8 29  1  0  0  0  0
  9  8  1  0  0  0  0
 10  9  2  0  0  0  0
 11 12  1  1  0  0  0
 11  9  1  0  0  0  0
 11  4  1  0  0  0  0
 13 12  1  0  0  0  0
 14 17  1  0  0  0  0
 14 13  1  0  0  0  0
 15 13  1  0  0  0  0
 16 14  2  0  0  0  0
 18 19  1  0  0  0  0
 18 17  1  0  0  0  0
 19 20  2  0  0  0  0
 20 21  1  0  0  0  0
 21 22  1  0  0  0  0
 22 23  2  0  0  0  0
 24 23  1  0  0  0  0
 24 27  1  0  0  0  0
 25 24  2  0  0  0  0
 26 21  2  0  0  0  0
 26 25  1  0  0  0  0
 27 28  1  0  0  0  0
 30 29  1  0  0  0  0
 30 31  1  0  0  0  0
 32 31  1  0  0  0  0
 32 33  1  0  0  0  0
 34 33  1  0  0  0  0
 35 30  1  0  0  0  0
 35 34  1  0  0  0  0
M  END
>  <Pose>
1

>  <Score>
-8.598

$$$$
