MODEL 1
REMARK VINA RESULT:    -8.087      0.000      0.000
REMARK INTER + INTRA:         -12.724
REMARK INTER:                 -11.396
REMARK INTRA:                  -1.328
REMARK UNBOUND:                -1.328
REMARK  7 active torsions:
REMARK  status: ('A' for Active; 'I' for Inactive)
REMARK    1  A    between atoms: N_8  and  C_26 
REMARK    2  A    between atoms: N_12  and  N_13 
REMARK       I    between atoms: N_13  and  C_14 
REMARK    3  A    between atoms: C_14  and  C_16 
REMARK    4  A    between atoms: C_16  and  O_17 
REMARK    5  A    between atoms: O_17  and  C_18 
REMARK    6  A    between atoms: C_19  and  O_24 
REMARK    7  A    between atoms: C_26  and  N_27 
ROOT
ATOM      1 Br   UNK d   1     -38.892 -70.284  53.894  0.00  0.00    -0.051 Br
ATOM      2  C   UNK d   1     -40.246 -68.925  53.775  0.00  0.00     0.011 A 
ATOM      3  C   UNK d   1     -40.414 -68.176  52.633  0.00  0.00     0.035 A 
ATOM      4  C   UNK d   1     -41.378 -67.182  52.500  0.00  0.00     0.028 A 
ATOM      5  C   UNK d   1     -42.221 -66.932  53.586  0.00  0.00     0.052 A 
ATOM      6  C   UNK d   1     -42.053 -67.683  54.732  0.00  0.00     0.032 A 
ATOM      7  C   UNK d   1     -41.081 -68.673  54.843  0.00  0.00     0.021 A 
ATOM      8  N   UNK d   1     -43.143 -65.882  53.260  0.00  0.00    -0.295 N 
ATOM      9  C   UNK d   1     -42.848 -65.480  51.929  0.00  0.00     0.281 A 
ATOM     10  O   UNK d   1     -43.445 -64.583  51.294  0.00  0.00    -0.265 OA
ATOM     11  C   UNK d   1     -41.746 -66.278  51.426  0.00  0.00     0.157 A 
ATOM     12  N   UNK d   1     -41.198 -66.207  50.265  0.00  0.00    -0.166 NA
ENDROOT
BRANCH  12  13
ATOM     13  N   UNK d   1     -41.607 -65.311  49.284  0.00  0.00    -0.244 N 
ATOM     14  C   UNK d   1     -40.939 -64.077  49.140  0.00  0.00     0.261 C 
ATOM     15  O   UNK d   1     -39.956 -63.755  49.893  0.00  0.00    -0.269 OA
ATOM     16  H   UNK d   1     -42.396 -65.555  48.670  0.00  0.00     0.192 HD
BRANCH  14  17
ATOM     17  C   UNK d   1     -41.308 -63.064  48.120  0.00  0.00     0.280 C 
BRANCH  17  18
ATOM     18  O   UNK d   1     -42.388 -62.260  48.594  0.00  0.00    -0.339 OA
BRANCH  18  19
ATOM     19  C   UNK d   1     -43.668 -62.468  48.109  0.00  0.00     0.102 A 
ATOM     20  C   UNK d   1     -44.748 -61.873  48.726  0.00  0.00     0.101 A 
ATOM     21  C   UNK d   1     -46.031 -62.087  48.233  0.00  0.00     0.039 A 
ATOM     22  C   UNK d   1     -46.233 -62.893  47.129  0.00  0.00     0.003 A 
ATOM     23  C   UNK d   1     -45.155 -63.475  46.530  0.00  0.00     0.003 A 
ATOM     24  C   UNK d   1     -43.878 -63.262  47.022  0.00  0.00     0.039 A 
BRANCH  20  25
ATOM     25  O   UNK d   1     -44.581 -61.067  49.824  0.00  0.00    -0.353 OA
ATOM     26  C   UNK d   1     -44.780 -59.680  49.729  0.00  0.00     0.210 C 
ENDBRANCH  20  25
ENDBRANCH  18  19
ENDBRANCH  17  18
ENDBRANCH  14  17
ENDBRANCH  12  13
BRANCH   8  27
ATOM     27  C   UNK d   1     -44.166 -65.367  54.154  0.00  0.00     0.253 C 
BRANCH  27  28
ATOM     28  N   UNK d   1     -45.479 -65.833  53.892  0.00  0.00    -0.393 N 
ATOM     29  C   UNK d   1     -46.329 -64.938  53.184  0.00  0.00     0.148 C 
ATOM     30  C   UNK d   1     -47.744 -65.500  53.020  0.00  0.00     0.291 C 
ATOM     31  N   UNK d   1     -47.851 -66.623  53.907  0.00  0.00     0.087 N 
ATOM     32  C   UNK d   1     -47.008 -67.715  53.531  0.00  0.00     0.291 C 
ATOM     33  C   UNK d   1     -49.201 -66.991  54.220  0.00  0.00     0.310 C 
ATOM     34  C   UNK d   1     -45.579 -67.205  53.484  0.00  0.00     0.148 C 
ENDBRANCH  27  28
ENDBRANCH   8  27
TORSDOF 7
ENDMDL
