/Users/jonathanwahrer/Desktop/Msc/3_Semester/Drug_Design_Praktikum/waehrer_HTS_screening/HTS_experiment/out/docking_results/vina_output/3e7o/0500_docked.pdbqt
 OpenBabel03192215443D

 32 35  0  0  1  0  0  0  0  0999 V2000
  -50.9760  -69.0570   48.6650 Br  0  0  0  0  0  0  0  0  0  0  0  0
  -50.1610  -67.5230   49.4970 C   0  0  0  0  0  0  0  0  0  0  0  0
  -50.3630  -67.1790   50.8020 C   0  0  0  0  0  3  0  0  0  0  0  0
  -49.7880  -66.0610   51.3480 C   0  0  0  0  0  0  0  0  0  0  0  0
  -48.9990  -65.3000   50.5320 C   0  0  0  0  0  0  0  0  0  0  0  0
  -48.7730  -65.6330   49.1910 C   0  0  0  0  0  3  0  0  0  0  0  0
  -49.3580  -66.7600   48.6510 C   0  0  0  0  0  3  0  0  0  0  0  0
  -48.5060  -64.1610   51.2110 N   0  0  0  0  0  0  0  0  0  0  0  0
  -49.0060  -64.2020   52.5100 C   0  0  0  0  0  0  0  0  0  0  0  0
  -48.7730  -63.3180   53.3770 O   0  0  0  0  0  0  0  0  0  0  0  0
  -49.8440  -65.4450   52.6860 C   0  0  2  0  0  0  0  0  0  0  0  0
  -49.2050  -66.1740   53.7710 C   0  0  0  0  0  0  0  0  0  0  0  0
  -49.8510  -66.3390   54.9580 C   0  0  0  0  0  0  0  0  0  0  0  0
  -49.0080  -67.0420   55.7650 N   0  0  0  0  0  0  0  0  0  0  0  0
  -47.9010  -67.2980   55.1170 N   0  0  0  0  0  0  0  0  0  0  0  0
  -47.9460  -66.7880   53.8640 C   0  0  0  0  0  0  0  0  0  0  0  0
  -51.1440  -65.8330   55.2010 O   0  0  0  0  0  0  0  0  0  0  0  0
  -51.7460  -65.1430   54.1670 C   0  0  0  0  0  0  0  0  0  0  0  0
  -51.1740  -64.9520   53.0110 C   0  0  0  0  0  0  0  0  0  0  0  0
  -51.8930  -64.2000   51.9790 C   0  0  0  0  0  0  0  0  0  0  0  0
  -52.4620  -63.6290   51.1640 N   0  0  0  0  0  0  0  0  0  0  0  0
  -47.6200  -63.1230   50.6450 C   0  0  0  0  0  1  0  0  0  0  0  0
  -47.0570  -67.8280   55.4780 H   0  0  0  0  0  0  0  0  0  0  0  0
  -53.0730  -64.6210   54.4140 N   0  0  0  0  0  0  0  0  0  0  0  0
  -53.3310  -63.6280   54.2850 H   0  0  0  0  0  0  0  0  0  0  0  0
  -53.7960  -65.2850   54.7360 H   0  0  0  0  0  0  0  0  0  0  0  0
  -46.8660  -66.9140   52.8530 C   0  0  0  0  0  2  0  0  0  0  0  0
  -45.7820  -65.9370   53.0930 C   0  0  0  0  0  0  0  0  0  0  0  0
  -45.2920  -65.1660   52.2290 O   0  0  0  0  0  0  0  0  0  0  0  0
  -45.2670  -65.8660   54.3680 O   0  0  0  0  0  0  0  0  0  0  0  0
  -43.9130  -65.9520   54.7240 C   0  0  0  0  0  2  0  0  0  0  0  0
  -43.3890  -67.3310   54.4020 C   0  0  0  0  0  1  0  0  0  0  0  0
  1  2  1  0  0  0  0
  2  3  1  0  0  0  0
  3  4  2  0  0  0  0
  5  8  1  0  0  0  0
  5  4  1  0  0  0  0
  6  5  2  0  0  0  0
  7  6  1  0  0  0  0
  7  2  2  0  0  0  0
  8  9  1  0  0  0  0
  9 11  1  0  0  0  0
  9 10  2  0  0  0  0
 11  4  1  6  0  0  0
 11 19  1  0  0  0  0
 11 12  1  0  0  0  0
 12 16  2  0  0  0  0
 12 13  1  0  0  0  0
 13 17  1  0  0  0  0
 13 14  2  0  0  0  0
 15 23  1  0  0  0  0
 15 14  1  0  0  0  0
 16 15  1  0  0  0  0
 18 24  1  0  0  0  0
 18 17  1  0  0  0  0
 19 18  2  0  0  0  0
 20 19  1  0  0  0  0
 21 20  3  0  0  0  0
 22  8  1  0  0  0  0
 24 26  1  0  0  0  0
 25 24  1  0  0  0  0
 27 28  1  0  0  0  0
 27 16  1  0  0  0  0
 28 30  1  0  0  0  0
 29 28  2  0  0  0  0
 30 31  1  0  0  0  0
 32 31  1  0  0  0  0
M  END
>  <Pose>
1

>  <Score>
-5.263

$$$$
