MODEL 1
REMARK VINA RESULT:    -5.526      0.000      0.000
REMARK INTER + INTRA:          -5.687
REMARK INTER:                  -5.687
REMARK INTRA:                   0.000
REMARK UNBOUND:                 0.000
REMARK  1 active torsions:
REMARK  status: ('A' for Active; 'I' for Inactive)
REMARK    1  A    between atoms: C_19  and  N_23 
ROOT
ATOM      1 Br   UNK d   1     -38.761 -65.926  48.106  0.00  0.00    -0.051 Br
ATOM      2  C   UNK d   1     -36.997 -66.307  47.430  0.00  0.00     0.011 A 
ATOM      3  C   UNK d   1     -36.091 -65.302  47.213  0.00  0.00     0.030 A 
ATOM      4  C   UNK d   1     -34.834 -65.600  46.729  0.00  0.00    -0.002 A 
ATOM      5  C   UNK d   1     -34.543 -66.914  46.482  0.00  0.00     0.045 A 
ATOM      6  C   UNK d   1     -35.476 -67.946  46.707  0.00  0.00     0.031 A 
ATOM      7  C   UNK d   1     -36.719 -67.633  47.188  0.00  0.00     0.021 A 
ATOM      8  N   UNK d   1     -33.215 -67.060  45.989  0.00  0.00    -0.320 N 
ATOM      9  C   UNK d   1     -32.638 -65.786  45.919  0.00  0.00     0.247 A 
ATOM     10  O   UNK d   1     -31.459 -65.538  45.521  0.00  0.00    -0.271 OA
ATOM     11  C   UNK d   1     -33.649 -64.775  46.392  0.00  0.00     0.145 A 
ATOM     12  C   UNK d   1     -33.052 -64.127  47.554  0.00  0.00     0.049 A 
ATOM     13  C   UNK d   1     -32.757 -62.799  47.548  0.00  0.00     0.200 A 
ATOM     14  N   UNK d   1     -32.219 -62.514  48.771  0.00  0.00    -0.148 NA
ATOM     15  N   UNK d   1     -32.173 -63.601  49.512  0.00  0.00    -0.280 N 
ATOM     16  C   UNK d   1     -32.673 -64.614  48.808  0.00  0.00     0.036 A 
ATOM     17  C   UNK d   1     -32.840 -66.048  49.201  0.00  0.00     0.070 C 
ATOM     18  O   UNK d   1     -33.002 -61.973  46.446  0.00  0.00    -0.272 OA
ATOM     19  C   UNK d   1     -33.571 -62.595  45.339  0.00  0.00     0.162 A 
ATOM     20  C   UNK d   1     -33.876 -63.865  45.284  0.00  0.00     0.100 A 
ATOM     21  C   UNK d   1     -34.473 -64.352  44.029  0.00  0.00     0.101 C 
ATOM     22  N   UNK d   1     -34.948 -64.760  43.043  0.00  0.00    -0.191 NA
ATOM     23  C   UNK d   1     -32.553 -68.320  45.615  0.00  0.00     0.159 C 
ATOM     24  H   UNK d   1     -31.814 -63.708  50.496  0.00  0.00     0.189 HD
ENDROOT
BRANCH  19  25
ATOM     25  N   UNK d   1     -33.849 -61.786  44.161  0.00  0.00    -0.379 N 
ATOM     26  H   UNK d   1     -34.644 -62.122  43.582  0.00  0.00     0.158 HD
ATOM     27  H   UNK d   1     -33.316 -60.956  43.911  0.00  0.00     0.158 HD
ENDBRANCH  19  25
TORSDOF 1
ENDMDL
