MODEL 1
REMARK VINA RESULT:    -5.371      0.000      0.000
REMARK INTER + INTRA:          -5.528
REMARK INTER:                  -5.528
REMARK INTRA:                   0.000
REMARK UNBOUND:                 0.000
REMARK  1 active torsions:
REMARK  status: ('A' for Active; 'I' for Inactive)
REMARK    1  A    between atoms: C_15  and  N_19 
ROOT
ATOM      1 Br   UNK d   1     -40.104 -64.606  47.890  0.00  0.00    -0.051 Br
ATOM      2  C   UNK d   1     -38.824 -63.347  47.269  0.00  0.00     0.011 A 
ATOM      3  C   UNK d   1     -37.534 -63.689  46.942  0.00  0.00     0.030 A 
ATOM      4  C   UNK d   1     -36.654 -62.705  46.493  0.00  0.00    -0.002 A 
ATOM      5  C   UNK d   1     -37.003 -61.403  46.356  0.00  0.00     0.045 A 
ATOM      6  C   UNK d   1     -38.316 -61.056  46.688  0.00  0.00     0.031 A 
ATOM      7  C   UNK d   1     -39.199 -62.014  47.133  0.00  0.00     0.021 A 
ATOM      8  N   UNK d   1     -35.932 -60.609  45.884  0.00  0.00    -0.320 N 
ATOM      9  C   UNK d   1     -34.822 -61.457  45.707  0.00  0.00     0.247 A 
ATOM     10  O   UNK d   1     -33.680 -61.111  45.296  0.00  0.00    -0.271 OA
ATOM     11  C   UNK d   1     -35.219 -62.842  46.084  0.00  0.00     0.146 A 
ATOM     12  C   UNK d   1     -34.414 -63.315  47.239  0.00  0.00     0.071 A 
ATOM     13  C   UNK d   1     -33.767 -64.424  47.224  0.00  0.00     0.060 A 
ATOM     14  N   UNK d   1     -33.763 -65.316  46.075  0.00  0.00    -0.342 N 
ATOM     15  C   UNK d   1     -34.525 -64.879  44.970  0.00  0.00     0.118 A 
ATOM     16  C   UNK d   1     -35.190 -63.756  44.963  0.00  0.00     0.093 A 
ATOM     17  C   UNK d   1     -35.931 -63.436  43.750  0.00  0.00     0.101 C 
ATOM     18  N   UNK d   1     -36.526 -63.163  42.794  0.00  0.00    -0.191 NA
ATOM     19  C   UNK d   1     -33.070 -64.591  48.536  0.00  0.00     0.106 A 
ATOM     20  O   UNK d   1     -33.397 -63.469  49.270  0.00  0.00    -0.301 OA
ATOM     21  C   UNK d   1     -34.211 -62.639  48.561  0.00  0.00     0.294 A 
ATOM     22  O   UNK d   1     -34.721 -61.524  48.884  0.00  0.00    -0.259 OA
ATOM     23  C   UNK d   1     -31.579 -64.754  48.314  0.00  0.00     0.053 C 
ATOM     24  C   UNK d   1     -33.600 -65.807  49.273  0.00  0.00     0.053 C 
ATOM     25  C   UNK d   1     -35.935 -59.163  45.616  0.00  0.00     0.159 C 
ATOM     26  H   UNK d   1     -33.223 -66.198  46.117  0.00  0.00     0.167 HD
ENDROOT
BRANCH  15  27
ATOM     27  N   UNK d   1     -34.558 -65.731  43.792  0.00  0.00    -0.384 N 
ATOM     28  H   UNK d   1     -35.315 -65.550  43.102  0.00  0.00     0.157 HD
ATOM     29  H   UNK d   1     -33.866 -66.480  43.650  0.00  0.00     0.157 HD
ENDBRANCH  15  27
TORSDOF 1
ENDMDL
