/Users/jonathanwahrer/Desktop/Msc/3_Semester/Drug_Design_Praktikum/waehrer_HTS_screening/HTS_experiment/out/docking_results/vina_output/3e7o/0505_docked.pdbqt
 OpenBabel03192215443D

 30 33  0  0  1  0  0  0  0  0999 V2000
  -47.1800  -64.8900   46.2030 Br  0  0  0  0  0  0  0  0  0  0  0  0
  -46.1850  -63.4510   46.9520 C   0  0  0  0  0  0  0  0  0  0  0  0
  -44.8120  -63.4330   46.8350 C   0  0  0  0  0  3  0  0  0  0  0  0
  -44.0580  -62.3870   47.3760 C   0  0  0  0  0  0  0  0  0  0  0  0
  -44.7260  -61.3950   48.0190 C   0  0  0  0  0  0  0  0  0  0  0  0
  -46.1310  -61.4160   48.1390 C   0  0  0  0  0  3  0  0  0  0  0  0
  -46.8660  -62.4480   47.6030 C   0  0  0  0  0  3  0  0  0  0  0  0
  -43.7870  -60.4380   48.4920 N   0  0  0  0  0  0  0  0  0  0  0  0
  -42.4850  -60.8360   48.1380 C   0  0  0  0  0  0  0  0  0  0  0  0
  -41.4060  -60.2410   48.3860 O   0  0  0  0  0  0  0  0  0  0  0  0
  -42.5880  -62.1260   47.3930 C   0  0  1  0  0  0  0  0  0  0  0  0
  -41.8670  -63.1950   48.0920 C   0  0  0  0  0  0  0  0  0  0  0  0
  -40.9080  -63.9300   47.4750 C   0  0  0  0  0  0  0  0  0  0  0  0
  -40.5790  -63.6780   46.1390 O   0  0  0  0  0  0  0  0  0  0  0  0
  -41.2270  -62.6820   45.4360 C   0  0  0  0  0  0  0  0  0  0  0  0
  -42.1490  -61.9650   46.0040 C   0  0  0  0  0  0  0  0  0  0  0  0
  -42.7860  -60.9270   45.1800 C   0  0  0  0  0  0  0  0  0  0  0  0
  -43.2860  -60.1280   44.5410 N   0  0  0  0  0  0  0  0  0  0  0  0
  -40.2480  -64.9390   48.1810 C   0  0  0  0  0  0  0  0  0  0  0  0
  -39.3660  -65.6070   47.6010 O   0  0  0  0  0  0  0  0  0  0  0  0
  -40.5820  -65.1740   49.4940 C   0  0  0  0  0  3  0  0  0  0  0  0
  -41.5650  -64.3970   50.0690 C   0  0  0  0  0  0  0  0  0  0  0  0
  -42.1400  -63.4790   49.3680 O   0  0  0  0  0  0  0  0  0  0  0  0
  -44.1780  -59.2270   49.2380 C   0  0  0  0  0  1  0  0  0  0  0  0
  -40.8360  -62.4820   44.0680 N   0  0  0  0  0  0  0  0  0  0  0  0
  -40.6090  -63.2960   43.5010 H   0  0  0  0  0  0  0  0  0  0  0  0
  -40.7990  -61.5290   43.7100 H   0  0  0  0  0  0  0  0  0  0  0  0
  -41.9500  -64.6360   51.5140 C   0  0  0  0  0  2  0  0  0  0  0  0
  -43.0810  -63.8790   51.8150 O   0  0  0  0  0  0  0  0  0  0  0  0
  -43.6570  -63.8110   50.9950 H   0  0  0  0  0  0  0  0  0  0  0  0
  1  2  1  0  0  0  0
  2  7  1  0  0  0  0
  3  2  2  0  0  0  0
  3  4  1  0  0  0  0
  4 11  1  0  0  0  0
  4  5  2  0  0  0  0
  5  6  1  0  0  0  0
  5  8  1  0  0  0  0
  7  6  2  0  0  0  0
  8 24  1  0  0  0  0
  9 10  2  0  0  0  0
  9  8  1  0  0  0  0
 11 16  1  6  0  0  0
 11 12  1  0  0  0  0
 11  9  1  0  0  0  0
 12 23  1  0  0  0  0
 13 12  2  0  0  0  0
 13 19  1  0  0  0  0
 14 13  1  0  0  0  0
 15 16  2  0  0  0  0
 15 14  1  0  0  0  0
 17 16  1  0  0  0  0
 18 17  3  0  0  0  0
 19 21  1  0  0  0  0
 20 19  2  0  0  0  0
 21 22  2  0  0  0  0
 22 28  1  0  0  0  0
 23 22  1  0  0  0  0
 25 15  1  0  0  0  0
 26 25  1  0  0  0  0
 27 25  1  0  0  0  0
 28 29  1  0  0  0  0
 30 29  1  0  0  0  0
M  END
>  <Pose>
1

>  <Score>
-5.482

$$$$
