MODEL 1
REMARK VINA RESULT:    -9.079      0.000      0.000
REMARK INTER + INTRA:         -11.664
REMARK INTER:                 -11.202
REMARK INTRA:                  -0.461
REMARK UNBOUND:                -0.461
REMARK  4 active torsions:
REMARK  status: ('A' for Active; 'I' for Inactive)
REMARK    1  A    between atoms: C_12  and  N_13 
REMARK    2  A    between atoms: N_13  and  N_14 
REMARK       I    between atoms: N_14  and  C_15 
REMARK    3  A    between atoms: C_15  and  C_17 
REMARK    4  A    between atoms: C_17  and  N_18 
ROOT
ATOM      1  N   UNK d   1     -40.707 -65.049  50.531  0.00  0.00    -0.269 N 
ATOM      2  C   UNK d   1     -39.942 -65.083  49.334  0.00  0.00     0.254 C 
ATOM      3  O   UNK d   1     -40.409 -65.726  48.381  0.00  0.00    -0.270 OA
ATOM      4  H   UNK d   1     -40.305 -64.519  51.335  0.00  0.00     0.190 HD
ENDROOT
BRANCH   1   5
ATOM      5  N   UNK d   1     -41.930 -65.676  50.678  0.00  0.00    -0.308 N 
ATOM      6  H   UNK d   1     -42.302 -66.285  49.899  0.00  0.00     0.186 HD
BRANCH   5   7
ATOM      7  C   UNK d   1     -42.742 -65.566  51.815  0.00  0.00     0.125 C 
ATOM      8  C   UNK d   1     -42.610 -66.275  52.914  0.00  0.00     0.061 A 
ATOM      9  C   UNK d   1     -41.630 -67.319  53.232  0.00  0.00     0.009 A 
ATOM     10  C   UNK d   1     -43.455 -66.174  54.116  0.00  0.00     0.258 A 
ATOM     11  C   UNK d   1     -40.582 -67.862  52.521  0.00  0.00     0.034 A 
ATOM     12  C   UNK d   1     -41.843 -67.811  54.498  0.00  0.00     0.046 A 
ATOM     13  C   UNK d   1     -39.754 -68.864  53.027  0.00  0.00     0.011 A 
ATOM     14 Br   UNK d   1     -38.316 -69.561  51.975  0.00  0.00    -0.051 Br
ATOM     15  C   UNK d   1     -40.000 -69.329  54.294  0.00  0.00     0.021 A 
ATOM     16  C   UNK d   1     -41.031 -68.819  55.040  0.00  0.00     0.032 A 
ATOM     17  N   UNK d   1     -42.955 -67.117  55.045  0.00  0.00    -0.322 N 
ATOM     18  H   UNK d   1     -43.361 -67.272  55.998  0.00  0.00     0.169 HD
ATOM     19  O   UNK d   1     -44.422 -65.385  54.242  0.00  0.00    -0.267 OA
ENDBRANCH   5   7
ENDBRANCH   1   5
BRANCH   2  20
ATOM     20  C   UNK d   1     -38.641 -64.394  49.183  0.00  0.00     0.236 C 
BRANCH  20  21
ATOM     21  N   UNK d   1     -37.564 -65.264  49.278  0.00  0.00    -0.316 N 
ATOM     22  C   UNK d   1     -36.254 -65.086  49.117  0.00  0.00     0.149 A 
ATOM     23  C   UNK d   1     -35.613 -66.308  49.265  0.00  0.00     0.170 A 
ATOM     24  N   UNK d   1     -35.566 -63.953  48.866  0.00  0.00    -0.287 N 
ATOM     25  N   UNK d   1     -36.571 -67.219  49.518  0.00  0.00    -0.234 NA
ATOM     26  C   UNK d   1     -34.239 -66.386  49.152  0.00  0.00     0.283 A 
ATOM     27  C   UNK d   1     -37.731 -66.601  49.528  0.00  0.00     0.212 A 
ATOM     28  O   UNK d   1     -33.687 -67.508  49.288  0.00  0.00    -0.265 OA
ATOM     29  N   UNK d   1     -33.581 -65.263  48.903  0.00  0.00    -0.269 N 
ATOM     30  C   UNK d   1     -34.213 -64.084  48.764  0.00  0.00     0.332 A 
ATOM     31  C   UNK d   1     -32.115 -65.290  48.770  0.00  0.00     0.164 C 
ATOM     32  O   UNK d   1     -33.552 -63.045  48.529  0.00  0.00    -0.246 OA
ATOM     33  C   UNK d   1     -36.206 -62.674  48.749  0.00  0.00     0.163 C 
ENDBRANCH  20  21
ENDBRANCH   2  20
TORSDOF 4
ENDMDL
