MODEL 1
REMARK VINA RESULT:    -8.927      0.000      0.000
REMARK INTER + INTRA:         -11.573
REMARK INTER:                 -11.014
REMARK INTRA:                  -0.559
REMARK UNBOUND:                -0.559
REMARK  4 active torsions:
REMARK  status: ('A' for Active; 'I' for Inactive)
REMARK    1  A    between atoms: N_12  and  N_13 
REMARK       I    between atoms: N_13  and  C_14 
REMARK    2  A    between atoms: C_14  and  C_16 
REMARK    3  A    between atoms: C_16  and  N_17 
REMARK       I    between atoms: N_17  and  C_18 
REMARK    4  A    between atoms: C_18  and  C_20 
ROOT
ATOM      1  N   UNK d   1     -43.054 -66.681  53.965  0.00  0.00    -0.245 N 
ATOM      2  C   UNK d   1     -44.204 -66.293  53.254  0.00  0.00     0.255 C 
ATOM      3  O   UNK d   1     -44.177 -66.368  51.974  0.00  0.00    -0.270 OA
ATOM      4  H   UNK d   1     -43.056 -66.613  55.019  0.00  0.00     0.192 HD
ENDROOT
BRANCH   2   5
ATOM      5  C   UNK d   1     -45.472 -65.806  53.805  0.00  0.00     0.227 C 
BRANCH   5   6
ATOM      6  N   UNK d   1     -46.364 -66.804  54.325  0.00  0.00    -0.348 N 
ATOM      7  C   UNK d   1     -47.518 -67.223  53.605  0.00  0.00     0.252 C 
ATOM      8  O   UNK d   1     -47.706 -66.644  52.465  0.00  0.00    -0.268 OA
ATOM      9  H   UNK d   1     -46.217 -67.245  55.246  0.00  0.00     0.163 HD
BRANCH   7  10
ATOM     10  C   UNK d   1     -48.471 -68.205  54.024  0.00  0.00     0.034 A 
ATOM     11  C   UNK d   1     -48.996 -69.208  53.223  0.00  0.00     0.056 A 
ATOM     12  C   UNK d   1     -49.891 -70.112  53.684  0.00  0.00     0.106 A 
ATOM     13  C   UNK d   1     -50.329 -70.078  54.992  0.00  0.00     0.105 A 
ATOM     14  O   UNK d   1     -50.585 -71.240  53.107  0.00  0.00    -0.323 OA
ATOM     15  C   UNK d   1     -49.844 -69.109  55.813  0.00  0.00     0.041 A 
ATOM     16  O   UNK d   1     -51.237 -71.132  55.185  0.00  0.00    -0.323 OA
ATOM     17  C   UNK d   1     -48.914 -68.165  55.354  0.00  0.00     0.020 A 
ATOM     18  C   UNK d   1     -50.736 -72.134  54.267  0.00  0.00     0.352 C 
ENDBRANCH   7  10
ENDBRANCH   5   6
ENDBRANCH   2   5
BRANCH   1  19
ATOM     19  N   UNK d   1     -41.964 -67.133  53.310  0.00  0.00    -0.166 NA
ATOM     20  C   UNK d   1     -41.118 -67.970  53.355  0.00  0.00     0.157 A 
ATOM     21  C   UNK d   1     -39.980 -68.266  52.475  0.00  0.00     0.028 A 
ATOM     22  C   UNK d   1     -41.107 -68.984  54.451  0.00  0.00     0.277 A 
ATOM     23  C   UNK d   1     -39.544 -67.636  51.330  0.00  0.00     0.035 A 
ATOM     24  C   UNK d   1     -39.347 -69.351  52.995  0.00  0.00     0.048 A 
ATOM     25  C   UNK d   1     -38.441 -68.072  50.653  0.00  0.00     0.011 A 
ATOM     26 Br   UNK d   1     -37.823 -67.213  49.078  0.00  0.00    -0.051 Br
ATOM     27  C   UNK d   1     -37.778 -69.180  51.167  0.00  0.00     0.021 A 
ATOM     28  C   UNK d   1     -38.217 -69.804  52.307  0.00  0.00     0.032 A 
ATOM     29  N   UNK d   1     -39.980 -69.816  54.168  0.00  0.00    -0.321 N 
ATOM     30  H   UNK d   1     -39.699 -70.629  54.766  0.00  0.00     0.169 HD
ATOM     31  O   UNK d   1     -41.932 -69.025  55.367  0.00  0.00    -0.266 OA
ENDBRANCH   1  19
TORSDOF 4
ENDMDL
