/Users/jonathanwahrer/Desktop/Msc/3_Semester/Drug_Design_Praktikum/waehrer_HTS_screening/HTS_experiment/out/docking_results/vina_output/3e7o/0526_docked.pdbqt
 OpenBabel03192215443D

 31 34  0  0  0  0  0  0  0  0999 V2000
  -43.0540  -66.6810   53.9650 N   0  0  0  0  0  0  0  0  0  0  0  0
  -44.2040  -66.2930   53.2540 C   0  0  0  0  0  0  0  0  0  0  0  0
  -44.1770  -66.3680   51.9740 O   0  0  0  0  0  0  0  0  0  0  0  0
  -43.0560  -66.6130   55.0190 H   0  0  0  0  0  0  0  0  0  0  0  0
  -45.4720  -65.8060   53.8050 C   0  0  0  0  0  2  0  0  0  0  0  0
  -46.3640  -66.8040   54.3250 N   0  0  0  0  0  0  0  0  0  0  0  0
  -47.5180  -67.2230   53.6050 C   0  0  0  0  0  0  0  0  0  0  0  0
  -47.7060  -66.6440   52.4650 O   0  0  0  0  0  0  0  0  0  0  0  0
  -46.2170  -67.2450   55.2460 H   0  0  0  0  0  0  0  0  0  0  0  0
  -48.4710  -68.2050   54.0240 C   0  0  0  0  0  0  0  0  0  0  0  0
  -48.9960  -69.2080   53.2230 C   0  0  0  0  0  3  0  0  0  0  0  0
  -49.8910  -70.1120   53.6840 C   0  0  0  0  0  0  0  0  0  0  0  0
  -50.3290  -70.0780   54.9920 C   0  0  0  0  0  0  0  0  0  0  0  0
  -50.5850  -71.2400   53.1070 O   0  0  0  0  0  0  0  0  0  0  0  0
  -49.8440  -69.1090   55.8130 C   0  0  0  0  0  3  0  0  0  0  0  0
  -51.2370  -71.1320   55.1850 O   0  0  0  0  0  0  0  0  0  0  0  0
  -48.9140  -68.1650   55.3540 C   0  0  0  0  0  3  0  0  0  0  0  0
  -50.7360  -72.1340   54.2670 C   0  0  0  0  0  2  0  0  0  0  0  0
  -41.9640  -67.1330   53.3100 N   0  0  0  0  0  0  0  0  0  0  0  0
  -41.1180  -67.9700   53.3550 C   0  0  0  0  0  0  0  0  0  0  0  0
  -39.9800  -68.2660   52.4750 C   0  0  0  0  0  0  0  0  0  0  0  0
  -41.1070  -68.9840   54.4510 C   0  0  0  0  0  0  0  0  0  0  0  0
  -39.5440  -67.6360   51.3300 C   0  0  0  0  0  3  0  0  0  0  0  0
  -39.3470  -69.3510   52.9950 C   0  0  0  0  0  0  0  0  0  0  0  0
  -38.4410  -68.0720   50.6530 C   0  0  0  0  0  0  0  0  0  0  0  0
  -37.8230  -67.2130   49.0780 Br  0  0  0  0  0  0  0  0  0  0  0  0
  -37.7780  -69.1800   51.1670 C   0  0  0  0  0  3  0  0  0  0  0  0
  -38.2170  -69.8040   52.3070 C   0  0  0  0  0  3  0  0  0  0  0  0
  -39.9800  -69.8160   54.1680 N   0  0  0  0  0  0  0  0  0  0  0  0
  -39.6990  -70.6290   54.7660 H   0  0  0  0  0  0  0  0  0  0  0  0
  -41.9320  -69.0250   55.3670 O   0  0  0  0  0  0  0  0  0  0  0  0
  1  4  1  0  0  0  0
  2  5  1  0  0  0  0
  2  1  1  0  0  0  0
  3  2  2  0  0  0  0
  5  6  1  0  0  0  0
  6  9  1  0  0  0  0
  7 10  1  0  0  0  0
  7  6  1  0  0  0  0
  8  7  2  0  0  0  0
 10 17  1  0  0  0  0
 11 12  1  0  0  0  0
 11 10  2  0  0  0  0
 12 13  2  0  0  0  0
 13 16  1  0  0  0  0
 13 15  1  0  0  0  0
 14 12  1  0  0  0  0
 14 18  1  0  0  0  0
 17 15  2  0  0  0  0
 18 16  1  0  0  0  0
 19 20  2  0  0  0  0
 19  1  1  0  0  0  0
 20 22  1  0  0  0  0
 21 24  1  0  0  0  0
 21 20  1  0  0  0  0
 22 31  2  0  0  0  0
 23 21  2  0  0  0  0
 24 29  1  0  0  0  0
 25 27  2  0  0  0  0
 25 23  1  0  0  0  0
 26 25  1  0  0  0  0
 27 28  1  0  0  0  0
 28 24  2  0  0  0  0
 29 22  1  0  0  0  0
 29 30  1  0  0  0  0
M  END
>  <Pose>
1

>  <Score>
-8.927

$$$$
