MODEL 1
REMARK VINA RESULT:    -7.143      0.000      0.000
REMARK INTER + INTRA:          -8.471
REMARK INTER:                  -7.978
REMARK INTRA:                  -0.493
REMARK UNBOUND:                -0.493
REMARK  2 active torsions:
REMARK  status: ('A' for Active; 'I' for Inactive)
REMARK    1  A    between atoms: N_18  and  C_21 
REMARK    2  A    between atoms: C_21  and  C_22 
ROOT
ATOM      1 Br   UNK d   1     -44.082 -62.729  46.203  0.00  0.00    -0.051 Br
ATOM      2  C   UNK d   1     -42.654 -63.025  47.432  0.00  0.00     0.011 A 
ATOM      3  C   UNK d   1     -42.814 -63.791  48.580  0.00  0.00     0.031 A 
ATOM      4  C   UNK d   1     -41.785 -64.000  49.458  0.00  0.00     0.019 A 
ATOM      5  C   UNK d   1     -40.565 -63.413  49.157  0.00  0.00     0.044 A 
ATOM      6  C   UNK d   1     -40.399 -62.652  48.019  0.00  0.00     0.031 A 
ATOM      7  C   UNK d   1     -41.441 -62.449  47.145  0.00  0.00     0.021 A 
ATOM      8  N   UNK d   1     -39.603 -63.731  50.166  0.00  0.00    -0.324 N 
ATOM      9  C   UNK d   1     -40.223 -64.543  51.141  0.00  0.00     0.267 A 
ATOM     10  O   UNK d   1     -39.650 -64.990  52.145  0.00  0.00    -0.270 OA
ATOM     11  C   UNK d   1     -41.627 -64.726  50.716  0.00  0.00     0.281 A 
ATOM     12  N   UNK d   1     -42.457 -64.297  51.800  0.00  0.00     0.118 N 
ATOM     13  C   UNK d   1     -42.367 -65.386  52.770  0.00  0.00     0.239 C 
ATOM     14  C   UNK d   1     -42.206 -66.642  51.978  0.00  0.00     0.128 C 
ATOM     15  C   UNK d   1     -42.002 -66.181  50.576  0.00  0.00     0.147 C 
ATOM     16  C   UNK d   1     -40.923 -67.015  50.058  0.00  0.00     0.235 C 
ATOM     17  O   UNK d   1     -40.528 -67.063  48.871  0.00  0.00    -0.272 OA
ATOM     18  N   UNK d   1     -40.376 -67.776  51.106  0.00  0.00    -0.285 N 
ATOM     19  C   UNK d   1     -40.973 -67.403  52.358  0.00  0.00     0.233 C 
ATOM     20  O   UNK d   1     -40.576 -67.641  53.525  0.00  0.00    -0.272 OA
ATOM     21  C   UNK d   1     -43.723 -65.430  53.459  0.00  0.00     0.038 C 
ATOM     22  C   UNK d   1     -44.533 -64.300  52.858  0.00  0.00     0.032 C 
ATOM     23  C   UNK d   1     -43.866 -64.190  51.480  0.00  0.00     0.275 C 
ATOM     24  H   UNK d   1     -38.594 -63.399  50.162  0.00  0.00     0.169 HD
ENDROOT
BRANCH  18  25
ATOM     25  C   UNK d   1     -39.371 -68.783  50.979  0.00  0.00     0.166 C 
BRANCH  25  26
ATOM     26  C   UNK d   1     -37.971 -68.302  51.099  0.00  0.00     0.140 C 
ATOM     27  O   UNK d   1     -37.490 -67.681  49.952  0.00  0.00    -0.384 OA
ATOM     28  C   UNK d   1     -36.131 -67.540  50.202  0.00  0.00     0.168 C 
ATOM     29  C   UNK d   1     -35.666 -68.746  50.956  0.00  0.00     0.029 C 
ATOM     30  C   UNK d   1     -36.969 -69.329  51.503  0.00  0.00     0.035 C 
ENDBRANCH  25  26
ENDBRANCH  18  25
TORSDOF 2
ENDMDL
