MODEL 1
REMARK VINA RESULT:    -6.702      0.000      0.000
REMARK INTER + INTRA:          -9.056
REMARK INTER:                  -8.073
REMARK INTRA:                  -0.984
REMARK UNBOUND:                -0.984
REMARK  4 active torsions:
REMARK  status: ('A' for Active; 'I' for Inactive)
REMARK    1  A    between atoms: C_19  and  N_26 
REMARK    2  A    between atoms: C_20  and  C_21 
REMARK    3  A    between atoms: C_21  and  O_23 
REMARK    4  A    between atoms: O_23  and  C_24 
ROOT
ATOM      1 Br   UNK d   1     -40.507 -64.389  51.561  0.00  0.00    -0.051 Br
ATOM      2  C   UNK d   1     -39.614 -65.268  50.123  0.00  0.00     0.011 A 
ATOM      3  C   UNK d   1     -38.248 -65.378  50.208  0.00  0.00     0.030 A 
ATOM      4  C   UNK d   1     -37.548 -66.016  49.178  0.00  0.00    -0.002 A 
ATOM      5  C   UNK d   1     -38.235 -66.511  48.117  0.00  0.00     0.043 A 
ATOM      6  C   UNK d   1     -39.635 -66.409  48.011  0.00  0.00     0.031 A 
ATOM      7  C   UNK d   1     -40.296 -65.777  49.038  0.00  0.00     0.021 A 
ATOM      8  N   UNK d   1     -37.353 -67.109  47.185  0.00  0.00    -0.325 N 
ATOM      9  C   UNK d   1     -36.057 -66.980  47.687  0.00  0.00     0.245 A 
ATOM     10  O   UNK d   1     -34.963 -67.388  47.135  0.00  0.00    -0.271 OA
ATOM     11  C   UNK d   1     -36.128 -66.278  49.003  0.00  0.00     0.141 A 
ATOM     12  C   UNK d   1     -35.503 -67.156  49.957  0.00  0.00     0.048 A 
ATOM     13  C   UNK d   1     -34.339 -66.835  50.547  0.00  0.00     0.176 A 
ATOM     14  N   UNK d   1     -34.020 -67.871  51.392  0.00  0.00    -0.256 N 
ATOM     15  N   UNK d   1     -34.965 -68.783  51.308  0.00  0.00    -0.177 NA
ATOM     16  C   UNK d   1     -35.912 -68.414  50.445  0.00  0.00     0.063 A 
ATOM     17  C   UNK d   1     -37.151 -69.147  50.054  0.00  0.00     0.073 C 
ATOM     18  O   UNK d   1     -33.644 -65.639  50.290  0.00  0.00    -0.275 OA
ATOM     19  C   UNK d   1     -34.231 -64.777  49.372  0.00  0.00     0.158 A 
ATOM     20  C   UNK d   1     -35.354 -65.035  48.771  0.00  0.00     0.095 A 
ATOM     21  H   UNK d   1     -37.595 -67.578  46.265  0.00  0.00     0.169 HD
ATOM     22  H   UNK d   1     -33.168 -67.923  51.996  0.00  0.00     0.191 HD
ENDROOT
BRANCH  20  23
ATOM     23  C   UNK d   1     -35.898 -64.041  47.801  0.00  0.00     0.295 C 
ATOM     24  O   UNK d   1     -35.710 -64.248  46.589  0.00  0.00    -0.259 OA
BRANCH  23  25
ATOM     25  O   UNK d   1     -36.591 -62.924  48.182  0.00  0.00    -0.318 OA
BRANCH  25  26
ATOM     26  C   UNK d   1     -37.497 -62.223  47.365  0.00  0.00     0.174 C 
ATOM     27  C   UNK d   1     -38.889 -62.393  47.983  0.00  0.00     0.034 C 
ENDBRANCH  25  26
ENDBRANCH  23  25
ENDBRANCH  20  23
BRANCH  19  28
ATOM     28  N   UNK d   1     -33.578 -63.528  49.053  0.00  0.00    -0.379 N 
ATOM     29  H   UNK d   1     -33.812 -63.074  48.167  0.00  0.00     0.158 HD
ATOM     30  H   UNK d   1     -32.908 -63.132  49.714  0.00  0.00     0.158 HD
ENDBRANCH  19  28
TORSDOF 4
ENDMDL
