/Users/jonathanwahrer/Desktop/Msc/3_Semester/Drug_Design_Praktikum/waehrer_HTS_screening/HTS_experiment/out/docking_results/vina_output/3e7o/0556_docked.pdbqt
 OpenBabel03192215453D

 30 33  0  0  1  0  0  0  0  0999 V2000
  -40.5070  -64.3890   51.5610 Br  0  0  0  0  0  0  0  0  0  0  0  0
  -39.6140  -65.2680   50.1230 C   0  0  0  0  0  0  0  0  0  0  0  0
  -38.2480  -65.3780   50.2080 C   0  0  0  0  0  3  0  0  0  0  0  0
  -37.5480  -66.0160   49.1780 C   0  0  0  0  0  0  0  0  0  0  0  0
  -38.2350  -66.5110   48.1170 C   0  0  0  0  0  0  0  0  0  0  0  0
  -39.6350  -66.4090   48.0110 C   0  0  0  0  0  3  0  0  0  0  0  0
  -40.2960  -65.7770   49.0380 C   0  0  0  0  0  3  0  0  0  0  0  0
  -37.3530  -67.1090   47.1850 N   0  0  0  0  0  0  0  0  0  0  0  0
  -36.0570  -66.9800   47.6870 C   0  0  0  0  0  0  0  0  0  0  0  0
  -34.9630  -67.3880   47.1350 O   0  0  0  0  0  0  0  0  0  0  0  0
  -36.1280  -66.2780   49.0030 C   0  0  2  0  0  0  0  0  0  0  0  0
  -35.5030  -67.1560   49.9570 C   0  0  0  0  0  0  0  0  0  0  0  0
  -34.3390  -66.8350   50.5470 C   0  0  0  0  0  0  0  0  0  0  0  0
  -34.0200  -67.8710   51.3920 N   0  0  0  0  0  0  0  0  0  0  0  0
  -34.9650  -68.7830   51.3080 N   0  0  0  0  0  0  0  0  0  0  0  0
  -35.9120  -68.4140   50.4450 C   0  0  0  0  0  0  0  0  0  0  0  0
  -37.1510  -69.1470   50.0540 C   0  0  0  0  0  1  0  0  0  0  0  0
  -33.6440  -65.6390   50.2900 O   0  0  0  0  0  0  0  0  0  0  0  0
  -34.2310  -64.7770   49.3720 C   0  0  0  0  0  0  0  0  0  0  0  0
  -35.3540  -65.0350   48.7710 C   0  0  0  0  0  0  0  0  0  0  0  0
  -37.5950  -67.5780   46.2650 H   0  0  0  0  0  0  0  0  0  0  0  0
  -33.1680  -67.9230   51.9960 H   0  0  0  0  0  0  0  0  0  0  0  0
  -35.8980  -64.0410   47.8010 C   0  0  0  0  0  0  0  0  0  0  0  0
  -35.7100  -64.2480   46.5890 O   0  0  0  0  0  0  0  0  0  0  0  0
  -36.5910  -62.9240   48.1820 O   0  0  0  0  0  0  0  0  0  0  0  0
  -37.4970  -62.2230   47.3650 C   0  0  0  0  0  2  0  0  0  0  0  0
  -38.8890  -62.3930   47.9830 C   0  0  0  0  0  1  0  0  0  0  0  0
  -33.5780  -63.5280   49.0530 N   0  0  0  0  0  0  0  0  0  0  0  0
  -33.8120  -63.0740   48.1670 H   0  0  0  0  0  0  0  0  0  0  0  0
  -32.9080  -63.1320   49.7140 H   0  0  0  0  0  0  0  0  0  0  0  0
  2  3  1  0  0  0  0
  2  1  1  0  0  0  0
  4  3  2  0  0  0  0
  5  4  1  0  0  0  0
  6  5  2  0  0  0  0
  6  7  1  0  0  0  0
  7  2  2  0  0  0  0
  8  9  1  0  0  0  0
  8  5  1  0  0  0  0
 10  9  2  0  0  0  0
 11  9  1  6  0  0  0
 11  4  1  0  0  0  0
 11 12  1  0  0  0  0
 12 16  1  0  0  0  0
 12 13  2  0  0  0  0
 13 14  1  0  0  0  0
 14 22  1  0  0  0  0
 15 14  1  0  0  0  0
 16 15  2  0  0  0  0
 17 16  1  0  0  0  0
 18 13  1  0  0  0  0
 19 18  1  0  0  0  0
 20 11  1  0  0  0  0
 20 19  2  0  0  0  0
 21  8  1  0  0  0  0
 23 25  1  0  0  0  0
 23 20  1  0  0  0  0
 24 23  2  0  0  0  0
 26 27  1  0  0  0  0
 26 25  1  0  0  0  0
 28 19  1  0  0  0  0
 28 30  1  0  0  0  0
 29 28  1  0  0  0  0
M  END
>  <Pose>
1

>  <Score>
-6.702

$$$$
