MODEL 1
REMARK VINA RESULT:    -6.566      0.000      0.000
REMARK INTER + INTRA:          -6.758
REMARK INTER:                  -6.758
REMARK INTRA:                   0.000
REMARK UNBOUND:                 0.000
REMARK  1 active torsions:
REMARK  status: ('A' for Active; 'I' for Inactive)
REMARK    1  A    between atoms: C_15  and  N_19 
ROOT
ATOM      1 Br   UNK d   1     -39.833 -63.760  50.781  0.00  0.00    -0.051 Br
ATOM      2  C   UNK d   1     -39.104 -64.971  49.513  0.00  0.00     0.011 A 
ATOM      3  C   UNK d   1     -37.748 -65.314  49.508  0.00  0.00     0.030 A 
ATOM      4  C   UNK d   1     -37.230 -66.189  48.590  0.00  0.00    -0.002 A 
ATOM      5  C   UNK d   1     -38.054 -66.740  47.653  0.00  0.00     0.043 A 
ATOM      6  C   UNK d   1     -39.420 -66.428  47.617  0.00  0.00     0.031 A 
ATOM      7  C   UNK d   1     -39.912 -65.548  48.551  0.00  0.00     0.021 A 
ATOM      8  N   UNK d   1     -37.335 -67.613  46.799  0.00  0.00    -0.325 N 
ATOM      9  C   UNK d   1     -35.994 -67.606  47.222  0.00  0.00     0.246 A 
ATOM     10  O   UNK d   1     -35.025 -68.244  46.734  0.00  0.00    -0.271 OA
ATOM     11  C   UNK d   1     -35.862 -66.698  48.383  0.00  0.00     0.146 A 
ATOM     12  C   UNK d   1     -34.924 -65.581  48.039  0.00  0.00     0.071 A 
ATOM     13  C   UNK d   1     -33.847 -65.263  48.708  0.00  0.00     0.060 A 
ATOM     14  N   UNK d   1     -33.523 -66.024  49.855  0.00  0.00    -0.342 N 
ATOM     15  C   UNK d   1     -34.352 -67.102  50.259  0.00  0.00     0.118 A 
ATOM     16  C   UNK d   1     -35.433 -67.424  49.591  0.00  0.00     0.093 A 
ATOM     17  C   UNK d   1     -36.235 -68.551  50.075  0.00  0.00     0.101 C 
ATOM     18  N   UNK d   1     -36.876 -69.442  50.439  0.00  0.00    -0.191 NA
ATOM     19  C   UNK d   1     -33.204 -64.105  48.040  0.00  0.00     0.106 A 
ATOM     20  O   UNK d   1     -33.996 -63.777  46.928  0.00  0.00    -0.301 OA
ATOM     21  C   UNK d   1     -35.057 -64.660  46.896  0.00  0.00     0.294 A 
ATOM     22  O   UNK d   1     -35.987 -64.662  46.018  0.00  0.00    -0.259 OA
ATOM     23  C   UNK d   1     -31.830 -64.492  47.488  0.00  0.00     0.053 C 
ATOM     24  C   UNK d   1     -33.066 -62.928  48.996  0.00  0.00     0.053 C 
ATOM     25  H   UNK d   1     -37.755 -68.166  45.987  0.00  0.00     0.169 HD
ATOM     26  H   UNK d   1     -32.668 -65.813  50.433  0.00  0.00     0.167 HD
ENDROOT
BRANCH  15  27
ATOM     27  N   UNK d   1     -33.998 -67.870  51.442  0.00  0.00    -0.384 N 
ATOM     28  H   UNK d   1     -34.668 -68.470  51.950  0.00  0.00     0.157 HD
ATOM     29  H   UNK d   1     -33.025 -67.806  51.781  0.00  0.00     0.157 HD
ENDBRANCH  15  27
TORSDOF 1
ENDMDL
