MODEL 1
REMARK VINA RESULT:    -6.777      0.000      0.000
REMARK INTER + INTRA:          -9.393
REMARK INTER:                  -8.559
REMARK INTRA:                  -0.833
REMARK UNBOUND:                -0.833
REMARK  5 active torsions:
REMARK  status: ('A' for Active; 'I' for Inactive)
REMARK    1  A    between atoms: C_13  and  C_25 
REMARK    2  A    between atoms: N_18  and  C_21 
REMARK    3  A    between atoms: C_21  and  C_22 
REMARK    4  A    between atoms: C_22  and  C_23 
REMARK    5  A    between atoms: C_25  and  O_26 
ROOT
ATOM      1 Br   UNK d   1     -38.689 -69.983  52.931  0.00  0.00    -0.051 Br
ATOM      2  C   UNK d   1     -39.219 -68.700  51.621  0.00  0.00     0.011 A 
ATOM      3  C   UNK d   1     -38.297 -68.142  50.772  0.00  0.00     0.031 A 
ATOM      4  C   UNK d   1     -38.677 -67.195  49.804  0.00  0.00     0.019 A 
ATOM      5  C   UNK d   1     -39.978 -66.797  49.675  0.00  0.00     0.044 A 
ATOM      6  C   UNK d   1     -40.920 -67.368  50.542  0.00  0.00     0.031 A 
ATOM      7  C   UNK d   1     -40.528 -68.292  51.483  0.00  0.00     0.021 A 
ATOM      8  N   UNK d   1     -40.116 -65.840  48.634  0.00  0.00    -0.324 N 
ATOM      9  C   UNK d   1     -38.831 -65.628  48.084  0.00  0.00     0.267 A 
ATOM     10  O   UNK d   1     -38.632 -64.814  47.123  0.00  0.00    -0.270 OA
ATOM     11  C   UNK d   1     -37.879 -66.466  48.793  0.00  0.00     0.279 A 
ATOM     12  N   UNK d   1     -37.143 -67.367  47.928  0.00  0.00     0.116 N 
ATOM     13  C   UNK d   1     -35.963 -66.632  47.508  0.00  0.00     0.264 C 
ATOM     14  C   UNK d   1     -35.555 -65.945  48.779  0.00  0.00     0.130 C 
ATOM     15  C   UNK d   1     -36.836 -65.591  49.456  0.00  0.00     0.147 C 
ATOM     16  C   UNK d   1     -37.041 -64.157  49.199  0.00  0.00     0.234 C 
ATOM     17  O   UNK d   1     -38.106 -63.468  49.326  0.00  0.00    -0.272 OA
ATOM     18  N   UNK d   1     -35.822 -63.574  48.756  0.00  0.00    -0.288 N 
ATOM     19  C   UNK d   1     -34.913 -64.635  48.537  0.00  0.00     0.233 C 
ATOM     20  O   UNK d   1     -33.701 -64.523  48.180  0.00  0.00    -0.272 OA
ATOM     21  H   UNK d   1     -41.034 -65.401  48.366  0.00  0.00     0.169 HD
ATOM     22  H   UNK d   1     -37.709 -67.713  47.132  0.00  0.00     0.318 HD
ENDROOT
BRANCH  13  23
ATOM     23  C   UNK d   1     -34.938 -67.595  46.998  0.00  0.00     0.148 C 
ATOM     24  C   UNK d   1     -34.399 -67.126  45.669  0.00  0.00     0.041 C 
BRANCH  23  25
ATOM     25  O   UNK d   1     -33.867 -67.598  47.900  0.00  0.00    -0.394 OA
ATOM     26  H   UNK d   1     -33.415 -68.480  47.910  0.00  0.00     0.210 HD
ENDBRANCH  23  25
ENDBRANCH  13  23
BRANCH  18  27
ATOM     27  C   UNK d   1     -35.552 -62.163  48.563  0.00  0.00     0.135 C 
BRANCH  27  28
ATOM     28  C   UNK d   1     -35.188 -61.838  47.151  0.00  0.00     0.020 C 
BRANCH  28  29
ATOM     29  C   UNK d   1     -36.435 -62.109  46.299  0.00  0.00    -0.003 C 
ATOM     30  C   UNK d   1     -36.148 -63.168  45.270  0.00  0.00     0.005 C 
ENDBRANCH  28  29
ENDBRANCH  27  28
ENDBRANCH  18  27
TORSDOF 5
ENDMDL
