MODEL 1
REMARK VINA RESULT:    -8.060      0.000      0.000
REMARK INTER + INTRA:         -11.100
REMARK INTER:                 -10.181
REMARK INTRA:                  -0.919
REMARK UNBOUND:                -0.919
REMARK  5 active torsions:
REMARK  status: ('A' for Active; 'I' for Inactive)
REMARK    1  A    between atoms: C_13  and  C_29 
REMARK    2  A    between atoms: N_18  and  C_21 
REMARK    3  A    between atoms: C_21  and  C_22 
REMARK    4  A    between atoms: C_22  and  C_23 
REMARK    5  A    between atoms: C_29  and  O_30 
ROOT
ATOM      1 Br   UNK d   1     -40.844 -64.839  52.357  0.00  0.00    -0.051 Br
ATOM      2  C   UNK d   1     -40.747 -64.337  50.518  0.00  0.00     0.011 A 
ATOM      3  C   UNK d   1     -39.550 -64.173  49.856  0.00  0.00     0.031 A 
ATOM      4  C   UNK d   1     -39.484 -63.797  48.506  0.00  0.00     0.019 A 
ATOM      5  C   UNK d   1     -40.674 -63.595  47.849  0.00  0.00     0.044 A 
ATOM      6  C   UNK d   1     -41.884 -63.760  48.509  0.00  0.00     0.031 A 
ATOM      7  C   UNK d   1     -41.936 -64.128  49.836  0.00  0.00     0.021 A 
ATOM      8  N   UNK d   1     -40.453 -63.209  46.507  0.00  0.00    -0.324 N 
ATOM      9  C   UNK d   1     -39.058 -63.163  46.304  0.00  0.00     0.267 A 
ATOM     10  O   UNK d   1     -38.542 -62.845  45.195  0.00  0.00    -0.270 OA
ATOM     11  C   UNK d   1     -38.391 -63.537  47.569  0.00  0.00     0.279 A 
ATOM     12  N   UNK d   1     -37.544 -62.438  48.045  0.00  0.00     0.116 N 
ATOM     13  C   UNK d   1     -36.429 -63.070  48.714  0.00  0.00     0.264 C 
ATOM     14  C   UNK d   1     -36.252 -64.420  48.140  0.00  0.00     0.130 C 
ATOM     15  C   UNK d   1     -37.477 -64.668  47.279  0.00  0.00     0.147 C 
ATOM     16  C   UNK d   1     -37.927 -66.013  47.615  0.00  0.00     0.234 C 
ATOM     17  O   UNK d   1     -38.984 -66.567  47.224  0.00  0.00    -0.272 OA
ATOM     18  N   UNK d   1     -36.971 -66.653  48.488  0.00  0.00    -0.287 N 
ATOM     19  C   UNK d   1     -36.272 -65.546  49.095  0.00  0.00     0.233 C 
ATOM     20  O   UNK d   1     -35.777 -65.560  50.231  0.00  0.00    -0.272 OA
ATOM     21  H   UNK d   1     -41.199 -62.995  45.789  0.00  0.00     0.169 HD
ATOM     22  H   UNK d   1     -38.068 -61.804  48.691  0.00  0.00     0.318 HD
ENDROOT
BRANCH  13  23
ATOM     23  C   UNK d   1     -35.199 -62.199  48.617  0.00  0.00     0.148 C 
ATOM     24  C   UNK d   1     -35.034 -61.589  47.246  0.00  0.00     0.041 C 
BRANCH  23  25
ATOM     25  O   UNK d   1     -34.085 -62.909  49.018  0.00  0.00    -0.394 OA
ATOM     26  H   UNK d   1     -33.262 -62.580  48.609  0.00  0.00     0.210 HD
ENDBRANCH  23  25
ENDBRANCH  13  23
BRANCH  18  27
ATOM     27  C   UNK d   1     -36.727 -68.044  48.698  0.00  0.00     0.139 C 
BRANCH  27  28
ATOM     28  C   UNK d   1     -36.561 -68.477  50.126  0.00  0.00     0.059 C 
BRANCH  28  29
ATOM     29  C   UNK d   1     -37.820 -68.692  50.861  0.00  0.00    -0.057 A 
ATOM     30  C   UNK d   1     -37.876 -69.674  51.842  0.00  0.00     0.007 A 
ATOM     31  C   UNK d   1     -39.020 -69.863  52.543  0.00  0.00     0.001 A 
ATOM     32  C   UNK d   1     -40.145 -69.121  52.331  0.00  0.00     0.000 A 
ATOM     33  C   UNK d   1     -40.077 -68.143  51.349  0.00  0.00     0.001 A 
ATOM     34  C   UNK d   1     -38.937 -67.934  50.629  0.00  0.00     0.007 A 
ENDBRANCH  28  29
ENDBRANCH  27  28
ENDBRANCH  18  27
TORSDOF 5
ENDMDL
