/Users/jonathanwahrer/Desktop/Msc/3_Semester/Drug_Design_Praktikum/waehrer_HTS_screening/HTS_experiment/out/docking_results/vina_output/3e7o/0578_docked.pdbqt
 OpenBabel03192215453D

 27 30  0  0  1  0  0  0  0  0999 V2000
  -40.4220  -68.7400   54.3680 Br  0  0  0  0  0  0  0  0  0  0  0  0
  -39.3750  -68.7650   52.7710 C   0  0  0  0  0  0  0  0  0  0  0  0
  -39.3460  -67.7070   51.8970 C   0  0  0  0  0  3  0  0  0  0  0  0
  -38.5880  -67.6910   50.7130 C   0  0  0  0  0  0  0  0  0  0  0  0
  -37.8470  -68.8030   50.4450 C   0  0  0  0  0  0  0  0  0  0  0  0
  -37.8650  -69.8980   51.3290 C   0  0  0  0  0  3  0  0  0  0  0  0
  -38.6180  -69.8830   52.4800 C   0  0  0  0  0  3  0  0  0  0  0  0
  -37.1260  -68.6470   49.2300 N   0  0  0  0  0  0  0  0  0  0  0  0
  -37.4360  -67.3710   48.7210 C   0  0  0  0  0  0  0  0  0  0  0  0
  -36.9640  -66.8630   47.6390 O   0  0  0  0  0  0  0  0  0  0  0  0
  -38.3900  -66.7330   49.6460 C   0  0  2  0  0  0  0  0  0  0  0  0
  -37.6520  -65.5580   50.1440 N   0  0  0  0  0  0  0  0  0  0  0  0
  -38.1160  -64.4000   49.4450 C   0  0  2  0  0  3  0  0  0  0  0  0
  -39.5180  -64.7240   49.0820 C   0  0  1  0  0  3  0  0  0  0  0  0
  -39.6080  -66.2220   48.9700 C   0  0  2  0  0  3  0  0  0  0  0  0
  -40.8960  -66.5320   49.5460 C   0  0  0  0  0  0  0  0  0  0  0  0
  -41.5010  -67.6380   49.4240 O   0  0  0  0  0  0  0  0  0  0  0  0
  -41.3680  -65.4020   50.2660 N   0  0  0  0  0  0  0  0  0  0  0  0
  -40.3910  -64.3720   50.2470 C   0  0  0  0  0  0  0  0  0  0  0  0
  -40.3350  -63.4200   51.0500 O   0  0  0  0  0  0  0  0  0  0  0  0
  -37.2720  -63.9970   48.2590 C   0  0  0  0  0  1  0  0  0  0  0  0
  -36.4720  -69.3490   48.7750 H   0  0  0  0  0  0  0  0  0  0  0  0
  -37.7610  -65.4620   51.1780 H   0  0  0  0  0  0  0  0  0  0  0  0
  -42.6740  -65.3660   50.9110 C   0  0  0  0  0  2  0  0  0  0  0  0
  -42.6420  -65.9730   52.2800 C   0  0  0  0  0  2  0  0  0  0  0  0
  -43.0770  -65.0200   53.3620 C   0  0  0  0  0  2  0  0  0  0  0  0
  -43.4490  -65.8810   54.5740 C   0  0  0  0  0  1  0  0  0  0  0  0
  2  1  1  0  0  0  0
  3  2  2  0  0  0  0
  4  3  1  0  0  0  0
  5  4  2  0  0  0  0
  5  6  1  0  0  0  0
  6  7  2  0  0  0  0
  7  2  1  0  0  0  0
  8  5  1  0  0  0  0
  9  8  1  0  0  0  0
 10  9  2  0  0  0  0
 11  9  1  6  0  0  0
 11 12  1  0  0  0  0
 11  4  1  0  0  0  0
 12 23  1  0  0  0  0
 13 21  1  6  0  0  0
 13 12  1  0  0  0  0
 14 13  1  0  0  0  0
 14 19  1  1  0  0  0
 15 14  1  0  0  0  0
 15 16  1  1  0  0  0
 15 11  1  0  0  0  0
 16 18  1  0  0  0  0
 17 16  2  0  0  0  0
 18 24  1  0  0  0  0
 19 18  1  0  0  0  0
 19 20  2  0  0  0  0
 22  8  1  0  0  0  0
 24 25  1  0  0  0  0
 25 26  1  0  0  0  0
 26 27  1  0  0  0  0
M  END
>  <Pose>
1

>  <Score>
-7.288

$$$$
