MODEL 1
REMARK VINA RESULT:    -7.249      0.000      0.000
REMARK INTER + INTRA:         -10.204
REMARK INTER:                  -9.367
REMARK INTRA:                  -0.837
REMARK UNBOUND:                -0.837
REMARK  5 active torsions:
REMARK  status: ('A' for Active; 'I' for Inactive)
REMARK    1  A    between atoms: C_13  and  C_25 
REMARK    2  A    between atoms: N_18  and  C_21 
REMARK    3  A    between atoms: C_21  and  C_22 
REMARK    4  A    between atoms: C_22  and  O_23 
REMARK    5  A    between atoms: C_25  and  C_26 
REMARK       I    between atoms: C_26  and  N_28 
ROOT
ATOM      1 Br   UNK d   1     -40.757 -67.368  52.236  0.00  0.00    -0.051 Br
ATOM      2  C   UNK d   1     -39.831 -66.938  50.626  0.00  0.00     0.011 A 
ATOM      3  C   UNK d   1     -38.470 -66.731  50.578  0.00  0.00     0.031 A 
ATOM      4  C   UNK d   1     -37.799 -66.417  49.397  0.00  0.00     0.019 A 
ATOM      5  C   UNK d   1     -38.513 -66.307  48.230  0.00  0.00     0.044 A 
ATOM      6  C   UNK d   1     -39.883 -66.509  48.246  0.00  0.00     0.031 A 
ATOM      7  C   UNK d   1     -40.533 -66.823  49.446  0.00  0.00     0.021 A 
ATOM      8  N   UNK d   1     -37.636 -65.987  47.146  0.00  0.00    -0.324 N 
ATOM      9  C   UNK d   1     -36.317 -65.893  47.655  0.00  0.00     0.267 A 
ATOM     10  O   UNK d   1     -35.325 -65.636  46.945  0.00  0.00    -0.270 OA
ATOM     11  C   UNK d   1     -36.366 -66.145  49.087  0.00  0.00     0.279 A 
ATOM     12  N   UNK d   1     -35.550 -67.331  49.345  0.00  0.00     0.114 N 
ATOM     13  C   UNK d   1     -34.878 -67.076  50.584  0.00  0.00     0.245 C 
ATOM     14  C   UNK d   1     -34.572 -65.624  50.532  0.00  0.00     0.128 C 
ATOM     15  C   UNK d   1     -35.841 -65.041  49.955  0.00  0.00     0.147 C 
ATOM     16  C   UNK d   1     -35.410 -63.836  49.260  0.00  0.00     0.235 C 
ATOM     17  O   UNK d   1     -36.147 -62.891  48.904  0.00  0.00    -0.272 OA
ATOM     18  N   UNK d   1     -34.005 -63.928  49.059  0.00  0.00    -0.286 N 
ATOM     19  C   UNK d   1     -33.562 -65.227  49.520  0.00  0.00     0.233 C 
ATOM     20  O   UNK d   1     -32.540 -65.780  49.084  0.00  0.00    -0.272 OA
ATOM     21  H   UNK d   1     -37.950 -65.849  46.145  0.00  0.00     0.169 HD
ATOM     22  H   UNK d   1     -34.821 -67.440  48.601  0.00  0.00     0.318 HD
ENDROOT
BRANCH  13  23
ATOM     23  C   UNK d   1     -33.709 -67.968  50.830  0.00  0.00     0.139 C 
BRANCH  23  24
ATOM     24  C   UNK d   1     -34.138 -69.156  51.577  0.00  0.00     0.217 C 
ATOM     25  O   UNK d   1     -35.371 -69.388  51.728  0.00  0.00    -0.274 OA
ATOM     26  N   UNK d   1     -33.181 -70.055  52.135  0.00  0.00    -0.370 N 
ATOM     27  H   UNK d   1     -33.409 -71.064  52.241  0.00  0.00     0.159 HD
ATOM     28  H   UNK d   1     -32.253 -69.692  52.435  0.00  0.00     0.159 HD
ENDBRANCH  23  24
ENDBRANCH  13  23
BRANCH  18  29
ATOM     29  C   UNK d   1     -33.198 -62.886  48.494  0.00  0.00     0.161 C 
BRANCH  29  30
ATOM     30  C   UNK d   1     -32.895 -63.028  47.039  0.00  0.00     0.187 C 
BRANCH  30  31
ATOM     31  O   UNK d   1     -33.198 -61.895  46.302  0.00  0.00    -0.394 OA
ATOM     32  C   UNK d   1     -34.544 -61.857  45.948  0.00  0.00     0.201 C 
ENDBRANCH  30  31
ENDBRANCH  29  30
ENDBRANCH  18  29
TORSDOF 5
ENDMDL
