MODEL 1
REMARK VINA RESULT:    -8.671      0.000      0.000
REMARK INTER + INTRA:          -8.671
REMARK INTER:                  -8.671
REMARK INTRA:                   0.000
REMARK UNBOUND:                 0.000
REMARK  0 active torsions:
REMARK  status: ('A' for Active; 'I' for Inactive)
ROOT
ATOM      1 Br   UNK d   1     -40.684 -68.648  55.002  0.00  0.00    -0.051 Br
ATOM      2  C   UNK d   1     -40.266 -68.051  53.241  0.00  0.00     0.012 A 
ATOM      3  C   UNK d   1     -39.225 -68.643  52.587  0.00  0.00     0.038 A 
ATOM      4  C   UNK d   1     -38.899 -68.229  51.306  0.00  0.00     0.062 A 
ATOM      5  C   UNK d   1     -39.625 -67.217  50.690  0.00  0.00     0.078 A 
ATOM      6  C   UNK d   1     -40.680 -66.609  51.339  0.00  0.00     0.034 A 
ATOM      7  C   UNK d   1     -40.968 -67.053  52.611  0.00  0.00     0.021 A 
ATOM      8  N   UNK d   1     -39.386 -66.715  49.391  0.00  0.00    -0.195 N 
ATOM      9  N   UNK d   1     -40.350 -66.092  48.703  0.00  0.00    -0.039 NA
ATOM     10  N   UNK d   1     -39.815 -65.755  47.561  0.00  0.00    -0.023 NA
ATOM     11  N   UNK d   1     -38.551 -66.145  47.509  0.00  0.00    -0.111 NA
ATOM     12  C   UNK d   1     -38.266 -66.766  48.690  0.00  0.00     0.182 A 
ATOM     13  C   UNK d   1     -36.904 -67.336  48.974  0.00  0.00     0.102 C 
ATOM     14  N   UNK d   1     -37.014 -68.638  49.626  0.00  0.00    -0.340 N 
ATOM     15  C   UNK d   1     -37.757 -68.992  50.787  0.00  0.00     0.255 C 
ATOM     16  O   UNK d   1     -37.414 -70.030  51.418  0.00  0.00    -0.268 OA
ATOM     17  C   UNK d   1     -36.268 -66.415  49.980  0.00  0.00     0.076 C 
ATOM     18  C   UNK d   1     -34.784 -66.589  49.956  0.00  0.00     0.056 C 
ATOM     19  O   UNK d   1     -34.351 -66.212  48.712  0.00  0.00    -0.381 OA
ATOM     20  C   UNK d   1     -34.761 -67.008  47.677  0.00  0.00     0.171 C 
ATOM     21  C   UNK d   1     -36.153 -67.474  47.700  0.00  0.00     0.066 C 
ATOM     22  C   UNK d   1     -34.146 -65.621  50.960  0.00  0.00     0.045 C 
ATOM     23  C   UNK d   1     -34.335 -67.968  50.357  0.00  0.00     0.045 C 
ATOM     24  H   UNK d   1     -36.473 -69.445  49.190  0.00  0.00     0.164 HD
ENDROOT
TORSDOF 0
ENDMDL
