/Users/jonathanwahrer/Desktop/Msc/3_Semester/Drug_Design_Praktikum/waehrer_HTS_screening/HTS_experiment/out/docking_results/vina_output/3e7o/0588_docked.pdbqt
 OpenBabel03192215463D

 24 27  0  0  1  0  0  0  0  0999 V2000
  -40.6840  -68.6480   55.0020 Br  0  0  0  0  0  0  0  0  0  0  0  0
  -40.2660  -68.0510   53.2410 C   0  0  0  0  0  0  0  0  0  0  0  0
  -39.2250  -68.6430   52.5870 C   0  0  0  0  0  3  0  0  0  0  0  0
  -38.8990  -68.2290   51.3060 C   0  0  0  0  0  0  0  0  0  0  0  0
  -39.6250  -67.2170   50.6900 C   0  0  0  0  0  0  0  0  0  0  0  0
  -40.6800  -66.6090   51.3390 C   0  0  0  0  0  3  0  0  0  0  0  0
  -40.9680  -67.0530   52.6110 C   0  0  0  0  0  3  0  0  0  0  0  0
  -39.3860  -66.7150   49.3910 N   0  0  0  0  0  0  0  0  0  0  0  0
  -40.3500  -66.0920   48.7030 N   0  0  0  0  0  0  0  0  0  0  0  0
  -39.8150  -65.7550   47.5610 N   0  0  0  0  0  0  0  0  0  0  0  0
  -38.5510  -66.1450   47.5090 N   0  0  0  0  0  0  0  0  0  0  0  0
  -38.2660  -66.7660   48.6900 C   0  0  0  0  0  0  0  0  0  0  0  0
  -36.9040  -67.3360   48.9740 C   0  0  2  0  0  0  0  0  0  0  0  0
  -37.0140  -68.6380   49.6260 N   0  0  0  0  0  0  0  0  0  0  0  0
  -37.7570  -68.9920   50.7870 C   0  0  0  0  0  0  0  0  0  0  0  0
  -37.4140  -70.0300   51.4180 O   0  0  0  0  0  0  0  0  0  0  0  0
  -36.2680  -66.4150   49.9800 C   0  0  0  0  0  2  0  0  0  0  0  0
  -34.7840  -66.5890   49.9560 C   0  0  0  0  0  0  0  0  0  0  0  0
  -34.3510  -66.2120   48.7120 O   0  0  0  0  0  0  0  0  0  0  0  0
  -34.7610  -67.0080   47.6770 C   0  0  0  0  0  3  0  0  0  0  0  0
  -36.1530  -67.4740   47.7000 C   0  0  0  0  0  3  0  0  0  0  0  0
  -34.1460  -65.6210   50.9600 C   0  0  0  0  0  1  0  0  0  0  0  0
  -34.3350  -67.9680   50.3570 C   0  0  0  0  0  1  0  0  0  0  0  0
  -36.4730  -69.4450   49.1900 H   0  0  0  0  0  0  0  0  0  0  0  0
  2  1  1  0  0  0  0
  3  2  2  0  0  0  0
  4  3  1  0  0  0  0
  5  4  2  0  0  0  0
  5  6  1  0  0  0  0
  6  7  2  0  0  0  0
  7  2  1  0  0  0  0
  8  5  1  0  0  0  0
  9  8  1  0  0  0  0
 10  9  2  0  0  0  0
 11 10  1  0  0  0  0
 11 12  2  0  0  0  0
 12 13  1  0  0  0  0
 12  8  1  0  0  0  0
 13 21  1  6  0  0  0
 13 14  1  0  0  0  0
 13 17  1  0  0  0  0
 14 15  1  0  0  0  0
 15  4  1  0  0  0  0
 15 16  2  0  0  0  0
 18 17  1  0  0  0  0
 18 23  1  0  0  0  0
 18 22  1  0  0  0  0
 19 18  1  0  0  0  0
 20 21  2  0  0  0  0
 20 19  1  0  0  0  0
 24 14  1  0  0  0  0
M  END
>  <Pose>
1

>  <Score>
-8.671

$$$$
