MODEL 1
REMARK VINA RESULT:    -9.053      0.000      0.000
REMARK INTER + INTRA:          -9.053
REMARK INTER:                  -9.053
REMARK INTRA:                   0.000
REMARK UNBOUND:                 0.000
REMARK  0 active torsions:
REMARK  status: ('A' for Active; 'I' for Inactive)
ROOT
ATOM      1 Br   UNK d   1     -36.886 -67.939  49.073  0.00  0.00    -0.051 Br
ATOM      2  C   UNK d   1     -38.270 -67.956  50.404  0.00  0.00     0.012 A 
ATOM      3  C   UNK d   1     -39.052 -66.840  50.613  0.00  0.00     0.038 A 
ATOM      4  C   UNK d   1     -40.045 -66.859  51.570  0.00  0.00     0.061 A 
ATOM      5  C   UNK d   1     -40.309 -67.966  52.354  0.00  0.00     0.072 A 
ATOM      6  C   UNK d   1     -39.509 -69.084  52.130  0.00  0.00     0.034 A 
ATOM      7  C   UNK d   1     -38.515 -69.073  51.174  0.00  0.00     0.021 A 
ATOM      8  N   UNK d   1     -41.273 -68.149  53.364  0.00  0.00    -0.218 N 
ATOM      9  N   UNK d   1     -41.255 -69.162  54.216  0.00  0.00     0.032 NA
ATOM     10  N   UNK d   1     -42.297 -69.030  55.021  0.00  0.00    -0.052 NA
ATOM     11  N   UNK d   1     -42.959 -67.950  54.678  0.00  0.00    -0.116 NA
ATOM     12  C   UNK d   1     -42.337 -67.362  53.625  0.00  0.00     0.176 A 
ATOM     13  C   UNK d   1     -42.870 -66.132  53.037  0.00  0.00     0.100 C 
ATOM     14  N   UNK d   1     -41.932 -65.263  52.415  0.00  0.00    -0.340 N 
ATOM     15  C   UNK d   1     -40.777 -65.594  51.661  0.00  0.00     0.255 C 
ATOM     16  O   UNK d   1     -40.254 -64.704  50.938  0.00  0.00    -0.268 OA
ATOM     17  C   UNK d   1     -43.946 -66.433  51.982  0.00  0.00     0.069 C 
ATOM     18  C   UNK d   1     -44.977 -65.333  52.016  0.00  0.00     0.275 C 
ATOM     19  N   UNK d   1     -45.828 -65.570  53.161  0.00  0.00     0.084 N 
ATOM     20  C   UNK d   1     -45.004 -65.822  54.314  0.00  0.00     0.275 C 
ATOM     21  C   UNK d   1     -43.580 -65.355  54.140  0.00  0.00     0.069 C 
ATOM     22  C   UNK d   1     -46.683 -66.714  52.846  0.00  0.00     0.309 C 
ATOM     23  H   UNK d   1     -42.123 -64.246  52.530  0.00  0.00     0.164 HD
ENDROOT
TORSDOF 0
ENDMDL
