MODEL 1
REMARK VINA RESULT:    -7.029      0.000      0.000
REMARK INTER + INTRA:          -7.234
REMARK INTER:                  -7.234
REMARK INTRA:                   0.000
REMARK UNBOUND:                 0.000
REMARK  1 active torsions:
REMARK  status: ('A' for Active; 'I' for Inactive)
REMARK    1  A    between atoms: C_9  and  N_23 
ROOT
ATOM      1 Br   UNK d   1     -38.710 -70.162  51.837  0.00  0.00    -0.051 Br
ATOM      2  C   UNK d   1     -38.935 -68.359  51.284  0.00  0.00     0.011 A 
ATOM      3  C   UNK d   1     -38.252 -67.912  50.187  0.00  0.00     0.031 A 
ATOM      4  C   UNK d   1     -38.418 -66.584  49.781  0.00  0.00     0.005 A 
ATOM      5  C   UNK d   1     -39.252 -65.782  50.488  0.00  0.00     0.086 A 
ATOM      6  C   UNK d   1     -39.954 -66.246  51.620  0.00  0.00     0.039 A 
ATOM      7  C   UNK d   1     -39.788 -67.551  52.016  0.00  0.00     0.022 A 
ATOM      8  O   UNK d   1     -39.450 -64.462  50.128  0.00  0.00    -0.292 OA
ATOM      9  C   UNK d   1     -38.781 -63.971  49.027  0.00  0.00     0.160 A 
ATOM     10  C   UNK d   1     -37.961 -64.686  48.295  0.00  0.00     0.100 A 
ATOM     11  C   UNK d   1     -37.689 -66.085  48.597  0.00  0.00     0.145 A 
ATOM     12  C   UNK d   1     -36.239 -66.382  48.689  0.00  0.00     0.041 A 
ATOM     13  C   UNK d   1     -35.912 -67.263  47.696  0.00  0.00     0.160 A 
ATOM     14  N   UNK d   1     -34.576 -67.534  47.783  0.00  0.00    -0.156 NA
ATOM     15  N   UNK d   1     -34.118 -66.832  48.805  0.00  0.00    -0.280 N 
ATOM     16  C   UNK d   1     -35.092 -66.118  49.384  0.00  0.00     0.036 A 
ATOM     17  C   UNK d   1     -34.892 -65.223  50.564  0.00  0.00     0.070 C 
ATOM     18  N   UNK d   1     -37.041 -67.597  46.918  0.00  0.00    -0.308 N 
ATOM     19  C   UNK d   1     -38.138 -66.895  47.444  0.00  0.00     0.247 A 
ATOM     20  O   UNK d   1     -39.328 -66.923  47.030  0.00  0.00    -0.271 OA
ATOM     21  C   UNK d   1     -37.296 -64.100  47.156  0.00  0.00     0.101 C 
ATOM     22  N   UNK d   1     -36.775 -63.641  46.230  0.00  0.00    -0.191 NA
ATOM     23  H   UNK d   1     -33.102 -66.867  49.085  0.00  0.00     0.189 HD
ATOM     24  H   UNK d   1     -37.037 -68.269  46.081  0.00  0.00     0.170 HD
ENDROOT
BRANCH   9  25
ATOM     25  N   UNK d   1     -38.997 -62.598  48.666  0.00  0.00    -0.379 N 
ATOM     26  H   UNK d   1     -38.508 -61.844  49.195  0.00  0.00     0.158 HD
ATOM     27  H   UNK d   1     -39.633 -62.318  47.885  0.00  0.00     0.158 HD
ENDBRANCH   9  25
TORSDOF 1
ENDMDL
