MODEL 1
REMARK VINA RESULT:    -8.414      0.000      0.000
REMARK INTER + INTRA:         -10.678
REMARK INTER:                  -9.889
REMARK INTRA:                  -0.789
REMARK UNBOUND:                -0.789
REMARK  3 active torsions:
REMARK  status: ('A' for Active; 'I' for Inactive)
REMARK    1  A    between atoms: C_11  and  C_13 
REMARK    2  A    between atoms: C_23  and  C_24 
REMARK    3  A    between atoms: C_24  and  N_25 
ROOT
ATOM      1  C   UNK d   1     -39.182 -65.385  50.108  0.00  0.00    -0.001 A 
ATOM      2  C   UNK d   1     -40.189 -64.540  50.545  0.00  0.00     0.096 A 
ATOM      3  C   UNK d   1     -41.111 -64.975  51.473  0.00  0.00     0.289 A 
ATOM      4  O   UNK d   1     -42.007 -64.143  51.822  0.00  0.00    -0.260 OA
ATOM      5  O   UNK d   1     -41.051 -66.178  51.955  0.00  0.00    -0.274 OA
ATOM      6  C   UNK d   1     -40.147 -67.007  51.596  0.00  0.00     0.101 A 
ATOM      7  C   UNK d   1     -39.166 -66.646  50.653  0.00  0.00     0.010 A 
ATOM      8  C   UNK d   1     -38.206 -67.548  50.298  0.00  0.00     0.018 A 
ATOM      9  C   UNK d   1     -38.245 -68.813  50.894  0.00  0.00     0.041 A 
ATOM     10  C   UNK d   1     -39.222 -69.137  51.814  0.00  0.00     0.118 A 
ATOM     11  C   UNK d   1     -40.204 -68.251  52.197  0.00  0.00     0.039 A 
ATOM     12  O   UNK d   1     -39.173 -70.442  52.352  0.00  0.00    -0.191 OA
ENDROOT
BRANCH   1  13
ATOM     13  C   UNK d   1     -38.233 -64.960  49.080  0.00  0.00     0.052 A 
ATOM     14  C   UNK d   1     -38.565 -65.021  47.744  0.00  0.00     0.299 A 
ATOM     15  O   UNK d   1     -37.719 -64.675  46.839  0.00  0.00    -0.274 OA
ATOM     16  O   UNK d   1     -39.740 -65.431  47.488  0.00  0.00    -0.259 OA
ATOM     17  C   UNK d   1     -36.487 -64.242  47.117  0.00  0.00     0.089 A 
ATOM     18  C   UNK d   1     -36.093 -64.158  48.437  0.00  0.00     0.000 A 
ATOM     19  C   UNK d   1     -35.634 -63.891  46.082  0.00  0.00     0.039 A 
ATOM     20  C   UNK d   1     -34.812 -63.707  48.696  0.00  0.00     0.033 A 
ATOM     21  C   UNK d   1     -36.974 -64.522  49.424  0.00  0.00     0.032 A 
ATOM     22  C   UNK d   1     -33.917 -63.342  47.707  0.00  0.00     0.011 A 
ATOM     23 Br   UNK d   1     -32.179 -62.715  48.127  0.00  0.00    -0.051 Br
ATOM     24  C   UNK d   1     -34.367 -63.448  46.383  0.00  0.00     0.022 A 
ENDBRANCH   1  13
BRANCH  11  25
ATOM     25  C   UNK d   1     -41.246 -68.695  53.083  0.00  0.00     0.278 C 
BRANCH  25  26
ATOM     26  N   UNK d   1     -41.605 -68.036  54.272  0.00  0.00    -0.075 N 
ATOM     27  C   UNK d   1     -43.005 -67.857  54.536  0.00  0.00     0.269 C 
ATOM     28  C   UNK d   1     -40.864 -68.556  55.450  0.00  0.00     0.269 C 
ATOM     29  H   UNK d   1     -41.244 -67.041  54.193  0.00  0.00     0.279 HD
ENDBRANCH  25  26
ENDBRANCH  11  25
TORSDOF 3
ENDMDL
