/Users/jonathanwahrer/Desktop/Msc/3_Semester/Drug_Design_Praktikum/waehrer_HTS_screening/HTS_experiment/out/docking_results/vina_output/3e7o/0596_docked.pdbqt
 OpenBabel03192215463D

 29 32  0  0  0  0  0  0  0  0999 V2000
  -39.1820  -65.3850   50.1080 C   0  0  0  0  0  0  0  0  0  0  0  0
  -40.1890  -64.5400   50.5450 C   0  0  0  0  0  3  0  0  0  0  0  0
  -41.1110  -64.9750   51.4730 C   0  0  0  0  0  0  0  0  0  0  0  0
  -42.0070  -64.1430   51.8220 O   0  0  0  0  0  0  0  0  0  0  0  0
  -41.0510  -66.1780   51.9550 O   0  0  0  0  0  0  0  0  0  0  0  0
  -40.1470  -67.0070   51.5960 C   0  0  0  0  0  0  0  0  0  0  0  0
  -39.1660  -66.6460   50.6530 C   0  0  0  0  0  0  0  0  0  0  0  0
  -38.2060  -67.5480   50.2980 C   0  0  0  0  0  3  0  0  0  0  0  0
  -38.2450  -68.8130   50.8940 C   0  0  0  0  0  3  0  0  0  0  0  0
  -39.2220  -69.1370   51.8140 C   0  0  0  0  0  0  0  0  0  0  0  0
  -40.2040  -68.2510   52.1970 C   0  0  0  0  0  0  0  0  0  0  0  0
  -39.1730  -70.4420   52.3520 O   0  0  0  0  0  1  0  0  0  0  0  0
  -38.2330  -64.9600   49.0800 C   0  0  0  0  0  0  0  0  0  0  0  0
  -38.5650  -65.0210   47.7440 C   0  0  0  0  0  0  0  0  0  0  0  0
  -37.7190  -64.6750   46.8390 O   0  0  0  0  0  0  0  0  0  0  0  0
  -39.7400  -65.4310   47.4880 O   0  0  0  0  0  0  0  0  0  0  0  0
  -36.4870  -64.2420   47.1170 C   0  0  0  0  0  0  0  0  0  0  0  0
  -36.0930  -64.1580   48.4370 C   0  0  0  0  0  0  0  0  0  0  0  0
  -35.6340  -63.8910   46.0820 C   0  0  0  0  0  3  0  0  0  0  0  0
  -34.8120  -63.7070   48.6960 C   0  0  0  0  0  3  0  0  0  0  0  0
  -36.9740  -64.5220   49.4240 C   0  0  0  0  0  3  0  0  0  0  0  0
  -33.9170  -63.3420   47.7070 C   0  0  0  0  0  0  0  0  0  0  0  0
  -32.1790  -62.7150   48.1270 Br  0  0  0  0  0  0  0  0  0  0  0  0
  -34.3670  -63.4480   46.3830 C   0  0  0  0  0  3  0  0  0  0  0  0
  -41.2460  -68.6950   53.0830 C   0  0  0  0  0  2  0  0  0  0  0  0
  -41.6050  -68.0360   54.2720 N   0  0  0  0  0  4  0  0  0  0  0  0
  -43.0050  -67.8570   54.5360 C   0  0  0  0  0  1  0  0  0  0  0  0
  -40.8640  -68.5560   55.4500 C   0  0  0  0  0  1  0  0  0  0  0  0
  -41.2440  -67.0410   54.1930 H   0  0  0  0  0  0  0  0  0  0  0  0
  1  2  2  0  0  0  0
  1  7  1  0  0  0  0
  2  3  1  0  0  0  0
  3  4  2  0  0  0  0
  3  5  1  0  0  0  0
  6  5  1  0  0  0  0
  6 11  1  0  0  0  0
  7  6  2  0  0  0  0
  8  7  1  0  0  0  0
  8  9  2  0  0  0  0
  9 10  1  0  0  0  0
 10 11  2  0  0  0  0
 10 12  1  0  0  0  0
 11 25  1  0  0  0  0
 13 21  2  0  0  0  0
 13  1  1  0  0  0  0
 14 13  1  0  0  0  0
 15 17  1  0  0  0  0
 15 14  1  0  0  0  0
 16 14  2  0  0  0  0
 17 18  1  0  0  0  0
 18 20  2  0  0  0  0
 18 21  1  0  0  0  0
 19 24  1  0  0  0  0
 19 17  2  0  0  0  0
 22 23  1  0  0  0  0
 22 20  1  0  0  0  0
 24 22  2  0  0  0  0
 25 26  1  0  0  0  0
 26 27  1  0  0  0  0
 26 28  1  0  0  0  0
 29 26  1  0  0  0  0
M  END
>  <Pose>
1

>  <Score>
-8.414

$$$$
