MODEL 1
REMARK VINA RESULT:    -6.651      0.000      0.000
REMARK INTER + INTRA:         -10.010
REMARK INTER:                  -8.595
REMARK INTRA:                  -1.415
REMARK UNBOUND:                -1.415
REMARK  5 active torsions:
REMARK  status: ('A' for Active; 'I' for Inactive)
REMARK    1  A    between atoms: C_7  and  N_17 
REMARK    2  A    between atoms: C_9  and  C_10 
REMARK       I    between atoms: N_20  and  C_23 
REMARK    3  A    between atoms: C_23  and  C_25 
REMARK    4  A    between atoms: C_25  and  C_26 
REMARK    5  A    between atoms: C_26  and  C_27 
ROOT
ATOM      1 Br   UNK d   1     -44.323 -62.780  46.896  0.00  0.00    -0.051 Br
ATOM      2  C   UNK d   1     -42.421 -62.767  47.048  0.00  0.00     0.011 A 
ATOM      3  C   UNK d   1     -41.787 -63.421  48.100  0.00  0.00     0.035 A 
ATOM      4  C   UNK d   1     -40.403 -63.413  48.210  0.00  0.00     0.024 A 
ATOM      5  C   UNK d   1     -39.642 -62.751  47.272  0.00  0.00     0.073 A 
ATOM      6  N   UNK d   1     -38.289 -62.745  47.376  0.00  0.00    -0.207 NA
ATOM      7  C   UNK d   1     -37.653 -63.374  48.381  0.00  0.00     0.327 A 
ATOM      8  N   UNK d   1     -38.409 -64.011  49.283  0.00  0.00    -0.206 NA
ATOM      9  C   UNK d   1     -39.753 -64.057  49.242  0.00  0.00     0.085 A 
ATOM     10  C   UNK d   1     -40.297 -62.105  46.232  0.00  0.00     0.034 A 
ATOM     11  C   UNK d   1     -41.669 -62.101  46.103  0.00  0.00     0.021 A 
ENDROOT
BRANCH   7  12
ATOM     12  N   UNK d   1     -36.222 -63.348  48.456  0.00  0.00    -0.004 N 
ATOM     13  C   UNK d   1     -35.656 -63.959  47.284  0.00  0.00     0.265 C 
ATOM     14  C   UNK d   1     -35.741 -65.448  47.263  0.00  0.00     0.154 C 
ATOM     15  N   UNK d   1     -36.091 -66.002  48.552  0.00  0.00    -0.349 N 
ATOM     16  C   UNK d   1     -35.525 -65.353  49.714  0.00  0.00     0.154 C 
ATOM     17  C   UNK d   1     -36.951 -67.126  48.598  0.00  0.00     0.220 C 
ATOM     18  C   UNK d   1     -35.710 -63.868  49.687  0.00  0.00     0.265 C 
ATOM     19  O   UNK d   1     -37.403 -67.633  47.549  0.00  0.00    -0.273 OA
ATOM     20  H   UNK d   1     -35.974 -62.315  48.387  0.00  0.00     0.290 HD
BRANCH  17  21
ATOM     21  C   UNK d   1     -37.278 -67.658  49.953  0.00  0.00     0.113 C 
BRANCH  21  22
ATOM     22  C   UNK d   1     -36.704 -69.028  50.159  0.00  0.00     0.122 C 
BRANCH  22  23
ATOM     23  C   UNK d   1     -35.612 -69.059  51.143  0.00  0.00     0.172 C 
ATOM     24  O   UNK d   1     -34.450 -68.713  50.841  0.00  0.00    -0.648 OA
ATOM     25  O   UNK d   1     -35.873 -69.477  52.432  0.00  0.00    -0.648 OA
ENDBRANCH  22  23
ENDBRANCH  21  22
ENDBRANCH  17  21
ENDBRANCH   7  12
BRANCH   9  26
ATOM     26  C   UNK d   1     -40.481 -64.779  50.273  0.00  0.00     0.015 A 
ATOM     27  C   UNK d   1     -40.877 -66.093  50.064  0.00  0.00     0.046 A 
ATOM     28  C   UNK d   1     -41.557 -66.814  51.022  0.00  0.00     0.025 A 
ATOM     29 Cl   UNK d   1     -40.486 -66.838  48.512  0.00  0.00    -0.083 Cl
ATOM     30  C   UNK d   1     -41.874 -66.252  52.242  0.00  0.00     0.002 A 
ATOM     31  C   UNK d   1     -41.477 -64.937  52.450  0.00  0.00     0.001 A 
ATOM     32  C   UNK d   1     -40.798 -64.224  51.486  0.00  0.00     0.015 A 
ENDBRANCH   9  26
TORSDOF 5
ENDMDL
