MODEL 1
REMARK VINA RESULT:    -8.528      0.000      0.000
REMARK INTER + INTRA:         -11.631
REMARK INTER:                 -11.519
REMARK INTRA:                  -0.112
REMARK UNBOUND:                -0.112
REMARK  6 active torsions:
REMARK  status: ('A' for Active; 'I' for Inactive)
REMARK    1  A    between atoms: C_7  and  N_17 
REMARK    2  A    between atoms: C_9  and  C_10 
REMARK       I    between atoms: N_20  and  C_23 
REMARK    3  A    between atoms: C_23  and  C_25 
REMARK    4  A    between atoms: C_25  and  C_26 
REMARK    5  A    between atoms: C_26  and  C_27 
REMARK    6  A    between atoms: C_27  and  C_28 
ROOT
ATOM      1 Br   UNK d   1     -45.346 -66.379  53.948  0.00  0.00    -0.051 Br
ATOM      2  C   UNK d   1     -43.937 -65.893  52.750  0.00  0.00     0.011 A 
ATOM      3  C   UNK d   1     -42.704 -66.520  52.774  0.00  0.00     0.035 A 
ATOM      4  C   UNK d   1     -41.670 -66.194  51.924  0.00  0.00     0.024 A 
ATOM      5  C   UNK d   1     -41.844 -65.191  50.988  0.00  0.00     0.073 A 
ATOM      6  N   UNK d   1     -40.836 -64.849  50.147  0.00  0.00    -0.207 NA
ATOM      7  C   UNK d   1     -39.637 -65.453  50.176  0.00  0.00     0.327 A 
ATOM      8  N   UNK d   1     -39.466 -66.430  51.086  0.00  0.00    -0.206 NA
ATOM      9  C   UNK d   1     -40.439 -66.809  51.947  0.00  0.00     0.085 A 
ATOM     10  C   UNK d   1     -43.069 -64.562  50.955  0.00  0.00     0.034 A 
ATOM     11  C   UNK d   1     -44.108 -64.895  51.815  0.00  0.00     0.021 A 
ENDROOT
BRANCH   7  12
ATOM     12  N   UNK d   1     -38.602 -65.068  49.278  0.00  0.00    -0.004 N 
ATOM     13  C   UNK d   1     -38.302 -63.659  49.406  0.00  0.00     0.265 C 
ATOM     14  C   UNK d   1     -36.955 -63.404  48.807  0.00  0.00     0.154 C 
ATOM     15  N   UNK d   1     -36.585 -64.546  47.996  0.00  0.00    -0.349 N 
ATOM     16  C   UNK d   1     -37.604 -65.098  47.121  0.00  0.00     0.154 C 
ATOM     17  C   UNK d   1     -35.280 -65.057  48.093  0.00  0.00     0.219 C 
ATOM     18  C   UNK d   1     -38.908 -65.326  47.895  0.00  0.00     0.265 C 
ATOM     19  O   UNK d   1     -34.985 -66.050  47.383  0.00  0.00    -0.273 OA
ATOM     20  H   UNK d   1     -37.758 -65.625  49.526  0.00  0.00     0.290 HD
BRANCH  17  21
ATOM     21  C   UNK d   1     -34.272 -64.477  48.983  0.00  0.00     0.103 C 
BRANCH  21  22
ATOM     22  C   UNK d   1     -33.427 -65.567  49.576  0.00  0.00     0.020 C 
BRANCH  22  23
ATOM     23  C   UNK d   1     -34.088 -66.236  50.761  0.00  0.00     0.113 C 
BRANCH  23  24
ATOM     24  C   UNK d   1     -34.222 -67.698  50.601  0.00  0.00     0.172 C 
ATOM     25  O   UNK d   1     -35.238 -68.122  50.002  0.00  0.00    -0.648 OA
ATOM     26  O   UNK d   1     -33.246 -68.545  51.103  0.00  0.00    -0.648 OA
ENDBRANCH  23  24
ENDBRANCH  22  23
ENDBRANCH  21  22
ENDBRANCH  17  21
ENDBRANCH   7  12
BRANCH   9  27
ATOM     27  C   UNK d   1     -40.200 -67.870  52.914  0.00  0.00     0.015 A 
ATOM     28  C   UNK d   1     -39.456 -68.995  52.596  0.00  0.00     0.046 A 
ATOM     29  C   UNK d   1     -39.237 -70.020  53.499  0.00  0.00     0.025 A 
ATOM     30 Cl   UNK d   1     -38.761 -69.137  50.989  0.00  0.00    -0.083 Cl
ATOM     31  C   UNK d   1     -39.801 -69.887  54.774  0.00  0.00     0.002 A 
ATOM     32  C   UNK d   1     -40.546 -68.781  55.123  0.00  0.00     0.001 A 
ATOM     33  C   UNK d   1     -40.735 -67.800  54.202  0.00  0.00     0.015 A 
ENDBRANCH   9  27
TORSDOF 6
ENDMDL
