MODEL 1
REMARK VINA RESULT:    -8.169      0.000      0.000
REMARK INTER + INTRA:          -9.701
REMARK INTER:                  -9.601
REMARK INTRA:                  -0.100
REMARK UNBOUND:                -0.100
REMARK  3 active torsions:
REMARK  status: ('A' for Active; 'I' for Inactive)
REMARK    1  A    between atoms: C_7  and  C_9 
REMARK       I    between atoms: C_9  and  N_11 
REMARK       I    between atoms: N_14  and  C_17 
REMARK    2  A    between atoms: C_17  and  C_19 
REMARK    3  A    between atoms: C_19  and  N_20 
ROOT
ATOM      1  C   UNK d   1     -38.379 -68.547  50.967  0.00  0.00     0.270 C 
ATOM      2  O   UNK d   1     -37.788 -69.676  51.168  0.00  0.00    -0.266 OA
ATOM      3  N   UNK d   1     -37.840 -67.756  49.952  0.00  0.00    -0.344 N 
ATOM      4  C   UNK d   1     -38.304 -66.457  49.545  0.00  0.00     0.146 C 
ATOM      5  C   UNK d   1     -37.434 -65.854  48.434  0.00  0.00     0.145 C 
ATOM      6  N   UNK d   1     -36.037 -65.987  48.817  0.00  0.00    -0.348 N 
ATOM      7  C   UNK d   1     -35.559 -67.243  49.398  0.00  0.00     0.145 C 
ATOM      8  C   UNK d   1     -36.678 -68.263  49.175  0.00  0.00     0.146 C 
ATOM      9  C   UNK d   1     -35.126 -64.922  48.644  0.00  0.00     0.248 C 
ATOM     10  O   UNK d   1     -35.574 -63.860  48.149  0.00  0.00    -0.271 OA
ENDROOT
BRANCH   1  11
ATOM     11  C   UNK d   1     -39.521 -68.211  51.793  0.00  0.00     0.102 A 
ATOM     12  N   UNK d   1     -39.839 -68.524  53.052  0.00  0.00    -0.351 N 
ATOM     13  C   UNK d   1     -41.044 -67.980  53.408  0.00  0.00     0.043 A 
ATOM     14  H   UNK d   1     -39.297 -69.090  53.721  0.00  0.00     0.166 HD
ATOM     15  C   UNK d   1     -41.533 -67.281  52.339  0.00  0.00    -0.006 A 
ATOM     16  C   UNK d   1     -41.780 -68.021  54.577  0.00  0.00     0.031 A 
ATOM     17  C   UNK d   1     -42.763 -66.624  52.443  0.00  0.00     0.032 A 
ATOM     18  C   UNK d   1     -40.607 -67.417  51.344  0.00  0.00     0.049 A 
ATOM     19  C   UNK d   1     -43.500 -66.661  53.598  0.00  0.00     0.011 A 
ATOM     20 Br   UNK d   1     -45.188 -65.764  53.753  0.00  0.00    -0.051 Br
ATOM     21  C   UNK d   1     -43.000 -67.366  54.671  0.00  0.00     0.021 A 
ENDBRANCH   1  11
BRANCH   9  22
ATOM     22  C   UNK d   1     -33.738 -65.098  49.039  0.00  0.00     0.374 C 
BRANCH  22  23
ATOM     23  N   UNK d   1     -32.774 -64.966  47.969  0.00  0.00     0.101 N 
ATOM     24  C   UNK d   1     -33.245 -65.728  46.810  0.00  0.00     0.299 C 
ATOM     25  C   UNK d   1     -32.614 -67.077  46.763  0.00  0.00     0.198 C 
ATOM     26  O   UNK d   1     -32.432 -67.581  48.048  0.00  0.00    -0.388 OA
ATOM     27  C   UNK d   1     -31.441 -66.874  48.733  0.00  0.00     0.198 C 
ATOM     28  C   UNK d   1     -31.445 -65.413  48.345  0.00  0.00     0.299 C 
ENDBRANCH  22  23
ENDBRANCH   9  22
TORSDOF 3
ENDMDL
