MODEL 1
REMARK VINA RESULT:    -7.944      0.000      0.000
REMARK INTER + INTRA:          -9.727
REMARK INTER:                  -9.337
REMARK INTRA:                  -0.390
REMARK UNBOUND:                -0.390
REMARK  3 active torsions:
REMARK  status: ('A' for Active; 'I' for Inactive)
REMARK    1  A    between atoms: N_11  and  C_14 
REMARK    2  A    between atoms: C_14  and  C_15 
REMARK    3  A    between atoms: C_15  and  N_16 
ROOT
ATOM      1 Br   UNK d   1     -36.684 -68.154  49.111  0.00  0.00    -0.051 Br
ATOM      2  C   UNK d   1     -37.847 -68.504  50.575  0.00  0.00     0.011 A 
ATOM      3  C   UNK d   1     -38.958 -67.721  50.813  0.00  0.00     0.035 A 
ATOM      4  C   UNK d   1     -39.812 -67.962  51.871  0.00  0.00     0.023 A 
ATOM      5  C   UNK d   1     -39.527 -69.024  52.708  0.00  0.00     0.045 A 
ATOM      6  N   UNK d   1     -40.503 -69.024  53.633  0.00  0.00    -0.349 N 
ATOM      7  C   UNK d   1     -41.383 -68.015  53.414  0.00  0.00     0.131 A 
ATOM      8  C   UNK d   1     -40.959 -67.328  52.296  0.00  0.00     0.103 A 
ATOM      9  N   UNK d   1     -41.684 -66.270  51.881  0.00  0.00    -0.240 NA
ATOM     10  C   UNK d   1     -42.799 -65.872  52.522  0.00  0.00     0.213 A 
ATOM     11  N   UNK d   1     -43.234 -66.521  53.610  0.00  0.00    -0.305 N 
ATOM     12  C   UNK d   1     -42.528 -67.577  54.040  0.00  0.00     0.277 A 
ATOM     13  O   UNK d   1     -42.921 -68.197  55.060  0.00  0.00    -0.265 OA
ATOM     14  C   UNK d   1     -38.410 -69.800  52.458  0.00  0.00     0.032 A 
ATOM     15  C   UNK d   1     -37.551 -69.567  51.403  0.00  0.00     0.021 A 
ATOM     16  H   UNK d   1     -40.595 -69.695  54.419  0.00  0.00     0.166 HD
ENDROOT
BRANCH  11  17
ATOM     17  C   UNK d   1     -44.453 -66.090  54.317  0.00  0.00     0.152 C 
BRANCH  17  18
ATOM     18  C   UNK d   1     -45.446 -65.556  53.358  0.00  0.00     0.137 C 
BRANCH  18  19
ATOM     19  N   UNK d   1     -46.414 -66.467  52.866  0.00  0.00    -0.408 N 
ATOM     20  C   UNK d   1     -47.635 -65.884  52.428  0.00  0.00     0.147 C 
ATOM     21  C   UNK d   1     -48.720 -65.912  53.467  0.00  0.00     0.289 C 
ATOM     22  N   UNK d   1     -48.700 -67.123  54.258  0.00  0.00     0.086 N 
ATOM     23  C   UNK d   1     -47.922 -68.164  53.608  0.00  0.00     0.289 C 
ATOM     24  H   UNK d   1     -48.359 -66.955  55.232  0.00  0.00     0.316 HD
ATOM     25  C   UNK d   1     -46.492 -67.683  53.594  0.00  0.00     0.147 C 
ENDBRANCH  18  19
ENDBRANCH  17  18
ENDBRANCH  11  17
TORSDOF 3
ENDMDL
