/Users/jonathanwahrer/Desktop/Msc/3_Semester/Drug_Design_Praktikum/waehrer_HTS_screening/HTS_experiment/out/docking_results/vina_output/3e7o/0617_docked.pdbqt
 OpenBabel03192215473D

 25 28  0  0  0  0  0  0  0  0999 V2000
  -36.6840  -68.1540   49.1110 Br  0  0  0  0  0  0  0  0  0  0  0  0
  -37.8470  -68.5040   50.5750 C   0  0  0  0  0  0  0  0  0  0  0  0
  -38.9580  -67.7210   50.8130 C   0  0  0  0  0  3  0  0  0  0  0  0
  -39.8120  -67.9620   51.8710 C   0  0  0  0  0  0  0  0  0  0  0  0
  -39.5270  -69.0240   52.7080 C   0  0  0  0  0  0  0  0  0  0  0  0
  -40.5030  -69.0240   53.6330 N   0  0  0  0  0  0  0  0  0  0  0  0
  -41.3830  -68.0150   53.4140 C   0  0  0  0  0  0  0  0  0  0  0  0
  -40.9590  -67.3280   52.2960 C   0  0  0  0  0  0  0  0  0  0  0  0
  -41.6840  -66.2700   51.8810 N   0  0  0  0  0  0  0  0  0  0  0  0
  -42.7990  -65.8720   52.5220 C   0  0  0  0  0  3  0  0  0  0  0  0
  -43.2340  -66.5210   53.6100 N   0  0  0  0  0  0  0  0  0  0  0  0
  -42.5280  -67.5770   54.0400 C   0  0  0  0  0  0  0  0  0  0  0  0
  -42.9210  -68.1970   55.0600 O   0  0  0  0  0  0  0  0  0  0  0  0
  -38.4100  -69.8000   52.4580 C   0  0  0  0  0  3  0  0  0  0  0  0
  -37.5510  -69.5670   51.4030 C   0  0  0  0  0  3  0  0  0  0  0  0
  -40.5950  -69.6950   54.4190 H   0  0  0  0  0  0  0  0  0  0  0  0
  -44.4530  -66.0900   54.3170 C   0  0  0  0  0  2  0  0  0  0  0  0
  -45.4460  -65.5560   53.3580 C   0  0  0  0  0  2  0  0  0  0  0  0
  -46.4140  -66.4670   52.8660 N   0  0  0  0  0  0  0  0  0  0  0  0
  -47.6350  -65.8840   52.4280 C   0  0  0  0  0  2  0  0  0  0  0  0
  -48.7200  -65.9120   53.4670 C   0  0  0  0  0  2  0  0  0  0  0  0
  -48.7000  -67.1230   54.2580 N   0  0  0  0  0  0  0  0  0  0  0  0
  -47.9220  -68.1640   53.6080 C   0  0  0  0  0  2  0  0  0  0  0  0
  -48.3590  -66.9550   55.2320 H   0  0  0  0  0  0  0  0  0  0  0  0
  -46.4920  -67.6830   53.5940 C   0  0  0  0  0  2  0  0  0  0  0  0
  1  2  1  0  0  0  0
  2  3  2  0  0  0  0
  2 15  1  0  0  0  0
  3  4  1  0  0  0  0
  4  8  1  0  0  0  0
  4  5  2  0  0  0  0
  5  6  1  0  0  0  0
  6 16  1  0  0  0  0
  7  6  1  0  0  0  0
  7 12  1  0  0  0  0
  8  7  2  0  0  0  0
  9  8  1  0  0  0  0
  9 10  2  0  0  0  0
 10 11  1  0  0  0  0
 11 12  1  0  0  0  0
 11 17  1  0  0  0  0
 12 13  2  0  0  0  0
 14  5  1  0  0  0  0
 15 14  2  0  0  0  0
 18 17  1  0  0  0  0
 19 18  1  0  0  0  0
 19 25  1  0  0  0  0
 20 19  1  0  0  0  0
 20 21  1  0  0  0  0
 21 22  1  0  0  0  0
 22 24  1  0  0  0  0
 23 22  1  0  0  0  0
 25 23  1  0  0  0  0
M  END
>  <Pose>
1

>  <Score>
-7.944

$$$$
