MODEL 1
REMARK VINA RESULT:    -8.324      0.000      0.000
REMARK INTER + INTRA:          -9.134
REMARK INTER:                  -8.811
REMARK INTRA:                  -0.323
REMARK UNBOUND:                -0.323
REMARK  1 active torsions:
REMARK  status: ('A' for Active; 'I' for Inactive)
REMARK    1  A    between atoms: C_10  and  C_15 
REMARK       I    between atoms: C_15  and  N_17 
ROOT
ATOM      1 Br   UNK d   1     -38.966 -70.306  54.078  0.00  0.00    -0.051 Br
ATOM      2  C   UNK d   1     -38.941 -69.259  52.487  0.00  0.00     0.012 A 
ATOM      3  C   UNK d   1     -40.101 -68.631  52.085  0.00  0.00     0.028 A 
ATOM      4  C   UNK d   1     -40.116 -67.855  50.919  0.00  0.00    -0.027 A 
ATOM      5  C   UNK d   1     -38.964 -67.742  50.209  0.00  0.00     0.055 A 
ATOM      6  C   UNK d   1     -37.782 -68.350  50.571  0.00  0.00     0.044 A 
ATOM      7  C   UNK d   1     -37.792 -69.105  51.715  0.00  0.00     0.037 A 
ATOM      8  C   UNK d   1     -36.695 -68.152  49.762  0.00  0.00     0.201 A 
ATOM      9  O   UNK d   1     -35.623 -68.694  50.077  0.00  0.00    -0.286 OA
ATOM     10  C   UNK d   1     -36.747 -67.375  48.614  0.00  0.00     0.098 A 
ATOM     11  C   UNK d   1     -37.959 -66.795  48.309  0.00  0.00     0.112 A 
ATOM     12  N   UNK d   1     -39.054 -66.988  49.112  0.00  0.00    -0.354 N 
ATOM     13  C   UNK d   1     -40.416 -66.510  49.030  0.00  0.00     0.133 A 
ATOM     14  C   UNK d   1     -41.148 -67.071  50.219  0.00  0.00     0.061 A 
ENDROOT
BRANCH  10  15
ATOM     15  C   UNK d   1     -35.579 -67.174  47.764  0.00  0.00     0.259 C 
ATOM     16  O   UNK d   1     -35.332 -68.004  46.859  0.00  0.00    -0.267 OA
ATOM     17  N   UNK d   1     -34.719 -66.042  47.954  0.00  0.00    -0.344 N 
ATOM     18  C   UNK d   1     -33.554 -65.819  47.124  0.00  0.00     0.152 C 
ATOM     19  C   UNK d   1     -34.984 -65.068  48.994  0.00  0.00     0.152 C 
ATOM     20  C   UNK d   1     -32.371 -65.661  48.088  0.00  0.00     0.187 C 
ATOM     21  O   UNK d   1     -32.667 -64.692  49.016  0.00  0.00    -0.388 OA
ATOM     22  C   UNK d   1     -33.717 -65.010  49.851  0.00  0.00     0.187 C 
ENDBRANCH  10  15
TORSDOF 1
ENDMDL
