MODEL 1
REMARK VINA RESULT:    -7.496      0.000      0.000
REMARK INTER + INTRA:         -12.613
REMARK INTER:                 -10.782
REMARK INTRA:                  -1.831
REMARK UNBOUND:                -1.831
REMARK  8 active torsions:
REMARK  status: ('A' for Active; 'I' for Inactive)
REMARK    1  A    between atoms: N_5  and  C_23 
REMARK    2  A    between atoms: C_6  and  C_17 
REMARK    3  A    between atoms: C_7  and  C_12 
REMARK    4  A    between atoms: C_10  and  O_11 
REMARK    5  A    between atoms: C_12  and  O_14 
REMARK    6  A    between atoms: O_14  and  C_15 
REMARK    7  A    between atoms: C_17  and  N_18 
REMARK    8  A    between atoms: C_23  and  C_24 
ROOT
ATOM      1 Br   UNK d   1     -34.476 -69.761  51.780  0.00  0.00    -0.048 Br
ATOM      2  C   UNK d   1     -35.869 -68.774  50.984  0.00  0.00     0.046 A 
ATOM      3  C   UNK d   1     -37.197 -69.027  51.290  0.00  0.00     0.052 A 
ATOM      4  C   UNK d   1     -38.225 -68.338  50.715  0.00  0.00     0.048 A 
ATOM      5  N   UNK d   1     -39.572 -68.409  50.934  0.00  0.00    -0.343 N 
ATOM      6  C   UNK d   1     -40.149 -67.463  50.172  0.00  0.00     0.055 A 
ATOM      7  C   UNK d   1     -39.144 -66.792  49.424  0.00  0.00     0.076 A 
ATOM      8  C   UNK d   1     -37.962 -67.371  49.810  0.00  0.00     0.012 A 
ATOM      9  C   UNK d   1     -36.631 -67.095  49.486  0.00  0.00     0.052 A 
ATOM     10  C   UNK d   1     -35.576 -67.785  50.064  0.00  0.00     0.084 A 
ENDROOT
BRANCH   5  11
ATOM     11  C   UNK d   1     -40.172 -69.565  51.628  0.00  0.00     0.167 C 
BRANCH  11  12
ATOM     12  C   UNK d   1     -40.433 -69.079  53.072  0.00  0.00    -0.040 A 
ATOM     13  C   UNK d   1     -39.597 -69.592  54.022  0.00  0.00     0.009 A 
ATOM     14  C   UNK d   1     -39.766 -69.187  55.356  0.00  0.00     0.001 A 
ATOM     15  C   UNK d   1     -40.724 -68.298  55.741  0.00  0.00     0.000 A 
ATOM     16  C   UNK d   1     -41.550 -67.798  54.734  0.00  0.00     0.001 A 
ATOM     17  C   UNK d   1     -41.397 -68.198  53.401  0.00  0.00     0.009 A 
ENDBRANCH  11  12
ENDBRANCH   5  11
BRANCH   6  18
ATOM     18  C   UNK d   1     -41.551 -67.051  50.100  0.00  0.00     0.292 C 
BRANCH  18  19
ATOM     19  N   UNK d   1     -41.965 -65.879  50.807  0.00  0.00    -0.066 N 
ATOM     20  C   UNK d   1     -41.258 -65.010  51.568  0.00  0.00     0.235 C 
ATOM     21  C   UNK d   1     -42.191 -64.505  52.696  0.00  0.00     0.029 C 
ATOM     22  C   UNK d   1     -43.547 -64.692  52.021  0.00  0.00     0.029 C 
ATOM     23  C   UNK d   1     -43.304 -66.058  51.395  0.00  0.00     0.235 C 
ATOM     24  H   UNK d   1     -42.325 -65.244  49.880  0.00  0.00     0.280 HD
ENDBRANCH  18  19
ENDBRANCH   6  18
BRANCH   7  25
ATOM     25  C   UNK d   1     -39.323 -65.827  48.331  0.00  0.00     0.296 C 
ATOM     26  O   UNK d   1     -39.199 -66.260  47.154  0.00  0.00    -0.259 OA
BRANCH  25  27
ATOM     27  O   UNK d   1     -39.623 -64.514  48.477  0.00  0.00    -0.318 OA
BRANCH  27  28
ATOM     28  C   UNK d   1     -38.913 -63.459  49.018  0.00  0.00     0.174 C 
ATOM     29  C   UNK d   1     -37.673 -63.058  48.230  0.00  0.00     0.034 C 
ENDBRANCH  27  28
ENDBRANCH  25  27
ENDBRANCH   7  25
BRANCH  10  30
ATOM     30  O   UNK d   1     -34.227 -67.525  49.766  0.00  0.00    -0.359 OA
ATOM     31  H   UNK d   1     -33.882 -67.705  48.812  0.00  0.00     0.217 HD
ENDBRANCH  10  30
TORSDOF 8
ENDMDL
