/Users/jonathanwahrer/Desktop/Msc/3_Semester/Drug_Design_Praktikum/waehrer_HTS_screening/HTS_experiment/out/docking_results/vina_output/3e7o/0625_docked.pdbqt
 OpenBabel03192215473D

 31 34  0  0  0  0  0  0  0  0999 V2000
  -34.4760  -69.7610   51.7800 Br  0  0  0  0  0  0  0  0  0  0  0  0
  -35.8690  -68.7740   50.9840 C   0  0  0  0  0  0  0  0  0  0  0  0
  -37.1970  -69.0270   51.2900 C   0  0  0  0  0  3  0  0  0  0  0  0
  -38.2250  -68.3380   50.7150 C   0  0  0  0  0  0  0  0  0  0  0  0
  -39.5720  -68.4090   50.9340 N   0  0  0  0  0  0  0  0  0  0  0  0
  -40.1490  -67.4630   50.1720 C   0  0  0  0  0  0  0  0  0  0  0  0
  -39.1440  -66.7920   49.4240 C   0  0  0  0  0  0  0  0  0  0  0  0
  -37.9620  -67.3710   49.8100 C   0  0  0  0  0  0  0  0  0  0  0  0
  -36.6310  -67.0950   49.4860 C   0  0  0  0  0  3  0  0  0  0  0  0
  -35.5760  -67.7850   50.0640 C   0  0  0  0  0  0  0  0  0  0  0  0
  -40.1720  -69.5650   51.6280 C   0  0  0  0  0  2  0  0  0  0  0  0
  -40.4330  -69.0790   53.0720 C   0  0  0  0  0  0  0  0  0  0  0  0
  -39.5970  -69.5920   54.0220 C   0  0  0  0  0  3  0  0  0  0  0  0
  -39.7660  -69.1870   55.3560 C   0  0  0  0  0  3  0  0  0  0  0  0
  -40.7240  -68.2980   55.7410 C   0  0  0  0  0  3  0  0  0  0  0  0
  -41.5500  -67.7980   54.7340 C   0  0  0  0  0  3  0  0  0  0  0  0
  -41.3970  -68.1980   53.4010 C   0  0  0  0  0  3  0  0  0  0  0  0
  -41.5510  -67.0510   50.1000 C   0  0  0  0  0  2  0  0  0  0  0  0
  -41.9650  -65.8790   50.8070 N   0  0  0  0  0  4  0  0  0  0  0  0
  -41.2580  -65.0100   51.5680 C   0  0  0  0  0  2  0  0  0  0  0  0
  -42.1910  -64.5050   52.6960 C   0  0  0  0  0  2  0  0  0  0  0  0
  -43.5470  -64.6920   52.0210 C   0  0  0  0  0  2  0  0  0  0  0  0
  -43.3040  -66.0580   51.3950 C   0  0  0  0  0  2  0  0  0  0  0  0
  -42.3250  -65.2440   49.8800 H   0  0  0  0  0  0  0  0  0  0  0  0
  -39.3230  -65.8270   48.3310 C   0  0  0  0  0  0  0  0  0  0  0  0
  -39.1990  -66.2600   47.1540 O   0  0  0  0  0  0  0  0  0  0  0  0
  -39.6230  -64.5140   48.4770 O   0  0  0  0  0  0  0  0  0  0  0  0
  -38.9130  -63.4590   49.0180 C   0  0  0  0  0  2  0  0  0  0  0  0
  -37.6730  -63.0580   48.2300 C   0  0  0  0  0  1  0  0  0  0  0  0
  -34.2270  -67.5250   49.7660 O   0  0  0  0  0  0  0  0  0  0  0  0
  -33.8820  -67.7050   48.8120 H   0  0  0  0  0  0  0  0  0  0  0  0
  2  3  1  0  0  0  0
  2  1  1  0  0  0  0
  4  5  1  0  0  0  0
  4  3  2  0  0  0  0
  5 11  1  0  0  0  0
  6  5  1  0  0  0  0
  7  8  1  0  0  0  0
  7  6  2  0  0  0  0
  8  4  1  0  0  0  0
  9  8  2  0  0  0  0
  9 10  1  0  0  0  0
 10  2  2  0  0  0  0
 11 12  1  0  0  0  0
 12 17  2  0  0  0  0
 12 13  1  0  0  0  0
 13 14  2  0  0  0  0
 14 15  1  0  0  0  0
 16 15  2  0  0  0  0
 17 16  1  0  0  0  0
 18  6  1  0  0  0  0
 18 19  1  0  0  0  0
 19 23  1  0  0  0  0
 19 20  1  0  0  0  0
 20 21  1  0  0  0  0
 22 21  1  0  0  0  0
 23 22  1  0  0  0  0
 24 19  1  0  0  0  0
 25 27  1  0  0  0  0
 25  7  1  0  0  0  0
 26 25  2  0  0  0  0
 27 28  1  0  0  0  0
 29 28  1  0  0  0  0
 30 10  1  0  0  0  0
 31 30  1  0  0  0  0
M  END
>  <Pose>
1

>  <Score>
-7.496

$$$$
