MODEL 1
REMARK VINA RESULT:    -7.436      0.000      0.000
REMARK INTER + INTRA:         -11.005
REMARK INTER:                 -10.261
REMARK INTRA:                  -0.743
REMARK UNBOUND:                -0.743
REMARK  7 active torsions:
REMARK  status: ('A' for Active; 'I' for Inactive)
REMARK    1  A    between atoms: C_6  and  O_28 
REMARK    2  A    between atoms: C_10  and  N_11 
REMARK       I    between atoms: N_11  and  C_12 
REMARK    3  A    between atoms: C_12  and  C_14 
REMARK    4  A    between atoms: C_14  and  N_15 
REMARK    5  A    between atoms: N_18  and  C_21 
REMARK    6  A    between atoms: C_21  and  C_22 
REMARK       I    between atoms: C_22  and  N_24 
REMARK    7  A    between atoms: N_24  and  C_25 
ROOT
ATOM      1  N   UNK d   1     -36.109 -66.693  50.197  0.00  0.00    -0.324 N 
ATOM      2  C   UNK d   1     -36.405 -67.945  49.642  0.00  0.00     0.239 C 
ATOM      3  O   UNK d   1     -36.162 -68.174  48.430  0.00  0.00    -0.271 OA
ATOM      4  H   UNK d   1     -36.334 -66.600  51.234  0.00  0.00     0.169 HD
ENDROOT
BRANCH   2   5
ATOM      5  C   UNK d   1     -37.001 -69.053  50.396  0.00  0.00     0.220 C 
BRANCH   5   6
ATOM      6  N   UNK d   1     -38.028 -68.759  51.313  0.00  0.00    -0.401 N 
ATOM      7  C   UNK d   1     -39.231 -68.195  50.818  0.00  0.00     0.136 C 
ATOM      8  C   UNK d   1     -40.043 -67.509  51.917  0.00  0.00     0.136 C 
ATOM      9  N   UNK d   1     -40.242 -68.434  52.950  0.00  0.00    -0.401 N 
ATOM     10  C   UNK d   1     -39.587 -69.682  52.880  0.00  0.00     0.136 C 
ATOM     11  C   UNK d   1     -38.167 -69.669  52.400  0.00  0.00     0.136 C 
BRANCH   9  12
ATOM     12  C   UNK d   1     -40.662 -67.925  54.176  0.00  0.00     0.219 C 
BRANCH  12  13
ATOM     13  C   UNK d   1     -42.089 -67.675  54.381  0.00  0.00     0.235 C 
ATOM     14  O   UNK d   1     -42.709 -68.575  55.070  0.00  0.00    -0.272 OA
ATOM     15  N   UNK d   1     -42.846 -66.599  53.932  0.00  0.00    -0.355 N 
ATOM     16  H   UNK d   1     -42.402 -65.837  53.380  0.00  0.00     0.162 HD
BRANCH  15  17
ATOM     17  C   UNK d   1     -44.274 -66.456  54.201  0.00  0.00     0.084 A 
ATOM     18  C   UNK d   1     -45.051 -65.361  53.598  0.00  0.00     0.027 A 
ATOM     19  C   UNK d   1     -45.235 -66.774  53.076  0.00  0.00     0.027 A 
ENDBRANCH  15  17
ENDBRANCH  12  13
ENDBRANCH   9  12
ENDBRANCH   5   6
ENDBRANCH   2   5
BRANCH   1  20
ATOM     20  C   UNK d   1     -35.541 -65.576  49.546  0.00  0.00     0.054 A 
ATOM     21  C   UNK d   1     -36.371 -64.551  49.120  0.00  0.00     0.040 A 
ATOM     22 Br   UNK d   1     -38.254 -64.748  49.430  0.00  0.00    -0.049 Br
ATOM     23  C   UNK d   1     -35.917 -63.416  48.488  0.00  0.00     0.055 A 
ATOM     24  C   UNK d   1     -34.577 -63.243  48.241  0.00  0.00     0.089 A 
ATOM     25  N   UNK d   1     -33.814 -62.294  47.668  0.00  0.00    -0.207 NA
ATOM     26  C   UNK d   1     -33.741 -64.243  48.651  0.00  0.00     0.066 A 
ATOM     27  C   UNK d   1     -32.517 -62.653  47.698  0.00  0.00     0.244 A 
ATOM     28  N   UNK d   1     -32.497 -63.852  48.306  0.00  0.00    -0.319 N 
ATOM     29  H   UNK d   1     -31.627 -64.424  48.495  0.00  0.00     0.169 HD
ATOM     30  C   UNK d   1     -34.199 -65.401  49.296  0.00  0.00     0.063 A 
BRANCH  27  31
ATOM     31  O   UNK d   1     -31.426 -61.916  47.196  0.00  0.00    -0.331 OA
ATOM     32  H   UNK d   1     -31.553 -61.542  46.246  0.00  0.00     0.221 HD
ENDBRANCH  27  31
ENDBRANCH   1  20
TORSDOF 7
ENDMDL
