MODEL 1
REMARK VINA RESULT:    -8.584      0.000      0.000
REMARK INTER + INTRA:         -11.673
REMARK INTER:                 -11.094
REMARK INTRA:                  -0.579
REMARK UNBOUND:                -0.579
REMARK  5 active torsions:
REMARK  status: ('A' for Active; 'I' for Inactive)
REMARK    1  A    between atoms: C_7  and  N_11 
REMARK    2  A    between atoms: C_13  and  C_17 
REMARK       I    between atoms: C_17  and  N_19 
REMARK    3  A    between atoms: N_19  and  C_20 
REMARK    4  A    between atoms: C_20  and  C_21 
REMARK    5  A    between atoms: C_21  and  C_22 
ROOT
ATOM      1  N   UNK d   1     -41.605 -66.946  53.196  0.00  0.00    -0.301 N 
ATOM      2  C   UNK d   1     -40.472 -67.146  52.266  0.00  0.00     0.148 C 
ATOM      3  C   UNK d   1     -40.402 -68.659  52.135  0.00  0.00     0.105 C 
ATOM      4  C   UNK d   1     -40.842 -69.134  53.504  0.00  0.00     0.119 C 
ATOM      5  C   UNK d   1     -41.530 -67.993  54.161  0.00  0.00     0.226 C 
ATOM      6  O   UNK d   1     -41.961 -67.941  55.321  0.00  0.00    -0.273 OA
ENDROOT
BRANCH   3   7
ATOM      7  C   UNK d   1     -39.000 -68.960  51.806  0.00  0.00     0.223 C 
ATOM      8  O   UNK d   1     -38.331 -69.767  52.492  0.00  0.00    -0.273 OA
ATOM      9  N   UNK d   1     -38.422 -68.311  50.681  0.00  0.00    -0.360 N 
ATOM     10  H   UNK d   1     -39.011 -67.644  50.145  0.00  0.00     0.162 HD
BRANCH   9  11
ATOM     11  C   UNK d   1     -37.054 -68.556  50.282  0.00  0.00     0.128 C 
BRANCH  11  12
ATOM     12  C   UNK d   1     -36.361 -67.308  49.778  0.00  0.00     0.080 C 
BRANCH  12  13
ATOM     13  C   UNK d   1     -35.974 -67.458  48.362  0.00  0.00     0.052 A 
ATOM     14  N   UNK d   1     -34.703 -67.444  47.929  0.00  0.00    -0.247 NA
ATOM     15  C   UNK d   1     -34.668 -67.605  46.606  0.00  0.00     0.207 A 
ATOM     16  N   UNK d   1     -35.951 -67.727  46.172  0.00  0.00    -0.359 N 
ATOM     17  C   UNK d   1     -36.737 -67.636  47.250  0.00  0.00     0.116 A 
ATOM     18  H   UNK d   1     -36.191 -67.863  45.164  0.00  0.00     0.166 HD
ENDBRANCH  12  13
ENDBRANCH  11  12
ENDBRANCH   9  11
ENDBRANCH   3   7
BRANCH   1  19
ATOM     19  C   UNK d   1     -42.521 -65.892  53.025  0.00  0.00     0.139 A 
ATOM     20  N   UNK d   1     -42.316 -64.593  52.764  0.00  0.00    -0.261 N 
ATOM     21  N   UNK d   1     -43.468 -63.935  52.673  0.00  0.00    -0.172 NA
ATOM     22  H   UNK d   1     -41.395 -64.128  52.643  0.00  0.00     0.191 HD
ATOM     23  C   UNK d   1     -44.491 -64.785  52.872  0.00  0.00     0.092 A 
ATOM     24  C   UNK d   1     -45.856 -64.617  52.883  0.00  0.00     0.053 A 
ATOM     25  C   UNK d   1     -43.923 -66.010  53.094  0.00  0.00     0.040 A 
ATOM     26  C   UNK d   1     -46.640 -65.743  53.126  0.00  0.00     0.013 A 
ATOM     27 Br   UNK d   1     -48.551 -65.622  53.162  0.00  0.00    -0.051 Br
ATOM     28  C   UNK d   1     -46.048 -66.978  53.349  0.00  0.00     0.020 A 
ATOM     29  C   UNK d   1     -44.683 -67.120  53.334  0.00  0.00     0.019 A 
ENDBRANCH   1  19
TORSDOF 5
ENDMDL
