MODEL 1
REMARK VINA RESULT:    -7.205      0.000      0.000
REMARK INTER + INTRA:          -9.610
REMARK INTER:                  -8.890
REMARK INTRA:                  -0.719
REMARK UNBOUND:                -0.719
REMARK  4 active torsions:
REMARK  status: ('A' for Active; 'I' for Inactive)
REMARK    1  A    between atoms: N_4  and  C_31 
REMARK    2  A    between atoms: C_6  and  C_7 
REMARK       I    between atoms: C_7  and  N_9 
REMARK       I    between atoms: N_12  and  C_15 
REMARK    3  A    between atoms: C_15  and  C_17 
REMARK    4  A    between atoms: C_20  and  C_22 
REMARK       I    between atoms: C_22  and  N_24 
ROOT
ATOM      1  C   UNK d   1     -34.419 -64.517  47.775  0.00  0.00     0.275 C 
ATOM      2  O   UNK d   1     -33.658 -64.799  48.770  0.00  0.00    -0.266 OA
ATOM      3  N   UNK d   1     -35.619 -63.915  48.045  0.00  0.00    -0.344 N 
ATOM      4  C   UNK d   1     -36.605 -63.541  47.079  0.00  0.00     0.146 C 
ATOM      5  C   UNK d   1     -37.772 -64.464  47.201  0.00  0.00     0.145 C 
ATOM      6  N   UNK d   1     -37.892 -65.000  48.549  0.00  0.00    -0.355 N 
ATOM      7  C   UNK d   1     -37.322 -64.372  49.695  0.00  0.00     0.145 C 
ATOM      8  C   UNK d   1     -36.035 -63.599  49.427  0.00  0.00     0.146 C 
ATOM      9  C   UNK d   1     -38.586 -66.255  48.608  0.00  0.00     0.205 C 
ATOM     10  O   UNK d   1     -38.931 -66.786  47.471  0.00  0.00    -0.170 OA
ENDROOT
BRANCH   9  11
ATOM     11  C   UNK d   1     -38.916 -66.948  49.805  0.00  0.00     0.108 A 
ATOM     12  N   UNK d   1     -38.106 -67.931  50.359  0.00  0.00    -0.269 N 
ATOM     13  N   UNK d   1     -38.679 -68.432  51.405  0.00  0.00    -0.167 NA
ATOM     14  C   UNK d   1     -36.816 -68.339  49.855  0.00  0.00     0.180 C 
ATOM     15  C   UNK d   1     -39.858 -67.861  51.631  0.00  0.00     0.147 A 
ATOM     16  C   UNK d   1     -40.006 -66.910  50.601  0.00  0.00     0.075 A 
BRANCH  15  17
ATOM     17  C   UNK d   1     -40.814 -68.100  52.697  0.00  0.00     0.274 C 
ATOM     18  O   UNK d   1     -40.866 -69.297  53.156  0.00  0.00    -0.266 OA
ATOM     19  N   UNK d   1     -41.663 -67.152  53.247  0.00  0.00    -0.343 N 
ATOM     20  C   UNK d   1     -42.549 -67.570  54.338  0.00  0.00     0.152 C 
ATOM     21  C   UNK d   1     -41.757 -65.792  52.816  0.00  0.00     0.152 C 
ATOM     22  C   UNK d   1     -43.944 -67.161  53.915  0.00  0.00     0.187 C 
ATOM     23  O   UNK d   1     -43.932 -65.754  53.904  0.00  0.00    -0.388 OA
ATOM     24  C   UNK d   1     -43.199 -65.303  52.841  0.00  0.00     0.187 C 
ENDBRANCH  15  17
ENDBRANCH   9  11
BRANCH   1  25
ATOM     25  C   UNK d   1     -33.906 -64.878  46.478  0.00  0.00     0.163 A 
ATOM     26  C   UNK d   1     -34.114 -66.071  45.779  0.00  0.00     0.064 A 
ATOM     27 Br   UNK d   1     -35.175 -67.536  46.434  0.00  0.00    -0.047 Br
ATOM     28  C   UNK d   1     -33.448 -66.003  44.585  0.00  0.00     0.134 A 
ATOM     29  N   UNK d   1     -32.844 -64.811  44.538  0.00  0.00    -0.279 N 
ATOM     30  N   UNK d   1     -33.109 -64.156  45.637  0.00  0.00    -0.166 NA
BRANCH  29  31
ATOM     31  C   UNK d   1     -32.033 -64.405  43.397  0.00  0.00     0.146 C 
ATOM     32  C   UNK d   1     -31.529 -65.572  42.591  0.00  0.00     0.028 C 
ENDBRANCH  29  31
ENDBRANCH   1  25
TORSDOF 4
ENDMDL
