MODEL 1
REMARK VINA RESULT:    -8.251      0.000      0.000
REMARK INTER + INTRA:         -11.730
REMARK INTER:                 -10.663
REMARK INTRA:                  -1.067
REMARK UNBOUND:                -1.067
REMARK  5 active torsions:
REMARK  status: ('A' for Active; 'I' for Inactive)
REMARK    1  A    between atoms: N_4  and  C_7 
REMARK    2  A    between atoms: C_7  and  C_8 
REMARK       I    between atoms: C_8  and  N_10 
REMARK    3  A    between atoms: N_10  and  C_11 
REMARK    4  A    between atoms: C_11  and  C_12 
REMARK    5  A    between atoms: C_15  and  O_24 
ROOT
ATOM      1  C   UNK d   1     -41.044 -66.368  51.921  0.00  0.00     0.003 A 
ATOM      2  C   UNK d   1     -41.590 -67.140  52.915  0.00  0.00     0.116 A 
ATOM      3  C   UNK d   1     -41.061 -68.377  53.236  0.00  0.00     0.140 A 
ATOM      4  C   UNK d   1     -39.967 -68.874  52.564  0.00  0.00     0.120 A 
ATOM      5  C   UNK d   1     -39.397 -68.093  51.541  0.00  0.00     0.075 A 
ATOM      6  C   UNK d   1     -39.921 -66.867  51.225  0.00  0.00    -0.027 A 
ATOM      7  C   UNK d   1     -39.312 -66.060  50.165  0.00  0.00     0.060 C 
ATOM      8  C   UNK d   1     -38.480 -66.758  49.164  0.00  0.00     0.130 C 
ATOM      9  N   UNK d   1     -37.737 -67.891  49.701  0.00  0.00    -0.352 N 
ATOM     10  C   UNK d   1     -38.278 -68.641  50.781  0.00  0.00     0.256 C 
ATOM     11  O   UNK d   1     -37.776 -69.771  51.059  0.00  0.00    -0.267 OA
ATOM     12  C   UNK d   1     -36.473 -68.199  49.072  0.00  0.00     0.152 C 
ATOM     13  O   UNK d   1     -41.833 -68.879  54.265  0.00  0.00    -0.320 OA
ATOM     14  C   UNK d   1     -42.733 -67.904  54.728  0.00  0.00     0.352 C 
ATOM     15  O   UNK d   1     -42.701 -66.870  53.748  0.00  0.00    -0.322 OA
ENDROOT
BRANCH   1  16
ATOM     16  C   UNK d   1     -41.613 -65.062  51.527  0.00  0.00     0.164 C 
BRANCH  16  17
ATOM     17  N   UNK d   1     -43.039 -65.111  51.257  0.00  0.00    -0.355 N 
ATOM     18  C   UNK d   1     -44.057 -64.355  51.796  0.00  0.00     0.237 C 
ATOM     19  O   UNK d   1     -43.831 -63.455  52.667  0.00  0.00    -0.272 OA
ATOM     20  H   UNK d   1     -43.297 -65.847  50.526  0.00  0.00     0.162 HD
BRANCH  18  21
ATOM     21  C   UNK d   1     -45.470 -64.563  51.379  0.00  0.00     0.253 C 
BRANCH  21  22
ATOM     22  N   UNK d   1     -46.032 -65.586  52.281  0.00  0.00    -0.271 N 
ATOM     23  C   UNK d   1     -47.178 -65.529  52.952  0.00  0.00     0.133 A 
ATOM     24  C   UNK d   1     -47.314 -66.696  53.668  0.00  0.00     0.047 A 
ATOM     25 Br   UNK d   1     -48.748 -67.196  54.825  0.00  0.00    -0.048 Br
ATOM     26  C   UNK d   1     -46.208 -67.474  53.415  0.00  0.00     0.159 A 
ATOM     27  N   UNK d   1     -45.461 -66.754  52.565  0.00  0.00    -0.183 NA
ENDBRANCH  21  22
ENDBRANCH  18  21
ENDBRANCH  16  17
ENDBRANCH   1  16
BRANCH   4  28
ATOM     28  O   UNK d   1     -39.410 -70.106  52.858  0.00  0.00    -0.352 OA
ATOM     29  C   UNK d   1     -38.872 -70.379  54.135  0.00  0.00     0.210 C 
ENDBRANCH   4  28
TORSDOF 5
ENDMDL
