MODEL 1
REMARK VINA RESULT:    -8.059      0.000      0.000
REMARK INTER + INTRA:          -9.870
REMARK INTER:                  -9.472
REMARK INTRA:                  -0.398
REMARK UNBOUND:                -0.398
REMARK  3 active torsions:
REMARK  status: ('A' for Active; 'I' for Inactive)
REMARK    1  A    between atoms: N_4  and  C_7 
REMARK    2  A    between atoms: C_7  and  N_8 
REMARK    3  A    between atoms: C_10  and  C_13 
ROOT
ATOM      1  C   UNK d   1     -39.583 -68.153  51.937  0.00  0.00     0.202 A 
ATOM      2  N   UNK d   1     -39.994 -69.032  52.865  0.00  0.00    -0.142 NA
ATOM      3  N   UNK d   1     -41.076 -68.568  53.490  0.00  0.00    -0.206 N 
ATOM      4  C   UNK d   1     -41.372 -67.353  52.946  0.00  0.00     0.170 A 
ATOM      5  N   UNK d   1     -40.442 -67.122  51.999  0.00  0.00    -0.205 NA
ATOM      6  C   UNK d   1     -42.464 -66.665  53.433  0.00  0.00     0.078 A 
ATOM      7  C   UNK d   1     -43.267 -67.161  54.445  0.00  0.00     0.160 A 
ATOM      8  N   UNK d   1     -44.244 -66.276  54.705  0.00  0.00    -0.261 N 
ATOM      9  N   UNK d   1     -44.072 -65.252  53.885  0.00  0.00    -0.184 NA
ATOM     10  C   UNK d   1     -42.997 -65.451  53.093  0.00  0.00     0.158 A 
ATOM     11  N   UNK d   1     -42.937 -68.360  54.949  0.00  0.00    -0.222 NA
ATOM     12  C   UNK d   1     -41.873 -69.027  54.473  0.00  0.00     0.239 A 
ATOM     13  H   UNK d   1     -45.008 -66.355  55.410  0.00  0.00     0.191 HD
ENDROOT
BRANCH   1  14
ATOM     14  C   UNK d   1     -38.432 -68.306  51.049  0.00  0.00     0.128 A 
ATOM     15  N   UNK d   1     -38.239 -67.760  49.837  0.00  0.00    -0.167 NA
ATOM     16  N   UNK d   1     -37.075 -68.126  49.329  0.00  0.00    -0.261 N 
ATOM     17  C   UNK d   1     -36.452 -68.936  50.202  0.00  0.00     0.117 A 
ATOM     18  C   UNK d   1     -37.303 -69.059  51.296  0.00  0.00     0.056 A 
BRANCH  16  19
ATOM     19  C   UNK d   1     -36.552 -67.712  48.025  0.00  0.00     0.300 C 
BRANCH  19  20
ATOM     20  N   UNK d   1     -35.281 -67.030  48.156  0.00  0.00    -0.260 N 
ATOM     21  C   UNK d   1     -35.098 -65.761  48.554  0.00  0.00     0.135 A 
ATOM     22  C   UNK d   1     -33.744 -65.496  48.545  0.00  0.00     0.047 A 
ATOM     23 Br   UNK d   1     -32.908 -63.865  49.013  0.00  0.00    -0.048 Br
ATOM     24  C   UNK d   1     -33.124 -66.652  48.127  0.00  0.00     0.159 A 
ATOM     25  N   UNK d   1     -34.099 -67.562  47.902  0.00  0.00    -0.182 NA
ENDBRANCH  19  20
ENDBRANCH  16  19
ENDBRANCH   1  14
TORSDOF 3
ENDMDL
