MODEL 1
REMARK VINA RESULT:    -8.288      0.000      0.000
REMARK INTER + INTRA:          -9.446
REMARK INTER:                  -9.257
REMARK INTRA:                  -0.189
REMARK UNBOUND:                -0.189
REMARK  2 active torsions:
REMARK  status: ('A' for Active; 'I' for Inactive)
REMARK    1  A    between atoms: N_4  and  C_7 
REMARK    2  A    between atoms: C_10  and  C_13 
REMARK       I    between atoms: C_13  and  N_15 
ROOT
ATOM      1  C   UNK d   1     -37.067 -67.941  49.672  0.00  0.00     0.253 C 
ATOM      2  O   UNK d   1     -36.062 -68.604  50.147  0.00  0.00    -0.267 OA
ATOM      3  N   UNK d   1     -36.889 -67.404  48.408  0.00  0.00    -0.348 N 
ATOM      4  C   UNK d   1     -37.780 -66.669  47.551  0.00  0.00     0.129 C 
ATOM      5  C   UNK d   1     -37.418 -65.202  47.686  0.00  0.00     0.061 C 
ATOM      6  C   UNK d   1     -35.917 -65.038  47.809  0.00  0.00     0.118 C 
ATOM      7  N   UNK d   1     -35.553 -63.858  47.056  0.00  0.00    -0.324 N 
ATOM      8  C   UNK d   1     -35.728 -62.730  47.900  0.00  0.00     0.323 C 
ATOM      9  O   UNK d   1     -35.864 -61.510  47.561  0.00  0.00    -0.247 OA
ATOM     10  N   UNK d   1     -35.725 -63.223  49.249  0.00  0.00    -0.277 N 
ATOM     11  C   UNK d   1     -35.546 -64.654  49.184  0.00  0.00     0.254 C 
ATOM     12  O   UNK d   1     -35.153 -65.358  50.139  0.00  0.00    -0.270 OA
ATOM     13  C   UNK d   1     -35.144 -66.200  47.274  0.00  0.00     0.061 C 
ATOM     14  C   UNK d   1     -35.530 -67.542  47.796  0.00  0.00     0.129 C 
ATOM     15  H   UNK d   1     -35.219 -63.799  46.074  0.00  0.00     0.165 HD
ATOM     16  H   UNK d   1     -35.829 -62.694  50.142  0.00  0.00     0.173 HD
ENDROOT
BRANCH   1  17
ATOM     17  C   UNK d   1     -38.210 -67.878  50.556  0.00  0.00     0.032 A 
ATOM     18  C   UNK d   1     -39.104 -66.794  50.451  0.00  0.00     0.019 A 
ATOM     19  C   UNK d   1     -40.229 -66.684  51.225  0.00  0.00     0.032 A 
ATOM     20  C   UNK d   1     -40.562 -67.632  52.161  0.00  0.00     0.058 A 
ATOM     21  C   UNK d   1     -39.710 -68.696  52.283  0.00  0.00     0.032 A 
ATOM     22  C   UNK d   1     -38.555 -68.821  51.495  0.00  0.00     0.019 A 
BRANCH  20  23
ATOM     23  N   UNK d   1     -41.735 -67.492  52.949  0.00  0.00    -0.244 N 
ATOM     24  C   UNK d   1     -42.826 -66.744  52.706  0.00  0.00     0.139 A 
ATOM     25  C   UNK d   1     -43.728 -66.902  53.735  0.00  0.00     0.047 A 
ATOM     26 Br   UNK d   1     -45.457 -66.073  53.911  0.00  0.00    -0.048 Br
ATOM     27  C   UNK d   1     -43.131 -67.780  54.612  0.00  0.00     0.159 A 
ATOM     28  N   UNK d   1     -41.946 -68.100  54.097  0.00  0.00    -0.179 NA
ENDBRANCH  20  23
ENDBRANCH   1  17
TORSDOF 2
ENDMDL
