/Users/jonathanwahrer/Desktop/Msc/3_Semester/Drug_Design_Praktikum/waehrer_HTS_screening/HTS_experiment/out/docking_results/vina_output/3e7o/0663_docked.pdbqt
 OpenBabel03192215493D

 28 31  0  0  1  0  0  0  0  0999 V2000
  -37.0670  -67.9410   49.6720 C   0  0  0  0  0  0  0  0  0  0  0  0
  -36.0620  -68.6040   50.1470 O   0  0  0  0  0  0  0  0  0  0  0  0
  -36.8890  -67.4040   48.4080 N   0  0  0  0  0  0  0  0  0  0  0  0
  -37.7800  -66.6690   47.5510 C   0  0  0  0  0  2  0  0  0  0  0  0
  -37.4180  -65.2020   47.6860 C   0  0  0  0  0  2  0  0  0  0  0  0
  -35.9170  -65.0380   47.8090 C   0  0  1  0  0  0  0  0  0  0  0  0
  -35.5530  -63.8580   47.0560 N   0  0  0  0  0  0  0  0  0  0  0  0
  -35.7280  -62.7300   47.9000 C   0  0  0  0  0  0  0  0  0  0  0  0
  -35.8640  -61.5100   47.5610 O   0  0  0  0  0  0  0  0  0  0  0  0
  -35.7250  -63.2230   49.2490 N   0  0  0  0  0  0  0  0  0  0  0  0
  -35.5460  -64.6540   49.1840 C   0  0  0  0  0  0  0  0  0  0  0  0
  -35.1530  -65.3580   50.1390 O   0  0  0  0  0  0  0  0  0  0  0  0
  -35.1440  -66.2000   47.2740 C   0  0  0  0  0  2  0  0  0  0  0  0
  -35.5300  -67.5420   47.7960 C   0  0  0  0  0  2  0  0  0  0  0  0
  -35.2190  -63.7990   46.0740 H   0  0  0  0  0  0  0  0  0  0  0  0
  -35.8290  -62.6940   50.1420 H   0  0  0  0  0  0  0  0  0  0  0  0
  -38.2100  -67.8780   50.5560 C   0  0  0  0  0  0  0  0  0  0  0  0
  -39.1040  -66.7940   50.4510 C   0  0  0  0  0  3  0  0  0  0  0  0
  -40.2290  -66.6840   51.2250 C   0  0  0  0  0  3  0  0  0  0  0  0
  -40.5620  -67.6320   52.1610 C   0  0  0  0  0  0  0  0  0  0  0  0
  -39.7100  -68.6960   52.2830 C   0  0  0  0  0  3  0  0  0  0  0  0
  -38.5550  -68.8210   51.4950 C   0  0  0  0  0  3  0  0  0  0  0  0
  -41.7350  -67.4920   52.9490 N   0  0  0  0  0  0  0  0  0  0  0  0
  -42.8260  -66.7440   52.7060 C   0  0  0  0  0  3  0  0  0  0  0  0
  -43.7280  -66.9020   53.7350 C   0  0  0  0  0  0  0  0  0  0  0  0
  -45.4570  -66.0730   53.9110 Br  0  0  0  0  0  0  0  0  0  0  0  0
  -43.1310  -67.7800   54.6120 C   0  0  0  0  0  3  0  0  0  0  0  0
  -41.9460  -68.1000   54.0970 N   0  0  0  0  0  0  0  0  0  0  0  0
  1  2  2  0  0  0  0
  1 17  1  0  0  0  0
  3  1  1  0  0  0  0
  4  5  1  0  0  0  0
  4  3  1  0  0  0  0
  5  6  1  0  0  0  0
  6 13  1  6  0  0  0
  6 11  1  0  0  0  0
  7  6  1  0  0  0  0
  7  8  1  0  0  0  0
  8 10  1  0  0  0  0
  9  8  2  0  0  0  0
 10 16  1  0  0  0  0
 11 10  1  0  0  0  0
 11 12  2  0  0  0  0
 13 14  1  0  0  0  0
 14  3  1  0  0  0  0
 15  7  1  0  0  0  0
 17 22  1  0  0  0  0
 18 17  2  0  0  0  0
 18 19  1  0  0  0  0
 19 20  2  0  0  0  0
 20 21  1  0  0  0  0
 20 23  1  0  0  0  0
 22 21  2  0  0  0  0
 23 28  1  0  0  0  0
 24 23  1  0  0  0  0
 24 25  2  0  0  0  0
 25 26  1  0  0  0  0
 25 27  1  0  0  0  0
 28 27  2  0  0  0  0
M  END
>  <Pose>
1

>  <Score>
-8.288

$$$$
