MODEL 1
REMARK VINA RESULT:    -7.391      0.000      0.000
REMARK INTER + INTRA:         -10.202
REMARK INTER:                  -9.119
REMARK INTRA:                  -1.082
REMARK UNBOUND:                -1.082
REMARK  4 active torsions:
REMARK  status: ('A' for Active; 'I' for Inactive)
REMARK    1  A    between atoms: C_5  and  N_8 
REMARK    2  A    between atoms: N_8  and  C_9 
REMARK    3  A    between atoms: C_10  and  N_22 
REMARK    4  A    between atoms: N_13  and  C_16 
ROOT
ATOM      1  C   UNK d   1     -44.409 -64.284  51.764  0.00  0.00     0.136 A 
ATOM      2  C   UNK d   1     -45.341 -65.125  52.105  0.00  0.00     0.140 A 
ATOM      3  C   UNK d   1     -44.670 -66.251  52.756  0.00  0.00     0.285 A 
ATOM      4  O   UNK d   1     -45.278 -67.266  53.219  0.00  0.00    -0.265 OA
ATOM      5  N   UNK d   1     -43.249 -66.051  52.798  0.00  0.00    -0.241 N 
ATOM      6  C   UNK d   1     -43.071 -64.786  52.162  0.00  0.00     0.284 A 
ATOM      7  O   UNK d   1     -41.972 -64.201  51.973  0.00  0.00    -0.265 OA
ENDROOT
BRANCH   1   8
ATOM      8  N   UNK d   1     -44.532 -63.038  51.106  0.00  0.00    -0.335 N 
ATOM      9  H   UNK d   1     -44.642 -62.175  51.638  0.00  0.00     0.168 HD
BRANCH   8  10
ATOM     10  C   UNK d   1     -44.501 -63.024  49.692  0.00  0.00     0.127 A 
ATOM     11  N   UNK d   1     -43.325 -62.986  49.010  0.00  0.00    -0.242 NA
ATOM     12  C   UNK d   1     -43.243 -62.956  47.675  0.00  0.00     0.138 A 
ATOM     13  C   UNK d   1     -44.371 -62.963  46.898  0.00  0.00     0.028 A 
ATOM     14 Br   UNK d   1     -44.289 -62.910  44.989  0.00  0.00    -0.050 Br
ATOM     15  C   UNK d   1     -45.596 -63.002  47.523  0.00  0.00     0.024 A 
ATOM     16  C   UNK d   1     -45.648 -63.033  48.890  0.00  0.00     0.052 A 
ENDBRANCH   8  10
ENDBRANCH   1   8
BRANCH   2  17
ATOM     17  N   UNK d   1     -46.753 -65.015  51.916  0.00  0.00    -0.326 N 
ATOM     18  C   UNK d   1     -47.492 -64.295  52.780  0.00  0.00     0.097 A 
ATOM     19  C   UNK d   1     -48.884 -64.175  52.628  0.00  0.00     0.018 A 
ATOM     20  C   UNK d   1     -49.519 -64.805  51.574  0.00  0.00     0.003 A 
ATOM     21  C   UNK d   1     -48.740 -65.537  50.703  0.00  0.00     0.018 A 
ATOM     22  C   UNK d   1     -47.385 -65.629  50.887  0.00  0.00     0.097 A 
ENDBRANCH   2  17
BRANCH   5  23
ATOM     23  C   UNK d   1     -42.267 -66.921  53.338  0.00  0.00     0.046 A 
ATOM     24  C   UNK d   1     -42.284 -67.367  54.634  0.00  0.00     0.030 A 
ATOM     25  C   UNK d   1     -41.300 -68.246  55.132  0.00  0.00     0.002 A 
ATOM     26  C   UNK d   1     -40.282 -68.686  54.317  0.00  0.00     0.000 A 
ATOM     27  C   UNK d   1     -40.260 -68.243  53.019  0.00  0.00     0.002 A 
ATOM     28  C   UNK d   1     -41.243 -67.373  52.544  0.00  0.00     0.030 A 
ENDBRANCH   5  23
TORSDOF 4
ENDMDL
