/Users/jonathanwahrer/Desktop/Msc/3_Semester/Drug_Design_Praktikum/waehrer_HTS_screening/HTS_experiment/out/docking_results/vina_output/3e7o/0670_docked.pdbqt
 OpenBabel03192215493D

 23 27  0  0  1  0  0  0  0  0999 V2000
  -38.8580  -69.7880   51.8990 C   0  0  0  0  0  2  0  0  0  0  0  0
  -37.7710  -68.8130   51.5730 C   0  0  1  0  0  3  0  0  0  0  0  0
  -36.4860  -69.4120   51.0380 C   0  0  2  0  0  3  0  0  0  0  0  0
  -36.3780  -68.2090   50.2650 N   0  0  0  0  0  0  0  0  0  0  0  0
  -37.8090  -68.2540   50.1550 C   0  0  2  0  0  3  0  0  0  0  0  0
  -35.3400  -67.3800   49.8250 C   0  0  0  0  0  0  0  0  0  0  0  0
  -34.8200  -66.3700   50.5550 N   0  0  0  0  0  0  0  0  0  0  0  0
  -33.8360  -65.5740   50.1580 C   0  0  0  0  0  3  0  0  0  0  0  0
  -33.2730  -65.7580   48.9160 C   0  0  0  0  0  0  0  0  0  0  0  0
  -31.8530  -64.6260   48.3160 Br  0  0  0  0  0  0  0  0  0  0  0  0
  -33.7770  -66.7800   48.1410 C   0  0  0  0  0  3  0  0  0  0  0  0
  -34.7760  -67.5580   48.5940 N   0  0  0  0  0  0  0  0  0  0  0  0
  -39.7160  -69.1830   52.8840 N   0  0  0  0  0  0  0  0  0  0  0  0
  -40.6080  -68.1750   52.5180 N   0  0  0  0  0  0  0  0  0  0  0  0
  -41.4740  -67.5480   53.4540 C   0  0  0  0  0  0  0  0  0  0  0  0
  -40.6140  -67.8890   51.4960 H   0  0  0  0  0  0  0  0  0  0  0  0
  -42.2990  -66.5990   53.0550 C   0  0  0  0  0  0  0  0  0  0  0  0
  -41.4560  -67.9470   54.8480 C   0  0  0  0  0  3  0  0  0  0  0  0
  -42.9360  -65.6860   52.0860 C   0  0  0  0  0  2  0  0  0  0  0  0
  -43.3750  -65.6170   53.4710 C   0  0  0  0  0  2  0  0  0  0  0  0
  -40.6170  -68.9010   55.2180 C   0  0  0  0  0  3  0  0  0  0  0  0
  -39.7130  -69.5590   54.2530 C   0  0  0  0  0  0  0  0  0  0  0  0
  -38.9240  -70.4660   54.6310 O   0  0  0  0  0  0  0  0  0  0  0  0
  1 13  1  0  0  0  0
  2  1  1  6  0  0  0
  3  4  1  1  0  0  0
  3  2  1  0  0  0  0
  5  4  1  1  0  0  0
  5  3  1  0  0  0  0
  5  2  1  0  0  0  0
  6  4  1  0  0  0  0
  6  7  2  0  0  0  0
  8  7  1  0  0  0  0
  9  8  2  0  0  0  0
 10  9  1  0  0  0  0
 11 12  2  0  0  0  0
 11  9  1  0  0  0  0
 12  6  1  0  0  0  0
 13 22  1  0  0  0  0
 14 13  1  0  0  0  0
 14 15  1  0  0  0  0
 15 18  1  0  0  0  0
 16 14  1  0  0  0  0
 17 15  2  0  0  0  0
 17 20  1  0  0  0  0
 18 21  2  0  0  0  0
 19 17  1  0  0  0  0
 19 20  1  0  0  0  0
 22 23  2  0  0  0  0
 22 21  1  0  0  0  0
M  END
>  <Pose>
1

>  <Score>
-7.846

$$$$
