MODEL 1
REMARK VINA RESULT:    -8.640      0.000      0.000
REMARK INTER + INTRA:         -11.229
REMARK INTER:                 -10.408
REMARK INTRA:                  -0.821
REMARK UNBOUND:                -0.821
REMARK  4 active torsions:
REMARK  status: ('A' for Active; 'I' for Inactive)
REMARK    1  A    between atoms: C_6  and  C_8 
REMARK       I    between atoms: C_8  and  N_10 
REMARK    2  A    between atoms: N_10  and  C_11 
REMARK    3  A    between atoms: C_11  and  C_12 
REMARK    4  A    between atoms: C_15  and  O_24 
ROOT
ATOM      1  C   UNK d   1     -39.959 -67.354  50.979  0.00  0.00     0.003 A 
ATOM      2  C   UNK d   1     -38.911 -68.276  51.333  0.00  0.00     0.116 A 
ATOM      3  C   UNK d   1     -38.990 -68.974  52.481  0.00  0.00     0.139 A 
ATOM      4  C   UNK d   1     -40.085 -68.822  53.351  0.00  0.00     0.118 A 
ATOM      5  C   UNK d   1     -41.093 -67.946  53.031  0.00  0.00     0.075 A 
ATOM      6  C   UNK d   1     -41.020 -67.210  51.837  0.00  0.00    -0.027 A 
ATOM      7  C   UNK d   1     -42.053 -66.190  51.521  0.00  0.00     0.060 C 
ATOM      8  C   UNK d   1     -42.873 -65.755  52.731  0.00  0.00     0.130 C 
ATOM      9  N   UNK d   1     -43.314 -66.886  53.512  0.00  0.00    -0.352 N 
ATOM     10  C   UNK d   1     -42.262 -67.786  53.890  0.00  0.00     0.256 C 
ATOM     11  O   UNK d   1     -42.414 -68.398  54.967  0.00  0.00    -0.267 OA
ATOM     12  C   UNK d   1     -44.698 -67.094  53.880  0.00  0.00     0.152 C 
ATOM     13  O   UNK d   1     -37.842 -69.778  52.556  0.00  0.00    -0.320 OA
ATOM     14  C   UNK d   1     -37.164 -69.764  51.318  0.00  0.00     0.352 C 
ATOM     15  O   UNK d   1     -37.726 -68.632  50.683  0.00  0.00    -0.322 OA
ENDROOT
BRANCH   1  16
ATOM     16  C   UNK d   1     -39.694 -66.716  49.708  0.00  0.00     0.165 C 
BRANCH  16  17
ATOM     17  N   UNK d   1     -38.493 -66.108  49.336  0.00  0.00    -0.352 N 
ATOM     18  C   UNK d   1     -38.490 -64.631  49.368  0.00  0.00     0.253 C 
ATOM     19  O   UNK d   1     -39.528 -64.044  49.717  0.00  0.00    -0.268 OA
ATOM     20  H   UNK d   1     -37.568 -66.477  49.070  0.00  0.00     0.163 HD
BRANCH  18  21
ATOM     21  C   UNK d   1     -37.307 -63.887  49.002  0.00  0.00     0.050 A 
ATOM     22  C   UNK d   1     -37.481 -62.660  48.371  0.00  0.00     0.133 A 
ATOM     23  N   UNK d   1     -36.435 -61.911  47.994  0.00  0.00    -0.271 NA
ATOM     24  C   UNK d   1     -35.196 -62.343  48.225  0.00  0.00     0.135 A 
ATOM     25  C   UNK d   1     -34.969 -63.534  48.838  0.00  0.00     0.029 A 
ATOM     26 Br   UNK d   1     -33.185 -64.135  49.160  0.00  0.00    -0.050 Br
ATOM     27  C   UNK d   1     -36.031 -64.340  49.244  0.00  0.00     0.039 A 
ENDBRANCH  18  21
ENDBRANCH  16  17
ENDBRANCH   1  16
BRANCH   4  28
ATOM     28  O   UNK d   1     -40.091 -69.557  54.478  0.00  0.00    -0.357 OA
ATOM     29  H   UNK d   1     -39.378 -69.853  55.052  0.00  0.00     0.217 HD
ENDBRANCH   4  28
TORSDOF 4
ENDMDL
