MODEL 1
REMARK VINA RESULT:    -8.135      0.000      0.000
REMARK INTER + INTRA:          -8.394
REMARK INTER:                  -9.086
REMARK INTRA:                   0.693
REMARK UNBOUND:                 0.693
REMARK  2 active torsions:
REMARK  status: ('A' for Active; 'I' for Inactive)
REMARK    1  A    between atoms: C_6  and  C_8 
REMARK       I    between atoms: C_8  and  N_10 
REMARK    2  A    between atoms: C_12  and  N_14 
ROOT
ATOM      1  C   UNK d   1     -38.368 -68.880  51.283  0.00  0.00     0.255 C 
ATOM      2  O   UNK d   1     -38.305 -70.152  51.465  0.00  0.00    -0.267 OA
ATOM      3  N   UNK d   1     -39.481 -68.205  51.817  0.00  0.00    -0.344 N 
ATOM      4  C   UNK d   1     -40.025 -66.885  51.885  0.00  0.00     0.153 C 
ATOM      5  C   UNK d   1     -41.413 -67.539  52.015  0.00  0.00     0.132 C 
ATOM      6  C   UNK d   1     -40.635 -68.640  52.631  0.00  0.00     0.153 C 
ENDROOT
BRANCH   5   7
ATOM      7  N   UNK d   1     -42.283 -66.780  52.871  0.00  0.00    -0.280 N 
ATOM      8  C   UNK d   1     -42.626 -67.032  54.246  0.00  0.00     0.232 C 
ATOM      9  O   UNK d   1     -41.921 -67.668  55.049  0.00  0.00    -0.272 OA
ATOM     10  C   UNK d   1     -43.962 -66.375  54.454  0.00  0.00     0.095 C 
ATOM     11  C   UNK d   1     -43.767 -65.116  53.642  0.00  0.00     0.095 C 
ATOM     12  C   UNK d   1     -44.994 -67.301  53.908  0.00  0.00     0.041 C 
ATOM     13  C   UNK d   1     -45.085 -64.507  53.254  0.00  0.00     0.041 C 
ATOM     14  C   UNK d   1     -42.983 -65.601  52.489  0.00  0.00     0.232 C 
ATOM     15  C   UNK d   1     -45.874 -65.487  52.461  0.00  0.00    -0.030 C 
ATOM     16  C   UNK d   1     -45.797 -66.757  52.804  0.00  0.00    -0.030 C 
ATOM     17  O   UNK d   1     -42.973 -65.027  51.373  0.00  0.00    -0.272 OA
ENDBRANCH   5   7
BRANCH   1  18
ATOM     18  C   UNK d   1     -37.268 -68.310  50.542  0.00  0.00     0.051 A 
ATOM     19  C   UNK d   1     -35.950 -68.701  50.815  0.00  0.00     0.133 A 
ATOM     20  N   UNK d   1     -34.895 -68.193  50.168  0.00  0.00    -0.271 NA
ATOM     21  C   UNK d   1     -35.052 -67.259  49.196  0.00  0.00     0.135 A 
ATOM     22  C   UNK d   1     -36.311 -66.818  48.864  0.00  0.00     0.029 A 
ATOM     23 Br   UNK d   1     -36.506 -65.505  47.500  0.00  0.00    -0.050 Br
ATOM     24  C   UNK d   1     -37.385 -67.361  49.552  0.00  0.00     0.039 A 
ENDBRANCH   1  18
TORSDOF 2
ENDMDL
