MODEL 1
REMARK VINA RESULT:    -7.618      0.000      0.000
REMARK INTER + INTRA:          -9.461
REMARK INTER:                  -8.955
REMARK INTRA:                  -0.507
REMARK UNBOUND:                -0.507
REMARK  3 active torsions:
REMARK  status: ('A' for Active; 'I' for Inactive)
REMARK    1  A    between atoms: C_6  and  C_8 
REMARK       I    between atoms: C_8  and  N_10 
REMARK    2  A    between atoms: C_12  and  O_14 
REMARK    3  A    between atoms: O_14  and  C_15 
ROOT
ATOM      1  C   UNK d   1     -38.586 -65.857  48.068  0.00  0.00     0.255 C 
ATOM      2  O   UNK d   1     -39.023 -65.185  47.083  0.00  0.00    -0.267 OA
ATOM      3  N   UNK d   1     -39.455 -66.126  49.134  0.00  0.00    -0.343 N 
ATOM      4  C   UNK d   1     -39.487 -66.804  50.402  0.00  0.00     0.160 C 
ATOM      5  C   UNK d   1     -40.990 -66.614  50.538  0.00  0.00     0.166 C 
ATOM      6  C   UNK d   1     -40.856 -65.715  49.347  0.00  0.00     0.160 C 
ENDROOT
BRANCH   5   7
ATOM      7  O   UNK d   1     -41.447 -66.019  51.712  0.00  0.00    -0.325 OA
BRANCH   7   8
ATOM      8  C   UNK d   1     -42.272 -66.602  52.652  0.00  0.00     0.186 A 
ATOM      9  C   UNK d   1     -43.575 -66.332  52.646  0.00  0.00     0.087 A 
ATOM     10  C   UNK d   1     -44.497 -66.916  53.611  0.00  0.00     0.044 A 
ATOM     11  C   UNK d   1     -45.786 -66.627  53.575  0.00  0.00     0.043 C 
ATOM     12  N   UNK d   1     -43.957 -67.801  54.583  0.00  0.00    -0.189 N 
ATOM     13  C   UNK d   1     -42.547 -68.073  54.566  0.00  0.00     0.731 A 
ATOM     14  H   UNK d   1     -44.602 -68.221  55.273  0.00  0.00     0.184 HD
ATOM     15  N   UNK d   1     -41.751 -67.502  53.651  0.00  0.00    -0.038 N 
ATOM     16  N   UNK d   1     -41.779 -68.842  55.344  0.00  0.00    -0.054 NA
ATOM     17  N   UNK d   1     -40.495 -67.915  53.856  0.00  0.00    -0.143 NA
ATOM     18  C   UNK d   1     -40.521 -68.743  54.906  0.00  0.00     0.275 A 
ENDBRANCH   7   8
ENDBRANCH   5   7
BRANCH   1  19
ATOM     19  C   UNK d   1     -37.216 -66.303  48.029  0.00  0.00     0.051 A 
ATOM     20  C   UNK d   1     -36.752 -67.473  47.483  0.00  0.00     0.133 A 
ATOM     21  N   UNK d   1     -35.432 -67.819  47.480  0.00  0.00    -0.271 NA
ATOM     22  C   UNK d   1     -34.485 -67.037  48.011  0.00  0.00     0.135 A 
ATOM     23  C   UNK d   1     -34.889 -65.849  48.574  0.00  0.00     0.029 A 
ATOM     24 Br   UNK d   1     -33.556 -64.701  49.348  0.00  0.00    -0.050 Br
ATOM     25  C   UNK d   1     -36.213 -65.488  48.586  0.00  0.00     0.039 A 
ENDBRANCH   1  19
TORSDOF 3
ENDMDL
