/Users/jonathanwahrer/Desktop/Msc/3_Semester/Drug_Design_Praktikum/waehrer_HTS_screening/HTS_experiment/out/docking_results/vina_output/3e7o/0681_docked.pdbqt
 OpenBabel03192215493D

 25 28  0  0  1  0  0  0  0  0999 V2000
  -38.5860  -65.8570   48.0680 C   0  0  0  0  0  0  0  0  0  0  0  0
  -39.0230  -65.1850   47.0830 O   0  0  0  0  0  0  0  0  0  0  0  0
  -39.4550  -66.1260   49.1340 N   0  0  0  0  0  0  0  0  0  0  0  0
  -39.4870  -66.8040   50.4020 C   0  0  0  0  0  2  0  0  0  0  0  0
  -40.9900  -66.6140   50.5380 C   0  0  2  0  0  3  0  0  0  0  0  0
  -40.8560  -65.7150   49.3470 C   0  0  0  0  0  2  0  0  0  0  0  0
  -41.4470  -66.0190   51.7120 O   0  0  0  0  0  0  0  0  0  0  0  0
  -42.2720  -66.6020   52.6520 C   0  0  2  0  0  3  0  0  0  0  0  0
  -43.5750  -66.3320   52.6460 C   0  0  0  0  0  3  0  0  0  0  0  0
  -44.4970  -66.9160   53.6110 C   0  0  0  0  0  0  0  0  0  0  0  0
  -45.7860  -66.6270   53.5750 C   0  0  0  0  0  1  0  0  0  0  0  0
  -43.9570  -67.8010   54.5830 N   0  0  0  0  0  0  0  0  0  0  0  0
  -42.5470  -68.0730   54.5660 C   0  0  0  0  0  0  0  0  0  0  0  0
  -44.6020  -68.2210   55.2730 H   0  0  0  0  0  0  0  0  0  0  0  0
  -41.7510  -67.5020   53.6510 N   0  0  0  0  0  0  0  0  0  0  0  0
  -41.7790  -68.8420   55.3440 N   0  0  0  0  0  0  0  0  0  0  0  0
  -40.4950  -67.9150   53.8560 N   0  0  0  0  0  0  0  0  0  0  0  0
  -40.5210  -68.7430   54.9060 C   0  0  0  0  0  3  0  0  0  0  0  0
  -37.2160  -66.3030   48.0290 C   0  0  0  0  0  0  0  0  0  0  0  0
  -36.7520  -67.4730   47.4830 C   0  0  0  0  0  3  0  0  0  0  0  0
  -35.4320  -67.8190   47.4800 N   0  0  0  0  0  0  0  0  0  0  0  0
  -34.4850  -67.0370   48.0110 C   0  0  0  0  0  3  0  0  0  0  0  0
  -34.8890  -65.8490   48.5740 C   0  0  0  0  0  0  0  0  0  0  0  0
  -33.5560  -64.7010   49.3480 Br  0  0  0  0  0  0  0  0  0  0  0  0
  -36.2130  -65.4880   48.5860 C   0  0  0  0  0  3  0  0  0  0  0  0
  1  3  1  0  0  0  0
  2  1  2  0  0  0  0
  3  6  1  0  0  0  0
  3  4  1  0  0  0  0
  4  5  1  0  0  0  0
  5  7  1  1  0  0  0
  6  5  1  0  0  0  0
  8  7  1  1  0  0  0
  8 15  1  0  0  0  0
  9  8  1  0  0  0  0
  9 10  2  0  0  0  0
 10 12  1  0  0  0  0
 11 10  1  0  0  0  0
 12 14  1  0  0  0  0
 13 12  1  0  0  0  0
 13 16  2  0  0  0  0
 15 17  1  0  0  0  0
 15 13  1  0  0  0  0
 17 18  2  0  0  0  0
 18 16  1  0  0  0  0
 19  1  1  0  0  0  0
 19 25  1  0  0  0  0
 20 19  2  0  0  0  0
 21 20  1  0  0  0  0
 21 22  2  0  0  0  0
 22 23  1  0  0  0  0
 23 25  2  0  0  0  0
 23 24  1  0  0  0  0
M  END
>  <Pose>
1

>  <Score>
-7.618

$$$$
