/Users/jonathanwahrer/Desktop/Msc/3_Semester/Drug_Design_Praktikum/waehrer_HTS_screening/HTS_experiment/out/docking_results/vina_output/3e7o/0683_docked.pdbqt
 OpenBabel03192215493D

 10 10  0  0  0  0  0  0  0  0999 V2000
  -38.0590  -69.6710   51.3050 Br  0  0  0  0  0  0  0  0  0  0  0  0
  -39.5100  -68.5900   51.8480 C   0  0  0  0  0  0  0  0  0  0  0  0
  -39.9020  -67.5190   51.0610 C   0  0  0  0  0  3  0  0  0  0  0  0
  -40.9380  -66.7820   51.4890 N   0  0  0  0  0  0  0  0  0  0  0  0
  -41.6100  -67.0210   52.6250 C   0  0  0  0  0  3  0  0  0  0  0  0
  -41.2140  -68.0840   53.3990 C   0  0  0  0  0  0  0  0  0  0  0  0
  -40.1540  -68.8940   53.0280 C   0  0  0  0  0  3  0  0  0  0  0  0
  -41.9180  -68.3760   54.6380 C   0  0  0  0  0  0  0  0  0  0  0  0
  -41.3200  -68.9370   55.5990 O   0  0  0  0  0  1  0  0  0  0  0  0
  -43.2530  -68.0530   54.8020 O   0  0  0  0  0  0  0  0  0  0  0  0
  1  2  1  0  0  0  0
  2  7  1  0  0  0  0
  3  4  1  0  0  0  0
  3  2  2  0  0  0  0
  4  5  2  0  0  0  0
  5  6  1  0  0  0  0
  6  8  1  0  0  0  0
  7  6  2  0  0  0  0
  8 10  2  0  0  0  0
  8  9  1  0  0  0  0
M  END
>  <Pose>
1

>  <Score>
-4.977

$$$$
