MODEL 1
REMARK VINA RESULT:    -4.977      0.000      0.000
REMARK INTER + INTRA:          -5.303
REMARK INTER:                  -5.268
REMARK INTRA:                  -0.035
REMARK UNBOUND:                -0.035
REMARK  2 active torsions:
REMARK  status: ('A' for Active; 'I' for Inactive)
REMARK    1  A    between atoms: C_6  and  C_8 
REMARK    2  A    between atoms: C_21  and  N_22 
ROOT
ATOM      1 Br   UNK d   1     -38.059 -69.671  51.305  0.00  0.00    -0.050 Br
ATOM      2  C   UNK d   1     -39.510 -68.590  51.848  0.00  0.00     0.029 A 
ATOM      3  C   UNK d   1     -39.902 -67.519  51.061  0.00  0.00     0.135 A 
ATOM      4  N   UNK d   1     -40.938 -66.782  51.489  0.00  0.00    -0.271 NA
ATOM      5  C   UNK d   1     -41.610 -67.021  52.625  0.00  0.00     0.134 A 
ATOM      6  C   UNK d   1     -41.214 -68.084  53.399  0.00  0.00     0.059 A 
ATOM      7  C   UNK d   1     -40.154 -68.894  53.028  0.00  0.00     0.040 A 
ENDROOT
BRANCH   6   8
ATOM      8  C   UNK d   1     -41.918 -68.376  54.638  0.00  0.00     0.210 C 
ATOM      9  O   UNK d   1     -41.320 -68.937  55.599  0.00  0.00    -0.644 OA
ATOM     10  O   UNK d   1     -43.253 -68.053  54.802  0.00  0.00    -0.644 OA
ENDBRANCH   6   8
TORSDOF 2
ENDMDL
