MODEL 1
REMARK VINA RESULT:    -4.933      0.000      0.000
REMARK INTER + INTRA:          -5.258
REMARK INTER:                  -5.222
REMARK INTRA:                  -0.036
REMARK UNBOUND:                -0.036
REMARK  2 active torsions:
REMARK  status: ('A' for Active; 'I' for Inactive)
REMARK    1  A    between atoms: C_6  and  C_8 
REMARK    2  A    between atoms: C_20  and  N_21 
ROOT
ATOM      1 Br   UNK d   1     -38.001 -69.405  51.342  0.00  0.00    -0.050 Br
ATOM      2  C   UNK d   1     -39.534 -68.405  51.870  0.00  0.00     0.029 A 
ATOM      3  C   UNK d   1     -40.015 -67.352  51.122  0.00  0.00     0.135 A 
ATOM      4  N   UNK d   1     -41.096 -66.642  51.489  0.00  0.00    -0.271 NA
ATOM      5  C   UNK d   1     -41.729 -66.972  52.625  0.00  0.00     0.134 A 
ATOM      6  C   UNK d   1     -41.312 -68.010  53.427  0.00  0.00     0.059 A 
ATOM      7  C   UNK d   1     -40.208 -68.717  53.030  0.00  0.00     0.040 A 
ENDROOT
BRANCH   6   8
ATOM      8  C   UNK d   1     -42.011 -68.356  54.659  0.00  0.00     0.210 C 
ATOM      9  O   UNK d   1     -41.427 -69.045  55.530  0.00  0.00    -0.644 OA
ATOM     10  O   UNK d   1     -43.312 -67.905  54.826  0.00  0.00    -0.644 OA
ENDBRANCH   6   8
TORSDOF 2
ENDMDL
