/Users/jonathanwahrer/Desktop/Msc/3_Semester/Drug_Design_Praktikum/waehrer_HTS_screening/HTS_experiment/out/docking_results/vina_output/3e7o/0684_docked.pdbqt
 OpenBabel03192215493D

 10 10  0  0  0  0  0  0  0  0999 V2000
  -38.0010  -69.4050   51.3420 Br  0  0  0  0  0  0  0  0  0  0  0  0
  -39.5340  -68.4050   51.8700 C   0  0  0  0  0  0  0  0  0  0  0  0
  -40.0150  -67.3520   51.1220 C   0  0  0  0  0  3  0  0  0  0  0  0
  -41.0960  -66.6420   51.4890 N   0  0  0  0  0  0  0  0  0  0  0  0
  -41.7290  -66.9720   52.6250 C   0  0  0  0  0  3  0  0  0  0  0  0
  -41.3120  -68.0100   53.4270 C   0  0  0  0  0  0  0  0  0  0  0  0
  -40.2080  -68.7170   53.0300 C   0  0  0  0  0  3  0  0  0  0  0  0
  -42.0110  -68.3560   54.6590 C   0  0  0  0  0  0  0  0  0  0  0  0
  -41.4270  -69.0450   55.5300 O   0  0  0  0  0  1  0  0  0  0  0  0
  -43.3120  -67.9050   54.8260 O   0  0  0  0  0  0  0  0  0  0  0  0
  1  2  1  0  0  0  0
  2  7  1  0  0  0  0
  3  4  1  0  0  0  0
  3  2  2  0  0  0  0
  4  5  2  0  0  0  0
  5  6  1  0  0  0  0
  6  8  1  0  0  0  0
  7  6  2  0  0  0  0
  8 10  2  0  0  0  0
  8  9  1  0  0  0  0
M  END
>  <Pose>
1

>  <Score>
-4.933

$$$$
