/Users/jonathanwahrer/Desktop/Msc/3_Semester/Drug_Design_Praktikum/waehrer_HTS_screening/HTS_experiment/out/docking_results/vina_output/3e7o/0693_docked.pdbqt
 OpenBabel03192215503D

 33 36  0  0  0  0  0  0  0  0999 V2000
  -40.5690  -64.8600   48.7800 N   0  0  0  0  0  0  0  0  0  0  0  0
  -39.8870  -63.6250   48.8460 C   0  0  0  0  0  0  0  0  0  0  0  0
  -40.1400  -62.8090   49.7560 O   0  0  0  0  0  0  0  0  0  0  0  0
  -40.4100  -65.5860   48.0490 H   0  0  0  0  0  0  0  0  0  0  0  0
  -38.8420  -63.2330   47.8470 C   0  0  0  0  0  2  0  0  0  0  0  0
  -37.9020  -64.2930   47.6090 N   0  0  0  0  0  0  0  0  0  0  0  0
  -36.7040  -64.4440   48.3590 C   0  0  0  0  0  0  0  0  0  0  0  0
  -36.4620  -63.6170   49.2650 O   0  0  0  0  0  0  0  0  0  0  0  0
  -38.0660  -65.0080   46.8620 H   0  0  0  0  0  0  0  0  0  0  0  0
  -35.7150  -65.5380   48.1220 C   0  0  0  0  0  0  0  0  0  0  0  0
  -36.2310  -66.7910   48.4630 O   0  0  0  0  0  0  0  0  0  0  0  0
  -35.8170  -67.5530   49.5530 C   0  0  0  0  0  0  0  0  0  0  0  0
  -34.6020  -67.2410   50.1030 C   0  0  0  0  0  0  0  0  0  0  0  0
  -36.5590  -68.5700   50.0740 C   0  0  0  0  0  3  0  0  0  0  0  0
  -34.1610  -67.9880   51.1960 C   0  0  0  0  0  3  0  0  0  0  0  0
  -33.8610  -66.2190   49.5770 O   0  0  0  0  0  0  0  0  0  0  0  0
  -34.8990  -69.0180   51.7320 C   0  0  0  0  0  3  0  0  0  0  0  0
  -36.1190  -69.3040   51.1510 C   0  0  0  0  0  3  0  0  0  0  0  0
  -34.3830  -65.2450   48.7170 C   0  0  0  0  0  3  0  0  0  0  0  0
  -41.5300  -65.1320   49.7580 N   0  0  0  0  0  0  0  0  0  0  0  0
  -41.3120  -65.9160   50.7460 C   0  0  0  0  0  0  0  0  0  0  0  0
  -42.1820  -66.3110   51.8430 C   0  0  0  0  0  0  0  0  0  0  0  0
  -40.0440  -66.6190   50.9740 C   0  0  0  0  0  0  0  0  0  0  0  0
  -41.5380  -67.1870   52.7000 C   0  0  0  0  0  0  0  0  0  0  0  0
  -43.4810  -65.9820   52.1640 C   0  0  0  0  0  3  0  0  0  0  0  0
  -42.1550  -67.7090   53.8180 C   0  0  0  0  0  0  0  0  0  0  0  0
  -40.2340  -67.3670   52.1580 N   0  0  0  0  0  0  0  0  0  0  0  0
  -41.2500  -68.9220   54.9910 Br  0  0  0  0  0  0  0  0  0  0  0  0
  -43.4710  -67.3580   54.1180 C   0  0  0  0  0  3  0  0  0  0  0  0
  -44.1300  -66.4820   53.2710 C   0  0  0  0  0  0  0  0  0  0  0  0
  -45.9340  -65.9850   53.6580 Br  0  0  0  0  0  0  0  0  0  0  0  0
  -39.5120  -67.9740   52.5840 H   0  0  0  0  0  0  0  0  0  0  0  0
  -39.0410  -66.5210   50.2180 O   0  0  0  0  0  0  0  0  0  0  0  0
  1  2  1  0  0  0  0
  1 20  1  0  0  0  0
  2  3  2  0  0  0  0
  4  1  1  0  0  0  0
  5  2  1  0  0  0  0
  6  5  1  0  0  0  0
  6  7  1  0  0  0  0
  7  8  2  0  0  0  0
  9  6  1  0  0  0  0
 10  7  1  0  0  0  0
 10 11  1  0  0  0  0
 10 19  2  0  0  0  0
 11 12  1  0  0  0  0
 12 14  2  0  0  0  0
 12 13  1  0  0  0  0
 13 15  2  0  0  0  0
 14 18  1  0  0  0  0
 15 17  1  0  0  0  0
 16 13  1  0  0  0  0
 18 17  2  0  0  0  0
 19 16  1  0  0  0  0
 20 21  2  0  0  0  0
 21 23  1  0  0  0  0
 21 22  1  0  0  0  0
 22 25  2  0  0  0  0
 22 24  1  0  0  0  0
 23 27  1  0  0  0  0
 24 26  2  0  0  0  0
 25 30  1  0  0  0  0
 26 29  1  0  0  0  0
 26 28  1  0  0  0  0
 27 32  1  0  0  0  0
 27 24  1  0  0  0  0
 30 31  1  0  0  0  0
 30 29  2  0  0  0  0
 33 23  2  0  0  0  0
M  END
>  <Pose>
1

>  <Score>
-8.927

$$$$
