MODEL 1
REMARK VINA RESULT:    -7.410      0.000      0.000
REMARK INTER + INTRA:          -9.252
REMARK INTER:                  -8.709
REMARK INTRA:                  -0.543
REMARK UNBOUND:                -0.543
REMARK  3 active torsions:
REMARK  status: ('A' for Active; 'I' for Inactive)
REMARK    1  A    between atoms: C_6  and  C_8 
REMARK    2  A    between atoms: C_8  and  N_9 
REMARK    3  A    between atoms: N_9  and  C_10 
ROOT
ATOM      1  C   UNK d   1     -37.788 -69.571  50.942  0.00  0.00     0.160 C 
ENDROOT
BRANCH   1   2
ATOM      2  C   UNK d   1     -38.923 -68.823  51.540  0.00  0.00    -0.036 A 
ATOM      3  C   UNK d   1     -39.685 -67.911  50.847  0.00  0.00     0.048 A 
ATOM      4  C   UNK d   1     -40.746 -67.220  51.435  0.00  0.00     0.106 A 
ATOM      5  C   UNK d   1     -41.073 -67.434  52.751  0.00  0.00     0.122 A 
ATOM      6  O   UNK d   1     -41.648 -66.267  50.957  0.00  0.00    -0.323 OA
ATOM      7  C   UNK d   1     -40.315 -68.346  53.455  0.00  0.00     0.047 A 
ATOM      8  O   UNK d   1     -42.163 -66.611  53.058  0.00  0.00    -0.322 OA
ATOM      9 Br   UNK d   1     -40.772 -68.644  55.297  0.00  0.00    -0.048 Br
ATOM     10  C   UNK d   1     -39.265 -69.033  52.880  0.00  0.00     0.031 A 
ATOM     11  C   UNK d   1     -42.803 -66.313  51.809  0.00  0.00     0.352 C 
ENDBRANCH   1   2
BRANCH   1  12
ATOM     12  N   UNK d   1     -37.238 -68.811  49.847  0.00  0.00    -0.367 N 
ATOM     13  H   UNK d   1     -37.610 -68.888  48.885  0.00  0.00     0.161 HD
BRANCH  12  14
ATOM     14  C   UNK d   1     -36.137 -67.923  50.115  0.00  0.00     0.172 A 
ATOM     15  N   UNK d   1     -35.009 -68.371  50.684  0.00  0.00    -0.239 NA
ATOM     16  C   UNK d   1     -33.986 -67.534  50.931  0.00  0.00     0.136 A 
ATOM     17  C   UNK d   1     -34.062 -66.183  50.607  0.00  0.00     0.119 A 
ATOM     18  N   UNK d   1     -35.187 -65.745  50.042  0.00  0.00    -0.294 N 
ATOM     19  C   UNK d   1     -36.222 -66.587  49.791  0.00  0.00     0.203 A 
ATOM     20  C   UNK d   1     -35.591 -64.536  49.611  0.00  0.00     0.240 A 
ATOM     21  N   UNK d   1     -37.205 -65.868  49.224  0.00  0.00    -0.126 NA
ATOM     22  N   UNK d   1     -36.827 -64.606  49.109  0.00  0.00    -0.143 NA
ENDBRANCH  12  14
ENDBRANCH   1  12
TORSDOF 3
ENDMDL
