/Users/jonathanwahrer/Desktop/Msc/3_Semester/Drug_Design_Praktikum/waehrer_HTS_screening/HTS_experiment/out/docking_results/vina_output/3e7o/0706_docked.pdbqt
 OpenBabel03192215513D

 30 33  0  0  0  0  0  0  0  0999 V2000
  -40.8710  -66.8030   52.4310 C   0  0  0  0  0  3  0  0  0  0  0  0
  -42.2000  -66.8260   52.9430 N   0  0  0  0  0  0  0  0  0  0  0  0
  -42.6040  -67.6840   53.8990 C   0  0  0  0  0  0  0  0  0  0  0  0
  -41.5360  -69.0240   54.7840 Br  0  0  0  0  0  0  0  0  0  0  0  0
  -43.9040  -67.4270   54.1230 N   0  0  0  0  0  0  0  0  0  0  0  0
  -44.3230  -66.4320   53.3290 C   0  0  0  0  0  0  0  0  0  0  0  0
  -43.2310  -66.0490   52.5750 C   0  0  0  0  0  0  0  0  0  0  0  0
  -45.4960  -65.7950   53.1420 N   0  0  0  0  0  0  0  0  0  0  0  0
  -43.4330  -65.0270   51.6720 C   0  0  0  0  0  0  0  0  0  0  0  0
  -44.6080  -64.3980   51.4930 N   0  0  0  0  0  0  0  0  0  0  0  0
  -42.4610  -64.6660   50.9780 O   0  0  0  0  0  0  0  0  0  0  0  0
  -45.6500  -64.7960   52.2440 C   0  0  0  0  0  0  0  0  0  0  0  0
  -44.7980  -63.3240   50.5360 C   0  0  0  0  0  1  0  0  0  0  0  0
  -46.7710  -64.2230   52.0990 O   0  0  0  0  0  0  0  0  0  0  0  0
  -46.6350  -66.2030   53.9380 C   0  0  0  0  0  1  0  0  0  0  0  0
  -40.5880  -67.6340   51.2330 C   0  0  0  0  0  3  0  0  0  0  0  0
  -39.2340  -67.7220   50.7990 N   0  0  0  0  0  0  0  0  0  0  0  0
  -38.6750  -66.9830   49.8090 C   0  0  0  0  0  0  0  0  0  0  0  0
  -37.3580  -67.3430   49.6610 C   0  0  0  0  0  0  0  0  0  0  0  0
  -39.1450  -65.9880   48.9610 C   0  0  0  0  0  0  0  0  0  0  0  0
  -37.1510  -68.3020   50.5780 N   0  0  0  0  0  0  0  0  0  0  0  0
  -36.5300  -66.7760   48.7440 N   0  0  0  0  0  0  0  0  0  0  0  0
  -38.2790  -68.5330   51.2640 C   0  0  0  0  0  0  0  0  0  0  0  0
  -38.5440  -69.8060   52.6870 Br  0  0  0  0  0  0  0  0  0  0  0  0
  -37.0590  -65.8190   47.9600 C   0  0  0  0  0  0  0  0  0  0  0  0
  -35.1360  -67.1820   48.6160 C   0  0  0  0  0  1  0  0  0  0  0  0
  -36.3010  -65.2850   47.1050 O   0  0  0  0  0  0  0  0  0  0  0  0
  -38.3410  -65.4270   48.0600 N   0  0  0  0  0  0  0  0  0  0  0  0
  -38.8620  -64.3920   47.1910 C   0  0  0  0  0  1  0  0  0  0  0  0
  -40.3550  -65.6670   49.1060 O   0  0  0  0  0  0  0  0  0  0  0  0
  1  2  1  0  0  0  0
  2  3  1  0  0  0  0
  3  5  2  0  0  0  0
  3  4  1  0  0  0  0
  6  5  1  0  0  0  0
  7  2  1  0  0  0  0
  7  6  2  0  0  0  0
  8  6  1  0  0  0  0
  8 15  1  0  0  0  0
  9  7  1  0  0  0  0
 10  9  1  0  0  0  0
 10 12  1  0  0  0  0
 11  9  2  0  0  0  0
 12  8  1  0  0  0  0
 13 10  1  0  0  0  0
 14 12  2  0  0  0  0
 16  1  2  0  0  0  0
 17 16  1  0  0  0  0
 17 23  1  0  0  0  0
 18 17  1  0  0  0  0
 19 18  2  0  0  0  0
 19 21  1  0  0  0  0
 20 30  2  0  0  0  0
 20 18  1  0  0  0  0
 21 23  2  0  0  0  0
 22 19  1  0  0  0  0
 23 24  1  0  0  0  0
 25 28  1  0  0  0  0
 25 22  1  0  0  0  0
 26 22  1  0  0  0  0
 27 25  2  0  0  0  0
 28 20  1  0  0  0  0
 29 28  1  0  0  0  0
M  END
>  <Pose>
1

>  <Score>
-8.268

$$$$
