MODEL 1
REMARK VINA RESULT:    -8.268      0.000      0.000
REMARK INTER + INTRA:         -10.335
REMARK INTER:                  -9.718
REMARK INTRA:                  -0.617
REMARK UNBOUND:                -0.617
REMARK  3 active torsions:
REMARK  status: ('A' for Active; 'I' for Inactive)
REMARK    1  A    between atoms: N_3  and  C_15 
REMARK    2  A    between atoms: C_15  and  C_16 
REMARK    3  A    between atoms: C_16  and  N_17 
ROOT
ATOM      1  C   UNK d   1     -40.871 -66.803  52.431  0.00  0.00     0.152 C 
ENDROOT
BRANCH   1   2
ATOM      2  N   UNK d   1     -42.200 -66.826  52.943  0.00  0.00    -0.316 N 
ATOM      3  C   UNK d   1     -42.604 -67.684  53.899  0.00  0.00     0.180 A 
ATOM      4 Br   UNK d   1     -41.536 -69.024  54.784  0.00  0.00    -0.008 Br
ATOM      5  N   UNK d   1     -43.904 -67.427  54.123  0.00  0.00    -0.203 NA
ATOM      6  C   UNK d   1     -44.323 -66.432  53.329  0.00  0.00     0.169 A 
ATOM      7  C   UNK d   1     -43.231 -66.049  52.575  0.00  0.00     0.152 A 
ATOM      8  N   UNK d   1     -45.496 -65.795  53.142  0.00  0.00    -0.286 N 
ATOM      9  C   UNK d   1     -43.433 -65.027  51.672  0.00  0.00     0.282 A 
ATOM     10  N   UNK d   1     -44.608 -64.398  51.493  0.00  0.00    -0.269 N 
ATOM     11  O   UNK d   1     -42.461 -64.666  50.978  0.00  0.00    -0.265 OA
ATOM     12  C   UNK d   1     -45.650 -64.796  52.244  0.00  0.00     0.332 A 
ATOM     13  C   UNK d   1     -44.798 -63.324  50.536  0.00  0.00     0.164 C 
ATOM     14  O   UNK d   1     -46.771 -64.223  52.099  0.00  0.00    -0.246 OA
ATOM     15  C   UNK d   1     -46.635 -66.203  53.938  0.00  0.00     0.163 C 
ENDBRANCH   1   2
BRANCH   1  16
ATOM     16  C   UNK d   1     -40.588 -67.634  51.233  0.00  0.00     0.152 C 
BRANCH  16  17
ATOM     17  N   UNK d   1     -39.234 -67.722  50.799  0.00  0.00    -0.316 N 
ATOM     18  C   UNK d   1     -38.675 -66.983  49.809  0.00  0.00     0.152 A 
ATOM     19  C   UNK d   1     -37.358 -67.343  49.661  0.00  0.00     0.169 A 
ATOM     20  C   UNK d   1     -39.145 -65.988  48.961  0.00  0.00     0.282 A 
ATOM     21  N   UNK d   1     -37.151 -68.302  50.578  0.00  0.00    -0.203 NA
ATOM     22  N   UNK d   1     -36.530 -66.776  48.744  0.00  0.00    -0.286 N 
ATOM     23  C   UNK d   1     -38.279 -68.533  51.264  0.00  0.00     0.180 A 
ATOM     24 Br   UNK d   1     -38.544 -69.806  52.687  0.00  0.00    -0.008 Br
ATOM     25  C   UNK d   1     -37.059 -65.819  47.960  0.00  0.00     0.332 A 
ATOM     26  C   UNK d   1     -35.136 -67.182  48.616  0.00  0.00     0.163 C 
ATOM     27  O   UNK d   1     -36.301 -65.285  47.105  0.00  0.00    -0.246 OA
ATOM     28  N   UNK d   1     -38.341 -65.427  48.060  0.00  0.00    -0.269 N 
ATOM     29  C   UNK d   1     -38.862 -64.392  47.191  0.00  0.00     0.164 C 
ATOM     30  O   UNK d   1     -40.355 -65.667  49.106  0.00  0.00    -0.265 OA
ENDBRANCH  16  17
ENDBRANCH   1  16
TORSDOF 3
ENDMDL
