/Users/jonathanwahrer/Desktop/Msc/3_Semester/Drug_Design_Praktikum/waehrer_HTS_screening/HTS_experiment/out/docking_results/vina_output/3e7o/0708_docked.pdbqt
 OpenBabel03142214183D

 31 34  0  0  0  0  0  0  0  0999 V2000
  -38.1340  -68.3270   51.2980 C   0  0  0  0  0  2  0  0  0  0  0  0
  -37.3050  -68.5390   50.0650 C   0  0  0  0  0  2  0  0  0  0  0  0
  -36.1560  -67.6630   49.9740 N   0  0  0  0  0  0  0  0  0  0  0  0
  -34.9700  -67.8590   50.6280 C   0  0  0  0  0  0  0  0  0  0  0  0
  -34.6500  -69.3570   51.7590 Br  0  0  0  0  0  0  0  0  0  0  0  0
  -34.1150  -66.8640   50.3480 N   0  0  0  0  0  0  0  0  0  0  0  0
  -34.7170  -65.9950   49.5070 C   0  0  0  0  0  0  0  0  0  0  0  0
  -35.9830  -66.5140   49.2910 C   0  0  0  0  0  0  0  0  0  0  0  0
  -34.2640  -64.8530   48.9610 N   0  0  0  0  0  0  0  0  0  0  0  0
  -36.8180  -65.8150   48.4740 C   0  0  0  0  0  0  0  0  0  0  0  0
  -36.3560  -64.6590   47.9220 N   0  0  0  0  0  0  0  0  0  0  0  0
  -37.9720  -66.2340   48.2460 O   0  0  0  0  0  0  0  0  0  0  0  0
  -35.1170  -64.1920   48.1580 C   0  0  0  0  0  0  0  0  0  0  0  0
  -37.0290  -64.1580   47.3030 H   0  0  0  0  0  0  0  0  0  0  0  0
  -34.7330  -63.1020   47.6140 O   0  0  0  0  0  0  0  0  0  0  0  0
  -32.9380  -64.3200   49.1910 C   0  0  0  0  0  1  0  0  0  0  0  0
  -39.4460  -69.0590   51.3050 C   0  0  0  0  0  2  0  0  0  0  0  0
  -40.3320  -68.4850   52.3070 N   0  0  0  0  0  0  0  0  0  0  0  0
  -41.2620  -67.5150   52.1500 C   0  0  0  0  0  0  0  0  0  0  0  0
  -41.8900  -67.2580   53.3470 C   0  0  0  0  0  0  0  0  0  0  0  0
  -41.6540  -66.7920   51.0550 C   0  0  0  0  0  0  0  0  0  0  0  0
  -41.3230  -68.0920   54.2390 N   0  0  0  0  0  0  0  0  0  0  0  0
  -42.8620  -66.3390   53.4970 N   0  0  0  0  0  0  0  0  0  0  0  0
  -40.3850  -68.8270   53.6050 C   0  0  0  0  0  0  0  0  0  0  0  0
  -39.2690  -70.1700   54.3780 Br  0  0  0  0  0  0  0  0  0  0  0  0
  -43.2170  -65.6470   52.3870 C   0  0  0  0  0  0  0  0  0  0  0  0
  -43.5010  -66.1010   54.7900 C   0  0  0  0  0  1  0  0  0  0  0  0
  -44.1350  -64.7810   52.5250 O   0  0  0  0  0  0  0  0  0  0  0  0
  -42.6270  -65.8680   51.1940 N   0  0  0  0  0  0  0  0  0  0  0  0
  -42.9410  -65.3080   50.3770 H   0  0  0  0  0  0  0  0  0  0  0  0
  -41.0850  -67.0210   49.9600 O   0  0  0  0  0  0  0  0  0  0  0  0
  1 17  1  0  0  0  0
  2  1  1  0  0  0  0
  3  2  1  0  0  0  0
  3  4  1  0  0  0  0
  4  5  1  0  0  0  0
  6  4  2  0  0  0  0
  7  6  1  0  0  0  0
  8  7  2  0  0  0  0
  8  3  1  0  0  0  0
  9 16  1  0  0  0  0
  9  7  1  0  0  0  0
 10  8  1  0  0  0  0
 11 13  1  0  0  0  0
 11 10  1  0  0  0  0
 12 10  2  0  0  0  0
 13  9  1  0  0  0  0
 14 11  1  0  0  0  0
 15 13  2  0  0  0  0
 17 18  1  0  0  0  0
 18 24  1  0  0  0  0
 19 18  1  0  0  0  0
 19 20  2  0  0  0  0
 20 23  1  0  0  0  0
 20 22  1  0  0  0  0
 21 29  1  0  0  0  0
 21 19  1  0  0  0  0
 23 27  1  0  0  0  0
 24 22  2  0  0  0  0
 24 25  1  0  0  0  0
 26 28  2  0  0  0  0
 26 23  1  0  0  0  0
 29 26  1  0  0  0  0
 30 29  1  0  0  0  0
 31 21  2  0  0  0  0
M  END
>  <Pose>
1

>  <Score>
-8.027

$$$$
