MODEL 1
REMARK VINA RESULT:    -7.998      0.000      0.000
REMARK INTER + INTRA:         -10.663
REMARK INTER:                  -9.868
REMARK INTRA:                  -0.795
REMARK UNBOUND:                -0.795
REMARK  4 active torsions:
REMARK  status: ('A' for Active; 'I' for Inactive)
REMARK    1  A    between atoms: N_3  and  C_14 
REMARK    2  A    between atoms: C_14  and  C_15 
REMARK    3  A    between atoms: C_15  and  C_16 
REMARK    4  A    between atoms: C_16  and  N_17 
ROOT
ATOM      1  C   UNK d   1     -38.000 -68.468  51.315  0.00  0.00     0.041 C 
ENDROOT
BRANCH   1   2
ATOM      2  C   UNK d   1     -39.373 -69.075  51.294  0.00  0.00     0.133 C 
BRANCH   2   3
ATOM      3  N   UNK d   1     -40.290 -68.485  52.247  0.00  0.00    -0.318 N 
ATOM      4  C   UNK d   1     -40.372 -68.830  53.569  0.00  0.00     0.180 A 
ATOM      5 Br   UNK d   1     -39.252 -70.148  54.364  0.00  0.00    -0.008 Br
ATOM      6  N   UNK d   1     -41.330 -68.114  54.177  0.00  0.00    -0.203 NA
ATOM      7  C   UNK d   1     -41.897 -67.287  53.273  0.00  0.00     0.169 A 
ATOM      8  C   UNK d   1     -41.234 -67.537  52.082  0.00  0.00     0.152 A 
ATOM      9  N   UNK d   1     -42.892 -66.394  53.410  0.00  0.00    -0.286 N 
ATOM     10  C   UNK d   1     -41.623 -66.832  50.985  0.00  0.00     0.280 A 
ATOM     11  N   UNK d   1     -42.632 -65.928  51.127  0.00  0.00    -0.273 N 
ATOM     12  O   UNK d   1     -41.062 -67.019  49.885  0.00  0.00    -0.265 OA
ATOM     13  C   UNK d   1     -43.248 -65.716  52.304  0.00  0.00     0.330 A 
ATOM     14  H   UNK d   1     -42.895 -65.411  50.262  0.00  0.00     0.173 HD
ATOM     15  O   UNK d   1     -44.188 -64.855  52.383  0.00  0.00    -0.246 OA
ATOM     16  C   UNK d   1     -43.578 -66.137  54.658  0.00  0.00     0.163 C 
ENDBRANCH   2   3
ENDBRANCH   1   2
BRANCH   1  17
ATOM     17  C   UNK d   1     -37.190 -68.709  50.074  0.00  0.00     0.133 C 
BRANCH  17  18
ATOM     18  N   UNK d   1     -36.090 -67.758  50.004  0.00  0.00    -0.318 N 
ATOM     19  C   UNK d   1     -36.032 -66.589  49.326  0.00  0.00     0.152 A 
ATOM     20  C   UNK d   1     -34.812 -65.984  49.522  0.00  0.00     0.169 A 
ATOM     21  C   UNK d   1     -36.941 -65.951  48.524  0.00  0.00     0.280 A 
ATOM     22  N   UNK d   1     -34.126 -66.809  50.334  0.00  0.00    -0.203 NA
ATOM     23  N   UNK d   1     -34.467 -64.806  48.970  0.00  0.00    -0.286 N 
ATOM     24  C   UNK d   1     -34.902 -67.876  50.620  0.00  0.00     0.180 A 
ATOM     25 Br   UNK d   1     -34.441 -69.361  51.728  0.00  0.00    -0.008 Br
ATOM     26  C   UNK d   1     -35.397 -64.211  48.183  0.00  0.00     0.330 A 
ATOM     27  C   UNK d   1     -33.158 -64.201  49.205  0.00  0.00     0.163 C 
ATOM     28  O   UNK d   1     -35.075 -63.099  47.662  0.00  0.00    -0.246 OA
ATOM     29  N   UNK d   1     -36.606 -64.770  47.965  0.00  0.00    -0.273 N 
ATOM     30  H   UNK d   1     -37.279 -64.267  47.354  0.00  0.00     0.173 HD
ATOM     31  O   UNK d   1     -38.056 -66.497  48.341  0.00  0.00    -0.265 OA
ENDBRANCH  17  18
ENDBRANCH   1  17
TORSDOF 4
ENDMDL
