MODEL 1
REMARK VINA RESULT:    -8.027      0.000      0.000
REMARK INTER + INTRA:         -10.662
REMARK INTER:                  -9.904
REMARK INTRA:                  -0.759
REMARK UNBOUND:                -0.759
REMARK  4 active torsions:
REMARK  status: ('A' for Active; 'I' for Inactive)
REMARK    1  A    between atoms: N_3  and  C_14 
REMARK    2  A    between atoms: C_14  and  C_15 
REMARK    3  A    between atoms: C_15  and  C_16 
REMARK    4  A    between atoms: C_16  and  N_17 
ROOT
ATOM      1  C   UNK d   1     -38.134 -68.327  51.298  0.00  0.00     0.041 C 
ENDROOT
BRANCH   1   2
ATOM      2  C   UNK d   1     -37.305 -68.539  50.065  0.00  0.00     0.133 C 
BRANCH   2   3
ATOM      3  N   UNK d   1     -36.156 -67.663  49.974  0.00  0.00    -0.318 N 
ATOM      4  C   UNK d   1     -34.970 -67.859  50.628  0.00  0.00     0.180 A 
ATOM      5 Br   UNK d   1     -34.650 -69.357  51.759  0.00  0.00    -0.008 Br
ATOM      6  N   UNK d   1     -34.115 -66.864  50.348  0.00  0.00    -0.203 NA
ATOM      7  C   UNK d   1     -34.717 -65.995  49.507  0.00  0.00     0.169 A 
ATOM      8  C   UNK d   1     -35.983 -66.514  49.291  0.00  0.00     0.152 A 
ATOM      9  N   UNK d   1     -34.264 -64.853  48.961  0.00  0.00    -0.286 N 
ATOM     10  C   UNK d   1     -36.818 -65.815  48.474  0.00  0.00     0.280 A 
ATOM     11  N   UNK d   1     -36.356 -64.659  47.922  0.00  0.00    -0.273 N 
ATOM     12  O   UNK d   1     -37.972 -66.234  48.246  0.00  0.00    -0.265 OA
ATOM     13  C   UNK d   1     -35.117 -64.192  48.158  0.00  0.00     0.330 A 
ATOM     14  H   UNK d   1     -37.029 -64.158  47.303  0.00  0.00     0.173 HD
ATOM     15  O   UNK d   1     -34.733 -63.102  47.614  0.00  0.00    -0.246 OA
ATOM     16  C   UNK d   1     -32.938 -64.320  49.191  0.00  0.00     0.163 C 
ENDBRANCH   2   3
ENDBRANCH   1   2
BRANCH   1  17
ATOM     17  C   UNK d   1     -39.446 -69.059  51.305  0.00  0.00     0.133 C 
BRANCH  17  18
ATOM     18  N   UNK d   1     -40.332 -68.485  52.307  0.00  0.00    -0.318 N 
ATOM     19  C   UNK d   1     -41.262 -67.515  52.150  0.00  0.00     0.152 A 
ATOM     20  C   UNK d   1     -41.890 -67.258  53.347  0.00  0.00     0.169 A 
ATOM     21  C   UNK d   1     -41.654 -66.792  51.055  0.00  0.00     0.280 A 
ATOM     22  N   UNK d   1     -41.323 -68.092  54.239  0.00  0.00    -0.203 NA
ATOM     23  N   UNK d   1     -42.862 -66.339  53.497  0.00  0.00    -0.286 N 
ATOM     24  C   UNK d   1     -40.385 -68.827  53.605  0.00  0.00     0.180 A 
ATOM     25 Br   UNK d   1     -39.269 -70.170  54.378  0.00  0.00    -0.008 Br
ATOM     26  C   UNK d   1     -43.217 -65.647  52.387  0.00  0.00     0.330 A 
ATOM     27  C   UNK d   1     -43.501 -66.101  54.790  0.00  0.00     0.163 C 
ATOM     28  O   UNK d   1     -44.135 -64.781  52.525  0.00  0.00    -0.246 OA
ATOM     29  N   UNK d   1     -42.627 -65.868  51.194  0.00  0.00    -0.273 N 
ATOM     30  H   UNK d   1     -42.941 -65.308  50.377  0.00  0.00     0.173 HD
ATOM     31  O   UNK d   1     -41.085 -67.021  49.960  0.00  0.00    -0.265 OA
ENDBRANCH  17  18
ENDBRANCH   1  17
TORSDOF 4
ENDMDL
