MODEL 1
REMARK VINA RESULT:    -7.883      0.000      0.000
REMARK INTER + INTRA:          -9.834
REMARK INTER:                  -9.266
REMARK INTRA:                  -0.568
REMARK UNBOUND:                -0.568
REMARK  3 active torsions:
REMARK  status: ('A' for Active; 'I' for Inactive)
REMARK    1  A    between atoms: N_3  and  C_14 
REMARK    2  A    between atoms: C_14  and  C_15 
REMARK    3  A    between atoms: C_15  and  N_16 
ROOT
ATOM      1  C   UNK d   1     -40.847 -66.784  52.431  0.00  0.00     0.152 C 
ENDROOT
BRANCH   1   2
ATOM      2  N   UNK d   1     -42.171 -66.819  52.952  0.00  0.00    -0.316 N 
ATOM      3  C   UNK d   1     -42.616 -67.682  53.896  0.00  0.00     0.180 A 
ATOM      4 Br   UNK d   1     -41.501 -69.005  54.703  0.00  0.00    -0.008 Br
ATOM      5  N   UNK d   1     -43.913 -67.442  54.140  0.00  0.00    -0.203 NA
ATOM      6  C   UNK d   1     -44.346 -66.421  53.365  0.00  0.00     0.169 A 
ATOM      7  C   UNK d   1     -43.230 -66.044  52.624  0.00  0.00     0.152 A 
ATOM      8  N   UNK d   1     -45.528 -65.798  53.209  0.00  0.00    -0.286 N 
ATOM      9  C   UNK d   1     -43.419 -65.011  51.737  0.00  0.00     0.280 A 
ATOM     10  N   UNK d   1     -44.614 -64.384  51.583  0.00  0.00    -0.273 N 
ATOM     11  O   UNK d   1     -42.414 -64.659  51.053  0.00  0.00    -0.265 OA
ATOM     12  C   UNK d   1     -45.658 -64.791  52.327  0.00  0.00     0.330 A 
ATOM     13  H   UNK d   1     -44.693 -63.606  50.894  0.00  0.00     0.173 HD
ATOM     14  O   UNK d   1     -46.772 -64.195  52.174  0.00  0.00    -0.246 OA
ATOM     15  C   UNK d   1     -46.690 -66.184  53.975  0.00  0.00     0.163 C 
ENDBRANCH   1   2
BRANCH   1  16
ATOM     16  C   UNK d   1     -40.568 -67.625  51.236  0.00  0.00     0.152 C 
BRANCH  16  17
ATOM     17  N   UNK d   1     -39.235 -67.684  50.749  0.00  0.00    -0.316 N 
ATOM     18  C   UNK d   1     -38.691 -66.965  49.753  0.00  0.00     0.152 A 
ATOM     19  C   UNK d   1     -37.373 -67.340  49.596  0.00  0.00     0.169 A 
ATOM     20  C   UNK d   1     -39.155 -65.974  48.902  0.00  0.00     0.280 A 
ATOM     21  N   UNK d   1     -37.172 -68.292  50.530  0.00  0.00    -0.203 NA
ATOM     22  N   UNK d   1     -36.616 -66.759  48.666  0.00  0.00    -0.286 N 
ATOM     23  C   UNK d   1     -38.272 -68.520  51.238  0.00  0.00     0.180 A 
ATOM     24 Br   UNK d   1     -38.500 -69.776  52.681  0.00  0.00    -0.008 Br
ATOM     25  C   UNK d   1     -37.123 -65.809  47.875  0.00  0.00     0.330 A 
ATOM     26  C   UNK d   1     -35.235 -67.142  48.489  0.00  0.00     0.163 C 
ATOM     27  O   UNK d   1     -36.424 -65.236  46.975  0.00  0.00    -0.246 OA
ATOM     28  N   UNK d   1     -38.397 -65.389  47.966  0.00  0.00    -0.273 N 
ATOM     29  H   UNK d   1     -38.764 -64.638  47.327  0.00  0.00     0.173 HD
ATOM     30  O   UNK d   1     -40.341 -65.587  48.996  0.00  0.00    -0.265 OA
ENDBRANCH  16  17
ENDBRANCH   1  16
TORSDOF 3
ENDMDL
