MODEL 1
REMARK VINA RESULT:    -7.778      0.000      0.000
REMARK INTER + INTRA:         -10.691
REMARK INTER:                  -9.597
REMARK INTRA:                  -1.094
REMARK UNBOUND:                -1.094
REMARK  4 active torsions:
REMARK  status: ('A' for Active; 'I' for Inactive)
REMARK    1  A    between atoms: N_4  and  C_7 
REMARK    2  A    between atoms: C_9  and  C_17 
REMARK       I    between atoms: C_17  and  N_19 
REMARK    3  A    between atoms: N_19  and  C_20 
REMARK    4  A    between atoms: C_21  and  C_26 
REMARK       I    between atoms: C_26  and  N_28 
ROOT
ATOM      1  C   UNK d   1     -36.941 -66.759  49.480  0.00  0.00     0.059 C 
ATOM      2  C   UNK d   1     -38.163 -67.189  50.259  0.00  0.00     0.052 C 
ATOM      3  C   UNK d   1     -39.346 -66.376  49.820  0.00  0.00     0.044 C 
ATOM      4  C   UNK d   1     -39.616 -66.769  48.361  0.00  0.00     0.024 C 
ATOM      5  C   UNK d   1     -38.386 -66.467  47.544  0.00  0.00    -0.011 C 
ATOM      6  C   UNK d   1     -37.158 -67.183  48.044  0.00  0.00     0.038 C 
ATOM      7  C   UNK d   1     -38.160 -64.989  47.550  0.00  0.00     0.009 C 
ATOM      8  C   UNK d   1     -37.924 -64.544  48.977  0.00  0.00    -0.011 C 
ATOM      9  C   UNK d   1     -36.734 -65.276  49.501  0.00  0.00     0.038 C 
ATOM     10  C   UNK d   1     -39.119 -64.901  49.833  0.00  0.00     0.024 C 
ENDROOT
BRANCH   3  11
ATOM     11  C   UNK d   1     -40.546 -66.686  50.626  0.00  0.00     0.231 C 
ATOM     12  O   UNK d   1     -41.563 -67.121  50.027  0.00  0.00    -0.272 OA
ATOM     13  N   UNK d   1     -40.551 -66.498  52.038  0.00  0.00    -0.323 N 
ATOM     14  H   UNK d   1     -39.674 -66.135  52.456  0.00  0.00     0.169 HD
BRANCH  13  15
ATOM     15  C   UNK d   1     -41.653 -66.767  52.891  0.00  0.00     0.088 A 
ATOM     16  C   UNK d   1     -42.781 -65.998  52.963  0.00  0.00     0.148 A 
ATOM     17  N   UNK d   1     -43.596 -66.571  53.881  0.00  0.00    -0.267 N 
ATOM     18  N   UNK d   1     -43.006 -67.645  54.360  0.00  0.00    -0.182 NA
ATOM     19  C   UNK d   1     -44.910 -66.120  54.305  0.00  0.00     0.180 C 
ATOM     20  C   UNK d   1     -41.811 -67.807  53.783  0.00  0.00     0.171 A 
BRANCH  16  21
ATOM     21  C   UNK d   1     -43.158 -64.791  52.257  0.00  0.00     0.270 C 
ATOM     22  O   UNK d   1     -43.071 -63.662  52.802  0.00  0.00    -0.266 OA
ATOM     23  N   UNK d   1     -43.646 -64.785  50.922  0.00  0.00    -0.365 N 
ATOM     24  H   UNK d   1     -42.969 -64.521  50.150  0.00  0.00     0.159 HD
ATOM     25  H   UNK d   1     -44.618 -65.019  50.641  0.00  0.00     0.159 HD
ENDBRANCH  16  21
ENDBRANCH  13  15
ENDBRANCH   3  11
BRANCH   1  26
ATOM     26  N   UNK d   1     -35.756 -67.397  50.052  0.00  0.00    -0.251 N 
ATOM     27  N   UNK d   1     -35.706 -68.512  50.769  0.00  0.00    -0.142 NA
ATOM     28  C   UNK d   1     -34.439 -68.794  51.124  0.00  0.00     0.217 A 
ATOM     29 Br   UNK d   1     -33.816 -70.283  52.159  0.00  0.00    -0.005 Br
ATOM     30  N   UNK d   1     -33.663 -67.814  50.609  0.00  0.00    -0.215 NA
ATOM     31  C   UNK d   1     -34.482 -66.973  49.959  0.00  0.00     0.232 A 
ENDBRANCH   1  26
TORSDOF 4
ENDMDL
