MODEL 1
REMARK VINA RESULT:    -5.617      0.000      0.000
REMARK INTER + INTRA:          -6.641
REMARK INTER:                  -6.274
REMARK INTRA:                  -0.367
REMARK UNBOUND:                -0.367
REMARK  2 active torsions:
REMARK  status: ('A' for Active; 'I' for Inactive)
REMARK    1  A    between atoms: C_9  and  N_11 
REMARK    2  A    between atoms: C_12  and  C_17 
ROOT
ATOM      1  N   UNK d   1     -35.418 -64.870  48.724  0.00  0.00    -0.348 N 
ATOM      2  C   UNK d   1     -35.194 -64.862  47.312  0.00  0.00     0.189 C 
ATOM      3  C   UNK d   1     -34.569 -63.613  46.823  0.00  0.00     0.201 C 
ATOM      4  O   UNK d   1     -34.472 -62.571  47.706  0.00  0.00    -0.387 OA
ATOM      5  C   UNK d   1     -35.569 -62.475  48.555  0.00  0.00     0.187 C 
ATOM      6  C   UNK d   1     -35.707 -63.668  49.444  0.00  0.00     0.151 C 
ENDROOT
BRANCH   1   7
ATOM      7  C   UNK d   1     -35.386 -66.083  49.492  0.00  0.00     0.145 A 
ATOM      8  N   UNK d   1     -34.202 -66.470  50.059  0.00  0.00    -0.223 NA
ATOM      9  C   UNK d   1     -34.127 -67.568  50.833  0.00  0.00     0.237 A 
ATOM     10  N   UNK d   1     -35.219 -68.316  51.071  0.00  0.00    -0.222 NA
ATOM     11  C   UNK d   1     -36.409 -68.000  50.550  0.00  0.00     0.164 A 
ATOM     12  N   UNK d   1     -37.611 -68.598  50.637  0.00  0.00    -0.255 N 
ATOM     13  C   UNK d   1     -36.484 -66.857  49.744  0.00  0.00     0.095 A 
ATOM     14  N   UNK d   1     -38.434 -67.873  49.914  0.00  0.00    -0.163 NA
ATOM     15  C   UNK d   1     -37.952 -69.801  51.373  0.00  0.00     0.182 C 
ATOM     16  C   UNK d   1     -37.802 -66.816  49.357  0.00  0.00     0.141 A 
ATOM     17 Br   UNK d   1     -38.552 -65.503  48.201  0.00  0.00    -0.026 Br
ENDBRANCH   1   7
BRANCH   2  18
ATOM     18  C   UNK d   1     -34.501 -66.089  46.861  0.00  0.00     0.198 A 
ATOM     19  N   UNK d   1     -33.182 -66.242  46.730  0.00  0.00    -0.207 NA
ATOM     20  C   UNK d   1     -32.984 -67.518  46.292  0.00  0.00     0.152 A 
ATOM     21  N   UNK d   1     -34.203 -68.075  46.178  0.00  0.00    -0.112 NA
ATOM     22  C   UNK d   1     -31.690 -68.174  45.995  0.00  0.00     0.096 C 
ATOM     23  O   UNK d   1     -35.097 -67.196  46.526  0.00  0.00    -0.194 OA
ENDBRANCH   2  18
TORSDOF 2
ENDMDL
