MODEL 1
REMARK VINA RESULT:    -6.774      0.000      0.000
REMARK INTER + INTRA:          -7.447
REMARK INTER:                  -7.170
REMARK INTRA:                  -0.277
REMARK UNBOUND:                -0.277
REMARK  1 active torsions:
REMARK  status: ('A' for Active; 'I' for Inactive)
REMARK    1  A    between atoms: C_9  and  N_11 
ROOT
ATOM      1 Br   UNK d   1     -39.967 -66.220  48.735  0.00  0.00    -0.026 Br
ATOM      2  C   UNK d   1     -39.698 -67.398  50.206  0.00  0.00     0.141 A 
ATOM      3  N   UNK d   1     -40.663 -67.841  51.065  0.00  0.00    -0.163 NA
ATOM      4  N   UNK d   1     -40.110 -68.653  51.934  0.00  0.00    -0.255 N 
ATOM      5  C   UNK d   1     -38.796 -68.768  51.683  0.00  0.00     0.164 A 
ATOM      6  N   UNK d   1     -37.798 -69.464  52.251  0.00  0.00    -0.222 NA
ATOM      7  C   UNK d   1     -36.552 -69.411  51.789  0.00  0.00     0.237 A 
ATOM      8  N   UNK d   1     -36.271 -68.650  50.735  0.00  0.00    -0.223 NA
ATOM      9  C   UNK d   1     -37.216 -67.898  50.079  0.00  0.00     0.144 A 
ATOM     10  C   UNK d   1     -38.496 -67.967  50.569  0.00  0.00     0.095 A 
ATOM     11  C   UNK d   1     -40.758 -69.368  53.044  0.00  0.00     0.182 C 
ENDROOT
BRANCH   9  12
ATOM     12  N   UNK d   1     -36.864 -67.084  49.002  0.00  0.00    -0.359 N 
ATOM     13  C   UNK d   1     -36.631 -65.667  49.176  0.00  0.00     0.131 C 
ATOM     14  C   UNK d   1     -35.111 -65.435  49.038  0.00  0.00     0.079 C 
ATOM     15  C   UNK d   1     -34.575 -66.327  47.988  0.00  0.00     0.040 A 
ATOM     16  N   UNK d   1     -33.319 -66.326  47.484  0.00  0.00    -0.347 N 
ATOM     17  C   UNK d   1     -35.249 -67.314  47.332  0.00  0.00     0.076 A 
ATOM     18  C   UNK d   1     -33.251 -67.291  46.552  0.00  0.00     0.209 A 
ATOM     19  C   UNK d   1     -32.216 -65.473  47.843  0.00  0.00     0.157 C 
ATOM     20  N   UNK d   1     -34.425 -67.910  46.442  0.00  0.00    -0.245 NA
ATOM     21  C   UNK d   1     -36.671 -67.573  47.661  0.00  0.00     0.185 C 
ENDBRANCH   9  12
TORSDOF 1
ENDMDL
