MODEL 1
REMARK VINA RESULT:    -7.857      0.000      0.000
REMARK INTER + INTRA:          -9.454
REMARK INTER:                  -9.235
REMARK INTRA:                  -0.219
REMARK UNBOUND:                -0.219
REMARK  3 active torsions:
REMARK  status: ('A' for Active; 'I' for Inactive)
REMARK    1  A    between atoms: C_9  and  N_11 
REMARK    2  A    between atoms: N_14  and  C_17 
REMARK    3  A    between atoms: C_17  and  C_19 
REMARK       I    between atoms: C_19  and  N_21 
ROOT
ATOM      1  N   UNK d   1     -38.627 -65.932  49.176  0.00  0.00    -0.362 N 
ATOM      2  C   UNK d   1     -38.944 -64.709  49.857  0.00  0.00     0.154 C 
ATOM      3  C   UNK d   1     -39.978 -65.099  50.915  0.00  0.00     0.293 C 
ATOM      4  N   UNK d   1     -40.618 -66.375  50.575  0.00  0.00     0.103 N 
ATOM      5  C   UNK d   1     -40.937 -66.395  49.145  0.00  0.00     0.293 C 
ATOM      6  C   UNK d   1     -39.661 -66.474  48.328  0.00  0.00     0.154 C 
ENDROOT
BRANCH   1   7
ATOM      7  C   UNK d   1     -37.397 -66.575  49.352  0.00  0.00     0.144 A 
ATOM      8  N   UNK d   1     -37.264 -67.620  50.204  0.00  0.00    -0.223 NA
ATOM      9  C   UNK d   1     -36.105 -68.230  50.417  0.00  0.00     0.237 A 
ATOM     10  N   UNK d   1     -35.016 -67.803  49.772  0.00  0.00    -0.222 NA
ATOM     11  C   UNK d   1     -35.047 -66.774  48.907  0.00  0.00     0.164 A 
ATOM     12  N   UNK d   1     -34.106 -66.182  48.147  0.00  0.00    -0.255 N 
ATOM     13  C   UNK d   1     -36.262 -66.134  48.682  0.00  0.00     0.095 A 
ATOM     14  N   UNK d   1     -34.690 -65.224  47.478  0.00  0.00    -0.163 NA
ATOM     15  C   UNK d   1     -32.713 -66.606  48.140  0.00  0.00     0.182 C 
ATOM     16  C   UNK d   1     -36.003 -65.146  47.760  0.00  0.00     0.141 A 
ATOM     17 Br   UNK d   1     -37.294 -63.955  47.047  0.00  0.00    -0.026 Br
ENDBRANCH   1   7
BRANCH   4  18
ATOM     18  C   UNK d   1     -41.866 -66.420  51.321  0.00  0.00     0.296 C 
ATOM     19  C   UNK d   1     -42.455 -64.983  51.295  0.00  0.00     0.052 C 
BRANCH  18  20
ATOM     20  C   UNK d   1     -41.635 -66.804  52.725  0.00  0.00     0.186 C 
ATOM     21  O   UNK d   1     -42.461 -66.241  53.557  0.00  0.00    -0.175 OA
ATOM     22  N   UNK d   1     -40.662 -67.669  53.251  0.00  0.00    -0.361 N 
ATOM     23  C   UNK d   1     -39.627 -68.376  52.559  0.00  0.00     0.124 C 
ATOM     24  C   UNK d   1     -40.683 -67.885  54.716  0.00  0.00     0.124 C 
ATOM     25  C   UNK d   1     -39.479 -69.826  52.971  0.00  0.00     0.020 C 
ATOM     26  C   UNK d   1     -39.741 -70.088  54.414  0.00  0.00     0.003 C 
ATOM     27  C   UNK d   1     -40.962 -69.351  54.922  0.00  0.00     0.020 C 
ENDBRANCH  18  20
ENDBRANCH   4  18
TORSDOF 3
ENDMDL
