MODEL 1
REMARK VINA RESULT:    -7.144      0.000      0.000
REMARK INTER + INTRA:          -7.724
REMARK INTER:                  -7.562
REMARK INTRA:                  -0.163
REMARK UNBOUND:                -0.163
REMARK  1 active torsions:
REMARK  status: ('A' for Active; 'I' for Inactive)
REMARK    1  A    between atoms: N_8  and  C_11 
ROOT
ATOM      1  C   UNK d   1     -42.175 -66.611  52.757  0.00  0.00     0.148 A 
ATOM      2  C   UNK d   1     -43.456 -66.342  52.642  0.00  0.00     0.080 A 
ATOM      3  C   UNK d   1     -44.456 -66.940  53.541  0.00  0.00     0.043 A 
ATOM      4  C   UNK d   1     -45.747 -66.678  53.437  0.00  0.00     0.043 C 
ATOM      5  N   UNK d   1     -43.936 -67.817  54.528  0.00  0.00    -0.189 N 
ATOM      6  C   UNK d   1     -42.534 -68.098  54.638  0.00  0.00     0.730 A 
ATOM      7  N   UNK d   1     -41.697 -67.491  53.755  0.00  0.00    -0.044 N 
ATOM      8  N   UNK d   1     -40.469 -67.917  54.071  0.00  0.00    -0.143 NA
ATOM      9  C   UNK d   1     -40.504 -68.762  55.111  0.00  0.00     0.275 A 
ATOM     10  N   UNK d   1     -41.798 -68.868  55.457  0.00  0.00    -0.054 NA
ATOM     11  H   UNK d   1     -44.594 -68.273  55.196  0.00  0.00     0.184 HD
ENDROOT
BRANCH   1  12
ATOM     12  N   UNK d   1     -41.261 -66.010  51.869  0.00  0.00    -0.357 N 
ATOM     13  C   UNK d   1     -40.526 -66.869  50.974  0.00  0.00     0.203 C 
ATOM     14  C   UNK d   1     -40.101 -66.110  49.760  0.00  0.00     0.124 A 
ATOM     15  N   UNK d   1     -39.851 -64.804  49.828  0.00  0.00    -0.325 N 
ATOM     16  N   UNK d   1     -39.890 -66.490  48.472  0.00  0.00    -0.243 NA
ATOM     17  C   UNK d   1     -39.489 -64.355  48.621  0.00  0.00     0.101 A 
ATOM     18  C   UNK d   1     -39.979 -64.070  51.071  0.00  0.00     0.151 C 
ATOM     19 Br   UNK d   1     -39.013 -62.568  48.113  0.00  0.00    -0.029 Br
ATOM     20  C   UNK d   1     -39.511 -65.423  47.748  0.00  0.00     0.156 A 
ATOM     21  C   UNK d   1     -41.115 -64.574  51.912  0.00  0.00     0.145 C 
ENDBRANCH   1  12
TORSDOF 1
ENDMDL
