MODEL 1
REMARK VINA RESULT:    -7.728      0.000      0.000
REMARK INTER + INTRA:          -9.853
REMARK INTER:                  -9.083
REMARK INTRA:                  -0.770
REMARK UNBOUND:                -0.770
REMARK  3 active torsions:
REMARK  status: ('A' for Active; 'I' for Inactive)
REMARK    1  A    between atoms: C_4  and  C_7 
REMARK       I    between atoms: C_7  and  N_9 
REMARK    2  A    between atoms: N_12  and  C_15 
REMARK    3  A    between atoms: C_17  and  N_22 
ROOT
ATOM      1  C   UNK d   1     -36.192 -64.333  49.066  0.00  0.00     0.277 C 
ATOM      2  O   UNK d   1     -36.058 -63.161  49.446  0.00  0.00    -0.265 OA
ATOM      3  N   UNK d   1     -37.430 -64.764  48.529  0.00  0.00    -0.343 N 
ATOM      4  C   UNK d   1     -38.533 -63.831  48.424  0.00  0.00     0.146 C 
ATOM      5  C   UNK d   1     -39.734 -64.275  49.223  0.00  0.00     0.144 C 
ATOM      6  N   UNK d   1     -39.690 -65.747  49.254  0.00  0.00    -0.362 N 
ATOM      7  C   UNK d   1     -39.205 -66.384  48.078  0.00  0.00     0.144 C 
ATOM      8  C   UNK d   1     -37.690 -66.111  48.059  0.00  0.00     0.146 C 
ENDROOT
BRANCH   6   9
ATOM      9  C   UNK d   1     -40.134 -66.373  50.444  0.00  0.00     0.146 A 
ATOM     10  N   UNK d   1     -41.102 -65.817  51.224  0.00  0.00    -0.045 NA
ATOM     11  C   UNK d   1     -41.530 -66.399  52.355  0.00  0.00     0.726 A 
ATOM     12  N   UNK d   1     -40.998 -67.575  52.755  0.00  0.00    -0.068 NA
ATOM     13  C   UNK d   1     -40.039 -68.198  52.049  0.00  0.00     0.053 A 
ATOM     14  C   UNK d   1     -39.615 -67.561  50.873  0.00  0.00     0.078 A 
ATOM     15  C   UNK d   1     -39.440 -69.493  52.470  0.00  0.00     0.071 C 
BRANCH  11  16
ATOM     16  N   UNK d   1     -42.541 -65.780  53.132  0.00  0.00    -0.210 N 
ATOM     17  C   UNK d   1     -43.018 -64.441  52.887  0.00  0.00     0.167 C 
ATOM     18  C   UNK d   1     -44.513 -64.442  52.763  0.00  0.00     0.188 C 
ATOM     19  O   UNK d   1     -45.091 -65.654  53.138  0.00  0.00    -0.388 OA
ATOM     20  C   UNK d   1     -44.579 -66.086  54.358  0.00  0.00     0.188 C 
ATOM     21  C   UNK d   1     -43.137 -66.513  54.228  0.00  0.00     0.167 C 
ENDBRANCH  11  16
ENDBRANCH   6   9
BRANCH   1  22
ATOM     22  C   UNK d   1     -35.044 -65.251  49.187  0.00  0.00     0.144 A 
ATOM     23  O   UNK d   1     -34.053 -65.414  48.363  0.00  0.00    -0.298 OA
ATOM     24  C   UNK d   1     -33.223 -66.302  48.778  0.00  0.00     0.122 A 
ATOM     25 Br   UNK d   1     -31.597 -66.908  47.924  0.00  0.00    -0.023 Br
ATOM     26  C   UNK d   1     -33.676 -66.787  49.980  0.00  0.00     0.048 A 
ATOM     27  C   UNK d   1     -34.842 -66.114  50.239  0.00  0.00     0.046 A 
ENDBRANCH   1  22
TORSDOF 3
ENDMDL
