MODEL 1
REMARK VINA RESULT:    -8.378      0.000      0.000
REMARK INTER + INTRA:         -11.475
REMARK INTER:                 -11.317
REMARK INTRA:                  -0.159
REMARK UNBOUND:                -0.159
REMARK  7 active torsions:
REMARK  status: ('A' for Active; 'I' for Inactive)
REMARK    1  A    between atoms: N_4  and  C_10 
REMARK    2  A    between atoms: C_11  and  O_33 
REMARK       I    between atoms: N_18  and  C_21 
REMARK    3  A    between atoms: C_21  and  C_23 
REMARK    4  A    between atoms: C_25  and  O_29 
REMARK    5  A    between atoms: O_29  and  C_30 
REMARK    6  A    between atoms: C_30  and  C_31 
REMARK    7  A    between atoms: C_31  and  N_32 
ROOT
ATOM      1  C   UNK d   1     -34.082 -65.252  49.315  0.00  0.00     0.152 C 
ATOM      2  C   UNK d   1     -33.985 -66.648  48.686  0.00  0.00     0.080 C 
ATOM      3  C   UNK d   1     -35.357 -67.138  48.372  0.00  0.00     0.077 C 
ATOM      4  C   UNK d   1     -36.129 -67.273  49.665  0.00  0.00     0.067 C 
ATOM      5  O   UNK d   1     -35.574 -66.539  50.696  0.00  0.00    -0.378 OA
ATOM      6  C   UNK d   1     -35.183 -65.261  50.322  0.00  0.00     0.197 C 
ATOM      7  C   UNK d   1     -37.549 -66.944  49.381  0.00  0.00     0.058 C 
ATOM      8  C   UNK d   1     -38.354 -67.114  50.679  0.00  0.00     0.128 C 
ATOM      9  N   UNK d   1     -38.361 -68.502  51.005  0.00  0.00    -0.359 N 
ATOM     10  C   UNK d   1     -37.442 -69.343  50.167  0.00  0.00     0.128 C 
ATOM     11  C   UNK d   1     -36.083 -68.731  50.073  0.00  0.00     0.058 C 
ATOM     12  C   UNK d   1     -39.111 -69.110  51.992  0.00  0.00     0.187 C 
ATOM     13  O   UNK d   1     -38.962 -70.414  52.089  0.00  0.00    -0.171 OA
ATOM     14  C   UNK d   1     -33.051 -66.653  47.519  0.00  0.00     0.048 C 
ENDROOT
BRANCH   2  15
ATOM     15  O   UNK d   1     -33.447 -67.483  49.668  0.00  0.00    -0.388 OA
ATOM     16  H   UNK d   1     -34.141 -67.963  50.188  0.00  0.00     0.210 HD
ENDBRANCH   2  15
BRANCH   1  17
ATOM     17  N   UNK d   1     -34.143 -64.214  48.336  0.00  0.00    -0.298 N 
ATOM     18  C   UNK d   1     -35.141 -64.071  47.445  0.00  0.00     0.121 A 
ATOM     19  C   UNK d   1     -35.171 -63.063  46.515  0.00  0.00     0.094 A 
ATOM     20 Br   UNK d   1     -36.646 -62.982  45.315  0.00  0.00    -0.044 Br
ATOM     21  C   UNK d   1     -34.148 -62.147  46.473  0.00  0.00     0.268 A 
ATOM     22  N   UNK d   1     -33.152 -62.291  47.364  0.00  0.00    -0.274 N 
ATOM     23  O   UNK d   1     -34.184 -61.229  45.619  0.00  0.00    -0.267 OA
ATOM     24  C   UNK d   1     -33.153 -63.276  48.248  0.00  0.00     0.329 A 
ATOM     25  H   UNK d   1     -32.383 -61.589  47.320  0.00  0.00     0.173 HD
ATOM     26  O   UNK d   1     -32.179 -63.343  49.053  0.00  0.00    -0.246 OA
ENDBRANCH   1  17
BRANCH  12  27
ATOM     27  C   UNK d   1     -40.025 -68.567  52.933  0.00  0.00     0.020 A 
ATOM     28  C   UNK d   1     -40.994 -67.634  52.521  0.00  0.00     0.052 A 
ATOM     29  C   UNK d   1     -41.931 -67.059  53.319  0.00  0.00     0.069 A 
ATOM     30  C   UNK d   1     -41.921 -67.441  54.676  0.00  0.00     0.037 A 
ATOM     31  C   UNK d   1     -40.999 -68.337  55.097  0.00  0.00     0.004 A 
ATOM     32  C   UNK d   1     -40.041 -68.913  54.246  0.00  0.00     0.016 A 
BRANCH  29  33
ATOM     33  O   UNK d   1     -42.852 -66.154  52.881  0.00  0.00    -0.349 OA
BRANCH  33  34
ATOM     34  C   UNK d   1     -43.460 -65.099  53.493  0.00  0.00     0.205 C 
BRANCH  34  35
ATOM     35  C   UNK d   1     -44.947 -65.202  53.492  0.00  0.00     0.293 C 
BRANCH  35  36
ATOM     36  N   UNK d   1     -45.360 -66.326  54.335  0.00  0.00     0.080 N 
ATOM     37  H   UNK d   1     -45.967 -66.027  55.112  0.00  0.00     0.312 HD
ATOM     38  H   UNK d   1     -44.579 -66.935  54.598  0.00  0.00     0.312 HD
ENDBRANCH  35  36
ENDBRANCH  34  35
ENDBRANCH  33  34
ENDBRANCH  29  33
ENDBRANCH  12  27
TORSDOF 7
ENDMDL
