MODEL 1
REMARK VINA RESULT:    -6.731      0.000      0.000
REMARK INTER + INTRA:         -10.136
REMARK INTER:                  -8.896
REMARK INTRA:                  -1.240
REMARK UNBOUND:                -1.240
REMARK  7 active torsions:
REMARK  status: ('A' for Active; 'I' for Inactive)
REMARK    1  A    between atoms: N_4  and  C_10 
REMARK    2  A    between atoms: C_11  and  O_33 
REMARK       I    between atoms: N_18  and  C_21 
REMARK    3  A    between atoms: C_21  and  C_23 
REMARK    4  A    between atoms: C_23  and  N_24 
REMARK    5  A    between atoms: C_23  and  C_25 
REMARK    6  A    between atoms: C_25  and  C_26 
REMARK    7  A    between atoms: C_29  and  O_32 
ROOT
ATOM      1  C   UNK d   1     -39.678 -63.681  48.728  0.00  0.00     0.152 C 
ATOM      2  C   UNK d   1     -40.460 -64.011  49.935  0.00  0.00     0.080 C 
ATOM      3  C   UNK d   1     -40.072 -65.344  50.587  0.00  0.00     0.077 C 
ATOM      4  C   UNK d   1     -40.136 -66.465  49.580  0.00  0.00     0.067 C 
ATOM      5  O   UNK d   1     -40.037 -65.996  48.283  0.00  0.00    -0.378 OA
ATOM      6  C   UNK d   1     -39.183 -64.954  48.097  0.00  0.00     0.197 C 
ATOM      7  C   UNK d   1     -41.438 -67.210  49.809  0.00  0.00     0.058 C 
ATOM      8  C   UNK d   1     -41.211 -68.409  50.689  0.00  0.00     0.129 C 
ATOM      9  N   UNK d   1     -40.277 -68.052  51.726  0.00  0.00    -0.350 N 
ATOM     10  C   UNK d   1     -38.911 -67.804  51.289  0.00  0.00     0.129 C 
ATOM     11  C   UNK d   1     -38.969 -67.389  49.836  0.00  0.00     0.058 C 
ATOM     12  C   UNK d   1     -40.675 -67.975  53.063  0.00  0.00     0.253 C 
ATOM     13  O   UNK d   1     -39.752 -67.643  53.893  0.00  0.00    -0.271 OA
ATOM     14  C   UNK d   1     -41.945 -63.936  49.785  0.00  0.00     0.048 C 
ENDROOT
BRANCH   2  15
ATOM     15  O   UNK d   1     -40.125 -63.048  50.922  0.00  0.00    -0.388 OA
ATOM     16  H   UNK d   1     -39.678 -62.264  50.528  0.00  0.00     0.210 HD
ENDBRANCH   2  15
BRANCH   1  17
ATOM     17  N   UNK d   1     -40.374 -62.852  47.764  0.00  0.00    -0.298 N 
ATOM     18  C   UNK d   1     -40.850 -63.398  46.650  0.00  0.00     0.121 A 
ATOM     19  C   UNK d   1     -41.508 -62.635  45.713  0.00  0.00     0.094 A 
ATOM     20 Br   UNK d   1     -42.188 -63.446  44.110  0.00  0.00    -0.044 Br
ATOM     21  C   UNK d   1     -41.668 -61.286  45.952  0.00  0.00     0.268 A 
ATOM     22  N   UNK d   1     -41.165 -60.791  47.097  0.00  0.00    -0.274 N 
ATOM     23  O   UNK d   1     -42.268 -60.543  45.120  0.00  0.00    -0.267 OA
ATOM     24  C   UNK d   1     -40.524 -61.551  47.999  0.00  0.00     0.329 A 
ATOM     25  H   UNK d   1     -41.286 -59.750  47.286  0.00  0.00     0.173 HD
ATOM     26  O   UNK d   1     -40.082 -60.991  49.056  0.00  0.00    -0.246 OA
ENDBRANCH   1  17
BRANCH  12  27
ATOM     27  C   UNK d   1     -41.985 -68.222  53.655  0.00  0.00     0.313 C 
BRANCH  27  28
ATOM     28  N   UNK d   1     -41.997 -69.436  54.472  0.00  0.00     0.092 N 
ATOM     29  H   UNK d   1     -41.962 -70.291  53.875  0.00  0.00     0.313 HD
ATOM     30  H   UNK d   1     -42.910 -69.478  54.989  0.00  0.00     0.313 HD
ENDBRANCH  27  28
BRANCH  27  31
ATOM     31  C   UNK d   1     -42.509 -67.118  54.547  0.00  0.00     0.083 C 
BRANCH  31  32
ATOM     32  C   UNK d   1     -43.353 -66.235  53.660  0.00  0.00    -0.056 A 
ATOM     33  C   UNK d   1     -44.481 -66.733  53.063  0.00  0.00     0.010 A 
ATOM     34  C   UNK d   1     -45.230 -65.884  52.253  0.00  0.00     0.037 A 
ATOM     35  C   UNK d   1     -44.867 -64.573  52.044  0.00  0.00     0.065 A 
ATOM     36  C   UNK d   1     -43.724 -64.109  52.663  0.00  0.00     0.037 A 
ATOM     37  C   UNK d   1     -42.959 -64.926  53.471  0.00  0.00     0.010 A 
BRANCH  35  38
ATOM     38  O   UNK d   1     -45.649 -63.777  51.230  0.00  0.00    -0.361 OA
ATOM     39  H   UNK d   1     -46.538 -63.368  51.516  0.00  0.00     0.217 HD
ENDBRANCH  35  38
ENDBRANCH  31  32
ENDBRANCH  27  31
ENDBRANCH  12  27
TORSDOF 7
ENDMDL
