MODEL 1
REMARK VINA RESULT:    -7.978      0.000      0.000
REMARK INTER + INTRA:         -10.779
REMARK INTER:                 -10.544
REMARK INTRA:                  -0.235
REMARK UNBOUND:                -0.235
REMARK  6 active torsions:
REMARK  status: ('A' for Active; 'I' for Inactive)
REMARK    1  A    between atoms: N_4  and  C_10 
REMARK    2  A    between atoms: C_11  and  O_34 
REMARK       I    between atoms: N_18  and  C_21 
REMARK    3  A    between atoms: C_21  and  C_23 
REMARK    4  A    between atoms: C_23  and  N_24 
REMARK    5  A    between atoms: C_23  and  C_28 
REMARK       I    between atoms: N_24  and  C_25 
REMARK    6  A    between atoms: C_28  and  C_29 
ROOT
ATOM      1  C   UNK d   1     -36.742 -65.511  48.485  0.00  0.00     0.152 C 
ATOM      2  C   UNK d   1     -37.165 -64.330  49.373  0.00  0.00     0.080 C 
ATOM      3  C   UNK d   1     -38.663 -64.566  49.610  0.00  0.00     0.077 C 
ATOM      4  C   UNK d   1     -39.382 -64.764  48.305  0.00  0.00     0.067 C 
ATOM      5  O   UNK d   1     -38.522 -64.491  47.269  0.00  0.00    -0.378 OA
ATOM      6  C   UNK d   1     -37.417 -65.335  47.187  0.00  0.00     0.197 C 
ATOM      7  C   UNK d   1     -40.476 -63.706  48.258  0.00  0.00     0.058 C 
ATOM      8  C   UNK d   1     -41.698 -64.204  48.987  0.00  0.00     0.129 C 
ATOM      9  N   UNK d   1     -41.329 -65.264  49.940  0.00  0.00    -0.350 N 
ATOM     10  C   UNK d   1     -40.880 -66.489  49.349  0.00  0.00     0.129 C 
ATOM     11  C   UNK d   1     -40.031 -66.093  48.144  0.00  0.00     0.058 C 
ATOM     12  C   UNK d   1     -41.375 -65.077  51.321  0.00  0.00     0.243 C 
ATOM     13  O   UNK d   1     -41.700 -63.933  51.826  0.00  0.00    -0.271 OA
ATOM     14  C   UNK d   1     -36.903 -63.020  48.700  0.00  0.00     0.048 C 
ENDROOT
BRANCH   2  15
ATOM     15  O   UNK d   1     -36.520 -64.337  50.590  0.00  0.00    -0.388 OA
ATOM     16  H   UNK d   1     -36.923 -65.035  51.167  0.00  0.00     0.210 HD
ENDBRANCH   2  15
BRANCH   1  17
ATOM     17  N   UNK d   1     -35.357 -65.758  48.528  0.00  0.00    -0.298 N 
ATOM     18  C   UNK d   1     -34.433 -65.137  47.791  0.00  0.00     0.121 A 
ATOM     19  C   UNK d   1     -33.076 -65.441  47.894  0.00  0.00     0.094 A 
ATOM     20 Br   UNK d   1     -31.848 -64.501  46.802  0.00  0.00    -0.044 Br
ATOM     21  C   UNK d   1     -32.658 -66.411  48.779  0.00  0.00     0.268 A 
ATOM     22  N   UNK d   1     -33.601 -67.028  49.514  0.00  0.00    -0.274 N 
ATOM     23  O   UNK d   1     -31.425 -66.709  48.893  0.00  0.00    -0.267 OA
ATOM     24  C   UNK d   1     -34.901 -66.713  49.393  0.00  0.00     0.329 A 
ATOM     25  H   UNK d   1     -33.332 -67.777  50.206  0.00  0.00     0.173 HD
ATOM     26  O   UNK d   1     -35.735 -67.329  50.111  0.00  0.00    -0.246 OA
ENDBRANCH   1  17
BRANCH  12  27
ATOM     27  C   UNK d   1     -41.069 -66.128  52.280  0.00  0.00     0.182 C 
BRANCH  27  28
ATOM     28  N   UNK d   1     -42.262 -66.839  52.668  0.00  0.00    -0.348 N 
ATOM     29  C   UNK d   1     -43.232 -66.471  53.593  0.00  0.00     0.214 C 
ATOM     30  O   UNK d   1     -43.223 -65.427  54.279  0.00  0.00    -0.274 OA
ATOM     31  C   UNK d   1     -44.435 -67.360  53.849  0.00  0.00     0.117 C 
ATOM     32  H   UNK d   1     -42.399 -67.772  52.169  0.00  0.00     0.163 HD
ENDBRANCH  27  28
BRANCH  27  33
ATOM     33  C   UNK d   1     -40.043 -67.152  51.701  0.00  0.00     0.095 C 
BRANCH  33  34
ATOM     34  C   UNK d   1     -39.827 -68.245  52.666  0.00  0.00     0.053 A 
ATOM     35  N   UNK d   1     -40.164 -68.328  53.943  0.00  0.00    -0.247 NA
ATOM     36  C   UNK d   1     -39.780 -69.517  54.484  0.00  0.00     0.207 A 
ATOM     37  N   UNK d   1     -39.177 -70.201  53.494  0.00  0.00    -0.359 N 
ATOM     38  C   UNK d   1     -39.194 -69.443  52.377  0.00  0.00     0.116 A 
ATOM     39  H   UNK d   1     -38.775 -71.162  53.622  0.00  0.00     0.166 HD
ENDBRANCH  33  34
ENDBRANCH  27  33
ENDBRANCH  12  27
TORSDOF 6
ENDMDL
