/Users/jonathanwahrer/Desktop/Msc/3_Semester/Drug_Design_Praktikum/waehrer_HTS_screening/HTS_experiment/out/docking_results/vina_output/3e7o/0786_docked.pdbqt
 OpenBabel03192215543D

 25 28  0  0  1  0  0  0  0  0999 V2000
  -37.4070  -68.9420   49.8920 N   0  0  0  0  0  0  0  0  0  0  0  0
  -36.3220  -68.2780   49.2980 C   0  0  0  0  0  0  0  0  0  0  0  0
  -35.2800  -68.0720   49.9550 O   0  0  0  0  0  0  0  0  0  0  0  0
  -38.2680  -69.1080   49.3370 H   0  0  0  0  0  0  0  0  0  0  0  0
  -37.3090  -69.3840   51.2660 C   0  0  0  0  0  2  0  0  0  0  0  0
  -38.5380  -69.0460   52.0280 C   0  0  0  0  0  0  0  0  0  0  0  0
  -39.1160  -69.7580   53.0130 N   0  0  0  0  0  0  0  0  0  0  0  0
  -40.2140  -69.1140   53.4450 C   0  0  0  0  0  0  0  0  0  0  0  0
  -40.3480  -67.9780   52.7370 N   0  0  0  0  0  0  0  0  0  0  0  0
  -41.1360  -69.4420   54.4350 C   0  0  0  0  0  3  0  0  0  0  0  0
  -41.4030  -67.1590   53.0090 C   0  0  0  0  0  3  0  0  0  0  0  0
  -39.3250  -67.9250   51.8640 C   0  0  0  0  0  3  0  0  0  0  0  0
  -42.3320  -67.4560   53.9810 C   0  0  0  0  0  0  0  0  0  0  0  0
  -43.8130  -66.3010   54.3600 Br  0  0  0  0  0  0  0  0  0  0  0  0
  -42.1990  -68.6190   54.7090 C   0  0  0  0  0  3  0  0  0  0  0  0
  -36.4000  -67.8200   47.8980 C   0  0  1  0  0  3  0  0  0  0  0  0
  -37.7490  -67.2080   47.6160 C   0  0  0  0  0  2  0  0  0  0  0  0
  -37.8980  -66.0800   48.5140 N   0  0  0  0  0  0  0  0  0  0  0  0
  -36.8350  -65.3170   48.8190 C   0  0  0  0  0  0  0  0  0  0  0  0
  -38.9460  -65.5780   49.1680 C   0  0  0  0  0  0  0  0  0  0  0  0
  -37.2710  -64.3590   49.6620 N   0  0  0  0  0  0  0  0  0  0  0  0
  -35.4740  -65.5310   48.3030 C   0  0  0  0  0  2  0  0  0  0  0  0
  -38.5440  -64.5140   49.8750 N   0  0  0  0  0  0  0  0  0  0  0  0
  -35.2860  -66.8420   47.6260 C   0  0  0  0  0  2  0  0  0  0  0  0
  -40.3620  -66.0590   49.1690 C   0  0  0  0  0  1  0  0  0  0  0  0
  1  5  1  0  0  0  0
  2  1  1  0  0  0  0
  2  3  2  0  0  0  0
  4  1  1  0  0  0  0
  5  6  1  0  0  0  0
  6  7  1  0  0  0  0
  7  8  2  0  0  0  0
  8 10  1  0  0  0  0
  9 11  1  0  0  0  0
  9  8  1  0  0  0  0
 10 15  2  0  0  0  0
 11 13  2  0  0  0  0
 12  6  2  0  0  0  0
 12  9  1  0  0  0  0
 13 14  1  0  0  0  0
 13 15  1  0  0  0  0
 16  2  1  1  0  0  0
 17 16  1  0  0  0  0
 17 18  1  0  0  0  0
 18 19  1  0  0  0  0
 18 20  1  0  0  0  0
 19 21  2  0  0  0  0
 20 25  1  0  0  0  0
 20 23  2  0  0  0  0
 21 23  1  0  0  0  0
 22 19  1  0  0  0  0
 24 16  1  0  0  0  0
 24 22  1  0  0  0  0
M  END
>  <Pose>
1

>  <Score>
-7.397

$$$$
