MODEL 1
REMARK VINA RESULT:    -7.397      0.000      0.000
REMARK INTER + INTRA:          -8.956
REMARK INTER:                  -8.695
REMARK INTRA:                  -0.261
REMARK UNBOUND:                -0.261
REMARK  3 active torsions:
REMARK  status: ('A' for Active; 'I' for Inactive)
REMARK    1  A    between atoms: C_7  and  C_9 
REMARK    2  A    between atoms: C_9  and  N_10 
REMARK       I    between atoms: N_10  and  C_11 
REMARK    3  A    between atoms: C_11  and  C_13 
ROOT
ATOM      1  N   UNK d   1     -37.407 -68.942  49.892  0.00  0.00    -0.355 N 
ATOM      2  C   UNK d   1     -36.322 -68.278  49.298  0.00  0.00     0.223 C 
ATOM      3  O   UNK d   1     -35.280 -68.072  49.955  0.00  0.00    -0.273 OA
ATOM      4  H   UNK d   1     -38.268 -69.108  49.337  0.00  0.00     0.162 HD
ENDROOT
BRANCH   1   5
ATOM      5  C   UNK d   1     -37.309 -69.384  51.266  0.00  0.00     0.183 C 
BRANCH   5   6
ATOM      6  C   UNK d   1     -38.538 -69.046  52.028  0.00  0.00     0.070 A 
ATOM      7  N   UNK d   1     -39.116 -69.758  53.013  0.00  0.00    -0.232 NA
ATOM      8  C   UNK d   1     -40.214 -69.114  53.445  0.00  0.00     0.134 A 
ATOM      9  N   UNK d   1     -40.348 -67.978  52.737  0.00  0.00    -0.314 N 
ATOM     10  C   UNK d   1     -41.136 -69.442  54.435  0.00  0.00     0.052 A 
ATOM     11  C   UNK d   1     -41.403 -67.159  53.009  0.00  0.00     0.117 A 
ATOM     12  C   UNK d   1     -39.325 -67.925  51.864  0.00  0.00     0.127 A 
ATOM     13  C   UNK d   1     -42.332 -67.456  53.981  0.00  0.00     0.027 A 
ATOM     14 Br   UNK d   1     -43.813 -66.301  54.360  0.00  0.00    -0.050 Br
ATOM     15  C   UNK d   1     -42.199 -68.619  54.709  0.00  0.00     0.024 A 
ENDBRANCH   5   6
ENDBRANCH   1   5
BRANCH   2  16
ATOM     16  C   UNK d   1     -36.400 -67.820  47.898  0.00  0.00     0.096 C 
ATOM     17  C   UNK d   1     -37.749 -67.208  47.616  0.00  0.00     0.145 C 
ATOM     18  N   UNK d   1     -37.898 -66.080  48.514  0.00  0.00    -0.320 N 
ATOM     19  C   UNK d   1     -36.835 -65.317  48.819  0.00  0.00     0.130 A 
ATOM     20  C   UNK d   1     -38.946 -65.578  49.168  0.00  0.00     0.126 A 
ATOM     21  N   UNK d   1     -37.271 -64.359  49.662  0.00  0.00    -0.135 NA
ATOM     22  C   UNK d   1     -35.474 -65.531  48.303  0.00  0.00     0.081 C 
ATOM     23  N   UNK d   1     -38.544 -64.514  49.875  0.00  0.00    -0.135 NA
ATOM     24  C   UNK d   1     -35.286 -66.842  47.626  0.00  0.00     0.023 C 
ATOM     25  C   UNK d   1     -40.362 -66.059  49.169  0.00  0.00     0.093 C 
ENDBRANCH   2  16
TORSDOF 3
ENDMDL
