MODEL 1
REMARK VINA RESULT:    -6.871      0.000      0.000
REMARK INTER + INTRA:          -7.485
REMARK INTER:                  -7.273
REMARK INTRA:                  -0.212
REMARK UNBOUND:                -0.212
REMARK  1 active torsions:
REMARK  status: ('A' for Active; 'I' for Inactive)
REMARK    1  A    between atoms: C_6  and  C_11 
REMARK       I    between atoms: C_11  and  N_13 
ROOT
ATOM      1  C   UNK d   1     -36.658 -67.584  48.665  0.00  0.00     0.274 C 
ATOM      2  O   UNK d   1     -36.684 -68.285  47.617  0.00  0.00    -0.266 OA
ATOM      3  N   UNK d   1     -35.889 -66.393  48.653  0.00  0.00    -0.343 N 
ATOM      4  C   UNK d   1     -35.181 -66.015  47.485  0.00  0.00     0.161 C 
ATOM      5  C   UNK d   1     -33.980 -65.186  47.750  0.00  0.00     0.241 C 
ATOM      6  N   UNK d   1     -33.727 -64.869  49.126  0.00  0.00     0.096 N 
ATOM      7  C   UNK d   1     -34.931 -64.415  49.797  0.00  0.00     0.292 C 
ATOM      8  C   UNK d   1     -35.866 -65.609  49.858  0.00  0.00     0.156 C 
ATOM      9  C   UNK d   1     -32.682 -63.893  49.062  0.00  0.00     0.273 C 
ATOM     10  C   UNK d   1     -32.996 -63.048  47.853  0.00  0.00     0.032 C 
ATOM     11  C   UNK d   1     -34.068 -63.812  47.108  0.00  0.00     0.039 C 
ENDROOT
BRANCH   1  12
ATOM     12  C   UNK d   1     -37.420 -68.025  49.841  0.00  0.00     0.148 A 
ATOM     13  N   UNK d   1     -38.621 -67.630  50.288  0.00  0.00    -0.161 NA
ATOM     14  N   UNK d   1     -38.969 -68.271  51.393  0.00  0.00    -0.225 N 
ATOM     15  C   UNK d   1     -40.058 -68.226  52.204  0.00  0.00     0.141 A 
ATOM     16  C   UNK d   1     -37.993 -69.134  51.730  0.00  0.00     0.152 A 
ATOM     17  C   UNK d   1     -40.174 -69.021  53.322  0.00  0.00     0.046 A 
ATOM     18 Br   UNK d   1     -41.724 -68.942  54.455  0.00  0.00    -0.048 Br
ATOM     19  C   UNK d   1     -39.162 -69.896  53.647  0.00  0.00     0.139 A 
ATOM     20  N   UNK d   1     -38.096 -69.923  52.833  0.00  0.00    -0.240 NA
ATOM     21  C   UNK d   1     -37.016 -68.989  50.766  0.00  0.00     0.091 A 
ENDBRANCH   1  12
TORSDOF 1
ENDMDL
