/Users/jonathanwahrer/Desktop/Msc/3_Semester/Drug_Design_Praktikum/waehrer_HTS_screening/HTS_experiment/out/docking_results/vina_output/3e7o/0789_docked.pdbqt
 OpenBabel03192215553D

 21 24  0  0  1  0  0  0  0  0999 V2000
  -36.6580  -67.5840   48.6650 C   0  0  0  0  0  0  0  0  0  0  0  0
  -36.6840  -68.2850   47.6170 O   0  0  0  0  0  0  0  0  0  0  0  0
  -35.8890  -66.3930   48.6530 N   0  0  0  0  0  0  0  0  0  0  0  0
  -35.1810  -66.0150   47.4850 C   0  0  0  0  0  2  0  0  0  0  0  0
  -33.9800  -65.1860   47.7500 C   0  0  2  0  0  3  0  0  0  0  0  0
  -33.7270  -64.8690   49.1260 N   0  0  2  0  0  0  0  0  0  0  0  0
  -34.9310  -64.4150   49.7970 C   0  0  0  0  0  2  0  0  0  0  0  0
  -35.8660  -65.6090   49.8580 C   0  0  0  0  0  2  0  0  0  0  0  0
  -32.6820  -63.8930   49.0620 C   0  0  0  0  0  2  0  0  0  0  0  0
  -32.9960  -63.0480   47.8530 C   0  0  0  0  0  2  0  0  0  0  0  0
  -34.0680  -63.8120   47.1080 C   0  0  0  0  0  2  0  0  0  0  0  0
  -37.4200  -68.0250   49.8410 C   0  0  0  0  0  0  0  0  0  0  0  0
  -38.6210  -67.6300   50.2880 N   0  0  0  0  0  0  0  0  0  0  0  0
  -38.9690  -68.2710   51.3930 N   0  0  0  0  0  0  0  0  0  0  0  0
  -40.0580  -68.2260   52.2040 C   0  0  0  0  0  3  0  0  0  0  0  0
  -37.9930  -69.1340   51.7300 C   0  0  0  0  0  0  0  0  0  0  0  0
  -40.1740  -69.0210   53.3220 C   0  0  0  0  0  0  0  0  0  0  0  0
  -41.7240  -68.9420   54.4550 Br  0  0  0  0  0  0  0  0  0  0  0  0
  -39.1620  -69.8960   53.6470 C   0  0  0  0  0  3  0  0  0  0  0  0
  -38.0960  -69.9230   52.8330 N   0  0  0  0  0  0  0  0  0  0  0  0
  -37.0160  -68.9890   50.7660 C   0  0  0  0  0  3  0  0  0  0  0  0
  1 12  1  0  0  0  0
  2  1  2  0  0  0  0
  3  1  1  0  0  0  0
  3  8  1  0  0  0  0
  4  5  1  0  0  0  0
  4  3  1  0  0  0  0
  5 11  1  6  0  0  0
  5  6  1  0  0  0  0
  6  9  1  6  0  0  0
  6  7  1  0  0  0  0
  7  8  1  0  0  0  0
 10  9  1  0  0  0  0
 11 10  1  0  0  0  0
 12 13  2  0  0  0  0
 12 21  1  0  0  0  0
 13 14  1  0  0  0  0
 14 16  1  0  0  0  0
 14 15  1  0  0  0  0
 15 17  2  0  0  0  0
 16 20  1  0  0  0  0
 17 19  1  0  0  0  0
 17 18  1  0  0  0  0
 20 19  2  0  0  0  0
 21 16  2  0  0  0  0
M  END
>  <Pose>
1

>  <Score>
-6.871

$$$$
