MODEL 1
REMARK VINA RESULT:    -7.523      0.000      0.000
REMARK INTER + INTRA:          -9.090
REMARK INTER:                  -8.402
REMARK INTRA:                  -0.687
REMARK UNBOUND:                -0.687
REMARK  2 active torsions:
REMARK  status: ('A' for Active; 'I' for Inactive)
REMARK    1  A    between atoms: C_7  and  C_11 
REMARK       I    between atoms: C_11  and  N_13 
REMARK       I    between atoms: N_16  and  C_19 
REMARK    2  A    between atoms: C_19  and  C_21 
ROOT
ATOM      1  C   UNK d   1     -38.940 -64.631  48.252  0.00  0.00     0.259 C 
ATOM      2  O   UNK d   1     -39.621 -64.734  47.192  0.00  0.00    -0.267 OA
ATOM      3  N   UNK d   1     -37.536 -64.432  48.200  0.00  0.00    -0.345 N 
ATOM      4  C   UNK d   1     -36.821 -64.323  49.481  0.00  0.00     0.146 C 
ATOM      5  C   UNK d   1     -35.399 -64.778  49.148  0.00  0.00     0.145 C 
ATOM      6  N   UNK d   1     -35.542 -65.863  48.224  0.00  0.00    -0.354 N 
ATOM      7  C   UNK d   1     -35.713 -65.390  46.819  0.00  0.00     0.145 C 
ATOM      8  C   UNK d   1     -36.818 -64.337  46.937  0.00  0.00     0.146 C 
ATOM      9  C   UNK d   1     -35.581 -67.222  48.486  0.00  0.00     0.211 C 
ATOM     10  O   UNK d   1     -35.676 -68.018  47.462  0.00  0.00    -0.169 OA
ENDROOT
BRANCH   1  11
ATOM     11  C   UNK d   1     -39.633 -64.722  49.513  0.00  0.00     0.099 A 
ATOM     12  C   UNK d   1     -40.277 -63.736  50.223  0.00  0.00     0.160 A 
ATOM     13  N   UNK d   1     -40.789 -64.261  51.349  0.00  0.00    -0.178 NA
ATOM     14  N   UNK d   1     -40.486 -65.560  51.374  0.00  0.00    -0.225 N 
ATOM     15  C   UNK d   1     -40.757 -66.513  52.258  0.00  0.00     0.141 A 
ATOM     16  C   UNK d   1     -39.784 -65.877  50.273  0.00  0.00     0.167 A 
ATOM     17  C   UNK d   1     -40.335 -67.791  52.065  0.00  0.00     0.046 A 
ATOM     18 Br   UNK d   1     -40.727 -69.151  53.339  0.00  0.00    -0.048 Br
ATOM     19  C   UNK d   1     -39.620 -68.107  50.943  0.00  0.00     0.139 A 
ATOM     20  N   UNK d   1     -39.361 -67.134  50.067  0.00  0.00    -0.239 NA
ENDBRANCH   1  11
BRANCH   9  21
ATOM     21  C   UNK d   1     -35.534 -67.926  49.756  0.00  0.00     0.128 A 
ATOM     22  O   UNK d   1     -36.432 -68.839  50.153  0.00  0.00    -0.318 OA
ATOM     23  C   UNK d   1     -36.160 -69.309  51.322  0.00  0.00     0.142 A 
ATOM     24  C   UNK d   1     -35.018 -68.717  51.798  0.00  0.00     0.027 A 
ATOM     25  C   UNK d   1     -34.636 -67.843  50.793  0.00  0.00     0.043 A 
ENDBRANCH   9  21
TORSDOF 2
ENDMDL
