/Users/jonathanwahrer/Desktop/Msc/3_Semester/Drug_Design_Praktikum/waehrer_HTS_screening/HTS_experiment/out/docking_results/vina_output/3e7o/0790_docked.pdbqt
 OpenBabel03192215553D

 25 28  0  0  0  0  0  0  0  0999 V2000
  -38.9400  -64.6310   48.2520 C   0  0  0  0  0  0  0  0  0  0  0  0
  -39.6210  -64.7340   47.1920 O   0  0  0  0  0  0  0  0  0  0  0  0
  -37.5360  -64.4320   48.2000 N   0  0  0  0  0  0  0  0  0  0  0  0
  -36.8210  -64.3230   49.4810 C   0  0  0  0  0  2  0  0  0  0  0  0
  -35.3990  -64.7780   49.1480 C   0  0  0  0  0  2  0  0  0  0  0  0
  -35.5420  -65.8630   48.2240 N   0  0  0  0  0  0  0  0  0  0  0  0
  -35.7130  -65.3900   46.8190 C   0  0  0  0  0  2  0  0  0  0  0  0
  -36.8180  -64.3370   46.9370 C   0  0  0  0  0  2  0  0  0  0  0  0
  -35.5810  -67.2220   48.4860 C   0  0  0  0  0  0  0  0  0  0  0  0
  -35.6760  -68.0180   47.4620 O   0  0  0  0  0  0  0  0  0  0  0  0
  -39.6330  -64.7220   49.5130 C   0  0  0  0  0  0  0  0  0  0  0  0
  -40.2770  -63.7360   50.2230 C   0  0  0  0  0  3  0  0  0  0  0  0
  -40.7890  -64.2610   51.3490 N   0  0  0  0  0  0  0  0  0  0  0  0
  -40.4860  -65.5600   51.3740 N   0  0  0  0  0  0  0  0  0  0  0  0
  -40.7570  -66.5130   52.2580 C   0  0  0  0  0  3  0  0  0  0  0  0
  -39.7840  -65.8770   50.2730 C   0  0  0  0  0  0  0  0  0  0  0  0
  -40.3350  -67.7910   52.0650 C   0  0  0  0  0  0  0  0  0  0  0  0
  -40.7270  -69.1510   53.3390 Br  0  0  0  0  0  0  0  0  0  0  0  0
  -39.6200  -68.1070   50.9430 C   0  0  0  0  0  3  0  0  0  0  0  0
  -39.3610  -67.1340   50.0670 N   0  0  0  0  0  0  0  0  0  0  0  0
  -35.5340  -67.9260   49.7560 C   0  0  0  0  0  0  0  0  0  0  0  0
  -36.4320  -68.8390   50.1530 O   0  0  0  0  0  0  0  0  0  0  0  0
  -36.1600  -69.3090   51.3220 C   0  0  0  0  0  3  0  0  0  0  0  0
  -35.0180  -68.7170   51.7980 C   0  0  0  0  0  3  0  0  0  0  0  0
  -34.6360  -67.8430   50.7930 C   0  0  0  0  0  3  0  0  0  0  0  0
  1 11  1  0  0  0  0
  2  1  2  0  0  0  0
  3  1  1  0  0  0  0
  3  4  1  0  0  0  0
  5  4  1  0  0  0  0
  6  9  1  0  0  0  0
  6  5  1  0  0  0  0
  7  8  1  0  0  0  0
  7  6  1  0  0  0  0
  8  3  1  0  0  0  0
  9 21  1  0  0  0  0
 10  9  2  0  0  0  0
 11 12  1  0  0  0  0
 11 16  2  0  0  0  0
 12 13  2  0  0  0  0
 13 14  1  0  0  0  0
 14 15  1  0  0  0  0
 16 14  1  0  0  0  0
 17 15  2  0  0  0  0
 17 18  1  0  0  0  0
 19 17  1  0  0  0  0
 20 16  1  0  0  0  0
 20 19  2  0  0  0  0
 21 22  1  0  0  0  0
 21 25  2  0  0  0  0
 22 23  1  0  0  0  0
 23 24  2  0  0  0  0
 25 24  1  0  0  0  0
M  END
>  <Pose>
1

>  <Score>
-7.523

$$$$
