MODEL 1
REMARK VINA RESULT:    -7.672      0.000      0.000
REMARK INTER + INTRA:         -11.431
REMARK INTER:                 -10.363
REMARK INTRA:                  -1.067
REMARK UNBOUND:                -1.067
REMARK  6 active torsions:
REMARK  status: ('A' for Active; 'I' for Inactive)
REMARK    1  A    between atoms: C_16  and  N_17 
REMARK    2  A    between atoms: N_17  and  C_18 
REMARK    3  A    between atoms: C_19  and  C_24 
REMARK    4  A    between atoms: C_24  and  O_26 
REMARK    5  A    between atoms: O_26  and  C_27 
REMARK    6  A    between atoms: C_27  and  C_28 
ROOT
ATOM      1 Br   UNK d   1     -38.243 -64.431  47.578  0.00  0.00    -0.046 Br
ATOM      2  C   UNK d   1     -38.902 -65.367  49.094  0.00  0.00     0.072 A 
ATOM      3  C   UNK d   1     -39.995 -64.982  49.789  0.00  0.00     0.141 A 
ATOM      4  N   UNK d   1     -40.514 -65.683  50.801  0.00  0.00    -0.118 N 
ATOM      5  C   UNK d   1     -39.924 -66.827  51.148  0.00  0.00     0.716 A 
ATOM      6  N   UNK d   1     -40.431 -67.555  52.182  0.00  0.00    -0.063 NA
ATOM      7  C   UNK d   1     -41.497 -67.181  52.877  0.00  0.00     0.091 A 
ATOM      8  C   UNK d   1     -42.125 -66.004  52.538  0.00  0.00     0.062 A 
ATOM      9  C   UNK d   1     -43.235 -65.558  53.228  0.00  0.00     0.019 A 
ATOM     10  C   UNK d   1     -43.780 -66.269  54.298  0.00  0.00     0.001 A 
ATOM     11  C   UNK d   1     -43.143 -67.446  54.628  0.00  0.00     0.002 A 
ATOM     12  C   UNK d   1     -42.031 -67.896  53.939  0.00  0.00     0.033 A 
ATOM     13  C   UNK d   1     -41.593 -65.277  51.480  0.00  0.00     0.278 A 
ATOM     14  O   UNK d   1     -42.154 -64.205  51.162  0.00  0.00    -0.266 OA
ATOM     15  N   UNK d   1     -38.827 -67.234  50.468  0.00  0.00    -0.173 N 
ATOM     16  C   UNK d   1     -38.254 -66.595  49.457  0.00  0.00     0.140 A 
ATOM     17  H   UNK d   1     -38.451 -68.164  50.843  0.00  0.00     0.186 HD
ENDROOT
BRANCH  16  18
ATOM     18  N   UNK d   1     -37.100 -66.886  48.801  0.00  0.00    -0.340 N 
ATOM     19  H   UNK d   1     -36.721 -67.778  49.765  0.00  0.00     0.167 HD
BRANCH  18  20
ATOM     20  C   UNK d   1     -35.963 -67.174  48.155  0.00  0.00     0.050 A 
ATOM     21  C   UNK d   1     -34.737 -66.791  48.713  0.00  0.00     0.066 A 
ATOM     22  C   UNK d   1     -33.594 -66.852  47.985  0.00  0.00     0.020 A 
ATOM     23  C   UNK d   1     -33.618 -67.297  46.686  0.00  0.00     0.001 A 
ATOM     24  C   UNK d   1     -34.790 -67.694  46.081  0.00  0.00     0.002 A 
ATOM     25  C   UNK d   1     -35.935 -67.620  46.839  0.00  0.00     0.030 A 
BRANCH  21  26
ATOM     26  C   UNK d   1     -34.606 -66.454  50.136  0.00  0.00     0.295 C 
ATOM     27  O   UNK d   1     -34.344 -65.261  50.431  0.00  0.00    -0.259 OA
BRANCH  26  28
ATOM     28  O   UNK d   1     -34.738 -67.330  51.174  0.00  0.00    -0.317 OA
BRANCH  28  29
ATOM     29  C   UNK d   1     -33.905 -68.462  51.334  0.00  0.00     0.178 C 
BRANCH  29  30
ATOM     30  C   UNK d   1     -34.738 -69.678  51.751  0.00  0.00     0.022 C 
ATOM     31  C   UNK d   1     -36.186 -69.408  51.421  0.00  0.00     0.007 C 
ENDBRANCH  29  30
ENDBRANCH  28  29
ENDBRANCH  26  28
ENDBRANCH  21  26
ENDBRANCH  18  20
ENDBRANCH  16  18
TORSDOF 6
ENDMDL
