/Users/jonathanwahrer/Desktop/Msc/3_Semester/Drug_Design_Praktikum/waehrer_HTS_screening/HTS_experiment/out/docking_results/vina_output/3e7o/0827_docked.pdbqt
 OpenBabel03192215563D

 29 32  0  0  1  0  0  0  0  0999 V2000
  -47.7260  -64.5090   52.7960 C   0  0  2  0  0  0  0  0  0  0  0  0
  -46.9960  -65.6420   53.3600 N   0  0  0  0  0  4  0  0  0  0  0  0
  -47.8260  -66.7340   53.4380 C   0  0  0  0  0  0  0  0  0  0  0  0
  -47.7060  -67.8300   54.1450 C   0  0  0  0  0  3  0  0  0  0  0  0
  -48.5280  -69.0650   54.3010 C   0  0  0  0  0  2  0  0  0  0  0  0
  -49.8630  -69.0020   53.6280 C   0  0  0  0  0  2  0  0  0  0  0  0
  -49.7300  -68.7170   52.1510 C   0  0  0  0  0  2  0  0  0  0  0  0
  -49.9060  -67.2340   51.8920 C   0  0  0  0  0  2  0  0  0  0  0  0
  -49.0050  -66.4320   52.6570 N   0  0  0  0  0  0  0  0  0  0  0  0
  -49.2140  -64.9830   52.7780 C   0  0  0  0  0  2  0  0  0  0  0  0
  -46.9880  -65.3020   54.4470 H   0  0  0  0  0  0  0  0  0  0  0  0
  -45.6550  -65.6940   53.0860 C   0  0  0  0  0  0  0  0  0  0  0  0
  -45.0770  -66.3990   52.0730 C   0  0  0  0  0  3  0  0  0  0  0  0
  -43.6860  -66.5560   51.9470 C   0  0  0  0  0  3  0  0  0  0  0  0
  -42.8320  -65.9920   52.8570 C   0  0  0  0  0  0  0  0  0  0  0  0
  -43.4120  -65.2700   53.8900 C   0  0  0  0  0  3  0  0  0  0  0  0
  -44.7770  -65.1210   54.0110 C   0  0  0  0  0  3  0  0  0  0  0  0
  -41.4590  -66.1440   52.7560 O   0  0  0  0  0  0  0  0  0  0  0  0
  -40.7820  -67.3730   52.6780 C   0  0  0  0  0  2  0  0  0  0  0  0
  -40.7890  -67.9400   54.1110 C   0  0  0  0  0  1  0  0  0  0  0  0
  -47.4230  -64.3560   51.3440 C   0  0  0  0  0  0  0  0  0  0  0  0
  -47.9930  -65.1550   50.3800 C   0  0  0  0  0  3  0  0  0  0  0  0
  -47.6900  -64.9740   49.0470 C   0  0  0  0  0  3  0  0  0  0  0  0
  -46.8060  -63.9840   48.6610 C   0  0  0  0  0  0  0  0  0  0  0  0
  -46.4000  -63.7630   46.8240 Br  0  0  0  0  0  0  0  0  0  0  0  0
  -46.2310  -63.1790   49.6110 C   0  0  0  0  0  3  0  0  0  0  0  0
  -46.5530  -63.3810   50.9600 C   0  0  0  0  0  3  0  0  0  0  0  0
  -47.6670  -63.4020   53.5510 O   0  0  0  0  0  0  0  0  0  0  0  0
  -46.8240  -62.9560   53.7140 H   0  0  0  0  0  0  0  0  0  0  0  0
  1  2  1  0  0  0  0
  1 28  1  1  0  0  0
  2  3  1  0  0  0  0
  2 11  1  0  0  0  0
  3  4  2  0  0  0  0
  4  5  1  0  0  0  0
  6  5  1  0  0  0  0
  7  6  1  0  0  0  0
  8  7  1  0  0  0  0
  8  9  1  0  0  0  0
  9 10  1  0  0  0  0
  9  3  1  0  0  0  0
 10  1  1  0  0  0  0
 12  2  1  0  0  0  0
 12 17  1  0  0  0  0
 13 12  2  0  0  0  0
 14 13  1  0  0  0  0
 14 15  2  0  0  0  0
 15 16  1  0  0  0  0
 16 17  2  0  0  0  0
 18 15  1  0  0  0  0
 19 18  1  0  0  0  0
 19 20  1  0  0  0  0
 21  1  1  0  0  0  0
 22 21  2  0  0  0  0
 23 22  1  0  0  0  0
 24 23  2  0  0  0  0
 24 26  1  0  0  0  0
 25 24  1  0  0  0  0
 26 27  2  0  0  0  0
 27 21  1  0  0  0  0
 28 29  1  0  0  0  0
M  END
>  <Pose>
1

>  <Score>
-6.262

$$$$
