MODEL 1
REMARK VINA RESULT:    -7.036      0.000      0.000
REMARK INTER + INTRA:          -9.203
REMARK INTER:                  -8.475
REMARK INTRA:                  -0.728
REMARK UNBOUND:                -0.728
REMARK  4 active torsions:
REMARK  status: ('A' for Active; 'I' for Inactive)
REMARK    1  A    between atoms: C_5  and  C_8 
REMARK    2  A    between atoms: C_8  and  O_26 
REMARK    3  A    between atoms: N_16  and  C_18 
REMARK    4  A    between atoms: C_19  and  O_24 
ROOT
ATOM      1  C   UNK d   1     -37.293 -66.832  47.969  0.00  0.00     0.189 C 
ATOM      2  N   UNK d   1     -36.608 -65.577  48.249  0.00  0.00    -0.324 N 
ATOM      3  C   UNK d   1     -36.880 -64.782  49.441  0.00  0.00     0.128 C 
ATOM      4  C   UNK d   1     -36.308 -63.414  49.377  0.00  0.00     0.020 C 
ATOM      5  C   UNK d   1     -36.664 -62.656  48.124  0.00  0.00     0.005 C 
ATOM      6  C   UNK d   1     -35.491 -62.838  47.178  0.00  0.00     0.031 C 
ATOM      7  C   UNK d   1     -35.249 -64.179  46.734  0.00  0.00     0.030 C 
ATOM      8  C   UNK d   1     -35.728 -65.359  47.192  0.00  0.00     0.208 C 
ATOM      9  N   UNK d   1     -35.334 -66.575  46.600  0.00  0.00     0.011 N 
ATOM     10  C   UNK d   1     -36.247 -67.524  47.167  0.00  0.00     0.316 C 
ATOM     11  H   UNK d   1     -35.428 -66.600  45.559  0.00  0.00     0.295 HD
ENDROOT
BRANCH   1  12
ATOM     12  C   UNK d   1     -37.638 -67.526  49.226  0.00  0.00    -0.001 A 
ATOM     13  C   UNK d   1     -36.705 -68.413  49.770  0.00  0.00     0.013 A 
ATOM     14  C   UNK d   1     -37.073 -69.082  50.937  0.00  0.00     0.020 A 
ATOM     15  C   UNK d   1     -38.305 -68.868  51.511  0.00  0.00     0.011 A 
ATOM     16 Br   UNK d   1     -38.770 -69.807  53.114  0.00  0.00    -0.051 Br
ATOM     17  C   UNK d   1     -39.204 -67.980  50.944  0.00  0.00     0.020 A 
ATOM     18  C   UNK d   1     -38.857 -67.306  49.786  0.00  0.00     0.013 A 
ENDBRANCH   1  12
BRANCH   1  19
ATOM     19  O   UNK d   1     -38.432 -66.529  47.269  0.00  0.00    -0.365 OA
ATOM     20  H   UNK d   1     -38.983 -65.831  47.679  0.00  0.00     0.213 HD
ENDBRANCH   1  19
BRANCH   9  21
ATOM     21  C   UNK d   1     -33.986 -66.800  47.016  0.00  0.00     0.175 A 
ATOM     22  C   UNK d   1     -32.994 -67.068  46.089  0.00  0.00     0.103 A 
ATOM     23  C   UNK d   1     -31.733 -67.348  46.600  0.00  0.00     0.039 A 
ATOM     24  C   UNK d   1     -31.430 -67.372  47.949  0.00  0.00     0.003 A 
ATOM     25  C   UNK d   1     -32.474 -67.091  48.856  0.00  0.00     0.002 A 
ATOM     26  C   UNK d   1     -33.692 -66.819  48.346  0.00  0.00     0.041 A 
BRANCH  22  27
ATOM     27  O   UNK d   1     -33.279 -67.046  44.758  0.00  0.00    -0.354 OA
ATOM     28  C   UNK d   1     -32.315 -67.374  43.792  0.00  0.00     0.210 C 
ENDBRANCH  22  27
ENDBRANCH   9  21
TORSDOF 4
ENDMDL
