MODEL 1
REMARK VINA RESULT:    -7.285      0.000      0.000
REMARK INTER + INTRA:          -9.054
REMARK INTER:                  -8.775
REMARK INTRA:                  -0.279
REMARK UNBOUND:                -0.279
REMARK  4 active torsions:
REMARK  status: ('A' for Active; 'I' for Inactive)
REMARK    1  A    between atoms: C_5  and  C_8 
REMARK    2  A    between atoms: C_8  and  O_26 
REMARK    3  A    between atoms: N_16  and  C_18 
REMARK    4  A    between atoms: C_21  and  O_24 
ROOT
ATOM      1  C   UNK d   1     -39.791 -65.821  49.889  0.00  0.00     0.189 C 
ATOM      2  N   UNK d   1     -38.495 -65.894  49.295  0.00  0.00    -0.324 N 
ATOM      3  C   UNK d   1     -37.895 -67.008  48.628  0.00  0.00     0.128 C 
ATOM      4  C   UNK d   1     -36.496 -67.340  48.978  0.00  0.00     0.020 C 
ATOM      5  C   UNK d   1     -35.813 -66.459  49.960  0.00  0.00     0.005 C 
ATOM      6  C   UNK d   1     -35.456 -65.097  49.364  0.00  0.00     0.031 C 
ATOM      7  C   UNK d   1     -36.663 -64.229  49.533  0.00  0.00     0.030 C 
ATOM      8  C   UNK d   1     -37.941 -64.567  49.504  0.00  0.00     0.208 C 
ATOM      9  N   UNK d   1     -39.012 -63.652  49.695  0.00  0.00     0.009 N 
ATOM     10  C   UNK d   1     -39.873 -64.433  50.534  0.00  0.00     0.316 C 
ATOM     11  H   UNK d   1     -38.628 -62.807  50.188  0.00  0.00     0.295 HD
ENDROOT
BRANCH   1  12
ATOM     12  C   UNK d   1     -40.102 -66.752  50.972  0.00  0.00    -0.001 A 
ATOM     13  C   UNK d   1     -39.701 -68.039  51.110  0.00  0.00     0.013 A 
ATOM     14  C   UNK d   1     -40.070 -68.817  52.200  0.00  0.00     0.020 A 
ATOM     15  C   UNK d   1     -40.869 -68.289  53.191  0.00  0.00     0.011 A 
ATOM     16 Br   UNK d   1     -41.388 -69.336  54.705  0.00  0.00    -0.051 Br
ATOM     17  C   UNK d   1     -41.277 -66.983  53.055  0.00  0.00     0.020 A 
ATOM     18  C   UNK d   1     -40.919 -66.205  51.984  0.00  0.00     0.013 A 
ENDBRANCH   1  12
BRANCH   1  19
ATOM     19  O   UNK d   1     -40.824 -65.973  48.944  0.00  0.00    -0.365 OA
ATOM     20  H   UNK d   1     -40.605 -66.809  48.459  0.00  0.00     0.213 HD
ENDBRANCH   1  19
BRANCH   9  21
ATOM     21  C   UNK d   1     -39.576 -63.336  48.449  0.00  0.00     0.142 A 
ATOM     22  C   UNK d   1     -40.917 -62.922  48.349  0.00  0.00     0.040 A 
ATOM     23  C   UNK d   1     -41.497 -62.611  47.148  0.00  0.00     0.039 A 
ATOM     24  C   UNK d   1     -40.779 -62.689  45.974  0.00  0.00     0.068 A 
ATOM     25  C   UNK d   1     -39.469 -63.089  46.046  0.00  0.00     0.039 A 
ATOM     26  C   UNK d   1     -38.886 -63.404  47.256  0.00  0.00     0.040 A 
BRANCH  24  27
ATOM     27  O   UNK d   1     -41.383 -62.366  44.744  0.00  0.00    -0.356 OA
ATOM     28  C   UNK d   1     -40.755 -62.716  43.540  0.00  0.00     0.210 C 
ENDBRANCH  24  27
ENDBRANCH   9  21
TORSDOF 4
ENDMDL
