/Users/jonathanwahrer/Desktop/Msc/3_Semester/Drug_Design_Praktikum/waehrer_HTS_screening/HTS_experiment/out/docking_results/vina_output/3e7o/0834_docked.pdbqt
 OpenBabel03192215563D

 28 31  0  0  1  0  0  0  0  0999 V2000
  -39.7910  -65.8210   49.8890 C   0  0  2  0  0  0  0  0  0  0  0  0
  -38.4950  -65.8940   49.2950 N   0  0  0  0  0  0  0  0  0  0  0  0
  -37.8950  -67.0080   48.6280 C   0  0  0  0  0  3  0  0  0  0  0  0
  -36.4960  -67.3400   48.9780 C   0  0  0  0  0  3  0  0  0  0  0  0
  -35.8130  -66.4590   49.9600 C   0  0  0  0  0  2  0  0  0  0  0  0
  -35.4560  -65.0970   49.3640 C   0  0  0  0  0  2  0  0  0  0  0  0
  -36.6630  -64.2290   49.5330 C   0  0  0  0  0  3  0  0  0  0  0  0
  -37.9410  -64.5670   49.5040 C   0  0  0  0  0  0  0  0  0  0  0  0
  -39.0120  -63.6520   49.6950 N   0  0  0  0  0  4  0  0  0  0  0  0
  -39.8730  -64.4330   50.5340 C   0  0  0  0  0  2  0  0  0  0  0  0
  -38.6280  -62.8070   50.1880 H   0  0  0  0  0  0  0  0  0  0  0  0
  -40.1020  -66.7520   50.9720 C   0  0  0  0  0  0  0  0  0  0  0  0
  -39.7010  -68.0390   51.1100 C   0  0  0  0  0  3  0  0  0  0  0  0
  -40.0700  -68.8170   52.2000 C   0  0  0  0  0  3  0  0  0  0  0  0
  -40.8690  -68.2890   53.1910 C   0  0  0  0  0  0  0  0  0  0  0  0
  -41.3880  -69.3360   54.7050 Br  0  0  0  0  0  0  0  0  0  0  0  0
  -41.2770  -66.9830   53.0550 C   0  0  0  0  0  3  0  0  0  0  0  0
  -40.9190  -66.2050   51.9840 C   0  0  0  0  0  3  0  0  0  0  0  0
  -40.8240  -65.9730   48.9440 O   0  0  0  0  0  0  0  0  0  0  0  0
  -40.6050  -66.8090   48.4590 H   0  0  0  0  0  0  0  0  0  0  0  0
  -39.5760  -63.3360   48.4490 C   0  0  0  0  0  0  0  0  0  0  0  0
  -40.9170  -62.9220   48.3490 C   0  0  0  0  0  3  0  0  0  0  0  0
  -41.4970  -62.6110   47.1480 C   0  0  0  0  0  3  0  0  0  0  0  0
  -40.7790  -62.6890   45.9740 C   0  0  0  0  0  0  0  0  0  0  0  0
  -39.4690  -63.0890   46.0460 C   0  0  0  0  0  3  0  0  0  0  0  0
  -38.8860  -63.4040   47.2560 C   0  0  0  0  0  3  0  0  0  0  0  0
  -41.3830  -62.3660   44.7440 O   0  0  0  0  0  0  0  0  0  0  0  0
  -40.7550  -62.7160   43.5400 C   0  0  0  0  0  1  0  0  0  0  0  0
  1 19  1  6  0  0  0
  1 10  1  0  0  0  0
  1 12  1  0  0  0  0
  2  8  1  0  0  0  0
  2  1  1  0  0  0  0
  3  4  2  0  0  0  0
  3  2  1  0  0  0  0
  4  5  1  0  0  0  0
  6  7  1  0  0  0  0
  6  5  1  0  0  0  0
  8  7  2  0  0  0  0
  8  9  1  0  0  0  0
  9 11  1  0  0  0  0
  9 10  1  0  0  0  0
 12 13  2  0  0  0  0
 12 18  1  0  0  0  0
 13 14  1  0  0  0  0
 14 15  2  0  0  0  0
 15 16  1  0  0  0  0
 17 15  1  0  0  0  0
 18 17  2  0  0  0  0
 20 19  1  0  0  0  0
 21  9  1  0  0  0  0
 22 21  1  0  0  0  0
 23 22  2  0  0  0  0
 24 25  2  0  0  0  0
 24 23  1  0  0  0  0
 25 26  1  0  0  0  0
 26 21  2  0  0  0  0
 27 24  1  0  0  0  0
 28 27  1  0  0  0  0
M  END
>  <Pose>
1

>  <Score>
-7.285

$$$$
