MODEL 1
REMARK VINA RESULT:    -7.083      0.000      0.000
REMARK INTER + INTRA:          -7.960
REMARK INTER:                  -8.532
REMARK INTRA:                   0.572
REMARK UNBOUND:                 0.572
REMARK  4 active torsions:
REMARK  status: ('A' for Active; 'I' for Inactive)
REMARK    1  A    between atoms: C_5  and  C_8 
REMARK    2  A    between atoms: C_8  and  O_25 
REMARK    3  A    between atoms: N_15  and  C_17 
REMARK    4  A    between atoms: C_18  and  O_23 
ROOT
ATOM      1  C   UNK d   1     -39.694 -66.177  50.379  0.00  0.00     0.189 C 
ATOM      2  N   UNK d   1     -38.569 -67.081  50.266  0.00  0.00    -0.324 N 
ATOM      3  C   UNK d   1     -37.200 -67.034  49.797  0.00  0.00     0.128 C 
ATOM      4  C   UNK d   1     -36.282 -67.913  50.621  0.00  0.00     0.024 C 
ATOM      5  C   UNK d   1     -36.800 -69.310  50.568  0.00  0.00     0.032 C 
ATOM      6  C   UNK d   1     -38.236 -69.373  50.912  0.00  0.00     0.030 C 
ATOM      7  C   UNK d   1     -39.052 -68.325  50.767  0.00  0.00     0.208 C 
ATOM      8  N   UNK d   1     -40.436 -68.264  51.033  0.00  0.00     0.011 N 
ATOM      9  C   UNK d   1     -40.863 -67.107  50.220  0.00  0.00     0.316 C 
ATOM     10  H   UNK d   1     -40.954 -69.074  50.557  0.00  0.00     0.295 HD
ENDROOT
BRANCH   1  11
ATOM     11  C   UNK d   1     -39.686 -65.105  49.355  0.00  0.00    -0.001 A 
ATOM     12  C   UNK d   1     -39.694 -63.782  49.744  0.00  0.00     0.013 A 
ATOM     13  C   UNK d   1     -39.678 -62.729  48.830  0.00  0.00     0.020 A 
ATOM     14  C   UNK d   1     -39.654 -63.020  47.485  0.00  0.00     0.011 A 
ATOM     15 Br   UNK d   1     -39.640 -61.580  46.214  0.00  0.00    -0.051 Br
ATOM     16  C   UNK d   1     -39.647 -64.337  47.080  0.00  0.00     0.020 A 
ATOM     17  C   UNK d   1     -39.662 -65.370  47.999  0.00  0.00     0.013 A 
ENDBRANCH   1  11
BRANCH   1  18
ATOM     18  O   UNK d   1     -39.783 -65.583  51.634  0.00  0.00    -0.365 OA
ATOM     19  H   UNK d   1     -39.589 -66.290  52.296  0.00  0.00     0.213 HD
ENDBRANCH   1  18
BRANCH   8  20
ATOM     20  C   UNK d   1     -40.822 -68.115  52.361  0.00  0.00     0.175 A 
ATOM     21  C   UNK d   1     -41.919 -67.391  52.758  0.00  0.00     0.103 A 
ATOM     22  C   UNK d   1     -42.237 -67.268  54.112  0.00  0.00     0.039 A 
ATOM     23  C   UNK d   1     -41.465 -67.865  55.074  0.00  0.00     0.003 A 
ATOM     24  C   UNK d   1     -40.363 -68.595  54.685  0.00  0.00     0.002 A 
ATOM     25  C   UNK d   1     -40.055 -68.714  53.353  0.00  0.00     0.041 A 
BRANCH  21  26
ATOM     26  O   UNK d   1     -42.752 -66.759  51.858  0.00  0.00    -0.354 OA
ATOM     27  C   UNK d   1     -43.859 -66.035  52.284  0.00  0.00     0.210 C 
ENDBRANCH  21  26
ENDBRANCH   8  20
TORSDOF 4
ENDMDL
