/Users/jonathanwahrer/Desktop/Msc/3_Semester/Drug_Design_Praktikum/waehrer_HTS_screening/HTS_experiment/out/docking_results/vina_output/3e7o/0835_docked.pdbqt
 OpenBabel03192215573D

 27 30  0  0  1  0  0  0  0  0999 V2000
  -39.6940  -66.1770   50.3790 C   0  0  2  0  0  0  0  0  0  0  0  0
  -38.5690  -67.0810   50.2660 N   0  0  0  0  0  0  0  0  0  0  0  0
  -37.2000  -67.0340   49.7970 C   0  0  0  0  0  2  0  0  0  0  0  0
  -36.2820  -67.9130   50.6210 C   0  0  0  0  0  2  0  0  0  0  0  0
  -36.8000  -69.3100   50.5680 C   0  0  0  0  0  2  0  0  0  0  0  0
  -38.2360  -69.3730   50.9120 C   0  0  0  0  0  3  0  0  0  0  0  0
  -39.0520  -68.3250   50.7670 C   0  0  0  0  0  0  0  0  0  0  0  0
  -40.4360  -68.2640   51.0330 N   0  0  0  0  0  4  0  0  0  0  0  0
  -40.8630  -67.1070   50.2200 C   0  0  0  0  0  2  0  0  0  0  0  0
  -40.9540  -69.0740   50.5570 H   0  0  0  0  0  0  0  0  0  0  0  0
  -39.6860  -65.1050   49.3550 C   0  0  0  0  0  0  0  0  0  0  0  0
  -39.6940  -63.7820   49.7440 C   0  0  0  0  0  3  0  0  0  0  0  0
  -39.6780  -62.7290   48.8300 C   0  0  0  0  0  3  0  0  0  0  0  0
  -39.6540  -63.0200   47.4850 C   0  0  0  0  0  0  0  0  0  0  0  0
  -39.6400  -61.5800   46.2140 Br  0  0  0  0  0  0  0  0  0  0  0  0
  -39.6470  -64.3370   47.0800 C   0  0  0  0  0  3  0  0  0  0  0  0
  -39.6620  -65.3700   47.9990 C   0  0  0  0  0  3  0  0  0  0  0  0
  -39.7830  -65.5830   51.6340 O   0  0  0  0  0  0  0  0  0  0  0  0
  -39.5890  -66.2900   52.2960 H   0  0  0  0  0  0  0  0  0  0  0  0
  -40.8220  -68.1150   52.3610 C   0  0  0  0  0  0  0  0  0  0  0  0
  -41.9190  -67.3910   52.7580 C   0  0  0  0  0  0  0  0  0  0  0  0
  -42.2370  -67.2680   54.1120 C   0  0  0  0  0  3  0  0  0  0  0  0
  -41.4650  -67.8650   55.0740 C   0  0  0  0  0  3  0  0  0  0  0  0
  -40.3630  -68.5950   54.6850 C   0  0  0  0  0  3  0  0  0  0  0  0
  -40.0550  -68.7140   53.3530 C   0  0  0  0  0  3  0  0  0  0  0  0
  -42.7520  -66.7590   51.8580 O   0  0  0  0  0  0  0  0  0  0  0  0
  -43.8590  -66.0350   52.2840 C   0  0  0  0  0  1  0  0  0  0  0  0
  1 18  1  1  0  0  0
  2  1  1  0  0  0  0
  2  7  1  0  0  0  0
  3  2  1  0  0  0  0
  3  4  1  0  0  0  0
  5  4  1  0  0  0  0
  5  6  1  0  0  0  0
  7  6  2  0  0  0  0
  7  8  1  0  0  0  0
  8 20  1  0  0  0  0
  9  1  1  0  0  0  0
  9  8  1  0  0  0  0
 10  8  1  0  0  0  0
 11 12  1  0  0  0  0
 11  1  1  0  0  0  0
 13 12  2  0  0  0  0
 14 13  1  0  0  0  0
 15 14  1  0  0  0  0
 16 14  2  0  0  0  0
 16 17  1  0  0  0  0
 17 11  2  0  0  0  0
 18 19  1  0  0  0  0
 20 21  2  0  0  0  0
 20 25  1  0  0  0  0
 21 22  1  0  0  0  0
 22 23  2  0  0  0  0
 24 23  1  0  0  0  0
 25 24  2  0  0  0  0
 26 27  1  0  0  0  0
 26 21  1  0  0  0  0
M  END
>  <Pose>
1

>  <Score>
-7.083

$$$$
