MODEL 1
REMARK VINA RESULT:    -7.409      0.000      0.000
REMARK INTER + INTRA:          -9.752
REMARK INTER:                  -8.925
REMARK INTRA:                  -0.826
REMARK UNBOUND:                -0.826
REMARK  4 active torsions:
REMARK  status: ('A' for Active; 'I' for Inactive)
REMARK    1  A    between atoms: C_5  and  C_8 
REMARK    2  A    between atoms: C_8  and  O_25 
REMARK    3  A    between atoms: N_15  and  C_17 
REMARK    4  A    between atoms: C_20  and  O_23 
ROOT
ATOM      1  C   UNK d   1     -36.770 -67.339  48.693  0.00  0.00     0.189 C 
ATOM      2  N   UNK d   1     -35.973 -66.166  48.953  0.00  0.00    -0.324 N 
ATOM      3  C   UNK d   1     -35.193 -65.661  50.075  0.00  0.00     0.128 C 
ATOM      4  C   UNK d   1     -34.037 -64.819  49.702  0.00  0.00     0.024 C 
ATOM      5  C   UNK d   1     -33.761 -64.701  48.224  0.00  0.00     0.032 C 
ATOM      6  C   UNK d   1     -34.973 -64.683  47.411  0.00  0.00     0.030 C 
ATOM      7  C   UNK d   1     -36.031 -65.388  47.767  0.00  0.00     0.208 C 
ATOM      8  N   UNK d   1     -37.321 -65.562  47.190  0.00  0.00     0.009 N 
ATOM      9  C   UNK d   1     -37.748 -66.847  47.651  0.00  0.00     0.316 C 
ATOM     10  H   UNK d   1     -37.185 -65.571  46.143  0.00  0.00     0.295 HD
ENDROOT
BRANCH   1  11
ATOM     11  C   UNK d   1     -37.423 -67.910  49.869  0.00  0.00    -0.001 A 
ATOM     12  C   UNK d   1     -36.775 -68.855  50.636  0.00  0.00     0.013 A 
ATOM     13  C   UNK d   1     -37.343 -69.429  51.755  0.00  0.00     0.020 A 
ATOM     14  C   UNK d   1     -38.613 -69.075  52.167  0.00  0.00     0.011 A 
ATOM     15 Br   UNK d   1     -39.421 -69.856  53.709  0.00  0.00    -0.051 Br
ATOM     16  C   UNK d   1     -39.276 -68.131  51.412  0.00  0.00     0.020 A 
ATOM     17  C   UNK d   1     -38.700 -67.561  50.292  0.00  0.00     0.013 A 
ENDBRANCH   1  11
BRANCH   1  18
ATOM     18  O   UNK d   1     -35.906 -68.313  48.152  0.00  0.00    -0.365 OA
ATOM     19  H   UNK d   1     -35.566 -68.829  48.923  0.00  0.00     0.213 HD
ENDBRANCH   1  18
BRANCH   8  20
ATOM     20  C   UNK d   1     -38.129 -64.494  47.555  0.00  0.00     0.142 A 
ATOM     21  C   UNK d   1     -38.148 -63.339  46.808  0.00  0.00     0.040 A 
ATOM     22  C   UNK d   1     -38.965 -62.259  47.179  0.00  0.00     0.039 A 
ATOM     23  C   UNK d   1     -39.766 -62.313  48.285  0.00  0.00     0.068 A 
ATOM     24  C   UNK d   1     -39.745 -63.496  49.047  0.00  0.00     0.039 A 
ATOM     25  C   UNK d   1     -38.931 -64.539  48.656  0.00  0.00     0.040 A 
BRANCH  23  26
ATOM     26  O   UNK d   1     -40.601 -61.282  48.711  0.00  0.00    -0.356 OA
ATOM     27  C   UNK d   1     -41.305 -60.400  47.898  0.00  0.00     0.210 C 
ENDBRANCH  23  26
ENDBRANCH   8  20
TORSDOF 4
ENDMDL
