MODEL 1
REMARK VINA RESULT:    -8.116      0.000      0.000
REMARK INTER + INTRA:         -12.623
REMARK INTER:                 -10.963
REMARK INTRA:                  -1.660
REMARK UNBOUND:                -1.660
REMARK  6 active torsions:
REMARK  status: ('A' for Active; 'I' for Inactive)
REMARK    1  A    between atoms: C_5  and  N_8 
REMARK    2  A    between atoms: N_8  and  C_9 
REMARK    3  A    between atoms: C_9  and  C_10 
REMARK    4  A    between atoms: N_13  and  C_15 
REMARK    5  A    between atoms: C_16  and  C_18 
REMARK    6  A    between atoms: C_21  and  O_24 
ROOT
ATOM      1  C   UNK d   1     -36.219 -67.007  49.668  0.00  0.00     0.145 A 
ATOM      2  N   UNK d   1     -35.375 -65.976  49.502  0.00  0.00    -0.321 N 
ATOM      3  C   UNK d   1     -35.916 -65.137  48.599  0.00  0.00     0.104 A 
ATOM      4  N   UNK d   1     -37.122 -65.660  48.197  0.00  0.00    -0.250 N 
ATOM      5  N   UNK d   1     -37.268 -66.791  48.866  0.00  0.00    -0.155 NA
ATOM      6  C   UNK d   1     -35.464 -63.863  48.032  0.00  0.00     0.078 C 
ATOM      7  C   UNK d   1     -33.973 -63.733  47.869  0.00  0.00     0.008 C 
ATOM      8  C   UNK d   1     -33.218 -63.819  49.155  0.00  0.00     0.002 C 
ATOM      9  C   UNK d   1     -32.997 -65.285  49.444  0.00  0.00     0.020 C 
ATOM     10  C   UNK d   1     -34.145 -65.885  50.218  0.00  0.00     0.132 C 
ENDROOT
BRANCH   4  11
ATOM     11  C   UNK d   1     -38.067 -65.119  47.304  0.00  0.00     0.221 C 
ATOM     12  C   UNK d   1     -39.368 -64.766  47.810  0.00  0.00     0.114 C 
ATOM     13  O   UNK d   1     -40.178 -64.305  46.856  0.00  0.00    -0.194 OA
BRANCH  12  14
ATOM     14  C   UNK d   1     -39.987 -64.800  49.104  0.00  0.00    -0.002 A 
ATOM     15  C   UNK d   1     -41.198 -65.499  49.301  0.00  0.00     0.017 A 
ATOM     16  C   UNK d   1     -41.835 -65.559  50.512  0.00  0.00     0.037 A 
ATOM     17  C   UNK d   1     -41.313 -64.928  51.613  0.00  0.00     0.068 A 
ATOM     18  C   UNK d   1     -40.141 -64.238  51.466  0.00  0.00     0.037 A 
ATOM     19  C   UNK d   1     -39.498 -64.185  50.216  0.00  0.00     0.017 A 
BRANCH  17  20
ATOM     20  O   UNK d   1     -41.962 -64.990  52.845  0.00  0.00    -0.356 OA
ATOM     21  C   UNK d   1     -43.304 -64.604  53.012  0.00  0.00     0.210 C 
ENDBRANCH  17  20
ENDBRANCH  12  14
ENDBRANCH   4  11
BRANCH   1  22
ATOM     22  C   UNK d   1     -36.100 -68.212  50.551  0.00  0.00     0.200 C 
BRANCH  22  23
ATOM     23  N   UNK d   1     -37.264 -69.072  50.481  0.00  0.00    -0.383 N 
ATOM     24  H   UNK d   1     -37.400 -69.730  49.683  0.00  0.00     0.160 HD
BRANCH  23  25
ATOM     25  C   UNK d   1     -38.288 -69.072  51.485  0.00  0.00     0.028 A 
ATOM     26  C   UNK d   1     -39.439 -68.336  51.308  0.00  0.00     0.030 A 
ATOM     27  C   UNK d   1     -40.415 -68.343  52.267  0.00  0.00     0.021 A 
ATOM     28  C   UNK d   1     -40.252 -69.092  53.428  0.00  0.00     0.011 A 
ATOM     29 Br   UNK d   1     -41.608 -69.103  54.759  0.00  0.00    -0.051 Br
ATOM     30  C   UNK d   1     -39.103 -69.838  53.624  0.00  0.00     0.021 A 
ATOM     31  C   UNK d   1     -38.141 -69.810  52.641  0.00  0.00     0.030 A 
ENDBRANCH  23  25
ENDBRANCH  22  23
ENDBRANCH   1  22
TORSDOF 6
ENDMDL
