/Users/jonathanwahrer/Desktop/Msc/3_Semester/Drug_Design_Praktikum/waehrer_HTS_screening/HTS_experiment/out/docking_results/vina_output/3e7o/0860_docked.pdbqt
 OpenBabel03192215573D

 29 32  0  0  1  0  0  0  0  0999 V2000
  -41.3690  -67.5240   54.6460 Br  0  0  0  0  0  0  0  0  0  0  0  0
  -40.7680  -67.2820   52.8430 C   0  0  0  0  0  0  0  0  0  0  0  0
  -40.8200  -66.0500   52.2220 C   0  0  0  0  0  3  0  0  0  0  0  0
  -40.3870  -65.8820   50.9260 C   0  0  0  0  0  0  0  0  0  0  0  0
  -39.9020  -67.0010   50.2810 C   0  0  0  0  0  0  0  0  0  0  0  0
  -39.8480  -68.2350   50.8970 C   0  0  0  0  0  3  0  0  0  0  0  0
  -40.2820  -68.3990   52.1950 C   0  0  0  0  0  0  0  0  0  0  0  0
  -40.2190  -69.7370   52.8500 C   0  0  0  0  0  1  0  0  0  0  0  0
  -39.4700  -66.8050   48.9710 O   0  0  0  0  0  0  0  0  0  0  0  0
  -39.7770  -65.6870   48.2080 C   0  0  0  0  0  2  0  0  0  0  0  0
  -39.9210  -64.4100   48.9650 C   0  0  2  0  0  0  0  0  0  0  0  0
  -40.4770  -64.5410   50.3390 C   0  0  2  0  0  3  0  0  0  0  0  0
  -40.8790  -63.6070   48.1990 N   0  0  0  0  0  4  0  0  0  0  0  0
  -40.4790  -62.2510   48.0390 C   0  0  0  0  0  2  0  0  0  0  0  0
  -41.3680  -61.6700   46.9280 C   0  0  0  0  0  2  0  0  0  0  0  0
  -42.6640  -61.6960   47.4160 O   0  0  0  0  0  0  0  0  0  0  0  0
  -43.1140  -62.9770   47.7130 C   0  0  0  0  0  2  0  0  0  0  0  0
  -42.2010  -63.6520   48.7460 C   0  0  0  0  0  2  0  0  0  0  0  0
  -40.9150  -64.0510   47.2530 H   0  0  0  0  0  0  0  0  0  0  0  0
  -38.6350  -63.6090   49.0120 C   0  0  0  0  0  2  0  0  0  0  0  0
  -37.4920  -64.3200   48.5270 N   0  0  0  0  0  4  0  0  0  0  0  0
  -37.1460  -63.9630   47.1630 C   0  0  0  0  0  2  0  0  0  0  0  0
  -35.6490  -63.7530   46.9970 C   0  0  0  0  0  2  0  0  0  0  0  0
  -35.1790  -62.6920   47.7540 O   0  0  0  0  0  0  0  0  0  0  0  0
  -35.8670  -62.5840   48.9580 C   0  0  0  0  0  2  0  0  0  0  0  0
  -36.3090  -63.9830   49.3370 C   0  0  0  0  0  2  0  0  0  0  0  0
  -37.5620  -65.3480   48.5610 H   0  0  0  0  0  0  0  0  0  0  0  0
  -39.8220  -63.6610   51.2350 O   0  0  0  0  0  0  0  0  0  0  0  0
  -39.3750  -62.9240   50.7700 H   0  0  0  0  0  0  0  0  0  0  0  0
  2  1  1  0  0  0  0
  3  2  1  0  0  0  0
  4  3  2  0  0  0  0
  5  6  2  0  0  0  0
  5  4  1  0  0  0  0
  6  7  1  0  0  0  0
  7  2  2  0  0  0  0
  7  8  1  0  0  0  0
  9  5  1  0  0  0  0
 10 11  1  0  0  0  0
 10  9  1  0  0  0  0
 11 20  1  1  0  0  0
 11 12  1  0  0  0  0
 12  4  1  0  0  0  0
 12 28  1  1  0  0  0
 13 18  1  0  0  0  0
 13 11  1  0  0  0  0
 14 13  1  0  0  0  0
 15 16  1  0  0  0  0
 15 14  1  0  0  0  0
 16 17  1  0  0  0  0
 17 18  1  0  0  0  0
 19 13  1  0  0  0  0
 21 27  1  0  0  0  0
 21 20  1  0  0  0  0
 21 26  1  0  0  0  0
 22 21  1  0  0  0  0
 23 22  1  0  0  0  0
 23 24  1  0  0  0  0
 24 25  1  0  0  0  0
 25 26  1  0  0  0  0
 29 28  1  0  0  0  0
M  END
>  <Pose>
1

>  <Score>
-7.013

$$$$
