MODEL 1
REMARK VINA RESULT:    -7.405      0.000      0.000
REMARK INTER + INTRA:         -10.396
REMARK INTER:                  -9.137
REMARK INTRA:                  -1.259
REMARK UNBOUND:                -1.259
REMARK  4 active torsions:
REMARK  status: ('A' for Active; 'I' for Inactive)
REMARK    1  A    between atoms: C_12  and  C_15 
REMARK    2  A    between atoms: C_12  and  C_23 
REMARK    3  A    between atoms: C_15  and  N_16 
REMARK    4  A    between atoms: C_23  and  N_24 
ROOT
ATOM      1 Br   UNK d   1     -37.821 -70.107  50.641  0.00  0.00    -0.048 Br
ATOM      2  C   UNK d   1     -38.939 -68.763  51.426  0.00  0.00     0.052 A 
ATOM      3  C   UNK d   1     -39.309 -67.664  50.688  0.00  0.00     0.100 A 
ATOM      4  C   UNK d   1     -40.127 -66.656  51.226  0.00  0.00     0.047 A 
ATOM      5  C   UNK d   1     -40.538 -66.830  52.529  0.00  0.00     0.038 A 
ATOM      6  C   UNK d   1     -40.182 -67.921  53.291  0.00  0.00     0.019 A 
ATOM      7  C   UNK d   1     -39.380 -68.896  52.742  0.00  0.00    -0.024 A 
ATOM      8  C   UNK d   1     -38.942 -70.108  53.481  0.00  0.00     0.051 C 
ATOM      9 Br   UNK d   1     -40.767 -68.135  55.095  0.00  0.00    -0.051 Br
ATOM     10  C   UNK d   1     -40.490 -65.514  50.414  0.00  0.00     0.176 C 
ATOM     11  O   UNK d   1     -41.291 -64.676  50.841  0.00  0.00    -0.291 OA
ATOM     12  C   UNK d   1     -39.895 -65.359  49.074  0.00  0.00     0.095 C 
ATOM     13  C   UNK d   1     -39.687 -66.749  48.514  0.00  0.00     0.197 C 
ATOM     14  O   UNK d   1     -38.874 -67.525  49.374  0.00  0.00    -0.347 OA
ENDROOT
BRANCH  12  15
ATOM     15  C   UNK d   1     -40.709 -64.506  48.149  0.00  0.00     0.256 C 
BRANCH  15  16
ATOM     16  N   UNK d   1     -41.009 -63.204  48.606  0.00  0.00    -0.069 N 
ATOM     17  C   UNK d   1     -40.258 -62.238  47.861  0.00  0.00     0.239 C 
ATOM     18  C   UNK d   1     -40.690 -62.051  46.450  0.00  0.00     0.007 C 
ATOM     19  C   UNK d   1     -41.954 -62.705  46.048  0.00  0.00     0.007 C 
ATOM     20  C   UNK d   1     -39.577 -62.598  45.549  0.00  0.00     0.011 C 
ATOM     21  C   UNK d   1     -42.911 -63.025  47.129  0.00  0.00     0.028 C 
ATOM     22  C   UNK d   1     -42.389 -62.813  48.520  0.00  0.00     0.235 C 
ATOM     23  H   UNK d   1     -40.727 -63.104  49.614  0.00  0.00     0.279 HD
ENDBRANCH  15  16
ENDBRANCH  12  15
BRANCH  12  24
ATOM     24  C   UNK d   1     -38.533 -64.732  49.292  0.00  0.00     0.256 C 
BRANCH  24  25
ATOM     25  N   UNK d   1     -37.508 -65.183  48.414  0.00  0.00    -0.069 N 
ATOM     26  C   UNK d   1     -36.352 -65.644  49.180  0.00  0.00     0.239 C 
ATOM     27  C   UNK d   1     -35.248 -64.629  49.225  0.00  0.00     0.007 C 
ATOM     28  C   UNK d   1     -35.834 -63.251  49.434  0.00  0.00     0.007 C 
ATOM     29  C   UNK d   1     -34.409 -64.934  50.473  0.00  0.00     0.011 C 
ATOM     30  C   UNK d   1     -36.616 -62.896  48.207  0.00  0.00     0.028 C 
ATOM     31  C   UNK d   1     -37.017 -64.170  47.506  0.00  0.00     0.235 C 
ATOM     32  H   UNK d   1     -37.829 -65.984  47.864  0.00  0.00     0.279 HD
ENDBRANCH  24  25
ENDBRANCH  12  24
TORSDOF 4
ENDMDL
