MODEL 1
REMARK VINA RESULT:    -6.544      0.000      0.000
REMARK INTER + INTRA:          -9.209
REMARK INTER:                  -8.074
REMARK INTRA:                  -1.134
REMARK UNBOUND:                -1.134
REMARK  4 active torsions:
REMARK  status: ('A' for Active; 'I' for Inactive)
REMARK    1  A    between atoms: C_12  and  C_15 
REMARK    2  A    between atoms: C_12  and  C_22 
REMARK    3  A    between atoms: C_15  and  N_16 
REMARK    4  A    between atoms: C_22  and  N_23 
ROOT
ATOM      1 Br   UNK d   1     -41.676 -65.901  50.910  0.00  0.00    -0.048 Br
ATOM      2  C   UNK d   1     -40.230 -67.092  51.139  0.00  0.00     0.052 A 
ATOM      3  C   UNK d   1     -39.299 -67.174  50.132  0.00  0.00     0.100 A 
ATOM      4  C   UNK d   1     -38.181 -68.023  50.188  0.00  0.00     0.047 A 
ATOM      5  C   UNK d   1     -38.007 -68.825  51.323  0.00  0.00     0.038 A 
ATOM      6  C   UNK d   1     -38.948 -68.732  52.324  0.00  0.00     0.019 A 
ATOM      7  C   UNK d   1     -40.042 -67.889  52.249  0.00  0.00    -0.024 A 
ATOM      8  C   UNK d   1     -41.052 -67.812  53.358  0.00  0.00     0.051 C 
ATOM      9 Br   UNK d   1     -38.708 -69.822  53.869  0.00  0.00    -0.051 Br
ATOM     10  C   UNK d   1     -37.234 -68.073  49.090  0.00  0.00     0.176 C 
ATOM     11  O   UNK d   1     -36.671 -69.178  48.890  0.00  0.00    -0.291 OA
ATOM     12  C   UNK d   1     -37.025 -66.832  48.321  0.00  0.00     0.095 C 
ATOM     13  C   UNK d   1     -38.529 -66.539  47.876  0.00  0.00     0.197 C 
ATOM     14  O   UNK d   1     -39.370 -66.432  48.967  0.00  0.00    -0.347 OA
ENDROOT
BRANCH  12  15
ATOM     15  C   UNK d   1     -36.271 -66.937  47.088  0.00  0.00     0.256 C 
BRANCH  15  16
ATOM     16  N   UNK d   1     -34.973 -67.385  46.897  0.00  0.00    -0.070 N 
ATOM     17  C   UNK d   1     -33.962 -67.250  47.871  0.00  0.00     0.235 C 
ATOM     18  C   UNK d   1     -32.557 -67.162  47.287  0.00  0.00     0.028 C 
ATOM     19  C   UNK d   1     -32.365 -65.915  46.485  0.00  0.00     0.003 C 
ATOM     20  C   UNK d   1     -33.661 -65.585  45.811  0.00  0.00     0.028 C 
ATOM     21  C   UNK d   1     -34.456 -66.835  45.625  0.00  0.00     0.235 C 
ATOM     22  H   UNK d   1     -34.962 -68.457  46.630  0.00  0.00     0.279 HD
ENDBRANCH  15  16
ENDBRANCH  12  15
BRANCH  12  23
ATOM     23  C   UNK d   1     -36.619 -65.735  49.229  0.00  0.00     0.256 C 
BRANCH  23  24
ATOM     24  N   UNK d   1     -35.903 -64.628  48.751  0.00  0.00    -0.070 N 
ATOM     25  C   UNK d   1     -36.752 -63.437  48.887  0.00  0.00     0.235 C 
ATOM     26  C   UNK d   1     -36.192 -62.248  48.135  0.00  0.00     0.028 C 
ATOM     27  C   UNK d   1     -34.871 -61.900  48.839  0.00  0.00     0.003 C 
ATOM     28  C   UNK d   1     -34.021 -63.139  48.669  0.00  0.00     0.028 C 
ATOM     29  C   UNK d   1     -34.689 -64.272  49.466  0.00  0.00     0.235 C 
ATOM     30  H   UNK d   1     -35.626 -64.613  47.748  0.00  0.00     0.279 HD
ENDBRANCH  23  24
ENDBRANCH  12  23
TORSDOF 4
ENDMDL
