/Users/jonathanwahrer/Desktop/Msc/3_Semester/Drug_Design_Praktikum/waehrer_HTS_screening/HTS_experiment/out/docking_results/vina_output/3e7o/0865_docked.pdbqt
 OpenBabel03192215583D

 30 33  0  0  0  0  0  0  0  0999 V2000
  -45.1850  -65.8670   53.9110 C   0  0  0  0  0  0  0  0  0  0  0  0
  -46.2980  -66.6310   53.9680 N   0  0  0  0  0  4  0  0  0  0  0  0
  -47.2960  -66.5440   53.0550 C   0  0  0  0  0  0  0  0  0  0  0  0
  -47.1320  -65.6500   52.0770 N   0  0  0  0  0  0  0  0  0  0  0  0
  -46.0540  -64.8570   51.9580 C   0  0  0  0  0  0  0  0  0  0  0  0
  -45.0980  -64.9920   52.8940 N   0  0  0  0  0  2  0  0  0  0  0  0
  -44.1830  -66.0110   54.8970 N   0  0  0  0  0  0  0  0  0  0  0  0
  -44.3630  -65.6700   55.8560 H   0  0  0  0  0  0  0  0  0  0  0  0
  -42.9650  -66.6010   54.5900 N   0  0  0  0  0  0  0  0  0  0  0  0
  -42.8270  -67.8420   54.2860 C   0  0  0  0  0  3  0  0  0  0  0  0
  -41.5150  -68.3910   53.9740 C   0  0  0  0  0  0  0  0  0  0  0  0
  -40.8560  -68.1020   52.7900 C   0  0  0  0  0  3  0  0  0  0  0  0
  -39.6130  -68.6240   52.4990 C   0  0  0  0  0  0  0  0  0  0  0  0
  -38.9740  -69.4650   53.3870 C   0  0  0  0  0  0  0  0  0  0  0  0
  -38.7290  -68.2080   50.8580 Br  0  0  0  0  0  0  0  0  0  0  0  0
  -37.7470  -69.9910   53.1200 F   0  0  0  0  0  0  0  0  0  0  0  0
  -39.6170  -69.7600   54.5660 C   0  0  0  0  0  3  0  0  0  0  0  0
  -40.8680  -69.2320   54.8550 C   0  0  0  0  0  3  0  0  0  0  0  0
  -48.4470  -67.3750   53.1620 N   0  0  0  0  0  0  0  0  0  0  0  0
  -48.6050  -68.4170   54.1500 C   0  0  0  0  0  2  0  0  0  0  0  0
  -48.9280  -69.6600   53.3230 C   0  0  0  0  0  2  0  0  0  0  0  0
  -50.1410  -69.5090   52.7590 O   0  0  0  0  0  0  0  0  0  0  0  0
  -50.4630  -68.3620   52.1460 C   0  0  0  0  0  3  0  0  0  0  0  0
  -49.5520  -67.2040   52.2490 C   0  0  0  0  0  3  0  0  0  0  0  0
  -45.9480  -63.9270   50.8880 N   0  0  0  0  0  0  0  0  0  0  0  0
  -44.6380  -63.4220   50.5240 C   0  0  0  0  0  2  0  0  0  0  0  0
  -44.7790  -62.4230   49.3980 C   0  0  0  0  0  2  0  0  0  0  0  0
  -45.5450  -62.8540   48.3520 O   0  0  0  0  0  0  0  0  0  0  0  0
  -46.6900  -63.5350   48.6670 C   0  0  0  0  0  2  0  0  0  0  0  0
  -47.0680  -63.4460   50.1350 C   0  0  0  0  0  2  0  0  0  0  0  0
  1  2  2  0  0  0  0
  1  7  1  0  0  0  0
  3 19  1  0  0  0  0
  3  2  2  0  0  0  0
  4  3  1  0  0  0  0
  5  4  2  0  0  0  0
  5  6  1  0  0  0  0
  6  1  1  0  0  0  0
  7  8  1  0  0  0  0
  9  7  1  0  0  0  0
 10  9  2  0  0  0  0
 11 10  1  0  0  0  0
 11 18  1  0  0  0  0
 12 11  2  0  0  0  0
 13 12  1  0  0  0  0
 13 14  2  0  0  0  0
 14 17  1  0  0  0  0
 15 13  1  0  0  0  0
 16 14  1  0  0  0  0
 17 18  2  0  0  0  0
 19 20  1  0  0  0  0
 21 20  1  0  0  0  0
 22 21  1  0  0  0  0
 23 24  2  0  0  0  0
 23 22  1  0  0  0  0
 24 19  1  0  0  0  0
 25  5  1  0  0  0  0
 26 25  1  0  0  0  0
 27 26  1  0  0  0  0
 28 29  1  0  0  0  0
 28 27  1  0  0  0  0
 29 30  1  0  0  0  0
 30 25  1  0  0  0  0
M  END
>  <Pose>
1

>  <Score>
-7.827

$$$$
