MODEL 1
REMARK VINA RESULT:    -8.502      0.000      0.000
REMARK INTER + INTRA:         -11.446
REMARK INTER:                 -10.490
REMARK INTRA:                  -0.955
REMARK UNBOUND:                -0.955
REMARK  4 active torsions:
REMARK  status: ('A' for Active; 'I' for Inactive)
REMARK    1  A    between atoms: C_3  and  N_9 
REMARK       I    between atoms: N_9  and  C_10 
REMARK    2  A    between atoms: C_10  and  C_12 
REMARK    3  A    between atoms: C_12  and  N_13 
REMARK    4  A    between atoms: N_20  and  C_23 
ROOT
ATOM      1  N   UNK d   1     -36.317 -69.126  51.021  0.00  0.00    -0.261 N 
ATOM      2  N   UNK d   1     -35.255 -69.462  51.731  0.00  0.00    -0.239 N 
ATOM      3  N   UNK d   1     -34.381 -68.486  51.560  0.00  0.00    -0.279 N 
ATOM      4  C   UNK d   1     -34.874 -67.529  50.747  0.00  0.00     0.152 A 
ATOM      5  C   UNK d   1     -36.105 -67.947  50.411  0.00  0.00     0.155 A 
ATOM      6  C   UNK d   1     -36.592 -66.963  49.583  0.00  0.00     0.286 A 
ATOM      7  O   UNK d   1     -37.732 -66.979  49.046  0.00  0.00    -0.265 OA
ATOM      8  N   UNK d   1     -35.699 -65.968  49.408  0.00  0.00    -0.241 N 
ATOM      9  C   UNK d   1     -34.623 -66.315  50.133  0.00  0.00     0.286 A 
ATOM     10  O   UNK d   1     -33.566 -65.639  50.231  0.00  0.00    -0.265 OA
ATOM     11  H   UNK d   1     -35.118 -70.332  52.322  0.00  0.00     0.208 HD
ATOM     12  H   UNK d   1     -33.431 -68.491  52.017  0.00  0.00     0.189 HD
ENDROOT
BRANCH   1  13
ATOM     13  C   UNK d   1     -37.512 -69.937  50.945  0.00  0.00     0.254 C 
BRANCH  13  14
ATOM     14  C   UNK d   1     -38.473 -69.503  52.034  0.00  0.00     0.242 C 
ATOM     15  N   UNK d   1     -39.628 -68.808  51.686  0.00  0.00    -0.323 N 
ATOM     16  H   UNK d   1     -39.763 -68.624  50.633  0.00  0.00     0.169 HD
ATOM     17  O   UNK d   1     -38.166 -69.798  53.193  0.00  0.00    -0.271 OA
BRANCH  15  18
ATOM     18  C   UNK d   1     -40.598 -68.348  52.590  0.00  0.00     0.073 A 
ATOM     19  C   UNK d   1     -41.041 -67.020  52.476  0.00  0.00     0.145 A 
ATOM     20  F   UNK d   1     -40.498 -66.257  51.488  0.00  0.00    -0.204 F 
ATOM     21  C   UNK d   1     -41.987 -66.531  53.340  0.00  0.00     0.086 A 
ATOM     22  C   UNK d   1     -42.519 -67.327  54.332  0.00  0.00     0.119 A 
ATOM     23  C   UNK d   1     -42.112 -68.633  54.476  0.00  0.00     0.044 A 
ATOM     24  F   UNK d   1     -43.451 -66.806  55.164  0.00  0.00    -0.206 F 
ATOM     25  C   UNK d   1     -41.137 -69.114  53.575  0.00  0.00     0.036 A 
ENDBRANCH  15  18
ENDBRANCH  13  14
ENDBRANCH   1  13
BRANCH   8  26
ATOM     26  C   UNK d   1     -35.900 -64.793  48.603  0.00  0.00     0.046 A 
ATOM     27  C   UNK d   1     -36.296 -63.602  49.178  0.00  0.00     0.031 A 
ATOM     28  C   UNK d   1     -36.501 -62.451  48.445  0.00  0.00     0.021 A 
ATOM     29  C   UNK d   1     -36.292 -62.528  47.082  0.00  0.00     0.011 A 
ATOM     30  C   UNK d   1     -35.895 -63.694  46.450  0.00  0.00     0.021 A 
ATOM     31 Br   UNK d   1     -36.583 -60.913  46.082  0.00  0.00    -0.051 Br
ATOM     32  C   UNK d   1     -35.708 -64.809  47.242  0.00  0.00     0.031 A 
ENDBRANCH   8  26
TORSDOF 4
ENDMDL
