/Users/jonathanwahrer/Desktop/Msc/3_Semester/Drug_Design_Praktikum/waehrer_HTS_screening/HTS_experiment/out/docking_results/vina_output/3e7o/0872_docked.pdbqt
 OpenBabel03192215583D

 32 35  0  0  0  0  0  0  0  0999 V2000
  -36.3170  -69.1260   51.0210 N   0  0  0  0  0  0  0  0  0  0  0  0
  -35.2550  -69.4620   51.7310 N   0  0  0  0  0  0  0  0  0  0  0  0
  -34.3810  -68.4860   51.5600 N   0  0  0  0  0  0  0  0  0  0  0  0
  -34.8740  -67.5290   50.7470 C   0  0  0  0  0  0  0  0  0  0  0  0
  -36.1050  -67.9470   50.4110 C   0  0  0  0  0  0  0  0  0  0  0  0
  -36.5920  -66.9630   49.5830 C   0  0  0  0  0  0  0  0  0  0  0  0
  -37.7320  -66.9790   49.0460 O   0  0  0  0  0  0  0  0  0  0  0  0
  -35.6990  -65.9680   49.4080 N   0  0  0  0  0  0  0  0  0  0  0  0
  -34.6230  -66.3150   50.1330 C   0  0  0  0  0  0  0  0  0  0  0  0
  -33.5660  -65.6390   50.2310 O   0  0  0  0  0  0  0  0  0  0  0  0
  -35.1180  -70.3320   52.3220 H   0  0  0  0  0  0  0  0  0  0  0  0
  -33.4310  -68.4910   52.0170 H   0  0  0  0  0  0  0  0  0  0  0  0
  -37.5120  -69.9370   50.9450 C   0  0  0  0  0  2  0  0  0  0  0  0
  -38.4730  -69.5030   52.0340 C   0  0  0  0  0  0  0  0  0  0  0  0
  -39.6280  -68.8080   51.6860 N   0  0  0  0  0  0  0  0  0  0  0  0
  -39.7630  -68.6240   50.6330 H   0  0  0  0  0  0  0  0  0  0  0  0
  -38.1660  -69.7980   53.1930 O   0  0  0  0  0  0  0  0  0  0  0  0
  -40.5980  -68.3480   52.5900 C   0  0  0  0  0  0  0  0  0  0  0  0
  -41.0410  -67.0200   52.4760 C   0  0  0  0  0  0  0  0  0  0  0  0
  -40.4980  -66.2570   51.4880 F   0  0  0  0  0  0  0  0  0  0  0  0
  -41.9870  -66.5310   53.3400 C   0  0  0  0  0  3  0  0  0  0  0  0
  -42.5190  -67.3270   54.3320 C   0  0  0  0  0  0  0  0  0  0  0  0
  -42.1120  -68.6330   54.4760 C   0  0  0  0  0  3  0  0  0  0  0  0
  -43.4510  -66.8060   55.1640 F   0  0  0  0  0  0  0  0  0  0  0  0
  -41.1370  -69.1140   53.5750 C   0  0  0  0  0  3  0  0  0  0  0  0
  -35.9000  -64.7930   48.6030 C   0  0  0  0  0  0  0  0  0  0  0  0
  -36.2960  -63.6020   49.1780 C   0  0  0  0  0  3  0  0  0  0  0  0
  -36.5010  -62.4510   48.4450 C   0  0  0  0  0  3  0  0  0  0  0  0
  -36.2920  -62.5280   47.0820 C   0  0  0  0  0  0  0  0  0  0  0  0
  -35.8950  -63.6940   46.4500 C   0  0  0  0  0  3  0  0  0  0  0  0
  -36.5830  -60.9130   46.0820 Br  0  0  0  0  0  0  0  0  0  0  0  0
  -35.7080  -64.8090   47.2420 C   0  0  0  0  0  3  0  0  0  0  0  0
  1  2  1  0  0  0  0
  2 11  1  0  0  0  0
  3  2  1  0  0  0  0
  3 12  1  0  0  0  0
  4  3  1  0  0  0  0
  5  4  2  0  0  0  0
  5  1  1  0  0  0  0
  6  5  1  0  0  0  0
  7  6  2  0  0  0  0
  8  6  1  0  0  0  0
  8  9  1  0  0  0  0
  9 10  2  0  0  0  0
  9  4  1  0  0  0  0
 13  1  1  0  0  0  0
 13 14  1  0  0  0  0
 14 17  2  0  0  0  0
 15 14  1  0  0  0  0
 15 18  1  0  0  0  0
 16 15  1  0  0  0  0
 18 25  1  0  0  0  0
 19 18  2  0  0  0  0
 19 21  1  0  0  0  0
 20 19  1  0  0  0  0
 21 22  2  0  0  0  0
 22 23  1  0  0  0  0
 22 24  1  0  0  0  0
 25 23  2  0  0  0  0
 26 27  1  0  0  0  0
 26  8  1  0  0  0  0
 28 27  2  0  0  0  0
 29 28  1  0  0  0  0
 30 29  2  0  0  0  0
 30 32  1  0  0  0  0
 31 29  1  0  0  0  0
 32 26  2  0  0  0  0
M  END
>  <Pose>
1

>  <Score>
-8.502

$$$$
