MODEL 1
REMARK VINA RESULT:    -7.065      0.000      0.000
REMARK INTER + INTRA:          -9.859
REMARK INTER:                  -9.130
REMARK INTRA:                  -0.729
REMARK UNBOUND:                -0.729
REMARK  5 active torsions:
REMARK  status: ('A' for Active; 'I' for Inactive)
REMARK    1  A    between atoms: C_3  and  C_8 
REMARK    2  A    between atoms: N_9  and  C_24 
REMARK    3  A    between atoms: C_15  and  C_17 
REMARK    4  A    between atoms: C_24  and  C_25 
REMARK    5  A    between atoms: C_25  and  N_26 
ROOT
ATOM      1  C   UNK d   1     -36.872 -66.232  49.437  0.00  0.00     0.164 C 
ATOM      2  N   UNK d   1     -37.703 -66.728  48.351  0.00  0.00    -0.330 N 
ATOM      3  C   UNK d   1     -36.708 -67.232  47.436  0.00  0.00     0.295 C 
ATOM      4  O   UNK d   1     -36.797 -68.196  46.630  0.00  0.00    -0.264 OA
ATOM      5  C   UNK d   1     -35.472 -66.411  47.576  0.00  0.00     0.250 C 
ATOM      6  O   UNK d   1     -34.378 -66.458  47.016  0.00  0.00    -0.282 OA
ATOM      7  C   UNK d   1     -35.874 -65.431  48.628  0.00  0.00     0.062 C 
ATOM      8  C   UNK d   1     -35.435 -64.205  48.774  0.00  0.00     0.130 C 
ATOM      9  O   UNK d   1     -35.921 -63.423  49.840  0.00  0.00    -0.190 OA
ENDROOT
BRANCH   2  10
ATOM     10  C   UNK d   1     -39.081 -66.776  48.109  0.00  0.00     0.155 C 
BRANCH  10  11
ATOM     11  C   UNK d   1     -39.918 -65.557  48.263  0.00  0.00     0.255 C 
BRANCH  11  12
ATOM     12  N   UNK d   1     -40.736 -65.547  49.442  0.00  0.00    -0.066 N 
ATOM     13  C   UNK d   1     -40.087 -64.743  50.456  0.00  0.00     0.261 C 
ATOM     14  C   UNK d   1     -40.973 -64.606  51.682  0.00  0.00     0.195 C 
ATOM     15  O   UNK d   1     -41.239 -65.864  52.188  0.00  0.00    -0.388 OA
ATOM     16  C   UNK d   1     -41.827 -66.669  51.216  0.00  0.00     0.195 C 
ATOM     17  C   UNK d   1     -40.848 -66.887  50.054  0.00  0.00     0.261 C 
ATOM     18  H   UNK d   1     -41.728 -65.283  49.271  0.00  0.00     0.280 HD
ENDBRANCH  11  12
ENDBRANCH  10  11
ENDBRANCH   2  10
BRANCH   1  19
ATOM     19  C   UNK d   1     -36.135 -67.272  50.171  0.00  0.00     0.008 A 
ATOM     20  C   UNK d   1     -36.715 -68.451  50.592  0.00  0.00     0.125 A 
ATOM     21  F   UNK d   1     -37.982 -68.738  50.337  0.00  0.00    -0.205 F 
ATOM     22  C   UNK d   1     -35.988 -69.402  51.314  0.00  0.00     0.043 A 
ATOM     23  C   UNK d   1     -34.683 -69.203  51.625  0.00  0.00     0.003 A 
ATOM     24  C   UNK d   1     -34.073 -68.048  51.225  0.00  0.00     0.001 A 
ATOM     25  C   UNK d   1     -34.814 -67.118  50.513  0.00  0.00     0.012 A 
ENDBRANCH   1  19
BRANCH   8  26
ATOM     26  C   UNK d   1     -34.460 -63.624  47.863  0.00  0.00     0.001 A 
ATOM     27  C   UNK d   1     -34.897 -63.076  46.677  0.00  0.00     0.015 A 
ATOM     28  C   UNK d   1     -34.021 -62.531  45.752  0.00  0.00     0.020 A 
ATOM     29  C   UNK d   1     -32.667 -62.527  46.011  0.00  0.00     0.011 A 
ATOM     30  C   UNK d   1     -32.213 -63.063  47.176  0.00  0.00     0.020 A 
ATOM     31 Br   UNK d   1     -31.425 -61.775  44.742  0.00  0.00    -0.051 Br
ATOM     32  C   UNK d   1     -33.112 -63.614  48.107  0.00  0.00     0.015 A 
ENDBRANCH   8  26
TORSDOF 5
ENDMDL
