/Users/jonathanwahrer/Desktop/Msc/3_Semester/Drug_Design_Praktikum/waehrer_HTS_screening/HTS_experiment/out/docking_results/vina_output/3e7o/0874_docked.pdbqt
 OpenBabel03192215593D

 31 34  0  0  0  0  0  0  0  0999 V2000
  -44.8580  -65.9350   53.9220 N   0  0  0  0  0  0  0  0  0  0  0  0
  -45.9860  -66.6050   54.0030 N   0  0  0  0  0  0  0  0  0  0  0  0
  -46.7810  -66.2940   52.9890 N   0  0  0  0  0  0  0  0  0  0  0  0
  -46.1420  -65.3850   52.2200 C   0  0  0  0  0  0  0  0  0  0  0  0
  -44.9760  -65.1770   52.7980 C   0  0  0  0  0  0  0  0  0  0  0  0
  -44.3190  -64.2450   52.0110 C   0  0  0  0  0  0  0  0  0  0  0  0
  -43.1750  -63.8030   52.2520 O   0  0  0  0  0  0  0  0  0  0  0  0
  -45.0750  -63.8850   50.9580 N   0  0  0  0  0  0  0  0  0  0  0  0
  -46.2110  -64.5950   51.0880 C   0  0  0  0  0  0  0  0  0  0  0  0
  -47.1890  -64.5560   50.3100 O   0  0  0  0  0  0  0  0  0  0  0  0
  -46.1980  -67.2860   54.7770 H   0  0  0  0  0  0  0  0  0  0  0  0
  -47.7380  -66.6830   52.8110 H   0  0  0  0  0  0  0  0  0  0  0  0
  -43.7150  -65.9680   54.8150 C   0  0  0  0  0  2  0  0  0  0  0  0
  -42.9070  -67.1910   54.5470 C   0  0  0  0  0  0  0  0  0  0  0  0
  -41.6500  -67.1140   53.9550 N   0  0  0  0  0  0  0  0  0  0  0  0
  -41.3150  -66.1240   53.7110 H   0  0  0  0  0  0  0  0  0  0  0  0
  -43.4210  -68.2700   54.8830 O   0  0  0  0  0  0  0  0  0  0  0  0
  -40.7630  -68.1810   53.6380 C   0  0  0  0  0  0  0  0  0  0  0  0
  -40.1650  -68.9120   54.6770 C   0  0  0  0  0  0  0  0  0  0  0  0
  -40.4620  -68.5650   55.9630 F   0  0  0  0  0  0  0  0  0  0  0  0
  -39.3020  -69.9510   54.4400 C   0  0  0  0  0  3  0  0  0  0  0  0
  -38.9810  -70.3260   53.1560 C   0  0  0  0  0  3  0  0  0  0  0  0
  -39.5590  -69.6190   52.1430 C   0  0  0  0  0  3  0  0  0  0  0  0
  -40.4340  -68.5670   52.3640 C   0  0  0  0  0  3  0  0  0  0  0  0
  -44.7280  -62.9510   49.9370 C   0  0  0  0  0  0  0  0  0  0  0  0
  -45.3780  -61.7370   49.8270 C   0  0  0  0  0  3  0  0  0  0  0  0
  -45.0540  -60.8210   48.8460 C   0  0  0  0  0  3  0  0  0  0  0  0
  -44.0590  -61.0850   47.9270 C   0  0  0  0  0  0  0  0  0  0  0  0
  -43.3970  -62.2920   48.0170 C   0  0  0  0  0  3  0  0  0  0  0  0
  -43.5890  -59.8360   46.5570 Br  0  0  0  0  0  0  0  0  0  0  0  0
  -43.7360  -63.1940   49.0060 C   0  0  0  0  0  3  0  0  0  0  0  0
  1  2  1  0  0  0  0
  1 13  1  0  0  0  0
  2 11  1  0  0  0  0
  3  2  1  0  0  0  0
  4  5  2  0  0  0  0
  4  3  1  0  0  0  0
  5  1  1  0  0  0  0
  6  7  2  0  0  0  0
  6  5  1  0  0  0  0
  8  9  1  0  0  0  0
  8  6  1  0  0  0  0
  9  4  1  0  0  0  0
 10  9  2  0  0  0  0
 12  3  1  0  0  0  0
 14 13  1  0  0  0  0
 14 17  2  0  0  0  0
 15 14  1  0  0  0  0
 16 15  1  0  0  0  0
 18 15  1  0  0  0  0
 18 19  1  0  0  0  0
 19 20  1  0  0  0  0
 21 19  2  0  0  0  0
 22 21  1  0  0  0  0
 23 24  1  0  0  0  0
 23 22  2  0  0  0  0
 24 18  2  0  0  0  0
 25  8  1  0  0  0  0
 26 25  1  0  0  0  0
 27 26  2  0  0  0  0
 28 29  2  0  0  0  0
 28 27  1  0  0  0  0
 29 31  1  0  0  0  0
 30 28  1  0  0  0  0
 31 25  2  0  0  0  0
M  END
>  <Pose>
1

>  <Score>
-8.421

$$$$
