MODEL 1
REMARK VINA RESULT:    -8.509      0.000      0.000
REMARK INTER + INTRA:         -11.174
REMARK INTER:                 -10.499
REMARK INTRA:                  -0.675
REMARK UNBOUND:                -0.675
REMARK  4 active torsions:
REMARK  status: ('A' for Active; 'I' for Inactive)
REMARK    1  A    between atoms: C_5  and  N_8 
REMARK    2  A    between atoms: N_15  and  C_16 
REMARK    3  A    between atoms: C_16  and  C_17 
REMARK       I    between atoms: C_17  and  N_19 
REMARK    4  A    between atoms: N_19  and  C_20 
ROOT
ATOM      1  N   UNK d   1     -41.585 -67.558  53.238  0.00  0.00    -0.241 N 
ATOM      2  C   UNK d   1     -40.776 -67.929  52.231  0.00  0.00     0.286 A 
ATOM      3  O   UNK d   1     -40.928 -67.478  51.063  0.00  0.00    -0.265 OA
ATOM      4  C   UNK d   1     -39.809 -68.827  52.642  0.00  0.00     0.155 A 
ATOM      5  C   UNK d   1     -40.041 -69.006  53.940  0.00  0.00     0.152 A 
ATOM      6  N   UNK d   1     -39.126 -69.875  54.380  0.00  0.00    -0.279 N 
ATOM      7  N   UNK d   1     -38.353 -70.218  53.367  0.00  0.00    -0.239 N 
ATOM      8  N   UNK d   1     -38.749 -69.585  52.266  0.00  0.00    -0.261 N 
ATOM      9  C   UNK d   1     -41.121 -68.238  54.317  0.00  0.00     0.286 A 
ATOM     10  O   UNK d   1     -41.657 -68.124  55.456  0.00  0.00    -0.265 OA
ATOM     11  H   UNK d   1     -39.066 -70.206  55.382  0.00  0.00     0.189 HD
ATOM     12  H   UNK d   1     -37.560 -70.873  53.400  0.00  0.00     0.208 HD
ENDROOT
BRANCH   8  13
ATOM     13  C   UNK d   1     -38.208 -69.646  50.940  0.00  0.00     0.254 C 
BRANCH  13  14
ATOM     14  C   UNK d   1     -36.915 -68.979  50.751  0.00  0.00     0.242 C 
ATOM     15  O   UNK d   1     -35.959 -69.381  51.432  0.00  0.00    -0.271 OA
ATOM     16  N   UNK d   1     -36.780 -67.933  49.834  0.00  0.00    -0.326 N 
ATOM     17  H   UNK d   1     -37.658 -67.637  49.272  0.00  0.00     0.169 HD
BRANCH  16  18
ATOM     18  C   UNK d   1     -35.633 -67.171  49.510  0.00  0.00     0.034 A 
ATOM     19  C   UNK d   1     -35.082 -66.271  50.391  0.00  0.00     0.031 A 
ATOM     20  C   UNK d   1     -33.951 -65.500  50.107  0.00  0.00     0.021 A 
ATOM     21  C   UNK d   1     -33.384 -65.678  48.871  0.00  0.00     0.011 A 
ATOM     22  C   UNK d   1     -33.914 -66.570  47.972  0.00  0.00     0.021 A 
ATOM     23 Br   UNK d   1     -31.820 -64.648  48.411  0.00  0.00    -0.051 Br
ATOM     24  C   UNK d   1     -35.024 -67.314  48.275  0.00  0.00     0.031 A 
ENDBRANCH  16  18
ENDBRANCH  13  14
ENDBRANCH   8  13
BRANCH   1  25
ATOM     25  C   UNK d   1     -42.694 -66.661  53.204  0.00  0.00     0.046 A 
ATOM     26  C   UNK d   1     -42.595 -65.320  52.910  0.00  0.00     0.033 A 
ATOM     27  C   UNK d   1     -43.715 -64.485  52.898  0.00  0.00     0.044 A 
ATOM     28  C   UNK d   1     -44.952 -64.988  53.185  0.00  0.00     0.116 A 
ATOM     29  F   UNK d   1     -46.041 -64.163  53.172  0.00  0.00    -0.206 F 
ATOM     30  C   UNK d   1     -45.074 -66.326  53.482  0.00  0.00     0.044 A 
ATOM     31  C   UNK d   1     -43.963 -67.139  53.490  0.00  0.00     0.033 A 
ENDBRANCH   1  25
TORSDOF 4
ENDMDL
