MODEL 1
REMARK VINA RESULT:    -7.650      0.000      0.000
REMARK INTER + INTRA:          -8.029
REMARK INTER:                  -8.097
REMARK INTRA:                   0.068
REMARK UNBOUND:                 0.068
REMARK  1 active torsions:
REMARK  status: ('A' for Active; 'I' for Inactive)
REMARK    1  A    between atoms: C_4  and  C_9 
ROOT
ATOM      1  C   UNK d   1     -40.801 -66.542  49.011  0.00  0.00     0.222 C 
ATOM      2  N   UNK d   1     -39.764 -66.914  48.076  0.00  0.00    -0.358 N 
ATOM      3  C   UNK d   1     -38.466 -66.320  48.186  0.00  0.00     0.088 A 
ATOM      4  S   UNK d   1     -36.878 -66.832  47.700  0.00  0.00    -0.074 SA
ATOM      5  C   UNK d   1     -35.978 -65.493  48.237  0.00  0.00     0.018 A 
ATOM      6  C   UNK d   1     -36.924 -64.692  48.777  0.00  0.00    -0.023 A 
ATOM      7  C   UNK d   1     -38.201 -65.108  48.755  0.00  0.00     0.073 A 
ATOM      8  C   UNK d   1     -39.446 -64.461  49.258  0.00  0.00     0.256 C 
ATOM      9  O   UNK d   1     -39.415 -63.337  49.811  0.00  0.00    -0.267 OA
ATOM     10  N   UNK d   1     -40.701 -65.096  49.123  0.00  0.00    -0.331 N 
ATOM     11  C   UNK d   1     -36.390 -63.385  49.350  0.00  0.00     0.068 C 
ATOM     12  C   UNK d   1     -35.081 -63.087  48.695  0.00  0.00     0.239 C 
ATOM     13  N   UNK d   1     -34.186 -64.190  49.079  0.00  0.00    -0.070 N 
ATOM     14  C   UNK d   1     -34.521 -65.246  48.147  0.00  0.00     0.281 C 
ATOM     15  C   UNK d   1     -32.800 -63.796  48.994  0.00  0.00     0.270 C 
ATOM     16  H   UNK d   1     -39.909 -67.605  47.306  0.00  0.00     0.162 HD
ATOM     17  H   UNK d   1     -41.590 -64.535  49.102  0.00  0.00     0.165 HD
ATOM     18  H   UNK d   1     -34.451 -64.519  50.031  0.00  0.00     0.279 HD
ENDROOT
BRANCH   1  19
ATOM     19  C   UNK d   1     -40.457 -67.189  50.304  0.00  0.00     0.023 A 
ATOM     20  C   UNK d   1     -41.243 -67.127  51.430  0.00  0.00     0.134 A 
ATOM     21  C   UNK d   1     -40.868 -67.743  52.625  0.00  0.00     0.044 A 
ATOM     22  O   UNK d   1     -42.436 -66.440  51.384  0.00  0.00    -0.190 OA
ATOM     23  I   UNK d   1     -42.117 -67.610  54.312  0.00  0.00    -0.042 I 
ATOM     24  C   UNK d   1     -39.701 -68.436  52.723  0.00  0.00     0.040 A 
ATOM     25  C   UNK d   1     -38.900 -68.511  51.608  0.00  0.00     0.013 A 
ATOM     26  C   UNK d   1     -39.259 -67.908  50.431  0.00  0.00     0.033 A 
ATOM     27 Br   UNK d   1     -37.266 -69.479  51.741  0.00  0.00    -0.051 Br
ENDBRANCH   1  19
TORSDOF 1
ENDMDL
