/Users/jonathanwahrer/Desktop/Msc/3_Semester/Drug_Design_Praktikum/waehrer_HTS_screening/HTS_experiment/out/docking_results/vina_output/3e7o/0895_docked.pdbqt
 OpenBabel03192215593D

 28 31  0  0  1  0  0  0  0  0999 V2000
  -40.1320  -67.1010   50.2590 C   0  0  2  0  0  3  0  0  0  0  0  0
  -38.8320  -67.7690   50.2090 N   0  0  0  0  0  0  0  0  0  0  0  0
  -37.6840  -67.1230   49.6040 C   0  0  0  0  0  0  0  0  0  0  0  0
  -36.1450  -67.7030   49.1040 S   0  0  0  0  0  0  0  0  0  0  0  0
  -35.4870  -66.2520   48.5250 C   0  0  0  0  0  0  0  0  0  0  0  0
  -36.4870  -65.3410   48.7350 C   0  0  0  0  0  0  0  0  0  0  0  0
  -37.6260  -65.8010   49.2960 C   0  0  0  0  0  0  0  0  0  0  0  0
  -38.8520  -65.0190   49.6250 C   0  0  0  0  0  0  0  0  0  0  0  0
  -38.9290  -63.7750   49.3890 O   0  0  0  0  0  0  0  0  0  0  0  0
  -39.9510  -65.6760   50.2130 N   0  0  0  0  0  0  0  0  0  0  0  0
  -36.0880  -63.9450   48.2720 C   0  0  0  0  0  2  0  0  0  0  0  0
  -34.7420  -63.5950   48.8500 C   0  0  0  0  0  2  0  0  0  0  0  0
  -33.7820  -64.6450   48.7650 N   0  0  0  0  0  4  0  0  0  0  0  0
  -34.2160  -65.7340   47.8970 C   0  0  0  0  0  2  0  0  0  0  0  0
  -33.6680  -65.2380   50.1070 C   0  0  0  0  0  1  0  0  0  0  0  0
  -38.6890  -68.7180   50.6000 H   0  0  0  0  0  0  0  0  0  0  0  0
  -40.7090  -65.0950   50.6580 H   0  0  0  0  0  0  0  0  0  0  0  0
  -32.8240  -64.3210   48.4700 H   0  0  0  0  0  0  0  0  0  0  0  0
  -40.7080  -67.4330   51.5920 C   0  0  0  0  0  0  0  0  0  0  0  0
  -40.1550  -68.4940   52.2970 C   0  0  0  0  0  3  0  0  0  0  0  0
  -40.5980  -68.8880   53.5240 C   0  0  0  0  0  0  0  0  0  0  0  0
  -41.6600  -68.1810   54.0840 C   0  0  0  0  0  0  0  0  0  0  0  0
  -42.2280  -67.1220   53.4050 C   0  0  0  0  0  0  0  0  0  0  0  0
  -42.1380  -68.5500   55.3270 O   0  0  0  0  0  1  0  0  0  0  0  0
  -43.8340  -66.0650   54.2710 I   0  0  0  0  0  0  0  0  0  0  0  0
  -41.7490  -66.7510   52.1580 C   0  0  0  0  0  3  0  0  0  0  0  0
  -40.0670  -69.9430   54.2530 O   0  0  0  0  0  0  0  0  0  0  0  0
  -38.7240  -70.3220   54.0120 C   0  0  0  0  0  1  0  0  0  0  0  0
  1 19  1  1  0  0  0
  2  1  1  0  0  0  0
  2 16  1  0  0  0  0
  3  2  1  0  0  0  0
  4  3  1  0  0  0  0
  5  6  2  0  0  0  0
  5  4  1  0  0  0  0
  6  7  1  0  0  0  0
  7  3  2  0  0  0  0
  7  8  1  0  0  0  0
  8 10  1  0  0  0  0
  9  8  2  0  0  0  0
 10  1  1  0  0  0  0
 10 17  1  0  0  0  0
 11  6  1  0  0  0  0
 11 12  1  0  0  0  0
 13 12  1  0  0  0  0
 13 15  1  0  0  0  0
 14  5  1  0  0  0  0
 14 13  1  0  0  0  0
 18 13  1  0  0  0  0
 19 26  2  0  0  0  0
 19 20  1  0  0  0  0
 20 21  2  0  0  0  0
 21 22  1  0  0  0  0
 21 27  1  0  0  0  0
 22 24  1  0  0  0  0
 23 22  2  0  0  0  0
 23 25  1  0  0  0  0
 26 23  1  0  0  0  0
 28 27  1  0  0  0  0
M  END
>  <Pose>
1

>  <Score>
-8.330

$$$$
