MODEL 1
REMARK VINA RESULT:    -8.330      0.000      0.000
REMARK INTER + INTRA:          -9.743
REMARK INTER:                  -9.304
REMARK INTRA:                  -0.439
REMARK UNBOUND:                -0.439
REMARK  2 active torsions:
REMARK  status: ('A' for Active; 'I' for Inactive)
REMARK    1  A    between atoms: C_4  and  O_23 
REMARK    2  A    between atoms: C_6  and  C_8 
ROOT
ATOM      1  C   UNK d   1     -40.132 -67.101  50.259  0.00  0.00     0.219 C 
ATOM      2  N   UNK d   1     -38.832 -67.769  50.209  0.00  0.00    -0.358 N 
ATOM      3  C   UNK d   1     -37.684 -67.123  49.604  0.00  0.00     0.088 A 
ATOM      4  S   UNK d   1     -36.145 -67.703  49.104  0.00  0.00    -0.074 SA
ATOM      5  C   UNK d   1     -35.487 -66.252  48.525  0.00  0.00     0.018 A 
ATOM      6  C   UNK d   1     -36.487 -65.341  48.735  0.00  0.00    -0.023 A 
ATOM      7  C   UNK d   1     -37.626 -65.801  49.296  0.00  0.00     0.073 A 
ATOM      8  C   UNK d   1     -38.852 -65.019  49.625  0.00  0.00     0.256 C 
ATOM      9  O   UNK d   1     -38.929 -63.775  49.389  0.00  0.00    -0.267 OA
ATOM     10  N   UNK d   1     -39.951 -65.676  50.213  0.00  0.00    -0.332 N 
ATOM     11  C   UNK d   1     -36.088 -63.945  48.272  0.00  0.00     0.068 C 
ATOM     12  C   UNK d   1     -34.742 -63.595  48.850  0.00  0.00     0.239 C 
ATOM     13  N   UNK d   1     -33.782 -64.645  48.765  0.00  0.00    -0.070 N 
ATOM     14  C   UNK d   1     -34.216 -65.734  47.897  0.00  0.00     0.281 C 
ATOM     15  C   UNK d   1     -33.668 -65.238  50.107  0.00  0.00     0.270 C 
ATOM     16  H   UNK d   1     -38.689 -68.718  50.600  0.00  0.00     0.162 HD
ATOM     17  H   UNK d   1     -40.709 -65.095  50.658  0.00  0.00     0.165 HD
ATOM     18  H   UNK d   1     -32.824 -64.321  48.470  0.00  0.00     0.279 HD
ENDROOT
BRANCH   1  19
ATOM     19  C   UNK d   1     -40.708 -67.433  51.592  0.00  0.00    -0.012 A 
ATOM     20  C   UNK d   1     -40.155 -68.494  52.297  0.00  0.00     0.050 A 
ATOM     21  C   UNK d   1     -40.598 -68.888  53.524  0.00  0.00     0.106 A 
ATOM     22  C   UNK d   1     -41.660 -68.181  54.084  0.00  0.00     0.157 A 
ATOM     23  C   UNK d   1     -42.228 -67.122  53.405  0.00  0.00     0.046 A 
ATOM     24  O   UNK d   1     -42.138 -68.550  55.327  0.00  0.00    -0.188 OA
ATOM     25  I   UNK d   1     -43.834 -66.065  54.271  0.00  0.00    -0.041 I 
ATOM     26  C   UNK d   1     -41.749 -66.751  52.158  0.00  0.00     0.032 A 
BRANCH  21  27
ATOM     27  O   UNK d   1     -40.067 -69.943  54.253  0.00  0.00    -0.353 OA
ATOM     28  C   UNK d   1     -38.724 -70.322  54.012  0.00  0.00     0.210 C 
ENDBRANCH  21  27
ENDBRANCH   1  19
TORSDOF 2
ENDMDL
