/Users/jonathanwahrer/Desktop/Msc/3_Semester/Drug_Design_Praktikum/waehrer_HTS_screening/HTS_experiment/out/docking_results/vina_output/3e7o/0906_docked.pdbqt
 OpenBabel03192216003D

 27 30  0  0  1  0  0  0  0  0999 V2000
  -39.8110  -68.2750   51.7370 C   0  0  1  0  0  3  0  0  0  0  0  0
  -40.2910  -69.0770   52.6800 N   0  0  0  0  0  0  0  0  0  0  0  0
  -41.2460  -68.7590   53.5700 C   0  0  0  0  0  0  0  0  0  0  0  0
  -41.8960  -69.3360   54.5880 N   0  0  0  0  0  2  0  0  0  0  0  0
  -42.7550  -68.5070   55.1080 O   0  0  0  0  0  0  0  0  0  0  0  0
  -42.7070  -67.3740   54.4680 N   0  0  0  0  0  0  0  0  0  0  0  0
  -41.7850  -67.4690   53.4980 C   0  0  0  0  0  0  0  0  0  0  0  0
  -41.3450  -66.6290   52.5790 N   0  0  0  0  0  0  0  0  0  0  0  0
  -40.3920  -66.9920   51.7170 C   0  0  0  0  0  0  0  0  0  0  0  0
  -40.1740  -65.9470   50.9350 N   0  0  0  0  0  0  0  0  0  0  0  0
  -40.9820  -64.9380   51.3040 N   0  0  0  0  0  0  0  0  0  0  0  0
  -41.7310  -65.3430   52.3400 C   0  0  0  0  0  0  0  0  0  0  0  0
  -38.8090  -68.5980   50.7990 N   0  0  0  0  0  0  0  0  0  0  0  0
  -39.1300  -68.8650   49.8020 H   0  0  0  0  0  0  0  0  0  0  0  0
  -37.4120  -68.6200   50.9900 C   0  0  0  0  0  0  0  0  0  0  0  0
  -36.5980  -67.8360   50.1420 C   0  0  0  0  0  0  0  0  0  0  0  0
  -37.4970  -66.6550   48.6400 I   0  0  0  0  0  0  0  0  0  0  0  0
  -35.2340  -67.8380   50.2940 C   0  0  0  0  0  3  0  0  0  0  0  0
  -34.6460  -68.6170   51.2870 C   0  0  0  0  0  3  0  0  0  0  0  0
  -35.4580  -69.3660   52.0920 C   0  0  0  0  0  3  0  0  0  0  0  0
  -36.8500  -69.3880   51.9690 C   0  0  0  0  0  3  0  0  0  0  0  0
  -42.7740  -64.6020   53.0980 C   0  0  0  0  0  2  0  0  0  0  0  0
  -43.9720  -64.2850   52.2850 C   0  0  0  0  0  0  0  0  0  0  0  0
  -43.9520  -63.4880   51.3240 O   0  0  0  0  0  0  0  0  0  0  0  0
  -45.1570  -64.8890   52.6000 O   0  0  0  0  0  0  0  0  0  0  0  0
  -45.5390  -66.1580   52.2040 C   0  0  0  0  0  2  0  0  0  0  0  0
  -46.0170  -67.0650   53.2730 C   0  0  0  0  0  1  0  0  0  0  0  0
  1 13  1  1  0  0  0
  1  2  1  0  0  0  0
  2  3  2  0  0  0  0
  3  4  1  0  0  0  0
  4  5  1  0  0  0  0
  6  5  1  0  0  0  0
  7  3  1  0  0  0  0
  7  6  2  0  0  0  0
  8  7  1  0  0  0  0
  9  1  1  0  0  0  0
  9  8  1  0  0  0  0
 10 11  1  0  0  0  0
 10  9  2  0  0  0  0
 11 12  2  0  0  0  0
 12  8  1  0  0  0  0
 12 22  1  0  0  0  0
 13 15  1  0  0  0  0
 14 13  1  0  0  0  0
 15 21  1  0  0  0  0
 16 18  1  0  0  0  0
 16 15  2  0  0  0  0
 17 16  1  0  0  0  0
 18 19  2  0  0  0  0
 19 20  1  0  0  0  0
 21 20  2  0  0  0  0
 23 25  1  0  0  0  0
 23 22  1  0  0  0  0
 24 23  2  0  0  0  0
 26 25  1  0  0  0  0
 26 27  1  0  0  0  0
M  END
>  <Pose>
1

>  <Score>
-8.147

$$$$
