MODEL 1
REMARK VINA RESULT:    -8.147      0.000      0.000
REMARK INTER + INTRA:         -11.831
REMARK INTER:                 -11.005
REMARK INTRA:                  -0.826
REMARK UNBOUND:                -0.826
REMARK  6 active torsions:
REMARK  status: ('A' for Active; 'I' for Inactive)
REMARK    1  A    between atoms: C_3  and  N_8 
REMARK    2  A    between atoms: N_8  and  C_9 
REMARK    3  A    between atoms: C_20  and  C_21 
REMARK    4  A    between atoms: C_21  and  C_22 
REMARK    5  A    between atoms: C_22  and  O_24 
REMARK    6  A    between atoms: O_24  and  C_25 
ROOT
ATOM      1  C   UNK d   1     -39.811 -68.275  51.737  0.00  0.00     0.179 A 
ATOM      2  N   UNK d   1     -40.291 -69.077  52.680  0.00  0.00    -0.202 NA
ATOM      3  C   UNK d   1     -41.246 -68.759  53.570  0.00  0.00     0.230 A 
ATOM      4  N   UNK d   1     -41.896 -69.336  54.588  0.00  0.00    -0.081 NA
ATOM      5  O   UNK d   1     -42.755 -68.507  55.108  0.00  0.00    -0.103 OA
ATOM      6  N   UNK d   1     -42.707 -67.374  54.468  0.00  0.00    -0.082 NA
ATOM      7  C   UNK d   1     -41.785 -67.469  53.498  0.00  0.00     0.217 A 
ATOM      8  N   UNK d   1     -41.345 -66.629  52.579  0.00  0.00    -0.256 N 
ATOM      9  C   UNK d   1     -40.392 -66.992  51.717  0.00  0.00     0.206 A 
ATOM     10  N   UNK d   1     -40.174 -65.947  50.935  0.00  0.00    -0.126 NA
ATOM     11  N   UNK d   1     -40.982 -64.938  51.304  0.00  0.00    -0.133 NA
ATOM     12  C   UNK d   1     -41.731 -65.343  52.340  0.00  0.00     0.145 A 
ENDROOT
BRANCH   1  13
ATOM     13  N   UNK d   1     -38.809 -68.598  50.799  0.00  0.00    -0.337 N 
ATOM     14  H   UNK d   1     -39.130 -68.865  49.802  0.00  0.00     0.167 HD
BRANCH  13  15
ATOM     15  C   UNK d   1     -37.412 -68.620  50.990  0.00  0.00     0.050 A 
ATOM     16  C   UNK d   1     -36.598 -67.836  50.142  0.00  0.00     0.033 A 
ATOM     17  I   UNK d   1     -37.497 -66.655  48.640  0.00  0.00    -0.042 I 
ATOM     18  C   UNK d   1     -35.234 -67.838  50.294  0.00  0.00     0.020 A 
ATOM     19  C   UNK d   1     -34.646 -68.617  51.287  0.00  0.00     0.001 A 
ATOM     20  C   UNK d   1     -35.458 -69.366  52.092  0.00  0.00     0.002 A 
ATOM     21  C   UNK d   1     -36.850 -69.388  51.969  0.00  0.00     0.031 A 
ENDBRANCH  13  15
ENDBRANCH   1  13
BRANCH  12  22
ATOM     22  C   UNK d   1     -42.774 -64.602  53.098  0.00  0.00     0.192 C 
BRANCH  22  23
ATOM     23  C   UNK d   1     -43.972 -64.285  52.285  0.00  0.00     0.266 C 
ATOM     24  O   UNK d   1     -43.952 -63.488  51.324  0.00  0.00    -0.265 OA
BRANCH  23  25
ATOM     25  O   UNK d   1     -45.157 -64.889  52.600  0.00  0.00    -0.322 OA
BRANCH  25  26
ATOM     26  C   UNK d   1     -45.539 -66.158  52.204  0.00  0.00     0.174 C 
ATOM     27  C   UNK d   1     -46.017 -67.065  53.273  0.00  0.00     0.034 C 
ENDBRANCH  25  26
ENDBRANCH  23  25
ENDBRANCH  22  23
ENDBRANCH  12  22
TORSDOF 6
ENDMDL
