MODEL 1
REMARK VINA RESULT:    -8.343      0.000      0.000
REMARK INTER + INTRA:          -9.613
REMARK INTER:                  -9.319
REMARK INTRA:                  -0.294
REMARK UNBOUND:                -0.294
REMARK  2 active torsions:
REMARK  status: ('A' for Active; 'I' for Inactive)
REMARK    1  A    between atoms: C_3  and  N_8 
REMARK    2  A    between atoms: N_15  and  C_16 
ROOT
ATOM      1  N   UNK d   1     -38.022 -66.784  48.660  0.00  0.00    -0.240 N 
ATOM      2  C   UNK d   1     -38.313 -67.326  49.856  0.00  0.00     0.286 A 
ATOM      3  O   UNK d   1     -37.494 -67.953  50.593  0.00  0.00    -0.265 OA
ATOM      4  C   UNK d   1     -39.634 -67.118  50.195  0.00  0.00     0.160 A 
ATOM      5  C   UNK d   1     -40.155 -66.436  49.188  0.00  0.00     0.152 A 
ATOM      6  N   UNK d   1     -41.449 -66.238  49.535  0.00  0.00    -0.278 N 
ATOM      7  N   UNK d   1     -41.702 -66.782  50.712  0.00  0.00    -0.234 N 
ATOM      8  N   UNK d   1     -40.594 -67.332  51.138  0.00  0.00    -0.234 N 
ATOM      9  C   UNK d   1     -39.170 -66.224  48.237  0.00  0.00     0.286 A 
ATOM     10  O   UNK d   1     -39.348 -65.597  47.143  0.00  0.00    -0.265 OA
ATOM     11  H   UNK d   1     -42.163 -65.731  48.970  0.00  0.00     0.189 HD
ATOM     12  H   UNK d   1     -42.615 -66.777  51.210  0.00  0.00     0.209 HD
ENDROOT
BRANCH   1  13
ATOM     13  C   UNK d   1     -36.777 -66.780  47.959  0.00  0.00     0.062 A 
ATOM     14  C   UNK d   1     -35.877 -65.742  48.091  0.00  0.00     0.034 A 
ATOM     15  I   UNK d   1     -36.413 -64.149  49.377  0.00  0.00    -0.042 I 
ATOM     16  C   UNK d   1     -34.669 -65.717  47.423  0.00  0.00     0.020 A 
ATOM     17  C   UNK d   1     -34.308 -66.750  46.583  0.00  0.00     0.001 A 
ATOM     18  C   UNK d   1     -35.200 -67.793  46.443  0.00  0.00     0.002 A 
ATOM     19  C   UNK d   1     -36.409 -67.809  47.117  0.00  0.00     0.031 A 
ENDBRANCH   1  13
BRANCH   8  20
ATOM     20  C   UNK d   1     -40.369 -68.035  52.352  0.00  0.00     0.058 A 
ATOM     21  C   UNK d   1     -39.809 -69.293  52.376  0.00  0.00     0.031 A 
ATOM     22  C   UNK d   1     -39.603 -69.953  53.577  0.00  0.00     0.002 A 
ATOM     23  C   UNK d   1     -39.945 -69.387  54.788  0.00  0.00     0.000 A 
ATOM     24  C   UNK d   1     -40.505 -68.128  54.765  0.00  0.00     0.002 A 
ATOM     25  C   UNK d   1     -40.714 -67.466  53.580  0.00  0.00     0.031 A 
ENDBRANCH   8  20
TORSDOF 2
ENDMDL
