/Users/jonathanwahrer/Desktop/Msc/3_Semester/Drug_Design_Praktikum/waehrer_HTS_screening/HTS_experiment/out/docking_results/vina_output/3e7o/0910_docked.pdbqt
 OpenBabel03192216003D

 26 29  0  0  0  0  0  0  0  0999 V2000
  -40.0720  -67.9880   51.5300 C   0  0  0  0  0  0  0  0  0  0  0  0
  -40.3620  -68.1420   52.9060 C   0  0  0  0  0  0  0  0  0  0  0  0
  -39.7270  -68.8010   53.8680 N   0  0  0  0  0  0  0  0  0  0  0  0
  -40.3900  -68.6470   54.9740 O   0  0  0  0  0  0  0  0  0  0  0  0
  -41.4280  -67.9180   54.7760 N   0  0  0  0  0  0  0  0  0  0  0  0
  -41.4510  -67.5750   53.4820 C   0  0  0  0  0  0  0  0  0  0  0  0
  -42.3150  -66.8220   52.7180 C   0  0  0  0  0  0  0  0  0  0  0  0
  -42.0640  -66.6550   51.3810 C   0  0  0  0  0  3  0  0  0  0  0  0
  -40.9590  -67.2260   50.7820 C   0  0  0  0  0  3  0  0  0  0  0  0
  -38.8850  -68.5580   51.1190 N   0  0  0  0  0  0  0  0  0  0  0  0
  -37.7380  -69.1070   50.7210 C   0  0  0  0  0  0  0  0  0  0  0  0
  -37.5690  -70.3810   50.5360 O   0  0  0  0  0  0  0  0  0  0  0  0
  -39.4130  -69.7900   51.3530 H   0  0  0  0  0  0  0  0  0  0  0  0
  -36.4730  -68.3790   50.4280 C   0  0  0  0  0  0  0  0  0  0  0  0
  -36.3510  -67.3330   49.5390 C   0  0  0  0  0  0  0  0  0  0  0  0
  -37.8940  -66.5260   48.3150 I   0  0  0  0  0  0  0  0  0  0  0  0
  -35.0490  -66.9000   49.5890 C   0  0  0  0  0  3  0  0  0  0  0  0
  -34.4350  -67.6730   50.4820 N   0  0  0  0  0  0  0  0  0  0  0  0
  -35.2770  -68.5630   50.9930 N   0  0  0  0  0  0  0  0  0  0  0  0
  -34.8940  -69.5230   52.0440 C   0  0  0  0  0  1  0  0  0  0  0  0
  -43.4340  -66.2590   53.3500 N   0  0  0  0  0  0  0  0  0  0  0  0
  -44.5080  -67.0690   53.9260 C   0  0  0  0  0  2  0  0  0  0  0  0
  -45.7390  -66.6960   53.1250 C   0  0  0  0  0  2  0  0  0  0  0  0
  -45.5060  -65.7230   52.1670 O   0  0  0  0  0  0  0  0  0  0  0  0
  -44.9080  -64.5700   52.6300 C   0  0  0  0  0  2  0  0  0  0  0  0
  -43.7190  -64.8540   53.5310 C   0  0  0  0  0  2  0  0  0  0  0  0
  1  2  1  0  0  0  0
  2  6  1  0  0  0  0
  2  3  2  0  0  0  0
  3  4  1  0  0  0  0
  5  4  1  0  0  0  0
  6  5  2  0  0  0  0
  7 21  1  0  0  0  0
  7  6  1  0  0  0  0
  8  7  2  0  0  0  0
  9  8  1  0  0  0  0
  9  1  2  0  0  0  0
 10 13  1  0  0  0  0
 10  1  1  0  0  0  0
 11 10  1  0  0  0  0
 12 11  2  0  0  0  0
 14 11  1  0  0  0  0
 14 19  1  0  0  0  0
 15 17  1  0  0  0  0
 15 14  2  0  0  0  0
 16 15  1  0  0  0  0
 17 18  2  0  0  0  0
 18 19  1  0  0  0  0
 19 20  1  0  0  0  0
 21 26  1  0  0  0  0
 21 22  1  0  0  0  0
 23 22  1  0  0  0  0
 24 25  1  0  0  0  0
 24 23  1  0  0  0  0
 25 26  1  0  0  0  0
M  END
>  <Pose>
1

>  <Score>
-7.791

$$$$
