MODEL 1
REMARK VINA RESULT:    -7.791      0.000      0.000
REMARK INTER + INTRA:          -9.607
REMARK INTER:                  -9.157
REMARK INTRA:                  -0.449
REMARK UNBOUND:                -0.449
REMARK  3 active torsions:
REMARK  status: ('A' for Active; 'I' for Inactive)
REMARK    1  A    between atoms: C_3  and  C_8 
REMARK       I    between atoms: C_8  and  N_10 
REMARK    2  A    between atoms: N_10  and  C_11 
REMARK    3  A    between atoms: C_17  and  N_20 
ROOT
ATOM      1  C   UNK d   1     -40.072 -67.988  51.530  0.00  0.00     0.069 A 
ATOM      2  C   UNK d   1     -40.362 -68.142  52.906  0.00  0.00     0.146 A 
ATOM      3  N   UNK d   1     -39.727 -68.801  53.868  0.00  0.00    -0.101 NA
ATOM      4  O   UNK d   1     -40.390 -68.647  54.974  0.00  0.00    -0.106 OA
ATOM      5  N   UNK d   1     -41.428 -67.918  54.776  0.00  0.00    -0.101 NA
ATOM      6  C   UNK d   1     -41.451 -67.575  53.482  0.00  0.00     0.146 A 
ATOM      7  C   UNK d   1     -42.315 -66.822  52.718  0.00  0.00     0.064 A 
ATOM      8  C   UNK d   1     -42.064 -66.655  51.381  0.00  0.00     0.034 A 
ATOM      9  C   UNK d   1     -40.959 -67.226  50.782  0.00  0.00     0.034 A 
ENDROOT
BRANCH   1  10
ATOM     10  N   UNK d   1     -38.885 -68.558  51.119  0.00  0.00    -0.319 N 
ATOM     11  C   UNK d   1     -37.738 -69.107  50.721  0.00  0.00     0.275 C 
ATOM     12  O   UNK d   1     -37.569 -70.381  50.536  0.00  0.00    -0.266 OA
ATOM     13  H   UNK d   1     -39.413 -69.790  51.353  0.00  0.00     0.169 HD
BRANCH  11  14
ATOM     14  C   UNK d   1     -36.473 -68.379  50.428  0.00  0.00     0.138 A 
ATOM     15  C   UNK d   1     -36.351 -67.333  49.539  0.00  0.00     0.059 A 
ATOM     16  I   UNK d   1     -37.894 -66.526  48.315  0.00  0.00    -0.040 I 
ATOM     17  C   UNK d   1     -35.049 -66.900  49.589  0.00  0.00     0.159 A 
ATOM     18  N   UNK d   1     -34.435 -67.673  50.482  0.00  0.00    -0.183 NA
ATOM     19  N   UNK d   1     -35.277 -68.563  50.993  0.00  0.00    -0.268 N 
ATOM     20  C   UNK d   1     -34.894 -69.523  52.044  0.00  0.00     0.180 C 
ENDBRANCH  11  14
ENDBRANCH   1  10
BRANCH   7  21
ATOM     21  N   UNK d   1     -43.434 -66.259  53.350  0.00  0.00    -0.375 N 
ATOM     22  C   UNK d   1     -44.508 -67.069  53.926  0.00  0.00     0.149 C 
ATOM     23  C   UNK d   1     -45.739 -66.696  53.125  0.00  0.00     0.187 C 
ATOM     24  O   UNK d   1     -45.506 -65.723  52.167  0.00  0.00    -0.388 OA
ATOM     25  C   UNK d   1     -44.908 -64.570  52.630  0.00  0.00     0.187 C 
ATOM     26  C   UNK d   1     -43.719 -64.854  53.531  0.00  0.00     0.149 C 
ENDBRANCH   7  21
TORSDOF 3
ENDMDL
