/Users/jonathanwahrer/Desktop/Msc/3_Semester/Drug_Design_Praktikum/waehrer_HTS_screening/HTS_experiment/out/docking_results/vina_output/3e7o/0924_docked.pdbqt
 OpenBabel03192216003D

 29 32  0  0  0  0  0  0  0  0999 V2000
  -40.9710  -64.8010   51.7650 C   0  0  0  0  0  0  0  0  0  0  0  0
  -40.4330  -65.9770   52.1300 N   0  0  0  0  0  4  0  0  0  0  0  0
  -41.1760  -66.9320   52.7040 C   0  0  0  0  0  0  0  0  0  0  0  0
  -42.4760  -66.6550   52.8940 N   0  0  0  0  0  0  0  0  0  0  0  0
  -43.0510  -65.4870   52.5420 C   0  0  0  0  0  0  0  0  0  0  0  0
  -42.2700  -64.5540   51.9670 N   0  0  0  0  0  2  0  0  0  0  0  0
  -40.1470  -63.7850   51.1460 N   0  0  0  0  0  0  0  0  0  0  0  0
  -39.5260  -63.1890   51.7360 H   0  0  0  0  0  0  0  0  0  0  0  0
  -40.2150  -63.6010   49.8050 N   0  0  0  0  0  0  0  0  0  0  0  0
  -39.3870  -64.0690   48.9810 C   0  0  0  0  0  3  0  0  0  0  0  0
  -38.2260  -64.8740   49.2460 C   0  0  0  0  0  0  0  0  0  0  0  0
  -38.1610  -66.2320   49.3440 C   0  0  0  0  0  3  0  0  0  0  0  0
  -36.9700  -66.9260   49.6070 C   0  0  0  0  0  3  0  0  0  0  0  0
  -35.8070  -66.2400   49.7760 C   0  0  0  0  0  0  0  0  0  0  0  0
  -33.9820  -67.1830   50.1700 I   0  0  0  0  0  0  0  0  0  0  0  0
  -35.8440  -64.8660   49.6820 C   0  0  0  0  0  3  0  0  0  0  0  0
  -37.0130  -64.1920   49.4240 C   0  0  0  0  0  3  0  0  0  0  0  0
  -40.6260  -68.1890   53.1010 N   0  0  0  0  0  0  0  0  0  0  0  0
  -40.5230  -68.6050   54.4670 C   0  0  0  0  0  2  0  0  0  0  0  0
  -39.7240  -69.9100   54.4930 C   0  0  0  0  0  2  0  0  0  0  0  0
  -38.5560  -69.8070   53.7570 O   0  0  0  0  0  0  0  0  0  0  0  0
  -38.7700  -69.6250   52.4130 C   0  0  0  0  0  2  0  0  0  0  0  0
  -40.1430  -69.1010   52.0770 C   0  0  0  0  0  2  0  0  0  0  0  0
  -44.4360  -65.2740   52.7800 N   0  0  0  0  0  0  0  0  0  0  0  0
  -45.0390  -65.7820   53.9910 C   0  0  0  0  0  2  0  0  0  0  0  0
  -46.4600  -66.2040   53.5910 C   0  0  0  0  0  2  0  0  0  0  0  0
  -47.1440  -65.0670   53.2470 O   0  0  0  0  0  0  0  0  0  0  0  0
  -46.6590  -64.3640   52.1800 C   0  0  0  0  0  3  0  0  0  0  0  0
  -45.2290  -64.5670   51.8350 C   0  0  0  0  0  3  0  0  0  0  0  0
  1  6  1  0  0  0  0
  1  2  2  0  0  0  0
  2  3  2  0  0  0  0
  3  4  1  0  0  0  0
  3 18  1  0  0  0  0
  5 24  1  0  0  0  0
  5  4  2  0  0  0  0
  6  5  1  0  0  0  0
  7  8  1  0  0  0  0
  7  1  1  0  0  0  0
  9  7  1  0  0  0  0
 10 11  1  0  0  0  0
 10  9  2  0  0  0  0
 11 12  2  0  0  0  0
 11 17  1  0  0  0  0
 12 13  1  0  0  0  0
 13 14  2  0  0  0  0
 14 15  1  0  0  0  0
 16 14  1  0  0  0  0
 17 16  2  0  0  0  0
 18 19  1  0  0  0  0
 19 20  1  0  0  0  0
 21 20  1  0  0  0  0
 22 21  1  0  0  0  0
 23 22  1  0  0  0  0
 23 18  1  0  0  0  0
 24 25  1  0  0  0  0
 26 25  1  0  0  0  0
 27 26  1  0  0  0  0
 28 27  1  0  0  0  0
 29 28  2  0  0  0  0
 29 24  1  0  0  0  0
M  END
>  <Pose>
1

>  <Score>
-7.801

$$$$
