MODEL 1
REMARK VINA RESULT:    -7.835      0.000      0.000
REMARK INTER + INTRA:          -7.728
REMARK INTER:                  -9.209
REMARK INTRA:                   1.481
REMARK UNBOUND:                 1.481
REMARK  3 active torsions:
REMARK  status: ('A' for Active; 'I' for Inactive)
REMARK    1  A    between atoms: C_5  and  N_8 
REMARK    2  A    between atoms: C_10  and  C_16 
REMARK    3  A    between atoms: C_22  and  O_29 
ROOT
ATOM      1  N   UNK d   1     -40.356 -64.558  49.191  0.00  0.00    -0.241 N 
ATOM      2  C   UNK d   1     -39.118 -64.868  48.768  0.00  0.00     0.204 A 
ATOM      3  C   UNK d   1     -38.553 -64.292  47.651  0.00  0.00     0.100 A 
ATOM      4  C   UNK d   1     -39.335 -63.369  46.986  0.00  0.00     0.262 A 
ATOM      5  O   UNK d   1     -38.962 -62.751  45.943  0.00  0.00    -0.267 OA
ATOM      6  N   UNK d   1     -40.597 -63.044  47.407  0.00  0.00    -0.274 N 
ATOM      7  C   UNK d   1     -41.075 -63.654  48.506  0.00  0.00     0.336 A 
ATOM      8  O   UNK d   1     -42.228 -63.389  48.930  0.00  0.00    -0.246 OA
ATOM      9  O   UNK d   1     -38.372 -65.788  49.458  0.00  0.00    -0.171 OA
ATOM     10  H   UNK d   1     -41.181 -62.351  46.904  0.00  0.00     0.173 HD
ENDROOT
BRANCH   3  11
ATOM     11  C   UNK d   1     -37.233 -64.586  47.124  0.00  0.00     0.267 C 
ATOM     12  N   UNK d   1     -36.511 -63.512  46.519  0.00  0.00    -0.062 N 
ATOM     13  C   UNK d   1     -36.163 -62.444  47.416  0.00  0.00     0.240 C 
ATOM     14  C   UNK d   1     -35.212 -64.105  46.109  0.00  0.00     0.270 C 
ATOM     15  H   UNK d   1     -36.868 -63.167  45.613  0.00  0.00     0.280 HD
ATOM     16  C   UNK d   1     -36.414 -62.777  48.871  0.00  0.00     0.067 C 
ATOM     17  C   UNK d   1     -35.907 -64.175  49.134  0.00  0.00    -0.042 A 
ATOM     18  C   UNK d   1     -36.322 -65.099  48.208  0.00  0.00     0.020 A 
ATOM     19  C   UNK d   1     -35.088 -64.508  50.162  0.00  0.00     0.047 A 
ATOM     20  C   UNK d   1     -35.912 -66.408  48.297  0.00  0.00     0.113 A 
ATOM     21  C   UNK d   1     -35.074 -66.741  49.352  0.00  0.00     0.139 A 
ATOM     22  C   UNK d   1     -34.649 -65.825  50.291  0.00  0.00     0.108 A 
ATOM     23  O   UNK d   1     -34.482 -67.956  49.731  0.00  0.00    -0.320 OA
ATOM     24  O   UNK d   1     -33.830 -66.476  51.201  0.00  0.00    -0.323 OA
ATOM     25  C   UNK d   1     -34.020 -67.894  51.068  0.00  0.00     0.352 C 
BRANCH  20  26
ATOM     26  O   UNK d   1     -36.329 -67.320  47.370  0.00  0.00    -0.352 OA
ATOM     27  C   UNK d   1     -35.551 -67.961  46.410  0.00  0.00     0.210 C 
ENDBRANCH  20  26
ENDBRANCH   3  11
BRANCH   1  28
ATOM     28  C   UNK d   1     -40.919 -65.165  50.344  0.00  0.00     0.046 A 
ATOM     29  C   UNK d   1     -41.009 -64.510  51.562  0.00  0.00     0.031 A 
ATOM     30  C   UNK d   1     -41.550 -65.092  52.671  0.00  0.00     0.020 A 
ATOM     31  C   UNK d   1     -42.040 -66.392  52.615  0.00  0.00     0.006 A 
ATOM     32  I   UNK d   1     -42.869 -67.276  54.329  0.00  0.00    -0.045 I 
ATOM     33  C   UNK d   1     -41.952 -67.045  51.408  0.00  0.00     0.020 A 
ATOM     34  C   UNK d   1     -41.408 -66.466  50.281  0.00  0.00     0.031 A 
ENDBRANCH   1  28
TORSDOF 3
ENDMDL
