MODEL 1
REMARK VINA RESULT:    -7.131      0.000      0.000
REMARK INTER + INTRA:          -9.047
REMARK INTER:                  -8.382
REMARK INTRA:                  -0.665
REMARK UNBOUND:                -0.665
REMARK  3 active torsions:
REMARK  status: ('A' for Active; 'I' for Inactive)
REMARK    1  A    between atoms: C_5  and  N_8 
REMARK    2  A    between atoms: C_11  and  N_15 
REMARK    3  A    between atoms: N_18  and  C_21 
ROOT
ATOM      1  N   UNK d   1     -38.167 -66.842  49.663  0.00  0.00    -0.251 N 
ATOM      2  C   UNK d   1     -39.555 -66.764  49.384  0.00  0.00     0.254 C 
ATOM      3  O   UNK d   1     -40.032 -66.204  48.363  0.00  0.00    -0.270 OA
ATOM      4  C   UNK d   1     -40.322 -67.439  50.468  0.00  0.00     0.181 C 
ATOM      5  C   UNK d   1     -39.326 -68.486  50.936  0.00  0.00     0.138 C 
ATOM      6  C   UNK d   1     -38.007 -67.936  50.563  0.00  0.00     0.233 C 
ATOM      7  O   UNK d   1     -36.880 -68.351  50.962  0.00  0.00    -0.273 OA
ENDROOT
BRANCH   4   8
ATOM      8  N   UNK d   1     -40.641 -66.483  51.447  0.00  0.00    -0.397 N 
ATOM      9  C   UNK d   1     -41.314 -65.307  51.119  0.00  0.00     0.138 C 
ATOM     10  C   UNK d   1     -42.057 -64.839  52.398  0.00  0.00     0.161 C 
ATOM     11  N   UNK d   1     -42.789 -65.978  52.932  0.00  0.00    -0.211 N 
ATOM     12  C   UNK d   1     -42.003 -67.125  53.313  0.00  0.00     0.161 C 
ATOM     13  C   UNK d   1     -40.587 -66.895  52.791  0.00  0.00     0.138 C 
BRANCH  11  14
ATOM     14  C   UNK d   1     -44.193 -65.951  53.060  0.00  0.00     0.724 A 
ATOM     15  N   UNK d   1     -44.891 -67.095  53.298  0.00  0.00    -0.075 NA
ATOM     16  C   UNK d   1     -46.214 -67.132  53.438  0.00  0.00     0.138 A 
ATOM     17  C   UNK d   1     -46.959 -65.964  53.341  0.00  0.00     0.040 A 
ATOM     18  C   UNK d   1     -46.244 -64.804  53.098  0.00  0.00     0.138 A 
ATOM     19  N   UNK d   1     -44.911 -64.813  52.965  0.00  0.00    -0.075 NA
ENDBRANCH  11  14
ENDBRANCH   4   8
BRANCH   1  20
ATOM     20  C   UNK d   1     -37.109 -66.004  49.160  0.00  0.00     0.045 A 
ATOM     21  C   UNK d   1     -36.910 -64.755  49.709  0.00  0.00     0.031 A 
ATOM     22  C   UNK d   1     -35.910 -63.916  49.259  0.00  0.00     0.020 A 
ATOM     23  C   UNK d   1     -35.070 -64.302  48.236  0.00  0.00     0.006 A 
ATOM     24  I   UNK d   1     -33.527 -63.051  47.518  0.00  0.00    -0.045 I 
ATOM     25  C   UNK d   1     -35.254 -65.548  47.676  0.00  0.00     0.020 A 
ATOM     26  C   UNK d   1     -36.261 -66.370  48.142  0.00  0.00     0.031 A 
ENDBRANCH   1  20
TORSDOF 3
ENDMDL
