/Users/jonathanwahrer/Desktop/Msc/3_Semester/Drug_Design_Praktikum/waehrer_HTS_screening/HTS_experiment/out/docking_results/vina_output/3e7o/0950_docked.pdbqt
 OpenBabel03192216013D

 26 29  0  0  0  0  0  0  0  0999 V2000
  -39.1130  -67.5020   50.3610 C   0  0  0  0  0  0  0  0  0  0  0  0
  -37.9630  -68.2310   50.6810 C   0  0  0  0  0  0  0  0  0  0  0  0
  -37.7050  -69.0940   51.6790 N   0  0  0  0  0  0  0  0  0  0  0  0
  -36.4820  -69.5170   51.5520 O   0  0  0  0  0  0  0  0  0  0  0  0
  -35.9220  -68.9710   50.5170 N   0  0  0  0  0  0  0  0  0  0  0  0
  -36.8170  -68.1510   49.9340 C   0  0  0  0  0  0  0  0  0  0  0  0
  -36.7770  -67.3300   48.8280 C   0  0  0  0  0  0  0  0  0  0  0  0
  -37.9110  -66.6200   48.5220 C   0  0  0  0  0  3  0  0  0  0  0  0
  -39.0860  -66.6940   49.2800 C   0  0  0  0  0  3  0  0  0  0  0  0
  -40.2370  -67.6630   51.2040 N   0  0  0  0  0  0  0  0  0  0  0  0
  -40.8730  -66.6830   51.9530 C   0  0  0  0  0  0  0  0  0  0  0  0
  -40.4390  -65.4790   51.9250 O   0  0  0  0  0  0  0  0  0  0  0  0
  -40.6540  -68.6430   51.2980 H   0  0  0  0  0  0  0  0  0  0  0  0
  -42.0480  -66.9090   52.8140 C   0  0  0  0  0  0  0  0  0  0  0  0
  -42.2070  -67.5770   53.9790 C   0  0  0  0  0  0  0  0  0  0  0  0
  -40.7930  -68.6640   55.0580 I   0  0  0  0  0  0  0  0  0  0  0  0
  -43.5420  -67.4340   54.3590 C   0  0  0  0  0  3  0  0  0  0  0  0
  -44.1650  -66.6960   53.4380 N   0  0  0  0  0  0  0  0  0  0  0  0
  -43.2870  -66.3860   52.5250 N   0  0  0  0  0  0  0  0  0  0  0  0
  -45.5850  -66.3240   53.4830 C   0  0  0  0  0  1  0  0  0  0  0  0
  -35.5820  -67.2600   48.0670 N   0  0  0  0  0  0  0  0  0  0  0  0
  -35.5230  -67.8200   46.7330 C   0  0  0  0  0  2  0  0  0  0  0  0
  -34.1850  -67.5320   46.1450 C   0  0  0  0  0  2  0  0  0  0  0  0
  -33.7850  -66.2150   46.2600 O   0  0  0  0  0  0  0  0  0  0  0  0
  -33.7530  -65.7290   47.5290 C   0  0  0  0  0  2  0  0  0  0  0  0
  -34.3700  -66.6380   48.5620 C   0  0  0  0  0  2  0  0  0  0  0  0
  1  2  1  0  0  0  0
  1 10  1  0  0  0  0
  2  3  2  0  0  0  0
  4  3  1  0  0  0  0
  5  4  1  0  0  0  0
  6  5  2  0  0  0  0
  6  2  1  0  0  0  0
  7  6  1  0  0  0  0
  8  7  2  0  0  0  0
  8  9  1  0  0  0  0
  9  1  2  0  0  0  0
 10 13  1  0  0  0  0
 10 11  1  0  0  0  0
 11 14  1  0  0  0  0
 12 11  2  0  0  0  0
 14 15  1  0  0  0  0
 15 17  2  0  0  0  0
 15 16  1  0  0  0  0
 18 20  1  0  0  0  0
 18 17  1  0  0  0  0
 19 14  2  0  0  0  0
 19 18  1  0  0  0  0
 21 26  1  0  0  0  0
 21  7  1  0  0  0  0
 22 21  1  0  0  0  0
 23 24  1  0  0  0  0
 23 22  1  0  0  0  0
 24 25  1  0  0  0  0
 25 26  1  0  0  0  0
M  END
>  <Pose>
1

>  <Score>
-7.618

$$$$
