MODEL 1
REMARK VINA RESULT:    -7.751      0.000      0.000
REMARK INTER + INTRA:         -10.811
REMARK INTER:                 -10.017
REMARK INTRA:                  -0.795
REMARK UNBOUND:                -0.795
REMARK  6 active torsions:
REMARK  status: ('A' for Active; 'I' for Inactive)
REMARK    1  A    between atoms: N_5  and  C_7 
REMARK    2  A    between atoms: C_9  and  C_13 
REMARK    3  A    between atoms: C_10  and  O_12 
REMARK    4  A    between atoms: C_13  and  O_14 
REMARK    5  A    between atoms: C_18  and  N_19 
REMARK       I    between atoms: N_19  and  C_20 
REMARK    6  A    between atoms: C_20  and  C_22 
ROOT
ATOM      1  I   UNK d   1     -38.584 -69.081  51.685  0.00  0.00    -0.042 I 
ATOM      2  C   UNK d   1     -37.623 -67.706  50.409  0.00  0.00     0.040 A 
ATOM      3  C   UNK d   1     -38.202 -66.641  49.784  0.00  0.00     0.074 A 
ATOM      4  C   UNK d   1     -37.162 -66.051  49.064  0.00  0.00     0.148 A 
ATOM      5  N   UNK d   1     -36.012 -66.705  49.230  0.00  0.00    -0.312 N 
ATOM      6  C   UNK d   1     -36.285 -67.719  50.051  0.00  0.00     0.114 A 
ATOM      7  N   UNK d   1     -37.450 -64.957  48.339  0.00  0.00    -0.223 NA
ATOM      8  C   UNK d   1     -38.694 -64.453  48.309  0.00  0.00     0.237 A 
ATOM      9  N   UNK d   1     -39.687 -65.021  49.000  0.00  0.00    -0.223 NA
ATOM     10  C   UNK d   1     -39.482 -66.138  49.765  0.00  0.00     0.147 A 
ENDROOT
BRANCH   5  11
ATOM     11  C   UNK d   1     -34.727 -66.419  48.667  0.00  0.00     0.232 C 
ATOM     12  O   UNK d   1     -33.835 -67.482  48.742  0.00  0.00    -0.356 OA
ATOM     13  C   UNK d   1     -32.655 -66.916  48.267  0.00  0.00     0.176 C 
ATOM     14  C   UNK d   1     -32.576 -65.519  48.837  0.00  0.00     0.153 C 
ATOM     15  C   UNK d   1     -33.967 -65.353  49.461  0.00  0.00     0.088 C 
BRANCH  13  16
ATOM     16  C   UNK d   1     -31.447 -67.678  48.831  0.00  0.00     0.198 C 
BRANCH  16  17
ATOM     17  O   UNK d   1     -31.889 -68.532  49.850  0.00  0.00    -0.398 OA
ATOM     18  H   UNK d   1     -31.281 -68.472  50.654  0.00  0.00     0.209 HD
ENDBRANCH  16  17
ENDBRANCH  13  16
BRANCH  14  19
ATOM     19  O   UNK d   1     -32.485 -64.555  47.832  0.00  0.00    -0.393 OA
ATOM     20  H   UNK d   1     -31.586 -64.704  47.403  0.00  0.00     0.210 HD
ENDBRANCH  14  19
ENDBRANCH   5  11
BRANCH  10  21
ATOM     21  N   UNK d   1     -40.577 -66.700  50.480  0.00  0.00    -0.306 N 
ATOM     22  C   UNK d   1     -41.049 -66.027  51.644  0.00  0.00     0.257 C 
ATOM     23  O   UNK d   1     -40.463 -64.964  51.972  0.00  0.00    -0.267 OA
ATOM     24  H   UNK d   1     -41.071 -67.562  50.234  0.00  0.00     0.170 HD
BRANCH  22  25
ATOM     25  C   UNK d   1     -42.143 -66.483  52.457  0.00  0.00     0.032 A 
ATOM     26  C   UNK d   1     -41.935 -67.296  53.537  0.00  0.00     0.017 A 
ATOM     27  C   UNK d   1     -42.986 -67.745  54.339  0.00  0.00     0.001 A 
ATOM     28  C   UNK d   1     -44.262 -67.365  54.043  0.00  0.00     0.000 A 
ATOM     29  C   UNK d   1     -44.502 -66.551  52.967  0.00  0.00     0.001 A 
ATOM     30  C   UNK d   1     -43.433 -66.113  52.176  0.00  0.00     0.017 A 
ENDBRANCH  22  25
ENDBRANCH  10  21
TORSDOF 6
ENDMDL
