/Users/jonathanwahrer/Desktop/Msc/3_Semester/Drug_Design_Praktikum/waehrer_HTS_screening/HTS_experiment/out/docking_results/vina_output/3e7o/0956_docked.pdbqt
 OpenBabel03192216013D

 30 33  0  0  1  0  0  0  0  0999 V2000
  -38.5840  -69.0810   51.6850 I   0  0  0  0  0  0  0  0  0  0  0  0
  -37.6230  -67.7060   50.4090 C   0  0  0  0  0  0  0  0  0  0  0  0
  -38.2020  -66.6410   49.7840 C   0  0  0  0  0  0  0  0  0  0  0  0
  -37.1620  -66.0510   49.0640 C   0  0  0  0  0  0  0  0  0  0  0  0
  -36.0120  -66.7050   49.2300 N   0  0  0  0  0  0  0  0  0  0  0  0
  -36.2850  -67.7190   50.0510 C   0  0  0  0  0  3  0  0  0  0  0  0
  -37.4500  -64.9570   48.3390 N   0  0  0  0  0  0  0  0  0  0  0  0
  -38.6940  -64.4530   48.3090 C   0  0  0  0  0  3  0  0  0  0  0  0
  -39.6870  -65.0210   49.0000 N   0  0  0  0  0  0  0  0  0  0  0  0
  -39.4820  -66.1380   49.7650 C   0  0  0  0  0  0  0  0  0  0  0  0
  -34.7270  -66.4190   48.6670 C   0  0  2  0  0  3  0  0  0  0  0  0
  -33.8350  -67.4820   48.7420 O   0  0  0  0  0  0  0  0  0  0  0  0
  -32.6550  -66.9160   48.2670 C   0  0  1  0  0  3  0  0  0  0  0  0
  -32.5760  -65.5190   48.8370 C   0  0  2  0  0  3  0  0  0  0  0  0
  -33.9670  -65.3530   49.4610 C   0  0  0  0  0  2  0  0  0  0  0  0
  -31.4470  -67.6780   48.8310 C   0  0  0  0  0  2  0  0  0  0  0  0
  -31.8890  -68.5320   49.8500 O   0  0  0  0  0  0  0  0  0  0  0  0
  -31.2810  -68.4720   50.6540 H   0  0  0  0  0  0  0  0  0  0  0  0
  -32.4850  -64.5550   47.8320 O   0  0  0  0  0  0  0  0  0  0  0  0
  -31.5860  -64.7040   47.4030 H   0  0  0  0  0  0  0  0  0  0  0  0
  -40.5770  -66.7000   50.4800 N   0  0  0  0  0  0  0  0  0  0  0  0
  -41.0490  -66.0270   51.6440 C   0  0  0  0  0  0  0  0  0  0  0  0
  -40.4630  -64.9640   51.9720 O   0  0  0  0  0  0  0  0  0  0  0  0
  -41.0710  -67.5620   50.2340 H   0  0  0  0  0  0  0  0  0  0  0  0
  -42.1430  -66.4830   52.4570 C   0  0  0  0  0  0  0  0  0  0  0  0
  -41.9350  -67.2960   53.5370 C   0  0  0  0  0  3  0  0  0  0  0  0
  -42.9860  -67.7450   54.3390 C   0  0  0  0  0  3  0  0  0  0  0  0
  -44.2620  -67.3650   54.0430 C   0  0  0  0  0  3  0  0  0  0  0  0
  -44.5020  -66.5510   52.9670 C   0  0  0  0  0  3  0  0  0  0  0  0
  -43.4330  -66.1130   52.1760 C   0  0  0  0  0  3  0  0  0  0  0  0
  2  1  1  0  0  0  0
  3  2  1  0  0  0  0
  4  5  1  0  0  0  0
  4  3  2  0  0  0  0
  5  6  1  0  0  0  0
  6  2  2  0  0  0  0
  7  4  1  0  0  0  0
  8  7  2  0  0  0  0
  8  9  1  0  0  0  0
  9 10  2  0  0  0  0
 10  3  1  0  0  0  0
 10 21  1  0  0  0  0
 11 12  1  0  0  0  0
 11  5  1  1  0  0  0
 11 15  1  0  0  0  0
 13 12  1  0  0  0  0
 13 16  1  1  0  0  0
 13 14  1  0  0  0  0
 14 19  1  6  0  0  0
 14 15  1  0  0  0  0
 16 17  1  0  0  0  0
 17 18  1  0  0  0  0
 20 19  1  0  0  0  0
 21 22  1  0  0  0  0
 22 23  2  0  0  0  0
 22 25  1  0  0  0  0
 24 21  1  0  0  0  0
 25 26  1  0  0  0  0
 26 27  2  0  0  0  0
 28 27  1  0  0  0  0
 29 28  2  0  0  0  0
 30 25  2  0  0  0  0
 30 29  1  0  0  0  0
M  END
>  <Pose>
1

>  <Score>
-7.751

$$$$
