/Users/jonathanwahrer/Desktop/Msc/3_Semester/Drug_Design_Praktikum/waehrer_HTS_screening/HTS_experiment/out/docking_results/vina_output/3e7o/0961_docked.pdbqt
 OpenBabel03192216013D

 29 33  0  0  1  0  0  0  0  0999 V2000
  -38.6850  -67.7950   50.5740 C   0  0  1  0  0  3  0  0  0  0  0  0
  -37.8070  -68.7520   50.7550 N   0  0  0  0  0  0  0  0  0  0  0  0
  -36.6430  -68.7550   50.0370 C   0  0  0  0  0  3  0  0  0  0  0  0
  -36.3160  -67.8040   49.1210 C   0  0  0  0  0  3  0  0  0  0  0  0
  -37.2130  -66.7800   48.9050 C   0  0  0  0  0  0  0  0  0  0  0  0
  -37.2310  -65.6730   48.0850 N   0  0  0  0  0  0  0  0  0  0  0  0
  -38.3570  -65.0050   48.2750 C   0  0  0  0  0  0  0  0  0  0  0  0
  -39.0470  -65.6970   49.2220 N   0  0  0  0  0  0  0  0  0  0  0  0
  -38.3730  -66.7820   49.6230 C   0  0  0  0  0  0  0  0  0  0  0  0
  -36.1190  -65.3950   47.2220 C   0  0  0  0  0  1  0  0  0  0  0  0
  -37.9810  -69.7770   51.7420 C   0  0  0  0  0  1  0  0  0  0  0  0
  -40.0030  -67.6980   51.1720 C   0  0  0  0  0  3  0  0  0  0  0  0
  -40.4290  -67.1190   52.2390 C   0  0  0  0  0  3  0  0  0  0  0  0
  -41.7430  -67.0120   52.8310 C   0  0  0  0  0  0  0  0  0  0  0  0
  -42.1350  -67.5030   54.0320 C   0  0  0  0  0  0  0  0  0  0  0  0
  -40.9550  -68.5810   55.0700 Br  0  0  0  0  0  0  0  0  0  0  0  0
  -43.4380  -67.2840   54.5450 C   0  0  0  0  0  3  0  0  0  0  0  0
  -44.3560  -66.5610   53.8340 C   0  0  0  0  0  0  0  0  0  0  0  0
  -43.9860  -66.0510   52.6090 C   0  0  0  0  0  0  0  0  0  0  0  0
  -45.6830  -66.1720   54.0460 O   0  0  0  0  0  0  0  0  0  0  0  0
  -42.7180  -66.2700   52.1190 C   0  0  0  0  0  3  0  0  0  0  0  0
  -45.0980  -65.3620   52.0960 O   0  0  0  0  0  0  0  0  0  0  0  0
  -45.9040  -65.0370   53.2100 C   0  0  0  0  0  2  0  0  0  0  0  0
  -38.8160  -63.7590   47.6500 C   0  0  0  0  0  0  0  0  0  0  0  0
  -38.1290  -62.5920   47.6330 C   0  0  0  0  0  3  0  0  0  0  0  0
  -38.6850  -61.4500   47.0260 C   0  0  0  0  0  3  0  0  0  0  0  0
  -39.9310  -61.5120   46.4430 C   0  0  0  0  0  3  0  0  0  0  0  0
  -40.6550  -62.6960   46.4450 C   0  0  0  0  0  3  0  0  0  0  0  0
  -40.0820  -63.7710   47.0410 C   0  0  0  0  0  3  0  0  0  0  0  0
  1  2  1  0  0  0  0
  1 12  1  6  0  0  0
  2 11  1  0  0  0  0
  3  2  1  0  0  0  0
  4  3  2  0  0  0  0
  5  4  1  0  0  0  0
  5  9  2  0  0  0  0
  6  7  1  0  0  0  0
  6  5  1  0  0  0  0
  7  8  2  0  0  0  0
  8  9  1  0  0  0  0
  9  1  1  0  0  0  0
 10  6  1  0  0  0  0
 12 13  2  0  0  0  0
 13 14  1  0  0  0  0
 14 15  1  0  0  0  0
 15 17  2  0  0  0  0
 15 16  1  0  0  0  0
 18 20  1  0  0  0  0
 18 17  1  0  0  0  0
 19 18  2  0  0  0  0
 21 19  1  0  0  0  0
 21 14  2  0  0  0  0
 22 19  1  0  0  0  0
 22 23  1  0  0  0  0
 23 20  1  0  0  0  0
 24  7  1  0  0  0  0
 25 24  1  0  0  0  0
 26 25  2  0  0  0  0
 27 28  2  0  0  0  0
 27 26  1  0  0  0  0
 28 29  1  0  0  0  0
 29 24  2  0  0  0  0
M  END
>  <Pose>
1

>  <Score>
-8.723

$$$$
