MODEL 1
REMARK VINA RESULT:    -8.723      0.000      0.000
REMARK INTER + INTRA:         -10.904
REMARK INTER:                 -10.253
REMARK INTRA:                  -0.651
REMARK UNBOUND:                -0.651
REMARK  3 active torsions:
REMARK  status: ('A' for Active; 'I' for Inactive)
REMARK    1  A    between atoms: C_7  and  C_8 
REMARK    2  A    between atoms: C_9  and  C_10 
REMARK    3  A    between atoms: C_16  and  C_19 
ROOT
ATOM      1  C   UNK d   1     -38.685 -67.795  50.574  0.00  0.00     0.065 A 
ATOM      2  N   UNK d   1     -37.807 -68.752  50.755  0.00  0.00    -0.359 N 
ATOM      3  C   UNK d   1     -36.643 -68.755  50.037  0.00  0.00     0.093 A 
ATOM      4  C   UNK d   1     -36.316 -67.804  49.121  0.00  0.00     0.049 A 
ATOM      5  C   UNK d   1     -37.213 -66.780  48.905  0.00  0.00     0.068 A 
ATOM      6  N   UNK d   1     -37.231 -65.673  48.085  0.00  0.00    -0.333 N 
ATOM      7  C   UNK d   1     -38.357 -65.005  48.275  0.00  0.00     0.141 A 
ATOM      8  N   UNK d   1     -39.047 -65.697  49.222  0.00  0.00    -0.226 NA
ATOM      9  C   UNK d   1     -38.373 -66.782  49.623  0.00  0.00     0.113 A 
ATOM     10  C   UNK d   1     -36.119 -65.395  47.222  0.00  0.00     0.158 C 
ATOM     11  C   UNK d   1     -37.981 -69.777  51.742  0.00  0.00     0.156 C 
ENDROOT
BRANCH   1  12
ATOM     12  C   UNK d   1     -40.003 -67.698  51.172  0.00  0.00     0.033 C 
ATOM     13  C   UNK d   1     -40.429 -67.119  52.239  0.00  0.00     0.015 C 
BRANCH  13  14
ATOM     14  C   UNK d   1     -41.743 -67.012  52.831  0.00  0.00    -0.016 A 
ATOM     15  C   UNK d   1     -42.135 -67.503  54.032  0.00  0.00     0.024 A 
ATOM     16 Br   UNK d   1     -40.955 -68.581  55.070  0.00  0.00    -0.050 Br
ATOM     17  C   UNK d   1     -43.438 -67.284  54.545  0.00  0.00     0.059 A 
ATOM     18  C   UNK d   1     -44.356 -66.561  53.834  0.00  0.00     0.106 A 
ATOM     19  C   UNK d   1     -43.986 -66.051  52.609  0.00  0.00     0.105 A 
ATOM     20  O   UNK d   1     -45.683 -66.172  54.046  0.00  0.00    -0.323 OA
ATOM     21  C   UNK d   1     -42.718 -66.270  52.119  0.00  0.00     0.052 A 
ATOM     22  O   UNK d   1     -45.098 -65.362  52.096  0.00  0.00    -0.323 OA
ATOM     23  C   UNK d   1     -45.904 -65.037  53.210  0.00  0.00     0.352 C 
ENDBRANCH  13  14
ENDBRANCH   1  12
BRANCH   7  24
ATOM     24  C   UNK d   1     -38.816 -63.759  47.650  0.00  0.00     0.010 A 
ATOM     25  C   UNK d   1     -38.129 -62.592  47.633  0.00  0.00     0.015 A 
ATOM     26  C   UNK d   1     -38.685 -61.450  47.026  0.00  0.00     0.001 A 
ATOM     27  C   UNK d   1     -39.931 -61.512  46.443  0.00  0.00     0.000 A 
ATOM     28  C   UNK d   1     -40.655 -62.696  46.445  0.00  0.00     0.001 A 
ATOM     29  C   UNK d   1     -40.082 -63.771  47.041  0.00  0.00     0.015 A 
ENDBRANCH   7  24
TORSDOF 3
ENDMDL
