MODEL 1
REMARK VINA RESULT:    -6.975      0.000      0.000
REMARK INTER + INTRA:          -8.692
REMARK INTER:                  -7.790
REMARK INTRA:                  -0.901
REMARK UNBOUND:                -0.901
REMARK  2 active torsions:
REMARK  status: ('A' for Active; 'I' for Inactive)
REMARK    1  A    between atoms: C_10  and  C_21 
REMARK    2  A    between atoms: C_26  and  C_27 
ROOT
ATOM      1 Br   UNK d   1     -40.210 -67.344  50.522  0.00  0.00    -0.045 Br
ATOM      2  C   UNK d   1     -38.337 -67.415  50.208  0.00  0.00     0.083 A 
ATOM      3  C   UNK d   1     -37.677 -66.563  49.327  0.00  0.00     0.107 A 
ATOM      4  C   UNK d   1     -36.309 -66.656  49.132  0.00  0.00     0.013 A 
ATOM      5  C   UNK d   1     -35.576 -67.605  49.815  0.00  0.00     0.037 A 
ATOM      6  C   UNK d   1     -36.216 -68.446  50.682  0.00  0.00     0.049 A 
ATOM      7  C   UNK d   1     -37.572 -68.348  50.870  0.00  0.00     0.144 A 
ATOM      8  O   UNK d   1     -38.159 -69.248  51.779  0.00  0.00    -0.189 OA
ATOM      9 Br   UNK d   1     -35.137 -69.741  51.601  0.00  0.00    -0.048 Br
ATOM     10  C   UNK d   1     -35.631 -65.825  48.267  0.00  0.00     0.003 A 
ATOM     11  C   UNK d   1     -36.371 -64.878  47.588  0.00  0.00     0.013 A 
ATOM     12  C   UNK d   1     -37.814 -64.852  47.856  0.00  0.00     0.108 A 
ATOM     13  C   UNK d   1     -38.549 -63.890  47.161  0.00  0.00     0.097 A 
ATOM     14  C   UNK d   1     -37.928 -63.031  46.284  0.00  0.00     0.209 A 
ATOM     15  O   UNK d   1     -38.630 -62.181  45.682  0.00  0.00    -0.285 OA
ATOM     16  C   UNK d   1     -36.557 -63.082  46.052  0.00  0.00     0.063 A 
ATOM     17  C   UNK d   1     -35.778 -63.997  46.698  0.00  0.00     0.038 A 
ATOM     18 Br   UNK d   1     -35.776 -61.850  44.817  0.00  0.00    -0.047 Br
ATOM     19 Br   UNK d   1     -40.445 -63.799  47.461  0.00  0.00    -0.044 Br
ATOM     20  O   UNK d   1     -38.399 -65.674  48.695  0.00  0.00    -0.306 OA
ENDROOT
BRANCH  10  21
ATOM     21  C   UNK d   1     -34.187 -65.930  48.056  0.00  0.00     0.016 A 
ATOM     22  C   UNK d   1     -33.303 -65.276  48.895  0.00  0.00     0.046 A 
ATOM     23  C   UNK d   1     -31.938 -65.355  48.714  0.00  0.00     0.026 A 
ATOM     24 Cl   UNK d   1     -33.947 -64.317  50.232  0.00  0.00    -0.083 Cl
ATOM     25  C   UNK d   1     -31.455 -66.110  47.665  0.00  0.00     0.026 A 
ATOM     26  C   UNK d   1     -32.289 -66.770  46.816  0.00  0.00     0.052 A 
ATOM     27  C   UNK d   1     -33.650 -66.679  47.011  0.00  0.00     0.075 A 
ATOM     28 Cl   UNK d   1     -31.588 -67.710  45.508  0.00  0.00    -0.083 Cl
BRANCH  27  29
ATOM     29  C   UNK d   1     -34.542 -67.371  46.113  0.00  0.00     0.212 C 
ATOM     30  O   UNK d   1     -35.129 -68.440  46.435  0.00  0.00    -0.644 OA
ATOM     31  O   UNK d   1     -34.785 -66.869  44.836  0.00  0.00    -0.644 OA
ENDBRANCH  27  29
ENDBRANCH  10  21
TORSDOF 2
ENDMDL
