MODEL 1
REMARK VINA RESULT:    -8.424      0.000      0.000
REMARK INTER + INTRA:          -8.424
REMARK INTER:                  -8.424
REMARK INTRA:                   0.000
REMARK UNBOUND:                 0.000
REMARK  0 active torsions:
REMARK  status: ('A' for Active; 'I' for Inactive)
ROOT
ATOM      1 Br   UNK d   1     -41.265 -62.395  47.992  0.00  0.00    -0.045 Br
ATOM      2  C   UNK d   1     -39.556 -63.109  47.534  0.00  0.00     0.083 A 
ATOM      3  C   UNK d   1     -39.055 -64.269  48.155  0.00  0.00     0.106 A 
ATOM      4  C   UNK d   1     -37.840 -64.810  47.857  0.00  0.00     0.023 A 
ATOM      5  C   UNK d   1     -37.069 -64.169  46.885  0.00  0.00     0.036 A 
ATOM      6  C   UNK d   1     -37.554 -63.045  46.284  0.00  0.00     0.049 A 
ATOM      7  C   UNK d   1     -38.783 -62.493  46.581  0.00  0.00     0.144 A 
ATOM      8  O   UNK d   1     -39.219 -61.332  45.920  0.00  0.00    -0.189 OA
ATOM      9 Br   UNK d   1     -36.508 -62.163  44.955  0.00  0.00    -0.048 Br
ATOM     10  C   UNK d   1     -37.348 -66.012  48.516  0.00  0.00     0.159 A 
ATOM     11  O   UNK d   1     -37.208 -67.005  47.502  0.00  0.00    -0.291 OA
ATOM     12  C   UNK d   1     -35.916 -67.438  47.380  0.00  0.00     0.295 A 
ATOM     13  O   UNK d   1     -35.510 -68.303  46.570  0.00  0.00    -0.259 OA
ATOM     14  C   UNK d   1     -35.153 -66.696  48.365  0.00  0.00     0.049 A 
ATOM     15  C   UNK d   1     -35.971 -65.836  49.062  0.00  0.00     0.003 A 
ATOM     16  C   UNK d   1     -35.415 -65.063  50.027  0.00  0.00     0.012 A 
ATOM     17  C   UNK d   1     -34.063 -65.150  50.286  0.00  0.00     0.001 A 
ATOM     18  C   UNK d   1     -33.240 -66.009  49.590  0.00  0.00     0.001 A 
ATOM     19  C   UNK d   1     -33.787 -66.798  48.613  0.00  0.00     0.018 A 
ATOM     20  C   UNK d   1     -38.270 -66.560  49.505  0.00  0.00     0.023 A 
ATOM     21  C   UNK d   1     -39.477 -65.971  49.761  0.00  0.00     0.106 A 
ATOM     22  C   UNK d   1     -40.356 -66.515  50.720  0.00  0.00     0.083 A 
ATOM     23  C   UNK d   1     -39.978 -67.652  51.396  0.00  0.00     0.144 A 
ATOM     24  C   UNK d   1     -38.755 -68.255  51.142  0.00  0.00     0.049 A 
ATOM     25  C   UNK d   1     -37.908 -67.722  50.211  0.00  0.00     0.036 A 
ATOM     26 Br   UNK d   1     -38.217 -69.830  52.070  0.00  0.00    -0.048 Br
ATOM     27  O   UNK d   1     -40.851 -68.176  52.336  0.00  0.00    -0.189 OA
ATOM     28 Br   UNK d   1     -42.037 -65.662  51.050  0.00  0.00    -0.045 Br
ATOM     29  O   UNK d   1     -39.910 -64.825  49.109  0.00  0.00    -0.306 OA
ENDROOT
TORSDOF 0
ENDMDL
