MODEL 1
REMARK VINA RESULT:    -5.672      0.000      0.000
REMARK INTER + INTRA:          -5.672
REMARK INTER:                  -5.672
REMARK INTRA:                   0.000
REMARK UNBOUND:                 0.000
REMARK  0 active torsions:
REMARK  status: ('A' for Active; 'I' for Inactive)
ROOT
ATOM      1  I   UNK d   1     -47.209 -62.597  49.892  0.00  0.00    -0.038 I 
ATOM      2  C   UNK d   1     -47.214 -64.077  51.400  0.00  0.00     0.078 A 
ATOM      3  C   UNK d   1     -48.449 -64.442  51.926  0.00  0.00     0.105 A 
ATOM      4  C   UNK d   1     -48.484 -65.390  52.896  0.00  0.00     0.023 A 
ATOM      5  C   UNK d   1     -47.286 -65.963  53.330  0.00  0.00     0.035 A 
ATOM      6  C   UNK d   1     -46.059 -65.608  52.815  0.00  0.00     0.045 A 
ATOM      7  C   UNK d   1     -46.032 -64.643  51.828  0.00  0.00     0.143 A 
ATOM      8  O   UNK d   1     -44.807 -64.269  51.295  0.00  0.00    -0.189 OA
ATOM      9  I   UNK d   1     -44.269 -66.508  53.508  0.00  0.00    -0.042 I 
ATOM     10  C   UNK d   1     -49.716 -65.845  53.513  0.00  0.00     0.161 A 
ATOM     11  O   UNK d   1     -49.707 -65.617  54.930  0.00  0.00    -0.291 OA
ATOM     12  C   UNK d   1     -49.881 -66.774  55.641  0.00  0.00     0.297 A 
ATOM     13  O   UNK d   1     -49.926 -66.954  56.892  0.00  0.00    -0.259 OA
ATOM     14  C   UNK d   1     -50.016 -67.840  54.658  0.00  0.00     0.074 A 
ATOM     15  C   UNK d   1     -49.920 -67.299  53.412  0.00  0.00     0.028 A 
ATOM     16  C   UNK d   1     -50.016 -68.111  52.282  0.00  0.00     0.068 A 
ATOM     17  C   UNK d   1     -50.210 -69.471  52.397  0.00  0.00     0.080 A 
ATOM     18  C   UNK d   1     -50.308 -70.021  53.673  0.00  0.00     0.080 A 
ATOM     19  C   UNK d   1     -50.214 -69.226  54.786  0.00  0.00     0.074 A 
ATOM     20 Cl   UNK d   1     -50.336 -69.922  56.357  0.00  0.00    -0.081 Cl
ATOM     21 Cl   UNK d   1     -50.553 -71.732  53.887  0.00  0.00    -0.081 Cl
ATOM     22 Cl   UNK d   1     -50.327 -70.458  50.959  0.00  0.00    -0.081 Cl
ATOM     23 Cl   UNK d   1     -49.886 -67.358  50.728  0.00  0.00    -0.082 Cl
ATOM     24  C   UNK d   1     -50.909 -65.151  52.956  0.00  0.00     0.023 A 
ATOM     25  C   UNK d   1     -50.838 -64.209  51.987  0.00  0.00     0.105 A 
ATOM     26  C   UNK d   1     -52.033 -63.638  51.556  0.00  0.00     0.078 A 
ATOM     27  C   UNK d   1     -53.260 -63.993  52.070  0.00  0.00     0.143 A 
ATOM     28  C   UNK d   1     -53.294 -64.958  53.057  0.00  0.00     0.045 A 
ATOM     29  C   UNK d   1     -52.137 -65.540  53.506  0.00  0.00     0.035 A 
ATOM     30  I   UNK d   1     -55.156 -65.522  53.864  0.00  0.00    -0.042 I 
ATOM     31  O   UNK d   1     -54.436 -63.432  51.646  0.00  0.00    -0.189 OA
ATOM     32  I   UNK d   1     -51.936 -62.175  50.054  0.00  0.00    -0.038 I 
ATOM     33  O   UNK d   1     -49.623 -63.828  51.447  0.00  0.00    -0.307 OA
ENDROOT
TORSDOF 0
ENDMDL
