MODEL 1
REMARK VINA RESULT:    -8.212      0.000      0.000
REMARK INTER + INTRA:          -8.212
REMARK INTER:                  -8.212
REMARK INTRA:                   0.000
REMARK UNBOUND:                 0.000
REMARK  0 active torsions:
REMARK  status: ('A' for Active; 'I' for Inactive)
ROOT
ATOM      1  I   UNK d   1     -41.928 -64.835  51.149  0.00  0.00    -0.038 I 
ATOM      2  C   UNK d   1     -40.269 -66.080  50.716  0.00  0.00     0.078 A 
ATOM      3  C   UNK d   1     -39.404 -65.631  49.704  0.00  0.00     0.105 A 
ATOM      4  C   UNK d   1     -38.332 -66.412  49.407  0.00  0.00     0.023 A 
ATOM      5  C   UNK d   1     -38.140 -67.613  50.112  0.00  0.00     0.035 A 
ATOM      6  C   UNK d   1     -38.985 -68.049  51.099  0.00  0.00     0.045 A 
ATOM      7  C   UNK d   1     -40.071 -67.257  51.400  0.00  0.00     0.143 A 
ATOM      8  O   UNK d   1     -40.947 -67.668  52.394  0.00  0.00    -0.189 OA
ATOM      9  I   UNK d   1     -38.635 -69.872  52.124  0.00  0.00    -0.042 I 
ATOM     10  C   UNK d   1     -37.371 -66.030  48.365  0.00  0.00     0.159 A 
ATOM     11  O   UNK d   1     -37.185 -67.064  47.417  0.00  0.00    -0.291 OA
ATOM     12  C   UNK d   1     -35.888 -67.504  47.372  0.00  0.00     0.295 A 
ATOM     13  O   UNK d   1     -35.384 -68.403  46.648  0.00  0.00    -0.259 OA
ATOM     14  C   UNK d   1     -35.137 -66.726  48.348  0.00  0.00     0.049 A 
ATOM     15  C   UNK d   1     -35.999 -65.859  48.937  0.00  0.00     0.003 A 
ATOM     16  C   UNK d   1     -35.503 -64.996  49.921  0.00  0.00     0.012 A 
ATOM     17  C   UNK d   1     -34.173 -65.037  50.272  0.00  0.00     0.001 A 
ATOM     18  C   UNK d   1     -33.296 -65.918  49.676  0.00  0.00     0.001 A 
ATOM     19  C   UNK d   1     -33.772 -66.769  48.708  0.00  0.00     0.018 A 
ATOM     20  C   UNK d   1     -37.698 -64.751  47.712  0.00  0.00     0.023 A 
ATOM     21  C   UNK d   1     -38.782 -64.018  48.054  0.00  0.00     0.105 A 
ATOM     22  C   UNK d   1     -39.030 -62.820  47.392  0.00  0.00     0.078 A 
ATOM     23  C   UNK d   1     -38.192 -62.379  46.407  0.00  0.00     0.143 A 
ATOM     24  C   UNK d   1     -37.080 -63.099  46.035  0.00  0.00     0.045 A 
ATOM     25  C   UNK d   1     -36.858 -64.274  46.698  0.00  0.00     0.035 A 
ATOM     26  I   UNK d   1     -35.785 -62.412  44.510  0.00  0.00    -0.042 I 
ATOM     27  O   UNK d   1     -38.462 -61.178  45.764  0.00  0.00    -0.189 OA
ATOM     28  I   UNK d   1     -40.737 -61.674  47.936  0.00  0.00    -0.038 I 
ATOM     29  O   UNK d   1     -39.677 -64.424  49.057  0.00  0.00    -0.307 OA
ENDROOT
TORSDOF 0
ENDMDL
