/Users/jonathanwahrer/Desktop/Msc/3_Semester/Drug_Design_Praktikum/waehrer_HTS_screening/HTS_experiment/out/docking_results/vina_output/3e7o/0979_docked.pdbqt
 OpenBabel03192216023D

 29 33  0  0  1  0  0  0  0  0999 V2000
  -41.9280  -64.8350   51.1490 I   0  0  0  0  0  0  0  0  0  0  0  0
  -40.2690  -66.0800   50.7160 C   0  0  0  0  0  0  0  0  0  0  0  0
  -39.4040  -65.6310   49.7040 C   0  0  0  0  0  0  0  0  0  0  0  0
  -38.3320  -66.4120   49.4070 C   0  0  0  0  0  0  0  0  0  0  0  0
  -38.1400  -67.6130   50.1120 C   0  0  0  0  0  3  0  0  0  0  0  0
  -38.9850  -68.0490   51.0990 C   0  0  0  0  0  0  0  0  0  0  0  0
  -40.0710  -67.2570   51.4000 C   0  0  0  0  0  0  0  0  0  0  0  0
  -40.9470  -67.6680   52.3940 O   0  0  0  0  0  1  0  0  0  0  0  0
  -38.6350  -69.8720   52.1240 I   0  0  0  0  0  0  0  0  0  0  0  0
  -37.3710  -66.0300   48.3650 C   0  0  2  0  0  0  0  0  0  0  0  0
  -37.1850  -67.0640   47.4170 O   0  0  0  0  0  0  0  0  0  0  0  0
  -35.8880  -67.5040   47.3720 C   0  0  0  0  0  0  0  0  0  0  0  0
  -35.3840  -68.4030   46.6480 O   0  0  0  0  0  0  0  0  0  0  0  0
  -35.1370  -66.7260   48.3480 C   0  0  0  0  0  0  0  0  0  0  0  0
  -35.9990  -65.8590   48.9370 C   0  0  0  0  0  0  0  0  0  0  0  0
  -35.5030  -64.9960   49.9210 C   0  0  0  0  0  3  0  0  0  0  0  0
  -34.1730  -65.0370   50.2720 C   0  0  0  0  0  3  0  0  0  0  0  0
  -33.2960  -65.9180   49.6760 C   0  0  0  0  0  3  0  0  0  0  0  0
  -33.7720  -66.7690   48.7080 C   0  0  0  0  0  3  0  0  0  0  0  0
  -37.6980  -64.7510   47.7120 C   0  0  0  0  0  0  0  0  0  0  0  0
  -38.7820  -64.0180   48.0540 C   0  0  0  0  0  0  0  0  0  0  0  0
  -39.0300  -62.8200   47.3920 C   0  0  0  0  0  0  0  0  0  0  0  0
  -38.1920  -62.3790   46.4070 C   0  0  0  0  0  0  0  0  0  0  0  0
  -37.0800  -63.0990   46.0350 C   0  0  0  0  0  0  0  0  0  0  0  0
  -36.8580  -64.2740   46.6980 C   0  0  0  0  0  3  0  0  0  0  0  0
  -35.7850  -62.4120   44.5100 I   0  0  0  0  0  0  0  0  0  0  0  0
  -38.4620  -61.1780   45.7640 O   0  0  0  0  0  1  0  0  0  0  0  0
  -40.7370  -61.6740   47.9360 I   0  0  0  0  0  0  0  0  0  0  0  0
  -39.6770  -64.4240   49.0570 O   0  0  0  0  0  0  0  0  0  0  0  0
  2  1  1  0  0  0  0
  2  7  1  0  0  0  0
  3  2  2  0  0  0  0
  4  3  1  0  0  0  0
  4  5  2  0  0  0  0
  5  6  1  0  0  0  0
  6  7  2  0  0  0  0
  6  9  1  0  0  0  0
  7  8  1  0  0  0  0
 10 11  1  6  0  0  0
 10 15  1  0  0  0  0
 10  4  1  0  0  0  0
 12 11  1  0  0  0  0
 12 14  1  0  0  0  0
 13 12  2  0  0  0  0
 14 19  2  0  0  0  0
 14 15  1  0  0  0  0
 15 16  2  0  0  0  0
 16 17  1  0  0  0  0
 18 17  2  0  0  0  0
 19 18  1  0  0  0  0
 20 21  1  0  0  0  0
 20 10  1  0  0  0  0
 21 29  1  0  0  0  0
 22 28  1  0  0  0  0
 22 21  2  0  0  0  0
 23 22  1  0  0  0  0
 24 23  2  0  0  0  0
 24 25  1  0  0  0  0
 25 20  2  0  0  0  0
 26 24  1  0  0  0  0
 27 23  1  0  0  0  0
 29  3  1  0  0  0  0
M  END
>  <Pose>
1

>  <Score>
-8.212

$$$$
