MODEL 1
REMARK VINA RESULT:    -8.074      0.000      0.000
REMARK INTER + INTRA:          -9.651
REMARK INTER:                  -9.017
REMARK INTRA:                  -0.634
REMARK UNBOUND:                -0.634
REMARK  2 active torsions:
REMARK  status: ('A' for Active; 'I' for Inactive)
REMARK    1  A    between atoms: C_9  and  C_19 
REMARK    2  A    between atoms: C_20  and  C_25 
ROOT
ATOM      1  I   UNK d   1     -40.901 -68.396  53.572  0.00  0.00    -0.038 I 
ATOM      2  C   UNK d   1     -39.268 -68.569  52.251  0.00  0.00     0.077 A 
ATOM      3  C   UNK d   1     -39.061 -67.691  51.207  0.00  0.00     0.106 A 
ATOM      4  C   UNK d   1     -37.994 -67.801  50.340  0.00  0.00     0.011 A 
ATOM      5  C   UNK d   1     -37.109 -68.843  50.547  0.00  0.00     0.018 A 
ATOM      6  C   UNK d   1     -37.310 -69.731  51.593  0.00  0.00     0.042 A 
ATOM      7  C   UNK d   1     -38.388 -69.612  52.461  0.00  0.00     0.126 A 
ATOM      8  O   UNK d   1     -38.541 -70.532  53.496  0.00  0.00    -0.191 OA
ATOM      9  C   UNK d   1     -37.770 -66.933  49.292  0.00  0.00     0.001 A 
ATOM     10  C   UNK d   1     -38.701 -65.909  49.145  0.00  0.00     0.011 A 
ATOM     11  C   UNK d   1     -39.817 -65.826  50.083  0.00  0.00     0.107 A 
ATOM     12  C   UNK d   1     -40.705 -64.789  49.886  0.00  0.00     0.091 A 
ATOM     13  C   UNK d   1     -40.571 -63.869  48.869  0.00  0.00     0.191 A 
ATOM     14  O   UNK d   1     -41.398 -62.924  48.705  0.00  0.00    -0.287 OA
ATOM     15  C   UNK d   1     -39.516 -63.947  47.981  0.00  0.00     0.057 A 
ATOM     16  C   UNK d   1     -38.608 -64.973  48.151  0.00  0.00     0.019 A 
ATOM     17  I   UNK d   1     -42.344 -64.587  51.187  0.00  0.00    -0.037 I 
ATOM     18  O   UNK d   1     -39.917 -66.715  51.040  0.00  0.00    -0.306 OA
ENDROOT
BRANCH   9  19
ATOM     19  C   UNK d   1     -36.642 -67.046  48.373  0.00  0.00    -0.007 A 
ATOM     20  C   UNK d   1     -35.466 -66.369  48.680  0.00  0.00     0.051 A 
ATOM     21  C   UNK d   1     -34.381 -66.446  47.848  0.00  0.00     0.019 A 
ATOM     22  C   UNK d   1     -34.458 -67.200  46.698  0.00  0.00     0.001 A 
ATOM     23  C   UNK d   1     -35.610 -67.880  46.370  0.00  0.00     0.001 A 
ATOM     24  C   UNK d   1     -36.688 -67.789  47.222  0.00  0.00     0.013 A 
BRANCH  20  25
ATOM     25  C   UNK d   1     -35.374 -65.567  49.897  0.00  0.00     0.210 C 
ATOM     26  O   UNK d   1     -34.815 -65.975  50.939  0.00  0.00    -0.644 OA
ATOM     27  O   UNK d   1     -35.918 -64.291  49.944  0.00  0.00    -0.644 OA
ENDBRANCH  20  25
ENDBRANCH   9  19
TORSDOF 2
ENDMDL
