/Users/jonathanwahrer/Desktop/Msc/3_Semester/Drug_Design_Praktikum/waehrer_HTS_screening/HTS_experiment/out/docking_results/vina_output/3e7o/0983_docked.pdbqt
 OpenBabel03192216023D

 34 37  0  0  0  0  0  0  0  0999 V2000
  -41.1210  -66.4090   50.7550 C   0  0  0  0  0  0  0  0  0  0  0  0
  -40.2640  -67.3770   51.2980 C   0  0  0  0  0  0  0  0  0  0  0  0
  -39.1750  -67.3930   50.4550 C   0  0  0  0  0  0  0  0  0  0  0  0
  -39.3750  -66.4950   49.4800 N   0  0  0  0  0  0  0  0  0  0  0  0
  -40.5750  -65.8550   49.6270 C   0  0  0  0  0  0  0  0  0  0  0  0
  -38.1310  -68.2710   50.7350 C   0  0  0  0  0  0  0  0  0  0  0  0
  -38.2120  -69.0860   51.8300 C   0  0  0  0  0  3  0  0  0  0  0  0
  -39.3160  -69.0740   52.6880 C   0  0  0  0  0  0  0  0  0  0  0  0
  -40.3630  -68.1910   52.4040 C   0  0  0  0  0  3  0  0  0  0  0  0
  -39.3690  -70.2320   54.1920 Br  0  0  0  0  0  0  0  0  0  0  0  0
  -36.6200  -68.3160   49.5940 Br  0  0  0  0  0  0  0  0  0  0  0  0
  -38.7020  -66.2910   48.6880 H   0  0  0  0  0  0  0  0  0  0  0  0
  -41.0760  -64.7950   48.7610 C   0  0  0  0  0  0  0  0  0  0  0  0
  -42.2790  -64.1890   48.9570 N   0  0  0  0  0  0  0  0  0  0  0  0
  -42.5050  -63.2620   48.0120 C   0  0  0  0  0  0  0  0  0  0  0  0
  -42.9560  -64.3920   49.7250 H   0  0  0  0  0  0  0  0  0  0  0  0
  -41.4310  -63.2340   47.1500 C   0  0  0  0  0  0  0  0  0  0  0  0
  -43.5430  -62.3800   47.7500 C   0  0  0  0  0  0  0  0  0  0  0  0
  -40.5580  -64.2080   47.6490 C   0  0  0  0  0  0  0  0  0  0  0  0
  -41.3760  -62.3750   46.0710 C   0  0  0  0  0  3  0  0  0  0  0  0
  -42.4190  -61.4980   45.8180 C   0  0  0  0  0  0  0  0  0  0  0  0
  -43.5060  -61.5140   46.6770 C   0  0  0  0  0  3  0  0  0  0  0  0
  -42.3650  -60.2960   44.3260 Br  0  0  0  0  0  0  0  0  0  0  0  0
  -45.0690  -62.3500   48.8930 Br  0  0  0  0  0  0  0  0  0  0  0  0
  -39.3470  -64.4930   47.0460 O   0  0  0  0  0  0  0  0  0  0  0  0
  -37.8880  -63.7570   47.5330 S   0  0  0  0  0  0  0  0  0  0  0  0
  -38.1010  -62.3070   47.8570 O   0  0  0  0  0  1  0  0  0  0  0  0
  -36.8430  -63.8270   46.4560 O   0  0  0  0  0  1  0  0  0  0  0  0
  -37.2520  -64.5940   48.8660 O   0  0  0  0  0  1  0  0  0  0  0  0
  -42.3500  -66.0920   51.3230 O   0  0  0  0  0  0  0  0  0  0  0  0
  -42.5350  -64.7170   52.3270 S   0  0  0  0  0  0  0  0  0  0  0  0
  -41.1770  -64.0790   52.4370 O   0  0  0  0  0  1  0  0  0  0  0  0
  -43.4940  -63.7270   51.7130 O   0  0  0  0  0  1  0  0  0  0  0  0
  -43.0270  -65.1560   53.8730 O   0  0  0  0  0  1  0  0  0  0  0  0
  1  2  1  0  0  0  0
  1 30  1  0  0  0  0
  2  9  1  0  0  0  0
  3  6  1  0  0  0  0
  3  2  2  0  0  0  0
  4  5  1  0  0  0  0
  4  3  1  0  0  0  0
  5  1  2  0  0  0  0
  6  7  2  0  0  0  0
  7  8  1  0  0  0  0
  8 10  1  0  0  0  0
  9  8  2  0  0  0  0
 11  6  1  0  0  0  0
 12  4  1  0  0  0  0
 13 14  1  0  0  0  0
 13  5  1  0  0  0  0
 14 16  1  0  0  0  0
 15 14  1  0  0  0  0
 17 19  1  0  0  0  0
 17 15  2  0  0  0  0
 18 15  1  0  0  0  0
 18 24  1  0  0  0  0
 19 13  2  0  0  0  0
 20 17  1  0  0  0  0
 21 20  2  0  0  0  0
 21 22  1  0  0  0  0
 22 18  2  0  0  0  0
 23 21  1  0  0  0  0
 25 26  1  0  0  0  0
 25 19  1  0  0  0  0
 26 27  1  0  0  0  0
 26 29  1  0  0  0  0
 28 26  1  0  0  0  0
 30 31  1  0  0  0  0
 31 32  1  0  0  0  0
 31 34  1  0  0  0  0
 33 31  1  0  0  0  0
M  END
>  <Pose>
1

>  <Score>
-8.093

$$$$
