/Users/jonathanwahrer/Desktop/Msc/3_Semester/Drug_Design_Praktikum/waehrer_HTS_screening/HTS_experiment/out/docking_results/vina_output/3e7o/0985_docked.pdbqt
 OpenBabel03192216023D

 28 31  0  0  1  0  0  0  0  0999 V2000
  -40.6270  -67.1580   51.7450 N   0  0  0  0  0  0  0  0  0  0  0  0
  -41.5070  -67.3120   52.7420 C   0  0  0  0  0  0  0  0  0  0  0  0
  -42.6390  -66.6290   53.0670 N   0  0  0  0  0  0  0  0  0  0  0  0
  -43.3990  -66.9340   54.1150 C   0  0  0  0  0  0  0  0  0  0  0  0
  -43.0320  -67.9670   54.8950 N   0  0  0  0  0  0  0  0  0  0  0  0
  -41.9220  -68.6860   54.6300 C   0  0  0  0  0  0  0  0  0  0  0  0
  -41.1320  -68.3720   53.5430 C   0  0  0  0  0  0  0  0  0  0  0  0
  -40.0030  -68.8580   53.0070 N   0  0  0  0  0  0  0  0  0  0  0  0
  -39.7000  -68.1170   51.9150 C   0  0  0  0  0  0  0  0  0  0  0  0
  -38.1880  -68.3710   50.7660 Br  0  0  0  0  0  0  0  0  0  0  0  0
  -40.7410  -66.1330   50.7370 C   0  0  2  0  0  3  0  0  0  0  0  0
  -39.9810  -66.4240   49.6050 O   0  0  0  0  0  0  0  0  0  0  0  0
  -40.1650  -65.2870   48.8570 C   0  0  1  0  0  3  0  0  0  0  0  0
  -39.7590  -64.1920   49.8510 C   0  0  1  0  0  3  0  0  0  0  0  0
  -39.3000  -65.1660   47.6590 C   0  0  0  0  0  2  0  0  0  0  0  0
  -40.5720  -63.0980   49.5650 O   0  0  0  0  0  0  0  0  0  0  0  0
  -40.0950  -64.8230   51.1860 C   0  0  1  0  0  3  0  0  0  0  0  0
  -40.6900  -63.0220   47.8640 P   0  0  2  0  0  0  0  0  0  0  0  0
  -42.0810  -63.3920   47.3990 O   0  0  0  0  0  0  0  0  0  0  0  0
  -39.4880  -63.8940   47.1060 O   0  0  0  0  0  0  0  0  0  0  0  0
  -40.4830  -61.3710   47.4620 O   0  0  0  0  0  1  0  0  0  0  0  0
  -40.9330  -64.0570   51.9560 O   0  0  0  0  0  0  0  0  0  0  0  0
  -41.8760  -64.1150   51.5990 H   0  0  0  0  0  0  0  0  0  0  0  0
  -44.5760  -66.1880   54.4140 N   0  0  0  0  0  0  0  0  0  0  0  0
  -44.7390  -65.3280   53.8480 H   0  0  0  0  0  0  0  0  0  0  0  0
  -45.2520  -66.4790   55.1640 H   0  0  0  0  0  0  0  0  0  0  0  0
  -41.5390  -69.7560   55.4330 O   0  0  0  0  0  0  0  0  0  0  0  0
  -42.1640  -70.5760   55.4180 H   0  0  0  0  0  0  0  0  0  0  0  0
  1  9  1  0  0  0  0
  1  2  1  0  0  0  0
  2  3  1  0  0  0  0
  2  7  2  0  0  0  0
  3  4  2  0  0  0  0
  4 24  1  0  0  0  0
  4  5  1  0  0  0  0
  6  5  2  0  0  0  0
  6 27  1  0  0  0  0
  7  6  1  0  0  0  0
  8  7  1  0  0  0  0
  9  8  2  0  0  0  0
 10  9  1  0  0  0  0
 11 17  1  0  0  0  0
 11  1  1  1  0  0  0
 12 11  1  0  0  0  0
 13 15  1  6  0  0  0
 13 12  1  0  0  0  0
 13 14  1  0  0  0  0
 14 16  1  6  0  0  0
 14 17  1  0  0  0  0
 17 22  1  6  0  0  0
 18 19  2  6  0  0  0
 18 16  1  0  0  0  0
 20 15  1  0  0  0  0
 20 18  1  0  0  0  0
 21 18  1  0  0  0  0
 23 22  1  0  0  0  0
 24 26  1  0  0  0  0
 25 24  1  0  0  0  0
 28 27  1  0  0  0  0
M  END
>  <Pose>
1

>  <Score>
-8.130

$$$$
