MODEL 1
REMARK VINA RESULT:    -8.130      0.000      0.000
REMARK INTER + INTRA:          -9.415
REMARK INTER:                  -9.318
REMARK INTRA:                  -0.096
REMARK UNBOUND:                -0.096
REMARK  4 active torsions:
REMARK  status: ('A' for Active; 'I' for Inactive)
REMARK    1  A    between atoms: C_7  and  N_10 
REMARK    2  A    between atoms: C_8  and  O_9 
REMARK    3  A    between atoms: C_13  and  N_21 
REMARK    4  A    between atoms: C_15  and  O_20 
ROOT
ATOM      1  N   UNK d   1     -40.627 -67.158  51.745  0.00  0.00    -0.277 N 
ATOM      2  C   UNK d   1     -41.507 -67.312  52.742  0.00  0.00     0.186 A 
ATOM      3  N   UNK d   1     -42.639 -66.629  53.067  0.00  0.00    -0.042 NA
ATOM      4  C   UNK d   1     -43.399 -66.934  54.115  0.00  0.00     0.724 A 
ATOM      5  N   UNK d   1     -43.032 -67.967  54.895  0.00  0.00    -0.036 NA
ATOM      6  C   UNK d   1     -41.922 -68.686  54.630  0.00  0.00     0.214 A 
ATOM      7  C   UNK d   1     -41.132 -68.372  53.543  0.00  0.00     0.159 A 
ATOM      8  N   UNK d   1     -40.003 -68.858  53.007  0.00  0.00    -0.216 NA
ATOM      9  C   UNK d   1     -39.700 -68.117  51.915  0.00  0.00     0.182 A 
ATOM     10 Br   UNK d   1     -38.188 -68.371  50.766  0.00  0.00    -0.008 Br
ENDROOT
BRANCH   1  11
ATOM     11  C   UNK d   1     -40.741 -66.133  50.737  0.00  0.00     0.263 C 
ATOM     12  O   UNK d   1     -39.981 -66.424  49.605  0.00  0.00    -0.353 OA
ATOM     13  C   UNK d   1     -40.165 -65.287  48.857  0.00  0.00     0.180 C 
ATOM     14  C   UNK d   1     -39.759 -64.192  49.851  0.00  0.00     0.198 C 
ATOM     15  C   UNK d   1     -39.300 -65.166  47.659  0.00  0.00     0.216 C 
ATOM     16  O   UNK d   1     -40.572 -63.098  49.565  0.00  0.00    -0.279 OA
ATOM     17  C   UNK d   1     -40.095 -64.823  51.186  0.00  0.00     0.199 C 
ATOM     18  P   UNK d   1     -40.690 -63.022  47.864  0.00  0.00     0.408 P 
ATOM     19  O   UNK d   1     -42.081 -63.392  47.399  0.00  0.00    -0.624 OA
ATOM     20  O   UNK d   1     -39.488 -63.894  47.106  0.00  0.00    -0.287 OA
ATOM     21  O   UNK d   1     -40.483 -61.371  47.462  0.00  0.00    -0.624 OA
BRANCH  17  22
ATOM     22  O   UNK d   1     -40.933 -64.057  51.956  0.00  0.00    -0.388 OA
ATOM     23  H   UNK d   1     -41.876 -64.115  51.599  0.00  0.00     0.210 HD
ENDBRANCH  17  22
ENDBRANCH   1  11
BRANCH   4  24
ATOM     24  N   UNK d   1     -44.576 -66.188  54.414  0.00  0.00    -0.231 N 
ATOM     25  H   UNK d   1     -44.739 -65.328  53.848  0.00  0.00     0.174 HD
ATOM     26  H   UNK d   1     -45.252 -66.479  55.164  0.00  0.00     0.174 HD
ENDBRANCH   4  24
BRANCH   6  27
ATOM     27  O   UNK d   1     -41.539 -69.756  55.433  0.00  0.00    -0.343 OA
ATOM     28  H   UNK d   1     -42.164 -70.576  55.418  0.00  0.00     0.219 HD
ENDBRANCH   6  27
TORSDOF 4
ENDMDL
