MODEL 1
REMARK VINA RESULT:    -8.730      0.000      0.000
REMARK INTER + INTRA:         -10.823
REMARK INTER:                 -10.006
REMARK INTRA:                  -0.816
REMARK UNBOUND:                -0.816
REMARK  3 active torsions:
REMARK  status: ('A' for Active; 'I' for Inactive)
REMARK    1  A    between atoms: C_7  and  N_10 
REMARK    2  A    between atoms: C_8  and  O_9 
REMARK    3  A    between atoms: C_21  and  C_23 
ROOT
ATOM      1  N   UNK d   1     -42.194 -63.191  47.812  0.00  0.00    -0.279 N 
ATOM      2  C   UNK d   1     -41.571 -64.154  48.537  0.00  0.00     0.162 A 
ATOM      3  C   UNK d   1     -40.408 -64.554  47.916  0.00  0.00     0.173 A 
ATOM      4  N   UNK d   1     -40.335 -63.812  46.791  0.00  0.00    -0.214 NA
ATOM      5  C   UNK d   1     -41.410 -62.999  46.737  0.00  0.00     0.182 A 
ATOM      6 Br   UNK d   1     -41.830 -61.730  45.369  0.00  0.00    -0.008 Br
ATOM      7  C   UNK d   1     -39.626 -65.531  48.498  0.00  0.00     0.298 A 
ATOM      8  O   UNK d   1     -38.568 -65.902  47.943  0.00  0.00    -0.264 OA
ATOM      9  N   UNK d   1     -39.960 -66.118  49.671  0.00  0.00    -0.115 N 
ATOM     10  C   UNK d   1     -41.100 -65.712  50.260  0.00  0.00     0.716 A 
ATOM     11  N   UNK d   1     -41.204 -66.435  51.389  0.00  0.00    -0.062 NA
ATOM     12  C   UNK d   1     -40.170 -67.284  51.536  0.00  0.00     0.102 A 
ATOM     13  C   UNK d   1     -39.371 -67.081  50.431  0.00  0.00     0.152 A 
ATOM     14  N   UNK d   1     -41.885 -64.749  49.700  0.00  0.00    -0.171 N 
ATOM     15  H   UNK d   1     -42.769 -64.437  50.162  0.00  0.00     0.186 HD
ENDROOT
BRANCH   1  16
ATOM     16  C   UNK d   1     -43.447 -62.506  48.122  0.00  0.00     0.263 C 
ATOM     17  O   UNK d   1     -43.768 -62.638  49.471  0.00  0.00    -0.353 OA
ATOM     18  C   UNK d   1     -45.123 -62.508  49.599  0.00  0.00     0.180 C 
ATOM     19  C   UNK d   1     -45.683 -63.183  48.345  0.00  0.00     0.197 C 
ATOM     20  C   UNK d   1     -45.703 -63.254  50.777  0.00  0.00     0.214 C 
ATOM     21  O   UNK d   1     -46.850 -62.494  48.027  0.00  0.00    -0.292 OA
ATOM     22  C   UNK d   1     -44.598 -63.013  47.325  0.00  0.00     0.199 C 
ATOM     23  P   UNK d   1     -47.679 -62.247  49.489  0.00  0.00     0.422 P 
ATOM     24  S   UNK d   1     -49.340 -62.694  49.243  0.00  0.00     0.009 SA
ATOM     25  O   UNK d   1     -47.079 -63.240  50.716  0.00  0.00    -0.300 OA
ATOM     26  O   UNK d   1     -47.545 -60.646  50.015  0.00  0.00    -0.240 OA
BRANCH  22  27
ATOM     27  O   UNK d   1     -44.985 -62.087  46.347  0.00  0.00    -0.388 OA
ATOM     28  H   UNK d   1     -45.525 -62.500  45.642  0.00  0.00     0.210 HD
ENDBRANCH  22  27
ENDBRANCH   1  16
BRANCH  12  29
ATOM     29  C   UNK d   1     -39.938 -68.229  52.636  0.00  0.00    -0.005 A 
ATOM     30  C   UNK d   1     -39.098 -69.306  52.460  0.00  0.00     0.014 A 
ATOM     31  C   UNK d   1     -38.857 -70.217  53.481  0.00  0.00     0.001 A 
ATOM     32  C   UNK d   1     -39.479 -70.030  54.694  0.00  0.00     0.000 A 
ATOM     33  C   UNK d   1     -40.332 -68.959  54.912  0.00  0.00     0.001 A 
ATOM     34  C   UNK d   1     -40.533 -68.087  53.865  0.00  0.00     0.014 A 
ENDBRANCH  12  29
TORSDOF 3
ENDMDL
