MODEL 1
REMARK VINA RESULT:    -7.601      0.000      0.000
REMARK INTER + INTRA:          -8.738
REMARK INTER:                  -8.490
REMARK INTRA:                  -0.249
REMARK UNBOUND:                -0.249
REMARK  3 active torsions:
REMARK  status: ('A' for Active; 'I' for Inactive)
REMARK    1  A    between atoms: C_7  and  N_10 
REMARK    2  A    between atoms: C_8  and  O_9 
REMARK    3  A    between atoms: C_15  and  N_20 
ROOT
ATOM      1  P   UNK d   1     -39.309 -63.629  48.719  0.00  0.00     0.422 P 
ATOM      2  S   UNK d   1     -37.625 -64.027  48.952  0.00  0.00     0.009 SA
ATOM      3  O   UNK d   1     -40.114 -63.638  50.225  0.00  0.00    -0.292 OA
ATOM      4  C   UNK d   1     -40.228 -64.952  50.607  0.00  0.00     0.197 C 
ATOM      5  C   UNK d   1     -41.091 -65.689  49.575  0.00  0.00     0.180 C 
ATOM      6  O   UNK d   1     -41.381 -66.853  50.285  0.00  0.00    -0.353 OA
ATOM      7  C   UNK d   1     -41.790 -66.438  51.530  0.00  0.00     0.263 C 
ATOM      8  C   UNK d   1     -41.088 -65.140  51.843  0.00  0.00     0.199 C 
ATOM      9  C   UNK d   1     -40.329 -65.947  48.313  0.00  0.00     0.214 C 
ATOM     10  O   UNK d   1     -40.055 -64.732  47.711  0.00  0.00    -0.300 OA
ATOM     11  O   UNK d   1     -39.395 -62.084  48.094  0.00  0.00    -0.240 OA
ENDROOT
BRANCH   7  12
ATOM     12  N   UNK d   1     -41.450 -67.380  52.580  0.00  0.00    -0.278 N 
ATOM     13  C   UNK d   1     -40.394 -68.230  52.526  0.00  0.00     0.168 A 
ATOM     14  N   UNK d   1     -39.441 -68.438  51.581  0.00  0.00    -0.221 NA
ATOM     15  C   UNK d   1     -40.369 -68.976  53.687  0.00  0.00     0.151 A 
ATOM     16  C   UNK d   1     -38.473 -69.359  51.758  0.00  0.00     0.237 A 
ATOM     17  N   UNK d   1     -38.445 -70.094  52.897  0.00  0.00    -0.222 NA
ATOM     18  C   UNK d   1     -39.371 -69.918  53.856  0.00  0.00     0.155 A 
ATOM     19  N   UNK d   1     -41.409 -68.577  54.442  0.00  0.00    -0.216 NA
ATOM     20  C   UNK d   1     -42.056 -67.607  53.757  0.00  0.00     0.182 A 
ATOM     21 Br   UNK d   1     -43.621 -66.644  54.313  0.00  0.00    -0.008 Br
BRANCH  18  22
ATOM     22  N   UNK d   1     -39.328 -70.702  55.052  0.00  0.00    -0.382 N 
ATOM     23  H   UNK d   1     -38.421 -71.183  55.305  0.00  0.00     0.157 HD
ATOM     24  H   UNK d   1     -40.150 -70.814  55.677  0.00  0.00     0.157 HD
ENDBRANCH  18  22
ENDBRANCH   7  12
BRANCH   8  25
ATOM     25  O   UNK d   1     -42.059 -64.131  51.809  0.00  0.00    -0.388 OA
ATOM     26  H   UNK d   1     -42.970 -64.472  51.866  0.00  0.00     0.210 HD
ENDBRANCH   8  25
TORSDOF 3
ENDMDL
