MODEL 1
REMARK VINA RESULT:    -7.257      0.000      0.000
REMARK INTER + INTRA:         -12.851
REMARK INTER:                 -11.075
REMARK INTRA:                  -1.776
REMARK UNBOUND:                -1.776
REMARK  9 active torsions:
REMARK  status: ('A' for Active; 'I' for Inactive)
REMARK    1  A    between atoms: C_4  and  C_12 
REMARK    2  A    between atoms: C_5  and  C_7 
REMARK    3  A    between atoms: C_7  and  O_8 
REMARK    4  A    between atoms: O_8  and  C_9 
REMARK    5  A    between atoms: C_17  and  N_18 
REMARK       I    between atoms: N_18  and  C_19 
REMARK    6  A    between atoms: C_19  and  C_21 
REMARK    7  A    between atoms: C_23  and  C_26 
REMARK    8  A    between atoms: C_26  and  O_27 
REMARK    9  A    between atoms: O_27  and  C_28 
ROOT
ATOM      1  N   UNK d   1     -36.913 -63.674  46.770  0.00  0.00    -0.339 N 
ATOM      2  C   UNK d   1     -37.806 -62.807  47.447  0.00  0.00     0.276 C 
ATOM      3  O   UNK d   1     -37.514 -61.583  47.513  0.00  0.00    -0.265 OA
ATOM      4  H   UNK d   1     -37.177 -64.690  46.728  0.00  0.00     0.163 HD
ENDROOT
BRANCH   1   5
ATOM      5  C   UNK d   1     -35.724 -63.139  46.190  0.00  0.00     0.211 C 
ATOM      6  C   UNK d   1     -34.459 -63.268  46.929  0.00  0.00     0.187 C 
ATOM      7  S   UNK d   1     -34.382 -63.029  48.702  0.00  0.00    -0.136 SA
ATOM      8  N   UNK d   1     -34.563 -64.669  46.669  0.00  0.00    -0.293 N 
ATOM      9  C   UNK d   1     -33.032 -64.215  49.046  0.00  0.00     0.115 C 
ATOM     10  C   UNK d   1     -33.563 -65.585  48.600  0.00  0.00    -0.013 C 
ATOM     11  C   UNK d   1     -34.255 -65.776  47.521  0.00  0.00     0.121 C 
ATOM     12  C   UNK d   1     -35.055 -64.256  45.406  0.00  0.00     0.251 C 
ATOM     13  O   UNK d   1     -35.063 -64.513  44.197  0.00  0.00    -0.271 OA
BRANCH  10  14
ATOM     14  C   UNK d   1     -33.183 -66.596  49.553  0.00  0.00     0.216 C 
BRANCH  14  15
ATOM     15  O   UNK d   1     -33.900 -66.880  50.667  0.00  0.00    -0.317 OA
BRANCH  15  16
ATOM     16  C   UNK d   1     -34.498 -68.124  50.902  0.00  0.00     0.255 C 
ATOM     17  O   UNK d   1     -33.768 -69.029  51.346  0.00  0.00    -0.266 OA
ATOM     18  C   UNK d   1     -35.943 -68.266  50.604  0.00  0.00     0.126 C 
ENDBRANCH  15  16
ENDBRANCH  14  15
ENDBRANCH  10  14
BRANCH  11  19
ATOM     19  C   UNK d   1     -34.772 -67.102  47.073  0.00  0.00     0.227 C 
ATOM     20  O   UNK d   1     -35.912 -67.504  47.164  0.00  0.00    -0.643 OA
ATOM     21  O   UNK d   1     -33.873 -68.008  46.479  0.00  0.00    -0.643 OA
ENDBRANCH  11  19
ENDBRANCH   1   5
BRANCH   2  22
ATOM     22  C   UNK d   1     -39.044 -63.291  48.064  0.00  0.00     0.143 A 
ATOM     23  O   UNK d   1     -39.261 -63.680  49.281  0.00  0.00    -0.307 OA
ATOM     24  C   UNK d   1     -40.488 -64.045  49.473  0.00  0.00     0.078 A 
ATOM     25  C   UNK d   1     -41.163 -63.885  48.258  0.00  0.00     0.038 A 
ATOM     26  C   UNK d   1     -40.231 -63.407  47.376  0.00  0.00     0.045 A 
BRANCH  24  27
ATOM     27  C   UNK d   1     -41.125 -64.553  50.742  0.00  0.00     0.240 C 
BRANCH  27  28
ATOM     28  O   UNK d   1     -41.389 -65.930  50.651  0.00  0.00    -0.345 OA
BRANCH  28  29
ATOM     29  C   UNK d   1     -40.814 -66.912  51.406  0.00  0.00     0.069 A 
ATOM     30  C   UNK d   1     -39.935 -67.872  50.914  0.00  0.00     0.038 A 
ATOM     31  C   UNK d   1     -39.410 -68.818  51.766  0.00  0.00     0.022 A 
ATOM     32  C   UNK d   1     -39.708 -68.876  53.108  0.00  0.00     0.011 A 
ATOM     33  C   UNK d   1     -40.582 -67.924  53.606  0.00  0.00     0.022 A 
ATOM     34 Br   UNK d   1     -38.950 -70.210  54.241  0.00  0.00    -0.051 Br
ATOM     35  C   UNK d   1     -41.114 -66.967  52.751  0.00  0.00     0.038 A 
ENDBRANCH  28  29
ENDBRANCH  27  28
ENDBRANCH  24  27
ENDBRANCH   2  22
TORSDOF 9
ENDMDL
