MODEL 1
REMARK VINA RESULT:    -7.925      0.000      0.000
REMARK INTER + INTRA:          -8.702
REMARK INTER:                  -8.851
REMARK INTRA:                   0.149
REMARK UNBOUND:                 0.149
REMARK  3 active torsions:
REMARK  status: ('A' for Active; 'I' for Inactive)
REMARK    1  A    between atoms: C_7  and  N_10 
REMARK    2  A    between atoms: C_8  and  O_9 
REMARK    3  A    between atoms: C_15  and  N_20 
ROOT
ATOM      1  P   UNK d   1     -40.066 -63.469  48.622  0.00  0.00     0.408 P 
ATOM      2  O   UNK d   1     -39.008 -62.392  48.376  0.00  0.00    -0.624 OA
ATOM      3  O   UNK d   1     -40.444 -63.441  50.257  0.00  0.00    -0.279 OA
ATOM      4  C   UNK d   1     -40.459 -64.699  50.801  0.00  0.00     0.198 C 
ATOM      5  C   UNK d   1     -40.967 -65.645  49.703  0.00  0.00     0.180 C 
ATOM      6  O   UNK d   1     -41.570 -66.685  50.345  0.00  0.00    -0.353 OA
ATOM      7  C   UNK d   1     -42.002 -66.287  51.580  0.00  0.00     0.263 C 
ATOM      8  C   UNK d   1     -41.517 -64.906  51.852  0.00  0.00     0.199 C 
ATOM      9  C   UNK d   1     -39.773 -66.005  48.880  0.00  0.00     0.216 C 
ATOM     10  O   UNK d   1     -39.428 -64.922  48.107  0.00  0.00    -0.287 OA
ATOM     11  O   UNK d   1     -41.425 -63.001  47.696  0.00  0.00    -0.624 OA
ENDROOT
BRANCH   7  12
ATOM     12  N   UNK d   1     -41.518 -67.257  52.553  0.00  0.00    -0.278 N 
ATOM     13  C   UNK d   1     -40.477 -68.105  52.377  0.00  0.00     0.168 A 
ATOM     14  N   UNK d   1     -39.653 -68.282  51.331  0.00  0.00    -0.221 NA
ATOM     15  C   UNK d   1     -40.333 -68.860  53.522  0.00  0.00     0.151 A 
ATOM     16  C   UNK d   1     -38.681 -69.206  51.407  0.00  0.00     0.237 A 
ATOM     17  N   UNK d   1     -38.542 -69.941  52.525  0.00  0.00    -0.222 NA
ATOM     18  C   UNK d   1     -39.326 -69.818  53.607  0.00  0.00     0.155 A 
ATOM     19  N   UNK d   1     -41.271 -68.478  54.384  0.00  0.00    -0.216 NA
ATOM     20  C   UNK d   1     -41.984 -67.506  53.787  0.00  0.00     0.182 A 
ATOM     21 Br   UNK d   1     -43.484 -66.551  54.535  0.00  0.00    -0.008 Br
BRANCH  18  22
ATOM     22  N   UNK d   1     -39.189 -70.588  54.792  0.00  0.00    -0.382 N 
ATOM     23  H   UNK d   1     -38.330 -71.208  54.884  0.00  0.00     0.157 HD
ATOM     24  H   UNK d   1     -39.860 -70.588  55.566  0.00  0.00     0.157 HD
ENDBRANCH  18  22
ENDBRANCH   7  12
BRANCH   8  25
ATOM     25  O   UNK d   1     -42.497 -63.939  51.745  0.00  0.00    -0.388 OA
ATOM     26  H   UNK d   1     -42.181 -63.036  51.912  0.00  0.00     0.210 HD
ENDBRANCH   8  25
TORSDOF 3
ENDMDL
