/Users/jonathanwahrer/Desktop/Msc/3_Semester/Drug_Design_Praktikum/waehrer_HTS_screening/HTS_experiment/out/docking_results/vina_output/3e7o/1008_docked.pdbqt
 OpenBabel03192216033D

 29 32  0  0  1  0  0  0  0  0999 V2000
  -34.8160  -67.1010   50.2920 C   0  0  0  0  0  0  0  0  0  0  0  0
  -34.2460  -67.5450   51.3190 O   0  0  0  0  0  0  0  0  0  0  0  0
  -36.0490  -67.6730   49.8580 N   0  0  0  0  0  0  0  0  0  0  0  0
  -36.6520  -68.7660   50.5900 C   0  0  0  0  0  2  0  0  0  0  0  0
  -38.1400  -68.6510   50.7010 C   0  0  2  0  0  3  0  0  0  0  0  0
  -38.5010  -67.2070   50.3450 C   0  0  0  0  0  2  0  0  0  0  0  0
  -38.2070  -67.0680   48.8670 C   0  0  0  0  0  2  0  0  0  0  0  0
  -36.7160  -67.1770   48.6830 C   0  0  0  0  0  2  0  0  0  0  0  0
  -34.2080  -66.0070   49.5630 C   0  0  0  0  0  0  0  0  0  0  0  0
  -34.8710  -64.7960   49.3910 C   0  0  0  0  0  3  0  0  0  0  0  0
  -34.3060  -63.7480   48.7030 C   0  0  0  0  0  0  0  0  0  0  0  0
  -33.0410  -63.8800   48.1570 C   0  0  0  0  0  3  0  0  0  0  0  0
  -32.3690  -65.0710   48.3170 C   0  0  0  0  0  3  0  0  0  0  0  0
  -32.9490  -66.1290   49.0160 C   0  0  0  0  0  0  0  0  0  0  0  0
  -31.9820  -67.7470   49.2060 Br  0  0  0  0  0  0  0  0  0  0  0  0
  -35.1880  -62.2600   48.5240 S   0  0  0  0  0  0  0  0  0  0  0  0
  -35.0150  -61.7580   47.1050 O   0  0  0  0  0  0  0  0  0  0  0  0
  -34.6610  -61.2080   49.4680 O   0  0  0  0  0  0  0  0  0  0  0  0
  -36.8650  -62.5300   48.7620 N   0  0  0  0  0  0  0  0  0  0  0  0
  -37.4420  -62.0770   48.0130 H   0  0  0  0  0  0  0  0  0  0  0  0
  -37.1590  -62.1750   49.7070 H   0  0  0  0  0  0  0  0  0  0  0  0
  -38.6590  -69.0100   52.0600 C   0  0  0  0  0  0  0  0  0  0  0  0
  -39.6920  -68.4160   52.7130 N   0  0  0  0  0  0  0  0  0  0  0  0
  -39.8800  -68.9930   53.9030 C   0  0  0  0  0  0  0  0  0  0  0  0
  -40.6530  -67.3470   52.5130 C   0  0  0  0  0  2  0  0  0  0  0  0
  -38.9270  -69.9710   53.9750 N   0  0  0  0  0  0  0  0  0  0  0  0
  -41.0060  -68.3740   54.6620 C   0  0  0  0  0  2  0  0  0  0  0  0
  -38.2020  -69.9750   52.8730 N   0  0  0  0  0  0  0  0  0  0  0  0
  -41.6840  -67.5640   53.6000 C   0  0  0  0  0  2  0  0  0  0  0  0
  1  2  2  0  0  0  0
  3  1  1  0  0  0  0
  3  4  1  0  0  0  0
  4  5  1  0  0  0  0
  5 22  1  1  0  0  0
  6  5  1  0  0  0  0
  7  6  1  0  0  0  0
  8  7  1  0  0  0  0
  8  3  1  0  0  0  0
  9  1  1  0  0  0  0
 10  9  1  0  0  0  0
 11 10  2  0  0  0  0
 12 13  2  0  0  0  0
 12 11  1  0  0  0  0
 13 14  1  0  0  0  0
 14 15  1  0  0  0  0
 14  9  2  0  0  0  0
 16 11  1  0  0  0  0
 16 19  1  0  0  0  0
 16 18  2  0  0  0  0
 17 16  2  0  0  0  0
 19 21  1  0  0  0  0
 20 19  1  0  0  0  0
 22 23  1  0  0  0  0
 22 28  2  0  0  0  0
 23 24  1  0  0  0  0
 24 26  2  0  0  0  0
 24 27  1  0  0  0  0
 25 23  1  0  0  0  0
 25 29  1  0  0  0  0
 28 26  1  0  0  0  0
 29 27  1  0  0  0  0
M  END
>  <Pose>
1

>  <Score>
-8.300

$$$$
