MODEL 1
REMARK VINA RESULT:    -8.300      0.000      0.000
REMARK INTER + INTRA:          -9.642
REMARK INTER:                  -9.998
REMARK INTRA:                   0.357
REMARK UNBOUND:                 0.357
REMARK  4 active torsions:
REMARK  status: ('A' for Active; 'I' for Inactive)
REMARK    1  A    between atoms: S_1  and  N_4 
REMARK    2  A    between atoms: S_1  and  C_5 
REMARK    3  A    between atoms: C_7  and  C_12 
REMARK       I    between atoms: C_12  and  N_14 
REMARK    4  A    between atoms: C_16  and  C_20 
ROOT
ATOM      1  C   UNK d   1     -34.816 -67.101  50.292  0.00  0.00     0.255 C 
ATOM      2  O   UNK d   1     -34.246 -67.545  51.319  0.00  0.00    -0.267 OA
ATOM      3  N   UNK d   1     -36.049 -67.673  49.858  0.00  0.00    -0.347 N 
ATOM      4  C   UNK d   1     -36.652 -68.766  50.590  0.00  0.00     0.138 C 
ATOM      5  C   UNK d   1     -38.140 -68.651  50.701  0.00  0.00     0.075 C 
ATOM      6  C   UNK d   1     -38.501 -67.207  50.345  0.00  0.00     0.015 C 
ATOM      7  C   UNK d   1     -38.207 -67.068  48.867  0.00  0.00     0.021 C 
ATOM      8  C   UNK d   1     -36.716 -67.177  48.683  0.00  0.00     0.126 C 
ENDROOT
BRANCH   1   9
ATOM      9  C   UNK d   1     -34.208 -66.007  49.563  0.00  0.00     0.051 A 
ATOM     10  C   UNK d   1     -34.871 -64.796  49.391  0.00  0.00     0.043 A 
ATOM     11  C   UNK d   1     -34.306 -63.748  48.703  0.00  0.00     0.075 A 
ATOM     12  C   UNK d   1     -33.041 -63.880  48.157  0.00  0.00     0.026 A 
ATOM     13  C   UNK d   1     -32.369 -65.071  48.317  0.00  0.00     0.021 A 
ATOM     14  C   UNK d   1     -32.949 -66.129  49.016  0.00  0.00     0.026 A 
ATOM     15 Br   UNK d   1     -31.982 -67.747  49.206  0.00  0.00    -0.050 Br
BRANCH  11  16
ATOM     16  S   UNK d   1     -35.188 -62.260  48.524  0.00  0.00     0.239 S 
ATOM     17  O   UNK d   1     -35.015 -61.758  47.105  0.00  0.00    -0.206 OA
ATOM     18  O   UNK d   1     -34.661 -61.208  49.468  0.00  0.00    -0.206 OA
BRANCH  16  19
ATOM     19  N   UNK d   1     -36.865 -62.530  48.762  0.00  0.00    -0.225 NA
ATOM     20  H   UNK d   1     -37.442 -62.077  48.013  0.00  0.00     0.136 HD
ATOM     21  H   UNK d   1     -37.159 -62.175  49.707  0.00  0.00     0.136 HD
ENDBRANCH  16  19
ENDBRANCH  11  16
ENDBRANCH   1   9
BRANCH   5  22
ATOM     22  C   UNK d   1     -38.659 -69.010  52.060  0.00  0.00     0.136 A 
ATOM     23  N   UNK d   1     -39.692 -68.416  52.713  0.00  0.00    -0.320 N 
ATOM     24  C   UNK d   1     -39.880 -68.993  53.903  0.00  0.00     0.130 A 
ATOM     25  C   UNK d   1     -40.653 -67.347  52.513  0.00  0.00     0.132 C 
ATOM     26  N   UNK d   1     -38.927 -69.971  53.975  0.00  0.00    -0.135 NA
ATOM     27  C   UNK d   1     -41.006 -68.374  54.662  0.00  0.00     0.082 C 
ATOM     28  N   UNK d   1     -38.202 -69.975  52.873  0.00  0.00    -0.134 NA
ATOM     29  C   UNK d   1     -41.684 -67.564  53.600  0.00  0.00     0.028 C 
ENDBRANCH   5  22
TORSDOF 4
ENDMDL
