/Users/jonathanwahrer/Desktop/Msc/3_Semester/Drug_Design_Praktikum/waehrer_HTS_screening/HTS_experiment/out/docking_results/vina_output/3e7o/1011_docked.pdbqt
 OpenBabel03192216043D

 29 32  0  0  0  0  0  0  0  0999 V2000
  -38.5780  -65.8170   49.1900 C   0  0  0  0  0  0  0  0  0  0  0  0
  -39.1950  -66.5490   50.2090 C   0  0  0  0  0  3  0  0  0  0  0  0
  -38.6030  -67.6860   50.7120 C   0  0  0  0  0  0  0  0  0  0  0  0
  -37.3880  -68.1570   50.2460 C   0  0  0  0  0  0  0  0  0  0  0  0
  -36.7760  -67.4490   49.2500 C   0  0  0  0  0  3  0  0  0  0  0  0
  -37.3720  -66.2930   48.7350 C   0  0  0  0  0  0  0  0  0  0  0  0
  -36.5110  -65.3120   47.3300 Br  0  0  0  0  0  0  0  0  0  0  0  0
  -37.0300  -69.4030   50.9810 C   0  0  0  0  0  2  0  0  0  0  0  0
  -38.4010  -69.8440   51.5350 C   0  0  0  0  0  2  0  0  0  0  0  0
  -39.0630  -68.5670   51.7530 N   0  0  0  0  0  0  0  0  0  0  0  0
  -39.9770  -68.1840   52.7620 C   0  0  0  0  0  0  0  0  0  0  0  0
  -40.4580  -67.0290   52.8410 O   0  0  0  0  0  0  0  0  0  0  0  0
  -39.3480  -64.3790   48.5760 S   0  0  0  0  0  0  0  0  0  0  0  0
  -38.3120  -63.2750   48.3930 O   0  0  0  0  0  0  0  0  0  0  0  0
  -39.9550  -64.5990   47.2320 O   0  0  0  0  0  0  0  0  0  0  0  0
  -40.4860  -63.7660   49.7140 N   0  0  0  0  0  0  0  0  0  0  0  0
  -40.1910  -64.0750   50.6610 H   0  0  0  0  0  0  0  0  0  0  0  0
  -41.8430  -64.1870   49.4310 C   0  0  0  0  0  2  0  0  0  0  0  0
  -42.3690  -64.8210   50.7090 C   0  0  0  0  0  2  0  0  0  0  0  0
  -43.6830  -64.2080   51.1140 C   0  0  0  0  0  2  0  0  0  0  0  0
  -44.0890  -64.7670   52.3480 N   0  0  0  0  0  0  0  0  0  0  0  0
  -44.8850  -65.9400   52.2830 C   0  0  0  0  0  2  0  0  0  0  0  0
  -45.6280  -66.0900   53.6000 C   0  0  0  0  0  2  0  0  0  0  0  0
  -44.8130  -65.8060   54.6780 O   0  0  0  0  0  0  0  0  0  0  0  0
  -43.4570  -65.8530   54.3760 C   0  0  0  0  0  2  0  0  0  0  0  0
  -43.1730  -64.6860   53.4250 C   0  0  0  0  0  2  0  0  0  0  0  0
  -40.3860  -69.1890   53.7710 C   0  0  0  0  0  3  0  0  0  0  0  0
  -41.7330  -68.9920   54.3350 C   0  0  0  0  0  2  0  0  0  0  0  0
  -40.5110  -68.8090   55.2000 C   0  0  0  0  0  2  0  0  0  0  0  0
  1  2  1  0  0  0  0
  2  3  2  0  0  0  0
  3 10  1  0  0  0  0
  4  3  1  0  0  0  0
  4  8  1  0  0  0  0
  5  4  2  0  0  0  0
  6  1  2  0  0  0  0
  6  5  1  0  0  0  0
  7  6  1  0  0  0  0
  8  9  1  0  0  0  0
  9 10  1  0  0  0  0
 10 11  1  0  0  0  0
 11 12  2  0  0  0  0
 11 27  1  0  0  0  0
 13  1  1  0  0  0  0
 13 16  1  0  0  0  0
 14 13  2  0  0  0  0
 15 13  2  0  0  0  0
 16 17  1  0  0  0  0
 18 16  1  0  0  0  0
 18 19  1  0  0  0  0
 19 20  1  0  0  0  0
 20 21  1  0  0  0  0
 21 26  1  0  0  0  0
 22 21  1  0  0  0  0
 22 23  1  0  0  0  0
 23 24  1  0  0  0  0
 25 24  1  0  0  0  0
 26 25  1  0  0  0  0
 27 28  1  0  0  0  0
 27 29  1  0  0  0  0
 28 29  1  0  0  0  0
M  END
>  <Pose>
1

>  <Score>
-7.947

$$$$
