MODEL 1
REMARK VINA RESULT:    -8.188      0.000      0.000
REMARK INTER + INTRA:         -11.657
REMARK INTER:                 -10.582
REMARK INTRA:                  -1.075
REMARK UNBOUND:                -1.075
REMARK  5 active torsions:
REMARK  status: ('A' for Active; 'I' for Inactive)
REMARK    1  A    between atoms: S_1  and  N_4 
REMARK    2  A    between atoms: S_1  and  C_20 
REMARK    3  A    between atoms: N_8  and  C_12 
REMARK    4  A    between atoms: C_12  and  C_13 
REMARK    5  A    between atoms: C_13  and  C_14 
REMARK       I    between atoms: N_29  and  C_30 
ROOT
ATOM      1  N   UNK d   1     -34.917 -65.335  48.165  0.00  0.00    -0.289 N 
ATOM      2  C   UNK d   1     -35.473 -66.220  47.247  0.00  0.00     0.239 C 
ATOM      3  C   UNK d   1     -36.262 -67.330  47.826  0.00  0.00     0.245 C 
ATOM      4  O   UNK d   1     -37.189 -67.873  47.178  0.00  0.00    -0.271 OA
ATOM      5  N   UNK d   1     -35.907 -67.736  49.144  0.00  0.00    -0.285 N 
ATOM      6  C   UNK d   1     -34.677 -67.244  49.649  0.00  0.00     0.245 C 
ATOM      7  O   UNK d   1     -34.081 -67.924  50.531  0.00  0.00    -0.271 OA
ATOM      8  C   UNK d   1     -34.086 -65.974  49.176  0.00  0.00     0.239 C 
ENDROOT
BRANCH   1   9
ATOM      9  S   UNK d   1     -35.778 -64.022  48.751  0.00  0.00     0.263 S 
ATOM     10  O   UNK d   1     -34.889 -62.786  48.607  0.00  0.00    -0.200 OA
ATOM     11  O   UNK d   1     -35.994 -64.150  50.241  0.00  0.00    -0.200 OA
BRANCH   9  12
ATOM     12  C   UNK d   1     -37.277 -63.638  47.950  0.00  0.00     0.099 A 
ATOM     13  C   UNK d   1     -38.463 -63.710  48.692  0.00  0.00     0.057 A 
ATOM     14  C   UNK d   1     -39.714 -63.496  48.161  0.00  0.00     0.045 A 
ATOM     15  C   UNK d   1     -39.850 -63.191  46.824  0.00  0.00    -0.028 A 
ATOM     16  N   UNK d   1     -41.020 -63.525  48.741  0.00  0.00    -0.318 N 
ATOM     17  C   UNK d   1     -38.698 -63.114  46.081  0.00  0.00     0.030 A 
ATOM     18  C   UNK d   1     -41.278 -62.998  46.475  0.00  0.00     0.061 C 
ATOM     19  C   UNK d   1     -37.423 -63.333  46.628  0.00  0.00     0.035 A 
ATOM     20 Br   UNK d   1     -35.882 -63.098  45.512  0.00  0.00    -0.049 Br
ATOM     21  C   UNK d   1     -41.905 -62.779  47.853  0.00  0.00     0.137 C 
ATOM     22  C   UNK d   1     -41.425 -64.151  49.933  0.00  0.00     0.220 C 
ATOM     23  O   UNK d   1     -42.647 -64.038  50.298  0.00  0.00    -0.273 OA
ATOM     24  C   UNK d   1     -40.558 -64.950  50.831  0.00  0.00     0.117 C 
ENDBRANCH   9  12
ENDBRANCH   1   9
BRANCH   5  25
ATOM     25  C   UNK d   1     -36.775 -68.612  49.901  0.00  0.00     0.139 C 
BRANCH  25  26
ATOM     26  C   UNK d   1     -38.013 -67.965  50.419  0.00  0.00     0.059 C 
BRANCH  26  27
ATOM     27  C   UNK d   1     -38.624 -68.597  51.587  0.00  0.00    -0.057 A 
ATOM     28  C   UNK d   1     -37.959 -69.513  52.353  0.00  0.00     0.007 A 
ATOM     29  C   UNK d   1     -38.590 -70.070  53.430  0.00  0.00     0.001 A 
ATOM     30  C   UNK d   1     -39.895 -69.734  53.773  0.00  0.00     0.000 A 
ATOM     31  C   UNK d   1     -40.540 -68.815  52.991  0.00  0.00     0.001 A 
ATOM     32  C   UNK d   1     -39.935 -68.236  51.902  0.00  0.00     0.007 A 
ENDBRANCH  26  27
ENDBRANCH  25  26
ENDBRANCH   5  25
TORSDOF 5
ENDMDL
