MODEL 1
REMARK VINA RESULT:    -7.682      0.000      0.000
REMARK INTER + INTRA:          -9.651
REMARK INTER:                  -9.928
REMARK INTRA:                   0.277
REMARK UNBOUND:                 0.277
REMARK  5 active torsions:
REMARK  status: ('A' for Active; 'I' for Inactive)
REMARK    1  A    between atoms: S_1  and  N_4 
REMARK    2  A    between atoms: S_1  and  C_20 
REMARK    3  A    between atoms: C_6  and  N_8 
REMARK    4  A    between atoms: C_11  and  C_13 
REMARK    5  A    between atoms: C_13  and  N_14 
ROOT
ATOM      1  N   UNK d   1     -42.773 -66.832  53.117  0.00  0.00    -0.202 NA
ATOM      2  C   UNK d   1     -41.430 -66.492  52.808  0.00  0.00     0.136 C 
ATOM      3  C   UNK d   1     -40.922 -67.436  53.827  0.00  0.00     0.139 C 
ATOM      4  C   UNK d   1     -42.334 -67.889  53.957  0.00  0.00     0.136 C 
ENDROOT
BRANCH   3   5
ATOM      5  N   UNK d   1     -40.039 -68.484  53.354  0.00  0.00    -0.254 N 
ATOM      6  N   UNK d   1     -39.701 -69.596  53.955  0.00  0.00    -0.066 NA
ATOM      7  N   UNK d   1     -38.860 -70.303  53.188  0.00  0.00    -0.134 NA
ATOM      8  C   UNK d   1     -38.645 -69.625  52.047  0.00  0.00     0.093 A 
ATOM      9  C   UNK d   1     -39.403 -68.469  52.171  0.00  0.00     0.145 A 
BRANCH   8  10
ATOM     10  C   UNK d   1     -37.777 -70.021  50.888  0.00  0.00     0.188 C 
BRANCH  10  11
ATOM     11  N   UNK d   1     -36.578 -69.204  50.932  0.00  0.00    -0.346 N 
ATOM     12  C   UNK d   1     -35.414 -69.471  51.722  0.00  0.00     0.126 C 
ATOM     13  C   UNK d   1     -34.421 -68.399  51.374  0.00  0.00     0.029 C 
ATOM     14  C   UNK d   1     -34.929 -67.655  50.181  0.00  0.00     0.104 C 
ATOM     15  C   UNK d   1     -36.391 -68.006  50.185  0.00  0.00     0.220 C 
ATOM     16  O   UNK d   1     -37.260 -67.324  49.611  0.00  0.00    -0.273 OA
ENDBRANCH  10  11
ENDBRANCH   8  10
ENDBRANCH   3   5
BRANCH   1  17
ATOM     17  S   UNK d   1     -43.775 -65.689  53.852  0.00  0.00     0.250 S 
ATOM     18  O   UNK d   1     -43.393 -64.321  53.363  0.00  0.00    -0.205 OA
ATOM     19  O   UNK d   1     -43.607 -65.667  55.353  0.00  0.00    -0.205 OA
BRANCH  17  20
ATOM     20  C   UNK d   1     -45.484 -65.903  53.481  0.00  0.00     0.116 A 
ATOM     21  S   UNK d   1     -46.613 -64.709  52.992  0.00  0.00    -0.070 SA
ATOM     22  C   UNK d   1     -48.002 -65.691  52.838  0.00  0.00     0.052 A 
ATOM     23  C   UNK d   1     -47.533 -66.933  53.177  0.00  0.00     0.028 A 
ATOM     24 Br   UNK d   1     -49.793 -65.206  52.319  0.00  0.00    -0.043 Br
ATOM     25  C   UNK d   1     -46.243 -67.035  53.504  0.00  0.00     0.034 A 
ENDBRANCH  17  20
ENDBRANCH   1  17
TORSDOF 5
ENDMDL
