MODEL 1
REMARK VINA RESULT:    -8.851      0.000      0.000
REMARK INTER + INTRA:         -12.070
REMARK INTER:                 -10.921
REMARK INTRA:                  -1.149
REMARK UNBOUND:                -1.149
REMARK  4 active torsions:
REMARK  status: ('A' for Active; 'I' for Inactive)
REMARK    1  A    between atoms: S_1  and  N_4 
REMARK    2  A    between atoms: S_1  and  C_20 
REMARK       I    between atoms: N_7  and  C_10 
REMARK    3  A    between atoms: C_10  and  C_12 
REMARK    4  A    between atoms: C_12  and  C_13 
ROOT
ATOM      1  N   UNK d   1     -33.984 -66.735  48.709  0.00  0.00    -0.304 N 
ATOM      2  C   UNK d   1     -33.485 -67.228  49.947  0.00  0.00     0.155 C 
ATOM      3  C   UNK d   1     -34.418 -67.838  50.885  0.00  0.00     0.145 C 
ATOM      4  N   UNK d   1     -35.736 -68.207  50.405  0.00  0.00    -0.360 N 
ATOM      5  C   UNK d   1     -36.209 -67.741  49.138  0.00  0.00     0.145 C 
ATOM      6  C   UNK d   1     -35.066 -67.473  48.166  0.00  0.00     0.155 C 
ATOM      7  C   UNK d   1     -36.511 -69.048  51.205  0.00  0.00     0.158 C 
ATOM      8  O   UNK d   1     -35.805 -69.466  52.277  0.00  0.00    -0.177 OA
ENDROOT
BRANCH   1   9
ATOM      9  S   UNK d   1     -34.105 -65.051  48.566  0.00  0.00     0.261 S 
ATOM     10  O   UNK d   1     -33.194 -64.579  47.466  0.00  0.00    -0.200 OA
ATOM     11  O   UNK d   1     -33.620 -64.374  49.836  0.00  0.00    -0.200 OA
BRANCH   9  12
ATOM     12  C   UNK d   1     -35.707 -64.476  48.151  0.00  0.00     0.082 A 
ATOM     13  C   UNK d   1     -36.688 -64.375  49.136  0.00  0.00     0.057 A 
ATOM     14  C   UNK d   1     -37.969 -63.942  48.869  0.00  0.00     0.070 A 
ATOM     15  C   UNK d   1     -38.341 -63.584  47.593  0.00  0.00     0.096 A 
ATOM     16  N   UNK d   1     -38.969 -63.857  49.899  0.00  0.00    -0.323 N 
ATOM     17  C   UNK d   1     -37.376 -63.682  46.614  0.00  0.00     0.040 A 
ATOM     18  O   UNK d   1     -39.649 -63.143  47.310  0.00  0.00    -0.340 OA
ATOM     19  C   UNK d   1     -36.082 -64.118  46.875  0.00  0.00     0.028 A 
ATOM     20  C   UNK d   1     -40.435 -62.542  48.355  0.00  0.00     0.278 C 
ATOM     21  C   UNK d   1     -40.268 -63.420  49.543  0.00  0.00     0.246 C 
ATOM     22  O   UNK d   1     -41.237 -63.790  50.244  0.00  0.00    -0.271 OA
ATOM     23  H   UNK d   1     -38.682 -64.126  50.851  0.00  0.00     0.169 HD
ENDBRANCH   9  12
ENDBRANCH   1   9
BRANCH   7  24
ATOM     24  C   UNK d   1     -37.855 -69.542  51.129  0.00  0.00     0.127 C 
BRANCH  24  25
ATOM     25  C   UNK d   1     -38.992 -68.734  51.563  0.00  0.00    -0.033 A 
ATOM     26  C   UNK d   1     -39.568 -68.912  52.797  0.00  0.00     0.017 A 
ATOM     27  C   UNK d   1     -40.649 -68.130  53.202  0.00  0.00     0.019 A 
ATOM     28 Br   UNK d   1     -38.901 -70.253  53.994  0.00  0.00    -0.051 Br
ATOM     29  C   UNK d   1     -41.138 -67.174  52.361  0.00  0.00     0.001 A 
ATOM     30  C   UNK d   1     -40.556 -66.986  51.106  0.00  0.00     0.001 A 
ATOM     31  C   UNK d   1     -39.503 -67.751  50.715  0.00  0.00     0.009 A 
ENDBRANCH  24  25
ENDBRANCH   7  24
TORSDOF 4
ENDMDL
