MODEL 1
REMARK VINA RESULT:    -8.325      0.000      0.000
REMARK INTER + INTRA:         -10.547
REMARK INTER:                 -10.272
REMARK INTRA:                  -0.275
REMARK UNBOUND:                -0.275
REMARK  4 active torsions:
REMARK  status: ('A' for Active; 'I' for Inactive)
REMARK    1  A    between atoms: S_1  and  N_4 
REMARK    2  A    between atoms: S_1  and  C_19 
REMARK       I    between atoms: N_7  and  C_10 
REMARK    3  A    between atoms: C_12  and  N_13 
REMARK    4  A    between atoms: C_22  and  O_30 
ROOT
ATOM      1  S   UNK d   1     -37.709 -66.541  48.266  0.00  0.00     0.247 S 
ATOM      2  O   UNK d   1     -36.737 -67.470  47.647  0.00  0.00    -0.206 OA
ATOM      3  O   UNK d   1     -38.778 -66.319  47.191  0.00  0.00    -0.206 OA
ENDROOT
BRANCH   1   4
ATOM      4  N   UNK d   1     -37.071 -64.972  48.569  0.00  0.00    -0.203 NA
ATOM      5  C   UNK d   1     -36.666 -64.271  47.400  0.00  0.00     0.127 C 
ATOM      6  C   UNK d   1     -35.230 -64.547  46.973  0.00  0.00     0.140 C 
ATOM      7  N   UNK d   1     -34.371 -64.347  48.092  0.00  0.00    -0.359 N 
ATOM      8  C   UNK d   1     -34.711 -65.259  49.231  0.00  0.00     0.140 C 
ATOM      9  C   UNK d   1     -33.314 -63.482  48.296  0.00  0.00     0.173 C 
ATOM     10  C   UNK d   1     -36.114 -64.938  49.622  0.00  0.00     0.127 C 
ATOM     11  O   UNK d   1     -32.743 -63.575  49.480  0.00  0.00    -0.175 OA
ATOM     12  C   UNK d   1     -32.719 -62.493  47.445  0.00  0.00     0.237 C 
BRANCH  12  13
ATOM     13  N   UNK d   1     -33.214 -62.300  46.131  0.00  0.00    -0.272 N 
ATOM     14  N   UNK d   1     -34.181 -61.473  45.736  0.00  0.00    -0.183 NA
ATOM     15  C   UNK d   1     -34.350 -61.534  44.410  0.00  0.00     0.159 A 
ATOM     16  C   UNK d   1     -33.435 -62.451  43.954  0.00  0.00     0.047 A 
ATOM     17  C   UNK d   1     -32.734 -62.923  45.023  0.00  0.00     0.133 A 
ATOM     18 Br   UNK d   1     -33.182 -62.983  42.122  0.00  0.00    -0.048 Br
ENDBRANCH  12  13
ENDBRANCH   1   4
BRANCH   1  19
ATOM     19  C   UNK d   1     -38.561 -67.179  49.637  0.00  0.00     0.118 A 
ATOM     20  C   UNK d   1     -37.965 -68.077  50.534  0.00  0.00     0.131 A 
ATOM     21  C   UNK d   1     -38.650 -68.582  51.620  0.00  0.00     0.140 A 
ATOM     22  O   UNK d   1     -36.674 -68.596  50.513  0.00  0.00    -0.321 OA
ATOM     23  C   UNK d   1     -39.958 -68.220  51.870  0.00  0.00     0.113 A 
ATOM     24  O   UNK d   1     -37.794 -69.425  52.294  0.00  0.00    -0.320 OA
ATOM     25  C   UNK d   1     -40.547 -67.346  50.998  0.00  0.00     0.004 A 
ATOM     26  C   UNK d   1     -39.844 -66.844  49.907  0.00  0.00    -0.020 A 
ATOM     27  C   UNK d   1     -41.939 -66.859  51.130  0.00  0.00     0.158 C 
ATOM     28  C   UNK d   1     -40.613 -65.923  49.054  0.00  0.00     0.060 C 
ATOM     29  C   UNK d   1     -41.308 -64.868  49.886  0.00  0.00     0.121 C 
ATOM     30  N   UNK d   1     -41.898 -65.435  51.038  0.00  0.00    -0.412 N 
ATOM     31  C   UNK d   1     -41.708 -64.744  52.265  0.00  0.00     0.143 C 
ATOM     32  C   UNK d   1     -36.612 -69.558  51.555  0.00  0.00     0.352 C 
BRANCH  23  33
ATOM     33  O   UNK d   1     -40.665 -68.732  52.977  0.00  0.00    -0.352 OA
ATOM     34  C   UNK d   1     -40.457 -68.127  54.261  0.00  0.00     0.210 C 
ENDBRANCH  23  33
ENDBRANCH   1  19
TORSDOF 4
ENDMDL
