MODEL 1
REMARK VINA RESULT:    -8.080      0.000      0.000
REMARK INTER + INTRA:         -11.068
REMARK INTER:                  -9.969
REMARK INTRA:                  -1.099
REMARK UNBOUND:                -1.099
REMARK  4 active torsions:
REMARK  status: ('A' for Active; 'I' for Inactive)
REMARK    1  A    between atoms: S_1  and  N_4 
REMARK    2  A    between atoms: S_1  and  C_24 
REMARK       I    between atoms: N_7  and  C_10 
REMARK    3  A    between atoms: C_10  and  C_12 
REMARK    4  A    between atoms: C_12  and  N_13 
ROOT
ATOM      1  N   UNK d   1     -39.820 -65.398  49.705  0.00  0.00    -0.304 N 
ATOM      2  C   UNK d   1     -39.521 -64.143  50.208  0.00  0.00     0.155 C 
ATOM      3  C   UNK d   1     -39.448 -63.150  49.016  0.00  0.00     0.146 C 
ATOM      4  N   UNK d   1     -38.565 -63.670  48.009  0.00  0.00    -0.348 N 
ATOM      5  C   UNK d   1     -38.901 -64.960  47.452  0.00  0.00     0.146 C 
ATOM      6  C   UNK d   1     -40.030 -65.521  48.289  0.00  0.00     0.155 C 
ATOM      7  C   UNK d   1     -37.417 -62.996  47.553  0.00  0.00     0.238 C 
ATOM      8  O   UNK d   1     -37.131 -61.878  48.040  0.00  0.00    -0.272 OA
ENDROOT
BRANCH   7   9
ATOM      9  C   UNK d   1     -36.556 -63.579  46.522  0.00  0.00     0.239 C 
BRANCH   9  10
ATOM     10  N   UNK d   1     -35.262 -63.954  47.086  0.00  0.00    -0.259 N 
ATOM     11  C   UNK d   1     -34.067 -63.205  47.181  0.00  0.00     0.326 C 
ATOM     12  O   UNK d   1     -33.919 -62.009  46.766  0.00  0.00    -0.247 OA
ATOM     13  N   UNK d   1     -33.096 -64.029  47.813  0.00  0.00    -0.324 N 
ATOM     14  C   UNK d   1     -33.812 -65.062  48.515  0.00  0.00     0.116 C 
ATOM     15  H   UNK d   1     -32.065 -63.845  47.730  0.00  0.00     0.165 HD
ATOM     16  C   UNK d   1     -34.146 -64.711  49.928  0.00  0.00     0.041 C 
ATOM     17  C   UNK d   1     -33.006 -66.334  48.636  0.00  0.00     0.041 C 
ATOM     18  C   UNK d   1     -35.012 -65.250  47.666  0.00  0.00     0.256 C 
ATOM     19  C   UNK d   1     -34.513 -66.082  50.509  0.00  0.00     0.003 C 
ATOM     20  C   UNK d   1     -33.552 -67.026  49.842  0.00  0.00     0.003 C 
ATOM     21  O   UNK d   1     -35.659 -66.308  47.499  0.00  0.00    -0.270 OA
ENDBRANCH   9  10
ENDBRANCH   7   9
BRANCH   1  22
ATOM     22  S   UNK d   1     -40.274 -66.687  50.642  0.00  0.00     0.262 S 
ATOM     23  O   UNK d   1     -40.764 -66.149  51.993  0.00  0.00    -0.200 OA
ATOM     24  O   UNK d   1     -41.514 -67.393  50.085  0.00  0.00    -0.200 OA
BRANCH  22  25
ATOM     25  C   UNK d   1     -39.077 -67.883  51.030  0.00  0.00     0.097 A 
ATOM     26  C   UNK d   1     -39.137 -68.789  52.055  0.00  0.00     0.034 A 
ATOM     27  C   UNK d   1     -38.090 -69.681  52.316  0.00  0.00     0.020 A 
ATOM     28 Br   UNK d   1     -40.708 -68.889  53.113  0.00  0.00    -0.049 Br
ATOM     29  C   UNK d   1     -36.958 -69.694  51.563  0.00  0.00     0.001 A 
ATOM     30  C   UNK d   1     -36.868 -68.802  50.529  0.00  0.00     0.002 A 
ATOM     31  C   UNK d   1     -37.893 -67.924  50.270  0.00  0.00     0.027 A 
ENDBRANCH  22  25
ENDBRANCH   1  22
TORSDOF 4
ENDMDL
