/Users/jonathanwahrer/Desktop/Msc/3_Semester/Drug_Design_Praktikum/waehrer_HTS_screening/HTS_experiment/out/docking_results/vina_output/3e7o/1042_docked.pdbqt
 OpenBabel03192216053D

 31 34  0  0  0  0  0  0  0  0999 V2000
  -39.8200  -65.3980   49.7050 N   0  0  0  0  0  0  0  0  0  0  0  0
  -39.5210  -64.1430   50.2080 C   0  0  0  0  0  2  0  0  0  0  0  0
  -39.4480  -63.1500   49.0160 C   0  0  0  0  0  2  0  0  0  0  0  0
  -38.5650  -63.6700   48.0090 N   0  0  0  0  0  0  0  0  0  0  0  0
  -38.9010  -64.9600   47.4520 C   0  0  0  0  0  2  0  0  0  0  0  0
  -40.0300  -65.5210   48.2890 C   0  0  0  0  0  2  0  0  0  0  0  0
  -37.4170  -62.9960   47.5530 C   0  0  0  0  0  0  0  0  0  0  0  0
  -37.1310  -61.8780   48.0400 O   0  0  0  0  0  0  0  0  0  0  0  0
  -36.5560  -63.5790   46.5220 C   0  0  0  0  0  2  0  0  0  0  0  0
  -35.2620  -63.9540   47.0860 N   0  0  0  0  0  0  0  0  0  0  0  0
  -34.0670  -63.2050   47.1810 C   0  0  0  0  0  0  0  0  0  0  0  0
  -33.9190  -62.0090   46.7660 O   0  0  0  0  0  0  0  0  0  0  0  0
  -33.0960  -64.0290   47.8130 N   0  0  0  0  0  0  0  0  0  0  0  0
  -33.8120  -65.0620   48.5150 C   0  0  0  0  0  0  0  0  0  0  0  0
  -32.0650  -63.8450   47.7300 H   0  0  0  0  0  0  0  0  0  0  0  0
  -34.1460  -64.7110   49.9280 C   0  0  0  0  0  2  0  0  0  0  0  0
  -33.0060  -66.3340   48.6360 C   0  0  0  0  0  2  0  0  0  0  0  0
  -35.0120  -65.2500   47.6660 C   0  0  0  0  0  0  0  0  0  0  0  0
  -34.5130  -66.0820   50.5090 C   0  0  0  0  0  2  0  0  0  0  0  0
  -33.5520  -67.0260   49.8420 C   0  0  0  0  0  2  0  0  0  0  0  0
  -35.6590  -66.3080   47.4990 O   0  0  0  0  0  0  0  0  0  0  0  0
  -40.2740  -66.6870   50.6420 S   0  0  0  0  0  0  0  0  0  0  0  0
  -40.7640  -66.1490   51.9930 O   0  0  0  0  0  0  0  0  0  0  0  0
  -41.5140  -67.3930   50.0850 O   0  0  0  0  0  0  0  0  0  0  0  0
  -39.0770  -67.8830   51.0300 C   0  0  0  0  0  0  0  0  0  0  0  0
  -39.1370  -68.7890   52.0550 C   0  0  0  0  0  0  0  0  0  0  0  0
  -38.0900  -69.6810   52.3160 C   0  0  0  0  0  3  0  0  0  0  0  0
  -40.7080  -68.8890   53.1130 Br  0  0  0  0  0  0  0  0  0  0  0  0
  -36.9580  -69.6940   51.5630 C   0  0  0  0  0  3  0  0  0  0  0  0
  -36.8680  -68.8020   50.5290 C   0  0  0  0  0  3  0  0  0  0  0  0
  -37.8930  -67.9240   50.2700 C   0  0  0  0  0  3  0  0  0  0  0  0
  1  2  1  0  0  0  0
  1 22  1  0  0  0  0
  3  2  1  0  0  0  0
  4  3  1  0  0  0  0
  5  4  1  0  0  0  0
  5  6  1  0  0  0  0
  6  1  1  0  0  0  0
  7  4  1  0  0  0  0
  7  8  2  0  0  0  0
  9 10  1  0  0  0  0
  9  7  1  0  0  0  0
 10 11  1  0  0  0  0
 10 18  1  0  0  0  0
 11 13  1  0  0  0  0
 12 11  2  0  0  0  0
 13 14  1  0  0  0  0
 14 17  1  0  0  0  0
 14 16  1  0  0  0  0
 15 13  1  0  0  0  0
 16 19  1  0  0  0  0
 17 20  1  0  0  0  0
 18 14  1  0  0  0  0
 20 19  1  0  0  0  0
 21 18  2  0  0  0  0
 22 25  1  0  0  0  0
 22 23  2  0  0  0  0
 24 22  2  0  0  0  0
 25 26  1  0  0  0  0
 26 27  2  0  0  0  0
 26 28  1  0  0  0  0
 29 27  1  0  0  0  0
 30 29  2  0  0  0  0
 31 30  1  0  0  0  0
 31 25  2  0  0  0  0
M  END
>  <Pose>
1

>  <Score>
-8.080

$$$$
