/Users/jonathanwahrer/Desktop/Msc/3_Semester/Drug_Design_Praktikum/waehrer_HTS_screening/HTS_experiment/out/docking_results/vina_output/3e7o/1043_docked.pdbqt
 OpenBabel03192216053D

 31 34  0  0  0  0  0  0  0  0999 V2000
  -37.6410  -69.1270   52.1160 N   0  0  0  0  0  0  0  0  0  0  0  0
  -36.3490  -69.4010   52.7080 C   0  0  0  0  0  2  0  0  0  0  0  0
  -35.3210  -69.7230   51.6520 C   0  0  0  0  0  2  0  0  0  0  0  0
  -35.3720  -68.6310   50.6580 N   0  0  0  0  0  0  0  0  0  0  0  0
  -36.6550  -68.3970   50.0700 C   0  0  0  0  0  2  0  0  0  0  0  0
  -37.6430  -69.3940   50.7200 C   0  0  0  0  0  2  0  0  0  0  0  0
  -34.2200  -67.8960   50.3450 C   0  0  0  0  0  0  0  0  0  0  0  0
  -33.1420  -68.2610   51.0090 O   0  0  0  0  0  0  0  0  0  0  0  0
  -33.9710  -66.8070   49.4350 C   0  0  0  0  0  2  0  0  0  0  0  0
  -35.0250  -66.2850   48.6240 N   0  0  0  0  0  0  0  0  0  0  0  0
  -35.5110  -66.8080   47.3610 C   0  0  0  0  0  0  0  0  0  0  0  0
  -35.0360  -67.8490   46.8280 O   0  0  0  0  0  0  0  0  0  0  0  0
  -36.5500  -65.9550   46.9100 N   0  0  0  0  0  0  0  0  0  0  0  0
  -36.4210  -64.7220   47.6090 C   0  0  0  0  0  0  0  0  0  0  0  0
  -37.2540  -66.2560   46.1810 H   0  0  0  0  0  0  0  0  0  0  0  0
  -35.6180  -63.6870   46.8580 C   0  0  0  0  0  2  0  0  0  0  0  0
  -37.7500  -64.0090   47.7920 C   0  0  0  0  0  2  0  0  0  0  0  0
  -35.8160  -65.1060   48.8830 C   0  0  0  0  0  0  0  0  0  0  0  0
  -35.9260  -62.4320   47.6530 C   0  0  0  0  0  2  0  0  0  0  0  0
  -37.2990  -62.6410   48.2460 C   0  0  0  0  0  2  0  0  0  0  0  0
  -35.9340  -64.5480   50.0040 O   0  0  0  0  0  0  0  0  0  0  0  0
  -38.9370  -69.8300   52.9770 S   0  0  0  0  0  0  0  0  0  0  0  0
  -38.3650  -70.3760   54.2720 O   0  0  0  0  0  0  0  0  0  0  0  0
  -39.4460  -71.0290   52.2170 O   0  0  0  0  0  0  0  0  0  0  0  0
  -40.2420  -68.7110   53.2890 C   0  0  0  0  0  0  0  0  0  0  0  0
  -40.5400  -67.6710   52.4320 C   0  0  0  0  0  3  0  0  0  0  0  0
  -41.5810  -66.7860   52.6900 C   0  0  0  0  0  3  0  0  0  0  0  0
  -42.3520  -66.9200   53.8160 C   0  0  0  0  0  0  0  0  0  0  0  0
  -42.0640  -67.9560   54.6810 C   0  0  0  0  0  3  0  0  0  0  0  0
  -43.7950  -65.6990   54.1800 Br  0  0  0  0  0  0  0  0  0  0  0  0
  -41.0250  -68.8350   54.4170 C   0  0  0  0  0  3  0  0  0  0  0  0
  1  2  1  0  0  0  0
  1 22  1  0  0  0  0
  3  2  1  0  0  0  0
  4  3  1  0  0  0  0
  5  4  1  0  0  0  0
  5  6  1  0  0  0  0
  6  1  1  0  0  0  0
  7  4  1  0  0  0  0
  7  8  2  0  0  0  0
  9  7  1  0  0  0  0
 10 18  1  0  0  0  0
 10  9  1  0  0  0  0
 11 10  1  0  0  0  0
 12 11  2  0  0  0  0
 13 11  1  0  0  0  0
 13 14  1  0  0  0  0
 14 17  1  0  0  0  0
 14 18  1  0  0  0  0
 15 13  1  0  0  0  0
 16 14  1  0  0  0  0
 16 19  1  0  0  0  0
 17 20  1  0  0  0  0
 18 21  2  0  0  0  0
 19 20  1  0  0  0  0
 22 25  1  0  0  0  0
 22 23  2  0  0  0  0
 24 22  2  0  0  0  0
 25 31  1  0  0  0  0
 26 27  1  0  0  0  0
 26 25  2  0  0  0  0
 27 28  2  0  0  0  0
 28 30  1  0  0  0  0
 28 29  1  0  0  0  0
 31 29  2  0  0  0  0
M  END
>  <Pose>
1

>  <Score>
-8.476

$$$$
