MODEL 1
REMARK VINA RESULT:    -8.704      0.000      0.000
REMARK INTER + INTRA:         -10.807
REMARK INTER:                 -10.231
REMARK INTRA:                  -0.576
REMARK UNBOUND:                -0.576
REMARK  3 active torsions:
REMARK  status: ('A' for Active; 'I' for Inactive)
REMARK    1  A    between atoms: S_1  and  N_4 
REMARK    2  A    between atoms: S_1  and  C_19 
REMARK       I    between atoms: N_7  and  C_10 
REMARK    3  A    between atoms: C_10  and  C_12 
ROOT
ATOM      1  N   UNK d   1     -44.989 -66.314  52.744  0.00  0.00    -0.304 N 
ATOM      2  C   UNK d   1     -45.759 -65.410  52.010  0.00  0.00     0.155 C 
ATOM      3  C   UNK d   1     -47.155 -65.815  51.695  0.00  0.00     0.146 C 
ATOM      4  N   UNK d   1     -47.732 -66.741  52.617  0.00  0.00    -0.345 N 
ATOM      5  C   UNK d   1     -46.947 -67.188  53.748  0.00  0.00     0.146 C 
ATOM      6  C   UNK d   1     -45.567 -67.517  53.185  0.00  0.00     0.155 C 
ATOM      7  C   UNK d   1     -49.048 -67.241  52.468  0.00  0.00     0.255 C 
ATOM      8  O   UNK d   1     -49.776 -66.876  51.490  0.00  0.00    -0.267 OA
ENDROOT
BRANCH   1   9
ATOM      9  S   UNK d   1     -43.705 -65.695  53.655  0.00  0.00     0.261 S 
ATOM     10  O   UNK d   1     -43.317 -64.311  53.308  0.00  0.00    -0.200 OA
ATOM     11  O   UNK d   1     -44.143 -65.679  55.115  0.00  0.00    -0.200 OA
BRANCH   9  12
ATOM     12  C   UNK d   1     -42.328 -66.789  53.589  0.00  0.00     0.082 A 
ATOM     13  C   UNK d   1     -41.492 -66.828  52.492  0.00  0.00     0.057 A 
ATOM     14  C   UNK d   1     -40.405 -67.673  52.410  0.00  0.00     0.070 A 
ATOM     15  C   UNK d   1     -40.109 -68.531  53.450  0.00  0.00     0.096 A 
ATOM     16  N   UNK d   1     -39.542 -67.719  51.281  0.00  0.00    -0.323 N 
ATOM     17  C   UNK d   1     -40.946 -68.493  54.554  0.00  0.00     0.040 A 
ATOM     18  O   UNK d   1     -39.018 -69.396  53.397  0.00  0.00    -0.340 OA
ATOM     19  C   UNK d   1     -42.032 -67.645  54.630  0.00  0.00     0.028 A 
ATOM     20  C   UNK d   1     -38.277 -69.669  52.222  0.00  0.00     0.278 C 
ATOM     21  C   UNK d   1     -38.423 -68.595  51.207  0.00  0.00     0.246 C 
ATOM     22  O   UNK d   1     -37.535 -68.517  50.321  0.00  0.00    -0.271 OA
ATOM     23  H   UNK d   1     -39.752 -67.078  50.487  0.00  0.00     0.169 HD
ENDBRANCH   9  12
ENDBRANCH   1   9
BRANCH   7  24
ATOM     24  C   UNK d   1     -49.652 -68.186  53.398  0.00  0.00     0.049 A 
ATOM     25  C   UNK d   1     -50.366 -67.777  54.509  0.00  0.00     0.026 A 
ATOM     26  C   UNK d   1     -50.941 -68.660  55.393  0.00  0.00     0.020 A 
ATOM     27 Br   UNK d   1     -50.532 -65.894  54.782  0.00  0.00    -0.050 Br
ATOM     28  C   UNK d   1     -50.791 -70.016  55.148  0.00  0.00     0.001 A 
ATOM     29  C   UNK d   1     -50.092 -70.481  54.059  0.00  0.00     0.001 A 
ATOM     30  C   UNK d   1     -49.535 -69.556  53.204  0.00  0.00     0.018 A 
ENDBRANCH   7  24
TORSDOF 3
ENDMDL
