/Users/jonathanwahrer/Desktop/Msc/3_Semester/Drug_Design_Praktikum/waehrer_HTS_screening/HTS_experiment/out/docking_results/vina_output/3e7o/1051_docked.pdbqt
 OpenBabel03192216063D

 27 30  0  0  0  0  0  0  0  0999 V2000
  -35.2490  -63.3400   47.9130 N   0  0  0  0  0  0  0  0  0  0  0  0
  -35.8430  -63.4060   49.1970 C   0  0  0  0  0  2  0  0  0  0  0  0
  -36.7540  -64.5580   49.4540 C   0  0  0  0  0  2  0  0  0  0  0  0
  -37.5070  -64.9780   48.3020 N   0  0  0  0  0  0  0  0  0  0  0  0
  -37.2990  -64.2250   47.0860 C   0  0  0  0  0  2  0  0  0  0  0  0
  -35.7950  -64.1860   46.9070 C   0  0  0  0  0  2  0  0  0  0  0  0
  -38.4150  -66.0530   48.2930 C   0  0  0  0  0  0  0  0  0  0  0  0
  -39.0250  -66.3450   47.2410 O   0  0  0  0  0  0  0  0  0  0  0  0
  -38.6520  -66.8340   49.5030 C   0  0  0  0  0  0  0  0  0  0  0  0
  -39.6360  -66.6400   50.3740 N   0  0  0  0  0  0  0  0  0  0  0  0
  -39.5610  -67.5300   51.3660 N   0  0  0  0  0  0  0  0  0  0  0  0
  -38.5010  -68.3430   51.1600 C   0  0  0  0  0  0  0  0  0  0  0  0
  -40.3240  -67.7280   52.4620 C   0  0  0  0  0  3  0  0  0  0  0  0
  -37.9200  -67.8960   49.9680 C   0  0  0  0  0  3  0  0  0  0  0  0
  -38.1860  -69.3450   52.0190 N   0  0  0  0  0  0  0  0  0  0  0  0
  -38.9580  -69.5430   53.1260 C   0  0  0  0  0  3  0  0  0  0  0  0
  -40.0460  -68.7310   53.3640 C   0  0  0  0  0  0  0  0  0  0  0  0
  -41.1330  -69.0130   54.9260 Br  0  0  0  0  0  0  0  0  0  0  0  0
  -33.5380  -63.5310   47.9210 S   0  0  0  0  0  0  0  0  0  0  0  0
  -32.9450  -62.8170   49.0920 O   0  0  0  0  0  0  0  0  0  0  0  0
  -33.0250  -62.8720   46.6480 O   0  0  0  0  0  0  0  0  0  0  0  0
  -33.0680  -65.2120   47.9800 C   0  0  0  0  0  0  0  0  0  0  0  0
  -32.3450  -65.9100   47.0410 C   0  0  0  0  0  3  0  0  0  0  0  0
  -32.1870  -67.1720   47.4420 N   0  0  0  0  0  0  0  0  0  0  0  0
  -32.7820  -67.3170   48.6100 N   0  0  0  0  0  0  0  0  0  0  0  0
  -31.4930  -68.2270   46.7520 C   0  0  0  0  0  1  0  0  0  0  0  0
  -33.3410  -66.1390   48.9860 C   0  0  0  0  0  3  0  0  0  0  0  0
  1 19  1  0  0  0  0
  1  2  1  0  0  0  0
  2  3  1  0  0  0  0
  4  3  1  0  0  0  0
  5  4  1  0  0  0  0
  6  5  1  0  0  0  0
  6  1  1  0  0  0  0
  7  4  1  0  0  0  0
  7  9  1  0  0  0  0
  8  7  2  0  0  0  0
  9 14  1  0  0  0  0
  9 10  2  0  0  0  0
 10 11  1  0  0  0  0
 11 13  1  0  0  0  0
 12 11  1  0  0  0  0
 12 15  1  0  0  0  0
 13 17  2  0  0  0  0
 14 12  2  0  0  0  0
 15 16  2  0  0  0  0
 16 17  1  0  0  0  0
 17 18  1  0  0  0  0
 19 22  1  0  0  0  0
 19 20  2  0  0  0  0
 21 19  2  0  0  0  0
 22 27  1  0  0  0  0
 23 24  1  0  0  0  0
 23 22  2  0  0  0  0
 24 25  1  0  0  0  0
 25 27  2  0  0  0  0
 26 24  1  0  0  0  0
M  END
>  <Pose>
1

>  <Score>
-7.564

$$$$
