/Users/jonathanwahrer/Desktop/Msc/3_Semester/Drug_Design_Praktikum/waehrer_HTS_screening/HTS_experiment/out/docking_results/vina_output/3e7o/1056_docked.pdbqt
 OpenBabel03192216063D

 30 33  0  0  1  0  0  0  0  0999 V2000
  -41.8800  -64.7160   51.8350 N   0  0  0  0  0  0  0  0  0  0  0  0
  -42.3150  -64.5350   50.5030 C   0  0  0  0  0  2  0  0  0  0  0  0
  -41.5370  -65.1960   49.4420 C   0  0  0  0  0  2  0  0  0  0  0  0
  -40.1280  -65.1500   49.6970 N   0  0  0  0  0  0  0  0  0  0  0  0
  -39.6450  -64.4480   50.8510 C   0  0  0  0  0  2  0  0  0  0  0  0
  -40.4830  -64.6550   52.0740 C   0  0  0  0  0  2  0  0  0  0  0  0
  -39.2160  -65.7850   48.8300 C   0  0  0  0  0  0  0  0  0  0  0  0
  -39.6560  -66.3940   47.8280 O   0  0  0  0  0  0  0  0  0  0  0  0
  -37.7730  -65.7790   49.0280 C   0  0  1  0  0  3  0  0  0  0  0  0
  -37.1590  -66.8490   49.6530 C   0  0  0  0  0  3  0  0  0  0  0  0
  -35.8300  -66.8450   49.8360 N   0  0  0  0  0  0  0  0  0  0  0  0
  -35.0450  -65.8250   49.4270 C   0  0  1  0  0  3  0  0  0  0  0  0
  -35.6090  -64.7690   48.8160 N   0  0  0  0  0  0  0  0  0  0  0  0
  -33.6690  -65.8480   49.6300 C   0  0  0  0  0  3  0  0  0  0  0  0
  -34.8210  -63.7370   48.4030 C   0  0  0  0  0  3  0  0  0  0  0  0
  -36.9540  -64.7460   48.6180 C   0  0  0  0  0  0  0  0  0  0  0  0
  -33.4550  -63.7410   48.5940 C   0  0  0  0  0  0  0  0  0  0  0  0
  -32.8510  -64.8180   49.2220 C   0  0  0  0  0  3  0  0  0  0  0  0
  -32.5640  -62.6360   48.1590 C   0  0  0  0  0  1  0  0  0  0  0  0
  -37.4730  -63.7720   48.0530 O   0  0  0  0  0  0  0  0  0  0  0  0
  -42.7540  -65.8210   52.7710 S   0  0  0  0  0  0  0  0  0  0  0  0
  -43.3850  -65.1370   53.9330 O   0  0  0  0  0  0  0  0  0  0  0  0
  -43.8460  -66.4150   51.9150 O   0  0  0  0  0  0  0  0  0  0  0  0
  -41.7130  -67.1160   53.2990 C   0  0  0  0  0  0  0  0  0  0  0  0
  -40.8090  -67.6810   52.4240 C   0  0  0  0  0  3  0  0  0  0  0  0
  -40.0090  -68.7090   52.9110 C   0  0  0  0  0  0  0  0  0  0  0  0
  -40.1000  -69.1550   54.2040 C   0  0  0  0  0  3  0  0  0  0  0  0
  -38.7440  -69.5300   51.7530 Br  0  0  0  0  0  0  0  0  0  0  0  0
  -41.0120  -68.5790   55.0770 C   0  0  0  0  0  3  0  0  0  0  0  0
  -41.8260  -67.5430   54.6060 C   0  0  0  0  0  3  0  0  0  0  0  0
  1  6  1  0  0  0  0
  1 21  1  0  0  0  0
  2  1  1  0  0  0  0
  3  4  1  0  0  0  0
  3  2  1  0  0  0  0
  4  5  1  0  0  0  0
  5  6  1  0  0  0  0
  7  4  1  0  0  0  0
  8  7  2  0  0  0  0
  9  7  1  6  0  0  0
  9 10  1  0  0  0  0
 10 11  2  0  0  0  0
 12 14  1  1  0  0  0
 12 11  1  0  0  0  0
 13 12  1  0  0  0  0
 15 17  2  0  0  0  0
 15 13  1  0  0  0  0
 16 13  1  0  0  0  0
 16  9  1  0  0  0  0
 17 18  1  0  0  0  0
 18 14  2  0  0  0  0
 19 17  1  0  0  0  0
 20 16  2  0  0  0  0
 21 24  1  0  0  0  0
 21 22  2  0  0  0  0
 23 21  2  0  0  0  0
 24 30  1  0  0  0  0
 25 26  1  0  0  0  0
 25 24  2  0  0  0  0
 26 27  2  0  0  0  0
 27 29  1  0  0  0  0
 28 26  1  0  0  0  0
 30 29  2  0  0  0  0
M  END
>  <Pose>
1

>  <Score>
-8.996

$$$$
