MODEL 1
REMARK VINA RESULT:    -8.996      0.000      0.000
REMARK INTER + INTRA:         -11.182
REMARK INTER:                 -10.574
REMARK INTRA:                  -0.608
REMARK UNBOUND:                -0.608
REMARK  3 active torsions:
REMARK  status: ('A' for Active; 'I' for Inactive)
REMARK    1  A    between atoms: S_1  and  N_4 
REMARK    2  A    between atoms: S_1  and  C_24 
REMARK       I    between atoms: N_7  and  C_10 
REMARK    3  A    between atoms: C_10  and  C_12 
ROOT
ATOM      1  N   UNK d   1     -41.880 -64.716  51.835  0.00  0.00    -0.304 N 
ATOM      2  C   UNK d   1     -42.315 -64.535  50.503  0.00  0.00     0.155 C 
ATOM      3  C   UNK d   1     -41.537 -65.196  49.442  0.00  0.00     0.146 C 
ATOM      4  N   UNK d   1     -40.128 -65.150  49.697  0.00  0.00    -0.345 N 
ATOM      5  C   UNK d   1     -39.645 -64.448  50.851  0.00  0.00     0.146 C 
ATOM      6  C   UNK d   1     -40.483 -64.655  52.074  0.00  0.00     0.155 C 
ATOM      7  C   UNK d   1     -39.216 -65.785  48.830  0.00  0.00     0.260 C 
ATOM      8  O   UNK d   1     -39.656 -66.394  47.828  0.00  0.00    -0.267 OA
ENDROOT
BRANCH   7   9
ATOM      9  C   UNK d   1     -37.773 -65.779  49.028  0.00  0.00     0.118 A 
ATOM     10  C   UNK d   1     -37.159 -66.849  49.653  0.00  0.00     0.141 A 
ATOM     11  N   UNK d   1     -35.830 -66.845  49.836  0.00  0.00    -0.242 NA
ATOM     12  C   UNK d   1     -35.045 -65.825  49.427  0.00  0.00     0.136 A 
ATOM     13  N   UNK d   1     -35.609 -64.769  48.816  0.00  0.00    -0.272 N 
ATOM     14  C   UNK d   1     -33.669 -65.848  49.630  0.00  0.00     0.051 A 
ATOM     15  C   UNK d   1     -34.821 -63.737  48.403  0.00  0.00     0.108 A 
ATOM     16  C   UNK d   1     -36.954 -64.746  48.618  0.00  0.00     0.270 A 
ATOM     17  C   UNK d   1     -33.455 -63.741  48.594  0.00  0.00    -0.046 A 
ATOM     18  C   UNK d   1     -32.851 -64.818  49.222  0.00  0.00     0.012 A 
ATOM     19  C   UNK d   1     -32.564 -62.636  48.159  0.00  0.00     0.049 C 
ATOM     20  O   UNK d   1     -37.473 -63.772  48.053  0.00  0.00    -0.266 OA
ENDBRANCH   7   9
BRANCH   1  21
ATOM     21  S   UNK d   1     -42.754 -65.821  52.771  0.00  0.00     0.261 S 
ATOM     22  O   UNK d   1     -43.385 -65.137  53.933  0.00  0.00    -0.200 OA
ATOM     23  O   UNK d   1     -43.846 -66.415  51.915  0.00  0.00    -0.200 OA
BRANCH  21  24
ATOM     24  C   UNK d   1     -41.713 -67.116  53.299  0.00  0.00     0.081 A 
ATOM     25  C   UNK d   1     -40.809 -67.681  52.424  0.00  0.00     0.044 A 
ATOM     26  C   UNK d   1     -40.009 -68.709  52.911  0.00  0.00     0.012 A 
ATOM     27  C   UNK d   1     -40.100 -69.155  54.204  0.00  0.00     0.019 A 
ATOM     28 Br   UNK d   1     -38.744 -69.530  51.753  0.00  0.00    -0.051 Br
ATOM     29  C   UNK d   1     -41.012 -68.579  55.077  0.00  0.00     0.003 A 
ATOM     30  C   UNK d   1     -41.826 -67.543  54.606  0.00  0.00     0.025 A 
ENDBRANCH  21  24
ENDBRANCH   1  21
TORSDOF 3
ENDMDL
