MODEL 1
REMARK VINA RESULT:    -7.738      0.000      0.000
REMARK INTER + INTRA:         -11.045
REMARK INTER:                 -10.000
REMARK INTRA:                  -1.045
REMARK UNBOUND:                -1.045
REMARK  5 active torsions:
REMARK  status: ('A' for Active; 'I' for Inactive)
REMARK    1  A    between atoms: S_1  and  N_4 
REMARK    2  A    between atoms: S_1  and  C_23 
REMARK    3  A    between atoms: N_7  and  C_10 
REMARK    4  A    between atoms: C_10  and  N_11 
REMARK    5  A    between atoms: C_13  and  N_18 
ROOT
ATOM      1  N   UNK d   1     -39.707 -64.962  49.065  0.00  0.00    -0.303 N 
ATOM      2  C   UNK d   1     -40.786 -64.276  48.479  0.00  0.00     0.165 C 
ATOM      3  C   UNK d   1     -41.732 -63.679  49.484  0.00  0.00     0.295 C 
ATOM      4  N   UNK d   1     -41.662 -64.265  50.775  0.00  0.00     0.111 NA
ATOM      5  C   UNK d   1     -40.346 -64.197  51.302  0.00  0.00     0.295 C 
ATOM      6  C   UNK d   1     -39.270 -64.553  50.344  0.00  0.00     0.165 C 
ENDROOT
BRANCH   4   7
ATOM      7  C   UNK d   1     -42.340 -65.505  50.836  0.00  0.00     0.426 C 
BRANCH   7   8
ATOM      8  N   UNK d   1     -42.297 -66.207  52.074  0.00  0.00    -0.204 N 
ATOM      9  N   UNK d   1     -41.426 -67.175  52.270  0.00  0.00    -0.149 NA
ATOM     10  C   UNK d   1     -41.323 -67.888  53.401  0.00  0.00     0.155 A 
ATOM     11  C   UNK d   1     -42.196 -67.571  54.415  0.00  0.00     0.058 A 
ATOM     12  C   UNK d   1     -43.132 -66.568  54.272  0.00  0.00     0.080 A 
ATOM     13  C   UNK d   1     -43.153 -65.892  53.060  0.00  0.00     0.265 A 
ATOM     14  O   UNK d   1     -44.022 -64.961  52.932  0.00  0.00    -0.267 OA
BRANCH  10  15
ATOM     15  N   UNK d   1     -40.364 -68.937  53.583  0.00  0.00    -0.298 N 
ATOM     16  C   UNK d   1     -39.902 -69.456  54.725  0.00  0.00     0.215 A 
ATOM     17  N   UNK d   1     -39.012 -70.422  54.428  0.00  0.00    -0.254 NA
ATOM     18  C   UNK d   1     -38.900 -70.524  53.092  0.00  0.00     0.135 A 
ATOM     19  C   UNK d   1     -39.759 -69.580  52.572  0.00  0.00     0.119 A 
ENDBRANCH  10  15
ENDBRANCH   7   8
ENDBRANCH   4   7
BRANCH   1  20
ATOM     20  S   UNK d   1     -38.607 -65.722  48.080  0.00  0.00     0.267 S 
ATOM     21  O   UNK d   1     -39.232 -66.751  47.199  0.00  0.00    -0.200 OA
ATOM     22  O   UNK d   1     -37.891 -64.727  47.224  0.00  0.00    -0.200 OA
BRANCH  20  23
ATOM     23  C   UNK d   1     -37.403 -66.556  49.086  0.00  0.00     0.121 A 
ATOM     24  S   UNK d   1     -37.551 -68.017  49.950  0.00  0.00    -0.069 SA
ATOM     25  C   UNK d   1     -35.988 -68.095  50.622  0.00  0.00     0.052 A 
ATOM     26  C   UNK d   1     -35.383 -66.958  50.146  0.00  0.00     0.028 A 
ATOM     27 Br   UNK d   1     -35.230 -69.431  51.767  0.00  0.00    -0.043 Br
ATOM     28  C   UNK d   1     -36.121 -66.167  49.352  0.00  0.00     0.035 A 
ENDBRANCH  20  23
ENDBRANCH   1  20
TORSDOF 5
ENDMDL
