MODEL 1
REMARK VINA RESULT:    -8.361      0.000      0.000
REMARK INTER + INTRA:         -11.736
REMARK INTER:                 -10.316
REMARK INTRA:                  -1.420
REMARK UNBOUND:                -1.420
REMARK  4 active torsions:
REMARK  status: ('A' for Active; 'I' for Inactive)
REMARK    1  A    between atoms: S_1  and  N_4 
REMARK    2  A    between atoms: S_1  and  C_22 
REMARK    3  A    between atoms: N_7  and  C_10 
REMARK    4  A    between atoms: C_10  and  N_11 
ROOT
ATOM      1  N   UNK d   1     -38.935 -65.362  48.918  0.00  0.00    -0.203 NA
ATOM      2  C   UNK d   1     -38.728 -64.275  49.823  0.00  0.00     0.127 C 
ATOM      3  C   UNK d   1     -40.018 -64.169  50.654  0.00  0.00     0.134 C 
ATOM      4  N   UNK d   1     -41.140 -64.566  49.921  0.00  0.00    -0.393 N 
ATOM      5  C   UNK d   1     -41.093 -64.323  48.505  0.00  0.00     0.134 C 
ATOM      6  C   UNK d   1     -39.818 -64.827  47.866  0.00  0.00     0.127 C 
ENDROOT
BRANCH   4   7
ATOM      7  C   UNK d   1     -41.923 -65.658  50.322  0.00  0.00     0.273 C 
BRANCH   7   8
ATOM      8  N   UNK d   1     -41.384 -66.568  51.280  0.00  0.00    -0.223 N 
ATOM      9  N   UNK d   1     -40.288 -67.408  50.956  0.00  0.00    -0.278 N 
ATOM     10  C   UNK d   1     -40.015 -68.158  52.136  0.00  0.00     0.122 A 
ATOM     11  H   UNK d   1     -39.784 -67.465  50.040  0.00  0.00     0.189 HD
ATOM     12  C   UNK d   1     -39.042 -69.059  52.211  0.00  0.00     0.023 C 
ATOM     13  N   UNK d   1     -40.908 -67.811  53.183  0.00  0.00    -0.283 N 
ATOM     14  C   UNK d   1     -38.547 -69.958  53.278  0.00  0.00     0.031 C 
ATOM     15  C   UNK d   1     -39.649 -70.298  54.252  0.00  0.00     0.006 C 
ATOM     16  C   UNK d   1     -39.898 -69.039  55.064  0.00  0.00     0.021 C 
ATOM     17  C   UNK d   1     -41.060 -68.257  54.534  0.00  0.00     0.135 C 
ATOM     18  C   UNK d   1     -41.760 -66.814  52.627  0.00  0.00     0.346 A 
ATOM     19  O   UNK d   1     -42.689 -66.262  53.268  0.00  0.00    -0.245 OA
ENDBRANCH   7   8
ENDBRANCH   4   7
BRANCH   1  20
ATOM     20  S   UNK d   1     -37.511 -65.900  48.136  0.00  0.00     0.243 S 
ATOM     21  O   UNK d   1     -36.966 -64.869  47.183  0.00  0.00    -0.206 OA
ATOM     22  O   UNK d   1     -37.887 -67.098  47.296  0.00  0.00    -0.206 OA
BRANCH  20  23
ATOM     23  C   UNK d   1     -36.261 -66.382  49.217  0.00  0.00     0.076 A 
ATOM     24  C   UNK d   1     -36.196 -67.562  49.897  0.00  0.00     0.043 A 
ATOM     25  C   UNK d   1     -35.140 -67.853  50.748  0.00  0.00     0.012 A 
ATOM     26  C   UNK d   1     -34.119 -66.971  50.940  0.00  0.00     0.019 A 
ATOM     27 Br   UNK d   1     -35.071 -69.523  51.695  0.00  0.00    -0.051 Br
ATOM     28  C   UNK d   1     -34.157 -65.762  50.262  0.00  0.00     0.003 A 
ATOM     29  C   UNK d   1     -35.207 -65.485  49.424  0.00  0.00     0.025 A 
ENDBRANCH  20  23
ENDBRANCH   1  20
TORSDOF 4
ENDMDL
