MODEL 1
REMARK VINA RESULT:    -7.420      0.000      0.000
REMARK INTER + INTRA:          -9.774
REMARK INTER:                  -9.155
REMARK INTRA:                  -0.619
REMARK UNBOUND:                -0.619
REMARK  4 active torsions:
REMARK  status: ('A' for Active; 'I' for Inactive)
REMARK    1  A    between atoms: S_1  and  N_4 
REMARK    2  A    between atoms: S_1  and  C_21 
REMARK    3  A    between atoms: N_7  and  C_10 
REMARK    4  A    between atoms: N_11  and  C_15 
ROOT
ATOM      1  N   UNK d   1     -38.376 -66.718  48.943  0.00  0.00    -0.304 N 
ATOM      2  C   UNK d   1     -37.227 -66.957  49.730  0.00  0.00     0.155 C 
ATOM      3  C   UNK d   1     -36.035 -66.100  49.466  0.00  0.00     0.162 C 
ATOM      4  N   UNK d   1     -36.220 -65.119  48.426  0.00  0.00    -0.209 N 
ATOM      5  C   UNK d   1     -37.041 -65.437  47.302  0.00  0.00     0.162 C 
ATOM      6  C   UNK d   1     -38.199 -66.326  47.597  0.00  0.00     0.155 C 
ENDROOT
BRANCH   4   7
ATOM      7  C   UNK d   1     -35.548 -63.861  48.578  0.00  0.00     0.747 A 
ATOM      8  N   UNK d   1     -34.248 -63.628  48.326  0.00  0.00    -0.041 N 
ATOM      9  N   UNK d   1     -34.058 -62.336  48.620  0.00  0.00    -0.025 NA
ATOM     10  N   UNK d   1     -35.187 -61.803  49.031  0.00  0.00    -0.007 NA
ATOM     11  N   UNK d   1     -36.135 -62.716  49.020  0.00  0.00     0.065 NA
BRANCH   8  12
ATOM     12  C   UNK d   1     -33.292 -64.559  47.841  0.00  0.00     0.078 A 
ATOM     13  C   UNK d   1     -32.455 -65.237  48.697  0.00  0.00     0.032 A 
ATOM     14  C   UNK d   1     -31.527 -66.145  48.189  0.00  0.00     0.002 A 
ATOM     15  C   UNK d   1     -31.424 -66.384  46.836  0.00  0.00     0.000 A 
ATOM     16  C   UNK d   1     -32.276 -65.693  45.965  0.00  0.00     0.002 A 
ATOM     17  C   UNK d   1     -33.199 -64.788  46.491  0.00  0.00     0.032 A 
ENDBRANCH   8  12
ENDBRANCH   4   7
BRANCH   1  18
ATOM     18  S   UNK d   1     -39.723 -66.037  49.728  0.00  0.00     0.260 S 
ATOM     19  O   UNK d   1     -40.910 -65.841  48.872  0.00  0.00    -0.200 OA
ATOM     20  O   UNK d   1     -39.318 -64.654  50.224  0.00  0.00    -0.200 OA
BRANCH  18  21
ATOM     21  C   UNK d   1     -40.129 -66.981  51.134  0.00  0.00     0.079 A 
ATOM     22  C   UNK d   1     -39.749 -68.291  51.289  0.00  0.00     0.026 A 
ATOM     23  C   UNK d   1     -40.079 -69.035  52.422  0.00  0.00     0.020 A 
ATOM     24  C   UNK d   1     -40.824 -68.410  53.427  0.00  0.00     0.011 A 
ATOM     25  C   UNK d   1     -41.211 -67.096  53.281  0.00  0.00     0.020 A 
ATOM     26 Br   UNK d   1     -41.310 -69.370  55.009  0.00  0.00    -0.051 Br
ATOM     27  C   UNK d   1     -40.867 -66.401  52.156  0.00  0.00     0.026 A 
ENDBRANCH  18  21
ENDBRANCH   1  18
TORSDOF 4
ENDMDL
