/Users/jonathanwahrer/Desktop/Msc/3_Semester/Drug_Design_Praktikum/waehrer_HTS_screening/HTS_experiment/out/docking_results/vina_output/3e7o/1081_docked.pdbqt
 OpenBabel03192216073D

 27 30  0  0  0  0  0  0  0  0999 V2000
  -38.3760  -66.7180   48.9430 N   0  0  0  0  0  0  0  0  0  0  0  0
  -37.2270  -66.9570   49.7300 C   0  0  0  0  0  2  0  0  0  0  0  0
  -36.0350  -66.1000   49.4660 C   0  0  0  0  0  2  0  0  0  0  0  0
  -36.2200  -65.1190   48.4260 N   0  0  0  0  0  0  0  0  0  0  0  0
  -37.0410  -65.4370   47.3020 C   0  0  0  0  0  3  0  0  0  0  0  0
  -38.1990  -66.3260   47.5970 C   0  0  0  0  0  3  0  0  0  0  0  0
  -35.5480  -63.8610   48.5780 C   0  0  0  0  0  0  0  0  0  0  0  0
  -34.2480  -63.6280   48.3260 N   0  0  0  0  0  0  0  0  0  0  0  0
  -34.0580  -62.3360   48.6200 N   0  0  0  0  0  0  0  0  0  0  0  0
  -35.1870  -61.8030   49.0310 N   0  0  0  0  0  0  0  0  0  0  0  0
  -36.1350  -62.7160   49.0200 N   0  0  0  0  0  0  0  0  0  0  0  0
  -33.2920  -64.5590   47.8410 C   0  0  0  0  0  0  0  0  0  0  0  0
  -32.4550  -65.2370   48.6970 C   0  0  0  0  0  3  0  0  0  0  0  0
  -31.5270  -66.1450   48.1890 C   0  0  0  0  0  3  0  0  0  0  0  0
  -31.4240  -66.3840   46.8360 C   0  0  0  0  0  3  0  0  0  0  0  0
  -32.2760  -65.6930   45.9650 C   0  0  0  0  0  3  0  0  0  0  0  0
  -33.1990  -64.7880   46.4910 C   0  0  0  0  0  3  0  0  0  0  0  0
  -39.7230  -66.0370   49.7280 S   0  0  0  0  0  0  0  0  0  0  0  0
  -40.9100  -65.8410   48.8720 O   0  0  0  0  0  0  0  0  0  0  0  0
  -39.3180  -64.6540   50.2240 O   0  0  0  0  0  0  0  0  0  0  0  0
  -40.1290  -66.9810   51.1340 C   0  0  0  0  0  0  0  0  0  0  0  0
  -39.7490  -68.2910   51.2890 C   0  0  0  0  0  3  0  0  0  0  0  0
  -40.0790  -69.0350   52.4220 C   0  0  0  0  0  3  0  0  0  0  0  0
  -40.8240  -68.4100   53.4270 C   0  0  0  0  0  0  0  0  0  0  0  0
  -41.2110  -67.0960   53.2810 C   0  0  0  0  0  3  0  0  0  0  0  0
  -41.3100  -69.3700   55.0090 Br  0  0  0  0  0  0  0  0  0  0  0  0
  -40.8670  -66.4010   52.1560 C   0  0  0  0  0  3  0  0  0  0  0  0
  1 18  1  0  0  0  0
  1  2  1  0  0  0  0
  3  2  1  0  0  0  0
  4  7  1  0  0  0  0
  4  3  1  0  0  0  0
  5  6  2  0  0  0  0
  5  4  1  0  0  0  0
  6  1  1  0  0  0  0
  7 11  2  0  0  0  0
  8  7  1  0  0  0  0
  8  9  1  0  0  0  0
  9 10  2  0  0  0  0
 11 10  1  0  0  0  0
 12  8  1  0  0  0  0
 12 13  1  0  0  0  0
 14 13  2  0  0  0  0
 15 14  1  0  0  0  0
 16 17  1  0  0  0  0
 16 15  2  0  0  0  0
 17 12  2  0  0  0  0
 18 20  2  0  0  0  0
 18 21  1  0  0  0  0
 19 18  2  0  0  0  0
 21 22  2  0  0  0  0
 21 27  1  0  0  0  0
 22 23  1  0  0  0  0
 23 24  2  0  0  0  0
 24 26  1  0  0  0  0
 25 24  1  0  0  0  0
 27 25  2  0  0  0  0
M  END
>  <Pose>
1

>  <Score>
-7.420

$$$$
