MODEL 1
REMARK VINA RESULT:    -8.284      0.000      0.000
REMARK INTER + INTRA:         -10.983
REMARK INTER:                 -10.221
REMARK INTRA:                  -0.762
REMARK UNBOUND:                -0.762
REMARK  4 active torsions:
REMARK  status: ('A' for Active; 'I' for Inactive)
REMARK    1  A    between atoms: S_1  and  N_4 
REMARK    2  A    between atoms: S_1  and  C_23 
REMARK    3  A    between atoms: N_7  and  C_10 
REMARK    4  A    between atoms: C_12  and  N_17 
ROOT
ATOM      1  N   UNK d   1     -36.216 -66.786  49.940  0.00  0.00    -0.203 NA
ATOM      2  C   UNK d   1     -35.995 -68.145  50.304  0.00  0.00     0.128 C 
ATOM      3  C   UNK d   1     -37.248 -68.992  50.259  0.00  0.00     0.157 C 
ATOM      4  N   UNK d   1     -38.367 -68.121  50.472  0.00  0.00    -0.212 N 
ATOM      5  C   UNK d   1     -38.621 -67.083  49.517  0.00  0.00     0.157 C 
ATOM      6  C   UNK d   1     -37.293 -66.591  48.998  0.00  0.00     0.128 C 
ENDROOT
BRANCH   4   7
ATOM      7  C   UNK d   1     -39.191 -68.293  51.597  0.00  0.00     0.726 A 
ATOM      8  N   UNK d   1     -40.315 -67.583  51.788  0.00  0.00    -0.045 NA
ATOM      9  C   UNK d   1     -41.129 -67.697  52.822  0.00  0.00     0.146 A 
ATOM     10  C   UNK d   1     -40.803 -68.627  53.795  0.00  0.00     0.078 A 
ATOM     11  C   UNK d   1     -39.660 -69.380  53.644  0.00  0.00     0.053 A 
ATOM     12  N   UNK d   1     -38.887 -69.198  52.558  0.00  0.00    -0.068 NA
ATOM     13  C   UNK d   1     -39.275 -70.389  54.667  0.00  0.00     0.071 C 
BRANCH   9  14
ATOM     14  N   UNK d   1     -42.287 -66.887  52.907  0.00  0.00    -0.361 N 
ATOM     15  C   UNK d   1     -43.155 -66.848  54.065  0.00  0.00     0.150 C 
ATOM     16  C   UNK d   1     -43.881 -65.504  54.010  0.00  0.00     0.187 C 
ATOM     17  O   UNK d   1     -42.936 -64.546  53.638  0.00  0.00    -0.388 OA
ATOM     18  C   UNK d   1     -42.596 -64.604  52.306  0.00  0.00     0.187 C 
ATOM     19  C   UNK d   1     -42.635 -66.045  51.785  0.00  0.00     0.150 C 
ENDBRANCH   9  14
ENDBRANCH   4   7
BRANCH   1  20
ATOM     20  S   UNK d   1     -34.775 -66.188  49.193  0.00  0.00     0.243 S 
ATOM     21  O   UNK d   1     -33.769 -65.897  50.294  0.00  0.00    -0.206 OA
ATOM     22  O   UNK d   1     -34.200 -67.258  48.311  0.00  0.00    -0.206 OA
BRANCH  20  23
ATOM     23  C   UNK d   1     -35.075 -64.717  48.312  0.00  0.00     0.074 A 
ATOM     24  C   UNK d   1     -35.380 -63.565  49.024  0.00  0.00     0.026 A 
ATOM     25  C   UNK d   1     -35.629 -62.366  48.394  0.00  0.00     0.020 A 
ATOM     26  C   UNK d   1     -35.579 -62.294  47.023  0.00  0.00     0.011 A 
ATOM     27  C   UNK d   1     -35.280 -63.419  46.278  0.00  0.00     0.020 A 
ATOM     28 Br   UNK d   1     -35.926 -60.627  46.168  0.00  0.00    -0.051 Br
ATOM     29  C   UNK d   1     -35.032 -64.616  46.945  0.00  0.00     0.026 A 
ENDBRANCH  20  23
ENDBRANCH   1  20
TORSDOF 4
ENDMDL
