MODEL 1
REMARK VINA RESULT:    -7.892      0.000      0.000
REMARK INTER + INTRA:         -10.088
REMARK INTER:                  -9.276
REMARK INTRA:                  -0.813
REMARK UNBOUND:                -0.813
REMARK  3 active torsions:
REMARK  status: ('A' for Active; 'I' for Inactive)
REMARK    1  A    between atoms: S_1  and  N_4 
REMARK    2  A    between atoms: S_1  and  C_20 
REMARK    3  A    between atoms: N_7  and  C_10 
ROOT
ATOM      1  N   UNK d   1     -36.875 -65.995  48.266  0.00  0.00    -0.203 NA
ATOM      2  C   UNK d   1     -37.957 -65.866  47.364  0.00  0.00     0.127 C 
ATOM      3  C   UNK d   1     -39.315 -65.812  47.971  0.00  0.00     0.138 C 
ATOM      4  N   UNK d   1     -39.332 -64.973  49.179  0.00  0.00    -0.377 N 
ATOM      5  C   UNK d   1     -38.119 -64.215  49.403  0.00  0.00     0.138 C 
ATOM      6  C   UNK d   1     -36.988 -65.224  49.473  0.00  0.00     0.127 C 
ENDROOT
BRANCH   1   7
ATOM      7  S   UNK d   1     -36.319 -67.582  48.528  0.00  0.00     0.243 S 
ATOM      8  O   UNK d   1     -34.809 -67.508  48.717  0.00  0.00    -0.206 OA
ATOM      9  O   UNK d   1     -36.545 -68.434  47.315  0.00  0.00    -0.206 OA
BRANCH   7  10
ATOM     10  C   UNK d   1     -36.961 -68.310  49.976  0.00  0.00     0.074 A 
ATOM     11  C   UNK d   1     -38.325 -68.350  50.231  0.00  0.00     0.026 A 
ATOM     12  C   UNK d   1     -38.830 -68.926  51.376  0.00  0.00     0.020 A 
ATOM     13  C   UNK d   1     -37.947 -69.476  52.290  0.00  0.00     0.011 A 
ATOM     14  C   UNK d   1     -36.581 -69.461  52.081  0.00  0.00     0.020 A 
ATOM     15 Br   UNK d   1     -38.667 -70.273  53.877  0.00  0.00    -0.051 Br
ATOM     16  C   UNK d   1     -36.118 -68.877  50.926  0.00  0.00     0.026 A 
ENDBRANCH   7  10
ENDBRANCH   1   7
BRANCH   4  17
ATOM     17  C   UNK d   1     -40.465 -64.940  50.024  0.00  0.00     0.053 A 
ATOM     18  C   UNK d   1     -40.486 -65.762  51.145  0.00  0.00     0.085 A 
ATOM     19  C   UNK d   1     -41.608 -65.721  51.970  0.00  0.00     0.176 A 
ATOM     20  N   UNK d   1     -42.636 -64.924  51.709  0.00  0.00    -0.198 N 
ATOM     21  N   UNK d   1     -41.862 -66.411  53.095  0.00  0.00    -0.128 NA
ATOM     22  C   UNK d   1     -43.548 -65.111  52.676  0.00  0.00     0.148 A 
ATOM     23  N   UNK d   1     -42.629 -64.148  50.661  0.00  0.00    -0.174 NA
ATOM     24  N   UNK d   1     -43.054 -66.034  53.524  0.00  0.00    -0.133 NA
ATOM     25  C   UNK d   1     -44.875 -64.425  52.796  0.00  0.00     0.095 C 
ATOM     26  C   UNK d   1     -41.559 -64.149  49.824  0.00  0.00     0.168 A 
ENDBRANCH   4  17
TORSDOF 3
ENDMDL
