/Users/jonathanwahrer/Desktop/Msc/3_Semester/Drug_Design_Praktikum/waehrer_HTS_screening/HTS_experiment/out/docking_results/vina_output/3e7o/1105_docked.pdbqt
 OpenBabel03192216083D

 33 36  0  0  1  0  0  0  0  0999 V2000
  -36.3450  -64.8120   47.4110 N   0  0  0  0  0  0  0  0  0  0  0  0
  -35.3610  -64.9030   46.3860 C   0  0  0  0  0  2  0  0  0  0  0  0
  -35.5140  -63.8960   45.2690 C   0  0  0  0  0  2  0  0  0  0  0  0
  -35.7780  -62.5590   45.8080 N   0  0  0  0  0  0  0  0  0  0  0  0
  -36.7990  -62.5540   46.8320 C   0  0  0  0  0  0  0  0  0  0  0  0
  -37.1300  -61.5300   47.4340 O   0  0  0  0  0  0  0  0  0  0  0  0
  -37.3860  -63.9170   47.0580 C   0  0  2  0  0  3  0  0  0  0  0  0
  -35.3120  -61.7010   45.5170 H   0  0  0  0  0  0  0  0  0  0  0  0
  -38.5900  -63.8910   47.9120 C   0  0  0  0  0  2  0  0  0  0  0  0
  -39.0680  -65.2760   48.1400 C   0  0  0  0  0  0  0  0  0  0  0  0
  -38.9960  -66.0650   47.1610 O   0  0  0  0  0  0  0  0  0  0  0  0
  -39.5840  -65.6990   49.4030 N   0  0  0  0  0  0  0  0  0  0  0  0
  -39.6610  -64.7890   50.5130 C   0  0  0  0  0  2  0  0  0  0  0  0
  -40.0300  -67.0600   49.5530 C   0  0  0  0  0  2  0  0  0  0  0  0
  -40.7790  -65.0760   51.4660 C   0  0  0  0  0  2  0  0  0  0  0  0
  -41.1170  -66.4850   51.5710 N   0  0  0  0  0  0  0  0  0  0  0  0
  -41.3470  -67.1450   50.2950 C   0  0  0  0  0  2  0  0  0  0  0  0
  -41.2430  -67.2040   52.7670 C   0  0  0  0  0  0  0  0  0  0  0  0
  -40.1820  -67.9570   53.2200 C   0  0  0  0  0  3  0  0  0  0  0  0
  -40.3150  -68.6780   54.3960 C   0  0  0  0  0  3  0  0  0  0  0  0
  -41.4690  -68.6790   55.1400 C   0  0  0  0  0  3  0  0  0  0  0  0
  -42.5260  -67.9260   54.6840 C   0  0  0  0  0  3  0  0  0  0  0  0
  -42.4000  -67.2020   53.5070 C   0  0  0  0  0  3  0  0  0  0  0  0
  -35.5990  -64.5350   48.9120 S   0  0  0  0  0  0  0  0  0  0  0  0
  -36.3720  -63.6390   49.8260 O   0  0  0  0  0  0  0  0  0  0  0  0
  -34.2390  -63.8730   48.7240 O   0  0  0  0  0  0  0  0  0  0  0  0
  -35.2770  -66.0360   49.7620 C   0  0  0  0  0  0  0  0  0  0  0  0
  -36.2140  -67.0580   49.8510 C   0  0  0  0  0  3  0  0  0  0  0  0
  -35.9880  -68.2330   50.5110 C   0  0  0  0  0  3  0  0  0  0  0  0
  -34.7840  -68.4540   51.1280 C   0  0  0  0  0  0  0  0  0  0  0  0
  -33.8140  -67.4460   51.0590 C   0  0  0  0  0  3  0  0  0  0  0  0
  -34.4080  -70.0690   52.0610 Br  0  0  0  0  0  0  0  0  0  0  0  0
  -34.0770  -66.2770   50.3880 C   0  0  0  0  0  3  0  0  0  0  0  0
  1 24  1  0  0  0  0
  2  1  1  0  0  0  0
  3  4  1  0  0  0  0
  3  2  1  0  0  0  0
  4  5  1  0  0  0  0
  5  7  1  0  0  0  0
  5  6  2  0  0  0  0
  7  1  1  0  0  0  0
  7  9  1  1  0  0  0
  8  4  1  0  0  0  0
  9 10  1  0  0  0  0
 10 12  1  0  0  0  0
 11 10  2  0  0  0  0
 12 14  1  0  0  0  0
 12 13  1  0  0  0  0
 13 15  1  0  0  0  0
 14 17  1  0  0  0  0
 15 16  1  0  0  0  0
 16 18  1  0  0  0  0
 17 16  1  0  0  0  0
 18 19  2  0  0  0  0
 18 23  1  0  0  0  0
 19 20  1  0  0  0  0
 20 21  2  0  0  0  0
 22 21  1  0  0  0  0
 23 22  2  0  0  0  0
 24 27  1  0  0  0  0
 24 25  2  0  0  0  0
 26 24  2  0  0  0  0
 27 28  2  0  0  0  0
 27 33  1  0  0  0  0
 28 29  1  0  0  0  0
 29 30  2  0  0  0  0
 30 32  1  0  0  0  0
 31 30  1  0  0  0  0
 33 31  2  0  0  0  0
M  END
>  <Pose>
1

>  <Score>
-8.654

$$$$
