MODEL 1
REMARK VINA RESULT:    -8.654      0.000      0.000
REMARK INTER + INTRA:         -12.068
REMARK INTER:                 -11.183
REMARK INTRA:                  -0.884
REMARK UNBOUND:                -0.884
REMARK  5 active torsions:
REMARK  status: ('A' for Active; 'I' for Inactive)
REMARK    1  A    between atoms: S_1  and  N_4 
REMARK    2  A    between atoms: S_1  and  C_26 
REMARK    3  A    between atoms: C_10  and  C_11 
REMARK    4  A    between atoms: C_11  and  C_12 
REMARK       I    between atoms: C_12  and  N_14 
REMARK    5  A    between atoms: N_17  and  C_20 
ROOT
ATOM      1  N   UNK d   1     -36.345 -64.812  47.411  0.00  0.00    -0.191 NA
ATOM      2  C   UNK d   1     -35.361 -64.903  46.386  0.00  0.00     0.128 C 
ATOM      3  C   UNK d   1     -35.514 -63.896  45.269  0.00  0.00     0.138 C 
ATOM      4  N   UNK d   1     -35.778 -62.559  45.808  0.00  0.00    -0.358 N 
ATOM      5  C   UNK d   1     -36.799 -62.554  46.832  0.00  0.00     0.237 C 
ATOM      6  O   UNK d   1     -37.130 -61.530  47.434  0.00  0.00    -0.272 OA
ATOM      7  C   UNK d   1     -37.386 -63.917  47.058  0.00  0.00     0.175 C 
ATOM      8  H   UNK d   1     -35.312 -61.701  45.517  0.00  0.00     0.162 HD
ENDROOT
BRANCH   7   9
ATOM      9  C   UNK d   1     -38.590 -63.891  47.912  0.00  0.00     0.133 C 
BRANCH   9  10
ATOM     10  C   UNK d   1     -39.068 -65.276  48.140  0.00  0.00     0.221 C 
ATOM     11  O   UNK d   1     -38.996 -66.065  47.161  0.00  0.00    -0.273 OA
ATOM     12  N   UNK d   1     -39.584 -65.699  49.403  0.00  0.00    -0.349 N 
ATOM     13  C   UNK d   1     -39.661 -64.789  50.513  0.00  0.00     0.145 C 
ATOM     14  C   UNK d   1     -40.030 -67.060  49.553  0.00  0.00     0.145 C 
ATOM     15  C   UNK d   1     -40.779 -65.076  51.466  0.00  0.00     0.143 C 
ATOM     16  N   UNK d   1     -41.117 -66.485  51.571  0.00  0.00    -0.378 N 
ATOM     17  C   UNK d   1     -41.347 -67.145  50.295  0.00  0.00     0.143 C 
BRANCH  16  18
ATOM     18  C   UNK d   1     -41.243 -67.204  52.767  0.00  0.00     0.030 A 
ATOM     19  C   UNK d   1     -40.182 -67.957  53.220  0.00  0.00     0.029 A 
ATOM     20  C   UNK d   1     -40.315 -68.678  54.396  0.00  0.00     0.002 A 
ATOM     21  C   UNK d   1     -41.469 -68.679  55.140  0.00  0.00     0.000 A 
ATOM     22  C   UNK d   1     -42.526 -67.926  54.684  0.00  0.00     0.002 A 
ATOM     23  C   UNK d   1     -42.400 -67.202  53.507  0.00  0.00     0.029 A 
ENDBRANCH  16  18
ENDBRANCH   9  10
ENDBRANCH   7   9
BRANCH   1  24
ATOM     24  S   UNK d   1     -35.599 -64.535  48.912  0.00  0.00     0.244 S 
ATOM     25  O   UNK d   1     -36.372 -63.639  49.826  0.00  0.00    -0.206 OA
ATOM     26  O   UNK d   1     -34.239 -63.873  48.724  0.00  0.00    -0.206 OA
BRANCH  24  27
ATOM     27  C   UNK d   1     -35.277 -66.036  49.762  0.00  0.00     0.074 A 
ATOM     28  C   UNK d   1     -36.214 -67.058  49.851  0.00  0.00     0.026 A 
ATOM     29  C   UNK d   1     -35.988 -68.233  50.511  0.00  0.00     0.020 A 
ATOM     30  C   UNK d   1     -34.784 -68.454  51.128  0.00  0.00     0.011 A 
ATOM     31  C   UNK d   1     -33.814 -67.446  51.059  0.00  0.00     0.020 A 
ATOM     32 Br   UNK d   1     -34.408 -70.069  52.061  0.00  0.00    -0.051 Br
ATOM     33  C   UNK d   1     -34.077 -66.277  50.388  0.00  0.00     0.026 A 
ENDBRANCH  24  27
ENDBRANCH   1  24
TORSDOF 5
ENDMDL
