/Users/jonathanwahrer/Desktop/Msc/3_Semester/Drug_Design_Praktikum/waehrer_HTS_screening/HTS_experiment/out/docking_results/vina_output/3e7o/1113_docked.pdbqt
 OpenBabel03192216093D

 28 31  0  0  0  0  0  0  0  0999 V2000
  -37.0380  -65.7080   47.6930 C   0  0  0  0  0  0  0  0  0  0  0  0
  -36.7680  -64.5680   47.0350 N   0  0  0  0  0  0  0  0  0  0  0  0
  -37.8700  -63.7760   47.0570 C   0  0  0  0  0  3  0  0  0  0  0  0
  -38.8510  -64.4030   47.7290 N   0  0  0  0  0  0  0  0  0  0  0  0
  -38.3630  -65.5710   48.1190 C   0  0  0  0  0  3  0  0  0  0  0  0
  -40.1750  -63.8590   47.9570 C   0  0  0  0  0  2  0  0  0  0  0  0
  -40.6800  -64.2000   49.3080 C   0  0  0  0  0  0  0  0  0  0  0  0
  -40.3490  -63.5490   50.4540 N   0  0  0  0  0  0  0  0  0  0  0  0
  -40.9770  -64.1180   51.4370 O   0  0  0  0  0  0  0  0  0  0  0  0
  -41.7130  -65.1170   51.0190 C   0  0  0  0  0  0  0  0  0  0  0  0
  -41.5230  -65.1670   49.6760 N   0  0  0  0  0  0  0  0  0  0  0  0
  -42.5850  -66.0270   51.8230 C   0  0  0  0  0  2  0  0  0  0  0  0
  -41.6920  -67.0530   52.4300 C   0  0  0  0  0  0  0  0  0  0  0  0
  -40.8440  -67.7640   51.5960 C   0  0  0  0  0  3  0  0  0  0  0  0
  -39.9890  -68.7260   52.0670 C   0  0  0  0  0  3  0  0  0  0  0  0
  -39.9810  -68.9830   53.4110 C   0  0  0  0  0  0  0  0  0  0  0  0
  -40.7950  -68.3130   54.2700 C   0  0  0  0  0  3  0  0  0  0  0  0
  -38.8050  -70.3150   54.1030 Br  0  0  0  0  0  0  0  0  0  0  0  0
  -41.6540  -67.3410   53.7640 C   0  0  0  0  0  3  0  0  0  0  0  0
  -35.9780  -67.0710   47.9640 S   0  0  0  0  0  0  0  0  0  0  0  0
  -36.5730  -68.2730   47.2430 O   0  0  0  0  0  0  0  0  0  0  0  0
  -34.6490  -66.8200   47.2790 O   0  0  0  0  0  0  0  0  0  0  0  0
  -35.7640  -67.4760   49.5760 N   0  0  0  0  0  0  0  0  0  0  0  0
  -36.7740  -68.2040   50.2240 C   0  0  0  0  0  2  0  0  0  0  0  0
  -36.1950  -69.3200   51.0420 C   0  0  0  0  0  2  0  0  0  0  0  0
  -35.3000  -68.7610   51.9390 O   0  0  0  0  0  0  0  0  0  0  0  0
  -34.1840  -68.2230   51.3120 C   0  0  0  0  0  2  0  0  0  0  0  0
  -34.4920  -67.3650   50.1460 C   0  0  0  0  0  2  0  0  0  0  0  0
  1 20  1  0  0  0  0
  1  5  2  0  0  0  0
  2  3  2  0  0  0  0
  2  1  1  0  0  0  0
  3  4  1  0  0  0  0
  4  6  1  0  0  0  0
  4  5  1  0  0  0  0
  6  7  1  0  0  0  0
  7 11  1  0  0  0  0
  7  8  2  0  0  0  0
  8  9  1  0  0  0  0
 10  9  1  0  0  0  0
 10 12  1  0  0  0  0
 11 10  2  0  0  0  0
 12 13  1  0  0  0  0
 13 19  1  0  0  0  0
 14 15  1  0  0  0  0
 14 13  2  0  0  0  0
 15 16  2  0  0  0  0
 16 18  1  0  0  0  0
 16 17  1  0  0  0  0
 19 17  2  0  0  0  0
 20 23  1  0  0  0  0
 21 20  2  0  0  0  0
 22 20  2  0  0  0  0
 23 28  1  0  0  0  0
 23 24  1  0  0  0  0
 24 25  1  0  0  0  0
 25 26  1  0  0  0  0
 27 26  1  0  0  0  0
 28 27  1  0  0  0  0
M  END
>  <Pose>
1

>  <Score>
-7.794

$$$$
