/Users/jonathanwahrer/Desktop/Msc/3_Semester/Drug_Design_Praktikum/waehrer_HTS_screening/HTS_experiment/out/docking_results/vina_output/3e7o/1130_docked.pdbqt
 OpenBabel03192216103D

 29 32  0  0  0  0  0  0  0  0999 V2000
  -37.7800  -67.9800   50.2050 C   0  0  0  0  0  0  0  0  0  0  0  0
  -38.6590  -67.0090   49.9030 N   0  0  0  0  0  0  0  0  0  0  0  0
  -39.7510  -66.7600   50.6070 N   0  0  0  0  0  2  0  0  0  0  0  0
  -40.0530  -67.4920   51.7010 C   0  0  0  0  0  0  0  0  0  0  0  0
  -39.1660  -68.4960   52.0310 C   0  0  0  0  0  0  0  0  0  0  0  0
  -39.6690  -69.0760   53.1390 N   0  0  0  0  0  0  0  0  0  0  0  0
  -40.8170  -68.4900   53.5140 C   0  0  0  0  0  0  0  0  0  0  0  0
  -41.0900  -67.4780   52.6190 C   0  0  0  0  0  0  0  0  0  0  0  0
  -42.2110  -66.6690   52.7210 C   0  0  0  0  0  3  0  0  0  0  0  0
  -43.0690  -66.9200   53.7770 C   0  0  0  0  0  0  0  0  0  0  0  0
  -42.8210  -67.9280   54.6870 C   0  0  0  0  0  3  0  0  0  0  0  0
  -41.7030  -68.7170   54.5670 C   0  0  0  0  0  3  0  0  0  0  0  0
  -44.6170  -65.8040   53.9180 Br  0  0  0  0  0  0  0  0  0  0  0  0
  -39.0260  -70.1890   53.8100 C   0  0  0  0  0  1  0  0  0  0  0  0
  -38.0450  -68.7330   51.2870 N   0  0  0  0  0  2  0  0  0  0  0  0
  -36.3100  -68.2600   49.1960 S   0  0  0  0  0  0  0  0  0  0  0  0
  -34.9610  -67.2610   49.8790 C   0  0  0  0  0  2  0  0  0  0  0  0
  -35.2840  -65.8210   49.6620 C   0  0  0  0  0  0  0  0  0  0  0  0
  -34.8930  -64.9330   50.4840 O   0  0  0  0  0  0  0  0  0  0  0  0
  -36.0300  -65.3910   48.5450 N   0  0  0  0  0  0  0  0  0  0  0  0
  -36.3570  -66.1080   47.8620 H   0  0  0  0  0  0  0  0  0  0  0  0
  -36.3340  -64.0240   48.3390 C   0  0  0  0  0  0  0  0  0  0  0  0
  -35.5820  -63.0880   47.7360 N   0  0  0  0  0  0  0  0  0  0  0  0
  -36.1980  -61.9390   47.7370 O   0  0  0  0  0  0  0  0  0  0  0  0
  -37.3330  -62.1050   48.3260 N   0  0  0  0  0  0  0  0  0  0  0  0
  -37.4970  -63.3710   48.7320 C   0  0  0  0  0  0  0  0  0  0  0  0
  -38.6190  -63.8980   49.4070 N   0  0  0  0  0  0  0  0  0  0  0  0
  -39.5260  -63.3960   49.3560 H   0  0  0  0  0  0  0  0  0  0  0  0
  -38.5790  -64.7770   49.9620 H   0  0  0  0  0  0  0  0  0  0  0  0
  1 15  1  0  0  0  0
  2  1  2  0  0  0  0
  2  3  1  0  0  0  0
  3  4  1  0  0  0  0
  4  5  2  0  0  0  0
  4  8  1  0  0  0  0
  5  6  1  0  0  0  0
  6  7  1  0  0  0  0
  6 14  1  0  0  0  0
  7 12  1  0  0  0  0
  8  9  1  0  0  0  0
  8  7  2  0  0  0  0
  9 10  2  0  0  0  0
 10 13  1  0  0  0  0
 10 11  1  0  0  0  0
 12 11  2  0  0  0  0
 15  5  1  0  0  0  0
 16 17  1  0  0  0  0
 16  1  1  0  0  0  0
 18 17  1  0  0  0  0
 18 19  2  0  0  0  0
 20 18  1  0  0  0  0
 21 20  1  0  0  0  0
 22 20  1  0  0  0  0
 22 26  1  0  0  0  0
 23 24  1  0  0  0  0
 23 22  2  0  0  0  0
 24 25  1  0  0  0  0
 25 26  2  0  0  0  0
 26 27  1  0  0  0  0
 27 29  1  0  0  0  0
 28 27  1  0  0  0  0
M  END
>  <Pose>
1

>  <Score>
-7.649

$$$$
