MODEL 1
REMARK VINA RESULT:    -8.157      0.000      0.000
REMARK INTER + INTRA:         -12.239
REMARK INTER:                 -11.733
REMARK INTRA:                  -0.506
REMARK UNBOUND:                -0.506
REMARK  10 active torsions:
REMARK  status: ('A' for Active; 'I' for Inactive)
REMARK    1  A    between atoms: S_1  and  C_2 
REMARK    2  A    between atoms: S_1  and  C_10 
REMARK    3  A    between atoms: C_2  and  C_3 
REMARK    4  A    between atoms: N_11  and  C_21 
REMARK    5  A    between atoms: C_14  and  N_20 
REMARK    6  A    between atoms: C_16  and  O_19 
REMARK    7  A    between atoms: C_23  and  C_28 
REMARK    8  A    between atoms: C_24  and  O_27 
REMARK    9  A    between atoms: C_25  and  O_26 
REMARK   10  A    between atoms: C_28  and  O_29 
ROOT
ATOM      1  C   UNK d   1     -39.791 -68.305  51.770  0.00  0.00     0.173 A 
ATOM      2  N   UNK d   1     -40.604 -67.259  51.625  0.00  0.00    -0.277 N 
ATOM      3  C   UNK d   1     -41.427 -67.250  52.707  0.00  0.00     0.186 A 
ATOM      4  N   UNK d   1     -42.483 -66.544  53.140  0.00  0.00    -0.042 NA
ATOM      5  C   UNK d   1     -43.187 -66.788  54.251  0.00  0.00     0.724 A 
ATOM      6  N   UNK d   1     -42.794 -67.860  55.041  0.00  0.00    -0.036 NA
ATOM      7  C   UNK d   1     -41.775 -68.607  54.697  0.00  0.00     0.214 A 
ATOM      8  C   UNK d   1     -41.067 -68.343  53.541  0.00  0.00     0.159 A 
ATOM      9  N   UNK d   1     -40.067 -68.949  52.914  0.00  0.00    -0.216 NA
ENDROOT
BRANCH   2  10
ATOM     10  C   UNK d   1     -40.661 -66.257  50.610  0.00  0.00     0.263 C 
ATOM     11  O   UNK d   1     -39.765 -66.472  49.539  0.00  0.00    -0.353 OA
ATOM     12  C   UNK d   1     -39.949 -65.252  48.849  0.00  0.00     0.179 C 
ATOM     13  C   UNK d   1     -39.529 -64.299  49.999  0.00  0.00     0.182 C 
ATOM     14  C   UNK d   1     -40.500 -64.840  51.057  0.00  0.00     0.198 C 
BRANCH  12  15
ATOM     15  C   UNK d   1     -39.063 -65.132  47.667  0.00  0.00     0.198 C 
BRANCH  15  16
ATOM     16  O   UNK d   1     -38.769 -66.395  47.139  0.00  0.00    -0.398 OA
ATOM     17  H   UNK d   1     -39.626 -66.763  46.762  0.00  0.00     0.209 HD
ENDBRANCH  15  16
ENDBRANCH  12  15
BRANCH  13  18
ATOM     18  O   UNK d   1     -39.744 -62.982  49.695  0.00  0.00    -0.390 OA
ATOM     19  H   UNK d   1     -38.883 -62.504  49.622  0.00  0.00     0.210 HD
ENDBRANCH  13  18
BRANCH  14  20
ATOM     20  O   UNK d   1     -41.707 -64.111  50.905  0.00  0.00    -0.388 OA
ATOM     21  H   UNK d   1     -42.405 -64.803  50.895  0.00  0.00     0.210 HD
ENDBRANCH  14  20
ENDBRANCH   2  10
BRANCH   1  22
ATOM     22  S   UNK d   1     -38.562 -68.863  50.583  0.00  0.00    -0.087 SA
BRANCH  22  23
ATOM     23  C   UNK d   1     -36.965 -69.231  51.435  0.00  0.00     0.122 C 
BRANCH  23  24
ATOM     24  C   UNK d   1     -35.906 -68.340  50.908  0.00  0.00    -0.031 A 
ATOM     25  C   UNK d   1     -34.574 -68.450  51.224  0.00  0.00     0.018 A 
ATOM     26  C   UNK d   1     -33.660 -67.535  50.830  0.00  0.00     0.019 A 
ATOM     27 Br   UNK d   1     -34.067 -70.050  52.141  0.00  0.00    -0.051 Br
ATOM     28  C   UNK d   1     -34.021 -66.428  50.070  0.00  0.00     0.001 A 
ATOM     29  C   UNK d   1     -35.373 -66.283  49.732  0.00  0.00     0.001 A 
ATOM     30  C   UNK d   1     -36.298 -67.224  50.144  0.00  0.00     0.009 A 
ENDBRANCH  23  24
ENDBRANCH  22  23
ENDBRANCH   1  22
BRANCH   5  31
ATOM     31  N   UNK d   1     -44.344 -66.051  54.673  0.00  0.00    -0.231 N 
ATOM     32  H   UNK d   1     -45.011 -65.564  54.078  0.00  0.00     0.174 HD
ATOM     33  H   UNK d   1     -44.504 -65.971  55.737  0.00  0.00     0.174 HD
ENDBRANCH   5  31
BRANCH   7  34
ATOM     34  O   UNK d   1     -41.339 -69.672  55.445  0.00  0.00    -0.343 OA
ATOM     35  H   UNK d   1     -41.167 -70.595  55.065  0.00  0.00     0.219 HD
ENDBRANCH   7  34
TORSDOF 10
ENDMDL
