MODEL 1
REMARK VINA RESULT:    -6.305      0.000      0.000
REMARK INTER + INTRA:          -9.029
REMARK INTER:                  -7.410
REMARK INTRA:                  -1.619
REMARK UNBOUND:                -1.619
REMARK  3 active torsions:
REMARK  status: ('A' for Active; 'I' for Inactive)
REMARK    1  A    between atoms: C_6  and  C_17 
REMARK    2  A    between atoms: N_9  and  C_10 
REMARK    3  A    between atoms: C_23  and  O_30 
ROOT
ATOM      1  C   UNK d   1     -33.659 -64.881  47.173  0.00  0.00     0.246 C 
ATOM      2  N   UNK d   1     -32.309 -64.357  47.326  0.00  0.00    -0.065 N 
ATOM      3  C   UNK d   1     -32.294 -63.300  48.322  0.00  0.00     0.240 C 
ATOM      4  C   UNK d   1     -33.661 -62.792  48.701  0.00  0.00     0.067 C 
ATOM      5  C   UNK d   1     -34.477 -62.663  47.441  0.00  0.00    -0.043 A 
ATOM      6  C   UNK d   1     -34.449 -63.804  46.604  0.00  0.00     0.017 A 
ATOM      7  C   UNK d   1     -35.137 -63.783  45.422  0.00  0.00     0.113 A 
ATOM      8  C   UNK d   1     -35.842 -62.625  45.101  0.00  0.00     0.139 A 
ATOM      9  C   UNK d   1     -35.855 -61.530  45.932  0.00  0.00     0.108 A 
ATOM     10  C   UNK d   1     -35.163 -61.535  47.129  0.00  0.00     0.047 A 
ATOM     11  O   UNK d   1     -36.632 -60.550  45.350  0.00  0.00    -0.323 OA
ATOM     12  C   UNK d   1     -36.882 -60.909  44.013  0.00  0.00     0.352 C 
ATOM     13  O   UNK d   1     -36.610 -62.310  44.013  0.00  0.00    -0.320 OA
ATOM     14  C   UNK d   1     -31.722 -63.858  46.130  0.00  0.00     0.270 C 
ATOM     15  H   UNK d   1     -31.725 -65.138  47.692  0.00  0.00     0.280 HD
ENDROOT
BRANCH   1  16
ATOM     16  C   UNK d   1     -33.690 -66.245  46.661  0.00  0.00     0.208 C 
ATOM     17  C   UNK d   1     -32.515 -66.957  47.366  0.00  0.00     0.261 C 
ATOM     18  N   UNK d   1     -32.668 -67.060  48.772  0.00  0.00    -0.187 NA
ATOM     19  O   UNK d   1     -31.544 -67.389  46.739  0.00  0.00    -0.270 OA
ATOM     20  C   UNK d   1     -33.783 -67.178  49.396  0.00  0.00     0.190 C 
ATOM     21  S   UNK d   1     -33.880 -67.302  51.175  0.00  0.00    -0.010 SA
ATOM     22  N   UNK d   1     -34.959 -67.195  48.554  0.00  0.00    -0.259 N 
ATOM     23  C   UNK d   1     -34.828 -67.084  47.144  0.00  0.00     0.246 C 
ATOM     24  O   UNK d   1     -35.645 -67.679  46.440  0.00  0.00    -0.272 OA
BRANCH  22  25
ATOM     25  C   UNK d   1     -36.233 -67.324  49.116  0.00  0.00     0.044 A 
ATOM     26  C   UNK d   1     -37.081 -66.211  49.061  0.00  0.00     0.031 A 
ATOM     27  C   UNK d   1     -38.351 -66.263  49.593  0.00  0.00     0.021 A 
ATOM     28  C   UNK d   1     -38.791 -67.439  50.193  0.00  0.00     0.011 A 
ATOM     29  C   UNK d   1     -37.935 -68.547  50.243  0.00  0.00     0.021 A 
ATOM     30 Br   UNK d   1     -40.523 -67.551  50.934  0.00  0.00    -0.051 Br
ATOM     31  C   UNK d   1     -36.671 -68.477  49.707  0.00  0.00     0.031 A 
ENDBRANCH  22  25
ENDBRANCH   1  16
BRANCH   7  32
ATOM     32  O   UNK d   1     -35.138 -64.870  44.559  0.00  0.00    -0.352 OA
ATOM     33  C   UNK d   1     -34.327 -64.818  43.390  0.00  0.00     0.210 C 
ENDBRANCH   7  32
TORSDOF 3
ENDMDL
