/Users/jonathanwahrer/Desktop/Msc/3_Semester/Drug_Design_Praktikum/waehrer_HTS_screening/HTS_experiment/out/docking_results/vina_output/3e7o/1143_docked.pdbqt
 OpenBabel03192216103D

 33 37  0  0  1  0  0  0  0  0999 V2000
  -33.6590  -64.8810   47.1730 C   0  0  1  0  0  3  0  0  0  0  0  0
  -32.3090  -64.3570   47.3260 N   0  0  0  0  0  4  0  0  0  0  0  0
  -32.2940  -63.3000   48.3220 C   0  0  0  0  0  2  0  0  0  0  0  0
  -33.6610  -62.7920   48.7010 C   0  0  0  0  0  2  0  0  0  0  0  0
  -34.4770  -62.6630   47.4410 C   0  0  0  0  0  0  0  0  0  0  0  0
  -34.4490  -63.8040   46.6040 C   0  0  0  0  0  0  0  0  0  0  0  0
  -35.1370  -63.7830   45.4220 C   0  0  0  0  0  0  0  0  0  0  0  0
  -35.8420  -62.6250   45.1010 C   0  0  0  0  0  0  0  0  0  0  0  0
  -35.8550  -61.5300   45.9320 C   0  0  0  0  0  0  0  0  0  0  0  0
  -35.1630  -61.5350   47.1290 C   0  0  0  0  0  3  0  0  0  0  0  0
  -36.6320  -60.5500   45.3500 O   0  0  0  0  0  0  0  0  0  0  0  0
  -36.8820  -60.9090   44.0130 C   0  0  0  0  0  2  0  0  0  0  0  0
  -36.6100  -62.3100   44.0130 O   0  0  0  0  0  0  0  0  0  0  0  0
  -31.7220  -63.8580   46.1300 C   0  0  0  0  0  1  0  0  0  0  0  0
  -31.7250  -65.1380   47.6920 H   0  0  0  0  0  0  0  0  0  0  0  0
  -33.6900  -66.2450   46.6610 C   0  0  1  0  0  3  0  0  0  0  0  0
  -32.5150  -66.9570   47.3660 C   0  0  0  0  0  0  0  0  0  0  0  0
  -32.6680  -67.0600   48.7720 N   0  0  0  0  0  2  0  0  0  0  0  0
  -31.5440  -67.3890   46.7390 O   0  0  0  0  0  0  0  0  0  0  0  0
  -33.7830  -67.1780   49.3960 C   0  0  0  0  0  0  0  0  0  0  0  0
  -33.8800  -67.3020   51.1750 S   0  0  0  0  0  0  0  0  0  0  0  0
  -34.9590  -67.1950   48.5540 N   0  0  0  0  0  0  0  0  0  0  0  0
  -34.8280  -67.0840   47.1440 C   0  0  0  0  0  0  0  0  0  0  0  0
  -35.6450  -67.6790   46.4400 O   0  0  0  0  0  0  0  0  0  0  0  0
  -36.2330  -67.3240   49.1160 C   0  0  0  0  0  0  0  0  0  0  0  0
  -37.0810  -66.2110   49.0610 C   0  0  0  0  0  3  0  0  0  0  0  0
  -38.3510  -66.2630   49.5930 C   0  0  0  0  0  3  0  0  0  0  0  0
  -38.7910  -67.4390   50.1930 C   0  0  0  0  0  0  0  0  0  0  0  0
  -37.9350  -68.5470   50.2430 C   0  0  0  0  0  3  0  0  0  0  0  0
  -40.5230  -67.5510   50.9340 Br  0  0  0  0  0  0  0  0  0  0  0  0
  -36.6710  -68.4770   49.7070 C   0  0  0  0  0  3  0  0  0  0  0  0
  -35.1380  -64.8700   44.5590 O   0  0  0  0  0  0  0  0  0  0  0  0
  -34.3270  -64.8180   43.3900 C   0  0  0  0  0  1  0  0  0  0  0  0
  1  6  1  6  0  0  0
  1  2  1  0  0  0  0
  2 15  1  0  0  0  0
  2  3  1  0  0  0  0
  3  4  1  0  0  0  0
  5  4  1  0  0  0  0
  6  5  2  0  0  0  0
  7  6  1  0  0  0  0
  8  7  2  0  0  0  0
  8  9  1  0  0  0  0
  9 10  2  0  0  0  0
 10  5  1  0  0  0  0
 11  9  1  0  0  0  0
 12 11  1  0  0  0  0
 13 12  1  0  0  0  0
 13  8  1  0  0  0  0
 14  2  1  0  0  0  0
 16 23  1  1  0  0  0
 16  1  1  0  0  0  0
 16 17  1  0  0  0  0
 17 18  1  0  0  0  0
 18 20  1  0  0  0  0
 19 17  2  0  0  0  0
 20 21  2  0  0  0  0
 22 25  1  0  0  0  0
 22 20  1  0  0  0  0
 23 22  1  0  0  0  0
 24 23  2  0  0  0  0
 25 31  1  0  0  0  0
 26 25  2  0  0  0  0
 26 27  1  0  0  0  0
 27 28  2  0  0  0  0
 28 29  1  0  0  0  0
 28 30  1  0  0  0  0
 31 29  2  0  0  0  0
 32  7  1  0  0  0  0
 33 32  1  0  0  0  0
M  END
>  <Pose>
1

>  <Score>
-6.305

$$$$
