MODEL 1
REMARK VINA RESULT:    -7.463      0.000      0.000
REMARK INTER + INTRA:          -7.867
REMARK INTER:                  -7.899
REMARK INTRA:                   0.033
REMARK UNBOUND:                 0.033
REMARK  1 active torsions:
REMARK  status: ('A' for Active; 'I' for Inactive)
REMARK    1  A    between atoms: N_11  and  C_14 
ROOT
ATOM      1  S   UNK d   1     -33.563 -62.786  46.936  0.00  0.00     0.148 S 
ATOM      2  O   UNK d   1     -34.068 -61.551  46.246  0.00  0.00    -0.228 OA
ATOM      3  O   UNK d   1     -32.288 -62.523  47.687  0.00  0.00    -0.228 OA
ATOM      4  C   UNK d   1     -34.788 -63.461  48.036  0.00  0.00     0.175 C 
ATOM      5  C   UNK d   1     -34.476 -64.940  48.146  0.00  0.00     0.195 C 
ATOM      6  N   UNK d   1     -34.792 -65.577  46.884  0.00  0.00    -0.318 N 
ATOM      7  C   UNK d   1     -34.538 -64.897  45.631  0.00  0.00     0.143 C 
ATOM      8  C   UNK d   1     -33.244 -64.087  45.736  0.00  0.00     0.160 C 
ATOM      9  C   UNK d   1     -35.330 -66.846  47.232  0.00  0.00     0.328 C 
ATOM     10  O   UNK d   1     -35.509 -67.830  46.437  0.00  0.00    -0.246 OA
ATOM     11  N   UNK d   1     -35.652 -66.893  48.616  0.00  0.00    -0.259 N 
ATOM     12  C   UNK d   1     -35.308 -65.620  49.144  0.00  0.00     0.252 C 
ATOM     13  O   UNK d   1     -35.646 -65.142  50.267  0.00  0.00    -0.270 OA
ENDROOT
BRANCH  11  14
ATOM     14  C   UNK d   1     -36.220 -68.001  49.368  0.00  0.00     0.135 C 
ATOM     15  C   UNK d   1     -35.465 -68.229  50.666  0.00  0.00     0.058 C 
ATOM     16  C   UNK d   1     -36.094 -69.469  51.304  0.00  0.00     0.178 C 
ATOM     17  O   UNK d   1     -37.413 -69.099  51.663  0.00  0.00    -0.349 OA
ATOM     18  C   UNK d   1     -38.166 -68.269  50.840  0.00  0.00     0.094 A 
ATOM     19  C   UNK d   1     -37.624 -67.714  49.716  0.00  0.00     0.000 A 
ATOM     20  C   UNK d   1     -39.479 -68.034  51.218  0.00  0.00     0.044 A 
ATOM     21  C   UNK d   1     -38.363 -66.896  48.907  0.00  0.00     0.012 A 
ATOM     22  C   UNK d   1     -39.670 -66.640  49.247  0.00  0.00     0.002 A 
ATOM     23  C   UNK d   1     -40.201 -67.204  50.379  0.00  0.00     0.022 A 
ATOM     24 Br   UNK d   1     -40.227 -68.810  52.784  0.00  0.00    -0.048 Br
ENDBRANCH  11  14
TORSDOF 1
ENDMDL
