MODEL 1
REMARK VINA RESULT:    -7.301      0.000      0.000
REMARK INTER + INTRA:          -9.557
REMARK INTER:                  -8.581
REMARK INTRA:                  -0.976
REMARK UNBOUND:                -0.976
REMARK  3 active torsions:
REMARK  status: ('A' for Active; 'I' for Inactive)
REMARK    1  A    between atoms: C_2  and  C_7 
REMARK       I    between atoms: C_7  and  N_9 
REMARK    2  A    between atoms: N_9  and  C_10 
REMARK    3  A    between atoms: N_12  and  C_15 
ROOT
ATOM      1  C   UNK d   1     -39.476 -69.959  52.792  0.00  0.00     0.104 C 
ATOM      2  C   UNK d   1     -40.961 -69.781  52.979  0.00  0.00     0.149 C 
ATOM      3  N   UNK d   1     -41.007 -68.724  53.979  0.00  0.00    -0.361 N 
ATOM      4  C   UNK d   1     -40.049 -69.114  54.986  0.00  0.00     0.127 C 
ATOM      5  C   UNK d   1     -38.987 -69.882  54.222  0.00  0.00     0.046 C 
ENDROOT
BRANCH   1   6
ATOM      6  N   UNK d   1     -38.883 -68.839  52.074  0.00  0.00    -0.350 N 
ATOM      7  C   UNK d   1     -37.996 -69.031  50.992  0.00  0.00     0.259 C 
ATOM      8  O   UNK d   1     -37.659 -70.167  50.575  0.00  0.00    -0.267 OA
ATOM      9  H   UNK d   1     -39.108 -67.859  52.354  0.00  0.00     0.163 HD
BRANCH   7  10
ATOM     10  C   UNK d   1     -37.402 -67.880  50.274  0.00  0.00     0.073 A 
ATOM     11  S   UNK d   1     -38.154 -66.715  49.281  0.00  0.00    -0.095 SA
ATOM     12  C   UNK d   1     -36.790 -65.779  48.872  0.00  0.00     0.069 A 
ATOM     13  C   UNK d   1     -35.771 -66.413  49.535  0.00  0.00     0.018 A 
ATOM     14  C   UNK d   1     -36.088 -67.492  50.254  0.00  0.00     0.044 A 
ATOM     15 Br   UNK d   1     -33.969 -65.710  49.383  0.00  0.00    -0.051 Br
ENDBRANCH   7  10
ENDBRANCH   1   6
BRANCH   3  16
ATOM     16  C   UNK d   1     -41.849 -67.562  53.922  0.00  0.00     0.174 A 
ATOM     17  N   UNK d   1     -42.879 -67.407  54.774  0.00  0.00    -0.238 NA
ATOM     18  C   UNK d   1     -43.651 -66.309  54.695  0.00  0.00     0.136 A 
ATOM     19  C   UNK d   1     -43.426 -65.326  53.766  0.00  0.00     0.119 A 
ATOM     20  N   UNK d   1     -42.400 -65.464  52.909  0.00  0.00    -0.294 N 
ATOM     21  C   UNK d   1     -41.634 -66.569  52.996  0.00  0.00     0.203 A 
ATOM     22  C   UNK d   1     -41.946 -64.673  51.907  0.00  0.00     0.240 A 
ATOM     23  N   UNK d   1     -40.710 -66.426  52.027  0.00  0.00    -0.126 NA
ATOM     24  N   UNK d   1     -40.885 -65.294  51.366  0.00  0.00    -0.143 NA
ENDBRANCH   3  16
TORSDOF 3
ENDMDL
