/Users/jonathanwahrer/Desktop/Msc/3_Semester/Drug_Design_Praktikum/waehrer_HTS_screening/HTS_experiment/out/docking_results/vina_output/3e7o/1160_docked.pdbqt
 OpenBabel03192216113D

 25 28  0  0  1  0  0  0  0  0999 V2000
  -38.2770  -69.3620   52.0910 C   0  0  0  0  0  0  0  0  0  0  0  0
  -39.4050  -68.6300   52.1120 N   0  0  0  0  0  0  0  0  0  0  0  0
  -40.0590  -68.8180   53.2720 C   0  0  0  0  0  0  0  0  0  0  0  0
  -39.2990  -69.6860   53.9610 N   0  0  0  0  0  0  0  0  0  0  0  0
  -38.2460  -69.9950   53.2400 O   0  0  0  0  0  0  0  0  0  0  0  0
  -41.3200  -68.2230   53.7140 C   0  0  0  0  0  0  0  0  0  0  0  0
  -41.7620  -66.9890   53.4170 N   0  0  0  0  0  0  0  0  0  0  0  0
  -42.9520  -66.7780   53.9890 N   0  0  0  0  0  0  0  0  0  0  0  0
  -43.2920  -67.8950   54.6710 C   0  0  0  0  0  3  0  0  0  0  0  0
  -42.2730  -68.7670   54.4870 N   0  0  0  0  0  0  0  0  0  0  0  0
  -43.7490  -65.5660   53.8990 C   0  0  0  0  0  2  0  0  0  0  0  0
  -43.5280  -64.9550   52.5710 C   0  0  0  0  0  0  0  0  0  0  0  0
  -43.1410  -63.7670   52.5150 O   0  0  0  0  0  0  0  0  0  0  0  0
  -43.7530  -65.7100   51.3970 N   0  0  0  0  0  0  0  0  0  0  0  0
  -43.0810  -65.6820   50.5810 H   0  0  0  0  0  0  0  0  0  0  0  0
  -44.5810  -66.3380   51.2550 H   0  0  0  0  0  0  0  0  0  0  0  0
  -37.2570  -69.4460   50.9860 C   0  0  1  0  0  3  0  0  0  0  0  0
  -36.2160  -68.3190   51.0350 C   0  0  1  0  0  3  0  0  0  0  0  0
  -35.8390  -69.7040   51.3260 C   0  0  0  0  0  2  0  0  0  0  0  0
  -35.8800  -67.7770   49.6580 C   0  0  0  0  0  0  0  0  0  0  0  0
  -34.7180  -67.1300   49.4120 C   0  0  0  0  0  3  0  0  0  0  0  0
  -34.5190  -66.6870   48.1310 C   0  0  0  0  0  0  0  0  0  0  0  0
  -35.9300  -67.1760   47.3200 S   0  0  0  0  0  0  0  0  0  0  0  0
  -32.9810  -65.7370   47.4520 Br  0  0  0  0  0  0  0  0  0  0  0  0
  -36.7430  -67.9290   48.6100 C   0  0  0  0  0  3  0  0  0  0  0  0
  1  2  2  0  0  0  0
  1  5  1  0  0  0  0
  2  3  1  0  0  0  0
  3  6  1  0  0  0  0
  3  4  2  0  0  0  0
  5  4  1  0  0  0  0
  6 10  1  0  0  0  0
  7  6  2  0  0  0  0
  7  8  1  0  0  0  0
  8  9  1  0  0  0  0
 10  9  2  0  0  0  0
 11  8  1  0  0  0  0
 12 11  1  0  0  0  0
 13 12  2  0  0  0  0
 14 12  1  0  0  0  0
 15 14  1  0  0  0  0
 16 14  1  0  0  0  0
 17 18  1  0  0  0  0
 17 19  1  0  0  0  0
 17  1  1  1  0  0  0
 18 20  1  6  0  0  0
 18 19  1  0  0  0  0
 21 20  1  0  0  0  0
 22 21  2  0  0  0  0
 23 22  1  0  0  0  0
 23 25  1  0  0  0  0
 24 22  1  0  0  0  0
 25 20  2  0  0  0  0
M  END
>  <Pose>
1

>  <Score>
-7.355

$$$$
