MODEL 1
REMARK VINA RESULT:    -7.355      0.000      0.000
REMARK INTER + INTRA:          -9.532
REMARK INTER:                  -9.504
REMARK INTRA:                  -0.027
REMARK UNBOUND:                -0.027
REMARK  5 active torsions:
REMARK  status: ('A' for Active; 'I' for Inactive)
REMARK    1  A    between atoms: C_4  and  C_6 
REMARK    2  A    between atoms: C_7  and  C_9 
REMARK    3  A    between atoms: C_11  and  C_14 
REMARK    4  A    between atoms: N_16  and  C_19 
REMARK    5  A    between atoms: C_19  and  C_20 
REMARK       I    between atoms: C_20  and  N_22 
ROOT
ATOM      1  C   UNK d   1     -38.277 -69.362  52.091  0.00  0.00     0.178 A 
ATOM      2  N   UNK d   1     -39.405 -68.630  52.112  0.00  0.00    -0.201 NA
ATOM      3  C   UNK d   1     -40.059 -68.818  53.272  0.00  0.00     0.229 A 
ATOM      4  N   UNK d   1     -39.299 -69.686  53.961  0.00  0.00    -0.102 NA
ATOM      5  O   UNK d   1     -38.246 -69.995  53.240  0.00  0.00    -0.195 OA
ENDROOT
BRANCH   3   6
ATOM      6  C   UNK d   1     -41.320 -68.223  53.714  0.00  0.00     0.221 A 
ATOM      7  N   UNK d   1     -41.762 -66.989  53.417  0.00  0.00    -0.147 NA
ATOM      8  N   UNK d   1     -42.952 -66.778  53.989  0.00  0.00    -0.253 N 
ATOM      9  C   UNK d   1     -43.292 -67.895  54.671  0.00  0.00     0.231 A 
ATOM     10  N   UNK d   1     -42.273 -68.767  54.487  0.00  0.00    -0.218 NA
BRANCH   8  11
ATOM     11  C   UNK d   1     -43.749 -65.566  53.899  0.00  0.00     0.254 C 
BRANCH  11  12
ATOM     12  C   UNK d   1     -43.528 -64.955  52.571  0.00  0.00     0.235 C 
ATOM     13  O   UNK d   1     -43.141 -63.767  52.515  0.00  0.00    -0.272 OA
ATOM     14  N   UNK d   1     -43.753 -65.710  51.397  0.00  0.00    -0.369 N 
ATOM     15  H   UNK d   1     -43.081 -65.682  50.581  0.00  0.00     0.159 HD
ATOM     16  H   UNK d   1     -44.581 -66.338  51.255  0.00  0.00     0.159 HD
ENDBRANCH  11  12
ENDBRANCH   8  11
ENDBRANCH   3   6
BRANCH   1  17
ATOM     17  C   UNK d   1     -37.257 -69.446  50.986  0.00  0.00     0.074 A 
ATOM     18  C   UNK d   1     -36.216 -68.319  51.035  0.00  0.00     0.032 A 
ATOM     19  C   UNK d   1     -35.839 -69.704  51.326  0.00  0.00     0.023 A 
BRANCH  18  20
ATOM     20  C   UNK d   1     -35.880 -67.777  49.658  0.00  0.00    -0.045 A 
ATOM     21  C   UNK d   1     -34.718 -67.130  49.412  0.00  0.00     0.034 A 
ATOM     22  C   UNK d   1     -34.519 -66.687  48.131  0.00  0.00     0.051 A 
ATOM     23  S   UNK d   1     -35.930 -67.176  47.320  0.00  0.00    -0.094 SA
ATOM     24 Br   UNK d   1     -32.981 -65.737  47.452  0.00  0.00    -0.043 Br
ATOM     25  C   UNK d   1     -36.743 -67.929  48.610  0.00  0.00     0.058 A 
ENDBRANCH  18  20
ENDBRANCH   1  17
TORSDOF 5
ENDMDL
