MODEL 1
REMARK VINA RESULT:    -8.266      0.000      0.000
REMARK INTER + INTRA:         -12.198
REMARK INTER:                 -11.407
REMARK INTRA:                  -0.791
REMARK UNBOUND:                -0.791
REMARK  7 active torsions:
REMARK  status: ('A' for Active; 'I' for Inactive)
REMARK    1  A    between atoms: C_5  and  C_6 
REMARK    2  A    between atoms: C_6  and  C_8 
REMARK    3  A    between atoms: C_8  and  N_9 
REMARK    4  A    between atoms: N_16  and  C_19 
REMARK    5  A    between atoms: C_17  and  N_18 
REMARK    6  A    between atoms: C_19  and  C_20 
REMARK    7  A    between atoms: C_20  and  N_21 
ROOT
ATOM      1  N   UNK d   1     -38.803 -68.586  51.311  0.00  0.00    -0.172 N 
ATOM      2  C   UNK d   1     -39.267 -68.833  52.559  0.00  0.00     0.079 A 
ATOM      3  C   UNK d   1     -40.177 -67.881  52.908  0.00  0.00     0.079 A 
ATOM      4  C   UNK d   1     -40.795 -67.922  54.145  0.00  0.00     0.032 A 
ATOM      5  C   UNK d   1     -40.478 -68.938  55.017  0.00  0.00     0.002 A 
ATOM      6  C   UNK d   1     -39.567 -69.909  54.689  0.00  0.00     0.002 A 
ATOM      7  C   UNK d   1     -38.969 -69.839  53.450  0.00  0.00     0.032 A 
ATOM      8  N   UNK d   1     -40.270 -67.043  51.871  0.00  0.00    -0.178 N 
ATOM      9  C   UNK d   1     -39.425 -67.480  50.894  0.00  0.00     0.703 A 
ENDROOT
BRANCH   1  10
ATOM     10  C   UNK d   1     -37.827 -69.400  50.629  0.00  0.00     0.232 C 
BRANCH  10  11
ATOM     11  C   UNK d   1     -36.439 -69.003  50.970  0.00  0.00     0.185 C 
ATOM     12  O   UNK d   1     -35.838 -69.522  51.942  0.00  0.00    -0.290 OA
BRANCH  11  13
ATOM     13  C   UNK d   1     -35.709 -67.993  50.195  0.00  0.00     0.053 A 
ATOM     14  S   UNK d   1     -34.368 -67.024  50.639  0.00  0.00    -0.079 SA
ATOM     15  C   UNK d   1     -34.166 -66.144  49.199  0.00  0.00     0.052 A 
ATOM     16  C   UNK d   1     -35.162 -66.635  48.401  0.00  0.00     0.028 A 
ATOM     17 Br   UNK d   1     -32.858 -64.807  48.821  0.00  0.00    -0.043 Br
ATOM     18  C   UNK d   1     -35.953 -67.582  48.909  0.00  0.00     0.024 A 
ENDBRANCH  11  13
ENDBRANCH  10  11
ENDBRANCH   1  10
BRANCH   9  19
ATOM     19  N   UNK d   1     -39.322 -66.834  49.793  0.00  0.00    -0.117 NA
ATOM     20  H   UNK d   1     -38.804 -65.980  49.596  0.00  0.00     0.206 HD
ENDBRANCH   9  19
BRANCH   8  21
ATOM     21  C   UNK d   1     -41.147 -65.882  51.821  0.00  0.00     0.175 C 
BRANCH  21  22
ATOM     22  C   UNK d   1     -42.599 -66.381  51.760  0.00  0.00     0.255 C 
BRANCH  22  23
ATOM     23  N   UNK d   1     -43.540 -65.298  51.769  0.00  0.00    -0.070 N 
ATOM     24  C   UNK d   1     -44.925 -65.720  51.837  0.00  0.00     0.235 C 
ATOM     25  C   UNK d   1     -45.166 -66.679  52.969  0.00  0.00     0.028 C 
ATOM     26  C   UNK d   1     -44.585 -66.223  54.265  0.00  0.00     0.003 C 
ATOM     27  C   UNK d   1     -43.401 -65.329  54.169  0.00  0.00     0.028 C 
ATOM     28  C   UNK d   1     -43.301 -64.494  52.943  0.00  0.00     0.235 C 
ATOM     29  H   UNK d   1     -43.457 -64.735  50.895  0.00  0.00     0.279 HD
ENDBRANCH  22  23
ENDBRANCH  21  22
ENDBRANCH   8  21
TORSDOF 7
ENDMDL
