/Users/jonathanwahrer/Desktop/Msc/3_Semester/Drug_Design_Praktikum/waehrer_HTS_screening/HTS_experiment/out/docking_results/vina_output/3e7o/1161_docked.pdbqt
 OpenBabel03192216113D

 29 32  0  0  1  0  0  0  0  0999 V2000
  -38.8030  -68.5860   51.3110 N   0  0  0  0  0  0  0  0  0  0  0  0
  -39.2670  -68.8330   52.5590 C   0  0  0  0  0  0  0  0  0  0  0  0
  -40.1770  -67.8810   52.9080 C   0  0  0  0  0  0  0  0  0  0  0  0
  -40.7950  -67.9220   54.1450 C   0  0  0  0  0  3  0  0  0  0  0  0
  -40.4780  -68.9380   55.0170 C   0  0  0  0  0  3  0  0  0  0  0  0
  -39.5670  -69.9090   54.6890 C   0  0  0  0  0  3  0  0  0  0  0  0
  -38.9690  -69.8390   53.4500 C   0  0  0  0  0  3  0  0  0  0  0  0
  -40.2700  -67.0430   51.8710 N   0  0  0  0  0  0  0  0  0  0  0  0
  -39.4250  -67.4800   50.8940 C   0  0  1  0  0  3  0  0  0  0  0  0
  -37.8270  -69.4000   50.6290 C   0  0  0  0  0  2  0  0  0  0  0  0
  -36.4390  -69.0030   50.9700 C   0  0  0  0  0  0  0  0  0  0  0  0
  -35.8380  -69.5220   51.9420 O   0  0  0  0  0  0  0  0  0  0  0  0
  -35.7090  -67.9930   50.1950 C   0  0  0  0  0  0  0  0  0  0  0  0
  -34.3680  -67.0240   50.6390 S   0  0  0  0  0  0  0  0  0  0  0  0
  -34.1660  -66.1440   49.1990 C   0  0  0  0  0  0  0  0  0  0  0  0
  -35.1620  -66.6350   48.4010 C   0  0  0  0  0  3  0  0  0  0  0  0
  -32.8580  -64.8070   48.8210 Br  0  0  0  0  0  0  0  0  0  0  0  0
  -35.9530  -67.5820   48.9090 C   0  0  0  0  0  3  0  0  0  0  0  0
  -39.3220  -66.8340   49.7930 N   0  0  0  0  0  2  0  0  0  0  0  0
  -38.8040  -65.9800   49.5960 H   0  0  0  0  0  0  0  0  0  0  0  0
  -41.1470  -65.8820   51.8210 C   0  0  0  0  0  2  0  0  0  0  0  0
  -42.5990  -66.3810   51.7600 C   0  0  0  0  0  2  0  0  0  0  0  0
  -43.5400  -65.2980   51.7690 N   0  0  0  0  0  4  0  0  0  0  0  0
  -44.9250  -65.7200   51.8370 C   0  0  0  0  0  2  0  0  0  0  0  0
  -45.1660  -66.6790   52.9690 C   0  0  0  0  0  2  0  0  0  0  0  0
  -44.5850  -66.2230   54.2650 C   0  0  0  0  0  2  0  0  0  0  0  0
  -43.4010  -65.3290   54.1690 C   0  0  0  0  0  2  0  0  0  0  0  0
  -43.3010  -64.4940   52.9430 C   0  0  0  0  0  2  0  0  0  0  0  0
  -43.4570  -64.7350   50.8950 H   0  0  0  0  0  0  0  0  0  0  0  0
  1  2  1  0  0  0  0
  2  3  2  0  0  0  0
  2  7  1  0  0  0  0
  3  4  1  0  0  0  0
  4  5  2  0  0  0  0
  6  5  1  0  0  0  0
  7  6  2  0  0  0  0
  8  3  1  0  0  0  0
  9 19  1  1  0  0  0
  9  1  1  0  0  0  0
  9  8  1  0  0  0  0
 10 11  1  0  0  0  0
 10  1  1  0  0  0  0
 11 12  2  0  0  0  0
 13 14  1  0  0  0  0
 13 11  1  0  0  0  0
 15 14  1  0  0  0  0
 16 18  1  0  0  0  0
 16 15  2  0  0  0  0
 17 15  1  0  0  0  0
 18 13  2  0  0  0  0
 20 19  1  0  0  0  0
 21  8  1  0  0  0  0
 22 23  1  0  0  0  0
 22 21  1  0  0  0  0
 23 24  1  0  0  0  0
 23 28  1  0  0  0  0
 24 25  1  0  0  0  0
 25 26  1  0  0  0  0
 27 26  1  0  0  0  0
 28 27  1  0  0  0  0
 29 23  1  0  0  0  0
M  END
>  <Pose>
1

>  <Score>
-8.266

$$$$
