MODEL 1
REMARK VINA RESULT:    -7.398      0.000      0.000
REMARK INTER + INTRA:         -12.609
REMARK INTER:                 -10.426
REMARK INTRA:                  -2.183
REMARK UNBOUND:                -2.183
REMARK  7 active torsions:
REMARK  status: ('A' for Active; 'I' for Inactive)
REMARK    1  A    between atoms: C_5  and  C_6 
REMARK    2  A    between atoms: C_6  and  C_7 
REMARK    3  A    between atoms: C_8  and  C_23 
REMARK    4  A    between atoms: N_9  and  C_14 
REMARK    5  A    between atoms: C_14  and  C_15 
REMARK    6  A    between atoms: C_15  and  C_16 
REMARK    7  A    between atoms: C_16  and  N_17 
ROOT
ATOM      1  C   UNK d   1     -39.884 -65.212  49.689  0.00  0.00     0.063 C 
ATOM      2  C   UNK d   1     -38.518 -64.627  49.482  0.00  0.00     0.161 C 
ATOM      3  N   UNK d   1     -38.759 -63.483  48.660  0.00  0.00    -0.332 N 
ATOM      4  C   UNK d   1     -40.051 -62.986  49.106  0.00  0.00     0.295 C 
ATOM      5  O   UNK d   1     -40.427 -61.796  48.924  0.00  0.00    -0.264 OA
ATOM      6  C   UNK d   1     -40.775 -64.062  49.760  0.00  0.00     0.250 C 
ATOM      7  O   UNK d   1     -41.936 -64.011  50.285  0.00  0.00    -0.282 OA
ENDROOT
BRANCH   3   8
ATOM      8  C   UNK d   1     -37.958 -62.843  47.658  0.00  0.00     0.129 C 
BRANCH   8   9
ATOM      9  C   UNK d   1     -36.566 -62.475  48.057  0.00  0.00     0.048 C 
BRANCH   9  10
ATOM     10  C   UNK d   1     -35.561 -62.888  46.971  0.00  0.00     0.236 C 
BRANCH  10  11
ATOM     11  N   UNK d   1     -34.712 -63.897  47.509  0.00  0.00    -0.067 N 
ATOM     12  C   UNK d   1     -33.839 -64.549  46.586  0.00  0.00     0.261 C 
ATOM     13  C   UNK d   1     -32.654 -63.706  46.180  0.00  0.00     0.195 C 
ATOM     14  O   UNK d   1     -32.807 -62.454  46.817  0.00  0.00    -0.388 OA
ATOM     15  C   UNK d   1     -32.652 -62.729  48.190  0.00  0.00     0.195 C 
ATOM     16  C   UNK d   1     -33.927 -63.417  48.632  0.00  0.00     0.261 C 
ATOM     17  H   UNK d   1     -35.345 -64.652  47.912  0.00  0.00     0.280 HD
ENDBRANCH  10  11
ENDBRANCH   9  10
ENDBRANCH   8   9
ENDBRANCH   3   8
BRANCH   2  18
ATOM     18  C   UNK d   1     -37.569 -65.618  48.992  0.00  0.00    -0.029 A 
ATOM     19  C   UNK d   1     -36.467 -65.929  49.806  0.00  0.00     0.028 A 
ATOM     20  C   UNK d   1     -35.521 -66.861  49.466  0.00  0.00     0.011 A 
ATOM     21  C   UNK d   1     -35.633 -67.538  48.276  0.00  0.00     0.019 A 
ATOM     22 Br   UNK d   1     -34.032 -67.264  50.593  0.00  0.00    -0.051 Br
ATOM     23  C   UNK d   1     -36.708 -67.259  47.446  0.00  0.00     0.002 A 
ATOM     24  C   UNK d   1     -37.641 -66.315  47.821  0.00  0.00     0.009 A 
ENDBRANCH   2  18
BRANCH   1  25
ATOM     25  C   UNK d   1     -40.218 -66.480  49.839  0.00  0.00     0.139 C 
ATOM     26  O   UNK d   1     -40.658 -67.208  48.709  0.00  0.00    -0.190 OA
BRANCH  25  27
ATOM     27  C   UNK d   1     -40.139 -67.133  51.143  0.00  0.00     0.068 A 
ATOM     28  S   UNK d   1     -41.041 -66.735  52.543  0.00  0.00    -0.070 SA
ATOM     29  C   UNK d   1     -40.358 -67.863  53.624  0.00  0.00     0.072 A 
ATOM     30  N   UNK d   1     -39.477 -68.483  52.862  0.00  0.00    -0.250 NA
ATOM     31  C   UNK d   1     -40.677 -68.097  55.083  0.00  0.00     0.078 C 
ATOM     32  C   UNK d   1     -39.340 -68.141  51.614  0.00  0.00     0.051 A 
ATOM     33  C   UNK d   1     -38.291 -68.831  50.751  0.00  0.00     0.072 C 
ENDBRANCH  25  27
ENDBRANCH   1  25
TORSDOF 7
ENDMDL
