MODEL 1
REMARK VINA RESULT:    -7.210      0.000      0.000
REMARK INTER + INTRA:         -11.621
REMARK INTER:                 -10.161
REMARK INTRA:                  -1.460
REMARK UNBOUND:                -1.460
REMARK  7 active torsions:
REMARK  status: ('A' for Active; 'I' for Inactive)
REMARK    1  A    between atoms: C_5  and  C_6 
REMARK    2  A    between atoms: C_6  and  C_7 
REMARK    3  A    between atoms: C_8  and  C_23 
REMARK    4  A    between atoms: N_9  and  C_14 
REMARK    5  A    between atoms: C_14  and  C_15 
REMARK    6  A    between atoms: C_15  and  C_16 
REMARK    7  A    between atoms: C_16  and  N_17 
ROOT
ATOM      1  C   UNK d   1     -36.626 -67.046  49.684  0.00  0.00     0.063 C 
ATOM      2  C   UNK d   1     -38.061 -67.202  49.289  0.00  0.00     0.161 C 
ATOM      3  N   UNK d   1     -38.616 -67.923  50.403  0.00  0.00    -0.332 N 
ATOM      4  C   UNK d   1     -37.574 -68.806  50.841  0.00  0.00     0.295 C 
ATOM      5  O   UNK d   1     -37.729 -69.855  51.492  0.00  0.00    -0.264 OA
ATOM      6  C   UNK d   1     -36.294 -68.274  50.395  0.00  0.00     0.250 C 
ATOM      7  O   UNK d   1     -35.120 -68.711  50.542  0.00  0.00    -0.282 OA
ENDROOT
BRANCH   3   8
ATOM      8  C   UNK d   1     -39.947 -67.769  50.912  0.00  0.00     0.129 C 
BRANCH   8   9
ATOM      9  C   UNK d   1     -40.051 -67.547  52.363  0.00  0.00     0.048 C 
BRANCH   9  10
ATOM     10  C   UNK d   1     -41.157 -66.771  52.862  0.00  0.00     0.236 C 
BRANCH  10  11
ATOM     11  N   UNK d   1     -42.488 -67.122  53.014  0.00  0.00    -0.067 N 
ATOM     12  C   UNK d   1     -43.383 -66.142  52.292  0.00  0.00     0.261 C 
ATOM     13  C   UNK d   1     -43.543 -64.918  53.131  0.00  0.00     0.195 C 
ATOM     14  O   UNK d   1     -44.288 -65.277  54.249  0.00  0.00    -0.388 OA
ATOM     15  C   UNK d   1     -43.427 -66.083  55.027  0.00  0.00     0.195 C 
ATOM     16  C   UNK d   1     -43.069 -67.345  54.292  0.00  0.00     0.261 C 
ATOM     17  H   UNK d   1     -42.692 -67.990  52.462  0.00  0.00     0.280 HD
ENDBRANCH  10  11
ENDBRANCH   9  10
ENDBRANCH   8   9
ENDBRANCH   3   8
BRANCH   2  18
ATOM     18  C   UNK d   1     -38.674 -65.896  49.003  0.00  0.00    -0.030 A 
ATOM     19  C   UNK d   1     -38.930 -64.900  49.905  0.00  0.00     0.011 A 
ATOM     20  C   UNK d   1     -39.510 -63.691  49.596  0.00  0.00     0.019 A 
ATOM     21  C   UNK d   1     -39.865 -63.449  48.293  0.00  0.00     0.011 A 
ATOM     22  C   UNK d   1     -39.635 -64.408  47.342  0.00  0.00     0.019 A 
ATOM     23 Br   UNK d   1     -40.672 -61.763  47.866  0.00  0.00    -0.051 Br
ATOM     24  C   UNK d   1     -39.052 -65.606  47.685  0.00  0.00     0.011 A 
ENDBRANCH   2  18
BRANCH   1  25
ATOM     25  C   UNK d   1     -35.872 -66.029  49.387  0.00  0.00     0.139 C 
ATOM     26  O   UNK d   1     -35.540 -65.102  50.389  0.00  0.00    -0.190 OA
BRANCH  25  27
ATOM     27  C   UNK d   1     -35.364 -65.843  48.010  0.00  0.00     0.068 A 
ATOM     28  S   UNK d   1     -34.615 -66.976  46.967  0.00  0.00    -0.070 SA
ATOM     29  C   UNK d   1     -34.418 -65.980  45.599  0.00  0.00     0.072 A 
ATOM     30  N   UNK d   1     -34.933 -64.837  46.003  0.00  0.00    -0.250 NA
ATOM     31  C   UNK d   1     -33.817 -66.287  44.254  0.00  0.00     0.078 C 
ATOM     32  C   UNK d   1     -35.416 -64.731  47.204  0.00  0.00     0.051 A 
ATOM     33  C   UNK d   1     -36.059 -63.436  47.691  0.00  0.00     0.072 C 
ENDBRANCH  25  27
ENDBRANCH   1  25
TORSDOF 7
ENDMDL
