/Users/jonathanwahrer/Desktop/Msc/3_Semester/Drug_Design_Praktikum/waehrer_HTS_screening/HTS_experiment/out/docking_results/vina_output/3e7o/1178_docked.pdbqt
 OpenBabel03192216123D

 33 36  0  0  1  0  0  0  0  0999 V2000
  -36.6260  -67.0460   49.6840 C   0  0  1  0  0  3  0  0  0  0  0  0
  -38.0610  -67.2020   49.2890 C   0  0  1  0  0  3  0  0  0  0  0  0
  -38.6160  -67.9230   50.4030 N   0  0  0  0  0  0  0  0  0  0  0  0
  -37.5740  -68.8060   50.8410 C   0  0  0  0  0  0  0  0  0  0  0  0
  -37.7290  -69.8550   51.4920 O   0  0  0  0  0  0  0  0  0  0  0  0
  -36.2940  -68.2740   50.3950 C   0  0  0  0  0  0  0  0  0  0  0  0
  -35.1200  -68.7110   50.5420 O   0  0  0  0  0  0  0  0  0  0  0  0
  -39.9470  -67.7690   50.9120 C   0  0  0  0  0  2  0  0  0  0  0  0
  -40.0510  -67.5470   52.3630 C   0  0  0  0  0  2  0  0  0  0  0  0
  -41.1570  -66.7710   52.8620 C   0  0  0  0  0  2  0  0  0  0  0  0
  -42.4880  -67.1220   53.0140 N   0  0  0  0  0  4  0  0  0  0  0  0
  -43.3830  -66.1420   52.2920 C   0  0  0  0  0  2  0  0  0  0  0  0
  -43.5430  -64.9180   53.1310 C   0  0  0  0  0  2  0  0  0  0  0  0
  -44.2880  -65.2770   54.2490 O   0  0  0  0  0  0  0  0  0  0  0  0
  -43.4270  -66.0830   55.0270 C   0  0  0  0  0  2  0  0  0  0  0  0
  -43.0690  -67.3450   54.2920 C   0  0  0  0  0  2  0  0  0  0  0  0
  -42.6920  -67.9900   52.4620 H   0  0  0  0  0  0  0  0  0  0  0  0
  -38.6740  -65.8960   49.0030 C   0  0  0  0  0  0  0  0  0  0  0  0
  -38.9300  -64.9000   49.9050 C   0  0  0  0  0  3  0  0  0  0  0  0
  -39.5100  -63.6910   49.5960 C   0  0  0  0  0  3  0  0  0  0  0  0
  -39.8650  -63.4490   48.2930 C   0  0  0  0  0  0  0  0  0  0  0  0
  -39.6350  -64.4080   47.3420 C   0  0  0  0  0  3  0  0  0  0  0  0
  -40.6720  -61.7630   47.8660 Br  0  0  0  0  0  0  0  0  0  0  0  0
  -39.0520  -65.6060   47.6850 C   0  0  0  0  0  3  0  0  0  0  0  0
  -35.8720  -66.0290   49.3870 C   0  0  1  0  0  3  0  0  0  0  0  0
  -35.5400  -65.1020   50.3890 O   0  0  0  0  0  1  0  0  0  0  0  0
  -35.3640  -65.8430   48.0100 C   0  0  0  0  0  0  0  0  0  0  0  0
  -34.6150  -66.9760   46.9670 S   0  0  0  0  0  0  0  0  0  0  0  0
  -34.4180  -65.9800   45.5990 C   0  0  0  0  0  0  0  0  0  0  0  0
  -34.9330  -64.8370   46.0030 N   0  0  0  0  0  0  0  0  0  0  0  0
  -33.8170  -66.2870   44.2540 C   0  0  0  0  0  1  0  0  0  0  0  0
  -35.4160  -64.7310   47.2040 C   0  0  0  0  0  0  0  0  0  0  0  0
  -36.0590  -63.4360   47.6910 C   0  0  0  0  0  1  0  0  0  0  0  0
  1 25  1  6  0  0  0
  1  6  1  0  0  0  0
  2 18  1  1  0  0  0
  2  1  1  0  0  0  0
  2  3  1  0  0  0  0
  3  4  1  0  0  0  0
  3  8  1  0  0  0  0
  4  5  2  0  0  0  0
  6  7  2  0  0  0  0
  6  4  1  0  0  0  0
  8  9  1  0  0  0  0
  9 10  1  0  0  0  0
 10 11  1  0  0  0  0
 11 16  1  0  0  0  0
 12 11  1  0  0  0  0
 12 13  1  0  0  0  0
 13 14  1  0  0  0  0
 14 15  1  0  0  0  0
 16 15  1  0  0  0  0
 17 11  1  0  0  0  0
 18 19  1  0  0  0  0
 20 19  2  0  0  0  0
 21 20  1  0  0  0  0
 22 24  1  0  0  0  0
 22 21  2  0  0  0  0
 23 21  1  0  0  0  0
 24 18  2  0  0  0  0
 25 26  1  1  0  0  0
 27 25  1  0  0  0  0
 28 27  1  0  0  0  0
 29 30  2  0  0  0  0
 29 28  1  0  0  0  0
 30 32  1  0  0  0  0
 31 29  1  0  0  0  0
 32 33  1  0  0  0  0
 32 27  2  0  0  0  0
M  END
>  <Pose>
1

>  <Score>
-7.210

$$$$
