/Users/jonathanwahrer/Desktop/Msc/3_Semester/Drug_Design_Praktikum/waehrer_HTS_screening/HTS_experiment/out/docking_results/vina_output/3e7o/1180_docked.pdbqt
 OpenBabel03192216123D

 32 35  0  0  1  0  0  0  0  0999 V2000
  -38.0050  -66.6590   49.3170 C   0  0  1  0  0  3  0  0  0  0  0  0
  -36.7150  -65.9250   49.1430 C   0  0  1  0  0  3  0  0  0  0  0  0
  -35.8370  -66.9920   48.8510 N   0  0  0  0  0  0  0  0  0  0  0  0
  -36.1830  -67.9710   49.9070 C   0  0  0  0  0  0  0  0  0  0  0  0
  -35.4160  -68.8200   50.4350 O   0  0  0  0  0  0  0  0  0  0  0  0
  -37.5940  -67.7480   50.2030 C   0  0  0  0  0  0  0  0  0  0  0  0
  -38.3600  -68.3290   51.0320 O   0  0  0  0  0  0  0  0  0  0  0  0
  -39.1980  -66.3720   48.8400 C   0  0  1  0  0  3  0  0  0  0  0  0
  -39.5350  -66.7420   47.5500 O   0  0  0  0  0  1  0  0  0  0  0  0
  -40.1200  -65.6570   49.7360 C   0  0  0  0  0  0  0  0  0  0  0  0
  -40.8480  -66.2050   51.1980 S   0  0  0  0  0  0  0  0  0  0  0  0
  -41.6940  -64.7900   51.6170 C   0  0  0  0  0  0  0  0  0  0  0  0
  -41.3820  -63.9730   50.6300 N   0  0  0  0  0  0  0  0  0  0  0  0
  -42.5760  -64.5300   52.8080 C   0  0  0  0  0  1  0  0  0  0  0  0
  -40.6000  -64.3710   49.6760 C   0  0  0  0  0  0  0  0  0  0  0  0
  -40.1930  -63.4290   48.5520 C   0  0  0  0  0  1  0  0  0  0  0  0
  -36.7530  -64.6740   48.4670 C   0  0  0  0  0  0  0  0  0  0  0  0
  -36.9670  -64.6550   47.0860 C   0  0  0  0  0  3  0  0  0  0  0  0
  -37.0010  -63.4960   46.3570 C   0  0  0  0  0  3  0  0  0  0  0  0
  -36.8170  -62.3040   47.0260 C   0  0  0  0  0  0  0  0  0  0  0  0
  -36.6040  -62.3010   48.3890 C   0  0  0  0  0  3  0  0  0  0  0  0
  -36.8500  -60.6400   46.0840 Br  0  0  0  0  0  0  0  0  0  0  0  0
  -36.5730  -63.4790   49.1000 C   0  0  0  0  0  3  0  0  0  0  0  0
  -34.7690  -67.3390   47.9780 C   0  0  0  0  0  2  0  0  0  0  0  0
  -33.4540  -66.7030   48.1270 C   0  0  0  0  0  2  0  0  0  0  0  0
  -33.2960  -65.3070   48.1870 N   0  0  0  0  0  4  0  0  0  0  0  0
  -31.9770  -64.8630   48.5850 C   0  0  0  0  0  2  0  0  0  0  0  0
  -32.0610  -63.3460   48.7220 C   0  0  0  0  0  2  0  0  0  0  0  0
  -33.1990  -62.8510   48.0860 O   0  0  0  0  0  0  0  0  0  0  0  0
  -33.1530  -63.3660   46.7750 C   0  0  0  0  0  2  0  0  0  0  0  0
  -33.3810  -64.8510   46.7610 C   0  0  0  0  0  2  0  0  0  0  0  0
  -34.0760  -64.8500   48.6710 H   0  0  0  0  0  0  0  0  0  0  0  0
  1  8  1  1  0  0  0
  1  6  1  0  0  0  0
  2 17  1  6  0  0  0
  2  1  1  0  0  0  0
  3  2  1  0  0  0  0
  3  4  1  0  0  0  0
  4  6  1  0  0  0  0
  4  5  2  0  0  0  0
  6  7  2  0  0  0  0
  8  9  1  1  0  0  0
  8 10  1  0  0  0  0
 10 11  1  0  0  0  0
 11 12  1  0  0  0  0
 12 14  1  0  0  0  0
 13 12  2  0  0  0  0
 15 10  2  0  0  0  0
 15 13  1  0  0  0  0
 16 15  1  0  0  0  0
 17 23  1  0  0  0  0
 18 17  2  0  0  0  0
 19 20  2  0  0  0  0
 19 18  1  0  0  0  0
 20 21  1  0  0  0  0
 21 23  2  0  0  0  0
 22 20  1  0  0  0  0
 24 25  1  0  0  0  0
 24  3  1  0  0  0  0
 25 26  1  0  0  0  0
 26 27  1  0  0  0  0
 26 32  1  0  0  0  0
 27 28  1  0  0  0  0
 29 28  1  0  0  0  0
 30 29  1  0  0  0  0
 31 30  1  0  0  0  0
 31 26  1  0  0  0  0
M  END
>  <Pose>
1

>  <Score>
-6.835

$$$$
