MODEL 1
REMARK VINA RESULT:    -6.835      0.000      0.000
REMARK INTER + INTRA:         -11.220
REMARK INTER:                  -9.232
REMARK INTRA:                  -1.988
REMARK UNBOUND:                -1.988
REMARK  6 active torsions:
REMARK  status: ('A' for Active; 'I' for Inactive)
REMARK    1  A    between atoms: C_5  and  C_6 
REMARK    2  A    between atoms: C_6  and  C_7 
REMARK    3  A    between atoms: C_8  and  C_22 
REMARK    4  A    between atoms: N_9  and  C_14 
REMARK    5  A    between atoms: C_14  and  C_15 
REMARK    6  A    between atoms: C_15  and  N_16 
ROOT
ATOM      1  C   UNK d   1     -38.005 -66.659  49.317  0.00  0.00     0.063 C 
ATOM      2  C   UNK d   1     -36.715 -65.925  49.143  0.00  0.00     0.161 C 
ATOM      3  N   UNK d   1     -35.837 -66.992  48.851  0.00  0.00    -0.331 N 
ATOM      4  C   UNK d   1     -36.183 -67.971  49.907  0.00  0.00     0.295 C 
ATOM      5  O   UNK d   1     -35.416 -68.820  50.435  0.00  0.00    -0.264 OA
ATOM      6  C   UNK d   1     -37.594 -67.748  50.203  0.00  0.00     0.250 C 
ATOM      7  O   UNK d   1     -38.360 -68.329  51.032  0.00  0.00    -0.282 OA
ENDROOT
BRANCH   1   8
ATOM      8  C   UNK d   1     -39.198 -66.372  48.840  0.00  0.00     0.139 C 
ATOM      9  O   UNK d   1     -39.535 -66.742  47.550  0.00  0.00    -0.190 OA
BRANCH   8  10
ATOM     10  C   UNK d   1     -40.120 -65.657  49.736  0.00  0.00     0.068 A 
ATOM     11  S   UNK d   1     -40.848 -66.205  51.198  0.00  0.00    -0.070 SA
ATOM     12  C   UNK d   1     -41.694 -64.790  51.617  0.00  0.00     0.072 A 
ATOM     13  N   UNK d   1     -41.382 -63.973  50.630  0.00  0.00    -0.250 NA
ATOM     14  C   UNK d   1     -42.576 -64.530  52.808  0.00  0.00     0.078 C 
ATOM     15  C   UNK d   1     -40.600 -64.371  49.676  0.00  0.00     0.051 A 
ATOM     16  C   UNK d   1     -40.193 -63.429  48.552  0.00  0.00     0.072 C 
ENDBRANCH   8  10
ENDBRANCH   1   8
BRANCH   2  17
ATOM     17  C   UNK d   1     -36.753 -64.674  48.467  0.00  0.00    -0.030 A 
ATOM     18  C   UNK d   1     -36.967 -64.655  47.086  0.00  0.00     0.011 A 
ATOM     19  C   UNK d   1     -37.001 -63.496  46.357  0.00  0.00     0.019 A 
ATOM     20  C   UNK d   1     -36.817 -62.304  47.026  0.00  0.00     0.011 A 
ATOM     21  C   UNK d   1     -36.604 -62.301  48.389  0.00  0.00     0.019 A 
ATOM     22 Br   UNK d   1     -36.850 -60.640  46.084  0.00  0.00    -0.051 Br
ATOM     23  C   UNK d   1     -36.573 -63.479  49.100  0.00  0.00     0.011 A 
ENDBRANCH   2  17
BRANCH   3  24
ATOM     24  C   UNK d   1     -34.769 -67.339  47.978  0.00  0.00     0.155 C 
BRANCH  24  25
ATOM     25  C   UNK d   1     -33.454 -66.703  48.127  0.00  0.00     0.255 C 
BRANCH  25  26
ATOM     26  N   UNK d   1     -33.296 -65.307  48.187  0.00  0.00    -0.066 N 
ATOM     27  C   UNK d   1     -31.977 -64.863  48.585  0.00  0.00     0.261 C 
ATOM     28  C   UNK d   1     -32.061 -63.346  48.722  0.00  0.00     0.195 C 
ATOM     29  O   UNK d   1     -33.199 -62.851  48.086  0.00  0.00    -0.388 OA
ATOM     30  C   UNK d   1     -33.153 -63.366  46.775  0.00  0.00     0.195 C 
ATOM     31  C   UNK d   1     -33.381 -64.851  46.761  0.00  0.00     0.261 C 
ATOM     32  H   UNK d   1     -34.076 -64.850  48.671  0.00  0.00     0.280 HD
ENDBRANCH  25  26
ENDBRANCH  24  25
ENDBRANCH   3  24
TORSDOF 6
ENDMDL
