MODEL 1
REMARK VINA RESULT:    -7.628      0.000      0.000
REMARK INTER + INTRA:          -8.331
REMARK INTER:                  -8.074
REMARK INTRA:                  -0.257
REMARK UNBOUND:                -0.257
REMARK  1 active torsions:
REMARK  status: ('A' for Active; 'I' for Inactive)
REMARK    1  A    between atoms: C_14  and  C_16 
ROOT
ATOM      1  S   UNK d   1     -36.658 -67.349  47.435  0.00  0.00    -0.074 SA
ATOM      2  C   UNK d   1     -36.672 -68.282  48.878  0.00  0.00     0.088 A 
ATOM      3  C   UNK d   1     -35.643 -67.734  49.595  0.00  0.00     0.073 A 
ATOM      4  C   UNK d   1     -34.969 -66.718  49.033  0.00  0.00    -0.023 A 
ATOM      5  C   UNK d   1     -35.364 -66.309  47.788  0.00  0.00     0.018 A 
ATOM      6  C   UNK d   1     -34.597 -65.172  47.179  0.00  0.00     0.281 C 
ATOM      7  N   UNK d   1     -34.618 -64.059  48.126  0.00  0.00    -0.070 N 
ATOM      8  C   UNK d   1     -34.154 -64.417  49.430  0.00  0.00     0.239 C 
ATOM      9  C   UNK d   1     -33.795 -65.895  49.543  0.00  0.00     0.068 C 
ATOM     10  C   UNK d   1     -36.023 -63.672  48.249  0.00  0.00     0.270 C 
ATOM     11  C   UNK d   1     -35.418 -68.366  50.924  0.00  0.00     0.256 C 
ATOM     12  O   UNK d   1     -34.496 -67.954  51.688  0.00  0.00    -0.267 OA
ATOM     13  N   UNK d   1     -36.256 -69.441  51.319  0.00  0.00    -0.332 N 
ATOM     14  C   UNK d   1     -37.560 -69.697  50.781  0.00  0.00     0.219 C 
ATOM     15  N   UNK d   1     -37.480 -69.381  49.364  0.00  0.00    -0.358 N 
ATOM     16  H   UNK d   1     -34.134 -63.234  47.718  0.00  0.00     0.279 HD
ATOM     17  H   UNK d   1     -35.875 -70.089  52.066  0.00  0.00     0.165 HD
ATOM     18  H   UNK d   1     -37.997 -69.925  48.643  0.00  0.00     0.162 HD
ENDROOT
BRANCH  14  19
ATOM     19  C   UNK d   1     -38.615 -68.869  51.414  0.00  0.00    -0.013 A 
ATOM     20  C   UNK d   1     -39.215 -67.819  50.749  0.00  0.00     0.033 A 
ATOM     21  C   UNK d   1     -40.196 -67.041  51.319  0.00  0.00     0.049 A 
ATOM     22  C   UNK d   1     -40.614 -67.300  52.609  0.00  0.00     0.141 A 
ATOM     23 Br   UNK d   1     -41.013 -65.602  50.394  0.00  0.00    -0.048 Br
ATOM     24  C   UNK d   1     -40.030 -68.341  53.291  0.00  0.00     0.049 A 
ATOM     25  O   UNK d   1     -41.602 -66.519  53.190  0.00  0.00    -0.189 OA
ATOM     26  C   UNK d   1     -39.046 -69.118  52.711  0.00  0.00     0.033 A 
ATOM     27 Br   UNK d   1     -40.642 -68.666  55.083  0.00  0.00    -0.048 Br
ENDBRANCH  14  19
TORSDOF 1
ENDMDL
