MODEL 1
REMARK VINA RESULT:    -7.763      0.000      0.000
REMARK INTER + INTRA:          -9.328
REMARK INTER:                  -9.125
REMARK INTRA:                  -0.203
REMARK UNBOUND:                -0.203
REMARK  3 active torsions:
REMARK  status: ('A' for Active; 'I' for Inactive)
REMARK    1  A    between atoms: C_14  and  C_16 
REMARK    2  A    between atoms: C_20  and  O_22 
REMARK    3  A    between atoms: O_22  and  C_23 
ROOT
ATOM      1  S   UNK d   1     -38.606 -66.754  47.568  0.00  0.00    -0.074 SA
ATOM      2  C   UNK d   1     -39.785 -66.410  48.754  0.00  0.00     0.088 A 
ATOM      3  C   UNK d   1     -39.230 -65.369  49.445  0.00  0.00     0.073 A 
ATOM      4  C   UNK d   1     -38.011 -64.937  49.036  0.00  0.00    -0.023 A 
ATOM      5  C   UNK d   1     -37.446 -65.586  47.967  0.00  0.00     0.018 A 
ATOM      6  C   UNK d   1     -36.108 -65.207  47.424  0.00  0.00     0.281 C 
ATOM      7  N   UNK d   1     -35.798 -63.825  47.551  0.00  0.00    -0.070 N 
ATOM      8  C   UNK d   1     -36.621 -63.067  48.431  0.00  0.00     0.239 C 
ATOM      9  C   UNK d   1     -37.161 -63.801  49.617  0.00  0.00     0.068 C 
ATOM     10  C   UNK d   1     -34.381 -63.629  47.835  0.00  0.00     0.270 C 
ATOM     11  C   UNK d   1     -40.090 -64.865  50.560  0.00  0.00     0.256 C 
ATOM     12  O   UNK d   1     -39.682 -63.896  51.280  0.00  0.00    -0.267 OA
ATOM     13  N   UNK d   1     -41.346 -65.466  50.806  0.00  0.00    -0.332 N 
ATOM     14  C   UNK d   1     -41.586 -66.849  50.455  0.00  0.00     0.219 C 
ATOM     15  N   UNK d   1     -41.083 -66.971  49.087  0.00  0.00    -0.358 N 
ATOM     16  H   UNK d   1     -35.928 -63.398  46.581  0.00  0.00     0.279 HD
ATOM     17  H   UNK d   1     -42.113 -64.910  51.246  0.00  0.00     0.165 HD
ATOM     18  H   UNK d   1     -41.588 -67.438  48.316  0.00  0.00     0.162 HD
ENDROOT
BRANCH  14  19
ATOM     19  C   UNK d   1     -40.769 -67.686  51.372  0.00  0.00    -0.012 A 
ATOM     20  C   UNK d   1     -41.085 -67.779  52.710  0.00  0.00     0.033 A 
ATOM     21  C   UNK d   1     -40.341 -68.550  53.577  0.00  0.00     0.051 A 
ATOM     22  C   UNK d   1     -39.243 -69.251  53.095  0.00  0.00     0.157 A 
ATOM     23 Br   UNK d   1     -40.766 -68.688  55.429  0.00  0.00    -0.048 Br
ATOM     24  C   UNK d   1     -38.903 -69.176  51.762  0.00  0.00     0.107 A 
ATOM     25  O   UNK d   1     -38.475 -70.036  53.952  0.00  0.00    -0.188 OA
ATOM     26  C   UNK d   1     -39.658 -68.408  50.932  0.00  0.00     0.050 A 
BRANCH  24  27
ATOM     27  O   UNK d   1     -37.802 -69.894  51.332  0.00  0.00    -0.348 OA
BRANCH  27  28
ATOM     28  C   UNK d   1     -36.487 -69.437  51.307  0.00  0.00     0.171 C 
ATOM     29  C   UNK d   1     -36.270 -68.432  50.197  0.00  0.00     0.034 C 
ENDBRANCH  27  28
ENDBRANCH  24  27
ENDBRANCH  14  19
TORSDOF 3
ENDMDL
