/Users/jonathanwahrer/Desktop/Msc/3_Semester/Drug_Design_Praktikum/waehrer_HTS_screening/HTS_experiment/out/docking_results/vina_output/3e7o/1193_docked.pdbqt
 OpenBabel03192216123D

 29 32  0  0  1  0  0  0  0  0999 V2000
  -38.6060  -66.7540   47.5680 S   0  0  0  0  0  0  0  0  0  0  0  0
  -39.7850  -66.4100   48.7540 C   0  0  0  0  0  0  0  0  0  0  0  0
  -39.2300  -65.3690   49.4450 C   0  0  0  0  0  0  0  0  0  0  0  0
  -38.0110  -64.9370   49.0360 C   0  0  0  0  0  0  0  0  0  0  0  0
  -37.4460  -65.5860   47.9670 C   0  0  0  0  0  0  0  0  0  0  0  0
  -36.1080  -65.2070   47.4240 C   0  0  0  0  0  2  0  0  0  0  0  0
  -35.7980  -63.8250   47.5510 N   0  0  0  0  0  4  0  0  0  0  0  0
  -36.6210  -63.0670   48.4310 C   0  0  0  0  0  2  0  0  0  0  0  0
  -37.1610  -63.8010   49.6170 C   0  0  0  0  0  2  0  0  0  0  0  0
  -34.3810  -63.6290   47.8350 C   0  0  0  0  0  1  0  0  0  0  0  0
  -40.0900  -64.8650   50.5600 C   0  0  0  0  0  0  0  0  0  0  0  0
  -39.6820  -63.8960   51.2800 O   0  0  0  0  0  0  0  0  0  0  0  0
  -41.3460  -65.4660   50.8060 N   0  0  0  0  0  0  0  0  0  0  0  0
  -41.5860  -66.8490   50.4550 C   0  0  1  0  0  3  0  0  0  0  0  0
  -41.0830  -66.9710   49.0870 N   0  0  0  0  0  0  0  0  0  0  0  0
  -35.9280  -63.3980   46.5810 H   0  0  0  0  0  0  0  0  0  0  0  0
  -42.1130  -64.9100   51.2460 H   0  0  0  0  0  0  0  0  0  0  0  0
  -41.5880  -67.4380   48.3160 H   0  0  0  0  0  0  0  0  0  0  0  0
  -40.7690  -67.6860   51.3720 C   0  0  0  0  0  0  0  0  0  0  0  0
  -41.0850  -67.7790   52.7100 C   0  0  0  0  0  3  0  0  0  0  0  0
  -40.3410  -68.5500   53.5770 C   0  0  0  0  0  0  0  0  0  0  0  0
  -39.2430  -69.2510   53.0950 C   0  0  0  0  0  0  0  0  0  0  0  0
  -40.7660  -68.6880   55.4290 Br  0  0  0  0  0  0  0  0  0  0  0  0
  -38.9030  -69.1760   51.7620 C   0  0  0  0  0  0  0  0  0  0  0  0
  -38.4750  -70.0360   53.9520 O   0  0  0  0  0  1  0  0  0  0  0  0
  -39.6580  -68.4080   50.9320 C   0  0  0  0  0  3  0  0  0  0  0  0
  -37.8020  -69.8940   51.3320 O   0  0  0  0  0  0  0  0  0  0  0  0
  -36.4870  -69.4370   51.3070 C   0  0  0  0  0  2  0  0  0  0  0  0
  -36.2700  -68.4320   50.1970 C   0  0  0  0  0  1  0  0  0  0  0  0
  1  5  1  0  0  0  0
  1  2  1  0  0  0  0
  2 15  1  0  0  0  0
  2  3  2  0  0  0  0
  3 11  1  0  0  0  0
  4  3  1  0  0  0  0
  4  9  1  0  0  0  0
  5  4  2  0  0  0  0
  6  7  1  0  0  0  0
  6  5  1  0  0  0  0
  7 10  1  0  0  0  0
  7  8  1  0  0  0  0
  8  9  1  0  0  0  0
 11 13  1  0  0  0  0
 11 12  2  0  0  0  0
 13 17  1  0  0  0  0
 14 13  1  0  0  0  0
 14 19  1  1  0  0  0
 15 14  1  0  0  0  0
 16  7  1  0  0  0  0
 18 15  1  0  0  0  0
 19 20  1  0  0  0  0
 20 21  2  0  0  0  0
 21 23  1  0  0  0  0
 22 21  1  0  0  0  0
 22 25  1  0  0  0  0
 24 22  2  0  0  0  0
 26 19  2  0  0  0  0
 26 24  1  0  0  0  0
 27 24  1  0  0  0  0
 28 27  1  0  0  0  0
 29 28  1  0  0  0  0
M  END
>  <Pose>
1

>  <Score>
-7.763

$$$$
