MODEL 1
REMARK VINA RESULT:    -7.770      0.000      0.000
REMARK INTER + INTRA:          -9.595
REMARK INTER:                  -9.132
REMARK INTRA:                  -0.462
REMARK UNBOUND:                -0.462
REMARK  3 active torsions:
REMARK  status: ('A' for Active; 'I' for Inactive)
REMARK    1  A    between atoms: N_6  and  C_18 
REMARK    2  A    between atoms: C_8  and  C_9 
REMARK    3  A    between atoms: C_12  and  N_15 
ROOT
ATOM      1  S   UNK d   1     -42.724 -66.869  54.812  0.00  0.00    -0.087 SA
ATOM      2  C   UNK d   1     -41.444 -68.129  55.048  0.00  0.00     0.069 C 
ATOM      3  C   UNK d   1     -40.449 -67.661  54.021  0.00  0.00     0.146 C 
ATOM      4  N   UNK d   1     -41.086 -67.074  52.881  0.00  0.00    -0.324 N 
ATOM      5  C   UNK d   1     -42.329 -66.608  53.086  0.00  0.00     0.154 A 
ATOM      6  N   UNK d   1     -42.811 -66.114  51.940  0.00  0.00    -0.300 N 
ATOM      7  C   UNK d   1     -41.870 -66.260  50.980  0.00  0.00     0.130 A 
ATOM      8  C   UNK d   1     -40.777 -66.861  51.556  0.00  0.00     0.062 A 
ATOM      9  C   UNK d   1     -41.932 -69.495  54.630  0.00  0.00     0.023 C 
ENDROOT
BRANCH   8  10
ATOM     10  C   UNK d   1     -39.563 -67.196  50.849  0.00  0.00    -0.008 A 
ATOM     11  C   UNK d   1     -39.112 -66.302  49.862  0.00  0.00     0.016 A 
ATOM     12  C   UNK d   1     -37.946 -66.538  49.180  0.00  0.00     0.037 A 
ATOM     13  C   UNK d   1     -37.156 -67.636  49.409  0.00  0.00     0.102 A 
ATOM     14  C   UNK d   1     -37.575 -68.526  50.370  0.00  0.00     0.037 A 
ATOM     15  C   UNK d   1     -38.765 -68.287  51.068  0.00  0.00     0.016 A 
BRANCH  13  16
ATOM     16  N   UNK d   1     -35.968 -67.807  48.661  0.00  0.00    -0.116 N 
ATOM     17  O   UNK d   1     -34.864 -67.804  49.218  0.00  0.00    -0.532 OA
ATOM     18  O   UNK d   1     -36.046 -67.978  47.313  0.00  0.00    -0.532 OA
ENDBRANCH  13  16
ENDBRANCH   8  10
BRANCH   6  19
ATOM     19  C   UNK d   1     -44.092 -65.530  51.740  0.00  0.00     0.041 A 
ATOM     20  C   UNK d   1     -44.245 -64.283  51.178  0.00  0.00     0.031 A 
ATOM     21  C   UNK d   1     -45.475 -63.694  50.973  0.00  0.00     0.021 A 
ATOM     22  C   UNK d   1     -46.619 -64.367  51.342  0.00  0.00     0.011 A 
ATOM     23  C   UNK d   1     -46.504 -65.623  51.910  0.00  0.00     0.021 A 
ATOM     24 Br   UNK d   1     -48.343 -63.581  51.073  0.00  0.00    -0.051 Br
ATOM     25  C   UNK d   1     -45.261 -66.190  52.104  0.00  0.00     0.031 A 
ENDBRANCH   6  19
TORSDOF 3
ENDMDL
