MODEL 1
REMARK VINA RESULT:    -7.223      0.000      0.000
REMARK INTER + INTRA:          -9.232
REMARK INTER:                  -8.490
REMARK INTRA:                  -0.742
REMARK UNBOUND:                -0.742
REMARK  3 active torsions:
REMARK  status: ('A' for Active; 'I' for Inactive)
REMARK    1  A    between atoms: N_7  and  C_18 
REMARK    2  A    between atoms: C_8  and  C_10 
REMARK    3  A    between atoms: C_13  and  O_16 
ROOT
ATOM      1  S   UNK d   1     -37.207 -67.643  49.390  0.00  0.00    -0.093 SA
ATOM      2  C   UNK d   1     -35.773 -68.406  50.200  0.00  0.00     0.084 C 
ATOM      3  C   UNK d   1     -36.268 -69.032  51.491  0.00  0.00     0.031 C 
ATOM      4  C   UNK d   1     -37.559 -69.786  51.244  0.00  0.00     0.131 C 
ATOM      5  N   UNK d   1     -38.635 -68.814  51.343  0.00  0.00    -0.335 N 
ATOM      6  C   UNK d   1     -38.580 -67.762  50.523  0.00  0.00     0.154 A 
ATOM      7  N   UNK d   1     -39.675 -66.958  50.761  0.00  0.00    -0.290 N 
ATOM      8  C   UNK d   1     -40.404 -67.504  51.720  0.00  0.00     0.067 A 
ATOM      9  C   UNK d   1     -39.734 -68.672  52.075  0.00  0.00     0.124 A 
ENDROOT
BRANCH   8  10
ATOM     10  C   UNK d   1     -41.645 -67.067  52.341  0.00  0.00    -0.007 A 
ATOM     11  C   UNK d   1     -41.877 -67.364  53.692  0.00  0.00     0.016 A 
ATOM     12  C   UNK d   1     -43.024 -66.981  54.330  0.00  0.00     0.037 A 
ATOM     13  C   UNK d   1     -44.029 -66.280  53.702  0.00  0.00     0.068 A 
ATOM     14  C   UNK d   1     -43.812 -65.985  52.381  0.00  0.00     0.037 A 
ATOM     15  C   UNK d   1     -42.643 -66.369  51.707  0.00  0.00     0.016 A 
BRANCH  13  16
ATOM     16  O   UNK d   1     -45.179 -65.908  54.383  0.00  0.00    -0.356 OA
ATOM     17  C   UNK d   1     -46.450 -66.333  53.926  0.00  0.00     0.210 C 
ENDBRANCH  13  16
ENDBRANCH   8  10
BRANCH   7  18
ATOM     18  C   UNK d   1     -39.895 -65.751  50.035  0.00  0.00     0.042 A 
ATOM     19  C   UNK d   1     -40.390 -65.781  48.743  0.00  0.00     0.031 A 
ATOM     20  C   UNK d   1     -40.642 -64.630  48.024  0.00  0.00     0.021 A 
ATOM     21  C   UNK d   1     -40.386 -63.417  48.631  0.00  0.00     0.011 A 
ATOM     22  C   UNK d   1     -39.893 -63.396  49.918  0.00  0.00     0.021 A 
ATOM     23 Br   UNK d   1     -40.705 -61.761  47.709  0.00  0.00    -0.051 Br
ATOM     24  C   UNK d   1     -39.634 -64.532  50.654  0.00  0.00     0.031 A 
ENDBRANCH   7  18
TORSDOF 3
ENDMDL
