MODEL 1
REMARK VINA RESULT:    -6.629      0.000      0.000
REMARK INTER + INTRA:          -8.069
REMARK INTER:                  -7.985
REMARK INTRA:                  -0.084
REMARK UNBOUND:                -0.084
REMARK  4 active torsions:
REMARK  status: ('A' for Active; 'I' for Inactive)
REMARK    1  A    between atoms: N_7  and  C_19 
REMARK    2  A    between atoms: C_8  and  O_10 
REMARK    3  A    between atoms: C_8  and  C_11 
REMARK    4  A    between atoms: C_14  and  O_17 
ROOT
ATOM      1  S   UNK d   1     -35.606 -67.081  46.640  0.00  0.00    -0.094 SA
ATOM      2  C   UNK d   1     -34.431 -67.302  45.248  0.00  0.00     0.084 C 
ATOM      3  C   UNK d   1     -33.117 -67.703  45.922  0.00  0.00     0.030 C 
ATOM      4  C   UNK d   1     -32.623 -66.503  46.722  0.00  0.00     0.126 C 
ATOM      5  N   UNK d   1     -33.295 -66.533  47.998  0.00  0.00    -0.356 N 
ATOM      6  C   UNK d   1     -34.578 -66.775  48.071  0.00  0.00     0.148 C 
ATOM      7  N   UNK d   1     -34.940 -66.755  49.477  0.00  0.00    -0.289 N 
ATOM      8  C   UNK d   1     -34.083 -65.702  49.977  0.00  0.00     0.185 C 
ATOM      9  C   UNK d   1     -32.787 -66.349  49.361  0.00  0.00     0.192 C 
ENDROOT
BRANCH   8  10
ATOM     10  O   UNK d   1     -33.995 -65.595  51.329  0.00  0.00    -0.365 OA
ATOM     11  H   UNK d   1     -34.922 -65.460  51.698  0.00  0.00     0.213 HD
ENDBRANCH   8  10
BRANCH   8  12
ATOM     12  C   UNK d   1     -34.357 -64.456  49.252  0.00  0.00    -0.001 A 
ATOM     13  C   UNK d   1     -33.358 -63.620  48.782  0.00  0.00     0.015 A 
ATOM     14  C   UNK d   1     -33.700 -62.427  48.127  0.00  0.00     0.037 A 
ATOM     15  C   UNK d   1     -34.976 -62.052  47.932  0.00  0.00     0.068 A 
ATOM     16  C   UNK d   1     -36.018 -62.882  48.395  0.00  0.00     0.037 A 
ATOM     17  C   UNK d   1     -35.639 -64.048  49.036  0.00  0.00     0.015 A 
BRANCH  15  18
ATOM     18  O   UNK d   1     -35.363 -60.854  47.276  0.00  0.00    -0.356 OA
ATOM     19  C   UNK d   1     -36.217 -60.900  46.153  0.00  0.00     0.210 C 
ENDBRANCH  15  18
ENDBRANCH   8  12
BRANCH   7  20
ATOM     20  C   UNK d   1     -35.837 -67.620  50.136  0.00  0.00     0.040 A 
ATOM     21  C   UNK d   1     -37.223 -67.359  49.997  0.00  0.00     0.031 A 
ATOM     22  C   UNK d   1     -38.177 -68.120  50.648  0.00  0.00     0.021 A 
ATOM     23  C   UNK d   1     -37.817 -69.161  51.459  0.00  0.00     0.011 A 
ATOM     24  C   UNK d   1     -36.475 -69.440  51.615  0.00  0.00     0.021 A 
ATOM     25 Br   UNK d   1     -39.096 -70.227  52.395  0.00  0.00    -0.051 Br
ATOM     26  C   UNK d   1     -35.510 -68.662  50.947  0.00  0.00     0.031 A 
ENDBRANCH   7  20
TORSDOF 4
ENDMDL
