MODEL 1
REMARK VINA RESULT:    -6.927      0.000      0.000
REMARK INTER + INTRA:          -8.937
REMARK INTER:                  -8.749
REMARK INTRA:                  -0.188
REMARK UNBOUND:                -0.188
REMARK  5 active torsions:
REMARK  status: ('A' for Active; 'I' for Inactive)
REMARK    1  A    between atoms: C_6  and  O_20 
REMARK    2  A    between atoms: C_6  and  C_21 
REMARK    3  A    between atoms: N_8  and  C_10 
REMARK    4  A    between atoms: C_11  and  O_18 
REMARK    5  A    between atoms: C_14  and  O_16 
ROOT
ATOM      1  S   UNK d   1     -35.587 -64.466  49.794  0.00  0.00    -0.094 SA
ATOM      2  C   UNK d   1     -35.702 -62.877  49.009  0.00  0.00     0.084 C 
ATOM      3  C   UNK d   1     -37.133 -62.625  48.578  0.00  0.00     0.030 C 
ATOM      4  C   UNK d   1     -37.555 -63.698  47.590  0.00  0.00     0.129 C 
ATOM      5  N   UNK d   1     -37.803 -64.940  48.287  0.00  0.00    -0.324 N 
ATOM      6  C   UNK d   1     -38.946 -65.792  48.339  0.00  0.00     0.181 C 
ATOM      7  C   UNK d   1     -38.253 -67.140  48.468  0.00  0.00     0.198 C 
ATOM      8  N   UNK d   1     -37.107 -66.838  49.296  0.00  0.00    -0.320 N 
ATOM      9  C   UNK d   1     -36.840 -65.589  49.136  0.00  0.00     0.148 C 
ENDROOT
BRANCH   8  10
ATOM     10  C   UNK d   1     -36.412 -67.721  50.164  0.00  0.00     0.072 A 
ATOM     11  C   UNK d   1     -37.182 -68.548  50.972  0.00  0.00     0.095 A 
ATOM     12  C   UNK d   1     -36.570 -69.427  51.872  0.00  0.00     0.042 A 
ATOM     13  C   UNK d   1     -35.189 -69.469  51.956  0.00  0.00     0.039 A 
ATOM     14  C   UNK d   1     -34.398 -68.666  51.171  0.00  0.00     0.070 A 
ATOM     15  C   UNK d   1     -35.075 -67.804  50.286  0.00  0.00     0.069 A 
BRANCH  11  16
ATOM     16  O   UNK d   1     -38.556 -68.500  50.886  0.00  0.00    -0.354 OA
ATOM     17  C   UNK d   1     -39.448 -69.048  51.828  0.00  0.00     0.210 C 
ENDBRANCH  11  16
BRANCH  14  18
ATOM     18  O   UNK d   1     -33.014 -68.662  51.208  0.00  0.00    -0.356 OA
ATOM     19  C   UNK d   1     -32.165 -68.225  50.185  0.00  0.00     0.210 C 
ENDBRANCH  14  18
ENDBRANCH   8  10
BRANCH   6  20
ATOM     20  O   UNK d   1     -39.663 -65.712  47.149  0.00  0.00    -0.365 OA
ATOM     21  H   UNK d   1     -40.367 -65.028  47.222  0.00  0.00     0.213 HD
ENDBRANCH   6  20
BRANCH   6  22
ATOM     22  C   UNK d   1     -39.816 -65.625  49.519  0.00  0.00    -0.002 A 
ATOM     23  C   UNK d   1     -39.668 -64.701  50.505  0.00  0.00     0.013 A 
ATOM     24  C   UNK d   1     -40.532 -64.656  51.601  0.00  0.00     0.020 A 
ATOM     25  C   UNK d   1     -41.572 -65.553  51.727  0.00  0.00     0.011 A 
ATOM     26  C   UNK d   1     -41.730 -66.483  50.746  0.00  0.00     0.020 A 
ATOM     27 Br   UNK d   1     -42.748 -65.484  53.241  0.00  0.00    -0.051 Br
ATOM     28  C   UNK d   1     -40.883 -66.527  49.673  0.00  0.00     0.013 A 
ENDBRANCH   6  22
TORSDOF 5
ENDMDL
