MODEL 1
REMARK VINA RESULT:    -7.712      0.000      0.000
REMARK INTER + INTRA:          -9.703
REMARK INTER:                  -9.290
REMARK INTRA:                  -0.414
REMARK UNBOUND:                -0.414
REMARK  4 active torsions:
REMARK  status: ('A' for Active; 'I' for Inactive)
REMARK    1  A    between atoms: C_6  and  O_17 
REMARK    2  A    between atoms: C_6  and  C_18 
REMARK    3  A    between atoms: N_8  and  C_10 
REMARK    4  A    between atoms: C_20  and  N_24 
ROOT
ATOM      1  S   UNK d   1     -39.777 -63.783  49.828  0.00  0.00    -0.094 SA
ATOM      2  C   UNK d   1     -40.286 -62.999  48.242  0.00  0.00     0.084 C 
ATOM      3  C   UNK d   1     -39.763 -63.835  47.087  0.00  0.00     0.030 C 
ATOM      4  C   UNK d   1     -38.325 -64.227  47.308  0.00  0.00     0.129 C 
ATOM      5  N   UNK d   1     -38.257 -65.357  48.179  0.00  0.00    -0.324 N 
ATOM      6  C   UNK d   1     -37.509 -66.598  48.246  0.00  0.00     0.181 C 
ATOM      7  C   UNK d   1     -38.455 -67.529  48.984  0.00  0.00     0.198 C 
ATOM      8  N   UNK d   1     -39.230 -66.571  49.797  0.00  0.00    -0.323 N 
ATOM      9  C   UNK d   1     -39.112 -65.390  49.334  0.00  0.00     0.147 C 
ENDROOT
BRANCH   6  10
ATOM     10  O   UNK d   1     -37.170 -67.078  46.996  0.00  0.00    -0.365 OA
ATOM     11  H   UNK d   1     -37.899 -67.178  46.367  0.00  0.00     0.213 HD
ENDBRANCH   6  10
BRANCH   6  12
ATOM     12  C   UNK d   1     -36.283 -66.455  49.067  0.00  0.00     0.001 A 
ATOM     13  C   UNK d   1     -35.804 -67.537  49.779  0.00  0.00     0.048 A 
ATOM     14  C   UNK d   1     -34.647 -67.358  50.537  0.00  0.00     0.103 A 
ATOM     15  C   UNK d   1     -34.008 -66.156  50.576  0.00  0.00     0.036 A 
ATOM     16  C   UNK d   1     -34.475 -65.064  49.867  0.00  0.00     0.003 A 
ATOM     17  C   UNK d   1     -35.637 -65.252  49.108  0.00  0.00     0.012 A 
BRANCH  14  18
ATOM     18  N   UNK d   1     -34.148 -68.463  51.272  0.00  0.00    -0.116 N 
ATOM     19  O   UNK d   1     -32.957 -68.822  51.191  0.00  0.00    -0.532 OA
ATOM     20  O   UNK d   1     -34.956 -69.185  52.103  0.00  0.00    -0.532 OA
ENDBRANCH  14  18
ENDBRANCH   6  12
BRANCH   8  21
ATOM     21  C   UNK d   1     -40.013 -66.935  50.930  0.00  0.00     0.036 A 
ATOM     22  C   UNK d   1     -41.197 -66.373  51.307  0.00  0.00     0.031 A 
ATOM     23  C   UNK d   1     -41.919 -66.792  52.416  0.00  0.00     0.021 A 
ATOM     24  C   UNK d   1     -41.437 -67.825  53.194  0.00  0.00     0.011 A 
ATOM     25  C   UNK d   1     -40.232 -68.422  52.840  0.00  0.00     0.021 A 
ATOM     26 Br   UNK d   1     -42.355 -68.469  54.744  0.00  0.00    -0.051 Br
ATOM     27  C   UNK d   1     -39.527 -67.986  51.725  0.00  0.00     0.031 A 
ENDBRANCH   8  21
TORSDOF 4
ENDMDL
