MODEL 1
REMARK VINA RESULT:    -7.234      0.000      0.000
REMARK INTER + INTRA:          -9.292
REMARK INTER:                  -8.714
REMARK INTRA:                  -0.578
REMARK UNBOUND:                -0.578
REMARK  4 active torsions:
REMARK  status: ('A' for Active; 'I' for Inactive)
REMARK    1  A    between atoms: C_6  and  O_17 
REMARK    2  A    between atoms: C_6  and  C_18 
REMARK    3  A    between atoms: N_8  and  C_10 
REMARK    4  A    between atoms: C_21  and  N_24 
ROOT
ATOM      1  S   UNK d   1     -38.545 -69.334  51.108  0.00  0.00    -0.094 SA
ATOM      2  C   UNK d   1     -36.807 -69.504  51.682  0.00  0.00     0.084 C 
ATOM      3  C   UNK d   1     -35.857 -68.669  50.933  0.00  0.00     0.030 C 
ATOM      4  C   UNK d   1     -36.294 -68.002  49.693  0.00  0.00     0.129 C 
ATOM      5  N   UNK d   1     -37.497 -67.276  49.713  0.00  0.00    -0.324 N 
ATOM      6  C   UNK d   1     -37.991 -66.142  48.992  0.00  0.00     0.181 C 
ATOM      7  C   UNK d   1     -38.843 -65.483  50.055  0.00  0.00     0.198 C 
ATOM      8  N   UNK d   1     -39.358 -66.630  50.771  0.00  0.00    -0.323 N 
ATOM      9  C   UNK d   1     -38.607 -67.610  50.585  0.00  0.00     0.147 C 
ENDROOT
BRANCH   6  10
ATOM     10  O   UNK d   1     -38.870 -66.578  47.998  0.00  0.00    -0.365 OA
ATOM     11  H   UNK d   1     -38.359 -66.990  47.282  0.00  0.00     0.213 HD
ENDBRANCH   6  10
BRANCH   6  12
ATOM     12  C   UNK d   1     -36.975 -65.219  48.452  0.00  0.00    -0.001 A 
ATOM     13  C   UNK d   1     -36.499 -64.227  49.305  0.00  0.00     0.014 A 
ATOM     14  C   UNK d   1     -35.548 -63.320  48.894  0.00  0.00     0.037 A 
ATOM     15  C   UNK d   1     -35.019 -63.349  47.616  0.00  0.00     0.102 A 
ATOM     16  C   UNK d   1     -35.486 -64.333  46.766  0.00  0.00     0.037 A 
ATOM     17  C   UNK d   1     -36.453 -65.253  47.186  0.00  0.00     0.014 A 
BRANCH  15  18
ATOM     18  N   UNK d   1     -34.040 -62.407  47.220  0.00  0.00    -0.116 N 
ATOM     19  O   UNK d   1     -34.209 -61.589  46.308  0.00  0.00    -0.532 OA
ATOM     20  O   UNK d   1     -32.836 -62.383  47.876  0.00  0.00    -0.532 OA
ENDBRANCH  15  18
ENDBRANCH   6  12
BRANCH   8  21
ATOM     21  C   UNK d   1     -40.557 -66.637  51.556  0.00  0.00     0.036 A 
ATOM     22  C   UNK d   1     -41.697 -66.048  51.026  0.00  0.00     0.031 A 
ATOM     23  C   UNK d   1     -42.893 -65.998  51.739  0.00  0.00     0.021 A 
ATOM     24  C   UNK d   1     -42.977 -66.536  53.005  0.00  0.00     0.011 A 
ATOM     25  C   UNK d   1     -41.857 -67.122  53.542  0.00  0.00     0.021 A 
ATOM     26 Br   UNK d   1     -44.627 -66.448  53.991  0.00  0.00    -0.051 Br
ATOM     27  C   UNK d   1     -40.668 -67.156  52.802  0.00  0.00     0.031 A 
ENDBRANCH   8  21
TORSDOF 4
ENDMDL
