/Users/jonathanwahrer/Desktop/Msc/3_Semester/Drug_Design_Praktikum/waehrer_HTS_screening/HTS_experiment/out/docking_results/vina_output/3e7o/1222_docked.pdbqt
 OpenBabel03192216143D

 24 27  0  0  1  0  0  0  0  0999 V2000
  -39.3470  -63.8960   49.8220 S   0  0  0  0  0  0  0  0  0  0  0  0
  -40.1940  -63.1340   48.3660 C   0  0  0  0  0  2  0  0  0  0  0  0
  -39.6400  -63.7010   47.0850 C   0  0  0  0  0  2  0  0  0  0  0  0
  -38.2010  -64.1570   47.1890 C   0  0  0  0  0  2  0  0  0  0  0  0
  -38.0200  -65.3350   47.9440 N   0  0  1  0  0  0  0  0  0  0  0  0
  -37.2100  -66.5660   47.9600 C   0  0  1  0  0  0  0  0  0  0  0  0
  -38.2770  -67.5070   48.4680 C   0  0  0  0  0  2  0  0  0  0  0  0
  -38.9030  -66.6980   49.5040 N   0  0  0  0  0  0  0  0  0  0  0  0
  -38.8200  -65.5050   49.1470 C   0  0  1  0  0  3  0  0  0  0  0  0
  -36.7850  -66.9450   46.7230 O   0  0  0  0  0  0  0  0  0  0  0  0
  -36.4180  -66.2270   46.1500 H   0  0  0  0  0  0  0  0  0  0  0  0
  -36.1100  -66.4620   48.9750 C   0  0  0  0  0  0  0  0  0  0  0  0
  -35.4820  -65.2690   49.2800 C   0  0  0  0  0  3  0  0  0  0  0  0
  -34.4760  -65.2590   50.2380 C   0  0  0  0  0  3  0  0  0  0  0  0
  -34.0690  -66.4030   50.9120 C   0  0  0  0  0  3  0  0  0  0  0  0
  -34.6870  -67.5870   50.6160 C   0  0  0  0  0  3  0  0  0  0  0  0
  -35.6950  -67.6020   49.6520 C   0  0  0  0  0  3  0  0  0  0  0  0
  -39.4510  -67.2010   50.7410 C   0  0  0  0  0  0  0  0  0  0  0  0
  -40.4640  -66.6260   51.4420 C   0  0  0  0  0  3  0  0  0  0  0  0
  -40.9310  -67.1180   52.6540 C   0  0  0  0  0  3  0  0  0  0  0  0
  -40.3580  -68.2390   53.1930 C   0  0  0  0  0  0  0  0  0  0  0  0
  -39.3290  -68.8280   52.4840 C   0  0  0  0  0  3  0  0  0  0  0  0
  -40.9330  -68.9890   54.8640 Br  0  0  0  0  0  0  0  0  0  0  0  0
  -38.8710  -68.3410   51.2910 C   0  0  0  0  0  3  0  0  0  0  0  0
  2  1  1  0  0  0  0
  3  4  1  0  0  0  0
  3  2  1  0  0  0  0
  5  4  1  1  0  0  0
  5  6  1  0  0  0  0
  5  9  1  0  0  0  0
  6 10  1  6  0  0  0
  6  7  1  0  0  0  0
  6 12  1  0  0  0  0
  7  8  1  0  0  0  0
  8 18  1  0  0  0  0
  9  8  1  0  0  0  0
  9  1  1  1  0  0  0
 11 10  1  0  0  0  0
 12 13  2  0  0  0  0
 12 17  1  0  0  0  0
 13 14  1  0  0  0  0
 14 15  2  0  0  0  0
 16 15  1  0  0  0  0
 17 16  2  0  0  0  0
 18 24  2  0  0  0  0
 18 19  1  0  0  0  0
 19 20  2  0  0  0  0
 20 21  1  0  0  0  0
 21 23  1  0  0  0  0
 22 21  2  0  0  0  0
 24 22  1  0  0  0  0
M  END
>  <Pose>
1

>  <Score>
-7.247

$$$$
