MODEL 1
REMARK VINA RESULT:    -7.247      0.000      0.000
REMARK INTER + INTRA:          -8.688
REMARK INTER:                  -8.307
REMARK INTRA:                  -0.381
REMARK UNBOUND:                -0.381
REMARK  3 active torsions:
REMARK  status: ('A' for Active; 'I' for Inactive)
REMARK    1  A    between atoms: C_6  and  O_17 
REMARK    2  A    between atoms: C_6  and  C_18 
REMARK    3  A    between atoms: N_8  and  C_10 
ROOT
ATOM      1  S   UNK d   1     -39.347 -63.896  49.822  0.00  0.00    -0.094 SA
ATOM      2  C   UNK d   1     -40.194 -63.134  48.366  0.00  0.00     0.084 C 
ATOM      3  C   UNK d   1     -39.640 -63.701  47.085  0.00  0.00     0.030 C 
ATOM      4  C   UNK d   1     -38.201 -64.157  47.189  0.00  0.00     0.129 C 
ATOM      5  N   UNK d   1     -38.020 -65.335  47.944  0.00  0.00    -0.324 N 
ATOM      6  C   UNK d   1     -37.210 -66.566  47.960  0.00  0.00     0.181 C 
ATOM      7  C   UNK d   1     -38.277 -67.507  48.468  0.00  0.00     0.198 C 
ATOM      8  N   UNK d   1     -38.903 -66.698  49.504  0.00  0.00    -0.323 N 
ATOM      9  C   UNK d   1     -38.820 -65.505  49.147  0.00  0.00     0.147 C 
ENDROOT
BRANCH   6  10
ATOM     10  O   UNK d   1     -36.785 -66.945  46.723  0.00  0.00    -0.365 OA
ATOM     11  H   UNK d   1     -36.418 -66.227  46.150  0.00  0.00     0.213 HD
ENDBRANCH   6  10
BRANCH   6  12
ATOM     12  C   UNK d   1     -36.110 -66.462  48.975  0.00  0.00    -0.002 A 
ATOM     13  C   UNK d   1     -35.482 -65.269  49.280  0.00  0.00     0.012 A 
ATOM     14  C   UNK d   1     -34.476 -65.259  50.238  0.00  0.00     0.001 A 
ATOM     15  C   UNK d   1     -34.069 -66.403  50.912  0.00  0.00     0.000 A 
ATOM     16  C   UNK d   1     -34.687 -67.587  50.616  0.00  0.00     0.001 A 
ATOM     17  C   UNK d   1     -35.695 -67.602  49.652  0.00  0.00     0.012 A 
ENDBRANCH   6  12
BRANCH   8  18
ATOM     18  C   UNK d   1     -39.451 -67.201  50.741  0.00  0.00     0.036 A 
ATOM     19  C   UNK d   1     -40.464 -66.626  51.442  0.00  0.00     0.031 A 
ATOM     20  C   UNK d   1     -40.931 -67.118  52.654  0.00  0.00     0.021 A 
ATOM     21  C   UNK d   1     -40.358 -68.239  53.193  0.00  0.00     0.011 A 
ATOM     22  C   UNK d   1     -39.329 -68.828  52.484  0.00  0.00     0.021 A 
ATOM     23 Br   UNK d   1     -40.933 -68.989  54.864  0.00  0.00    -0.051 Br
ATOM     24  C   UNK d   1     -38.871 -68.341  51.291  0.00  0.00     0.031 A 
ENDBRANCH   8  18
TORSDOF 3
ENDMDL
