MODEL 1
REMARK VINA RESULT:    -6.693      0.000      0.000
REMARK INTER + INTRA:          -8.779
REMARK INTER:                  -8.063
REMARK INTRA:                  -0.716
REMARK UNBOUND:                -0.716
REMARK  4 active torsions:
REMARK  status: ('A' for Active; 'I' for Inactive)
REMARK    1  A    between atoms: C_6  and  O_18 
REMARK    2  A    between atoms: C_6  and  C_19 
REMARK    3  A    between atoms: N_8  and  C_10 
REMARK    4  A    between atoms: C_13  and  O_16 
ROOT
ATOM      1  S   UNK d   1     -34.189 -67.427  46.766  0.00  0.00    -0.094 SA
ATOM      2  C   UNK d   1     -32.518 -67.512  46.002  0.00  0.00     0.084 C 
ATOM      3  C   UNK d   1     -32.062 -66.066  45.877  0.00  0.00     0.030 C 
ATOM      4  C   UNK d   1     -31.772 -65.453  47.211  0.00  0.00     0.129 C 
ATOM      5  N   UNK d   1     -32.905 -65.335  48.077  0.00  0.00    -0.324 N 
ATOM      6  C   UNK d   1     -33.414 -64.322  49.007  0.00  0.00     0.181 C 
ATOM      7  C   UNK d   1     -33.838 -65.295  50.124  0.00  0.00     0.198 C 
ATOM      8  N   UNK d   1     -34.459 -66.359  49.357  0.00  0.00    -0.323 N 
ATOM      9  C   UNK d   1     -33.913 -66.374  48.210  0.00  0.00     0.147 C 
ENDROOT
BRANCH   6  10
ATOM     10  O   UNK d   1     -32.386 -63.508  49.419  0.00  0.00    -0.365 OA
ATOM     11  H   UNK d   1     -31.780 -63.946  50.063  0.00  0.00     0.213 HD
ENDBRANCH   6  10
BRANCH   6  12
ATOM     12  C   UNK d   1     -34.596 -63.611  48.488  0.00  0.00    -0.002 A 
ATOM     13  C   UNK d   1     -35.779 -63.421  49.167  0.00  0.00     0.013 A 
ATOM     14  C   UNK d   1     -36.830 -62.727  48.591  0.00  0.00     0.020 A 
ATOM     15  C   UNK d   1     -36.709 -62.215  47.331  0.00  0.00     0.011 A 
ATOM     16  C   UNK d   1     -35.532 -62.398  46.638  0.00  0.00     0.020 A 
ATOM     17 Br   UNK d   1     -38.130 -61.245  46.475  0.00  0.00    -0.051 Br
ATOM     18  C   UNK d   1     -34.499 -63.087  47.220  0.00  0.00     0.013 A 
ENDBRANCH   6  12
BRANCH   8  19
ATOM     19  C   UNK d   1     -35.506 -67.198  49.895  0.00  0.00     0.036 A 
ATOM     20  C   UNK d   1     -35.179 -68.264  50.729  0.00  0.00     0.032 A 
ATOM     21  C   UNK d   1     -36.154 -69.083  51.255  0.00  0.00     0.039 A 
ATOM     22  C   UNK d   1     -37.495 -68.902  50.992  0.00  0.00     0.068 A 
ATOM     23  C   UNK d   1     -37.827 -67.852  50.169  0.00  0.00     0.039 A 
ATOM     24  C   UNK d   1     -36.830 -67.020  49.635  0.00  0.00     0.032 A 
BRANCH  22  25
ATOM     25  O   UNK d   1     -38.452 -69.748  51.543  0.00  0.00    -0.356 OA
ATOM     26  C   UNK d   1     -38.888 -69.726  52.872  0.00  0.00     0.210 C 
ENDBRANCH  22  25
ENDBRANCH   8  19
TORSDOF 4
ENDMDL
