/Users/jonathanwahrer/Desktop/Msc/3_Semester/Drug_Design_Praktikum/waehrer_HTS_screening/HTS_experiment/out/docking_results/vina_output/3e7o/1226_docked.pdbqt
 OpenBabel03192216143D

 24 27  0  0  1  0  0  0  0  0999 V2000
  -40.3610  -68.6280   52.3470 S   0  0  0  0  0  0  0  0  0  0  0  0
  -40.2010  -69.3570   54.0010 C   0  0  0  0  0  2  0  0  0  0  0  0
  -40.6830  -68.2880   54.9870 C   0  0  0  0  0  2  0  0  0  0  0  0
  -42.1820  -68.0600   54.7380 C   0  0  0  0  0  2  0  0  0  0  0  0
  -42.3100  -67.1070   53.6290 N   0  0  1  0  0  0  0  0  0  0  0  0
  -43.1410  -65.9950   53.4040 C   0  0  2  0  0  0  0  0  0  0  0  0
  -42.5000  -65.2630   52.2300 C   0  0  0  0  0  2  0  0  0  0  0  0
  -41.5070  -66.1720   51.7470 N   0  0  0  0  0  0  0  0  0  0  0  0
  -41.4420  -67.1870   52.5080 C   0  0  1  0  0  3  0  0  0  0  0  0
  -43.0420  -65.1080   54.4990 O   0  0  0  0  0  0  0  0  0  0  0  0
  -43.9620  -65.0110   54.8580 H   0  0  0  0  0  0  0  0  0  0  0  0
  -44.5570  -66.2110   53.1090 C   0  0  0  0  0  0  0  0  0  0  0  0
  -45.1070  -65.4150   52.1070 C   0  0  0  0  0  3  0  0  0  0  0  0
  -46.4200  -65.5130   51.6830 C   0  0  0  0  0  3  0  0  0  0  0  0
  -47.2530  -66.4310   52.2600 C   0  0  0  0  0  0  0  0  0  0  0  0
  -46.7260  -67.2310   53.2580 C   0  0  0  0  0  3  0  0  0  0  0  0
  -49.0910  -66.6290   51.7070 Br  0  0  0  0  0  0  0  0  0  0  0  0
  -45.4020  -67.1230   53.6740 C   0  0  0  0  0  3  0  0  0  0  0  0
  -40.7040  -65.8840   50.5910 C   0  0  0  0  0  0  0  0  0  0  0  0
  -39.8600  -64.8210   50.6210 C   0  0  0  0  0  3  0  0  0  0  0  0
  -39.0710  -64.5830   49.5000 C   0  0  0  0  0  3  0  0  0  0  0  0
  -39.1130  -65.3750   48.3750 C   0  0  0  0  0  3  0  0  0  0  0  0
  -39.9870  -66.4430   48.3910 C   0  0  0  0  0  3  0  0  0  0  0  0
  -40.7800  -66.7070   49.4810 C   0  0  0  0  0  3  0  0  0  0  0  0
  1  2  1  0  0  0  0
  2  3  1  0  0  0  0
  4  3  1  0  0  0  0
  5  4  1  1  0  0  0
  6  5  1  0  0  0  0
  6 10  1  1  0  0  0
  7  6  1  0  0  0  0
  8  7  1  0  0  0  0
  8  9  1  0  0  0  0
  9  1  1  1  0  0  0
  9  5  1  0  0  0  0
 10 11  1  0  0  0  0
 12  6  1  0  0  0  0
 12 18  1  0  0  0  0
 13 12  2  0  0  0  0
 14 13  1  0  0  0  0
 14 15  2  0  0  0  0
 15 16  1  0  0  0  0
 16 18  2  0  0  0  0
 17 15  1  0  0  0  0
 19 20  1  0  0  0  0
 19  8  1  0  0  0  0
 21 20  2  0  0  0  0
 22 23  2  0  0  0  0
 22 21  1  0  0  0  0
 23 24  1  0  0  0  0
 24 19  2  0  0  0  0
M  END
>  <Pose>
1

>  <Score>
-7.626

$$$$
