MODEL 1
REMARK VINA RESULT:    -7.626      0.000      0.000
REMARK INTER + INTRA:          -9.182
REMARK INTER:                  -8.741
REMARK INTRA:                  -0.441
REMARK UNBOUND:                -0.441
REMARK  3 active torsions:
REMARK  status: ('A' for Active; 'I' for Inactive)
REMARK    1  A    between atoms: C_6  and  O_16 
REMARK    2  A    between atoms: C_6  and  C_17 
REMARK    3  A    between atoms: N_8  and  C_10 
ROOT
ATOM      1  S   UNK d   1     -40.361 -68.628  52.347  0.00  0.00    -0.094 SA
ATOM      2  C   UNK d   1     -40.201 -69.357  54.001  0.00  0.00     0.084 C 
ATOM      3  C   UNK d   1     -40.683 -68.288  54.987  0.00  0.00     0.030 C 
ATOM      4  C   UNK d   1     -42.182 -68.060  54.738  0.00  0.00     0.129 C 
ATOM      5  N   UNK d   1     -42.310 -67.107  53.629  0.00  0.00    -0.324 N 
ATOM      6  C   UNK d   1     -43.141 -65.995  53.404  0.00  0.00     0.181 C 
ATOM      7  C   UNK d   1     -42.500 -65.263  52.230  0.00  0.00     0.198 C 
ATOM      8  N   UNK d   1     -41.507 -66.172  51.747  0.00  0.00    -0.323 N 
ATOM      9  C   UNK d   1     -41.442 -67.187  52.508  0.00  0.00     0.147 C 
ENDROOT
BRANCH   6  10
ATOM     10  O   UNK d   1     -43.042 -65.108  54.499  0.00  0.00    -0.365 OA
ATOM     11  H   UNK d   1     -43.962 -65.011  54.858  0.00  0.00     0.213 HD
ENDBRANCH   6  10
BRANCH   6  12
ATOM     12  C   UNK d   1     -44.557 -66.211  53.109  0.00  0.00    -0.002 A 
ATOM     13  C   UNK d   1     -45.107 -65.415  52.107  0.00  0.00     0.013 A 
ATOM     14  C   UNK d   1     -46.420 -65.513  51.683  0.00  0.00     0.020 A 
ATOM     15  C   UNK d   1     -47.253 -66.431  52.260  0.00  0.00     0.011 A 
ATOM     16  C   UNK d   1     -46.726 -67.231  53.258  0.00  0.00     0.020 A 
ATOM     17 Br   UNK d   1     -49.091 -66.629  51.707  0.00  0.00    -0.051 Br
ATOM     18  C   UNK d   1     -45.402 -67.123  53.674  0.00  0.00     0.013 A 
ENDBRANCH   6  12
BRANCH   8  19
ATOM     19  C   UNK d   1     -40.704 -65.884  50.591  0.00  0.00     0.036 A 
ATOM     20  C   UNK d   1     -39.860 -64.821  50.621  0.00  0.00     0.029 A 
ATOM     21  C   UNK d   1     -39.071 -64.583  49.500  0.00  0.00     0.002 A 
ATOM     22  C   UNK d   1     -39.113 -65.375  48.375  0.00  0.00     0.000 A 
ATOM     23  C   UNK d   1     -39.987 -66.443  48.391  0.00  0.00     0.002 A 
ATOM     24  C   UNK d   1     -40.780 -66.707  49.481  0.00  0.00     0.029 A 
ENDBRANCH   8  19
TORSDOF 3
ENDMDL
