/Users/jonathanwahrer/Desktop/Msc/3_Semester/Drug_Design_Praktikum/waehrer_HTS_screening/HTS_experiment/out/docking_results/vina_output/3e7o/1231_docked.pdbqt
 OpenBabel03192216143D

 37 40  0  0  0  0  0  0  0  0999 V2000
  -41.4730  -65.2230   51.4520 C   0  0  0  0  0  0  0  0  0  0  0  0
  -42.7290  -64.8360   51.7110 N   0  0  0  0  0  0  0  0  0  0  0  0
  -43.0350  -63.9440   50.7520 N   0  0  0  0  0  0  0  0  0  0  0  0
  -42.0520  -63.7740   49.9430 N   0  0  0  0  0  0  0  0  0  0  0  0
  -40.9850  -64.5680   50.3170 C   0  0  0  0  0  0  0  0  0  0  0  0
  -39.7340  -64.6210   49.6050 C   0  0  0  0  0  0  0  0  0  0  0  0
  -39.7610  -65.1530   48.4260 O   0  0  0  0  0  0  0  0  0  0  0  0
  -38.4830  -64.1720   50.0170 N   0  0  0  0  0  0  0  0  0  0  0  0
  -38.2170  -63.7260   50.9110 H   0  0  0  0  0  0  0  0  0  0  0  0
  -37.3500  -64.3180   49.1430 N   0  0  0  0  0  0  0  0  0  0  0  0
  -36.1650  -64.4480   49.5920 C   0  0  0  0  0  3  0  0  0  0  0  0
  -34.9920  -64.5980   48.7430 C   0  0  0  0  0  0  0  0  0  0  0  0
  -34.9350  -64.0460   47.4830 C   0  0  0  0  0  3  0  0  0  0  0  0
  -33.8280  -64.1730   46.6690 C   0  0  0  0  0  0  0  0  0  0  0  0
  -32.7230  -64.8680   47.0880 C   0  0  0  0  0  0  0  0  0  0  0  0
  -33.7970  -63.3870   44.9270 Br  0  0  0  0  0  0  0  0  0  0  0  0
  -32.7460  -65.4450   48.3680 C   0  0  0  0  0  0  0  0  0  0  0  0
  -31.6220  -64.9840   46.2530 O   0  0  0  0  0  1  0  0  0  0  0  0
  -33.8670  -65.3000   49.1570 C   0  0  0  0  0  3  0  0  0  0  0  0
  -31.6070  -66.1270   48.7250 O   0  0  0  0  0  0  0  0  0  0  0  0
  -31.4530  -67.5250   48.7290 C   0  0  0  0  0  1  0  0  0  0  0  0
  -40.6790  -66.2130   52.1970 C   0  0  0  0  0  2  0  0  0  0  0  0
  -40.4780  -67.8200   51.4570 S   0  0  0  0  0  0  0  0  0  0  0  0
  -38.7850  -68.1610   50.9930 C   0  0  0  0  0  0  0  0  0  0  0  0
  -37.8370  -69.4910   51.7330 S   0  0  0  0  0  0  0  0  0  0  0  0
  -36.2560  -69.0430   50.9520 C   0  0  0  0  0  2  0  0  0  0  0  0
  -36.7410  -68.0360   49.9590 C   0  0  0  0  0  2  0  0  0  0  0  0
  -38.0320  -67.6180   50.1750 N   0  0  0  0  0  0  0  0  0  0  0  0
  -43.6640  -65.2230   52.7140 C   0  0  0  0  0  0  0  0  0  0  0  0
  -43.4800  -65.2940   54.0490 N   0  0  0  0  0  0  0  0  0  0  0  0
  -44.5420  -65.6560   54.6640 O   0  0  0  0  0  0  0  0  0  0  0  0
  -45.4730  -65.8410   53.7820 N   0  0  0  0  0  0  0  0  0  0  0  0
  -44.9830  -65.5830   52.5330 C   0  0  0  0  0  0  0  0  0  0  0  0
  -45.6990  -65.6540   51.3170 N   0  0  0  0  0  4  0  0  0  0  0  0
  -45.7350  -66.6650   51.0200 H   0  0  0  0  0  0  0  0  0  0  0  0
  -45.3150  -65.0700   50.5540 H   0  0  0  0  0  0  0  0  0  0  0  0
  -46.7010  -65.3690   51.4960 H   0  0  0  0  0  0  0  0  0  0  0  0
  1  2  1  0  0  0  0
  1 22  1  0  0  0  0
  2 29  1  0  0  0  0
  3  2  1  0  0  0  0
  4  5  1  0  0  0  0
  4  3  2  0  0  0  0
  5  1  2  0  0  0  0
  6  8  1  0  0  0  0
  6  5  1  0  0  0  0
  7  6  2  0  0  0  0
  8  9  1  0  0  0  0
 10 11  2  0  0  0  0
 10  8  1  0  0  0  0
 12 19  1  0  0  0  0
 12 11  1  0  0  0  0
 13 12  2  0  0  0  0
 14 15  2  0  0  0  0
 14 13  1  0  0  0  0
 15 17  1  0  0  0  0
 16 14  1  0  0  0  0
 17 20  1  0  0  0  0
 17 19  2  0  0  0  0
 18 15  1  0  0  0  0
 20 21  1  0  0  0  0
 23 22  1  0  0  0  0
 24 23  1  0  0  0  0
 24 25  1  0  0  0  0
 26 25  1  0  0  0  0
 27 28  1  0  0  0  0
 27 26  1  0  0  0  0
 28 24  2  0  0  0  0
 29 30  2  0  0  0  0
 30 31  1  0  0  0  0
 32 31  1  0  0  0  0
 33 29  1  0  0  0  0
 33 32  2  0  0  0  0
 34 37  1  0  0  0  0
 34 33  1  0  0  0  0
 35 34  1  0  0  0  0
 36 34  1  0  0  0  0
M  END
>  <Pose>
1

>  <Score>
-7.369

$$$$
