MODEL 1
REMARK VINA RESULT:    -7.369      0.000      0.000
REMARK INTER + INTRA:         -12.705
REMARK INTER:                 -11.031
REMARK INTRA:                  -1.674
REMARK UNBOUND:                -1.674
REMARK  9 active torsions:
REMARK  status: ('A' for Active; 'I' for Inactive)
REMARK    1  A    between atoms: C_5  and  S_6 
REMARK    2  A    between atoms: S_6  and  C_7 
REMARK    3  A    between atoms: C_7  and  C_8 
REMARK    4  A    between atoms: N_9  and  C_28 
REMARK    5  A    between atoms: C_12  and  C_13 
REMARK       I    between atoms: C_13  and  N_15 
REMARK    6  A    between atoms: N_15  and  N_16 
REMARK    7  A    between atoms: C_17  and  C_18 
REMARK    8  A    between atoms: C_22  and  O_24 
REMARK    9  A    between atoms: C_32  and  N_33 
ROOT
ATOM      1  C   UNK d   1     -41.473 -65.223  51.452  0.00  0.00     0.086 A 
ATOM      2  N   UNK d   1     -42.729 -64.836  51.711  0.00  0.00    -0.192 N 
ATOM      3  N   UNK d   1     -43.035 -63.944  50.752  0.00  0.00    -0.058 NA
ATOM      4  N   UNK d   1     -42.052 -63.774  49.943  0.00  0.00    -0.124 NA
ATOM      5  C   UNK d   1     -40.985 -64.568  50.317  0.00  0.00     0.175 A 
ENDROOT
BRANCH   5   6
ATOM      6  C   UNK d   1     -39.734 -64.621  49.605  0.00  0.00     0.294 C 
ATOM      7  O   UNK d   1     -39.761 -65.153  48.426  0.00  0.00    -0.264 OA
ATOM      8  N   UNK d   1     -38.483 -64.172  50.017  0.00  0.00    -0.242 N 
ATOM      9  H   UNK d   1     -38.217 -63.726  50.911  0.00  0.00     0.192 HD
BRANCH   8  10
ATOM     10  N   UNK d   1     -37.350 -64.318  49.143  0.00  0.00    -0.183 NA
ATOM     11  C   UNK d   1     -36.165 -64.448  49.592  0.00  0.00     0.150 C 
BRANCH  11  12
ATOM     12  C   UNK d   1     -34.992 -64.598  48.743  0.00  0.00    -0.013 A 
ATOM     13  C   UNK d   1     -34.935 -64.046  47.483  0.00  0.00     0.035 A 
ATOM     14  C   UNK d   1     -33.828 -64.173  46.669  0.00  0.00     0.051 A 
ATOM     15  C   UNK d   1     -32.723 -64.868  47.088  0.00  0.00     0.157 A 
ATOM     16 Br   UNK d   1     -33.797 -63.387  44.927  0.00  0.00    -0.048 Br
ATOM     17  C   UNK d   1     -32.746 -65.445  48.368  0.00  0.00     0.106 A 
ATOM     18  O   UNK d   1     -31.622 -64.984  46.253  0.00  0.00    -0.188 OA
ATOM     19  C   UNK d   1     -33.867 -65.300  49.157  0.00  0.00     0.052 A 
BRANCH  17  20
ATOM     20  O   UNK d   1     -31.607 -66.127  48.725  0.00  0.00    -0.353 OA
ATOM     21  C   UNK d   1     -31.453 -67.525  48.729  0.00  0.00     0.210 C 
ENDBRANCH  17  20
ENDBRANCH  11  12
ENDBRANCH   8  10
ENDBRANCH   5   6
BRANCH   1  22
ATOM     22  C   UNK d   1     -40.679 -66.213  52.197  0.00  0.00     0.143 C 
BRANCH  22  23
ATOM     23  S   UNK d   1     -40.478 -67.820  51.457  0.00  0.00    -0.098 SA
BRANCH  23  24
ATOM     24  C   UNK d   1     -38.785 -68.161  50.993  0.00  0.00     0.125 C 
ATOM     25  S   UNK d   1     -37.837 -69.491  51.733  0.00  0.00    -0.102 SA
ATOM     26  C   UNK d   1     -36.256 -69.043  50.952  0.00  0.00     0.103 C 
ATOM     27  C   UNK d   1     -36.741 -68.036  49.959  0.00  0.00     0.161 C 
ATOM     28  N   UNK d   1     -38.032 -67.618  50.175  0.00  0.00    -0.275 NA
ENDBRANCH  23  24
ENDBRANCH  22  23
ENDBRANCH   1  22
BRANCH   2  29
ATOM     29  C   UNK d   1     -43.664 -65.223  52.714  0.00  0.00     0.237 A 
ATOM     30  N   UNK d   1     -43.480 -65.294  54.049  0.00  0.00    -0.081 NA
ATOM     31  O   UNK d   1     -44.542 -65.656  54.664  0.00  0.00    -0.103 OA
ATOM     32  N   UNK d   1     -45.473 -65.841  53.782  0.00  0.00    -0.075 NA
ATOM     33  C   UNK d   1     -44.983 -65.583  52.533  0.00  0.00     0.300 A 
BRANCH  33  34
ATOM     34  N   UNK d   1     -45.699 -65.654  51.317  0.00  0.00    -0.026 N 
ATOM     35  H   UNK d   1     -45.735 -66.665  51.020  0.00  0.00     0.283 HD
ATOM     36  H   UNK d   1     -45.315 -65.070  50.554  0.00  0.00     0.283 HD
ATOM     37  H   UNK d   1     -46.701 -65.369  51.496  0.00  0.00     0.283 HD
ENDBRANCH  33  34
ENDBRANCH   2  29
TORSDOF 9
ENDMDL
