/Users/jonathanwahrer/Desktop/Msc/3_Semester/Drug_Design_Praktikum/waehrer_HTS_screening/HTS_experiment/out/docking_results/vina_output/3e7o/1236_docked.pdbqt
 OpenBabel03192216153D

 30 34  0  0  1  0  0  0  0  0999 V2000
  -34.9170  -65.8680   47.9620 C   0  0  2  0  0  3  0  0  0  0  0  0
  -33.4880  -65.9040   48.3770 C   0  0  1  0  0  3  0  0  0  0  0  0
  -32.7530  -66.7190   47.3720 C   0  0  0  0  0  0  0  0  0  0  0  0
  -32.4100  -66.0760   46.1290 N   0  0  0  0  0  0  0  0  0  0  0  0
  -32.4590  -67.9120   47.6300 O   0  0  0  0  0  0  0  0  0  0  0  0
  -32.3240  -64.8200   46.0090 C   0  0  0  0  0  0  0  0  0  0  0  0
  -31.9300  -63.7500   44.6410 S   0  0  0  0  0  0  0  0  0  0  0  0
  -32.5360  -63.9650   47.1100 N   0  0  0  0  0  0  0  0  0  0  0  0
  -31.4260  -62.3280   45.7230 C   0  0  0  0  0  2  0  0  0  0  0  0
  -32.4320  -62.5630   46.8210 C   0  0  0  0  0  2  0  0  0  0  0  0
  -32.8540  -64.5660   48.3930 C   0  0  0  0  0  0  0  0  0  0  0  0
  -32.5720  -63.9160   49.4280 O   0  0  0  0  0  0  0  0  0  0  0  0
  -35.5600  -64.5100   48.0980 C   0  0  2  0  0  3  0  0  0  0  0  0
  -36.4410  -64.3700   49.2680 C   0  0  0  0  0  0  0  0  0  0  0  0
  -35.9340  -64.2180   50.4350 O   0  0  0  0  0  0  0  0  0  0  0  0
  -37.8810  -64.4050   49.1070 N   0  0  0  0  0  0  0  0  0  0  0  0
  -38.8580  -64.5190   50.1540 C   0  0  0  0  0  2  0  0  0  0  0  0
  -38.4150  -64.2950   47.8040 C   0  0  0  0  0  0  0  0  0  0  0  0
  -40.0860  -65.2430   49.6630 C   0  0  0  0  0  2  0  0  0  0  0  0
  -40.1900  -64.4120   48.0090 S   0  0  0  0  0  0  0  0  0  0  0  0
  -37.6850  -64.1620   46.7650 N   0  0  0  0  0  0  0  0  0  0  0  0
  -36.2510  -64.1170   46.8450 C   0  0  0  0  0  0  0  0  0  0  0  0
  -35.6180  -63.7380   45.8280 O   0  0  0  0  0  0  0  0  0  0  0  0
  -35.6600  -66.9150   48.6990 C   0  0  0  0  0  0  0  0  0  0  0  0
  -35.1240  -67.5000   49.8390 C   0  0  0  0  0  3  0  0  0  0  0  0
  -35.8090  -68.4740   50.5350 C   0  0  0  0  0  0  0  0  0  0  0  0
  -37.0520  -68.8890   50.1120 C   0  0  0  0  0  3  0  0  0  0  0  0
  -35.0800  -69.2840   52.1020 Br  0  0  0  0  0  0  0  0  0  0  0  0
  -37.5760  -68.3130   48.9940 C   0  0  0  0  0  3  0  0  0  0  0  0
  -36.9030  -67.3390   48.2870 C   0  0  0  0  0  3  0  0  0  0  0  0
  1 24  1  1  0  0  0
  2  1  1  6  0  0  0
  2 11  1  0  0  0  0
  3  5  2  0  0  0  0
  3  2  1  0  0  0  0
  4  3  1  0  0  0  0
  6  4  2  0  0  0  0
  6  8  1  0  0  0  0
  7  9  1  0  0  0  0
  7  6  1  0  0  0  0
  8 11  1  0  0  0  0
  9 10  1  0  0  0  0
 10  8  1  0  0  0  0
 11 12  2  0  0  0  0
 13  1  1  6  0  0  0
 13 14  1  0  0  0  0
 14 15  2  0  0  0  0
 16 14  1  0  0  0  0
 16 17  1  0  0  0  0
 18 20  1  0  0  0  0
 18 16  1  0  0  0  0
 19 17  1  0  0  0  0
 20 19  1  0  0  0  0
 21 22  1  0  0  0  0
 21 18  2  0  0  0  0
 22 13  1  0  0  0  0
 23 22  2  0  0  0  0
 24 25  1  0  0  0  0
 25 26  2  0  0  0  0
 26 28  1  0  0  0  0
 27 26  1  0  0  0  0
 29 27  2  0  0  0  0
 30 24  2  0  0  0  0
 30 29  1  0  0  0  0
M  END
>  <Pose>
1

>  <Score>
-6.074

$$$$
