MODEL 1
REMARK VINA RESULT:    -6.074      0.000      0.000
REMARK INTER + INTRA:          -7.846
REMARK INTER:                  -7.139
REMARK INTRA:                  -0.707
REMARK UNBOUND:                -0.707
REMARK  3 active torsions:
REMARK  status: ('A' for Active; 'I' for Inactive)
REMARK    1  A    between atoms: C_9  and  C_12 
REMARK    2  A    between atoms: C_12  and  C_13 
REMARK    3  A    between atoms: C_12  and  C_24 
ROOT
ATOM      1  C   UNK d   1     -34.917 -65.868  47.962  0.00  0.00     0.063 C 
ENDROOT
BRANCH   1   2
ATOM      2  C   UNK d   1     -33.488 -65.904  48.377  0.00  0.00     0.182 C 
ATOM      3  C   UNK d   1     -32.753 -66.719  47.372  0.00  0.00     0.259 C 
ATOM      4  N   UNK d   1     -32.410 -66.076  46.129  0.00  0.00    -0.188 NA
ATOM      5  O   UNK d   1     -32.459 -67.912  47.630  0.00  0.00    -0.270 OA
ATOM      6  C   UNK d   1     -32.324 -64.820  46.009  0.00  0.00     0.174 C 
ATOM      7  S   UNK d   1     -31.930 -63.750  44.641  0.00  0.00    -0.090 SA
ATOM      8  N   UNK d   1     -32.536 -63.965  47.110  0.00  0.00    -0.295 N 
ATOM      9  C   UNK d   1     -31.426 -62.328  45.723  0.00  0.00     0.103 C 
ATOM     10  C   UNK d   1     -32.432 -62.563  46.821  0.00  0.00     0.144 C 
ATOM     11  C   UNK d   1     -32.854 -64.566  48.393  0.00  0.00     0.239 C 
ATOM     12  O   UNK d   1     -32.572 -63.916  49.428  0.00  0.00    -0.272 OA
ENDBRANCH   1   2
BRANCH   1  13
ATOM     13  C   UNK d   1     -35.560 -64.510  48.098  0.00  0.00     0.182 C 
ATOM     14  C   UNK d   1     -36.441 -64.370  49.268  0.00  0.00     0.239 C 
ATOM     15  O   UNK d   1     -35.934 -64.218  50.435  0.00  0.00    -0.272 OA
ATOM     16  N   UNK d   1     -37.881 -64.405  49.107  0.00  0.00    -0.295 N 
ATOM     17  C   UNK d   1     -38.858 -64.519  50.154  0.00  0.00     0.144 C 
ATOM     18  C   UNK d   1     -38.415 -64.295  47.804  0.00  0.00     0.174 C 
ATOM     19  C   UNK d   1     -40.086 -65.243  49.663  0.00  0.00     0.103 C 
ATOM     20  S   UNK d   1     -40.190 -64.412  48.009  0.00  0.00    -0.090 SA
ATOM     21  N   UNK d   1     -37.685 -64.162  46.765  0.00  0.00    -0.188 NA
ATOM     22  C   UNK d   1     -36.251 -64.117  46.845  0.00  0.00     0.259 C 
ATOM     23  O   UNK d   1     -35.618 -63.738  45.828  0.00  0.00    -0.270 OA
ENDBRANCH   1  13
BRANCH   1  24
ATOM     24  C   UNK d   1     -35.660 -66.915  48.699  0.00  0.00    -0.050 A 
ATOM     25  C   UNK d   1     -35.124 -67.500  49.839  0.00  0.00     0.026 A 
ATOM     26  C   UNK d   1     -35.809 -68.474  50.535  0.00  0.00     0.011 A 
ATOM     27  C   UNK d   1     -37.052 -68.889  50.112  0.00  0.00     0.019 A 
ATOM     28 Br   UNK d   1     -35.080 -69.284  52.102  0.00  0.00    -0.051 Br
ATOM     29  C   UNK d   1     -37.576 -68.313  48.994  0.00  0.00     0.002 A 
ATOM     30  C   UNK d   1     -36.903 -67.339  48.287  0.00  0.00     0.007 A 
ENDBRANCH   1  24
TORSDOF 3
ENDMDL
