MODEL 1
REMARK VINA RESULT:    -5.794      0.000      0.000
REMARK INTER + INTRA:          -8.424
REMARK INTER:                  -6.810
REMARK INTRA:                  -1.614
REMARK UNBOUND:                -1.614
REMARK  3 active torsions:
REMARK  status: ('A' for Active; 'I' for Inactive)
REMARK    1  A    between atoms: C_9  and  C_12 
REMARK    2  A    between atoms: C_12  and  C_13 
REMARK    3  A    between atoms: C_12  and  C_24 
ROOT
ATOM      1  C   UNK d   1     -36.713 -64.989  47.602  0.00  0.00     0.063 C 
ENDROOT
BRANCH   1   2
ATOM      2  C   UNK d   1     -36.151 -66.215  48.187  0.00  0.00     0.182 C 
ATOM      3  C   UNK d   1     -35.952 -67.423  47.437  0.00  0.00     0.259 C 
ATOM      4  N   UNK d   1     -34.659 -67.600  46.796  0.00  0.00    -0.188 NA
ATOM      5  O   UNK d   1     -36.733 -68.386  47.240  0.00  0.00    -0.270 OA
ATOM      6  C   UNK d   1     -33.606 -67.010  47.265  0.00  0.00     0.174 C 
ATOM      7  S   UNK d   1     -31.881 -67.025  46.711  0.00  0.00    -0.090 SA
ATOM      8  N   UNK d   1     -33.612 -66.138  48.373  0.00  0.00    -0.295 N 
ATOM      9  C   UNK d   1     -31.424 -65.478  47.608  0.00  0.00     0.103 C 
ATOM     10  C   UNK d   1     -32.366 -65.596  48.765  0.00  0.00     0.144 C 
ATOM     11  C   UNK d   1     -34.904 -65.919  48.987  0.00  0.00     0.239 C 
ATOM     12  O   UNK d   1     -34.973 -65.495  50.154  0.00  0.00    -0.272 OA
ENDBRANCH   1   2
BRANCH   1  13
ATOM     13  C   UNK d   1     -35.898 -63.786  47.386  0.00  0.00     0.182 C 
ATOM     14  C   UNK d   1     -35.708 -63.631  45.877  0.00  0.00     0.239 C 
ATOM     15  O   UNK d   1     -34.866 -64.338  45.279  0.00  0.00    -0.272 OA
ATOM     16  N   UNK d   1     -36.501 -62.670  45.142  0.00  0.00    -0.295 N 
ATOM     17  C   UNK d   1     -36.706 -62.612  43.736  0.00  0.00     0.144 C 
ATOM     18  C   UNK d   1     -37.137 -61.652  45.894  0.00  0.00     0.174 C 
ATOM     19  C   UNK d   1     -38.049 -62.013  43.400  0.00  0.00     0.103 C 
ATOM     20  S   UNK d   1     -38.041 -60.687  44.697  0.00  0.00    -0.090 SA
ATOM     21  N   UNK d   1     -37.047 -61.537  47.160  0.00  0.00    -0.188 NA
ATOM     22  C   UNK d   1     -36.246 -62.495  47.915  0.00  0.00     0.259 C 
ATOM     23  O   UNK d   1     -35.886 -62.105  49.040  0.00  0.00    -0.270 OA
ENDBRANCH   1  13
BRANCH   1  24
ATOM     24  C   UNK d   1     -38.105 -64.689  48.117  0.00  0.00    -0.051 A 
ATOM     25  C   UNK d   1     -38.377 -64.696  49.464  0.00  0.00     0.009 A 
ATOM     26  C   UNK d   1     -39.652 -64.425  49.892  0.00  0.00     0.019 A 
ATOM     27  C   UNK d   1     -40.674 -64.145  49.041  0.00  0.00     0.011 A 
ATOM     28  C   UNK d   1     -40.433 -64.131  47.689  0.00  0.00     0.019 A 
ATOM     29 Br   UNK d   1     -42.454 -63.767  49.649  0.00  0.00    -0.051 Br
ATOM     30  C   UNK d   1     -39.137 -64.407  47.254  0.00  0.00     0.009 A 
ENDBRANCH   1  24
TORSDOF 3
ENDMDL
