/Users/jonathanwahrer/Desktop/Msc/3_Semester/Drug_Design_Praktikum/waehrer_HTS_screening/HTS_experiment/out/docking_results/vina_output/3e7o/1237_docked.pdbqt
 OpenBabel03192216153D

 30 34  0  0  1  0  0  0  0  0999 V2000
  -36.7130  -64.9890   47.6020 C   0  0  2  0  0  3  0  0  0  0  0  0
  -36.1510  -66.2150   48.1870 C   0  0  1  0  0  3  0  0  0  0  0  0
  -35.9520  -67.4230   47.4370 C   0  0  0  0  0  0  0  0  0  0  0  0
  -34.6590  -67.6000   46.7960 N   0  0  0  0  0  0  0  0  0  0  0  0
  -36.7330  -68.3860   47.2400 O   0  0  0  0  0  0  0  0  0  0  0  0
  -33.6060  -67.0100   47.2650 C   0  0  0  0  0  0  0  0  0  0  0  0
  -31.8810  -67.0250   46.7110 S   0  0  0  0  0  0  0  0  0  0  0  0
  -33.6120  -66.1380   48.3730 N   0  0  0  0  0  0  0  0  0  0  0  0
  -31.4240  -65.4780   47.6080 C   0  0  0  0  0  2  0  0  0  0  0  0
  -32.3660  -65.5960   48.7650 C   0  0  0  0  0  2  0  0  0  0  0  0
  -34.9040  -65.9190   48.9870 C   0  0  0  0  0  0  0  0  0  0  0  0
  -34.9730  -65.4950   50.1540 O   0  0  0  0  0  0  0  0  0  0  0  0
  -35.8980  -63.7860   47.3860 C   0  0  1  0  0  3  0  0  0  0  0  0
  -35.7080  -63.6310   45.8770 C   0  0  0  0  0  0  0  0  0  0  0  0
  -34.8660  -64.3380   45.2790 O   0  0  0  0  0  0  0  0  0  0  0  0
  -36.5010  -62.6700   45.1420 N   0  0  0  0  0  0  0  0  0  0  0  0
  -36.7060  -62.6120   43.7360 C   0  0  0  0  0  2  0  0  0  0  0  0
  -37.1370  -61.6520   45.8940 C   0  0  0  0  0  0  0  0  0  0  0  0
  -38.0490  -62.0130   43.4000 C   0  0  0  0  0  2  0  0  0  0  0  0
  -38.0410  -60.6870   44.6970 S   0  0  0  0  0  0  0  0  0  0  0  0
  -37.0470  -61.5370   47.1600 N   0  0  0  0  0  0  0  0  0  0  0  0
  -36.2460  -62.4950   47.9150 C   0  0  0  0  0  0  0  0  0  0  0  0
  -35.8860  -62.1050   49.0400 O   0  0  0  0  0  0  0  0  0  0  0  0
  -38.1050  -64.6890   48.1170 C   0  0  0  0  0  0  0  0  0  0  0  0
  -38.3770  -64.6960   49.4640 C   0  0  0  0  0  3  0  0  0  0  0  0
  -39.6520  -64.4250   49.8920 C   0  0  0  0  0  3  0  0  0  0  0  0
  -40.6740  -64.1450   49.0410 C   0  0  0  0  0  0  0  0  0  0  0  0
  -40.4330  -64.1310   47.6890 C   0  0  0  0  0  3  0  0  0  0  0  0
  -42.4540  -63.7670   49.6490 Br  0  0  0  0  0  0  0  0  0  0  0  0
  -39.1370  -64.4070   47.2540 C   0  0  0  0  0  3  0  0  0  0  0  0
  1 24  1  1  0  0  0
  2  1  1  6  0  0  0
  2 11  1  0  0  0  0
  3  2  1  0  0  0  0
  4  6  2  0  0  0  0
  4  3  1  0  0  0  0
  5  3  2  0  0  0  0
  6  8  1  0  0  0  0
  7  6  1  0  0  0  0
  7  9  1  0  0  0  0
  8 10  1  0  0  0  0
  8 11  1  0  0  0  0
  9 10  1  0  0  0  0
 11 12  2  0  0  0  0
 13  1  1  6  0  0  0
 13 22  1  0  0  0  0
 14 13  1  0  0  0  0
 15 14  2  0  0  0  0
 16 14  1  0  0  0  0
 16 18  1  0  0  0  0
 17 16  1  0  0  0  0
 18 21  2  0  0  0  0
 19 17  1  0  0  0  0
 19 20  1  0  0  0  0
 20 18  1  0  0  0  0
 21 22  1  0  0  0  0
 22 23  2  0  0  0  0
 24 25  1  0  0  0  0
 25 26  2  0  0  0  0
 27 29  1  0  0  0  0
 27 26  1  0  0  0  0
 28 27  2  0  0  0  0
 30 28  1  0  0  0  0
 30 24  2  0  0  0  0
M  END
>  <Pose>
1

>  <Score>
-5.794

$$$$
