/Users/jonathanwahrer/Desktop/Msc/3_Semester/Drug_Design_Praktikum/waehrer_HTS_screening/HTS_experiment/out/docking_results/vina_output/3e7o/1248_docked.pdbqt
 OpenBabel03192216153D

 21 24  0  0  0  0  0  0  0  0999 V2000
  -39.6560  -69.7230   53.7750 S   0  0  0  0  0  0  0  0  0  0  0  0
  -41.1490  -69.0270   54.2600 C   0  0  0  0  0  0  0  0  0  0  0  0
  -41.2800  -68.0470   53.3660 N   0  0  0  0  0  0  0  0  0  0  0  0
  -42.4700  -67.4450   53.7040 C   0  0  0  0  0  0  0  0  0  0  0  0
  -42.9980  -68.0650   54.7580 N   0  0  0  0  0  0  0  0  0  0  0  0
  -42.2080  -69.0510   55.1310 N   0  0  0  0  0  0  0  0  0  0  0  0
  -40.3780  -67.8900   52.4840 N   0  0  0  0  0  0  0  0  0  0  0  0
  -39.3220  -68.6790   52.4430 C   0  0  0  0  0  0  0  0  0  0  0  0
  -38.1760  -68.6800   51.5280 C   0  0  0  0  0  0  0  0  0  0  0  0
  -37.0430  -69.3790   51.6660 N   0  0  0  0  0  0  0  0  0  0  0  0
  -36.2340  -69.1180   50.6260 N   0  0  0  0  0  0  0  0  0  0  0  0
  -36.8500  -68.2420   49.8080 C   0  0  0  0  0  3  0  0  0  0  0  0
  -35.2850  -69.5360   50.4920 H   0  0  0  0  0  0  0  0  0  0  0  0
  -38.0920  -67.9630   50.3860 C   0  0  0  0  0  0  0  0  0  0  0  0
  -39.3580  -66.7840   49.6360 Br  0  0  0  0  0  0  0  0  0  0  0  0
  -43.0840  -66.2900   53.0180 C   0  0  0  0  0  0  0  0  0  0  0  0
  -44.3420  -66.3510   52.5430 N   0  0  0  0  0  0  0  0  0  0  0  0
  -44.8930  -65.2880   51.9170 C   0  0  0  0  0  3  0  0  0  0  0  0
  -44.1790  -64.1320   51.7590 C   0  0  0  0  0  3  0  0  0  0  0  0
  -42.9340  -64.0850   52.2370 N   0  0  0  0  0  0  0  0  0  0  0  0
  -42.3590  -65.1340   52.8650 C   0  0  0  0  0  3  0  0  0  0  0  0
  1  2  1  0  0  0  0
  2  6  2  0  0  0  0
  3  4  1  0  0  0  0
  3  2  1  0  0  0  0
  4  5  2  0  0  0  0
  5  6  1  0  0  0  0
  7  3  1  0  0  0  0
  8  7  2  0  0  0  0
  8  1  1  0  0  0  0
  9 10  2  0  0  0  0
  9  8  1  0  0  0  0
 11 10  1  0  0  0  0
 12 14  2  0  0  0  0
 12 11  1  0  0  0  0
 13 11  1  0  0  0  0
 14  9  1  0  0  0  0
 15 14  1  0  0  0  0
 16  4  1  0  0  0  0
 17 16  2  0  0  0  0
 18 17  1  0  0  0  0
 19 18  2  0  0  0  0
 19 20  1  0  0  0  0
 20 21  2  0  0  0  0
 21 16  1  0  0  0  0
M  END
>  <Pose>
1

>  <Score>
-7.488

$$$$
