MODEL 1
REMARK VINA RESULT:    -7.488      0.000      0.000
REMARK INTER + INTRA:          -8.421
REMARK INTER:                  -8.363
REMARK INTRA:                  -0.057
REMARK UNBOUND:                -0.057
REMARK  2 active torsions:
REMARK  status: ('A' for Active; 'I' for Inactive)
REMARK    1  A    between atoms: C_4  and  C_7 
REMARK    2  A    between atoms: C_14  and  C_15 
ROOT
ATOM      1  S   UNK d   1     -39.656 -69.723  53.775  0.00  0.00    -0.025 SA
ATOM      2  C   UNK d   1     -41.149 -69.027  54.260  0.00  0.00     0.219 A 
ATOM      3  N   UNK d   1     -41.280 -68.047  53.366  0.00  0.00    -0.184 N 
ATOM      4  C   UNK d   1     -42.470 -67.445  53.704  0.00  0.00     0.205 A 
ATOM      5  N   UNK d   1     -42.998 -68.065  54.758  0.00  0.00    -0.125 NA
ATOM      6  N   UNK d   1     -42.208 -69.051  55.131  0.00  0.00    -0.120 NA
ATOM      7  N   UNK d   1     -40.378 -67.890  52.484  0.00  0.00    -0.154 NA
ATOM      8  C   UNK d   1     -39.322 -68.679  52.443  0.00  0.00     0.153 A 
ENDROOT
BRANCH   8   9
ATOM      9  C   UNK d   1     -38.176 -68.680  51.528  0.00  0.00     0.133 A 
ATOM     10  N   UNK d   1     -37.043 -69.379  51.666  0.00  0.00    -0.171 NA
ATOM     11  N   UNK d   1     -36.234 -69.118  50.626  0.00  0.00    -0.287 N 
ATOM     12  C   UNK d   1     -36.850 -68.242  49.808  0.00  0.00     0.131 A 
ATOM     13  H   UNK d   1     -35.285 -69.536  50.492  0.00  0.00     0.188 HD
ATOM     14  C   UNK d   1     -38.092 -67.963  50.386  0.00  0.00     0.061 A 
ATOM     15 Br   UNK d   1     -39.358 -66.784  49.636  0.00  0.00    -0.047 Br
ENDBRANCH   8   9
BRANCH   4  16
ATOM     16  C   UNK d   1     -43.084 -66.290  53.018  0.00  0.00     0.123 A 
ATOM     17  N   UNK d   1     -44.342 -66.351  52.543  0.00  0.00    -0.254 NA
ATOM     18  C   UNK d   1     -44.893 -65.288  51.917  0.00  0.00     0.136 A 
ATOM     19  C   UNK d   1     -44.179 -64.132  51.759  0.00  0.00     0.135 A 
ATOM     20  N   UNK d   1     -42.934 -64.085  52.237  0.00  0.00    -0.269 NA
ATOM     21  C   UNK d   1     -42.359 -65.134  52.865  0.00  0.00     0.151 A 
ENDBRANCH   4  16
TORSDOF 2
ENDMDL
