MODEL 1
REMARK VINA RESULT:    -5.570      0.000      0.000
REMARK INTER + INTRA:          -7.010
REMARK INTER:                  -6.547
REMARK INTRA:                  -0.463
REMARK UNBOUND:                -0.463
REMARK  3 active torsions:
REMARK  status: ('A' for Active; 'I' for Inactive)
REMARK    1  A    between atoms: C_6  and  C_13 
REMARK    2  A    between atoms: C_13  and  C_14 
REMARK    3  A    between atoms: C_13  and  C_26 
ROOT
ATOM      1  C   UNK d   1     -36.682 -63.808  47.715  0.00  0.00     0.063 C 
ENDROOT
BRANCH   1   2
ATOM      2  C   UNK d   1     -37.022 -62.348  47.820  0.00  0.00     0.184 C 
ATOM      3  C   UNK d   1     -38.463 -62.158  47.348  0.00  0.00     0.259 C 
ATOM      4  N   UNK d   1     -38.718 -62.438  45.953  0.00  0.00    -0.186 NA
ATOM      5  O   UNK d   1     -39.299 -61.786  48.170  0.00  0.00    -0.270 OA
ATOM      6  C   UNK d   1     -37.777 -62.266  45.083  0.00  0.00     0.200 A 
ATOM      7  S   UNK d   1     -37.756 -62.514  43.315  0.00  0.00    -0.032 SA
ATOM      8  N   UNK d   1     -36.488 -61.798  45.420  0.00  0.00    -0.197 N 
ATOM      9  C   UNK d   1     -36.062 -61.994  43.090  0.00  0.00     0.083 A 
ATOM     10  N   UNK d   1     -35.606 -61.659  44.383  0.00  0.00    -0.283 N 
ATOM     11  C   UNK d   1     -35.404 -61.946  41.935  0.00  0.00     0.052 C 
ATOM     12  H   UNK d   1     -34.592 -61.301  44.501  0.00  0.00     0.188 HD
ATOM     13  C   UNK d   1     -36.270 -61.512  46.832  0.00  0.00     0.259 C 
ATOM     14  O   UNK d   1     -35.475 -60.589  47.169  0.00  0.00    -0.270 OA
ENDBRANCH   1   2
BRANCH   1  15
ATOM     15  C   UNK d   1     -35.378 -64.244  48.252  0.00  0.00     0.184 C 
ATOM     16  C   UNK d   1     -34.228 -63.378  48.041  0.00  0.00     0.259 C 
ATOM     17  O   UNK d   1     -33.802 -62.639  48.992  0.00  0.00    -0.270 OA
ATOM     18  N   UNK d   1     -33.536 -63.328  46.766  0.00  0.00    -0.197 N 
ATOM     19  N   UNK d   1     -32.778 -62.320  46.264  0.00  0.00    -0.283 N 
ATOM     20  C   UNK d   1     -33.675 -64.482  45.968  0.00  0.00     0.200 A 
ATOM     21  C   UNK d   1     -32.196 -62.516  44.987  0.00  0.00     0.083 A 
ATOM     22  H   UNK d   1     -32.583 -61.383  46.762  0.00  0.00     0.188 HD
ATOM     23  C   UNK d   1     -31.426 -61.715  44.284  0.00  0.00     0.052 C 
ATOM     24  S   UNK d   1     -32.738 -64.148  44.487  0.00  0.00    -0.032 SA
ATOM     25  N   UNK d   1     -34.355 -65.517  46.312  0.00  0.00    -0.186 NA
ATOM     26  C   UNK d   1     -35.039 -65.562  47.575  0.00  0.00     0.259 C 
ATOM     27  O   UNK d   1     -35.375 -66.605  48.153  0.00  0.00    -0.270 OA
ENDBRANCH   1  15
BRANCH   1  28
ATOM     28  C   UNK d   1     -37.774 -64.661  48.264  0.00  0.00    -0.051 A 
ATOM     29  C   UNK d   1     -38.494 -65.507  47.453  0.00  0.00     0.009 A 
ATOM     30  C   UNK d   1     -39.503 -66.297  47.954  0.00  0.00     0.019 A 
ATOM     31  C   UNK d   1     -39.803 -66.244  49.297  0.00  0.00     0.011 A 
ATOM     32  C   UNK d   1     -39.097 -65.399  50.155  0.00  0.00     0.019 A 
ATOM     33 Br   UNK d   1     -41.200 -67.329  50.024  0.00  0.00    -0.051 Br
ATOM     34  C   UNK d   1     -38.092 -64.623  49.614  0.00  0.00     0.009 A 
ENDBRANCH   1  28
TORSDOF 3
ENDMDL
