/Users/jonathanwahrer/Desktop/Msc/3_Semester/Drug_Design_Praktikum/waehrer_HTS_screening/HTS_experiment/out/docking_results/vina_output/3e7o/1255_docked.pdbqt
 OpenBabel03192216153D

 34 38  0  0  1  0  0  0  0  0999 V2000
  -36.6820  -63.8080   47.7150 C   0  0  1  0  0  3  0  0  0  0  0  0
  -37.0220  -62.3480   47.8200 C   0  0  2  0  0  3  0  0  0  0  0  0
  -38.4630  -62.1580   47.3480 C   0  0  0  0  0  0  0  0  0  0  0  0
  -38.7180  -62.4380   45.9530 N   0  0  0  0  0  0  0  0  0  0  0  0
  -39.2990  -61.7860   48.1700 O   0  0  0  0  0  0  0  0  0  0  0  0
  -37.7770  -62.2660   45.0830 C   0  0  0  0  0  0  0  0  0  0  0  0
  -37.7560  -62.5140   43.3150 S   0  0  0  0  0  0  0  0  0  0  0  0
  -36.4880  -61.7980   45.4200 N   0  0  0  0  0  0  0  0  0  0  0  0
  -36.0620  -61.9940   43.0900 C   0  0  0  0  0  0  0  0  0  0  0  0
  -35.6060  -61.6590   44.3830 N   0  0  0  0  0  0  0  0  0  0  0  0
  -35.4040  -61.9460   41.9350 C   0  0  0  0  0  2  0  0  0  0  0  0
  -34.5920  -61.3010   44.5010 H   0  0  0  0  0  0  0  0  0  0  0  0
  -36.2700  -61.5120   46.8320 C   0  0  0  0  0  0  0  0  0  0  0  0
  -35.4750  -60.5890   47.1690 O   0  0  0  0  0  0  0  0  0  0  0  0
  -35.3780  -64.2440   48.2520 C   0  0  2  0  0  3  0  0  0  0  0  0
  -34.2280  -63.3780   48.0410 C   0  0  0  0  0  0  0  0  0  0  0  0
  -33.8020  -62.6390   48.9920 O   0  0  0  0  0  0  0  0  0  0  0  0
  -33.5360  -63.3280   46.7660 N   0  0  0  0  0  0  0  0  0  0  0  0
  -32.7780  -62.3200   46.2640 N   0  0  0  0  0  0  0  0  0  0  0  0
  -33.6750  -64.4820   45.9680 C   0  0  0  0  0  0  0  0  0  0  0  0
  -32.1960  -62.5160   44.9870 C   0  0  0  0  0  0  0  0  0  0  0  0
  -32.5830  -61.3830   46.7620 H   0  0  0  0  0  0  0  0  0  0  0  0
  -31.4260  -61.7150   44.2840 C   0  0  0  0  0  2  0  0  0  0  0  0
  -32.7380  -64.1480   44.4870 S   0  0  0  0  0  0  0  0  0  0  0  0
  -34.3550  -65.5170   46.3120 N   0  0  0  0  0  0  0  0  0  0  0  0
  -35.0390  -65.5620   47.5750 C   0  0  0  0  0  0  0  0  0  0  0  0
  -35.3750  -66.6050   48.1530 O   0  0  0  0  0  0  0  0  0  0  0  0
  -37.7740  -64.6610   48.2640 C   0  0  0  0  0  0  0  0  0  0  0  0
  -38.4940  -65.5070   47.4530 C   0  0  0  0  0  3  0  0  0  0  0  0
  -39.5030  -66.2970   47.9540 C   0  0  0  0  0  3  0  0  0  0  0  0
  -39.8030  -66.2440   49.2970 C   0  0  0  0  0  0  0  0  0  0  0  0
  -39.0970  -65.3990   50.1550 C   0  0  0  0  0  3  0  0  0  0  0  0
  -41.2000  -67.3290   50.0240 Br  0  0  0  0  0  0  0  0  0  0  0  0
  -38.0920  -64.6230   49.6140 C   0  0  0  0  0  3  0  0  0  0  0  0
  1 28  1  1  0  0  0
  2  1  1  6  0  0  0
  3  2  1  0  0  0  0
  3  5  2  0  0  0  0
  4  3  1  0  0  0  0
  6  8  1  0  0  0  0
  6  4  2  0  0  0  0
  7  6  1  0  0  0  0
  8 13  1  0  0  0  0
  9  7  1  0  0  0  0
  9 10  1  0  0  0  0
 10 12  1  0  0  0  0
 10  8  1  0  0  0  0
 11  9  2  0  0  0  0
 13 14  2  0  0  0  0
 13  2  1  0  0  0  0
 15  1  1  6  0  0  0
 16 15  1  0  0  0  0
 16 17  2  0  0  0  0
 18 16  1  0  0  0  0
 19 22  1  0  0  0  0
 19 18  1  0  0  0  0
 20 25  2  0  0  0  0
 20 18  1  0  0  0  0
 21 19  1  0  0  0  0
 23 21  2  0  0  0  0
 24 21  1  0  0  0  0
 24 20  1  0  0  0  0
 25 26  1  0  0  0  0
 26 27  2  0  0  0  0
 26 15  1  0  0  0  0
 28 34  1  0  0  0  0
 29 30  1  0  0  0  0
 29 28  2  0  0  0  0
 30 31  2  0  0  0  0
 31 33  1  0  0  0  0
 31 32  1  0  0  0  0
 34 32  2  0  0  0  0
M  END
>  <Pose>
1

>  <Score>
-5.570

$$$$
