MODEL 1
REMARK VINA RESULT:    -8.490      0.000      0.000
REMARK INTER + INTRA:         -12.290
REMARK INTER:                 -10.971
REMARK INTRA:                  -1.319
REMARK UNBOUND:                -1.319
REMARK  5 active torsions:
REMARK  status: ('A' for Active; 'I' for Inactive)
REMARK    1  A    between atoms: C_7  and  C_17 
REMARK    2  A    between atoms: C_10  and  N_11 
REMARK       I    between atoms: C_17  and  N_19 
REMARK    3  A    between atoms: N_19  and  C_20 
REMARK    4  A    between atoms: C_20  and  C_21 
REMARK    5  A    between atoms: C_22  and  O_28 
ROOT
ATOM      1  S   UNK d   1     -33.922 -66.088  49.819  0.00  0.00    -0.010 SA
ATOM      2  C   UNK d   1     -34.269 -67.575  50.596  0.00  0.00     0.201 A 
ATOM      3  N   UNK d   1     -33.517 -68.499  51.271  0.00  0.00    -0.183 NA
ATOM      4  C   UNK d   1     -34.082 -69.588  51.818  0.00  0.00     0.271 A 
ATOM      5  O   UNK d   1     -33.480 -70.477  52.448  0.00  0.00    -0.266 OA
ATOM      6  C   UNK d   1     -35.442 -69.688  51.645  0.00  0.00     0.114 A 
ATOM      7  C   UNK d   1     -36.198 -68.773  50.974  0.00  0.00     0.134 A 
ATOM      8  N   UNK d   1     -35.591 -67.670  50.427  0.00  0.00    -0.201 N 
ATOM      9  N   UNK d   1     -36.181 -66.727  49.800  0.00  0.00    -0.139 NA
ATOM     10  C   UNK d   1     -35.532 -65.698  49.332  0.00  0.00     0.192 A 
ENDROOT
BRANCH   7  11
ATOM     11  C   UNK d   1     -37.637 -69.012  50.884  0.00  0.00     0.270 C 
ATOM     12  O   UNK d   1     -38.061 -70.179  50.551  0.00  0.00    -0.266 OA
ATOM     13  N   UNK d   1     -38.630 -68.043  51.133  0.00  0.00    -0.351 N 
ATOM     14  H   UNK d   1     -38.383 -67.067  51.387  0.00  0.00     0.163 HD
BRANCH  13  15
ATOM     15  C   UNK d   1     -40.039 -68.404  51.025  0.00  0.00     0.164 C 
BRANCH  15  16
ATOM     16  C   UNK d   1     -40.754 -68.114  52.292  0.00  0.00    -0.006 A 
ATOM     17  C   UNK d   1     -40.602 -68.976  53.366  0.00  0.00     0.076 A 
ATOM     18  C   UNK d   1     -41.292 -68.738  54.529  0.00  0.00     0.039 A 
ATOM     19  C   UNK d   1     -42.137 -67.670  54.670  0.00  0.00     0.022 A 
ATOM     20  C   UNK d   1     -42.295 -66.805  53.604  0.00  0.00     0.011 A 
ATOM     21  C   UNK d   1     -41.596 -67.047  52.432  0.00  0.00     0.030 A 
ATOM     22 Br   UNK d   1     -43.449 -65.289  53.720  0.00  0.00    -0.051 Br
BRANCH  17  23
ATOM     23  O   UNK d   1     -39.750 -70.047  53.212  0.00  0.00    -0.355 OA
ATOM     24  C   UNK d   1     -38.909 -70.405  54.308  0.00  0.00     0.210 C 
ENDBRANCH  17  23
ENDBRANCH  15  16
ENDBRANCH  13  15
ENDBRANCH   7  11
BRANCH  10  25
ATOM     25  N   UNK d   1     -36.015 -64.533  48.622  0.00  0.00    -0.355 N 
ATOM     26  C   UNK d   1     -35.129 -63.737  47.862  0.00  0.00     0.151 C 
ATOM     27  C   UNK d   1     -35.854 -62.537  47.300  0.00  0.00     0.187 C 
ATOM     28  O   UNK d   1     -36.741 -62.035  48.256  0.00  0.00    -0.388 OA
ATOM     29  C   UNK d   1     -37.838 -62.894  48.395  0.00  0.00     0.187 C 
ATOM     30  C   UNK d   1     -37.409 -64.281  48.763  0.00  0.00     0.151 C 
ENDBRANCH  10  25
TORSDOF 5
ENDMDL
