/Users/jonathanwahrer/Desktop/Msc/3_Semester/Drug_Design_Praktikum/waehrer_HTS_screening/HTS_experiment/out/docking_results/vina_output/3e7o/1256_docked.pdbqt
 OpenBabel03192216163D

 30 33  0  0  0  0  0  0  0  0999 V2000
  -33.9220  -66.0880   49.8190 S   0  0  0  0  0  0  0  0  0  0  0  0
  -34.2690  -67.5750   50.5960 C   0  0  0  0  0  0  0  0  0  0  0  0
  -33.5170  -68.4990   51.2710 N   0  0  0  0  0  0  0  0  0  0  0  0
  -34.0820  -69.5880   51.8180 C   0  0  0  0  0  0  0  0  0  0  0  0
  -33.4800  -70.4770   52.4480 O   0  0  0  0  0  0  0  0  0  0  0  0
  -35.4420  -69.6880   51.6450 C   0  0  0  0  0  3  0  0  0  0  0  0
  -36.1980  -68.7730   50.9740 C   0  0  0  0  0  0  0  0  0  0  0  0
  -35.5910  -67.6700   50.4270 N   0  0  0  0  0  0  0  0  0  0  0  0
  -36.1810  -66.7270   49.8000 N   0  0  0  0  0  0  0  0  0  0  0  0
  -35.5320  -65.6980   49.3320 C   0  0  0  0  0  0  0  0  0  0  0  0
  -37.6370  -69.0120   50.8840 C   0  0  0  0  0  0  0  0  0  0  0  0
  -38.0610  -70.1790   50.5510 O   0  0  0  0  0  0  0  0  0  0  0  0
  -38.6300  -68.0430   51.1330 N   0  0  0  0  0  0  0  0  0  0  0  0
  -38.3830  -67.0670   51.3870 H   0  0  0  0  0  0  0  0  0  0  0  0
  -40.0390  -68.4040   51.0250 C   0  0  0  0  0  2  0  0  0  0  0  0
  -40.7540  -68.1140   52.2920 C   0  0  0  0  0  0  0  0  0  0  0  0
  -40.6020  -68.9760   53.3660 C   0  0  0  0  0  0  0  0  0  0  0  0
  -41.2920  -68.7380   54.5290 C   0  0  0  0  0  3  0  0  0  0  0  0
  -42.1370  -67.6700   54.6700 C   0  0  0  0  0  3  0  0  0  0  0  0
  -42.2950  -66.8050   53.6040 C   0  0  0  0  0  0  0  0  0  0  0  0
  -41.5960  -67.0470   52.4320 C   0  0  0  0  0  3  0  0  0  0  0  0
  -43.4490  -65.2890   53.7200 Br  0  0  0  0  0  0  0  0  0  0  0  0
  -39.7500  -70.0470   53.2120 O   0  0  0  0  0  0  0  0  0  0  0  0
  -38.9090  -70.4050   54.3080 C   0  0  0  0  0  1  0  0  0  0  0  0
  -36.0150  -64.5330   48.6220 N   0  0  0  0  0  0  0  0  0  0  0  0
  -35.1290  -63.7370   47.8620 C   0  0  0  0  0  2  0  0  0  0  0  0
  -35.8540  -62.5370   47.3000 C   0  0  0  0  0  2  0  0  0  0  0  0
  -36.7410  -62.0350   48.2560 O   0  0  0  0  0  0  0  0  0  0  0  0
  -37.8380  -62.8940   48.3950 C   0  0  0  0  0  2  0  0  0  0  0  0
  -37.4090  -64.2810   48.7630 C   0  0  0  0  0  2  0  0  0  0  0  0
  1  2  1  0  0  0  0
  2  3  2  0  0  0  0
  3  4  1  0  0  0  0
  4  5  2  0  0  0  0
  6  4  1  0  0  0  0
  7  6  2  0  0  0  0
  8  2  1  0  0  0  0
  8  7  1  0  0  0  0
  9  8  1  0  0  0  0
 10  9  2  0  0  0  0
 10  1  1  0  0  0  0
 11  7  1  0  0  0  0
 11 13  1  0  0  0  0
 12 11  2  0  0  0  0
 13 14  1  0  0  0  0
 15 13  1  0  0  0  0
 15 16  1  0  0  0  0
 16 21  2  0  0  0  0
 16 17  1  0  0  0  0
 17 18  2  0  0  0  0
 18 19  1  0  0  0  0
 20 22  1  0  0  0  0
 20 19  2  0  0  0  0
 21 20  1  0  0  0  0
 23 17  1  0  0  0  0
 23 24  1  0  0  0  0
 25 30  1  0  0  0  0
 25 10  1  0  0  0  0
 26 25  1  0  0  0  0
 27 26  1  0  0  0  0
 27 28  1  0  0  0  0
 28 29  1  0  0  0  0
 29 30  1  0  0  0  0
M  END
>  <Pose>
1

>  <Score>
-8.490

$$$$
