MODEL 1
REMARK VINA RESULT:    -7.901      0.000      0.000
REMARK INTER + INTRA:          -9.065
REMARK INTER:                  -8.825
REMARK INTRA:                  -0.240
REMARK UNBOUND:                -0.240
REMARK  2 active torsions:
REMARK  status: ('A' for Active; 'I' for Inactive)
REMARK    1  A    between atoms: C_3  and  C_8 
REMARK       I    between atoms: N_12  and  C_14 
REMARK    2  A    between atoms: C_14  and  C_16 
ROOT
ATOM      1  C   UNK d   1     -36.802 -64.756  47.501  0.00  0.00     0.273 C 
ATOM      2  N   UNK d   1     -36.707 -63.314  47.693  0.00  0.00     0.095 NA
ATOM      3  C   UNK d   1     -37.834 -62.604  48.080  0.00  0.00     0.290 C 
ATOM      4  C   UNK d   1     -38.933 -63.313  48.843  0.00  0.00     0.155 C 
ATOM      5  N   UNK d   1     -39.007 -64.683  48.579  0.00  0.00    -0.355 N 
ATOM      6  C   UNK d   1     -38.183 -65.223  47.540  0.00  0.00     0.165 C 
ATOM      7  C   UNK d   1     -39.830 -65.625  49.249  0.00  0.00     0.189 C 
ATOM      8  O   UNK d   1     -39.791 -66.805  48.675  0.00  0.00    -0.171 OA
ATOM      9  H   UNK d   1     -35.857 -63.077  48.243  0.00  0.00     0.316 HD
ENDROOT
BRANCH   7  10
ATOM     10  C   UNK d   1     -40.662 -65.549  50.395  0.00  0.00     0.038 A 
ATOM     11  C   UNK d   1     -41.618 -64.505  50.433  0.00  0.00     0.135 A 
ATOM     12  N   UNK d   1     -42.528 -64.438  51.405  0.00  0.00    -0.234 NA
ATOM     13  C   UNK d   1     -42.582 -65.344  52.383  0.00  0.00     0.192 A 
ATOM     14  C   UNK d   1     -41.684 -66.376  52.399  0.00  0.00     0.089 A 
ATOM     15  O   UNK d   1     -43.542 -65.254  53.397  0.00  0.00    -0.323 OA
ATOM     16  C   UNK d   1     -40.717 -66.482  51.402  0.00  0.00     0.051 A 
ATOM     17  N   UNK d   1     -41.754 -67.373  53.423  0.00  0.00    -0.322 N 
ATOM     18  C   UNK d   1     -42.776 -67.260  54.415  0.00  0.00     0.246 C 
ATOM     19  H   UNK d   1     -41.095 -68.165  53.457  0.00  0.00     0.169 HD
ATOM     20  O   UNK d   1     -43.226 -68.219  55.075  0.00  0.00    -0.271 OA
ATOM     21  C   UNK d   1     -43.332 -65.895  54.666  0.00  0.00     0.280 C 
ENDBRANCH   7  10
BRANCH   1  22
ATOM     22  C   UNK d   1     -35.924 -65.336  48.578  0.00  0.00    -0.002 A 
ATOM     23  C   UNK d   1     -35.360 -66.600  48.347  0.00  0.00     0.042 A 
ATOM     24 Cl   UNK d   1     -35.867 -67.456  46.876  0.00  0.00    -0.084 Cl
ATOM     25  C   UNK d   1     -34.451 -67.188  49.200  0.00  0.00     0.024 A 
ATOM     26  C   UNK d   1     -34.067 -66.507  50.351  0.00  0.00     0.002 A 
ATOM     27  C   UNK d   1     -34.624 -65.261  50.577  0.00  0.00     0.001 A 
ATOM     28  C   UNK d   1     -35.535 -64.682  49.711  0.00  0.00     0.011 A 
ENDBRANCH   1  22
TORSDOF 2
ENDMDL
