/Users/jonathanwahrer/Desktop/Msc/3_Semester/Drug_Design_Praktikum/waehrer_HTS_screening/HTS_experiment/out/docking_results/vina_output/3e7o/1271_docked.pdbqt
 OpenBabel03192216163D

 35 38  0  0  0  0  0  0  0  0999 V2000
  -40.2130  -64.1580   49.1020 C   0  0  0  0  0  0  0  0  0  0  0  0
  -40.7980  -63.0300   48.6790 N   0  0  0  0  0  0  0  0  0  0  0  0
  -39.8400  -62.2560   48.2370 N   0  0  0  0  0  0  0  0  0  0  0  0
  -38.6590  -62.8550   48.3660 N   0  0  0  0  0  0  0  0  0  0  0  0
  -38.8270  -64.0530   48.9030 C   0  0  0  0  0  0  0  0  0  0  0  0
  -40.9310  -65.2900   49.6570 C   0  0  0  0  0  0  0  0  0  0  0  0
  -41.8110  -65.1690   50.7590 N   0  0  0  0  0  0  0  0  0  0  0  0
  -41.9870  -64.2470   51.2410 H   0  0  0  0  0  0  0  0  0  0  0  0
  -40.7630  -66.4160   49.1360 O   0  0  0  0  0  0  0  0  0  0  0  0
  -42.5020  -66.2630   51.2800 N   0  0  0  0  0  0  0  0  0  0  0  0
  -43.0200  -66.9640   50.7240 H   0  0  0  0  0  0  0  0  0  0  0  0
  -42.5000  -66.4470   52.7120 C   0  0  0  0  0  0  0  0  0  0  0  0
  -43.2860  -65.6940   53.4400 C   0  0  0  0  0  2  0  0  0  0  0  0
  -41.6170  -67.4460   53.2800 C   0  0  0  0  0  0  0  0  0  0  0  0
  -40.6260  -68.0310   52.4930 C   0  0  0  0  0  3  0  0  0  0  0  0
  -39.7730  -68.9680   53.0230 C   0  0  0  0  0  0  0  0  0  0  0  0
  -38.4190  -69.7760   51.9590 Br  0  0  0  0  0  0  0  0  0  0  0  0
  -39.8620  -69.3650   54.3460 C   0  0  0  0  0  3  0  0  0  0  0  0
  -40.8260  -68.8000   55.1240 C   0  0  0  0  0  3  0  0  0  0  0  0
  -41.6890  -67.8480   54.5820 C   0  0  0  0  0  3  0  0  0  0  0  0
  -37.9060  -65.0950   49.2970 C   0  0  0  0  0  2  0  0  0  0  0  0
  -37.1550  -65.7260   48.2300 N   0  0  0  0  0  0  0  0  0  0  0  0
  -35.7220  -65.6690   48.5030 C   0  0  0  0  0  2  0  0  0  0  0  0
  -35.3990  -66.0990   49.9170 C   0  0  0  0  0  2  0  0  0  0  0  0
  -35.9270  -67.5010   50.1640 C   0  0  0  0  0  2  0  0  0  0  0  0
  -36.5840  -68.0530   48.9310 C   0  0  0  0  0  2  0  0  0  0  0  0
  -37.4800  -67.1490   48.1840 C   0  0  0  0  0  2  0  0  0  0  0  0
  -37.4320  -62.2550   47.9980 C   0  0  0  0  0  0  0  0  0  0  0  0
  -36.3340  -62.2590   48.8040 N   0  0  0  0  0  0  0  0  0  0  0  0
  -35.3890  -61.6300   48.1800 O   0  0  0  0  0  0  0  0  0  0  0  0
  -35.7810  -61.2110   47.0310 N   0  0  0  0  0  0  0  0  0  0  0  0
  -37.0590  -61.5810   46.8730 C   0  0  0  0  0  0  0  0  0  0  0  0
  -37.8880  -61.3360   45.7680 N   0  0  0  0  0  0  0  0  0  0  0  0
  -37.9320  -60.4500   45.2170 H   0  0  0  0  0  0  0  0  0  0  0  0
  -38.5300  -62.0930   45.4480 H   0  0  0  0  0  0  0  0  0  0  0  0
  1  6  1  0  0  0  0
  2  1  1  0  0  0  0
  3  4  1  0  0  0  0
  3  2  2  0  0  0  0
  4  5  1  0  0  0  0
  5  1  2  0  0  0  0
  5 21  1  0  0  0  0
  6  7  1  0  0  0  0
  7  8  1  0  0  0  0
  7 10  1  0  0  0  0
  9  6  2  0  0  0  0
 10 12  1  0  0  0  0
 11 10  1  0  0  0  0
 12 14  1  0  0  0  0
 12 13  2  0  0  0  0
 14 20  1  0  0  0  0
 15 16  1  0  0  0  0
 15 14  2  0  0  0  0
 16 18  2  0  0  0  0
 17 16  1  0  0  0  0
 18 19  1  0  0  0  0
 20 19  2  0  0  0  0
 22 23  1  0  0  0  0
 22 21  1  0  0  0  0
 23 24  1  0  0  0  0
 24 25  1  0  0  0  0
 26 25  1  0  0  0  0
 27 22  1  0  0  0  0
 27 26  1  0  0  0  0
 28  4  1  0  0  0  0
 28 29  2  0  0  0  0
 30 29  1  0  0  0  0
 31 30  1  0  0  0  0
 32 31  2  0  0  0  0
 32 28  1  0  0  0  0
 33 32  1  0  0  0  0
 34 33  1  0  0  0  0
 35 33  1  0  0  0  0
M  END
>  <Pose>
1

>  <Score>
-8.337

$$$$
