MODEL 1
REMARK VINA RESULT:    -8.337      0.000      0.000
REMARK INTER + INTRA:         -13.469
REMARK INTER:                 -11.993
REMARK INTRA:                  -1.476
REMARK UNBOUND:                -1.476
REMARK  8 active torsions:
REMARK  status: ('A' for Active; 'I' for Inactive)
REMARK    1  A    between atoms: C_4  and  C_8 
REMARK    2  A    between atoms: C_8  and  N_10 
REMARK    3  A    between atoms: N_10  and  N_11 
REMARK       I    between atoms: N_11  and  C_12 
REMARK    4  A    between atoms: C_12  and  C_14 
REMARK    5  A    between atoms: N_17  and  C_26 
REMARK    6  A    between atoms: C_18  and  C_19 
REMARK    7  A    between atoms: C_19  and  N_20 
REMARK    8  A    between atoms: C_30  and  N_31 
ROOT
ATOM      1  C   UNK d   1     -40.213 -64.158  49.102  0.00  0.00     0.176 A 
ATOM      2  N   UNK d   1     -40.798 -63.030  48.679  0.00  0.00    -0.124 NA
ATOM      3  N   UNK d   1     -39.840 -62.256  48.237  0.00  0.00    -0.058 NA
ATOM      4  N   UNK d   1     -38.659 -62.855  48.366  0.00  0.00    -0.191 N 
ATOM      5  C   UNK d   1     -38.827 -64.053  48.903  0.00  0.00     0.104 A 
ENDROOT
BRANCH   1   6
ATOM      6  C   UNK d   1     -40.931 -65.290  49.657  0.00  0.00     0.292 C 
ATOM      7  N   UNK d   1     -41.811 -65.169  50.759  0.00  0.00    -0.264 N 
ATOM      8  H   UNK d   1     -41.987 -64.247  51.241  0.00  0.00     0.190 HD
ATOM      9  O   UNK d   1     -40.763 -66.416  49.136  0.00  0.00    -0.264 OA
BRANCH   7  10
ATOM     10  N   UNK d   1     -42.502 -66.263  51.280  0.00  0.00    -0.298 N 
ATOM     11  H   UNK d   1     -43.020 -66.964  50.724  0.00  0.00     0.187 HD
BRANCH  10  12
ATOM     12  C   UNK d   1     -42.500 -66.447  52.712  0.00  0.00     0.049 C 
ATOM     13  C   UNK d   1     -43.286 -65.694  53.440  0.00  0.00     0.045 C 
BRANCH  12  14
ATOM     14  C   UNK d   1     -41.617 -67.446  53.280  0.00  0.00    -0.008 A 
ATOM     15  C   UNK d   1     -40.626 -68.031  52.493  0.00  0.00     0.032 A 
ATOM     16  C   UNK d   1     -39.773 -68.968  53.023  0.00  0.00     0.011 A 
ATOM     17 Br   UNK d   1     -38.419 -69.776  51.959  0.00  0.00    -0.051 Br
ATOM     18  C   UNK d   1     -39.862 -69.365  54.346  0.00  0.00     0.019 A 
ATOM     19  C   UNK d   1     -40.826 -68.800  55.124  0.00  0.00     0.002 A 
ATOM     20  C   UNK d   1     -41.689 -67.848  54.582  0.00  0.00     0.014 A 
ENDBRANCH  12  14
ENDBRANCH  10  12
ENDBRANCH   7  10
ENDBRANCH   1   6
BRANCH   5  21
ATOM     21  C   UNK d   1     -37.906 -65.095  49.297  0.00  0.00     0.334 C 
BRANCH  21  22
ATOM     22  N   UNK d   1     -37.155 -65.726  48.230  0.00  0.00     0.094 NA
ATOM     23  C   UNK d   1     -35.722 -65.669  48.503  0.00  0.00     0.273 C 
ATOM     24  C   UNK d   1     -35.399 -66.099  49.917  0.00  0.00     0.030 C 
ATOM     25  C   UNK d   1     -35.927 -67.501  50.164  0.00  0.00     0.003 C 
ATOM     26  C   UNK d   1     -36.584 -68.053  48.931  0.00  0.00     0.030 C 
ATOM     27  C   UNK d   1     -37.480 -67.149  48.184  0.00  0.00     0.273 C 
ENDBRANCH  21  22
ENDBRANCH   5  21
BRANCH   4  28
ATOM     28  C   UNK d   1     -37.432 -62.255  47.998  0.00  0.00     0.229 A 
ATOM     29  N   UNK d   1     -36.334 -62.259  48.804  0.00  0.00    -0.081 NA
ATOM     30  O   UNK d   1     -35.389 -61.630  48.180  0.00  0.00    -0.103 OA
ATOM     31  N   UNK d   1     -35.781 -61.211  47.031  0.00  0.00    -0.083 NA
ATOM     32  C   UNK d   1     -37.059 -61.581  46.873  0.00  0.00     0.201 A 
BRANCH  32  33
ATOM     33  N   UNK d   1     -37.888 -61.336  45.768  0.00  0.00    -0.379 N 
ATOM     34  H   UNK d   1     -37.932 -60.450  45.217  0.00  0.00     0.158 HD
ATOM     35  H   UNK d   1     -38.530 -62.093  45.448  0.00  0.00     0.158 HD
ENDBRANCH  32  33
ENDBRANCH   4  28
TORSDOF 8
ENDMDL
