MODEL 1
REMARK VINA RESULT:    -7.153      0.000      0.000
REMARK INTER + INTRA:         -11.896
REMARK INTER:                 -10.080
REMARK INTRA:                  -1.816
REMARK UNBOUND:                -1.816
REMARK  7 active torsions:
REMARK  status: ('A' for Active; 'I' for Inactive)
REMARK    1  A    between atoms: C_4  and  C_8 
REMARK    2  A    between atoms: N_9  and  C_29 
REMARK    3  A    between atoms: C_15  and  C_17 
REMARK    4  A    between atoms: N_19  and  C_22 
REMARK    5  A    between atoms: C_29  and  C_30 
REMARK    6  A    between atoms: C_30  and  C_31 
REMARK    7  A    between atoms: C_31  and  N_32 
ROOT
ATOM      1  C   UNK d   1     -36.335 -66.034  47.725  0.00  0.00     0.161 C 
ATOM      2  N   UNK d   1     -35.288 -66.843  48.226  0.00  0.00    -0.332 N 
ATOM      3  C   UNK d   1     -35.735 -67.547  49.374  0.00  0.00     0.295 C 
ATOM      4  O   UNK d   1     -35.004 -68.283  50.107  0.00  0.00    -0.264 OA
ATOM      5  C   UNK d   1     -37.147 -67.287  49.552  0.00  0.00     0.250 C 
ATOM      6  O   UNK d   1     -37.797 -67.791  50.507  0.00  0.00    -0.282 OA
ATOM      7  C   UNK d   1     -37.561 -66.399  48.483  0.00  0.00     0.062 C 
ATOM      8  C   UNK d   1     -38.792 -65.981  48.295  0.00  0.00     0.133 C 
ATOM      9  O   UNK d   1     -39.048 -65.085  47.282  0.00  0.00    -0.190 OA
ENDROOT
BRANCH   1  10
ATOM     10  C   UNK d   1     -36.009 -64.610  47.858  0.00  0.00    -0.029 A 
ATOM     11  C   UNK d   1     -35.703 -63.896  46.712  0.00  0.00     0.028 A 
ATOM     12  C   UNK d   1     -35.398 -62.570  46.662  0.00  0.00     0.011 A 
ATOM     13 Br   UNK d   1     -34.984 -61.634  45.050  0.00  0.00    -0.051 Br
ATOM     14  C   UNK d   1     -35.396 -61.880  47.885  0.00  0.00     0.019 A 
ATOM     15  C   UNK d   1     -35.697 -62.566  49.049  0.00  0.00     0.002 A 
ATOM     16  C   UNK d   1     -36.004 -63.913  49.063  0.00  0.00     0.009 A 
ENDBRANCH   1  10
BRANCH   8  17
ATOM     17  C   UNK d   1     -39.875 -66.449  49.123  0.00  0.00     0.045 A 
ATOM     18  C   UNK d   1     -40.318 -65.790  50.283  0.00  0.00     0.047 A 
ATOM     19  N   UNK d   1     -41.358 -66.459  50.797  0.00  0.00    -0.238 N 
ATOM     20  C   UNK d   1     -39.697 -64.544  50.818  0.00  0.00     0.071 C 
ATOM     21  N   UNK d   1     -41.578 -67.496  50.010  0.00  0.00    -0.179 NA
ATOM     22  C   UNK d   1     -40.708 -67.526  48.990  0.00  0.00     0.155 A 
BRANCH  19  23
ATOM     23  C   UNK d   1     -42.107 -66.125  51.957  0.00  0.00     0.058 A 
ATOM     24  C   UNK d   1     -42.753 -64.897  52.004  0.00  0.00     0.031 A 
ATOM     25  C   UNK d   1     -43.507 -64.511  53.095  0.00  0.00     0.002 A 
ATOM     26  C   UNK d   1     -43.650 -65.350  54.201  0.00  0.00     0.000 A 
ATOM     27  C   UNK d   1     -43.006 -66.573  54.154  0.00  0.00     0.002 A 
ATOM     28  C   UNK d   1     -42.263 -66.933  53.059  0.00  0.00     0.031 A 
ENDBRANCH  19  23
ENDBRANCH   8  17
BRANCH   2  29
ATOM     29  C   UNK d   1     -33.919 -66.988  47.656  0.00  0.00     0.129 C 
BRANCH  29  30
ATOM     30  C   UNK d   1     -32.928 -66.264  48.530  0.00  0.00     0.048 C 
BRANCH  30  31
ATOM     31  C   UNK d   1     -31.686 -65.850  47.807  0.00  0.00     0.235 C 
BRANCH  31  32
ATOM     32  N   UNK d   1     -31.493 -64.448  47.635  0.00  0.00    -0.079 N 
ATOM     33  C   UNK d   1     -31.888 -63.902  46.379  0.00  0.00     0.269 C 
ATOM     34  C   UNK d   1     -32.207 -63.706  48.687  0.00  0.00     0.269 C 
ATOM     35  H   UNK d   1     -30.468 -64.207  47.798  0.00  0.00     0.278 HD
ENDBRANCH  31  32
ENDBRANCH  30  31
ENDBRANCH  29  30
ENDBRANCH   2  29
TORSDOF 7
ENDMDL
