/Users/jonathanwahrer/Desktop/Msc/3_Semester/Drug_Design_Praktikum/waehrer_HTS_screening/HTS_experiment/out/docking_results/vina_output/3e7o/1285_docked.pdbqt
 OpenBabel03192216183D

 34 37  0  0  1  0  0  0  0  0999 V2000
  -42.2610  -66.6930   51.3340 C   0  0  1  0  0  3  0  0  0  0  0  0
  -43.2670  -65.7960   51.8680 N   0  0  0  0  0  0  0  0  0  0  0  0
  -42.6030  -64.5860   52.2930 C   0  0  0  0  0  0  0  0  0  0  0  0
  -42.9840  -63.7680   53.1380 O   0  0  0  0  0  0  0  0  0  0  0  0
  -41.3780  -64.5400   51.5010 C   0  0  0  0  0  0  0  0  0  0  0  0
  -40.4590  -63.6680   51.5190 O   0  0  0  0  0  0  0  0  0  0  0  0
  -41.3530  -65.7100   50.6380 C   0  0  0  0  0  0  0  0  0  0  0  0
  -40.6630  -65.9000   49.5250 C   0  0  0  0  0  0  0  0  0  0  0  0
  -40.7690  -67.1720   48.8950 O   0  0  0  0  0  1  0  0  0  0  0  0
  -41.5160  -67.4520   52.3470 C   0  0  0  0  0  0  0  0  0  0  0  0
  -40.3330  -68.0830   51.9500 C   0  0  0  0  0  3  0  0  0  0  0  0
  -39.5970  -68.8000   52.8410 C   0  0  0  0  0  0  0  0  0  0  0  0
  -37.9840  -69.6540   52.2770 Br  0  0  0  0  0  0  0  0  0  0  0  0
  -39.9940  -68.9210   54.1510 C   0  0  0  0  0  3  0  0  0  0  0  0
  -41.1520  -68.3120   54.5730 C   0  0  0  0  0  3  0  0  0  0  0  0
  -41.9050  -67.5800   53.6630 C   0  0  0  0  0  3  0  0  0  0  0  0
  -39.8400  -64.8630   48.9550 C   0  0  0  0  0  0  0  0  0  0  0  0
  -38.4960  -64.7400   49.0000 N   0  0  0  0  0  0  0  0  0  0  0  0
  -38.1430  -63.6330   48.3010 C   0  0  0  0  0  0  0  0  0  0  0  0
  -37.5100  -65.4440   49.5810 C   0  0  0  0  0  3  0  0  0  0  0  0
  -39.2630  -63.0410   47.8020 N   0  0  0  0  0  0  0  0  0  0  0  0
  -36.8560  -63.1900   48.1450 C   0  0  0  0  0  0  0  0  0  0  0  0
  -40.3010  -63.8070   48.2120 C   0  0  0  0  0  0  0  0  0  0  0  0
  -41.7260  -63.5210   47.8890 C   0  0  0  0  0  1  0  0  0  0  0  0
  -35.8520  -63.9190   48.7420 C   0  0  0  0  0  3  0  0  0  0  0  0
  -36.5240  -61.9650   47.3610 C   0  0  0  0  0  1  0  0  0  0  0  0
  -36.2060  -65.0450   49.4570 C   0  0  0  0  0  3  0  0  0  0  0  0
  -44.6930  -66.0530   51.9720 C   0  0  0  0  0  2  0  0  0  0  0  0
  -45.1610  -66.3630   53.3530 C   0  0  0  0  0  2  0  0  0  0  0  0
  -45.9900  -67.6170   53.4740 C   0  0  0  0  0  2  0  0  0  0  0  0
  -47.2040  -67.3310   54.2010 N   0  0  0  0  0  4  0  0  0  0  0  0
  -47.9390  -66.2550   53.5610 C   0  0  0  0  0  1  0  0  0  0  0  0
  -48.0570  -68.5020   54.1490 C   0  0  0  0  0  1  0  0  0  0  0  0
  -47.0310  -67.1420   55.2120 H   0  0  0  0  0  0  0  0  0  0  0  0
  1  2  1  0  0  0  0
  1 10  1  1  0  0  0
  2 28  1  0  0  0  0
  2  3  1  0  0  0  0
  3  4  2  0  0  0  0
  5  6  2  0  0  0  0
  5  3  1  0  0  0  0
  7  1  1  0  0  0  0
  7  5  1  0  0  0  0
  8  7  2  0  0  0  0
  9  8  1  0  0  0  0
 10 16  1  0  0  0  0
 11 10  2  0  0  0  0
 11 12  1  0  0  0  0
 12 14  2  0  0  0  0
 13 12  1  0  0  0  0
 14 15  1  0  0  0  0
 16 15  2  0  0  0  0
 17 18  1  0  0  0  0
 17  8  1  0  0  0  0
 18 20  1  0  0  0  0
 19 18  1  0  0  0  0
 21 23  1  0  0  0  0
 21 19  2  0  0  0  0
 22 19  1  0  0  0  0
 22 25  2  0  0  0  0
 23 17  2  0  0  0  0
 24 23  1  0  0  0  0
 25 27  1  0  0  0  0
 26 22  1  0  0  0  0
 27 20  2  0  0  0  0
 28 29  1  0  0  0  0
 29 30  1  0  0  0  0
 30 31  1  0  0  0  0
 31 34  1  0  0  0  0
 32 31  1  0  0  0  0
 33 31  1  0  0  0  0
M  END
>  <Pose>
1

>  <Score>
-8.800

$$$$
