MODEL 1
REMARK VINA RESULT:    -7.882      0.000      0.000
REMARK INTER + INTRA:          -8.497
REMARK INTER:                  -8.343
REMARK INTRA:                  -0.154
REMARK UNBOUND:                -0.154
REMARK  1 active torsions:
REMARK  status: ('A' for Active; 'I' for Inactive)
REMARK    1  A    between atoms: C_5  and  C_8 
ROOT
ATOM      1  C   UNK d   1     -41.860 -66.581  51.570  0.00  0.00     0.102 A 
ATOM      2  C   UNK d   1     -40.998 -67.566  52.184  0.00  0.00     0.068 A 
ATOM      3  C   UNK d   1     -41.132 -67.901  53.503  0.00  0.00     0.124 A 
ATOM      4  N   UNK d   1     -42.140 -67.319  54.338  0.00  0.00    -0.343 N 
ATOM      5  C   UNK d   1     -42.995 -66.372  53.711  0.00  0.00     0.048 A 
ATOM      6  C   UNK d   1     -42.890 -66.038  52.455  0.00  0.00     0.055 A 
ATOM      7  C   UNK d   1     -43.966 -65.051  52.129  0.00  0.00     0.292 A 
ATOM      8  O   UNK d   1     -44.111 -64.547  50.975  0.00  0.00    -0.259 OA
ATOM      9  O   UNK d   1     -44.664 -64.867  53.277  0.00  0.00    -0.312 OA
ATOM     10  C   UNK d   1     -44.140 -65.595  54.335  0.00  0.00     0.237 A 
ATOM     11  N   UNK d   1     -40.287 -68.832  54.051  0.00  0.00    -0.289 N 
ATOM     12  C   UNK d   1     -39.337 -69.412  53.309  0.00  0.00     0.332 A 
ATOM     13  O   UNK d   1     -38.570 -70.267  53.835  0.00  0.00    -0.246 OA
ATOM     14  N   UNK d   1     -39.214 -69.076  52.014  0.00  0.00    -0.270 N 
ATOM     15  C   UNK d   1     -39.992 -68.184  51.406  0.00  0.00     0.262 A 
ATOM     16  O   UNK d   1     -39.884 -67.864  50.196  0.00  0.00    -0.267 OA
ATOM     17  C   UNK d   1     -38.160 -69.737  51.241  0.00  0.00     0.164 C 
ATOM     18  C   UNK d   1     -40.480 -69.145  55.460  0.00  0.00     0.163 C 
ATOM     19  H   UNK d   1     -42.207 -67.599  55.333  0.00  0.00     0.167 HD
ENDROOT
BRANCH   1  20
ATOM     20  C   UNK d   1     -41.189 -65.555  50.777  0.00  0.00    -0.045 A 
ATOM     21  C   UNK d   1     -40.366 -64.623  51.336  0.00  0.00     0.009 A 
ATOM     22  C   UNK d   1     -39.737 -63.644  50.547  0.00  0.00     0.019 A 
ATOM     23  C   UNK d   1     -39.953 -63.626  49.193  0.00  0.00     0.011 A 
ATOM     24 Br   UNK d   1     -39.115 -62.307  48.073  0.00  0.00    -0.051 Br
ATOM     25  C   UNK d   1     -40.774 -64.554  48.622  0.00  0.00     0.019 A 
ATOM     26  C   UNK d   1     -41.398 -65.528  49.421  0.00  0.00     0.009 A 
ENDBRANCH   1  20
TORSDOF 1
ENDMDL
