MODEL 1
REMARK VINA RESULT:    -7.637      0.000      0.000
REMARK INTER + INTRA:         -12.108
REMARK INTER:                 -10.762
REMARK INTRA:                  -1.347
REMARK UNBOUND:                -1.347
REMARK  8 active torsions:
REMARK  status: ('A' for Active; 'I' for Inactive)
REMARK    1  A    between atoms: C_3  and  O_32 
REMARK    2  A    between atoms: C_6  and  C_8 
REMARK    3  A    between atoms: N_9  and  N_10 
REMARK       I    between atoms: N_10  and  C_11 
REMARK    4  A    between atoms: C_11  and  C_13 
REMARK    5  A    between atoms: N_14  and  C_25 
REMARK    6  A    between atoms: C_17  and  C_18 
REMARK    7  A    between atoms: C_18  and  N_19 
REMARK    8  A    between atoms: C_29  and  N_30 
ROOT
ATOM      1  C   UNK d   1     -37.246 -64.328  47.556  0.00  0.00     0.160 A 
ATOM      2  N   UNK d   1     -36.033 -64.628  46.990  0.00  0.00    -0.184 N 
ATOM      3  N   UNK d   1     -35.908 -63.808  45.967  0.00  0.00    -0.058 NA
ATOM      4  N   UNK d   1     -36.931 -63.027  45.848  0.00  0.00    -0.132 NA
ATOM      5  C   UNK d   1     -37.822 -63.315  46.838  0.00  0.00     0.121 A 
ENDROOT
BRANCH   1   6
ATOM      6  C   UNK d   1     -37.714 -65.055  48.729  0.00  0.00     0.292 C 
ATOM      7  N   UNK d   1     -38.376 -66.303  48.744  0.00  0.00    -0.242 N 
ATOM      8  H   UNK d   1     -38.620 -66.879  47.908  0.00  0.00     0.192 HD
ATOM      9  O   UNK d   1     -37.530 -64.550  49.902  0.00  0.00    -0.264 OA
BRANCH   7  10
ATOM     10  N   UNK d   1     -38.741 -66.818  50.033  0.00  0.00    -0.183 NA
ATOM     11  C   UNK d   1     -39.954 -67.075  50.333  0.00  0.00     0.150 C 
BRANCH  11  12
ATOM     12  C   UNK d   1     -40.327 -67.602  51.654  0.00  0.00    -0.014 A 
ATOM     13  C   UNK d   1     -39.614 -68.601  52.240  0.00  0.00     0.035 A 
ATOM     14  C   UNK d   1     -39.965 -69.096  53.482  0.00  0.00     0.046 A 
ATOM     15  C   UNK d   1     -41.045 -68.597  54.165  0.00  0.00     0.100 A 
ATOM     16 Br   UNK d   1     -38.948 -70.508  54.301  0.00  0.00    -0.048 Br
ATOM     17  C   UNK d   1     -41.772 -67.584  53.574  0.00  0.00     0.046 A 
ATOM     18 Br   UNK d   1     -43.277 -66.882  54.515  0.00  0.00    -0.048 Br
ATOM     19  C   UNK d   1     -41.413 -67.096  52.333  0.00  0.00     0.035 A 
BRANCH  15  20
ATOM     20  O   UNK d   1     -41.367 -69.119  55.410  0.00  0.00    -0.358 OA
ATOM     21  H   UNK d   1     -42.209 -69.635  55.592  0.00  0.00     0.217 HD
ENDBRANCH  15  20
ENDBRANCH  11  12
ENDBRANCH   7  10
ENDBRANCH   1   6
BRANCH   2  22
ATOM     22  C   UNK d   1     -35.113 -65.611  47.417  0.00  0.00     0.230 A 
ATOM     23  N   UNK d   1     -34.084 -65.510  48.294  0.00  0.00    -0.081 NA
ATOM     24  O   UNK d   1     -33.503 -66.652  48.390  0.00  0.00    -0.103 OA
ATOM     25  N   UNK d   1     -34.056 -67.551  47.639  0.00  0.00    -0.083 NA
ATOM     26  C   UNK d   1     -35.084 -66.929  47.001  0.00  0.00     0.201 A 
BRANCH  26  27
ATOM     27  N   UNK d   1     -35.953 -67.565  46.079  0.00  0.00    -0.379 N 
ATOM     28  H   UNK d   1     -36.304 -67.008  45.278  0.00  0.00     0.158 HD
ATOM     29  H   UNK d   1     -36.257 -68.553  46.156  0.00  0.00     0.158 HD
ENDBRANCH  26  27
ENDBRANCH   2  22
BRANCH   5  30
ATOM     30  C   UNK d   1     -39.123 -62.698  47.093  0.00  0.00     0.336 C 
BRANCH  30  31
ATOM     31  N   UNK d   1     -40.258 -63.524  46.708  0.00  0.00     0.098 N 
ATOM     32  C   UNK d   1     -40.995 -63.948  47.891  0.00  0.00     0.299 C 
ATOM     33  C   UNK d   1     -42.100 -62.989  48.235  0.00  0.00     0.198 C 
ATOM     34  O   UNK d   1     -41.917 -61.713  47.734  0.00  0.00    -0.388 OA
ATOM     35  C   UNK d   1     -41.792 -61.649  46.355  0.00  0.00     0.198 C 
ATOM     36  C   UNK d   1     -41.143 -62.875  45.772  0.00  0.00     0.299 C 
ENDBRANCH  30  31
ENDBRANCH   5  30
TORSDOF 8
ENDMDL
