/Users/jonathanwahrer/Desktop/Msc/3_Semester/Drug_Design_Praktikum/waehrer_HTS_screening/HTS_experiment/out/docking_results/vina_output/3e7o/1300_docked.pdbqt
 OpenBabel03192216183D

 22 25  0  0  1  0  0  0  0  0999 V2000
  -42.5470  -66.6730   53.2450 N   0  0  0  0  0  0  0  0  0  0  0  0
  -43.5490  -67.2520   54.0600 C   0  0  0  0  0  0  0  0  0  0  0  0
  -43.4890  -68.3530   54.6450 O   0  0  0  0  0  0  0  0  0  0  0  0
  -44.7270  -66.3610   54.1410 C   0  0  2  0  0  3  0  0  0  0  0  0
  -45.7050  -66.8380   53.0890 C   0  0  2  0  0  3  0  0  0  0  0  0
  -45.0520  -66.3660   51.9190 O   0  0  0  0  0  0  0  0  0  0  0  0
  -45.0770  -64.9910   52.2740 C   0  0  2  0  0  3  0  0  0  0  0  0
  -44.2680  -65.0350   53.5420 C   0  0  2  0  0  3  0  0  0  0  0  0
  -42.8540  -65.2780   53.1790 C   0  0  0  0  0  0  0  0  0  0  0  0
  -42.0190  -64.3750   52.8500 O   0  0  0  0  0  0  0  0  0  0  0  0
  -46.5230  -64.8260   52.5330 C   0  0  0  0  0  2  0  0  0  0  0  0
  -46.9140  -65.9770   53.0750 C   0  0  0  0  0  2  0  0  0  0  0  0
  -41.4330  -67.2570   52.5870 C   0  0  0  0  0  0  0  0  0  0  0  0
  -40.4440  -67.9120   53.2850 C   0  0  0  0  0  0  0  0  0  0  0  0
  -40.6510  -68.0060   55.1870 Br  0  0  0  0  0  0  0  0  0  0  0  0
  -39.3380  -68.4880   52.6650 C   0  0  0  0  0  3  0  0  0  0  0  0
  -39.1890  -68.4220   51.2930 C   0  0  0  0  0  0  0  0  0  0  0  0
  -40.1840  -67.7640   50.5900 C   0  0  0  0  0  3  0  0  0  0  0  0
  -41.2760  -67.1950   51.2020 C   0  0  0  0  0  3  0  0  0  0  0  0
  -38.0690  -68.9990   50.6330 N   0  0  0  0  0  0  0  0  0  0  0  0
  -37.8750  -70.2210   50.7610 O   0  0  0  0  0  0  0  0  0  0  0  0
  -37.1850  -68.2970   49.8600 O   0  0  0  0  0  0  0  0  0  0  0  0
  1  2  1  0  0  0  0
  2  3  2  0  0  0  0
  4  2  1  6  0  0  0
  5 12  1  1  0  0  0
  5  4  1  0  0  0  0
  6  7  1  0  0  0  0
  6  5  1  0  0  0  0
  7 11  1  1  0  0  0
  7  8  1  0  0  0  0
  8  9  1  6  0  0  0
  8  4  1  0  0  0  0
  9  1  1  0  0  0  0
 10  9  2  0  0  0  0
 11 12  1  0  0  0  0
 13  1  1  0  0  0  0
 13 14  1  0  0  0  0
 14 15  1  0  0  0  0
 16 14  2  0  0  0  0
 17 16  1  0  0  0  0
 18 19  1  0  0  0  0
 18 17  2  0  0  0  0
 19 13  2  0  0  0  0
 20 21  2  0  0  0  0
 20 17  1  0  0  0  0
 22 20  2  0  0  0  0
M  END
>  <Pose>
1

>  <Score>
-8.028

$$$$
