MODEL 1
REMARK VINA RESULT:    -8.028      0.000      0.000
REMARK INTER + INTRA:          -8.513
REMARK INTER:                  -8.967
REMARK INTRA:                   0.454
REMARK UNBOUND:                 0.454
REMARK  2 active torsions:
REMARK  status: ('A' for Active; 'I' for Inactive)
REMARK    1  A    between atoms: C_3  and  N_11 
REMARK    2  A    between atoms: C_6  and  N_8 
ROOT
ATOM      1  N   UNK d   1     -42.547 -66.673  53.245  0.00  0.00    -0.250 N 
ATOM      2  C   UNK d   1     -43.549 -67.252  54.060  0.00  0.00     0.239 C 
ATOM      3  O   UNK d   1     -43.489 -68.353  54.645  0.00  0.00    -0.272 OA
ATOM      4  C   UNK d   1     -44.727 -66.361  54.141  0.00  0.00     0.127 C 
ATOM      5  C   UNK d   1     -45.705 -66.838  53.089  0.00  0.00     0.159 C 
ATOM      6  O   UNK d   1     -45.052 -66.366  51.919  0.00  0.00    -0.371 OA
ATOM      7  C   UNK d   1     -45.077 -64.991  52.274  0.00  0.00     0.159 C 
ATOM      8  C   UNK d   1     -44.268 -65.035  53.542  0.00  0.00     0.127 C 
ATOM      9  C   UNK d   1     -42.854 -65.278  53.179  0.00  0.00     0.239 C 
ATOM     10  O   UNK d   1     -42.019 -64.375  52.850  0.00  0.00    -0.272 OA
ATOM     11  C   UNK d   1     -46.523 -64.826  52.533  0.00  0.00     0.004 C 
ATOM     12  C   UNK d   1     -46.914 -65.977  53.075  0.00  0.00     0.004 C 
ENDROOT
BRANCH   1  13
ATOM     13  C   UNK d   1     -41.433 -67.257  52.587  0.00  0.00     0.062 A 
ATOM     14  C   UNK d   1     -40.444 -67.912  53.285  0.00  0.00     0.040 A 
ATOM     15 Br   UNK d   1     -40.651 -68.006  55.187  0.00  0.00    -0.049 Br
ATOM     16  C   UNK d   1     -39.338 -68.488  52.665  0.00  0.00     0.057 A 
ATOM     17  C   UNK d   1     -39.189 -68.422  51.293  0.00  0.00     0.104 A 
ATOM     18  C   UNK d   1     -40.184 -67.764  50.590  0.00  0.00     0.038 A 
ATOM     19  C   UNK d   1     -41.276 -67.195  51.202  0.00  0.00     0.034 A 
BRANCH  17  20
ATOM     20  N   UNK d   1     -38.069 -68.999  50.633  0.00  0.00    -0.116 N 
ATOM     21  O   UNK d   1     -37.875 -70.221  50.761  0.00  0.00    -0.532 OA
ATOM     22  O   UNK d   1     -37.185 -68.297  49.860  0.00  0.00    -0.532 OA
ENDBRANCH  17  20
ENDBRANCH   1  13
TORSDOF 2
ENDMDL
