MODEL 1
REMARK VINA RESULT:    -8.567      0.000      0.000
REMARK INTER + INTRA:         -10.217
REMARK INTER:                  -9.818
REMARK INTRA:                  -0.399
REMARK UNBOUND:                -0.399
REMARK  3 active torsions:
REMARK  status: ('A' for Active; 'I' for Inactive)
REMARK    1  A    between atoms: C_6  and  N_8 
REMARK    2  A    between atoms: C_12  and  C_21 
REMARK    3  A    between atoms: C_21  and  O_22 
ROOT
ATOM      1  N   UNK d   1     -42.543 -66.376  53.349  0.00  0.00    -0.252 N 
ATOM      2  C   UNK d   1     -42.772 -64.984  53.164  0.00  0.00     0.239 C 
ATOM      3  O   UNK d   1     -41.925 -64.100  52.910  0.00  0.00    -0.272 OA
ATOM      4  C   UNK d   1     -44.231 -64.697  53.319  0.00  0.00     0.136 C 
ATOM      5  C   UNK d   1     -44.976 -64.866  52.037  0.00  0.00     0.114 C 
ATOM      6  O   UNK d   1     -45.119 -66.273  51.935  0.00  0.00    -0.358 OA
ATOM      7  C   UNK d   1     -45.771 -66.451  53.181  0.00  0.00     0.089 C 
ATOM      8  C   UNK d   1     -44.743 -65.896  54.112  0.00  0.00     0.133 C 
ATOM      9  C   UNK d   1     -43.584 -66.815  54.212  0.00  0.00     0.239 C 
ATOM     10  O   UNK d   1     -43.534 -67.824  54.945  0.00  0.00    -0.272 OA
ATOM     11  C   UNK d   1     -46.897 -65.487  53.001  0.00  0.00     0.010 C 
ATOM     12  C   UNK d   1     -46.395 -64.482  52.261  0.00  0.00     0.013 C 
ATOM     13  C   UNK d   1     -46.183 -67.840  53.427  0.00  0.00     0.051 C 
ENDROOT
BRANCH   1  14
ATOM     14  C   UNK d   1     -41.482 -67.118  52.762  0.00  0.00     0.046 A 
ATOM     15  C   UNK d   1     -41.068 -66.926  51.460  0.00  0.00     0.031 A 
ATOM     16  C   UNK d   1     -40.023 -67.657  50.884  0.00  0.00     0.010 A 
ATOM     17  C   UNK d   1     -39.354 -68.616  51.609  0.00  0.00    -0.044 A 
ATOM     18  C   UNK d   1     -39.755 -68.818  52.909  0.00  0.00     0.019 A 
ATOM     19  C   UNK d   1     -38.242 -69.395  50.990  0.00  0.00     0.049 C 
ATOM     20 Br   UNK d   1     -38.854 -70.137  53.944  0.00  0.00    -0.051 Br
ATOM     21  C   UNK d   1     -40.799 -68.085  53.479  0.00  0.00     0.050 A 
ENDBRANCH   1  14
BRANCH   5  22
ATOM     22  C   UNK d   1     -44.357 -64.255  50.847  0.00  0.00     0.207 C 
BRANCH  22  23
ATOM     23  O   UNK d   1     -44.187 -62.880  50.994  0.00  0.00    -0.398 OA
ATOM     24  H   UNK d   1     -44.847 -62.471  51.620  0.00  0.00     0.209 HD
ENDBRANCH  22  23
ENDBRANCH   5  22
TORSDOF 3
ENDMDL
