/Users/jonathanwahrer/Desktop/Msc/3_Semester/Drug_Design_Praktikum/waehrer_HTS_screening/HTS_experiment/out/docking_results/vina_output/3e7o/1314_docked.pdbqt
 OpenBabel03192216193D

 32 35  0  0  0  0  0  0  0  0999 V2000
  -40.7610  -65.1370   50.5360 C   0  0  0  0  0  0  0  0  0  0  0  0
  -41.5540  -64.1580   50.2270 N   0  0  0  0  0  0  0  0  0  0  0  0
  -42.5720  -64.1610   51.0170 N   0  0  0  0  0  0  0  0  0  0  0  0
  -42.5140  -65.1930   51.9430 N   0  0  0  0  0  0  0  0  0  0  0  0
  -41.3910  -65.8220   51.6750 C   0  0  0  0  0  0  0  0  0  0  0  0
  -39.6740  -65.7090   49.8500 C   0  0  0  0  0  0  0  0  0  0  0  0
  -38.2640  -65.0780   49.8860 N   0  0  0  0  0  0  0  0  0  0  0  0
  -38.1890  -64.2530   50.4750 H   0  0  0  0  0  0  0  0  0  0  0  0
  -39.7250  -66.7230   49.1640 O   0  0  0  0  0  0  0  0  0  0  0  0
  -37.5760  -65.8100   49.0740 N   0  0  0  0  0  2  0  0  0  0  0  0
  -36.6860  -66.6010   48.7160 C   0  0  0  0  0  2  0  0  0  0  0  0
  -36.2500  -67.4570   49.9310 C   0  0  0  0  0  0  0  0  0  0  0  0
  -34.9720  -67.2540   50.3920 C   0  0  0  0  0  0  0  0  0  0  0  0
  -33.9810  -65.7650   49.7880 Br  0  0  0  0  0  0  0  0  0  0  0  0
  -34.4280  -68.2120   51.2530 C   0  0  0  0  0  3  0  0  0  0  0  0
  -35.1790  -69.3230   51.6480 C   0  0  0  0  0  3  0  0  0  0  0  0
  -36.4470  -69.4820   51.1970 C   0  0  0  0  0  3  0  0  0  0  0  0
  -36.9830  -68.5090   50.2980 C   0  0  0  0  0  3  0  0  0  0  0  0
  -40.5770  -66.8630   52.2960 C   0  0  0  0  0  2  0  0  0  0  0  0
  -40.9140  -68.0180   52.8800 N   0  0  0  0  0  0  0  0  0  0  0  0
  -39.7210  -68.7930   53.1870 C   0  0  0  0  0  2  0  0  0  0  0  0
  -41.8940  -68.3950   53.7540 C   0  0  0  0  0  2  0  0  0  0  0  0
  -39.8720  -69.2890   54.5950 C   0  0  0  0  0  2  0  0  0  0  0  0
  -41.1900  -68.7090   55.0970 C   0  0  0  0  0  2  0  0  0  0  0  0
  -43.5950  -65.3300   52.8130 C   0  0  0  0  0  0  0  0  0  0  0  0
  -43.4100  -65.4790   54.1870 N   0  0  0  0  0  0  0  0  0  0  0  0
  -44.5450  -65.6960   54.7230 O   0  0  0  0  0  0  0  0  0  0  0  0
  -45.4820  -65.7050   53.8620 N   0  0  0  0  0  0  0  0  0  0  0  0
  -44.9090  -65.4770   52.6460 C   0  0  0  0  0  0  0  0  0  0  0  0
  -45.7130  -65.4490   51.4600 N   0  0  0  0  0  0  0  0  0  0  0  0
  -45.2180  -65.4480   50.5570 H   0  0  0  0  0  0  0  0  0  0  0  0
  -46.7260  -65.3690   51.5180 H   0  0  0  0  0  0  0  0  0  0  0  0
  1  5  2  0  0  0  0
  2  1  1  0  0  0  0
  2  3  2  0  0  0  0
  3  4  1  0  0  0  0
  4 25  1  0  0  0  0
  5  4  1  0  0  0  0
  5 19  1  0  0  0  0
  6  7  1  0  0  0  0
  6  1  1  0  0  0  0
  7  8  1  0  0  0  0
  9  6  2  0  0  0  0
 10  7  1  0  0  0  0
 11 10  1  0  0  0  0
 11 12  1  0  0  0  0
 12 18  2  0  0  0  0
 12 13  1  0  0  0  0
 13 15  2  0  0  0  0
 14 13  1  0  0  0  0
 15 16  1  0  0  0  0
 17 16  2  0  0  0  0
 18 17  1  0  0  0  0
 19 20  1  0  0  0  0
 20 21  1  0  0  0  0
 20 22  1  0  0  0  0
 21 23  1  0  0  0  0
 22 24  1  0  0  0  0
 23 24  1  0  0  0  0
 25 26  2  0  0  0  0
 26 27  1  0  0  0  0
 28 27  1  0  0  0  0
 29 25  1  0  0  0  0
 29 28  2  0  0  0  0
 30 32  1  0  0  0  0
 30 29  1  0  0  0  0
 31 30  1  0  0  0  0
M  END
>  <Pose>
1

>  <Score>
-8.770

$$$$
