MODEL 1
REMARK VINA RESULT:    -8.770      0.000      0.000
REMARK INTER + INTRA:         -13.219
REMARK INTER:                 -12.103
REMARK INTRA:                  -1.116
REMARK UNBOUND:                -1.116
REMARK  7 active torsions:
REMARK  status: ('A' for Active; 'I' for Inactive)
REMARK    1  A    between atoms: C_3  and  C_8 
REMARK    2  A    between atoms: C_8  and  N_9 
REMARK    3  A    between atoms: N_9  and  N_10 
REMARK       I    between atoms: N_10  and  C_11 
REMARK    4  A    between atoms: C_11  and  C_13 
REMARK    5  A    between atoms: N_16  and  C_24 
REMARK    6  A    between atoms: C_17  and  C_18 
REMARK    7  A    between atoms: C_28  and  N_29 
ROOT
ATOM      1  C   UNK d   1     -40.761 -65.137  50.536  0.00  0.00     0.176 A 
ATOM      2  N   UNK d   1     -41.554 -64.158  50.227  0.00  0.00    -0.124 NA
ATOM      3  N   UNK d   1     -42.572 -64.161  51.017  0.00  0.00    -0.058 NA
ATOM      4  N   UNK d   1     -42.514 -65.193  51.943  0.00  0.00    -0.191 N 
ATOM      5  C   UNK d   1     -41.391 -65.822  51.675  0.00  0.00     0.093 A 
ENDROOT
BRANCH   1   6
ATOM      6  C   UNK d   1     -39.674 -65.709  49.850  0.00  0.00     0.294 C 
ATOM      7  N   UNK d   1     -38.264 -65.078  49.886  0.00  0.00    -0.242 N 
ATOM      8  H   UNK d   1     -38.189 -64.253  50.475  0.00  0.00     0.192 HD
ATOM      9  O   UNK d   1     -39.725 -66.723  49.164  0.00  0.00    -0.264 OA
BRANCH   7  10
ATOM     10  N   UNK d   1     -37.576 -65.810  49.074  0.00  0.00    -0.183 NA
BRANCH  10  11
ATOM     11  C   UNK d   1     -36.686 -66.601  48.716  0.00  0.00     0.151 C 
BRANCH  11  12
ATOM     12  C   UNK d   1     -36.250 -67.457  49.931  0.00  0.00     0.000 A 
ATOM     13  C   UNK d   1     -34.972 -67.254  50.392  0.00  0.00     0.022 A 
ATOM     14 Br   UNK d   1     -33.981 -65.765  49.788  0.00  0.00    -0.050 Br
ATOM     15  C   UNK d   1     -34.428 -68.212  51.253  0.00  0.00     0.020 A 
ATOM     16  C   UNK d   1     -35.179 -69.323  51.648  0.00  0.00     0.001 A 
ATOM     17  C   UNK d   1     -36.447 -69.482  51.197  0.00  0.00     0.001 A 
ATOM     18  C   UNK d   1     -36.983 -68.509  50.298  0.00  0.00     0.014 A 
ENDBRANCH  11  12
ENDBRANCH  10  11
ENDBRANCH   7  10
ENDBRANCH   1   6
BRANCH   5  19
ATOM     19  C   UNK d   1     -40.577 -66.863  52.296  0.00  0.00     0.179 C 
ATOM     20  N   UNK d   1     -40.914 -68.018  52.880  0.00  0.00    -0.407 N 
ATOM     21  C   UNK d   1     -39.721 -68.793  53.187  0.00  0.00     0.117 C 
ATOM     22  C   UNK d   1     -41.894 -68.395  53.754  0.00  0.00     0.117 C 
ATOM     23  C   UNK d   1     -39.872 -69.289  54.595  0.00  0.00     0.021 C 
ATOM     24  C   UNK d   1     -41.190 -68.709  55.097  0.00  0.00     0.021 C 
ENDBRANCH   5  19
BRANCH   4  25
ATOM     25  C   UNK d   1     -43.595 -65.330  52.813  0.00  0.00     0.229 A 
ATOM     26  N   UNK d   1     -43.410 -65.479  54.187  0.00  0.00    -0.081 NA
ATOM     27  O   UNK d   1     -44.545 -65.696  54.723  0.00  0.00    -0.103 OA
ATOM     28  N   UNK d   1     -45.482 -65.705  53.862  0.00  0.00    -0.083 NA
ATOM     29  C   UNK d   1     -44.909 -65.477  52.646  0.00  0.00     0.201 A 
BRANCH  29  30
ATOM     30  N   UNK d   1     -45.713 -65.449  51.460  0.00  0.00    -0.379 N 
ATOM     31  H   UNK d   1     -45.218 -65.448  50.557  0.00  0.00     0.158 HD
ATOM     32  H   UNK d   1     -46.726 -65.369  51.518  0.00  0.00     0.158 HD
ENDBRANCH  29  30
ENDBRANCH   4  25
TORSDOF 7
ENDMDL
