MODEL 1
REMARK VINA RESULT:    -8.330      0.000      0.000
REMARK INTER + INTRA:         -12.852
REMARK INTER:                 -11.496
REMARK INTRA:                  -1.356
REMARK UNBOUND:                -1.356
REMARK  7 active torsions:
REMARK  status: ('A' for Active; 'I' for Inactive)
REMARK    1  A    between atoms: C_4  and  C_8 
REMARK    2  A    between atoms: C_8  and  C_10 
REMARK    3  A    between atoms: C_10  and  N_11 
REMARK    4  A    between atoms: N_18  and  C_21 
REMARK    5  A    between atoms: C_19  and  N_20 
REMARK    6  A    between atoms: C_21  and  C_22 
REMARK    7  A    between atoms: C_22  and  N_23 
ROOT
ATOM      1  N   UNK d   1     -41.241 -67.192  51.469  0.00  0.00    -0.175 N 
ATOM      2  C   UNK d   1     -40.969 -67.883  52.624  0.00  0.00     0.079 A 
ATOM      3  C   UNK d   1     -41.716 -67.300  53.607  0.00  0.00     0.079 A 
ATOM      4  C   UNK d   1     -41.639 -67.797  54.911  0.00  0.00     0.032 A 
ATOM      5  C   UNK d   1     -40.812 -68.865  55.184  0.00  0.00     0.002 A 
ATOM      6  C   UNK d   1     -40.058 -69.456  54.194  0.00  0.00     0.002 A 
ATOM      7  C   UNK d   1     -40.143 -68.952  52.893  0.00  0.00     0.032 A 
ATOM      8  N   UNK d   1     -42.418 -66.290  53.048  0.00  0.00    -0.179 N 
ATOM      9  C   UNK d   1     -42.141 -66.211  51.745  0.00  0.00     0.681 A 
ENDROOT
BRANCH   1  10
ATOM     10  C   UNK d   1     -40.696 -67.532  50.172  0.00  0.00     0.216 C 
BRANCH  10  11
ATOM     11  C   UNK d   1     -39.548 -66.707  49.774  0.00  0.00     0.113 C 
ATOM     12  O   UNK d   1     -39.841 -65.530  49.269  0.00  0.00    -0.194 OA
BRANCH  11  13
ATOM     13  C   UNK d   1     -38.134 -66.969  49.844  0.00  0.00    -0.001 A 
ATOM     14  C   UNK d   1     -37.142 -66.112  49.465  0.00  0.00     0.033 A 
ATOM     15  C   UNK d   1     -35.818 -66.426  49.576  0.00  0.00     0.011 A 
ATOM     16 Br   UNK d   1     -34.447 -65.172  49.032  0.00  0.00    -0.051 Br
ATOM     17  C   UNK d   1     -35.449 -67.650  50.087  0.00  0.00     0.019 A 
ATOM     18  C   UNK d   1     -36.402 -68.557  50.488  0.00  0.00     0.002 A 
ATOM     19  C   UNK d   1     -37.718 -68.206  50.362  0.00  0.00     0.014 A 
ENDBRANCH  11  13
ENDBRANCH  10  11
ENDBRANCH   1  10
BRANCH   9  20
ATOM     20  N   UNK d   1     -42.716 -65.403  50.883  0.00  0.00    -0.234 N 
ATOM     21  H   UNK d   1     -43.149 -65.721  50.021  0.00  0.00     0.174 HD
ATOM     22  H   UNK d   1     -42.700 -64.391  51.076  0.00  0.00     0.174 HD
ENDBRANCH   9  20
BRANCH   8  23
ATOM     23  C   UNK d   1     -43.350 -65.488  53.822  0.00  0.00     0.178 C 
BRANCH  23  24
ATOM     24  C   UNK d   1     -44.693 -66.063  54.014  0.00  0.00     0.293 C 
BRANCH  24  25
ATOM     25  N   UNK d   1     -45.332 -66.721  52.932  0.00  0.00     0.094 N 
ATOM     26  C   UNK d   1     -46.075 -65.743  52.096  0.00  0.00     0.298 C 
ATOM     27  C   UNK d   1     -47.061 -64.956  52.895  0.00  0.00     0.198 C 
ATOM     28  O   UNK d   1     -48.057 -65.845  53.302  0.00  0.00    -0.388 OA
ATOM     29  C   UNK d   1     -47.544 -66.886  54.035  0.00  0.00     0.198 C 
ATOM     30  C   UNK d   1     -46.405 -67.622  53.385  0.00  0.00     0.298 C 
ENDBRANCH  24  25
ENDBRANCH  23  24
ENDBRANCH   8  23
TORSDOF 7
ENDMDL
