/Users/jonathanwahrer/Desktop/Msc/3_Semester/Drug_Design_Praktikum/waehrer_HTS_screening/HTS_experiment/out/docking_results/vina_output/3e7o/1315_docked.pdbqt
 OpenBabel03192216203D

 30 33  0  0  1  0  0  0  0  0999 V2000
  -41.2410  -67.1920   51.4690 N   0  0  0  0  0  0  0  0  0  0  0  0
  -40.9690  -67.8830   52.6240 C   0  0  0  0  0  0  0  0  0  0  0  0
  -41.7160  -67.3000   53.6070 C   0  0  0  0  0  0  0  0  0  0  0  0
  -41.6390  -67.7970   54.9110 C   0  0  0  0  0  3  0  0  0  0  0  0
  -40.8120  -68.8650   55.1840 C   0  0  0  0  0  3  0  0  0  0  0  0
  -40.0580  -69.4560   54.1940 C   0  0  0  0  0  3  0  0  0  0  0  0
  -40.1430  -68.9520   52.8930 C   0  0  0  0  0  3  0  0  0  0  0  0
  -42.4180  -66.2900   53.0480 N   0  0  0  0  0  0  0  0  0  0  0  0
  -42.1410  -66.2110   51.7450 C   0  0  2  0  0  3  0  0  0  0  0  0
  -40.6960  -67.5320   50.1720 C   0  0  0  0  0  2  0  0  0  0  0  0
  -39.5480  -66.7070   49.7740 C   0  0  1  0  0  3  0  0  0  0  0  0
  -39.8410  -65.5300   49.2690 O   0  0  0  0  0  1  0  0  0  0  0  0
  -38.1340  -66.9690   49.8440 C   0  0  0  0  0  0  0  0  0  0  0  0
  -37.1420  -66.1120   49.4650 C   0  0  0  0  0  3  0  0  0  0  0  0
  -35.8180  -66.4260   49.5760 C   0  0  0  0  0  0  0  0  0  0  0  0
  -34.4470  -65.1720   49.0320 Br  0  0  0  0  0  0  0  0  0  0  0  0
  -35.4490  -67.6500   50.0870 C   0  0  0  0  0  3  0  0  0  0  0  0
  -36.4020  -68.5570   50.4880 C   0  0  0  0  0  3  0  0  0  0  0  0
  -37.7180  -68.2060   50.3620 C   0  0  0  0  0  3  0  0  0  0  0  0
  -42.7160  -65.4030   50.8830 N   0  0  0  0  0  0  0  0  0  0  0  0
  -43.1490  -65.7210   50.0210 H   0  0  0  0  0  0  0  0  0  0  0  0
  -42.7000  -64.3910   51.0760 H   0  0  0  0  0  0  0  0  0  0  0  0
  -43.3500  -65.4880   53.8220 C   0  0  0  0  0  2  0  0  0  0  0  0
  -44.6930  -66.0630   54.0140 C   0  0  0  0  0  2  0  0  0  0  0  0
  -45.3320  -66.7210   52.9320 N   0  0  0  0  0  0  0  0  0  0  0  0
  -46.0750  -65.7430   52.0960 C   0  0  0  0  0  2  0  0  0  0  0  0
  -47.0610  -64.9560   52.8950 C   0  0  0  0  0  2  0  0  0  0  0  0
  -48.0570  -65.8450   53.3020 O   0  0  0  0  0  0  0  0  0  0  0  0
  -47.5440  -66.8860   54.0350 C   0  0  0  0  0  2  0  0  0  0  0  0
  -46.4050  -67.6220   53.3850 C   0  0  0  0  0  2  0  0  0  0  0  0
  1  9  1  0  0  0  0
  1  2  1  0  0  0  0
  2  7  2  0  0  0  0
  2  3  1  0  0  0  0
  3  4  2  0  0  0  0
  4  5  1  0  0  0  0
  6  5  2  0  0  0  0
  7  6  1  0  0  0  0
  8  3  1  0  0  0  0
  8 23  1  0  0  0  0
  9 20  1  6  0  0  0
  9  8  1  0  0  0  0
 10  1  1  0  0  0  0
 11 12  1  1  0  0  0
 11 13  1  0  0  0  0
 11 10  1  0  0  0  0
 13 19  1  0  0  0  0
 14 15  1  0  0  0  0
 14 13  2  0  0  0  0
 15 17  2  0  0  0  0
 16 15  1  0  0  0  0
 17 18  1  0  0  0  0
 19 18  2  0  0  0  0
 20 22  1  0  0  0  0
 21 20  1  0  0  0  0
 23 24  1  0  0  0  0
 25 30  1  0  0  0  0
 25 24  1  0  0  0  0
 26 27  1  0  0  0  0
 26 25  1  0  0  0  0
 27 28  1  0  0  0  0
 28 29  1  0  0  0  0
 30 29  1  0  0  0  0
M  END
>  <Pose>
1

>  <Score>
-8.330

$$$$
