MODEL 1
REMARK VINA RESULT:    -7.621      0.000      0.000
REMARK INTER + INTRA:          -9.984
REMARK INTER:                  -9.849
REMARK INTRA:                  -0.135
REMARK UNBOUND:                -0.135
REMARK  5 active torsions:
REMARK  status: ('A' for Active; 'I' for Inactive)
REMARK    1  A    between atoms: C_5  and  C_8 
REMARK    2  A    between atoms: N_9  and  C_26 
REMARK    3  A    between atoms: C_15  and  C_17 
REMARK    4  A    between atoms: C_26  and  C_27 
REMARK    5  A    between atoms: C_27  and  N_28 
ROOT
ATOM      1  C   UNK d   1     -37.269 -66.507  49.148  0.00  0.00     0.161 C 
ATOM      2  N   UNK d   1     -36.278 -67.147  49.962  0.00  0.00    -0.331 N 
ATOM      3  C   UNK d   1     -36.987 -68.291  50.525  0.00  0.00     0.295 C 
ATOM      4  O   UNK d   1     -36.470 -69.360  50.915  0.00  0.00    -0.264 OA
ATOM      5  C   UNK d   1     -38.400 -67.960  50.549  0.00  0.00     0.251 C 
ATOM      6  O   UNK d   1     -39.377 -68.658  50.954  0.00  0.00    -0.282 OA
ATOM      7  C   UNK d   1     -38.494 -66.606  49.992  0.00  0.00     0.064 C 
ATOM      8  C   UNK d   1     -39.466 -65.760  50.192  0.00  0.00     0.153 C 
ATOM      9  O   UNK d   1     -39.421 -64.526  49.533  0.00  0.00    -0.188 OA
ENDROOT
BRANCH   1  10
ATOM     10  C   UNK d   1     -36.996 -65.194  48.620  0.00  0.00    -0.030 A 
ATOM     11  C   UNK d   1     -37.242 -64.971  47.253  0.00  0.00     0.011 A 
ATOM     12  C   UNK d   1     -37.038 -63.759  46.645  0.00  0.00     0.019 A 
ATOM     13  C   UNK d   1     -36.572 -62.686  47.362  0.00  0.00     0.011 A 
ATOM     14 Br   UNK d   1     -36.274 -60.979  46.545  0.00  0.00    -0.051 Br
ATOM     15  C   UNK d   1     -36.328 -62.896  48.700  0.00  0.00     0.019 A 
ATOM     16  C   UNK d   1     -36.535 -64.117  49.312  0.00  0.00     0.011 A 
ENDBRANCH   1  10
BRANCH   8  17
ATOM     17  C   UNK d   1     -40.593 -66.073  51.094  0.00  0.00     0.114 A 
ATOM     18  O   UNK d   1     -40.482 -66.571  52.320  0.00  0.00    -0.307 OA
ATOM     19  C   UNK d   1     -41.654 -66.744  52.875  0.00  0.00     0.086 A 
ATOM     20  C   UNK d   1     -42.645 -66.352  52.000  0.00  0.00     0.001 A 
ATOM     21  C   UNK d   1     -42.065 -67.228  54.121  0.00  0.00     0.038 A 
ATOM     22  C   UNK d   1     -41.944 -65.933  50.882  0.00  0.00     0.054 A 
ATOM     23  C   UNK d   1     -43.972 -66.440  52.357  0.00  0.00     0.014 A 
ATOM     24  C   UNK d   1     -44.387 -66.914  53.582  0.00  0.00     0.001 A 
ATOM     25  C   UNK d   1     -43.397 -67.310  54.463  0.00  0.00     0.003 A 
ENDBRANCH   8  17
BRANCH   2  26
ATOM     26  C   UNK d   1     -34.875 -66.892  50.201  0.00  0.00     0.155 C 
BRANCH  26  27
ATOM     27  C   UNK d   1     -33.926 -67.139  49.106  0.00  0.00     0.254 C 
BRANCH  27  28
ATOM     28  N   UNK d   1     -33.213 -66.004  48.580  0.00  0.00    -0.077 N 
ATOM     29  C   UNK d   1     -33.618 -65.670  47.244  0.00  0.00     0.269 C 
ATOM     30  C   UNK d   1     -33.107 -64.888  49.475  0.00  0.00     0.269 C 
ATOM     31  H   UNK d   1     -32.206 -66.370  48.468  0.00  0.00     0.279 HD
ENDBRANCH  27  28
ENDBRANCH  26  27
ENDBRANCH   2  26
TORSDOF 5
ENDMDL
