MODEL 1
REMARK VINA RESULT:    -9.099      0.000      0.000
REMARK INTER + INTRA:         -11.553
REMARK INTER:                 -10.695
REMARK INTRA:                  -0.858
REMARK UNBOUND:                -0.858
REMARK  3 active torsions:
REMARK  status: ('A' for Active; 'I' for Inactive)
REMARK    1  A    between atoms: C_4  and  C_8 
REMARK    2  A    between atoms: C_16  and  C_17 
REMARK    3  A    between atoms: C_17  and  N_18 
ROOT
ATOM      1  C   UNK d   1     -43.149 -67.306  54.602  0.00  0.00     0.053 C 
ATOM      2  C   UNK d   1     -42.037 -67.815  54.068  0.00  0.00     0.127 A 
ATOM      3  O   UNK d   1     -41.519 -67.559  52.799  0.00  0.00    -0.305 OA
ATOM      4  C   UNK d   1     -40.359 -68.255  52.601  0.00  0.00     0.101 A 
ATOM      5  C   UNK d   1     -40.050 -69.008  53.729  0.00  0.00     0.051 A 
ATOM      6  C   UNK d   1     -38.897 -69.776  53.708  0.00  0.00     0.021 A 
ATOM      7  C   UNK d   1     -38.087 -69.782  52.596  0.00  0.00     0.041 A 
ATOM      8  C   UNK d   1     -38.430 -69.012  51.481  0.00  0.00     0.118 A 
ATOM      9  C   UNK d   1     -39.565 -68.245  51.473  0.00  0.00     0.039 A 
ATOM     10  O   UNK d   1     -37.551 -69.086  50.411  0.00  0.00    -0.191 OA
ATOM     11  C   UNK d   1     -41.119 -68.752  54.710  0.00  0.00     0.218 A 
ATOM     12  O   UNK d   1     -41.180 -69.269  55.855  0.00  0.00    -0.284 OA
ENDROOT
BRANCH   9  13
ATOM     13  C   UNK d   1     -39.920 -67.520  50.252  0.00  0.00     0.279 C 
BRANCH  13  14
ATOM     14  N   UNK d   1     -39.850 -66.106  50.314  0.00  0.00    -0.064 N 
ATOM     15  C   UNK d   1     -41.136 -65.567  49.901  0.00  0.00     0.265 C 
ATOM     16  C   UNK d   1     -41.069 -64.330  49.074  0.00  0.00     0.299 C 
ATOM     17  N   UNK d   1     -40.171 -64.379  47.974  0.00  0.00     0.087 N 
ATOM     18  C   UNK d   1     -39.269 -65.479  48.070  0.00  0.00     0.299 C 
ATOM     19  C   UNK d   1     -39.481 -63.113  47.845  0.00  0.00     0.310 C 
ATOM     20  C   UNK d   1     -38.784 -65.616  49.474  0.00  0.00     0.265 C 
ATOM     21  H   UNK d   1     -39.614 -65.746  51.288  0.00  0.00     0.280 HD
ENDBRANCH  13  14
ENDBRANCH   9  13
BRANCH   1  22
ATOM     22  C   UNK d   1     -43.975 -66.374  53.862  0.00  0.00    -0.032 A 
ATOM     23  C   UNK d   1     -45.268 -66.694  53.512  0.00  0.00     0.030 A 
ATOM     24  C   UNK d   1     -46.047 -65.794  52.789  0.00  0.00     0.011 A 
ATOM     25 Br   UNK d   1     -47.837 -66.243  52.295  0.00  0.00    -0.051 Br
ATOM     26  C   UNK d   1     -45.519 -64.567  52.420  0.00  0.00     0.019 A 
ATOM     27  C   UNK d   1     -44.223 -64.285  52.788  0.00  0.00     0.002 A 
ATOM     28  C   UNK d   1     -43.440 -65.161  53.502  0.00  0.00     0.011 A 
ENDBRANCH   1  22
TORSDOF 3
ENDMDL
