MODEL 1
REMARK VINA RESULT:    -7.928      0.000      0.000
REMARK INTER + INTRA:         -14.321
REMARK INTER:                 -12.331
REMARK INTRA:                  -1.990
REMARK UNBOUND:                -1.990
REMARK  12 active torsions:
REMARK  status: ('A' for Active; 'I' for Inactive)
REMARK    1  A    between atoms: C_3  and  C_12 
REMARK    2  A    between atoms: C_5  and  O_10 
REMARK    3  A    between atoms: C_6  and  O_8 
REMARK    4  A    between atoms: N_13  and  N_14 
REMARK    5  A    between atoms: N_14  and  C_15 
REMARK    6  A    between atoms: N_16  and  C_26 
REMARK    7  A    between atoms: C_19  and  N_25 
REMARK    8  A    between atoms: C_21  and  O_24 
REMARK    9  A    between atoms: C_28  and  C_33 
REMARK   10  A    between atoms: C_29  and  O_32 
REMARK   11  A    between atoms: C_30  and  O_31 
REMARK   12  A    between atoms: C_33  and  O_34 
ROOT
ATOM      1  C   UNK d   1     -39.641 -67.827  51.288  0.00  0.00     0.727 A 
ATOM      2  N   UNK d   1     -40.687 -66.968  51.391  0.00  0.00    -0.130 N 
ATOM      3  C   UNK d   1     -41.326 -67.199  52.566  0.00  0.00     0.201 A 
ATOM      4  N   UNK d   1     -42.393 -66.662  53.169  0.00  0.00    -0.042 NA
ATOM      5  C   UNK d   1     -42.828 -67.089  54.369  0.00  0.00     0.724 A 
ATOM      6  N   UNK d   1     -42.168 -68.094  54.984  0.00  0.00    -0.036 NA
ATOM      7  C   UNK d   1     -41.102 -68.675  54.444  0.00  0.00     0.215 A 
ATOM      8  C   UNK d   1     -40.659 -68.231  53.214  0.00  0.00     0.176 A 
ATOM      9  N   UNK d   1     -39.663 -68.572  52.414  0.00  0.00    -0.055 NA
ENDROOT
BRANCH   1  10
ATOM     10  N   UNK d   1     -38.721 -67.907  50.206  0.00  0.00    -0.107 N 
ATOM     11  H   UNK d   1     -38.810 -68.674  49.521  0.00  0.00     0.208 HD
BRANCH  10  12
ATOM     12  N   UNK d   1     -37.723 -66.917  50.126  0.00  0.00    -0.172 NA
ATOM     13  C   UNK d   1     -36.616 -67.079  49.527  0.00  0.00     0.152 C 
BRANCH  13  14
ATOM     14  C   UNK d   1     -35.564 -66.073  49.428  0.00  0.00     0.003 A 
ATOM     15  C   UNK d   1     -34.346 -66.256  50.047  0.00  0.00     0.025 A 
ATOM     16 Br   UNK d   1     -34.059 -67.852  51.039  0.00  0.00    -0.050 Br
ATOM     17  C   UNK d   1     -33.334 -65.297  49.956  0.00  0.00     0.059 A 
ATOM     18  C   UNK d   1     -33.517 -64.131  49.243  0.00  0.00     0.102 A 
ATOM     19  C   UNK d   1     -34.736 -63.948  48.624  0.00  0.00     0.102 A 
ATOM     20  C   UNK d   1     -35.728 -64.902  48.720  0.00  0.00     0.054 A 
BRANCH  18  21
ATOM     21  O   UNK d   1     -32.518 -63.163  49.142  0.00  0.00    -0.353 OA
ATOM     22  C   UNK d   1     -31.424 -63.275  48.282  0.00  0.00     0.210 C 
ENDBRANCH  18  21
BRANCH  19  23
ATOM     23  O   UNK d   1     -34.910 -62.769  47.907  0.00  0.00    -0.353 OA
ATOM     24  C   UNK d   1     -34.876 -62.675  46.518  0.00  0.00     0.210 C 
ENDBRANCH  19  23
ENDBRANCH  13  14
ENDBRANCH  10  12
ENDBRANCH   1  10
BRANCH   2  25
ATOM     25  C   UNK d   1     -41.051 -65.984  50.419  0.00  0.00     0.279 C 
ATOM     26  O   UNK d   1     -40.690 -66.312  49.120  0.00  0.00    -0.353 OA
ATOM     27  C   UNK d   1     -40.615 -65.163  48.385  0.00  0.00     0.179 C 
ATOM     28  C   UNK d   1     -40.645 -63.980  49.291  0.00  0.00     0.182 C 
ATOM     29  C   UNK d   1     -40.429 -64.624  50.662  0.00  0.00     0.199 C 
BRANCH  27  30
ATOM     30  C   UNK d   1     -39.274 -65.152  47.649  0.00  0.00     0.198 C 
BRANCH  30  31
ATOM     31  O   UNK d   1     -38.938 -66.451  47.249  0.00  0.00    -0.398 OA
ATOM     32  H   UNK d   1     -38.466 -66.939  47.971  0.00  0.00     0.209 HD
ENDBRANCH  30  31
ENDBRANCH  27  30
BRANCH  28  33
ATOM     33  O   UNK d   1     -41.943 -63.433  49.339  0.00  0.00    -0.390 OA
ATOM     34  H   UNK d   1     -42.438 -63.749  50.125  0.00  0.00     0.210 HD
ENDBRANCH  28  33
BRANCH  29  35
ATOM     35  O   UNK d   1     -41.107 -63.912  51.651  0.00  0.00    -0.388 OA
ATOM     36  H   UNK d   1     -40.808 -62.966  51.652  0.00  0.00     0.210 HD
ENDBRANCH  29  35
ENDBRANCH   2  25
BRANCH   7  37
ATOM     37  O   UNK d   1     -40.397 -69.716  55.056  0.00  0.00    -0.343 OA
ATOM     38  H   UNK d   1     -40.941 -70.530  55.315  0.00  0.00     0.219 HD
ENDBRANCH   7  37
BRANCH   5  39
ATOM     39  N   UNK d   1     -43.974 -66.500  55.001  0.00  0.00    -0.231 N 
ATOM     40  H   UNK d   1     -44.688 -65.950  54.512  0.00  0.00     0.174 HD
ATOM     41  H   UNK d   1     -44.066 -66.655  56.027  0.00  0.00     0.174 HD
ENDBRANCH   5  39
TORSDOF 12
ENDMDL
