/Users/jonathanwahrer/Desktop/Msc/3_Semester/Drug_Design_Praktikum/waehrer_HTS_screening/HTS_experiment/out/docking_results/vina_output/3e7o/1343_docked.pdbqt
 OpenBabel03192216213D

 41 44  0  0  1  0  0  0  0  0999 V2000
  -39.6410  -67.8270   51.2880 C   0  0  0  0  0  0  0  0  0  0  0  0
  -40.6870  -66.9680   51.3910 N   0  0  0  0  0  0  0  0  0  0  0  0
  -41.3260  -67.1990   52.5660 C   0  0  0  0  0  0  0  0  0  0  0  0
  -42.3930  -66.6620   53.1690 N   0  0  0  0  0  0  0  0  0  0  0  0
  -42.8280  -67.0890   54.3690 C   0  0  0  0  0  0  0  0  0  0  0  0
  -42.1680  -68.0940   54.9840 N   0  0  0  0  0  0  0  0  0  0  0  0
  -41.1020  -68.6750   54.4440 C   0  0  0  0  0  0  0  0  0  0  0  0
  -40.6590  -68.2310   53.2140 C   0  0  0  0  0  0  0  0  0  0  0  0
  -39.6630  -68.5720   52.4140 N   0  0  0  0  0  0  0  0  0  0  0  0
  -38.7210  -67.9070   50.2060 N   0  0  0  0  0  0  0  0  0  0  0  0
  -38.8100  -68.6740   49.5210 H   0  0  0  0  0  0  0  0  0  0  0  0
  -37.7230  -66.9170   50.1260 N   0  0  0  0  0  0  0  0  0  0  0  0
  -36.6160  -67.0790   49.5270 C   0  0  0  0  0  3  0  0  0  0  0  0
  -35.5640  -66.0730   49.4280 C   0  0  0  0  0  0  0  0  0  0  0  0
  -34.3460  -66.2560   50.0470 C   0  0  0  0  0  0  0  0  0  0  0  0
  -34.0590  -67.8520   51.0390 Br  0  0  0  0  0  0  0  0  0  0  0  0
  -33.3340  -65.2970   49.9560 C   0  0  0  0  0  3  0  0  0  0  0  0
  -33.5170  -64.1310   49.2430 C   0  0  0  0  0  0  0  0  0  0  0  0
  -34.7360  -63.9480   48.6240 C   0  0  0  0  0  0  0  0  0  0  0  0
  -35.7280  -64.9020   48.7200 C   0  0  0  0  0  3  0  0  0  0  0  0
  -32.5180  -63.1630   49.1420 O   0  0  0  0  0  0  0  0  0  0  0  0
  -31.4240  -63.2750   48.2820 C   0  0  0  0  0  1  0  0  0  0  0  0
  -34.9100  -62.7690   47.9070 O   0  0  0  0  0  0  0  0  0  0  0  0
  -34.8760  -62.6750   46.5180 C   0  0  0  0  0  1  0  0  0  0  0  0
  -41.0510  -65.9840   50.4190 C   0  0  2  0  0  3  0  0  0  0  0  0
  -40.6900  -66.3120   49.1200 O   0  0  0  0  0  0  0  0  0  0  0  0
  -40.6150  -65.1630   48.3850 C   0  0  1  0  0  3  0  0  0  0  0  0
  -40.6450  -63.9800   49.2910 C   0  0  2  0  0  3  0  0  0  0  0  0
  -40.4290  -64.6240   50.6620 C   0  0  1  0  0  3  0  0  0  0  0  0
  -39.2740  -65.1520   47.6490 C   0  0  0  0  0  2  0  0  0  0  0  0
  -38.9380  -66.4510   47.2490 O   0  0  0  0  0  0  0  0  0  0  0  0
  -38.4660  -66.9390   47.9710 H   0  0  0  0  0  0  0  0  0  0  0  0
  -41.9430  -63.4330   49.3390 O   0  0  0  0  0  0  0  0  0  0  0  0
  -42.4380  -63.7490   50.1250 H   0  0  0  0  0  0  0  0  0  0  0  0
  -41.1070  -63.9120   51.6510 O   0  0  0  0  0  0  0  0  0  0  0  0
  -40.8080  -62.9660   51.6520 H   0  0  0  0  0  0  0  0  0  0  0  0
  -40.3970  -69.7160   55.0560 O   0  0  0  0  0  0  0  0  0  0  0  0
  -40.9410  -70.5300   55.3150 H   0  0  0  0  0  0  0  0  0  0  0  0
  -43.9740  -66.5000   55.0010 N   0  0  0  0  0  0  0  0  0  0  0  0
  -44.6880  -65.9500   54.5120 H   0  0  0  0  0  0  0  0  0  0  0  0
  -44.0660  -66.6550   56.0270 H   0  0  0  0  0  0  0  0  0  0  0  0
  1  2  1  0  0  0  0
  1  9  2  0  0  0  0
  2  3  1  0  0  0  0
  3  4  1  0  0  0  0
  3  8  2  0  0  0  0
  4  5  2  0  0  0  0
  5  6  1  0  0  0  0
  5 39  1  0  0  0  0
  7  6  2  0  0  0  0
  7 37  1  0  0  0  0
  8  7  1  0  0  0  0
  9  8  1  0  0  0  0
 10  1  1  0  0  0  0
 11 10  1  0  0  0  0
 12 10  1  0  0  0  0
 13 12  2  0  0  0  0
 14 13  1  0  0  0  0
 14 15  1  0  0  0  0
 15 16  1  0  0  0  0
 17 15  2  0  0  0  0
 18 17  1  0  0  0  0
 19 20  1  0  0  0  0
 19 18  2  0  0  0  0
 20 14  2  0  0  0  0
 21 18  1  0  0  0  0
 22 21  1  0  0  0  0
 23 19  1  0  0  0  0
 24 23  1  0  0  0  0
 25 29  1  0  0  0  0
 25  2  1  1  0  0  0
 26 25  1  0  0  0  0
 27 30  1  1  0  0  0
 27 26  1  0  0  0  0
 27 28  1  0  0  0  0
 28 33  1  1  0  0  0
 28 29  1  0  0  0  0
 29 35  1  1  0  0  0
 31 30  1  0  0  0  0
 31 32  1  0  0  0  0
 33 34  1  0  0  0  0
 35 36  1  0  0  0  0
 37 38  1  0  0  0  0
 39 41  1  0  0  0  0
 40 39  1  0  0  0  0
M  END
>  <Pose>
1

>  <Score>
-7.928

$$$$
