/Users/jonathanwahrer/Desktop/Msc/3_Semester/Drug_Design_Praktikum/waehrer_HTS_screening/HTS_experiment/out/docking_results/vina_output/3e7o/1355_docked.pdbqt
 OpenBabel03192216213D

 27 30  0  0  1  0  0  0  0  0999 V2000
  -38.5530  -64.0660   49.5680 N   0  0  0  0  0  0  0  0  0  0  0  0
  -37.4010  -64.6840   49.0510 C   0  0  0  0  0  0  0  0  0  0  0  0
  -37.5200  -65.6130   48.2220 O   0  0  0  0  0  0  0  0  0  0  0  0
  -38.4480  -63.2950   50.2560 H   0  0  0  0  0  0  0  0  0  0  0  0
  -39.8820  -64.4830   49.1590 C   0  0  0  0  0  2  0  0  0  0  0  0
  -40.2430  -65.7920   49.8140 C   0  0  0  0  0  0  0  0  0  0  0  0
  -41.0980  -66.6900   49.3970 O   0  0  0  0  0  0  0  0  0  0  0  0
  -41.1370  -67.6980   50.2420 N   0  0  0  0  0  0  0  0  0  0  0  0
  -40.2830  -67.4650   51.2530 C   0  0  0  0  0  0  0  0  0  0  0  0
  -39.7330  -66.2710   50.9700 N   0  0  0  0  0  0  0  0  0  0  0  0
  -40.0140  -68.3210   52.4030 C   0  0  0  0  0  0  0  0  0  0  0  0
  -39.0370  -69.2930   52.3880 C   0  0  0  0  0  0  0  0  0  0  0  0
  -38.1030  -69.4860   50.9240 Cl  0  0  0  0  0  0  0  0  0  0  0  0
  -38.7760  -70.1110   53.4830 C   0  0  0  0  0  3  0  0  0  0  0  0
  -39.5030  -69.9670   54.6380 C   0  0  0  0  0  3  0  0  0  0  0  0
  -40.5000  -68.9840   54.6730 C   0  0  0  0  0  3  0  0  0  0  0  0
  -40.7290  -68.1940   53.5700 C   0  0  0  0  0  3  0  0  0  0  0  0
  -36.0650  -64.2460   49.4810 C   0  0  1  0  0  3  0  0  0  0  0  0
  -35.1170  -65.4140   49.6820 C   0  0  0  0  0  2  0  0  0  0  0  0
  -33.7220  -64.9480   49.9300 C   0  0  0  0  0  2  0  0  0  0  0  0
  -32.8720  -64.8180   48.7090 C   0  0  0  0  0  2  0  0  0  0  0  0
  -33.6930  -64.5020   47.4630 C   0  0  0  0  0  2  0  0  0  0  0  0
  -34.4680  -63.3160   47.7480 N   0  0  0  0  0  0  0  0  0  0  0  0
  -34.2610  -62.1620   47.1720 N   0  0  0  0  0  0  0  0  0  0  0  0
  -35.4840  -63.2100   48.6140 C   0  0  0  0  0  0  0  0  0  0  0  0
  -35.1240  -61.2970   47.6440 N   0  0  0  0  0  0  0  0  0  0  0  0
  -35.8760  -61.9270   48.5260 N   0  0  0  0  0  0  0  0  0  0  0  0
  1  4  1  0  0  0  0
  2  1  1  0  0  0  0
  3  2  2  0  0  0  0
  5  1  1  0  0  0  0
  5  6  1  0  0  0  0
  6 10  2  0  0  0  0
  7  6  1  0  0  0  0
  7  8  1  0  0  0  0
  8  9  2  0  0  0  0
  9 11  1  0  0  0  0
 10  9  1  0  0  0  0
 11 17  1  0  0  0  0
 12 11  2  0  0  0  0
 12 14  1  0  0  0  0
 13 12  1  0  0  0  0
 14 15  2  0  0  0  0
 15 16  1  0  0  0  0
 17 16  2  0  0  0  0
 18  2  1  6  0  0  0
 18 19  1  0  0  0  0
 19 20  1  0  0  0  0
 21 20  1  0  0  0  0
 22 23  1  0  0  0  0
 22 21  1  0  0  0  0
 23 25  1  0  0  0  0
 24 26  2  0  0  0  0
 24 23  1  0  0  0  0
 25 18  1  0  0  0  0
 26 27  1  0  0  0  0
 27 25  2  0  0  0  0
M  END
>  <Pose>
1

>  <Score>
-8.486

$$$$
