/Users/jonathanwahrer/Desktop/Msc/3_Semester/Drug_Design_Praktikum/waehrer_HTS_screening/HTS_experiment/out/docking_results/vina_output/3e7o/1357_docked.pdbqt
 OpenBabel03192216213D

 24 27  0  0  1  0  0  0  0  0999 V2000
  -35.9830  -65.2420   49.0720 C   0  0  1  0  0  3  0  0  0  0  0  0
  -34.8790  -64.4790   48.6890 C   0  0  1  0  0  0  0  0  0  0  0  0
  -33.7390  -64.5960   47.7380 C   0  0  0  0  0  0  0  0  0  0  0  0
  -34.4150  -63.8350   46.6580 N   0  0  0  0  0  2  0  0  0  0  0  0
  -35.6620  -64.1910   46.6420 C   0  0  1  0  0  3  0  0  0  0  0  0
  -35.8360  -65.1690   47.6690 C   0  0  2  0  0  0  0  0  0  0  0  0
  -35.4050  -66.4860   47.1100 C   0  0  0  0  0  0  0  0  0  0  0  0
  -35.0870  -67.5400   46.6760 N   0  0  0  0  0  0  0  0  0  0  0  0
  -32.6770  -63.8340   48.2370 O   0  0  0  0  0  0  0  0  0  0  0  0
  -31.5570  -64.6420   48.2220 C   0  0  0  0  0  2  0  0  0  0  0  0
  -31.8970  -65.6450   47.1320 C   0  0  0  0  0  2  0  0  0  0  0  0
  -33.2800  -65.8030   47.3950 O   0  0  0  0  0  0  0  0  0  0  0  0
  -35.1130  -63.0020   48.8740 C   0  0  0  0  0  0  0  0  0  0  0  0
  -35.3180  -61.8480   49.0240 N   0  0  0  0  0  0  0  0  0  0  0  0
  -35.7130  -66.4850   49.8400 C   0  0  0  0  0  0  0  0  0  0  0  0
  -36.6790  -67.4360   50.0540 C   0  0  0  0  0  0  0  0  0  0  0  0
  -38.4490  -67.2430   49.3650 Br  0  0  0  0  0  0  0  0  0  0  0  0
  -36.3480  -68.5670   50.7880 C   0  0  0  0  0  3  0  0  0  0  0  0
  -35.0620  -68.7550   51.3070 C   0  0  0  0  0  3  0  0  0  0  0  0
  -34.1100  -67.7900   51.0810 C   0  0  0  0  0  3  0  0  0  0  0  0
  -34.4470  -66.6620   50.3460 C   0  0  0  0  0  3  0  0  0  0  0  0
  -36.6730  -63.6810   45.7450 N   0  0  0  0  0  0  0  0  0  0  0  0
  -37.1020  -64.2870   45.0200 H   0  0  0  0  0  0  0  0  0  0  0  0
  -36.9900  -62.6960   45.8100 H   0  0  0  0  0  0  0  0  0  0  0  0
  1 15  1  1  0  0  0
  2 13  1  1  0  0  0
  2  1  1  0  0  0  0
  3  9  1  0  0  0  0
  3  2  1  0  0  0  0
  4  3  1  0  0  0  0
  5 22  1  1  0  0  0
  5  4  1  0  0  0  0
  5  6  1  0  0  0  0
  6  7  1  6  0  0  0
  6  2  1  0  0  0  0
  6  1  1  0  0  0  0
  8  7  3  0  0  0  0
 10  9  1  0  0  0  0
 11 12  1  0  0  0  0
 11 10  1  0  0  0  0
 12  3  1  0  0  0  0
 13 14  3  0  0  0  0
 15 16  2  0  0  0  0
 15 21  1  0  0  0  0
 16 18  1  0  0  0  0
 17 16  1  0  0  0  0
 18 19  2  0  0  0  0
 20 19  1  0  0  0  0
 21 20  2  0  0  0  0
 22 24  1  0  0  0  0
 23 22  1  0  0  0  0
M  END
>  <Pose>
1

>  <Score>
-6.605

$$$$
