MODEL 1
REMARK VINA RESULT:    -6.605      0.000      0.000
REMARK INTER + INTRA:          -7.434
REMARK INTER:                  -7.185
REMARK INTRA:                  -0.250
REMARK UNBOUND:                -0.250
REMARK  2 active torsions:
REMARK  status: ('A' for Active; 'I' for Inactive)
REMARK    1  A    between atoms: C_3  and  C_8 
REMARK    2  A    between atoms: C_12  and  N_16 
ROOT
ATOM      1  C   UNK d   1     -35.983 -65.242  49.072  0.00  0.00     0.084 A 
ATOM      2  C   UNK d   1     -34.879 -64.479  48.689  0.00  0.00     0.166 A 
ATOM      3  C   UNK d   1     -33.739 -64.596  47.738  0.00  0.00     0.295 C 
ATOM      4  N   UNK d   1     -34.415 -63.835  46.658  0.00  0.00    -0.209 NA
ATOM      5  C   UNK d   1     -35.662 -64.191  46.642  0.00  0.00     0.124 C 
ATOM      6  C   UNK d   1     -35.836 -65.169  47.669  0.00  0.00     0.146 A 
ATOM      7  C   UNK d   1     -35.405 -66.486  47.110  0.00  0.00     0.080 C 
ATOM      8  N   UNK d   1     -35.087 -67.540  46.676  0.00  0.00    -0.196 NA
ATOM      9  O   UNK d   1     -32.677 -63.834  48.237  0.00  0.00    -0.333 OA
ATOM     10  C   UNK d   1     -31.557 -64.642  48.222  0.00  0.00     0.199 C 
ATOM     11  C   UNK d   1     -31.897 -65.645  47.132  0.00  0.00     0.199 C 
ATOM     12  O   UNK d   1     -33.280 -65.803  47.395  0.00  0.00    -0.333 OA
ATOM     13  C   UNK d   1     -35.113 -63.002  48.874  0.00  0.00     0.080 C 
ATOM     14  N   UNK d   1     -35.318 -61.848  49.024  0.00  0.00    -0.196 NA
ENDROOT
BRANCH   1  15
ATOM     15  C   UNK d   1     -35.713 -66.485  49.840  0.00  0.00    -0.032 A 
ATOM     16  C   UNK d   1     -36.679 -67.436  50.054  0.00  0.00     0.017 A 
ATOM     17 Br   UNK d   1     -38.449 -67.243  49.365  0.00  0.00    -0.051 Br
ATOM     18  C   UNK d   1     -36.348 -68.567  50.788  0.00  0.00     0.019 A 
ATOM     19  C   UNK d   1     -35.062 -68.755  51.307  0.00  0.00     0.001 A 
ATOM     20  C   UNK d   1     -34.110 -67.790  51.081  0.00  0.00     0.001 A 
ATOM     21  C   UNK d   1     -34.447 -66.662  50.346  0.00  0.00     0.009 A 
ENDBRANCH   1  15
BRANCH   5  22
ATOM     22  N   UNK d   1     -36.673 -63.681  45.745  0.00  0.00    -0.386 N 
ATOM     23  H   UNK d   1     -37.102 -64.287  45.020  0.00  0.00     0.157 HD
ATOM     24  H   UNK d   1     -36.990 -62.696  45.810  0.00  0.00     0.157 HD
ENDBRANCH   5  22
TORSDOF 2
ENDMDL
