/Users/jonathanwahrer/Desktop/Msc/3_Semester/Drug_Design_Praktikum/waehrer_HTS_screening/HTS_experiment/out/docking_results/vina_output/3e7o/1360_docked.pdbqt
 OpenBabel03192216223D

 34 37  0  0  1  0  0  0  0  0999 V2000
  -40.5260  -64.7560   49.1630 C   0  0  1  0  0  3  0  0  0  0  0  0
  -39.5020  -63.8990   48.6240 N   0  0  0  0  0  0  0  0  0  0  0  0
  -38.3480  -64.2470   49.4840 C   0  0  2  0  0  3  0  0  0  0  0  0
  -37.2240  -63.5900   48.9390 N   0  0  0  0  0  0  0  0  0  0  0  0
  -37.6820  -62.7580   47.8690 C   0  0  0  0  0  0  0  0  0  0  0  0
  -39.0530  -62.9610   47.7000 C   0  0  0  0  0  0  0  0  0  0  0  0
  -39.7120  -62.2540   46.7160 C   0  0  0  0  0  0  0  0  0  0  0  0
  -40.9460  -62.4540   46.5840 O   0  0  0  0  0  0  0  0  0  0  0  0
  -39.0300  -61.3950   45.9500 N   0  0  0  0  0  0  0  0  0  0  0  0
  -37.7310  -61.2230   46.1320 C   0  0  0  0  0  0  0  0  0  0  0  0
  -37.1260  -60.4040   45.3880 O   0  0  0  0  0  0  0  0  0  0  0  0
  -37.0230  -61.8950   47.0900 N   0  0  0  0  0  0  0  0  0  0  0  0
  -35.6090  -61.6130   47.1870 C   0  0  0  0  0  1  0  0  0  0  0  0
  -39.7690  -60.6640   44.9150 C   0  0  0  0  0  1  0  0  0  0  0  0
  -35.8500  -63.6720   49.3630 C   0  0  0  0  0  1  0  0  0  0  0  0
  -38.4000  -65.7130   49.5960 C   0  0  1  0  0  3  0  0  0  0  0  0
  -39.7790  -66.0940   49.0410 C   0  0  1  0  0  3  0  0  0  0  0  0
  -40.7870  -64.4820   50.5580 C   0  0  2  0  0  3  0  0  0  0  0  0
  -39.8530  -63.7820   51.1370 O   0  0  0  0  0  1  0  0  0  0  0  0
  -41.8980  -64.8520   51.4060 C   0  0  0  0  0  0  0  0  0  0  0  0
  -41.7420  -65.5470   52.5830 C   0  0  0  0  0  3  0  0  0  0  0  0
  -42.8510  -65.8890   53.3170 C   0  0  0  0  0  3  0  0  0  0  0  0
  -44.1310  -65.5510   52.9040 C   0  0  0  0  0  0  0  0  0  0  0  0
  -45.6520  -66.0390   53.9440 Br  0  0  0  0  0  0  0  0  0  0  0  0
  -44.2810  -64.8520   51.7200 C   0  0  0  0  0  3  0  0  0  0  0  0
  -43.1800  -64.5040   50.9750 C   0  0  0  0  0  3  0  0  0  0  0  0
  -40.3980  -67.1690   49.8090 C   0  0  0  0  0  0  0  0  0  0  0  0
  -41.5560  -67.5970   49.4860 O   0  0  0  0  0  0  0  0  0  0  0  0
  -39.7750  -67.7490   50.8810 O   0  0  0  0  0  0  0  0  0  0  0  0
  -40.4220  -68.6870   51.7450 C   0  0  0  0  0  1  0  0  0  0  0  0
  -37.3470  -66.5070   48.9790 C   0  0  0  0  0  0  0  0  0  0  0  0
  -37.3490  -66.6930   47.7340 O   0  0  0  0  0  0  0  0  0  0  0  0
  -36.3310  -67.0710   49.7200 O   0  0  0  0  0  0  0  0  0  0  0  0
  -36.4240  -68.3890   50.2150 C   0  0  0  0  0  1  0  0  0  0  0  0
  1 18  1  1  0  0  0
  2  1  1  0  0  0  0
  3  2  1  6  0  0  0
  3 16  1  0  0  0  0
  4 15  1  0  0  0  0
  4  3  1  0  0  0  0
  5  4  1  0  0  0  0
  6  5  2  0  0  0  0
  6  2  1  0  0  0  0
  7  6  1  0  0  0  0
  8  7  2  0  0  0  0
  9 10  1  0  0  0  0
  9  7  1  0  0  0  0
 10 12  1  0  0  0  0
 11 10  2  0  0  0  0
 12 13  1  0  0  0  0
 12  5  1  0  0  0  0
 14  9  1  0  0  0  0
 16 31  1  6  0  0  0
 17  1  1  0  0  0  0
 17 16  1  0  0  0  0
 17 27  1  1  0  0  0
 18 19  1  1  0  0  0
 18 20  1  0  0  0  0
 20 21  1  0  0  0  0
 21 22  2  0  0  0  0
 23 22  1  0  0  0  0
 23 24  1  0  0  0  0
 25 23  2  0  0  0  0
 26 20  2  0  0  0  0
 26 25  1  0  0  0  0
 27 29  1  0  0  0  0
 28 27  2  0  0  0  0
 29 30  1  0  0  0  0
 31 33  1  0  0  0  0
 32 31  2  0  0  0  0
 33 34  1  0  0  0  0
M  END
>  <Pose>
1

>  <Score>
-6.663

$$$$
