MODEL 1
REMARK VINA RESULT:    -8.390      0.000      0.000
REMARK INTER + INTRA:         -10.552
REMARK INTER:                  -9.862
REMARK INTRA:                  -0.690
REMARK UNBOUND:                -0.690
REMARK  3 active torsions:
REMARK  status: ('A' for Active; 'I' for Inactive)
REMARK    1  A    between atoms: C_4  and  C_8 
REMARK       I    between atoms: C_8  and  N_10 
REMARK    2  A    between atoms: N_10  and  C_11 
REMARK    3  A    between atoms: C_11  and  C_13 
REMARK       I    between atoms: C_13  and  N_15 
ROOT
ATOM      1  C   UNK d   1     -35.198 -66.404  48.958  0.00  0.00     0.242 C 
ATOM      2  O   UNK d   1     -34.281 -67.251  48.922  0.00  0.00    -0.271 OA
ATOM      3  N   UNK d   1     -34.901 -65.058  49.200  0.00  0.00    -0.350 N 
ATOM      4  C   UNK d   1     -33.671 -64.348  49.101  0.00  0.00     0.129 C 
ATOM      5  C   UNK d   1     -34.089 -62.920  48.714  0.00  0.00     0.068 C 
ATOM      6  C   UNK d   1     -35.363 -62.902  47.907  0.00  0.00     0.206 C 
ATOM      7  N   UNK d   1     -35.745 -61.560  47.561  0.00  0.00     0.099 N 
ATOM      8  C   UNK d   1     -37.037 -61.631  46.864  0.00  0.00     0.277 C 
ATOM      9  C   UNK d   1     -36.916 -62.310  45.536  0.00  0.00     0.089 C 
ATOM     10  C   UNK d   1     -35.886 -63.373  45.528  0.00  0.00     0.039 A 
ATOM     11  N   UNK d   1     -35.500 -64.197  44.548  0.00  0.00    -0.352 N 
ATOM     12  C   UNK d   1     -34.526 -64.999  45.021  0.00  0.00     0.207 A 
ATOM     13  N   UNK d   1     -34.318 -64.661  46.301  0.00  0.00    -0.244 NA
ATOM     14  C   UNK d   1     -35.130 -63.659  46.672  0.00  0.00     0.097 A 
ATOM     15  C   UNK d   1     -36.565 -63.450  48.695  0.00  0.00     0.068 C 
ATOM     16  C   UNK d   1     -35.970 -64.199  49.810  0.00  0.00     0.129 C 
ATOM     17  H   UNK d   1     -35.928 -61.015  48.437  0.00  0.00     0.317 HD
ATOM     18  H   UNK d   1     -35.839 -64.273  43.563  0.00  0.00     0.166 HD
ENDROOT
BRANCH   1  19
ATOM     19  C   UNK d   1     -36.595 -66.881  48.724  0.00  0.00     0.173 C 
ATOM     20  C   UNK d   1     -36.521 -67.892  47.549  0.00  0.00     0.042 C 
BRANCH  19  21
ATOM     21  N   UNK d   1     -37.133 -67.667  49.807  0.00  0.00    -0.344 N 
ATOM     22  C   UNK d   1     -38.533 -67.510  50.164  0.00  0.00     0.252 C 
ATOM     23  O   UNK d   1     -39.283 -66.754  49.533  0.00  0.00    -0.268 OA
ATOM     24  H   UNK d   1     -36.545 -68.327  50.311  0.00  0.00     0.163 HD
BRANCH  22  25
ATOM     25  C   UNK d   1     -38.992 -68.292  51.324  0.00  0.00     0.033 A 
ATOM     26  C   UNK d   1     -40.084 -67.797  52.055  0.00  0.00     0.036 A 
ATOM     27  C   UNK d   1     -40.592 -68.428  53.163  0.00  0.00     0.011 A 
ATOM     28 Br   UNK d   1     -42.104 -67.673  54.097  0.00  0.00    -0.051 Br
ATOM     29  C   UNK d   1     -40.005 -69.599  53.578  0.00  0.00     0.019 A 
ATOM     30  C   UNK d   1     -38.925 -70.101  52.871  0.00  0.00     0.002 A 
ATOM     31  C   UNK d   1     -38.418 -69.452  51.750  0.00  0.00     0.017 A 
ENDBRANCH  22  25
ENDBRANCH  19  21
ENDBRANCH   1  19
TORSDOF 3
ENDMDL
