MODEL 1
REMARK VINA RESULT:    -8.917      0.000      0.000
REMARK INTER + INTRA:         -11.293
REMARK INTER:                 -11.263
REMARK INTRA:                  -0.030
REMARK UNBOUND:                -0.030
REMARK  5 active torsions:
REMARK  status: ('A' for Active; 'I' for Inactive)
REMARK    1  A    between atoms: C_6  and  C_12 
REMARK    2  A    between atoms: C_12  and  C_13 
REMARK    3  A    between atoms: C_13  and  C_14 
REMARK       I    between atoms: C_14  and  N_16 
REMARK    4  A    between atoms: C_18  and  N_24 
REMARK    5  A    between atoms: C_19  and  O_22 
ROOT
ATOM      1  C   UNK d   1     -36.323 -67.569  49.143  0.00  0.00     0.220 C 
ATOM      2  O   UNK d   1     -35.213 -68.085  49.407  0.00  0.00    -0.273 OA
ATOM      3  N   UNK d   1     -36.361 -66.376  48.331  0.00  0.00    -0.350 N 
ATOM      4  C   UNK d   1     -35.124 -65.821  47.852  0.00  0.00     0.154 C 
ATOM      5  C   UNK d   1     -34.928 -64.493  48.552  0.00  0.00     0.146 C 
ATOM      6  C   UNK d   1     -36.199 -63.788  48.861  0.00  0.00     0.078 C 
ATOM      7  C   UNK d   1     -37.380 -64.216  48.070  0.00  0.00     0.059 C 
ATOM      8  C   UNK d   1     -37.570 -65.694  47.962  0.00  0.00     0.129 C 
ATOM      9  C   UNK d   1     -35.973 -62.297  48.577  0.00  0.00     0.048 C 
ENDROOT
BRANCH   1  10
ATOM     10  C   UNK d   1     -37.588 -68.129  49.630  0.00  0.00     0.110 C 
BRANCH  10  11
ATOM     11  C   UNK d   1     -37.616 -68.698  50.985  0.00  0.00     0.088 C 
BRANCH  11  12
ATOM     12  C   UNK d   1     -38.847 -68.479  51.787  0.00  0.00     0.107 A 
ATOM     13  N   UNK d   1     -39.764 -67.479  51.545  0.00  0.00    -0.233 NA
ATOM     14  C   UNK d   1     -40.722 -67.520  52.483  0.00  0.00     0.087 A 
ATOM     15  C   UNK d   1     -41.861 -66.767  52.719  0.00  0.00     0.057 A 
ATOM     16  C   UNK d   1     -40.439 -68.549  53.351  0.00  0.00     0.064 A 
ATOM     17  C   UNK d   1     -42.683 -67.043  53.787  0.00  0.00     0.036 A 
ATOM     18 Cl   UNK d   1     -44.127 -66.052  54.045  0.00  0.00    -0.084 Cl
ATOM     19  C   UNK d   1     -42.384 -68.081  54.648  0.00  0.00     0.026 A 
ATOM     20  C   UNK d   1     -41.257 -68.834  54.424  0.00  0.00     0.034 A 
ATOM     21  N   UNK d   1     -39.282 -69.099  52.878  0.00  0.00    -0.338 N 
ATOM     22  C   UNK d   1     -38.650 -70.201  53.581  0.00  0.00     0.158 C 
ENDBRANCH  11  12
ENDBRANCH  10  11
ENDBRANCH   1  10
BRANCH   5  23
ATOM     23  N   UNK d   1     -34.007 -63.710  47.764  0.00  0.00    -0.300 N 
ATOM     24  C   UNK d   1     -34.253 -63.485  46.459  0.00  0.00     0.102 A 
ATOM     25  C   UNK d   1     -33.403 -62.744  45.669  0.00  0.00     0.092 A 
ATOM     26  C   UNK d   1     -32.267 -62.220  46.242  0.00  0.00     0.250 A 
ATOM     27  O   UNK d   1     -31.440 -61.525  45.564  0.00  0.00    -0.268 OA
ATOM     28  N   UNK d   1     -32.048 -62.461  47.544  0.00  0.00    -0.275 N 
ATOM     29  C   UNK d   1     -32.888 -63.183  48.288  0.00  0.00     0.329 A 
ATOM     30  H   UNK d   1     -31.181 -62.076  48.027  0.00  0.00     0.173 HD
ATOM     31  O   UNK d   1     -32.634 -63.380  49.511  0.00  0.00    -0.246 OA
ENDBRANCH   5  23
BRANCH   6  32
ATOM     32  O   UNK d   1     -36.543 -63.856  50.221  0.00  0.00    -0.388 OA
ATOM     33  H   UNK d   1     -36.930 -64.770  50.394  0.00  0.00     0.210 HD
ENDBRANCH   6  32
TORSDOF 5
ENDMDL
