MODEL 1
REMARK VINA RESULT:    -6.789      0.000      0.000
REMARK INTER + INTRA:          -8.023
REMARK INTER:                  -7.980
REMARK INTRA:                  -0.043
REMARK UNBOUND:                -0.043
REMARK  3 active torsions:
REMARK  status: ('A' for Active; 'I' for Inactive)
REMARK    1  A    between atoms: C_11  and  N_14 
REMARK    2  A    between atoms: C_11  and  C_20 
REMARK    3  A    between atoms: C_20  and  N_21 
ROOT
ATOM      1 Br   UNK d   1     -40.865 -67.914  54.395  0.00  0.00    -0.051 Br
ATOM      2  C   UNK d   1     -40.067 -67.803  52.665  0.00  0.00     0.018 A 
ATOM      3  C   UNK d   1     -40.227 -66.682  51.873  0.00  0.00     0.037 A 
ATOM      4  C   UNK d   1     -39.671 -66.555  50.617  0.00  0.00     0.047 A 
ATOM      5  C   UNK d   1     -38.916 -67.644  50.173  0.00  0.00     0.083 A 
ATOM      6  C   UNK d   1     -38.757 -68.758  50.961  0.00  0.00     0.045 A 
ATOM      7  C   UNK d   1     -39.319 -68.871  52.215  0.00  0.00    -0.042 A 
ATOM      8  C   UNK d   1     -39.114 -70.104  53.027  0.00  0.00     0.049 C 
ATOM      9  O   UNK d   1     -38.371 -67.479  48.907  0.00  0.00    -0.347 OA
ATOM     10  C   UNK d   1     -38.709 -66.428  48.021  0.00  0.00     0.216 C 
ATOM     11  C   UNK d   1     -38.790 -65.069  48.793  0.00  0.00     0.142 C 
ATOM     12  C   UNK d   1     -39.856 -65.381  49.776  0.00  0.00     0.194 C 
ATOM     13  O   UNK d   1     -40.910 -64.749  49.967  0.00  0.00    -0.289 OA
ENDROOT
BRANCH  11  14
ATOM     14  N   UNK d   1     -38.987 -63.993  47.985  0.00  0.00    -0.390 N 
ATOM     15  C   UNK d   1     -38.769 -62.665  48.373  0.00  0.00     0.144 C 
ATOM     16  C   UNK d   1     -40.086 -61.998  48.706  0.00  0.00     0.187 C 
ATOM     17  O   UNK d   1     -40.792 -61.926  47.481  0.00  0.00    -0.388 OA
ATOM     18  C   UNK d   1     -41.181 -63.253  47.229  0.00  0.00     0.187 C 
ATOM     19  C   UNK d   1     -39.917 -64.068  46.947  0.00  0.00     0.144 C 
ENDBRANCH  11  14
BRANCH  11  20
ATOM     20  C   UNK d   1     -37.474 -64.999  49.482  0.00  0.00     0.314 C 
BRANCH  20  21
ATOM     21  N   UNK d   1     -36.311 -65.437  48.775  0.00  0.00     0.095 N 
ATOM     22  C   UNK d   1     -35.579 -64.489  48.024  0.00  0.00     0.298 C 
ATOM     23  C   UNK d   1     -34.737 -63.600  48.951  0.00  0.00     0.198 C 
ATOM     24  O   UNK d   1     -33.783 -64.451  49.519  0.00  0.00    -0.388 OA
ATOM     25  C   UNK d   1     -34.468 -65.297  50.399  0.00  0.00     0.198 C 
ATOM     26  C   UNK d   1     -35.453 -66.181  49.698  0.00  0.00     0.298 C 
ENDBRANCH  20  21
ENDBRANCH  11  20
TORSDOF 3
ENDMDL
