MODEL 1
REMARK VINA RESULT:    -9.224      0.000      0.000
REMARK INTER + INTRA:         -11.247
REMARK INTER:                 -10.842
REMARK INTRA:                  -0.405
REMARK UNBOUND:                -0.405
REMARK  3 active torsions:
REMARK  status: ('A' for Active; 'I' for Inactive)
REMARK    1  A    between atoms: N_9  and  C_11 
REMARK    2  A    between atoms: C_11  and  C_12 
REMARK    3  A    between atoms: C_12  and  C_14 
ROOT
ATOM      1  C   UNK d   1     -42.218 -67.188  54.898  0.00  0.00     0.211 C 
ENDROOT
BRANCH   1   2
ATOM      2  N   UNK d   1     -43.035 -66.437  53.960  0.00  0.00    -0.355 N 
ATOM      3  C   UNK d   1     -42.544 -65.465  53.172  0.00  0.00     0.127 A 
ATOM      4  C   UNK d   1     -43.364 -64.770  52.289  0.00  0.00     0.126 A 
ATOM      5  C   UNK d   1     -44.707 -65.058  52.193  0.00  0.00     0.104 A 
ATOM      6  N   UNK d   1     -43.164 -63.769  51.393  0.00  0.00    -0.128 NA
ATOM      7  C   UNK d   1     -45.207 -66.035  52.984  0.00  0.00     0.057 A 
ATOM      8  N   UNK d   1     -45.292 -64.261  51.277  0.00  0.00    -0.252 N 
ATOM      9 Br   UNK d   1     -47.052 -66.448  52.872  0.00  0.00    -0.047 Br
ATOM     10  C   UNK d   1     -44.354 -66.709  53.858  0.00  0.00     0.112 A 
ATOM     11  N   UNK d   1     -44.304 -63.497  50.822  0.00  0.00    -0.065 NA
ATOM     12  C   UNK d   1     -46.629 -64.171  50.827  0.00  0.00     0.182 C 
ENDBRANCH   1   2
BRANCH   1  13
ATOM     13  C   UNK d   1     -41.786 -68.493  54.407  0.00  0.00     0.177 C 
ATOM     14  O   UNK d   1     -42.543 -69.475  54.677  0.00  0.00    -0.291 OA
BRANCH  13  15
ATOM     15  C   UNK d   1     -40.575 -68.772  53.640  0.00  0.00     0.012 A 
ATOM     16  C   UNK d   1     -40.332 -68.056  52.502  0.00  0.00     0.027 A 
ATOM     17  C   UNK d   1     -39.207 -68.301  51.759  0.00  0.00    -0.025 A 
ATOM     18  C   UNK d   1     -38.285 -69.266  52.122  0.00  0.00    -0.026 A 
ATOM     19  C   UNK d   1     -38.981 -67.563  50.611  0.00  0.00     0.012 A 
ATOM     20  C   UNK d   1     -38.563 -69.978  53.286  0.00  0.00     0.013 A 
ATOM     21  C   UNK d   1     -37.145 -69.530  51.391  0.00  0.00     0.012 A 
ATOM     22  C   UNK d   1     -39.684 -69.737  54.031  0.00  0.00     0.016 A 
ATOM     23  C   UNK d   1     -36.933 -68.787  50.249  0.00  0.00     0.001 A 
ATOM     24  C   UNK d   1     -37.846 -67.822  49.878  0.00  0.00     0.001 A 
ENDBRANCH  13  15
ENDBRANCH   1  13
TORSDOF 3
ENDMDL
