/Users/jonathanwahrer/Desktop/Msc/3_Semester/Drug_Design_Praktikum/waehrer_HTS_screening/HTS_experiment/out/docking_results/vina_output/3e7o/1413_docked.pdbqt
 OpenBabel03192216233D

 24 27  0  0  0  0  0  0  0  0999 V2000
  -42.2180  -67.1880   54.8980 C   0  0  0  0  0  2  0  0  0  0  0  0
  -43.0350  -66.4370   53.9600 N   0  0  0  0  0  0  0  0  0  0  0  0
  -42.5440  -65.4650   53.1720 C   0  0  0  0  0  2  0  0  0  0  0  0
  -43.3640  -64.7700   52.2890 C   0  0  0  0  0  0  0  0  0  0  0  0
  -44.7070  -65.0580   52.1930 C   0  0  0  0  0  0  0  0  0  0  0  0
  -43.1640  -63.7690   51.3930 N   0  0  0  0  0  0  0  0  0  0  0  0
  -45.2070  -66.0350   52.9840 C   0  0  0  0  0  0  0  0  0  0  0  0
  -45.2920  -64.2610   51.2770 N   0  0  0  0  0  0  0  0  0  0  0  0
  -47.0520  -66.4480   52.8720 Br  0  0  0  0  0  0  0  0  0  0  0  0
  -44.3540  -66.7090   53.8580 C   0  0  0  0  0  3  0  0  0  0  0  0
  -44.3040  -63.4970   50.8220 N   0  0  0  0  0  0  0  0  0  0  0  0
  -46.6290  -64.1710   50.8270 C   0  0  0  0  0  1  0  0  0  0  0  0
  -41.7860  -68.4930   54.4070 C   0  0  0  0  0  0  0  0  0  0  0  0
  -42.5430  -69.4750   54.6770 O   0  0  0  0  0  0  0  0  0  0  0  0
  -40.5750  -68.7720   53.6400 C   0  0  0  0  0  0  0  0  0  0  0  0
  -40.3320  -68.0560   52.5020 C   0  0  0  0  0  3  0  0  0  0  0  0
  -39.2070  -68.3010   51.7590 C   0  0  0  0  0  0  0  0  0  0  0  0
  -38.2850  -69.2660   52.1220 C   0  0  0  0  0  0  0  0  0  0  0  0
  -38.9810  -67.5630   50.6110 C   0  0  0  0  0  3  0  0  0  0  0  0
  -38.5630  -69.9780   53.2860 C   0  0  0  0  0  3  0  0  0  0  0  0
  -37.1450  -69.5300   51.3910 C   0  0  0  0  0  3  0  0  0  0  0  0
  -39.6840  -69.7370   54.0310 C   0  0  0  0  0  3  0  0  0  0  0  0
  -36.9330  -68.7870   50.2490 C   0  0  0  0  0  3  0  0  0  0  0  0
  -37.8460  -67.8220   49.8780 C   0  0  0  0  0  3  0  0  0  0  0  0
  2  1  1  0  0  0  0
  3  2  1  0  0  0  0
  4  3  1  0  0  0  0
  5  4  2  0  0  0  0
  5  7  1  0  0  0  0
  6  4  1  0  0  0  0
  7 10  2  0  0  0  0
  8  5  1  0  0  0  0
  9  7  1  0  0  0  0
 10  2  1  0  0  0  0
 11  8  1  0  0  0  0
 11  6  2  0  0  0  0
 12  8  1  0  0  0  0
 13 14  2  0  0  0  0
 13  1  1  0  0  0  0
 15 22  1  0  0  0  0
 15 13  1  0  0  0  0
 16 15  2  0  0  0  0
 17 18  1  0  0  0  0
 17 16  1  0  0  0  0
 18 20  1  0  0  0  0
 19 17  2  0  0  0  0
 20 22  2  0  0  0  0
 21 18  2  0  0  0  0
 23 21  1  0  0  0  0
 24 23  2  0  0  0  0
 24 19  1  0  0  0  0
M  END
>  <Pose>
1

>  <Score>
-9.224

$$$$
