MODEL 1
REMARK VINA RESULT:    -8.243      0.000      0.000
REMARK INTER + INTRA:         -12.553
REMARK INTER:                 -11.135
REMARK INTRA:                  -1.419
REMARK UNBOUND:                -1.419
REMARK  6 active torsions:
REMARK  status: ('A' for Active; 'I' for Inactive)
REMARK    1  A    between atoms: C_13  and  C_29 
REMARK    2  A    between atoms: C_15  and  C_16 
REMARK       I    between atoms: C_16  and  N_18 
REMARK    3  A    between atoms: N_18  and  C_19 
REMARK    4  A    between atoms: C_20  and  O_27 
REMARK    5  A    between atoms: C_23  and  O_25 
REMARK    6  A    between atoms: C_29  and  C_30 
REMARK       I    between atoms: C_30  and  N_32 
ROOT
ATOM      1 Cl   UNK d   1     -38.715 -68.936  50.935  0.00  0.00    -0.084 Cl
ATOM      2  C   UNK d   1     -39.845 -68.414  52.181  0.00  0.00     0.034 A 
ATOM      3  C   UNK d   1     -40.829 -67.496  51.932  0.00  0.00     0.036 A 
ATOM      4  C   UNK d   1     -41.686 -67.123  52.942  0.00  0.00     0.019 A 
ATOM      5  C   UNK d   1     -41.520 -67.692  54.178  0.00  0.00     0.044 A 
ATOM      6  C   UNK d   1     -40.514 -68.629  54.429  0.00  0.00     0.032 A 
ATOM      7  C   UNK d   1     -39.670 -68.991  53.420  0.00  0.00     0.026 A 
ATOM      8  N   UNK d   1     -42.479 -67.227  55.120  0.00  0.00    -0.324 N 
ATOM      9  C   UNK d   1     -43.291 -66.316  54.433  0.00  0.00     0.267 A 
ATOM     10  O   UNK d   1     -44.269 -65.726  55.000  0.00  0.00    -0.270 OA
ATOM     11  C   UNK d   1     -42.830 -66.186  53.044  0.00  0.00     0.278 A 
ATOM     12  N   UNK d   1     -43.917 -66.560  52.183  0.00  0.00     0.113 N 
ATOM     13  C   UNK d   1     -44.377 -65.401  51.485  0.00  0.00     0.232 C 
ATOM     14  C   UNK d   1     -43.766 -64.209  52.149  0.00  0.00     0.053 C 
ATOM     15  C   UNK d   1     -42.513 -64.785  52.747  0.00  0.00     0.133 C 
ATOM     16  H   UNK d   1     -42.567 -67.508  56.133  0.00  0.00     0.169 HD
ATOM     17  H   UNK d   1     -43.651 -67.354  51.563  0.00  0.00     0.318 HD
ENDROOT
BRANCH  15  18
ATOM     18  C   UNK d   1     -41.311 -64.543  51.908  0.00  0.00     0.229 C 
ATOM     19  O   UNK d   1     -40.286 -64.151  52.515  0.00  0.00    -0.273 OA
ATOM     20  N   UNK d   1     -41.280 -64.728  50.521  0.00  0.00    -0.324 N 
ATOM     21  H   UNK d   1     -42.199 -65.074  50.104  0.00  0.00     0.169 HD
BRANCH  20  22
ATOM     22  C   UNK d   1     -40.222 -64.531  49.633  0.00  0.00     0.071 A 
ATOM     23  C   UNK d   1     -40.250 -63.442  48.775  0.00  0.00     0.095 A 
ATOM     24  C   UNK d   1     -39.237 -63.185  47.873  0.00  0.00     0.042 A 
ATOM     25  C   UNK d   1     -38.142 -64.007  47.783  0.00  0.00     0.039 A 
ATOM     26  C   UNK d   1     -38.086 -65.088  48.614  0.00  0.00     0.070 A 
ATOM     27  C   UNK d   1     -39.115 -65.335  49.520  0.00  0.00     0.069 A 
BRANCH  23  28
ATOM     28  O   UNK d   1     -41.321 -62.566  48.806  0.00  0.00    -0.354 OA
ATOM     29  C   UNK d   1     -42.333 -62.533  47.847  0.00  0.00     0.210 C 
ENDBRANCH  23  28
BRANCH  26  30
ATOM     30  O   UNK d   1     -36.999 -65.941  48.555  0.00  0.00    -0.356 OA
ATOM     31  C   UNK d   1     -37.058 -67.215  47.938  0.00  0.00     0.210 C 
ENDBRANCH  26  30
ENDBRANCH  20  22
ENDBRANCH  15  18
BRANCH  13  32
ATOM     32  C   UNK d   1     -45.895 -65.324  51.457  0.00  0.00     0.138 C 
BRANCH  32  33
ATOM     33  C   UNK d   1     -46.496 -65.861  52.686  0.00  0.00     0.217 C 
ATOM     34  O   UNK d   1     -46.590 -67.087  52.855  0.00  0.00    -0.274 OA
ATOM     35  N   UNK d   1     -46.968 -64.979  53.676  0.00  0.00    -0.370 N 
ATOM     36  H   UNK d   1     -46.696 -65.158  54.666  0.00  0.00     0.159 HD
ATOM     37  H   UNK d   1     -47.578 -64.146  53.488  0.00  0.00     0.159 HD
ENDBRANCH  32  33
ENDBRANCH  13  32
TORSDOF 6
ENDMDL
