MODEL 1
REMARK VINA RESULT:    -7.297      0.000      0.000
REMARK INTER + INTRA:          -8.433
REMARK INTER:                  -8.150
REMARK INTRA:                  -0.283
REMARK UNBOUND:                -0.283
REMARK  2 active torsions:
REMARK  status: ('A' for Active; 'I' for Inactive)
REMARK    1  A    between atoms: N_4  and  C_8 
REMARK    2  A    between atoms: C_8  and  C_9 
ROOT
ATOM      1  C   UNK d   1     -38.391 -68.661  51.218  0.00  0.00     0.168 A 
ATOM      2  N   UNK d   1     -39.151 -67.769  50.562  0.00  0.00    -0.148 NA
ATOM      3  N   UNK d   1     -40.226 -67.435  51.294  0.00  0.00    -0.206 N 
ATOM      4  C   UNK d   1     -40.150 -68.129  52.444  0.00  0.00     0.169 A 
ATOM      5  N   UNK d   1     -39.029 -68.872  52.389  0.00  0.00    -0.209 NA
ATOM      6  C   UNK d   1     -41.158 -67.949  53.371  0.00  0.00     0.079 A 
ATOM      7  C   UNK d   1     -42.219 -67.091  53.148  0.00  0.00     0.162 A 
ATOM      8  N   UNK d   1     -43.059 -67.102  54.205  0.00  0.00    -0.256 N 
ATOM      9  N   UNK d   1     -42.536 -67.946  55.073  0.00  0.00    -0.182 NA
ATOM     10  C   UNK d   1     -41.390 -68.484  54.616  0.00  0.00     0.158 A 
ATOM     11  C   UNK d   1     -44.289 -66.323  54.332  0.00  0.00     0.182 C 
ATOM     12  N   UNK d   1     -42.230 -66.431  51.977  0.00  0.00    -0.222 NA
ATOM     13  C   UNK d   1     -41.256 -66.597  51.068  0.00  0.00     0.239 A 
ENDROOT
BRANCH   1  14
ATOM     14  C   UNK d   1     -37.117 -69.298  50.782  0.00  0.00     0.232 C 
BRANCH  14  15
ATOM     15  N   UNK d   1     -36.295 -68.381  50.010  0.00  0.00    -0.272 N 
ATOM     16  C   UNK d   1     -35.391 -67.504  50.493  0.00  0.00     0.134 A 
ATOM     17  C   UNK d   1     -34.826 -66.821  49.418  0.00  0.00     0.054 A 
ATOM     18 Br   UNK d   1     -33.492 -65.461  49.461  0.00  0.00    -0.047 Br
ATOM     19  C   UNK d   1     -35.428 -67.327  48.286  0.00  0.00     0.069 A 
ATOM     20  N   UNK d   1     -36.309 -68.267  48.681  0.00  0.00    -0.176 NA
ATOM     21  C   UNK d   1     -35.110 -66.869  46.913  0.00  0.00     0.074 C 
ENDBRANCH  14  15
ENDBRANCH   1  14
TORSDOF 2
ENDMDL
