MODEL 1
REMARK VINA RESULT:    -8.827      0.000      0.000
REMARK INTER + INTRA:         -10.365
REMARK INTER:                  -9.859
REMARK INTRA:                  -0.507
REMARK UNBOUND:                -0.507
REMARK  2 active torsions:
REMARK  status: ('A' for Active; 'I' for Inactive)
REMARK    1  A    between atoms: N_5  and  C_8 
REMARK    2  A    between atoms: C_8  and  C_9 
REMARK       I    between atoms: C_9  and  N_11 
ROOT
ATOM      1  C   UNK d   1     -40.367 -65.739  50.055  0.00  0.00     0.171 C 
ATOM      2  O   UNK d   1     -41.184 -66.733  49.720  0.00  0.00    -0.175 OA
ATOM      3  N   UNK d   1     -39.336 -65.518  49.155  0.00  0.00    -0.361 N 
ATOM      4  C   UNK d   1     -38.306 -64.545  49.225  0.00  0.00     0.127 C 
ATOM      5  C   UNK d   1     -36.972 -65.223  49.543  0.00  0.00     0.061 C 
ATOM      6  C   UNK d   1     -36.947 -66.611  48.925  0.00  0.00     0.118 C 
ATOM      7  N   UNK d   1     -35.568 -66.835  48.524  0.00  0.00    -0.324 N 
ATOM      8  C   UNK d   1     -34.907 -67.430  49.661  0.00  0.00     0.323 C 
ATOM      9  O   UNK d   1     -33.666 -67.486  49.846  0.00  0.00    -0.247 OA
ATOM     10  N   UNK d   1     -35.935 -67.941  50.531  0.00  0.00    -0.277 N 
ATOM     11  C   UNK d   1     -37.195 -67.662  49.934  0.00  0.00     0.254 C 
ATOM     12  O   UNK d   1     -38.277 -68.219  50.234  0.00  0.00    -0.270 OA
ATOM     13  C   UNK d   1     -37.816 -66.720  47.713  0.00  0.00     0.061 C 
ATOM     14  C   UNK d   1     -39.252 -66.389  47.958  0.00  0.00     0.127 C 
ATOM     15  H   UNK d   1     -35.131 -66.617  47.605  0.00  0.00     0.165 HD
ATOM     16  H   UNK d   1     -35.778 -68.423  51.427  0.00  0.00     0.173 HD
ENDROOT
BRANCH   1  17
ATOM     17  C   UNK d   1     -40.760 -65.119  51.304  0.00  0.00     0.216 C 
BRANCH  17  18
ATOM     18  N   UNK d   1     -41.779 -65.710  52.100  0.00  0.00    -0.341 N 
ATOM     19  C   UNK d   1     -41.550 -66.752  52.953  0.00  0.00     0.046 A 
ATOM     20  C   UNK d   1     -42.721 -67.078  53.588  0.00  0.00     0.010 A 
ATOM     21  C   UNK d   1     -40.391 -67.473  53.244  0.00  0.00     0.030 A 
ATOM     22  C   UNK d   1     -43.681 -66.219  53.113  0.00  0.00     0.045 A 
ATOM     23  C   UNK d   1     -42.742 -68.114  54.508  0.00  0.00     0.015 A 
ATOM     24 Br   UNK d   1     -45.501 -66.265  53.695  0.00  0.00    -0.048 Br
ATOM     25  C   UNK d   1     -43.089 -65.387  52.204  0.00  0.00     0.027 A 
ATOM     26  C   UNK d   1     -43.761 -64.304  51.451  0.00  0.00     0.070 C 
ATOM     27  C   UNK d   1     -41.594 -68.820  54.789  0.00  0.00     0.001 A 
ATOM     28  C   UNK d   1     -40.417 -68.511  54.167  0.00  0.00     0.002 A 
ENDBRANCH  17  18
ENDBRANCH   1  17
TORSDOF 2
ENDMDL
