MODEL 1
REMARK VINA RESULT:    -8.310      0.000      0.000
REMARK INTER + INTRA:         -11.645
REMARK INTER:                 -10.739
REMARK INTRA:                  -0.906
REMARK UNBOUND:                -0.906
REMARK  5 active torsions:
REMARK  status: ('A' for Active; 'I' for Inactive)
REMARK    1  A    between atoms: N_3  and  C_14 
REMARK    2  A    between atoms: C_14  and  C_15 
REMARK    3  A    between atoms: C_15  and  C_16 
REMARK    4  A    between atoms: C_16  and  C_17 
REMARK    5  A    between atoms: C_17  and  N_18 
ROOT
ATOM      1  C   UNK d   1     -37.123 -68.844  50.486  0.00  0.00     0.022 C 
ENDROOT
BRANCH   1   2
ATOM      2  C   UNK d   1     -36.687 -68.307  49.130  0.00  0.00     0.132 C 
BRANCH   2   3
ATOM      3  N   UNK d   1     -36.210 -66.948  49.230  0.00  0.00    -0.318 N 
ATOM      4  C   UNK d   1     -35.139 -66.471  49.910  0.00  0.00     0.180 A 
ATOM      5 Br   UNK d   1     -33.976 -67.581  50.940  0.00  0.00    -0.008 Br
ATOM      6  N   UNK d   1     -35.036 -65.139  49.749  0.00  0.00    -0.203 NA
ATOM      7  C   UNK d   1     -36.047 -64.721  48.951  0.00  0.00     0.169 A 
ATOM      8  C   UNK d   1     -36.760 -65.861  48.644  0.00  0.00     0.152 A 
ATOM      9  N   UNK d   1     -36.392 -63.499  48.488  0.00  0.00    -0.286 N 
ATOM     10  C   UNK d   1     -37.870 -65.731  47.826  0.00  0.00     0.280 A 
ATOM     11  N   UNK d   1     -38.205 -64.514  47.372  0.00  0.00    -0.273 N 
ATOM     12  O   UNK d   1     -38.507 -66.773  47.556  0.00  0.00    -0.265 OA
ATOM     13  C   UNK d   1     -37.477 -63.411  47.697  0.00  0.00     0.330 A 
ATOM     14  H   UNK d   1     -39.043 -64.406  46.753  0.00  0.00     0.173 HD
ATOM     15  O   UNK d   1     -37.859 -62.307  47.228  0.00  0.00    -0.246 OA
ATOM     16  C   UNK d   1     -35.631 -62.310  48.822  0.00  0.00     0.163 C 
ENDBRANCH   2   3
ENDBRANCH   1   2
BRANCH   1  17
ATOM     17  C   UNK d   1     -38.329 -68.103  50.999  0.00  0.00     0.022 C 
BRANCH  17  18
ATOM     18  C   UNK d   1     -39.534 -68.960  51.249  0.00  0.00     0.132 C 
BRANCH  18  19
ATOM     19  N   UNK d   1     -40.377 -68.362  52.231  0.00  0.00    -0.318 N 
ATOM     20  C   UNK d   1     -41.308 -67.417  52.120  0.00  0.00     0.152 A 
ATOM     21  C   UNK d   1     -41.882 -67.206  53.369  0.00  0.00     0.169 A 
ATOM     22  C   UNK d   1     -41.776 -66.654  51.082  0.00  0.00     0.280 A 
ATOM     23  N   UNK d   1     -41.265 -68.044  54.196  0.00  0.00    -0.203 NA
ATOM     24  N   UNK d   1     -42.848 -66.297  53.534  0.00  0.00    -0.286 N 
ATOM     25  C   UNK d   1     -40.351 -68.752  53.530  0.00  0.00     0.180 A 
ATOM     26 Br   UNK d   1     -39.230 -70.072  54.327  0.00  0.00    -0.008 Br
ATOM     27  C   UNK d   1     -43.290 -65.560  52.496  0.00  0.00     0.330 A 
ATOM     28  C   UNK d   1     -43.467 -66.055  54.832  0.00  0.00     0.163 C 
ATOM     29  O   UNK d   1     -44.199 -64.708  52.659  0.00  0.00    -0.246 OA
ATOM     30  N   UNK d   1     -42.747 -65.752  51.290  0.00  0.00    -0.273 N 
ATOM     31  H   UNK d   1     -43.065 -65.194  50.448  0.00  0.00     0.173 HD
ATOM     32  O   UNK d   1     -41.279 -66.818  49.950  0.00  0.00    -0.265 OA
ENDBRANCH  18  19
ENDBRANCH  17  18
ENDBRANCH   1  17
TORSDOF 5
ENDMDL
