MODEL 1
REMARK VINA RESULT:    -7.776      0.000      0.000
REMARK INTER + INTRA:         -11.556
REMARK INTER:                 -10.504
REMARK INTRA:                  -1.053
REMARK UNBOUND:                -1.053
REMARK  6 active torsions:
REMARK  status: ('A' for Active; 'I' for Inactive)
REMARK    1  A    between atoms: N_3  and  C_14 
REMARK    2  A    between atoms: C_14  and  C_15 
REMARK    3  A    between atoms: C_15  and  O_16 
REMARK    4  A    between atoms: O_16  and  C_17 
REMARK    5  A    between atoms: C_17  and  C_18 
REMARK    6  A    between atoms: C_18  and  N_19 
ROOT
ATOM      1  O   UNK d   1     -39.866 -65.426  48.059  0.00  0.00    -0.388 OA
ENDROOT
BRANCH   1   2
ATOM      2  C   UNK d   1     -38.773 -64.673  48.334  0.00  0.00     0.188 C 
BRANCH   2   3
ATOM      3  C   UNK d   1     -37.695 -64.459  47.354  0.00  0.00     0.158 C 
BRANCH   3   4
ATOM      4  N   UNK d   1     -36.399 -64.969  47.649  0.00  0.00    -0.316 N 
ATOM      5  C   UNK d   1     -35.912 -66.208  47.619  0.00  0.00     0.180 A 
ATOM      6 Br   UNK d   1     -36.867 -67.821  47.237  0.00  0.00    -0.008 Br
ATOM      7  N   UNK d   1     -34.600 -66.233  47.948  0.00  0.00    -0.203 NA
ATOM      8  C   UNK d   1     -34.255 -64.976  48.193  0.00  0.00     0.169 A 
ATOM      9  C   UNK d   1     -35.358 -64.170  48.015  0.00  0.00     0.152 A 
ATOM     10  N   UNK d   1     -33.076 -64.408  48.571  0.00  0.00    -0.286 N 
ATOM     11  C   UNK d   1     -35.302 -62.804  48.209  0.00  0.00     0.280 A 
ATOM     12  N   UNK d   1     -34.094 -62.296  48.586  0.00  0.00    -0.273 N 
ATOM     13  O   UNK d   1     -36.297 -62.053  48.054  0.00  0.00    -0.265 OA
ATOM     14  C   UNK d   1     -33.025 -63.090  48.757  0.00  0.00     0.330 A 
ATOM     15  H   UNK d   1     -34.039 -61.266  48.735  0.00  0.00     0.173 HD
ATOM     16  O   UNK d   1     -31.916 -62.591  49.106  0.00  0.00    -0.246 OA
ATOM     17  C   UNK d   1     -31.893 -65.220  48.768  0.00  0.00     0.163 C 
ENDBRANCH   3   4
ENDBRANCH   2   3
ENDBRANCH   1   2
BRANCH   1  18
ATOM     18  C   UNK d   1     -39.935 -66.540  48.880  0.00  0.00     0.188 C 
BRANCH  18  19
ATOM     19  C   UNK d   1     -39.357 -66.198  50.221  0.00  0.00     0.158 C 
BRANCH  19  20
ATOM     20  N   UNK d   1     -40.108 -66.771  51.292  0.00  0.00    -0.316 N 
ATOM     21  C   UNK d   1     -41.150 -66.201  51.912  0.00  0.00     0.152 A 
ATOM     22  C   UNK d   1     -41.582 -67.059  52.874  0.00  0.00     0.169 A 
ATOM     23  C   UNK d   1     -41.790 -64.990  51.734  0.00  0.00     0.280 A 
ATOM     24  N   UNK d   1     -40.794 -68.130  52.817  0.00  0.00    -0.203 NA
ATOM     25  N   UNK d   1     -42.629 -66.730  53.651  0.00  0.00    -0.286 N 
ATOM     26  C   UNK d   1     -39.871 -67.989  51.851  0.00  0.00     0.180 A 
ATOM     27 Br   UNK d   1     -38.494 -69.181  51.314  0.00  0.00    -0.008 Br
ATOM     28  C   UNK d   1     -43.231 -65.559  53.462  0.00  0.00     0.330 A 
ATOM     29  C   UNK d   1     -43.102 -67.631  54.680  0.00  0.00     0.163 C 
ATOM     30  O   UNK d   1     -44.211 -65.263  54.197  0.00  0.00    -0.246 OA
ATOM     31  N   UNK d   1     -42.826 -64.707  52.529  0.00  0.00    -0.273 N 
ATOM     32  H   UNK d   1     -43.311 -63.793  52.397  0.00  0.00     0.173 HD
ATOM     33  O   UNK d   1     -41.433 -64.147  50.851  0.00  0.00    -0.265 OA
ENDBRANCH  19  20
ENDBRANCH  18  19
ENDBRANCH   1  18
TORSDOF 6
ENDMDL
