MODEL 1
REMARK VINA RESULT:    -7.927      0.000      0.000
REMARK INTER + INTRA:         -11.646
REMARK INTER:                 -10.707
REMARK INTRA:                  -0.939
REMARK UNBOUND:                -0.939
REMARK  6 active torsions:
REMARK  status: ('A' for Active; 'I' for Inactive)
REMARK    1  A    between atoms: C_6  and  C_8 
REMARK       I    between atoms: C_8  and  N_10 
REMARK    2  A    between atoms: N_10  and  C_11 
REMARK    3  A    between atoms: C_11  and  C_12 
REMARK    4  A    between atoms: C_12  and  N_13 
REMARK    5  A    between atoms: C_16  and  C_18 
REMARK    6  A    between atoms: C_20  and  C_23 
ROOT
ATOM      1  N   UNK d   1     -40.243 -64.686  49.288  0.00  0.00    -0.281 N 
ATOM      2  N   UNK d   1     -39.647 -64.186  50.357  0.00  0.00     0.005 NA
ATOM      3  N   UNK d   1     -40.503 -64.094  51.366  0.00  0.00    -0.154 NA
ATOM      4  C   UNK d   1     -41.705 -64.542  50.970  0.00  0.00     0.146 A 
ATOM      5  C   UNK d   1     -41.532 -64.914  49.657  0.00  0.00     0.145 A 
ENDROOT
BRANCH   1   6
ATOM      6  C   UNK d   1     -39.663 -64.952  47.967  0.00  0.00     0.165 C 
BRANCH   6   7
ATOM      7  C   UNK d   1     -39.042 -66.328  48.051  0.00  0.00     0.144 C 
BRANCH   7   8
ATOM      8  N   UNK d   1     -39.571 -67.064  49.189  0.00  0.00    -0.355 N 
ATOM      9  C   UNK d   1     -38.658 -67.496  50.187  0.00  0.00     0.253 C 
ATOM     10  O   UNK d   1     -37.416 -67.234  50.064  0.00  0.00    -0.268 OA
ATOM     11  H   UNK d   1     -40.586 -67.269  49.276  0.00  0.00     0.162 HD
BRANCH   9  12
ATOM     12  C   UNK d   1     -39.077 -68.239  51.367  0.00  0.00     0.050 A 
ATOM     13  C   UNK d   1     -38.393 -69.357  51.747  0.00  0.00     0.133 A 
ATOM     14  N   UNK d   1     -38.700 -70.110  52.820  0.00  0.00    -0.271 NA
ATOM     15  C   UNK d   1     -39.759 -69.748  53.582  0.00  0.00     0.135 A 
ATOM     16  C   UNK d   1     -40.492 -68.630  53.253  0.00  0.00     0.029 A 
ATOM     17 Br   UNK d   1     -41.977 -68.155  54.357  0.00  0.00    -0.050 Br
ATOM     18  C   UNK d   1     -40.159 -67.860  52.138  0.00  0.00     0.039 A 
ENDBRANCH   9  12
ENDBRANCH   7   8
ENDBRANCH   6   7
ENDBRANCH   1   6
BRANCH   4  19
ATOM     19  C   UNK d   1     -42.925 -64.620  51.752  0.00  0.00     0.228 A 
ATOM     20  N   UNK d   1     -43.839 -65.607  51.738  0.00  0.00    -0.198 NA
ATOM     21  C   UNK d   1     -44.825 -65.313  52.601  0.00  0.00     0.191 A 
ATOM     22  N   UNK d   1     -44.495 -64.129  53.140  0.00  0.00    -0.105 NA
ATOM     23  O   UNK d   1     -43.369 -63.748  52.619  0.00  0.00    -0.189 OA
BRANCH  21  24
ATOM     24  C   UNK d   1     -46.026 -66.124  52.895  0.00  0.00     0.032 A 
ATOM     25  C   UNK d   1     -47.277 -65.608  52.649  0.00  0.00     0.131 A 
ATOM     26  N   UNK d   1     -48.378 -66.337  52.912  0.00  0.00    -0.272 NA
ATOM     27  C   UNK d   1     -48.327 -67.586  53.420  0.00  0.00     0.116 A 
ATOM     28  C   UNK d   1     -47.067 -68.095  53.663  0.00  0.00     0.020 A 
ATOM     29  C   UNK d   1     -45.921 -67.387  53.409  0.00  0.00     0.018 A 
ENDBRANCH  21  24
ENDBRANCH   4  19
TORSDOF 6
ENDMDL
