/Users/jonathanwahrer/Desktop/Msc/3_Semester/Drug_Design_Praktikum/waehrer_HTS_screening/HTS_experiment/out/docking_results/vina_output/3e7o/1471_docked.pdbqt
 OpenBabel03192216263D

 31 34  0  0  0  0  0  0  0  0999 V2000
  -37.7610  -65.0540   48.5180 C   0  0  0  0  0  0  0  0  0  0  0  0
  -36.6880  -65.3760   49.3020 C   0  0  0  0  0  2  0  0  0  0  0  0
  -35.5950  -64.5720   49.4800 N   0  0  0  0  0  0  0  0  0  0  0  0
  -35.5890  -63.4040   48.8450 C   0  0  0  0  0  3  0  0  0  0  0  0
  -36.6180  -62.9930   48.0380 C   0  0  0  0  0  0  0  0  0  0  0  0
  -37.7690  -63.8590   47.8610 C   0  0  0  0  0  0  0  0  0  0  0  0
  -38.6030  -63.2030   47.0320 N   0  0  0  0  0  2  0  0  0  0  0  0
  -38.0780  -62.0380   46.6920 N   0  0  0  0  0  0  0  0  0  0  0  0
  -36.8840  -61.8710   47.2740 C   0  0  0  0  0  0  0  0  0  0  0  0
  -36.0800  -60.8920   47.1950 O   0  0  0  0  0  0  0  0  0  0  0  0
  -38.4930  -61.3020   46.0550 H   0  0  0  0  0  0  0  0  0  0  0  0
  -38.8840  -65.9690   48.3840 C   0  0  0  0  0  0  0  0  0  0  0  0
  -39.9940  -65.9300   49.2550 N   0  0  0  0  0  0  0  0  0  0  0  0
  -41.1200  -66.8190   49.1490 C   0  0  0  0  0  2  0  0  0  0  0  0
  -40.0160  -64.9510   50.3110 C   0  0  0  0  0  2  0  0  0  0  0  0
  -41.4820  -67.2870   50.5370 C   0  0  0  0  0  2  0  0  0  0  0  0
  -40.4520  -67.0350   51.5090 N   0  0  0  0  0  0  0  0  0  0  0  0
  -39.7860  -65.7280   51.6150 C   0  0  0  0  0  2  0  0  0  0  0  0
  -38.8180  -66.8100   47.4410 O   0  0  0  0  0  0  0  0  0  0  0  0
  -40.0320  -68.0320   52.4110 C   0  0  0  0  0  0  0  0  0  0  0  0
  -38.9940  -68.8890   52.1170 C   0  0  0  0  0  0  0  0  0  0  0  0
  -38.1610  -68.7440   50.5660 Cl  0  0  0  0  0  0  0  0  0  0  0  0
  -38.5930  -69.8620   53.0080 C   0  0  0  0  0  3  0  0  0  0  0  0
  -39.2380  -69.9790   54.2140 C   0  0  0  0  0  3  0  0  0  0  0  0
  -40.2950  -69.1270   54.5500 C   0  0  0  0  0  3  0  0  0  0  0  0
  -40.6600  -68.1670   53.6190 C   0  0  0  0  0  3  0  0  0  0  0  0
  -34.4910  -65.0310   50.3080 C   0  0  0  0  0  2  0  0  0  0  0  0
  -33.9960  -66.3800   50.0320 C   0  0  0  0  0  2  0  0  0  0  0  0
  -33.9770  -67.4690   51.0090 C   0  0  0  0  0  2  0  0  0  0  0  0
  -34.6720  -68.6040   50.8290 O   0  0  0  0  0  0  0  0  0  0  0  0
  -34.9350  -69.4760   51.8030 C   0  0  0  0  0  1  0  0  0  0  0  0
  1  2  1  0  0  0  0
  2  3  1  0  0  0  0
  3 27  1  0  0  0  0
  4  3  1  0  0  0  0
  5  4  2  0  0  0  0
  6  5  1  0  0  0  0
  6  1  2  0  0  0  0
  7  6  1  0  0  0  0
  8  7  1  0  0  0  0
  8  9  1  0  0  0  0
  9  5  1  0  0  0  0
 10  9  2  0  0  0  0
 11  8  1  0  0  0  0
 12  1  1  0  0  0  0
 12 13  1  0  0  0  0
 13 15  1  0  0  0  0
 14 13  1  0  0  0  0
 14 16  1  0  0  0  0
 15 18  1  0  0  0  0
 16 17  1  0  0  0  0
 17 18  1  0  0  0  0
 17 20  1  0  0  0  0
 19 12  2  0  0  0  0
 20 26  1  0  0  0  0
 21 20  2  0  0  0  0
 21 23  1  0  0  0  0
 22 21  1  0  0  0  0
 23 24  2  0  0  0  0
 24 25  1  0  0  0  0
 26 25  2  0  0  0  0
 28 27  1  0  0  0  0
 28 29  1  0  0  0  0
 30 29  1  0  0  0  0
 30 31  1  0  0  0  0
M  END
>  <Pose>
1

>  <Score>
-7.664

$$$$
