MODEL 1
REMARK VINA RESULT:    -7.445      0.000      0.000
REMARK INTER + INTRA:         -10.008
REMARK INTER:                  -8.968
REMARK INTRA:                  -1.039
REMARK UNBOUND:                -1.039
REMARK  4 active torsions:
REMARK  status: ('A' for Active; 'I' for Inactive)
REMARK    1  A    between atoms: C_4  and  N_8 
REMARK    2  A    between atoms: C_10  and  O_18 
REMARK    3  A    between atoms: C_10  and  C_19 
REMARK    4  A    between atoms: C_21  and  N_25 
ROOT
ATOM      1  N   UNK d   1     -38.361 -65.448  47.202  0.00  0.00     0.009 N 
ATOM      2  C   UNK d   1     -38.467 -66.839  47.565  0.00  0.00     0.316 C 
ATOM      3  C   UNK d   1     -37.230 -67.330  48.193  0.00  0.00     0.189 C 
ATOM      4  N   UNK d   1     -36.360 -66.189  48.156  0.00  0.00    -0.324 N 
ATOM      5  C   UNK d   1     -34.923 -66.060  48.207  0.00  0.00     0.128 C 
ATOM      6  C   UNK d   1     -34.399 -65.262  49.358  0.00  0.00     0.020 C 
ATOM      7  C   UNK d   1     -35.428 -64.524  50.140  0.00  0.00     0.005 C 
ATOM      8  C   UNK d   1     -35.868 -63.297  49.310  0.00  0.00     0.031 C 
ATOM      9  C   UNK d   1     -37.027 -63.817  48.478  0.00  0.00     0.030 C 
ATOM     10  C   UNK d   1     -37.217 -65.025  47.998  0.00  0.00     0.208 C 
ATOM     11  H   UNK d   1     -38.135 -65.229  46.238  0.00  0.00     0.295 HD
ENDROOT
BRANCH   3  12
ATOM     12  O   UNK d   1     -36.634 -68.314  47.356  0.00  0.00    -0.365 OA
ATOM     13  H   UNK d   1     -35.753 -68.544  47.801  0.00  0.00     0.213 HD
ENDBRANCH   3  12
BRANCH   3  14
ATOM     14  C   UNK d   1     -37.345 -67.954  49.488  0.00  0.00     0.001 A 
ATOM     15  C   UNK d   1     -38.496 -67.887  50.274  0.00  0.00     0.048 A 
ATOM     16  C   UNK d   1     -38.610 -68.510  51.509  0.00  0.00     0.103 A 
ATOM     17  C   UNK d   1     -37.523 -69.240  51.990  0.00  0.00     0.036 A 
ATOM     18  C   UNK d   1     -36.377 -69.330  51.254  0.00  0.00     0.003 A 
ATOM     19  C   UNK d   1     -36.301 -68.686  50.009  0.00  0.00     0.012 A 
BRANCH  16  20
ATOM     20  N   UNK d   1     -39.807 -68.398  52.251  0.00  0.00    -0.116 N 
ATOM     21  O   UNK d   1     -40.398 -69.450  52.651  0.00  0.00    -0.532 OA
ATOM     22  O   UNK d   1     -40.380 -67.223  52.565  0.00  0.00    -0.532 OA
ENDBRANCH  16  20
ENDBRANCH   3  14
BRANCH   1  23
ATOM     23  C   UNK d   1     -39.432 -64.621  47.634  0.00  0.00     0.143 A 
ATOM     24  C   UNK d   1     -40.163 -64.881  48.767  0.00  0.00     0.061 A 
ATOM     25  C   UNK d   1     -41.280 -64.131  49.125  0.00  0.00     0.036 A 
ATOM     26 Cl   UNK d   1     -42.159 -64.487  50.604  0.00  0.00    -0.084 Cl
ATOM     27  C   UNK d   1     -41.689 -63.080  48.329  0.00  0.00     0.024 A 
ATOM     28  C   UNK d   1     -40.989 -62.790  47.189  0.00  0.00     0.004 A 
ATOM     29  C   UNK d   1     -39.877 -63.551  46.849  0.00  0.00     0.038 A 
ENDBRANCH   1  23
TORSDOF 4
ENDMDL
