MODEL 1
REMARK VINA RESULT:    -8.657      0.000      0.000
REMARK INTER + INTRA:         -11.030
REMARK INTER:                 -10.681
REMARK INTRA:                  -0.349
REMARK UNBOUND:                -0.349
REMARK  4 active torsions:
REMARK  status: ('A' for Active; 'I' for Inactive)
REMARK    1  A    between atoms: C_7  and  N_8 
REMARK    2  A    between atoms: C_14  and  C_16 
REMARK    3  A    between atoms: N_23  and  C_31 
REMARK    4  A    between atoms: C_25  and  C_28 
ROOT
ATOM      1  F   UNK d   1     -45.777 -64.224  50.592  0.00  0.00    -0.204 F 
ATOM      2  C   UNK d   1     -46.530 -65.153  51.207  0.00  0.00     0.151 A 
ATOM      3  C   UNK d   1     -47.792 -65.324  50.647  0.00  0.00     0.062 A 
ATOM      4  C   UNK d   1     -48.669 -66.248  51.169  0.00  0.00     0.045 A 
ATOM      5  C   UNK d   1     -48.259 -66.990  52.251  0.00  0.00     0.051 A 
ATOM      6  C   UNK d   1     -46.992 -66.805  52.797  0.00  0.00     0.071 A 
ATOM      7  C   UNK d   1     -46.112 -65.889  52.287  0.00  0.00     0.175 A 
ATOM      8  N   UNK d   1     -49.134 -67.889  52.745  0.00  0.00    -0.350 N 
ATOM      9  C   UNK d   1     -50.359 -68.072  52.221  0.00  0.00     0.114 A 
ATOM     10  C   UNK d   1     -50.800 -67.345  51.137  0.00  0.00     0.107 A 
ATOM     11  C   UNK d   1     -49.940 -66.416  50.601  0.00  0.00     0.202 A 
ATOM     12  O   UNK d   1     -50.278 -65.722  49.614  0.00  0.00    -0.286 OA
ENDROOT
BRANCH   7  13
ATOM     13  N   UNK d   1     -44.854 -65.726  52.868  0.00  0.00    -0.035 N 
ATOM     14  C   UNK d   1     -43.731 -66.020  52.016  0.00  0.00     0.261 C 
ATOM     15  C   UNK d   1     -42.414 -65.654  52.740  0.00  0.00     0.153 C 
ATOM     16  N   UNK d   1     -42.350 -66.505  53.861  0.00  0.00    -0.356 N 
ATOM     17  C   UNK d   1     -43.423 -66.130  54.862  0.00  0.00     0.153 C 
ATOM     18  C   UNK d   1     -41.584 -67.576  54.176  0.00  0.00     0.187 C 
ATOM     19  C   UNK d   1     -44.688 -66.408  54.109  0.00  0.00     0.261 C 
ATOM     20  O   UNK d   1     -41.776 -68.071  55.375  0.00  0.00    -0.171 OA
ATOM     21  H   UNK d   1     -44.765 -64.687  53.095  0.00  0.00     0.287 HD
BRANCH  18  22
ATOM     22  C   UNK d   1     -40.582 -68.280  53.424  0.00  0.00     0.019 A 
ATOM     23  C   UNK d   1     -40.021 -67.820  52.278  0.00  0.00     0.039 A 
ATOM     24  C   UNK d   1     -39.014 -68.510  51.613  0.00  0.00     0.035 A 
ATOM     25  C   UNK d   1     -38.569 -69.701  52.127  0.00  0.00     0.024 A 
ATOM     26 Cl   UNK d   1     -38.312 -67.871  50.125  0.00  0.00    -0.084 Cl
ATOM     27  C   UNK d   1     -39.101 -70.210  53.277  0.00  0.00     0.003 A 
ATOM     28  C   UNK d   1     -40.085 -69.509  53.906  0.00  0.00     0.016 A 
ENDBRANCH  18  22
ENDBRANCH   7  13
BRANCH   8  29
ATOM     29  C   UNK d   1     -48.678 -68.671  53.900  0.00  0.00     0.090 A 
ATOM     30  C   UNK d   1     -49.622 -69.457  54.700  0.00  0.00     0.028 A 
ATOM     31  C   UNK d   1     -49.250 -68.159  55.264  0.00  0.00     0.028 A 
ENDBRANCH   8  29
BRANCH  10  32
ATOM     32  C   UNK d   1     -52.148 -67.558  50.575  0.00  0.00     0.214 C 
ATOM     33  O   UNK d   1     -53.133 -66.896  50.936  0.00  0.00    -0.644 OA
ATOM     34  O   UNK d   1     -52.300 -68.531  49.614  0.00  0.00    -0.644 OA
ENDBRANCH  10  32
TORSDOF 4
ENDMDL
