MODEL 1
REMARK VINA RESULT:    -9.235      0.000      0.000
REMARK INTER + INTRA:         -14.021
REMARK INTER:                 -12.475
REMARK INTRA:                  -1.547
REMARK UNBOUND:                -1.547
REMARK  6 active torsions:
REMARK  status: ('A' for Active; 'I' for Inactive)
REMARK    1  A    between atoms: C_5  and  C_8 
REMARK       I    between atoms: C_8  and  N_10 
REMARK    2  A    between atoms: N_10  and  C_11 
REMARK    3  A    between atoms: C_11  and  C_12 
REMARK    4  A    between atoms: C_12  and  N_13 
REMARK       I    between atoms: N_13  and  C_14 
REMARK    5  A    between atoms: C_14  and  C_16 
REMARK    6  A    between atoms: N_19  and  C_22 
ROOT
ATOM      1  N   UNK d   1     -42.357 -64.449  49.473  0.00  0.00    -0.359 N 
ATOM      2  C   UNK d   1     -40.942 -64.176  49.445  0.00  0.00     0.222 C 
ATOM      3  O   UNK d   1     -40.453 -63.429  50.307  0.00  0.00    -0.273 OA
ATOM      4  H   UNK d   1     -42.682 -65.092  48.756  0.00  0.00     0.162 HD
ENDROOT
BRANCH   2   5
ATOM      5  C   UNK d   1     -40.059 -64.768  48.412  0.00  0.00     0.081 C 
ATOM      6  C   UNK d   1     -40.161 -66.273  48.516  0.00  0.00     0.034 C 
ATOM      7  C   UNK d   1     -39.453 -66.684  49.787  0.00  0.00     0.125 C 
ATOM      8  N   UNK d   1     -38.032 -66.459  49.535  0.00  0.00    -0.364 N 
ATOM      9  C   UNK d   1     -37.617 -65.357  48.735  0.00  0.00     0.125 C 
ATOM     10  C   UNK d   1     -38.649 -64.314  48.499  0.00  0.00     0.034 C 
BRANCH   8  11
ATOM     11  C   UNK d   1     -37.115 -67.367  50.112  0.00  0.00     0.148 A 
ATOM     12  N   UNK d   1     -35.782 -67.174  50.091  0.00  0.00    -0.129 NA
ATOM     13  N   UNK d   1     -34.913 -68.013  50.623  0.00  0.00    -0.108 N 
ATOM     14  N   UNK d   1     -33.587 -67.989  50.698  0.00  0.00    -0.021 NA
ATOM     15  C   UNK d   1     -35.290 -69.141  51.237  0.00  0.00     0.196 A 
ATOM     16  N   UNK d   1     -33.143 -69.045  51.325  0.00  0.00    -0.021 NA
ATOM     17  N   UNK d   1     -34.181 -69.776  51.671  0.00  0.00    -0.107 NA
ATOM     18  C   UNK d   1     -36.648 -69.397  51.291  0.00  0.00     0.060 A 
ATOM     19  C   UNK d   1     -37.558 -68.521  50.735  0.00  0.00     0.056 A 
ENDBRANCH   8  11
ENDBRANCH   2   5
BRANCH   1  20
ATOM     20  C   UNK d   1     -43.110 -63.839  50.497  0.00  0.00     0.142 C 
BRANCH  20  21
ATOM     21  C   UNK d   1     -43.578 -64.588  51.675  0.00  0.00     0.142 C 
BRANCH  21  22
ATOM     22  N   UNK d   1     -42.779 -65.643  52.169  0.00  0.00    -0.355 N 
ATOM     23  C   UNK d   1     -42.748 -66.271  53.406  0.00  0.00     0.251 C 
ATOM     24  O   UNK d   1     -43.522 -65.946  54.332  0.00  0.00    -0.268 OA
ATOM     25  H   UNK d   1     -42.024 -66.068  51.472  0.00  0.00     0.162 HD
BRANCH  23  26
ATOM     26  C   UNK d   1     -41.801 -67.366  53.720  0.00  0.00     0.032 A 
ATOM     27  C   UNK d   1     -41.157 -68.026  52.696  0.00  0.00     0.018 A 
ATOM     28  C   UNK d   1     -40.264 -69.043  52.938  0.00  0.00     0.025 A 
ATOM     29  C   UNK d   1     -40.001 -69.417  54.246  0.00  0.00     0.034 A 
ATOM     30 Cl   UNK d   1     -38.862 -70.715  54.568  0.00  0.00    -0.084 Cl
ATOM     31  C   UNK d   1     -40.622 -68.782  55.287  0.00  0.00     0.025 A 
ATOM     32  C   UNK d   1     -41.524 -67.753  55.004  0.00  0.00     0.018 A 
ENDBRANCH  23  26
ENDBRANCH  21  22
ENDBRANCH  20  21
ENDBRANCH   1  20
TORSDOF 6
ENDMDL
