MODEL 1
REMARK VINA RESULT:    -8.165      0.000      0.000
REMARK INTER + INTRA:         -10.685
REMARK INTER:                 -10.552
REMARK INTRA:                  -0.133
REMARK UNBOUND:                -0.133
REMARK  5 active torsions:
REMARK  status: ('A' for Active; 'I' for Inactive)
REMARK    1  A    between atoms: C_5  and  C_8 
REMARK    2  A    between atoms: C_10  and  C_24 
REMARK    3  A    between atoms: N_11  and  C_16 
REMARK    4  A    between atoms: C_16  and  C_17 
REMARK    5  A    between atoms: C_17  and  N_18 
ROOT
ATOM      1  C   UNK d   1     -38.093 -67.147  49.714  0.00  0.00     0.130 C 
ATOM      2  C   UNK d   1     -39.269 -66.599  49.486  0.00  0.00     0.062 C 
ATOM      3  C   UNK d   1     -40.553 -66.741  50.246  0.00  0.00     0.161 C 
ATOM      4  N   UNK d   1     -41.044 -65.410  50.247  0.00  0.00    -0.331 N 
ATOM      5  C   UNK d   1     -40.815 -64.959  48.877  0.00  0.00     0.295 C 
ATOM      6  O   UNK d   1     -41.462 -64.091  48.236  0.00  0.00    -0.264 OA
ATOM      7  C   UNK d   1     -39.673 -65.722  48.387  0.00  0.00     0.250 C 
ATOM      8  O   UNK d   1     -39.088 -65.690  47.254  0.00  0.00    -0.282 OA
ATOM      9  O   UNK d   1     -37.876 -68.006  50.777  0.00  0.00    -0.190 OA
ENDROOT
BRANCH   1  10
ATOM     10  C   UNK d   1     -36.952 -66.875  48.848  0.00  0.00     0.001 A 
ATOM     11  C   UNK d   1     -36.600 -67.727  47.818  0.00  0.00     0.015 A 
ATOM     12  C   UNK d   1     -35.500 -67.418  47.068  0.00  0.00     0.020 A 
ATOM     13  C   UNK d   1     -34.715 -66.306  47.274  0.00  0.00     0.011 A 
ATOM     14 Br   UNK d   1     -33.181 -65.940  46.174  0.00  0.00    -0.051 Br
ATOM     15  C   UNK d   1     -35.060 -65.453  48.301  0.00  0.00     0.020 A 
ATOM     16  C   UNK d   1     -36.183 -65.757  49.077  0.00  0.00     0.015 A 
ENDBRANCH   1  10
BRANCH   3  17
ATOM     17  C   UNK d   1     -40.460 -67.538  51.423  0.00  0.00    -0.030 A 
ATOM     18  C   UNK d   1     -40.383 -66.919  52.647  0.00  0.00     0.011 A 
ATOM     19  C   UNK d   1     -40.307 -67.619  53.827  0.00  0.00     0.024 A 
ATOM     20  C   UNK d   1     -40.307 -69.006  53.823  0.00  0.00     0.034 A 
ATOM     21  C   UNK d   1     -40.385 -69.609  52.583  0.00  0.00     0.024 A 
ATOM     22 Cl   UNK d   1     -40.212 -69.908  55.315  0.00  0.00    -0.084 Cl
ATOM     23  C   UNK d   1     -40.460 -68.900  51.405  0.00  0.00     0.011 A 
ENDBRANCH   3  17
BRANCH   4  24
ATOM     24  C   UNK d   1     -41.699 -64.569  51.230  0.00  0.00     0.155 C 
BRANCH  24  25
ATOM     25  C   UNK d   1     -43.178 -64.563  51.247  0.00  0.00     0.255 C 
BRANCH  25  26
ATOM     26  N   UNK d   1     -43.761 -64.238  52.553  0.00  0.00    -0.066 N 
ATOM     27  C   UNK d   1     -42.993 -64.825  53.597  0.00  0.00     0.261 C 
ATOM     28  C   UNK d   1     -43.665 -65.873  54.413  0.00  0.00     0.195 C 
ATOM     29  O   UNK d   1     -45.040 -65.770  54.504  0.00  0.00    -0.388 OA
ATOM     30  C   UNK d   1     -45.502 -65.888  53.173  0.00  0.00     0.195 C 
ATOM     31  C   UNK d   1     -45.145 -64.608  52.502  0.00  0.00     0.261 C 
ATOM     32  H   UNK d   1     -43.709 -63.174  52.607  0.00  0.00     0.280 HD
ENDBRANCH  25  26
ENDBRANCH  24  25
ENDBRANCH   4  24
TORSDOF 5
ENDMDL
