/Users/jonathanwahrer/Desktop/Msc/3_Semester/Drug_Design_Praktikum/waehrer_HTS_screening/HTS_experiment/out/docking_results/vina_output/3e7o/1511_docked.pdbqt
 OpenBabel03192216293D

 34 37  0  0  0  0  0  0  0  0999 V2000
  -35.8230  -66.2400   49.5560 N   0  0  0  0  0  0  0  0  0  0  0  0
  -36.7380  -67.1950   49.7910 C   0  0  0  0  0  0  0  0  0  0  0  0
  -37.9100  -67.1320   49.3400 O   0  0  0  0  0  0  0  0  0  0  0  0
  -36.2110  -68.2110   50.5700 C   0  0  0  0  0  0  0  0  0  0  0  0
  -34.9530  -67.8670   50.8120 C   0  0  0  0  0  0  0  0  0  0  0  0
  -34.4430  -68.8520   51.5670 N   0  0  0  0  0  0  0  0  0  0  0  0
  -35.3650  -69.7730   51.7800 N   0  0  0  0  0  0  0  0  0  0  0  0
  -36.4600  -69.3980   51.1750 N   0  0  0  0  0  0  0  0  0  0  0  0
  -34.7080  -66.6580   50.1940 C   0  0  0  0  0  0  0  0  0  0  0  0
  -33.5980  -66.0290   50.2170 O   0  0  0  0  0  0  0  0  0  0  0  0
  -33.4770  -68.9150   51.9450 H   0  0  0  0  0  0  0  0  0  0  0  0
  -35.2620  -70.6710   52.3410 H   0  0  0  0  0  0  0  0  0  0  0  0
  -37.7260  -70.0900   51.1330 C   0  0  0  0  0  2  0  0  0  0  0  0
  -38.7080  -69.3800   52.0370 C   0  0  0  0  0  0  0  0  0  0  0  0
  -38.5850  -69.4920   53.2770 O   0  0  0  0  0  0  0  0  0  0  0  0
  -39.7410  -68.6080   51.4860 N   0  0  0  0  0  0  0  0  0  0  0  0
  -39.7840  -68.5580   50.4170 H   0  0  0  0  0  0  0  0  0  0  0  0
  -40.7150  -67.8940   52.2120 C   0  0  0  0  0  0  0  0  0  0  0  0
  -41.0960  -66.5960   51.9860 C   0  0  0  0  0  3  0  0  0  0  0  0
  -42.0470  -65.9460   52.7450 C   0  0  0  0  0  0  0  0  0  0  0  0
  -42.6370  -66.6420   53.7790 C   0  0  0  0  0  0  0  0  0  0  0  0
  -42.2810  -67.9550   54.0400 C   0  0  0  0  0  3  0  0  0  0  0  0
  -41.3340  -68.5790   53.2750 C   0  0  0  0  0  3  0  0  0  0  0  0
  -42.4140  -64.6260   52.4910 O   0  0  0  0  0  0  0  0  0  0  0  0
  -43.3380  -64.3900   51.4210 C   0  0  0  0  0  1  0  0  0  0  0  0
  -43.5990  -66.0040   54.5580 O   0  0  0  0  0  0  0  0  0  0  0  0
  -44.9660  -66.1660   54.2340 C   0  0  0  0  0  1  0  0  0  0  0  0
  -35.9310  -65.0310   48.8120 C   0  0  0  0  0  0  0  0  0  0  0  0
  -36.2160  -63.8140   49.3950 C   0  0  0  0  0  3  0  0  0  0  0  0
  -36.3150  -62.6520   48.6370 C   0  0  0  0  0  3  0  0  0  0  0  0
  -36.1310  -62.6760   47.2680 C   0  0  0  0  0  0  0  0  0  0  0  0
  -36.2660  -61.0810   46.2180 Br  0  0  0  0  0  0  0  0  0  0  0  0
  -35.8470  -63.8980   46.6930 C   0  0  0  0  0  3  0  0  0  0  0  0
  -35.7490  -65.0500   47.4470 C   0  0  0  0  0  3  0  0  0  0  0  0
  1  2  1  0  0  0  0
  1  9  1  0  0  0  0
  2  4  1  0  0  0  0
  3  2  2  0  0  0  0
  4  5  2  0  0  0  0
  4  8  1  0  0  0  0
  5  6  1  0  0  0  0
  6  7  1  0  0  0  0
  6 11  1  0  0  0  0
  7 12  1  0  0  0  0
  8  7  1  0  0  0  0
  9 10  2  0  0  0  0
  9  5  1  0  0  0  0
 13  8  1  0  0  0  0
 13 14  1  0  0  0  0
 14 15  2  0  0  0  0
 16 14  1  0  0  0  0
 16 18  1  0  0  0  0
 17 16  1  0  0  0  0
 18 23  1  0  0  0  0
 19 18  2  0  0  0  0
 19 20  1  0  0  0  0
 20 21  2  0  0  0  0
 21 22  1  0  0  0  0
 21 26  1  0  0  0  0
 23 22  2  0  0  0  0
 24 20  1  0  0  0  0
 25 24  1  0  0  0  0
 27 26  1  0  0  0  0
 28 29  1  0  0  0  0
 28  1  1  0  0  0  0
 30 29  2  0  0  0  0
 31 30  1  0  0  0  0
 32 31  1  0  0  0  0
 33 31  2  0  0  0  0
 33 34  1  0  0  0  0
 34 28  2  0  0  0  0
M  END
>  <Pose>
1

>  <Score>
-8.013

$$$$
