MODEL 1
REMARK VINA RESULT:    -8.566      0.000      0.000
REMARK INTER + INTRA:         -11.557
REMARK INTER:                 -10.569
REMARK INTRA:                  -0.988
REMARK UNBOUND:                -0.988
REMARK  4 active torsions:
REMARK  status: ('A' for Active; 'I' for Inactive)
REMARK    1  A    between atoms: C_5  and  C_8 
REMARK       I    between atoms: C_8  and  N_10 
REMARK    2  A    between atoms: N_10  and  C_11 
REMARK    3  A    between atoms: C_11  and  C_12 
REMARK    4  A    between atoms: C_12  and  C_13 
REMARK       I    between atoms: C_13  and  N_15 
ROOT
ATOM      1  C   UNK d   1     -40.169 -64.125  48.919  0.00  0.00     0.221 C 
ATOM      2  O   UNK d   1     -40.267 -62.890  49.122  0.00  0.00    -0.273 OA
ATOM      3  N   UNK d   1     -40.529 -65.046  49.931  0.00  0.00    -0.352 N 
ATOM      4  C   UNK d   1     -40.437 -66.482  49.759  0.00  0.00     0.129 C 
ATOM      5  C   UNK d   1     -41.560 -67.116  50.567  0.00  0.00     0.068 C 
ATOM      6  C   UNK d   1     -41.364 -66.837  52.057  0.00  0.00     0.206 C 
ATOM      7  N   UNK d   1     -42.673 -66.698  52.627  0.00  0.00     0.099 N 
ATOM      8  C   UNK d   1     -42.668 -66.909  54.058  0.00  0.00     0.277 C 
ATOM      9  C   UNK d   1     -42.431 -68.393  54.330  0.00  0.00     0.089 C 
ATOM     10  C   UNK d   1     -41.102 -68.718  53.736  0.00  0.00     0.039 A 
ATOM     11  N   UNK d   1     -40.177 -69.675  54.045  0.00  0.00    -0.352 N 
ATOM     12  C   UNK d   1     -39.143 -69.539  53.197  0.00  0.00     0.207 A 
ATOM     13  N   UNK d   1     -39.417 -68.513  52.372  0.00  0.00    -0.244 NA
ATOM     14  C   UNK d   1     -40.634 -67.973  52.677  0.00  0.00     0.097 A 
ATOM     15  C   UNK d   1     -40.595 -65.550  52.264  0.00  0.00     0.068 C 
ATOM     16  C   UNK d   1     -41.015 -64.568  51.210  0.00  0.00     0.129 C 
ATOM     17  H   UNK d   1     -43.097 -65.777  52.401  0.00  0.00     0.317 HD
ATOM     18  H   UNK d   1     -40.330 -70.356  54.823  0.00  0.00     0.166 HD
ENDROOT
BRANCH   1  19
ATOM     19  C   UNK d   1     -39.670 -64.580  47.602  0.00  0.00     0.122 C 
BRANCH  19  20
ATOM     20  C   UNK d   1     -38.182 -64.484  47.482  0.00  0.00     0.132 C 
BRANCH  20  21
ATOM     21  N   UNK d   1     -37.564 -65.590  48.188  0.00  0.00    -0.356 N 
ATOM     22  C   UNK d   1     -36.631 -65.435  49.213  0.00  0.00     0.251 C 
ATOM     23  O   UNK d   1     -36.278 -64.285  49.577  0.00  0.00    -0.268 OA
ATOM     24  H   UNK d   1     -37.870 -66.542  47.876  0.00  0.00     0.162 HD
BRANCH  22  25
ATOM     25  C   UNK d   1     -36.027 -66.573  49.903  0.00  0.00     0.032 A 
ATOM     26  C   UNK d   1     -36.726 -67.731  50.160  0.00  0.00     0.018 A 
ATOM     27  C   UNK d   1     -36.098 -68.778  50.819  0.00  0.00     0.025 A 
ATOM     28  C   UNK d   1     -34.776 -68.689  51.231  0.00  0.00     0.034 A 
ATOM     29 Cl   UNK d   1     -34.061 -70.059  52.059  0.00  0.00    -0.084 Cl
ATOM     30  C   UNK d   1     -34.067 -67.534  50.980  0.00  0.00     0.025 A 
ATOM     31  C   UNK d   1     -34.701 -66.512  50.328  0.00  0.00     0.018 A 
ENDBRANCH  22  25
ENDBRANCH  20  21
ENDBRANCH  19  20
ENDBRANCH   1  19
TORSDOF 4
ENDMDL
