MODEL 1
REMARK VINA RESULT:    -7.332      0.000      0.000
REMARK INTER + INTRA:          -8.715
REMARK INTER:                  -8.404
REMARK INTRA:                  -0.311
REMARK UNBOUND:                -0.311
REMARK  3 active torsions:
REMARK  status: ('A' for Active; 'I' for Inactive)
REMARK    1  A    between atoms: N_12  and  C_15 
REMARK    2  A    between atoms: C_15  and  C_16 
REMARK    3  A    between atoms: C_16  and  O_21 
ROOT
ATOM      1 Cl   UNK d   1     -40.422 -68.590  55.529  0.00  0.00    -0.082 Cl
ATOM      2  C   UNK d   1     -39.950 -68.757  53.851  0.00  0.00     0.061 A 
ATOM      3  C   UNK d   1     -40.484 -67.909  52.911  0.00  0.00     0.065 A 
ATOM      4  N   UNK d   1     -41.357 -66.889  52.950  0.00  0.00    -0.357 N 
ATOM      5  C   UNK d   1     -41.559 -66.365  51.726  0.00  0.00     0.020 A 
ATOM      6  C   UNK d   1     -40.766 -67.104  50.873  0.00  0.00    -0.006 A 
ATOM      7  C   UNK d   1     -40.092 -68.066  51.593  0.00  0.00     0.002 A 
ATOM      8  C   UNK d   1     -39.188 -69.058  51.269  0.00  0.00     0.014 A 
ATOM      9  C   UNK d   1     -38.640 -69.917  52.188  0.00  0.00     0.003 A 
ATOM     10  C   UNK d   1     -39.037 -69.756  53.512  0.00  0.00     0.026 A 
ATOM     11  C   UNK d   1     -40.816 -66.708  49.444  0.00  0.00     0.158 C 
ATOM     12  N   UNK d   1     -40.584 -65.281  49.448  0.00  0.00    -0.405 N 
ATOM     13  C   UNK d   1     -41.613 -64.515  50.036  0.00  0.00     0.123 C 
ATOM     14  C   UNK d   1     -42.355 -65.287  51.102  0.00  0.00     0.077 C 
ATOM     15  H   UNK d   1     -41.848 -66.509  53.808  0.00  0.00     0.166 HD
ENDROOT
BRANCH  12  16
ATOM     16  C   UNK d   1     -39.931 -64.784  48.313  0.00  0.00     0.156 C 
BRANCH  16  17
ATOM     17  C   UNK d   1     -38.452 -64.637  48.499  0.00  0.00     0.101 A 
ATOM     18  C   UNK d   1     -37.680 -65.853  48.116  0.00  0.00     0.308 A 
ATOM     19  N   UNK d   1     -36.700 -65.530  47.137  0.00  0.00     0.086 N 
ATOM     20  C   UNK d   1     -36.815 -64.150  46.793  0.00  0.00     0.272 A 
ATOM     21  H   UNK d   1     -35.724 -65.797  47.410  0.00  0.00     0.315 HD
ATOM     22  C   UNK d   1     -37.955 -63.571  47.561  0.00  0.00     0.071 A 
BRANCH  17  23
ATOM     23  O   UNK d   1     -38.148 -64.206  49.796  0.00  0.00    -0.386 OA
ATOM     24  H   UNK d   1     -37.452 -64.830  50.133  0.00  0.00     0.210 HD
ENDBRANCH  17  23
ENDBRANCH  16  17
ENDBRANCH  12  16
TORSDOF 3
ENDMDL
