/Users/jonathanwahrer/Desktop/Msc/3_Semester/Drug_Design_Praktikum/waehrer_HTS_screening/HTS_experiment/out/docking_results/vina_output/3e7o/1521_docked.pdbqt
 OpenBabel03192216293D

 24 27  0  0  1  0  0  0  0  0999 V2000
  -40.4220  -68.5900   55.5290 Cl  0  0  0  0  0  0  0  0  0  0  0  0
  -39.9500  -68.7570   53.8510 C   0  0  0  0  0  0  0  0  0  0  0  0
  -40.4840  -67.9090   52.9110 C   0  0  0  0  0  0  0  0  0  0  0  0
  -41.3570  -66.8890   52.9500 N   0  0  0  0  0  0  0  0  0  0  0  0
  -41.5590  -66.3650   51.7260 C   0  0  0  0  0  0  0  0  0  0  0  0
  -40.7660  -67.1040   50.8730 C   0  0  0  0  0  0  0  0  0  0  0  0
  -40.0920  -68.0660   51.5930 C   0  0  0  0  0  0  0  0  0  0  0  0
  -39.1880  -69.0580   51.2690 C   0  0  0  0  0  3  0  0  0  0  0  0
  -38.6400  -69.9170   52.1880 C   0  0  0  0  0  3  0  0  0  0  0  0
  -39.0370  -69.7560   53.5120 C   0  0  0  0  0  3  0  0  0  0  0  0
  -40.8160  -66.7080   49.4440 C   0  0  0  0  0  2  0  0  0  0  0  0
  -40.5840  -65.2810   49.4480 N   0  0  0  0  0  0  0  0  0  0  0  0
  -41.6130  -64.5150   50.0360 C   0  0  0  0  0  2  0  0  0  0  0  0
  -42.3550  -65.2870   51.1020 C   0  0  0  0  0  2  0  0  0  0  0  0
  -41.8480  -66.5090   53.8080 H   0  0  0  0  0  0  0  0  0  0  0  0
  -39.9310  -64.7840   48.3130 C   0  0  0  0  0  2  0  0  0  0  0  0
  -38.4520  -64.6370   48.4990 C   0  0  1  0  0  0  0  0  0  0  0  0
  -37.6800  -65.8530   48.1160 C   0  0  0  0  0  2  0  0  0  0  0  0
  -36.7000  -65.5300   47.1370 N   0  0  0  0  0  0  0  0  0  0  0  0
  -36.8150  -64.1500   46.7930 C   0  0  0  0  0  3  0  0  0  0  0  0
  -35.7240  -65.7970   47.4100 H   0  0  0  0  0  0  0  0  0  0  0  0
  -37.9550  -63.5710   47.5610 C   0  0  0  0  0  3  0  0  0  0  0  0
  -38.1480  -64.2060   49.7960 O   0  0  0  0  0  0  0  0  0  0  0  0
  -37.4520  -64.8300   50.1330 H   0  0  0  0  0  0  0  0  0  0  0  0
  2  1  1  0  0  0  0
  3  4  1  0  0  0  0
  3  2  2  0  0  0  0
  4 15  1  0  0  0  0
  5  4  1  0  0  0  0
  6  7  1  0  0  0  0
  6  5  2  0  0  0  0
  7  3  1  0  0  0  0
  8  7  2  0  0  0  0
  8  9  1  0  0  0  0
  9 10  2  0  0  0  0
 10  2  1  0  0  0  0
 11 12  1  0  0  0  0
 11  6  1  0  0  0  0
 12 13  1  0  0  0  0
 13 14  1  0  0  0  0
 14  5  1  0  0  0  0
 16 12  1  0  0  0  0
 17 16  1  6  0  0  0
 17 23  1  0  0  0  0
 18 17  1  0  0  0  0
 19 21  1  0  0  0  0
 19 18  1  0  0  0  0
 20 19  1  0  0  0  0
 20 22  2  0  0  0  0
 22 17  1  0  0  0  0
 23 24  1  0  0  0  0
M  END
>  <Pose>
1

>  <Score>
-7.332

$$$$
