MODEL 1
REMARK VINA RESULT:    -8.306      0.000      0.000
REMARK INTER + INTRA:         -10.188
REMARK INTER:                  -9.763
REMARK INTRA:                  -0.425
REMARK UNBOUND:                -0.425
REMARK  3 active torsions:
REMARK  status: ('A' for Active; 'I' for Inactive)
REMARK    1  A    between atoms: C_4  and  N_8 
REMARK    2  A    between atoms: C_11  and  C_13 
REMARK       I    between atoms: C_13  and  N_15 
REMARK       I    between atoms: N_18  and  C_21 
REMARK    3  A    between atoms: C_21  and  C_23 
ROOT
ATOM      1  C   UNK d   1     -39.234 -63.818  48.747  0.00  0.00     0.275 C 
ATOM      2  O   UNK d   1     -38.916 -62.580  48.667  0.00  0.00    -0.266 OA
ATOM      3  N   UNK d   1     -38.535 -64.779  48.015  0.00  0.00    -0.344 N 
ATOM      4  C   UNK d   1     -37.453 -64.374  47.159  0.00  0.00     0.146 C 
ATOM      5  C   UNK d   1     -36.172 -64.927  47.719  0.00  0.00     0.145 C 
ATOM      6  N   UNK d   1     -36.368 -66.298  48.097  0.00  0.00    -0.349 N 
ATOM      7  C   UNK d   1     -37.571 -66.945  47.539  0.00  0.00     0.145 C 
ATOM      8  C   UNK d   1     -38.804 -66.200  48.031  0.00  0.00     0.146 C 
ATOM      9  C   UNK d   1     -35.564 -67.080  48.927  0.00  0.00     0.224 C 
ATOM     10  O   UNK d   1     -35.958 -68.308  49.070  0.00  0.00    -0.273 OA
ENDROOT
BRANCH   1  11
ATOM     11  C   UNK d   1     -40.366 -64.118  49.654  0.00  0.00     0.166 A 
ATOM     12  N   UNK d   1     -41.627 -63.671  49.563  0.00  0.00    -0.125 NA
ATOM     13  N   UNK d   1     -42.333 -64.162  50.557  0.00  0.00    -0.060 NA
ATOM     14  N   UNK d   1     -41.572 -64.942  51.331  0.00  0.00    -0.224 N 
ATOM     15  C   UNK d   1     -40.350 -64.916  50.773  0.00  0.00     0.159 A 
BRANCH  14  16
ATOM     16  C   UNK d   1     -41.998 -65.637  52.491  0.00  0.00     0.060 A 
ATOM     17  C   UNK d   1     -41.365 -66.791  52.885  0.00  0.00     0.050 A 
ATOM     18  C   UNK d   1     -41.801 -67.464  54.035  0.00  0.00     0.013 A 
ATOM     19 Br   UNK d   1     -40.936 -69.068  54.595  0.00  0.00    -0.051 Br
ATOM     20  C   UNK d   1     -42.850 -66.985  54.774  0.00  0.00     0.019 A 
ATOM     21  C   UNK d   1     -43.488 -65.831  54.389  0.00  0.00     0.004 A 
ATOM     22  C   UNK d   1     -43.045 -65.166  53.238  0.00  0.00     0.032 A 
ENDBRANCH  14  16
ENDBRANCH   1  11
BRANCH   9  23
ATOM     23  C   UNK d   1     -34.351 -66.742  49.661  0.00  0.00     0.078 A 
ATOM     24  C   UNK d   1     -34.290 -65.775  50.757  0.00  0.00     0.015 A 
ATOM     25  C   UNK d   1     -34.018 -67.254  51.013  0.00  0.00     0.015 A 
ENDBRANCH   9  23
TORSDOF 3
ENDMDL
