/Users/jonathanwahrer/Desktop/Msc/3_Semester/Drug_Design_Praktikum/waehrer_HTS_screening/HTS_experiment/out/docking_results/vina_output/3e7o/1525_docked.pdbqt
 OpenBabel03192216303D

 26 29  0  0  1  0  0  0  0  0999 V2000
  -39.2510  -67.4250   50.1260 N   0  0  0  0  0  0  0  0  0  0  0  0
  -40.3790  -67.0100   49.3660 C   0  0  0  0  0  0  0  0  0  0  0  0
  -41.4960  -67.5780   49.4200 O   0  0  0  0  0  0  0  0  0  0  0  0
  -39.9550  -65.8600   48.5750 C   0  0  2  0  0  3  0  0  0  0  0  0
  -38.4800  -66.1220   48.3520 C   0  0  0  0  0  2  0  0  0  0  0  0
  -38.0540  -66.9600   49.4900 C   0  0  0  0  0  0  0  0  0  0  0  0
  -36.8770  -67.2270   49.8490 O   0  0  0  0  0  0  0  0  0  0  0  0
  -40.2120  -64.5890   49.1200 N   0  0  2  0  0  0  0  0  0  0  0  0
  -41.5530  -64.1910   49.2710 C   0  0  0  0  0  2  0  0  0  0  0  0
  -41.9450  -63.3240   48.0670 C   0  0  0  0  0  2  0  0  0  0  0  0
  -40.7480  -62.8580   47.3860 N   0  0  0  0  0  0  0  0  0  0  0  0
  -39.5370  -62.5190   48.1070 C   0  0  0  0  0  2  0  0  0  0  0  0
  -39.2320  -63.5960   49.1220 C   0  0  0  0  0  2  0  0  0  0  0  0
  -40.7130  -62.7350   45.9570 C   0  0  0  0  0  0  0  0  0  0  0  0
  -39.6540  -62.1770   45.3340 N   0  0  0  0  0  0  0  0  0  0  0  0
  -39.6200  -62.0790   43.9900 C   0  0  0  0  0  3  0  0  0  0  0  0
  -40.6650  -62.5460   43.2010 C   0  0  0  0  0  3  0  0  0  0  0  0
  -41.7470  -63.1180   43.8470 C   0  0  0  0  0  3  0  0  0  0  0  0
  -41.7210  -63.1860   45.1900 N   0  0  0  0  0  0  0  0  0  0  0  0
  -39.3330  -68.1800   51.3360 C   0  0  0  0  0  0  0  0  0  0  0  0
  -40.1390  -67.8240   52.3970 C   0  0  0  0  0  3  0  0  0  0  0  0
  -40.1860  -68.5960   53.5550 C   0  0  0  0  0  0  0  0  0  0  0  0
  -41.2940  -68.1130   55.0240 Br  0  0  0  0  0  0  0  0  0  0  0  0
  -39.4250  -69.7390   53.6680 C   0  0  0  0  0  3  0  0  0  0  0  0
  -38.6150  -70.1110   52.6230 C   0  0  0  0  0  3  0  0  0  0  0  0
  -38.5830  -69.3400   51.4930 C   0  0  0  0  0  3  0  0  0  0  0  0
  1 20  1  0  0  0  0
  2  3  2  0  0  0  0
  2  1  1  0  0  0  0
  4  5  1  1  0  0  0
  4  8  1  0  0  0  0
  4  2  1  0  0  0  0
  5  6  1  0  0  0  0
  6  7  2  0  0  0  0
  6  1  1  0  0  0  0
  8 13  1  6  0  0  0
  8  9  1  0  0  0  0
 10  9  1  0  0  0  0
 11 10  1  0  0  0  0
 11 12  1  0  0  0  0
 12 13  1  0  0  0  0
 14 11  1  0  0  0  0
 15 14  2  0  0  0  0
 16 15  1  0  0  0  0
 17 18  1  0  0  0  0
 17 16  2  0  0  0  0
 18 19  2  0  0  0  0
 19 14  1  0  0  0  0
 20 26  2  0  0  0  0
 20 21  1  0  0  0  0
 21 22  2  0  0  0  0
 22 24  1  0  0  0  0
 22 23  1  0  0  0  0
 25 24  2  0  0  0  0
 26 25  1  0  0  0  0
M  END
>  <Pose>
1

>  <Score>
-7.495

$$$$
