MODEL 1
REMARK VINA RESULT:    -7.495      0.000      0.000
REMARK INTER + INTRA:          -9.415
REMARK INTER:                  -8.809
REMARK INTRA:                  -0.606
REMARK UNBOUND:                -0.606
REMARK  3 active torsions:
REMARK  status: ('A' for Active; 'I' for Inactive)
REMARK    1  A    between atoms: C_4  and  N_8 
REMARK    2  A    between atoms: C_11  and  N_15 
REMARK    3  A    between atoms: N_18  and  C_21 
ROOT
ATOM      1  N   UNK d   1     -39.251 -67.425  50.126  0.00  0.00    -0.251 N 
ATOM      2  C   UNK d   1     -40.379 -67.010  49.366  0.00  0.00     0.254 C 
ATOM      3  O   UNK d   1     -41.496 -67.578  49.420  0.00  0.00    -0.270 OA
ATOM      4  C   UNK d   1     -39.955 -65.860  48.575  0.00  0.00     0.181 C 
ATOM      5  C   UNK d   1     -38.480 -66.122  48.352  0.00  0.00     0.138 C 
ATOM      6  C   UNK d   1     -38.054 -66.960  49.490  0.00  0.00     0.233 C 
ATOM      7  O   UNK d   1     -36.877 -67.227  49.849  0.00  0.00    -0.273 OA
ENDROOT
BRANCH   4   8
ATOM      8  N   UNK d   1     -40.212 -64.589  49.120  0.00  0.00    -0.397 N 
ATOM      9  C   UNK d   1     -41.553 -64.191  49.271  0.00  0.00     0.138 C 
ATOM     10  C   UNK d   1     -41.945 -63.324  48.067  0.00  0.00     0.161 C 
ATOM     11  N   UNK d   1     -40.748 -62.858  47.386  0.00  0.00    -0.211 N 
ATOM     12  C   UNK d   1     -39.537 -62.519  48.107  0.00  0.00     0.161 C 
ATOM     13  C   UNK d   1     -39.232 -63.596  49.122  0.00  0.00     0.138 C 
BRANCH  11  14
ATOM     14  C   UNK d   1     -40.713 -62.735  45.957  0.00  0.00     0.724 A 
ATOM     15  N   UNK d   1     -39.654 -62.177  45.334  0.00  0.00    -0.075 NA
ATOM     16  C   UNK d   1     -39.620 -62.079  43.990  0.00  0.00     0.138 A 
ATOM     17  C   UNK d   1     -40.665 -62.546  43.201  0.00  0.00     0.040 A 
ATOM     18  C   UNK d   1     -41.747 -63.118  43.847  0.00  0.00     0.138 A 
ATOM     19  N   UNK d   1     -41.721 -63.186  45.190  0.00  0.00    -0.075 NA
ENDBRANCH  11  14
ENDBRANCH   4   8
BRANCH   1  20
ATOM     20  C   UNK d   1     -39.333 -68.180  51.336  0.00  0.00     0.046 A 
ATOM     21  C   UNK d   1     -40.139 -67.824  52.397  0.00  0.00     0.049 A 
ATOM     22  C   UNK d   1     -40.186 -68.596  53.555  0.00  0.00     0.013 A 
ATOM     23 Br   UNK d   1     -41.294 -68.113  55.024  0.00  0.00    -0.051 Br
ATOM     24  C   UNK d   1     -39.425 -69.739  53.668  0.00  0.00     0.019 A 
ATOM     25  C   UNK d   1     -38.615 -70.111  52.623  0.00  0.00     0.004 A 
ATOM     26  C   UNK d   1     -38.583 -69.340  51.493  0.00  0.00     0.030 A 
ENDBRANCH   1  20
TORSDOF 3
ENDMDL
