MODEL 1
REMARK VINA RESULT:    -8.000      0.000      0.000
REMARK INTER + INTRA:         -10.031
REMARK INTER:                  -9.871
REMARK INTRA:                  -0.160
REMARK UNBOUND:                -0.160
REMARK  4 active torsions:
REMARK  status: ('A' for Active; 'I' for Inactive)
REMARK    1  A    between atoms: C_6  and  C_8 
REMARK    2  A    between atoms: C_10  and  N_11 
REMARK    3  A    between atoms: C_14  and  C_16 
REMARK    4  A    between atoms: C_19  and  O_22 
ROOT
ATOM      1  N   UNK d   1     -40.909 -64.424  49.899  0.00  0.00    -0.338 N 
ATOM      2  C   UNK d   1     -40.793 -63.962  48.614  0.00  0.00     0.086 A 
ATOM      3  N   UNK d   1     -39.500 -64.061  48.296  0.00  0.00    -0.335 N 
ATOM      4  C   UNK d   1     -38.765 -64.562  49.303  0.00  0.00     0.061 A 
ATOM      5  C   UNK d   1     -39.670 -64.792  50.324  0.00  0.00     0.123 A 
ATOM      6  C   UNK d   1     -39.276 -63.587  46.934  0.00  0.00     0.131 A 
ATOM      7  C   UNK d   1     -40.606 -63.069  46.472  0.00  0.00     0.028 A 
ATOM      8  C   UNK d   1     -41.615 -63.412  47.509  0.00  0.00     0.078 A 
ENDROOT
BRANCH   1   9
ATOM      9  C   UNK d   1     -42.117 -64.546  50.641  0.00  0.00     0.198 C 
ATOM     10  C   UNK d   1     -42.331 -65.635  51.565  0.00  0.00     0.113 C 
ATOM     11  O   UNK d   1     -43.494 -65.600  52.185  0.00  0.00    -0.194 OA
BRANCH  10  12
ATOM     12  C   UNK d   1     -41.506 -66.753  51.936  0.00  0.00    -0.000 A 
ATOM     13  C   UNK d   1     -40.849 -67.597  51.092  0.00  0.00     0.016 A 
ATOM     14  C   UNK d   1     -40.053 -68.673  51.513  0.00  0.00     0.026 A 
ATOM     15  C   UNK d   1     -39.905 -68.923  52.855  0.00  0.00     0.055 A 
ATOM     16  C   UNK d   1     -40.553 -68.093  53.742  0.00  0.00     0.056 A 
ATOM     17 Cl   UNK d   1     -38.916 -70.263  53.385  0.00  0.00    -0.083 Cl
ATOM     18 Cl   UNK d   1     -40.377 -68.395  55.449  0.00  0.00    -0.083 Cl
ATOM     19  C   UNK d   1     -41.316 -67.060  53.306  0.00  0.00     0.039 A 
ENDBRANCH  10  12
ENDBRANCH   1   9
BRANCH   4  20
ATOM     20  C   UNK d   1     -37.328 -64.826  49.362  0.00  0.00    -0.008 A 
ATOM     21  C   UNK d   1     -36.355 -63.859  49.352  0.00  0.00     0.016 A 
ATOM     22  C   UNK d   1     -34.994 -64.191  49.413  0.00  0.00     0.037 A 
ATOM     23  C   UNK d   1     -34.566 -65.498  49.486  0.00  0.00     0.068 A 
ATOM     24  C   UNK d   1     -35.537 -66.476  49.496  0.00  0.00     0.037 A 
ATOM     25  C   UNK d   1     -36.875 -66.147  49.437  0.00  0.00     0.016 A 
BRANCH  23  26
ATOM     26  O   UNK d   1     -33.223 -65.841  49.547  0.00  0.00    -0.356 OA
ATOM     27  C   UNK d   1     -32.289 -65.248  48.663  0.00  0.00     0.210 C 
ENDBRANCH  23  26
ENDBRANCH   4  20
TORSDOF 4
ENDMDL
