/Users/jonathanwahrer/Desktop/Msc/3_Semester/Drug_Design_Praktikum/waehrer_HTS_screening/HTS_experiment/out/docking_results/vina_output/3e7o/1533_docked.pdbqt
 OpenBabel03192216303D

 28 31  0  0  1  0  0  0  0  0999 V2000
  -40.0080  -66.4320   50.2390 C   0  0  0  0  0  0  0  0  0  0  0  0
  -40.4970  -65.3010   49.6670 N   0  0  0  0  0  0  0  0  0  0  0  0
  -39.7710  -65.0030   48.5840 C   0  0  2  0  0  3  0  0  0  0  0  0
  -38.7830  -65.9340   48.4130 N   0  0  0  0  0  0  0  0  0  0  0  0
  -38.9410  -66.7980   49.4300 C   0  0  0  0  0  3  0  0  0  0  0  0
  -40.2670  -63.7670   47.9370 C   0  0  0  0  0  2  0  0  0  0  0  0
  -41.6770  -63.7010   48.4530 C   0  0  0  0  0  2  0  0  0  0  0  0
  -41.5570  -64.3060   49.8320 C   0  0  0  0  0  2  0  0  0  0  0  0
  -37.7730  -65.9400   47.3960 C   0  0  0  0  0  3  0  0  0  0  0  0
  -36.3870  -66.1900   47.6820 C   0  0  0  0  0  0  0  0  0  0  0  0
  -35.6170  -66.1620   46.5980 O   0  0  0  0  0  1  0  0  0  0  0  0
  -35.6450  -66.4650   48.8860 C   0  0  0  0  0  0  0  0  0  0  0  0
  -35.8280  -67.6950   49.5570 C   0  0  0  0  0  3  0  0  0  0  0  0
  -35.1670  -68.0470   50.7050 C   0  0  0  0  0  0  0  0  0  0  0  0
  -34.2760  -67.1240   51.2130 C   0  0  0  0  0  3  0  0  0  0  0  0
  -34.0800  -65.9180   50.5780 C   0  0  0  0  0  3  0  0  0  0  0  0
  -34.7560  -65.5650   49.4090 C   0  0  0  0  0  3  0  0  0  0  0  0
  -35.3660  -69.2850   51.3610 N   0  0  0  0  0  0  0  0  0  0  0  0
  -34.4390  -70.1020   51.4050 O   0  0  0  0  0  0  0  0  0  0  0  0
  -36.5540  -69.6060   51.9490 O   0  0  0  0  0  0  0  0  0  0  0  0
  -40.4500  -67.1580   51.4290 C   0  0  0  0  0  0  0  0  0  0  0  0
  -39.9510  -68.4220   51.6530 C   0  0  0  0  0  3  0  0  0  0  0  0
  -40.3190  -69.1630   52.7780 C   0  0  0  0  0  3  0  0  0  0  0  0
  -41.2000  -68.6150   53.6810 C   0  0  0  0  0  0  0  0  0  0  0  0
  -41.6980  -67.3640   53.4660 C   0  0  0  0  0  0  0  0  0  0  0  0
  -41.6510  -69.5680   55.0960 Cl  0  0  0  0  0  0  0  0  0  0  0  0
  -42.8170  -66.6970   54.6360 Cl  0  0  0  0  0  0  0  0  0  0  0  0
  -41.3220  -66.6370   52.3410 C   0  0  0  0  0  3  0  0  0  0  0  0
  1 21  1  0  0  0  0
  2  8  1  0  0  0  0
  2  1  1  0  0  0  0
  3  6  1  1  0  0  0
  3  2  1  0  0  0  0
  4  3  1  0  0  0  0
  4  5  1  0  0  0  0
  5  1  2  0  0  0  0
  6  7  1  0  0  0  0
  7  8  1  0  0  0  0
  9 10  2  0  0  0  0
  9  4  1  0  0  0  0
 10 12  1  0  0  0  0
 11 10  1  0  0  0  0
 12 17  2  0  0  0  0
 12 13  1  0  0  0  0
 13 14  2  0  0  0  0
 14 15  1  0  0  0  0
 14 18  1  0  0  0  0
 16 15  2  0  0  0  0
 17 16  1  0  0  0  0
 18 19  2  0  0  0  0
 18 20  2  0  0  0  0
 21 22  2  0  0  0  0
 21 28  1  0  0  0  0
 22 23  1  0  0  0  0
 23 24  2  0  0  0  0
 24 26  1  0  0  0  0
 25 24  1  0  0  0  0
 25 27  1  0  0  0  0
 28 25  2  0  0  0  0
M  END
>  <Pose>
1

>  <Score>
-8.530

$$$$
