MODEL 1
REMARK VINA RESULT:    -8.530      0.000      0.000
REMARK INTER + INTRA:         -11.044
REMARK INTER:                 -10.525
REMARK INTRA:                  -0.520
REMARK UNBOUND:                -0.520
REMARK  4 active torsions:
REMARK  status: ('A' for Active; 'I' for Inactive)
REMARK    1  A    between atoms: C_6  and  C_8 
REMARK    2  A    between atoms: N_11  and  C_13 
REMARK    3  A    between atoms: C_14  and  C_16 
REMARK    4  A    between atoms: C_18  and  N_22 
ROOT
ATOM      1  C   UNK d   1     -40.008 -66.432  50.239  0.00  0.00     0.061 A 
ATOM      2  N   UNK d   1     -40.497 -65.301  49.667  0.00  0.00    -0.335 N 
ATOM      3  C   UNK d   1     -39.771 -65.003  48.584  0.00  0.00     0.086 A 
ATOM      4  N   UNK d   1     -38.783 -65.934  48.413  0.00  0.00    -0.338 N 
ATOM      5  C   UNK d   1     -38.941 -66.798  49.430  0.00  0.00     0.123 A 
ATOM      6  C   UNK d   1     -40.267 -63.767  47.937  0.00  0.00     0.078 C 
ATOM      7  C   UNK d   1     -41.677 -63.701  48.453  0.00  0.00     0.028 C 
ATOM      8  C   UNK d   1     -41.557 -64.306  49.832  0.00  0.00     0.131 C 
ENDROOT
BRANCH   4   9
ATOM      9  C   UNK d   1     -37.773 -65.940  47.396  0.00  0.00     0.198 C 
ATOM     10  C   UNK d   1     -36.387 -66.190  47.682  0.00  0.00     0.113 C 
ATOM     11  O   UNK d   1     -35.617 -66.162  46.598  0.00  0.00    -0.194 OA
BRANCH  10  12
ATOM     12  C   UNK d   1     -35.645 -66.465  48.886  0.00  0.00     0.000 A 
ATOM     13  C   UNK d   1     -35.828 -67.695  49.557  0.00  0.00     0.050 A 
ATOM     14  C   UNK d   1     -35.167 -68.047  50.705  0.00  0.00     0.103 A 
ATOM     15  C   UNK d   1     -34.276 -67.124  51.213  0.00  0.00     0.036 A 
ATOM     16  C   UNK d   1     -34.080 -65.918  50.578  0.00  0.00     0.003 A 
ATOM     17  C   UNK d   1     -34.756 -65.565  49.409  0.00  0.00     0.014 A 
BRANCH  14  18
ATOM     18  N   UNK d   1     -35.366 -69.285  51.361  0.00  0.00    -0.116 N 
ATOM     19  O   UNK d   1     -34.439 -70.102  51.405  0.00  0.00    -0.532 OA
ATOM     20  O   UNK d   1     -36.554 -69.606  51.949  0.00  0.00    -0.532 OA
ENDBRANCH  14  18
ENDBRANCH  10  12
ENDBRANCH   4   9
BRANCH   1  21
ATOM     21  C   UNK d   1     -40.450 -67.158  51.429  0.00  0.00    -0.006 A 
ATOM     22  C   UNK d   1     -39.951 -68.422  51.653  0.00  0.00     0.015 A 
ATOM     23  C   UNK d   1     -40.319 -69.163  52.778  0.00  0.00     0.026 A 
ATOM     24  C   UNK d   1     -41.200 -68.615  53.681  0.00  0.00     0.055 A 
ATOM     25  C   UNK d   1     -41.698 -67.364  53.466  0.00  0.00     0.056 A 
ATOM     26 Cl   UNK d   1     -41.651 -69.568  55.096  0.00  0.00    -0.083 Cl
ATOM     27 Cl   UNK d   1     -42.817 -66.697  54.636  0.00  0.00    -0.083 Cl
ATOM     28  C   UNK d   1     -41.322 -66.637  52.341  0.00  0.00     0.039 A 
ENDBRANCH   1  21
TORSDOF 4
ENDMDL
