/Users/jonathanwahrer/Desktop/Msc/3_Semester/Drug_Design_Praktikum/waehrer_HTS_screening/HTS_experiment/out/docking_results/vina_output/3e7o/1535_docked.pdbqt
 OpenBabel03192216303D

 28 31  0  0  1  0  0  0  0  0999 V2000
  -43.5620  -66.4390   52.8030 C   0  0  0  0  0  0  0  0  0  0  0  0
  -42.6970  -67.1950   53.4990 N   0  0  0  0  0  0  0  0  0  0  0  0
  -41.4590  -67.0560   52.9800 C   0  0  2  0  0  3  0  0  0  0  0  0
  -41.5360  -66.2000   51.9460 N   0  0  0  0  0  0  0  0  0  0  0  0
  -42.8280  -65.7900   51.7990 C   0  0  0  0  0  3  0  0  0  0  0  0
  -40.4970  -67.8950   53.7320 C   0  0  0  0  0  2  0  0  0  0  0  0
  -41.1620  -67.8930   55.0840 C   0  0  0  0  0  2  0  0  0  0  0  0
  -42.6180  -68.1170   54.6380 C   0  0  0  0  0  2  0  0  0  0  0  0
  -40.4650  -65.8110   51.1040 C   0  0  0  0  0  2  0  0  0  0  0  0
  -39.7860  -66.7130   50.2190 C   0  0  2  0  0  3  0  0  0  0  0  0
  -40.4430  -66.8760   49.0880 O   0  0  0  0  0  1  0  0  0  0  0  0
  -38.5540  -67.4570   50.3310 C   0  0  0  0  0  0  0  0  0  0  0  0
  -37.3440  -67.0550   49.8340 C   0  0  0  0  0  3  0  0  0  0  0  0
  -36.1900  -67.8300   49.9820 C   0  0  0  0  0  0  0  0  0  0  0  0
  -36.2460  -69.0210   50.6320 C   0  0  0  0  0  3  0  0  0  0  0  0
  -37.4520  -69.4500   51.1430 C   0  0  0  0  0  3  0  0  0  0  0  0
  -38.5870  -68.6990   51.0040 C   0  0  0  0  0  3  0  0  0  0  0  0
  -34.9570  -67.3530   49.4400 N   0  0  0  0  0  0  0  0  0  0  0  0
  -34.6980  -67.5540   48.2400 O   0  0  0  0  0  0  0  0  0  0  0  0
  -34.0510  -66.6820   50.1970 O   0  0  0  0  0  0  0  0  0  0  0  0
  -45.0030  -66.2460   52.9670 C   0  0  0  0  0  0  0  0  0  0  0  0
  -45.5690  -64.9790   52.7940 C   0  0  0  0  0  3  0  0  0  0  0  0
  -46.9130  -64.7450   52.9160 C   0  0  0  0  0  3  0  0  0  0  0  0
  -47.7780  -65.7700   53.2200 C   0  0  0  0  0  0  0  0  0  0  0  0
  -47.2570  -67.0240   53.3950 C   0  0  0  0  0  0  0  0  0  0  0  0
  -49.4930  -65.4600   53.3740 Cl  0  0  0  0  0  0  0  0  0  0  0  0
  -48.2870  -68.3660   53.7790 Cl  0  0  0  0  0  0  0  0  0  0  0  0
  -45.8720  -67.2430   53.2640 C   0  0  0  0  0  3  0  0  0  0  0  0
  1 21  1  0  0  0  0
  1  2  1  0  0  0  0
  2  8  1  0  0  0  0
  3  2  1  0  0  0  0
  3  6  1  6  0  0  0
  4  3  1  0  0  0  0
  5  4  1  0  0  0  0
  5  1  2  0  0  0  0
  6  7  1  0  0  0  0
  8  7  1  0  0  0  0
  9  4  1  0  0  0  0
 10 11  1  1  0  0  0
 10 12  1  0  0  0  0
 10  9  1  0  0  0  0
 12 17  1  0  0  0  0
 13 14  1  0  0  0  0
 13 12  2  0  0  0  0
 14 15  2  0  0  0  0
 15 16  1  0  0  0  0
 17 16  2  0  0  0  0
 18 14  1  0  0  0  0
 18 20  2  0  0  0  0
 19 18  2  0  0  0  0
 21 28  1  0  0  0  0
 22 23  1  0  0  0  0
 22 21  2  0  0  0  0
 23 24  2  0  0  0  0
 24 26  1  0  0  0  0
 24 25  1  0  0  0  0
 25 27  1  0  0  0  0
 28 25  2  0  0  0  0
M  END
>  <Pose>
1

>  <Score>
-8.695

$$$$
