MODEL 1
REMARK VINA RESULT:    -8.656      0.000      0.000
REMARK INTER + INTRA:         -10.497
REMARK INTER:                 -10.174
REMARK INTRA:                  -0.323
REMARK UNBOUND:                -0.323
REMARK  3 active torsions:
REMARK  status: ('A' for Active; 'I' for Inactive)
REMARK    1  A    between atoms: S_1  and  N_4 
REMARK    2  A    between atoms: S_1  and  C_19 
REMARK    3  A    between atoms: C_7  and  C_10 
REMARK       I    between atoms: C_10  and  N_12 
ROOT
ATOM      1  S   UNK d   1     -38.407 -64.480  48.259  0.00  0.00     0.262 S 
ATOM      2  O   UNK d   1     -38.436 -63.128  48.980  0.00  0.00    -0.200 OA
ATOM      3  O   UNK d   1     -37.986 -64.105  46.836  0.00  0.00    -0.200 OA
ENDROOT
BRANCH   1   4
ATOM      4  N   UNK d   1     -39.941 -65.095  48.244  0.00  0.00    -0.307 N 
ATOM      5  C   UNK d   1     -41.070 -64.402  48.665  0.00  0.00     0.136 C 
ATOM      6  C   UNK d   1     -41.474 -64.580  50.094  0.00  0.00     0.034 C 
ATOM      7  C   UNK d   1     -40.895 -65.894  50.614  0.00  0.00     0.081 C 
ATOM      8  C   UNK d   1     -41.115 -66.870  49.447  0.00  0.00     0.034 C 
ATOM      9  C   UNK d   1     -40.023 -66.537  48.442  0.00  0.00     0.136 C 
BRANCH   7  10
ATOM     10  C   UNK d   1     -41.552 -66.343  51.829  0.00  0.00     0.224 C 
ATOM     11  O   UNK d   1     -42.686 -65.887  52.128  0.00  0.00    -0.273 OA
ATOM     12  N   UNK d   1     -40.956 -67.278  52.682  0.00  0.00    -0.348 N 
ATOM     13  C   UNK d   1     -41.609 -67.782  53.896  0.00  0.00     0.156 C 
ATOM     14  C   UNK d   1     -39.639 -67.788  52.425  0.00  0.00     0.156 C 
ATOM     15  C   UNK d   1     -40.566 -68.597  54.633  0.00  0.00     0.291 C 
ATOM     16  N   UNK d   1     -40.151 -69.730  53.828  0.00  0.00     0.087 N 
ATOM     17  C   UNK d   1     -39.583 -69.300  52.563  0.00  0.00     0.291 C 
ATOM     18  C   UNK d   1     -39.217 -70.566  54.551  0.00  0.00     0.310 C 
ENDBRANCH   7  10
ENDBRANCH   1   4
BRANCH   1  19
ATOM     19  C   UNK d   1     -37.145 -65.393  49.034  0.00  0.00     0.104 A 
ATOM     20  C   UNK d   1     -37.402 -66.718  49.429  0.00  0.00     0.066 A 
ATOM     21  C   UNK d   1     -36.476 -67.483  50.089  0.00  0.00     0.097 A 
ATOM     22  C   UNK d   1     -35.254 -66.959  50.382  0.00  0.00     0.070 A 
ATOM     23  O   UNK d   1     -36.768 -68.800  50.467  0.00  0.00    -0.340 OA
ATOM     24  C   UNK d   1     -34.946 -65.672  50.020  0.00  0.00     0.058 A 
ATOM     25  N   UNK d   1     -34.298 -67.775  51.079  0.00  0.00    -0.323 N 
ATOM     26  C   UNK d   1     -35.907 -64.914  49.347  0.00  0.00     0.059 A 
ATOM     27 Cl   UNK d   1     -35.432 -63.302  48.839  0.00  0.00    -0.083 Cl
ATOM     28  C   UNK d   1     -34.645 -69.099  51.445  0.00  0.00     0.246 C 
ATOM     29  H   UNK d   1     -33.362 -67.383  51.306  0.00  0.00     0.169 HD
ATOM     30  O   UNK d   1     -33.775 -69.960  51.696  0.00  0.00    -0.271 OA
ATOM     31  C   UNK d   1     -36.091 -69.433  51.520  0.00  0.00     0.278 C 
ENDBRANCH   1  19
TORSDOF 3
ENDMDL
