MODEL 1
REMARK VINA RESULT:    -7.474      0.000      0.000
REMARK INTER + INTRA:         -10.906
REMARK INTER:                 -10.096
REMARK INTRA:                  -0.810
REMARK UNBOUND:                -0.810
REMARK  6 active torsions:
REMARK  status: ('A' for Active; 'I' for Inactive)
REMARK    1  A    between atoms: C_5  and  C_8 
REMARK    2  A    between atoms: N_9  and  C_26 
REMARK    3  A    between atoms: C_15  and  C_17 
REMARK    4  A    between atoms: C_20  and  O_23 
REMARK    5  A    between atoms: C_26  and  C_27 
REMARK    6  A    between atoms: C_27  and  N_28 
ROOT
ATOM      1  C   UNK d   1     -39.717 -63.813  49.016  0.00  0.00     0.161 C 
ATOM      2  N   UNK d   1     -38.734 -64.649  48.314  0.00  0.00    -0.331 N 
ATOM      3  C   UNK d   1     -39.386 -65.895  48.117  0.00  0.00     0.295 C 
ATOM      4  O   UNK d   1     -39.169 -66.713  47.208  0.00  0.00    -0.264 OA
ATOM      5  C   UNK d   1     -40.359 -66.021  49.197  0.00  0.00     0.250 C 
ATOM      6  O   UNK d   1     -41.183 -66.948  49.457  0.00  0.00    -0.282 OA
ATOM      7  C   UNK d   1     -40.230 -64.802  50.008  0.00  0.00     0.062 C 
ATOM      8  C   UNK d   1     -40.537 -64.668  51.284  0.00  0.00     0.130 C 
ATOM      9  O   UNK d   1     -40.384 -63.411  51.875  0.00  0.00    -0.190 OA
ENDROOT
BRANCH   1  10
ATOM     10  C   UNK d   1     -40.757 -63.482  48.012  0.00  0.00    -0.030 A 
ATOM     11  C   UNK d   1     -40.440 -63.256  46.690  0.00  0.00     0.011 A 
ATOM     12  C   UNK d   1     -41.386 -62.947  45.737  0.00  0.00     0.024 A 
ATOM     13  C   UNK d   1     -42.723 -62.850  46.080  0.00  0.00     0.034 A 
ATOM     14 Cl   UNK d   1     -43.949 -62.456  44.877  0.00  0.00    -0.084 Cl
ATOM     15  C   UNK d   1     -43.062 -63.071  47.392  0.00  0.00     0.024 A 
ATOM     16  C   UNK d   1     -42.115 -63.380  48.341  0.00  0.00     0.011 A 
ENDBRANCH   1  10
BRANCH   8  17
ATOM     17  C   UNK d   1     -41.022 -65.769  52.103  0.00  0.00     0.002 A 
ATOM     18  C   UNK d   1     -42.332 -65.838  52.548  0.00  0.00     0.024 A 
ATOM     19  C   UNK d   1     -42.780 -66.870  53.346  0.00  0.00    -0.028 A 
ATOM     20  C   UNK d   1     -41.922 -67.889  53.736  0.00  0.00     0.074 A 
ATOM     21  C   UNK d   1     -44.188 -66.902  53.797  0.00  0.00     0.051 C 
ATOM     22  C   UNK d   1     -40.618 -67.832  53.301  0.00  0.00     0.038 A 
ATOM     23  C   UNK d   1     -40.175 -66.781  52.492  0.00  0.00     0.017 A 
BRANCH  20  24
ATOM     24  O   UNK d   1     -42.359 -68.938  54.540  0.00  0.00    -0.355 OA
ATOM     25  C   UNK d   1     -41.411 -69.779  55.136  0.00  0.00     0.210 C 
ENDBRANCH  20  24
ENDBRANCH   8  17
BRANCH   2  26
ATOM     26  C   UNK d   1     -37.381 -64.267  47.908  0.00  0.00     0.155 C 
BRANCH  26  27
ATOM     27  C   UNK d   1     -36.494 -64.479  49.113  0.00  0.00     0.255 C 
BRANCH  27  28
ATOM     28  N   UNK d   1     -35.263 -65.145  48.782  0.00  0.00    -0.066 N 
ATOM     29  C   UNK d   1     -35.433 -66.007  47.658  0.00  0.00     0.261 C 
ATOM     30  C   UNK d   1     -35.689 -67.445  47.966  0.00  0.00     0.195 C 
ATOM     31  O   UNK d   1     -35.087 -67.915  49.102  0.00  0.00    -0.388 OA
ATOM     32  C   UNK d   1     -35.353 -67.142  50.224  0.00  0.00     0.195 C 
ATOM     33  C   UNK d   1     -34.757 -65.783  49.965  0.00  0.00     0.261 C 
ATOM     34  H   UNK d   1     -34.595 -64.376  48.492  0.00  0.00     0.280 HD
ENDBRANCH  27  28
ENDBRANCH  26  27
ENDBRANCH   2  26
TORSDOF 6
ENDMDL
