/Users/jonathanwahrer/Desktop/Msc/3_Semester/Drug_Design_Praktikum/waehrer_HTS_screening/HTS_experiment/out/docking_results/vina_output/3e7o/1539_docked.pdbqt
 OpenBabel03192216313D

 34 37  0  0  1  0  0  0  0  0999 V2000
  -39.7170  -63.8130   49.0160 C   0  0  2  0  0  3  0  0  0  0  0  0
  -38.7340  -64.6490   48.3140 N   0  0  0  0  0  0  0  0  0  0  0  0
  -39.3860  -65.8950   48.1170 C   0  0  0  0  0  0  0  0  0  0  0  0
  -39.1690  -66.7130   47.2080 O   0  0  0  0  0  0  0  0  0  0  0  0
  -40.3590  -66.0210   49.1970 C   0  0  0  0  0  0  0  0  0  0  0  0
  -41.1830  -66.9480   49.4570 O   0  0  0  0  0  0  0  0  0  0  0  0
  -40.2300  -64.8020   50.0080 C   0  0  0  0  0  0  0  0  0  0  0  0
  -40.5370  -64.6680   51.2840 C   0  0  0  0  0  0  0  0  0  0  0  0
  -40.3840  -63.4110   51.8750 O   0  0  0  0  0  1  0  0  0  0  0  0
  -40.7570  -63.4820   48.0120 C   0  0  0  0  0  0  0  0  0  0  0  0
  -40.4400  -63.2560   46.6900 C   0  0  0  0  0  3  0  0  0  0  0  0
  -41.3860  -62.9470   45.7370 C   0  0  0  0  0  3  0  0  0  0  0  0
  -42.7230  -62.8500   46.0800 C   0  0  0  0  0  0  0  0  0  0  0  0
  -43.9490  -62.4560   44.8770 Cl  0  0  0  0  0  0  0  0  0  0  0  0
  -43.0620  -63.0710   47.3920 C   0  0  0  0  0  3  0  0  0  0  0  0
  -42.1150  -63.3800   48.3410 C   0  0  0  0  0  3  0  0  0  0  0  0
  -41.0220  -65.7690   52.1030 C   0  0  0  0  0  0  0  0  0  0  0  0
  -42.3320  -65.8380   52.5480 C   0  0  0  0  0  3  0  0  0  0  0  0
  -42.7800  -66.8700   53.3460 C   0  0  0  0  0  0  0  0  0  0  0  0
  -41.9220  -67.8890   53.7360 C   0  0  0  0  0  0  0  0  0  0  0  0
  -44.1880  -66.9020   53.7970 C   0  0  0  0  0  1  0  0  0  0  0  0
  -40.6180  -67.8320   53.3010 C   0  0  0  0  0  3  0  0  0  0  0  0
  -40.1750  -66.7810   52.4920 C   0  0  0  0  0  3  0  0  0  0  0  0
  -42.3590  -68.9380   54.5400 O   0  0  0  0  0  0  0  0  0  0  0  0
  -41.4110  -69.7790   55.1360 C   0  0  0  0  0  1  0  0  0  0  0  0
  -37.3810  -64.2670   47.9080 C   0  0  0  0  0  2  0  0  0  0  0  0
  -36.4940  -64.4790   49.1130 C   0  0  0  0  0  2  0  0  0  0  0  0
  -35.2630  -65.1450   48.7820 N   0  0  0  0  0  4  0  0  0  0  0  0
  -35.4330  -66.0070   47.6580 C   0  0  0  0  0  2  0  0  0  0  0  0
  -35.6890  -67.4450   47.9660 C   0  0  0  0  0  2  0  0  0  0  0  0
  -35.0870  -67.9150   49.1020 O   0  0  0  0  0  0  0  0  0  0  0  0
  -35.3530  -67.1420   50.2240 C   0  0  0  0  0  2  0  0  0  0  0  0
  -34.7570  -65.7830   49.9650 C   0  0  0  0  0  2  0  0  0  0  0  0
  -34.5950  -64.3760   48.4920 H   0  0  0  0  0  0  0  0  0  0  0  0
  1 10  1  6  0  0  0
  1  7  1  0  0  0  0
  2  1  1  0  0  0  0
  3  2  1  0  0  0  0
  3  5  1  0  0  0  0
  4  3  2  0  0  0  0
  5  6  2  0  0  0  0
  5  7  1  0  0  0  0
  7  8  2  0  0  0  0
  8  9  1  0  0  0  0
  8 17  1  0  0  0  0
 10 16  1  0  0  0  0
 11 10  2  0  0  0  0
 12 13  2  0  0  0  0
 12 11  1  0  0  0  0
 13 15  1  0  0  0  0
 14 13  1  0  0  0  0
 15 16  2  0  0  0  0
 17 23  2  0  0  0  0
 17 18  1  0  0  0  0
 18 19  2  0  0  0  0
 19 20  1  0  0  0  0
 19 21  1  0  0  0  0
 20 24  1  0  0  0  0
 22 20  2  0  0  0  0
 23 22  1  0  0  0  0
 24 25  1  0  0  0  0
 26  2  1  0  0  0  0
 26 27  1  0  0  0  0
 28 27  1  0  0  0  0
 28 33  1  0  0  0  0
 29 30  1  0  0  0  0
 29 28  1  0  0  0  0
 30 31  1  0  0  0  0
 31 32  1  0  0  0  0
 33 32  1  0  0  0  0
 34 28  1  0  0  0  0
M  END
>  <Pose>
1

>  <Score>
-7.474

$$$$
