MODEL 1
REMARK VINA RESULT:    -8.467      0.000      0.000
REMARK INTER + INTRA:          -9.133
REMARK INTER:                  -8.962
REMARK INTRA:                  -0.171
REMARK UNBOUND:                -0.171
REMARK  1 active torsions:
REMARK  status: ('A' for Active; 'I' for Inactive)
REMARK       I    between atoms: N_10  and  C_13 
REMARK    1  A    between atoms: C_13  and  C_15 
ROOT
ATOM      1 Cl   UNK d   1     -36.684 -68.582  49.205  0.00  0.00    -0.083 Cl
ATOM      2  C   UNK d   1     -37.902 -68.559  50.472  0.00  0.00     0.050 A 
ATOM      3  C   UNK d   1     -38.829 -67.545  50.579  0.00  0.00     0.125 A 
ATOM      4  N   UNK d   1     -39.774 -67.529  51.565  0.00  0.00    -0.271 N 
ATOM      5  C   UNK d   1     -39.846 -68.510  52.483  0.00  0.00     0.137 A 
ATOM      6  N   UNK d   1     -40.784 -68.496  53.463  0.00  0.00    -0.234 NA
ATOM      7  C   UNK d   1     -41.689 -67.500  53.562  0.00  0.00     0.051 A 
ATOM      8  C   UNK d   1     -41.645 -66.489  52.647  0.00  0.00     0.053 A 
ATOM      9  C   UNK d   1     -42.626 -65.358  52.710  0.00  0.00     0.172 C 
ATOM     10  N   UNK d   1     -43.821 -65.931  53.353  0.00  0.00    -0.342 N 
ATOM     11  C   UNK d   1     -43.593 -66.401  54.690  0.00  0.00     0.132 C 
ATOM     12  C   UNK d   1     -42.664 -67.602  54.680  0.00  0.00     0.080 C 
ATOM     13  C   UNK d   1     -45.004 -65.956  52.620  0.00  0.00     0.274 C 
ATOM     14  O   UNK d   1     -44.998 -65.477  51.433  0.00  0.00    -0.266 OA
ATOM     15  C   UNK d   1     -40.672 -66.533  51.657  0.00  0.00     0.263 A 
ATOM     16  O   UNK d   1     -40.624 -65.614  50.816  0.00  0.00    -0.267 OA
ATOM     17  C   UNK d   1     -38.917 -69.534  52.382  0.00  0.00     0.053 A 
ATOM     18  C   UNK d   1     -37.951 -69.577  51.399  0.00  0.00     0.029 A 
ENDROOT
BRANCH  13  19
ATOM     19  C   UNK d   1     -46.290 -66.490  53.083  0.00  0.00     0.141 A 
ATOM     20  N   UNK d   1     -46.451 -67.770  53.429  0.00  0.00    -0.253 NA
ATOM     21  C   UNK d   1     -47.626 -68.248  53.850  0.00  0.00     0.136 A 
ATOM     22  C   UNK d   1     -48.743 -67.445  53.950  0.00  0.00     0.135 A 
ATOM     23  N   UNK d   1     -48.562 -66.160  53.599  0.00  0.00    -0.269 NA
ATOM     24  C   UNK d   1     -47.401 -65.659  53.176  0.00  0.00     0.153 A 
ENDBRANCH  13  19
TORSDOF 1
ENDMDL
