/Users/jonathanwahrer/Desktop/Msc/3_Semester/Drug_Design_Praktikum/waehrer_HTS_screening/HTS_experiment/out/docking_results/vina_output/3e7o/1548_docked.pdbqt
 OpenBabel03192216313D

 24 27  0  0  1  0  0  0  0  0999 V2000
  -36.6840  -68.5820   49.2050 Cl  0  0  0  0  0  0  0  0  0  0  0  0
  -37.9020  -68.5590   50.4720 C   0  0  0  0  0  0  0  0  0  0  0  0
  -38.8290  -67.5450   50.5790 C   0  0  0  0  0  2  0  0  0  0  0  0
  -39.7740  -67.5290   51.5650 N   0  0  0  0  0  0  0  0  0  0  0  0
  -39.8460  -68.5100   52.4830 C   0  0  0  0  0  0  0  0  0  0  0  0
  -40.7840  -68.4960   53.4630 N   0  0  0  0  0  0  0  0  0  0  0  0
  -41.6890  -67.5000   53.5620 C   0  0  0  0  0  0  0  0  0  0  0  0
  -41.6450  -66.4890   52.6470 C   0  0  2  0  0  3  0  0  0  0  0  0
  -42.6260  -65.3580   52.7100 C   0  0  0  0  0  2  0  0  0  0  0  0
  -43.8210  -65.9310   53.3530 N   0  0  0  0  0  0  0  0  0  0  0  0
  -43.5930  -66.4010   54.6900 C   0  0  0  0  0  2  0  0  0  0  0  0
  -42.6640  -67.6020   54.6800 C   0  0  0  0  0  2  0  0  0  0  0  0
  -45.0040  -65.9560   52.6200 C   0  0  0  0  0  0  0  0  0  0  0  0
  -44.9980  -65.4770   51.4330 O   0  0  0  0  0  0  0  0  0  0  0  0
  -40.6720  -66.5330   51.6570 C   0  0  0  0  0  0  0  0  0  0  0  0
  -40.6240  -65.6140   50.8160 O   0  0  0  0  0  0  0  0  0  0  0  0
  -38.9170  -69.5340   52.3820 C   0  0  0  0  0  3  0  0  0  0  0  0
  -37.9510  -69.5770   51.3990 C   0  0  0  0  0  3  0  0  0  0  0  0
  -46.2900  -66.4900   53.0830 C   0  0  0  0  0  0  0  0  0  0  0  0
  -46.4510  -67.7700   53.4290 N   0  0  0  0  0  0  0  0  0  0  0  0
  -47.6260  -68.2480   53.8500 C   0  0  0  0  0  3  0  0  0  0  0  0
  -48.7430  -67.4450   53.9500 C   0  0  0  0  0  3  0  0  0  0  0  0
  -48.5620  -66.1600   53.5990 N   0  0  0  0  0  0  0  0  0  0  0  0
  -47.4010  -65.6590   53.1760 C   0  0  0  0  0  3  0  0  0  0  0  0
  1  2  1  0  0  0  0
  2  3  1  0  0  0  0
  2 18  2  0  0  0  0
  3  4  1  0  0  0  0
  4 15  1  0  0  0  0
  4  5  1  0  0  0  0
  5  6  1  0  0  0  0
  6  7  2  0  0  0  0
  7 12  1  0  0  0  0
  8  9  1  6  0  0  0
  8  7  1  0  0  0  0
  9 10  1  0  0  0  0
 10 11  1  0  0  0  0
 12 11  1  0  0  0  0
 13 19  1  0  0  0  0
 13 10  1  0  0  0  0
 14 13  2  0  0  0  0
 15  8  1  0  0  0  0
 16 15  2  0  0  0  0
 17  5  2  0  0  0  0
 18 17  1  0  0  0  0
 19 24  2  0  0  0  0
 19 20  1  0  0  0  0
 20 21  2  0  0  0  0
 21 22  1  0  0  0  0
 23 22  2  0  0  0  0
 24 23  1  0  0  0  0
M  END
>  <Pose>
1

>  <Score>
-8.467

$$$$
