MODEL 1
REMARK VINA RESULT:    -8.720      0.000      0.000
REMARK INTER + INTRA:         -10.257
REMARK INTER:                  -9.994
REMARK INTRA:                  -0.263
REMARK UNBOUND:                -0.263
REMARK  3 active torsions:
REMARK  status: ('A' for Active; 'I' for Inactive)
REMARK    1  A    between atoms: C_3  and  O_25 
REMARK    2  A    between atoms: C_4  and  C_9 
REMARK    3  A    between atoms: C_11  and  C_22 
ROOT
ATOM      1  C   UNK d   1     -40.705 -67.054  50.058  0.00  0.00     0.272 C 
ATOM      2  N   UNK d   1     -41.547 -65.972  49.711  0.00  0.00    -0.047 N 
ATOM      3  C   UNK d   1     -40.944 -64.881  49.004  0.00  0.00     0.291 C 
ATOM      4  C   UNK d   1     -39.730 -64.377  49.803  0.00  0.00     0.086 C 
ATOM      5  C   UNK d   1     -38.795 -65.519  49.781  0.00  0.00    -0.018 A 
ATOM      6  C   UNK d   1     -37.418 -65.576  49.643  0.00  0.00    -0.001 A 
ATOM      7  C   UNK d   1     -37.077 -66.910  49.684  0.00  0.00     0.043 A 
ATOM      8  N   UNK d   1     -38.185 -67.651  49.839  0.00  0.00    -0.356 N 
ATOM      9  C   UNK d   1     -39.256 -66.793  49.899  0.00  0.00     0.052 A 
ATOM     10  C   UNK d   1     -35.739 -67.237  49.564  0.00  0.00     0.030 A 
ATOM     11  C   UNK d   1     -34.819 -66.230  49.412  0.00  0.00     0.002 A 
ATOM     12  C   UNK d   1     -35.162 -64.898  49.372  0.00  0.00     0.001 A 
ATOM     13  C   UNK d   1     -36.507 -64.553  49.491  0.00  0.00     0.014 A 
ATOM     14  H   UNK d   1     -42.322 -66.357  49.082  0.00  0.00     0.279 HD
ATOM     15  H   UNK d   1     -42.064 -65.549  50.522  0.00  0.00     0.279 HD
ATOM     16  H   UNK d   1     -38.278 -68.697  49.909  0.00  0.00     0.166 HD
ENDROOT
BRANCH   1  17
ATOM     17  C   UNK d   1     -40.923 -67.404  51.509  0.00  0.00     0.014 A 
ATOM     18  C   UNK d   1     -41.880 -66.767  52.278  0.00  0.00     0.091 A 
ATOM     19  C   UNK d   1     -42.067 -67.116  53.619  0.00  0.00     0.046 A 
ATOM     20 Br   UNK d   1     -43.392 -66.221  54.669  0.00  0.00    -0.048 Br
ATOM     21  C   UNK d   1     -41.311 -68.094  54.206  0.00  0.00     0.041 A 
ATOM     22  C   UNK d   1     -40.359 -68.730  53.444  0.00  0.00     0.013 A 
ATOM     23  C   UNK d   1     -40.167 -68.389  52.111  0.00  0.00     0.031 A 
ATOM     24 Br   UNK d   1     -39.272 -70.110  54.233  0.00  0.00    -0.051 Br
BRANCH  18  25
ATOM     25  O   UNK d   1     -42.690 -65.774  51.793  0.00  0.00    -0.359 OA
ATOM     26  H   UNK d   1     -42.559 -65.256  50.968  0.00  0.00     0.217 HD
ENDBRANCH  18  25
ENDBRANCH   1  17
BRANCH   3  27
ATOM     27  C   UNK d   1     -41.932 -63.800  48.813  0.00  0.00     0.205 C 
ATOM     28  O   UNK d   1     -42.675 -63.476  49.775  0.00  0.00    -0.646 OA
ATOM     29  O   UNK d   1     -42.023 -63.167  47.584  0.00  0.00    -0.646 OA
ENDBRANCH   3  27
TORSDOF 3
ENDMDL
