MODEL 1
REMARK VINA RESULT:    -8.213      0.000      0.000
REMARK INTER + INTRA:         -11.308
REMARK INTER:                 -10.613
REMARK INTRA:                  -0.695
REMARK UNBOUND:                -0.695
REMARK  5 active torsions:
REMARK  status: ('A' for Active; 'I' for Inactive)
REMARK    1  A    between atoms: C_7  and  C_11 
REMARK    2  A    between atoms: C_11  and  O_12 
REMARK    3  A    between atoms: O_12  and  C_13 
REMARK    4  A    between atoms: C_13  and  C_15 
REMARK    5  A    between atoms: C_15  and  N_16 
ROOT
ATOM      1  O   UNK d   1     -36.146 -68.546  50.429  0.00  0.00    -0.314 OA
ENDROOT
BRANCH   1   2
ATOM      2  C   UNK d   1     -37.182 -69.411  50.802  0.00  0.00     0.238 C 
BRANCH   2   3
ATOM      3  C   UNK d   1     -38.376 -68.694  51.310  0.00  0.00     0.066 A 
ATOM      4  N   UNK d   1     -38.948 -68.966  52.499  0.00  0.00    -0.233 NA
ATOM      5  C   UNK d   1     -40.023 -68.305  52.933  0.00  0.00     0.137 A 
ATOM      6  N   UNK d   1     -40.623 -67.315  52.224  0.00  0.00    -0.272 N 
ATOM      7  C   UNK d   1     -40.556 -68.646  54.175  0.00  0.00     0.052 A 
ATOM      8  C   UNK d   1     -41.700 -66.680  52.705  0.00  0.00     0.121 A 
ATOM      9  C   UNK d   1     -40.070 -67.016  51.020  0.00  0.00     0.255 A 
ATOM     10  C   UNK d   1     -42.255 -66.989  53.924  0.00  0.00     0.027 A 
ATOM     11 Br   UNK d   1     -43.805 -66.049  54.576  0.00  0.00    -0.050 Br
ATOM     12  C   UNK d   1     -41.665 -67.986  54.659  0.00  0.00     0.024 A 
ATOM     13  C   UNK d   1     -38.958 -67.693  50.560  0.00  0.00     0.104 A 
ATOM     14  O   UNK d   1     -40.632 -66.094  50.366  0.00  0.00    -0.268 OA
ENDBRANCH   2   3
ENDBRANCH   1   2
BRANCH   1  15
ATOM     15  C   UNK d   1     -34.877 -68.543  50.960  0.00  0.00     0.277 C 
ATOM     16  O   UNK d   1     -34.432 -69.665  51.332  0.00  0.00    -0.263 OA
BRANCH  15  17
ATOM     17  C   UNK d   1     -34.063 -67.305  51.095  0.00  0.00     0.245 C 
BRANCH  17  18
ATOM     18  N   UNK d   1     -33.943 -66.600  49.818  0.00  0.00    -0.278 N 
ATOM     19  C   UNK d   1     -34.794 -65.574  49.313  0.00  0.00     0.232 C 
ATOM     20  O   UNK d   1     -35.692 -64.971  49.953  0.00  0.00    -0.273 OA
ATOM     21  C   UNK d   1     -34.433 -65.343  47.895  0.00  0.00     0.091 C 
ATOM     22  C   UNK d   1     -32.956 -65.661  47.934  0.00  0.00     0.091 C 
ATOM     23  C   UNK d   1     -34.770 -64.003  47.381  0.00  0.00     0.015 C 
ATOM     24  C   UNK d   1     -32.130 -64.552  48.557  0.00  0.00     0.015 C 
ATOM     25  C   UNK d   1     -32.943 -66.831  48.842  0.00  0.00     0.232 C 
ATOM     26  C   UNK d   1     -32.929 -63.306  48.834  0.00  0.00     0.001 C 
ATOM     27  C   UNK d   1     -33.776 -62.930  47.652  0.00  0.00     0.001 C 
ATOM     28  O   UNK d   1     -32.191 -67.854  48.779  0.00  0.00    -0.273 OA
ENDBRANCH  17  18
ENDBRANCH  15  17
ENDBRANCH   1  15
TORSDOF 5
ENDMDL
