/Users/jonathanwahrer/Desktop/Msc/3_Semester/Drug_Design_Praktikum/waehrer_HTS_screening/HTS_experiment/out/docking_results/vina_output/3e7o/1571_docked.pdbqt
 OpenBabel03192216313D

 28 31  0  0  1  0  0  0  0  0999 V2000
  -36.1460  -68.5460   50.4290 O   0  0  0  0  0  0  0  0  0  0  0  0
  -37.1820  -69.4110   50.8020 C   0  0  0  0  0  2  0  0  0  0  0  0
  -38.3760  -68.6940   51.3100 C   0  0  0  0  0  0  0  0  0  0  0  0
  -38.9480  -68.9660   52.4990 N   0  0  0  0  0  0  0  0  0  0  0  0
  -40.0230  -68.3050   52.9330 C   0  0  0  0  0  0  0  0  0  0  0  0
  -40.6230  -67.3150   52.2240 N   0  0  0  0  0  0  0  0  0  0  0  0
  -40.5560  -68.6460   54.1750 C   0  0  0  0  0  3  0  0  0  0  0  0
  -41.7000  -66.6800   52.7050 C   0  0  0  0  0  3  0  0  0  0  0  0
  -40.0700  -67.0160   51.0200 C   0  0  0  0  0  0  0  0  0  0  0  0
  -42.2550  -66.9890   53.9240 C   0  0  0  0  0  0  0  0  0  0  0  0
  -43.8050  -66.0490   54.5760 Br  0  0  0  0  0  0  0  0  0  0  0  0
  -41.6650  -67.9860   54.6590 C   0  0  0  0  0  3  0  0  0  0  0  0
  -38.9580  -67.6930   50.5600 C   0  0  0  0  0  3  0  0  0  0  0  0
  -40.6320  -66.0940   50.3660 O   0  0  0  0  0  0  0  0  0  0  0  0
  -34.8770  -68.5430   50.9600 C   0  0  0  0  0  0  0  0  0  0  0  0
  -34.4320  -69.6650   51.3320 O   0  0  0  0  0  0  0  0  0  0  0  0
  -34.0630  -67.3050   51.0950 C   0  0  0  0  0  2  0  0  0  0  0  0
  -33.9430  -66.6000   49.8180 N   0  0  0  0  0  0  0  0  0  0  0  0
  -34.7940  -65.5740   49.3130 C   0  0  0  0  0  0  0  0  0  0  0  0
  -35.6920  -64.9710   49.9530 O   0  0  0  0  0  0  0  0  0  0  0  0
  -34.4330  -65.3430   47.8950 C   0  0  2  0  0  3  0  0  0  0  0  0
  -32.9560  -65.6610   47.9340 C   0  0  1  0  0  3  0  0  0  0  0  0
  -34.7700  -64.0030   47.3810 C   0  0  0  0  0  2  0  0  0  0  0  0
  -32.1300  -64.5520   48.5570 C   0  0  0  0  0  2  0  0  0  0  0  0
  -32.9430  -66.8310   48.8420 C   0  0  0  0  0  0  0  0  0  0  0  0
  -32.9290  -63.3060   48.8340 C   0  0  0  0  0  2  0  0  0  0  0  0
  -33.7760  -62.9300   47.6520 C   0  0  0  0  0  2  0  0  0  0  0  0
  -32.1910  -67.8540   48.7790 O   0  0  0  0  0  0  0  0  0  0  0  0
  1  2  1  0  0  0  0
  1 15  1  0  0  0  0
  2  3  1  0  0  0  0
  3  4  1  0  0  0  0
  4  5  2  0  0  0  0
  5  7  1  0  0  0  0
  6  8  1  0  0  0  0
  6  5  1  0  0  0  0
  7 12  2  0  0  0  0
  8 10  2  0  0  0  0
  9  6  1  0  0  0  0
 10 11  1  0  0  0  0
 10 12  1  0  0  0  0
 13  9  1  0  0  0  0
 13  3  2  0  0  0  0
 14  9  2  0  0  0  0
 15 17  1  0  0  0  0
 15 16  2  0  0  0  0
 18 17  1  0  0  0  0
 19 18  1  0  0  0  0
 19 20  2  0  0  0  0
 21 23  1  1  0  0  0
 21 22  1  0  0  0  0
 21 19  1  0  0  0  0
 22 24  1  1  0  0  0
 22 25  1  0  0  0  0
 23 27  1  0  0  0  0
 24 26  1  0  0  0  0
 25 18  1  0  0  0  0
 27 26  1  0  0  0  0
 28 25  2  0  0  0  0
M  END
>  <Pose>
1

>  <Score>
-8.213

$$$$
