MODEL 1
REMARK VINA RESULT:    -8.179      0.000      0.000
REMARK INTER + INTRA:         -11.018
REMARK INTER:                 -10.091
REMARK INTRA:                  -0.926
REMARK UNBOUND:                -0.926
REMARK  4 active torsions:
REMARK  status: ('A' for Active; 'I' for Inactive)
REMARK    1  A    between atoms: C_3  and  N_8 
REMARK       I    between atoms: N_11  and  C_14 
REMARK    2  A    between atoms: C_14  and  C_16 
REMARK    3  A    between atoms: C_16  and  N_17 
REMARK    4  A    between atoms: C_19  and  C_23 
REMARK       I    between atoms: C_23  and  N_25 
ROOT
ATOM      1  N   UNK d   1     -40.938 -67.204  51.742  0.00  0.00    -0.376 N 
ATOM      2  C   UNK d   1     -41.241 -65.888  52.262  0.00  0.00     0.143 C 
ATOM      3  C   UNK d   1     -41.698 -65.004  51.104  0.00  0.00     0.145 C 
ATOM      4  N   UNK d   1     -40.870 -65.270  49.938  0.00  0.00    -0.348 N 
ATOM      5  C   UNK d   1     -40.806 -66.621  49.433  0.00  0.00     0.145 C 
ATOM      6  C   UNK d   1     -41.505 -67.523  50.422  0.00  0.00     0.143 C 
ATOM      7  C   UNK d   1     -40.133 -64.237  49.294  0.00  0.00     0.239 C 
ATOM      8  O   UNK d   1     -40.217 -63.059  49.762  0.00  0.00    -0.271 OA
ENDROOT
BRANCH   7   9
ATOM      9  C   UNK d   1     -39.280 -64.447  48.119  0.00  0.00     0.254 C 
BRANCH   9  10
ATOM     10  N   UNK d   1     -37.852 -64.350  48.412  0.00  0.00    -0.265 N 
ATOM     11  N   UNK d   1     -37.047 -65.243  48.953  0.00  0.00    -0.167 NA
ATOM     12  C   UNK d   1     -35.791 -64.806  49.069  0.00  0.00     0.146 A 
ATOM     13  C   UNK d   1     -35.779 -63.521  48.559  0.00  0.00     0.065 A 
ATOM     14  C   UNK d   1     -37.071 -63.263  48.158  0.00  0.00     0.029 A 
ATOM     15  C   UNK d   1     -37.529 -61.997  47.549  0.00  0.00     0.070 C 
BRANCH  12  16
ATOM     16  C   UNK d   1     -34.645 -65.548  49.627  0.00  0.00     0.274 C 
ATOM     17  O   UNK d   1     -34.385 -65.477  50.845  0.00  0.00    -0.266 OA
ATOM     18  N   UNK d   1     -33.855 -66.335  48.761  0.00  0.00    -0.343 N 
ATOM     19  C   UNK d   1     -34.094 -66.464  47.351  0.00  0.00     0.152 C 
ATOM     20  C   UNK d   1     -32.713 -67.078  49.303  0.00  0.00     0.152 C 
ATOM     21  C   UNK d   1     -32.923 -67.279  46.788  0.00  0.00     0.187 C 
ATOM     22  O   UNK d   1     -31.714 -66.724  47.144  0.00  0.00    -0.388 OA
ATOM     23  C   UNK d   1     -31.491 -66.686  48.500  0.00  0.00     0.187 C 
ENDBRANCH  12  16
ENDBRANCH   9  10
ENDBRANCH   7   9
BRANCH   1  24
ATOM     24  C   UNK d   1     -40.164 -68.176  52.377  0.00  0.00     0.052 A 
ATOM     25  C   UNK d   1     -40.501 -68.795  53.562  0.00  0.00     0.060 A 
ATOM     26 Cl   UNK d   1     -41.978 -68.354  54.341  0.00  0.00    -0.082 Cl
ATOM     27  C   UNK d   1     -39.707 -69.755  54.158  0.00  0.00     0.026 A 
ATOM     28  C   UNK d   1     -38.537 -70.124  53.571  0.00  0.00     0.002 A 
ATOM     29  C   UNK d   1     -38.161 -69.536  52.393  0.00  0.00     0.002 A 
ATOM     30  C   UNK d   1     -38.959 -68.576  51.803  0.00  0.00     0.031 A 
ENDBRANCH   1  24
TORSDOF 4
ENDMDL
