/Users/jonathanwahrer/Desktop/Msc/3_Semester/Drug_Design_Praktikum/waehrer_HTS_screening/HTS_experiment/out/docking_results/vina_output/3e7o/1581_docked.pdbqt
 OpenBabel03192216323D

 27 30  0  0  1  0  0  0  0  0999 V2000
  -38.7370  -64.5960   48.2590 N   0  0  0  0  0  0  0  0  0  0  0  0
  -39.7650  -64.0600   47.4690 C   0  0  0  0  0  2  0  0  0  0  0  0
  -41.1470  -64.1940   48.0170 C   0  0  0  0  0  2  0  0  0  0  0  0
  -41.1580  -64.2440   49.4720 N   0  0  0  0  0  0  0  0  0  0  0  0
  -42.2390  -64.2970   50.2490 N   0  0  0  0  0  0  0  0  0  0  0  0
  -41.8600  -64.3310   51.5290 C   0  0  0  0  0  0  0  0  0  0  0  0
  -40.4880  -64.2960   51.5430 C   0  0  0  0  0  3  0  0  0  0  0  0
  -40.0420  -64.2400   50.2180 C   0  0  0  0  0  0  0  0  0  0  0  0
  -38.6860  -64.1850   49.6170 C   0  0  0  0  0  2  0  0  0  0  0  0
  -38.2550  -65.8780   47.9560 C   0  0  0  0  0  2  0  0  0  0  0  0
  -38.1810  -66.8310   49.0710 C   0  0  0  0  0  0  0  0  0  0  0  0
  -39.2140  -67.1320   49.8790 N   0  0  0  0  0  0  0  0  0  0  0  0
  -39.1090  -68.0110   50.8940 C   0  0  0  0  0  0  0  0  0  0  0  0
  -37.9650  -68.6540   51.1770 N   0  0  0  0  0  0  0  0  0  0  0  0
  -40.2580  -68.2350   51.6590 C   0  0  0  0  0  3  0  0  0  0  0  0
  -37.8670  -69.5380   52.2010 C   0  0  0  0  0  3  0  0  0  0  0  0
  -36.8940  -68.3910   50.4000 C   0  0  0  0  0  0  0  0  0  0  0  0
  -38.9950  -69.7620   52.9580 C   0  0  0  0  0  0  0  0  0  0  0  0
  -38.8730  -70.9080   54.2850 Cl  0  0  0  0  0  0  0  0  0  0  0  0
  -40.1910  -69.1240   52.7030 C   0  0  0  0  0  3  0  0  0  0  0  0
  -37.0010  -67.4930   49.3620 C   0  0  0  0  0  3  0  0  0  0  0  0
  -35.7910  -68.9770   50.6300 O   0  0  0  0  0  0  0  0  0  0  0  0
  -42.7680  -64.3940   52.7170 C   0  0  1  0  0  3  0  0  0  0  0  0
  -43.7760  -63.4340   52.5340 O   0  0  0  0  0  0  0  0  0  0  0  0
  -43.8940  -62.8850   53.3630 H   0  0  0  0  0  0  0  0  0  0  0  0
  -43.4820  -65.7420   52.7560 C   0  0  0  0  0  2  0  0  0  0  0  0
  -42.8650  -66.5790   53.8670 C   0  0  0  0  0  1  0  0  0  0  0  0
  1  9  1  0  0  0  0
  2  3  1  0  0  0  0
  2  1  1  0  0  0  0
  3  4  1  0  0  0  0
  4  8  1  0  0  0  0
  4  5  1  0  0  0  0
  5  6  2  0  0  0  0
  6  7  1  0  0  0  0
  6 23  1  0  0  0  0
  8  7  2  0  0  0  0
  9  8  1  0  0  0  0
 10  1  1  0  0  0  0
 10 11  1  0  0  0  0
 11 21  2  0  0  0  0
 11 12  1  0  0  0  0
 12 13  2  0  0  0  0
 13 14  1  0  0  0  0
 13 15  1  0  0  0  0
 14 16  1  0  0  0  0
 15 20  2  0  0  0  0
 16 18  2  0  0  0  0
 17 22  2  0  0  0  0
 17 14  1  0  0  0  0
 18 19  1  0  0  0  0
 20 18  1  0  0  0  0
 21 17  1  0  0  0  0
 23 26  1  6  0  0  0
 24 23  1  0  0  0  0
 24 25  1  0  0  0  0
 26 27  1  0  0  0  0
M  END
>  <Pose>
1

>  <Score>
-8.343

$$$$
