MODEL 1
REMARK VINA RESULT:    -8.663      0.000      0.000
REMARK INTER + INTRA:         -10.845
REMARK INTER:                 -10.183
REMARK INTRA:                  -0.662
REMARK UNBOUND:                -0.662
REMARK  3 active torsions:
REMARK  status: ('A' for Active; 'I' for Inactive)
REMARK    1  A    between atoms: C_5  and  C_8 
REMARK       I    between atoms: C_8  and  N_10 
REMARK    2  A    between atoms: C_18  and  C_22 
REMARK    3  A    between atoms: C_22  and  C_23 
ROOT
ATOM      1  C   UNK d   1     -36.669 -68.761  50.971  0.00  0.00     0.187 C 
ATOM      2  O   UNK d   1     -36.019 -69.711  51.626  0.00  0.00    -0.171 OA
ATOM      3  N   UNK d   1     -38.049 -68.686  51.223  0.00  0.00    -0.355 N 
ATOM      4  C   UNK d   1     -38.935 -67.763  50.609  0.00  0.00     0.160 C 
ATOM      5  C   UNK d   1     -40.381 -68.145  50.972  0.00  0.00     0.197 C 
ATOM      6  N   UNK d   1     -40.439 -68.107  52.410  0.00  0.00    -0.334 N 
ATOM      7  C   UNK d   1     -39.582 -68.992  53.126  0.00  0.00     0.147 C 
ATOM      8  C   UNK d   1     -38.567 -69.638  52.205  0.00  0.00     0.145 C 
ATOM      9  C   UNK d   1     -41.310 -67.228  53.076  0.00  0.00     0.243 C 
ATOM     10  O   UNK d   1     -41.625 -67.471  54.255  0.00  0.00    -0.271 OA
ATOM     11  C   UNK d   1     -41.821 -66.046  52.352  0.00  0.00     0.182 C 
ATOM     12  N   UNK d   1     -42.264 -66.504  51.069  0.00  0.00    -0.346 N 
ATOM     13  C   UNK d   1     -41.371 -67.299  50.309  0.00  0.00     0.243 C 
ATOM     14  O   UNK d   1     -41.401 -67.304  49.038  0.00  0.00    -0.271 OA
ATOM     15  H   UNK d   1     -43.211 -66.271  50.681  0.00  0.00     0.163 HD
ENDROOT
BRANCH   1  16
ATOM     16  C   UNK d   1     -35.804 -67.992  50.121  0.00  0.00     0.018 A 
ATOM     17  C   UNK d   1     -35.977 -67.709  48.788  0.00  0.00     0.017 A 
ATOM     18  C   UNK d   1     -35.070 -66.980  48.018  0.00  0.00     0.025 A 
ATOM     19  C   UNK d   1     -33.936 -66.503  48.591  0.00  0.00     0.034 A 
ATOM     20 Cl   UNK d   1     -32.761 -65.573  47.649  0.00  0.00    -0.084 Cl
ATOM     21  C   UNK d   1     -33.704 -66.749  49.919  0.00  0.00     0.025 A 
ATOM     22  C   UNK d   1     -34.615 -67.472  50.661  0.00  0.00     0.017 A 
ENDBRANCH   1  16
BRANCH  11  23
ATOM     23  C   UNK d   1     -42.811 -65.251  53.114  0.00  0.00     0.095 C 
BRANCH  23  24
ATOM     24  C   UNK d   1     -43.730 -64.567  52.190  0.00  0.00     0.053 A 
ATOM     25  N   UNK d   1     -43.438 -63.840  51.109  0.00  0.00    -0.247 NA
ATOM     26  C   UNK d   1     -44.596 -63.390  50.543  0.00  0.00     0.207 A 
ATOM     27  N   UNK d   1     -45.625 -63.832  51.269  0.00  0.00    -0.359 N 
ATOM     28  C   UNK d   1     -45.123 -64.551  52.278  0.00  0.00     0.116 A 
ATOM     29  H   UNK d   1     -46.618 -63.655  51.092  0.00  0.00     0.166 HD
ENDBRANCH  23  24
ENDBRANCH  11  23
TORSDOF 3
ENDMDL
