/Users/jonathanwahrer/Desktop/Msc/3_Semester/Drug_Design_Praktikum/waehrer_HTS_screening/HTS_experiment/out/docking_results/vina_output/3e7o/1586_docked.pdbqt
 OpenBabel03192216323D

 29 32  0  0  1  0  0  0  0  0999 V2000
  -36.6690  -68.7610   50.9710 C   0  0  0  0  0  0  0  0  0  0  0  0
  -36.0190  -69.7110   51.6260 O   0  0  0  0  0  0  0  0  0  0  0  0
  -38.0490  -68.6860   51.2230 N   0  0  0  0  0  0  0  0  0  0  0  0
  -38.9350  -67.7630   50.6090 C   0  0  0  0  0  2  0  0  0  0  0  0
  -40.3810  -68.1450   50.9720 C   0  0  1  0  0  3  0  0  0  0  0  0
  -40.4390  -68.1070   52.4100 N   0  0  0  0  0  0  0  0  0  0  0  0
  -39.5820  -68.9920   53.1260 C   0  0  0  0  0  2  0  0  0  0  0  0
  -38.5670  -69.6380   52.2050 C   0  0  0  0  0  2  0  0  0  0  0  0
  -41.3100  -67.2280   53.0760 C   0  0  0  0  0  0  0  0  0  0  0  0
  -41.6250  -67.4710   54.2550 O   0  0  0  0  0  0  0  0  0  0  0  0
  -41.8210  -66.0460   52.3520 C   0  0  1  0  0  3  0  0  0  0  0  0
  -42.2640  -66.5040   51.0690 N   0  0  0  0  0  0  0  0  0  0  0  0
  -41.3710  -67.2990   50.3090 C   0  0  0  0  0  0  0  0  0  0  0  0
  -41.4010  -67.3040   49.0380 O   0  0  0  0  0  0  0  0  0  0  0  0
  -43.2110  -66.2710   50.6810 H   0  0  0  0  0  0  0  0  0  0  0  0
  -35.8040  -67.9920   50.1210 C   0  0  0  0  0  0  0  0  0  0  0  0
  -35.9770  -67.7090   48.7880 C   0  0  0  0  0  3  0  0  0  0  0  0
  -35.0700  -66.9800   48.0180 C   0  0  0  0  0  3  0  0  0  0  0  0
  -33.9360  -66.5030   48.5910 C   0  0  0  0  0  0  0  0  0  0  0  0
  -32.7610  -65.5730   47.6490 Cl  0  0  0  0  0  0  0  0  0  0  0  0
  -33.7040  -66.7490   49.9190 C   0  0  0  0  0  3  0  0  0  0  0  0
  -34.6150  -67.4720   50.6610 C   0  0  0  0  0  3  0  0  0  0  0  0
  -42.8110  -65.2510   53.1140 C   0  0  0  0  0  2  0  0  0  0  0  0
  -43.7300  -64.5670   52.1900 C   0  0  0  0  0  0  0  0  0  0  0  0
  -43.4380  -63.8400   51.1090 N   0  0  0  0  0  0  0  0  0  0  0  0
  -44.5960  -63.3900   50.5430 C   0  0  0  0  0  3  0  0  0  0  0  0
  -45.6250  -63.8320   51.2690 N   0  0  0  0  0  0  0  0  0  0  0  0
  -45.1230  -64.5510   52.2780 C   0  0  0  0  0  3  0  0  0  0  0  0
  -46.6180  -63.6550   51.0920 H   0  0  0  0  0  0  0  0  0  0  0  0
  1  3  1  0  0  0  0
  1  2  2  0  0  0  0
  3  8  1  0  0  0  0
  4  3  1  0  0  0  0
  5  4  1  1  0  0  0
  5  6  1  0  0  0  0
  6  9  1  0  0  0  0
  6  7  1  0  0  0  0
  8  7  1  0  0  0  0
  9 10  2  0  0  0  0
 11  9  1  0  0  0  0
 11 23  1  1  0  0  0
 12 11  1  0  0  0  0
 13  5  1  0  0  0  0
 13 12  1  0  0  0  0
 14 13  2  0  0  0  0
 15 12  1  0  0  0  0
 16 22  1  0  0  0  0
 16  1  1  0  0  0  0
 17 16  2  0  0  0  0
 18 19  2  0  0  0  0
 18 17  1  0  0  0  0
 19 21  1  0  0  0  0
 20 19  1  0  0  0  0
 21 22  2  0  0  0  0
 24 28  2  0  0  0  0
 24 23  1  0  0  0  0
 25 24  1  0  0  0  0
 26 25  2  0  0  0  0
 26 27  1  0  0  0  0
 27 28  1  0  0  0  0
 29 27  1  0  0  0  0
M  END
>  <Pose>
1

>  <Score>
-8.663

$$$$
