MODEL 1
REMARK VINA RESULT:    -7.383      0.000      0.000
REMARK INTER + INTRA:          -9.175
REMARK INTER:                  -8.678
REMARK INTRA:                  -0.498
REMARK UNBOUND:                -0.498
REMARK  3 active torsions:
REMARK  status: ('A' for Active; 'I' for Inactive)
REMARK    1  A    between atoms: C_3  and  N_15 
REMARK    2  A    between atoms: N_6  and  C_9 
REMARK    3  A    between atoms: N_18  and  C_21 
ROOT
ATOM      1 Cl   UNK d   1     -38.996 -64.047  49.868  0.00  0.00    -0.076 Cl
ATOM      2  C   UNK d   1     -39.816 -65.483  50.439  0.00  0.00     0.131 A 
ATOM      3  C   UNK d   1     -39.353 -66.722  50.100  0.00  0.00     0.077 A 
ATOM      4  C   UNK d   1     -40.096 -67.794  50.601  0.00  0.00     0.170 A 
ATOM      5  N   UNK d   1     -41.183 -67.583  51.360  0.00  0.00    -0.174 NA
ATOM      6  N   UNK d   1     -41.644 -66.400  51.699  0.00  0.00    -0.197 N 
ATOM      7  C   UNK d   1     -40.963 -65.342  51.240  0.00  0.00     0.292 A 
ATOM      8  O   UNK d   1     -41.326 -64.169  51.510  0.00  0.00    -0.264 OA
ENDROOT
BRANCH   3   9
ATOM      9  N   UNK d   1     -38.194 -66.935  49.317  0.00  0.00    -0.375 N 
ATOM     10  C   UNK d   1     -37.032 -67.658  49.809  0.00  0.00     0.143 C 
ATOM     11  C   UNK d   1     -35.814 -66.774  49.873  0.00  0.00     0.146 C 
ATOM     12  N   UNK d   1     -35.830 -65.956  48.685  0.00  0.00    -0.341 N 
ATOM     13  C   UNK d   1     -36.566 -66.437  47.544  0.00  0.00     0.146 C 
ATOM     14  C   UNK d   1     -38.054 -66.425  47.957  0.00  0.00     0.143 C 
BRANCH  12  15
ATOM     15  C   UNK d   1     -35.143 -64.719  48.635  0.00  0.00     0.270 A 
ATOM     16  N   UNK d   1     -35.678 -63.471  48.763  0.00  0.00    -0.103 NA
ATOM     17  N   UNK d   1     -34.717 -62.574  48.661  0.00  0.00    -0.126 NA
ATOM     18  C   UNK d   1     -33.575 -63.222  48.469  0.00  0.00     0.167 A 
ATOM     19  O   UNK d   1     -33.854 -64.499  48.458  0.00  0.00    -0.260 OA
ATOM     20  C   UNK d   1     -32.195 -62.665  48.292  0.00  0.00     0.102 C 
ENDBRANCH  12  15
ENDBRANCH   3   9
BRANCH   6  21
ATOM     21  C   UNK d   1     -42.807 -66.265  52.510  0.00  0.00     0.062 A 
ATOM     22  C   UNK d   1     -44.067 -66.066  51.981  0.00  0.00     0.032 A 
ATOM     23  C   UNK d   1     -45.185 -65.936  52.776  0.00  0.00     0.002 A 
ATOM     24  C   UNK d   1     -45.081 -66.001  54.151  0.00  0.00     0.000 A 
ATOM     25  C   UNK d   1     -43.826 -66.200  54.685  0.00  0.00     0.002 A 
ATOM     26  C   UNK d   1     -42.707 -66.330  53.885  0.00  0.00     0.032 A 
ENDBRANCH   6  21
TORSDOF 3
ENDMDL
