/Users/jonathanwahrer/Desktop/Msc/3_Semester/Drug_Design_Praktikum/waehrer_HTS_screening/HTS_experiment/out/docking_results/vina_output/3e7o/1594_docked.pdbqt
 OpenBabel03192216323D

 27 30  0  0  0  0  0  0  0  0999 V2000
  -42.2600  -67.4830   53.9420 C   0  0  0  0  0  0  0  0  0  0  0  0
  -42.7040  -68.3620   54.7690 O   0  0  0  0  0  0  0  0  0  0  0  0
  -42.9460  -66.2850   53.8860 N   0  0  0  0  0  0  0  0  0  0  0  0
  -42.5820  -65.1880   53.0230 C   0  0  0  0  0  2  0  0  0  0  0  0
  -43.6120  -64.9930   51.9310 C   0  0  0  0  0  2  0  0  0  0  0  0
  -44.9830  -65.2560   52.4870 C   0  0  0  0  0  0  0  0  0  0  0  0
  -45.2370  -65.7230   53.7480 C   0  0  0  0  0  0  0  0  0  0  0  0
  -46.5900  -65.8140   53.8340 N   0  0  0  0  0  0  0  0  0  0  0  0
  -47.1570  -65.4350   52.7110 N   0  0  0  0  0  0  0  0  0  0  0  0
  -46.2120  -65.0750   51.8340 C   0  0  0  0  0  0  0  0  0  0  0  0
  -46.3610  -64.6520   50.6430 O   0  0  0  0  0  0  0  0  0  0  0  0
  -44.1450  -66.0230   54.7180 C   0  0  0  0  0  2  0  0  0  0  0  0
  -47.0680  -66.1500   54.7040 H   0  0  0  0  0  0  0  0  0  0  0  0
  -41.0910  -67.8480   53.1600 C   0  0  0  0  0  0  0  0  0  0  0  0
  -40.1930  -68.8040   53.3980 N   0  0  0  0  0  0  0  0  0  0  0  0
  -39.2730  -68.8000   52.4200 C   0  0  0  0  0  0  0  0  0  0  0  0
  -39.5780  -67.8350   51.5460 N   0  0  0  0  0  0  0  0  0  0  0  0
  -38.1500  -69.6320   52.2650 C   0  0  0  0  0  3  0  0  0  0  0  0
  -38.7810  -67.6370   50.4600 C   0  0  0  0  0  3  0  0  0  0  0  0
  -40.6930  -67.2240   51.9670 C   0  0  0  0  0  3  0  0  0  0  0  0
  -37.6750  -68.4370   50.2830 C   0  0  0  0  0  0  0  0  0  0  0  0
  -36.6210  -68.2200   48.8990 Cl  0  0  0  0  0  0  0  0  0  0  0  0
  -37.3510  -69.4400   51.1810 C   0  0  0  0  0  3  0  0  0  0  0  0
  -48.5930  -65.3870   52.4000 C   0  0  0  0  0  2  0  0  0  0  0  0
  -49.2150  -64.1150   52.9280 C   0  0  0  0  0  2  0  0  0  0  0  0
  -48.3220  -63.3690   53.6890 O   0  0  0  0  0  0  0  0  0  0  0  0
  -48.0310  -62.5340   53.2160 H   0  0  0  0  0  0  0  0  0  0  0  0
  1  2  2  0  0  0  0
  3  1  1  0  0  0  0
  3 12  1  0  0  0  0
  4  3  1  0  0  0  0
  5  6  1  0  0  0  0
  5  4  1  0  0  0  0
  6  7  2  0  0  0  0
  7  8  1  0  0  0  0
  7 12  1  0  0  0  0
  8 13  1  0  0  0  0
  9  8  1  0  0  0  0
 10  6  1  0  0  0  0
 10  9  1  0  0  0  0
 11 10  2  0  0  0  0
 14 15  1  0  0  0  0
 14  1  1  0  0  0  0
 16 15  2  0  0  0  0
 17 20  1  0  0  0  0
 17 16  1  0  0  0  0
 18 16  1  0  0  0  0
 19 17  1  0  0  0  0
 20 14  2  0  0  0  0
 21 19  2  0  0  0  0
 21 23  1  0  0  0  0
 22 21  1  0  0  0  0
 23 18  2  0  0  0  0
 24  9  1  0  0  0  0
 24 25  1  0  0  0  0
 25 26  1  0  0  0  0
 27 26  1  0  0  0  0
M  END
>  <Pose>
1

>  <Score>
-8.105

$$$$
