MODEL 1
REMARK VINA RESULT:    -8.105      0.000      0.000
REMARK INTER + INTRA:          -9.794
REMARK INTER:                  -9.764
REMARK INTRA:                  -0.031
REMARK UNBOUND:                -0.031
REMARK  4 active torsions:
REMARK  status: ('A' for Active; 'I' for Inactive)
REMARK    1  A    between atoms: C_7  and  C_9 
REMARK       I    between atoms: C_9  and  N_11 
REMARK    2  A    between atoms: N_17  and  C_20 
REMARK    3  A    between atoms: C_20  and  C_21 
REMARK    4  A    between atoms: C_21  and  O_22 
ROOT
ATOM      1  C   UNK d   1     -42.260 -67.483  53.942  0.00  0.00     0.274 C 
ATOM      2  O   UNK d   1     -42.704 -68.362  54.769  0.00  0.00    -0.266 OA
ATOM      3  N   UNK d   1     -42.946 -66.285  53.886  0.00  0.00    -0.341 N 
ATOM      4  C   UNK d   1     -42.582 -65.188  53.023  0.00  0.00     0.131 C 
ATOM      5  C   UNK d   1     -43.612 -64.993  51.931  0.00  0.00     0.066 C 
ATOM      6  C   UNK d   1     -44.983 -65.256  52.487  0.00  0.00     0.039 A 
ATOM      7  C   UNK d   1     -45.237 -65.723  53.748  0.00  0.00     0.056 A 
ATOM      8  N   UNK d   1     -46.590 -65.814  53.834  0.00  0.00    -0.297 N 
ATOM      9  N   UNK d   1     -47.157 -65.435  52.711  0.00  0.00    -0.255 N 
ATOM     10  C   UNK d   1     -46.212 -65.075  51.834  0.00  0.00     0.270 A 
ATOM     11  O   UNK d   1     -46.361 -64.652  50.643  0.00  0.00    -0.266 OA
ATOM     12  C   UNK d   1     -44.145 -66.023  54.718  0.00  0.00     0.185 C 
ATOM     13  H   UNK d   1     -47.068 -66.150  54.704  0.00  0.00     0.187 HD
ENDROOT
BRANCH   1  14
ATOM     14  C   UNK d   1     -41.091 -67.848  53.160  0.00  0.00     0.142 A 
ATOM     15  N   UNK d   1     -40.193 -68.804  53.398  0.00  0.00    -0.224 NA
ATOM     16  C   UNK d   1     -39.273 -68.800  52.420  0.00  0.00     0.134 A 
ATOM     17  N   UNK d   1     -39.578 -67.835  51.546  0.00  0.00    -0.313 N 
ATOM     18  C   UNK d   1     -38.150 -69.632  52.265  0.00  0.00     0.052 A 
ATOM     19  C   UNK d   1     -38.781 -67.637  50.460  0.00  0.00     0.122 A 
ATOM     20  C   UNK d   1     -40.693 -67.224  51.967  0.00  0.00     0.135 A 
ATOM     21  C   UNK d   1     -37.675 -68.437  50.283  0.00  0.00     0.050 A 
ATOM     22 Cl   UNK d   1     -36.621 -68.220  48.899  0.00  0.00    -0.083 Cl
ATOM     23  C   UNK d   1     -37.351 -69.440  51.181  0.00  0.00     0.029 A 
ENDBRANCH   1  14
BRANCH   9  24
ATOM     24  C   UNK d   1     -48.593 -65.387  52.400  0.00  0.00     0.178 C 
BRANCH  24  25
ATOM     25  C   UNK d   1     -49.215 -64.115  52.928  0.00  0.00     0.186 C 
BRANCH  25  26
ATOM     26  O   UNK d   1     -48.322 -63.369  53.689  0.00  0.00    -0.399 OA
ATOM     27  H   UNK d   1     -48.031 -62.534  53.216  0.00  0.00     0.209 HD
ENDBRANCH  25  26
ENDBRANCH  24  25
ENDBRANCH   9  24
TORSDOF 4
ENDMDL
