MODEL 1
REMARK VINA RESULT:    -7.978      0.000      0.000
REMARK INTER + INTRA:         -10.490
REMARK INTER:                  -9.843
REMARK INTRA:                  -0.647
REMARK UNBOUND:                -0.647
REMARK  4 active torsions:
REMARK  status: ('A' for Active; 'I' for Inactive)
REMARK    1  A    between atoms: C_4  and  C_8 
REMARK    2  A    between atoms: C_8  and  C_9 
REMARK    3  A    between atoms: C_9  and  N_10 
REMARK       I    between atoms: N_17  and  C_19 
REMARK    4  A    between atoms: C_19  and  C_21 
ROOT
ATOM      1  N   UNK d   1     -37.899 -67.359  49.855  0.00  0.00    -0.319 N 
ATOM      2  C   UNK d   1     -37.522 -66.931  48.535  0.00  0.00     0.138 C 
ATOM      3  C   UNK d   1     -36.679 -68.100  48.068  0.00  0.00     0.176 C 
ATOM      4  O   UNK d   1     -35.909 -68.353  49.236  0.00  0.00    -0.295 OA
ATOM      5  C   UNK d   1     -36.842 -68.211  50.283  0.00  0.00     0.363 C 
ATOM      6  O   UNK d   1     -36.710 -68.778  51.414  0.00  0.00    -0.238 OA
ATOM      7  C   UNK d   1     -35.929 -67.441  46.969  0.00  0.00     0.161 C 
ATOM      8  N   UNK d   1     -35.417 -66.236  47.660  0.00  0.00    -0.342 N 
ATOM      9  C   UNK d   1     -36.425 -65.853  48.599  0.00  0.00     0.154 C 
ATOM     10  C   UNK d   1     -34.164 -65.706  47.337  0.00  0.00     0.272 C 
ATOM     11  O   UNK d   1     -33.437 -66.278  46.426  0.00  0.00    -0.266 OA
ENDROOT
BRANCH   1  12
ATOM     12  C   UNK d   1     -39.058 -67.054  50.662  0.00  0.00     0.133 C 
BRANCH  12  13
ATOM     13  C   UNK d   1     -39.929 -68.248  50.944  0.00  0.00     0.058 C 
BRANCH  13  14
ATOM     14  C   UNK d   1     -40.312 -68.337  52.372  0.00  0.00    -0.055 A 
ATOM     15  C   UNK d   1     -41.355 -67.562  52.881  0.00  0.00     0.031 A 
ATOM     16  C   UNK d   1     -41.722 -67.636  54.203  0.00  0.00     0.034 A 
ATOM     17 Cl   UNK d   1     -43.048 -66.636  54.801  0.00  0.00    -0.084 Cl
ATOM     18  C   UNK d   1     -41.083 -68.474  55.092  0.00  0.00     0.024 A 
ATOM     19  C   UNK d   1     -40.052 -69.242  54.595  0.00  0.00     0.002 A 
ATOM     20  C   UNK d   1     -39.675 -69.174  53.266  0.00  0.00     0.007 A 
ENDBRANCH  13  14
ENDBRANCH  12  13
ENDBRANCH   1  12
BRANCH  10  21
ATOM     21  C   UNK d   1     -33.549 -64.533  47.930  0.00  0.00     0.121 A 
ATOM     22  N   UNK d   1     -33.822 -63.231  47.641  0.00  0.00    -0.340 N 
ATOM     23  C   UNK d   1     -33.051 -62.457  48.402  0.00  0.00     0.209 A 
ATOM     24  C   UNK d   1     -34.787 -62.790  46.669  0.00  0.00     0.157 C 
ATOM     25  N   UNK d   1     -32.288 -63.232  49.175  0.00  0.00    -0.253 NA
ATOM     26  C   UNK d   1     -32.586 -64.520  48.895  0.00  0.00     0.153 A 
ENDBRANCH  10  21
TORSDOF 4
ENDMDL
