/Users/jonathanwahrer/Desktop/Msc/3_Semester/Drug_Design_Praktikum/waehrer_HTS_screening/HTS_experiment/out/docking_results/vina_output/3e7o/1609_docked.pdbqt
 OpenBabel03192216333D

 26 29  0  0  1  0  0  0  0  0999 V2000
  -37.8990  -67.3590   49.8550 N   0  0  0  0  0  0  0  0  0  0  0  0
  -37.5220  -66.9310   48.5350 C   0  0  2  0  0  3  0  0  0  0  0  0
  -36.6790  -68.1000   48.0680 C   0  0  2  0  0  3  0  0  0  0  0  0
  -35.9090  -68.3530   49.2360 O   0  0  0  0  0  0  0  0  0  0  0  0
  -36.8420  -68.2110   50.2830 C   0  0  0  0  0  0  0  0  0  0  0  0
  -36.7100  -68.7780   51.4140 O   0  0  0  0  0  0  0  0  0  0  0  0
  -35.9290  -67.4410   46.9690 C   0  0  0  0  0  2  0  0  0  0  0  0
  -35.4170  -66.2360   47.6600 N   0  0  0  0  0  0  0  0  0  0  0  0
  -36.4250  -65.8530   48.5990 C   0  0  0  0  0  2  0  0  0  0  0  0
  -34.1640  -65.7060   47.3370 C   0  0  0  0  0  0  0  0  0  0  0  0
  -33.4370  -66.2780   46.4260 O   0  0  0  0  0  0  0  0  0  0  0  0
  -39.0580  -67.0540   50.6620 C   0  0  0  0  0  2  0  0  0  0  0  0
  -39.9290  -68.2480   50.9440 C   0  0  0  0  0  2  0  0  0  0  0  0
  -40.3120  -68.3370   52.3720 C   0  0  0  0  0  0  0  0  0  0  0  0
  -41.3550  -67.5620   52.8810 C   0  0  0  0  0  3  0  0  0  0  0  0
  -41.7220  -67.6360   54.2030 C   0  0  0  0  0  0  0  0  0  0  0  0
  -43.0480  -66.6360   54.8010 Cl  0  0  0  0  0  0  0  0  0  0  0  0
  -41.0830  -68.4740   55.0920 C   0  0  0  0  0  3  0  0  0  0  0  0
  -40.0520  -69.2420   54.5950 C   0  0  0  0  0  3  0  0  0  0  0  0
  -39.6750  -69.1740   53.2660 C   0  0  0  0  0  3  0  0  0  0  0  0
  -33.5490  -64.5330   47.9300 C   0  0  0  0  0  0  0  0  0  0  0  0
  -33.8220  -63.2310   47.6410 N   0  0  0  0  0  0  0  0  0  0  0  0
  -33.0510  -62.4570   48.4020 C   0  0  0  0  0  3  0  0  0  0  0  0
  -34.7870  -62.7900   46.6690 C   0  0  0  0  0  1  0  0  0  0  0  0
  -32.2880  -63.2320   49.1750 N   0  0  0  0  0  0  0  0  0  0  0  0
  -32.5860  -64.5200   48.8950 C   0  0  0  0  0  3  0  0  0  0  0  0
  1  5  1  0  0  0  0
  1 12  1  0  0  0  0
  2  9  1  1  0  0  0
  2  1  1  0  0  0  0
  3  7  1  6  0  0  0
  3  2  1  0  0  0  0
  3  4  1  0  0  0  0
  4  5  1  0  0  0  0
  5  6  2  0  0  0  0
  7  8  1  0  0  0  0
  8  9  1  0  0  0  0
 10  8  1  0  0  0  0
 10 21  1  0  0  0  0
 11 10  2  0  0  0  0
 12 13  1  0  0  0  0
 13 14  1  0  0  0  0
 14 15  2  0  0  0  0
 14 20  1  0  0  0  0
 15 16  1  0  0  0  0
 16 17  1  0  0  0  0
 16 18  2  0  0  0  0
 19 18  1  0  0  0  0
 20 19  2  0  0  0  0
 21 26  2  0  0  0  0
 22 21  1  0  0  0  0
 22 23  1  0  0  0  0
 23 25  2  0  0  0  0
 24 22  1  0  0  0  0
 26 25  1  0  0  0  0
M  END
>  <Pose>
1

>  <Score>
-7.978

$$$$
