MODEL 1
REMARK VINA RESULT:    -8.055      0.000      0.000
REMARK INTER + INTRA:          -9.673
REMARK INTER:                  -8.996
REMARK INTRA:                  -0.676
REMARK UNBOUND:                -0.676
REMARK  2 active torsions:
REMARK  status: ('A' for Active; 'I' for Inactive)
REMARK    1  A    between atoms: C_3  and  C_13 
REMARK    2  A    between atoms: C_5  and  N_8 
REMARK       I    between atoms: C_13  and  N_15 
ROOT
ATOM      1  C   UNK d   1     -38.305 -66.471  48.463  0.00  0.00     0.255 C 
ATOM      2  O   UNK d   1     -38.933 -66.828  47.434  0.00  0.00    -0.267 OA
ATOM      3  N   UNK d   1     -37.080 -65.754  48.394  0.00  0.00    -0.348 N 
ATOM      4  C   UNK d   1     -36.541 -65.422  47.094  0.00  0.00     0.129 C 
ATOM      5  C   UNK d   1     -35.695 -64.175  47.272  0.00  0.00     0.061 C 
ATOM      6  C   UNK d   1     -36.280 -63.237  48.305  0.00  0.00     0.119 C 
ATOM      7  N   UNK d   1     -35.531 -62.004  48.233  0.00  0.00    -0.324 N 
ATOM      8  C   UNK d   1     -36.118 -61.183  47.235  0.00  0.00     0.325 C 
ATOM      9  O   UNK d   1     -35.594 -60.202  46.620  0.00  0.00    -0.247 OA
ATOM     10  N   UNK d   1     -37.445 -61.683  47.048  0.00  0.00    -0.272 N 
ATOM     11  C   UNK d   1     -37.645 -62.790  47.928  0.00  0.00     0.256 C 
ATOM     12  O   UNK d   1     -38.762 -63.257  48.281  0.00  0.00    -0.270 OA
ATOM     13  C   UNK d   1     -38.466 -61.181  46.125  0.00  0.00     0.164 C 
ATOM     14  C   UNK d   1     -36.276 -63.835  49.681  0.00  0.00     0.061 C 
ATOM     15  C   UNK d   1     -36.328 -65.326  49.552  0.00  0.00     0.129 C 
ATOM     16  H   UNK d   1     -34.706 -61.780  48.822  0.00  0.00     0.165 HD
ENDROOT
BRANCH   1  17
ATOM     17  C   UNK d   1     -38.909 -66.841  49.747  0.00  0.00     0.056 A 
ATOM     18  C   UNK d   1     -38.428 -67.916  50.461  0.00  0.00     0.050 A 
ATOM     19 Cl   UNK d   1     -37.071 -68.837  49.798  0.00  0.00    -0.083 Cl
ATOM     20  C   UNK d   1     -38.976 -68.288  51.672  0.00  0.00     0.027 A 
ATOM     21  C   UNK d   1     -40.029 -67.539  52.142  0.00  0.00     0.033 A 
ATOM     22  C   UNK d   1     -40.545 -66.449  51.458  0.00  0.00     0.059 A 
ATOM     23  C   UNK d   1     -39.965 -66.116  50.252  0.00  0.00     0.050 A 
BRANCH  22  24
ATOM     24  N   UNK d   1     -41.639 -65.714  52.002  0.00  0.00    -0.245 N 
ATOM     25  N   UNK d   1     -42.035 -64.499  51.709  0.00  0.00    -0.180 NA
ATOM     26  C   UNK d   1     -43.126 -64.177  52.464  0.00  0.00     0.140 A 
ATOM     27  C   UNK d   1     -43.420 -65.256  53.268  0.00  0.00     0.040 A 
ATOM     28  C   UNK d   1     -42.454 -66.214  52.948  0.00  0.00     0.120 A 
ENDBRANCH  22  24
ENDBRANCH   1  17
TORSDOF 2
ENDMDL
