/Users/jonathanwahrer/Desktop/Msc/3_Semester/Drug_Design_Praktikum/waehrer_HTS_screening/HTS_experiment/out/docking_results/vina_output/3e7o/1624_docked.pdbqt
 OpenBabel03192216333D

 32 35  0  0  1  0  0  0  0  0999 V2000
  -42.0910  -66.8350   51.2770 C   0  0  1  0  0  3  0  0  0  0  0  0
  -42.9980  -66.0080   52.0930 N   0  0  0  0  0  0  0  0  0  0  0  0
  -42.2990  -64.8320   52.4800 C   0  0  0  0  0  0  0  0  0  0  0  0
  -42.5600  -64.0820   53.4230 O   0  0  0  0  0  0  0  0  0  0  0  0
  -41.1810  -64.6570   51.5330 C   0  0  0  0  0  0  0  0  0  0  0  0
  -40.3040  -63.7340   51.5200 O   0  0  0  0  0  0  0  0  0  0  0  0
  -41.2770  -65.7700   50.6030 C   0  0  0  0  0  0  0  0  0  0  0  0
  -40.7100  -65.7940   49.4230 C   0  0  0  0  0  0  0  0  0  0  0  0
  -40.8500  -66.9470   48.6550 O   0  0  0  0  0  1  0  0  0  0  0  0
  -44.3490  -66.4240   52.3720 C   0  0  0  0  0  2  0  0  0  0  0  0
  -44.8540  -66.1180   53.7300 C   0  0  0  0  0  2  0  0  0  0  0  0
  -46.1720  -65.6230   53.8750 N   0  0  0  0  0  4  0  0  0  0  0  0
  -47.2000  -66.6350   53.7480 C   0  0  0  0  0  2  0  0  0  0  0  0
  -48.2300  -66.3240   52.6890 C   0  0  0  0  0  2  0  0  0  0  0  0
  -48.7500  -65.0570   52.7450 O   0  0  0  0  0  0  0  0  0  0  0  0
  -47.7920  -64.0700   52.8890 C   0  0  0  0  0  2  0  0  0  0  0  0
  -46.4280  -64.6800   52.7650 C   0  0  0  0  0  2  0  0  0  0  0  0
  -46.3080  -65.0480   54.7220 H   0  0  0  0  0  0  0  0  0  0  0  0
  -41.2970  -67.6960   52.1440 C   0  0  0  0  0  0  0  0  0  0  0  0
  -41.5440  -67.8430   53.4710 C   0  0  0  0  0  3  0  0  0  0  0  0
  -40.7960  -68.6670   54.2990 C   0  0  0  0  0  3  0  0  0  0  0  0
  -39.7540  -69.3730   53.7720 C   0  0  0  0  0  0  0  0  0  0  0  0
  -38.7760  -70.4270   54.7550 Cl  0  0  0  0  0  0  0  0  0  0  0  0
  -39.4740  -69.2440   52.4100 C   0  0  0  0  0  3  0  0  0  0  0  0
  -40.2310  -68.4200   51.6090 C   0  0  0  0  0  3  0  0  0  0  0  0
  -39.9370  -64.7130   48.8220 C   0  0  0  0  0  0  0  0  0  0  0  0
  -38.5560  -64.8050   48.9450 C   0  0  0  0  0  3  0  0  0  0  0  0
  -37.7670  -63.8400   48.3840 C   0  0  0  0  0  3  0  0  0  0  0  0
  -38.3160  -62.7740   47.6980 C   0  0  0  0  0  0  0  0  0  0  0  0
  -39.6860  -62.6880   47.5790 C   0  0  0  0  0  3  0  0  0  0  0  0
  -37.2750  -61.5750   47.0040 Cl  0  0  0  0  0  0  0  0  0  0  0  0
  -40.4720  -63.6680   48.1490 C   0  0  0  0  0  3  0  0  0  0  0  0
  1  2  1  0  0  0  0
  1 19  1  1  0  0  0
  2 10  1  0  0  0  0
  2  3  1  0  0  0  0
  3  4  2  0  0  0  0
  5  3  1  0  0  0  0
  6  5  2  0  0  0  0
  7  1  1  0  0  0  0
  7  5  1  0  0  0  0
  8  7  2  0  0  0  0
  9  8  1  0  0  0  0
 10 11  1  0  0  0  0
 11 12  1  0  0  0  0
 12 18  1  0  0  0  0
 13 12  1  0  0  0  0
 14 15  1  0  0  0  0
 14 13  1  0  0  0  0
 15 16  1  0  0  0  0
 17 16  1  0  0  0  0
 17 12  1  0  0  0  0
 19 20  1  0  0  0  0
 20 21  2  0  0  0  0
 22 21  1  0  0  0  0
 22 23  1  0  0  0  0
 24 22  2  0  0  0  0
 25 19  2  0  0  0  0
 25 24  1  0  0  0  0
 26 27  1  0  0  0  0
 26  8  1  0  0  0  0
 28 27  2  0  0  0  0
 29 28  1  0  0  0  0
 30 29  2  0  0  0  0
 30 32  1  0  0  0  0
 31 29  1  0  0  0  0
 32 26  2  0  0  0  0
M  END
>  <Pose>
1

>  <Score>
-8.329

$$$$
