MODEL 1
REMARK VINA RESULT:    -7.595      0.000      0.000
REMARK INTER + INTRA:         -11.859
REMARK INTER:                 -10.259
REMARK INTRA:                  -1.600
REMARK UNBOUND:                -1.600
REMARK  6 active torsions:
REMARK  status: ('A' for Active; 'I' for Inactive)
REMARK    1  A    between atoms: C_10  and  C_27 
REMARK    2  A    between atoms: N_15  and  C_18 
REMARK    3  A    between atoms: C_18  and  C_19 
REMARK    4  A    between atoms: C_20  and  O_25 
REMARK    5  A    between atoms: C_27  and  C_28 
REMARK    6  A    between atoms: C_28  and  C_29 
REMARK       I    between atoms: C_29  and  N_31 
ROOT
ATOM      1 Cl   UNK d   1     -41.250 -67.354  50.080  0.00  0.00    -0.084 Cl
ATOM      2  C   UNK d   1     -39.508 -67.157  49.828  0.00  0.00     0.042 A 
ATOM      3  C   UNK d   1     -38.619 -67.910  50.555  0.00  0.00    -0.013 A 
ATOM      4  C   UNK d   1     -37.252 -67.758  50.359  0.00  0.00     0.051 A 
ATOM      5  C   UNK d   1     -36.717 -66.878  49.458  0.00  0.00     0.018 A 
ATOM      6  C   UNK d   1     -37.649 -66.124  48.728  0.00  0.00     0.014 A 
ATOM      7  C   UNK d   1     -39.006 -66.266  48.915  0.00  0.00     0.025 A 
ATOM      8  C   UNK d   1     -35.266 -66.963  49.500  0.00  0.00     0.279 A 
ATOM      9  N   UNK d   1     -34.806 -67.420  48.191  0.00  0.00     0.113 N 
ATOM     10  C   UNK d   1     -34.298 -66.218  47.588  0.00  0.00     0.237 C 
ATOM     11  C   UNK d   1     -33.523 -65.599  48.728  0.00  0.00     0.128 C 
ATOM     12  C   UNK d   1     -34.544 -65.706  49.840  0.00  0.00     0.147 C 
ATOM     13  C   UNK d   1     -35.292 -64.467  49.769  0.00  0.00     0.235 C 
ATOM     14  O   UNK d   1     -36.398 -64.228  50.302  0.00  0.00    -0.272 OA
ATOM     15  N   UNK d   1     -34.568 -63.531  48.983  0.00  0.00    -0.283 N 
ATOM     16  C   UNK d   1     -33.351 -64.136  48.542  0.00  0.00     0.234 C 
ATOM     17  O   UNK d   1     -32.312 -63.605  48.082  0.00  0.00    -0.272 OA
ATOM     18  C   UNK d   1     -34.971 -67.998  50.519  0.00  0.00     0.267 A 
ATOM     19  O   UNK d   1     -33.836 -68.418  50.894  0.00  0.00    -0.270 OA
ATOM     20  N   UNK d   1     -36.206 -68.456  51.023  0.00  0.00    -0.323 N 
ATOM     21  C   UNK d   1     -39.152 -68.881  51.549  0.00  0.00     0.052 C 
ATOM     22  H   UNK d   1     -35.597 -67.863  47.677  0.00  0.00     0.318 HD
ATOM     23  H   UNK d   1     -36.315 -69.195  51.768  0.00  0.00     0.169 HD
ENDROOT
BRANCH  10  24
ATOM     24  C   UNK d   1     -33.413 -66.527  46.400  0.00  0.00     0.045 C 
BRANCH  24  25
ATOM     25  C   UNK d   1     -32.262 -67.363  46.919  0.00  0.00     0.105 C 
BRANCH  25  26
ATOM     26  C   UNK d   1     -31.853 -68.403  45.943  0.00  0.00     0.215 C 
ATOM     27  O   UNK d   1     -31.785 -69.609  46.313  0.00  0.00    -0.274 OA
ATOM     28  N   UNK d   1     -31.556 -67.975  44.621  0.00  0.00    -0.370 N 
ATOM     29  H   UNK d   1     -32.125 -67.214  44.213  0.00  0.00     0.159 HD
ATOM     30  H   UNK d   1     -30.766 -68.463  44.127  0.00  0.00     0.159 HD
ENDBRANCH  25  26
ENDBRANCH  24  25
ENDBRANCH  10  24
BRANCH  15  31
ATOM     31  C   UNK d   1     -34.923 -62.168  48.636  0.00  0.00     0.176 C 
BRANCH  31  32
ATOM     32  C   UNK d   1     -35.849 -62.108  47.491  0.00  0.00    -0.006 A 
ATOM     33  C   UNK d   1     -35.325 -61.804  46.253  0.00  0.00     0.076 A 
ATOM     34  C   UNK d   1     -36.202 -61.748  45.178  0.00  0.00     0.037 A 
ATOM     35  C   UNK d   1     -37.539 -61.986  45.334  0.00  0.00     0.003 A 
ATOM     36  C   UNK d   1     -38.023 -62.288  46.585  0.00  0.00     0.001 A 
ATOM     37  C   UNK d   1     -37.204 -62.357  47.690  0.00  0.00     0.011 A 
BRANCH  33  38
ATOM     38  O   UNK d   1     -33.973 -61.568  46.120  0.00  0.00    -0.355 OA
ATOM     39  C   UNK d   1     -33.185 -62.011  45.060  0.00  0.00     0.210 C 
ENDBRANCH  33  38
ENDBRANCH  31  32
ENDBRANCH  15  31
TORSDOF 6
ENDMDL
