MODEL 1
REMARK VINA RESULT:    -8.984      0.000      0.000
REMARK INTER + INTRA:         -10.985
REMARK INTER:                 -10.560
REMARK INTRA:                  -0.425
REMARK UNBOUND:                -0.425
REMARK  3 active torsions:
REMARK  status: ('A' for Active; 'I' for Inactive)
REMARK    1  A    between atoms: C_4  and  C_8 
REMARK    2  A    between atoms: N_9  and  C_23 
REMARK    3  A    between atoms: C_15  and  C_17 
ROOT
ATOM      1  C   UNK d   1     -42.094 -66.837  51.612  0.00  0.00     0.185 C 
ATOM      2  N   UNK d   1     -43.096 -65.915  52.068  0.00  0.00    -0.128 N 
ATOM      3  C   UNK d   1     -42.552 -64.605  52.193  0.00  0.00     0.314 C 
ATOM      4  O   UNK d   1     -43.051 -63.623  52.816  0.00  0.00    -0.263 OA
ATOM      5  C   UNK d   1     -41.272 -64.580  51.455  0.00  0.00     0.251 C 
ATOM      6  O   UNK d   1     -40.518 -63.585  51.355  0.00  0.00    -0.282 OA
ATOM      7  C   UNK d   1     -41.124 -65.924  50.913  0.00  0.00     0.063 C 
ATOM      8  C   UNK d   1     -40.245 -66.249  49.988  0.00  0.00     0.130 C 
ATOM      9  O   UNK d   1     -40.192 -67.605  49.605  0.00  0.00    -0.190 OA
ENDROOT
BRANCH   1  10
ATOM     10  C   UNK d   1     -41.441 -67.601  52.704  0.00  0.00    -0.028 A 
ATOM     11  C   UNK d   1     -40.625 -68.694  52.443  0.00  0.00     0.033 A 
ATOM     12  C   UNK d   1     -40.001 -69.428  53.424  0.00  0.00     0.034 A 
ATOM     13 Cl   UNK d   1     -38.977 -70.799  53.057  0.00  0.00    -0.084 Cl
ATOM     14  C   UNK d   1     -40.203 -69.052  54.734  0.00  0.00     0.024 A 
ATOM     15  C   UNK d   1     -41.005 -67.974  55.043  0.00  0.00     0.002 A 
ATOM     16  C   UNK d   1     -41.617 -67.256  54.041  0.00  0.00     0.010 A 
ENDBRANCH   1  10
BRANCH   8  17
ATOM     17  C   UNK d   1     -39.342 -65.307  49.343  0.00  0.00     0.001 A 
ATOM     18  C   UNK d   1     -38.029 -65.171  49.818  0.00  0.00     0.014 A 
ATOM     19  C   UNK d   1     -37.144 -64.309  49.209  0.00  0.00     0.001 A 
ATOM     20  C   UNK d   1     -37.494 -63.545  48.115  0.00  0.00     0.000 A 
ATOM     21  C   UNK d   1     -38.777 -63.665  47.632  0.00  0.00     0.001 A 
ATOM     22  C   UNK d   1     -39.673 -64.538  48.251  0.00  0.00     0.014 A 
ENDBRANCH   8  17
BRANCH   2  23
ATOM     23  C   UNK d   1     -44.437 -66.245  52.360  0.00  0.00     0.710 A 
ATOM     24  N   UNK d   1     -45.381 -65.607  51.618  0.00  0.00    -0.200 N 
ATOM     25  C   UNK d   1     -46.682 -65.831  51.796  0.00  0.00     0.107 A 
ATOM     26  H   UNK d   1     -45.101 -64.911  50.873  0.00  0.00     0.183 HD
ATOM     27  C   UNK d   1     -47.058 -66.739  52.760  0.00  0.00     0.037 A 
ATOM     28  C   UNK d   1     -46.083 -67.375  53.499  0.00  0.00     0.138 A 
ATOM     29  N   UNK d   1     -44.772 -67.141  53.314  0.00  0.00    -0.077 NA
ENDBRANCH   2  23
TORSDOF 3
ENDMDL
