MODEL 1
REMARK VINA RESULT:    -7.843      0.000      0.000
REMARK INTER + INTRA:         -11.834
REMARK INTER:                 -10.824
REMARK INTRA:                  -1.011
REMARK UNBOUND:                -1.011
REMARK  7 active torsions:
REMARK  status: ('A' for Active; 'I' for Inactive)
REMARK    1  A    between atoms: S_1  and  C_4 
REMARK    2  A    between atoms: S_1  and  C_26 
REMARK    3  A    between atoms: C_5  and  N_25 
REMARK    4  A    between atoms: C_7  and  N_10 
REMARK    5  A    between atoms: C_13  and  N_16 
REMARK    6  A    between atoms: C_13  and  C_22 
REMARK       I    between atoms: C_22  and  N_24 
REMARK    7  A    between atoms: C_27  and  O_33 
ROOT
ATOM      1  C   UNK d   1     -39.550 -65.840  49.350  0.00  0.00     0.128 A 
ATOM      2  C   UNK d   1     -39.062 -64.628  49.820  0.00  0.00     0.164 A 
ATOM      3  N   UNK d   1     -38.067 -63.994  49.144  0.00  0.00    -0.044 NA
ATOM      4  C   UNK d   1     -37.522 -64.489  48.024  0.00  0.00     0.726 A 
ATOM      5  N   UNK d   1     -37.990 -65.662  47.563  0.00  0.00    -0.073 NA
ATOM      6  C   UNK d   1     -38.972 -66.326  48.197  0.00  0.00     0.164 A 
ENDROOT
BRANCH   4   7
ATOM      7  N   UNK d   1     -36.482 -63.821  47.314  0.00  0.00    -0.214 N 
ATOM      8  C   UNK d   1     -36.116 -62.454  47.592  0.00  0.00     0.144 C 
ATOM      9  C   UNK d   1     -34.658 -62.253  47.901  0.00  0.00     0.072 C 
ATOM     10  C   UNK d   1     -33.788 -63.342  47.294  0.00  0.00     0.241 C 
ATOM     11  C   UNK d   1     -34.512 -63.692  45.983  0.00  0.00     0.072 C 
ATOM     12  C   UNK d   1     -35.739 -64.494  46.263  0.00  0.00     0.144 C 
BRANCH  10  13
ATOM     13  N   UNK d   1     -33.658 -64.488  48.059  0.00  0.00     0.107 N 
ATOM     14  C   UNK d   1     -33.552 -64.442  49.465  0.00  0.00     0.274 C 
ATOM     15  C   UNK d   1     -34.215 -65.717  50.014  0.00  0.00     0.030 C 
ATOM     16  C   UNK d   1     -34.188 -66.757  48.926  0.00  0.00     0.003 C 
ATOM     17  C   UNK d   1     -32.900 -66.743  48.144  0.00  0.00     0.030 C 
ATOM     18  C   UNK d   1     -32.614 -65.358  47.589  0.00  0.00     0.274 C 
ENDBRANCH  10  13
BRANCH  10  19
ATOM     19  C   UNK d   1     -32.506 -62.721  46.889  0.00  0.00     0.255 C 
ATOM     20  O   UNK d   1     -32.205 -62.593  45.655  0.00  0.00    -0.271 OA
ATOM     21  N   UNK d   1     -31.558 -62.244  47.801  0.00  0.00    -0.368 N 
ATOM     22  H   UNK d   1     -30.682 -62.813  47.954  0.00  0.00     0.159 HD
ATOM     23  H   UNK d   1     -31.615 -61.366  48.356  0.00  0.00     0.159 HD
ENDBRANCH  10  19
ENDBRANCH   4   7
BRANCH   2  24
ATOM     24  N   UNK d   1     -39.637 -64.112  50.996  0.00  0.00    -0.382 N 
ATOM     25  H   UNK d   1     -39.151 -63.448  51.633  0.00  0.00     0.157 HD
ATOM     26  H   UNK d   1     -40.603 -64.401  51.256  0.00  0.00     0.157 HD
ENDBRANCH   2  24
BRANCH   1  27
ATOM     27  S   UNK d   1     -40.832 -66.692  50.185  0.00  0.00     0.214 S 
ATOM     28  O   UNK d   1     -41.758 -65.751  50.885  0.00  0.00    -0.217 OA
ATOM     29  O   UNK d   1     -41.553 -67.536  49.164  0.00  0.00    -0.217 OA
BRANCH  27  30
ATOM     30  C   UNK d   1     -40.078 -67.790  51.350  0.00  0.00     0.099 A 
ATOM     31  C   UNK d   1     -40.742 -68.126  52.512  0.00  0.00     0.090 A 
ATOM     32  C   UNK d   1     -40.116 -68.985  53.391  0.00  0.00     0.040 A 
ATOM     33  C   UNK d   1     -38.853 -69.505  53.129  0.00  0.00     0.026 A 
ATOM     34  C   UNK d   1     -38.222 -69.146  51.957  0.00  0.00     0.035 A 
ATOM     35  C   UNK d   1     -38.823 -68.288  51.058  0.00  0.00     0.050 A 
ATOM     36 Cl   UNK d   1     -36.616 -69.798  51.607  0.00  0.00    -0.084 Cl
BRANCH  31  37
ATOM     37  O   UNK d   1     -41.981 -67.594  52.736  0.00  0.00    -0.354 OA
ATOM     38  C   UNK d   1     -42.625 -67.530  53.978  0.00  0.00     0.210 C 
ENDBRANCH  31  37
ENDBRANCH  27  30
ENDBRANCH   1  27
TORSDOF 7
ENDMDL
