MODEL 1
REMARK VINA RESULT:    -7.457      0.000      0.000
REMARK INTER + INTRA:          -7.457
REMARK INTER:                  -7.457
REMARK INTRA:                   0.000
REMARK UNBOUND:                 0.000
REMARK  0 active torsions:
REMARK  status: ('A' for Active; 'I' for Inactive)
ROOT
ATOM      1 Cl   UNK d   1     -34.427 -69.943  52.009  0.00  0.00    -0.084 Cl
ATOM      2  C   UNK d   1     -35.808 -69.093  51.310  0.00  0.00     0.034 A 
ATOM      3  C   UNK d   1     -35.644 -68.029  50.457  0.00  0.00     0.034 A 
ATOM      4  C   UNK d   1     -36.757 -67.369  49.914  0.00  0.00    -0.006 A 
ATOM      5  C   UNK d   1     -38.032 -67.759  50.213  0.00  0.00     0.044 A 
ATOM      6  C   UNK d   1     -38.208 -68.848  51.086  0.00  0.00     0.032 A 
ATOM      7  C   UNK d   1     -37.097 -69.471  51.599  0.00  0.00     0.026 A 
ATOM      8  N   UNK d   1     -39.004 -66.960  49.559  0.00  0.00    -0.321 N 
ATOM      9  C   UNK d   1     -38.289 -66.002  48.798  0.00  0.00     0.242 A 
ATOM     10  O   UNK d   1     -38.842 -65.118  48.080  0.00  0.00    -0.271 OA
ATOM     11  C   UNK d   1     -36.837 -66.216  48.985  0.00  0.00     0.111 A 
ATOM     12  C   UNK d   1     -36.289 -64.954  49.618  0.00  0.00     0.132 C 
ATOM     13  C   UNK d   1     -36.335 -63.920  48.530  0.00  0.00     0.225 C 
ATOM     14  O   UNK d   1     -36.896 -62.816  48.661  0.00  0.00    -0.273 OA
ATOM     15  N   UNK d   1     -35.688 -64.268  47.300  0.00  0.00    -0.311 N 
ATOM     16  C   UNK d   1     -35.612 -65.634  46.913  0.00  0.00     0.133 A 
ATOM     17  N   UNK d   1     -35.069 -66.262  45.835  0.00  0.00    -0.262 N 
ATOM     18  N   UNK d   1     -35.269 -67.550  45.968  0.00  0.00    -0.185 NA
ATOM     19  C   UNK d   1     -35.931 -67.821  47.104  0.00  0.00     0.151 A 
ATOM     20  C   UNK d   1     -36.162 -66.589  47.729  0.00  0.00     0.030 A 
ATOM     21  C   UNK d   1     -40.459 -67.111  49.664  0.00  0.00     0.159 C 
ATOM     22  H   UNK d   1     -35.273 -63.536  46.683  0.00  0.00     0.170 HD
ATOM     23  H   UNK d   1     -34.585 -65.749  45.061  0.00  0.00     0.191 HD
ENDROOT
TORSDOF 0
ENDMDL
