MODEL 1
REMARK VINA RESULT:    -7.264      0.000      0.000
REMARK INTER + INTRA:          -8.509
REMARK INTER:                  -8.113
REMARK INTRA:                  -0.396
REMARK UNBOUND:                -0.396
REMARK  2 active torsions:
REMARK  status: ('A' for Active; 'I' for Inactive)
REMARK    1  A    between atoms: N_15  and  C_20 
REMARK       I    between atoms: C_21  and  N_23 
REMARK    2  A    between atoms: N_26  and  C_29 
ROOT
ATOM      1 Cl   UNK d   1     -41.590 -68.015  54.501  0.00  0.00    -0.084 Cl
ATOM      2  C   UNK d   1     -40.892 -67.559  52.942  0.00  0.00     0.035 A 
ATOM      3  C   UNK d   1     -41.341 -66.433  52.284  0.00  0.00     0.043 A 
ATOM      4  C   UNK d   1     -40.801 -66.085  51.089  0.00  0.00     0.060 A 
ATOM      5  C   UNK d   1     -39.788 -66.864  50.513  0.00  0.00     0.045 A 
ATOM      6  C   UNK d   1     -39.357 -67.981  51.187  0.00  0.00     0.032 A 
ATOM      7  C   UNK d   1     -39.897 -68.352  52.411  0.00  0.00     0.026 A 
ATOM      8  N   UNK d   1     -39.216 -66.504  49.260  0.00  0.00    -0.363 N 
ATOM      9  C   UNK d   1     -39.233 -65.106  48.854  0.00  0.00     0.108 C 
ATOM     10  N   UNK d   1     -40.581 -64.635  49.073  0.00  0.00    -0.330 N 
ATOM     11  C   UNK d   1     -41.207 -64.914  50.315  0.00  0.00     0.255 C 
ATOM     12  O   UNK d   1     -42.115 -64.193  50.804  0.00  0.00    -0.268 OA
ATOM     13  C   UNK d   1     -38.889 -65.031  47.405  0.00  0.00     0.074 C 
ATOM     14  C   UNK d   1     -37.402 -64.967  47.143  0.00  0.00     0.130 C 
ATOM     15  N   UNK d   1     -36.674 -65.967  47.896  0.00  0.00    -0.344 N 
ATOM     16  C   UNK d   1     -36.668 -66.015  49.344  0.00  0.00     0.220 C 
ATOM     17  O   UNK d   1     -36.111 -67.021  49.841  0.00  0.00    -0.273 OA
ATOM     18  C   UNK d   1     -37.216 -65.065  50.326  0.00  0.00     0.107 C 
ATOM     19  C   UNK d   1     -38.342 -64.264  49.744  0.00  0.00     0.063 C 
ATOM     20  H   UNK d   1     -38.808 -67.272  48.688  0.00  0.00     0.162 HD
ATOM     21  H   UNK d   1     -41.119 -64.099  48.365  0.00  0.00     0.165 HD
ENDROOT
BRANCH  15  22
ATOM     22  C   UNK d   1     -35.943 -66.976  47.246  0.00  0.00     0.212 C 
ATOM     23  C   UNK d   1     -34.510 -66.902  47.072  0.00  0.00     0.171 C 
ATOM     24  O   UNK d   1     -34.044 -67.991  46.458  0.00  0.00    -0.175 OA
ATOM     25  N   UNK d   1     -33.604 -65.927  47.424  0.00  0.00    -0.359 N 
ATOM     26  C   UNK d   1     -32.169 -66.145  47.107  0.00  0.00     0.144 C 
ATOM     27  C   UNK d   1     -33.873 -64.693  48.051  0.00  0.00     0.144 C 
ATOM     28  C   UNK d   1     -31.711 -64.802  46.516  0.00  0.00     0.137 C 
ATOM     29  N   UNK d   1     -32.813 -64.048  46.020  0.00  0.00    -0.406 N 
ATOM     30  C   UNK d   1     -33.724 -63.550  47.007  0.00  0.00     0.137 C 
BRANCH  29  31
ATOM     31  C   UNK d   1     -32.528 -63.142  44.960  0.00  0.00     0.071 C 
ATOM     32  C   UNK d   1     -32.314 -63.818  43.621  0.00  0.00     0.031 C 
ATOM     33  C   UNK d   1     -33.555 -62.054  44.804  0.00  0.00     0.031 C 
ENDBRANCH  29  31
ENDBRANCH  15  22
TORSDOF 2
ENDMDL
