MODEL 1
REMARK VINA RESULT:    -8.020      0.000      0.000
REMARK INTER + INTRA:         -12.059
REMARK INTER:                 -10.364
REMARK INTRA:                  -1.695
REMARK UNBOUND:                -1.695
REMARK  5 active torsions:
REMARK  status: ('A' for Active; 'I' for Inactive)
REMARK    1  A    between atoms: S_1  and  N_4 
REMARK    2  A    between atoms: S_1  and  C_24 
REMARK    3  A    between atoms: N_7  and  C_10 
REMARK    4  A    between atoms: C_10  and  C_11 
REMARK    5  A    between atoms: C_11  and  N_12 
ROOT
ATOM      1  N   UNK d   1     -34.291 -62.693  47.644  0.00  0.00    -0.303 N 
ATOM      2  C   UNK d   1     -34.879 -62.847  46.339  0.00  0.00     0.165 C 
ATOM      3  C   UNK d   1     -36.341 -62.464  46.338  0.00  0.00     0.293 C 
ATOM      4  N   UNK d   1     -37.068 -63.231  47.381  0.00  0.00     0.093 N 
ATOM      5  C   UNK d   1     -36.534 -62.825  48.674  0.00  0.00     0.293 C 
ATOM      6  C   UNK d   1     -35.206 -62.096  48.568  0.00  0.00     0.165 C 
ENDROOT
BRANCH   4   7
ATOM      7  C   UNK d   1     -38.434 -62.772  47.256  0.00  0.00     0.293 C 
BRANCH   7   8
ATOM      8  C   UNK d   1     -39.500 -63.782  47.232  0.00  0.00     0.165 C 
BRANCH   8   9
ATOM      9  N   UNK d   1     -39.631 -64.701  48.311  0.00  0.00    -0.286 N 
ATOM     10  C   UNK d   1     -39.291 -66.080  48.404  0.00  0.00     0.232 C 
ATOM     11  O   UNK d   1     -39.218 -66.866  47.448  0.00  0.00    -0.272 OA
ATOM     12  C   UNK d   1     -39.042 -66.416  49.827  0.00  0.00     0.100 C 
ATOM     13  C   UNK d   1     -39.981 -65.403  50.520  0.00  0.00     0.100 C 
ATOM     14  C   UNK d   1     -39.716 -67.693  50.180  0.00  0.00     0.022 C 
ATOM     15  C   UNK d   1     -41.211 -66.161  50.850  0.00  0.00     0.022 C 
ATOM     16  C   UNK d   1     -40.136 -64.285  49.600  0.00  0.00     0.232 C 
ATOM     17  C   UNK d   1     -41.165 -67.312  49.830  0.00  0.00     0.018 C 
ATOM     18  C   UNK d   1     -40.882 -66.994  52.072  0.00  0.00    -0.025 C 
ATOM     19  C   UNK d   1     -39.835 -67.719  51.676  0.00  0.00    -0.025 C 
ATOM     20  O   UNK d   1     -40.626 -63.170  49.906  0.00  0.00    -0.272 OA
ENDBRANCH   8   9
ENDBRANCH   7   8
ENDBRANCH   4   7
BRANCH   1  21
ATOM     21  S   UNK d   1     -33.333 -63.957  48.195  0.00  0.00     0.260 S 
ATOM     22  O   UNK d   1     -32.405 -64.371  47.060  0.00  0.00    -0.200 OA
ATOM     23  O   UNK d   1     -32.385 -63.392  49.253  0.00  0.00    -0.200 OA
BRANCH  21  24
ATOM     24  C   UNK d   1     -34.131 -65.308  48.894  0.00  0.00     0.079 A 
ATOM     25  C   UNK d   1     -35.030 -66.049  48.166  0.00  0.00     0.026 A 
ATOM     26  C   UNK d   1     -35.645 -67.136  48.760  0.00  0.00     0.020 A 
ATOM     27  C   UNK d   1     -35.392 -67.512  50.067  0.00  0.00     0.011 A 
ATOM     28  C   UNK d   1     -34.489 -66.765  50.793  0.00  0.00     0.020 A 
ATOM     29 Br   UNK d   1     -36.241 -69.009  50.887  0.00  0.00    -0.051 Br
ATOM     30  C   UNK d   1     -33.871 -65.672  50.196  0.00  0.00     0.026 A 
ENDBRANCH  21  24
ENDBRANCH   1  21
TORSDOF 5
ENDMDL
