MODEL 1
REMARK VINA RESULT:    -7.226      0.000      0.000
REMARK INTER + INTRA:         -12.212
REMARK INTER:                 -10.183
REMARK INTRA:                  -2.029
REMARK UNBOUND:                -2.029
REMARK  7 active torsions:
REMARK  status: ('A' for Active; 'I' for Inactive)
REMARK    1  A    between atoms: C_5  and  C_8 
REMARK    2  A    between atoms: C_8  and  C_10 
REMARK    3  A    between atoms: N_12  and  C_17 
REMARK    4  A    between atoms: C_17  and  C_18 
REMARK    5  A    between atoms: C_18  and  N_19 
REMARK    6  A    between atoms: C_27  and  O_32 
REMARK    7  A    between atoms: O_32  and  C_33 
ROOT
ATOM      1  C   UNK d   1     -40.444 -64.822  48.765  0.00  0.00     0.167 C 
ATOM      2  C   UNK d   1     -39.166 -64.415  48.082  0.00  0.00     0.140 C 
ATOM      3  N   UNK d   1     -39.192 -63.026  47.958  0.00  0.00    -0.334 N 
ATOM      4  C   UNK d   1     -40.610 -62.781  47.601  0.00  0.00     0.291 C 
ATOM      5  O   UNK d   1     -41.059 -61.870  46.854  0.00  0.00    -0.264 OA
ATOM      6  C   UNK d   1     -41.396 -63.796  48.285  0.00  0.00     0.230 C 
ATOM      7  O   UNK d   1     -42.652 -63.782  48.427  0.00  0.00    -0.286 OA
ATOM      8  C   UNK d   1     -38.013 -65.232  48.365  0.00  0.00    -0.031 A 
ATOM      9  C   UNK d   1     -36.959 -64.874  49.146  0.00  0.00     0.049 A 
ATOM     10  C   UNK d   1     -35.904 -65.744  49.372  0.00  0.00     0.105 A 
ATOM     11  C   UNK d   1     -35.927 -67.016  48.780  0.00  0.00     0.140 A 
ATOM     12  C   UNK d   1     -36.986 -67.374  47.996  0.00  0.00     0.043 A 
ATOM     13  C   UNK d   1     -38.022 -66.520  47.776  0.00  0.00     0.012 A 
ATOM     14  O   UNK d   1     -34.901 -67.920  48.972  0.00  0.00    -0.189 OA
ENDROOT
BRANCH   1  15
ATOM     15  C   UNK d   1     -40.383 -64.846  50.226  0.00  0.00     0.173 C 
ATOM     16  O   UNK d   1     -40.419 -63.744  50.876  0.00  0.00    -0.291 OA
BRANCH  15  17
ATOM     17  C   UNK d   1     -40.283 -66.037  51.057  0.00  0.00     0.011 A 
ATOM     18  C   UNK d   1     -40.778 -66.074  52.341  0.00  0.00     0.016 A 
ATOM     19  C   UNK d   1     -40.613 -67.242  53.078  0.00  0.00     0.020 A 
ATOM     20  C   UNK d   1     -39.985 -68.361  52.597  0.00  0.00     0.011 A 
ATOM     21 Br   UNK d   1     -39.795 -69.946  53.678  0.00  0.00    -0.051 Br
ATOM     22  C   UNK d   1     -39.488 -68.329  51.311  0.00  0.00     0.020 A 
ATOM     23  C   UNK d   1     -39.650 -67.175  50.581  0.00  0.00     0.016 A 
ENDBRANCH  15  17
ENDBRANCH   1  15
BRANCH   3  24
ATOM     24  C   UNK d   1     -38.335 -61.882  47.940  0.00  0.00     0.154 C 
BRANCH  24  25
ATOM     25  C   UNK d   1     -37.447 -61.717  46.765  0.00  0.00     0.255 C 
BRANCH  25  26
ATOM     26  N   UNK d   1     -36.183 -61.121  46.856  0.00  0.00    -0.066 N 
ATOM     27  C   UNK d   1     -35.157 -62.034  47.377  0.00  0.00     0.261 C 
ATOM     28  C   UNK d   1     -34.917 -63.204  46.483  0.00  0.00     0.195 C 
ATOM     29  O   UNK d   1     -35.592 -63.030  45.296  0.00  0.00    -0.388 OA
ATOM     30  C   UNK d   1     -35.183 -61.802  44.749  0.00  0.00     0.195 C 
ATOM     31  C   UNK d   1     -35.762 -60.640  45.528  0.00  0.00     0.261 C 
ATOM     32  H   UNK d   1     -36.174 -60.305  47.462  0.00  0.00     0.280 HD
ENDBRANCH  25  26
ENDBRANCH  24  25
ENDBRANCH   3  24
BRANCH  10  33
ATOM     33  O   UNK d   1     -34.839 -65.417  50.149  0.00  0.00    -0.349 OA
BRANCH  33  34
ATOM     34  C   UNK d   1     -33.824 -64.548  49.761  0.00  0.00     0.171 C 
ATOM     35  C   UNK d   1     -32.725 -65.215  48.953  0.00  0.00     0.034 C 
ENDBRANCH  33  34
ENDBRANCH  10  33
TORSDOF 7
ENDMDL
