MODEL 1
REMARK VINA RESULT:    -8.420      0.000      0.000
REMARK INTER + INTRA:         -10.390
REMARK INTER:                  -9.897
REMARK INTRA:                  -0.494
REMARK UNBOUND:                -0.494
REMARK  3 active torsions:
REMARK  status: ('A' for Active; 'I' for Inactive)
REMARK    1  A    between atoms: C_9  and  C_11 
REMARK       I    between atoms: C_11  and  N_13 
REMARK    2  A    between atoms: N_13  and  C_14 
REMARK    3  A    between atoms: C_14  and  C_15 
ROOT
ATOM      1  C   UNK d   1     -39.302 -69.013  51.850  0.00  0.00     0.254 C 
ATOM      2  O   UNK d   1     -39.341 -70.192  52.251  0.00  0.00    -0.268 OA
ATOM      3  N   UNK d   1     -38.228 -68.610  51.017  0.00  0.00    -0.350 N 
ATOM      4  H   UNK d   1     -38.183 -67.636  50.677  0.00  0.00     0.163 HD
ENDROOT
BRANCH   1   5
ATOM      5  C   UNK d   1     -40.364 -68.100  52.259  0.00  0.00     0.063 A 
ATOM      6  C   UNK d   1     -41.071 -68.391  53.412  0.00  0.00     0.098 A 
ATOM      7  C   UNK d   1     -42.077 -67.548  53.817  0.00  0.00     0.111 A 
ATOM      8  N   UNK d   1     -40.995 -69.407  54.314  0.00  0.00    -0.257 N 
ATOM      9  C   UNK d   1     -42.361 -66.429  53.070  0.00  0.00     0.055 A 
ATOM     10  N   UNK d   1     -42.583 -68.076  54.957  0.00  0.00    -0.130 NA
ATOM     11  C   UNK d   1     -41.661 -66.134  51.920  0.00  0.00     0.014 A 
ATOM     12 Br   UNK d   1     -42.079 -64.572  50.900  0.00  0.00    -0.051 Br
ATOM     13  C   UNK d   1     -40.656 -66.971  51.509  0.00  0.00     0.038 A 
ATOM     14  N   UNK d   1     -41.910 -69.182  55.216  0.00  0.00    -0.067 NA
ATOM     15  H   UNK d   1     -40.298 -70.173  54.210  0.00  0.00     0.191 HD
ENDBRANCH   1   5
BRANCH   3  16
ATOM     16  C   UNK d   1     -37.191 -69.535  50.629  0.00  0.00     0.203 C 
BRANCH  16  17
ATOM     17  C   UNK d   1     -35.863 -68.831  50.690  0.00  0.00     0.148 A 
ATOM     18  N   UNK d   1     -35.507 -67.717  50.030  0.00  0.00    -0.319 N 
ATOM     19  C   UNK d   1     -34.236 -67.371  50.329  0.00  0.00     0.130 A 
ATOM     20  C   UNK d   1     -36.205 -66.857  49.100  0.00  0.00     0.132 C 
ATOM     21  N   UNK d   1     -33.797 -68.294  51.193  0.00  0.00    -0.135 NA
ATOM     22  C   UNK d   1     -33.711 -66.148  49.663  0.00  0.00     0.081 C 
ATOM     23  N   UNK d   1     -34.781 -69.180  51.413  0.00  0.00    -0.133 NA
ATOM     24  C   UNK d   1     -34.735 -65.054  49.996  0.00  0.00     0.009 C 
ATOM     25  C   UNK d   1     -36.128 -65.436  49.615  0.00  0.00     0.021 C 
ENDBRANCH  16  17
ENDBRANCH   3  16
TORSDOF 3
ENDMDL
