/Users/jonathanwahrer/Desktop/Msc/3_Semester/Drug_Design_Praktikum/waehrer_HTS_screening/HTS_experiment/out/docking_results/vina_output/3e7o/1676_docked.pdbqt
 OpenBabel03192216363D

 25 28  0  0  0  0  0  0  0  0999 V2000
  -39.3020  -69.0130   51.8500 C   0  0  0  0  0  0  0  0  0  0  0  0
  -39.3410  -70.1920   52.2510 O   0  0  0  0  0  0  0  0  0  0  0  0
  -38.2280  -68.6100   51.0170 N   0  0  0  0  0  0  0  0  0  0  0  0
  -38.1830  -67.6360   50.6770 H   0  0  0  0  0  0  0  0  0  0  0  0
  -40.3640  -68.1000   52.2590 C   0  0  0  0  0  0  0  0  0  0  0  0
  -41.0710  -68.3910   53.4120 C   0  0  0  0  0  0  0  0  0  0  0  0
  -42.0770  -67.5480   53.8170 C   0  0  0  0  0  0  0  0  0  0  0  0
  -40.9950  -69.4070   54.3140 N   0  0  0  0  0  0  0  0  0  0  0  0
  -42.3610  -66.4290   53.0700 C   0  0  0  0  0  3  0  0  0  0  0  0
  -42.5830  -68.0760   54.9570 N   0  0  0  0  0  0  0  0  0  0  0  0
  -41.6610  -66.1340   51.9200 C   0  0  0  0  0  0  0  0  0  0  0  0
  -42.0790  -64.5720   50.9000 Br  0  0  0  0  0  0  0  0  0  0  0  0
  -40.6560  -66.9710   51.5090 C   0  0  0  0  0  3  0  0  0  0  0  0
  -41.9100  -69.1820   55.2160 N   0  0  0  0  0  0  0  0  0  0  0  0
  -40.2980  -70.1730   54.2100 H   0  0  0  0  0  0  0  0  0  0  0  0
  -37.1910  -69.5350   50.6290 C   0  0  0  0  0  2  0  0  0  0  0  0
  -35.8630  -68.8310   50.6900 C   0  0  0  0  0  0  0  0  0  0  0  0
  -35.5070  -67.7170   50.0300 N   0  0  0  0  0  0  0  0  0  0  0  0
  -34.2360  -67.3710   50.3290 C   0  0  0  0  0  0  0  0  0  0  0  0
  -36.2050  -66.8570   49.1000 C   0  0  0  0  0  2  0  0  0  0  0  0
  -33.7970  -68.2940   51.1930 N   0  0  0  0  0  0  0  0  0  0  0  0
  -33.7110  -66.1480   49.6630 C   0  0  0  0  0  2  0  0  0  0  0  0
  -34.7810  -69.1800   51.4130 N   0  0  0  0  0  0  0  0  0  0  0  0
  -34.7350  -65.0540   49.9960 C   0  0  0  0  0  2  0  0  0  0  0  0
  -36.1280  -65.4360   49.6150 C   0  0  0  0  0  2  0  0  0  0  0  0
  1  2  2  0  0  0  0
  1  5  1  0  0  0  0
  3  1  1  0  0  0  0
  4  3  1  0  0  0  0
  5  6  1  0  0  0  0
  6  7  2  0  0  0  0
  6  8  1  0  0  0  0
  7 10  1  0  0  0  0
  8 14  1  0  0  0  0
  9  7  1  0  0  0  0
 10 14  2  0  0  0  0
 11  9  2  0  0  0  0
 12 11  1  0  0  0  0
 13 11  1  0  0  0  0
 13  5  2  0  0  0  0
 15  8  1  0  0  0  0
 16 17  1  0  0  0  0
 16  3  1  0  0  0  0
 17 23  2  0  0  0  0
 18 19  1  0  0  0  0
 18 17  1  0  0  0  0
 19 21  2  0  0  0  0
 20 25  1  0  0  0  0
 20 18  1  0  0  0  0
 21 23  1  0  0  0  0
 22 24  1  0  0  0  0
 22 19  1  0  0  0  0
 25 24  1  0  0  0  0
M  END
>  <Pose>
1

>  <Score>
-8.420

$$$$
