MODEL 1
REMARK VINA RESULT:    -8.649      0.000      0.000
REMARK INTER + INTRA:         -11.675
REMARK INTER:                 -11.177
REMARK INTRA:                  -0.498
REMARK UNBOUND:                -0.498
REMARK  5 active torsions:
REMARK  status: ('A' for Active; 'I' for Inactive)
REMARK    1  A    between atoms: N_7  and  C_11 
REMARK    2  A    between atoms: C_11  and  C_12 
REMARK    3  A    between atoms: C_12  and  N_13 
REMARK    4  A    between atoms: C_21  and  C_23 
REMARK    5  A    between atoms: C_23  and  O_25 
ROOT
ATOM      1  N   UNK d   1     -40.909 -66.560  51.768  0.00  0.00    -0.363 N 
ATOM      2  C   UNK d   1     -40.314 -67.645  52.314  0.00  0.00     0.110 A 
ATOM      3  C   UNK d   1     -40.855 -68.315  53.388  0.00  0.00     0.080 A 
ATOM      4  C   UNK d   1     -42.111 -67.853  53.966  0.00  0.00     0.111 A 
ATOM      5  N   UNK d   1     -42.387 -68.685  54.979  0.00  0.00    -0.170 NA
ATOM      6  N   UNK d   1     -41.430 -69.619  55.090  0.00  0.00    -0.242 N 
ATOM      7  C   UNK d   1     -40.501 -69.413  54.142  0.00  0.00     0.275 A 
ATOM      8  O   UNK d   1     -39.482 -70.124  53.992  0.00  0.00    -0.266 OA
ATOM      9  C   UNK d   1     -42.693 -66.740  53.382  0.00  0.00     0.086 A 
ATOM     10  C   UNK d   1     -42.063 -66.156  52.318  0.00  0.00     0.110 A 
ATOM     11  H   UNK d   1     -41.458 -70.370  55.825  0.00  0.00     0.192 HD
ENDROOT
BRANCH   1  12
ATOM     12  C   UNK d   1     -40.308 -65.874  50.630  0.00  0.00     0.148 C 
BRANCH  12  13
ATOM     13  C   UNK d   1     -39.706 -66.922  49.719  0.00  0.00     0.150 C 
BRANCH  13  14
ATOM     14  N   UNK d   1     -38.260 -66.871  49.724  0.00  0.00    -0.338 N 
ATOM     15  C   UNK d   1     -37.502 -65.936  49.112  0.00  0.00     0.210 A 
ATOM     16  N   UNK d   1     -36.198 -66.191  49.320  0.00  0.00    -0.242 NA
ATOM     17  C   UNK d   1     -36.082 -67.312  50.081  0.00  0.00     0.086 A 
ATOM     18  C   UNK d   1     -34.999 -68.008  50.581  0.00  0.00     0.057 A 
ATOM     19  C   UNK d   1     -37.385 -67.706  50.312  0.00  0.00     0.064 A 
ATOM     20  C   UNK d   1     -35.209 -69.139  51.341  0.00  0.00     0.036 A 
ATOM     21 Cl   UNK d   1     -33.875 -70.077  52.011  0.00  0.00    -0.084 Cl
ATOM     22  C   UNK d   1     -36.517 -69.524  51.564  0.00  0.00     0.026 A 
ATOM     23  C   UNK d   1     -37.605 -68.834  51.068  0.00  0.00     0.034 A 
ENDBRANCH  13  14
ENDBRANCH  12  13
ENDBRANCH   1  12
BRANCH   9  24
ATOM     24  C   UNK d   1     -43.951 -66.248  53.933  0.00  0.00     0.296 C 
ATOM     25  O   UNK d   1     -43.949 -65.698  55.063  0.00  0.00    -0.259 OA
BRANCH  24  26
ATOM     26  O   UNK d   1     -45.132 -66.370  53.252  0.00  0.00    -0.322 OA
ATOM     27  C   UNK d   1     -45.980 -67.494  53.427  0.00  0.00     0.213 C 
ENDBRANCH  24  26
ENDBRANCH   9  24
TORSDOF 5
ENDMDL
