MODEL 1
REMARK VINA RESULT:    -8.872      0.000      0.000
REMARK INTER + INTRA:         -12.475
REMARK INTER:                 -11.206
REMARK INTRA:                  -1.269
REMARK UNBOUND:                -1.269
REMARK  5 active torsions:
REMARK  status: ('A' for Active; 'I' for Inactive)
REMARK    1  A    between atoms: C_6  and  C_11 
REMARK    2  A    between atoms: C_11  and  C_12 
REMARK    3  A    between atoms: C_12  and  C_13 
REMARK       I    between atoms: C_13  and  N_15 
REMARK    4  A    between atoms: C_17  and  N_21 
REMARK    5  A    between atoms: C_18  and  O_20 
ROOT
ATOM      1  C   UNK d   1     -36.154 -67.659  49.923  0.00  0.00     0.220 C 
ATOM      2  O   UNK d   1     -35.198 -67.615  50.737  0.00  0.00    -0.273 OA
ATOM      3  N   UNK d   1     -36.441 -66.505  49.164  0.00  0.00    -0.348 N 
ATOM      4  C   UNK d   1     -37.469 -66.257  48.173  0.00  0.00     0.154 C 
ATOM      5  C   UNK d   1     -37.897 -64.889  48.462  0.00  0.00     0.142 C 
ATOM      6  C   UNK d   1     -36.881 -64.293  49.439  0.00  0.00     0.161 C 
ATOM      7  C   UNK d   1     -35.704 -65.271  49.238  0.00  0.00     0.159 C 
ENDROOT
BRANCH   1   8
ATOM      8  C   UNK d   1     -36.922 -68.916  49.811  0.00  0.00     0.110 C 
BRANCH   8   9
ATOM      9  C   UNK d   1     -36.853 -69.687  51.094  0.00  0.00     0.087 C 
BRANCH   9  10
ATOM     10  C   UNK d   1     -38.017 -69.407  51.955  0.00  0.00     0.105 A 
ATOM     11  N   UNK d   1     -39.096 -68.653  51.606  0.00  0.00    -0.343 N 
ATOM     12  C   UNK d   1     -39.981 -68.576  52.612  0.00  0.00     0.064 A 
ATOM     13  H   UNK d   1     -39.267 -68.172  50.688  0.00  0.00     0.167 HD
ATOM     14  C   UNK d   1     -41.209 -67.958  52.785  0.00  0.00     0.055 A 
ATOM     15  C   UNK d   1     -39.451 -69.309  53.646  0.00  0.00     0.085 A 
ATOM     16  C   UNK d   1     -41.899 -68.074  53.984  0.00  0.00     0.036 A 
ATOM     17 Cl   UNK d   1     -43.445 -67.284  54.182  0.00  0.00    -0.084 Cl
ATOM     18  C   UNK d   1     -41.371 -68.808  55.024  0.00  0.00     0.026 A 
ATOM     19  C   UNK d   1     -40.141 -69.420  54.834  0.00  0.00     0.036 A 
ATOM     20  N   UNK d   1     -38.275 -69.797  53.232  0.00  0.00    -0.233 NA
ENDBRANCH   9  10
ENDBRANCH   8   9
ENDBRANCH   1   8
BRANCH   5  21
ATOM     21  N   UNK d   1     -39.221 -64.592  48.849  0.00  0.00    -0.300 N 
ATOM     22  C   UNK d   1     -39.521 -64.676  50.173  0.00  0.00     0.108 A 
ATOM     23  C   UNK d   1     -40.783 -64.404  50.652  0.00  0.00     0.022 A 
ATOM     24  C   UNK d   1     -41.787 -64.034  49.787  0.00  0.00     0.256 A 
ATOM     25  C   UNK d   1     -41.098 -64.500  52.115  0.00  0.00     0.056 C 
ATOM     26  O   UNK d   1     -42.957 -63.778  50.201  0.00  0.00    -0.267 OA
ATOM     27  N   UNK d   1     -41.491 -63.951  48.481  0.00  0.00    -0.275 N 
ATOM     28  C   UNK d   1     -40.249 -64.227  48.076  0.00  0.00     0.329 A 
ATOM     29  H   UNK d   1     -42.252 -63.669  47.789  0.00  0.00     0.173 HD
ATOM     30  O   UNK d   1     -40.030 -64.131  46.851  0.00  0.00    -0.246 OA
ENDBRANCH   5  21
BRANCH   6  31
ATOM     31  O   UNK d   1     -36.512 -63.010  49.118  0.00  0.00    -0.392 OA
ATOM     32  H   UNK d   1     -36.376 -62.963  48.139  0.00  0.00     0.210 HD
ENDBRANCH   6  31
TORSDOF 5
ENDMDL
