/Users/jonathanwahrer/Desktop/Msc/3_Semester/Drug_Design_Praktikum/waehrer_HTS_screening/HTS_experiment/out/docking_results/vina_output/3e7o/1690_docked.pdbqt
 OpenBabel03192216373D

 34 37  0  0  1  0  0  0  0  0999 V2000
  -35.8350  -67.9720   50.3530 C   0  0  0  0  0  0  0  0  0  0  0  0
  -34.9870  -68.6410   50.9970 O   0  0  0  0  0  0  0  0  0  0  0  0
  -35.6150  -66.5920   50.0670 N   0  0  0  0  0  0  0  0  0  0  0  0
  -36.5440  -65.7610   49.3340 C   0  0  0  0  0  2  0  0  0  0  0  0
  -35.7830  -64.7700   48.4370 C   0  0  2  0  0  0  0  0  0  0  0  0
  -34.4670  -65.4010   48.1350 C   0  0  2  0  0  3  0  0  0  0  0  0
  -33.6070  -65.3770   49.3780 C   0  0  0  0  0  2  0  0  0  0  0  0
  -34.3930  -65.9690   50.5300 C   0  0  0  0  0  2  0  0  0  0  0  0
  -35.7180  -63.4730   49.1790 C   0  0  0  0  0  1  0  0  0  0  0  0
  -37.0820  -68.5960   49.8790 C   0  0  0  0  0  2  0  0  0  0  0  0
  -37.3960  -69.7960   50.7250 C   0  0  0  0  0  2  0  0  0  0  0  0
  -38.3970  -69.4130   51.7490 C   0  0  0  0  0  0  0  0  0  0  0  0
  -39.3520  -68.4570   51.5810 N   0  0  0  0  0  0  0  0  0  0  0  0
  -40.0940  -68.3340   52.6890 C   0  0  0  0  0  0  0  0  0  0  0  0
  -39.4630  -67.9070   50.6850 H   0  0  0  0  0  0  0  0  0  0  0  0
  -41.1590  -67.5330   53.0280 C   0  0  0  0  0  3  0  0  0  0  0  0
  -39.5950  -69.2420   53.5890 C   0  0  0  0  0  0  0  0  0  0  0  0
  -41.7620  -67.6050   54.2720 C   0  0  0  0  0  0  0  0  0  0  0  0
  -43.1160  -66.5910   54.7150 Cl  0  0  0  0  0  0  0  0  0  0  0  0
  -41.2530  -68.5210   55.1750 C   0  0  0  0  0  3  0  0  0  0  0  0
  -40.1780  -69.3320   54.8340 C   0  0  0  0  0  3  0  0  0  0  0  0
  -38.5800  -69.8630   52.9810 N   0  0  0  0  0  0  0  0  0  0  0  0
  -36.5810  -64.6250   47.2920 O   0  0  0  0  0  0  0  0  0  0  0  0
  -37.4190  -64.1190   47.5420 H   0  0  0  0  0  0  0  0  0  0  0  0
  -33.7970  -64.9290   46.9750 N   0  0  0  0  0  0  0  0  0  0  0  0
  -33.0140  -63.8400   46.9590 C   0  0  0  0  0  3  0  0  0  0  0  0
  -32.3750  -63.4080   45.8040 C   0  0  0  0  0  0  0  0  0  0  0  0
  -32.5480  -64.1180   44.6380 C   0  0  0  0  0  0  0  0  0  0  0  0
  -31.5080  -62.1800   45.8480 C   0  0  0  0  0  1  0  0  0  0  0  0
  -31.9650  -63.7260   43.5800 O   0  0  0  0  0  0  0  0  0  0  0  0
  -33.3320  -65.2050   44.6580 N   0  0  0  0  0  0  0  0  0  0  0  0
  -33.9280  -65.5830   45.8010 C   0  0  0  0  0  0  0  0  0  0  0  0
  -33.4710  -65.7510   43.7820 H   0  0  0  0  0  0  0  0  0  0  0  0
  -34.6770  -66.6230   45.8150 O   0  0  0  0  0  0  0  0  0  0  0  0
  1  2  2  0  0  0  0
  3  1  1  0  0  0  0
  3  8  1  0  0  0  0
  4  3  1  0  0  0  0
  5  9  1  1  0  0  0
  5  4  1  0  0  0  0
  6 25  1  6  0  0  0
  6  5  1  0  0  0  0
  6  7  1  0  0  0  0
  7  8  1  0  0  0  0
 10  1  1  0  0  0  0
 10 11  1  0  0  0  0
 11 12  1  0  0  0  0
 12 22  2  0  0  0  0
 13 12  1  0  0  0  0
 13 14  1  0  0  0  0
 14 16  2  0  0  0  0
 14 17  1  0  0  0  0
 15 13  1  0  0  0  0
 16 18  1  0  0  0  0
 17 21  2  0  0  0  0
 18 19  1  0  0  0  0
 18 20  2  0  0  0  0
 21 20  1  0  0  0  0
 22 17  1  0  0  0  0
 23 24  1  0  0  0  0
 23  5  1  0  0  0  0
 26 25  1  0  0  0  0
 27 29  1  0  0  0  0
 27 26  2  0  0  0  0
 28 31  1  0  0  0  0
 28 27  1  0  0  0  0
 30 28  2  0  0  0  0
 31 32  1  0  0  0  0
 32 34  2  0  0  0  0
 32 25  1  0  0  0  0
 33 31  1  0  0  0  0
M  END
>  <Pose>
1

>  <Score>
-8.414

$$$$
