MODEL 1
REMARK VINA RESULT:    -8.957      0.000      0.000
REMARK INTER + INTRA:         -11.869
REMARK INTER:                 -11.314
REMARK INTRA:                  -0.556
REMARK UNBOUND:                -0.556
REMARK  5 active torsions:
REMARK  status: ('A' for Active; 'I' for Inactive)
REMARK    1  A    between atoms: C_6  and  C_11 
REMARK    2  A    between atoms: C_11  and  C_12 
REMARK    3  A    between atoms: C_12  and  C_13 
REMARK       I    between atoms: C_13  and  N_15 
REMARK    4  A    between atoms: C_17  and  N_21 
REMARK    5  A    between atoms: C_18  and  O_20 
ROOT
ATOM      1  C   UNK d   1     -40.535 -68.113  52.821  0.00  0.00     0.220 C 
ATOM      2  O   UNK d   1     -40.482 -69.349  52.678  0.00  0.00    -0.273 OA
ATOM      3  N   UNK d   1     -40.686 -67.279  51.701  0.00  0.00    -0.348 N 
ATOM      4  C   UNK d   1     -40.792 -67.570  50.307  0.00  0.00     0.154 C 
ATOM      5  C   UNK d   1     -39.930 -66.484  49.619  0.00  0.00     0.140 C 
ATOM      6  C   UNK d   1     -40.191 -65.340  50.533  0.00  0.00     0.161 C 
ATOM      7  C   UNK d   1     -40.791 -65.836  51.805  0.00  0.00     0.159 C 
ENDROOT
BRANCH   1   8
ATOM      8  C   UNK d   1     -40.438 -67.538  54.172  0.00  0.00     0.110 C 
BRANCH   8   9
ATOM      9  C   UNK d   1     -41.592 -68.005  55.030  0.00  0.00     0.087 C 
BRANCH   9  10
ATOM     10  C   UNK d   1     -42.855 -67.362  54.540  0.00  0.00     0.105 A 
ATOM     11  N   UNK d   1     -43.996 -68.023  54.277  0.00  0.00    -0.343 N 
ATOM     12  C   UNK d   1     -44.953 -67.180  53.856  0.00  0.00     0.064 A 
ATOM     13  H   UNK d   1     -44.153 -69.062  54.378  0.00  0.00     0.167 HD
ATOM     14  C   UNK d   1     -46.281 -67.356  53.465  0.00  0.00     0.055 A 
ATOM     15  C   UNK d   1     -44.379 -65.927  53.855  0.00  0.00     0.085 A 
ATOM     16  C   UNK d   1     -47.030 -66.272  53.072  0.00  0.00     0.036 A 
ATOM     17 Cl   UNK d   1     -48.708 -66.441  52.570  0.00  0.00    -0.084 Cl
ATOM     18  C   UNK d   1     -46.458 -65.030  53.074  0.00  0.00     0.026 A 
ATOM     19  C   UNK d   1     -45.132 -64.840  53.463  0.00  0.00     0.036 A 
ATOM     20  N   UNK d   1     -43.107 -66.079  54.277  0.00  0.00    -0.233 NA
ENDBRANCH   9  10
ENDBRANCH   8   9
ENDBRANCH   1   8
BRANCH   5  21
ATOM     21  N   UNK d   1     -38.565 -66.929  49.597  0.00  0.00    -0.316 N 
ATOM     22  C   UNK d   1     -37.559 -66.477  48.830  0.00  0.00     0.149 A 
ATOM     23  C   UNK d   1     -36.392 -67.202  49.146  0.00  0.00     0.170 A 
ATOM     24  N   UNK d   1     -37.503 -65.516  47.887  0.00  0.00    -0.287 N 
ATOM     25  N   UNK d   1     -36.746 -68.075  50.102  0.00  0.00    -0.234 NA
ATOM     26  C   UNK d   1     -35.199 -66.948  48.508  0.00  0.00     0.283 A 
ATOM     27  C   UNK d   1     -38.038 -67.926  50.383  0.00  0.00     0.212 A 
ATOM     28  O   UNK d   1     -34.172 -67.613  48.812  0.00  0.00    -0.265 OA
ATOM     29  N   UNK d   1     -35.184 -65.986  47.578  0.00  0.00    -0.269 N 
ATOM     30  C   UNK d   1     -36.292 -65.304  47.286  0.00  0.00     0.332 A 
ATOM     31  C   UNK d   1     -33.929 -65.692  46.883  0.00  0.00     0.164 C 
ATOM     32  O   UNK d   1     -36.261 -64.403  46.407  0.00  0.00    -0.246 OA
ATOM     33  C   UNK d   1     -38.651 -64.748  47.522  0.00  0.00     0.163 C 
ENDBRANCH   5  21
BRANCH   6  34
ATOM     34  O   UNK d   1     -41.077 -64.402  50.005  0.00  0.00    -0.392 OA
ATOM     35  H   UNK d   1     -41.590 -63.935  50.724  0.00  0.00     0.210 HD
ENDBRANCH   6  34
TORSDOF 5
ENDMDL
