/Users/jonathanwahrer/Desktop/Msc/3_Semester/Drug_Design_Praktikum/waehrer_HTS_screening/HTS_experiment/out/docking_results/vina_output/3e7o/1699_docked.pdbqt
 OpenBabel03192216383D

 31 34  0  0  1  0  0  0  0  0999 V2000
  -41.0680  -64.1930   51.1320 Cl  0  0  0  0  0  0  0  0  0  0  0  0
  -40.0110  -64.7970   49.8970 C   0  0  0  0  0  0  0  0  0  0  0  0
  -38.8250  -65.4370   50.2240 C   0  0  0  0  0  3  0  0  0  0  0  0
  -37.9740  -65.9230   49.2530 C   0  0  0  0  0  0  0  0  0  0  0  0
  -38.3330  -65.7570   47.9440 C   0  0  0  0  0  0  0  0  0  0  0  0
  -39.5200  -65.1190   47.5730 C   0  0  0  0  0  3  0  0  0  0  0  0
  -40.3460  -64.6460   48.5680 C   0  0  0  0  0  3  0  0  0  0  0  0
  -37.3280  -66.3000   47.0980 N   0  0  0  0  0  0  0  0  0  0  0  0
  -36.2970  -66.8250   47.9200 C   0  0  0  0  0  0  0  0  0  0  0  0
  -35.2490  -67.3460   47.4150 O   0  0  0  0  0  0  0  0  0  0  0  0
  -36.7000  -66.6370   49.3070 C   0  0  2  0  0  0  0  0  0  0  0  0
  -36.8190  -67.9100   50.0230 N   0  0  0  0  0  0  0  0  0  0  0  0
  -35.4280  -68.2350   50.2470 C   0  0  1  0  0  3  0  0  0  0  0  0
  -34.7460  -66.9490   50.5880 C   0  0  2  0  0  3  0  0  0  0  0  0
  -35.7400  -65.9050   50.1770 C   0  0  1  0  0  3  0  0  0  0  0  0
  -34.9970  -64.8140   49.5000 C   0  0  0  0  0  0  0  0  0  0  0  0
  -35.5700  -63.7450   49.1610 O   0  0  0  0  0  0  0  0  0  0  0  0
  -33.6510  -65.2350   49.3550 N   0  0  0  0  0  0  0  0  0  0  0  0
  -33.6050  -66.6310   49.6710 C   0  0  0  0  0  0  0  0  0  0  0  0
  -32.7870  -67.4710   49.2830 O   0  0  0  0  0  0  0  0  0  0  0  0
  -37.3420  -66.3170   46.0350 H   0  0  0  0  0  0  0  0  0  0  0  0
  -37.2400  -67.6670   50.9480 H   0  0  0  0  0  0  0  0  0  0  0  0
  -35.2460  -69.2980   51.2990 C   0  0  2  0  0  3  0  0  0  0  0  0
  -36.4190  -69.3870   52.2420 C   0  0  0  0  0  1  0  0  0  0  0  0
  -34.0860  -69.0030   52.0040 O   0  0  0  0  0  0  0  0  0  0  0  0
  -33.8570  -69.6990   52.6710 H   0  0  0  0  0  0  0  0  0  0  0  0
  -32.5500  -64.4330   48.9760 C   0  0  0  0  0  2  0  0  0  0  0  0
  -32.4850  -63.8990   47.5990 C   0  0  0  0  0  2  0  0  0  0  0  0
  -32.3310  -62.4370   47.4290 C   0  0  0  0  0  2  0  0  0  0  0  0
  -32.8590  -61.8990   46.2650 O   0  0  0  0  0  0  0  0  0  0  0  0
  -34.2280  -62.2550   46.2190 C   0  0  0  0  0  1  0  0  0  0  0  0
  2  3  1  0  0  0  0
  2  1  1  0  0  0  0
  4 11  1  0  0  0  0
  4  3  2  0  0  0  0
  5  4  1  0  0  0  0
  6  5  2  0  0  0  0
  6  7  1  0  0  0  0
  7  2  2  0  0  0  0
  8  9  1  0  0  0  0
  8  5  1  0  0  0  0
 10  9  2  0  0  0  0
 11  9  1  6  0  0  0
 11 12  1  0  0  0  0
 11 15  1  0  0  0  0
 12 13  1  0  0  0  0
 12 22  1  0  0  0  0
 13 14  1  0  0  0  0
 13 23  1  1  0  0  0
 14 19  1  6  0  0  0
 15 16  1  6  0  0  0
 15 14  1  0  0  0  0
 17 16  2  0  0  0  0
 18 16  1  0  0  0  0
 18 19  1  0  0  0  0
 20 19  2  0  0  0  0
 21  8  1  0  0  0  0
 23 25  1  0  0  0  0
 23 24  1  1  0  0  0
 25 26  1  0  0  0  0
 27 18  1  0  0  0  0
 28 27  1  0  0  0  0
 29 28  1  0  0  0  0
 30 29  1  0  0  0  0
 31 30  1  0  0  0  0
M  END
>  <Pose>
1

>  <Score>
-6.314

$$$$
