/Users/jonathanwahrer/Desktop/Msc/3_Semester/Drug_Design_Praktikum/waehrer_HTS_screening/HTS_experiment/out/docking_results/vina_output/3e7o/1706_docked.pdbqt
 OpenBabel03192216383D

 25 28  0  0  1  0  0  0  0  0999 V2000
  -40.7980  -68.4590   51.2910 F   0  0  0  0  0  0  0  0  0  0  0  0
  -39.4770  -68.2940   50.9470 C   0  0  0  0  0  0  0  0  0  0  0  0
  -39.1590  -67.3930   49.9230 C   0  0  0  0  0  0  0  0  0  0  0  0
  -37.8560  -67.2140   49.5670 C   0  0  0  0  0  0  0  0  0  0  0  0
  -36.8420  -67.9270   50.2210 C   0  0  0  0  0  3  0  0  0  0  0  0
  -37.1800  -68.8000   51.2170 C   0  0  0  0  0  3  0  0  0  0  0  0
  -38.4880  -68.9960   51.5920 C   0  0  0  0  0  0  0  0  0  0  0  0
  -38.9200  -70.1260   52.8820 Cl  0  0  0  0  0  0  0  0  0  0  0  0
  -37.7980  -66.2150   48.4680 C   0  0  2  0  0  0  0  0  0  0  0  0
  -37.1830  -66.8080   47.3230 N   0  0  0  0  0  0  0  0  0  0  0  0
  -35.7820  -66.7970   47.1600 C   0  0  0  0  0  0  0  0  0  0  0  0
  -35.1510  -67.6190   46.2810 N   0  0  0  0  0  0  0  0  0  0  0  0
  -33.8290  -67.6490   46.0890 C   0  0  0  0  0  3  0  0  0  0  0  0
  -33.0180  -66.7910   46.8250 C   0  0  0  0  0  3  0  0  0  0  0  0
  -33.5730  -65.9320   47.7310 C   0  0  0  0  0  3  0  0  0  0  0  0
  -34.9440  -65.9540   47.8770 C   0  0  0  0  0  0  0  0  0  0  0  0
  -35.6360  -65.0730   48.8220 C   0  0  0  0  0  0  0  0  0  0  0  0
  -34.9030  -64.2790   49.5050 O   0  0  0  0  0  0  0  0  0  0  0  0
  -37.0340  -65.0890   48.9770 N   0  0  0  0  0  0  0  0  0  0  0  0
  -39.1980  -65.8450   48.2330 C   0  0  0  0  0  0  0  0  0  0  0  0
  -39.6440  -65.0040   47.3680 O   0  0  0  0  0  0  0  0  0  0  0  0
  -40.0120  -66.5640   49.1220 N   0  0  0  0  0  0  0  0  0  0  0  0
  -37.7560  -67.2650   46.5720 H   0  0  0  0  0  0  0  0  0  0  0  0
  -37.4740  -64.2750   49.4640 H   0  0  0  0  0  0  0  0  0  0  0  0
  -41.0610  -66.5450   49.2300 H   0  0  0  0  0  0  0  0  0  0  0  0
  2  1  1  0  0  0  0
  2  7  1  0  0  0  0
  3  2  2  0  0  0  0
  4  3  1  0  0  0  0
  4  5  2  0  0  0  0
  5  6  1  0  0  0  0
  6  7  2  0  0  0  0
  7  8  1  0  0  0  0
  9 20  1  6  0  0  0
  9 19  1  0  0  0  0
  9  4  1  0  0  0  0
 10  9  1  0  0  0  0
 11 10  1  0  0  0  0
 11 16  1  0  0  0  0
 12 11  2  0  0  0  0
 13 12  1  0  0  0  0
 13 14  2  0  0  0  0
 14 15  1  0  0  0  0
 15 16  2  0  0  0  0
 16 17  1  0  0  0  0
 17 19  1  0  0  0  0
 17 18  2  0  0  0  0
 19 24  1  0  0  0  0
 20 22  1  0  0  0  0
 21 20  2  0  0  0  0
 22 25  1  0  0  0  0
 22  3  1  0  0  0  0
 23 10  1  0  0  0  0
M  END
>  <Pose>
1

>  <Score>
-7.684

$$$$
