MODEL 1
REMARK VINA RESULT:    -7.684      0.000      0.000
REMARK INTER + INTRA:          -7.684
REMARK INTER:                  -7.684
REMARK INTRA:                   0.000
REMARK UNBOUND:                 0.000
REMARK  0 active torsions:
REMARK  status: ('A' for Active; 'I' for Inactive)
ROOT
ATOM      1  F   UNK d   1     -40.798 -68.459  51.291  0.00  0.00    -0.202 F 
ATOM      2  C   UNK d   1     -39.477 -68.294  50.947  0.00  0.00     0.165 A 
ATOM      3  C   UNK d   1     -39.159 -67.393  49.923  0.00  0.00     0.086 A 
ATOM      4  C   UNK d   1     -37.856 -67.214  49.567  0.00  0.00     0.030 A 
ATOM      5  C   UNK d   1     -36.842 -67.927  50.221  0.00  0.00     0.016 A 
ATOM      6  C   UNK d   1     -37.180 -68.800  51.217  0.00  0.00     0.028 A 
ATOM      7  C   UNK d   1     -38.488 -68.996  51.592  0.00  0.00     0.074 A 
ATOM      8 Cl   UNK d   1     -38.920 -70.126  52.882  0.00  0.00    -0.081 Cl
ATOM      9  C   UNK d   1     -37.798 -66.215  48.468  0.00  0.00     0.222 A 
ATOM     10  N   UNK d   1     -37.183 -66.808  47.323  0.00  0.00    -0.336 N 
ATOM     11  C   UNK d   1     -35.782 -66.797  47.160  0.00  0.00     0.141 A 
ATOM     12  N   UNK d   1     -35.151 -67.619  46.281  0.00  0.00    -0.243 NA
ATOM     13  C   UNK d   1     -33.829 -67.649  46.089  0.00  0.00     0.119 A 
ATOM     14  C   UNK d   1     -33.018 -66.791  46.825  0.00  0.00     0.020 A 
ATOM     15  C   UNK d   1     -33.573 -65.932  47.731  0.00  0.00     0.022 A 
ATOM     16  C   UNK d   1     -34.944 -65.954  47.877  0.00  0.00     0.077 A 
ATOM     17  C   UNK d   1     -35.636 -65.073  48.822  0.00  0.00     0.258 C 
ATOM     18  O   UNK d   1     -34.903 -64.279  49.505  0.00  0.00    -0.267 OA
ATOM     19  N   UNK d   1     -37.034 -65.089  48.977  0.00  0.00    -0.318 N 
ATOM     20  C   UNK d   1     -39.198 -65.845  48.233  0.00  0.00     0.277 A 
ATOM     21  O   UNK d   1     -39.644 -65.004  47.368  0.00  0.00    -0.268 OA
ATOM     22  N   UNK d   1     -40.012 -66.564  49.122  0.00  0.00    -0.320 N 
ATOM     23  H   UNK d   1     -37.756 -67.265  46.572  0.00  0.00     0.164 HD
ATOM     24  H   UNK d   1     -37.474 -64.275  49.464  0.00  0.00     0.166 HD
ATOM     25  H   UNK d   1     -41.061 -66.545  49.230  0.00  0.00     0.169 HD
ENDROOT
TORSDOF 0
ENDMDL
