/Users/jonathanwahrer/Desktop/Msc/3_Semester/Drug_Design_Praktikum/waehrer_HTS_screening/HTS_experiment/out/docking_results/vina_output/3e7o/1711_docked.pdbqt
 OpenBabel03192216383D

 30 33  0  0  0  0  0  0  0  0999 V2000
  -35.9630  -65.9630   48.1220 N   0  0  0  0  0  0  0  0  0  0  0  0
  -35.0380  -65.9460   49.2000 C   0  0  0  0  0  2  0  0  0  0  0  0
  -34.8040  -67.3050   49.8100 C   0  0  0  0  0  2  0  0  0  0  0  0
  -35.9740  -68.1420   49.7590 N   0  0  0  0  0  0  0  0  0  0  0  0
  -36.6810  -68.2910   48.5100 C   0  0  0  0  0  2  0  0  0  0  0  0
  -36.1990  -67.2420   47.5580 C   0  0  0  0  0  2  0  0  0  0  0  0
  -36.4620  -68.8300   50.8970 C   0  0  0  0  0  0  0  0  0  0  0  0
  -35.8570  -68.7060   51.9800 O   0  0  0  0  0  0  0  0  0  0  0  0
  -37.6660  -69.6890   50.8370 C   0  0  0  0  0  2  0  0  0  0  0  0
  -38.7230  -69.1590   51.6480 N   0  0  0  0  0  0  0  0  0  0  0  0
  -39.1320  -69.5240   52.9590 C   0  0  0  0  0  0  0  0  0  0  0  0
  -38.5890  -70.4210   53.6410 O   0  0  0  0  0  0  0  0  0  0  0  0
  -40.2560  -68.6850   53.3400 C   0  0  0  0  0  0  0  0  0  0  0  0
  -40.5430  -67.8250   52.3060 C   0  0  0  0  0  0  0  0  0  0  0  0
  -41.0140  -68.6240   54.4810 C   0  0  0  0  0  3  0  0  0  0  0  0
  -41.5890  -66.9210   52.4420 C   0  0  0  0  0  3  0  0  0  0  0  0
  -39.5960  -68.1020   51.2340 C   0  0  0  0  0  0  0  0  0  0  0  0
  -42.3430  -66.8630   53.5810 C   0  0  0  0  0  3  0  0  0  0  0  0
  -42.0630  -67.7290   54.6370 C   0  0  0  0  0  3  0  0  0  0  0  0
  -39.6040  -67.4710   50.1450 O   0  0  0  0  0  0  0  0  0  0  0  0
  -37.2630  -64.9060   48.2230 S   0  0  0  0  0  0  0  0  0  0  0  0
  -38.4850  -65.5810   47.6140 O   0  0  0  0  0  0  0  0  0  0  0  0
  -37.6110  -64.7110   49.6870 O   0  0  0  0  0  0  0  0  0  0  0  0
  -37.0190  -63.3470   47.5330 C   0  0  0  0  0  0  0  0  0  0  0  0
  -35.7530  -62.7860   47.5300 C   0  0  0  0  0  3  0  0  0  0  0  0
  -35.5010  -61.5410   46.9900 C   0  0  0  0  0  3  0  0  0  0  0  0
  -36.5640  -60.8490   46.4380 C   0  0  0  0  0  0  0  0  0  0  0  0
  -37.8200  -61.4200   46.4490 C   0  0  0  0  0  3  0  0  0  0  0  0
  -36.2830  -59.1060   45.6670 Br  0  0  0  0  0  0  0  0  0  0  0  0
  -38.0850  -62.6630   46.9850 C   0  0  0  0  0  3  0  0  0  0  0  0
  1 21  1  0  0  0  0
  1  2  1  0  0  0  0
  2  3  1  0  0  0  0
  4  3  1  0  0  0  0
  4  7  1  0  0  0  0
  5  4  1  0  0  0  0
  6  1  1  0  0  0  0
  6  5  1  0  0  0  0
  7  8  2  0  0  0  0
  9  7  1  0  0  0  0
  9 10  1  0  0  0  0
 10 11  1  0  0  0  0
 11 13  1  0  0  0  0
 11 12  2  0  0  0  0
 13 15  1  0  0  0  0
 14 16  1  0  0  0  0
 14 13  2  0  0  0  0
 15 19  2  0  0  0  0
 16 18  2  0  0  0  0
 17 10  1  0  0  0  0
 17 14  1  0  0  0  0
 18 19  1  0  0  0  0
 20 17  2  0  0  0  0
 21 23  2  0  0  0  0
 22 21  2  0  0  0  0
 24 21  1  0  0  0  0
 25 24  1  0  0  0  0
 26 25  2  0  0  0  0
 27 28  2  0  0  0  0
 27 26  1  0  0  0  0
 28 30  1  0  0  0  0
 29 27  1  0  0  0  0
 30 24  2  0  0  0  0
M  END
>  <Pose>
1

>  <Score>
-8.141

$$$$
