/Users/jonathanwahrer/Desktop/Msc/3_Semester/Drug_Design_Praktikum/waehrer_HTS_screening/HTS_experiment/out/docking_results/vina_output/3e7o/1718_docked.pdbqt
 OpenBabel03192216383D

 34 38  0  0  1  0  0  0  0  0999 V2000
  -37.3700  -69.7900   50.7450 Cl  0  0  0  0  0  0  0  0  0  0  0  0
  -38.4590  -68.4220   50.7830 C   0  0  0  0  0  0  0  0  0  0  0  0
  -38.2260  -67.3980   49.8640 C   0  0  0  0  0  0  0  0  0  0  0  0
  -39.0620  -66.3030   49.8620 C   0  0  0  0  0  0  0  0  0  0  0  0
  -40.1060  -66.2730   50.7890 C   0  0  0  0  0  3  0  0  0  0  0  0
  -40.3270  -67.2890   51.6930 C   0  0  0  0  0  3  0  0  0  0  0  0
  -39.4910  -68.3860   51.6940 C   0  0  0  0  0  3  0  0  0  0  0  0
  -38.6580  -65.3430   48.8360 C   0  0  1  0  0  0  0  0  0  0  0  0
  -39.7190  -65.0450   47.8920 N   0  0  0  0  0  0  0  0  0  0  0  0
  -39.3600  -63.7590   47.3080 C   0  0  2  0  0  3  0  0  0  0  0  0
  -38.6620  -62.9850   48.3920 C   0  0  1  0  0  3  0  0  0  0  0  0
  -38.2250  -64.0110   49.4080 C   0  0  2  0  0  3  0  0  0  0  0  0
  -36.7460  -63.9030   49.4840 C   0  0  0  0  0  0  0  0  0  0  0  0
  -36.0570  -64.7240   50.1520 O   0  0  0  0  0  0  0  0  0  0  0  0
  -36.3120  -62.7890   48.7230 N   0  0  0  0  0  0  0  0  0  0  0  0
  -37.3710  -62.4470   47.8410 C   0  0  0  0  0  0  0  0  0  0  0  0
  -37.3120  -61.8000   46.7570 O   0  0  0  0  0  0  0  0  0  0  0  0
  -37.4870  -65.9590   48.1900 C   0  0  0  0  0  0  0  0  0  0  0  0
  -36.7920  -65.4850   47.2190 O   0  0  0  0  0  0  0  0  0  0  0  0
  -37.2590  -67.1960   48.8420 N   0  0  0  0  0  0  0  0  0  0  0  0
  -40.6550  -65.0070   48.3540 H   0  0  0  0  0  0  0  0  0  0  0  0
  -36.4850  -67.8770   48.6120 H   0  0  0  0  0  0  0  0  0  0  0  0
  -40.6080  -63.0760   46.8310 C   0  0  0  0  0  2  0  0  0  0  0  0
  -40.4790  -62.9140   45.3470 C   0  0  0  0  0  0  0  0  0  0  0  0
  -41.4010  -63.4050   44.6460 O   0  0  0  0  0  0  0  0  0  0  0  0
  -39.3840  -62.2450   44.7430 N   0  0  0  0  0  0  0  0  0  0  0  0
  -39.3480  -61.2090   44.8100 H   0  0  0  0  0  0  0  0  0  0  0  0
  -38.6140  -62.7260   44.2380 H   0  0  0  0  0  0  0  0  0  0  0  0
  -35.0580  -62.1350   48.8270 C   0  0  0  0  0  2  0  0  0  0  0  0
  -33.8760  -62.8470   48.2990 C   0  0  2  0  0  3  0  0  0  0  0  0
  -32.7000  -62.6470   49.0060 O   0  0  0  0  0  0  0  0  0  0  0  0
  -31.8370  -63.5170   48.3390 C   0  0  0  0  0  2  0  0  0  0  0  0
  -32.1070  -63.2690   46.8500 C   0  0  0  0  0  2  0  0  0  0  0  0
  -33.4740  -62.5660   46.8990 C   0  0  0  0  0  2  0  0  0  0  0  0
  1  2  1  0  0  0  0
  2  7  1  0  0  0  0
  3  2  2  0  0  0  0
  4  3  1  0  0  0  0
  4  5  2  0  0  0  0
  5  6  1  0  0  0  0
  6  7  2  0  0  0  0
  8 18  1  6  0  0  0
  8 12  1  0  0  0  0
  8  4  1  0  0  0  0
  9 21  1  0  0  0  0
  9  8  1  0  0  0  0
 10 23  1  1  0  0  0
 10  9  1  0  0  0  0
 10 11  1  0  0  0  0
 11 16  1  6  0  0  0
 11 12  1  0  0  0  0
 12 13  1  6  0  0  0
 13 14  2  0  0  0  0
 15 29  1  0  0  0  0
 15 13  1  0  0  0  0
 16 15  1  0  0  0  0
 17 16  2  0  0  0  0
 18 20  1  0  0  0  0
 19 18  2  0  0  0  0
 20  3  1  0  0  0  0
 22 20  1  0  0  0  0
 24 23  1  0  0  0  0
 25 24  2  0  0  0  0
 26 27  1  0  0  0  0
 26 24  1  0  0  0  0
 28 26  1  0  0  0  0
 30 29  1  1  0  0  0
 30 31  1  0  0  0  0
 32 31  1  0  0  0  0
 33 34  1  0  0  0  0
 33 32  1  0  0  0  0
 34 30  1  0  0  0  0
M  END
>  <Pose>
1

>  <Score>
-7.552

$$$$
