/Users/jonathanwahrer/Desktop/Msc/3_Semester/Drug_Design_Praktikum/waehrer_HTS_screening/HTS_experiment/out/docking_results/vina_output/3e7o/1721_docked.pdbqt
 OpenBabel03192216383D

 28 31  0  0  1  0  0  0  0  0999 V2000
  -41.9750  -64.9710   50.3740 C   0  0  0  0  0  2  0  0  0  0  0  0
  -42.2140  -66.2990   50.7980 N   0  0  0  0  0  0  0  0  0  0  0  0
  -42.2520  -67.0700   50.1260 H   0  0  0  0  0  0  0  0  0  0  0  0
  -42.4230  -66.5670   52.2040 C   0  0  0  0  0  0  0  0  0  0  0  0
  -43.6140  -66.1450   52.7440 C   0  0  2  0  0  3  0  0  0  0  0  0
  -43.8520  -66.3830   54.0950 C   0  0  0  0  0  0  0  0  0  0  0  0
  -44.7110  -65.5130   52.3030 N   0  0  0  0  0  0  0  0  0  0  0  0
  -42.8840  -67.0130   54.7680 N   0  0  0  0  0  4  0  0  0  0  0  0
  -45.0640  -65.8890   54.3960 N   0  0  0  0  0  0  0  0  0  0  0  0
  -41.7310  -67.4250   54.2560 C   0  0  0  0  0  0  0  0  0  0  0  0
  -40.5350  -68.2400   55.2290 Cl  0  0  0  0  0  0  0  0  0  0  0  0
  -41.4980  -67.1940   52.9440 N   0  0  0  0  0  0  0  0  0  0  0  0
  -45.6070  -65.3470   53.2930 C   0  0  0  0  0  3  0  0  0  0  0  0
  -44.8050  -65.2090   51.2970 H   0  0  0  0  0  0  0  0  0  0  0  0
  -40.5810  -64.5630   50.2930 C   0  0  0  0  0  0  0  0  0  0  0  0
  -40.2230  -63.7570   51.3170 O   0  0  0  0  0  0  0  0  0  0  0  0
  -39.5940  -64.8390   49.3880 N   0  0  0  0  0  0  0  0  0  0  0  0
  -39.6930  -65.5560   48.1620 C   0  0  0  0  0  2  0  0  0  0  0  0
  -38.2130  -64.3370   49.7470 C   0  0  0  0  0  2  0  0  0  0  0  0
  -38.8700  -66.8420   48.1890 C   0  0  0  0  0  2  0  0  0  0  0  0
  -37.7570  -66.5650   49.0500 N   0  0  0  0  0  0  0  0  0  0  0  0
  -37.2060  -65.2410   49.0280 C   0  0  0  0  0  2  0  0  0  0  0  0
  -37.1940  -67.5350   49.8990 C   0  0  0  0  0  0  0  0  0  0  0  0
  -35.8510  -67.5990   50.1290 N   0  0  0  0  0  0  0  0  0  0  0  0
  -35.2590  -68.4830   50.9120 C   0  0  0  0  0  3  0  0  0  0  0  0
  -35.9730  -69.4410   51.5780 C   0  0  0  0  0  3  0  0  0  0  0  0
  -37.3470  -69.4340   51.3880 C   0  0  0  0  0  3  0  0  0  0  0  0
  -37.9450  -68.4950   50.5620 C   0  0  0  0  0  3  0  0  0  0  0  0
  1  2  1  0  0  0  0
  2  4  1  0  0  0  0
  3  2  1  0  0  0  0
  4 12  2  0  0  0  0
  5  4  1  6  0  0  0
  5  6  1  0  0  0  0
  6  9  1  0  0  0  0
  6  8  2  0  0  0  0
  7  5  1  0  0  0  0
  7 13  1  0  0  0  0
 10  8  2  0  0  0  0
 10 11  1  0  0  0  0
 12 10  1  0  0  0  0
 13  9  2  0  0  0  0
 14  7  1  0  0  0  0
 15  1  1  0  0  0  0
 15 16  2  0  0  0  0
 17 19  1  0  0  0  0
 17 15  1  0  0  0  0
 18 20  1  0  0  0  0
 18 17  1  0  0  0  0
 20 21  1  0  0  0  0
 21 23  1  0  0  0  0
 22 21  1  0  0  0  0
 22 19  1  0  0  0  0
 23 24  2  0  0  0  0
 23 28  1  0  0  0  0
 24 25  1  0  0  0  0
 25 26  2  0  0  0  0
 27 26  1  0  0  0  0
 28 27  2  0  0  0  0
M  END
>  <Pose>
1

>  <Score>
-8.092

$$$$
