MODEL 1
REMARK VINA RESULT:    -7.679      0.000      0.000
REMARK INTER + INTRA:         -11.141
REMARK INTER:                 -10.147
REMARK INTRA:                  -0.994
REMARK UNBOUND:                -0.994
REMARK  6 active torsions:
REMARK  status: ('A' for Active; 'I' for Inactive)
REMARK    1  A    between atoms: C_3  and  O_10 
REMARK    2  A    between atoms: O_10  and  C_11 
REMARK    3  A    between atoms: C_11  and  C_12 
REMARK    4  A    between atoms: C_12  and  O_13 
REMARK    5  A    between atoms: C_12  and  C_14 
REMARK    6  A    between atoms: C_14  and  N_15 
ROOT
ATOM      1  N   UNK d   1     -37.405 -63.552  47.251  0.00  0.00    -0.068 N 
ATOM      2  C   UNK d   1     -37.172 -62.772  48.420  0.00  0.00     0.241 C 
ATOM      3  C   UNK d   1     -35.791 -62.867  48.988  0.00  0.00     0.031 C 
ATOM      4  C   UNK d   1     -35.490 -64.155  49.668  0.00  0.00     0.138 C 
ATOM      5  N   UNK d   1     -34.502 -64.968  49.017  0.00  0.00    -0.317 N 
ATOM      6  C   UNK d   1     -34.184 -64.887  47.712  0.00  0.00     0.020 A 
ATOM      7  C   UNK d   1     -33.245 -65.661  47.092  0.00  0.00     0.026 A 
ATOM      8  C   UNK d   1     -32.562 -66.597  47.840  0.00  0.00     0.007 A 
ATOM      9  C   UNK d   1     -32.880 -66.687  49.174  0.00  0.00     0.074 A 
ATOM     10  C   UNK d   1     -33.832 -65.892  49.766  0.00  0.00     0.247 A 
ATOM     11  O   UNK d   1     -34.097 -66.002  50.991  0.00  0.00    -0.268 OA
ATOM     12  C   UNK d   1     -34.969 -63.843  46.949  0.00  0.00     0.062 C 
ATOM     13  C   UNK d   1     -36.343 -64.363  46.796  0.00  0.00     0.245 C 
ATOM     14  C   UNK d   1     -34.853 -62.605  47.804  0.00  0.00     0.020 C 
ATOM     15  H   UNK d   1     -37.654 -62.876  46.465  0.00  0.00     0.280 HD
ENDROOT
BRANCH   1  16
ATOM     16  C   UNK d   1     -38.614 -64.318  47.481  0.00  0.00     0.268 C 
BRANCH  16  17
ATOM     17  C   UNK d   1     -38.366 -65.715  47.950  0.00  0.00     0.168 C 
BRANCH  17  18
ATOM     18  C   UNK d   1     -38.848 -65.783  49.399  0.00  0.00     0.209 C 
BRANCH  18  19
ATOM     19  O   UNK d   1     -39.339 -67.077  49.597  0.00  0.00    -0.346 OA
BRANCH  19  20
ATOM     20  C   UNK d   1     -39.248 -67.840  50.713  0.00  0.00     0.103 A 
ATOM     21  C   UNK d   1     -40.290 -67.884  51.612  0.00  0.00     0.046 A 
ATOM     22 Br   UNK d   1     -41.850 -66.855  51.243  0.00  0.00    -0.048 Br
ATOM     23  C   UNK d   1     -40.234 -68.656  52.771  0.00  0.00     0.028 A 
ATOM     24  C   UNK d   1     -39.117 -69.393  53.035  0.00  0.00    -0.059 A 
ATOM     25  C   UNK d   1     -38.054 -69.369  52.153  0.00  0.00     0.028 A 
ATOM     26  C   UNK d   1     -39.064 -70.218  54.281  0.00  0.00     0.048 C 
ATOM     27  C   UNK d   1     -38.128 -68.590  50.994  0.00  0.00     0.046 A 
ATOM     28 Br   UNK d   1     -36.669 -68.549  49.772  0.00  0.00    -0.048 Br
ENDBRANCH  19  20
ENDBRANCH  18  19
ENDBRANCH  17  18
BRANCH  17  29
ATOM     29  O   UNK d   1     -39.059 -66.616  47.143  0.00  0.00    -0.392 OA
ATOM     30  H   UNK d   1     -39.700 -66.067  46.608  0.00  0.00     0.210 HD
ENDBRANCH  17  29
ENDBRANCH  16  17
ENDBRANCH   1  16
TORSDOF 6
ENDMDL
