/Users/jonathanwahrer/Desktop/Msc/3_Semester/Drug_Design_Praktikum/waehrer_HTS_screening/HTS_experiment/out/docking_results/vina_output/3e7o/1726_docked.pdbqt
 OpenBabel03192216393D

 30 33  0  0  1  0  0  0  0  0999 V2000
  -37.4050  -63.5520   47.2510 N   0  0  0  0  0  4  0  0  0  0  0  0
  -37.1720  -62.7720   48.4200 C   0  0  0  0  0  2  0  0  0  0  0  0
  -35.7910  -62.8670   48.9880 C   0  0  1  0  0  3  0  0  0  0  0  0
  -35.4900  -64.1550   49.6680 C   0  0  0  0  0  2  0  0  0  0  0  0
  -34.5020  -64.9680   49.0170 N   0  0  0  0  0  0  0  0  0  0  0  0
  -34.1840  -64.8870   47.7120 C   0  0  0  0  0  0  0  0  0  0  0  0
  -33.2450  -65.6610   47.0920 C   0  0  0  0  0  3  0  0  0  0  0  0
  -32.5620  -66.5970   47.8400 C   0  0  0  0  0  3  0  0  0  0  0  0
  -32.8800  -66.6870   49.1740 C   0  0  0  0  0  3  0  0  0  0  0  0
  -33.8320  -65.8920   49.7660 C   0  0  0  0  0  0  0  0  0  0  0  0
  -34.0970  -66.0020   50.9910 O   0  0  0  0  0  0  0  0  0  0  0  0
  -34.9690  -63.8430   46.9490 C   0  0  1  0  0  3  0  0  0  0  0  0
  -36.3430  -64.3630   46.7960 C   0  0  0  0  0  2  0  0  0  0  0  0
  -34.8530  -62.6050   47.8040 C   0  0  0  0  0  2  0  0  0  0  0  0
  -37.6540  -62.8760   46.4650 H   0  0  0  0  0  0  0  0  0  0  0  0
  -38.6140  -64.3180   47.4810 C   0  0  0  0  0  2  0  0  0  0  0  0
  -38.3660  -65.7150   47.9500 C   0  0  1  0  0  3  0  0  0  0  0  0
  -38.8480  -65.7830   49.3990 C   0  0  0  0  0  2  0  0  0  0  0  0
  -39.3390  -67.0770   49.5970 O   0  0  0  0  0  0  0  0  0  0  0  0
  -39.2480  -67.8400   50.7130 C   0  0  0  0  0  0  0  0  0  0  0  0
  -40.2900  -67.8840   51.6120 C   0  0  0  0  0  0  0  0  0  0  0  0
  -41.8500  -66.8550   51.2430 Br  0  0  0  0  0  0  0  0  0  0  0  0
  -40.2340  -68.6560   52.7710 C   0  0  0  0  0  3  0  0  0  0  0  0
  -39.1170  -69.3930   53.0350 C   0  0  0  0  0  0  0  0  0  0  0  0
  -38.0540  -69.3690   52.1530 C   0  0  0  0  0  3  0  0  0  0  0  0
  -39.0640  -70.2180   54.2810 C   0  0  0  0  0  1  0  0  0  0  0  0
  -38.1280  -68.5900   50.9940 C   0  0  0  0  0  0  0  0  0  0  0  0
  -36.6690  -68.5490   49.7720 Br  0  0  0  0  0  0  0  0  0  0  0  0
  -39.0590  -66.6160   47.1430 O   0  0  0  0  0  0  0  0  0  0  0  0
  -39.7000  -66.0670   46.6080 H   0  0  0  0  0  0  0  0  0  0  0  0
  1 16  1  0  0  0  0
  1  2  1  0  0  0  0
  2  3  1  0  0  0  0
  3 14  1  6  0  0  0
  3  4  1  0  0  0  0
  5  4  1  0  0  0  0
  5 10  1  0  0  0  0
  6  5  1  0  0  0  0
  7  6  2  0  0  0  0
  7  8  1  0  0  0  0
  8  9  2  0  0  0  0
  9 10  1  0  0  0  0
 10 11  2  0  0  0  0
 12 13  1  1  0  0  0
 12  6  1  0  0  0  0
 12 14  1  0  0  0  0
 13  1  1  0  0  0  0
 15  1  1  0  0  0  0
 17 16  1  6  0  0  0
 17 18  1  0  0  0  0
 18 19  1  0  0  0  0
 19 20  1  0  0  0  0
 20 27  2  0  0  0  0
 20 21  1  0  0  0  0
 21 23  2  0  0  0  0
 22 21  1  0  0  0  0
 23 24  1  0  0  0  0
 24 26  1  0  0  0  0
 25 24  2  0  0  0  0
 27 25  1  0  0  0  0
 28 27  1  0  0  0  0
 29 17  1  0  0  0  0
 30 29  1  0  0  0  0
M  END
>  <Pose>
1

>  <Score>
-7.679

$$$$
