/Users/jonathanwahrer/Desktop/Msc/3_Semester/Drug_Design_Praktikum/waehrer_HTS_screening/HTS_experiment/out/docking_results/vina_output/3e7o/1732_docked.pdbqt
 OpenBabel03192216393D

 28 31  0  0  0  0  0  0  0  0999 V2000
  -39.7860  -65.6350   48.6640 N   0  0  0  0  0  0  0  0  0  0  0  0
  -39.2860  -66.1150   47.5370 N   0  0  0  0  0  2  0  0  0  0  0  0
  -38.1450  -66.7490   47.7820 N   0  0  0  0  0  0  0  0  0  0  0  0
  -37.9010  -66.6760   49.1080 C   0  0  0  0  0  0  0  0  0  0  0  0
  -38.9340  -65.9830   49.6140 N   0  0  0  0  0  2  0  0  0  0  0  0
  -41.0330  -64.8710   48.8300 C   0  0  0  0  0  2  0  0  0  0  0  0
  -41.5350  -64.9830   50.2250 C   0  0  0  0  0  0  0  0  0  0  0  0
  -42.0340  -66.1850   50.7270 N   0  0  0  0  0  0  0  0  0  0  0  0
  -42.0280  -67.0040   50.0480 H   0  0  0  0  0  0  0  0  0  0  0  0
  -41.4890  -63.9520   50.9210 O   0  0  0  0  0  0  0  0  0  0  0  0
  -42.5450  -66.4620   52.0130 C   0  0  0  0  0  0  0  0  0  0  0  0
  -41.8210  -67.2470   52.9110 C   0  0  0  0  0  0  0  0  0  0  0  0
  -40.1440  -67.9250   52.3510 Br  0  0  0  0  0  0  0  0  0  0  0  0
  -42.2530  -67.5570   54.1770 C   0  0  0  0  0  3  0  0  0  0  0  0
  -43.4700  -67.0780   54.6080 C   0  0  0  0  0  3  0  0  0  0  0  0
  -44.2290  -66.2990   53.7710 C   0  0  0  0  0  3  0  0  0  0  0  0
  -43.7580  -66.0020   52.4890 C   0  0  0  0  0  3  0  0  0  0  0  0
  -36.7610  -67.2330   49.8210 C   0  0  0  0  0  0  0  0  0  0  0  0
  -35.6110  -66.4820   49.8890 C   0  0  0  0  0  0  0  0  0  0  0  0
  -34.5270  -67.0130   50.5680 C   0  0  0  0  0  3  0  0  0  0  0  0
  -34.5700  -68.2490   51.1630 C   0  0  0  0  0  3  0  0  0  0  0  0
  -35.7240  -69.0040   51.0950 C   0  0  0  0  0  3  0  0  0  0  0  0
  -36.8060  -68.4720   50.4170 C   0  0  0  0  0  3  0  0  0  0  0  0
  -35.4890  -65.1900   49.2960 N   0  0  0  0  0  0  0  0  0  0  0  0
  -35.9680  -64.0770   49.8370 N   0  0  0  0  0  0  0  0  0  0  0  0
  -35.6890  -63.0670   49.0420 N   0  0  0  0  0  0  0  0  0  0  0  0
  -35.0290  -63.5420   47.9890 N   0  0  0  0  0  0  0  0  0  0  0  0
  -34.9040  -64.8760   48.1490 C   0  0  0  0  0  3  0  0  0  0  0  0
  1  6  1  0  0  0  0
  1  5  1  0  0  0  0
  2  3  1  0  0  0  0
  2  1  1  0  0  0  0
  3  4  2  0  0  0  0
  4  5  1  0  0  0  0
  4 18  1  0  0  0  0
  6  7  1  0  0  0  0
  7  8  1  0  0  0  0
  7 10  2  0  0  0  0
  8 11  1  0  0  0  0
  9  8  1  0  0  0  0
 11 17  2  0  0  0  0
 11 12  1  0  0  0  0
 12 14  2  0  0  0  0
 13 12  1  0  0  0  0
 14 15  1  0  0  0  0
 16 15  2  0  0  0  0
 17 16  1  0  0  0  0
 18 19  2  0  0  0  0
 18 23  1  0  0  0  0
 19 20  1  0  0  0  0
 20 21  2  0  0  0  0
 22 21  1  0  0  0  0
 23 22  2  0  0  0  0
 24 25  1  0  0  0  0
 24 19  1  0  0  0  0
 26 25  2  0  0  0  0
 27 28  2  0  0  0  0
 27 26  1  0  0  0  0
 28 24  1  0  0  0  0
M  END
>  <Pose>
1

>  <Score>
-8.561

$$$$
