/Users/jonathanwahrer/Desktop/Msc/3_Semester/Drug_Design_Praktikum/waehrer_HTS_screening/HTS_experiment/out/docking_results/vina_output/3e7o/1736_docked.pdbqt
 OpenBabel03192216393D

 35 39  0  0  1  0  0  0  0  0999 V2000
  -44.3370  -58.4620   49.8210 Cl  0  0  0  0  0  0  0  0  0  0  0  0
  -45.0630  -59.8860   49.0580 C   0  0  0  0  0  0  0  0  0  0  0  0
  -44.3470  -60.6530   48.1720 C   0  0  0  0  0  3  0  0  0  0  0  0
  -44.9160  -61.7520   47.5870 C   0  0  0  0  0  0  0  0  0  0  0  0
  -46.2120  -62.0830   47.8940 C   0  0  0  0  0  0  0  0  0  0  0  0
  -46.9630  -61.3240   48.7910 C   0  0  0  0  0  3  0  0  0  0  0  0
  -46.3630  -60.2250   49.3630 C   0  0  0  0  0  3  0  0  0  0  0  0
  -46.6240  -63.2420   47.1930 N   0  0  0  0  0  0  0  0  0  0  0  0
  -45.5170  -63.6520   46.4040 C   0  0  0  0  0  0  0  0  0  0  0  0
  -45.4950  -64.6400   45.6390 O   0  0  0  0  0  0  0  0  0  0  0  0
  -44.3810  -62.7360   46.6170 C   0  0  1  0  0  0  0  0  0  0  0  0
  -43.9350  -62.1140   45.3950 N   0  0  0  0  0  0  0  0  0  0  0  0
  -42.5120  -61.9940   45.4610 C   0  0  1  0  0  3  0  0  0  0  0  0
  -42.0080  -63.1750   46.2580 C   0  0  2  0  0  3  0  0  0  0  0  0
  -43.2050  -63.4910   47.1190 C   0  0  1  0  0  3  0  0  0  0  0  0
  -42.8160  -63.1680   48.5130 C   0  0  0  0  0  0  0  0  0  0  0  0
  -43.5510  -62.9350   49.5060 O   0  0  0  0  0  0  0  0  0  0  0  0
  -41.3740  -63.1690   48.5290 N   0  0  0  0  0  0  0  0  0  0  0  0
  -40.9200  -62.8210   47.2050 C   0  0  0  0  0  0  0  0  0  0  0  0
  -39.8140  -62.3120   46.8870 O   0  0  0  0  0  0  0  0  0  0  0  0
  -47.5620  -63.7400   47.2190 H   0  0  0  0  0  0  0  0  0  0  0  0
  -44.4010  -61.2110   45.2620 H   0  0  0  0  0  0  0  0  0  0  0  0
  -41.8860  -61.9410   44.0840 C   0  0  1  0  0  3  0  0  0  0  0  0
  -41.0330  -60.6770   44.0440 C   0  0  0  0  0  1  0  0  0  0  0  0
  -41.0030  -63.0120   43.9820 O   0  0  0  0  0  0  0  0  0  0  0  0
  -40.9320  -63.4650   44.8520 H   0  0  0  0  0  0  0  0  0  0  0  0
  -40.5170  -63.4630   49.6580 C   0  0  0  0  0  2  0  0  0  0  0  0
  -40.6730  -64.8930   50.0610 C   0  0  0  0  0  0  0  0  0  0  0  0
  -41.3310  -65.2320   51.2240 C   0  0  0  0  0  0  0  0  0  0  0  0
  -41.4630  -66.5640   51.5750 C   0  0  0  0  0  3  0  0  0  0  0  0
  -40.9530  -67.5810   50.7900 C   0  0  0  0  0  3  0  0  0  0  0  0
  -40.2940  -67.2540   49.6260 C   0  0  0  0  0  3  0  0  0  0  0  0
  -40.1700  -65.9250   49.2890 C   0  0  0  0  0  3  0  0  0  0  0  0
  -41.8460  -64.2010   52.0170 O   0  0  0  0  0  0  0  0  0  0  0  0
  -42.9290  -64.5030   52.9030 C   0  0  0  0  0  1  0  0  0  0  0  0
  2  7  1  0  0  0  0
  2  1  1  0  0  0  0
  3  2  2  0  0  0  0
  4  5  2  0  0  0  0
  4  3  1  0  0  0  0
  5  6  1  0  0  0  0
  6  7  2  0  0  0  0
  8 21  1  0  0  0  0
  8  5  1  0  0  0  0
  9  8  1  0  0  0  0
 10  9  2  0  0  0  0
 11  9  1  6  0  0  0
 11 15  1  0  0  0  0
 11  4  1  0  0  0  0
 12 13  1  0  0  0  0
 12 11  1  0  0  0  0
 13 23  1  6  0  0  0
 13 14  1  0  0  0  0
 14 15  1  0  0  0  0
 14 19  1  1  0  0  0
 15 16  1  1  0  0  0
 16 18  1  0  0  0  0
 16 17  2  0  0  0  0
 18 27  1  0  0  0  0
 19 18  1  0  0  0  0
 20 19  2  0  0  0  0
 22 12  1  0  0  0  0
 23 24  1  1  0  0  0
 25 23  1  0  0  0  0
 25 26  1  0  0  0  0
 27 28  1  0  0  0  0
 28 29  1  0  0  0  0
 29 30  2  0  0  0  0
 29 34  1  0  0  0  0
 31 30  1  0  0  0  0
 32 31  2  0  0  0  0
 33 32  1  0  0  0  0
 33 28  2  0  0  0  0
 34 35  1  0  0  0  0
M  END
>  <Pose>
1

>  <Score>
-5.768

$$$$
