/Users/jonathanwahrer/Desktop/Msc/3_Semester/Drug_Design_Praktikum/waehrer_HTS_screening/HTS_experiment/out/docking_results/vina_output/3e7o/1741_docked.pdbqt
 OpenBabel03192216393D

 28 31  0  0  0  0  0  0  0  0999 V2000
  -40.4620  -64.4430   49.9880 C   0  0  0  0  0  0  0  0  0  0  0  0
  -40.3830  -63.6850   50.9750 O   0  0  0  0  0  0  0  0  0  0  0  0
  -39.5740  -64.3020   48.9130 N   0  0  0  0  0  0  0  0  0  0  0  0
  -38.5280  -63.3030   48.8710 C   0  0  0  0  0  2  0  0  0  0  0  0
  -37.2320  -64.0340   48.5590 C   0  0  0  0  0  2  0  0  0  0  0  0
  -37.4040  -65.4260   48.5720 N   0  0  0  0  0  0  0  0  0  0  0  0
  -38.3690  -66.0260   47.7450 C   0  0  0  0  0  2  0  0  0  0  0  0
  -39.6330  -65.1720   47.7280 C   0  0  0  0  0  2  0  0  0  0  0  0
  -41.5260  -65.5050   49.9790 C   0  0  0  0  0  2  0  0  0  0  0  0
  -41.7130  -66.0890   51.2900 N   0  0  0  0  0  0  0  0  0  0  0  0
  -40.9680  -67.1040   51.8140 C   0  0  0  0  0  0  0  0  0  0  0  0
  -41.4120  -67.4210   53.0760 C   0  0  0  0  0  0  0  0  0  0  0  0
  -39.9070  -67.7940   51.2740 C   0  0  0  0  0  3  0  0  0  0  0  0
  -40.8210  -68.4260   53.8350 C   0  0  0  0  0  3  0  0  0  0  0  0
  -42.4670  -66.5780   53.3500 C   0  0  0  0  0  3  0  0  0  0  0  0
  -39.7440  -69.1310   53.2930 C   0  0  0  0  0  0  0  0  0  0  0  0
  -38.9060  -70.5230   54.3120 Br  0  0  0  0  0  0  0  0  0  0  0  0
  -39.3110  -68.8010   52.0260 C   0  0  0  0  0  3  0  0  0  0  0  0
  -42.6140  -65.7830   52.2310 C   0  0  0  0  0  3  0  0  0  0  0  0
  -36.7350  -66.2010   49.5330 C   0  0  0  0  0  2  0  0  0  0  0  0
  -35.4620  -66.8040   49.0580 C   0  0  0  0  0  0  0  0  0  0  0  0
  -35.5490  -67.9160   48.4780 O   0  0  0  0  0  0  0  0  0  0  0  0
  -34.2040  -66.2070   49.2250 N   0  0  0  0  0  0  0  0  0  0  0  0
  -33.0080  -66.8680   48.7410 C   0  0  0  0  0  2  0  0  0  0  0  0
  -33.9950  -64.9270   49.8720 C   0  0  0  0  0  2  0  0  0  0  0  0
  -32.2850  -65.8820   47.8470 C   0  0  0  0  0  2  0  0  0  0  0  0
  -31.8760  -64.8400   48.6930 O   0  0  0  0  0  0  0  0  0  0  0  0
  -32.9480  -64.1280   49.1770 C   0  0  0  0  0  2  0  0  0  0  0  0
  1  2  2  0  0  0  0
  3  1  1  0  0  0  0
  4  3  1  0  0  0  0
  5  6  1  0  0  0  0
  5  4  1  0  0  0  0
  6 20  1  0  0  0  0
  7  6  1  0  0  0  0
  8  7  1  0  0  0  0
  8  3  1  0  0  0  0
  9  1  1  0  0  0  0
  9 10  1  0  0  0  0
 10 11  1  0  0  0  0
 10 19  1  0  0  0  0
 11 12  1  0  0  0  0
 12 15  1  0  0  0  0
 12 14  2  0  0  0  0
 13 11  2  0  0  0  0
 13 18  1  0  0  0  0
 16 14  1  0  0  0  0
 16 17  1  0  0  0  0
 18 16  2  0  0  0  0
 19 15  2  0  0  0  0
 21 23  1  0  0  0  0
 21 20  1  0  0  0  0
 22 21  2  0  0  0  0
 23 25  1  0  0  0  0
 24 23  1  0  0  0  0
 26 27  1  0  0  0  0
 26 24  1  0  0  0  0
 27 28  1  0  0  0  0
 28 25  1  0  0  0  0
M  END
>  <Pose>
1

>  <Score>
-8.140

$$$$
