MODEL 1
REMARK VINA RESULT:    -8.527      0.000      0.000
REMARK INTER + INTRA:         -11.834
REMARK INTER:                 -10.771
REMARK INTRA:                  -1.064
REMARK UNBOUND:                -1.064
REMARK  5 active torsions:
REMARK  status: ('A' for Active; 'I' for Inactive)
REMARK    1  A    between atoms: C_4  and  N_8 
REMARK    2  A    between atoms: C_14  and  C_17 
REMARK    3  A    between atoms: C_19  and  C_22 
REMARK    4  A    between atoms: C_24  and  O_30 
REMARK    5  A    between atoms: C_25  and  O_28 
ROOT
ATOM      1  N   UNK d   1     -37.768 -64.500  48.301  0.00  0.00    -0.233 N 
ATOM      2  C   UNK d   1     -37.505 -63.133  48.613  0.00  0.00     0.336 C 
ATOM      3  O   UNK d   1     -36.355 -62.677  48.823  0.00  0.00    -0.246 OA
ATOM      4  N   UNK d   1     -38.609 -62.234  48.688  0.00  0.00    -0.277 N 
ATOM      5  C   UNK d   1     -39.937 -62.727  48.451  0.00  0.00     0.244 C 
ATOM      6  O   UNK d   1     -40.840 -61.838  48.298  0.00  0.00    -0.272 OA
ATOM      7  C   UNK d   1     -40.251 -64.167  48.386  0.00  0.00     0.221 C 
ATOM      8  C   UNK d   1     -39.074 -65.008  48.058  0.00  0.00     0.251 C 
ATOM      9  O   UNK d   1     -39.274 -66.149  47.574  0.00  0.00    -0.271 OA
ATOM     10  H   UNK d   1     -38.487 -61.213  48.913  0.00  0.00     0.173 HD
ENDROOT
BRANCH   7  11
ATOM     11  C   UNK d   1     -40.870 -64.633  49.683  0.00  0.00     0.041 C 
ATOM     12  C   UNK d   1     -40.388 -64.346  50.879  0.00  0.00     0.026 C 
ATOM     13  C   UNK d   1     -41.304 -65.007  51.835  0.00  0.00     0.134 C 
ATOM     14  N   UNK d   1     -42.553 -65.018  51.095  0.00  0.00    -0.228 NA
ATOM     15  N   UNK d   1     -42.058 -65.411  49.827  0.00  0.00    -0.323 N 
ATOM     16  H   UNK d   1     -43.278 -65.635  51.469  0.00  0.00     0.147 HD
ATOM     17  H   UNK d   1     -42.400 -66.073  49.131  0.00  0.00     0.180 HD
BRANCH  13  18
ATOM     18  C   UNK d   1     -40.852 -66.396  52.126  0.00  0.00    -0.032 A 
ATOM     19  C   UNK d   1     -39.816 -67.030  51.501  0.00  0.00     0.048 A 
ATOM     20  C   UNK d   1     -39.411 -68.307  51.836  0.00  0.00     0.099 A 
ATOM     21  C   UNK d   1     -40.058 -69.004  52.840  0.00  0.00     0.101 A 
ATOM     22  C   UNK d   1     -41.122 -68.346  53.479  0.00  0.00     0.040 A 
ATOM     23  C   UNK d   1     -41.512 -67.074  53.132  0.00  0.00     0.012 A 
BRANCH  20  24
ATOM     24  O   UNK d   1     -38.340 -68.917  51.160  0.00  0.00    -0.358 OA
ATOM     25  H   UNK d   1     -38.432 -69.895  50.904  0.00  0.00     0.217 HD
ENDBRANCH  20  24
BRANCH  21  26
ATOM     26  O   UNK d   1     -39.680 -70.274  53.204  0.00  0.00    -0.353 OA
ATOM     27  C   UNK d   1     -38.886 -70.518  54.347  0.00  0.00     0.210 C 
ENDBRANCH  21  26
ENDBRANCH  13  18
ENDBRANCH   7  11
BRANCH   1  28
ATOM     28  C   UNK d   1     -36.653 -65.383  48.248  0.00  0.00     0.048 A 
ATOM     29  C   UNK d   1     -36.251 -66.102  49.360  0.00  0.00     0.054 A 
ATOM     30  C   UNK d   1     -35.190 -66.973  49.339  0.00  0.00     0.036 A 
ATOM     31 Cl   UNK d   1     -34.716 -67.854  50.768  0.00  0.00    -0.084 Cl
ATOM     32  C   UNK d   1     -34.506 -67.122  48.146  0.00  0.00     0.024 A 
ATOM     33  C   UNK d   1     -34.875 -66.422  47.015  0.00  0.00     0.004 A 
ATOM     34  C   UNK d   1     -35.958 -65.552  47.089  0.00  0.00     0.030 A 
ENDBRANCH   1  28
TORSDOF 5
ENDMDL
