/Users/jonathanwahrer/Desktop/Msc/3_Semester/Drug_Design_Praktikum/waehrer_HTS_screening/HTS_experiment/out/docking_results/vina_output/3e7o/1745_docked.pdbqt
 OpenBabel03192216403D

 34 37  0  0  1  0  0  0  0  0999 V2000
  -36.6760  -65.5660   48.7120 N   0  0  0  0  0  0  0  0  0  0  0  0
  -36.9410  -64.1870   48.9120 C   0  0  0  0  0  0  0  0  0  0  0  0
  -36.1980  -63.4800   49.6050 O   0  0  0  0  0  0  0  0  0  0  0  0
  -38.0940  -63.5840   48.3060 N   0  0  0  0  0  0  0  0  0  0  0  0
  -38.9830  -64.3510   47.4960 C   0  0  0  0  0  0  0  0  0  0  0  0
  -39.7130  -63.8310   46.6350 O   0  0  0  0  0  0  0  0  0  0  0  0
  -39.0290  -65.8420   47.7050 C   0  0  1  0  0  3  0  0  0  0  0  0
  -37.6270  -66.2730   47.8870 C   0  0  0  0  0  0  0  0  0  0  0  0
  -37.1790  -67.3250   47.3020 O   0  0  0  0  0  0  0  0  0  0  0  0
  -38.2680  -62.5840   48.4640 H   0  0  0  0  0  0  0  0  0  0  0  0
  -39.8940  -66.1460   48.8840 C   0  0  2  0  0  3  0  0  0  0  0  0
  -40.8250  -67.0680   49.0150 C   0  0  0  0  0  2  0  0  0  0  0  0
  -41.4040  -66.9690   50.3840 C   0  0  2  0  0  3  0  0  0  0  0  0
  -41.0970  -65.5520   50.7070 N   0  0  0  0  0  0  0  0  0  0  0  0
  -39.8390  -65.4030   50.1090 N   0  0  0  0  0  0  0  0  0  0  0  0
  -41.8170  -64.9320   50.2880 H   0  0  0  0  0  0  0  0  0  0  0  0
  -39.0370  -64.8820   50.4500 H   0  0  0  0  0  0  0  0  0  0  0  0
  -40.5770  -67.7790   51.3190 C   0  0  0  0  0  0  0  0  0  0  0  0
  -40.8590  -67.8230   52.7020 C   0  0  0  0  0  3  0  0  0  0  0  0
  -40.1540  -68.5750   53.5890 C   0  0  0  0  0  0  0  0  0  0  0  0
  -39.1000  -69.3480   53.1390 C   0  0  0  0  0  0  0  0  0  0  0  0
  -38.7960  -69.3280   51.7970 C   0  0  0  0  0  3  0  0  0  0  0  0
  -39.5190  -68.5620   50.9100 C   0  0  0  0  0  3  0  0  0  0  0  0
  -40.4740  -68.5790   54.9540 O   0  0  0  0  0  0  0  0  0  0  0  0
  -41.7830  -68.9190   55.3580 C   0  0  0  0  0  1  0  0  0  0  0  0
  -38.3690  -70.1240   54.0330 O   0  0  0  0  0  0  0  0  0  0  0  0
  -38.6980  -70.2160   54.9850 H   0  0  0  0  0  0  0  0  0  0  0  0
  -35.5490  -66.2560   49.2340 C   0  0  0  0  0  0  0  0  0  0  0  0
  -35.7820  -67.2530   50.1890 C   0  0  0  0  0  3  0  0  0  0  0  0
  -34.7560  -67.9690   50.7660 C   0  0  0  0  0  0  0  0  0  0  0  0
  -35.1420  -69.1880   51.9500 Cl  0  0  0  0  0  0  0  0  0  0  0  0
  -33.4490  -67.7360   50.4290 C   0  0  0  0  0  3  0  0  0  0  0  0
  -33.2060  -66.7440   49.4750 C   0  0  0  0  0  3  0  0  0  0  0  0
  -34.2390  -66.0310   48.9030 C   0  0  0  0  0  3  0  0  0  0  0  0
  1  2  1  0  0  0  0
  1 28  1  0  0  0  0
  2  3  2  0  0  0  0
  4 10  1  0  0  0  0
  4  2  1  0  0  0  0
  5  4  1  0  0  0  0
  6  5  2  0  0  0  0
  7  5  1  1  0  0  0
  7  8  1  0  0  0  0
  7 11  1  0  0  0  0
  8  1  1  0  0  0  0
  9  8  2  0  0  0  0
 11 12  1  6  0  0  0
 11 15  1  0  0  0  0
 12 13  1  0  0  0  0
 13 14  1  0  0  0  0
 13 18  1  1  0  0  0
 15 17  1  0  0  0  0
 15 14  1  0  0  0  0
 16 14  1  0  0  0  0
 18 19  1  0  0  0  0
 19 20  2  0  0  0  0
 20 24  1  0  0  0  0
 21 20  1  0  0  0  0
 21 26  1  0  0  0  0
 22 21  2  0  0  0  0
 23 18  2  0  0  0  0
 23 22  1  0  0  0  0
 24 25  1  0  0  0  0
 26 27  1  0  0  0  0
 28 29  1  0  0  0  0
 29 30  2  0  0  0  0
 30 31  1  0  0  0  0
 32 30  1  0  0  0  0
 33 32  2  0  0  0  0
 34 28  2  0  0  0  0
 34 33  1  0  0  0  0
M  END
>  <Pose>
1

>  <Score>
-8.386

$$$$
