MODEL 1
REMARK VINA RESULT:    -8.386      0.000      0.000
REMARK INTER + INTRA:         -11.360
REMARK INTER:                 -10.593
REMARK INTRA:                  -0.767
REMARK UNBOUND:                -0.767
REMARK  5 active torsions:
REMARK  status: ('A' for Active; 'I' for Inactive)
REMARK    1  A    between atoms: C_4  and  N_8 
REMARK    2  A    between atoms: C_14  and  C_17 
REMARK    3  A    between atoms: C_19  and  C_22 
REMARK    4  A    between atoms: C_24  and  O_29 
REMARK    5  A    between atoms: C_25  and  O_28 
ROOT
ATOM      1  N   UNK d   1     -36.676 -65.566  48.712  0.00  0.00    -0.233 N 
ATOM      2  C   UNK d   1     -36.941 -64.187  48.912  0.00  0.00     0.336 C 
ATOM      3  O   UNK d   1     -36.198 -63.480  49.605  0.00  0.00    -0.246 OA
ATOM      4  N   UNK d   1     -38.094 -63.584  48.306  0.00  0.00    -0.277 N 
ATOM      5  C   UNK d   1     -38.983 -64.351  47.496  0.00  0.00     0.244 C 
ATOM      6  O   UNK d   1     -39.713 -63.831  46.635  0.00  0.00    -0.272 OA
ATOM      7  C   UNK d   1     -39.029 -65.842  47.705  0.00  0.00     0.221 C 
ATOM      8  C   UNK d   1     -37.627 -66.273  47.887  0.00  0.00     0.251 C 
ATOM      9  O   UNK d   1     -37.179 -67.325  47.302  0.00  0.00    -0.271 OA
ATOM     10  H   UNK d   1     -38.268 -62.584  48.464  0.00  0.00     0.173 HD
ENDROOT
BRANCH   7  11
ATOM     11  C   UNK d   1     -39.894 -66.146  48.884  0.00  0.00     0.041 C 
ATOM     12  C   UNK d   1     -40.825 -67.068  49.015  0.00  0.00     0.026 C 
ATOM     13  C   UNK d   1     -41.404 -66.969  50.384  0.00  0.00     0.134 C 
ATOM     14  N   UNK d   1     -41.097 -65.552  50.707  0.00  0.00    -0.228 NA
ATOM     15  N   UNK d   1     -39.839 -65.403  50.109  0.00  0.00    -0.323 N 
ATOM     16  H   UNK d   1     -41.817 -64.932  50.288  0.00  0.00     0.147 HD
ATOM     17  H   UNK d   1     -39.037 -64.882  50.450  0.00  0.00     0.180 HD
BRANCH  13  18
ATOM     18  C   UNK d   1     -40.577 -67.779  51.319  0.00  0.00    -0.032 A 
ATOM     19  C   UNK d   1     -40.859 -67.823  52.702  0.00  0.00     0.048 A 
ATOM     20  C   UNK d   1     -40.154 -68.575  53.589  0.00  0.00     0.101 A 
ATOM     21  C   UNK d   1     -39.100 -69.348  53.139  0.00  0.00     0.099 A 
ATOM     22  C   UNK d   1     -38.796 -69.328  51.797  0.00  0.00     0.040 A 
ATOM     23  C   UNK d   1     -39.519 -68.562  50.910  0.00  0.00     0.012 A 
BRANCH  20  24
ATOM     24  O   UNK d   1     -40.474 -68.579  54.954  0.00  0.00    -0.353 OA
ATOM     25  C   UNK d   1     -41.783 -68.919  55.358  0.00  0.00     0.210 C 
ENDBRANCH  20  24
BRANCH  21  26
ATOM     26  O   UNK d   1     -38.369 -70.124  54.033  0.00  0.00    -0.358 OA
ATOM     27  H   UNK d   1     -38.698 -70.216  54.985  0.00  0.00     0.217 HD
ENDBRANCH  21  26
ENDBRANCH  13  18
ENDBRANCH   7  11
BRANCH   1  28
ATOM     28  C   UNK d   1     -35.549 -66.256  49.234  0.00  0.00     0.048 A 
ATOM     29  C   UNK d   1     -35.782 -67.253  50.189  0.00  0.00     0.054 A 
ATOM     30  C   UNK d   1     -34.756 -67.969  50.766  0.00  0.00     0.036 A 
ATOM     31 Cl   UNK d   1     -35.142 -69.188  51.950  0.00  0.00    -0.084 Cl
ATOM     32  C   UNK d   1     -33.449 -67.736  50.429  0.00  0.00     0.024 A 
ATOM     33  C   UNK d   1     -33.206 -66.744  49.475  0.00  0.00     0.004 A 
ATOM     34  C   UNK d   1     -34.239 -66.031  48.903  0.00  0.00     0.030 A 
ENDBRANCH   1  28
TORSDOF 5
ENDMDL
