MODEL 1
REMARK VINA RESULT:    -7.621      0.000      0.000
REMARK INTER + INTRA:          -9.459
REMARK INTER:                  -8.957
REMARK INTRA:                  -0.502
REMARK UNBOUND:                -0.502
REMARK  3 active torsions:
REMARK  status: ('A' for Active; 'I' for Inactive)
REMARK    1  A    between atoms: S_1  and  N_4 
REMARK    2  A    between atoms: S_1  and  N_22 
REMARK       I    between atoms: N_7  and  C_10 
REMARK    3  A    between atoms: C_10  and  C_12 
ROOT
ATOM      1  N   UNK d   1     -35.067 -63.796  48.453  0.00  0.00    -0.295 N 
ATOM      2  C   UNK d   1     -36.086 -63.435  49.390  0.00  0.00     0.156 C 
ATOM      3  C   UNK d   1     -37.048 -64.573  49.673  0.00  0.00     0.147 C 
ATOM      4  N   UNK d   1     -37.475 -65.146  48.424  0.00  0.00    -0.344 N 
ATOM      5  C   UNK d   1     -37.053 -64.499  47.198  0.00  0.00     0.147 C 
ATOM      6  C   UNK d   1     -35.546 -64.380  47.247  0.00  0.00     0.156 C 
ATOM      7  C   UNK d   1     -38.288 -66.312  48.346  0.00  0.00     0.274 C 
ATOM      8  O   UNK d   1     -38.646 -66.792  47.246  0.00  0.00    -0.266 OA
ENDROOT
BRANCH   7   9
ATOM      9  C   UNK d   1     -38.735 -66.992  49.564  0.00  0.00     0.142 A 
ATOM     10  N   UNK d   1     -38.067 -67.971  50.234  0.00  0.00    -0.224 NA
ATOM     11  C   UNK d   1     -38.793 -68.344  51.299  0.00  0.00     0.134 A 
ATOM     12  N   UNK d   1     -39.903 -67.607  51.297  0.00  0.00    -0.313 N 
ATOM     13  C   UNK d   1     -38.593 -69.280  52.302  0.00  0.00     0.052 A 
ATOM     14  C   UNK d   1     -39.893 -66.774  50.248  0.00  0.00     0.135 A 
ATOM     15  C   UNK d   1     -40.807 -67.794  52.278  0.00  0.00     0.122 A 
ATOM     16  C   UNK d   1     -40.662 -68.702  53.291  0.00  0.00     0.050 A 
ATOM     17  C   UNK d   1     -39.510 -69.480  53.309  0.00  0.00     0.029 A 
ATOM     18 Cl   UNK d   1     -41.865 -68.920  54.557  0.00  0.00    -0.083 Cl
ENDBRANCH   7   9
BRANCH   1  19
ATOM     19  S   UNK d   1     -33.695 -64.529  49.112  0.00  0.00     0.301 S 
ATOM     20  O   UNK d   1     -32.648 -63.499  49.388  0.00  0.00    -0.188 OA
ATOM     21  O   UNK d   1     -34.075 -65.178  50.413  0.00  0.00    -0.188 OA
BRANCH  19  22
ATOM     22  N   UNK d   1     -33.008 -65.747  48.114  0.00  0.00    -0.189 NA
ATOM     23  C   UNK d   1     -32.464 -66.850  48.883  0.00  0.00     0.135 C 
ATOM     24  C   UNK d   1     -31.424 -67.526  48.022  0.00  0.00     0.183 C 
ATOM     25  O   UNK d   1     -31.765 -67.481  46.674  0.00  0.00    -0.389 OA
ATOM     26  C   UNK d   1     -31.725 -66.190  46.153  0.00  0.00     0.183 C 
ATOM     27  C   UNK d   1     -31.916 -65.230  47.310  0.00  0.00     0.135 C 
ENDBRANCH  19  22
ENDBRANCH   1  19
TORSDOF 3
ENDMDL
