MODEL 1
REMARK VINA RESULT:    -8.024      0.000      0.000
REMARK INTER + INTRA:         -12.045
REMARK INTER:                 -10.838
REMARK INTRA:                  -1.207
REMARK UNBOUND:                -1.207
REMARK  6 active torsions:
REMARK  status: ('A' for Active; 'I' for Inactive)
REMARK    1  A    between atoms: S_1  and  N_4 
REMARK    2  A    between atoms: S_1  and  C_21 
REMARK    3  A    between atoms: C_5  and  C_9 
REMARK       I    between atoms: C_9  and  N_11 
REMARK    4  A    between atoms: N_11  and  C_12 
REMARK    5  A    between atoms: C_12  and  C_13 
REMARK    6  A    between atoms: C_13  and  N_14 
ROOT
ATOM      1  N   UNK d   1     -38.732 -63.809  48.169  0.00  0.00    -0.293 N 
ATOM      2  C   UNK d   1     -39.591 -63.205  49.068  0.00  0.00     0.188 C 
ATOM      3  C   UNK d   1     -40.383 -62.175  48.250  0.00  0.00     0.037 C 
ATOM      4  C   UNK d   1     -40.556 -62.901  46.934  0.00  0.00     0.023 C 
ATOM      5  C   UNK d   1     -39.346 -63.800  46.844  0.00  0.00     0.136 C 
ENDROOT
BRANCH   1   6
ATOM      6  S   UNK d   1     -37.080 -63.648  48.151  0.00  0.00     0.263 S 
ATOM      7  O   UNK d   1     -36.614 -62.293  48.681  0.00  0.00    -0.200 OA
ATOM      8  O   UNK d   1     -36.612 -63.642  46.695  0.00  0.00    -0.200 OA
BRANCH   6   9
ATOM      9  C   UNK d   1     -36.200 -64.908  48.964  0.00  0.00     0.104 A 
ATOM     10  C   UNK d   1     -36.903 -66.034  49.425  0.00  0.00     0.066 A 
ATOM     11  C   UNK d   1     -36.328 -67.054  50.127  0.00  0.00     0.097 A 
ATOM     12  C   UNK d   1     -34.974 -66.954  50.390  0.00  0.00     0.070 A 
ATOM     13  O   UNK d   1     -37.027 -68.163  50.579  0.00  0.00    -0.340 OA
ATOM     14  C   UNK d   1     -34.231 -65.891  49.973  0.00  0.00     0.058 A 
ATOM     15  N   UNK d   1     -34.355 -68.022  51.123  0.00  0.00    -0.323 N 
ATOM     16  C   UNK d   1     -34.867 -64.881  49.260  0.00  0.00     0.059 A 
ATOM     17 Cl   UNK d   1     -33.827 -63.604  48.670  0.00  0.00    -0.083 Cl
ATOM     18  C   UNK d   1     -35.143 -69.132  51.548  0.00  0.00     0.246 C 
ATOM     19  H   UNK d   1     -33.328 -67.960  51.331  0.00  0.00     0.169 HD
ATOM     20  O   UNK d   1     -34.783 -69.816  52.522  0.00  0.00    -0.271 OA
ATOM     21  C   UNK d   1     -36.383 -69.418  50.784  0.00  0.00     0.278 C 
ENDBRANCH   6   9
ENDBRANCH   1   6
BRANCH   2  22
ATOM     22  C   UNK d   1     -40.564 -64.253  49.583  0.00  0.00     0.241 C 
ATOM     23  O   UNK d   1     -41.675 -63.830  49.927  0.00  0.00    -0.271 OA
ATOM     24  N   UNK d   1     -40.166 -65.600  49.638  0.00  0.00    -0.358 N 
ATOM     25  H   UNK d   1     -39.219 -65.920  49.353  0.00  0.00     0.162 HD
BRANCH  24  26
ATOM     26  C   UNK d   1     -41.081 -66.608  50.114  0.00  0.00     0.152 C 
BRANCH  26  27
ATOM     27  C   UNK d   1     -40.460 -67.832  50.670  0.00  0.00     0.292 C 
BRANCH  27  28
ATOM     28  N   UNK d   1     -40.807 -68.171  52.004  0.00  0.00     0.090 N 
ATOM     29  C   UNK d   1     -40.847 -67.086  52.930  0.00  0.00     0.272 C 
ATOM     30  C   UNK d   1     -42.027 -67.308  53.854  0.00  0.00     0.030 C 
ATOM     31  C   UNK d   1     -41.940 -68.706  54.430  0.00  0.00     0.002 C 
ATOM     32  C   UNK d   1     -40.530 -68.937  54.903  0.00  0.00     0.002 C 
ATOM     33  C   UNK d   1     -39.568 -69.286  53.830  0.00  0.00     0.030 C 
ATOM     34  C   UNK d   1     -40.113 -69.333  52.453  0.00  0.00     0.272 C 
ENDBRANCH  27  28
ENDBRANCH  26  27
ENDBRANCH  24  26
ENDBRANCH   2  22
TORSDOF 6
ENDMDL
