/Users/jonathanwahrer/Desktop/Msc/3_Semester/Drug_Design_Praktikum/waehrer_HTS_screening/HTS_experiment/out/docking_results/vina_output/3e7o/1781_docked.pdbqt
 OpenBabel03192216413D

 24 27  0  0  0  0  0  0  0  0999 V2000
  -40.3030  -65.7890   50.7700 C   0  0  0  0  0  0  0  0  0  0  0  0
  -40.6640  -64.7620   51.4970 O   0  0  0  0  0  0  0  0  0  0  0  0
  -40.2530  -65.5460   49.4050 N   0  0  0  0  0  0  0  0  0  0  0  0
  -39.9680  -66.4050   48.3050 C   0  0  0  0  0  2  0  0  0  0  0  0
  -38.5030  -66.0990   47.9300 C   0  0  0  0  0  2  0  0  0  0  0  0
  -38.3330  -64.6370   48.0200 N   0  0  0  0  0  0  0  0  0  0  0  0
  -39.4970  -63.8150   47.8540 C   0  0  0  0  0  2  0  0  0  0  0  0
  -40.4810  -64.1290   48.9660 C   0  0  0  0  0  2  0  0  0  0  0  0
  -40.0280  -66.9710   51.5370 C   0  0  0  0  0  0  0  0  0  0  0  0
  -40.5890  -67.1140   52.8110 C   0  0  0  0  0  3  0  0  0  0  0  0
  -40.3460  -68.1930   53.6300 C   0  0  0  0  0  3  0  0  0  0  0  0
  -39.5180  -69.2100   53.2250 C   0  0  0  0  0  0  0  0  0  0  0  0
  -39.2040  -70.6000   54.2730 Cl  0  0  0  0  0  0  0  0  0  0  0  0
  -38.9450  -69.1130   51.9840 C   0  0  0  0  0  3  0  0  0  0  0  0
  -39.2020  -68.0040   51.1580 C   0  0  0  0  0  3  0  0  0  0  0  0
  -37.0360  -64.0970   48.2600 C   0  0  0  0  0  0  0  0  0  0  0  0
  -35.9560  -64.9000   48.3820 N   0  0  0  0  0  0  0  0  0  0  0  0
  -34.7400  -64.4360   48.6070 N   0  0  0  0  0  0  0  0  0  0  0  0
  -34.4820  -63.1270   48.7320 C   0  0  0  0  0  0  0  0  0  0  0  0
  -33.5340  -65.0520   48.7620 C   0  0  0  0  0  3  0  0  0  0  0  0
  -33.1600  -62.9280   48.9570 N   0  0  0  0  0  0  0  0  0  0  0  0
  -35.5370  -62.2380   48.6190 C   0  0  0  0  0  3  0  0  0  0  0  0
  -32.5890  -64.1180   48.9720 N   0  0  0  0  0  0  0  0  0  0  0  0
  -36.7930  -62.7480   48.3850 C   0  0  0  0  0  3  0  0  0  0  0  0
  1  2  2  0  0  0  0
  1  9  1  0  0  0  0
  3  1  1  0  0  0  0
  4  3  1  0  0  0  0
  5  6  1  0  0  0  0
  5  4  1  0  0  0  0
  6 16  1  0  0  0  0
  7  6  1  0  0  0  0
  7  8  1  0  0  0  0
  8  3  1  0  0  0  0
  9 10  1  0  0  0  0
 10 11  2  0  0  0  0
 12 11  1  0  0  0  0
 12 13  1  0  0  0  0
 14 12  2  0  0  0  0
 15  9  2  0  0  0  0
 15 14  1  0  0  0  0
 16 17  2  0  0  0  0
 16 24  1  0  0  0  0
 17 18  1  0  0  0  0
 18 19  1  0  0  0  0
 18 20  1  0  0  0  0
 19 21  2  0  0  0  0
 20 23  2  0  0  0  0
 21 23  1  0  0  0  0
 22 19  1  0  0  0  0
 24 22  2  0  0  0  0
M  END
>  <Pose>
1

>  <Score>
-7.925

$$$$
