MODEL 1
REMARK VINA RESULT:    -7.925      0.000      0.000
REMARK INTER + INTRA:          -9.259
REMARK INTER:                  -8.851
REMARK INTRA:                  -0.407
REMARK UNBOUND:                -0.407
REMARK  2 active torsions:
REMARK  status: ('A' for Active; 'I' for Inactive)
REMARK    1  A    between atoms: C_5  and  C_8 
REMARK       I    between atoms: C_8  and  N_10 
REMARK    2  A    between atoms: N_13  and  C_16 
ROOT
ATOM      1  C   UNK d   1     -40.303 -65.789  50.770  0.00  0.00     0.187 C 
ATOM      2  O   UNK d   1     -40.664 -64.762  51.497  0.00  0.00    -0.171 OA
ATOM      3  N   UNK d   1     -40.253 -65.546  49.405  0.00  0.00    -0.356 N 
ATOM      4  C   UNK d   1     -39.968 -66.405  48.305  0.00  0.00     0.145 C 
ATOM      5  C   UNK d   1     -38.503 -66.099  47.930  0.00  0.00     0.144 C 
ATOM      6  N   UNK d   1     -38.333 -64.637  48.020  0.00  0.00    -0.361 N 
ATOM      7  C   UNK d   1     -39.497 -63.815  47.854  0.00  0.00     0.144 C 
ATOM      8  C   UNK d   1     -40.481 -64.129  48.966  0.00  0.00     0.145 C 
ENDROOT
BRANCH   1   9
ATOM      9  C   UNK d   1     -40.028 -66.971  51.537  0.00  0.00     0.018 A 
ATOM     10  C   UNK d   1     -40.589 -67.114  52.811  0.00  0.00     0.017 A 
ATOM     11  C   UNK d   1     -40.346 -68.193  53.630  0.00  0.00     0.025 A 
ATOM     12  C   UNK d   1     -39.518 -69.210  53.225  0.00  0.00     0.034 A 
ATOM     13 Cl   UNK d   1     -39.204 -70.600  54.273  0.00  0.00    -0.084 Cl
ATOM     14  C   UNK d   1     -38.945 -69.113  51.984  0.00  0.00     0.025 A 
ATOM     15  C   UNK d   1     -39.202 -68.004  51.158  0.00  0.00     0.017 A 
ENDBRANCH   1   9
BRANCH   6  16
ATOM     16  C   UNK d   1     -37.036 -64.097  48.260  0.00  0.00     0.146 A 
ATOM     17  N   UNK d   1     -35.956 -64.900  48.382  0.00  0.00    -0.147 NA
ATOM     18  N   UNK d   1     -34.740 -64.436  48.607  0.00  0.00    -0.204 N 
ATOM     19  C   UNK d   1     -34.482 -63.127  48.732  0.00  0.00     0.174 A 
ATOM     20  C   UNK d   1     -33.534 -65.052  48.762  0.00  0.00     0.261 A 
ATOM     21  N   UNK d   1     -33.160 -62.928  48.957  0.00  0.00    -0.129 NA
ATOM     22  C   UNK d   1     -35.537 -62.238  48.619  0.00  0.00     0.058 A 
ATOM     23  N   UNK d   1     -32.589 -64.118  48.972  0.00  0.00    -0.141 NA
ATOM     24  C   UNK d   1     -36.793 -62.748  48.385  0.00  0.00     0.056 A 
ENDBRANCH   6  16
TORSDOF 2
ENDMDL
