MODEL 1
REMARK VINA RESULT:    -7.513      0.000      0.000
REMARK INTER + INTRA:         -10.002
REMARK INTER:                  -9.270
REMARK INTRA:                  -0.732
REMARK UNBOUND:                -0.732
REMARK  4 active torsions:
REMARK  status: ('A' for Active; 'I' for Inactive)
REMARK    1  A    between atoms: C_5  and  N_8 
REMARK    2  A    between atoms: N_15  and  C_18 
REMARK    3  A    between atoms: C_20  and  O_26 
REMARK    4  A    between atoms: C_21  and  O_24 
ROOT
ATOM      1  N   UNK d   1     -47.633 -65.602  53.296  0.00  0.00    -0.234 N 
ATOM      2  N   UNK d   1     -47.790 -64.305  53.182  0.00  0.00    -0.234 N 
ATOM      3  N   UNK d   1     -46.572 -63.772  53.175  0.00  0.00    -0.278 N 
ATOM      4  C   UNK d   1     -45.630 -64.729  53.283  0.00  0.00     0.152 A 
ATOM      5  C   UNK d   1     -46.317 -65.873  53.358  0.00  0.00     0.160 A 
ATOM      6  C   UNK d   1     -45.349 -66.861  53.471  0.00  0.00     0.286 A 
ATOM      7  O   UNK d   1     -45.606 -68.083  53.564  0.00  0.00    -0.265 OA
ATOM      8  N   UNK d   1     -44.109 -66.350  53.465  0.00  0.00    -0.241 N 
ATOM      9  C   UNK d   1     -44.282 -65.020  53.349  0.00  0.00     0.286 A 
ATOM     10  O   UNK d   1     -43.349 -64.164  53.305  0.00  0.00    -0.265 OA
ATOM     11  H   UNK d   1     -48.708 -63.774  53.110  0.00  0.00     0.209 HD
ATOM     12  H   UNK d   1     -46.401 -62.741  53.094  0.00  0.00     0.189 HD
ENDROOT
BRANCH   8  13
ATOM     13  C   UNK d   1     -42.857 -67.024  53.559  0.00  0.00     0.049 A 
ATOM     14  C   UNK d   1     -41.987 -67.144  52.493  0.00  0.00     0.069 A 
ATOM     15  C   UNK d   1     -40.776 -67.797  52.592  0.00  0.00     0.103 A 
ATOM     16  C   UNK d   1     -40.375 -68.371  53.780  0.00  0.00     0.101 A 
ATOM     17  C   UNK d   1     -41.234 -68.259  54.854  0.00  0.00     0.042 A 
ATOM     18  C   UNK d   1     -42.446 -67.601  54.745  0.00  0.00     0.033 A 
BRANCH  15  19
ATOM     19  O   UNK d   1     -39.900 -67.918  51.518  0.00  0.00    -0.353 OA
ATOM     20  C   UNK d   1     -40.355 -67.470  50.254  0.00  0.00     0.210 C 
ENDBRANCH  15  19
BRANCH  16  21
ATOM     21  O   UNK d   1     -39.151 -69.028  53.871  0.00  0.00    -0.353 OA
ATOM     22  C   UNK d   1     -39.012 -70.352  54.287  0.00  0.00     0.210 C 
ENDBRANCH  16  21
ENDBRANCH   8  13
BRANCH   1  23
ATOM     23  C   UNK d   1     -48.676 -66.551  53.343  0.00  0.00     0.058 A 
ATOM     24  C   UNK d   1     -49.013 -67.163  54.547  0.00  0.00     0.033 A 
ATOM     25  C   UNK d   1     -50.042 -68.080  54.517  0.00  0.00     0.026 A 
ATOM     26  C   UNK d   1     -50.740 -68.419  53.392  0.00  0.00     0.034 A 
ATOM     27 Cl   UNK d   1     -52.051 -69.601  53.405  0.00  0.00    -0.084 Cl
ATOM     28  C   UNK d   1     -50.401 -67.810  52.209  0.00  0.00     0.026 A 
ATOM     29  C   UNK d   1     -49.388 -66.894  52.186  0.00  0.00     0.033 A 
ENDBRANCH   1  23
TORSDOF 4
ENDMDL
