/Users/jonathanwahrer/Desktop/Msc/3_Semester/Drug_Design_Praktikum/waehrer_HTS_screening/HTS_experiment/out/docking_results/vina_output/3e7o/1789_docked.pdbqt
 OpenBabel03192216413D

 29 32  0  0  0  0  0  0  0  0999 V2000
  -47.6330  -65.6020   53.2960 N   0  0  0  0  0  0  0  0  0  0  0  0
  -47.7900  -64.3050   53.1820 N   0  0  0  0  0  0  0  0  0  0  0  0
  -46.5720  -63.7720   53.1750 N   0  0  0  0  0  0  0  0  0  0  0  0
  -45.6300  -64.7290   53.2830 C   0  0  0  0  0  0  0  0  0  0  0  0
  -46.3170  -65.8730   53.3580 C   0  0  0  0  0  0  0  0  0  0  0  0
  -45.3490  -66.8610   53.4710 C   0  0  0  0  0  0  0  0  0  0  0  0
  -45.6060  -68.0830   53.5640 O   0  0  0  0  0  0  0  0  0  0  0  0
  -44.1090  -66.3500   53.4650 N   0  0  0  0  0  0  0  0  0  0  0  0
  -44.2820  -65.0200   53.3490 C   0  0  0  0  0  0  0  0  0  0  0  0
  -43.3490  -64.1640   53.3050 O   0  0  0  0  0  0  0  0  0  0  0  0
  -48.7080  -63.7740   53.1100 H   0  0  0  0  0  0  0  0  0  0  0  0
  -46.4010  -62.7410   53.0940 H   0  0  0  0  0  0  0  0  0  0  0  0
  -42.8570  -67.0240   53.5590 C   0  0  0  0  0  0  0  0  0  0  0  0
  -41.9870  -67.1440   52.4930 C   0  0  0  0  0  3  0  0  0  0  0  0
  -40.7760  -67.7970   52.5920 C   0  0  0  0  0  0  0  0  0  0  0  0
  -40.3750  -68.3710   53.7800 C   0  0  0  0  0  0  0  0  0  0  0  0
  -41.2340  -68.2590   54.8540 C   0  0  0  0  0  3  0  0  0  0  0  0
  -42.4460  -67.6010   54.7450 C   0  0  0  0  0  3  0  0  0  0  0  0
  -39.9000  -67.9180   51.5180 O   0  0  0  0  0  0  0  0  0  0  0  0
  -40.3550  -67.4700   50.2540 C   0  0  0  0  0  1  0  0  0  0  0  0
  -39.1510  -69.0280   53.8710 O   0  0  0  0  0  0  0  0  0  0  0  0
  -39.0120  -70.3520   54.2870 C   0  0  0  0  0  1  0  0  0  0  0  0
  -48.6760  -66.5510   53.3430 C   0  0  0  0  0  0  0  0  0  0  0  0
  -49.0130  -67.1630   54.5470 C   0  0  0  0  0  3  0  0  0  0  0  0
  -50.0420  -68.0800   54.5170 C   0  0  0  0  0  3  0  0  0  0  0  0
  -50.7400  -68.4190   53.3920 C   0  0  0  0  0  0  0  0  0  0  0  0
  -52.0510  -69.6010   53.4050 Cl  0  0  0  0  0  0  0  0  0  0  0  0
  -50.4010  -67.8100   52.2090 C   0  0  0  0  0  3  0  0  0  0  0  0
  -49.3880  -66.8940   52.1860 C   0  0  0  0  0  3  0  0  0  0  0  0
  1 23  1  0  0  0  0
  1  5  1  0  0  0  0
  2  1  1  0  0  0  0
  3  2  1  0  0  0  0
  3  4  1  0  0  0  0
  4  9  1  0  0  0  0
  4  5  2  0  0  0  0
  5  6  1  0  0  0  0
  6  7  2  0  0  0  0
  8  6  1  0  0  0  0
  8 13  1  0  0  0  0
  9  8  1  0  0  0  0
 10  9  2  0  0  0  0
 11  2  1  0  0  0  0
 12  3  1  0  0  0  0
 13 18  1  0  0  0  0
 14 15  1  0  0  0  0
 14 13  2  0  0  0  0
 15 16  2  0  0  0  0
 16 21  1  0  0  0  0
 16 17  1  0  0  0  0
 18 17  2  0  0  0  0
 19 15  1  0  0  0  0
 20 19  1  0  0  0  0
 21 22  1  0  0  0  0
 23 24  1  0  0  0  0
 25 24  2  0  0  0  0
 26 27  1  0  0  0  0
 26 25  1  0  0  0  0
 28 26  2  0  0  0  0
 29 28  1  0  0  0  0
 29 23  2  0  0  0  0
M  END
>  <Pose>
1

>  <Score>
-7.513

$$$$
