/Users/jonathanwahrer/Desktop/Msc/3_Semester/Drug_Design_Praktikum/waehrer_HTS_screening/HTS_experiment/out/docking_results/vina_output/3e7o/1790_docked.pdbqt
 OpenBabel03192216413D

 29 32  0  0  0  0  0  0  0  0999 V2000
  -47.5690  -65.8300   53.4360 N   0  0  0  0  0  0  0  0  0  0  0  0
  -47.9340  -64.5640   53.4020 N   0  0  0  0  0  0  0  0  0  0  0  0
  -46.8210  -63.8670   53.2130 N   0  0  0  0  0  0  0  0  0  0  0  0
  -45.7460  -64.6700   53.1280 C   0  0  0  0  0  0  0  0  0  0  0  0
  -46.2340  -65.9140   53.2710 C   0  0  0  0  0  0  0  0  0  0  0  0
  -45.1270  -66.7370   53.1830 C   0  0  0  0  0  0  0  0  0  0  0  0
  -45.2110  -67.9980   53.2750 O   0  0  0  0  0  0  0  0  0  0  0  0
  -43.9960  -66.0380   52.9920 N   0  0  0  0  0  0  0  0  0  0  0  0
  -44.3800  -64.7510   52.9570 C   0  0  0  0  0  0  0  0  0  0  0  0
  -43.5870  -63.7760   52.7930 O   0  0  0  0  0  0  0  0  0  0  0  0
  -48.9140  -64.2050   53.5040 H   0  0  0  0  0  0  0  0  0  0  0  0
  -46.7800  -62.8280   53.1410 H   0  0  0  0  0  0  0  0  0  0  0  0
  -42.6910  -66.5970   52.8600 C   0  0  0  0  0  0  0  0  0  0  0  0
  -42.0970  -67.3290   53.8680 C   0  0  0  0  0  3  0  0  0  0  0  0
  -40.8370  -67.8800   53.7630 C   0  0  0  0  0  0  0  0  0  0  0  0
  -40.1350  -67.6890   52.5920 C   0  0  0  0  0  3  0  0  0  0  0  0
  -40.6790  -66.9660   51.5500 C   0  0  0  0  0  0  0  0  0  0  0  0
  -41.9540  -66.4290   51.7030 C   0  0  0  0  0  3  0  0  0  0  0  0
  -40.2760  -68.6180   54.8230 O   0  0  0  0  0  0  0  0  0  0  0  0
  -39.5170  -69.7680   54.5280 C   0  0  0  0  0  1  0  0  0  0  0  0
  -39.9420  -66.7950   50.3860 O   0  0  0  0  0  0  0  0  0  0  0  0
  -40.5440  -66.7890   49.1200 C   0  0  0  0  0  1  0  0  0  0  0  0
  -48.4340  -66.9380   53.6200 C   0  0  0  0  0  0  0  0  0  0  0  0
  -49.2920  -67.3820   52.6260 C   0  0  0  0  0  3  0  0  0  0  0  0
  -50.1150  -68.4570   52.8390 C   0  0  0  0  0  3  0  0  0  0  0  0
  -50.1280  -69.1400   54.0380 C   0  0  0  0  0  0  0  0  0  0  0  0
  -51.2120  -70.5200   54.2570 Cl  0  0  0  0  0  0  0  0  0  0  0  0
  -49.2880  -68.7170   55.0340 C   0  0  0  0  0  3  0  0  0  0  0  0
  -48.4610  -67.6350   54.8170 C   0  0  0  0  0  3  0  0  0  0  0  0
  1 23  1  0  0  0  0
  2  1  1  0  0  0  0
  2 11  1  0  0  0  0
  3  2  1  0  0  0  0
  4  3  1  0  0  0  0
  4  5  2  0  0  0  0
  5  1  1  0  0  0  0
  6  5  1  0  0  0  0
  6  7  2  0  0  0  0
  8  6  1  0  0  0  0
  9  8  1  0  0  0  0
  9  4  1  0  0  0  0
 10  9  2  0  0  0  0
 12  3  1  0  0  0  0
 13  8  1  0  0  0  0
 13 14  1  0  0  0  0
 15 14  2  0  0  0  0
 15 19  1  0  0  0  0
 16 15  1  0  0  0  0
 17 18  1  0  0  0  0
 17 16  2  0  0  0  0
 18 13  2  0  0  0  0
 20 19  1  0  0  0  0
 21 17  1  0  0  0  0
 22 21  1  0  0  0  0
 23 29  1  0  0  0  0
 24 25  1  0  0  0  0
 24 23  2  0  0  0  0
 25 26  2  0  0  0  0
 26 27  1  0  0  0  0
 26 28  1  0  0  0  0
 29 28  2  0  0  0  0
M  END
>  <Pose>
1

>  <Score>
-7.715

$$$$
