MODEL 1
REMARK VINA RESULT:    -7.715      0.000      0.000
REMARK INTER + INTRA:         -10.092
REMARK INTER:                  -9.519
REMARK INTRA:                  -0.573
REMARK UNBOUND:                -0.573
REMARK  4 active torsions:
REMARK  status: ('A' for Active; 'I' for Inactive)
REMARK    1  A    between atoms: C_5  and  N_8 
REMARK    2  A    between atoms: N_15  and  C_18 
REMARK    3  A    between atoms: C_20  and  O_26 
REMARK    4  A    between atoms: C_22  and  O_24 
ROOT
ATOM      1  N   UNK d   1     -47.569 -65.830  53.436  0.00  0.00    -0.234 N 
ATOM      2  N   UNK d   1     -47.934 -64.564  53.402  0.00  0.00    -0.234 N 
ATOM      3  N   UNK d   1     -46.821 -63.867  53.213  0.00  0.00    -0.278 N 
ATOM      4  C   UNK d   1     -45.746 -64.670  53.128  0.00  0.00     0.152 A 
ATOM      5  C   UNK d   1     -46.234 -65.914  53.271  0.00  0.00     0.160 A 
ATOM      6  C   UNK d   1     -45.127 -66.737  53.183  0.00  0.00     0.286 A 
ATOM      7  O   UNK d   1     -45.211 -67.998  53.275  0.00  0.00    -0.265 OA
ATOM      8  N   UNK d   1     -43.996 -66.038  52.992  0.00  0.00    -0.241 N 
ATOM      9  C   UNK d   1     -44.380 -64.751  52.957  0.00  0.00     0.286 A 
ATOM     10  O   UNK d   1     -43.587 -63.776  52.793  0.00  0.00    -0.265 OA
ATOM     11  H   UNK d   1     -48.914 -64.205  53.504  0.00  0.00     0.209 HD
ATOM     12  H   UNK d   1     -46.780 -62.828  53.141  0.00  0.00     0.189 HD
ENDROOT
BRANCH   8  13
ATOM     13  C   UNK d   1     -42.691 -66.597  52.860  0.00  0.00     0.051 A 
ATOM     14  C   UNK d   1     -42.097 -67.329  53.868  0.00  0.00     0.067 A 
ATOM     15  C   UNK d   1     -40.837 -67.880  53.763  0.00  0.00     0.073 A 
ATOM     16  C   UNK d   1     -40.135 -67.689  52.592  0.00  0.00     0.073 A 
ATOM     17  C   UNK d   1     -40.679 -66.966  51.550  0.00  0.00     0.073 A 
ATOM     18  C   UNK d   1     -41.954 -66.429  51.703  0.00  0.00     0.067 A 
BRANCH  15  19
ATOM     19  O   UNK d   1     -40.276 -68.618  54.823  0.00  0.00    -0.356 OA
ATOM     20  C   UNK d   1     -39.517 -69.768  54.528  0.00  0.00     0.210 C 
ENDBRANCH  15  19
BRANCH  17  21
ATOM     21  O   UNK d   1     -39.942 -66.795  50.386  0.00  0.00    -0.356 OA
ATOM     22  C   UNK d   1     -40.544 -66.789  49.120  0.00  0.00     0.210 C 
ENDBRANCH  17  21
ENDBRANCH   8  13
BRANCH   1  23
ATOM     23  C   UNK d   1     -48.434 -66.938  53.620  0.00  0.00     0.058 A 
ATOM     24  C   UNK d   1     -49.292 -67.382  52.626  0.00  0.00     0.033 A 
ATOM     25  C   UNK d   1     -50.115 -68.457  52.839  0.00  0.00     0.026 A 
ATOM     26  C   UNK d   1     -50.128 -69.140  54.038  0.00  0.00     0.034 A 
ATOM     27 Cl   UNK d   1     -51.212 -70.520  54.257  0.00  0.00    -0.084 Cl
ATOM     28  C   UNK d   1     -49.288 -68.717  55.034  0.00  0.00     0.026 A 
ATOM     29  C   UNK d   1     -48.461 -67.635  54.817  0.00  0.00     0.033 A 
ENDBRANCH   1  23
TORSDOF 4
ENDMDL
