/Users/jonathanwahrer/Desktop/Msc/3_Semester/Drug_Design_Praktikum/waehrer_HTS_screening/HTS_experiment/out/docking_results/vina_output/3e7o/1801_docked.pdbqt
 OpenBabel03192216423D

 26 29  0  0  0  0  0  0  0  0999 V2000
  -44.4720  -64.5660   53.1940 Cl  0  0  0  0  0  0  0  0  0  0  0  0
  -43.2470  -65.8250   53.3410 C   0  0  0  0  0  0  0  0  0  0  0  0
  -42.2680  -65.9660   52.3730 C   0  0  0  0  0  3  0  0  0  0  0  0
  -41.3120  -66.9380   52.4750 C   0  0  0  0  0  0  0  0  0  0  0  0
  -41.3720  -67.7580   53.5760 C   0  0  0  0  0  0  0  0  0  0  0  0
  -42.3300  -67.6410   54.5500 C   0  0  0  0  0  3  0  0  0  0  0  0
  -43.2920  -66.6520   54.4340 C   0  0  0  0  0  3  0  0  0  0  0  0
  -40.3560  -68.8190   53.7210 C   0  0  0  0  0  0  0  0  0  0  0  0
  -40.1510  -69.7220   54.6140 N   0  0  0  0  0  0  0  0  0  0  0  0
  -39.0130  -70.5390   54.3090 C   0  0  0  0  0  3  0  0  0  0  0  0
  -38.4900  -69.9990   53.0180 C   0  0  0  0  0  3  0  0  0  0  0  0
  -39.3820  -68.9110   52.6950 N   0  0  0  0  0  0  0  0  0  0  0  0
  -39.3660  -68.0260   51.5650 C   0  0  0  0  0  0  0  0  0  0  0  0
  -38.5590  -67.9290   50.4980 N   0  0  0  0  0  0  0  0  0  0  0  0
  -38.9560  -66.9390   49.7180 N   0  0  0  0  0  0  0  0  0  0  0  0
  -40.0360  -66.4140   50.3210 C   0  0  0  0  0  0  0  0  0  0  0  0
  -40.6890  -65.4430   49.8670 O   0  0  0  0  0  0  0  0  0  0  0  0
  -40.3130  -67.0750   51.4770 N   0  0  0  0  0  0  0  0  0  0  0  0
  -38.3660  -66.4890   48.4610 C   0  0  0  0  0  2  0  0  0  0  0  0
  -36.8930  -66.6390   48.5420 C   0  0  0  0  0  0  0  0  0  0  0  0
  -36.2530  -66.9250   47.4910 O   0  0  0  0  0  0  0  0  0  0  0  0
  -36.1700  -66.4740   49.7520 N   0  0  0  0  0  0  0  0  0  0  0  0
  -36.7130  -66.2390   50.6070 H   0  0  0  0  0  0  0  0  0  0  0  0
  -34.7330  -66.6310   49.7820 C   0  0  0  0  0  3  0  0  0  0  0  0
  -34.0580  -65.3160   50.1810 C   0  0  0  0  0  1  0  0  0  0  0  0
  -34.4250  -67.6120   50.9050 C   0  0  0  0  0  1  0  0  0  0  0  0
  1  2  1  0  0  0  0
  2  7  1  0  0  0  0
  3  4  1  0  0  0  0
  3  2  2  0  0  0  0
  4  5  2  0  0  0  0
  5  8  1  0  0  0  0
  5  6  1  0  0  0  0
  7  6  2  0  0  0  0
  8  9  2  0  0  0  0
 10  9  1  0  0  0  0
 11 10  2  0  0  0  0
 12 11  1  0  0  0  0
 12  8  1  0  0  0  0
 13 12  1  0  0  0  0
 14 13  2  0  0  0  0
 15 16  1  0  0  0  0
 15 14  1  0  0  0  0
 16 18  1  0  0  0  0
 17 16  2  0  0  0  0
 18 13  1  0  0  0  0
 18  4  1  0  0  0  0
 19 20  1  0  0  0  0
 19 15  1  0  0  0  0
 20 22  1  0  0  0  0
 21 20  2  0  0  0  0
 22 24  1  0  0  0  0
 22 23  1  0  0  0  0
 24 25  1  0  0  0  0
 24 26  1  0  0  0  0
M  END
>  <Pose>
1

>  <Score>
-8.386

$$$$
