MODEL 1
REMARK VINA RESULT:    -8.386      0.000      0.000
REMARK INTER + INTRA:         -10.515
REMARK INTER:                  -9.857
REMARK INTRA:                  -0.658
REMARK UNBOUND:                -0.658
REMARK  3 active torsions:
REMARK  status: ('A' for Active; 'I' for Inactive)
REMARK    1  A    between atoms: N_15  and  C_19 
REMARK    2  A    between atoms: C_19  and  C_20 
REMARK       I    between atoms: C_20  and  N_22 
REMARK    3  A    between atoms: N_22  and  C_23 
ROOT
ATOM      1 Cl   UNK d   1     -44.472 -64.566  53.194  0.00  0.00    -0.084 Cl
ATOM      2  C   UNK d   1     -43.247 -65.825  53.341  0.00  0.00     0.036 A 
ATOM      3  C   UNK d   1     -42.268 -65.966  52.373  0.00  0.00     0.055 A 
ATOM      4  C   UNK d   1     -41.312 -66.938  52.475  0.00  0.00     0.077 A 
ATOM      5  C   UNK d   1     -41.372 -67.758  53.576  0.00  0.00     0.038 A 
ATOM      6  C   UNK d   1     -42.330 -67.641  54.550  0.00  0.00     0.019 A 
ATOM      7  C   UNK d   1     -43.292 -66.652  54.434  0.00  0.00     0.025 A 
ATOM      8  C   UNK d   1     -40.356 -68.819  53.721  0.00  0.00     0.153 A 
ATOM      9  N   UNK d   1     -40.151 -69.722  54.614  0.00  0.00    -0.270 NA
ATOM     10  C   UNK d   1     -39.013 -70.539  54.309  0.00  0.00     0.172 A 
ATOM     11  C   UNK d   1     -38.490 -69.999  53.018  0.00  0.00     0.171 A 
ATOM     12  N   UNK d   1     -39.382 -68.911  52.695  0.00  0.00    -0.160 N 
ATOM     13  C   UNK d   1     -39.366 -68.026  51.565  0.00  0.00     0.736 A 
ATOM     14  N   UNK d   1     -38.559 -67.929  50.498  0.00  0.00     0.025 NA
ATOM     15  N   UNK d   1     -38.956 -66.939  49.718  0.00  0.00    -0.194 N 
ATOM     16  C   UNK d   1     -40.036 -66.414  50.321  0.00  0.00     0.365 A 
ATOM     17  O   UNK d   1     -40.689 -65.443  49.867  0.00  0.00    -0.244 OA
ATOM     18  N   UNK d   1     -40.313 -67.075  51.477  0.00  0.00    -0.090 N 
ENDROOT
BRANCH  15  19
ATOM     19  C   UNK d   1     -38.366 -66.489  48.461  0.00  0.00     0.259 C 
BRANCH  19  20
ATOM     20  C   UNK d   1     -36.893 -66.639  48.542  0.00  0.00     0.237 C 
ATOM     21  O   UNK d   1     -36.253 -66.925  47.491  0.00  0.00    -0.272 OA
ATOM     22  N   UNK d   1     -36.170 -66.474  49.752  0.00  0.00    -0.356 N 
ATOM     23  H   UNK d   1     -36.713 -66.239  50.607  0.00  0.00     0.162 HD
BRANCH  22  24
ATOM     24  C   UNK d   1     -34.733 -66.631  49.782  0.00  0.00     0.076 C 
ATOM     25  C   UNK d   1     -34.058 -65.316  50.181  0.00  0.00     0.032 C 
ATOM     26  C   UNK d   1     -34.425 -67.612  50.905  0.00  0.00     0.032 C 
ENDBRANCH  22  24
ENDBRANCH  19  20
ENDBRANCH  15  19
TORSDOF 3
ENDMDL
