MODEL 1
REMARK VINA RESULT:    -7.874      0.000      0.000
REMARK INTER + INTRA:         -10.781
REMARK INTER:                 -10.175
REMARK INTRA:                  -0.606
REMARK UNBOUND:                -0.606
REMARK  5 active torsions:
REMARK  status: ('A' for Active; 'I' for Inactive)
REMARK    1  A    between atoms: N_15  and  C_19 
REMARK    2  A    between atoms: C_19  and  C_20 
REMARK       I    between atoms: C_20  and  N_22 
REMARK    3  A    between atoms: N_22  and  C_23 
REMARK    4  A    between atoms: C_23  and  C_24 
REMARK    5  A    between atoms: C_24  and  O_25 
ROOT
ATOM      1 Cl   UNK d   1     -44.638 -64.605  53.177  0.00  0.00    -0.084 Cl
ATOM      2  C   UNK d   1     -43.433 -65.875  53.407  0.00  0.00     0.036 A 
ATOM      3  C   UNK d   1     -42.425 -66.010  52.449  0.00  0.00     0.055 A 
ATOM      4  C   UNK d   1     -41.446 -66.975  52.571  0.00  0.00     0.077 A 
ATOM      5  C   UNK d   1     -41.518 -67.793  53.680  0.00  0.00     0.038 A 
ATOM      6  C   UNK d   1     -42.479 -67.697  54.632  0.00  0.00     0.019 A 
ATOM      7  C   UNK d   1     -43.469 -66.712  54.500  0.00  0.00     0.025 A 
ATOM      8  C   UNK d   1     -40.455 -68.823  53.797  0.00  0.00     0.153 A 
ATOM      9  N   UNK d   1     -40.236 -69.733  54.697  0.00  0.00    -0.270 NA
ATOM     10  C   UNK d   1     -39.060 -70.504  54.364  0.00  0.00     0.172 A 
ATOM     11  C   UNK d   1     -38.515 -69.935  53.078  0.00  0.00     0.171 A 
ATOM     12  N   UNK d   1     -39.478 -68.885  52.790  0.00  0.00    -0.160 N 
ATOM     13  C   UNK d   1     -39.473 -68.000  51.671  0.00  0.00     0.736 A 
ATOM     14  N   UNK d   1     -38.640 -67.885  50.617  0.00  0.00     0.025 NA
ATOM     15  N   UNK d   1     -39.057 -66.888  49.840  0.00  0.00    -0.194 N 
ATOM     16  C   UNK d   1     -40.145 -66.407  50.437  0.00  0.00     0.365 A 
ATOM     17  O   UNK d   1     -40.839 -65.443  50.009  0.00  0.00    -0.244 OA
ATOM     18  N   UNK d   1     -40.432 -67.083  51.584  0.00  0.00    -0.090 N 
ENDROOT
BRANCH  15  19
ATOM     19  C   UNK d   1     -38.425 -66.424  48.601  0.00  0.00     0.259 C 
BRANCH  19  20
ATOM     20  C   UNK d   1     -37.189 -65.630  49.126  0.00  0.00     0.237 C 
ATOM     21  O   UNK d   1     -37.579 -64.445  49.418  0.00  0.00    -0.272 OA
ATOM     22  N   UNK d   1     -35.982 -66.209  49.200  0.00  0.00    -0.358 N 
ATOM     23  H   UNK d   1     -35.479 -65.090  49.782  0.00  0.00     0.162 HD
BRANCH  22  24
ATOM     24  C   UNK d   1     -34.742 -66.803  49.276  0.00  0.00     0.148 C 
BRANCH  24  25
ATOM     25  C   UNK d   1     -34.436 -67.346  50.677  0.00  0.00     0.186 C 
BRANCH  25  26
ATOM     26  O   UNK d   1     -34.488 -68.720  50.707  0.00  0.00    -0.394 OA
ATOM     27  C   UNK d   1     -35.151 -69.260  51.771  0.00  0.00     0.201 C 
ENDBRANCH  25  26
ENDBRANCH  24  25
ENDBRANCH  22  24
ENDBRANCH  19  20
ENDBRANCH  15  19
TORSDOF 5
ENDMDL
