/Users/jonathanwahrer/Desktop/Msc/3_Semester/Drug_Design_Praktikum/waehrer_HTS_screening/HTS_experiment/out/docking_results/vina_output/3e7o/1806_docked.pdbqt
 OpenBabel03192216423D

 32 35  0  0  0  0  0  0  0  0999 V2000
  -37.8830  -65.1780   48.0090 N   0  0  0  0  0  0  0  0  0  0  0  0
  -36.6430  -64.5190   47.6560 C   0  0  0  0  0  2  0  0  0  0  0  0
  -35.5340  -65.5830   47.7040 C   0  0  0  0  0  2  0  0  0  0  0  0
  -36.0000  -66.8180   48.2330 N   0  0  0  0  0  0  0  0  0  0  0  0
  -37.0560  -67.4530   47.4450 C   0  0  0  0  0  2  0  0  0  0  0  0
  -38.1770  -66.4440   47.3660 C   0  0  0  0  0  2  0  0  0  0  0  0
  -38.8270  -64.6320   48.9210 C   0  0  0  0  0  3  0  0  0  0  0  0
  -39.4200  -65.2570   49.9110 C   0  0  0  0  0  0  0  0  0  0  0  0
  -39.1840  -66.6190   50.2090 N   0  0  0  0  0  0  0  0  0  0  0  0
  -40.3580  -64.5390   50.7430 N   0  0  0  0  0  0  0  0  0  0  0  0
  -39.8590  -67.2690   51.3100 C   0  0  0  0  0  0  0  0  0  0  0  0
  -38.5190  -67.1690   49.6380 H   0  0  0  0  0  0  0  0  0  0  0  0
  -40.7540  -66.6060   52.1110 C   0  0  0  0  0  0  0  0  0  0  0  0
  -39.6020  -68.5910   51.5640 C   0  0  0  0  0  3  0  0  0  0  0  0
  -41.3810  -67.2580   53.1540 C   0  0  0  0  0  3  0  0  0  0  0  0
  -41.0050  -65.2030   51.8130 C   0  0  0  0  0  0  0  0  0  0  0  0
  -41.1240  -68.5710   53.4050 C   0  0  0  0  0  0  0  0  0  0  0  0
  -41.8950  -69.4550   54.7210 Cl  0  0  0  0  0  0  0  0  0  0  0  0
  -40.2290  -69.2480   52.6090 C   0  0  0  0  0  3  0  0  0  0  0  0
  -41.8390  -64.5890   52.5630 O   0  0  0  0  0  0  0  0  0  0  0  0
  -40.5560  -63.5370   50.5520 H   0  0  0  0  0  0  0  0  0  0  0  0
  -35.6000  -67.4960   49.4110 C   0  0  0  0  0  0  0  0  0  0  0  0
  -36.4350  -68.4810   49.9120 N   0  0  0  0  0  0  0  0  0  0  0  0
  -36.1810  -69.1800   51.0160 C   0  0  0  0  0  3  0  0  0  0  0  0
  -35.0260  -68.9120   51.6980 C   0  0  0  0  0  3  0  0  0  0  0  0
  -34.1770  -67.9480   51.2330 C   0  0  0  0  0  3  0  0  0  0  0  0
  -34.4400  -67.2050   50.0650 C   0  0  0  0  0  0  0  0  0  0  0  0
  -33.5130  -66.2240   49.5890 C   0  0  0  0  0  0  0  0  0  0  0  0
  -33.5130  -65.0320   49.8880 O   0  0  0  0  0  0  0  0  0  0  0  0
  -32.4920  -66.6370   48.6900 N   0  0  0  0  0  0  0  0  0  0  0  0
  -31.7210  -67.2650   49.0090 H   0  0  0  0  0  0  0  0  0  0  0  0
  -32.4520  -66.3460   47.6880 H   0  0  0  0  0  0  0  0  0  0  0  0
  1  7  1  0  0  0  0
  2  3  1  0  0  0  0
  2  1  1  0  0  0  0
  3  4  1  0  0  0  0
  4 22  1  0  0  0  0
  5  4  1  0  0  0  0
  6  5  1  0  0  0  0
  6  1  1  0  0  0  0
  7  8  2  0  0  0  0
  8  9  1  0  0  0  0
  8 10  1  0  0  0  0
  9 11  1  0  0  0  0
 10 16  1  0  0  0  0
 11 14  2  0  0  0  0
 11 13  1  0  0  0  0
 12  9  1  0  0  0  0
 13 15  2  0  0  0  0
 14 19  1  0  0  0  0
 15 17  1  0  0  0  0
 16 13  1  0  0  0  0
 16 20  2  0  0  0  0
 17 18  1  0  0  0  0
 19 17  2  0  0  0  0
 21 10  1  0  0  0  0
 22 23  2  0  0  0  0
 22 27  1  0  0  0  0
 23 24  1  0  0  0  0
 24 25  2  0  0  0  0
 26 25  1  0  0  0  0
 27 26  2  0  0  0  0
 28 29  2  0  0  0  0
 28 27  1  0  0  0  0
 30 31  1  0  0  0  0
 30 28  1  0  0  0  0
 32 30  1  0  0  0  0
M  END
>  <Pose>
1

>  <Score>
-8.967

$$$$
