MODEL 1
REMARK VINA RESULT:    -8.967      0.000      0.000
REMARK INTER + INTRA:         -10.383
REMARK INTER:                 -10.540
REMARK INTRA:                   0.157
REMARK UNBOUND:                 0.157
REMARK  3 active torsions:
REMARK  status: ('A' for Active; 'I' for Inactive)
REMARK    1  A    between atoms: C_10  and  N_11 
REMARK    2  A    between atoms: N_14  and  C_17 
REMARK    3  A    between atoms: C_22  and  C_23 
REMARK       I    between atoms: C_23  and  N_25 
ROOT
ATOM      1  N   UNK d   1     -37.883 -65.178  48.009  0.00  0.00    -0.384 N 
ATOM      2  C   UNK d   1     -36.643 -64.519  47.656  0.00  0.00     0.142 C 
ATOM      3  C   UNK d   1     -35.534 -65.583  47.704  0.00  0.00     0.144 C 
ATOM      4  N   UNK d   1     -36.000 -66.818  48.233  0.00  0.00    -0.362 N 
ATOM      5  C   UNK d   1     -37.056 -67.453  47.445  0.00  0.00     0.144 C 
ATOM      6  C   UNK d   1     -38.177 -66.444  47.366  0.00  0.00     0.142 C 
ENDROOT
BRANCH   1   7
ATOM      7  C   UNK d   1     -38.827 -64.632  48.921  0.00  0.00     0.134 C 
ATOM      8  C   UNK d   1     -39.420 -65.257  49.911  0.00  0.00     0.124 A 
ATOM      9  N   UNK d   1     -39.184 -66.619  50.209  0.00  0.00    -0.340 N 
ATOM     10  N   UNK d   1     -40.358 -64.539  50.743  0.00  0.00    -0.308 N 
ATOM     11  C   UNK d   1     -39.859 -67.269  51.310  0.00  0.00     0.049 A 
ATOM     12  H   UNK d   1     -38.519 -67.169  49.638  0.00  0.00     0.167 HD
ATOM     13  C   UNK d   1     -40.754 -66.606  52.111  0.00  0.00     0.060 A 
ATOM     14  C   UNK d   1     -39.602 -68.591  51.564  0.00  0.00     0.032 A 
ATOM     15  C   UNK d   1     -41.381 -67.258  53.154  0.00  0.00     0.043 A 
ATOM     16  C   UNK d   1     -41.005 -65.203  51.813  0.00  0.00     0.259 A 
ATOM     17  C   UNK d   1     -41.124 -68.571  53.405  0.00  0.00     0.035 A 
ATOM     18 Cl   UNK d   1     -41.895 -69.455  54.721  0.00  0.00    -0.084 Cl
ATOM     19  C   UNK d   1     -40.229 -69.248  52.609  0.00  0.00     0.026 A 
ATOM     20  O   UNK d   1     -41.839 -64.589  52.563  0.00  0.00    -0.267 OA
ATOM     21  H   UNK d   1     -40.556 -63.537  50.552  0.00  0.00     0.170 HD
ENDBRANCH   1   7
BRANCH   4  22
ATOM     22  C   UNK d   1     -35.600 -67.496  49.411  0.00  0.00     0.141 A 
ATOM     23  N   UNK d   1     -36.435 -68.481  49.912  0.00  0.00    -0.242 NA
ATOM     24  C   UNK d   1     -36.181 -69.180  51.016  0.00  0.00     0.119 A 
ATOM     25  C   UNK d   1     -35.026 -68.912  51.698  0.00  0.00     0.020 A 
ATOM     26  C   UNK d   1     -34.177 -67.948  51.233  0.00  0.00     0.022 A 
ATOM     27  C   UNK d   1     -34.440 -67.205  50.065  0.00  0.00     0.077 A 
BRANCH  27  28
ATOM     28  C   UNK d   1     -33.513 -66.224  49.589  0.00  0.00     0.253 C 
ATOM     29  O   UNK d   1     -33.513 -65.032  49.888  0.00  0.00    -0.268 OA
ATOM     30  N   UNK d   1     -32.492 -66.637  48.690  0.00  0.00    -0.366 N 
ATOM     31  H   UNK d   1     -31.721 -67.265  49.009  0.00  0.00     0.159 HD
ATOM     32  H   UNK d   1     -32.452 -66.346  47.688  0.00  0.00     0.159 HD
ENDBRANCH  27  28
ENDBRANCH   4  22
TORSDOF 3
ENDMDL
