/Users/jonathanwahrer/Desktop/Msc/3_Semester/Drug_Design_Praktikum/waehrer_HTS_screening/HTS_experiment/out/docking_results/vina_output/3e7o/1808_docked.pdbqt
 OpenBabel03142214183D

 24 28  0  0  1  0  0  0  0  0999 V2000
  -36.9810  -67.2670   49.1410 N   0  0  0  0  0  0  0  0  0  0  0  0
  -35.5670  -67.2650   49.2580 C   0  0  0  0  0  0  0  0  0  0  0  0
  -34.9260  -67.9800   50.0660 O   0  0  0  0  0  0  0  0  0  0  0  0
  -35.0000  -66.2970   48.2820 C   0  0  2  0  0  3  0  0  0  0  0  0
  -34.7630  -64.9510   48.8930 C   0  0  1  0  0  0  0  0  0  0  0  0
  -34.9810  -64.1190   47.7710 O   0  0  0  0  0  0  0  0  0  0  0  0
  -36.3210  -64.5130   47.5260 C   0  0  1  0  0  3  0  0  0  0  0  0
  -36.1570  -65.9810   47.3340 C   0  0  2  0  0  3  0  0  0  0  0  0
  -37.3360  -66.7080   47.8770 C   0  0  0  0  0  0  0  0  0  0  0  0
  -38.4290  -66.7980   47.3110 O   0  0  0  0  0  0  0  0  0  0  0  0
  -36.8930  -64.2750   48.8770 C   0  0  0  0  0  2  0  0  0  0  0  0
  -35.9280  -64.6140   49.7260 C   0  0  0  0  0  2  0  0  0  0  0  0
  -37.8450  -67.7660   50.1700 C   0  0  0  0  0  0  0  0  0  0  0  0
  -37.5610  -68.9290   50.8510 C   0  0  0  0  0  3  0  0  0  0  0  0
  -38.3840  -69.4200   51.8410 C   0  0  0  0  0  3  0  0  0  0  0  0
  -39.5250  -68.7180   52.1470 C   0  0  0  0  0  0  0  0  0  0  0  0
  -40.6840  -69.3630   53.5020 Br  0  0  0  0  0  0  0  0  0  0  0  0
  -39.8300  -67.5570   51.4800 C   0  0  0  0  0  3  0  0  0  0  0  0
  -38.9980  -67.0560   50.4780 C   0  0  0  0  0  3  0  0  0  0  0  0
  -33.4420  -64.7530   49.5030 C   0  0  0  0  0  3  0  0  0  0  0  0
  -32.9690  -63.4740   49.4070 O   0  0  0  0  0  0  0  0  0  0  0  0
  -31.9060  -63.4600   48.5390 C   0  0  0  0  0  2  0  0  0  0  0  0
  -31.7190  -64.8680   48.0770 C   0  0  0  0  0  2  0  0  0  0  0  0
  -32.4940  -65.6050   48.9660 O   0  0  0  0  0  0  0  0  0  0  0  0
  1  2  1  0  0  0  0
  1 13  1  0  0  0  0
  2  3  2  0  0  0  0
  4  5  1  0  0  0  0
  4  2  1  1  0  0  0
  5 20  1  1  0  0  0
  5 12  1  0  0  0  0
  6  5  1  0  0  0  0
  7  6  1  0  0  0  0
  7 11  1  1  0  0  0
  8  7  1  0  0  0  0
  8  9  1  1  0  0  0
  8  4  1  0  0  0  0
  9  1  1  0  0  0  0
 10  9  2  0  0  0  0
 11 12  1  0  0  0  0
 13 19  2  0  0  0  0
 13 14  1  0  0  0  0
 14 15  2  0  0  0  0
 15 16  1  0  0  0  0
 16 17  1  0  0  0  0
 18 16  2  0  0  0  0
 19 18  1  0  0  0  0
 21 20  1  0  0  0  0
 22 21  1  0  0  0  0
 23 22  1  0  0  0  0
 23 24  1  0  0  0  0
 24 20  1  0  0  0  0
M  END
>  <Pose>
1

>  <Score>
-7.945

$$$$
