MODEL 1
REMARK VINA RESULT:    -7.945      0.000      0.000
REMARK INTER + INTRA:          -9.120
REMARK INTER:                  -8.874
REMARK INTRA:                  -0.246
REMARK UNBOUND:                -0.246
REMARK  2 active torsions:
REMARK  status: ('A' for Active; 'I' for Inactive)
REMARK    1  A    between atoms: C_5  and  N_8 
REMARK    2  A    between atoms: C_12  and  C_20 
ROOT
ATOM      1  N   UNK d   1     -36.981 -67.267  49.141  0.00  0.00    -0.252 N 
ATOM      2  C   UNK d   1     -35.567 -67.265  49.258  0.00  0.00     0.239 C 
ATOM      3  O   UNK d   1     -34.926 -67.980  50.066  0.00  0.00    -0.272 OA
ATOM      4  C   UNK d   1     -35.000 -66.297  48.282  0.00  0.00     0.138 C 
ATOM      5  C   UNK d   1     -34.763 -64.951  48.893  0.00  0.00     0.142 C 
ATOM      6  O   UNK d   1     -34.981 -64.119  47.771  0.00  0.00    -0.360 OA
ATOM      7  C   UNK d   1     -36.321 -64.513  47.526  0.00  0.00     0.160 C 
ATOM      8  C   UNK d   1     -36.157 -65.981  47.334  0.00  0.00     0.128 C 
ATOM      9  C   UNK d   1     -37.336 -66.708  47.877  0.00  0.00     0.239 C 
ATOM     10  O   UNK d   1     -38.429 -66.798  47.311  0.00  0.00    -0.272 OA
ATOM     11  C   UNK d   1     -36.893 -64.275  48.877  0.00  0.00     0.005 C 
ATOM     12  C   UNK d   1     -35.928 -64.614  49.726  0.00  0.00     0.015 C 
ENDROOT
BRANCH   1  13
ATOM     13  C   UNK d   1     -37.845 -67.766  50.170  0.00  0.00     0.045 A 
ATOM     14  C   UNK d   1     -37.561 -68.929  50.851  0.00  0.00     0.031 A 
ATOM     15  C   UNK d   1     -38.384 -69.420  51.841  0.00  0.00     0.021 A 
ATOM     16  C   UNK d   1     -39.525 -68.718  52.147  0.00  0.00     0.011 A 
ATOM     17 Br   UNK d   1     -40.684 -69.363  53.502  0.00  0.00    -0.051 Br
ATOM     18  C   UNK d   1     -39.830 -67.557  51.480  0.00  0.00     0.021 A 
ATOM     19  C   UNK d   1     -38.998 -67.056  50.478  0.00  0.00     0.031 A 
ENDBRANCH   1  13
BRANCH   5  20
ATOM     20  C   UNK d   1     -33.442 -64.753  49.503  0.00  0.00     0.298 C 
ATOM     21  O   UNK d   1     -32.969 -63.474  49.407  0.00  0.00    -0.356 OA
ATOM     22  C   UNK d   1     -31.906 -63.460  48.539  0.00  0.00     0.197 C 
ATOM     23  C   UNK d   1     -31.719 -64.868  48.077  0.00  0.00     0.197 C 
ATOM     24  O   UNK d   1     -32.494 -65.605  48.966  0.00  0.00    -0.356 OA
ENDBRANCH   5  20
TORSDOF 2
ENDMDL
