MODEL 1
REMARK VINA RESULT:    -7.927      0.000      0.000
REMARK INTER + INTRA:          -9.119
REMARK INTER:                  -8.854
REMARK INTRA:                  -0.265
REMARK UNBOUND:                -0.265
REMARK  2 active torsions:
REMARK  status: ('A' for Active; 'I' for Inactive)
REMARK    1  A    between atoms: C_5  and  N_8 
REMARK    2  A    between atoms: C_12  and  C_20 
ROOT
ATOM      1  N   UNK d   1     -36.897 -67.265  49.084  0.00  0.00    -0.252 N 
ATOM      2  C   UNK d   1     -35.484 -67.244  49.217  0.00  0.00     0.239 C 
ATOM      3  O   UNK d   1     -34.843 -67.943  50.038  0.00  0.00    -0.272 OA
ATOM      4  C   UNK d   1     -34.918 -66.276  48.239  0.00  0.00     0.138 C 
ATOM      5  C   UNK d   1     -34.706 -64.922  48.841  0.00  0.00     0.142 C 
ATOM      6  O   UNK d   1     -34.922 -64.103  47.710  0.00  0.00    -0.360 OA
ATOM      7  C   UNK d   1     -36.253 -64.516  47.453  0.00  0.00     0.160 C 
ATOM      8  C   UNK d   1     -36.069 -65.983  47.275  0.00  0.00     0.128 C 
ATOM      9  C   UNK d   1     -37.244 -66.721  47.811  0.00  0.00     0.239 C 
ATOM     10  O   UNK d   1     -38.329 -66.831  47.234  0.00  0.00    -0.272 OA
ATOM     11  C   UNK d   1     -36.844 -64.274  48.795  0.00  0.00     0.005 C 
ATOM     12  C   UNK d   1     -35.885 -64.594  49.658  0.00  0.00     0.015 C 
ENDROOT
BRANCH   1  13
ATOM     13  C   UNK d   1     -37.766 -67.766  50.108  0.00  0.00     0.045 A 
ATOM     14  C   UNK d   1     -37.486 -68.932  50.786  0.00  0.00     0.031 A 
ATOM     15  C   UNK d   1     -38.314 -69.425  51.770  0.00  0.00     0.021 A 
ATOM     16  C   UNK d   1     -39.455 -68.723  52.074  0.00  0.00     0.011 A 
ATOM     17 Br   UNK d   1     -40.621 -69.371  53.422  0.00  0.00    -0.051 Br
ATOM     18  C   UNK d   1     -39.756 -67.560  51.410  0.00  0.00     0.021 A 
ATOM     19  C   UNK d   1     -38.919 -67.056  50.413  0.00  0.00     0.031 A 
ENDBRANCH   1  13
BRANCH   5  20
ATOM     20  C   UNK d   1     -33.395 -64.702  49.465  0.00  0.00     0.298 C 
ATOM     21  O   UNK d   1     -32.923 -63.425  49.335  0.00  0.00    -0.356 OA
ATOM     22  C   UNK d   1     -31.847 -63.435  48.483  0.00  0.00     0.197 C 
ATOM     23  C   UNK d   1     -31.651 -64.857  48.069  0.00  0.00     0.197 C 
ATOM     24  O   UNK d   1     -32.437 -65.567  48.969  0.00  0.00    -0.356 OA
ENDBRANCH   5  20
TORSDOF 2
ENDMDL
