MODEL 1
REMARK VINA RESULT:    -8.404      0.000      0.000
REMARK INTER + INTRA:         -11.303
REMARK INTER:                 -10.860
REMARK INTRA:                  -0.443
REMARK UNBOUND:                -0.443
REMARK  5 active torsions:
REMARK  status: ('A' for Active; 'I' for Inactive)
REMARK    1  A    between atoms: S_1  and  N_4 
REMARK    2  A    between atoms: S_1  and  C_26 
REMARK       I    between atoms: N_7  and  C_10 
REMARK    3  A    between atoms: C_10  and  C_12 
REMARK    4  A    between atoms: N_14  and  C_18 
REMARK    5  A    between atoms: C_18  and  C_19 
ROOT
ATOM      1  N   UNK d   1     -33.597 -64.961  47.490  0.00  0.00    -0.203 NA
ATOM      2  C   UNK d   1     -32.895 -65.379  48.677  0.00  0.00     0.127 C 
ATOM      3  C   UNK d   1     -33.613 -66.585  49.236  0.00  0.00     0.141 C 
ATOM      4  N   UNK d   1     -34.558 -67.072  48.265  0.00  0.00    -0.349 N 
ATOM      5  C   UNK d   1     -34.228 -67.148  46.847  0.00  0.00     0.141 C 
ATOM      6  C   UNK d   1     -33.353 -65.953  46.461  0.00  0.00     0.127 C 
ATOM      7  C   UNK d   1     -35.839 -67.478  48.679  0.00  0.00     0.226 C 
ATOM      8  O   UNK d   1     -36.653 -67.946  47.809  0.00  0.00    -0.273 OA
ENDROOT
BRANCH   7   9
ATOM      9  C   UNK d   1     -36.246 -67.363  50.106  0.00  0.00     0.105 C 
ATOM     10  C   UNK d   1     -37.694 -67.001  50.270  0.00  0.00     0.140 C 
ATOM     11  N   UNK d   1     -38.364 -68.239  50.656  0.00  0.00    -0.347 N 
ATOM     12  C   UNK d   1     -37.434 -69.306  50.657  0.00  0.00     0.221 C 
ATOM     13  O   UNK d   1     -37.739 -70.517  50.541  0.00  0.00    -0.273 OA
ATOM     14  C   UNK d   1     -36.105 -68.677  50.822  0.00  0.00     0.118 C 
BRANCH  11  15
ATOM     15  C   UNK d   1     -39.769 -68.346  50.979  0.00  0.00     0.166 C 
BRANCH  15  16
ATOM     16  C   UNK d   1     -39.989 -68.512  52.435  0.00  0.00    -0.018 A 
ATOM     17  C   UNK d   1     -40.611 -67.497  53.145  0.00  0.00     0.042 A 
ATOM     18  C   UNK d   1     -40.850 -67.580  54.507  0.00  0.00     0.024 A 
ATOM     19 Cl   UNK d   1     -41.107 -66.070  52.276  0.00  0.00    -0.084 Cl
ATOM     20  C   UNK d   1     -40.438 -68.730  55.150  0.00  0.00     0.002 A 
ATOM     21  C   UNK d   1     -39.814 -69.762  54.471  0.00  0.00     0.001 A 
ATOM     22  C   UNK d   1     -39.588 -69.651  53.100  0.00  0.00     0.010 A 
ENDBRANCH  15  16
ENDBRANCH  11  15
ENDBRANCH   7   9
BRANCH   1  23
ATOM     23  S   UNK d   1     -33.114 -63.386  46.998  0.00  0.00     0.248 S 
ATOM     24  O   UNK d   1     -32.261 -63.429  45.762  0.00  0.00    -0.206 OA
ATOM     25  O   UNK d   1     -32.224 -62.842  48.095  0.00  0.00    -0.206 OA
BRANCH  23  26
ATOM     26  C   UNK d   1     -34.478 -62.328  46.806  0.00  0.00     0.132 A 
ATOM     27  C   UNK d   1     -34.829 -61.489  45.772  0.00  0.00     0.083 A 
ATOM     28  N   UNK d   1     -35.996 -60.867  46.123  0.00  0.00    -0.132 NA
ATOM     29  C   UNK d   1     -34.069 -61.318  44.518  0.00  0.00     0.074 C 
ATOM     30  O   UNK d   1     -36.330 -61.294  47.282  0.00  0.00    -0.216 OA
ATOM     31  C   UNK d   1     -35.472 -62.167  47.752  0.00  0.00     0.100 A 
ATOM     32  C   UNK d   1     -35.613 -62.823  49.070  0.00  0.00     0.081 C 
ENDBRANCH  23  26
ENDBRANCH   1  23
TORSDOF 5
ENDMDL
