MODEL 1
REMARK VINA RESULT:    -8.704      0.000      0.000
REMARK INTER + INTRA:         -11.353
REMARK INTER:                 -10.739
REMARK INTRA:                  -0.614
REMARK UNBOUND:                -0.614
REMARK  4 active torsions:
REMARK  status: ('A' for Active; 'I' for Inactive)
REMARK    1  A    between atoms: C_7  and  O_8 
REMARK    2  A    between atoms: C_13  and  C_16 
REMARK    3  A    between atoms: C_16  and  C_17 
REMARK       I    between atoms: C_17  and  N_19 
REMARK       I    between atoms: N_22  and  C_25 
REMARK    4  A    between atoms: C_25  and  C_27 
ROOT
ATOM      1  C   UNK d   1     -41.046 -66.108  50.834  0.00  0.00     0.224 C 
ATOM      2  O   UNK d   1     -41.413 -67.317  50.632  0.00  0.00    -0.273 OA
ATOM      3  N   UNK d   1     -40.173 -65.541  49.923  0.00  0.00    -0.349 N 
ATOM      4  C   UNK d   1     -39.668 -66.237  48.781  0.00  0.00     0.145 C 
ATOM      5  C   UNK d   1     -38.142 -66.277  48.893  0.00  0.00     0.145 C 
ATOM      6  N   UNK d   1     -37.642 -64.951  49.032  0.00  0.00    -0.355 N 
ATOM      7  C   UNK d   1     -38.647 -63.867  49.072  0.00  0.00     0.145 C 
ATOM      8  C   UNK d   1     -39.721 -64.179  50.091  0.00  0.00     0.145 C 
ATOM      9  C   UNK d   1     -36.282 -64.591  49.140  0.00  0.00     0.204 C 
ATOM     10  O   UNK d   1     -36.090 -63.281  49.249  0.00  0.00    -0.170 OA
ENDROOT
BRANCH   1  11
ATOM     11  C   UNK d   1     -41.595 -65.421  52.036  0.00  0.00     0.148 C 
BRANCH  11  12
ATOM     12  C   UNK d   1     -43.072 -65.507  52.080  0.00  0.00     0.033 A 
ATOM     13  C   UNK d   1     -43.845 -64.632  51.318  0.00  0.00     0.295 A 
ATOM     14  O   UNK d   1     -45.155 -64.664  51.317  0.00  0.00    -0.274 OA
ATOM     15  O   UNK d   1     -43.208 -63.786  50.607  0.00  0.00    -0.259 OA
ATOM     16  C   UNK d   1     -45.846 -65.518  52.033  0.00  0.00     0.093 A 
ATOM     17  C   UNK d   1     -45.181 -66.426  52.822  0.00  0.00     0.006 A 
ATOM     18  C   UNK d   1     -47.247 -65.526  52.012  0.00  0.00     0.076 A 
ATOM     19  C   UNK d   1     -45.918 -67.316  53.566  0.00  0.00     0.041 A 
ATOM     20  C   UNK d   1     -43.782 -66.411  52.837  0.00  0.00    -0.036 A 
ATOM     21  C   UNK d   1     -47.309 -67.320  53.543  0.00  0.00     0.068 A 
ATOM     22 Cl   UNK d   1     -48.251 -68.449  54.491  0.00  0.00    -0.081 Cl
ATOM     23  C   UNK d   1     -47.986 -66.416  52.758  0.00  0.00     0.092 A 
ATOM     24  C   UNK d   1     -43.085 -67.381  53.674  0.00  0.00     0.050 C 
BRANCH  23  25
ATOM     25  O   UNK d   1     -49.393 -66.416  52.731  0.00  0.00    -0.354 OA
ATOM     26  C   UNK d   1     -50.116 -66.913  51.632  0.00  0.00     0.210 C 
ENDBRANCH  23  25
ENDBRANCH  11  12
ENDBRANCH   1  11
BRANCH   9  27
ATOM     27  C   UNK d   1     -35.084 -65.375  49.153  0.00  0.00     0.095 A 
ATOM     28  C   UNK d   1     -34.003 -65.006  48.312  0.00  0.00     0.108 A 
ATOM     29  C   UNK d   1     -32.842 -65.731  48.291  0.00  0.00     0.253 A 
ATOM     30  O   UNK d   1     -31.898 -65.382  47.535  0.00  0.00    -0.268 OA
ATOM     31  N   UNK d   1     -32.656 -66.819  49.050  0.00  0.00    -0.271 N 
ATOM     32  C   UNK d   1     -33.672 -67.167  49.841  0.00  0.00     0.329 A 
ATOM     33  C   UNK d   1     -31.424 -67.573  49.012  0.00  0.00     0.164 C 
ATOM     34  O   UNK d   1     -33.545 -68.195  50.583  0.00  0.00    -0.246 OA
ATOM     35  N   UNK d   1     -34.854 -66.458  49.886  0.00  0.00    -0.304 N 
ATOM     36  H   UNK d   1     -35.582 -66.810  50.539  0.00  0.00     0.171 HD
ENDBRANCH   9  27
TORSDOF 4
ENDMDL
