/Users/jonathanwahrer/Desktop/Msc/3_Semester/Drug_Design_Praktikum/waehrer_HTS_screening/HTS_experiment/out/docking_results/vina_output/3e7o/1816_docked.pdbqt
 OpenBabel03192216433D

 36 39  0  0  0  0  0  0  0  0999 V2000
  -41.0460  -66.1080   50.8340 C   0  0  0  0  0  0  0  0  0  0  0  0
  -41.4130  -67.3170   50.6320 O   0  0  0  0  0  0  0  0  0  0  0  0
  -40.1730  -65.5410   49.9230 N   0  0  0  0  0  0  0  0  0  0  0  0
  -39.6680  -66.2370   48.7810 C   0  0  0  0  0  2  0  0  0  0  0  0
  -38.1420  -66.2770   48.8930 C   0  0  0  0  0  2  0  0  0  0  0  0
  -37.6420  -64.9510   49.0320 N   0  0  0  0  0  0  0  0  0  0  0  0
  -38.6470  -63.8670   49.0720 C   0  0  0  0  0  2  0  0  0  0  0  0
  -39.7210  -64.1790   50.0910 C   0  0  0  0  0  2  0  0  0  0  0  0
  -36.2820  -64.5910   49.1400 C   0  0  0  0  0  0  0  0  0  0  0  0
  -36.0900  -63.2810   49.2490 O   0  0  0  0  0  0  0  0  0  0  0  0
  -41.5950  -65.4210   52.0360 C   0  0  0  0  0  2  0  0  0  0  0  0
  -43.0720  -65.5070   52.0800 C   0  0  0  0  0  0  0  0  0  0  0  0
  -43.8450  -64.6320   51.3180 C   0  0  0  0  0  0  0  0  0  0  0  0
  -45.1550  -64.6640   51.3170 O   0  0  0  0  0  0  0  0  0  0  0  0
  -43.2080  -63.7860   50.6070 O   0  0  0  0  0  0  0  0  0  0  0  0
  -45.8460  -65.5180   52.0330 C   0  0  0  0  0  0  0  0  0  0  0  0
  -45.1810  -66.4260   52.8220 C   0  0  0  0  0  0  0  0  0  0  0  0
  -47.2470  -65.5260   52.0120 C   0  0  0  0  0  3  0  0  0  0  0  0
  -45.9180  -67.3160   53.5660 C   0  0  0  0  0  3  0  0  0  0  0  0
  -43.7820  -66.4110   52.8370 C   0  0  0  0  0  0  0  0  0  0  0  0
  -47.3090  -67.3200   53.5430 C   0  0  0  0  0  0  0  0  0  0  0  0
  -48.2510  -68.4490   54.4910 Cl  0  0  0  0  0  0  0  0  0  0  0  0
  -47.9860  -66.4160   52.7580 C   0  0  0  0  0  0  0  0  0  0  0  0
  -43.0850  -67.3810   53.6740 C   0  0  0  0  0  1  0  0  0  0  0  0
  -49.3930  -66.4160   52.7310 O   0  0  0  0  0  0  0  0  0  0  0  0
  -50.1160  -66.9130   51.6320 C   0  0  0  0  0  1  0  0  0  0  0  0
  -35.0840  -65.3750   49.1530 C   0  0  0  0  0  0  0  0  0  0  0  0
  -34.0030  -65.0060   48.3120 C   0  0  0  0  0  3  0  0  0  0  0  0
  -32.8420  -65.7310   48.2910 C   0  0  0  0  0  0  0  0  0  0  0  0
  -31.8980  -65.3820   47.5350 O   0  0  0  0  0  0  0  0  0  0  0  0
  -32.6560  -66.8190   49.0500 N   0  0  0  0  0  0  0  0  0  0  0  0
  -33.6720  -67.1670   49.8410 C   0  0  0  0  0  0  0  0  0  0  0  0
  -31.4240  -67.5730   49.0120 C   0  0  0  0  0  1  0  0  0  0  0  0
  -33.5450  -68.1950   50.5830 O   0  0  0  0  0  0  0  0  0  0  0  0
  -34.8540  -66.4580   49.8860 N   0  0  0  0  0  0  0  0  0  0  0  0
  -35.5820  -66.8100   50.5390 H   0  0  0  0  0  0  0  0  0  0  0  0
  1 11  1  0  0  0  0
  2  1  2  0  0  0  0
  3  8  1  0  0  0  0
  3  1  1  0  0  0  0
  4  5  1  0  0  0  0
  4  3  1  0  0  0  0
  5  6  1  0  0  0  0
  6  7  1  0  0  0  0
  6  9  1  0  0  0  0
  7  8  1  0  0  0  0
  9 27  1  0  0  0  0
  9 10  2  0  0  0  0
 11 12  1  0  0  0  0
 12 20  2  0  0  0  0
 13 12  1  0  0  0  0
 14 13  1  0  0  0  0
 14 16  1  0  0  0  0
 15 13  2  0  0  0  0
 16 17  1  0  0  0  0
 17 20  1  0  0  0  0
 17 19  2  0  0  0  0
 18 16  2  0  0  0  0
 18 23  1  0  0  0  0
 20 24  1  0  0  0  0
 21 19  1  0  0  0  0
 21 22  1  0  0  0  0
 23 21  2  0  0  0  0
 25 23  1  0  0  0  0
 26 25  1  0  0  0  0
 27 35  1  0  0  0  0
 28 27  2  0  0  0  0
 29 28  1  0  0  0  0
 29 31  1  0  0  0  0
 30 29  2  0  0  0  0
 31 32  1  0  0  0  0
 32 35  1  0  0  0  0
 32 34  2  0  0  0  0
 33 31  1  0  0  0  0
 35 36  1  0  0  0  0
M  END
>  <Pose>
1

>  <Score>
-8.704

$$$$
