MODEL 1
REMARK VINA RESULT:    -7.939      0.000      0.000
REMARK INTER + INTRA:          -8.740
REMARK INTER:                  -8.403
REMARK INTRA:                  -0.337
REMARK UNBOUND:                -0.337
REMARK  1 active torsions:
REMARK  status: ('A' for Active; 'I' for Inactive)
REMARK    1  A    between atoms: C_8  and  N_10 
ROOT
ATOM      1 Cl   UNK d   1     -50.410 -66.241  53.255  0.00  0.00    -0.076 Cl
ATOM      2  C   UNK d   1     -48.688 -65.877  53.246  0.00  0.00     0.127 A 
ATOM      3  C   UNK d   1     -48.297 -64.557  53.211  0.00  0.00     0.050 A 
ATOM      4  N   UNK d   1     -46.982 -64.292  53.204  0.00  0.00    -0.190 N 
ATOM      5  C   UNK d   1     -46.036 -65.266  53.231  0.00  0.00     0.747 A 
ATOM      6  N   UNK d   1     -46.405 -66.558  53.266  0.00  0.00    -0.005 N 
ATOM      7  N   UNK d   1     -45.312 -67.314  53.287  0.00  0.00     0.046 NA
ATOM      8  C   UNK d   1     -44.210 -66.538  53.267  0.00  0.00     0.772 A 
ATOM      9  N   UNK d   1     -44.690 -65.270  53.232  0.00  0.00     0.133 NA
ATOM     10  C   UNK d   1     -47.726 -66.863  53.273  0.00  0.00     0.308 A 
ATOM     11  O   UNK d   1     -48.078 -68.084  53.307  0.00  0.00    -0.264 OA
ATOM     12  C   UNK d   1     -49.331 -63.468  53.180  0.00  0.00     0.071 C 
ATOM     13  H   UNK d   1     -46.678 -63.289  53.177  0.00  0.00     0.184 HD
ENDROOT
BRANCH   8  14
ATOM     14  N   UNK d   1     -42.846 -66.953  53.277  0.00  0.00    -0.076 N 
ATOM     15  C   UNK d   1     -42.231 -67.768  54.265  0.00  0.00     0.251 C 
ATOM     16  O   UNK d   1     -42.782 -68.538  55.093  0.00  0.00    -0.272 OA
ATOM     17  C   UNK d   1     -40.741 -67.585  54.194  0.00  0.00     0.096 C 
ATOM     18  C   UNK d   1     -40.487 -66.860  52.921  0.00  0.00     0.096 C 
ATOM     19  C   UNK d   1     -40.083 -68.948  54.178  0.00  0.00     0.042 C 
ATOM     20  C   UNK d   1     -39.690 -67.649  51.898  0.00  0.00     0.042 C 
ATOM     21  C   UNK d   1     -41.826 -66.656  52.337  0.00  0.00     0.251 C 
ATOM     22  C   UNK d   1     -40.347 -68.991  51.791  0.00  0.00    -0.030 C 
ATOM     23  C   UNK d   1     -40.535 -69.620  52.937  0.00  0.00    -0.030 C 
ATOM     24  O   UNK d   1     -42.054 -66.266  51.146  0.00  0.00    -0.272 OA
ENDBRANCH   8  14
TORSDOF 1
ENDMDL
