/Users/jonathanwahrer/Desktop/Msc/3_Semester/Drug_Design_Praktikum/waehrer_HTS_screening/HTS_experiment/out/docking_results/vina_output/3e7o/1825_docked.pdbqt
 OpenBabel03192216433D

 29 32  0  0  1  0  0  0  0  0999 V2000
  -39.8130  -64.8560   48.8590 N   0  0  0  0  0  0  0  0  0  0  0  0
  -38.9970  -64.3530   47.8850 C   0  0  1  0  0  3  0  0  0  0  0  0
  -37.7700  -64.8820   48.0220 N   0  0  0  0  0  0  0  0  0  0  0  0
  -37.7400  -65.7270   49.0600 C   0  0  0  0  0  0  0  0  0  0  0  0
  -39.0470  -65.6890   49.5670 C   0  0  0  0  0  3  0  0  0  0  0  0
  -36.9040  -64.3300   46.9810 C   0  0  0  0  0  2  0  0  0  0  0  0
  -37.6400  -63.1110   46.4570 C   0  0  0  0  0  2  0  0  0  0  0  0
  -39.0680  -63.4240   46.7290 C   0  0  0  0  0  2  0  0  0  0  0  0
  -41.2260  -64.4920   49.0410 C   0  0  0  0  0  2  0  0  0  0  0  0
  -41.6150  -64.8010   50.4720 C   0  0  0  0  0  0  0  0  0  0  0  0
  -42.1930  -66.0110   50.8240 N   0  0  0  0  0  0  0  0  0  0  0  0
  -42.3400  -66.7120   50.0360 H   0  0  0  0  0  0  0  0  0  0  0  0
  -41.3830  -63.8980   51.2820 O   0  0  0  0  0  0  0  0  0  0  0  0
  -42.6020  -66.3930   52.1170 C   0  0  0  0  0  0  0  0  0  0  0  0
  -41.7100  -67.1600   52.8990 C   0  0  0  0  0  0  0  0  0  0  0  0
  -42.0460  -67.5720   54.1680 C   0  0  0  0  0  0  0  0  0  0  0  0
  -40.3940  -67.5310   52.3490 C   0  0  0  0  0  1  0  0  0  0  0  0
  -40.9490  -68.5180   55.1510 Cl  0  0  0  0  0  0  0  0  0  0  0  0
  -43.2610  -67.2580   54.7310 C   0  0  0  0  0  3  0  0  0  0  0  0
  -44.1490  -66.5160   53.9950 C   0  0  0  0  0  3  0  0  0  0  0  0
  -43.8010  -66.0960   52.6960 C   0  0  0  0  0  3  0  0  0  0  0  0
  -36.6790  -66.5400   49.6320 C   0  0  0  0  0  0  0  0  0  0  0  0
  -35.4140  -66.0650   49.8410 C   0  0  0  0  0  3  0  0  0  0  0  0
  -34.4010  -66.8200   50.4020 C   0  0  0  0  0  3  0  0  0  0  0  0
  -34.6250  -68.1320   50.7870 C   0  0  0  0  0  0  0  0  0  0  0  0
  -35.8960  -68.6120   50.5790 C   0  0  0  0  0  3  0  0  0  0  0  0
  -36.9080  -67.8580   50.0190 C   0  0  0  0  0  3  0  0  0  0  0  0
  -33.6350  -68.9190   51.3510 O   0  0  0  0  0  0  0  0  0  0  0  0
  -33.9130  -70.1150   52.0560 C   0  0  0  0  0  1  0  0  0  0  0  0
  1  9  1  0  0  0  0
  1  5  1  0  0  0  0
  2  8  1  6  0  0  0
  2  3  1  0  0  0  0
  2  1  1  0  0  0  0
  3  4  1  0  0  0  0
  4  5  2  0  0  0  0
  4 22  1  0  0  0  0
  6  3  1  0  0  0  0
  7  8  1  0  0  0  0
  7  6  1  0  0  0  0
  9 10  1  0  0  0  0
 10 11  1  0  0  0  0
 10 13  2  0  0  0  0
 11 14  1  0  0  0  0
 12 11  1  0  0  0  0
 14 21  2  0  0  0  0
 14 15  1  0  0  0  0
 15 16  2  0  0  0  0
 16 19  1  0  0  0  0
 16 18  1  0  0  0  0
 17 15  1  0  0  0  0
 20 19  2  0  0  0  0
 21 20  1  0  0  0  0
 22 23  2  0  0  0  0
 22 27  1  0  0  0  0
 23 24  1  0  0  0  0
 24 25  2  0  0  0  0
 25 28  1  0  0  0  0
 26 25  1  0  0  0  0
 27 26  2  0  0  0  0
 28 29  1  0  0  0  0
M  END
>  <Pose>
1

>  <Score>
-8.401

$$$$
