MODEL 1
REMARK VINA RESULT:    -8.401      0.000      0.000
REMARK INTER + INTRA:         -11.704
REMARK INTER:                 -10.857
REMARK INTRA:                  -0.847
REMARK UNBOUND:                -0.847
REMARK  5 active torsions:
REMARK  status: ('A' for Active; 'I' for Inactive)
REMARK    1  A    between atoms: C_4  and  N_8 
REMARK       I    between atoms: N_8  and  C_9 
REMARK    2  A    between atoms: C_9  and  C_11 
REMARK    3  A    between atoms: C_11  and  N_12 
REMARK    4  A    between atoms: C_15  and  C_17 
REMARK    5  A    between atoms: C_20  and  O_23 
ROOT
ATOM      1  N   UNK d   1     -39.813 -64.856  48.859  0.00  0.00    -0.336 N 
ATOM      2  C   UNK d   1     -38.997 -64.353  47.885  0.00  0.00     0.086 A 
ATOM      3  N   UNK d   1     -37.770 -64.882  48.022  0.00  0.00    -0.335 N 
ATOM      4  C   UNK d   1     -37.740 -65.727  49.060  0.00  0.00     0.061 A 
ATOM      5  C   UNK d   1     -39.047 -65.689  49.567  0.00  0.00     0.123 A 
ATOM      6  C   UNK d   1     -36.904 -64.330  46.981  0.00  0.00     0.131 C 
ATOM      7  C   UNK d   1     -37.640 -63.111  46.457  0.00  0.00     0.028 C 
ATOM      8  C   UNK d   1     -39.068 -63.424  46.729  0.00  0.00     0.078 C 
ENDROOT
BRANCH   1   9
ATOM      9  C   UNK d   1     -41.226 -64.492  49.041  0.00  0.00     0.232 C 
BRANCH   9  10
ATOM     10  C   UNK d   1     -41.615 -64.801  50.472  0.00  0.00     0.240 C 
ATOM     11  N   UNK d   1     -42.193 -66.011  50.824  0.00  0.00    -0.325 N 
ATOM     12  H   UNK d   1     -42.340 -66.712  50.036  0.00  0.00     0.169 HD
ATOM     13  O   UNK d   1     -41.383 -63.898  51.282  0.00  0.00    -0.271 OA
BRANCH  11  14
ATOM     14  C   UNK d   1     -42.602 -66.393  52.117  0.00  0.00     0.042 A 
ATOM     15  C   UNK d   1     -41.710 -67.160  52.899  0.00  0.00    -0.013 A 
ATOM     16  C   UNK d   1     -42.046 -67.572  54.168  0.00  0.00     0.042 A 
ATOM     17  C   UNK d   1     -40.394 -67.531  52.349  0.00  0.00     0.052 C 
ATOM     18 Cl   UNK d   1     -40.949 -68.518  55.151  0.00  0.00    -0.084 Cl
ATOM     19  C   UNK d   1     -43.261 -67.258  54.731  0.00  0.00     0.024 A 
ATOM     20  C   UNK d   1     -44.149 -66.516  53.995  0.00  0.00     0.004 A 
ATOM     21  C   UNK d   1     -43.801 -66.096  52.696  0.00  0.00     0.030 A 
ENDBRANCH  11  14
ENDBRANCH   9  10
ENDBRANCH   1   9
BRANCH   4  22
ATOM     22  C   UNK d   1     -36.679 -66.540  49.632  0.00  0.00    -0.008 A 
ATOM     23  C   UNK d   1     -35.414 -66.065  49.841  0.00  0.00     0.016 A 
ATOM     24  C   UNK d   1     -34.401 -66.820  50.402  0.00  0.00     0.037 A 
ATOM     25  C   UNK d   1     -34.625 -68.132  50.787  0.00  0.00     0.068 A 
ATOM     26  C   UNK d   1     -35.896 -68.612  50.579  0.00  0.00     0.037 A 
ATOM     27  C   UNK d   1     -36.908 -67.858  50.019  0.00  0.00     0.016 A 
BRANCH  25  28
ATOM     28  O   UNK d   1     -33.635 -68.919  51.351  0.00  0.00    -0.356 OA
ATOM     29  C   UNK d   1     -33.913 -70.115  52.056  0.00  0.00     0.210 C 
ENDBRANCH  25  28
ENDBRANCH   4  22
TORSDOF 5
ENDMDL
