MODEL 1
REMARK VINA RESULT:    -8.044      0.000      0.000
REMARK INTER + INTRA:         -12.316
REMARK INTER:                 -11.336
REMARK INTRA:                  -0.979
REMARK UNBOUND:                -0.979
REMARK  9 active torsions:
REMARK  status: ('A' for Active; 'I' for Inactive)
REMARK    1  A    between atoms: C_3  and  C_9 
REMARK    2  A    between atoms: N_10  and  N_11 
REMARK    3  A    between atoms: N_11  and  C_12 
REMARK    4  A    between atoms: N_13  and  C_22 
REMARK    5  A    between atoms: C_18  and  N_21 
REMARK    6  A    between atoms: C_24  and  C_29 
REMARK    7  A    between atoms: C_25  and  O_28 
REMARK    8  A    between atoms: C_26  and  O_27 
REMARK    9  A    between atoms: C_29  and  O_30 
ROOT
ATOM      1  C   UNK d   1     -40.647 -67.577  50.793  0.00  0.00     0.727 A 
ATOM      2  N   UNK d   1     -41.535 -67.190  51.722  0.00  0.00    -0.131 N 
ATOM      3  C   UNK d   1     -41.174 -67.806  52.860  0.00  0.00     0.182 A 
ATOM      4  N   UNK d   1     -41.687 -67.801  54.115  0.00  0.00    -0.221 NA
ATOM      5  C   UNK d   1     -41.134 -68.519  55.112  0.00  0.00     0.237 A 
ATOM      6  N   UNK d   1     -40.037 -69.272  54.876  0.00  0.00    -0.222 NA
ATOM      7  C   UNK d   1     -39.470 -69.329  53.657  0.00  0.00     0.156 A 
ATOM      8  C   UNK d   1     -40.055 -68.584  52.652  0.00  0.00     0.168 A 
ATOM      9  N   UNK d   1     -39.744 -68.423  51.344  0.00  0.00    -0.055 NA
ENDROOT
BRANCH   1  10
ATOM     10  N   UNK d   1     -40.642 -67.168  49.433  0.00  0.00    -0.107 N 
ATOM     11  H   UNK d   1     -41.412 -67.448  48.779  0.00  0.00     0.208 HD
BRANCH  10  12
ATOM     12  N   UNK d   1     -39.623 -66.380  48.894  0.00  0.00    -0.172 NA
ATOM     13  C   UNK d   1     -39.033 -65.534  49.657  0.00  0.00     0.154 C 
BRANCH  13  14
ATOM     14  C   UNK d   1     -37.954 -64.667  49.175  0.00  0.00     0.026 A 
ATOM     15  C   UNK d   1     -38.212 -63.403  48.692  0.00  0.00     0.047 A 
ATOM     16 Cl   UNK d   1     -39.871 -62.852  48.668  0.00  0.00    -0.083 Cl
ATOM     17  C   UNK d   1     -37.167 -62.594  48.239  0.00  0.00     0.025 A 
ATOM     18  C   UNK d   1     -35.857 -63.024  48.256  0.00  0.00     0.003 A 
ATOM     19  C   UNK d   1     -35.608 -64.291  48.742  0.00  0.00     0.025 A 
ATOM     20  C   UNK d   1     -36.644 -65.097  49.192  0.00  0.00     0.047 A 
ATOM     21 Cl   UNK d   1     -36.309 -66.711  49.808  0.00  0.00    -0.083 Cl
ENDBRANCH  13  14
ENDBRANCH  10  12
ENDBRANCH   1  10
BRANCH   2  22
ATOM     22  C   UNK d   1     -42.662 -66.309  51.615  0.00  0.00     0.279 C 
ATOM     23  O   UNK d   1     -43.680 -66.628  52.510  0.00  0.00    -0.353 OA
ATOM     24  C   UNK d   1     -44.468 -65.480  52.451  0.00  0.00     0.179 C 
ATOM     25  C   UNK d   1     -43.437 -64.407  52.771  0.00  0.00     0.182 C 
ATOM     26  C   UNK d   1     -42.271 -64.875  51.925  0.00  0.00     0.199 C 
BRANCH  24  27
ATOM     27  C   UNK d   1     -45.591 -65.494  53.452  0.00  0.00     0.198 C 
BRANCH  27  28
ATOM     28  O   UNK d   1     -45.231 -66.039  54.659  0.00  0.00    -0.398 OA
ATOM     29  H   UNK d   1     -44.261 -66.179  54.727  0.00  0.00     0.209 HD
ENDBRANCH  27  28
ENDBRANCH  24  27
BRANCH  25  30
ATOM     30  O   UNK d   1     -43.874 -63.144  52.397  0.00  0.00    -0.390 OA
ATOM     31  H   UNK d   1     -44.712 -62.958  52.901  0.00  0.00     0.210 HD
ENDBRANCH  25  30
BRANCH  26  32
ATOM     32  O   UNK d   1     -42.260 -64.089  50.771  0.00  0.00    -0.388 OA
ATOM     33  H   UNK d   1     -41.871 -63.206  50.930  0.00  0.00     0.210 HD
ENDBRANCH  26  32
ENDBRANCH   2  22
BRANCH   7  34
ATOM     34  N   UNK d   1     -38.323 -70.127  53.441  0.00  0.00    -0.382 N 
ATOM     35  H   UNK d   1     -37.750 -70.484  54.225  0.00  0.00     0.157 HD
ATOM     36  H   UNK d   1     -38.047 -70.360  52.470  0.00  0.00     0.157 HD
ENDBRANCH   7  34
TORSDOF 9
ENDMDL
