MODEL 1
REMARK VINA RESULT:    -8.184      0.000      0.000
REMARK INTER + INTRA:         -11.268
REMARK INTER:                 -10.576
REMARK INTRA:                  -0.692
REMARK UNBOUND:                -0.692
REMARK  5 active torsions:
REMARK  status: ('A' for Active; 'I' for Inactive)
REMARK    1  A    between atoms: C_3  and  O_29 
REMARK    2  A    between atoms: C_6  and  N_8 
REMARK       I    between atoms: N_8  and  C_9 
REMARK    3  A    between atoms: C_9  and  C_11 
REMARK    4  A    between atoms: C_11  and  N_12 
REMARK    5  A    between atoms: C_17  and  N_23 
ROOT
ATOM      1  N   UNK d   1     -38.033 -68.250  50.582  0.00  0.00    -0.299 N 
ATOM      2  C   UNK d   1     -38.698 -67.306  49.880  0.00  0.00     0.215 A 
ATOM      3  N   UNK d   1     -39.868 -66.812  50.336  0.00  0.00    -0.223 NA
ATOM      4  C   UNK d   1     -40.428 -67.213  51.483  0.00  0.00     0.186 A 
ATOM      5  N   UNK d   1     -41.591 -66.726  51.946  0.00  0.00    -0.042 NA
ATOM      6  C   UNK d   1     -42.175 -67.112  53.093  0.00  0.00     0.726 A 
ATOM      7  N   UNK d   1     -41.521 -68.061  53.815  0.00  0.00    -0.074 NA
ATOM      8  C   UNK d   1     -40.356 -68.574  53.390  0.00  0.00     0.157 A 
ATOM      9  C   UNK d   1     -39.765 -68.171  52.211  0.00  0.00     0.099 A 
ATOM     10  C   UNK d   1     -38.569 -68.686  51.756  0.00  0.00     0.264 A 
ATOM     11  O   UNK d   1     -38.011 -69.560  52.465  0.00  0.00    -0.267 OA
ENDROOT
BRANCH   1  12
ATOM     12  C   UNK d   1     -36.792 -68.825  50.170  0.00  0.00     0.236 C 
BRANCH  12  13
ATOM     13  C   UNK d   1     -35.886 -67.825  49.507  0.00  0.00     0.240 C 
ATOM     14  N   UNK d   1     -35.241 -66.824  50.252  0.00  0.00    -0.326 N 
ATOM     15  H   UNK d   1     -35.413 -66.791  51.312  0.00  0.00     0.169 HD
ATOM     16  O   UNK d   1     -35.750 -67.942  48.279  0.00  0.00    -0.271 OA
BRANCH  14  17
ATOM     17  C   UNK d   1     -34.385 -65.857  49.682  0.00  0.00     0.036 A 
ATOM     18  C   UNK d   1     -33.072 -66.053  49.340  0.00  0.00     0.032 A 
ATOM     19  C   UNK d   1     -32.319 -65.011  48.795  0.00  0.00     0.041 A 
ATOM     20  C   UNK d   1     -32.821 -63.753  48.570  0.00  0.00     0.090 A 
ATOM     21  C   UNK d   1     -34.137 -63.547  48.911  0.00  0.00     0.069 A 
ATOM     22 Cl   UNK d   1     -34.878 -61.979  48.664  0.00  0.00    -0.081 Cl
ATOM     23  C   UNK d   1     -34.887 -64.563  49.446  0.00  0.00     0.056 A 
BRANCH  20  24
ATOM     24  O   UNK d   1     -32.034 -62.732  48.021  0.00  0.00    -0.354 OA
ATOM     25  C   UNK d   1     -31.912 -62.615  46.622  0.00  0.00     0.210 C 
ENDBRANCH  20  24
ENDBRANCH  14  17
ENDBRANCH  12  13
ENDBRANCH   1  12
BRANCH   6  26
ATOM     26  N   UNK d   1     -43.404 -66.575  53.545  0.00  0.00    -0.210 N 
ATOM     27  C   UNK d   1     -43.541 -65.139  53.622  0.00  0.00     0.167 C 
ATOM     28  C   UNK d   1     -44.943 -64.753  53.155  0.00  0.00     0.188 C 
ATOM     29  O   UNK d   1     -45.925 -65.523  53.774  0.00  0.00    -0.388 OA
ATOM     30  C   UNK d   1     -45.786 -66.820  53.279  0.00  0.00     0.188 C 
ATOM     31  C   UNK d   1     -44.529 -67.393  53.934  0.00  0.00     0.167 C 
ENDBRANCH   6  26
TORSDOF 5
ENDMDL
