MODEL 1
REMARK VINA RESULT:    -8.342      0.000      0.000
REMARK INTER + INTRA:         -10.364
REMARK INTER:                  -9.805
REMARK INTRA:                  -0.559
REMARK UNBOUND:                -0.559
REMARK  3 active torsions:
REMARK  status: ('A' for Active; 'I' for Inactive)
REMARK       I    between atoms: N_9  and  C_12 
REMARK    1  A    between atoms: C_12  and  C_14 
REMARK    2  A    between atoms: C_14  and  O_15 
REMARK    3  A    between atoms: O_15  and  C_16 
ROOT
ATOM      1 Cl   UNK d   1     -40.829 -68.022  55.049  0.00  0.00    -0.084 Cl
ATOM      2  C   UNK d   1     -40.032 -68.441  53.539  0.00  0.00     0.041 A 
ATOM      3  C   UNK d   1     -40.166 -67.633  52.428  0.00  0.00    -0.027 A 
ATOM      4  C   UNK d   1     -39.547 -67.958  51.254  0.00  0.00    -0.032 A 
ATOM      5  C   UNK d   1     -38.792 -69.107  51.209  0.00  0.00     0.009 A 
ATOM      6  C   UNK d   1     -38.645 -69.929  52.305  0.00  0.00     0.002 A 
ATOM      7  C   UNK d   1     -39.274 -69.591  53.487  0.00  0.00     0.024 A 
ATOM      8  C   UNK d   1     -39.643 -67.142  50.020  0.00  0.00     0.165 C 
ATOM      9  N   UNK d   1     -40.314 -65.914  50.372  0.00  0.00    -0.346 N 
ATOM     10  C   UNK d   1     -41.500 -66.032  51.186  0.00  0.00     0.131 C 
ATOM     11  C   UNK d   1     -41.009 -66.412  52.588  0.00  0.00     0.061 C 
ATOM     12  C   UNK d   1     -39.854 -64.643  49.955  0.00  0.00     0.244 C 
ATOM     13  O   UNK d   1     -40.486 -63.609  50.297  0.00  0.00    -0.271 OA
ENDROOT
BRANCH  12  14
ATOM     14  C   UNK d   1     -38.645 -64.448  49.120  0.00  0.00     0.280 C 
BRANCH  14  15
ATOM     15  O   UNK d   1     -37.471 -64.525  49.866  0.00  0.00    -0.324 OA
BRANCH  15  16
ATOM     16  C   UNK d   1     -36.334 -65.212  49.460  0.00  0.00     0.184 A 
ATOM     17  N   UNK d   1     -36.374 -65.939  48.327  0.00  0.00    -0.139 NA
ATOM     18  N   UNK d   1     -35.319 -66.620  47.885  0.00  0.00    -0.203 N 
ATOM     19  C   UNK d   1     -34.148 -66.627  48.535  0.00  0.00     0.174 A 
ATOM     20  C   UNK d   1     -35.166 -67.392  46.794  0.00  0.00     0.261 A 
ATOM     21  N   UNK d   1     -33.272 -67.395  47.859  0.00  0.00    -0.129 NA
ATOM     22  C   UNK d   1     -34.069 -65.887  49.710  0.00  0.00     0.059 A 
ATOM     23  N   UNK d   1     -33.904 -67.852  46.805  0.00  0.00    -0.141 NA
ATOM     24  C   UNK d   1     -35.157 -65.184  50.167  0.00  0.00     0.063 A 
ENDBRANCH  15  16
ENDBRANCH  14  15
ENDBRANCH  12  14
TORSDOF 3
ENDMDL
