MODEL 1
REMARK VINA RESULT:    -7.824      0.000      0.000
REMARK INTER + INTRA:         -10.259
REMARK INTER:                  -9.653
REMARK INTRA:                  -0.606
REMARK UNBOUND:                -0.606
REMARK  4 active torsions:
REMARK  status: ('A' for Active; 'I' for Inactive)
REMARK    1  A    between atoms: S_1  and  N_4 
REMARK    2  A    between atoms: S_1  and  C_17 
REMARK    3  A    between atoms: C_6  and  O_9 
REMARK    4  A    between atoms: O_9  and  C_10 
ROOT
ATOM      1  N   UNK d   1     -38.954 -64.720  48.757  0.00  0.00    -0.204 NA
ATOM      2  C   UNK d   1     -38.996 -64.538  50.174  0.00  0.00     0.140 C 
ATOM      3  C   UNK d   1     -40.421 -64.167  50.546  0.00  0.00     0.147 C 
ATOM      4  C   UNK d   1     -41.212 -64.826  49.435  0.00  0.00     0.049 C 
ATOM      5  C   UNK d   1     -40.279 -64.590  48.241  0.00  0.00     0.110 C 
ENDROOT
BRANCH   1   6
ATOM      6  S   UNK d   1     -38.191 -66.194  48.301  0.00  0.00     0.243 S 
ATOM      7  O   UNK d   1     -36.820 -65.922  47.780  0.00  0.00    -0.206 OA
ATOM      8  O   UNK d   1     -39.015 -66.809  47.200  0.00  0.00    -0.206 OA
BRANCH   6   9
ATOM      9  C   UNK d   1     -38.104 -67.319  49.636  0.00  0.00     0.077 A 
ATOM     10  C   UNK d   1     -39.237 -67.631  50.362  0.00  0.00     0.064 A 
ATOM     11  C   UNK d   1     -39.222 -68.514  51.428  0.00  0.00     0.103 A 
ATOM     12  C   UNK d   1     -38.037 -69.123  51.799  0.00  0.00     0.102 A 
ATOM     13  O   UNK d   1     -40.343 -68.833  52.158  0.00  0.00    -0.346 OA
ATOM     14  C   UNK d   1     -36.917 -68.808  51.073  0.00  0.00     0.041 A 
ATOM     15  O   UNK d   1     -38.068 -70.001  52.871  0.00  0.00    -0.346 OA
ATOM     16  C   UNK d   1     -36.928 -67.930  50.012  0.00  0.00     0.028 A 
ATOM     17  C   UNK d   1     -39.040 -69.944  53.900  0.00  0.00     0.202 C 
ATOM     18  C   UNK d   1     -40.366 -69.405  53.433  0.00  0.00     0.202 C 
ENDBRANCH   6   9
ENDBRANCH   1   6
BRANCH   3  19
ATOM     19  O   UNK d   1     -40.733 -64.824  51.763  0.00  0.00    -0.312 OA
BRANCH  19  20
ATOM     20  C   UNK d   1     -42.039 -65.009  52.185  0.00  0.00     0.268 A 
ATOM     21  N   UNK d   1     -42.371 -66.280  52.554  0.00  0.00    -0.218 NA
ATOM     22  C   UNK d   1     -43.632 -66.491  52.968  0.00  0.00     0.146 A 
ATOM     23  C   UNK d   1     -44.572 -65.482  53.027  0.00  0.00     0.069 A 
ATOM     24  C   UNK d   1     -44.179 -64.214  52.641  0.00  0.00     0.146 A 
ATOM     25 Cl   UNK d   1     -46.212 -65.771  53.568  0.00  0.00    -0.081 Cl
ATOM     26  N   UNK d   1     -42.912 -64.004  52.225  0.00  0.00    -0.218 NA
ENDBRANCH  19  20
ENDBRANCH   3  19
TORSDOF 4
ENDMDL
