/Users/jonathanwahrer/Desktop/Msc/3_Semester/Drug_Design_Praktikum/waehrer_HTS_screening/HTS_experiment/out/docking_results/vina_output/3e7o/1852_docked.pdbqt
 OpenBabel03192216453D

 26 29  0  0  1  0  0  0  0  0999 V2000
  -38.9540  -64.7200   48.7570 N   0  0  0  0  0  0  0  0  0  0  0  0
  -38.9960  -64.5380   50.1740 C   0  0  0  0  0  2  0  0  0  0  0  0
  -40.4210  -64.1670   50.5460 C   0  0  1  0  0  3  0  0  0  0  0  0
  -41.2120  -64.8260   49.4350 C   0  0  0  0  0  2  0  0  0  0  0  0
  -40.2790  -64.5900   48.2410 C   0  0  0  0  0  2  0  0  0  0  0  0
  -38.1910  -66.1940   48.3010 S   0  0  0  0  0  0  0  0  0  0  0  0
  -36.8200  -65.9220   47.7800 O   0  0  0  0  0  0  0  0  0  0  0  0
  -39.0150  -66.8090   47.2000 O   0  0  0  0  0  0  0  0  0  0  0  0
  -38.1040  -67.3190   49.6360 C   0  0  0  0  0  0  0  0  0  0  0  0
  -39.2370  -67.6310   50.3620 C   0  0  0  0  0  3  0  0  0  0  0  0
  -39.2220  -68.5140   51.4280 C   0  0  0  0  0  0  0  0  0  0  0  0
  -38.0370  -69.1230   51.7990 C   0  0  0  0  0  0  0  0  0  0  0  0
  -40.3430  -68.8330   52.1580 O   0  0  0  0  0  0  0  0  0  0  0  0
  -36.9170  -68.8080   51.0730 C   0  0  0  0  0  3  0  0  0  0  0  0
  -38.0680  -70.0010   52.8710 O   0  0  0  0  0  0  0  0  0  0  0  0
  -36.9280  -67.9300   50.0120 C   0  0  0  0  0  3  0  0  0  0  0  0
  -39.0400  -69.9440   53.9000 C   0  0  0  0  0  2  0  0  0  0  0  0
  -40.3660  -69.4050   53.4330 C   0  0  0  0  0  2  0  0  0  0  0  0
  -40.7330  -64.8240   51.7630 O   0  0  0  0  0  0  0  0  0  0  0  0
  -42.0390  -65.0090   52.1850 C   0  0  0  0  0  0  0  0  0  0  0  0
  -42.3710  -66.2800   52.5540 N   0  0  0  0  0  0  0  0  0  0  0  0
  -43.6320  -66.4910   52.9680 C   0  0  0  0  0  3  0  0  0  0  0  0
  -44.5720  -65.4820   53.0270 C   0  0  0  0  0  0  0  0  0  0  0  0
  -44.1790  -64.2140   52.6410 C   0  0  0  0  0  2  0  0  0  0  0  0
  -46.2120  -65.7710   53.5680 Cl  0  0  0  0  0  0  0  0  0  0  0  0
  -42.9120  -64.0040   52.2250 N   0  0  0  0  0  0  0  0  0  0  0  0
  1  2  1  0  0  0  0
  2  3  1  0  0  0  0
  3 19  1  1  0  0  0
  4  3  1  0  0  0  0
  5  1  1  0  0  0  0
  5  4  1  0  0  0  0
  6  1  1  0  0  0  0
  6  9  1  0  0  0  0
  7  6  2  0  0  0  0
  8  6  2  0  0  0  0
  9 16  2  0  0  0  0
  9 10  1  0  0  0  0
 10 11  2  0  0  0  0
 11 12  1  0  0  0  0
 11 13  1  0  0  0  0
 12 15  1  0  0  0  0
 13 18  1  0  0  0  0
 14 12  2  0  0  0  0
 15 17  1  0  0  0  0
 16 14  1  0  0  0  0
 18 17  1  0  0  0  0
 19 20  1  0  0  0  0
 20 26  2  0  0  0  0
 20 21  2  0  0  0  0
 21 22  1  0  0  0  0
 22 23  2  0  0  0  0
 23 25  1  0  0  0  0
 24 23  1  0  0  0  0
 26 24  1  0  0  0  0
M  END
>  <Pose>
1

>  <Score>
-7.824

$$$$
