/Users/jonathanwahrer/Desktop/Msc/3_Semester/Drug_Design_Praktikum/waehrer_HTS_screening/HTS_experiment/out/docking_results/vina_output/3e7o/1856_docked.pdbqt
 OpenBabel03192216453D

 31 34  0  0  0  0  0  0  0  0999 V2000
  -45.1020  -66.3540   53.8510 C   0  0  0  0  0  0  0  0  0  0  0  0
  -46.2650  -67.0210   53.9070 N   0  0  0  0  0  4  0  0  0  0  0  0
  -47.3100  -66.7970   53.0680 C   0  0  0  0  0  0  0  0  0  0  0  0
  -47.1020  -65.8270   52.1380 N   0  0  0  0  0  0  0  0  0  0  0  0
  -45.9620  -65.1260   52.0340 C   0  0  0  0  0  0  0  0  0  0  0  0
  -44.9880  -65.4040   52.8900 N   0  0  0  0  0  2  0  0  0  0  0  0
  -44.0390  -66.6250   54.7520 N   0  0  0  0  0  0  0  0  0  0  0  0
  -43.9550  -66.1160   55.6540 H   0  0  0  0  0  0  0  0  0  0  0  0
  -43.0710  -67.5850   54.4600 N   0  0  0  0  0  0  0  0  0  0  0  0
  -41.8620  -67.1610   54.1630 C   0  0  0  0  0  3  0  0  0  0  0  0
  -40.8210  -68.1280   53.8510 C   0  0  0  0  0  0  0  0  0  0  0  0
  -40.0560  -67.9660   52.6850 C   0  0  0  0  0  3  0  0  0  0  0  0
  -39.0770  -68.8630   52.3780 C   0  0  0  0  0  0  0  0  0  0  0  0
  -38.0360  -68.6480   50.7940 Br  0  0  0  0  0  0  0  0  0  0  0  0
  -38.8140  -69.9380   53.1970 C   0  0  0  0  0  3  0  0  0  0  0  0
  -39.5480  -70.1160   54.3420 C   0  0  0  0  0  3  0  0  0  0  0  0
  -40.5590  -69.1970   54.6650 C   0  0  0  0  0  0  0  0  0  0  0  0
  -41.2790  -69.4060   55.8250 O   0  0  0  0  0  0  0  0  0  0  0  0
  -40.9440  -69.9110   56.6190 H   0  0  0  0  0  0  0  0  0  0  0  0
  -48.5170  -67.5160   53.1540 N   0  0  0  0  0  0  0  0  0  0  0  0
  -49.6590  -67.1180   52.3870 C   0  0  0  0  0  2  0  0  0  0  0  0
  -50.1230  -68.3370   51.6080 C   0  0  0  0  0  2  0  0  0  0  0  0
  -50.4160  -69.3340   52.5510 O   0  0  0  0  0  0  0  0  0  0  0  0
  -49.2420  -69.7830   53.1570 C   0  0  0  0  0  2  0  0  0  0  0  0
  -48.6340  -68.6600   54.0070 C   0  0  0  0  0  2  0  0  0  0  0  0
  -45.8140  -64.1290   51.0410 N   0  0  0  0  0  0  0  0  0  0  0  0
  -46.9040  -63.6810   50.1990 C   0  0  0  0  0  2  0  0  0  0  0  0
  -46.6920  -62.2330   49.8150 C   0  0  0  0  0  2  0  0  0  0  0  0
  -45.4950  -61.9970   49.1940 O   0  0  0  0  0  0  0  0  0  0  0  0
  -44.5770  -63.0290   49.3360 C   0  0  0  0  0  2  0  0  0  0  0  0
  -44.5270  -63.4720   50.7950 C   0  0  0  0  0  2  0  0  0  0  0  0
  1  2  2  0  0  0  0
  1  7  1  0  0  0  0
  3 20  1  0  0  0  0
  3  2  2  0  0  0  0
  4  3  1  0  0  0  0
  5  4  2  0  0  0  0
  5  6  1  0  0  0  0
  6  1  1  0  0  0  0
  7  8  1  0  0  0  0
  9  7  1  0  0  0  0
 10  9  2  0  0  0  0
 11 10  1  0  0  0  0
 11 17  1  0  0  0  0
 12 11  2  0  0  0  0
 13 12  1  0  0  0  0
 13 15  2  0  0  0  0
 14 13  1  0  0  0  0
 15 16  1  0  0  0  0
 16 17  2  0  0  0  0
 17 18  1  0  0  0  0
 18 19  1  0  0  0  0
 20 25  1  0  0  0  0
 21 20  1  0  0  0  0
 22 21  1  0  0  0  0
 22 23  1  0  0  0  0
 23 24  1  0  0  0  0
 24 25  1  0  0  0  0
 26  5  1  0  0  0  0
 27 26  1  0  0  0  0
 28 27  1  0  0  0  0
 29 30  1  0  0  0  0
 29 28  1  0  0  0  0
 30 31  1  0  0  0  0
 31 26  1  0  0  0  0
M  END
>  <Pose>
1

>  <Score>
-7.883

$$$$
