MODEL 1
REMARK VINA RESULT:    -7.724      0.000      0.000
REMARK INTER + INTRA:         -10.114
REMARK INTER:                  -9.078
REMARK INTRA:                  -1.036
REMARK UNBOUND:                -1.036
REMARK  3 active torsions:
REMARK  status: ('A' for Active; 'I' for Inactive)
REMARK    1  A    between atoms: C_4  and  C_8 
REMARK    2  A    between atoms: C_8  and  N_9 
REMARK       I    between atoms: N_16  and  C_19 
REMARK    3  A    between atoms: C_19  and  C_21 
ROOT
ATOM      1  N   UNK d   1     -35.616 -67.629  49.528  0.00  0.00    -0.264 N 
ATOM      2  C   UNK d   1     -34.564 -67.602  50.504  0.00  0.00     0.326 C 
ATOM      3  O   UNK d   1     -34.394 -68.480  51.413  0.00  0.00    -0.247 OA
ATOM      4  N   UNK d   1     -33.757 -66.447  50.286  0.00  0.00    -0.324 N 
ATOM      5  C   UNK d   1     -34.584 -65.531  49.533  0.00  0.00     0.119 C 
ATOM      6  C   UNK d   1     -35.520 -64.864  50.523  0.00  0.00     0.061 C 
ATOM      7  C   UNK d   1     -36.650 -64.261  49.696  0.00  0.00     0.129 C 
ATOM      8  N   UNK d   1     -36.103 -63.510  48.582  0.00  0.00    -0.346 N 
ATOM      9  C   UNK d   1     -34.681 -63.317  48.481  0.00  0.00     0.129 C 
ATOM     10  C   UNK d   1     -33.850 -64.529  48.750  0.00  0.00     0.061 C 
ATOM     11  C   UNK d   1     -36.975 -62.965  47.604  0.00  0.00     0.273 C 
ATOM     12  O   UNK d   1     -36.489 -62.311  46.626  0.00  0.00    -0.266 OA
ATOM     13  C   UNK d   1     -35.411 -66.466  48.730  0.00  0.00     0.256 C 
ATOM     14  O   UNK d   1     -35.881 -66.334  47.568  0.00  0.00    -0.270 OA
ATOM     15  H   UNK d   1     -32.781 -66.292  50.601  0.00  0.00     0.165 HD
ENDROOT
BRANCH   1  16
ATOM     16  C   UNK d   1     -36.663 -68.611  49.370  0.00  0.00     0.175 C 
BRANCH  16  17
ATOM     17  C   UNK d   1     -37.735 -68.473  50.378  0.00  0.00    -0.038 A 
ATOM     18  C   UNK d   1     -37.785 -69.284  51.489  0.00  0.00     0.032 A 
ATOM     19  C   UNK d   1     -38.770 -69.186  52.450  0.00  0.00     0.034 A 
ATOM     20 Cl   UNK d   1     -38.827 -70.222  53.862  0.00  0.00    -0.084 Cl
ATOM     21  C   UNK d   1     -39.736 -68.218  52.260  0.00  0.00     0.024 A 
ATOM     22  C   UNK d   1     -39.698 -67.398  51.151  0.00  0.00     0.002 A 
ATOM     23  C   UNK d   1     -38.702 -67.511  50.196  0.00  0.00     0.009 A 
ENDBRANCH  16  17
ENDBRANCH   1  16
BRANCH  11  24
ATOM     24  C   UNK d   1     -38.420 -63.109  47.648  0.00  0.00     0.141 A 
ATOM     25  N   UNK d   1     -39.226 -62.184  48.205  0.00  0.00    -0.253 NA
ATOM     26  C   UNK d   1     -40.556 -62.382  48.211  0.00  0.00     0.136 A 
ATOM     27  C   UNK d   1     -41.139 -63.504  47.664  0.00  0.00     0.135 A 
ATOM     28  N   UNK d   1     -40.340 -64.427  47.108  0.00  0.00    -0.269 NA
ATOM     29  C   UNK d   1     -38.994 -64.232  47.099  0.00  0.00     0.153 A 
ENDBRANCH  11  24
TORSDOF 3
ENDMDL
