MODEL 1
REMARK VINA RESULT:    -7.960      0.000      0.000
REMARK INTER + INTRA:          -8.582
REMARK INTER:                  -9.589
REMARK INTRA:                   1.007
REMARK UNBOUND:                 1.007
REMARK  4 active torsions:
REMARK  status: ('A' for Active; 'I' for Inactive)
REMARK    1  A    between atoms: C_5  and  C_8 
REMARK    2  A    between atoms: C_8  and  O_26 
REMARK    3  A    between atoms: N_9  and  C_18 
REMARK    4  A    between atoms: C_21  and  O_24 
ROOT
ATOM      1  C   UNK d   1     -38.009 -66.687  48.343  0.00  0.00     0.287 C 
ATOM      2  N   UNK d   1     -38.737 -67.140  49.464  0.00  0.00     0.042 N 
ATOM      3  C   UNK d   1     -37.951 -67.994  50.250  0.00  0.00     0.210 C 
ATOM      4  C   UNK d   1     -38.024 -68.781  51.295  0.00  0.00     0.030 C 
ATOM      5  C   UNK d   1     -36.856 -69.520  51.786  0.00  0.00     0.032 C 
ATOM      6  C   UNK d   1     -35.514 -69.145  51.358  0.00  0.00     0.024 C 
ATOM      7  C   UNK d   1     -35.448 -68.068  50.304  0.00  0.00     0.125 C 
ATOM      8  N   UNK d   1     -36.662 -67.985  49.574  0.00  0.00    -0.351 N 
ATOM      9  C   UNK d   1     -37.050 -67.878  48.173  0.00  0.00     0.151 C 
ATOM     10  C   UNK d   1     -35.879 -67.639  47.316  0.00  0.00     0.038 C 
ATOM     11  H   UNK d   1     -39.415 -67.894  48.993  0.00  0.00     0.299 HD
ENDROOT
BRANCH   1  12
ATOM     12  C   UNK d   1     -37.236 -65.453  48.456  0.00  0.00     0.008 A 
ATOM     13  C   UNK d   1     -37.290 -64.521  47.454  0.00  0.00     0.014 A 
ATOM     14  C   UNK d   1     -36.557 -63.336  47.505  0.00  0.00     0.024 A 
ATOM     15  C   UNK d   1     -35.751 -63.108  48.611  0.00  0.00     0.034 A 
ATOM     16 Cl   UNK d   1     -34.788 -61.651  48.769  0.00  0.00    -0.084 Cl
ATOM     17  C   UNK d   1     -35.708 -64.057  49.614  0.00  0.00     0.024 A 
ATOM     18  C   UNK d   1     -36.434 -65.229  49.562  0.00  0.00     0.014 A 
ENDBRANCH   1  12
BRANCH   1  19
ATOM     19  O   UNK d   1     -38.811 -66.702  47.225  0.00  0.00    -0.359 OA
ATOM     20  H   UNK d   1     -39.759 -66.516  47.357  0.00  0.00     0.213 HD
ENDBRANCH   1  19
BRANCH   2  21
ATOM     21  C   UNK d   1     -39.685 -66.285  50.016  0.00  0.00     0.146 A 
ATOM     22  C   UNK d   1     -40.914 -66.833  50.344  0.00  0.00     0.041 A 
ATOM     23  C   UNK d   1     -41.939 -66.095  50.885  0.00  0.00     0.039 A 
ATOM     24  C   UNK d   1     -41.808 -64.727  51.143  0.00  0.00     0.068 A 
ATOM     25  C   UNK d   1     -40.581 -64.210  50.807  0.00  0.00     0.039 A 
ATOM     26  C   UNK d   1     -39.561 -64.954  50.267  0.00  0.00     0.041 A 
BRANCH  24  27
ATOM     27  O   UNK d   1     -42.844 -63.996  51.691  0.00  0.00    -0.356 OA
ATOM     28  C   UNK d   1     -43.408 -64.400  52.913  0.00  0.00     0.210 C 
ENDBRANCH  24  27
ENDBRANCH   2  21
TORSDOF 4
ENDMDL
