MODEL 1
REMARK VINA RESULT:    -8.185      0.000      0.000
REMARK INTER + INTRA:         -10.981
REMARK INTER:                 -10.099
REMARK INTRA:                  -0.882
REMARK UNBOUND:                -0.882
REMARK  4 active torsions:
REMARK  status: ('A' for Active; 'I' for Inactive)
REMARK    1  A    between atoms: C_5  and  N_8 
REMARK    2  A    between atoms: N_15  and  C_16 
REMARK    3  A    between atoms: C_16  and  C_17 
REMARK    4  A    between atoms: C_19  and  O_23 
ROOT
ATOM      1  N   UNK d   1     -41.698 -67.404  52.884  0.00  0.00    -0.241 N 
ATOM      2  C   UNK d   1     -40.823 -68.040  52.069  0.00  0.00     0.286 A 
ATOM      3  O   UNK d   1     -40.762 -67.858  50.825  0.00  0.00    -0.265 OA
ATOM      4  C   UNK d   1     -40.017 -68.907  52.788  0.00  0.00     0.154 A 
ATOM      5  C   UNK d   1     -40.402 -68.801  54.050  0.00  0.00     0.152 A 
ATOM      6  N   UNK d   1     -39.615 -69.648  54.747  0.00  0.00    -0.279 N 
ATOM      7  N   UNK d   1     -38.771 -70.251  53.899  0.00  0.00    -0.239 N 
ATOM      8  N   UNK d   1     -39.014 -69.797  52.680  0.00  0.00    -0.266 N 
ATOM      9  C   UNK d   1     -41.430 -67.883  54.111  0.00  0.00     0.286 A 
ATOM     10  O   UNK d   1     -42.009 -67.561  55.172  0.00  0.00    -0.265 OA
ATOM     11  H   UNK d   1     -39.664 -69.801  55.771  0.00  0.00     0.189 HD
ATOM     12  H   UNK d   1     -38.037 -70.958  54.114  0.00  0.00     0.208 HD
ENDROOT
BRANCH   8  13
ATOM     13  C   UNK d   1     -38.334 -70.177  51.460  0.00  0.00     0.189 C 
BRANCH  13  14
ATOM     14  C   UNK d   1     -37.207 -69.273  51.118  0.00  0.00    -0.036 A 
ATOM     15  C   UNK d   1     -37.309 -68.204  50.256  0.00  0.00     0.045 A 
ATOM     16  C   UNK d   1     -36.258 -67.365  49.940  0.00  0.00     0.068 A 
ATOM     17  C   UNK d   1     -35.031 -67.599  50.512  0.00  0.00     0.037 A 
ATOM     18  C   UNK d   1     -34.884 -68.656  51.379  0.00  0.00     0.003 A 
ATOM     19  C   UNK d   1     -35.955 -69.482  51.678  0.00  0.00     0.009 A 
BRANCH  16  20
ATOM     20  O   UNK d   1     -36.470 -66.305  49.050  0.00  0.00    -0.356 OA
ATOM     21  C   UNK d   1     -37.662 -65.547  49.075  0.00  0.00     0.210 C 
ENDBRANCH  16  20
ENDBRANCH  13  14
ENDBRANCH   8  13
BRANCH   1  22
ATOM     22  C   UNK d   1     -42.669 -66.452  52.507  0.00  0.00     0.046 A 
ATOM     23  C   UNK d   1     -42.325 -65.161  52.166  0.00  0.00     0.032 A 
ATOM     24  C   UNK d   1     -43.257 -64.210  51.795  0.00  0.00     0.026 A 
ATOM     25  C   UNK d   1     -44.587 -64.576  51.765  0.00  0.00     0.034 A 
ATOM     26 Cl   UNK d   1     -45.837 -63.417  51.300  0.00  0.00    -0.084 Cl
ATOM     27  C   UNK d   1     -44.983 -65.856  52.097  0.00  0.00     0.026 A 
ATOM     28  C   UNK d   1     -44.010 -66.780  52.466  0.00  0.00     0.032 A 
ENDBRANCH   1  22
TORSDOF 4
ENDMDL
