MODEL 1
REMARK VINA RESULT:    -8.246      0.000      0.000
REMARK INTER + INTRA:         -10.359
REMARK INTER:                  -9.692
REMARK INTRA:                  -0.667
REMARK UNBOUND:                -0.667
REMARK  3 active torsions:
REMARK  status: ('A' for Active; 'I' for Inactive)
REMARK    1  A    between atoms: C_5  and  N_8 
REMARK    2  A    between atoms: N_15  and  C_16 
REMARK    3  A    between atoms: C_16  and  C_17 
ROOT
ATOM      1  N   UNK d   1     -41.667 -67.418  52.804  0.00  0.00    -0.241 N 
ATOM      2  C   UNK d   1     -40.775 -68.025  51.990  0.00  0.00     0.286 A 
ATOM      3  O   UNK d   1     -40.725 -67.852  50.754  0.00  0.00    -0.265 OA
ATOM      4  C   UNK d   1     -39.933 -68.856  52.709  0.00  0.00     0.154 A 
ATOM      5  C   UNK d   1     -40.321 -68.752  53.988  0.00  0.00     0.152 A 
ATOM      6  N   UNK d   1     -39.497 -69.560  54.677  0.00  0.00    -0.279 N 
ATOM      7  N   UNK d   1     -38.642 -70.132  53.849  0.00  0.00    -0.239 N 
ATOM      8  N   UNK d   1     -38.898 -69.709  52.629  0.00  0.00    -0.266 N 
ATOM      9  C   UNK d   1     -41.381 -67.871  54.031  0.00  0.00     0.286 A 
ATOM     10  O   UNK d   1     -41.994 -67.538  55.082  0.00  0.00    -0.265 OA
ATOM     11  H   UNK d   1     -39.502 -69.733  55.704  0.00  0.00     0.189 HD
ATOM     12  H   UNK d   1     -37.875 -70.819  54.112  0.00  0.00     0.208 HD
ENDROOT
BRANCH   1  13
ATOM     13  C   UNK d   1     -42.691 -66.496  52.437  0.00  0.00     0.046 A 
ATOM     14  C   UNK d   1     -44.024 -66.843  52.492  0.00  0.00     0.032 A 
ATOM     15  C   UNK d   1     -45.023 -65.956  52.138  0.00  0.00     0.026 A 
ATOM     16  C   UNK d   1     -44.726 -64.678  51.713  0.00  0.00     0.034 A 
ATOM     17 Cl   UNK d   1     -46.001 -63.549  51.262  0.00  0.00    -0.084 Cl
ATOM     18  C   UNK d   1     -43.395 -64.319  51.653  0.00  0.00     0.026 A 
ATOM     19  C   UNK d   1     -42.403 -65.213  52.009  0.00  0.00     0.032 A 
ENDBRANCH   1  13
BRANCH   8  20
ATOM     20  C   UNK d   1     -38.210 -70.082  51.416  0.00  0.00     0.189 C 
BRANCH  20  21
ATOM     21  C   UNK d   1     -37.067 -69.203  51.085  0.00  0.00    -0.038 A 
ATOM     22  C   UNK d   1     -37.238 -68.171  50.195  0.00  0.00     0.009 A 
ATOM     23  C   UNK d   1     -36.161 -67.368  49.899  0.00  0.00     0.001 A 
ATOM     24  C   UNK d   1     -34.921 -67.581  50.475  0.00  0.00     0.000 A 
ATOM     25  C   UNK d   1     -34.749 -68.616  51.366  0.00  0.00     0.001 A 
ATOM     26  C   UNK d   1     -35.829 -69.404  51.650  0.00  0.00     0.009 A 
ENDBRANCH  20  21
ENDBRANCH   8  20
TORSDOF 3
ENDMDL
