/Users/jonathanwahrer/Desktop/Msc/3_Semester/Drug_Design_Praktikum/waehrer_HTS_screening/HTS_experiment/out/docking_results/vina_output/3e7o/1894_docked.pdbqt
 OpenBabel03192216463D

 26 29  0  0  0  0  0  0  0  0999 V2000
  -41.6670  -67.4180   52.8040 N   0  0  0  0  0  0  0  0  0  0  0  0
  -40.7750  -68.0250   51.9900 C   0  0  0  0  0  0  0  0  0  0  0  0
  -40.7250  -67.8520   50.7540 O   0  0  0  0  0  0  0  0  0  0  0  0
  -39.9330  -68.8560   52.7090 C   0  0  0  0  0  0  0  0  0  0  0  0
  -40.3210  -68.7520   53.9880 C   0  0  0  0  0  0  0  0  0  0  0  0
  -39.4970  -69.5600   54.6770 N   0  0  0  0  0  0  0  0  0  0  0  0
  -38.6420  -70.1320   53.8490 N   0  0  0  0  0  0  0  0  0  0  0  0
  -38.8980  -69.7090   52.6290 N   0  0  0  0  0  0  0  0  0  0  0  0
  -41.3810  -67.8710   54.0310 C   0  0  0  0  0  0  0  0  0  0  0  0
  -41.9940  -67.5380   55.0820 O   0  0  0  0  0  0  0  0  0  0  0  0
  -39.5020  -69.7330   55.7040 H   0  0  0  0  0  0  0  0  0  0  0  0
  -37.8750  -70.8190   54.1120 H   0  0  0  0  0  0  0  0  0  0  0  0
  -42.6910  -66.4960   52.4370 C   0  0  0  0  0  0  0  0  0  0  0  0
  -44.0240  -66.8430   52.4920 C   0  0  0  0  0  3  0  0  0  0  0  0
  -45.0230  -65.9560   52.1380 C   0  0  0  0  0  3  0  0  0  0  0  0
  -44.7260  -64.6780   51.7130 C   0  0  0  0  0  0  0  0  0  0  0  0
  -46.0010  -63.5490   51.2620 Cl  0  0  0  0  0  0  0  0  0  0  0  0
  -43.3950  -64.3190   51.6530 C   0  0  0  0  0  3  0  0  0  0  0  0
  -42.4030  -65.2130   52.0090 C   0  0  0  0  0  3  0  0  0  0  0  0
  -38.2100  -70.0820   51.4160 C   0  0  0  0  0  2  0  0  0  0  0  0
  -37.0670  -69.2030   51.0850 C   0  0  0  0  0  0  0  0  0  0  0  0
  -37.2380  -68.1710   50.1950 C   0  0  0  0  0  3  0  0  0  0  0  0
  -36.1610  -67.3680   49.8990 C   0  0  0  0  0  3  0  0  0  0  0  0
  -34.9210  -67.5810   50.4750 C   0  0  0  0  0  3  0  0  0  0  0  0
  -34.7490  -68.6160   51.3660 C   0  0  0  0  0  3  0  0  0  0  0  0
  -35.8290  -69.4040   51.6500 C   0  0  0  0  0  3  0  0  0  0  0  0
  1  9  1  0  0  0  0
  2  4  1  0  0  0  0
  2  1  1  0  0  0  0
  3  2  2  0  0  0  0
  4  5  2  0  0  0  0
  5  9  1  0  0  0  0
  5  6  1  0  0  0  0
  6 11  1  0  0  0  0
  7 12  1  0  0  0  0
  7  6  1  0  0  0  0
  8  4  1  0  0  0  0
  8  7  1  0  0  0  0
  9 10  2  0  0  0  0
 13 14  1  0  0  0  0
 13  1  1  0  0  0  0
 15 14  2  0  0  0  0
 16 15  1  0  0  0  0
 17 16  1  0  0  0  0
 18 16  2  0  0  0  0
 18 19  1  0  0  0  0
 19 13  2  0  0  0  0
 20  8  1  0  0  0  0
 21 20  1  0  0  0  0
 21 26  1  0  0  0  0
 22 21  2  0  0  0  0
 23 22  1  0  0  0  0
 23 24  2  0  0  0  0
 24 25  1  0  0  0  0
 25 26  2  0  0  0  0
M  END
>  <Pose>
1

>  <Score>
-8.246

$$$$
