MODEL 1
REMARK VINA RESULT:    -7.801      0.000      0.000
REMARK INTER + INTRA:         -10.001
REMARK INTER:                  -9.169
REMARK INTRA:                  -0.832
REMARK UNBOUND:                -0.832
REMARK  3 active torsions:
REMARK  status: ('A' for Active; 'I' for Inactive)
REMARK    1  A    between atoms: S_1  and  N_4 
REMARK    2  A    between atoms: S_1  and  C_26 
REMARK       I    between atoms: N_7  and  C_10 
REMARK    3  A    between atoms: C_12  and  N_13 
ROOT
ATOM      1  N   UNK d   1     -36.174 -65.810  47.990  0.00  0.00    -0.303 N 
ATOM      2  C   UNK d   1     -37.075 -66.292  48.963  0.00  0.00     0.155 C 
ATOM      3  C   UNK d   1     -37.849 -65.076  49.515  0.00  0.00     0.145 C 
ATOM      4  N   UNK d   1     -38.676 -64.677  48.406  0.00  0.00    -0.358 N 
ATOM      5  C   UNK d   1     -37.881 -64.160  47.271  0.00  0.00     0.145 C 
ATOM      6  C   UNK d   1     -36.625 -64.892  47.030  0.00  0.00     0.155 C 
ATOM      7  C   UNK d   1     -40.063 -64.716  48.276  0.00  0.00     0.172 C 
ATOM      8  O   UNK d   1     -40.482 -64.275  47.106  0.00  0.00    -0.175 OA
ATOM      9  C   UNK d   1     -41.149 -65.131  49.126  0.00  0.00     0.224 C 
ENDROOT
BRANCH   9  10
ATOM     10  N   UNK d   1     -40.842 -65.615  50.437  0.00  0.00    -0.260 N 
ATOM     11  C   UNK d   1     -40.554 -64.805  51.578  0.00  0.00     0.326 C 
ATOM     12  O   UNK d   1     -40.521 -63.528  51.547  0.00  0.00    -0.247 OA
ATOM     13  N   UNK d   1     -40.328 -65.658  52.680  0.00  0.00    -0.324 N 
ATOM     14  C   UNK d   1     -40.856 -66.973  52.350  0.00  0.00     0.119 C 
ATOM     15  H   UNK d   1     -39.872 -65.416  53.573  0.00  0.00     0.165 HD
ATOM     16  C   UNK d   1     -40.045 -68.106  52.875  0.00  0.00     0.019 C 
ATOM     17  C   UNK d   1     -42.287 -67.006  52.835  0.00  0.00     0.041 C 
ATOM     18  C   UNK d   1     -40.788 -66.980  50.858  0.00  0.00     0.257 C 
ATOM     19  C   UNK d   1     -41.010 -69.250  53.207  0.00  0.00     0.007 C 
ATOM     20  C   UNK d   1     -39.054 -68.669  51.883  0.00  0.00     0.013 C 
ATOM     21  C   UNK d   1     -41.740 -68.828  54.468  0.00  0.00     0.001 C 
ATOM     22  C   UNK d   1     -42.243 -67.414  54.300  0.00  0.00     0.003 C 
ATOM     23  O   UNK d   1     -40.702 -67.979  50.118  0.00  0.00    -0.270 OA
ENDBRANCH   9  10
BRANCH   1  24
ATOM     24  S   UNK d   1     -35.041 -66.958  47.431  0.00  0.00     0.267 S 
ATOM     25  O   UNK d   1     -34.145 -67.493  48.477  0.00  0.00    -0.200 OA
ATOM     26  O   UNK d   1     -35.803 -68.106  46.814  0.00  0.00    -0.200 OA
BRANCH  24  27
ATOM     27  C   UNK d   1     -34.084 -66.176  46.161  0.00  0.00     0.121 A 
ATOM     28  S   UNK d   1     -33.023 -64.847  46.255  0.00  0.00    -0.064 SA
ATOM     29  C   UNK d   1     -32.545 -64.762  44.623  0.00  0.00     0.075 A 
ATOM     30  C   UNK d   1     -33.238 -65.791  44.040  0.00  0.00     0.033 A 
ATOM     31 Cl   UNK d   1     -31.424 -63.622  43.863  0.00  0.00    -0.076 Cl
ATOM     32  C   UNK d   1     -34.034 -66.520  44.842  0.00  0.00     0.035 A 
ENDBRANCH  24  27
ENDBRANCH   1  24
TORSDOF 3
ENDMDL
