/Users/jonathanwahrer/Desktop/Msc/3_Semester/Drug_Design_Praktikum/waehrer_HTS_screening/HTS_experiment/out/docking_results/vina_output/3e7o/1895_docked.pdbqt
 OpenBabel03192216463D

 32 35  0  0  1  0  0  0  0  0999 V2000
  -36.1740  -65.8100   47.9900 N   0  0  0  0  0  0  0  0  0  0  0  0
  -37.0750  -66.2920   48.9630 C   0  0  0  0  0  2  0  0  0  0  0  0
  -37.8490  -65.0760   49.5150 C   0  0  0  0  0  2  0  0  0  0  0  0
  -38.6760  -64.6770   48.4060 N   0  0  0  0  0  0  0  0  0  0  0  0
  -37.8810  -64.1600   47.2710 C   0  0  0  0  0  2  0  0  0  0  0  0
  -36.6250  -64.8920   47.0300 C   0  0  0  0  0  2  0  0  0  0  0  0
  -40.0630  -64.7160   48.2760 C   0  0  0  0  0  0  0  0  0  0  0  0
  -40.4820  -64.2750   47.1060 O   0  0  0  0  0  0  0  0  0  0  0  0
  -41.1490  -65.1310   49.1260 C   0  0  0  0  0  2  0  0  0  0  0  0
  -40.8420  -65.6150   50.4370 N   0  0  0  0  0  0  0  0  0  0  0  0
  -40.5540  -64.8050   51.5780 C   0  0  0  0  0  0  0  0  0  0  0  0
  -40.5210  -63.5280   51.5470 O   0  0  0  0  0  0  0  0  0  0  0  0
  -40.3280  -65.6580   52.6800 N   0  0  0  0  0  0  0  0  0  0  0  0
  -40.8560  -66.9730   52.3500 C   0  0  1  0  0  0  0  0  0  0  0  0
  -39.8720  -65.4160   53.5730 H   0  0  0  0  0  0  0  0  0  0  0  0
  -40.0450  -68.1060   52.8750 C   0  0  1  0  0  3  0  0  0  0  0  0
  -42.2870  -67.0060   52.8350 C   0  0  0  0  0  2  0  0  0  0  0  0
  -40.7880  -66.9800   50.8580 C   0  0  0  0  0  0  0  0  0  0  0  0
  -41.0100  -69.2500   53.2070 C   0  0  0  0  0  2  0  0  0  0  0  0
  -39.0540  -68.6690   51.8830 C   0  0  0  0  0  1  0  0  0  0  0  0
  -41.7400  -68.8280   54.4680 C   0  0  0  0  0  2  0  0  0  0  0  0
  -42.2430  -67.4140   54.3000 C   0  0  0  0  0  2  0  0  0  0  0  0
  -40.7020  -67.9790   50.1180 O   0  0  0  0  0  0  0  0  0  0  0  0
  -35.0410  -66.9580   47.4310 S   0  0  0  0  0  0  0  0  0  0  0  0
  -34.1450  -67.4930   48.4770 O   0  0  0  0  0  0  0  0  0  0  0  0
  -35.8030  -68.1060   46.8140 O   0  0  0  0  0  0  0  0  0  0  0  0
  -34.0840  -66.1760   46.1610 C   0  0  0  0  0  0  0  0  0  0  0  0
  -33.0230  -64.8470   46.2550 S   0  0  0  0  0  0  0  0  0  0  0  0
  -32.5450  -64.7620   44.6230 C   0  0  0  0  0  0  0  0  0  0  0  0
  -33.2380  -65.7910   44.0400 C   0  0  0  0  0  3  0  0  0  0  0  0
  -31.4240  -63.6220   43.8630 Cl  0  0  0  0  0  0  0  0  0  0  0  0
  -34.0340  -66.5200   44.8420 C   0  0  0  0  0  3  0  0  0  0  0  0
  1  2  1  0  0  0  0
  2  3  1  0  0  0  0
  4  3  1  0  0  0  0
  5  4  1  0  0  0  0
  6  5  1  0  0  0  0
  6  1  1  0  0  0  0
  7  4  1  0  0  0  0
  7  9  1  0  0  0  0
  8  7  2  0  0  0  0
  9 10  1  0  0  0  0
 10 18  1  0  0  0  0
 10 11  1  0  0  0  0
 11 13  1  0  0  0  0
 12 11  2  0  0  0  0
 13 15  1  0  0  0  0
 14 13  1  0  0  0  0
 14 17  1  1  0  0  0
 14 16  1  0  0  0  0
 16 20  1  6  0  0  0
 16 19  1  0  0  0  0
 17 22  1  0  0  0  0
 18 14  1  0  0  0  0
 19 21  1  0  0  0  0
 22 21  1  0  0  0  0
 23 18  2  0  0  0  0
 24  1  1  0  0  0  0
 24 25  2  0  0  0  0
 26 24  2  0  0  0  0
 27 28  1  0  0  0  0
 27 24  1  0  0  0  0
 29 28  1  0  0  0  0
 30 29  2  0  0  0  0
 30 32  1  0  0  0  0
 31 29  1  0  0  0  0
 32 27  2  0  0  0  0
M  END
>  <Pose>
1

>  <Score>
-7.801

$$$$
