MODEL 1
REMARK VINA RESULT:    -7.663      0.000      0.000
REMARK INTER + INTRA:         -10.788
REMARK INTER:                  -9.903
REMARK INTRA:                  -0.884
REMARK UNBOUND:                -0.884
REMARK  5 active torsions:
REMARK  status: ('A' for Active; 'I' for Inactive)
REMARK    1  A    between atoms: C_9  and  N_11 
REMARK    2  A    between atoms: C_14  and  C_17 
REMARK       I    between atoms: C_17  and  N_19 
REMARK    3  A    between atoms: N_19  and  C_20 
REMARK    4  A    between atoms: C_20  and  C_21 
REMARK    5  A    between atoms: C_21  and  N_22 
ROOT
ATOM      1  N   UNK d   1     -40.697 -66.589  51.246  0.00  0.00    -0.364 N 
ATOM      2  C   UNK d   1     -40.426 -65.186  51.463  0.00  0.00     0.125 C 
ATOM      3  C   UNK d   1     -40.490 -64.364  50.204  0.00  0.00     0.034 C 
ATOM      4  C   UNK d   1     -39.761 -65.068  49.113  0.00  0.00     0.081 C 
ATOM      5  C   UNK d   1     -40.446 -66.352  48.794  0.00  0.00     0.034 C 
ATOM      6  C   UNK d   1     -40.890 -67.168  49.952  0.00  0.00     0.125 C 
ENDROOT
BRANCH   4   7
ATOM      7  C   UNK d   1     -38.324 -65.181  49.371  0.00  0.00     0.222 C 
ATOM      8  O   UNK d   1     -37.805 -66.324  49.371  0.00  0.00    -0.273 OA
ATOM      9  N   UNK d   1     -37.494 -64.069  49.620  0.00  0.00    -0.359 N 
ATOM     10  H   UNK d   1     -37.933 -63.102  49.619  0.00  0.00     0.162 HD
BRANCH   9  11
ATOM     11  C   UNK d   1     -36.076 -64.166  49.877  0.00  0.00     0.152 C 
BRANCH  11  12
ATOM     12  C   UNK d   1     -35.223 -63.750  48.713  0.00  0.00     0.292 C 
BRANCH  12  13
ATOM     13  N   UNK d   1     -34.194 -64.737  48.440  0.00  0.00     0.094 N 
ATOM     14  C   UNK d   1     -34.487 -65.551  47.309  0.00  0.00     0.298 C 
ATOM     15  C   UNK d   1     -34.828 -66.962  47.746  0.00  0.00     0.198 C 
ATOM     16  O   UNK d   1     -33.713 -67.498  48.341  0.00  0.00    -0.388 OA
ATOM     17  C   UNK d   1     -33.170 -66.775  49.369  0.00  0.00     0.198 C 
ATOM     18  C   UNK d   1     -33.749 -65.423  49.600  0.00  0.00     0.298 C 
ENDBRANCH  12  13
ENDBRANCH  11  12
ENDBRANCH   9  11
ENDBRANCH   4   7
BRANCH   1  19
ATOM     19  C   UNK d   1     -40.774 -67.428  52.376  0.00  0.00     0.160 A 
ATOM     20  C   UNK d   1     -41.878 -67.410  53.186  0.00  0.00     0.128 A 
ATOM     21  C   UNK d   1     -41.961 -68.261  54.298  0.00  0.00     0.184 A 
ATOM     22  N   UNK d   1     -43.016 -66.697  53.178  0.00  0.00    -0.345 N 
ATOM     23  N   UNK d   1     -40.930 -69.078  54.529  0.00  0.00    -0.196 NA
ATOM     24  N   UNK d   1     -43.111 -68.060  54.928  0.00  0.00    -0.222 NA
ATOM     25  C   UNK d   1     -39.848 -69.105  53.748  0.00  0.00     0.227 A 
ATOM     26 Cl   UNK d   1     -38.547 -70.191  54.108  0.00  0.00    -0.041 Cl
ATOM     27  N   UNK d   1     -39.766 -68.296  52.688  0.00  0.00    -0.198 NA
ATOM     28  C   UNK d   1     -43.738 -67.105  54.230  0.00  0.00     0.210 A 
ATOM     29  H   UNK d   1     -43.249 -65.965  52.466  0.00  0.00     0.167 HD
ENDBRANCH   1  19
TORSDOF 5
ENDMDL
