MODEL 1
REMARK VINA RESULT:    -9.389      0.000      0.000
REMARK INTER + INTRA:         -12.781
REMARK INTER:                 -11.859
REMARK INTRA:                  -0.922
REMARK UNBOUND:                -0.922
REMARK  5 active torsions:
REMARK  status: ('A' for Active; 'I' for Inactive)
REMARK    1  A    between atoms: C_5  and  C_8 
REMARK    2  A    between atoms: C_8  and  O_32 
REMARK       I    between atoms: N_11  and  C_14 
REMARK    3  A    between atoms: C_14  and  C_16 
REMARK    4  A    between atoms: C_16  and  N_17 
REMARK       I    between atoms: N_17  and  C_18 
REMARK    5  A    between atoms: C_18  and  C_20 
ROOT
ATOM      1  C   UNK d   1     -45.946 -65.064  53.567  0.00  0.00     0.210 C 
ENDROOT
BRANCH   1   2
ATOM      2  C   UNK d   1     -47.216 -65.521  52.984  0.00  0.00     0.171 C 
ATOM      3  N   UNK d   1     -47.844 -66.759  53.010  0.00  0.00    -0.361 N 
ATOM      4  C   UNK d   1     -47.272 -67.983  53.448  0.00  0.00     0.128 C 
ATOM      5  C   UNK d   1     -49.257 -66.831  52.555  0.00  0.00     0.128 C 
ATOM      6  C   UNK d   1     -48.087 -68.568  54.583  0.00  0.00     0.062 C 
ATOM      7  C   UNK d   1     -49.402 -68.968  53.919  0.00  0.00     0.088 C 
ATOM      8  C   UNK d   1     -50.092 -67.796  53.327  0.00  0.00     0.062 C 
ATOM      9  O   UNK d   1     -47.838 -64.578  52.323  0.00  0.00    -0.175 OA
BRANCH   7  10
ATOM     10  C   UNK d   1     -50.185 -69.806  54.809  0.00  0.00    -0.024 A 
ATOM     11  C   UNK d   1     -50.555 -71.075  54.343  0.00  0.00     0.012 A 
ATOM     12  C   UNK d   1     -51.335 -71.945  55.104  0.00  0.00     0.024 A 
ATOM     13  C   UNK d   1     -51.774 -71.586  56.356  0.00  0.00     0.034 A 
ATOM     14 Cl   UNK d   1     -52.780 -72.691  57.328  0.00  0.00    -0.084 Cl
ATOM     15  C   UNK d   1     -51.415 -70.334  56.829  0.00  0.00     0.024 A 
ATOM     16  C   UNK d   1     -50.642 -69.483  56.064  0.00  0.00     0.012 A 
ENDBRANCH   7  10
BRANCH   7  17
ATOM     17  O   UNK d   1     -48.978 -69.789  52.826  0.00  0.00    -0.385 OA
ATOM     18  H   UNK d   1     -48.003 -69.917  52.938  0.00  0.00     0.211 HD
ENDBRANCH   7  17
ENDBRANCH   1   2
BRANCH   1  19
ATOM     19  N   UNK d   1     -44.760 -65.581  53.041  0.00  0.00    -0.350 N 
ATOM     20  C   UNK d   1     -43.655 -66.051  53.816  0.00  0.00     0.243 C 
ATOM     21  O   UNK d   1     -43.799 -65.948  55.062  0.00  0.00    -0.269 OA
ATOM     22  H   UNK d   1     -44.637 -65.727  52.003  0.00  0.00     0.163 HD
BRANCH  20  23
ATOM     23  C   UNK d   1     -42.483 -66.597  53.187  0.00  0.00     0.105 C 
ATOM     24  C   UNK d   1     -41.665 -67.521  53.571  0.00  0.00     0.064 A 
ATOM     25  N   UNK d   1     -41.794 -68.218  54.812  0.00  0.00    -0.297 N 
ATOM     26  C   UNK d   1     -40.531 -67.941  52.710  0.00  0.00     0.008 A 
ATOM     27  N   UNK d   1     -40.899 -69.239  55.196  0.00  0.00    -0.265 N 
ATOM     28  H   UNK d   1     -42.566 -67.987  55.482  0.00  0.00     0.187 HD
ATOM     29  C   UNK d   1     -39.829 -69.618  54.360  0.00  0.00     0.271 A 
ATOM     30  H   UNK d   1     -41.024 -69.734  56.109  0.00  0.00     0.190 HD
ATOM     31  O   UNK d   1     -39.051 -70.541  54.741  0.00  0.00    -0.266 OA
ATOM     32  C   UNK d   1     -39.662 -68.937  53.091  0.00  0.00     0.046 A 
ATOM     33  C   UNK d   1     -38.616 -69.363  52.297  0.00  0.00     0.018 A 
ATOM     34  C   UNK d   1     -38.445 -68.748  51.060  0.00  0.00     0.001 A 
ATOM     35  C   UNK d   1     -39.282 -67.753  50.635  0.00  0.00     0.001 A 
ATOM     36  C   UNK d   1     -40.322 -67.367  51.488  0.00  0.00     0.015 A 
ENDBRANCH  20  23
ENDBRANCH   1  19
TORSDOF 5
ENDMDL
