/Users/jonathanwahrer/Desktop/Msc/3_Semester/Drug_Design_Praktikum/waehrer_HTS_screening/HTS_experiment/out/docking_results/vina_output/3e7o/1930_docked.pdbqt
 OpenBabel03192216483D

 34 37  0  0  1  0  0  0  0  0999 V2000
  -36.4460  -68.2760   49.7590 C   0  0  0  0  0  0  0  0  0  0  0  0
  -37.1710  -68.6850   48.8160 O   0  0  0  0  0  0  0  0  0  0  0  0
  -35.4830  -67.2800   49.5130 N   0  0  0  0  0  0  0  0  0  0  0  0
  -35.2840  -66.6880   48.1900 C   0  0  0  0  0  2  0  0  0  0  0  0
  -33.8860  -67.0980   47.7730 C   0  0  2  0  0  3  0  0  0  0  0  0
  -32.8680  -66.6770   48.8070 C   0  0  2  0  0  0  0  0  0  0  0  0
  -33.5450  -65.8760   49.9260 C   0  0  0  0  0  2  0  0  0  0  0  0
  -34.6110  -66.7600   50.5520 C   0  0  0  0  0  2  0  0  0  0  0  0
  -31.7200  -65.8960   48.2440 C   0  0  0  0  0  1  0  0  0  0  0  0
  -36.6280  -68.8620   51.1090 C   0  0  0  0  0  2  0  0  0  0  0  0
  -37.8590  -69.6980   51.2370 C   0  0  0  0  0  2  0  0  0  0  0  0
  -38.9780  -69.0180   51.9330 C   0  0  0  0  0  0  0  0  0  0  0  0
  -39.7290  -67.9810   51.5230 N   0  0  0  0  0  0  0  0  0  0  0  0
  -40.6480  -67.6550   52.4480 C   0  0  0  0  0  0  0  0  0  0  0  0
  -41.6510  -66.7050   52.5570 C   0  0  0  0  0  3  0  0  0  0  0  0
  -40.4740  -68.5270   53.5020 C   0  0  0  0  0  0  0  0  0  0  0  0
  -42.4610  -66.6080   53.6600 C   0  0  0  0  0  0  0  0  0  0  0  0
  -43.7350  -65.4070   53.8070 Cl  0  0  0  0  0  0  0  0  0  0  0  0
  -42.2600  -67.4950   54.6950 C   0  0  0  0  0  3  0  0  0  0  0  0
  -41.2650  -68.4650   54.6300 C   0  0  0  0  0  3  0  0  0  0  0  0
  -39.4630  -69.3380   53.1680 N   0  0  0  0  0  0  0  0  0  0  0  0
  -38.9010  -70.4310   53.9590 C   0  0  0  0  0  1  0  0  0  0  0  0
  -33.5460  -66.7610   46.4350 N   0  0  0  0  0  0  0  0  0  0  0  0
  -33.8950  -65.5590   45.8890 C   0  0  0  0  0  3  0  0  0  0  0  0
  -33.5670  -65.2310   44.5910 C   0  0  0  0  0  0  0  0  0  0  0  0
  -32.8700  -66.1340   43.8190 C   0  0  0  0  0  0  0  0  0  0  0  0
  -33.9300  -63.9340   43.9680 C   0  0  0  0  0  1  0  0  0  0  0  0
  -32.5480  -65.8680   42.6110 O   0  0  0  0  0  0  0  0  0  0  0  0
  -32.5310  -67.3150   44.3630 N   0  0  0  0  0  0  0  0  0  0  0  0
  -32.8780  -67.5950   45.6520 C   0  0  0  0  0  0  0  0  0  0  0  0
  -32.0060  -67.9980   43.7850 H   0  0  0  0  0  0  0  0  0  0  0  0
  -32.5350  -68.7100   46.1050 O   0  0  0  0  0  0  0  0  0  0  0  0
  -32.2970  -67.7890   49.4730 O   0  0  0  0  0  0  0  0  0  0  0  0
  -32.7230  -68.5870   49.0760 H   0  0  0  0  0  0  0  0  0  0  0  0
  1 10  1  0  0  0  0
  2  1  2  0  0  0  0
  3  1  1  0  0  0  0
  3  8  1  0  0  0  0
  4  3  1  0  0  0  0
  5 23  1  6  0  0  0
  5  4  1  0  0  0  0
  5  6  1  0  0  0  0
  6  9  1  6  0  0  0
  6 33  1  0  0  0  0
  6  7  1  0  0  0  0
  7  8  1  0  0  0  0
 10 11  1  0  0  0  0
 11 12  1  0  0  0  0
 12 21  1  0  0  0  0
 13 12  2  0  0  0  0
 13 14  1  0  0  0  0
 14 15  2  0  0  0  0
 14 16  1  0  0  0  0
 15 17  1  0  0  0  0
 16 20  2  0  0  0  0
 17 18  1  0  0  0  0
 17 19  2  0  0  0  0
 20 19  1  0  0  0  0
 21 16  1  0  0  0  0
 21 22  1  0  0  0  0
 24 23  1  0  0  0  0
 25 24  2  0  0  0  0
 26 29  1  0  0  0  0
 26 25  1  0  0  0  0
 27 25  1  0  0  0  0
 28 26  2  0  0  0  0
 29 30  1  0  0  0  0
 30 32  2  0  0  0  0
 30 23  1  0  0  0  0
 31 29  1  0  0  0  0
 34 33  1  0  0  0  0
M  END
>  <Pose>
1

>  <Score>
-8.573

$$$$
