MODEL 1
REMARK VINA RESULT:    -8.573      0.000      0.000
REMARK INTER + INTRA:         -11.263
REMARK INTER:                 -10.828
REMARK INTRA:                  -0.435
REMARK UNBOUND:                -0.435
REMARK  5 active torsions:
REMARK  status: ('A' for Active; 'I' for Inactive)
REMARK    1  A    between atoms: C_6  and  C_12 
REMARK    2  A    between atoms: C_12  and  C_13 
REMARK    3  A    between atoms: C_13  and  C_14 
REMARK       I    between atoms: C_14  and  N_16 
REMARK    4  A    between atoms: C_18  and  N_24 
REMARK    5  A    between atoms: C_19  and  O_22 
ROOT
ATOM      1  C   UNK d   1     -36.446 -68.276  49.759  0.00  0.00     0.220 C 
ATOM      2  O   UNK d   1     -37.171 -68.685  48.816  0.00  0.00    -0.273 OA
ATOM      3  N   UNK d   1     -35.483 -67.280  49.513  0.00  0.00    -0.350 N 
ATOM      4  C   UNK d   1     -35.284 -66.688  48.190  0.00  0.00     0.154 C 
ATOM      5  C   UNK d   1     -33.886 -67.098  47.773  0.00  0.00     0.146 C 
ATOM      6  C   UNK d   1     -32.868 -66.677  48.807  0.00  0.00     0.078 C 
ATOM      7  C   UNK d   1     -33.545 -65.876  49.926  0.00  0.00     0.059 C 
ATOM      8  C   UNK d   1     -34.611 -66.760  50.552  0.00  0.00     0.129 C 
ATOM      9  C   UNK d   1     -31.720 -65.896  48.244  0.00  0.00     0.048 C 
ENDROOT
BRANCH   1  10
ATOM     10  C   UNK d   1     -36.628 -68.862  51.109  0.00  0.00     0.110 C 
BRANCH  10  11
ATOM     11  C   UNK d   1     -37.859 -69.698  51.237  0.00  0.00     0.088 C 
BRANCH  11  12
ATOM     12  C   UNK d   1     -38.978 -69.018  51.933  0.00  0.00     0.107 A 
ATOM     13  N   UNK d   1     -39.729 -67.981  51.523  0.00  0.00    -0.233 NA
ATOM     14  C   UNK d   1     -40.648 -67.655  52.448  0.00  0.00     0.087 A 
ATOM     15  C   UNK d   1     -41.651 -66.705  52.557  0.00  0.00     0.057 A 
ATOM     16  C   UNK d   1     -40.474 -68.527  53.502  0.00  0.00     0.064 A 
ATOM     17  C   UNK d   1     -42.461 -66.608  53.660  0.00  0.00     0.036 A 
ATOM     18 Cl   UNK d   1     -43.735 -65.407  53.807  0.00  0.00    -0.084 Cl
ATOM     19  C   UNK d   1     -42.260 -67.495  54.695  0.00  0.00     0.026 A 
ATOM     20  C   UNK d   1     -41.265 -68.465  54.630  0.00  0.00     0.034 A 
ATOM     21  N   UNK d   1     -39.463 -69.338  53.168  0.00  0.00    -0.338 N 
ATOM     22  C   UNK d   1     -38.901 -70.431  53.959  0.00  0.00     0.158 C 
ENDBRANCH  11  12
ENDBRANCH  10  11
ENDBRANCH   1  10
BRANCH   5  23
ATOM     23  N   UNK d   1     -33.546 -66.761  46.435  0.00  0.00    -0.300 N 
ATOM     24  C   UNK d   1     -33.895 -65.559  45.889  0.00  0.00     0.108 A 
ATOM     25  C   UNK d   1     -33.567 -65.231  44.591  0.00  0.00     0.022 A 
ATOM     26  C   UNK d   1     -32.870 -66.134  43.819  0.00  0.00     0.256 A 
ATOM     27  C   UNK d   1     -33.930 -63.934  43.968  0.00  0.00     0.056 C 
ATOM     28  O   UNK d   1     -32.548 -65.868  42.611  0.00  0.00    -0.267 OA
ATOM     29  N   UNK d   1     -32.531 -67.315  44.363  0.00  0.00    -0.275 N 
ATOM     30  C   UNK d   1     -32.878 -67.595  45.652  0.00  0.00     0.329 A 
ATOM     31  H   UNK d   1     -32.006 -67.998  43.785  0.00  0.00     0.173 HD
ATOM     32  O   UNK d   1     -32.535 -68.710  46.105  0.00  0.00    -0.246 OA
ENDBRANCH   5  23
BRANCH   6  33
ATOM     33  O   UNK d   1     -32.297 -67.789  49.473  0.00  0.00    -0.388 OA
ATOM     34  H   UNK d   1     -32.723 -68.587  49.076  0.00  0.00     0.210 HD
ENDBRANCH   6  33
TORSDOF 5
ENDMDL
