/Users/jonathanwahrer/Desktop/Msc/3_Semester/Drug_Design_Praktikum/waehrer_HTS_screening/HTS_experiment/out/docking_results/vina_output/3e7o/1936_docked.pdbqt
 OpenBabel03192216483D

 25 28  0  0  0  0  0  0  0  0999 V2000
  -36.7170  -68.0010   49.9590 N   0  0  0  0  0  0  0  0  0  0  0  0
  -35.3790  -67.5680   50.0280 C   0  0  0  0  0  0  0  0  0  0  0  0
  -34.5570  -68.3220   50.5770 O   0  0  0  0  0  0  0  0  0  0  0  0
  -37.4260  -67.3820   49.5010 H   0  0  0  0  0  0  0  0  0  0  0  0
  -37.1600  -69.2730   50.4980 C   0  0  0  0  0  2  0  0  0  0  0  0
  -38.2240  -69.0460   51.5350 C   0  0  0  0  0  0  0  0  0  0  0  0
  -39.2540  -68.1810   51.4650 N   0  0  0  0  0  0  0  0  0  0  0  0
  -40.0070  -68.2470   52.5770 C   0  0  0  0  0  0  0  0  0  0  0  0
  -41.1430  -67.6190   53.0400 C   0  0  0  0  0  3  0  0  0  0  0  0
  -39.4220  -69.2110   53.4030 C   0  0  0  0  0  0  0  0  0  0  0  0
  -41.7290  -67.8870   54.2660 C   0  0  0  0  0  0  0  0  0  0  0  0
  -43.1840  -67.0560   54.8100 Cl  0  0  0  0  0  0  0  0  0  0  0  0
  -41.1250  -68.8520   55.0670 C   0  0  0  0  0  3  0  0  0  0  0  0
  -39.9940  -69.4870   54.6230 C   0  0  0  0  0  3  0  0  0  0  0  0
  -38.3500  -69.6610   52.7230 N   0  0  0  0  0  0  0  0  0  0  0  0
  -37.6940  -70.3950   53.0730 H   0  0  0  0  0  0  0  0  0  0  0  0
  -34.9260  -66.2770   49.4840 C   0  0  0  0  0  0  0  0  0  0  0  0
  -35.6700  -65.0800   49.9330 C   0  0  0  0  0  2  0  0  0  0  0  0
  -34.3460  -65.2910   50.5540 C   0  0  0  0  0  2  0  0  0  0  0  0
  -34.1510  -66.2460   48.2800 N   0  0  0  0  0  0  0  0  0  0  0  0
  -34.8720  -66.2300   47.0690 C   0  0  0  0  0  2  0  0  0  0  0  0
  -34.9330  -67.6600   46.5460 C   0  0  0  0  0  2  0  0  0  0  0  0
  -33.6830  -68.0680   46.1440 O   0  0  0  0  0  0  0  0  0  0  0  0
  -32.6380  -67.5040   46.8330 C   0  0  0  0  0  2  0  0  0  0  0  0
  -33.0220  -67.0820   48.2360 C   0  0  0  0  0  2  0  0  0  0  0  0
  1  2  1  0  0  0  0
  1  5  1  0  0  0  0
  2  3  2  0  0  0  0
  4  1  1  0  0  0  0
  5  6  1  0  0  0  0
  6 15  1  0  0  0  0
  7  6  2  0  0  0  0
  7  8  1  0  0  0  0
  8  9  2  0  0  0  0
  8 10  1  0  0  0  0
  9 11  1  0  0  0  0
 10 14  2  0  0  0  0
 11 12  1  0  0  0  0
 11 13  2  0  0  0  0
 14 13  1  0  0  0  0
 15 16  1  0  0  0  0
 15 10  1  0  0  0  0
 17 18  1  0  0  0  0
 17  2  1  0  0  0  0
 17 19  1  0  0  0  0
 18 19  1  0  0  0  0
 20 17  1  0  0  0  0
 21 20  1  0  0  0  0
 22 21  1  0  0  0  0
 23 22  1  0  0  0  0
 23 24  1  0  0  0  0
 24 25  1  0  0  0  0
 25 20  1  0  0  0  0
M  END
>  <Pose>
1

>  <Score>
-7.417

$$$$
