MODEL 1
REMARK VINA RESULT:    -8.161      0.000      0.000
REMARK INTER + INTRA:          -8.260
REMARK INTER:                 -10.546
REMARK INTRA:                   2.286
REMARK UNBOUND:                 2.286
REMARK  5 active torsions:
REMARK  status: ('A' for Active; 'I' for Inactive)
REMARK    1  A    between atoms: C_3  and  C_8 
REMARK    2  A    between atoms: C_8  and  N_9 
REMARK       I    between atoms: N_9  and  C_10 
REMARK    3  A    between atoms: C_10  and  C_12 
REMARK    4  A    between atoms: C_12  and  N_13 
REMARK       I    between atoms: N_16  and  C_19 
REMARK    5  A    between atoms: C_19  and  C_21 
ROOT
ATOM      1  N   UNK d   1     -39.544 -65.107  48.763  0.00  0.00     0.100 N 
ATOM      2  C   UNK d   1     -39.508 -66.417  48.302  0.00  0.00     0.293 C 
ATOM      3  C   UNK d   1     -38.104 -66.623  47.589  0.00  0.00     0.156 C 
ATOM      4  N   UNK d   1     -37.291 -65.697  48.333  0.00  0.00    -0.346 N 
ATOM      5  C   UNK d   1     -37.460 -64.310  47.811  0.00  0.00     0.156 C 
ATOM      6  C   UNK d   1     -38.955 -64.177  47.735  0.00  0.00     0.293 C 
ATOM      7  C   UNK d   1     -36.413 -66.032  49.319  0.00  0.00     0.251 C 
ATOM      8  O   UNK d   1     -36.125 -65.136  50.185  0.00  0.00    -0.270 OA
ENDROOT
BRANCH   1   9
ATOM      9  C   UNK d   1     -40.749 -64.471  49.237  0.00  0.00     0.374 C 
BRANCH   9  10
ATOM     10  C   UNK d   1     -40.837 -64.759  50.740  0.00  0.00     0.246 C 
ATOM     11  N   UNK d   1     -41.363 -65.992  51.130  0.00  0.00    -0.355 N 
ATOM     12  H   UNK d   1     -41.889 -66.521  50.348  0.00  0.00     0.162 HD
ATOM     13  O   UNK d   1     -40.444 -63.937  51.527  0.00  0.00    -0.272 OA
BRANCH  11  14
ATOM     14  C   UNK d   1     -41.368 -66.555  52.432  0.00  0.00     0.162 C 
BRANCH  14  15
ATOM     15  C   UNK d   1     -40.383 -67.655  52.594  0.00  0.00    -0.019 A 
ATOM     16  C   UNK d   1     -40.439 -68.419  53.754  0.00  0.00     0.042 A 
ATOM     17 Cl   UNK d   1     -41.467 -67.871  55.057  0.00  0.00    -0.084 Cl
ATOM     18  C   UNK d   1     -39.686 -69.534  53.922  0.00  0.00     0.024 A 
ATOM     19  C   UNK d   1     -38.820 -70.018  52.963  0.00  0.00     0.002 A 
ATOM     20  C   UNK d   1     -38.765 -69.242  51.787  0.00  0.00     0.001 A 
ATOM     21  C   UNK d   1     -39.525 -68.090  51.618  0.00  0.00     0.010 A 
ENDBRANCH  14  15
ENDBRANCH  11  14
ENDBRANCH   9  10
ENDBRANCH   1   9
BRANCH   7  22
ATOM     22  C   UNK d   1     -35.703 -67.335  49.518  0.00  0.00     0.245 C 
ATOM     23  O   UNK d   1     -35.027 -67.568  48.239  0.00  0.00    -0.331 OA
ATOM     24  C   UNK d   1     -34.566 -66.335  47.693  0.00  0.00     0.103 A 
ATOM     25  C   UNK d   1     -34.135 -65.378  48.574  0.00  0.00     0.102 A 
ATOM     26  C   UNK d   1     -34.542 -66.094  46.324  0.00  0.00     0.040 A 
ATOM     27  C   UNK d   1     -33.675 -64.141  48.136  0.00  0.00     0.039 A 
ATOM     28  O   UNK d   1     -34.159 -65.654  49.946  0.00  0.00    -0.345 OA
ATOM     29  C   UNK d   1     -33.676 -63.934  46.762  0.00  0.00     0.003 A 
ATOM     30  C   UNK d   1     -34.095 -64.877  45.848  0.00  0.00     0.003 A 
ATOM     31  C   UNK d   1     -34.506 -66.973  50.438  0.00  0.00     0.218 C 
ENDBRANCH   7  22
TORSDOF 5
ENDMDL
