MODEL 1
REMARK VINA RESULT:    -7.905      0.000      0.000
REMARK INTER + INTRA:         -10.282
REMARK INTER:                  -9.291
REMARK INTRA:                  -0.990
REMARK UNBOUND:                -0.990
REMARK  3 active torsions:
REMARK  status: ('A' for Active; 'I' for Inactive)
REMARK    1  A    between atoms: C_5  and  C_8 
REMARK    2  A    between atoms: C_8  and  N_9 
REMARK    3  A    between atoms: C_13  and  N_14 
ROOT
ATOM      1  N   UNK d   1     -38.664 -67.308  50.034  0.00  0.00    -0.168 N 
ATOM      2  C   UNK d   1     -37.520 -67.938  50.438  0.00  0.00     0.167 A 
ATOM      3  C   UNK d   1     -36.433 -67.157  50.156  0.00  0.00     0.185 A 
ATOM      4  N   UNK d   1     -36.944 -66.073  49.587  0.00  0.00    -0.044 NA
ATOM      5  C   UNK d   1     -38.312 -66.139  49.498  0.00  0.00     0.707 A 
ATOM      6  N   UNK d   1     -35.181 -67.554  50.449  0.00  0.00    -0.286 N 
ATOM      7  C   UNK d   1     -34.979 -68.761  51.041  0.00  0.00     0.330 A 
ATOM      8  O   UNK d   1     -33.798 -69.088  51.296  0.00  0.00    -0.246 OA
ATOM      9  N   UNK d   1     -36.014 -69.564  51.338  0.00  0.00    -0.273 N 
ATOM     10  C   UNK d   1     -37.258 -69.158  51.040  0.00  0.00     0.280 A 
ATOM     11  O   UNK d   1     -38.187 -69.942  51.334  0.00  0.00    -0.265 OA
ATOM     12  C   UNK d   1     -34.085 -66.662  50.116  0.00  0.00     0.163 C 
ATOM     13  H   UNK d   1     -35.805 -70.478  51.790  0.00  0.00     0.173 HD
ENDROOT
BRANCH   1  14
ATOM     14  C   UNK d   1     -39.970 -67.891  50.198  0.00  0.00     0.186 C 
BRANCH  14  15
ATOM     15  C   UNK d   1     -40.745 -67.462  51.359  0.00  0.00    -0.039 A 
ATOM     16  C   UNK d   1     -40.464 -67.801  52.642  0.00  0.00     0.010 A 
ATOM     17  C   UNK d   1     -41.266 -67.408  53.717  0.00  0.00     0.024 A 
ATOM     18  C   UNK d   1     -42.382 -66.654  53.506  0.00  0.00     0.034 A 
ATOM     19 Cl   UNK d   1     -43.353 -66.188  54.885  0.00  0.00    -0.084 Cl
ATOM     20  C   UNK d   1     -42.704 -66.288  52.220  0.00  0.00     0.024 A 
ATOM     21  C   UNK d   1     -41.900 -66.686  51.177  0.00  0.00     0.010 A 
ENDBRANCH  14  15
ENDBRANCH   1  14
BRANCH   5  22
ATOM     22  N   UNK d   1     -39.084 -65.109  48.918  0.00  0.00    -0.212 N 
ATOM     23  C   UNK d   1     -39.719 -64.152  49.814  0.00  0.00     0.171 C 
ATOM     24  C   UNK d   1     -39.637 -62.826  49.036  0.00  0.00     0.290 C 
ATOM     25  N   UNK d   1     -38.441 -62.757  48.227  0.00  0.00     0.086 N 
ATOM     26  C   UNK d   1     -38.411 -63.712  47.140  0.00  0.00     0.290 C 
ATOM     27  H   UNK d   1     -38.417 -61.811  47.812  0.00  0.00     0.316 HD
ATOM     28  C   UNK d   1     -39.336 -64.848  47.549  0.00  0.00     0.171 C 
ENDBRANCH   5  22
TORSDOF 3
ENDMDL
