/Users/jonathanwahrer/Desktop/Msc/3_Semester/Drug_Design_Praktikum/waehrer_HTS_screening/HTS_experiment/out/docking_results/vina_output/3e7o/1940_docked.pdbqt
 OpenBabel03192216493D

 30 33  0  0  1  0  0  0  0  0999 V2000
  -40.6450  -66.4640   49.8160 C   0  0  1  0  0  3  0  0  0  0  0  0
  -41.1830  -65.2190   50.3790 N   0  0  0  0  0  0  0  0  0  0  0  0
  -40.0700  -64.5480   50.9410 C   0  0  0  0  0  0  0  0  0  0  0  0
  -40.0860  -63.7560   51.9120 O   0  0  0  0  0  0  0  0  0  0  0  0
  -38.8850  -64.9600   50.1650 C   0  0  0  0  0  0  0  0  0  0  0  0
  -37.6970  -64.6010   50.3300 O   0  0  0  0  0  0  0  0  0  0  0  0
  -39.4030  -65.8810   49.1630 C   0  0  0  0  0  0  0  0  0  0  0  0
  -38.9150  -66.1220   47.9960 C   0  0  0  0  0  0  0  0  0  0  0  0
  -39.5310  -67.0250   47.1310 O   0  0  0  0  0  1  0  0  0  0  0  0
  -42.5760  -64.7980   50.3570 C   0  0  0  0  0  2  0  0  0  0  0  0
  -43.2760  -64.9150   51.6760 C   0  0  0  0  0  2  0  0  0  0  0  0
  -44.1120  -66.0540   51.8450 N   0  0  0  0  0  4  0  0  0  0  0  0
  -43.9140  -66.8270   53.0280 C   0  0  0  0  0  2  0  0  0  0  0  0
  -44.2240  -66.0780   54.3040 C   0  0  0  0  0  2  0  0  0  0  0  0
  -45.5280  -65.5960   54.2920 O   0  0  0  0  0  0  0  0  0  0  0  0
  -45.8130  -64.8850   53.1310 C   0  0  0  0  0  2  0  0  0  0  0  0
  -45.5370  -65.6660   51.8720 C   0  0  0  0  0  2  0  0  0  0  0  0
  -43.9730  -66.6860   51.0260 H   0  0  0  0  0  0  0  0  0  0  0  0
  -40.1350  -67.3470   50.8950 C   0  0  0  0  0  0  0  0  0  0  0  0
  -40.7430  -67.4330   52.1220 C   0  0  0  0  0  3  0  0  0  0  0  0
  -40.2830  -68.2590   53.1290 C   0  0  0  0  0  3  0  0  0  0  0  0
  -39.1660  -69.0370   52.9100 C   0  0  0  0  0  0  0  0  0  0  0  0
  -38.5180  -70.1100   54.1240 Cl  0  0  0  0  0  0  0  0  0  0  0  0
  -38.5410  -68.9670   51.6910 C   0  0  0  0  0  3  0  0  0  0  0  0
  -39.0060  -68.1410   50.6910 C   0  0  0  0  0  3  0  0  0  0  0  0
  -37.6980  -65.4570   47.5430 C   0  0  0  0  0  0  0  0  0  0  0  0
  -37.4800  -64.2740   47.0900 O   0  0  0  0  0  0  0  0  0  0  0  0
  -36.2200  -64.1070   46.8040 C   0  0  0  0  0  3  0  0  0  0  0  0
  -35.5360  -65.2620   47.0860 C   0  0  0  0  0  3  0  0  0  0  0  0
  -36.4730  -66.1370   47.5610 C   0  0  0  0  0  3  0  0  0  0  0  0
  1  2  1  0  0  0  0
  1 19  1  1  0  0  0
  2  3  1  0  0  0  0
  3  4  2  0  0  0  0
  5  6  2  0  0  0  0
  5  3  1  0  0  0  0
  7  1  1  0  0  0  0
  7  5  1  0  0  0  0
  8  7  2  0  0  0  0
  9  8  1  0  0  0  0
 10  2  1  0  0  0  0
 10 11  1  0  0  0  0
 11 12  1  0  0  0  0
 12 17  1  0  0  0  0
 12 13  1  0  0  0  0
 13 14  1  0  0  0  0
 15 14  1  0  0  0  0
 16 15  1  0  0  0  0
 17 16  1  0  0  0  0
 18 12  1  0  0  0  0
 19 20  1  0  0  0  0
 20 21  2  0  0  0  0
 22 21  1  0  0  0  0
 22 23  1  0  0  0  0
 24 22  2  0  0  0  0
 25 19  2  0  0  0  0
 25 24  1  0  0  0  0
 26 30  2  0  0  0  0
 26  8  1  0  0  0  0
 27 26  1  0  0  0  0
 28 29  2  0  0  0  0
 28 27  1  0  0  0  0
 29 30  1  0  0  0  0
M  END
>  <Pose>
1

>  <Score>
-7.475

$$$$
