/Users/jonathanwahrer/Desktop/Msc/3_Semester/Drug_Design_Praktikum/waehrer_HTS_screening/HTS_experiment/out/docking_results/vina_output/3e7o/1941_docked.pdbqt
 OpenBabel03192216493D

 22 25  0  0  1  0  0  0  0  0999 V2000
  -35.6190  -67.1850   49.2860 N   0  0  0  0  0  0  0  0  0  0  0  0
  -35.4420  -67.0590   47.8670 C   0  0  0  0  0  0  0  0  0  0  0  0
  -36.0370  -67.8350   47.0420 O   0  0  0  0  0  0  0  0  0  0  0  0
  -34.5170  -65.9500   47.5850 C   0  0  1  0  0  3  0  0  0  0  0  0
  -33.7880  -65.7750   48.8950 C   0  0  2  0  0  3  0  0  0  0  0  0
  -32.3210  -66.0850   48.6860 C   0  0  2  0  0  3  0  0  0  0  0  0
  -31.7940  -64.9650   47.7770 C   0  0  0  0  0  2  0  0  0  0  0  0
  -32.5270  -65.1330   46.4780 C   0  0  0  0  0  0  0  0  0  0  0  0
  -32.2600  -64.4410   45.5330 O   0  0  0  0  0  0  0  0  0  0  0  0
  -33.5890  -66.1980   46.4460 C   0  0  1  0  0  3  0  0  0  0  0  0
  -32.8440  -67.5230   46.6410 C   0  0  0  0  0  2  0  0  0  0  0  0
  -32.1190  -67.3820   47.9520 C   0  0  0  0  0  0  0  0  0  0  0  0
  -31.4260  -68.2750   48.3540 O   0  0  0  0  0  0  0  0  0  0  0  0
  -34.4510  -66.6320   49.8760 C   0  0  0  0  0  0  0  0  0  0  0  0
  -34.0550  -66.8440   51.0450 O   0  0  0  0  0  0  0  0  0  0  0  0
  -36.7280  -67.7430   49.9820 C   0  0  0  0  0  0  0  0  0  0  0  0
  -37.9630  -67.1260   49.9240 C   0  0  0  0  0  3  0  0  0  0  0  0
  -39.0660  -67.6270   50.5780 C   0  0  0  0  0  3  0  0  0  0  0  0
  -38.9830  -68.7760   51.3250 C   0  0  0  0  0  0  0  0  0  0  0  0
  -40.3860  -69.4260   52.1650 Cl  0  0  0  0  0  0  0  0  0  0  0  0
  -37.7540  -69.4110   51.3980 C   0  0  0  0  0  3  0  0  0  0  0  0
  -36.6640  -68.8930   50.7370 C   0  0  0  0  0  3  0  0  0  0  0  0
  1 14  1  0  0  0  0
  1 16  1  0  0  0  0
  2  1  1  0  0  0  0
  3  2  2  0  0  0  0
  4  2  1  1  0  0  0
  4  5  1  0  0  0  0
  5 14  1  1  0  0  0
  6  7  1  6  0  0  0
  6  5  1  0  0  0  0
  8  7  1  0  0  0  0
  9  8  2  0  0  0  0
 10  8  1  0  0  0  0
 10 11  1  1  0  0  0
 10  4  1  0  0  0  0
 11 12  1  0  0  0  0
 12 13  2  0  0  0  0
 12  6  1  0  0  0  0
 14 15  2  0  0  0  0
 16 22  1  0  0  0  0
 17 16  2  0  0  0  0
 17 18  1  0  0  0  0
 18 19  2  0  0  0  0
 19 21  1  0  0  0  0
 19 20  1  0  0  0  0
 22 21  2  0  0  0  0
M  END
>  <Pose>
1

>  <Score>
-7.022

$$$$
