MODEL 1
REMARK VINA RESULT:    -7.022      0.000      0.000
REMARK INTER + INTRA:          -7.816
REMARK INTER:                  -7.432
REMARK INTRA:                  -0.384
REMARK UNBOUND:                -0.384
REMARK  1 active torsions:
REMARK  status: ('A' for Active; 'I' for Inactive)
REMARK    1  A    between atoms: C_5  and  N_8 
ROOT
ATOM      1  N   UNK d   1     -35.619 -67.185  49.286  0.00  0.00    -0.252 N 
ATOM      2  C   UNK d   1     -35.442 -67.059  47.867  0.00  0.00     0.237 C 
ATOM      3  O   UNK d   1     -36.037 -67.835  47.042  0.00  0.00    -0.272 OA
ATOM      4  C   UNK d   1     -34.517 -65.950  47.585  0.00  0.00     0.104 C 
ATOM      5  C   UNK d   1     -33.788 -65.775  48.895  0.00  0.00     0.104 C 
ATOM      6  C   UNK d   1     -32.321 -66.085  48.686  0.00  0.00     0.076 C 
ATOM      7  C   UNK d   1     -31.794 -64.965  47.777  0.00  0.00     0.091 C 
ATOM      8  C   UNK d   1     -32.527 -65.133  46.478  0.00  0.00     0.133 C 
ATOM      9  O   UNK d   1     -32.260 -64.441  45.533  0.00  0.00    -0.298 OA
ATOM     10  C   UNK d   1     -33.589 -66.198  46.446  0.00  0.00     0.076 C 
ATOM     11  C   UNK d   1     -32.844 -67.523  46.641  0.00  0.00     0.091 C 
ATOM     12  C   UNK d   1     -32.119 -67.382  47.952  0.00  0.00     0.133 C 
ATOM     13  O   UNK d   1     -31.426 -68.275  48.354  0.00  0.00    -0.298 OA
ATOM     14  C   UNK d   1     -34.451 -66.632  49.876  0.00  0.00     0.237 C 
ATOM     15  O   UNK d   1     -34.055 -66.844  51.045  0.00  0.00    -0.272 OA
ENDROOT
BRANCH   1  16
ATOM     16  C   UNK d   1     -36.728 -67.743  49.982  0.00  0.00     0.045 A 
ATOM     17  C   UNK d   1     -37.963 -67.126  49.924  0.00  0.00     0.032 A 
ATOM     18  C   UNK d   1     -39.066 -67.627  50.578  0.00  0.00     0.026 A 
ATOM     19  C   UNK d   1     -38.983 -68.776  51.325  0.00  0.00     0.034 A 
ATOM     20 Cl   UNK d   1     -40.386 -69.426  52.165  0.00  0.00    -0.084 Cl
ATOM     21  C   UNK d   1     -37.754 -69.411  51.398  0.00  0.00     0.026 A 
ATOM     22  C   UNK d   1     -36.664 -68.893  50.737  0.00  0.00     0.032 A 
ENDBRANCH   1  16
TORSDOF 1
ENDMDL
