MODEL 1
REMARK VINA RESULT:    -8.255      0.000      0.000
REMARK INTER + INTRA:         -10.516
REMARK INTER:                  -9.703
REMARK INTRA:                  -0.814
REMARK UNBOUND:                -0.814
REMARK  3 active torsions:
REMARK  status: ('A' for Active; 'I' for Inactive)
REMARK    1  A    between atoms: C_5  and  N_8 
REMARK    2  A    between atoms: C_14  and  C_18 
REMARK    3  A    between atoms: C_18  and  C_19 
REMARK       I    between atoms: C_19  and  N_21 
ROOT
ATOM      1  N   UNK d   1     -38.058 -67.480  49.951  0.00  0.00    -0.252 N 
ATOM      2  C   UNK d   1     -36.625 -67.633  49.861  0.00  0.00     0.239 C 
ATOM      3  O   UNK d   1     -35.896 -68.153  50.711  0.00  0.00    -0.272 OA
ATOM      4  C   UNK d   1     -36.151 -67.074  48.588  0.00  0.00     0.147 C 
ATOM      5  C   UNK d   1     -34.946 -66.169  48.680  0.00  0.00     0.279 C 
ATOM      6  N   UNK d   1     -35.422 -64.814  48.822  0.00  0.00     0.114 N 
ATOM      7  C   UNK d   1     -36.833 -64.911  49.138  0.00  0.00     0.245 C 
ATOM      8  C   UNK d   1     -37.246 -66.083  48.270  0.00  0.00     0.129 C 
ATOM      9  C   UNK d   1     -38.449 -66.784  48.756  0.00  0.00     0.238 C 
ATOM     10  O   UNK d   1     -39.546 -66.739  48.194  0.00  0.00    -0.272 OA
ATOM     11  C   UNK d   1     -34.217 -66.365  47.379  0.00  0.00     0.017 A 
ATOM     12  C   UNK d   1     -33.055 -67.029  47.653  0.00  0.00     0.044 A 
ATOM     13  C   UNK d   1     -32.170 -67.420  46.636  0.00  0.00     0.030 A 
ATOM     14  C   UNK d   1     -32.460 -67.135  45.318  0.00  0.00     0.002 A 
ATOM     15  C   UNK d   1     -33.623 -66.467  45.042  0.00  0.00     0.001 A 
ATOM     16  C   UNK d   1     -34.483 -66.090  46.053  0.00  0.00     0.012 A 
ATOM     17  N   UNK d   1     -32.866 -67.169  49.052  0.00  0.00    -0.324 N 
ATOM     18  C   UNK d   1     -33.974 -66.548  49.686  0.00  0.00     0.267 C 
ATOM     19  O   UNK d   1     -34.051 -66.377  50.921  0.00  0.00    -0.270 OA
ATOM     20  H   UNK d   1     -34.883 -64.367  49.601  0.00  0.00     0.318 HD
ATOM     21  H   UNK d   1     -32.046 -67.648  49.536  0.00  0.00     0.169 HD
ENDROOT
BRANCH   7  22
ATOM     22  C   UNK d   1     -37.589 -63.662  48.765  0.00  0.00     0.139 C 
BRANCH  22  23
ATOM     23  C   UNK d   1     -36.783 -62.652  48.086  0.00  0.00     0.217 C 
ATOM     24  O   UNK d   1     -35.981 -61.946  48.726  0.00  0.00    -0.274 OA
ATOM     25  N   UNK d   1     -36.909 -62.469  46.689  0.00  0.00    -0.370 N 
ATOM     26  H   UNK d   1     -37.600 -62.977  46.085  0.00  0.00     0.159 HD
ATOM     27  H   UNK d   1     -36.305 -61.789  46.142  0.00  0.00     0.159 HD
ENDBRANCH  22  23
ENDBRANCH   7  22
BRANCH   1  28
ATOM     28  C   UNK d   1     -38.928 -67.908  50.960  0.00  0.00     0.045 A 
ATOM     29  C   UNK d   1     -38.859 -69.146  51.537  0.00  0.00     0.032 A 
ATOM     30  C   UNK d   1     -39.722 -69.569  52.542  0.00  0.00     0.026 A 
ATOM     31  C   UNK d   1     -40.699 -68.715  52.992  0.00  0.00     0.034 A 
ATOM     32 Cl   UNK d   1     -41.789 -69.231  54.266  0.00  0.00    -0.084 Cl
ATOM     33  C   UNK d   1     -40.798 -67.476  52.439  0.00  0.00     0.026 A 
ATOM     34  C   UNK d   1     -39.916 -67.077  51.429  0.00  0.00     0.032 A 
ENDBRANCH   1  28
TORSDOF 3
ENDMDL
