/Users/jonathanwahrer/Desktop/Msc/3_Semester/Drug_Design_Praktikum/waehrer_HTS_screening/HTS_experiment/out/docking_results/vina_output/3e7o/1945_docked.pdbqt
 OpenBabel03192216493D

 24 27  0  0  0  0  0  0  0  0999 V2000
  -37.6630  -69.9550   50.9290 Cl  0  0  0  0  0  0  0  0  0  0  0  0
  -38.9510  -69.0030   51.6410 C   0  0  0  0  0  0  0  0  0  0  0  0
  -39.4970  -67.9200   50.9920 C   0  0  0  0  0  3  0  0  0  0  0  0
  -40.5230  -67.1690   51.5720 C   0  0  0  0  0  0  0  0  0  0  0  0
  -40.9830  -67.5440   52.8250 C   0  0  0  0  0  0  0  0  0  0  0  0
  -40.4480  -68.6240   53.4860 C   0  0  0  0  0  3  0  0  0  0  0  0
  -39.4400  -69.3520   52.9070 C   0  0  0  0  0  3  0  0  0  0  0  0
  -42.0650  -66.7830   53.4750 C   0  0  0  0  0  0  0  0  0  0  0  0
  -42.6660  -66.9130   54.6090 N   0  0  0  0  0  0  0  0  0  0  0  0
  -43.6770  -65.9120   54.8130 C   0  0  0  0  0  3  0  0  0  0  0  0
  -43.6280  -65.0800   53.5700 C   0  0  0  0  0  3  0  0  0  0  0  0
  -42.5940  -65.6780   52.7680 N   0  0  0  0  0  0  0  0  0  0  0  0
  -42.1020  -65.3190   51.4840 C   0  0  0  0  0  0  0  0  0  0  0  0
  -42.5620  -64.3370   50.8360 O   0  0  0  0  0  0  0  0  0  0  0  0
  -41.0450  -66.0610   50.8470 N   0  0  0  0  0  0  0  0  0  0  0  0
  -40.5570  -65.6740   49.5310 C   0  0  0  0  0  2  0  0  0  0  0  0
  -39.3460  -64.8290   49.6370 C   0  0  0  0  0  0  0  0  0  0  0  0
  -39.4950  -63.6130   49.9110 O   0  0  0  0  0  0  0  0  0  0  0  0
  -38.0350  -65.3270   49.4460 N   0  0  0  0  0  0  0  0  0  0  0  0
  -37.9280  -66.3360   49.2200 H   0  0  0  0  0  0  0  0  0  0  0  0
  -36.8710  -64.4810   49.5560 C   0  0  0  0  0  2  0  0  0  0  0  0
  -35.6260  -65.2750   49.2610 C   0  0  0  0  0  3  0  0  0  0  0  0
  -35.3650  -66.5320   50.0140 C   0  0  0  0  0  2  0  0  0  0  0  0
  -34.5770  -65.3190   50.3320 C   0  0  0  0  0  2  0  0  0  0  0  0
  1  2  1  0  0  0  0
  2  7  1  0  0  0  0
  3  4  1  0  0  0  0
  3  2  2  0  0  0  0
  4  5  2  0  0  0  0
  5  8  1  0  0  0  0
  5  6  1  0  0  0  0
  7  6  2  0  0  0  0
  8  9  2  0  0  0  0
  9 10  1  0  0  0  0
 11 10  2  0  0  0  0
 12  8  1  0  0  0  0
 12 11  1  0  0  0  0
 13 12  1  0  0  0  0
 14 13  2  0  0  0  0
 15 13  1  0  0  0  0
 15  4  1  0  0  0  0
 16 17  1  0  0  0  0
 16 15  1  0  0  0  0
 17 18  2  0  0  0  0
 19 21  1  0  0  0  0
 19 17  1  0  0  0  0
 20 19  1  0  0  0  0
 22 21  1  0  0  0  0
 22 23  1  0  0  0  0
 22 24  1  0  0  0  0
 23 24  1  0  0  0  0
M  END
>  <Pose>
1

>  <Score>
-7.672

$$$$
