MODEL 1
REMARK VINA RESULT:    -7.672      0.000      0.000
REMARK INTER + INTRA:          -9.850
REMARK INTER:                  -9.466
REMARK INTRA:                  -0.385
REMARK UNBOUND:                -0.385
REMARK  4 active torsions:
REMARK  status: ('A' for Active; 'I' for Inactive)
REMARK    1  A    between atoms: N_15  and  C_16 
REMARK    2  A    between atoms: C_16  and  C_17 
REMARK       I    between atoms: C_17  and  N_19 
REMARK    3  A    between atoms: N_19  and  C_20 
REMARK    4  A    between atoms: C_20  and  C_21 
ROOT
ATOM      1 Cl   UNK d   1     -37.663 -69.955  50.929  0.00  0.00    -0.084 Cl
ATOM      2  C   UNK d   1     -38.951 -69.003  51.641  0.00  0.00     0.036 A 
ATOM      3  C   UNK d   1     -39.497 -67.920  50.992  0.00  0.00     0.054 A 
ATOM      4  C   UNK d   1     -40.523 -67.169  51.572  0.00  0.00     0.055 A 
ATOM      5  C   UNK d   1     -40.983 -67.544  52.825  0.00  0.00     0.037 A 
ATOM      6  C   UNK d   1     -40.448 -68.624  53.486  0.00  0.00     0.019 A 
ATOM      7  C   UNK d   1     -39.440 -69.352  52.907  0.00  0.00     0.025 A 
ATOM      8  C   UNK d   1     -42.065 -66.783  53.475  0.00  0.00     0.141 A 
ATOM      9  N   UNK d   1     -42.666 -66.913  54.609  0.00  0.00    -0.270 NA
ATOM     10  C   UNK d   1     -43.677 -65.912  54.813  0.00  0.00     0.171 A 
ATOM     11  C   UNK d   1     -43.628 -65.080  53.570  0.00  0.00     0.157 A 
ATOM     12  N   UNK d   1     -42.594 -65.678  52.768  0.00  0.00    -0.281 N 
ATOM     13  C   UNK d   1     -42.102 -65.319  51.484  0.00  0.00     0.331 A 
ATOM     14  O   UNK d   1     -42.562 -64.337  50.836  0.00  0.00    -0.246 OA
ATOM     15  N   UNK d   1     -41.045 -66.061  50.847  0.00  0.00    -0.290 N 
ENDROOT
BRANCH  15  16
ATOM     16  C   UNK d   1     -40.557 -65.674  49.531  0.00  0.00     0.236 C 
BRANCH  16  17
ATOM     17  C   UNK d   1     -39.346 -64.829  49.637  0.00  0.00     0.236 C 
ATOM     18  O   UNK d   1     -39.495 -63.613  49.911  0.00  0.00    -0.272 OA
ATOM     19  N   UNK d   1     -38.035 -65.327  49.446  0.00  0.00    -0.359 N 
ATOM     20  H   UNK d   1     -37.928 -66.336  49.220  0.00  0.00     0.162 HD
BRANCH  19  21
ATOM     21  C   UNK d   1     -36.871 -64.481  49.556  0.00  0.00     0.127 C 
BRANCH  21  22
ATOM     22  C   UNK d   1     -35.626 -65.275  49.261  0.00  0.00     0.003 A 
ATOM     23  C   UNK d   1     -35.365 -66.532  50.014  0.00  0.00     0.007 A 
ATOM     24  C   UNK d   1     -34.577 -65.319  50.332  0.00  0.00     0.007 A 
ENDBRANCH  21  22
ENDBRANCH  19  21
ENDBRANCH  16  17
ENDBRANCH  15  16
TORSDOF 4
ENDMDL
