/Users/jonathanwahrer/Desktop/Msc/3_Semester/Drug_Design_Praktikum/waehrer_HTS_screening/HTS_experiment/out/docking_results/vina_output/3e7o/1956_docked.pdbqt
 OpenBabel03192216493D

 35 38  0  0  1  0  0  0  0  0999 V2000
  -37.7180  -65.5840   48.4800 C   0  0  0  0  0  0  0  0  0  0  0  0
  -38.6440  -64.6430   48.4010 C   0  0  0  0  0  0  0  0  0  0  0  0
  -40.1300  -64.8850   48.3160 C   0  0  2  0  0  3  0  0  0  0  0  0
  -40.7020  -63.6280   47.9300 N   0  0  0  0  0  0  0  0  0  0  0  0
  -39.7420  -62.5860   48.0350 C   0  0  0  0  0  0  0  0  0  0  0  0
  -39.9430  -61.3700   47.9050 O   0  0  0  0  0  0  0  0  0  0  0  0
  -38.4410  -63.2310   48.3310 C   0  0  0  0  0  0  0  0  0  0  0  0
  -37.3640  -62.6090   48.4850 O   0  0  0  0  0  0  0  0  0  0  0  0
  -38.1890  -66.9190   48.4770 O   0  0  0  0  0  1  0  0  0  0  0  0
  -40.5590  -65.3490   49.6640 C   0  0  0  0  0  0  0  0  0  0  0  0
  -40.4010  -64.5350   50.7490 C   0  0  0  0  0  3  0  0  0  0  0  0
  -40.8090  -64.9640   51.9800 C   0  0  0  0  0  3  0  0  0  0  0  0
  -41.3810  -66.2040   52.1640 C   0  0  0  0  0  0  0  0  0  0  0  0
  -41.5410  -67.0290   51.0660 C   0  0  0  0  0  3  0  0  0  0  0  0
  -41.1260  -66.5890   49.8190 C   0  0  0  0  0  3  0  0  0  0  0  0
  -41.7940  -66.6330   53.4210 O   0  0  0  0  0  0  0  0  0  0  0  0
  -41.7150  -68.0350   53.7160 C   0  0  0  0  0  2  0  0  0  0  0  0
  -40.4410  -68.2960   54.5150 C   0  0  0  0  0  2  0  0  0  0  0  0
  -39.6890  -69.4090   53.7980 C   0  0  0  0  0  1  0  0  0  0  0  0
  -42.0740  -63.4330   47.4740 C   0  0  0  0  0  2  0  0  0  0  0  0
  -42.8840  -62.8190   48.5630 C   0  0  0  0  0  2  0  0  0  0  0  0
  -44.2400  -63.3890   48.6140 N   0  0  0  0  0  4  0  0  0  0  0  0
  -44.9090  -63.0470   47.3970 C   0  0  0  0  0  2  0  0  0  0  0  0
  -46.4200  -63.2390   47.5050 C   0  0  0  0  0  2  0  0  0  0  0  0
  -46.8410  -62.4340   48.5790 O   0  0  0  0  0  0  0  0  0  0  0  0
  -46.3700  -63.0190   49.7360 C   0  0  0  0  0  2  0  0  0  0  0  0
  -44.8660  -62.8460   49.7990 C   0  0  0  0  0  2  0  0  0  0  0  0
  -44.1930  -64.4380   48.7010 H   0  0  0  0  0  0  0  0  0  0  0  0
  -36.3040  -65.2930   48.5670 C   0  0  0  0  0  0  0  0  0  0  0  0
  -35.5450  -65.1950   47.3920 C   0  0  0  0  0  3  0  0  0  0  0  0
  -34.1860  -64.9620   47.4040 C   0  0  0  0  0  3  0  0  0  0  0  0
  -33.5100  -64.8150   48.5920 C   0  0  0  0  0  0  0  0  0  0  0  0
  -31.7890  -64.5170   48.6770 Cl  0  0  0  0  0  0  0  0  0  0  0  0
  -34.2210  -64.9070   49.7550 C   0  0  0  0  0  3  0  0  0  0  0  0
  -35.6020  -65.1440   49.7390 C   0  0  0  0  0  3  0  0  0  0  0  0
  1 29  1  0  0  0  0
  2  1  2  0  0  0  0
  3  2  1  0  0  0  0
  3 10  1  1  0  0  0
  4  5  1  0  0  0  0
  4  3  1  0  0  0  0
  5  7  1  0  0  0  0
  6  5  2  0  0  0  0
  7  2  1  0  0  0  0
  7  8  2  0  0  0  0
  9  1  1  0  0  0  0
 10 15  2  0  0  0  0
 10 11  1  0  0  0  0
 11 12  2  0  0  0  0
 12 13  1  0  0  0  0
 13 16  1  0  0  0  0
 14 13  2  0  0  0  0
 15 14  1  0  0  0  0
 16 17  1  0  0  0  0
 17 18  1  0  0  0  0
 19 18  1  0  0  0  0
 20  4  1  0  0  0  0
 20 21  1  0  0  0  0
 21 22  1  0  0  0  0
 22 28  1  0  0  0  0
 22 27  1  0  0  0  0
 23 24  1  0  0  0  0
 23 22  1  0  0  0  0
 24 25  1  0  0  0  0
 25 26  1  0  0  0  0
 26 27  1  0  0  0  0
 29 35  1  0  0  0  0
 30 31  1  0  0  0  0
 30 29  2  0  0  0  0
 31 32  2  0  0  0  0
 32 33  1  0  0  0  0
 32 34  1  0  0  0  0
 35 34  2  0  0  0  0
M  END
>  <Pose>
1

>  <Score>
-6.996

$$$$
