MODEL 1
REMARK VINA RESULT:    -6.996      0.000      0.000
REMARK INTER + INTRA:         -11.566
REMARK INTER:                 -10.268
REMARK INTRA:                  -1.298
REMARK UNBOUND:                -1.298
REMARK  8 active torsions:
REMARK  status: ('A' for Active; 'I' for Inactive)
REMARK    1  A    between atoms: C_5  and  C_8 
REMARK    2  A    between atoms: C_10  and  C_24 
REMARK    3  A    between atoms: N_11  and  C_16 
REMARK    4  A    between atoms: C_16  and  C_17 
REMARK    5  A    between atoms: C_17  and  N_18 
REMARK    6  A    between atoms: C_27  and  O_30 
REMARK    7  A    between atoms: O_30  and  C_31 
REMARK    8  A    between atoms: C_31  and  C_32 
ROOT
ATOM      1  C   UNK d   1     -37.718 -65.584  48.480  0.00  0.00     0.130 C 
ATOM      2  C   UNK d   1     -38.644 -64.643  48.401  0.00  0.00     0.062 C 
ATOM      3  C   UNK d   1     -40.130 -64.885  48.316  0.00  0.00     0.161 C 
ATOM      4  N   UNK d   1     -40.702 -63.628  47.930  0.00  0.00    -0.331 N 
ATOM      5  C   UNK d   1     -39.742 -62.586  48.035  0.00  0.00     0.295 C 
ATOM      6  O   UNK d   1     -39.943 -61.370  47.905  0.00  0.00    -0.264 OA
ATOM      7  C   UNK d   1     -38.441 -63.231  48.331  0.00  0.00     0.250 C 
ATOM      8  O   UNK d   1     -37.364 -62.609  48.485  0.00  0.00    -0.282 OA
ATOM      9  O   UNK d   1     -38.189 -66.919  48.477  0.00  0.00    -0.190 OA
ENDROOT
BRANCH   3  10
ATOM     10  C   UNK d   1     -40.559 -65.349  49.664  0.00  0.00    -0.030 A 
ATOM     11  C   UNK d   1     -40.401 -64.535  50.749  0.00  0.00     0.012 A 
ATOM     12  C   UNK d   1     -40.809 -64.964  51.980  0.00  0.00     0.037 A 
ATOM     13  C   UNK d   1     -41.381 -66.204  52.164  0.00  0.00     0.068 A 
ATOM     14  C   UNK d   1     -41.541 -67.029  51.066  0.00  0.00     0.037 A 
ATOM     15  C   UNK d   1     -41.126 -66.589  49.819  0.00  0.00     0.012 A 
BRANCH  13  16
ATOM     16  O   UNK d   1     -41.794 -66.633  53.421  0.00  0.00    -0.351 OA
BRANCH  16  17
ATOM     17  C   UNK d   1     -41.715 -68.035  53.716  0.00  0.00     0.175 C 
BRANCH  17  18
ATOM     18  C   UNK d   1     -40.441 -68.296  54.515  0.00  0.00     0.022 C 
ATOM     19  C   UNK d   1     -39.689 -69.409  53.798  0.00  0.00     0.007 C 
ENDBRANCH  17  18
ENDBRANCH  16  17
ENDBRANCH  13  16
ENDBRANCH   3  10
BRANCH   4  20
ATOM     20  C   UNK d   1     -42.074 -63.433  47.474  0.00  0.00     0.155 C 
BRANCH  20  21
ATOM     21  C   UNK d   1     -42.884 -62.819  48.563  0.00  0.00     0.255 C 
BRANCH  21  22
ATOM     22  N   UNK d   1     -44.240 -63.389  48.614  0.00  0.00    -0.066 N 
ATOM     23  C   UNK d   1     -44.909 -63.047  47.397  0.00  0.00     0.261 C 
ATOM     24  C   UNK d   1     -46.420 -63.239  47.505  0.00  0.00     0.195 C 
ATOM     25  O   UNK d   1     -46.841 -62.434  48.579  0.00  0.00    -0.388 OA
ATOM     26  C   UNK d   1     -46.370 -63.019  49.736  0.00  0.00     0.195 C 
ATOM     27  C   UNK d   1     -44.866 -62.846  49.799  0.00  0.00     0.261 C 
ATOM     28  H   UNK d   1     -44.193 -64.438  48.701  0.00  0.00     0.280 HD
ENDBRANCH  21  22
ENDBRANCH  20  21
ENDBRANCH   4  20
BRANCH   1  29
ATOM     29  C   UNK d   1     -36.304 -65.293  48.567  0.00  0.00     0.001 A 
ATOM     30  C   UNK d   1     -35.545 -65.195  47.392  0.00  0.00     0.016 A 
ATOM     31  C   UNK d   1     -34.186 -64.962  47.404  0.00  0.00     0.024 A 
ATOM     32  C   UNK d   1     -33.510 -64.815  48.592  0.00  0.00     0.034 A 
ATOM     33 Cl   UNK d   1     -31.789 -64.517  48.677  0.00  0.00    -0.084 Cl
ATOM     34  C   UNK d   1     -34.221 -64.907  49.755  0.00  0.00     0.024 A 
ATOM     35  C   UNK d   1     -35.602 -65.144  49.739  0.00  0.00     0.016 A 
ENDBRANCH   1  29
TORSDOF 8
ENDMDL
