MODEL 1
REMARK VINA RESULT:    -8.716      0.000      0.000
REMARK INTER + INTRA:         -10.260
REMARK INTER:                 -10.500
REMARK INTRA:                   0.240
REMARK UNBOUND:                 0.240
REMARK  4 active torsions:
REMARK  status: ('A' for Active; 'I' for Inactive)
REMARK    1  A    between atoms: C_5  and  C_8 
REMARK    2  A    between atoms: C_8  and  C_9 
REMARK       I    between atoms: C_9  and  N_11 
REMARK    3  A    between atoms: C_17  and  N_21 
REMARK    4  A    between atoms: C_19  and  O_20 
ROOT
ATOM      1  C   UNK d   1     -40.157 -66.725  51.724  0.00  0.00     0.224 C 
ATOM      2  O   UNK d   1     -40.506 -65.549  51.360  0.00  0.00    -0.273 OA
ATOM      3  N   UNK d   1     -39.341 -67.537  50.923  0.00  0.00    -0.346 N 
ATOM      4  C   UNK d   1     -38.948 -68.851  51.323  0.00  0.00     0.131 C 
ATOM      5  C   UNK d   1     -37.648 -69.317  50.729  0.00  0.00     0.065 C 
ATOM      6  C   UNK d   1     -36.808 -68.152  50.361  0.00  0.00     0.024 A 
ATOM      7  C   UNK d   1     -37.376 -67.013  49.822  0.00  0.00     0.082 A 
ATOM      8  N   UNK d   1     -36.626 -65.959  49.481  0.00  0.00    -0.065 NA
ATOM      9  C   UNK d   1     -35.285 -65.936  49.637  0.00  0.00     0.727 A 
ATOM     10  N   UNK d   1     -34.724 -67.051  50.165  0.00  0.00    -0.038 NA
ATOM     11  C   UNK d   1     -35.435 -68.133  50.523  0.00  0.00     0.189 A 
ATOM     12  C   UNK d   1     -38.877 -67.043  49.656  0.00  0.00     0.186 C 
ENDROOT
BRANCH   1  13
ATOM     13  C   UNK d   1     -40.665 -67.192  53.054  0.00  0.00     0.141 C 
BRANCH  13  14
ATOM     14  C   UNK d   1     -42.124 -67.025  53.156  0.00  0.00    -0.049 A 
ATOM     15  C   UNK d   1     -42.877 -66.331  52.234  0.00  0.00     0.009 A 
ATOM     16  C   UNK d   1     -44.242 -66.190  52.357  0.00  0.00     0.024 A 
ATOM     17  C   UNK d   1     -44.907 -66.756  53.441  0.00  0.00     0.034 A 
ATOM     18 Cl   UNK d   1     -46.640 -66.585  53.612  0.00  0.00    -0.084 Cl
ATOM     19  C   UNK d   1     -44.138 -67.448  54.357  0.00  0.00     0.024 A 
ATOM     20  C   UNK d   1     -42.774 -67.588  54.231  0.00  0.00     0.009 A 
ENDBRANCH  13  14
ENDBRANCH   1  13
BRANCH  11  21
ATOM     21  O   UNK d   1     -34.828 -69.259  51.061  0.00  0.00    -0.344 OA
ATOM     22  H   UNK d   1     -33.995 -69.198  51.652  0.00  0.00     0.219 HD
ENDBRANCH  11  21
BRANCH   9  23
ATOM     23  N   UNK d   1     -34.542 -64.803  49.265  0.00  0.00    -0.210 N 
ATOM     24  C   UNK d   1     -33.155 -64.693  49.603  0.00  0.00     0.167 C 
ATOM     25  C   UNK d   1     -32.545 -63.702  48.602  0.00  0.00     0.188 C 
ATOM     26  O   UNK d   1     -33.114 -62.459  48.724  0.00  0.00    -0.388 OA
ATOM     27  C   UNK d   1     -34.480 -62.424  48.780  0.00  0.00     0.188 C 
ATOM     28  C   UNK d   1     -35.170 -63.739  48.539  0.00  0.00     0.167 C 
ENDBRANCH   9  23
TORSDOF 4
ENDMDL
