MODEL 1
REMARK VINA RESULT:    -8.252      0.000      0.000
REMARK INTER + INTRA:         -11.212
REMARK INTER:                 -10.182
REMARK INTRA:                  -1.030
REMARK UNBOUND:                -1.030
REMARK  4 active torsions:
REMARK  status: ('A' for Active; 'I' for Inactive)
REMARK    1  A    between atoms: C_5  and  C_8 
REMARK    2  A    between atoms: C_8  and  C_9 
REMARK       I    between atoms: C_9  and  N_11 
REMARK    3  A    between atoms: N_14  and  C_17 
REMARK    4  A    between atoms: C_21  and  N_23 
ROOT
ATOM      1  C   UNK d   1     -40.820 -64.918  51.269  0.00  0.00     0.224 C 
ATOM      2  O   UNK d   1     -40.279 -64.164  52.120  0.00  0.00    -0.273 OA
ATOM      3  N   UNK d   1     -40.456 -64.780  49.920  0.00  0.00    -0.349 N 
ATOM      4  C   UNK d   1     -39.462 -63.776  49.500  0.00  0.00     0.145 C 
ATOM      5  C   UNK d   1     -38.613 -64.386  48.395  0.00  0.00     0.143 C 
ATOM      6  N   UNK d   1     -38.623 -65.819  48.606  0.00  0.00    -0.376 N 
ATOM      7  C   UNK d   1     -39.874 -66.486  48.284  0.00  0.00     0.143 C 
ATOM      8  C   UNK d   1     -40.993 -65.584  48.832  0.00  0.00     0.145 C 
ENDROOT
BRANCH   6   9
ATOM      9  C   UNK d   1     -37.493 -66.515  49.107  0.00  0.00     0.053 A 
ATOM     10  C   UNK d   1     -37.652 -67.739  49.729  0.00  0.00     0.170 A 
ATOM     11  N   UNK d   1     -36.549 -68.381  50.214  0.00  0.00    -0.158 NA
ATOM     12  N   UNK d   1     -35.331 -67.886  50.117  0.00  0.00    -0.132 NA
ATOM     13  C   UNK d   1     -35.100 -66.680  49.513  0.00  0.00     0.150 A 
ATOM     14  C   UNK d   1     -36.203 -66.043  49.031  0.00  0.00     0.083 A 
BRANCH  13  15
ATOM     15  N   UNK d   1     -33.770 -66.208  49.446  0.00  0.00    -0.360 N 
ATOM     16  C   UNK d   1     -33.458 -64.816  49.714  0.00  0.00     0.151 C 
ATOM     17  C   UNK d   1     -32.480 -64.277  48.670  0.00  0.00     0.187 C 
ATOM     18  O   UNK d   1     -31.424 -65.143  48.466  0.00  0.00    -0.388 OA
ATOM     19  C   UNK d   1     -31.934 -66.329  47.961  0.00  0.00     0.187 C 
ATOM     20  C   UNK d   1     -32.658 -67.057  49.108  0.00  0.00     0.151 C 
ENDBRANCH  13  15
ENDBRANCH   6   9
BRANCH   1  21
ATOM     21  C   UNK d   1     -41.806 -65.900  51.759  0.00  0.00     0.141 C 
BRANCH  21  22
ATOM     22  C   UNK d   1     -41.144 -67.034  52.457  0.00  0.00    -0.049 A 
ATOM     23  C   UNK d   1     -40.466 -67.992  51.707  0.00  0.00     0.009 A 
ATOM     24  C   UNK d   1     -39.836 -69.060  52.319  0.00  0.00     0.024 A 
ATOM     25  C   UNK d   1     -39.869 -69.200  53.707  0.00  0.00     0.034 A 
ATOM     26 Cl   UNK d   1     -39.081 -70.539  54.484  0.00  0.00    -0.084 Cl
ATOM     27  C   UNK d   1     -40.544 -68.246  54.432  0.00  0.00     0.024 A 
ATOM     28  C   UNK d   1     -41.178 -67.167  53.817  0.00  0.00     0.009 A 
ENDBRANCH  21  22
ENDBRANCH   1  21
TORSDOF 4
ENDMDL
