/Users/jonathanwahrer/Desktop/Msc/3_Semester/Drug_Design_Praktikum/waehrer_HTS_screening/HTS_experiment/out/docking_results/vina_output/3e7o/1960_docked.pdbqt
 OpenBabel03192216503D

 28 31  0  0  0  0  0  0  0  0999 V2000
  -40.8200  -64.9180   51.2690 C   0  0  0  0  0  0  0  0  0  0  0  0
  -40.2790  -64.1640   52.1200 O   0  0  0  0  0  0  0  0  0  0  0  0
  -40.4560  -64.7800   49.9200 N   0  0  0  0  0  0  0  0  0  0  0  0
  -39.4620  -63.7760   49.5000 C   0  0  0  0  0  2  0  0  0  0  0  0
  -38.6130  -64.3860   48.3950 C   0  0  0  0  0  2  0  0  0  0  0  0
  -38.6230  -65.8190   48.6060 N   0  0  0  0  0  0  0  0  0  0  0  0
  -39.8740  -66.4860   48.2840 C   0  0  0  0  0  2  0  0  0  0  0  0
  -40.9930  -65.5840   48.8320 C   0  0  0  0  0  2  0  0  0  0  0  0
  -37.4930  -66.5150   49.1070 C   0  0  0  0  0  0  0  0  0  0  0  0
  -37.6520  -67.7390   49.7290 C   0  0  0  0  0  3  0  0  0  0  0  0
  -36.5490  -68.3810   50.2140 N   0  0  0  0  0  0  0  0  0  0  0  0
  -35.3310  -67.8860   50.1170 N   0  0  0  0  0  0  0  0  0  0  0  0
  -35.1000  -66.6800   49.5130 C   0  0  0  0  0  0  0  0  0  0  0  0
  -36.2030  -66.0430   49.0310 C   0  0  0  0  0  3  0  0  0  0  0  0
  -33.7700  -66.2080   49.4460 N   0  0  0  0  0  0  0  0  0  0  0  0
  -33.4580  -64.8160   49.7140 C   0  0  0  0  0  2  0  0  0  0  0  0
  -32.4800  -64.2770   48.6700 C   0  0  0  0  0  2  0  0  0  0  0  0
  -31.4240  -65.1430   48.4660 O   0  0  0  0  0  0  0  0  0  0  0  0
  -31.9340  -66.3290   47.9610 C   0  0  0  0  0  2  0  0  0  0  0  0
  -32.6580  -67.0570   49.1080 C   0  0  0  0  0  2  0  0  0  0  0  0
  -41.8060  -65.9000   51.7590 C   0  0  0  0  0  2  0  0  0  0  0  0
  -41.1440  -67.0340   52.4570 C   0  0  0  0  0  0  0  0  0  0  0  0
  -40.4660  -67.9920   51.7070 C   0  0  0  0  0  3  0  0  0  0  0  0
  -39.8360  -69.0600   52.3190 C   0  0  0  0  0  3  0  0  0  0  0  0
  -39.8690  -69.2000   53.7070 C   0  0  0  0  0  0  0  0  0  0  0  0
  -39.0810  -70.5390   54.4840 Cl  0  0  0  0  0  0  0  0  0  0  0  0
  -40.5440  -68.2460   54.4320 C   0  0  0  0  0  3  0  0  0  0  0  0
  -41.1780  -67.1670   53.8170 C   0  0  0  0  0  3  0  0  0  0  0  0
  1 21  1  0  0  0  0
  1  2  2  0  0  0  0
  3  1  1  0  0  0  0
  4  3  1  0  0  0  0
  5  6  1  0  0  0  0
  5  4  1  0  0  0  0
  6  9  1  0  0  0  0
  7  6  1  0  0  0  0
  7  8  1  0  0  0  0
  8  3  1  0  0  0  0
  9 10  1  0  0  0  0
 10 11  2  0  0  0  0
 12 11  1  0  0  0  0
 13 12  2  0  0  0  0
 14  9  2  0  0  0  0
 14 13  1  0  0  0  0
 15 13  1  0  0  0  0
 15 16  1  0  0  0  0
 17 16  1  0  0  0  0
 18 17  1  0  0  0  0
 19 18  1  0  0  0  0
 19 20  1  0  0  0  0
 20 15  1  0  0  0  0
 21 22  1  0  0  0  0
 22 28  1  0  0  0  0
 23 24  1  0  0  0  0
 23 22  2  0  0  0  0
 24 25  2  0  0  0  0
 25 27  1  0  0  0  0
 25 26  1  0  0  0  0
 28 27  2  0  0  0  0
M  END
>  <Pose>
1

>  <Score>
-8.252

$$$$
