MODEL 1
REMARK VINA RESULT:    -9.223      0.000      0.000
REMARK INTER + INTRA:         -10.970
REMARK INTER:                 -10.841
REMARK INTRA:                  -0.129
REMARK UNBOUND:                -0.129
REMARK  3 active torsions:
REMARK  status: ('A' for Active; 'I' for Inactive)
REMARK    1  A    between atoms: C_6  and  C_7 
REMARK       I    between atoms: C_7  and  N_9 
REMARK    2  A    between atoms: C_10  and  C_11 
REMARK    3  A    between atoms: N_12  and  C_16 
ROOT
ATOM      1  C   UNK d   1     -41.723 -68.124  54.677  0.00  0.00     0.275 C 
ATOM      2  O   UNK d   1     -41.492 -69.042  55.557  0.00  0.00    -0.266 OA
ATOM      3  N   UNK d   1     -42.743 -67.210  54.767  0.00  0.00    -0.348 N 
ATOM      4  C   UNK d   1     -43.757 -66.303  54.856  0.00  0.00     0.205 C 
ATOM      5  H   UNK d   1     -43.154 -67.764  55.948  0.00  0.00     0.163 HD
ENDROOT
BRANCH   1   6
ATOM      6  C   UNK d   1     -40.731 -68.206  53.572  0.00  0.00     0.183 A 
ATOM      7  C   UNK d   1     -40.674 -67.482  52.407  0.00  0.00     0.231 A 
ATOM      8  F   UNK d   1     -41.534 -66.518  51.997  0.00  0.00    -0.183 F 
ATOM      9  N   UNK d   1     -39.596 -67.861  51.655  0.00  0.00    -0.279 N 
ATOM     10  C   UNK d   1     -38.989 -68.825  52.367  0.00  0.00     0.137 A 
ATOM     11  C   UNK d   1     -39.130 -67.454  50.463  0.00  0.00     0.125 A 
ATOM     12  N   UNK d   1     -39.666 -69.029  53.508  0.00  0.00    -0.220 NA
ATOM     13  C   UNK d   1     -37.859 -69.388  51.826  0.00  0.00     0.053 A 
ATOM     14  C   UNK d   1     -37.341 -68.993  50.591  0.00  0.00     0.029 A 
ATOM     15  C   UNK d   1     -37.988 -68.007  49.895  0.00  0.00     0.050 A 
ATOM     16 Cl   UNK d   1     -37.388 -67.455  48.331  0.00  0.00    -0.083 Cl
ENDBRANCH   1   6
BRANCH   4  17
ATOM     17  C   UNK d   1     -43.854 -65.319  53.718  0.00  0.00     0.171 A 
ATOM     18  N   UNK d   1     -44.893 -65.182  52.891  0.00  0.00    -0.197 N 
ATOM     19  N   UNK d   1     -44.603 -64.218  52.034  0.00  0.00    -0.039 NA
ATOM     20  N   UNK d   1     -43.407 -63.734  52.290  0.00  0.00    -0.023 NA
ATOM     21  N   UNK d   1     -42.949 -64.422  53.336  0.00  0.00    -0.112 NA
BRANCH  18  22
ATOM     22  C   UNK d   1     -46.077 -65.975  52.998  0.00  0.00     0.062 A 
ATOM     23  C   UNK d   1     -47.305 -65.343  52.835  0.00  0.00     0.032 A 
ATOM     24  C   UNK d   1     -48.495 -66.052  52.944  0.00  0.00     0.002 A 
ATOM     25  C   UNK d   1     -48.496 -67.405  53.218  0.00  0.00     0.000 A 
ATOM     26  C   UNK d   1     -47.275 -68.025  53.378  0.00  0.00     0.002 A 
ATOM     27  C   UNK d   1     -46.089 -67.321  53.270  0.00  0.00     0.032 A 
ENDBRANCH  18  22
ENDBRANCH   4  17
TORSDOF 3
ENDMDL
