/Users/jonathanwahrer/Desktop/Msc/3_Semester/Drug_Design_Praktikum/waehrer_HTS_screening/HTS_experiment/out/docking_results/vina_output/3e7o/1966_docked.pdbqt
 OpenBabel03192216503D

 27 30  0  0  0  0  0  0  0  0999 V2000
  -41.7230  -68.1240   54.6770 C   0  0  0  0  0  0  0  0  0  0  0  0
  -41.4920  -69.0420   55.5570 O   0  0  0  0  0  0  0  0  0  0  0  0
  -42.7430  -67.2100   54.7670 N   0  0  0  0  0  0  0  0  0  0  0  0
  -43.7570  -66.3030   54.8560 C   0  0  0  0  0  2  0  0  0  0  0  0
  -43.1540  -67.7640   55.9480 H   0  0  0  0  0  0  0  0  0  0  0  0
  -40.7310  -68.2060   53.5720 C   0  0  0  0  0  0  0  0  0  0  0  0
  -40.6740  -67.4820   52.4070 C   0  0  0  0  0  0  0  0  0  0  0  0
  -41.5340  -66.5180   51.9970 F   0  0  0  0  0  0  0  0  0  0  0  0
  -39.5960  -67.8610   51.6550 N   0  0  0  0  0  0  0  0  0  0  0  0
  -38.9890  -68.8250   52.3670 C   0  0  0  0  0  0  0  0  0  0  0  0
  -39.1300  -67.4540   50.4630 C   0  0  0  0  0  3  0  0  0  0  0  0
  -39.6660  -69.0290   53.5080 N   0  0  0  0  0  0  0  0  0  0  0  0
  -37.8590  -69.3880   51.8260 C   0  0  0  0  0  3  0  0  0  0  0  0
  -37.3410  -68.9930   50.5910 C   0  0  0  0  0  3  0  0  0  0  0  0
  -37.9880  -68.0070   49.8950 C   0  0  0  0  0  0  0  0  0  0  0  0
  -37.3880  -67.4550   48.3310 Cl  0  0  0  0  0  0  0  0  0  0  0  0
  -43.8540  -65.3190   53.7180 C   0  0  0  0  0  0  0  0  0  0  0  0
  -44.8930  -65.1820   52.8910 N   0  0  0  0  0  0  0  0  0  0  0  0
  -44.6030  -64.2180   52.0340 N   0  0  0  0  0  0  0  0  0  0  0  0
  -43.4070  -63.7340   52.2900 N   0  0  0  0  0  0  0  0  0  0  0  0
  -42.9490  -64.4220   53.3360 N   0  0  0  0  0  0  0  0  0  0  0  0
  -46.0770  -65.9750   52.9980 C   0  0  0  0  0  0  0  0  0  0  0  0
  -47.3050  -65.3430   52.8350 C   0  0  0  0  0  3  0  0  0  0  0  0
  -48.4950  -66.0520   52.9440 C   0  0  0  0  0  3  0  0  0  0  0  0
  -48.4960  -67.4050   53.2180 C   0  0  0  0  0  3  0  0  0  0  0  0
  -47.2750  -68.0250   53.3780 C   0  0  0  0  0  3  0  0  0  0  0  0
  -46.0890  -67.3210   53.2700 C   0  0  0  0  0  3  0  0  0  0  0  0
  1  3  1  0  0  0  0
  1  2  2  0  0  0  0
  3  4  1  0  0  0  0
  3  5  1  0  0  0  0
  6  1  1  0  0  0  0
  7  6  2  0  0  0  0
  8  7  1  0  0  0  0
  9 10  1  0  0  0  0
  9  7  1  0  0  0  0
 10 12  2  0  0  0  0
 11  9  1  0  0  0  0
 12  6  1  0  0  0  0
 13 10  1  0  0  0  0
 14 13  2  0  0  0  0
 15 11  2  0  0  0  0
 15 14  1  0  0  0  0
 16 15  1  0  0  0  0
 17  4  1  0  0  0  0
 18 22  1  0  0  0  0
 18 17  1  0  0  0  0
 19 20  2  0  0  0  0
 19 18  1  0  0  0  0
 20 21  1  0  0  0  0
 21 17  2  0  0  0  0
 22 27  1  0  0  0  0
 23 24  1  0  0  0  0
 23 22  2  0  0  0  0
 24 25  2  0  0  0  0
 25 26  1  0  0  0  0
 27 26  2  0  0  0  0
M  END
>  <Pose>
1

>  <Score>
-9.223

$$$$
