MODEL 1
REMARK VINA RESULT:    -8.425      0.000      0.000
REMARK INTER + INTRA:         -10.660
REMARK INTER:                  -9.903
REMARK INTRA:                  -0.757
REMARK UNBOUND:                -0.757
REMARK  3 active torsions:
REMARK  status: ('A' for Active; 'I' for Inactive)
REMARK    1  A    between atoms: C_4  and  N_8 
REMARK    2  A    between atoms: C_11  and  C_13 
REMARK    3  A    between atoms: N_18  and  C_21 
ROOT
ATOM      1  C   UNK d   1     -38.551 -64.516  48.833  0.00  0.00     0.209 C 
ATOM      2  O   UNK d   1     -37.710 -63.449  49.132  0.00  0.00    -0.170 OA
ATOM      3  N   UNK d   1     -37.913 -65.444  48.081  0.00  0.00    -0.354 N 
ATOM      4  C   UNK d   1     -38.314 -66.737  47.612  0.00  0.00     0.145 C 
ATOM      5  C   UNK d   1     -37.060 -67.604  47.375  0.00  0.00     0.161 C 
ATOM      6  N   UNK d   1     -36.113 -67.138  48.399  0.00  0.00    -0.211 N 
ATOM      7  C   UNK d   1     -35.521 -65.850  48.250  0.00  0.00     0.161 C 
ATOM      8  C   UNK d   1     -36.567 -65.021  47.577  0.00  0.00     0.145 C 
ENDROOT
BRANCH   1   9
ATOM      9  C   UNK d   1     -39.783 -64.128  49.496  0.00  0.00     0.151 A 
ATOM     10  N   UNK d   1     -40.813 -63.802  50.051  0.00  0.00    -0.126 NA
ATOM     11  N   UNK d   1     -41.498 -64.255  50.906  0.00  0.00    -0.060 NA
ATOM     12  N   UNK d   1     -40.898 -65.366  51.276  0.00  0.00    -0.224 N 
ATOM     13  C   UNK d   1     -39.837 -65.468  50.521  0.00  0.00     0.158 A 
BRANCH  12  14
ATOM     14  C   UNK d   1     -41.454 -66.198  52.320  0.00  0.00     0.061 A 
ATOM     15  C   UNK d   1     -40.751 -67.085  53.058  0.00  0.00     0.055 A 
ATOM     16  C   UNK d   1     -41.359 -67.842  54.052  0.00  0.00     0.036 A 
ATOM     17 Cl   UNK d   1     -40.527 -69.008  55.032  0.00  0.00    -0.084 Cl
ATOM     18  C   UNK d   1     -42.760 -67.689  54.306  0.00  0.00     0.024 A 
ATOM     19  C   UNK d   1     -43.447 -66.794  53.561  0.00  0.00     0.004 A 
ATOM     20  C   UNK d   1     -42.800 -66.084  52.606  0.00  0.00     0.032 A 
ENDBRANCH  12  14
ENDBRANCH   1   9
BRANCH   6  21
ATOM     21  C   UNK d   1     -35.906 -67.904  49.540  0.00  0.00     0.724 A 
ATOM     22  N   UNK d   1     -34.687 -67.861  50.225  0.00  0.00    -0.075 NA
ATOM     23  C   UNK d   1     -34.400 -68.506  51.300  0.00  0.00     0.138 A 
ATOM     24  C   UNK d   1     -35.330 -69.348  51.929  0.00  0.00     0.040 A 
ATOM     25  C   UNK d   1     -36.542 -69.403  51.253  0.00  0.00     0.138 A 
ATOM     26  N   UNK d   1     -36.765 -68.739  50.182  0.00  0.00    -0.075 NA
ENDBRANCH   6  21
TORSDOF 3
ENDMDL
