MODEL 1
REMARK VINA RESULT:    -8.054      0.000      0.000
REMARK INTER + INTRA:          -7.521
REMARK INTER:                  -8.525
REMARK INTRA:                   1.004
REMARK UNBOUND:                 1.004
REMARK  1 active torsions:
REMARK  status: ('A' for Active; 'I' for Inactive)
REMARK       I    between atoms: N_10  and  C_13 
REMARK    1  A    between atoms: C_13  and  C_15 
ROOT
ATOM      1 Cl   UNK d   1     -38.924 -70.777  54.317  0.00  0.00    -0.083 Cl
ATOM      2  C   UNK d   1     -39.740 -69.424  53.533  0.00  0.00     0.050 A 
ATOM      3  C   UNK d   1     -40.892 -68.867  54.049  0.00  0.00     0.125 A 
ATOM      4  N   UNK d   1     -41.532 -67.827  53.463  0.00  0.00    -0.271 N 
ATOM      5  C   UNK d   1     -41.077 -67.269  52.325  0.00  0.00     0.137 A 
ATOM      6  N   UNK d   1     -41.706 -66.227  51.722  0.00  0.00    -0.234 NA
ATOM      7  C   UNK d   1     -42.830 -65.677  52.218  0.00  0.00     0.051 A 
ATOM      8  C   UNK d   1     -43.313 -66.243  53.394  0.00  0.00     0.053 A 
ATOM      9  C   UNK d   1     -44.554 -65.637  53.943  0.00  0.00     0.172 C 
ATOM     10  N   UNK d   1     -45.449 -65.479  52.791  0.00  0.00    -0.347 N 
ATOM     11  C   UNK d   1     -45.018 -64.613  51.730  0.00  0.00     0.132 C 
ATOM     12  C   UNK d   1     -43.525 -64.536  51.570  0.00  0.00     0.080 C 
ATOM     13  C   UNK d   1     -46.681 -66.166  52.737  0.00  0.00     0.224 C 
ATOM     14  O   UNK d   1     -46.965 -66.925  53.725  0.00  0.00    -0.273 OA
ATOM     15  C   UNK d   1     -42.655 -67.299  53.983  0.00  0.00     0.263 A 
ATOM     16  O   UNK d   1     -43.118 -67.798  55.059  0.00  0.00    -0.267 OA
ATOM     17  C   UNK d   1     -39.922 -67.815  51.790  0.00  0.00     0.053 A 
ATOM     18  C   UNK d   1     -39.251 -68.872  52.368  0.00  0.00     0.029 A 
ENDROOT
BRANCH  13  19
ATOM     19  C   UNK d   1     -47.626 -66.035  51.606  0.00  0.00     0.082 C 
ATOM     20  C   UNK d   1     -48.099 -64.611  51.417  0.00  0.00     0.040 C 
ATOM     21  C   UNK d   1     -48.364 -64.073  52.817  0.00  0.00     0.168 C 
ATOM     22  O   UNK d   1     -48.928 -65.068  53.614  0.00  0.00    -0.391 OA
ATOM     23  C   UNK d   1     -49.718 -65.945  52.857  0.00  0.00     0.168 C 
ATOM     24  C   UNK d   1     -48.887 -66.840  51.958  0.00  0.00     0.040 C 
ENDBRANCH  13  19
TORSDOF 1
ENDMDL
