/Users/jonathanwahrer/Desktop/Msc/3_Semester/Drug_Design_Praktikum/waehrer_HTS_screening/HTS_experiment/out/docking_results/vina_output/3e7o/1973_docked.pdbqt
 OpenBabel03192216513D

 24 27  0  0  1  0  0  0  0  0999 V2000
  -38.9240  -70.7770   54.3170 Cl  0  0  0  0  0  0  0  0  0  0  0  0
  -39.7400  -69.4240   53.5330 C   0  0  0  0  0  0  0  0  0  0  0  0
  -40.8920  -68.8670   54.0490 C   0  0  0  0  0  2  0  0  0  0  0  0
  -41.5320  -67.8270   53.4630 N   0  0  0  0  0  0  0  0  0  0  0  0
  -41.0770  -67.2690   52.3250 C   0  0  0  0  0  0  0  0  0  0  0  0
  -41.7060  -66.2270   51.7220 N   0  0  0  0  0  0  0  0  0  0  0  0
  -42.8300  -65.6770   52.2180 C   0  0  0  0  0  0  0  0  0  0  0  0
  -43.3130  -66.2430   53.3940 C   0  0  1  0  0  3  0  0  0  0  0  0
  -44.5540  -65.6370   53.9430 C   0  0  0  0  0  2  0  0  0  0  0  0
  -45.4490  -65.4790   52.7910 N   0  0  0  0  0  0  0  0  0  0  0  0
  -45.0180  -64.6130   51.7300 C   0  0  0  0  0  2  0  0  0  0  0  0
  -43.5250  -64.5360   51.5700 C   0  0  0  0  0  2  0  0  0  0  0  0
  -46.6810  -66.1660   52.7370 C   0  0  0  0  0  0  0  0  0  0  0  0
  -46.9650  -66.9250   53.7250 O   0  0  0  0  0  0  0  0  0  0  0  0
  -42.6550  -67.2990   53.9830 C   0  0  0  0  0  0  0  0  0  0  0  0
  -43.1180  -67.7980   55.0590 O   0  0  0  0  0  0  0  0  0  0  0  0
  -39.9220  -67.8150   51.7900 C   0  0  0  0  0  3  0  0  0  0  0  0
  -39.2510  -68.8720   52.3680 C   0  0  0  0  0  3  0  0  0  0  0  0
  -47.6260  -66.0350   51.6060 C   0  0  0  0  0  3  0  0  0  0  0  0
  -48.0990  -64.6110   51.4170 C   0  0  0  0  0  2  0  0  0  0  0  0
  -48.3640  -64.0730   52.8170 C   0  0  0  0  0  2  0  0  0  0  0  0
  -48.9280  -65.0680   53.6140 O   0  0  0  0  0  0  0  0  0  0  0  0
  -49.7180  -65.9450   52.8570 C   0  0  0  0  0  2  0  0  0  0  0  0
  -48.8870  -66.8400   51.9580 C   0  0  0  0  0  2  0  0  0  0  0  0
  2  3  1  0  0  0  0
  2  1  1  0  0  0  0
  4 15  1  0  0  0  0
  4  3  1  0  0  0  0
  5  4  1  0  0  0  0
  6  7  2  0  0  0  0
  6  5  1  0  0  0  0
  7  8  1  0  0  0  0
  8  9  1  6  0  0  0
  8 15  1  0  0  0  0
 10  9  1  0  0  0  0
 11 10  1  0  0  0  0
 12 11  1  0  0  0  0
 12  7  1  0  0  0  0
 13 10  1  0  0  0  0
 13 14  2  0  0  0  0
 15 16  2  0  0  0  0
 17  5  2  0  0  0  0
 17 18  1  0  0  0  0
 18  2  2  0  0  0  0
 19 24  1  0  0  0  0
 19 13  1  0  0  0  0
 20 19  1  0  0  0  0
 20 21  1  0  0  0  0
 21 22  1  0  0  0  0
 23 22  1  0  0  0  0
 24 23  1  0  0  0  0
M  END
>  <Pose>
1

>  <Score>
-8.054

$$$$
