MODEL 1
REMARK VINA RESULT:    -8.651      0.000      0.000
REMARK INTER + INTRA:         -10.393
REMARK INTER:                  -9.915
REMARK INTRA:                  -0.478
REMARK UNBOUND:                -0.478
REMARK  3 active torsions:
REMARK  status: ('A' for Active; 'I' for Inactive)
REMARK    1  A    between atoms: C_7  and  C_8 
REMARK    2  A    between atoms: C_8  and  C_9 
REMARK       I    between atoms: C_9  and  N_11 
REMARK    3  A    between atoms: C_19  and  O_20 
ROOT
ATOM      1  C   UNK d   1     -38.166 -69.306  52.071  0.00  0.00     0.224 C 
ATOM      2  O   UNK d   1     -37.571 -69.765  53.107  0.00  0.00    -0.273 OA
ATOM      3  N   UNK d   1     -39.440 -68.684  52.156  0.00  0.00    -0.346 N 
ATOM      4  C   UNK d   1     -40.051 -68.189  50.973  0.00  0.00     0.131 C 
ATOM      5  C   UNK d   1     -40.537 -66.761  51.252  0.00  0.00     0.065 C 
ATOM      6  C   UNK d   1     -41.588 -66.972  52.321  0.00  0.00     0.022 A 
ATOM      7  C   UNK d   1     -41.342 -67.863  53.345  0.00  0.00     0.064 A 
ATOM      8  N   UNK d   1     -42.307 -68.047  54.291  0.00  0.00    -0.244 NA
ATOM      9  C   UNK d   1     -43.482 -67.400  54.263  0.00  0.00     0.236 A 
ATOM     10  N   UNK d   1     -43.706 -66.536  53.257  0.00  0.00    -0.217 NA
ATOM     11  C   UNK d   1     -42.779 -66.306  52.280  0.00  0.00     0.171 A 
ATOM     12  C   UNK d   1     -40.062 -68.593  53.433  0.00  0.00     0.185 C 
ENDROOT
BRANCH   1  13
ATOM     13  C   UNK d   1     -37.462 -69.451  50.757  0.00  0.00     0.143 C 
BRANCH  13  14
ATOM     14  C   UNK d   1     -36.444 -68.369  50.593  0.00  0.00    -0.025 A 
ATOM     15  C   UNK d   1     -35.135 -68.510  51.012  0.00  0.00     0.043 A 
ATOM     16 Cl   UNK d   1     -34.684 -70.018  51.761  0.00  0.00    -0.084 Cl
ATOM     17  C   UNK d   1     -34.220 -67.484  50.838  0.00  0.00     0.064 A 
ATOM     18  C   UNK d   1     -34.562 -66.282  50.246  0.00  0.00     0.103 A 
ATOM     19  C   UNK d   1     -35.868 -66.126  49.821  0.00  0.00     0.102 A 
ATOM     20  O   UNK d   1     -33.695 -65.237  50.051  0.00  0.00    -0.346 OA
ATOM     21  C   UNK d   1     -36.767 -67.160  50.003  0.00  0.00     0.049 A 
ATOM     22  O   UNK d   1     -36.208 -64.927  49.231  0.00  0.00    -0.346 OA
ATOM     23  C   UNK d   1     -35.288 -64.005  48.681  0.00  0.00     0.202 C 
ATOM     24  C   UNK d   1     -33.881 -64.202  49.123  0.00  0.00     0.202 C 
ENDBRANCH  13  14
ENDBRANCH   1  13
BRANCH  11  25
ATOM     25  O   UNK d   1     -43.007 -65.419  51.245  0.00  0.00    -0.344 OA
ATOM     26  H   UNK d   1     -42.375 -64.634  51.143  0.00  0.00     0.219 HD
ENDBRANCH  11  25
TORSDOF 3
ENDMDL
