/Users/jonathanwahrer/Desktop/Msc/3_Semester/Drug_Design_Praktikum/waehrer_HTS_screening/HTS_experiment/out/docking_results/vina_output/3e7o/1976_docked.pdbqt
 OpenBabel03192216513D

 26 29  0  0  0  0  0  0  0  0999 V2000
  -38.1660  -69.3060   52.0710 C   0  0  0  0  0  0  0  0  0  0  0  0
  -37.5710  -69.7650   53.1070 O   0  0  0  0  0  0  0  0  0  0  0  0
  -39.4400  -68.6840   52.1560 N   0  0  0  0  0  0  0  0  0  0  0  0
  -40.0510  -68.1890   50.9730 C   0  0  0  0  0  2  0  0  0  0  0  0
  -40.5370  -66.7610   51.2520 C   0  0  0  0  0  2  0  0  0  0  0  0
  -41.5880  -66.9720   52.3210 C   0  0  0  0  0  0  0  0  0  0  0  0
  -41.3420  -67.8630   53.3450 C   0  0  0  0  0  0  0  0  0  0  0  0
  -42.3070  -68.0470   54.2910 N   0  0  0  0  0  0  0  0  0  0  0  0
  -43.4820  -67.4000   54.2630 C   0  0  0  0  0  3  0  0  0  0  0  0
  -43.7060  -66.5360   53.2570 N   0  0  0  0  0  0  0  0  0  0  0  0
  -42.7790  -66.3060   52.2800 C   0  0  0  0  0  0  0  0  0  0  0  0
  -40.0620  -68.5930   53.4330 C   0  0  0  0  0  2  0  0  0  0  0  0
  -37.4620  -69.4510   50.7570 C   0  0  0  0  0  2  0  0  0  0  0  0
  -36.4440  -68.3690   50.5930 C   0  0  0  0  0  0  0  0  0  0  0  0
  -35.1350  -68.5100   51.0120 C   0  0  0  0  0  0  0  0  0  0  0  0
  -34.6840  -70.0180   51.7610 Cl  0  0  0  0  0  0  0  0  0  0  0  0
  -34.2200  -67.4840   50.8380 C   0  0  0  0  0  3  0  0  0  0  0  0
  -34.5620  -66.2820   50.2460 C   0  0  0  0  0  0  0  0  0  0  0  0
  -35.8680  -66.1260   49.8210 C   0  0  0  0  0  0  0  0  0  0  0  0
  -33.6950  -65.2370   50.0510 O   0  0  0  0  0  0  0  0  0  0  0  0
  -36.7670  -67.1600   50.0030 C   0  0  0  0  0  3  0  0  0  0  0  0
  -36.2080  -64.9270   49.2310 O   0  0  0  0  0  0  0  0  0  0  0  0
  -35.2880  -64.0050   48.6810 C   0  0  0  0  0  2  0  0  0  0  0  0
  -33.8810  -64.2020   49.1230 C   0  0  0  0  0  2  0  0  0  0  0  0
  -43.0070  -65.4190   51.2450 O   0  0  0  0  0  0  0  0  0  0  0  0
  -42.3750  -64.6340   51.1430 H   0  0  0  0  0  0  0  0  0  0  0  0
  1  3  1  0  0  0  0
  1  2  2  0  0  0  0
  3 12  1  0  0  0  0
  4  5  1  0  0  0  0
  4  3  1  0  0  0  0
  5  6  1  0  0  0  0
  6  7  2  0  0  0  0
  7 12  1  0  0  0  0
  7  8  1  0  0  0  0
  9  8  2  0  0  0  0
 10  9  1  0  0  0  0
 11  6  1  0  0  0  0
 11 10  2  0  0  0  0
 13  1  1  0  0  0  0
 14 13  1  0  0  0  0
 14 15  1  0  0  0  0
 15 16  1  0  0  0  0
 17 15  2  0  0  0  0
 18 17  1  0  0  0  0
 19 21  1  0  0  0  0
 19 18  2  0  0  0  0
 20 18  1  0  0  0  0
 21 14  2  0  0  0  0
 22 19  1  0  0  0  0
 23 24  1  0  0  0  0
 23 22  1  0  0  0  0
 24 20  1  0  0  0  0
 25 11  1  0  0  0  0
 26 25  1  0  0  0  0
M  END
>  <Pose>
1

>  <Score>
-8.651

$$$$
