/Users/jonathanwahrer/Desktop/Msc/3_Semester/Drug_Design_Praktikum/waehrer_HTS_screening/HTS_experiment/out/docking_results/vina_output/3e7o/1982_docked.pdbqt
 OpenBabel03192216513D

 25 28  0  0  0  0  0  0  0  0999 V2000
  -38.9080  -70.5550   54.3590 Cl  0  0  0  0  0  0  0  0  0  0  0  0
  -39.0070  -69.4650   52.9920 C   0  0  0  0  0  0  0  0  0  0  0  0
  -39.9680  -68.4800   52.8930 C   0  0  0  0  0  3  0  0  0  0  0  0
  -40.0580  -67.6150   51.8220 C   0  0  0  0  0  0  0  0  0  0  0  0
  -39.1320  -67.7570   50.8060 C   0  0  0  0  0  0  0  0  0  0  0  0
  -38.1670  -68.7380   50.8940 C   0  0  0  0  0  3  0  0  0  0  0  0
  -38.0770  -69.6030   51.9650 C   0  0  0  0  0  3  0  0  0  0  0  0
  -39.2090  -66.8400   49.6480 C   0  0  0  0  0  0  0  0  0  0  0  0
  -38.4970  -66.7580   48.6040 N   0  0  0  0  0  0  0  0  0  0  0  0
  -38.9130  -65.7060   47.7000 C   0  0  0  0  0  3  0  0  0  0  0  0
  -40.0900  -65.0720   48.3670 C   0  0  0  0  0  3  0  0  0  0  0  0
  -40.2170  -65.8410   49.5910 N   0  0  0  0  0  0  0  0  0  0  0  0
  -41.1340  -65.7610   50.6820 C   0  0  0  0  0  0  0  0  0  0  0  0
  -42.1710  -64.9320   50.8980 N   0  0  0  0  0  0  0  0  0  0  0  0
  -42.7630  -65.2050   52.0480 N   0  0  0  0  0  0  0  0  0  0  0  0
  -42.0640  -66.2460   52.5640 C   0  0  0  0  0  0  0  0  0  0  0  0
  -42.3420  -66.7790   53.6600 O   0  0  0  0  0  0  0  0  0  0  0  0
  -41.0620  -66.6030   51.7450 N   0  0  0  0  0  0  0  0  0  0  0  0
  -43.9110  -64.5350   52.6270 C   0  0  0  0  0  2  0  0  0  0  0  0
  -45.1950  -65.2250   52.1450 C   0  0  0  0  0  2  0  0  0  0  0  0
  -45.9610  -65.7460   53.3050 C   0  0  0  0  0  0  0  0  0  0  0  0
  -47.2090  -65.6630   53.4260 O   0  0  0  0  0  0  0  0  0  0  0  0
  -45.2360  -66.3800   54.3470 N   0  0  0  0  0  0  0  0  0  0  0  0
  -44.3060  -66.0620   54.6740 H   0  0  0  0  0  0  0  0  0  0  0  0
  -45.6680  -67.2100   54.8020 H   0  0  0  0  0  0  0  0  0  0  0  0
  2  1  1  0  0  0  0
  3  2  1  0  0  0  0
  4  3  2  0  0  0  0
  5  6  2  0  0  0  0
  5  4  1  0  0  0  0
  6  7  1  0  0  0  0
  7  2  2  0  0  0  0
  8  5  1  0  0  0  0
  9  8  2  0  0  0  0
 10 11  2  0  0  0  0
 10  9  1  0  0  0  0
 11 12  1  0  0  0  0
 12  8  1  0  0  0  0
 12 13  1  0  0  0  0
 13 14  2  0  0  0  0
 13 18  1  0  0  0  0
 14 15  1  0  0  0  0
 15 16  1  0  0  0  0
 15 19  1  0  0  0  0
 16 17  2  0  0  0  0
 18  4  1  0  0  0  0
 18 16  1  0  0  0  0
 20 19  1  0  0  0  0
 20 21  1  0  0  0  0
 21 22  2  0  0  0  0
 21 23  1  0  0  0  0
 23 24  1  0  0  0  0
 23 25  1  0  0  0  0
M  END
>  <Pose>
1

>  <Score>
-7.851

$$$$
