MODEL 1
REMARK VINA RESULT:    -7.851      0.000      0.000
REMARK INTER + INTRA:          -9.801
REMARK INTER:                  -9.228
REMARK INTRA:                  -0.573
REMARK UNBOUND:                -0.573
REMARK  3 active torsions:
REMARK  status: ('A' for Active; 'I' for Inactive)
REMARK    1  A    between atoms: N_15  and  C_19 
REMARK    2  A    between atoms: C_19  and  C_20 
REMARK    3  A    between atoms: C_20  and  C_21 
REMARK       I    between atoms: C_21  and  N_23 
ROOT
ATOM      1 Cl   UNK d   1     -38.908 -70.555  54.359  0.00  0.00    -0.084 Cl
ATOM      2  C   UNK d   1     -39.007 -69.465  52.992  0.00  0.00     0.036 A 
ATOM      3  C   UNK d   1     -39.968 -68.480  52.893  0.00  0.00     0.055 A 
ATOM      4  C   UNK d   1     -40.058 -67.615  51.822  0.00  0.00     0.077 A 
ATOM      5  C   UNK d   1     -39.132 -67.757  50.806  0.00  0.00     0.038 A 
ATOM      6  C   UNK d   1     -38.167 -68.738  50.894  0.00  0.00     0.019 A 
ATOM      7  C   UNK d   1     -38.077 -69.603  51.965  0.00  0.00     0.025 A 
ATOM      8  C   UNK d   1     -39.209 -66.840  49.648  0.00  0.00     0.153 A 
ATOM      9  N   UNK d   1     -38.497 -66.758  48.604  0.00  0.00    -0.270 NA
ATOM     10  C   UNK d   1     -38.913 -65.706  47.700  0.00  0.00     0.172 A 
ATOM     11  C   UNK d   1     -40.090 -65.072  48.367  0.00  0.00     0.171 A 
ATOM     12  N   UNK d   1     -40.217 -65.841  49.591  0.00  0.00    -0.160 N 
ATOM     13  C   UNK d   1     -41.134 -65.761  50.682  0.00  0.00     0.736 A 
ATOM     14  N   UNK d   1     -42.171 -64.932  50.898  0.00  0.00     0.024 NA
ATOM     15  N   UNK d   1     -42.763 -65.205  52.048  0.00  0.00    -0.203 N 
ATOM     16  C   UNK d   1     -42.064 -66.246  52.564  0.00  0.00     0.364 A 
ATOM     17  O   UNK d   1     -42.342 -66.779  53.660  0.00  0.00    -0.244 OA
ATOM     18  N   UNK d   1     -41.062 -66.603  51.745  0.00  0.00    -0.090 N 
ENDROOT
BRANCH  15  19
ATOM     19  C   UNK d   1     -43.911 -64.535  52.627  0.00  0.00     0.166 C 
BRANCH  19  20
ATOM     20  C   UNK d   1     -45.195 -65.225  52.145  0.00  0.00     0.124 C 
BRANCH  20  21
ATOM     21  C   UNK d   1     -45.961 -65.746  53.305  0.00  0.00     0.216 C 
ATOM     22  O   UNK d   1     -47.209 -65.663  53.426  0.00  0.00    -0.274 OA
ATOM     23  N   UNK d   1     -45.236 -66.380  54.347  0.00  0.00    -0.370 N 
ATOM     24  H   UNK d   1     -44.306 -66.062  54.674  0.00  0.00     0.159 HD
ATOM     25  H   UNK d   1     -45.668 -67.210  54.802  0.00  0.00     0.159 HD
ENDBRANCH  20  21
ENDBRANCH  19  20
ENDBRANCH  15  19
TORSDOF 3
ENDMDL
