/Users/jonathanwahrer/Desktop/Msc/3_Semester/Drug_Design_Praktikum/waehrer_HTS_screening/HTS_experiment/out/docking_results/vina_output/3e7o/1986_docked.pdbqt
 OpenBabel03192216513D

 30 33  0  0  1  0  0  0  0  0999 V2000
  -39.1700  -68.9820   52.3510 Cl  0  0  0  0  0  0  0  0  0  0  0  0
  -39.5850  -67.8090   51.1130 C   0  0  0  0  0  0  0  0  0  0  0  0
  -38.6860  -66.8330   50.7290 C   0  0  0  0  0  3  0  0  0  0  0  0
  -39.0160  -65.8960   49.7420 C   0  0  0  0  0  0  0  0  0  0  0  0
  -40.2650  -66.0020   49.1850 C   0  0  2  0  0  3  0  0  0  0  0  0
  -41.1740  -66.9930   49.5770 C   0  0  0  0  0  3  0  0  0  0  0  0
  -40.8400  -67.9110   50.5500 C   0  0  0  0  0  3  0  0  0  0  0  0
  -40.6170  -65.0830   48.2000 O   0  0  0  0  0  0  0  0  0  0  0  0
  -39.7720  -64.0770   47.7630 C   0  0  0  0  0  0  0  0  0  0  0  0
  -38.5100  -63.9720   48.3270 C   0  0  0  0  0  0  0  0  0  0  0  0
  -38.0170  -64.8740   49.3740 C   0  0  0  0  0  0  0  0  0  0  0  0
  -37.7040  -62.9550   47.8570 C   0  0  0  0  0  0  0  0  0  0  0  0
  -36.5350  -62.8090   48.3380 O   0  0  0  0  0  0  0  0  0  0  0  0
  -38.0650  -62.0790   46.9060 N   0  0  0  0  0  0  0  0  0  0  0  0
  -39.3080  -62.2210   46.3830 C   0  0  0  0  0  0  0  0  0  0  0  0
  -39.6270  -61.3890   45.4920 O   0  0  0  0  0  0  0  0  0  0  0  0
  -40.1280  -63.1980   46.8110 N   0  0  0  0  0  0  0  0  0  0  0  0
  -41.4410  -63.2830   46.2030 C   0  0  0  0  0  1  0  0  0  0  0  0
  -37.1700  -61.0190   46.4420 C   0  0  0  0  0  1  0  0  0  0  0  0
  -36.7760  -65.5620   48.8890 C   0  0  0  0  0  3  0  0  0  0  0  0
  -35.5680  -65.3720   49.5250 C   0  0  0  0  0  0  0  0  0  0  0  0
  -34.4490  -66.0010   49.0740 N   0  0  0  0  0  0  0  0  0  0  0  0
  -35.5050  -64.5480   50.6140 O   0  0  0  0  0  0  0  0  0  0  0  0
  -34.5070  -66.8200   47.9940 C   0  0  0  0  0  0  0  0  0  0  0  0
  -33.2010  -65.7600   49.7920 C   0  0  0  0  0  1  0  0  0  0  0  0
  -33.4480  -67.3860   47.6030 O   0  0  0  0  0  0  0  0  0  0  0  0
  -35.6690  -67.0240   47.3540 N   0  0  0  0  0  0  0  0  0  0  0  0
  -36.7800  -66.4050   47.7950 C   0  0  0  0  0  0  0  0  0  0  0  0
  -35.6960  -67.9110   46.1950 C   0  0  0  0  0  1  0  0  0  0  0  0
  -37.8460  -66.6030   47.1940 O   0  0  0  0  0  0  0  0  0  0  0  0
  2  1  1  0  0  0  0
  3  2  2  0  0  0  0
  4  3  1  0  0  0  0
  5  6  1  6  0  0  0
  5  4  1  0  0  0  0
  6  7  2  0  0  0  0
  7  2  1  0  0  0  0
  8  5  1  0  0  0  0
  9  8  1  0  0  0  0
  9 10  2  0  0  0  0
 10 11  1  0  0  0  0
 11  4  2  0  0  0  0
 12 10  1  0  0  0  0
 12 13  2  0  0  0  0
 14 12  1  0  0  0  0
 15 17  1  0  0  0  0
 15 14  1  0  0  0  0
 16 15  2  0  0  0  0
 17  9  1  0  0  0  0
 18 17  1  0  0  0  0
 19 14  1  0  0  0  0
 20 11  1  0  0  0  0
 20 21  1  0  0  0  0
 21 23  2  0  0  0  0
 22 21  1  0  0  0  0
 22 25  1  0  0  0  0
 24 22  1  0  0  0  0
 26 24  2  0  0  0  0
 27 28  1  0  0  0  0
 27 24  1  0  0  0  0
 28 20  1  0  0  0  0
 29 27  1  0  0  0  0
 30 28  2  0  0  0  0
M  END
>  <Pose>
1

>  <Score>
-6.703

$$$$
