MODEL 1
REMARK VINA RESULT:    -6.703      0.000      0.000
REMARK INTER + INTRA:          -6.658
REMARK INTER:                  -7.095
REMARK INTRA:                   0.437
REMARK UNBOUND:                 0.437
REMARK  1 active torsions:
REMARK  status: ('A' for Active; 'I' for Inactive)
REMARK    1  A    between atoms: C_11  and  C_12 
ROOT
ATOM      1 Cl   UNK d   1     -39.170 -68.982  52.351  0.00  0.00    -0.084 Cl
ATOM      2  C   UNK d   1     -39.585 -67.809  51.113  0.00  0.00     0.034 A 
ATOM      3  C   UNK d   1     -38.686 -66.833  50.729  0.00  0.00     0.034 A 
ATOM      4  C   UNK d   1     -39.016 -65.896  49.742  0.00  0.00    -0.009 A 
ATOM      5  C   UNK d   1     -40.265 -66.002  49.185  0.00  0.00     0.085 A 
ATOM      6  C   UNK d   1     -41.174 -66.993  49.577  0.00  0.00     0.039 A 
ATOM      7  C   UNK d   1     -40.840 -67.911  50.550  0.00  0.00     0.026 A 
ATOM      8  O   UNK d   1     -40.617 -65.083  48.200  0.00  0.00    -0.292 OA
ATOM      9  C   UNK d   1     -39.772 -64.077  47.763  0.00  0.00     0.166 A 
ATOM     10  C   UNK d   1     -38.510 -63.972  48.327  0.00  0.00     0.075 A 
ATOM     11  C   UNK d   1     -38.017 -64.874  49.374  0.00  0.00     0.107 A 
ATOM     12  C   UNK d   1     -37.704 -62.955  47.857  0.00  0.00     0.262 A 
ATOM     13  O   UNK d   1     -36.535 -62.809  48.338  0.00  0.00    -0.267 OA
ATOM     14  N   UNK d   1     -38.065 -62.079  46.906  0.00  0.00    -0.270 N 
ATOM     15  C   UNK d   1     -39.308 -62.221  46.383  0.00  0.00     0.332 A 
ATOM     16  O   UNK d   1     -39.627 -61.389  45.492  0.00  0.00    -0.246 OA
ATOM     17  N   UNK d   1     -40.128 -63.198  46.811  0.00  0.00    -0.283 N 
ATOM     18  C   UNK d   1     -41.441 -63.283  46.203  0.00  0.00     0.163 C 
ATOM     19  C   UNK d   1     -37.170 -61.019  46.442  0.00  0.00     0.164 C 
ENDROOT
BRANCH  11  20
ATOM     20  C   UNK d   1     -36.776 -65.562  48.889  0.00  0.00     0.078 A 
ATOM     21  C   UNK d   1     -35.568 -65.372  49.525  0.00  0.00     0.197 A 
ATOM     22  N   UNK d   1     -34.449 -66.001  49.074  0.00  0.00    -0.281 N 
ATOM     23  O   UNK d   1     -35.505 -64.548  50.614  0.00  0.00    -0.171 OA
ATOM     24  C   UNK d   1     -34.507 -66.820  47.994  0.00  0.00     0.332 A 
ATOM     25  C   UNK d   1     -33.201 -65.760  49.792  0.00  0.00     0.163 C 
ATOM     26  O   UNK d   1     -33.448 -67.386  47.603  0.00  0.00    -0.246 OA
ATOM     27  N   UNK d   1     -35.669 -67.024  47.354  0.00  0.00    -0.270 N 
ATOM     28  C   UNK d   1     -36.780 -66.405  47.795  0.00  0.00     0.262 A 
ATOM     29  C   UNK d   1     -35.696 -67.911  46.195  0.00  0.00     0.164 C 
ATOM     30  O   UNK d   1     -37.846 -66.603  47.194  0.00  0.00    -0.267 OA
ENDBRANCH  11  20
TORSDOF 1
ENDMDL
