MODEL 1
REMARK VINA RESULT:    -7.632      0.000      0.000
REMARK INTER + INTRA:          -9.975
REMARK INTER:                  -8.971
REMARK INTRA:                  -1.004
REMARK UNBOUND:                -1.004
REMARK  3 active torsions:
REMARK  status: ('A' for Active; 'I' for Inactive)
REMARK       I    between atoms: N_11  and  C_13 
REMARK    1  A    between atoms: C_13  and  C_15 
REMARK    2  A    between atoms: C_15  and  N_16 
REMARK    3  A    between atoms: C_19  and  C_22 
REMARK       I    between atoms: C_22  and  N_24 
ROOT
ATOM      1 Cl   UNK d   1     -41.103 -69.024  53.082  0.00  0.00    -0.084 Cl
ATOM      2  C   UNK d   1     -40.575 -67.661  52.124  0.00  0.00     0.034 A 
ATOM      3  C   UNK d   1     -39.718 -67.833  51.060  0.00  0.00     0.035 A 
ATOM      4  C   UNK d   1     -39.313 -66.753  50.320  0.00  0.00    -0.005 A 
ATOM      5  C   UNK d   1     -39.778 -65.474  50.651  0.00  0.00     0.078 A 
ATOM      6  C   UNK d   1     -40.641 -65.292  51.720  0.00  0.00     0.039 A 
ATOM      7  C   UNK d   1     -41.020 -66.395  52.434  0.00  0.00     0.026 A 
ATOM      8  O   UNK d   1     -39.465 -64.287  50.006  0.00  0.00    -0.338 OA
ATOM      9  C   UNK d   1     -39.025 -64.116  48.680  0.00  0.00     0.088 C 
ATOM     10  C   UNK d   1     -37.682 -64.727  48.441  0.00  0.00     0.164 C 
ATOM     11  N   UNK d   1     -37.468 -66.000  49.061  0.00  0.00    -0.344 N 
ATOM     12  C   UNK d   1     -38.391 -67.096  49.208  0.00  0.00     0.167 C 
ATOM     13  C   UNK d   1     -36.174 -66.258  49.628  0.00  0.00     0.248 C 
ATOM     14  O   UNK d   1     -36.003 -67.381  50.164  0.00  0.00    -0.271 OA
ATOM     15  C   UNK d   1     -40.085 -64.636  47.722  0.00  0.00     0.066 C 
ATOM     16  C   UNK d   1     -41.034 -63.518  47.331  0.00  0.00     0.170 C 
ATOM     17  O   UNK d   1     -40.417 -62.540  46.576  0.00  0.00    -0.391 OA
ATOM     18  C   UNK d   1     -39.062 -62.461  46.877  0.00  0.00     0.170 C 
ATOM     19  C   UNK d   1     -38.892 -62.621  48.376  0.00  0.00     0.066 C 
ENDROOT
BRANCH  13  20
ATOM     20  C   UNK d   1     -35.104 -65.263  49.586  0.00  0.00     0.374 C 
BRANCH  20  21
ATOM     21  N   UNK d   1     -34.028 -65.489  48.692  0.00  0.00     0.097 N 
ATOM     22  C   UNK d   1     -32.876 -64.636  48.997  0.00  0.00     0.273 C 
ATOM     23  C   UNK d   1     -33.296 -63.221  48.862  0.00  0.00     0.044 C 
ATOM     24  C   UNK d   1     -34.073 -62.868  47.638  0.00  0.00     0.081 C 
ATOM     25  C   UNK d   1     -34.609 -63.985  46.832  0.00  0.00     0.044 C 
ATOM     26  C   UNK d   1     -34.328 -65.366  47.287  0.00  0.00     0.273 C 
BRANCH  24  27
ATOM     27  C   UNK d   1     -35.130 -61.870  47.931  0.00  0.00     0.219 C 
ATOM     28  O   UNK d   1     -35.572 -61.769  49.093  0.00  0.00    -0.273 OA
ATOM     29  N   UNK d   1     -35.629 -61.045  46.899  0.00  0.00    -0.370 N 
ATOM     30  H   UNK d   1     -35.306 -60.033  46.923  0.00  0.00     0.159 HD
ATOM     31  H   UNK d   1     -36.262 -61.328  46.142  0.00  0.00     0.159 HD
ENDBRANCH  24  27
ENDBRANCH  20  21
ENDBRANCH  13  20
TORSDOF 3
ENDMDL
