MODEL 1
REMARK VINA RESULT:    -7.840      0.000      0.000
REMARK INTER + INTRA:          -9.311
REMARK INTER:                  -9.215
REMARK INTRA:                  -0.096
REMARK UNBOUND:                -0.096
REMARK  3 active torsions:
REMARK  status: ('A' for Active; 'I' for Inactive)
REMARK    1  A    between atoms: S_1  and  N_4 
REMARK    2  A    between atoms: S_1  and  C_16 
REMARK       I    between atoms: N_7  and  C_10 
REMARK    3  A    between atoms: C_10  and  C_12 
ROOT
ATOM      1  S   UNK d   1     -39.124 -65.991  48.222  0.00  0.00     0.262 S 
ATOM      2  O   UNK d   1     -39.020 -67.113  47.200  0.00  0.00    -0.200 OA
ATOM      3  O   UNK d   1     -40.221 -65.086  47.663  0.00  0.00    -0.200 OA
ENDROOT
BRANCH   1   4
ATOM      4  N   UNK d   1     -37.697 -65.123  48.329  0.00  0.00    -0.304 N 
ATOM      5  C   UNK d   1     -37.764 -63.729  48.269  0.00  0.00     0.155 C 
ATOM      6  C   UNK d   1     -36.439 -63.051  48.648  0.00  0.00     0.146 C 
ATOM      7  N   UNK d   1     -35.313 -63.779  48.144  0.00  0.00    -0.349 N 
ATOM      8  C   UNK d   1     -35.311 -65.218  48.291  0.00  0.00     0.146 C 
ATOM      9  C   UNK d   1     -34.250 -63.106  47.530  0.00  0.00     0.224 C 
ATOM     10  C   UNK d   1     -36.582 -65.720  47.634  0.00  0.00     0.155 C 
ATOM     11  O   UNK d   1     -34.274 -61.854  47.413  0.00  0.00    -0.273 OA
BRANCH   9  12
ATOM     12  C   UNK d   1     -33.052 -63.823  46.989  0.00  0.00     0.078 C 
ATOM     13  C   UNK d   1     -32.295 -64.609  48.033  0.00  0.00     0.014 C 
ATOM     14  C   UNK d   1     -31.444 -63.362  48.260  0.00  0.00     0.002 C 
ATOM     15  C   UNK d   1     -31.863 -62.905  46.860  0.00  0.00     0.014 C 
ENDBRANCH   9  12
ENDBRANCH   1   4
BRANCH   1  16
ATOM     16  C   UNK d   1     -39.746 -66.667  49.711  0.00  0.00     0.104 A 
ATOM     17  C   UNK d   1     -41.034 -66.289  50.140  0.00  0.00     0.066 A 
ATOM     18  C   UNK d   1     -41.555 -66.740  51.331  0.00  0.00     0.098 A 
ATOM     19  C   UNK d   1     -40.860 -67.579  52.172  0.00  0.00     0.070 A 
ATOM     20  O   UNK d   1     -42.834 -66.351  51.732  0.00  0.00    -0.335 OA
ATOM     21  C   UNK d   1     -39.605 -67.952  51.758  0.00  0.00     0.058 A 
ATOM     22  N   UNK d   1     -41.451 -68.004  53.386  0.00  0.00    -0.323 N 
ATOM     23  C   UNK d   1     -39.057 -67.504  50.547  0.00  0.00     0.059 A 
ATOM     24 Cl   UNK d   1     -37.484 -68.086  50.057  0.00  0.00    -0.083 Cl
ATOM     25  C   UNK d   1     -42.754 -67.595  53.782  0.00  0.00     0.251 C 
ATOM     26  H   UNK d   1     -40.918 -68.642  54.021  0.00  0.00     0.169 HD
ATOM     27  O   UNK d   1     -43.424 -68.125  54.689  0.00  0.00    -0.270 OA
ATOM     28  C   UNK d   1     -43.333 -66.446  53.037  0.00  0.00     0.217 C 
ATOM     29  C   UNK d   1     -43.044 -65.145  53.751  0.00  0.00     0.050 C 
ENDBRANCH   1  16
TORSDOF 3
ENDMDL
