MODEL 1
REMARK VINA RESULT:    -8.794      0.000      0.000
REMARK INTER + INTRA:         -10.208
REMARK INTER:                  -9.822
REMARK INTRA:                  -0.386
REMARK UNBOUND:                -0.386
REMARK  2 active torsions:
REMARK  status: ('A' for Active; 'I' for Inactive)
REMARK    1  A    between atoms: C_4  and  N_8 
REMARK    2  A    between atoms: C_14  and  C_18 
ROOT
ATOM      1  N   UNK d   1     -41.683 -66.826  52.959  0.00  0.00    -0.246 N 
ATOM      2  C   UNK d   1     -41.569 -65.536  52.369  0.00  0.00     0.268 C 
ATOM      3  O   UNK d   1     -40.686 -65.208  51.559  0.00  0.00    -0.269 OA
ATOM      4  C   UNK d   1     -42.652 -64.674  52.874  0.00  0.00     0.285 C 
ATOM      5  O   UNK d   1     -43.202 -63.772  52.021  0.00  0.00    -0.260 OA
ATOM      6  N   UNK d   1     -44.531 -63.770  52.403  0.00  0.00    -0.264 N 
ATOM      7  C   UNK d   1     -44.904 -65.113  52.720  0.00  0.00     0.083 C 
ATOM      8  C   UNK d   1     -43.745 -65.694  53.010  0.00  0.00     0.080 C 
ATOM      9  C   UNK d   1     -43.071 -66.932  53.372  0.00  0.00     0.266 C 
ATOM     10  O   UNK d   1     -43.642 -67.895  53.943  0.00  0.00    -0.267 OA
ATOM     11  H   UNK d   1     -45.115 -62.919  52.446  0.00  0.00     0.194 HD
ENDROOT
BRANCH   1  12
ATOM     12  C   UNK d   1     -40.726 -67.862  53.138  0.00  0.00     0.047 A 
ATOM     13  C   UNK d   1     -39.961 -68.341  52.100  0.00  0.00     0.054 A 
ATOM     14  C   UNK d   1     -39.046 -69.355  52.370  0.00  0.00     0.036 A 
ATOM     15 Cl   UNK d   1     -38.042 -70.015  51.083  0.00  0.00    -0.084 Cl
ATOM     16  C   UNK d   1     -38.920 -69.859  53.648  0.00  0.00     0.024 A 
ATOM     17  C   UNK d   1     -39.689 -69.373  54.692  0.00  0.00     0.004 A 
ATOM     18  C   UNK d   1     -40.586 -68.381  54.435  0.00  0.00     0.030 A 
ENDBRANCH   1  12
BRANCH   7  19
ATOM     19  C   UNK d   1     -46.228 -65.700  52.771  0.00  0.00     0.036 A 
ATOM     20  C   UNK d   1     -46.709 -66.330  53.923  0.00  0.00     0.127 A 
ATOM     21  N   UNK d   1     -47.947 -66.795  53.699  0.00  0.00    -0.284 N 
ATOM     22  N   UNK d   1     -48.280 -66.487  52.444  0.00  0.00    -0.177 NA
ATOM     23  C   UNK d   1     -48.835 -67.517  54.602  0.00  0.00     0.179 C 
ATOM     24  C   UNK d   1     -47.248 -65.825  51.873  0.00  0.00     0.065 A 
ATOM     25  C   UNK d   1     -47.212 -65.323  50.476  0.00  0.00     0.073 C 
ENDBRANCH   7  19
TORSDOF 2
ENDMDL
