MODEL 1
REMARK VINA RESULT:    -7.960      0.000      0.000
REMARK INTER + INTRA:          -8.593
REMARK INTER:                  -8.890
REMARK INTRA:                   0.297
REMARK UNBOUND:                 0.297
REMARK  2 active torsions:
REMARK  status: ('A' for Active; 'I' for Inactive)
REMARK    1  A    between atoms: C_4  and  C_10 
REMARK    2  A    between atoms: C_5  and  O_8 
ROOT
ATOM      1  C   UNK d   1     -40.663 -67.589  51.920  0.00  0.00     0.188 A 
ATOM      2  N   UNK d   1     -39.853 -67.012  51.037  0.00  0.00    -0.107 N 
ATOM      3  C   UNK d   1     -38.918 -67.909  50.608  0.00  0.00     0.735 A 
ATOM      4  N   UNK d   1     -39.201 -69.057  51.267  0.00  0.00     0.045 NA
ATOM      5  N   UNK d   1     -40.233 -68.882  52.048  0.00  0.00    -0.114 NA
ATOM      6  N   UNK d   1     -38.094 -67.343  49.714  0.00  0.00    -0.174 N 
ATOM      7  C   UNK d   1     -38.459 -66.079  49.532  0.00  0.00     0.165 A 
ATOM      8  C   UNK d   1     -39.570 -65.867  50.365  0.00  0.00     0.170 A 
ATOM      9  N   UNK d   1     -40.165 -64.668  50.379  0.00  0.00    -0.286 N 
ATOM     10  C   UNK d   1     -39.656 -63.693  49.578  0.00  0.00     0.332 A 
ATOM     11  O   UNK d   1     -40.239 -62.565  49.614  0.00  0.00    -0.246 OA
ATOM     12  N   UNK d   1     -38.607 -63.841  48.774  0.00  0.00    -0.269 N 
ATOM     13  C   UNK d   1     -38.013 -65.036  48.755  0.00  0.00     0.282 A 
ATOM     14  O   UNK d   1     -37.016 -65.230  48.013  0.00  0.00    -0.265 OA
ATOM     15  C   UNK d   1     -38.117 -62.732  47.937  0.00  0.00     0.164 C 
ATOM     16  C   UNK d   1     -41.325 -64.394  51.176  0.00  0.00     0.163 C 
ATOM     17  C   UNK d   1     -36.980 -67.981  49.042  0.00  0.00     0.176 C 
ENDROOT
BRANCH   1  18
ATOM     18  C   UNK d   1     -41.816 -67.111  52.676  0.00  0.00     0.047 A 
ATOM     19  C   UNK d   1     -42.956 -66.655  52.020  0.00  0.00     0.037 A 
ATOM     20  C   UNK d   1     -44.058 -66.282  52.740  0.00  0.00     0.012 A 
ATOM     21 Br   UNK d   1     -45.637 -65.650  51.852  0.00  0.00    -0.051 Br
ATOM     22  C   UNK d   1     -44.111 -66.330  54.122  0.00  0.00     0.022 A 
ATOM     23  C   UNK d   1     -42.971 -66.786  54.762  0.00  0.00     0.039 A 
ATOM     24  C   UNK d   1     -41.867 -67.161  54.054  0.00  0.00     0.082 A 
BRANCH  24  25
ATOM     25  O   UNK d   1     -40.698 -67.628  54.694  0.00  0.00    -0.355 OA
ATOM     26  C   UNK d   1     -40.715 -68.820  55.456  0.00  0.00     0.210 C 
ENDBRANCH  24  25
ENDBRANCH   1  18
TORSDOF 2
ENDMDL
