/Users/jonathanwahrer/Desktop/Msc/3_Semester/Drug_Design_Praktikum/waehrer_HTS_screening/HTS_experiment/out/docking_results/vina_output/3e7o/2014_docked.pdbqt
 OpenBabel03192216523D

 26 29  0  0  0  0  0  0  0  0999 V2000
  -40.6630  -67.5890   51.9200 C   0  0  0  0  0  0  0  0  0  0  0  0
  -39.8530  -67.0120   51.0370 N   0  0  0  0  0  0  0  0  0  0  0  0
  -38.9180  -67.9090   50.6080 C   0  0  0  0  0  0  0  0  0  0  0  0
  -39.2010  -69.0570   51.2670 N   0  0  0  0  0  0  0  0  0  0  0  0
  -40.2330  -68.8820   52.0480 N   0  0  0  0  0  0  0  0  0  0  0  0
  -38.0940  -67.3430   49.7140 N   0  0  0  0  0  0  0  0  0  0  0  0
  -38.4590  -66.0790   49.5320 C   0  0  0  0  0  0  0  0  0  0  0  0
  -39.5700  -65.8670   50.3650 C   0  0  0  0  0  0  0  0  0  0  0  0
  -40.1650  -64.6680   50.3790 N   0  0  0  0  0  0  0  0  0  0  0  0
  -39.6560  -63.6930   49.5780 C   0  0  0  0  0  0  0  0  0  0  0  0
  -40.2390  -62.5650   49.6140 O   0  0  0  0  0  0  0  0  0  0  0  0
  -38.6070  -63.8410   48.7740 N   0  0  0  0  0  0  0  0  0  0  0  0
  -38.0130  -65.0360   48.7550 C   0  0  0  0  0  0  0  0  0  0  0  0
  -37.0160  -65.2300   48.0130 O   0  0  0  0  0  0  0  0  0  0  0  0
  -38.1170  -62.7320   47.9370 C   0  0  0  0  0  1  0  0  0  0  0  0
  -41.3250  -64.3940   51.1760 C   0  0  0  0  0  1  0  0  0  0  0  0
  -36.9800  -67.9810   49.0420 C   0  0  0  0  0  1  0  0  0  0  0  0
  -41.8160  -67.1110   52.6760 C   0  0  0  0  0  0  0  0  0  0  0  0
  -42.9560  -66.6550   52.0200 C   0  0  0  0  0  3  0  0  0  0  0  0
  -44.0580  -66.2820   52.7400 C   0  0  0  0  0  0  0  0  0  0  0  0
  -45.6370  -65.6500   51.8520 Br  0  0  0  0  0  0  0  0  0  0  0  0
  -44.1110  -66.3300   54.1220 C   0  0  0  0  0  3  0  0  0  0  0  0
  -42.9710  -66.7860   54.7620 C   0  0  0  0  0  3  0  0  0  0  0  0
  -41.8670  -67.1610   54.0540 C   0  0  0  0  0  0  0  0  0  0  0  0
  -40.6980  -67.6280   54.6940 O   0  0  0  0  0  0  0  0  0  0  0  0
  -40.7150  -68.8200   55.4560 C   0  0  0  0  0  1  0  0  0  0  0  0
  1  5  2  0  0  0  0
  1 18  1  0  0  0  0
  2  1  1  0  0  0  0
  3  2  1  0  0  0  0
  3  4  2  0  0  0  0
  4  5  1  0  0  0  0
  6  3  1  0  0  0  0
  7  6  1  0  0  0  0
  7  8  2  0  0  0  0
  8  9  1  0  0  0  0
  8  2  1  0  0  0  0
  9 16  1  0  0  0  0
 10 11  2  0  0  0  0
 10  9  1  0  0  0  0
 12 10  1  0  0  0  0
 13 12  1  0  0  0  0
 13  7  1  0  0  0  0
 14 13  2  0  0  0  0
 15 12  1  0  0  0  0
 17  6  1  0  0  0  0
 18 24  1  0  0  0  0
 19 18  2  0  0  0  0
 19 20  1  0  0  0  0
 20 22  2  0  0  0  0
 21 20  1  0  0  0  0
 22 23  1  0  0  0  0
 24 25  1  0  0  0  0
 24 23  2  0  0  0  0
 25 26  1  0  0  0  0
M  END
>  <Pose>
1

>  <Score>
-7.960

$$$$
