MODEL 1
REMARK VINA RESULT:    -6.772      0.000      0.000
REMARK INTER + INTRA:          -6.033
REMARK INTER:                  -7.564
REMARK INTRA:                   1.531
REMARK UNBOUND:                 1.531
REMARK  2 active torsions:
REMARK  status: ('A' for Active; 'I' for Inactive)
REMARK    1  A    between atoms: C_4  and  C_10 
REMARK    2  A    between atoms: C_5  and  O_8 
ROOT
ATOM      1  C   UNK d   1     -42.688 -66.409  51.203  0.00  0.00     0.048 C 
ATOM      2  C   UNK d   1     -42.492 -64.895  50.912  0.00  0.00     0.178 C 
ATOM      3  C   UNK d   1     -41.370 -64.634  51.936  0.00  0.00     0.233 C 
ATOM      4  O   UNK d   1     -40.339 -64.041  51.676  0.00  0.00    -0.273 OA
ATOM      5  N   UNK d   1     -41.720 -65.188  53.225  0.00  0.00    -0.334 N 
ATOM      6  C   UNK d   1     -43.163 -65.440  53.397  0.00  0.00     0.105 C 
ATOM      7  N   UNK d   1     -43.780 -64.203  52.899  0.00  0.00    -0.334 N 
ATOM      8  C   UNK d   1     -43.596 -64.059  51.476  0.00  0.00     0.233 C 
ATOM      9  O   UNK d   1     -44.286 -63.306  50.765  0.00  0.00    -0.273 OA
ATOM     10  C   UNK d   1     -43.541 -66.523  52.350  0.00  0.00     0.064 C 
ATOM     11  C   UNK d   1     -43.586 -65.812  54.749  0.00  0.00     0.063 C 
ATOM     12  H   UNK d   1     -41.038 -65.410  53.955  0.00  0.00     0.165 HD
ATOM     13  H   UNK d   1     -44.272 -63.535  53.503  0.00  0.00     0.165 HD
ENDROOT
BRANCH   1  14
ATOM     14  C   UNK d   1     -41.323 -66.922  51.168  0.00  0.00    -0.018 A 
ATOM     15  C   UNK d   1     -40.535 -66.548  50.072  0.00  0.00     0.029 A 
ATOM     16  C   UNK d   1     -39.246 -67.057  49.900  0.00  0.00     0.011 A 
ATOM     17 Br   UNK d   1     -38.210 -66.536  48.392  0.00  0.00    -0.051 Br
ATOM     18  C   UNK d   1     -38.708 -67.931  50.789  0.00  0.00     0.022 A 
ATOM     19  C   UNK d   1     -39.464 -68.306  51.864  0.00  0.00     0.038 A 
ATOM     20  C   UNK d   1     -40.743 -67.813  52.053  0.00  0.00     0.074 A 
BRANCH  20  21
ATOM     21  O   UNK d   1     -41.519 -68.159  53.122  0.00  0.00    -0.355 OA
ATOM     22  C   UNK d   1     -40.918 -68.543  54.329  0.00  0.00     0.210 C 
ENDBRANCH  20  21
ENDBRANCH   1  14
TORSDOF 2
ENDMDL
