MODEL 1
REMARK VINA RESULT:    -7.847      0.000      0.000
REMARK INTER + INTRA:         -10.601
REMARK INTER:                  -9.911
REMARK INTRA:                  -0.690
REMARK UNBOUND:                -0.690
REMARK  5 active torsions:
REMARK  status: ('A' for Active; 'I' for Inactive)
REMARK    1  A    between atoms: C_11  and  C_23 
REMARK    2  A    between atoms: N_16  and  C_19 
REMARK    3  A    between atoms: C_19  and  C_20 
REMARK    4  A    between atoms: C_20  and  O_21 
REMARK    5  A    between atoms: C_23  and  O_24 
ROOT
ATOM      1 Cl   UNK d   1     -42.457 -66.557  51.538  0.00  0.00    -0.082 Cl
ATOM      2  C   UNK d   1     -40.846 -67.239  51.323  0.00  0.00     0.061 A 
ATOM      3  C   UNK d   1     -40.060 -66.756  50.261  0.00  0.00     0.066 A 
ATOM      4  C   UNK d   1     -38.812 -67.281  50.101  0.00  0.00     0.020 A 
ATOM      5  C   UNK d   1     -38.319 -68.267  50.944  0.00  0.00     0.019 A 
ATOM      6  C   UNK d   1     -39.112 -68.722  51.972  0.00  0.00    -0.060 A 
ATOM      7  C   UNK d   1     -40.376 -68.214  52.173  0.00  0.00     0.033 A 
ATOM      8  C   UNK d   1     -38.552 -69.791  52.870  0.00  0.00     0.048 C 
ATOM      9  C   UNK d   1     -38.151 -66.516  49.000  0.00  0.00     0.279 C 
ATOM     10  N   UNK d   1     -37.323 -67.278  48.153  0.00  0.00     0.116 N 
ATOM     11  C   UNK d   1     -36.013 -67.272  48.739  0.00  0.00     0.264 C 
ATOM     12  C   UNK d   1     -35.975 -66.287  49.835  0.00  0.00     0.130 C 
ATOM     13  C   UNK d   1     -37.237 -65.468  49.554  0.00  0.00     0.147 C 
ATOM     14  C   UNK d   1     -36.742 -64.534  48.559  0.00  0.00     0.235 C 
ATOM     15  O   UNK d   1     -37.239 -64.035  47.525  0.00  0.00    -0.272 OA
ATOM     16  N   UNK d   1     -35.395 -64.212  48.993  0.00  0.00    -0.286 N 
ATOM     17  C   UNK d   1     -34.924 -65.277  49.805  0.00  0.00     0.233 C 
ATOM     18  O   UNK d   1     -33.822 -65.312  50.369  0.00  0.00    -0.272 OA
ATOM     19  C   UNK d   1     -39.267 -65.845  48.338  0.00  0.00     0.267 C 
ATOM     20  O   UNK d   1     -39.358 -65.305  47.190  0.00  0.00    -0.270 OA
ATOM     21  N   UNK d   1     -40.378 -65.859  49.203  0.00  0.00    -0.323 N 
ATOM     22  H   UNK d   1     -37.675 -68.255  48.004  0.00  0.00     0.318 HD
ATOM     23  H   UNK d   1     -41.288 -65.337  49.137  0.00  0.00     0.169 HD
ENDROOT
BRANCH  11  24
ATOM     24  C   UNK d   1     -34.919 -67.137  47.696  0.00  0.00     0.148 C 
ATOM     25  C   UNK d   1     -35.408 -67.682  46.395  0.00  0.00     0.041 C 
BRANCH  24  26
ATOM     26  O   UNK d   1     -33.681 -67.545  48.097  0.00  0.00    -0.394 OA
ATOM     27  H   UNK d   1     -33.189 -68.088  47.431  0.00  0.00     0.210 HD
ENDBRANCH  24  26
ENDBRANCH  11  24
BRANCH  16  28
ATOM     28  C   UNK d   1     -34.626 -63.033  48.695  0.00  0.00     0.161 C 
BRANCH  28  29
ATOM     29  C   UNK d   1     -33.807 -63.093  47.459  0.00  0.00     0.187 C 
BRANCH  29  30
ATOM     30  O   UNK d   1     -32.676 -63.852  47.482  0.00  0.00    -0.394 OA
ATOM     31  C   UNK d   1     -31.683 -63.406  48.329  0.00  0.00     0.201 C 
ENDBRANCH  29  30
ENDBRANCH  28  29
ENDBRANCH  16  28
TORSDOF 5
ENDMDL
