MODEL 1
REMARK VINA RESULT:    -8.470      0.000      0.000
REMARK INTER + INTRA:         -11.894
REMARK INTER:                 -10.946
REMARK INTRA:                  -0.948
REMARK UNBOUND:                -0.948
REMARK  5 active torsions:
REMARK  status: ('A' for Active; 'I' for Inactive)
REMARK    1  A    between atoms: C_4  and  C_10 
REMARK    2  A    between atoms: C_5  and  O_8 
REMARK    3  A    between atoms: C_18  and  C_19 
REMARK    4  A    between atoms: C_19  and  N_20 
REMARK    5  A    between atoms: N_23  and  C_26 
ROOT
ATOM      1  C   UNK d   1     -43.555 -67.412  54.444  0.00  0.00     0.055 C 
ATOM      2  C   UNK d   1     -42.451 -67.798  53.890  0.00  0.00     0.128 A 
ATOM      3  O   UNK d   1     -42.051 -67.553  52.607  0.00  0.00    -0.305 OA
ATOM      4  C   UNK d   1     -40.799 -68.131  52.402  0.00  0.00     0.101 A 
ATOM      5  C   UNK d   1     -40.341 -68.766  53.511  0.00  0.00     0.051 A 
ATOM      6  C   UNK d   1     -39.092 -69.398  53.520  0.00  0.00     0.021 A 
ATOM      7  C   UNK d   1     -38.274 -69.412  52.421  0.00  0.00     0.041 A 
ATOM      8  C   UNK d   1     -38.794 -68.746  51.296  0.00  0.00     0.118 A 
ATOM      9  C   UNK d   1     -39.994 -68.122  51.257  0.00  0.00     0.039 A 
ATOM     10  O   UNK d   1     -37.924 -68.805  50.188  0.00  0.00    -0.191 OA
ATOM     11  C   UNK d   1     -41.388 -68.581  54.522  0.00  0.00     0.218 A 
ATOM     12  O   UNK d   1     -41.367 -69.015  55.711  0.00  0.00    -0.284 OA
ENDROOT
BRANCH   1  13
ATOM     13  C   UNK d   1     -44.619 -66.632  53.828  0.00  0.00     0.001 A 
ATOM     14  C   UNK d   1     -45.851 -67.193  53.612  0.00  0.00     0.033 A 
ATOM     15  C   UNK d   1     -46.872 -66.459  52.982  0.00  0.00     0.011 A 
ATOM     16 Br   UNK d   1     -48.593 -67.195  52.670  0.00  0.00    -0.051 Br
ATOM     17  C   UNK d   1     -46.622 -65.165  52.581  0.00  0.00     0.022 A 
ATOM     18  C   UNK d   1     -45.402 -64.610  52.792  0.00  0.00     0.039 A 
ATOM     19  C   UNK d   1     -44.382 -65.340  53.421  0.00  0.00     0.078 A 
BRANCH  19  20
ATOM     20  O   UNK d   1     -43.147 -64.842  53.658  0.00  0.00    -0.355 OA
ATOM     21  C   UNK d   1     -42.273 -64.277  52.743  0.00  0.00     0.210 C 
ENDBRANCH  19  20
ENDBRANCH   1  13
BRANCH   9  22
ATOM     22  C   UNK d   1     -40.565 -67.467  50.065  0.00  0.00     0.279 C 
BRANCH  22  23
ATOM     23  N   UNK d   1     -39.646 -66.510  49.495  0.00  0.00    -0.064 N 
ATOM     24  C   UNK d   1     -39.737 -65.262  50.231  0.00  0.00     0.254 C 
ATOM     25  C   UNK d   1     -39.659 -64.047  49.408  0.00  0.00     0.144 C 
ATOM     26  N   UNK d   1     -38.870 -64.138  48.221  0.00  0.00    -0.410 N 
ATOM     27  C   UNK d   1     -38.408 -65.392  47.832  0.00  0.00     0.144 C 
ATOM     28  C   UNK d   1     -39.494 -66.462  48.122  0.00  0.00     0.254 C 
ATOM     29  H   UNK d   1     -38.672 -66.925  49.862  0.00  0.00     0.280 HD
BRANCH  26  30
ATOM     30  C   UNK d   1     -39.118 -63.175  47.216  0.00  0.00     0.112 C 
ATOM     31  C   UNK d   1     -40.503 -63.153  46.674  0.00  0.00     0.026 C 
ENDBRANCH  26  30
ENDBRANCH  22  23
ENDBRANCH   9  22
TORSDOF 5
ENDMDL
