/Users/jonathanwahrer/Desktop/Msc/3_Semester/Drug_Design_Praktikum/waehrer_HTS_screening/HTS_experiment/out/docking_results/vina_output/3e7o/2033_docked.pdbqt
 OpenBabel03192216533D

 29 32  0  0  0  0  0  0  0  0999 V2000
  -38.1470  -66.6530   49.4600 C   0  0  0  0  0  3  0  0  0  0  0  0
  -38.5900  -67.3830   50.4460 C   0  0  0  0  0  0  0  0  0  0  0  0
  -39.6330  -67.0200   51.2840 O   0  0  0  0  0  0  0  0  0  0  0  0
  -39.8840  -67.9860   52.2410 C   0  0  0  0  0  0  0  0  0  0  0  0
  -39.0200  -69.0480   52.0950 C   0  0  0  0  0  0  0  0  0  0  0  0
  -39.0970  -70.1260   52.9510 C   0  0  0  0  0  3  0  0  0  0  0  0
  -40.0440  -70.1300   53.9520 C   0  0  0  0  0  3  0  0  0  0  0  0
  -40.9160  -69.0310   54.0810 C   0  0  0  0  0  0  0  0  0  0  0  0
  -40.8600  -67.9560   53.2470 C   0  0  0  0  0  0  0  0  0  0  0  0
  -41.8240  -69.1730   55.1430 O   0  0  0  0  0  1  0  0  0  0  0  0
  -38.1740  -68.6950   50.9500 C   0  0  0  0  0  0  0  0  0  0  0  0
  -37.2480  -69.3870   50.4720 O   0  0  0  0  0  0  0  0  0  0  0  0
  -38.6480  -65.3490   49.0590 C   0  0  0  0  0  0  0  0  0  0  0  0
  -39.9900  -65.0750   48.9140 C   0  0  0  0  0  3  0  0  0  0  0  0
  -40.4810  -63.8620   48.5250 C   0  0  0  0  0  0  0  0  0  0  0  0
  -42.3290  -63.4490   48.3130 Br  0  0  0  0  0  0  0  0  0  0  0  0
  -39.5580  -62.8540   48.2640 C   0  0  0  0  0  3  0  0  0  0  0  0
  -38.1910  -63.0710   48.3940 C   0  0  0  0  0  3  0  0  0  0  0  0
  -37.7560  -64.3070   48.7860 C   0  0  0  0  0  0  0  0  0  0  0  0
  -36.4040  -64.5570   48.9190 O   0  0  0  0  0  0  0  0  0  0  0  0
  -35.4890  -63.4950   48.9780 C   0  0  0  0  0  1  0  0  0  0  0  0
  -41.7350  -66.8180   53.3190 C   0  0  0  0  0  2  0  0  0  0  0  0
  -42.8120  -66.6270   52.4370 N   0  0  0  0  0  4  0  0  0  0  0  0
  -44.1180  -66.6020   53.0380 C   0  0  0  0  0  2  0  0  0  0  0  0
  -44.4970  -65.2690   53.6330 C   0  0  0  0  0  2  0  0  0  0  0  0
  -43.4700  -64.3350   53.6040 O   0  0  0  0  0  0  0  0  0  0  0  0
  -43.1250  -64.1750   52.2660 C   0  0  0  0  0  2  0  0  0  0  0  0
  -42.6470  -65.4240   51.6010 C   0  0  0  0  0  2  0  0  0  0  0  0
  -42.8120  -67.3890   51.7280 H   0  0  0  0  0  0  0  0  0  0  0  0
  1  2  2  0  0  0  0
  2 11  1  0  0  0  0
  2  3  1  0  0  0  0
  3  4  1  0  0  0  0
  4  9  1  0  0  0  0
  5  4  2  0  0  0  0
  5  6  1  0  0  0  0
  6  7  2  0  0  0  0
  7  8  1  0  0  0  0
  8 10  1  0  0  0  0
  9 22  1  0  0  0  0
  9  8  2  0  0  0  0
 11  5  1  0  0  0  0
 12 11  2  0  0  0  0
 13  1  1  0  0  0  0
 14 13  1  0  0  0  0
 15 14  2  0  0  0  0
 16 15  1  0  0  0  0
 17 18  2  0  0  0  0
 17 15  1  0  0  0  0
 18 19  1  0  0  0  0
 19 20  1  0  0  0  0
 19 13  2  0  0  0  0
 20 21  1  0  0  0  0
 23 24  1  0  0  0  0
 23 22  1  0  0  0  0
 24 25  1  0  0  0  0
 26 25  1  0  0  0  0
 27 26  1  0  0  0  0
 28 27  1  0  0  0  0
 28 23  1  0  0  0  0
 29 23  1  0  0  0  0
M  END
>  <Pose>
1

>  <Score>
-8.277

$$$$
