/Users/jonathanwahrer/Desktop/Msc/3_Semester/Drug_Design_Praktikum/waehrer_HTS_screening/HTS_experiment/out/docking_results/vina_output/3e7o/2041_docked.pdbqt
 OpenBabel03192216533D

 30 33  0  0  0  0  0  0  0  0999 V2000
  -42.8300  -67.3870   53.5610 N   0  0  0  0  0  0  0  0  0  0  0  0
  -42.4250  -68.0470   54.7860 C   0  0  0  0  0  2  0  0  0  0  0  0
  -41.5680  -69.2670   54.4720 C   0  0  0  0  0  2  0  0  0  0  0  0
  -40.3810  -68.8040   53.7530 N   0  0  0  0  0  0  0  0  0  0  0  0
  -40.4340  -67.4420   53.3120 C   0  0  0  0  0  2  0  0  0  0  0  0
  -41.7580  -67.2310   52.6250 C   0  0  0  0  0  2  0  0  0  0  0  0
  -39.3100  -69.6830   53.5650 C   0  0  0  0  0  0  0  0  0  0  0  0
  -39.4000  -70.8870   54.0420 O   0  0  0  0  0  0  0  0  0  0  0  0
  -38.0370  -69.4370   52.8790 C   0  0  0  0  0  2  0  0  0  0  0  0
  -38.1320  -69.4980   51.0950 S   0  0  0  0  0  0  0  0  0  0  0  0
  -37.4160  -68.0830   50.2770 C   0  0  0  0  0  0  0  0  0  0  0  0
  -38.1700  -67.2170   49.6120 N   0  0  0  0  0  0  0  0  0  0  0  0
  -37.6870  -66.1330   48.9990 C   0  0  0  0  0  3  0  0  0  0  0  0
  -36.3380  -65.9060   49.0580 N   0  0  0  0  0  0  0  0  0  0  0  0
  -35.5500  -66.7600   49.7190 C   0  0  0  0  0  0  0  0  0  0  0  0
  -34.2020  -66.7590   49.9340 N   0  0  0  0  0  0  0  0  0  0  0  0
  -36.0550  -67.8800   50.3530 C   0  0  0  0  0  0  0  0  0  0  0  0
  -33.8970  -67.8170   50.6560 N   0  0  0  0  0  0  0  0  0  0  0  0
  -33.2830  -65.7660   49.4590 C   0  0  0  0  0  1  0  0  0  0  0  0
  -34.9950  -68.5240   50.9330 C   0  0  0  0  0  3  0  0  0  0  0  0
  -43.5600  -65.8720   53.9220 S   0  0  0  0  0  0  0  0  0  0  0  0
  -43.3970  -65.6510   55.4080 O   0  0  0  0  0  0  0  0  0  0  0  0
  -42.8770  -64.7400   53.2330 O   0  0  0  0  0  0  0  0  0  0  0  0
  -45.2580  -65.9270   53.5070 C   0  0  0  0  0  0  0  0  0  0  0  0
  -46.0040  -64.8270   53.1500 C   0  0  0  0  0  3  0  0  0  0  0  0
  -47.3400  -64.9330   52.8430 C   0  0  0  0  0  3  0  0  0  0  0  0
  -47.9700  -66.1770   52.8870 C   0  0  0  0  0  0  0  0  0  0  0  0
  -47.2240  -67.3040   53.2490 C   0  0  0  0  0  3  0  0  0  0  0  0
  -49.6650  -66.2960   52.4950 Cl  0  0  0  0  0  0  0  0  0  0  0  0
  -45.8860  -67.1720   53.5510 C   0  0  0  0  0  3  0  0  0  0  0  0
  1 21  1  0  0  0  0
  1  2  1  0  0  0  0
  3  2  1  0  0  0  0
  4  3  1  0  0  0  0
  5  4  1  0  0  0  0
  6  5  1  0  0  0  0
  6  1  1  0  0  0  0
  7  4  1  0  0  0  0
  7  8  2  0  0  0  0
  9  7  1  0  0  0  0
 10  9  1  0  0  0  0
 11 17  1  0  0  0  0
 11 10  1  0  0  0  0
 12 11  2  0  0  0  0
 13 14  2  0  0  0  0
 13 12  1  0  0  0  0
 14 15  1  0  0  0  0
 15 16  1  0  0  0  0
 15 17  2  0  0  0  0
 16 18  1  0  0  0  0
 17 20  1  0  0  0  0
 18 20  2  0  0  0  0
 19 16  1  0  0  0  0
 21 22  2  0  0  0  0
 23 21  2  0  0  0  0
 24 30  1  0  0  0  0
 24 21  1  0  0  0  0
 25 24  2  0  0  0  0
 26 27  2  0  0  0  0
 26 25  1  0  0  0  0
 27 28  1  0  0  0  0
 28 30  2  0  0  0  0
 29 27  1  0  0  0  0
M  END
>  <Pose>
1

>  <Score>
-8.416

$$$$
