/Users/jonathanwahrer/Desktop/Msc/3_Semester/Drug_Design_Praktikum/waehrer_HTS_screening/HTS_experiment/out/docking_results/vina_output/3e7o/2043_docked.pdbqt
 OpenBabel03192216543D

 32 35  0  0  0  0  0  0  0  0999 V2000
  -36.0560  -65.6790   48.4060 N   0  0  0  0  0  0  0  0  0  0  0  0
  -36.1580  -65.1070   49.7260 C   0  0  0  0  0  2  0  0  0  0  0  0
  -37.3050  -64.0980   49.7110 C   0  0  0  0  0  2  0  0  0  0  0  0
  -38.3910  -64.6270   48.9750 N   0  0  0  0  0  0  0  0  0  0  0  0
  -38.0840  -64.5790   47.4770 C   0  0  0  0  0  2  0  0  0  0  0  0
  -36.6430  -64.9250   47.3600 C   0  0  0  0  0  2  0  0  0  0  0  0
  -39.5750  -65.1880   49.3550 C   0  0  0  0  0  0  0  0  0  0  0  0
  -40.3680  -65.3860   48.2470 O   0  0  0  0  0  0  0  0  0  0  0  0
  -40.2630  -65.6340   50.5020 C   0  0  0  0  0  3  0  0  0  0  0  0
  -41.4160  -65.5570   51.0790 C   0  0  0  0  0  0  0  0  0  0  0  0
  -42.4990  -64.8260   50.5690 N   0  0  0  0  0  0  0  0  0  0  0  0
  -41.6670  -66.3310   52.3320 C   0  0  0  0  0  0  0  0  0  0  0  0
  -43.7850  -64.7780   51.1530 N   0  0  0  0  0  0  0  0  0  0  0  0
  -42.3920  -64.2390   49.7390 H   0  0  0  0  0  0  0  0  0  0  0  0
  -44.0230  -65.5020   52.3250 C   0  0  0  0  0  0  0  0  0  0  0  0
  -44.5280  -64.1880   50.6720 H   0  0  0  0  0  0  0  0  0  0  0  0
  -45.1640  -65.4680   52.8560 O   0  0  0  0  0  0  0  0  0  0  0  0
  -42.9230  -66.2890   52.9090 C   0  0  0  0  0  0  0  0  0  0  0  0
  -43.2200  -66.9830   54.0690 C   0  0  0  0  0  3  0  0  0  0  0  0
  -42.2520  -67.7460   54.6850 C   0  0  0  0  0  3  0  0  0  0  0  0
  -41.0080  -67.7850   54.1070 C   0  0  0  0  0  3  0  0  0  0  0  0
  -40.7100  -67.0820   52.9350 C   0  0  0  0  0  3  0  0  0  0  0  0
  -36.1960  -67.3510   48.3290 S   0  0  0  0  0  0  0  0  0  0  0  0
  -37.0510  -67.6890   47.1140 O   0  0  0  0  0  0  0  0  0  0  0  0
  -34.8240  -67.9280   48.0040 O   0  0  0  0  0  0  0  0  0  0  0  0
  -36.7710  -68.1210   49.7540 C   0  0  0  0  0  0  0  0  0  0  0  0
  -38.1130  -68.2210   50.0230 C   0  0  0  0  0  3  0  0  0  0  0  0
  -38.5510  -68.8460   51.1770 C   0  0  0  0  0  3  0  0  0  0  0  0
  -37.6740  -69.3850   52.0910 C   0  0  0  0  0  0  0  0  0  0  0  0
  -36.3180  -69.2870   51.8260 C   0  0  0  0  0  3  0  0  0  0  0  0
  -38.2810  -70.1650   53.5380 Cl  0  0  0  0  0  0  0  0  0  0  0  0
  -35.8900  -68.6560   50.6600 C   0  0  0  0  0  3  0  0  0  0  0  0
  1  2  1  0  0  0  0
  3  2  1  0  0  0  0
  4  7  1  0  0  0  0
  4  3  1  0  0  0  0
  5  4  1  0  0  0  0
  6  5  1  0  0  0  0
  6  1  1  0  0  0  0
  7  9  1  0  0  0  0
  8  7  2  0  0  0  0
  9 10  2  0  0  0  0
 10 12  1  0  0  0  0
 11 10  1  0  0  0  0
 11 13  1  0  0  0  0
 12 18  2  0  0  0  0
 12 22  1  0  0  0  0
 13 15  1  0  0  0  0
 14 11  1  0  0  0  0
 15 17  2  0  0  0  0
 15 18  1  0  0  0  0
 16 13  1  0  0  0  0
 18 19  1  0  0  0  0
 19 20  2  0  0  0  0
 21 20  1  0  0  0  0
 22 21  2  0  0  0  0
 23  1  1  0  0  0  0
 23 26  1  0  0  0  0
 24 23  2  0  0  0  0
 25 23  2  0  0  0  0
 26 27  2  0  0  0  0
 26 32  1  0  0  0  0
 27 28  1  0  0  0  0
 28 29  2  0  0  0  0
 29 31  1  0  0  0  0
 30 29  1  0  0  0  0
 32 30  2  0  0  0  0
M  END
>  <Pose>
1

>  <Score>
-9.789

$$$$
