/Users/jonathanwahrer/Desktop/Msc/3_Semester/Drug_Design_Praktikum/waehrer_HTS_screening/HTS_experiment/out/docking_results/vina_output/3e7o/2046_docked.pdbqt
 OpenBabel03192216543D

 26 29  0  0  0  0  0  0  0  0999 V2000
  -36.1640  -67.9600   48.4860 Cl  0  0  0  0  0  0  0  0  0  0  0  0
  -37.2160  -68.1890   49.8480 C   0  0  0  0  0  0  0  0  0  0  0  0
  -38.3310  -67.4110   50.0230 C   0  0  0  0  0  0  0  0  0  0  0  0
  -39.1250  -67.6410   51.1240 C   0  0  0  0  0  3  0  0  0  0  0  0
  -38.8580  -68.6160   52.0610 C   0  0  0  0  0  0  0  0  0  0  0  0
  -37.7350  -69.3880   51.8700 C   0  0  0  0  0  3  0  0  0  0  0  0
  -36.9340  -69.1640   50.7710 C   0  0  0  0  0  3  0  0  0  0  0  0
  -39.7130  -68.8360   53.2110 N   0  0  0  0  0  0  0  0  0  0  0  0
  -39.3210  -69.0070   54.1410 H   0  0  0  0  0  0  0  0  0  0  0  0
  -41.1140  -68.8000   52.9730 C   0  0  0  0  0  2  0  0  0  0  0  0
  -41.9510  -68.0060   53.8670 C   0  0  0  0  0  0  0  0  0  0  0  0
  -42.2070  -68.6240   54.9940 O   0  0  0  0  0  0  0  0  0  0  0  0
  -42.5050  -66.7560   53.7450 N   0  0  0  0  0  0  0  0  0  0  0  0
  -42.2990  -65.8390   52.6700 C   0  0  0  0  0  2  0  0  0  0  0  0
  -43.4450  -66.2650   54.7770 C   0  0  0  0  0  2  0  0  0  0  0  0
  -43.6530  -65.5250   52.0400 C   0  0  0  0  0  2  0  0  0  0  0  0
  -44.3800  -64.8740   53.0610 O   0  0  0  0  0  0  0  0  0  0  0  0
  -44.6990  -65.8050   54.0250 C   0  0  0  0  0  2  0  0  0  0  0  0
  -38.6850  -66.3850   49.1290 N   0  0  0  0  0  0  0  0  0  0  0  0
  -39.6110  -66.4900   48.1980 N   0  0  0  0  0  0  0  0  0  0  0  0
  -39.7160  -65.3560   47.5320 N   0  0  0  0  0  0  0  0  0  0  0  0
  -38.8340  -64.5310   48.0610 N   0  0  0  0  0  0  0  0  0  0  0  0
  -38.1710  -65.1630   49.0750 C   0  0  0  0  0  0  0  0  0  0  0  0
  -37.1190  -64.5100   49.8530 C   0  0  0  0  0  3  0  0  0  0  0  0
  -35.6870  -64.7410   49.7100 C   0  0  0  0  0  2  0  0  0  0  0  0
  -36.2700  -63.4760   49.0580 C   0  0  0  0  0  2  0  0  0  0  0  0
  1  2  1  0  0  0  0
  2  3  2  0  0  0  0
  2  7  1  0  0  0  0
  3  4  1  0  0  0  0
  4  5  2  0  0  0  0
  5  8  1  0  0  0  0
  6  5  1  0  0  0  0
  7  6  2  0  0  0  0
  8  9  1  0  0  0  0
 10  8  1  0  0  0  0
 10 11  1  0  0  0  0
 11 12  2  0  0  0  0
 13 11  1  0  0  0  0
 13 15  1  0  0  0  0
 14 13  1  0  0  0  0
 16 14  1  0  0  0  0
 16 17  1  0  0  0  0
 17 18  1  0  0  0  0
 18 15  1  0  0  0  0
 19  3  1  0  0  0  0
 20 19  1  0  0  0  0
 21 22  1  0  0  0  0
 21 20  2  0  0  0  0
 22 23  2  0  0  0  0
 23 19  1  0  0  0  0
 23 24  1  0  0  0  0
 25 24  1  0  0  0  0
 26 25  1  0  0  0  0
 26 24  1  0  0  0  0
M  END
>  <Pose>
1

>  <Score>
-7.690

$$$$
