MODEL 1
REMARK VINA RESULT:    -8.086      0.000      0.000
REMARK INTER + INTRA:         -11.413
REMARK INTER:                 -10.922
REMARK INTRA:                  -0.491
REMARK UNBOUND:                -0.491
REMARK  8 active torsions:
REMARK  status: ('A' for Active; 'I' for Inactive)
REMARK    1  A    between atoms: C_5  and  C_8 
REMARK    2  A    between atoms: C_15  and  O_17 
REMARK    3  A    between atoms: O_17  and  C_18 
REMARK    4  A    between atoms: C_20  and  C_27 
REMARK    5  A    between atoms: C_21  and  O_26 
REMARK    6  A    between atoms: C_22  and  O_25 
REMARK    7  A    between atoms: C_23  and  O_24 
REMARK    8  A    between atoms: C_27  and  O_28 
ROOT
ATOM      1  C   UNK d   1     -35.596 -65.808  48.427  0.00  0.00     0.048 A 
ATOM      2  C   UNK d   1     -36.950 -65.485  48.418  0.00  0.00     0.159 A 
ATOM      3  O   UNK d   1     -37.846 -66.179  49.080  0.00  0.00    -0.321 OA
ATOM      4  C   UNK d   1     -37.540 -67.231  49.802  0.00  0.00     0.091 A 
ATOM      5  C   UNK d   1     -36.225 -67.627  49.872  0.00  0.00     0.049 A 
ATOM      6  C   UNK d   1     -35.950 -68.733  50.639  0.00  0.00     0.021 A 
ATOM      7  C   UNK d   1     -36.911 -69.438  51.319  0.00  0.00     0.038 A 
ATOM      8  C   UNK d   1     -38.264 -69.048  51.262  0.00  0.00     0.074 A 
ATOM      9  C   UNK d   1     -38.532 -67.941  50.491  0.00  0.00     0.075 A 
ATOM     10  C   UNK d   1     -35.259 -66.920  49.188  0.00  0.00     0.197 A 
ATOM     11  O   UNK d   1     -34.054 -67.282  49.251  0.00  0.00    -0.286 OA
ENDROOT
BRANCH   8  12
ATOM     12  O   UNK d   1     -39.200 -69.783  51.960  0.00  0.00    -0.318 OA
BRANCH  12  13
ATOM     13  C   UNK d   1     -40.164 -69.293  52.791  0.00  0.00     0.298 C 
ATOM     14  O   UNK d   1     -40.417 -67.908  52.602  0.00  0.00    -0.348 OA
ATOM     15  C   UNK d   1     -41.692 -67.699  53.080  0.00  0.00     0.179 C 
ATOM     16  C   UNK d   1     -41.852 -67.941  54.549  0.00  0.00     0.180 C 
ATOM     17  C   UNK d   1     -41.145 -69.194  55.007  0.00  0.00     0.183 C 
ATOM     18  C   UNK d   1     -39.839 -69.408  54.269  0.00  0.00     0.205 C 
BRANCH  15  19
ATOM     19  C   UNK d   1     -42.239 -66.339  52.724  0.00  0.00     0.198 C 
BRANCH  19  20
ATOM     20  O   UNK d   1     -43.591 -66.389  52.395  0.00  0.00    -0.398 OA
ATOM     21  H   UNK d   1     -43.735 -67.305  51.999  0.00  0.00     0.209 HD
ENDBRANCH  19  20
ENDBRANCH  15  19
BRANCH  16  22
ATOM     22  O   UNK d   1     -43.221 -68.144  54.788  0.00  0.00    -0.390 OA
ATOM     23  H   UNK d   1     -43.358 -68.642  55.632  0.00  0.00     0.210 HD
ENDBRANCH  16  22
BRANCH  17  24
ATOM     24  O   UNK d   1     -40.975 -69.155  56.385  0.00  0.00    -0.390 OA
ATOM     25  H   UNK d   1     -41.488 -69.885  56.850  0.00  0.00     0.210 HD
ENDBRANCH  17  24
BRANCH  18  26
ATOM     26  O   UNK d   1     -39.364 -70.672  54.595  0.00  0.00    -0.388 OA
ATOM     27  H   UNK d   1     -39.217 -70.753  55.567  0.00  0.00     0.210 HD
ENDBRANCH  18  26
ENDBRANCH  12  13
ENDBRANCH   8  12
BRANCH   1  28
ATOM     28  C   UNK d   1     -34.626 -65.027  47.688  0.00  0.00    -0.020 A 
ATOM     29  C   UNK d   1     -34.281 -65.294  46.380  0.00  0.00     0.014 A 
ATOM     30  C   UNK d   1     -33.341 -64.505  45.728  0.00  0.00     0.020 A 
ATOM     31  C   UNK d   1     -32.721 -63.443  46.345  0.00  0.00     0.011 A 
ATOM     32 Br   UNK d   1     -31.429 -62.366  45.436  0.00  0.00    -0.051 Br
ATOM     33  C   UNK d   1     -33.067 -63.174  47.662  0.00  0.00     0.020 A 
ATOM     34  C   UNK d   1     -34.001 -63.958  48.308  0.00  0.00     0.014 A 
ENDBRANCH   1  28
TORSDOF 8
ENDMDL
