MODEL 1
REMARK VINA RESULT:    -8.504      0.000      0.000
REMARK INTER + INTRA:         -12.665
REMARK INTER:                 -11.239
REMARK INTRA:                  -1.426
REMARK UNBOUND:                -1.426
REMARK  6 active torsions:
REMARK  status: ('A' for Active; 'I' for Inactive)
REMARK    1  A    between atoms: C_5  and  C_8 
REMARK    2  A    between atoms: C_12  and  C_17 
REMARK    3  A    between atoms: C_17  and  N_18 
REMARK    4  A    between atoms: N_21  and  C_24 
REMARK    5  A    between atoms: C_24  and  C_25 
REMARK    6  A    between atoms: C_25  and  O_26 
ROOT
ATOM      1  C   UNK d   1     -38.018 -67.656  50.414  0.00  0.00     0.051 A 
ATOM      2  C   UNK d   1     -37.918 -68.671  51.338  0.00  0.00     0.032 A 
ATOM      3  C   UNK d   1     -38.941 -68.824  52.284  0.00  0.00    -0.000 A 
ATOM      4  C   UNK d   1     -40.030 -67.981  52.306  0.00  0.00     0.100 A 
ATOM      5  C   UNK d   1     -41.096 -68.056  53.204  0.00  0.00     0.039 A 
ATOM      6  C   UNK d   1     -40.975 -69.121  54.131  0.00  0.00     0.118 A 
ATOM      7  C   UNK d   1     -39.894 -69.997  54.138  0.00  0.00     0.041 A 
ATOM      8  C   UNK d   1     -38.882 -69.839  53.205  0.00  0.00     0.017 A 
ATOM      9  O   UNK d   1     -41.922 -69.378  55.104  0.00  0.00    -0.191 OA
ATOM     10  O   UNK d   1     -40.081 -67.057  51.434  0.00  0.00    -0.273 OA
ATOM     11  C   UNK d   1     -39.160 -66.833  50.493  0.00  0.00     0.299 A 
ATOM     12  O   UNK d   1     -39.271 -65.909  49.679  0.00  0.00    -0.259 OA
ENDROOT
BRANCH   5  13
ATOM     13  C   UNK d   1     -42.318 -67.332  53.187  0.00  0.00     0.279 C 
BRANCH  13  14
ATOM     14  N   UNK d   1     -43.255 -67.276  54.280  0.00  0.00    -0.064 N 
ATOM     15  C   UNK d   1     -43.370 -65.897  54.833  0.00  0.00     0.265 C 
ATOM     16  C   UNK d   1     -43.360 -64.905  53.724  0.00  0.00     0.300 C 
ATOM     17  N   UNK d   1     -44.435 -65.037  52.768  0.00  0.00     0.093 N 
ATOM     18  C   UNK d   1     -44.908 -66.373  52.641  0.00  0.00     0.300 C 
ATOM     19  C   UNK d   1     -44.622 -67.360  53.672  0.00  0.00     0.265 C 
ATOM     20  H   UNK d   1     -43.247 -67.972  54.989  0.00  0.00     0.280 HD
BRANCH  17  21
ATOM     21  C   UNK d   1     -44.015 -64.518  51.457  0.00  0.00     0.298 C 
BRANCH  21  22
ATOM     22  C   UNK d   1     -42.514 -64.547  51.287  0.00  0.00     0.194 C 
BRANCH  22  23
ATOM     23  O   UNK d   1     -42.114 -65.290  50.186  0.00  0.00    -0.399 OA
ATOM     24  H   UNK d   1     -42.079 -66.261  50.460  0.00  0.00     0.209 HD
ENDBRANCH  22  23
ENDBRANCH  21  22
ENDBRANCH  17  21
ENDBRANCH  13  14
ENDBRANCH   5  13
BRANCH   1  25
ATOM     25  C   UNK d   1     -37.041 -67.508  49.316  0.00  0.00    -0.020 A 
ATOM     26  C   UNK d   1     -35.885 -66.755  49.596  0.00  0.00     0.014 A 
ATOM     27  C   UNK d   1     -34.901 -66.617  48.634  0.00  0.00     0.024 A 
ATOM     28  C   UNK d   1     -35.011 -67.201  47.377  0.00  0.00     0.034 A 
ATOM     29 Cl   UNK d   1     -33.715 -67.112  46.158  0.00  0.00    -0.084 Cl
ATOM     30  C   UNK d   1     -36.153 -67.935  47.109  0.00  0.00     0.024 A 
ATOM     31  C   UNK d   1     -37.123 -68.057  48.087  0.00  0.00     0.014 A 
ENDBRANCH   1  25
TORSDOF 6
ENDMDL
