MODEL 1
REMARK VINA RESULT:    -7.296      0.000      0.000
REMARK INTER + INTRA:         -11.495
REMARK INTER:                  -9.856
REMARK INTRA:                  -1.639
REMARK UNBOUND:                -1.639
REMARK  6 active torsions:
REMARK  status: ('A' for Active; 'I' for Inactive)
REMARK    1  A    between atoms: C_5  and  C_8 
REMARK    2  A    between atoms: C_8  and  N_9 
REMARK    3  A    between atoms: C_13  and  N_14 
REMARK    4  A    between atoms: N_17  and  C_20 
REMARK    5  A    between atoms: C_20  and  C_21 
REMARK    6  A    between atoms: C_21  and  O_23 
ROOT
ATOM      1  N   UNK d   1     -38.463 -67.154  49.790  0.00  0.00    -0.168 N 
ATOM      2  C   UNK d   1     -37.241 -67.626  50.201  0.00  0.00     0.167 A 
ATOM      3  C   UNK d   1     -36.287 -66.641  50.039  0.00  0.00     0.185 A 
ATOM      4  N   UNK d   1     -36.945 -65.594  49.532  0.00  0.00    -0.044 NA
ATOM      5  C   UNK d   1     -38.272 -65.901  49.375  0.00  0.00     0.707 A 
ATOM      6  N   UNK d   1     -34.999 -66.862  50.365  0.00  0.00    -0.286 N 
ATOM      7  C   UNK d   1     -34.665 -68.066  50.851  0.00  0.00     0.330 A 
ATOM      8  O   UNK d   1     -33.461 -68.260  51.151  0.00  0.00    -0.246 OA
ATOM      9  N   UNK d   1     -35.560 -69.045  51.020  0.00  0.00    -0.273 N 
ATOM     10  C   UNK d   1     -36.876 -68.858  50.701  0.00  0.00     0.280 A 
ATOM     11  O   UNK d   1     -37.689 -69.798  50.869  0.00  0.00    -0.265 OA
ATOM     12  C   UNK d   1     -34.030 -65.797  50.184  0.00  0.00     0.163 C 
ATOM     13  H   UNK d   1     -35.280 -69.985  51.400  0.00  0.00     0.173 HD
ENDROOT
BRANCH   5  14
ATOM     14  N   UNK d   1     -39.169 -65.007  48.769  0.00  0.00    -0.212 N 
ATOM     15  C   UNK d   1     -39.665 -64.973  47.440  0.00  0.00     0.160 C 
ATOM     16  C   UNK d   1     -40.037 -63.554  46.996  0.00  0.00     0.137 C 
ATOM     17  N   UNK d   1     -39.379 -62.513  47.672  0.00  0.00    -0.400 N 
ATOM     18  C   UNK d   1     -39.325 -62.583  49.079  0.00  0.00     0.137 C 
ATOM     19  C   UNK d   1     -39.717 -63.931  49.640  0.00  0.00     0.160 C 
BRANCH  17  20
ATOM     20  C   UNK d   1     -38.458 -61.699  46.992  0.00  0.00     0.228 C 
BRANCH  20  21
ATOM     21  C   UNK d   1     -37.061 -62.155  46.937  0.00  0.00     0.276 C 
ATOM     22  O   UNK d   1     -36.669 -63.052  46.144  0.00  0.00    -0.263 OA
BRANCH  21  23
ATOM     23  O   UNK d   1     -36.123 -61.593  47.777  0.00  0.00    -0.325 OA
ATOM     24  C   UNK d   1     -35.446 -62.332  48.756  0.00  0.00     0.213 C 
ENDBRANCH  21  23
ENDBRANCH  20  21
ENDBRANCH  17  20
ENDBRANCH   5  14
BRANCH   1  25
ATOM     25  C   UNK d   1     -39.683 -67.917  49.853  0.00  0.00     0.186 C 
BRANCH  25  26
ATOM     26  C   UNK d   1     -40.530 -67.501  51.042  0.00  0.00    -0.039 A 
ATOM     27  C   UNK d   1     -41.650 -66.768  50.781  0.00  0.00     0.010 A 
ATOM     28  C   UNK d   1     -42.476 -66.393  51.842  0.00  0.00     0.019 A 
ATOM     29  C   UNK d   1     -42.161 -66.761  53.131  0.00  0.00     0.011 A 
ATOM     30 Br   UNK d   1     -43.275 -66.263  54.597  0.00  0.00    -0.051 Br
ATOM     31  C   UNK d   1     -41.016 -67.505  53.359  0.00  0.00     0.019 A 
ATOM     32  C   UNK d   1     -40.204 -67.874  52.314  0.00  0.00     0.010 A 
ENDBRANCH  25  26
ENDBRANCH   1  25
TORSDOF 6
ENDMDL
