/Users/jonathanwahrer/Desktop/Msc/3_Semester/Drug_Design_Praktikum/waehrer_HTS_screening/HTS_experiment/out/docking_results/vina_output/3e7o/2091_docked.pdbqt
 OpenBabel03192216553D

 28 31  0  0  0  0  0  0  0  0999 V2000
  -38.5380  -67.3720   50.0330 N   0  0  0  0  0  0  0  0  0  0  0  0
  -37.4290  -68.0120   50.4320 C   0  0  0  0  0  0  0  0  0  0  0  0
  -36.3360  -67.2120   50.1810 C   0  0  0  0  0  0  0  0  0  0  0  0
  -36.8160  -66.1060   49.6350 N   0  0  0  0  0  0  0  0  0  0  0  0
  -38.1510  -66.1720   49.5320 C   0  0  0  0  0  0  0  0  0  0  0  0
  -35.0610  -67.5680   50.4790 N   0  0  0  0  0  0  0  0  0  0  0  0
  -34.8840  -68.7690   51.0520 C   0  0  0  0  0  0  0  0  0  0  0  0
  -33.6970  -69.0820   51.3200 O   0  0  0  0  0  0  0  0  0  0  0  0
  -35.9100  -69.5930   51.3250 N   0  0  0  0  0  0  0  0  0  0  0  0
  -37.1790  -69.2510   51.0330 C   0  0  0  0  0  0  0  0  0  0  0  0
  -38.1460  -69.9860   51.2740 O   0  0  0  0  0  0  0  0  0  0  0  0
  -33.9750  -66.6610   50.1740 C   0  0  0  0  0  1  0  0  0  0  0  0
  -35.7640  -70.5240   51.7730 H   0  0  0  0  0  0  0  0  0  0  0  0
  -39.8920  -67.8630   50.1070 C   0  0  0  0  0  2  0  0  0  0  0  0
  -40.6860  -67.4960   51.2630 C   0  0  0  0  0  0  0  0  0  0  0  0
  -40.4070  -67.7860   52.5620 C   0  0  0  0  0  3  0  0  0  0  0  0
  -41.1960  -67.3660   53.6310 C   0  0  0  0  0  3  0  0  0  0  0  0
  -42.3340  -66.6070   53.3750 C   0  0  0  0  0  0  0  0  0  0  0  0
  -43.4610  -65.9780   54.7770 Br  0  0  0  0  0  0  0  0  0  0  0  0
  -42.6550  -66.2890   52.0760 C   0  0  0  0  0  3  0  0  0  0  0  0
  -41.8470  -66.7270   51.0530 C   0  0  0  0  0  3  0  0  0  0  0  0
  -39.0230  -65.1700   48.9930 N   0  0  0  0  0  0  0  0  0  0  0  0
  -39.3020  -65.2140   47.5750 C   0  0  0  0  0  2  0  0  0  0  0  0
  -38.7200  -63.9550   46.9480 C   0  0  0  0  0  2  0  0  0  0  0  0
  -38.5690  -62.8890   47.8810 N   0  0  0  0  0  0  0  0  0  0  0  0
  -39.5190  -62.8460   48.9440 C   0  0  0  0  0  2  0  0  0  0  0  0
  -37.2570  -62.4530   48.1720 C   0  0  0  0  0  1  0  0  0  0  0  0
  -39.6340  -64.1120   49.7530 C   0  0  0  0  0  2  0  0  0  0  0  0
  1 14  1  0  0  0  0
  1  2  1  0  0  0  0
  2 10  1  0  0  0  0
  3  2  2  0  0  0  0
  3  6  1  0  0  0  0
  4  3  1  0  0  0  0
  5  4  2  0  0  0  0
  5  1  1  0  0  0  0
  6  7  1  0  0  0  0
  7  8  2  0  0  0  0
  7  9  1  0  0  0  0
  9 13  1  0  0  0  0
 10 11  2  0  0  0  0
 10  9  1  0  0  0  0
 12  6  1  0  0  0  0
 14 15  1  0  0  0  0
 15 16  1  0  0  0  0
 16 17  2  0  0  0  0
 18 17  1  0  0  0  0
 18 19  1  0  0  0  0
 20 18  2  0  0  0  0
 21 15  2  0  0  0  0
 21 20  1  0  0  0  0
 22  5  1  0  0  0  0
 22 28  1  0  0  0  0
 23 22  1  0  0  0  0
 24 23  1  0  0  0  0
 24 25  1  0  0  0  0
 25 27  1  0  0  0  0
 25 26  1  0  0  0  0
 26 28  1  0  0  0  0
M  END
>  <Pose>
1

>  <Score>
-8.056

$$$$
