MODEL 1
REMARK VINA RESULT:    -8.056      0.000      0.000
REMARK INTER + INTRA:         -10.557
REMARK INTER:                  -9.469
REMARK INTRA:                  -1.088
REMARK UNBOUND:                -1.088
REMARK  3 active torsions:
REMARK  status: ('A' for Active; 'I' for Inactive)
REMARK    1  A    between atoms: C_5  and  C_8 
REMARK    2  A    between atoms: C_8  and  N_9 
REMARK    3  A    between atoms: C_13  and  N_14 
ROOT
ATOM      1  N   UNK d   1     -38.538 -67.372  50.033  0.00  0.00    -0.168 N 
ATOM      2  C   UNK d   1     -37.429 -68.012  50.432  0.00  0.00     0.167 A 
ATOM      3  C   UNK d   1     -36.336 -67.212  50.181  0.00  0.00     0.185 A 
ATOM      4  N   UNK d   1     -36.816 -66.106  49.635  0.00  0.00    -0.044 NA
ATOM      5  C   UNK d   1     -38.151 -66.172  49.532  0.00  0.00     0.707 A 
ATOM      6  N   UNK d   1     -35.061 -67.568  50.479  0.00  0.00    -0.286 N 
ATOM      7  C   UNK d   1     -34.884 -68.769  51.052  0.00  0.00     0.330 A 
ATOM      8  O   UNK d   1     -33.697 -69.082  51.320  0.00  0.00    -0.246 OA
ATOM      9  N   UNK d   1     -35.910 -69.593  51.325  0.00  0.00    -0.273 N 
ATOM     10  C   UNK d   1     -37.179 -69.251  51.033  0.00  0.00     0.280 A 
ATOM     11  O   UNK d   1     -38.146 -69.986  51.274  0.00  0.00    -0.265 OA
ATOM     12  C   UNK d   1     -33.975 -66.661  50.174  0.00  0.00     0.163 C 
ATOM     13  H   UNK d   1     -35.764 -70.524  51.773  0.00  0.00     0.173 HD
ENDROOT
BRANCH   1  14
ATOM     14  C   UNK d   1     -39.892 -67.863  50.107  0.00  0.00     0.186 C 
BRANCH  14  15
ATOM     15  C   UNK d   1     -40.686 -67.496  51.263  0.00  0.00    -0.039 A 
ATOM     16  C   UNK d   1     -40.407 -67.786  52.562  0.00  0.00     0.010 A 
ATOM     17  C   UNK d   1     -41.196 -67.366  53.631  0.00  0.00     0.019 A 
ATOM     18  C   UNK d   1     -42.334 -66.607  53.375  0.00  0.00     0.011 A 
ATOM     19 Br   UNK d   1     -43.461 -65.978  54.777  0.00  0.00    -0.051 Br
ATOM     20  C   UNK d   1     -42.655 -66.289  52.076  0.00  0.00     0.019 A 
ATOM     21  C   UNK d   1     -41.847 -66.727  51.053  0.00  0.00     0.010 A 
ENDBRANCH  14  15
ENDBRANCH   1  14
BRANCH   5  22
ATOM     22  N   UNK d   1     -39.023 -65.170  48.993  0.00  0.00    -0.213 N 
ATOM     23  C   UNK d   1     -39.302 -65.214  47.575  0.00  0.00     0.160 C 
ATOM     24  C   UNK d   1     -38.720 -63.955  46.948  0.00  0.00     0.136 C 
ATOM     25  N   UNK d   1     -38.569 -62.889  47.881  0.00  0.00    -0.414 N 
ATOM     26  C   UNK d   1     -39.519 -62.846  48.944  0.00  0.00     0.136 C 
ATOM     27  C   UNK d   1     -37.257 -62.453  48.172  0.00  0.00     0.143 C 
ATOM     28  C   UNK d   1     -39.634 -64.112  49.753  0.00  0.00     0.160 C 
ENDBRANCH   5  22
TORSDOF 3
ENDMDL
