MODEL 1
REMARK VINA RESULT:    -6.714      0.000      0.000
REMARK INTER + INTRA:          -6.910
REMARK INTER:                  -6.910
REMARK INTRA:                   0.000
REMARK UNBOUND:                 0.000
REMARK  1 active torsions:
REMARK  status: ('A' for Active; 'I' for Inactive)
REMARK    1  A    between atoms: C_12  and  N_16 
ROOT
ATOM      1 Cl   UNK d   1     -31.425 -68.575  47.032  0.00  0.00    -0.082 Cl
ATOM      2  C   UNK d   1     -32.622 -67.369  46.609  0.00  0.00     0.061 A 
ATOM      3  C   UNK d   1     -33.340 -66.702  47.602  0.00  0.00     0.065 A 
ATOM      4  C   UNK d   1     -34.280 -65.758  47.314  0.00  0.00    -0.002 A 
ATOM      5  C   UNK d   1     -34.494 -65.486  45.970  0.00  0.00     0.011 A 
ATOM      6  C   UNK d   1     -33.795 -66.134  44.975  0.00  0.00     0.002 A 
ATOM      7  C   UNK d   1     -32.849 -67.085  45.286  0.00  0.00     0.026 A 
ATOM      8  C   UNK d   1     -34.852 -65.248  48.577  0.00  0.00     0.146 A 
ATOM      9  C   UNK d   1     -36.324 -65.566  48.649  0.00  0.00     0.071 A 
ATOM     10  C   UNK d   1     -37.247 -64.662  48.827  0.00  0.00     0.060 A 
ATOM     11  N   UNK d   1     -36.927 -63.280  48.968  0.00  0.00    -0.342 N 
ATOM     12  C   UNK d   1     -35.566 -62.893  48.912  0.00  0.00     0.118 A 
ATOM     13  C   UNK d   1     -34.628 -63.795  48.734  0.00  0.00     0.093 A 
ATOM     14  C   UNK d   1     -33.241 -63.354  48.683  0.00  0.00     0.101 C 
ATOM     15  N   UNK d   1     -32.134 -63.019  48.636  0.00  0.00    -0.191 NA
ATOM     16  C   UNK d   1     -38.567 -65.325  48.848  0.00  0.00     0.106 A 
ATOM     17  O   UNK d   1     -38.317 -66.664  48.668  0.00  0.00    -0.301 OA
ATOM     18  C   UNK d   1     -36.963 -66.871  48.542  0.00  0.00     0.294 A 
ATOM     19  O   UNK d   1     -36.351 -67.981  48.363  0.00  0.00    -0.259 OA
ATOM     20  C   UNK d   1     -39.444 -64.707  47.782  0.00  0.00     0.053 C 
ATOM     21  C   UNK d   1     -39.271 -65.142  50.180  0.00  0.00     0.053 C 
ATOM     22  C   UNK d   1     -34.138 -66.001  49.635  0.00  0.00     0.246 A 
ATOM     23  O   UNK d   1     -34.310 -65.888  50.901  0.00  0.00    -0.271 OA
ATOM     24  N   UNK d   1     -33.229 -66.875  49.004  0.00  0.00    -0.324 N 
ATOM     25  H   UNK d   1     -37.660 -62.552  49.110  0.00  0.00     0.167 HD
ATOM     26  H   UNK d   1     -32.583 -67.538  49.531  0.00  0.00     0.169 HD
ENDROOT
BRANCH  12  27
ATOM     27  N   UNK d   1     -35.167 -61.525  49.047  0.00  0.00    -0.384 N 
ATOM     28  H   UNK d   1     -35.367 -60.843  48.303  0.00  0.00     0.157 HD
ATOM     29  H   UNK d   1     -34.676 -61.242  49.903  0.00  0.00     0.157 HD
ENDBRANCH  12  27
TORSDOF 1
ENDMDL
