MODEL 1
REMARK VINA RESULT:    -8.015      0.000      0.000
REMARK INTER + INTRA:          -8.421
REMARK INTER:                  -8.483
REMARK INTRA:                   0.062
REMARK UNBOUND:                 0.062
REMARK  1 active torsions:
REMARK  status: ('A' for Active; 'I' for Inactive)
REMARK    1  A    between atoms: C_5  and  N_8 
ROOT
ATOM      1  N   UNK d   1     -42.025 -66.340  53.142  0.00  0.00    -0.250 N 
ATOM      2  C   UNK d   1     -42.265 -64.967  52.799  0.00  0.00     0.263 C 
ATOM      3  O   UNK d   1     -41.621 -64.288  51.961  0.00  0.00    -0.270 OA
ATOM      4  C   UNK d   1     -43.404 -64.442  53.587  0.00  0.00     0.259 C 
ATOM      5  O   UNK d   1     -44.366 -63.828  52.792  0.00  0.00    -0.266 OA
ATOM      6  N   UNK d   1     -44.923 -64.756  52.031  0.00  0.00    -0.288 N 
ATOM      7  C   UNK d   1     -44.803 -66.023  52.605  0.00  0.00     0.125 C 
ATOM      8  C   UNK d   1     -44.122 -65.739  53.945  0.00  0.00     0.144 C 
ATOM      9  C   UNK d   1     -42.971 -66.647  54.166  0.00  0.00     0.240 C 
ATOM     10  O   UNK d   1     -42.797 -67.532  55.056  0.00  0.00    -0.272 OA
ATOM     11  C   UNK d   1     -45.994 -66.872  52.738  0.00  0.00     0.028 C 
ATOM     12  C   UNK d   1     -47.272 -66.369  52.191  0.00  0.00     0.004 C 
ATOM     13  C   UNK d   1     -46.982 -65.544  50.956  0.00  0.00     0.022 C 
ATOM     14  C   UNK d   1     -46.126 -64.389  51.407  0.00  0.00     0.150 C 
ENDROOT
BRANCH   1  15
ATOM     15  C   UNK d   1     -41.052 -67.228  52.589  0.00  0.00     0.045 A 
ATOM     16  C   UNK d   1     -40.784 -67.310  51.240  0.00  0.00     0.032 A 
ATOM     17  C   UNK d   1     -39.839 -68.175  50.713  0.00  0.00     0.026 A 
ATOM     18  C   UNK d   1     -39.115 -69.004  51.546  0.00  0.00     0.034 A 
ATOM     19 Cl   UNK d   1     -37.915 -70.103  50.890  0.00  0.00    -0.084 Cl
ATOM     20  C   UNK d   1     -39.376 -68.931  52.898  0.00  0.00     0.026 A 
ATOM     21  C   UNK d   1     -40.320 -68.066  53.418  0.00  0.00     0.032 A 
ENDBRANCH   1  15
TORSDOF 1
ENDMDL
