/Users/jonathanwahrer/Desktop/Msc/3_Semester/Drug_Design_Praktikum/waehrer_HTS_screening/HTS_experiment/out/docking_results/vina_output/3e7o/2109_docked.pdbqt
 OpenBabel03192216553D

 21 24  0  0  1  0  0  0  0  0999 V2000
  -42.0250  -66.3400   53.1420 N   0  0  0  0  0  0  0  0  0  0  0  0
  -42.2650  -64.9670   52.7990 C   0  0  0  0  0  0  0  0  0  0  0  0
  -41.6210  -64.2880   51.9610 O   0  0  0  0  0  0  0  0  0  0  0  0
  -43.4040  -64.4420   53.5870 C   0  0  1  0  0  3  0  0  0  0  0  0
  -44.3660  -63.8280   52.7920 O   0  0  0  0  0  0  0  0  0  0  0  0
  -44.9230  -64.7560   52.0310 N   0  0  1  0  0  0  0  0  0  0  0  0
  -44.8030  -66.0230   52.6050 C   0  0  1  0  0  3  0  0  0  0  0  0
  -44.1220  -65.7390   53.9450 C   0  0  1  0  0  3  0  0  0  0  0  0
  -42.9710  -66.6470   54.1660 C   0  0  0  0  0  0  0  0  0  0  0  0
  -42.7970  -67.5320   55.0560 O   0  0  0  0  0  0  0  0  0  0  0  0
  -45.9940  -66.8720   52.7380 C   0  0  0  0  0  2  0  0  0  0  0  0
  -47.2720  -66.3690   52.1910 C   0  0  0  0  0  2  0  0  0  0  0  0
  -46.9820  -65.5440   50.9560 C   0  0  0  0  0  2  0  0  0  0  0  0
  -46.1260  -64.3890   51.4070 C   0  0  0  0  0  2  0  0  0  0  0  0
  -41.0520  -67.2280   52.5890 C   0  0  0  0  0  0  0  0  0  0  0  0
  -40.7840  -67.3100   51.2400 C   0  0  0  0  0  3  0  0  0  0  0  0
  -39.8390  -68.1750   50.7130 C   0  0  0  0  0  3  0  0  0  0  0  0
  -39.1150  -69.0040   51.5460 C   0  0  0  0  0  0  0  0  0  0  0  0
  -37.9150  -70.1030   50.8900 Cl  0  0  0  0  0  0  0  0  0  0  0  0
  -39.3760  -68.9310   52.8980 C   0  0  0  0  0  3  0  0  0  0  0  0
  -40.3200  -68.0660   53.4180 C   0  0  0  0  0  3  0  0  0  0  0  0
  1  9  1  0  0  0  0
  2  1  1  0  0  0  0
  2  4  1  0  0  0  0
  3  2  2  0  0  0  0
  4  5  1  6  0  0  0
  4  8  1  0  0  0  0
  6 14  1  1  0  0  0
  6  7  1  0  0  0  0
  6  5  1  0  0  0  0
  7 11  1  1  0  0  0
  7  8  1  0  0  0  0
  8  9  1  6  0  0  0
  9 10  2  0  0  0  0
 12 11  1  0  0  0  0
 13 14  1  0  0  0  0
 13 12  1  0  0  0  0
 15  1  1  0  0  0  0
 15 21  1  0  0  0  0
 16 15  2  0  0  0  0
 17 16  1  0  0  0  0
 17 18  2  0  0  0  0
 18 20  1  0  0  0  0
 19 18  1  0  0  0  0
 20 21  2  0  0  0  0
M  END
>  <Pose>
1

>  <Score>
-8.015

$$$$
