MODEL 1
REMARK VINA RESULT:    -8.641      0.000      0.000
REMARK INTER + INTRA:         -10.951
REMARK INTER:                  -9.904
REMARK INTRA:                  -1.047
REMARK UNBOUND:                -1.047
REMARK  3 active torsions:
REMARK  status: ('A' for Active; 'I' for Inactive)
REMARK    1  A    between atoms: C_7  and  C_9 
REMARK       I    between atoms: C_9  and  N_11 
REMARK    2  A    between atoms: C_14  and  N_19 
REMARK    3  A    between atoms: C_15  and  O_18 
REMARK       I    between atoms: N_22  and  C_25 
ROOT
ATOM      1  C   UNK d   1     -36.420 -67.868  48.842  0.00  0.00     0.203 C 
ATOM      2  O   UNK d   1     -37.075 -67.970  47.677  0.00  0.00    -0.170 OA
ATOM      3  N   UNK d   1     -35.113 -67.453  48.695  0.00  0.00    -0.358 N 
ATOM      4  C   UNK d   1     -34.786 -67.183  47.267  0.00  0.00     0.127 C 
ATOM      5  C   UNK d   1     -35.094 -65.731  46.956  0.00  0.00     0.058 C 
ATOM      6  C   UNK d   1     -35.095 -64.984  48.235  0.00  0.00     0.253 C 
ATOM      7  C   UNK d   1     -33.774 -65.088  48.924  0.00  0.00     0.153 C 
ATOM      8  C   UNK d   1     -34.036 -65.857  50.231  0.00  0.00     0.054 C 
ATOM      9  C   UNK d   1     -34.190 -67.318  49.768  0.00  0.00     0.127 C 
ENDROOT
BRANCH   1  10
ATOM     10  C   UNK d   1     -37.232 -68.215  49.976  0.00  0.00     0.088 A 
ATOM     11  N   UNK d   1     -37.044 -69.127  50.932  0.00  0.00    -0.352 N 
ATOM     12  C   UNK d   1     -38.097 -69.144  51.804  0.00  0.00     0.043 A 
ATOM     13  H   UNK d   1     -36.240 -69.754  51.070  0.00  0.00     0.166 HD
ATOM     14  C   UNK d   1     -38.977 -68.209  51.382  0.00  0.00    -0.005 A 
ATOM     15  C   UNK d   1     -38.375 -69.885  52.920  0.00  0.00     0.032 A 
ATOM     16  C   UNK d   1     -40.183 -67.960  52.047  0.00  0.00     0.037 A 
ATOM     17  C   UNK d   1     -38.462 -67.616  50.246  0.00  0.00     0.048 A 
ATOM     18  C   UNK d   1     -40.444 -68.704  53.152  0.00  0.00     0.035 A 
ATOM     19 Cl   UNK d   1     -41.958 -68.421  54.017  0.00  0.00    -0.084 Cl
ATOM     20  C   UNK d   1     -39.562 -69.664  53.603  0.00  0.00     0.026 A 
ENDBRANCH   1  10
BRANCH   6  21
ATOM     21  N   UNK d   1     -35.544 -63.628  48.223  0.00  0.00     0.098 N 
ATOM     22  C   UNK d   1     -36.423 -63.268  49.307  0.00  0.00     0.293 C 
ATOM     23  C   UNK d   1     -37.702 -64.014  49.254  0.00  0.00     0.156 C 
ATOM     24  N   UNK d   1     -38.281 -63.757  47.930  0.00  0.00    -0.349 N 
ATOM     25  C   UNK d   1     -37.529 -62.873  47.078  0.00  0.00     0.156 C 
ATOM     26  C   UNK d   1     -39.526 -64.355  47.567  0.00  0.00     0.215 C 
ATOM     27  C   UNK d   1     -36.071 -63.205  46.954  0.00  0.00     0.293 C 
ATOM     28  O   UNK d   1     -39.999 -64.143  46.443  0.00  0.00    -0.274 OA
ATOM     29  C   UNK d   1     -40.219 -65.223  48.571  0.00  0.00     0.117 C 
ENDBRANCH   6  21
BRANCH   7  30
ATOM     30  O   UNK d   1     -33.168 -63.859  49.177  0.00  0.00    -0.393 OA
ATOM     31  H   UNK d   1     -32.298 -63.875  48.660  0.00  0.00     0.210 HD
ENDBRANCH   7  30
TORSDOF 3
ENDMDL
