/Users/jonathanwahrer/Desktop/Msc/3_Semester/Drug_Design_Praktikum/waehrer_HTS_screening/HTS_experiment/out/docking_results/vina_output/3e7o/2122_docked.pdbqt
 OpenBabel03192216563D

 29 32  0  0  0  0  0  0  0  0999 V2000
  -41.9480  -65.3160   51.3480 C   0  0  0  0  0  0  0  0  0  0  0  0
  -41.3720  -64.2010   51.8290 N   0  0  0  0  0  0  0  0  0  0  0  0
  -40.4390  -63.7840   51.0220 O   0  0  0  0  0  0  0  0  0  0  0  0
  -40.3980  -64.6260   50.0090 C   0  0  0  0  0  0  0  0  0  0  0  0
  -41.3200  -65.5750   50.1930 N   0  0  0  0  0  0  0  0  0  0  0  0
  -43.0730  -66.0500   51.9890 C   0  0  0  0  0  2  0  0  0  0  0  0
  -42.6310  -66.6920   53.1930 N   0  0  0  0  0  0  0  0  0  0  0  0
  -41.6600  -67.5890   53.3870 C   0  0  0  0  0  0  0  0  0  0  0  0
  -40.7640  -68.2000   52.5200 C   0  0  0  0  0  3  0  0  0  0  0  0
  -41.6010  -67.9220   54.7420 C   0  0  0  0  0  0  0  0  0  0  0  0
  -39.8530  -69.1100   53.0450 C   0  0  0  0  0  0  0  0  0  0  0  0
  -38.7170  -69.8870   51.9530 Cl  0  0  0  0  0  0  0  0  0  0  0  0
  -39.8200  -69.4160   54.3940 C   0  0  0  0  0  3  0  0  0  0  0  0
  -40.7000  -68.8170   55.2410 C   0  0  0  0  0  3  0  0  0  0  0  0
  -42.5370  -67.2070   55.2870 O   0  0  0  0  0  0  0  0  0  0  0  0
  -43.1650  -66.4690   54.4070 C   0  0  0  0  0  0  0  0  0  0  0  0
  -44.1130  -65.6910   54.6960 O   0  0  0  0  0  0  0  0  0  0  0  0
  -39.4280  -64.4440   48.8780 C   0  0  0  0  0  0  0  0  0  0  0  0
  -40.0390  -64.4560   47.7540 O   0  0  0  0  0  0  0  0  0  0  0  0
  -38.1140  -64.2930   49.1250 N   0  0  0  0  0  0  0  0  0  0  0  0
  -37.8900  -64.1200   47.7830 H   0  0  0  0  0  0  0  0  0  0  0  0
  -36.7610  -64.1370   49.3620 C   0  0  0  0  0  2  0  0  0  0  0  0
  -35.8810  -65.0410   48.4900 C   0  0  0  0  0  2  0  0  0  0  0  0
  -35.3320  -66.1560   49.1530 N   0  0  0  0  0  0  0  0  0  0  0  0
  -36.2020  -67.2650   49.1000 C   0  0  0  0  0  2  0  0  0  0  0  0
  -36.0180  -68.2150   50.2350 C   0  0  0  0  0  2  0  0  0  0  0  0
  -34.6780  -68.3610   50.4830 O   0  0  0  0  0  0  0  0  0  0  0  0
  -34.0670  -67.2190   50.9640 C   0  0  0  0  0  2  0  0  0  0  0  0
  -34.5320  -65.9620   50.2920 C   0  0  0  0  0  2  0  0  0  0  0  0
  1  2  2  0  0  0  0
  1  6  1  0  0  0  0
  3  2  1  0  0  0  0
  4  5  2  0  0  0  0
  4  3  1  0  0  0  0
  5  1  1  0  0  0  0
  6  7  1  0  0  0  0
  7  8  1  0  0  0  0
  7 16  1  0  0  0  0
  8 10  1  0  0  0  0
  9 11  1  0  0  0  0
  9  8  2  0  0  0  0
 10 14  2  0  0  0  0
 10 15  1  0  0  0  0
 11 13  2  0  0  0  0
 12 11  1  0  0  0  0
 13 14  1  0  0  0  0
 16 17  2  0  0  0  0
 16 15  1  0  0  0  0
 18 20  1  0  0  0  0
 18  4  1  0  0  0  0
 19 18  2  0  0  0  0
 20 22  1  0  0  0  0
 21 20  1  0  0  0  0
 23 24  1  0  0  0  0
 23 22  1  0  0  0  0
 24 29  1  0  0  0  0
 25 24  1  0  0  0  0
 25 26  1  0  0  0  0
 26 27  1  0  0  0  0
 27 28  1  0  0  0  0
 29 28  1  0  0  0  0
M  END
>  <Pose>
1

>  <Score>
-8.554

$$$$
