MODEL 1
REMARK VINA RESULT:    -8.554      0.000      0.000
REMARK INTER + INTRA:         -12.436
REMARK INTER:                 -11.554
REMARK INTRA:                  -0.882
REMARK UNBOUND:                -0.882
REMARK  6 active torsions:
REMARK  status: ('A' for Active; 'I' for Inactive)
REMARK    1  A    between atoms: N_11  and  C_12 
REMARK    2  A    between atoms: C_12  and  C_13 
REMARK    3  A    between atoms: C_16  and  C_18 
REMARK       I    between atoms: C_18  and  N_20 
REMARK    4  A    between atoms: N_20  and  C_21 
REMARK    5  A    between atoms: C_21  and  C_22 
REMARK    6  A    between atoms: C_22  and  N_23 
ROOT
ATOM      1  C   UNK d   1     -41.948 -65.316  51.348  0.00  0.00     0.174 A 
ATOM      2  N   UNK d   1     -41.372 -64.201  51.829  0.00  0.00    -0.109 NA
ATOM      3  O   UNK d   1     -40.439 -63.784  51.022  0.00  0.00    -0.186 OA
ATOM      4  C   UNK d   1     -40.398 -64.626  50.009  0.00  0.00     0.264 A 
ATOM      5  N   UNK d   1     -41.320 -65.575  50.193  0.00  0.00    -0.198 NA
ENDROOT
BRANCH   1   6
ATOM      6  C   UNK d   1     -43.073 -66.050  51.989  0.00  0.00     0.217 C 
BRANCH   6   7
ATOM      7  N   UNK d   1     -42.631 -66.692  53.193  0.00  0.00    -0.283 N 
ATOM      8  C   UNK d   1     -41.660 -67.589  53.387  0.00  0.00     0.075 A 
ATOM      9  C   UNK d   1     -40.764 -68.200  52.520  0.00  0.00     0.056 A 
ATOM     10  C   UNK d   1     -41.601 -67.922  54.742  0.00  0.00     0.108 A 
ATOM     11  C   UNK d   1     -39.853 -69.110  53.045  0.00  0.00     0.036 A 
ATOM     12 Cl   UNK d   1     -38.717 -69.887  51.953  0.00  0.00    -0.084 Cl
ATOM     13  C   UNK d   1     -39.820 -69.416  54.394  0.00  0.00     0.026 A 
ATOM     14  C   UNK d   1     -40.700 -68.817  55.241  0.00  0.00     0.041 A 
ATOM     15  O   UNK d   1     -42.537 -67.207  55.287  0.00  0.00    -0.259 OA
ATOM     16  C   UNK d   1     -43.165 -66.469  54.407  0.00  0.00     0.373 A 
ATOM     17  O   UNK d   1     -44.113 -65.691  54.696  0.00  0.00    -0.237 OA
ENDBRANCH   6   7
ENDBRANCH   1   6
BRANCH   4  18
ATOM     18  C   UNK d   1     -39.428 -64.444  48.878  0.00  0.00     0.297 C 
ATOM     19  O   UNK d   1     -40.039 -64.456  47.754  0.00  0.00    -0.264 OA
ATOM     20  N   UNK d   1     -38.114 -64.293  49.125  0.00  0.00    -0.352 N 
ATOM     21  H   UNK d   1     -37.890 -64.120  47.783  0.00  0.00     0.162 HD
BRANCH  20  22
ATOM     22  C   UNK d   1     -36.761 -64.137  49.362  0.00  0.00     0.142 C 
BRANCH  22  23
ATOM     23  C   UNK d   1     -35.881 -65.041  48.490  0.00  0.00     0.136 C 
BRANCH  23  24
ATOM     24  N   UNK d   1     -35.332 -66.156  49.153  0.00  0.00    -0.407 N 
ATOM     25  C   UNK d   1     -36.202 -67.265  49.100  0.00  0.00     0.143 C 
ATOM     26  C   UNK d   1     -36.018 -68.215  50.235  0.00  0.00     0.187 C 
ATOM     27  O   UNK d   1     -34.678 -68.361  50.483  0.00  0.00    -0.388 OA
ATOM     28  C   UNK d   1     -34.067 -67.219  50.964  0.00  0.00     0.187 C 
ATOM     29  C   UNK d   1     -34.532 -65.962  50.292  0.00  0.00     0.143 C 
ENDBRANCH  23  24
ENDBRANCH  22  23
ENDBRANCH  20  22
ENDBRANCH   4  18
TORSDOF 6
ENDMDL
