MODEL 1
REMARK VINA RESULT:    -7.277      0.000      0.000
REMARK INTER + INTRA:          -8.401
REMARK INTER:                  -8.127
REMARK INTRA:                  -0.273
REMARK UNBOUND:                -0.273
REMARK  2 active torsions:
REMARK  status: ('A' for Active; 'I' for Inactive)
REMARK    1  A    between atoms: C_5  and  N_8 
REMARK    2  A    between atoms: C_12  and  C_21 
ROOT
ATOM      1  N   UNK d   1     -36.161 -66.689  49.000  0.00  0.00    -0.252 N 
ATOM      2  C   UNK d   1     -35.810 -65.322  49.152  0.00  0.00     0.239 C 
ATOM      3  O   UNK d   1     -36.014 -64.629  50.184  0.00  0.00    -0.272 OA
ATOM      4  C   UNK d   1     -35.155 -64.806  47.904  0.00  0.00     0.138 C 
ATOM      5  C   UNK d   1     -33.800 -64.253  48.195  0.00  0.00     0.142 C 
ATOM      6  O   UNK d   1     -32.947 -64.885  47.257  0.00  0.00    -0.355 OA
ATOM      7  C   UNK d   1     -33.329 -66.215  47.569  0.00  0.00     0.089 C 
ATOM      8  C   UNK d   1     -34.801 -66.114  47.181  0.00  0.00     0.133 C 
ATOM      9  C   UNK d   1     -35.636 -67.154  47.763  0.00  0.00     0.239 C 
ATOM     10  O   UNK d   1     -35.843 -68.277  47.235  0.00  0.00    -0.272 OA
ATOM     11  C   UNK d   1     -33.137 -66.211  49.039  0.00  0.00     0.010 C 
ATOM     12  C   UNK d   1     -33.311 -64.933  49.436  0.00  0.00     0.016 C 
ATOM     13  C   UNK d   1     -32.575 -67.247  46.840  0.00  0.00     0.051 C 
ENDROOT
BRANCH   1  14
ATOM     14  C   UNK d   1     -36.909 -67.542  49.872  0.00  0.00     0.045 A 
ATOM     15  C   UNK d   1     -38.264 -67.422  50.064  0.00  0.00     0.032 A 
ATOM     16  C   UNK d   1     -38.976 -68.251  50.912  0.00  0.00     0.026 A 
ATOM     17  C   UNK d   1     -38.329 -69.245  51.606  0.00  0.00     0.034 A 
ATOM     18 Cl   UNK d   1     -39.197 -70.323  52.703  0.00  0.00    -0.084 Cl
ATOM     19  C   UNK d   1     -36.970 -69.376  51.425  0.00  0.00     0.026 A 
ATOM     20  C   UNK d   1     -36.255 -68.540  50.570  0.00  0.00     0.032 A 
ENDBRANCH   1  14
BRANCH   5  21
ATOM     21  C   UNK d   1     -33.663 -62.791  48.211  0.00  0.00     0.298 C 
ATOM     22  O   UNK d   1     -32.700 -62.426  47.268  0.00  0.00    -0.356 OA
ATOM     23  C   UNK d   1     -33.325 -62.261  46.058  0.00  0.00     0.197 C 
ATOM     24  C   UNK d   1     -34.726 -61.882  46.458  0.00  0.00     0.197 C 
ATOM     25  O   UNK d   1     -34.856 -62.204  47.790  0.00  0.00    -0.356 OA
ENDBRANCH   5  21
TORSDOF 2
ENDMDL
