MODEL 1
REMARK VINA RESULT:    -8.145      0.000      0.000
REMARK INTER + INTRA:         -11.005
REMARK INTER:                 -10.050
REMARK INTRA:                  -0.956
REMARK UNBOUND:                -0.956
REMARK  4 active torsions:
REMARK  status: ('A' for Active; 'I' for Inactive)
REMARK    1  A    between atoms: C_5  and  N_8 
REMARK       I    between atoms: N_8  and  C_9 
REMARK       I    between atoms: C_9  and  N_11 
REMARK    2  A    between atoms: N_11  and  N_12 
REMARK       I    between atoms: N_12  and  C_13 
REMARK    3  A    between atoms: C_13  and  C_15 
REMARK    4  A    between atoms: N_17  and  C_26 
ROOT
ATOM      1  C   UNK d   1     -42.286 -66.336  51.643  0.00  0.00     0.244 A 
ATOM      2  N   UNK d   1     -43.559 -66.027  51.692  0.00  0.00    -0.127 NA
ATOM      3  N   UNK d   1     -44.199 -66.595  52.764  0.00  0.00    -0.058 N 
ATOM      4  C   UNK d   1     -43.201 -67.342  53.461  0.00  0.00     0.756 A 
ATOM      5  N   UNK d   1     -43.234 -68.072  54.536  0.00  0.00     0.020 NA
ATOM      6  N   UNK d   1     -42.077 -68.728  55.032  0.00  0.00    -0.258 N 
ATOM      7  C   UNK d   1     -40.829 -68.626  54.390  0.00  0.00     0.110 A 
ATOM      8  C   UNK d   1     -39.742 -69.239  54.837  0.00  0.00     0.050 C 
ATOM      9  C   UNK d   1     -40.770 -67.809  53.183  0.00  0.00     0.295 A 
ATOM     10  O   UNK d   1     -39.684 -67.705  52.603  0.00  0.00    -0.265 OA
ATOM     11  N   UNK d   1     -41.976 -67.180  52.747  0.00  0.00    -0.080 N 
ATOM     12  H   UNK d   1     -42.213 -69.289  55.903  0.00  0.00     0.190 HD
ENDROOT
BRANCH   1  13
ATOM     13  C   UNK d   1     -41.365 -65.879  50.621  0.00  0.00     0.308 C 
ATOM     14  N   UNK d   1     -40.856 -66.806  49.680  0.00  0.00    -0.259 N 
ATOM     15  H   UNK d   1     -41.132 -67.799  49.668  0.00  0.00     0.190 HD
ATOM     16  O   UNK d   1     -40.999 -64.663  50.556  0.00  0.00    -0.262 OA
BRANCH  14  17
ATOM     17  N   UNK d   1     -39.953 -66.353  48.725  0.00  0.00    -0.248 N 
ATOM     18  C   UNK d   1     -38.548 -66.367  48.817  0.00  0.00     0.339 C 
ATOM     19  N   UNK d   1     -37.690 -65.893  47.809  0.00  0.00    -0.308 N 
ATOM     20  O   UNK d   1     -38.020 -66.835  49.862  0.00  0.00    -0.245 OA
ATOM     21  H   UNK d   1     -38.100 -65.491  46.929  0.00  0.00     0.170 HD
ATOM     22  H   UNK d   1     -40.420 -65.952  47.847  0.00  0.00     0.192 HD
BRANCH  19  23
ATOM     23  C   UNK d   1     -36.267 -65.907  47.859  0.00  0.00     0.036 A 
ATOM     24  C   UNK d   1     -35.549 -67.005  47.391  0.00  0.00     0.031 A 
ATOM     25  C   UNK d   1     -34.173 -67.046  47.427  0.00  0.00     0.026 A 
ATOM     26  C   UNK d   1     -33.530 -65.952  47.947  0.00  0.00     0.034 A 
ATOM     27 Cl   UNK d   1     -31.764 -65.903  48.032  0.00  0.00    -0.084 Cl
ATOM     28  C   UNK d   1     -34.196 -64.852  48.417  0.00  0.00     0.026 A 
ATOM     29  C   UNK d   1     -35.571 -64.824  48.376  0.00  0.00     0.031 A 
ENDBRANCH  19  23
ENDBRANCH  14  17
ENDBRANCH   1  13
BRANCH   3  30
ATOM     30  C   UNK d   1     -45.586 -66.493  53.071  0.00  0.00     0.077 A 
ATOM     31  C   UNK d   1     -46.265 -65.306  52.936  0.00  0.00     0.033 A 
ATOM     32  C   UNK d   1     -47.623 -65.162  53.181  0.00  0.00     0.009 A 
ATOM     33  C   UNK d   1     -48.368 -66.251  53.586  0.00  0.00    -0.062 A 
ATOM     34  C   UNK d   1     -47.708 -67.453  53.733  0.00  0.00     0.009 A 
ATOM     35  C   UNK d   1     -49.840 -66.148  53.825  0.00  0.00     0.048 C 
ATOM     36  C   UNK d   1     -46.342 -67.568  53.479  0.00  0.00     0.033 A 
ENDBRANCH   3  30
TORSDOF 4
ENDMDL
