/Users/jonathanwahrer/Desktop/Msc/3_Semester/Drug_Design_Praktikum/waehrer_HTS_screening/HTS_experiment/out/docking_results/vina_output/3e7o/2134_docked.pdbqt
 OpenBabel03192216573D

 36 39  0  0  0  0  0  0  0  0999 V2000
  -42.2860  -66.3360   51.6430 C   0  0  0  0  0  0  0  0  0  0  0  0
  -43.5590  -66.0270   51.6920 N   0  0  0  0  0  0  0  0  0  0  0  0
  -44.1990  -66.5950   52.7640 N   0  0  0  0  0  0  0  0  0  0  0  0
  -43.2010  -67.3420   53.4610 C   0  0  0  0  0  0  0  0  0  0  0  0
  -43.2340  -68.0720   54.5360 N   0  0  0  0  0  0  0  0  0  0  0  0
  -42.0770  -68.7280   55.0320 N   0  0  0  0  0  0  0  0  0  0  0  0
  -40.8290  -68.6260   54.3900 C   0  0  0  0  0  0  0  0  0  0  0  0
  -39.7420  -69.2390   54.8370 C   0  0  0  0  0  2  0  0  0  0  0  0
  -40.7700  -67.8090   53.1830 C   0  0  0  0  0  0  0  0  0  0  0  0
  -39.6840  -67.7050   52.6030 O   0  0  0  0  0  0  0  0  0  0  0  0
  -41.9760  -67.1800   52.7470 N   0  0  0  0  0  0  0  0  0  0  0  0
  -42.2130  -69.2890   55.9030 H   0  0  0  0  0  0  0  0  0  0  0  0
  -41.3650  -65.8790   50.6210 C   0  0  0  0  0  0  0  0  0  0  0  0
  -40.8560  -66.8060   49.6800 N   0  0  0  0  0  0  0  0  0  0  0  0
  -41.1320  -67.7990   49.6680 H   0  0  0  0  0  0  0  0  0  0  0  0
  -40.9990  -64.6630   50.5560 O   0  0  0  0  0  0  0  0  0  0  0  0
  -39.9530  -66.3530   48.7250 N   0  0  0  0  0  0  0  0  0  0  0  0
  -38.5480  -66.3670   48.8170 C   0  0  0  0  0  0  0  0  0  0  0  0
  -37.6900  -65.8930   47.8090 N   0  0  0  0  0  0  0  0  0  0  0  0
  -38.0200  -66.8350   49.8620 O   0  0  0  0  0  0  0  0  0  0  0  0
  -38.1000  -65.4910   46.9290 H   0  0  0  0  0  0  0  0  0  0  0  0
  -40.4200  -65.9520   47.8470 H   0  0  0  0  0  0  0  0  0  0  0  0
  -36.2670  -65.9070   47.8590 C   0  0  0  0  0  0  0  0  0  0  0  0
  -35.5490  -67.0050   47.3910 C   0  0  0  0  0  3  0  0  0  0  0  0
  -34.1730  -67.0460   47.4270 C   0  0  0  0  0  3  0  0  0  0  0  0
  -33.5300  -65.9520   47.9470 C   0  0  0  0  0  0  0  0  0  0  0  0
  -31.7640  -65.9030   48.0320 Cl  0  0  0  0  0  0  0  0  0  0  0  0
  -34.1960  -64.8520   48.4170 C   0  0  0  0  0  3  0  0  0  0  0  0
  -35.5710  -64.8240   48.3760 C   0  0  0  0  0  3  0  0  0  0  0  0
  -45.5860  -66.4930   53.0710 C   0  0  0  0  0  0  0  0  0  0  0  0
  -46.2650  -65.3060   52.9360 C   0  0  0  0  0  3  0  0  0  0  0  0
  -47.6230  -65.1620   53.1810 C   0  0  0  0  0  3  0  0  0  0  0  0
  -48.3680  -66.2510   53.5860 C   0  0  0  0  0  0  0  0  0  0  0  0
  -47.7080  -67.4530   53.7330 C   0  0  0  0  0  3  0  0  0  0  0  0
  -49.8400  -66.1480   53.8250 C   0  0  0  0  0  1  0  0  0  0  0  0
  -46.3420  -67.5680   53.4790 C   0  0  0  0  0  3  0  0  0  0  0  0
  1  2  2  0  0  0  0
  1 11  1  0  0  0  0
  2  3  1  0  0  0  0
  3 30  1  0  0  0  0
  3  4  1  0  0  0  0
  4  5  2  0  0  0  0
  5  6  1  0  0  0  0
  6 12  1  0  0  0  0
  7  8  2  0  0  0  0
  7  6  1  0  0  0  0
  9  7  1  0  0  0  0
 10  9  2  0  0  0  0
 11  9  1  0  0  0  0
 11  4  1  0  0  0  0
 13  1  1  0  0  0  0
 14 13  1  0  0  0  0
 15 14  1  0  0  0  0
 16 13  2  0  0  0  0
 17 18  1  0  0  0  0
 17 14  1  0  0  0  0
 18 20  2  0  0  0  0
 19 23  1  0  0  0  0
 19 18  1  0  0  0  0
 21 19  1  0  0  0  0
 22 17  1  0  0  0  0
 23 29  1  0  0  0  0
 24 25  1  0  0  0  0
 24 23  2  0  0  0  0
 25 26  2  0  0  0  0
 26 27  1  0  0  0  0
 26 28  1  0  0  0  0
 29 28  2  0  0  0  0
 30 36  1  0  0  0  0
 31 30  2  0  0  0  0
 31 32  1  0  0  0  0
 32 33  2  0  0  0  0
 33 34  1  0  0  0  0
 33 35  1  0  0  0  0
 36 34  2  0  0  0  0
M  END
>  <Pose>
1

>  <Score>
-8.145

$$$$
