/Users/jonathanwahrer/Desktop/Msc/3_Semester/Drug_Design_Praktikum/waehrer_HTS_screening/HTS_experiment/out/docking_results/vina_output/3e7o/2136_docked.pdbqt
 OpenBabel03192216573D

 33 37  0  0  1  0  0  0  0  0999 V2000
  -34.0860  -63.9970   48.1920 Cl  0  0  0  0  0  0  0  0  0  0  0  0
  -35.2500  -65.2850   47.9620 C   0  0  0  0  0  0  0  0  0  0  0  0
  -36.4620  -65.3220   48.6190 C   0  0  0  0  0  0  0  0  0  0  0  0
  -37.3630  -66.3610   48.4130 C   0  0  0  0  0  0  0  0  0  0  0  0
  -36.9850  -67.3350   47.5300 C   0  0  0  0  0  3  0  0  0  0  0  0
  -35.7820  -67.3160   46.8660 C   0  0  0  0  0  3  0  0  0  0  0  0
  -34.9020  -66.2950   47.0710 C   0  0  0  0  0  3  0  0  0  0  0  0
  -38.5440  -66.1120   49.2480 C   0  0  2  0  0  0  0  0  0  0  0  0
  -38.8020  -67.1930   50.1820 N   0  0  0  0  0  0  0  0  0  0  0  0
  -40.1770  -66.9090   50.6010 C   0  0  1  0  0  3  0  0  0  0  0  0
  -40.8830  -66.3700   49.4150 C   0  0  2  0  0  3  0  0  0  0  0  0
  -39.8000  -66.1030   48.4180 C   0  0  1  0  0  3  0  0  0  0  0  0
  -40.0610  -64.8090   47.7820 C   0  0  0  0  0  0  0  0  0  0  0  0
  -39.4960  -64.4180   46.7300 O   0  0  0  0  0  0  0  0  0  0  0  0
  -41.0360  -64.1480   48.5790 N   0  0  0  0  0  0  0  0  0  0  0  0
  -41.4210  -64.9810   49.6650 C   0  0  0  0  0  0  0  0  0  0  0  0
  -42.0930  -64.6840   50.6900 O   0  0  0  0  0  0  0  0  0  0  0  0
  -38.2900  -64.8560   49.9730 C   0  0  0  0  0  0  0  0  0  0  0  0
  -39.0160  -64.2700   50.7880 O   0  0  0  0  0  0  0  0  0  0  0  0
  -37.0080  -64.4070   49.5580 N   0  0  0  0  0  0  0  0  0  0  0  0
  -38.1430  -67.1660   51.0070 H   0  0  0  0  0  0  0  0  0  0  0  0
  -36.5120  -63.5330   49.8800 H   0  0  0  0  0  0  0  0  0  0  0  0
  -40.8500  -68.1410   51.1270 C   0  0  0  0  0  2  0  0  0  0  0  0
  -40.7770  -68.3030   52.5880 C   0  0  0  0  0  0  0  0  0  0  0  0
  -39.8780  -69.2420   53.0890 C   0  0  0  0  0  3  0  0  0  0  0  0
  -39.7710  -69.4010   54.4460 C   0  0  0  0  0  3  0  0  0  0  0  0
  -40.5150  -68.6740   55.3450 C   0  0  0  0  0  3  0  0  0  0  0  0
  -41.3930  -67.7560   54.8100 C   0  0  0  0  0  3  0  0  0  0  0  0
  -41.5400  -67.5550   53.4540 C   0  0  0  0  0  3  0  0  0  0  0  0
  -41.5560  -62.8100   48.3100 C   0  0  0  0  0  2  0  0  0  0  0  0
  -43.0660  -62.9170   48.1560 C   0  0  0  0  0  2  0  0  0  0  0  0
  -43.7150  -62.0890   49.0580 O   0  0  0  0  0  0  0  0  0  0  0  0
  -44.8350  -62.7310   49.5490 C   0  0  0  0  0  1  0  0  0  0  0  0
  2  1  1  0  0  0  0
  2  3  1  0  0  0  0
  3 20  1  0  0  0  0
  4  3  2  0  0  0  0
  5  4  1  0  0  0  0
  6  7  1  0  0  0  0
  6  5  2  0  0  0  0
  7  2  2  0  0  0  0
  8  4  1  6  0  0  0
  8 18  1  0  0  0  0
  8  9  1  0  0  0  0
  9 10  1  0  0  0  0
  9 21  1  0  0  0  0
 10 23  1  6  0  0  0
 11 16  1  1  0  0  0
 11 10  1  0  0  0  0
 12 13  1  1  0  0  0
 12  8  1  0  0  0  0
 12 11  1  0  0  0  0
 13 15  1  0  0  0  0
 14 13  2  0  0  0  0
 15 16  1  0  0  0  0
 16 17  2  0  0  0  0
 18 19  2  0  0  0  0
 20 22  1  0  0  0  0
 20 18  1  0  0  0  0
 23 24  1  0  0  0  0
 24 25  2  0  0  0  0
 24 29  1  0  0  0  0
 25 26  1  0  0  0  0
 26 27  2  0  0  0  0
 28 27  1  0  0  0  0
 29 28  2  0  0  0  0
 30 15  1  0  0  0  0
 31 30  1  0  0  0  0
 31 32  1  0  0  0  0
 32 33  1  0  0  0  0
M  END
>  <Pose>
1

>  <Score>
-8.249

$$$$
