MODEL 1
REMARK VINA RESULT:    -8.249      0.000      0.000
REMARK INTER + INTRA:         -11.432
REMARK INTER:                 -10.661
REMARK INTRA:                  -0.771
REMARK UNBOUND:                -0.771
REMARK  5 active torsions:
REMARK  status: ('A' for Active; 'I' for Inactive)
REMARK    1  A    between atoms: C_10  and  C_22 
REMARK    2  A    between atoms: N_15  and  C_18 
REMARK    3  A    between atoms: C_18  and  C_19 
REMARK    4  A    between atoms: C_19  and  O_20 
REMARK    5  A    between atoms: C_22  and  C_23 
ROOT
ATOM      1 Cl   UNK d   1     -34.086 -63.997  48.192  0.00  0.00    -0.082 Cl
ATOM      2  C   UNK d   1     -35.250 -65.285  47.962  0.00  0.00     0.061 A 
ATOM      3  C   UNK d   1     -36.462 -65.322  48.619  0.00  0.00     0.066 A 
ATOM      4  C   UNK d   1     -37.363 -66.361  48.413  0.00  0.00     0.019 A 
ATOM      5  C   UNK d   1     -36.985 -67.335  47.530  0.00  0.00     0.013 A 
ATOM      6  C   UNK d   1     -35.782 -67.316  46.866  0.00  0.00     0.002 A 
ATOM      7  C   UNK d   1     -34.902 -66.295  47.071  0.00  0.00     0.026 A 
ATOM      8  C   UNK d   1     -38.544 -66.112  49.248  0.00  0.00     0.279 A 
ATOM      9  N   UNK d   1     -38.802 -67.193  50.182  0.00  0.00     0.114 N 
ATOM     10  C   UNK d   1     -40.177 -66.909  50.601  0.00  0.00     0.240 C 
ATOM     11  C   UNK d   1     -40.883 -66.370  49.415  0.00  0.00     0.128 C 
ATOM     12  C   UNK d   1     -39.800 -66.103  48.418  0.00  0.00     0.147 C 
ATOM     13  C   UNK d   1     -40.061 -64.809  47.782  0.00  0.00     0.235 C 
ATOM     14  O   UNK d   1     -39.496 -64.418  46.730  0.00  0.00    -0.272 OA
ATOM     15  N   UNK d   1     -41.036 -64.148  48.579  0.00  0.00    -0.286 N 
ATOM     16  C   UNK d   1     -41.421 -64.981  49.665  0.00  0.00     0.233 C 
ATOM     17  O   UNK d   1     -42.093 -64.684  50.690  0.00  0.00    -0.272 OA
ATOM     18  C   UNK d   1     -38.290 -64.856  49.973  0.00  0.00     0.267 A 
ATOM     19  O   UNK d   1     -39.016 -64.270  50.788  0.00  0.00    -0.270 OA
ATOM     20  N   UNK d   1     -37.008 -64.407  49.558  0.00  0.00    -0.323 N 
ATOM     21  H   UNK d   1     -38.143 -67.166  51.007  0.00  0.00     0.318 HD
ATOM     22  H   UNK d   1     -36.512 -63.533  49.880  0.00  0.00     0.169 HD
ENDROOT
BRANCH  10  23
ATOM     23  C   UNK d   1     -40.850 -68.141  51.127  0.00  0.00     0.075 C 
BRANCH  23  24
ATOM     24  C   UNK d   1     -40.777 -68.303  52.588  0.00  0.00    -0.056 A 
ATOM     25  C   UNK d   1     -39.878 -69.242  53.089  0.00  0.00     0.007 A 
ATOM     26  C   UNK d   1     -39.771 -69.401  54.446  0.00  0.00     0.001 A 
ATOM     27  C   UNK d   1     -40.515 -68.674  55.345  0.00  0.00     0.000 A 
ATOM     28  C   UNK d   1     -41.393 -67.756  54.810  0.00  0.00     0.001 A 
ATOM     29  C   UNK d   1     -41.540 -67.555  53.454  0.00  0.00     0.007 A 
ENDBRANCH  23  24
ENDBRANCH  10  23
BRANCH  15  30
ATOM     30  C   UNK d   1     -41.556 -62.810  48.310  0.00  0.00     0.161 C 
BRANCH  30  31
ATOM     31  C   UNK d   1     -43.066 -62.917  48.156  0.00  0.00     0.187 C 
BRANCH  31  32
ATOM     32  O   UNK d   1     -43.715 -62.089  49.058  0.00  0.00    -0.394 OA
ATOM     33  C   UNK d   1     -44.835 -62.731  49.549  0.00  0.00     0.201 C 
ENDBRANCH  31  32
ENDBRANCH  30  31
ENDBRANCH  15  30
TORSDOF 5
ENDMDL
