/Users/jonathanwahrer/Desktop/Msc/3_Semester/Drug_Design_Praktikum/waehrer_HTS_screening/HTS_experiment/out/docking_results/vina_output/3e7o/2139_docked.pdbqt
 OpenBabel03192216573D

 27 30  0  0  0  0  0  0  0  0999 V2000
  -40.0390  -65.7630   50.1520 N   0  0  0  0  0  0  0  0  0  0  0  0
  -41.0090  -65.0700   49.4020 C   0  0  0  0  0  2  0  0  0  0  0  0
  -42.2770  -64.7010   50.1230 C   0  0  0  0  0  2  0  0  0  0  0  0
  -41.9350  -64.6900   51.5700 N   0  0  0  0  0  0  0  0  0  0  0  0
  -40.6570  -64.1560   51.8500 C   0  0  0  0  0  2  0  0  0  0  0  0
  -39.6300  -65.1700   51.3940 C   0  0  0  0  0  2  0  0  0  0  0  0
  -42.9230  -65.1740   52.4540 C   0  0  0  0  0  0  0  0  0  0  0  0
  -44.1210  -64.5190   52.5370 N   0  0  0  0  0  0  0  0  0  0  0  0
  -45.1160  -64.8480   53.3510 C   0  0  0  0  0  0  0  0  0  0  0  0
  -44.9540  -65.9050   54.1650 N   0  0  0  0  0  0  0  0  0  0  0  0
  -43.7900  -66.5930   54.1270 C   0  0  0  0  0  0  0  0  0  0  0  0
  -43.3580  -67.6750   54.8000 N   0  0  0  0  0  0  0  0  0  0  0  0
  -42.7400  -66.2510   53.2730 C   0  0  0  0  0  0  0  0  0  0  0  0
  -42.1270  -67.9830   54.3910 C   0  0  0  0  0  3  0  0  0  0  0  0
  -41.7270  -67.1150   53.4450 N   0  0  0  0  0  0  0  0  0  0  0  0
  -40.8030  -67.1580   52.9660 H   0  0  0  0  0  0  0  0  0  0  0  0
  -46.3560  -64.1120   53.3870 N   0  0  0  0  0  0  0  0  0  0  0  0
  -47.2720  -64.5830   53.3730 H   0  0  0  0  0  0  0  0  0  0  0  0
  -46.3380  -63.0740   53.4300 H   0  0  0  0  0  0  0  0  0  0  0  0
  -40.0510  -67.1740   50.1090 C   0  0  0  0  0  2  0  0  0  0  0  0
  -38.8140  -67.8470   50.5020 C   0  0  0  0  0  0  0  0  0  0  0  0
  -37.6370  -67.5890   49.8460 C   0  0  0  0  0  3  0  0  0  0  0  0
  -36.4280  -68.1950   50.1680 C   0  0  0  0  0  3  0  0  0  0  0  0
  -36.4360  -69.1010   51.2070 C   0  0  0  0  0  0  0  0  0  0  0  0
  -34.9510  -69.9050   51.6710 Cl  0  0  0  0  0  0  0  0  0  0  0  0
  -37.6160  -69.3620   51.8660 C   0  0  0  0  0  3  0  0  0  0  0  0
  -38.8010  -68.7530   51.5320 C   0  0  0  0  0  3  0  0  0  0  0  0
  1  6  1  0  0  0  0
  2  3  1  0  0  0  0
  2  1  1  0  0  0  0
  3  4  1  0  0  0  0
  4  5  1  0  0  0  0
  4  7  1  0  0  0  0
  6  5  1  0  0  0  0
  7  8  1  0  0  0  0
  7 13  2  0  0  0  0
  8  9  2  0  0  0  0
  9 17  1  0  0  0  0
  9 10  1  0  0  0  0
 11 10  2  0  0  0  0
 11 12  1  0  0  0  0
 13 15  1  0  0  0  0
 13 11  1  0  0  0  0
 14 12  2  0  0  0  0
 15 14  1  0  0  0  0
 16 15  1  0  0  0  0
 17 19  1  0  0  0  0
 18 17  1  0  0  0  0
 20  1  1  0  0  0  0
 20 21  1  0  0  0  0
 21 27  1  0  0  0  0
 22 23  1  0  0  0  0
 22 21  2  0  0  0  0
 23 24  2  0  0  0  0
 24 25  1  0  0  0  0
 24 26  1  0  0  0  0
 27 26  2  0  0  0  0
M  END
>  <Pose>
1

>  <Score>
-7.576

$$$$
