/Users/jonathanwahrer/Desktop/Msc/3_Semester/Drug_Design_Praktikum/waehrer_HTS_screening/HTS_experiment/out/docking_results/vina_output/3e7o/2149_docked.pdbqt
 OpenBabel03192216573D

 24 27  0  0  0  0  0  0  0  0999 V2000
  -36.6720  -69.2010   50.6390 N   0  0  0  0  0  0  0  0  0  0  0  0
  -35.5950  -69.1330   51.3990 N   0  0  0  0  0  0  0  0  0  0  0  0
  -34.7450  -68.2310   50.9430 N   0  0  0  0  0  0  0  0  0  0  0  0
  -35.2630  -67.6760   49.8480 C   0  0  0  0  0  0  0  0  0  0  0  0
  -36.4820  -68.2880   49.6530 C   0  0  0  0  0  0  0  0  0  0  0  0
  -37.2150  -67.9020   48.5990 N   0  0  0  0  0  0  0  0  0  0  0  0
  -36.7730  -66.9480   47.7610 C   0  0  0  0  0  3  0  0  0  0  0  0
  -35.5790  -66.3660   47.9710 N   0  0  0  0  0  0  0  0  0  0  0  0
  -34.7630  -66.6870   49.0090 C   0  0  0  0  0  0  0  0  0  0  0  0
  -37.8440  -70.0610   50.7890 C   0  0  0  0  0  2  0  0  0  0  0  0
  -38.7220  -69.4510   51.8210 C   0  0  0  0  0  0  0  0  0  0  0  0
  -38.8010  -70.0720   53.0370 C   0  0  0  0  0  3  0  0  0  0  0  0
  -39.5950  -69.5700   54.0560 C   0  0  0  0  0  3  0  0  0  0  0  0
  -40.3180  -68.4240   53.8390 C   0  0  0  0  0  0  0  0  0  0  0  0
  -41.3330  -67.7700   55.1200 Cl  0  0  0  0  0  0  0  0  0  0  0  0
  -40.2310  -67.8050   52.6090 C   0  0  0  0  0  3  0  0  0  0  0  0
  -39.4450  -68.3030   51.6010 C   0  0  0  0  0  3  0  0  0  0  0  0
  -33.5150  -66.0800   49.2340 N   0  0  0  0  0  0  0  0  0  0  0  0
  -32.2220  -66.6250   48.9130 C   0  0  0  0  0  2  0  0  0  0  0  0
  -31.5440  -65.6970   47.9750 C   0  0  0  0  0  2  0  0  0  0  0  0
  -32.0280  -64.3850   47.8730 N   0  0  0  0  0  0  0  0  0  0  0  0
  -32.8250  -63.8400   48.8880 C   0  0  0  0  0  2  0  0  0  0  0  0
  -32.6940  -64.2170   46.5940 C   0  0  0  0  0  1  0  0  0  0  0  0
  -33.4580  -64.7770   49.8470 C   0  0  0  0  0  2  0  0  0  0  0  0
  1 10  1  0  0  0  0
  1  2  1  0  0  0  0
  3  2  2  0  0  0  0
  4  3  1  0  0  0  0
  5  4  1  0  0  0  0
  5  1  1  0  0  0  0
  6  5  2  0  0  0  0
  7  8  2  0  0  0  0
  7  6  1  0  0  0  0
  8  9  1  0  0  0  0
  9 18  1  0  0  0  0
  9  4  2  0  0  0  0
 10 11  1  0  0  0  0
 11 12  1  0  0  0  0
 12 13  2  0  0  0  0
 14 13  1  0  0  0  0
 14 15  1  0  0  0  0
 16 14  2  0  0  0  0
 17 11  2  0  0  0  0
 17 16  1  0  0  0  0
 18 24  1  0  0  0  0
 19 18  1  0  0  0  0
 20 19  1  0  0  0  0
 21 20  1  0  0  0  0
 21 22  1  0  0  0  0
 22 24  1  0  0  0  0
 23 21  1  0  0  0  0
M  END
>  <Pose>
1

>  <Score>
-7.776

$$$$
