/Users/jonathanwahrer/Desktop/Msc/3_Semester/Drug_Design_Praktikum/waehrer_HTS_screening/HTS_experiment/out/docking_results/vina_output/3e7o/2164_docked.pdbqt
 OpenBabel03192216583D

 25 28  0  0  1  0  0  0  0  0999 V2000
  -43.9540  -66.3820   54.2190 C   0  0  2  0  0  3  0  0  0  0  0  0
  -44.6100  -66.1760   52.8780 C   0  0  0  0  0  2  0  0  0  0  0  0
  -43.6490  -65.1150   52.5390 N   0  0  0  0  0  0  0  0  0  0  0  0
  -43.3640  -65.0270   53.9590 C   0  0  0  0  0  2  0  0  0  0  0  0
  -42.9540  -67.5050   54.2420 C   0  0  0  0  0  0  0  0  0  0  0  0
  -41.6600  -67.2770   53.7480 N   0  0  0  0  0  0  0  0  0  0  0  0
  -41.4170  -66.2920   53.3630 H   0  0  0  0  0  0  0  0  0  0  0  0
  -43.3730  -68.5730   54.7100 O   0  0  0  0  0  0  0  0  0  0  0  0
  -40.6240  -68.2310   53.7060 C   0  0  0  0  0  0  0  0  0  0  0  0
  -39.8410  -68.3370   52.5470 C   0  0  0  0  0  3  0  0  0  0  0  0
  -38.8110  -69.2400   52.4210 C   0  0  0  0  0  0  0  0  0  0  0  0
  -37.7730  -69.3510   50.8280 Br  0  0  0  0  0  0  0  0  0  0  0  0
  -38.5190  -70.0800   53.4550 C   0  0  0  0  0  3  0  0  0  0  0  0
  -39.2620  -69.9980   54.5890 C   0  0  0  0  0  3  0  0  0  0  0  0
  -40.3100  -69.0840   54.7260 C   0  0  0  0  0  3  0  0  0  0  0  0
  -43.2450  -64.5080   51.3180 C   0  0  0  0  0  0  0  0  0  0  0  0
  -44.0350  -63.6240   50.6550 N   0  0  0  0  0  0  0  0  0  0  0  0
  -43.6230  -63.0540   49.4840 C   0  0  0  0  0  3  0  0  0  0  0  0
  -42.4320  -63.3470   48.9530 N   0  0  0  0  0  0  0  0  0  0  0  0
  -41.6060  -64.2070   49.5510 C   0  0  0  0  0  0  0  0  0  0  0  0
  -40.3780  -64.6600   49.2260 N   0  0  0  0  0  0  0  0  0  0  0  0
  -42.0240  -64.7820   50.7340 C   0  0  0  0  0  0  0  0  0  0  0  0
  -40.0280  -65.4980   50.1760 N   0  0  0  0  0  0  0  0  0  0  0  0
  -39.5690  -64.3110   48.0610 C   0  0  0  0  0  1  0  0  0  0  0  0
  -40.9950  -65.5940   51.0970 N   0  0  0  0  0  0  0  0  0  0  0  0
  1  5  1  6  0  0  0
  2  1  1  0  0  0  0
  3  2  1  0  0  0  0
  3  4  1  0  0  0  0
  4  1  1  0  0  0  0
  5  8  2  0  0  0  0
  6  5  1  0  0  0  0
  7  6  1  0  0  0  0
  9  6  1  0  0  0  0
  9 15  1  0  0  0  0
 10  9  2  0  0  0  0
 11 10  1  0  0  0  0
 11 13  2  0  0  0  0
 12 11  1  0  0  0  0
 13 14  1  0  0  0  0
 14 15  2  0  0  0  0
 16  3  1  0  0  0  0
 17 16  2  0  0  0  0
 18 17  1  0  0  0  0
 19 18  2  0  0  0  0
 19 20  1  0  0  0  0
 20 22  2  0  0  0  0
 21 20  1  0  0  0  0
 21 23  1  0  0  0  0
 22 25  1  0  0  0  0
 22 16  1  0  0  0  0
 23 25  2  0  0  0  0
 24 21  1  0  0  0  0
M  END
>  <Pose>
1

>  <Score>
-8.175

$$$$
