/Users/jonathanwahrer/Desktop/Msc/3_Semester/Drug_Design_Praktikum/waehrer_HTS_screening/HTS_experiment/out/docking_results/vina_output/3e7o/2170_docked.pdbqt
 OpenBabel03192216583D

 32 36  0  0  0  0  0  0  0  0999 V2000
  -40.6940  -64.6080   50.1010 N   0  0  0  0  0  0  0  0  0  0  0  0
  -41.8940  -64.5680   50.6390 N   0  0  0  0  0  0  0  0  0  0  0  0
  -42.7200  -63.7640   49.9550 C   0  0  0  0  0  0  0  0  0  0  0  0
  -43.9370  -63.7360   50.5200 N   0  0  0  0  0  0  0  0  0  0  0  0
  -43.9330  -64.5360   51.6080 C   0  0  0  0  0  0  0  0  0  0  0  0
  -42.6350  -65.0550   51.6700 C   0  0  0  0  0  0  0  0  0  0  0  0
  -42.3960  -65.9070   52.7270 C   0  0  0  0  0  0  0  0  0  0  0  0
  -41.2330  -66.4000   52.8270 O   0  0  0  0  0  0  0  0  0  0  0  0
  -43.3340  -66.2400   53.6550 N   0  0  0  0  0  0  0  0  0  0  0  0
  -44.5550  -65.7010   53.5230 C   0  0  0  0  0  0  0  0  0  0  0  0
  -45.4190  -66.0250   54.4020 O   0  0  0  0  0  0  0  0  0  0  0  0
  -44.8610  -64.8630   52.5230 N   0  0  0  0  0  0  0  0  0  0  0  0
  -46.1890  -64.3180   52.4390 C   0  0  0  0  0  1  0  0  0  0  0  0
  -43.0020  -67.1440   54.7320 C   0  0  0  0  0  1  0  0  0  0  0  0
  -41.9730  -63.2780   48.9310 N   0  0  0  0  0  0  0  0  0  0  0  0
  -40.7350  -63.7840   49.0090 C   0  0  0  0  0  0  0  0  0  0  0  0
  -39.5120  -65.3320   50.5080 C   0  0  0  0  0  2  0  0  0  0  0  0
  -39.4740  -66.7230   50.0220 C   0  0  0  0  0  0  0  0  0  0  0  0
  -40.3660  -67.2080   49.2920 O   0  0  0  0  0  0  0  0  0  0  0  0
  -38.3440  -67.5550   50.4170 C   0  0  0  0  0  0  0  0  0  0  0  0
  -38.4730  -68.5990   51.3070 C   0  0  0  0  0  3  0  0  0  0  0  0
  -37.4010  -69.3860   51.6770 C   0  0  0  0  0  3  0  0  0  0  0  0
  -36.1360  -69.1470   51.1570 C   0  0  0  0  0  0  0  0  0  0  0  0
  -34.7560  -70.1320   51.6120 Cl  0  0  0  0  0  0  0  0  0  0  0  0
  -35.9860  -68.1050   50.2650 C   0  0  0  0  0  3  0  0  0  0  0  0
  -37.0630  -67.3250   49.9010 C   0  0  0  0  0  3  0  0  0  0  0  0
  -39.6270  -63.5460   48.1460 N   0  0  0  0  0  0  0  0  0  0  0  0
  -39.1830  -64.5350   47.1790 C   0  0  0  0  0  2  0  0  0  0  0  0
  -37.6750  -64.5090   47.1540 C   0  0  0  0  0  2  0  0  0  0  0  0
  -37.2220  -63.2090   46.8780 O   0  0  0  0  0  0  0  0  0  0  0  0
  -37.4730  -62.3470   47.9230 C   0  0  0  0  0  2  0  0  0  0  0  0
  -38.9280  -62.2900   48.2270 C   0  0  0  0  0  2  0  0  0  0  0  0
  1 17  1  0  0  0  0
  1  2  1  0  0  0  0
  2  6  1  0  0  0  0
  3  4  2  0  0  0  0
  3  2  1  0  0  0  0
  4  5  1  0  0  0  0
  5  6  2  0  0  0  0
  5 12  1  0  0  0  0
  6  7  1  0  0  0  0
  7  8  2  0  0  0  0
  7  9  1  0  0  0  0
  9 14  1  0  0  0  0
 10  9  1  0  0  0  0
 10 11  2  0  0  0  0
 12 10  1  0  0  0  0
 13 12  1  0  0  0  0
 15 16  2  0  0  0  0
 15  3  1  0  0  0  0
 16  1  1  0  0  0  0
 18 20  1  0  0  0  0
 18 17  1  0  0  0  0
 19 18  2  0  0  0  0
 20 21  1  0  0  0  0
 21 22  2  0  0  0  0
 23 24  1  0  0  0  0
 23 22  1  0  0  0  0
 25 23  2  0  0  0  0
 26 25  1  0  0  0  0
 26 20  2  0  0  0  0
 27 32  1  0  0  0  0
 27 16  1  0  0  0  0
 28 27  1  0  0  0  0
 29 28  1  0  0  0  0
 30 29  1  0  0  0  0
 30 31  1  0  0  0  0
 31 32  1  0  0  0  0
M  END
>  <Pose>
1

>  <Score>
-8.187

$$$$
