MODEL 1
REMARK VINA RESULT:    -9.292      0.000      0.000
REMARK INTER + INTRA:         -10.051
REMARK INTER:                 -10.379
REMARK INTRA:                   0.327
REMARK UNBOUND:                 0.327
REMARK  2 active torsions:
REMARK  status: ('A' for Active; 'I' for Inactive)
REMARK    1  A    between atoms: C_10  and  N_11 
REMARK    2  A    between atoms: N_14  and  C_17 
ROOT
ATOM      1  N   UNK d   1     -37.159 -69.311  51.462  0.00  0.00    -0.384 N 
ATOM      2  C   UNK d   1     -37.842 -68.793  50.301  0.00  0.00     0.142 C 
ATOM      3  C   UNK d   1     -37.190 -67.491  49.913  0.00  0.00     0.144 C 
ATOM      4  N   UNK d   1     -35.742 -67.548  49.930  0.00  0.00    -0.362 N 
ATOM      5  C   UNK d   1     -35.079 -68.108  51.091  0.00  0.00     0.144 C 
ATOM      6  C   UNK d   1     -35.720 -69.433  51.412  0.00  0.00     0.142 C 
ENDROOT
BRANCH   1   7
ATOM      7  C   UNK d   1     -37.945 -69.678  52.587  0.00  0.00     0.134 C 
ATOM      8  C   UNK d   1     -39.083 -69.118  52.928  0.00  0.00     0.124 A 
ATOM      9  N   UNK d   1     -39.670 -68.054  52.186  0.00  0.00    -0.340 N 
ATOM     10  N   UNK d   1     -39.776 -69.576  54.078  0.00  0.00    -0.308 N 
ATOM     11  C   UNK d   1     -40.897 -67.426  52.524  0.00  0.00     0.049 A 
ATOM     12  H   UNK d   1     -39.149 -67.729  51.343  0.00  0.00     0.167 HD
ATOM     13  C   UNK d   1     -41.577 -67.864  53.642  0.00  0.00     0.060 A 
ATOM     14  C   UNK d   1     -41.467 -66.395  51.809  0.00  0.00     0.032 A 
ATOM     15  C   UNK d   1     -42.769 -67.295  54.019  0.00  0.00     0.043 A 
ATOM     16  C   UNK d   1     -40.995 -68.968  54.433  0.00  0.00     0.259 A 
ATOM     17  C   UNK d   1     -43.324 -66.266  53.292  0.00  0.00     0.035 A 
ATOM     18 Cl   UNK d   1     -44.859 -65.561  53.810  0.00  0.00    -0.084 Cl
ATOM     19  C   UNK d   1     -42.660 -65.814  52.173  0.00  0.00     0.026 A 
ATOM     20  O   UNK d   1     -41.671 -69.326  55.452  0.00  0.00    -0.267 OA
ATOM     21  H   UNK d   1     -39.410 -70.353  54.674  0.00  0.00     0.170 HD
ENDBRANCH   1   7
BRANCH   4  22
ATOM     22  C   UNK d   1     -34.995 -67.057  48.815  0.00  0.00     0.142 A 
ATOM     23  N   UNK d   1     -35.075 -67.712  47.640  0.00  0.00    -0.224 NA
ATOM     24  C   UNK d   1     -34.380 -67.277  46.551  0.00  0.00     0.237 A 
ATOM     25  N   UNK d   1     -33.595 -66.180  46.627  0.00  0.00    -0.222 NA
ATOM     26  C   UNK d   1     -33.476 -65.488  47.764  0.00  0.00     0.162 A 
ATOM     27  N   UNK d   1     -32.782 -64.389  48.110  0.00  0.00    -0.256 N 
ATOM     28  C   UNK d   1     -34.194 -65.947  48.870  0.00  0.00     0.076 A 
ATOM     29  N   UNK d   1     -33.038 -64.144  49.383  0.00  0.00    -0.182 NA
ATOM     30  C   UNK d   1     -31.897 -63.589  47.258  0.00  0.00     0.182 C 
ATOM     31  C   UNK d   1     -33.899 -65.080  49.875  0.00  0.00     0.158 A 
ENDBRANCH   4  22
TORSDOF 2
ENDMDL
