MODEL 1
REMARK VINA RESULT:    -8.534      0.000      0.000
REMARK INTER + INTRA:         -11.702
REMARK INTER:                 -10.529
REMARK INTRA:                  -1.173
REMARK UNBOUND:                -1.173
REMARK  4 active torsions:
REMARK  status: ('A' for Active; 'I' for Inactive)
REMARK    1  A    between atoms: C_13  and  C_14 
REMARK    2  A    between atoms: C_14  and  N_15 
REMARK    3  A    between atoms: N_18  and  C_21 
REMARK    4  A    between atoms: C_24  and  O_27 
ROOT
ATOM      1  N   UNK d   1     -38.255 -64.519  48.438  0.00  0.00    -0.064 N 
ATOM      2  C   UNK d   1     -38.686 -64.300  49.732  0.00  0.00     0.255 C 
ATOM      3  C   UNK d   1     -40.250 -64.379  49.812  0.00  0.00     0.150 C 
ATOM      4  N   UNK d   1     -40.394 -65.899  49.612  0.00  0.00    -0.378 N 
ATOM      5  C   UNK d   1     -40.052 -66.282  48.331  0.00  0.00     0.150 C 
ATOM      6  C   UNK d   1     -39.415 -65.045  47.660  0.00  0.00     0.255 C 
ATOM      7  H   UNK d   1     -38.121 -63.560  47.980  0.00  0.00     0.280 HD
ENDROOT
BRANCH   1   8
ATOM      8  C   UNK d   1     -37.139 -65.274  48.068  0.00  0.00     0.274 C 
BRANCH   8   9
ATOM      9  C   UNK d   1     -35.853 -65.186  48.778  0.00  0.00    -0.014 A 
ATOM     10  C   UNK d   1     -35.571 -66.352  49.558  0.00  0.00     0.008 A 
ATOM     11  C   UNK d   1     -36.503 -67.323  49.669  0.00  0.00     0.041 A 
ATOM     12  C   UNK d   1     -34.369 -66.450  50.202  0.00  0.00     0.093 A 
ATOM     13  C   UNK d   1     -36.275 -68.439  50.429  0.00  0.00     0.071 A 
ATOM     14 Cl   UNK d   1     -37.468 -69.720  50.673  0.00  0.00    -0.081 Cl
ATOM     15  C   UNK d   1     -35.060 -68.596  51.103  0.00  0.00     0.131 A 
ATOM     16  C   UNK d   1     -34.128 -67.604  50.986  0.00  0.00     0.080 A 
ATOM     17  O   UNK d   1     -34.779 -69.746  51.875  0.00  0.00    -0.190 OA
ATOM     18  O   UNK d   1     -33.456 -65.523  50.140  0.00  0.00    -0.275 OA
ATOM     19  C   UNK d   1     -33.673 -64.422  49.429  0.00  0.00     0.288 A 
ATOM     20  O   UNK d   1     -32.792 -63.554  49.384  0.00  0.00    -0.260 OA
ATOM     21  C   UNK d   1     -34.887 -64.242  48.736  0.00  0.00     0.092 A 
ENDBRANCH   8   9
ENDBRANCH   1   8
BRANCH   4  22
ATOM     22  C   UNK d   1     -40.774 -66.565  50.798  0.00  0.00     0.030 A 
ATOM     23  C   UNK d   1     -40.084 -67.540  51.430  0.00  0.00     0.032 A 
ATOM     24  C   UNK d   1     -40.426 -67.969  52.745  0.00  0.00     0.039 A 
ATOM     25  C   UNK d   1     -41.472 -67.412  53.431  0.00  0.00     0.068 A 
ATOM     26  C   UNK d   1     -42.194 -66.413  52.785  0.00  0.00     0.039 A 
ATOM     27  C   UNK d   1     -41.856 -66.006  51.503  0.00  0.00     0.032 A 
BRANCH  25  28
ATOM     28  O   UNK d   1     -41.768 -67.866  54.711  0.00  0.00    -0.356 OA
ATOM     29  C   UNK d   1     -40.803 -68.610  55.471  0.00  0.00     0.210 C 
ENDBRANCH  25  28
ENDBRANCH   4  22
TORSDOF 4
ENDMDL
