/Users/jonathanwahrer/Desktop/Msc/3_Semester/Drug_Design_Praktikum/waehrer_HTS_screening/HTS_experiment/out/docking_results/vina_output/3e7o/2195_docked.pdbqt
 OpenBabel03192216583D

 29 32  0  0  1  0  0  0  0  0999 V2000
  -37.8690  -65.4650   48.9500 C   0  0  0  0  0  0  0  0  0  0  0  0
  -38.6280  -66.4170   49.4880 N   0  0  0  0  0  0  0  0  0  0  0  0
  -39.7700  -66.1320   50.1370 C   0  0  0  0  0  0  0  0  0  0  0  0
  -40.7110  -66.8900   50.7650 N   0  0  0  0  0  0  0  0  0  0  0  0
  -41.6170  -66.0530   51.2240 N   0  0  0  0  0  0  0  0  0  0  0  0
  -41.3140  -64.8030   50.9290 N   0  0  0  0  0  0  0  0  0  0  0  0
  -40.1630  -64.8050   50.2470 C   0  0  0  0  0  0  0  0  0  0  0  0
  -39.3830  -63.8040   49.6930 C   0  0  0  0  0  0  0  0  0  0  0  0
  -38.2640  -64.1930   49.0670 N   0  0  0  0  0  0  0  0  0  0  0  0
  -36.6030  -65.7430   48.2170 C   0  0  1  0  0  3  0  0  0  0  0  0
  -35.8140  -64.5620   47.8650 C   0  0  0  0  0  2  0  0  0  0  0  0
  -34.6190  -64.2740   48.5190 N   0  0  0  0  0  0  0  0  0  0  0  0
  -34.2480  -64.9410   49.6790 C   0  0  0  0  0  2  0  0  0  0  0  0
  -35.1870  -66.0010   50.1760 C   0  0  0  0  0  2  0  0  0  0  0  0
  -35.7890  -66.7220   49.0240 C   0  0  0  0  0  2  0  0  0  0  0  0
  -34.0610  -62.6870   48.3090 S   0  0  0  0  0  0  0  0  0  0  0  0
  -32.7300  -62.4430   48.9290 O   0  0  0  0  0  0  0  0  0  0  0  0
  -35.0970  -61.7440   48.8850 O   0  0  0  0  0  0  0  0  0  0  0  0
  -33.9590  -62.2670   46.5620 C   0  0  0  0  0  1  0  0  0  0  0  0
  -39.7580  -62.4720   49.7920 O   0  0  0  0  0  0  0  0  0  0  0  0
  -39.6850  -61.8650   48.9900 H   0  0  0  0  0  0  0  0  0  0  0  0
  -40.7050  -68.3140   50.8930 C   0  0  0  0  0  2  0  0  0  0  0  0
  -40.2610  -68.7890   52.2250 C   0  0  0  0  0  0  0  0  0  0  0  0
  -39.0520  -69.4320   52.3220 C   0  0  0  0  0  0  0  0  0  0  0  0
  -38.5600  -69.9100   53.5340 C   0  0  0  0  0  3  0  0  0  0  0  0
  -38.0690  -69.6770   50.8930 Cl  0  0  0  0  0  0  0  0  0  0  0  0
  -39.2950  -69.7430   54.6880 C   0  0  0  0  0  3  0  0  0  0  0  0
  -40.5080  -69.0980   54.5990 C   0  0  0  0  0  3  0  0  0  0  0  0
  -40.9900  -68.6240   53.3810 C   0  0  0  0  0  3  0  0  0  0  0  0
  1  9  1  0  0  0  0
  1  2  2  0  0  0  0
  2  3  1  0  0  0  0
  3  7  2  0  0  0  0
  3  4  1  0  0  0  0
  4 22  1  0  0  0  0
  4  5  1  0  0  0  0
  6  5  2  0  0  0  0
  7  6  1  0  0  0  0
  8 20  1  0  0  0  0
  8  7  1  0  0  0  0
  9  8  2  0  0  0  0
 10  1  1  1  0  0  0
 10 15  1  0  0  0  0
 11 10  1  0  0  0  0
 11 12  1  0  0  0  0
 12 13  1  0  0  0  0
 13 14  1  0  0  0  0
 15 14  1  0  0  0  0
 16 12  1  0  0  0  0
 16 18  2  0  0  0  0
 16 17  2  0  0  0  0
 19 16  1  0  0  0  0
 21 20  1  0  0  0  0
 22 23  1  0  0  0  0
 23 24  2  0  0  0  0
 23 29  1  0  0  0  0
 24 25  1  0  0  0  0
 25 27  2  0  0  0  0
 26 24  1  0  0  0  0
 28 27  1  0  0  0  0
 29 28  2  0  0  0  0
M  END
>  <Pose>
1

>  <Score>
-8.551

$$$$
