MODEL 1
REMARK VINA RESULT:    -7.450      0.000      0.000
REMARK INTER + INTRA:          -9.555
REMARK INTER:                  -9.628
REMARK INTRA:                   0.074
REMARK UNBOUND:                 0.074
REMARK  5 active torsions:
REMARK  status: ('A' for Active; 'I' for Inactive)
REMARK    1  A    between atoms: S_1  and  N_4 
REMARK    2  A    between atoms: S_1  and  C_22 
REMARK    3  A    between atoms: C_6  and  C_10 
REMARK       I    between atoms: C_10  and  N_12 
REMARK    4  A    between atoms: N_15  and  C_18 
REMARK    5  A    between atoms: C_18  and  C_19 
ROOT
ATOM      1  N   UNK d   1     -40.021 -65.173  50.838  0.00  0.00    -0.202 NA
ATOM      2  C   UNK d   1     -41.217 -64.817  51.629  0.00  0.00     0.149 C 
ATOM      3  C   UNK d   1     -42.371 -64.803  50.696  0.00  0.00     0.227 C 
ATOM      4  O   UNK d   1     -42.252 -64.155  49.524  0.00  0.00    -0.374 OA
ATOM      5  C   UNK d   1     -41.041 -63.825  49.052  0.00  0.00     0.184 C 
ATOM      6  C   UNK d   1     -39.865 -64.103  49.924  0.00  0.00     0.134 C 
ENDROOT
BRANCH   3   7
ATOM      7  C   UNK d   1     -43.533 -64.242  51.448  0.00  0.00     0.250 C 
ATOM      8  O   UNK d   1     -43.937 -63.098  51.108  0.00  0.00    -0.270 OA
ATOM      9  N   UNK d   1     -44.202 -64.895  52.499  0.00  0.00    -0.347 N 
ATOM     10  C   UNK d   1     -43.851 -66.211  52.998  0.00  0.00     0.156 C 
ATOM     11  C   UNK d   1     -45.342 -64.274  53.189  0.00  0.00     0.156 C 
ATOM     12  C   UNK d   1     -44.733 -66.486  54.199  0.00  0.00     0.292 C 
ATOM     13  N   UNK d   1     -46.145 -66.491  53.867  0.00  0.00     0.091 N 
ATOM     14  C   UNK d   1     -46.461 -65.321  53.110  0.00  0.00     0.292 C 
BRANCH  13  15
ATOM     15  C   UNK d   1     -46.451 -67.731  53.229  0.00  0.00     0.277 C 
BRANCH  15  16
ATOM     16  C   UNK d   1     -47.476 -68.555  53.959  0.00  0.00     0.014 A 
ATOM     17  C   UNK d   1     -48.834 -68.582  53.258  0.00  0.00     0.007 A 
ATOM     18  C   UNK d   1     -48.648 -67.964  54.609  0.00  0.00     0.007 A 
ENDBRANCH  15  16
ENDBRANCH  13  15
ENDBRANCH   3   7
BRANCH   1  19
ATOM     19  S   UNK d   1     -40.109 -66.751  50.258  0.00  0.00     0.245 S 
ATOM     20  O   UNK d   1     -41.319 -67.417  50.927  0.00  0.00    -0.206 OA
ATOM     21  O   UNK d   1     -40.416 -66.834  48.782  0.00  0.00    -0.206 OA
BRANCH  19  22
ATOM     22  C   UNK d   1     -38.744 -67.733  50.683  0.00  0.00     0.096 A 
ATOM     23  C   UNK d   1     -37.519 -67.580  50.072  0.00  0.00     0.056 A 
ATOM     24  C   UNK d   1     -36.442 -68.396  50.363  0.00  0.00     0.025 A 
ATOM     25 Cl   UNK d   1     -37.239 -66.253  48.928  0.00  0.00    -0.083 Cl
ATOM     26  C   UNK d   1     -36.583 -69.396  51.293  0.00  0.00     0.002 A 
ATOM     27  C   UNK d   1     -37.809 -69.564  51.920  0.00  0.00     0.002 A 
ATOM     28  C   UNK d   1     -38.870 -68.754  51.627  0.00  0.00     0.026 A 
ENDBRANCH  19  22
ENDBRANCH   1  19
TORSDOF 5
ENDMDL
