MODEL 1
REMARK VINA RESULT:    -8.027      0.000      0.000
REMARK INTER + INTRA:          -8.357
REMARK INTER:                  -8.497
REMARK INTRA:                   0.140
REMARK UNBOUND:                 0.140
REMARK  1 active torsions:
REMARK  status: ('A' for Active; 'I' for Inactive)
REMARK    1  A    between atoms: C_9  and  C_21 
ROOT
ATOM      1 Cl   UNK d   1     -38.100 -69.993  51.055  0.00  0.00    -0.081 Cl
ATOM      2  C   UNK d   1     -36.646 -69.028  50.933  0.00  0.00     0.070 A 
ATOM      3  C   UNK d   1     -36.745 -67.753  50.356  0.00  0.00     0.107 A 
ATOM      4  C   UNK d   1     -35.624 -66.973  50.246  0.00  0.00    -0.007 A 
ATOM      5  C   UNK d   1     -34.424 -67.507  50.727  0.00  0.00     0.035 A 
ATOM      6  C   UNK d   1     -34.338 -68.761  51.291  0.00  0.00     0.036 A 
ATOM      7  C   UNK d   1     -35.467 -69.551  51.404  0.00  0.00     0.050 A 
ATOM      8 Cl   UNK d   1     -32.817 -69.411  51.888  0.00  0.00    -0.084 Cl
ATOM      9  C   UNK d   1     -35.635 -65.626  49.656  0.00  0.00     0.107 A 
ATOM     10  C   UNK d   1     -36.990 -65.252  49.215  0.00  0.00     0.075 A 
ATOM     11  C   UNK d   1     -38.090 -66.041  49.334  0.00  0.00     0.167 A 
ATOM     12  N   UNK d   1     -39.325 -65.646  48.908  0.00  0.00    -0.283 N 
ATOM     13  C   UNK d   1     -39.429 -64.438  48.360  0.00  0.00     0.332 A 
ATOM     14  O   UNK d   1     -40.559 -64.026  47.948  0.00  0.00    -0.246 OA
ATOM     15  N   UNK d   1     -38.364 -63.622  48.222  0.00  0.00    -0.270 N 
ATOM     16  C   UNK d   1     -37.149 -63.999  48.637  0.00  0.00     0.262 A 
ATOM     17  O   UNK d   1     -36.156 -63.238  48.510  0.00  0.00    -0.267 OA
ATOM     18  C   UNK d   1     -38.544 -62.310  47.616  0.00  0.00     0.164 C 
ATOM     19  C   UNK d   1     -40.475 -66.512  49.048  0.00  0.00     0.163 C 
ATOM     20  O   UNK d   1     -37.962 -67.280  49.901  0.00  0.00    -0.290 OA
ENDROOT
BRANCH   9  21
ATOM     21  C   UNK d   1     -34.641 -65.510  48.538  0.00  0.00     0.078 A 
ATOM     22  C   UNK d   1     -34.814 -66.163  47.341  0.00  0.00     0.197 A 
ATOM     23  N   UNK d   1     -33.938 -66.087  46.327  0.00  0.00    -0.281 N 
ATOM     24  O   UNK d   1     -35.944 -66.935  47.169  0.00  0.00    -0.171 OA
ATOM     25  C   UNK d   1     -32.835 -65.334  46.496  0.00  0.00     0.332 A 
ATOM     26  C   UNK d   1     -34.151 -66.786  45.073  0.00  0.00     0.163 C 
ATOM     27  O   UNK d   1     -32.015 -65.270  45.534  0.00  0.00    -0.246 OA
ATOM     28  N   UNK d   1     -32.625 -64.678  47.651  0.00  0.00    -0.270 N 
ATOM     29  C   UNK d   1     -33.488 -64.739  48.675  0.00  0.00     0.262 A 
ATOM     30  C   UNK d   1     -31.426 -63.883  47.785  0.00  0.00     0.164 C 
ATOM     31  O   UNK d   1     -33.320 -64.139  49.763  0.00  0.00    -0.267 OA
ENDBRANCH   9  21
TORSDOF 1
ENDMDL
