/Users/jonathanwahrer/Desktop/Msc/3_Semester/Drug_Design_Praktikum/waehrer_HTS_screening/HTS_experiment/out/docking_results/vina_output/3e7o/2214_docked.pdbqt
 OpenBabel03192217003D

 34 38  0  0  1  0  0  0  0  0999 V2000
  -41.4410  -67.2840   52.7880 Cl  0  0  0  0  0  0  0  0  0  0  0  0
  -40.0300  -67.8130   51.8970 C   0  0  0  0  0  0  0  0  0  0  0  0
  -39.4410  -67.0390   50.9340 C   0  0  0  0  0  3  0  0  0  0  0  0
  -38.3160  -67.5000   50.2460 C   0  0  0  0  0  0  0  0  0  0  0  0
  -37.8320  -68.7340   50.5650 C   0  0  0  0  0  0  0  0  0  0  0  0
  -38.4350  -69.5310   51.5530 C   0  0  0  0  0  3  0  0  0  0  0  0
  -39.5350  -69.0800   52.2250 C   0  0  0  0  0  3  0  0  0  0  0  0
  -36.6960  -69.0030   49.7510 N   0  0  0  0  0  0  0  0  0  0  0  0
  -36.4590  -67.9090   48.8980 C   0  0  0  0  0  0  0  0  0  0  0  0
  -35.5110  -67.8590   48.0510 O   0  0  0  0  0  0  0  0  0  0  0  0
  -37.4860  -66.9030   49.1860 C   0  0  1  0  0  0  0  0  0  0  0  0
  -38.3600  -66.6650   48.0590 N   0  0  0  0  0  0  0  0  0  0  0  0
  -38.2090  -65.3220   47.5980 C   0  0  2  0  0  3  0  0  0  0  0  0
  -37.0430  -64.7810   48.3250 C   0  0  1  0  0  3  0  0  0  0  0  0
  -36.9010  -65.5730   49.5960 C   0  0  2  0  0  3  0  0  0  0  0  0
  -35.4340  -65.6260   49.7800 C   0  0  0  0  0  0  0  0  0  0  0  0
  -34.7870  -65.8740   50.8280 O   0  0  0  0  0  0  0  0  0  0  0  0
  -34.7740  -65.3410   48.5280 N   0  0  0  0  0  0  0  0  0  0  0  0
  -35.8000  -65.1480   47.5610 C   0  0  0  0  0  0  0  0  0  0  0  0
  -35.6520  -65.2700   46.3220 O   0  0  0  0  0  0  0  0  0  0  0  0
  -36.1020  -69.8860   49.7670 H   0  0  0  0  0  0  0  0  0  0  0  0
  -39.3680  -66.8130   48.2850 H   0  0  0  0  0  0  0  0  0  0  0  0
  -39.4680  -64.5090   47.7430 C   0  0  0  0  0  2  0  0  0  0  0  0
  -39.3760  -63.3990   48.6730 C   0  0  0  0  0  0  0  0  0  0  0  0
  -38.9770  -62.2830   48.2810 O   0  0  0  0  0  0  0  0  0  0  0  0
  -39.7330  -63.5550   50.0310 N   0  0  0  0  0  0  0  0  0  0  0  0
  -40.4180  -62.8910   50.4610 H   0  0  0  0  0  0  0  0  0  0  0  0
  -39.3580  -64.2970   50.6520 H   0  0  0  0  0  0  0  0  0  0  0  0
  -33.3430  -65.2730   48.3200 C   0  0  0  0  0  2  0  0  0  0  0  0
  -32.7380  -63.9770   48.7870 C   0  0  1  0  0  3  0  0  0  0  0  0
  -31.4250  -63.8850   48.3330 O   0  0  0  0  0  0  0  0  0  0  0  0
  -31.4580  -63.2330   47.1210 C   0  0  0  0  0  2  0  0  0  0  0  0
  -32.6650  -62.3210   47.1110 C   0  0  0  0  0  2  0  0  0  0  0  0
  -33.4560  -62.7570   48.3290 C   0  0  0  0  0  2  0  0  0  0  0  0
  2  7  1  0  0  0  0
  2  1  1  0  0  0  0
  3  2  2  0  0  0  0
  4  5  2  0  0  0  0
  4  3  1  0  0  0  0
  5  6  1  0  0  0  0
  6  7  2  0  0  0  0
  8 21  1  0  0  0  0
  8  5  1  0  0  0  0
  9  8  1  0  0  0  0
 10  9  2  0  0  0  0
 11  9  1  6  0  0  0
 11 15  1  0  0  0  0
 11  4  1  0  0  0  0
 12 22  1  0  0  0  0
 12 11  1  0  0  0  0
 13 23  1  1  0  0  0
 13 12  1  0  0  0  0
 13 14  1  0  0  0  0
 14 19  1  6  0  0  0
 14 15  1  0  0  0  0
 15 16  1  6  0  0  0
 16 17  2  0  0  0  0
 18 16  1  0  0  0  0
 19 18  1  0  0  0  0
 20 19  2  0  0  0  0
 23 24  1  0  0  0  0
 24 26  1  0  0  0  0
 25 24  2  0  0  0  0
 26 27  1  0  0  0  0
 26 28  1  0  0  0  0
 29 18  1  0  0  0  0
 30 29  1  6  0  0  0
 31 30  1  0  0  0  0
 32 31  1  0  0  0  0
 33 32  1  0  0  0  0
 33 34  1  0  0  0  0
 34 30  1  0  0  0  0
M  END
>  <Pose>
1

>  <Score>
-7.930

$$$$
