MODEL 1
REMARK VINA RESULT:    -7.601      0.000      0.000
REMARK INTER + INTRA:         -11.007
REMARK INTER:                  -9.822
REMARK INTRA:                  -1.185
REMARK UNBOUND:                -1.185
REMARK  5 active torsions:
REMARK  status: ('A' for Active; 'I' for Inactive)
REMARK    1  A    between atoms: C_5  and  O_8 
REMARK    2  A    between atoms: O_8  and  C_9 
REMARK    3  A    between atoms: C_9  and  C_10 
REMARK       I    between atoms: C_10  and  N_12 
REMARK    4  A    between atoms: N_15  and  C_18 
REMARK    5  A    between atoms: C_20  and  N_24 
ROOT
ATOM      1  C   UNK d   1     -37.322 -63.526  48.341  0.00  0.00     0.177 C 
ATOM      2  O   UNK d   1     -37.482 -62.270  48.654  0.00  0.00    -0.175 OA
ATOM      3  N   UNK d   1     -38.431 -64.160  47.805  0.00  0.00    -0.358 N 
ATOM      4  C   UNK d   1     -39.683 -63.357  47.656  0.00  0.00     0.144 C 
ATOM      5  C   UNK d   1     -40.810 -64.272  48.065  0.00  0.00     0.144 C 
ATOM      6  N   UNK d   1     -40.371 -65.383  48.891  0.00  0.00    -0.362 N 
ATOM      7  C   UNK d   1     -39.437 -66.308  48.307  0.00  0.00     0.144 C 
ATOM      8  C   UNK d   1     -38.574 -65.515  47.339  0.00  0.00     0.144 C 
ENDROOT
BRANCH   6   9
ATOM      9  C   UNK d   1     -40.856 -65.521  50.209  0.00  0.00     0.146 A 
ATOM     10  N   UNK d   1     -40.671 -66.672  50.912  0.00  0.00    -0.045 NA
ATOM     11  C   UNK d   1     -41.104 -66.849  52.153  0.00  0.00     0.726 A 
ATOM     12  N   UNK d   1     -41.765 -65.815  52.736  0.00  0.00    -0.075 NA
ATOM     13  C   UNK d   1     -41.983 -64.668  52.118  0.00  0.00     0.140 A 
ATOM     14  C   UNK d   1     -41.526 -64.490  50.816  0.00  0.00     0.071 A 
BRANCH  11  15
ATOM     15  N   UNK d   1     -40.920 -68.039  52.898  0.00  0.00    -0.210 N 
ATOM     16  C   UNK d   1     -41.572 -68.194  54.194  0.00  0.00     0.167 C 
ATOM     17  C   UNK d   1     -40.447 -68.571  55.164  0.00  0.00     0.188 C 
ATOM     18  O   UNK d   1     -39.860 -69.743  54.770  0.00  0.00    -0.388 OA
ATOM     19  C   UNK d   1     -39.232 -69.695  53.548  0.00  0.00     0.188 C 
ATOM     20  C   UNK d   1     -40.106 -69.141  52.446  0.00  0.00     0.167 C 
ENDBRANCH  11  15
ENDBRANCH   6   9
BRANCH   1  21
ATOM     21  C   UNK d   1     -35.968 -64.042  48.621  0.00  0.00     0.262 C 
BRANCH  21  22
ATOM     22  O   UNK d   1     -35.722 -65.138  49.245  0.00  0.00    -0.343 OA
BRANCH  22  23
ATOM     23  C   UNK d   1     -35.452 -66.253  49.842  0.00  0.00     0.069 A 
ATOM     24  C   UNK d   1     -36.331 -67.356  49.913  0.00  0.00     0.038 A 
ATOM     25  C   UNK d   1     -35.986 -68.505  50.557  0.00  0.00     0.026 A 
ATOM     26  C   UNK d   1     -34.769 -68.665  51.178  0.00  0.00     0.034 A 
ATOM     27 Cl   UNK d   1     -34.344 -70.145  52.000  0.00  0.00    -0.084 Cl
ATOM     28  C   UNK d   1     -33.898 -67.600  51.121  0.00  0.00     0.026 A 
ATOM     29  C   UNK d   1     -34.209 -66.436  50.485  0.00  0.00     0.038 A 
ENDBRANCH  22  23
ENDBRANCH  21  22
ENDBRANCH   1  21
TORSDOF 5
ENDMDL
