/Users/jonathanwahrer/Desktop/Msc/3_Semester/Drug_Design_Praktikum/waehrer_HTS_screening/HTS_experiment/out/docking_results/vina_output/3e7o/2225_docked.pdbqt
 OpenBabel03192217003D

 29 32  0  0  0  0  0  0  0  0999 V2000
  -37.3220  -63.5260   48.3410 C   0  0  0  0  0  0  0  0  0  0  0  0
  -37.4820  -62.2700   48.6540 O   0  0  0  0  0  0  0  0  0  0  0  0
  -38.4310  -64.1600   47.8050 N   0  0  0  0  0  0  0  0  0  0  0  0
  -39.6830  -63.3570   47.6560 C   0  0  0  0  0  2  0  0  0  0  0  0
  -40.8100  -64.2720   48.0650 C   0  0  0  0  0  2  0  0  0  0  0  0
  -40.3710  -65.3830   48.8910 N   0  0  0  0  0  0  0  0  0  0  0  0
  -39.4370  -66.3080   48.3070 C   0  0  0  0  0  2  0  0  0  0  0  0
  -38.5740  -65.5150   47.3390 C   0  0  0  0  0  2  0  0  0  0  0  0
  -40.8560  -65.5210   50.2090 C   0  0  0  0  0  0  0  0  0  0  0  0
  -40.6710  -66.6720   50.9120 N   0  0  0  0  0  0  0  0  0  0  0  0
  -41.1040  -66.8490   52.1530 C   0  0  0  0  0  0  0  0  0  0  0  0
  -41.7650  -65.8150   52.7360 N   0  0  0  0  0  0  0  0  0  0  0  0
  -41.9830  -64.6680   52.1180 C   0  0  0  0  0  3  0  0  0  0  0  0
  -41.5260  -64.4900   50.8160 C   0  0  0  0  0  3  0  0  0  0  0  0
  -40.9200  -68.0390   52.8980 N   0  0  0  0  0  0  0  0  0  0  0  0
  -41.5720  -68.1940   54.1940 C   0  0  0  0  0  2  0  0  0  0  0  0
  -40.4470  -68.5710   55.1640 C   0  0  0  0  0  2  0  0  0  0  0  0
  -39.8600  -69.7430   54.7700 O   0  0  0  0  0  0  0  0  0  0  0  0
  -39.2320  -69.6950   53.5480 C   0  0  0  0  0  2  0  0  0  0  0  0
  -40.1060  -69.1410   52.4460 C   0  0  0  0  0  2  0  0  0  0  0  0
  -35.9680  -64.0420   48.6210 C   0  0  0  0  0  2  0  0  0  0  0  0
  -35.7220  -65.1380   49.2450 O   0  0  0  0  0  0  0  0  0  0  0  0
  -35.4520  -66.2530   49.8420 C   0  0  0  0  0  0  0  0  0  0  0  0
  -36.3310  -67.3560   49.9130 C   0  0  0  0  0  3  0  0  0  0  0  0
  -35.9860  -68.5050   50.5570 C   0  0  0  0  0  3  0  0  0  0  0  0
  -34.7690  -68.6650   51.1780 C   0  0  0  0  0  0  0  0  0  0  0  0
  -34.3440  -70.1450   52.0000 Cl  0  0  0  0  0  0  0  0  0  0  0  0
  -33.8980  -67.6000   51.1210 C   0  0  0  0  0  3  0  0  0  0  0  0
  -34.2090  -66.4360   50.4850 C   0  0  0  0  0  3  0  0  0  0  0  0
  1 21  1  0  0  0  0
  1  2  2  0  0  0  0
  3  1  1  0  0  0  0
  4  3  1  0  0  0  0
  4  5  1  0  0  0  0
  5  6  1  0  0  0  0
  6  9  1  0  0  0  0
  7  6  1  0  0  0  0
  8  3  1  0  0  0  0
  8  7  1  0  0  0  0
  9 14  2  0  0  0  0
  9 10  1  0  0  0  0
 10 11  2  0  0  0  0
 11 12  1  0  0  0  0
 11 15  1  0  0  0  0
 13 12  2  0  0  0  0
 14 13  1  0  0  0  0
 15 16  1  0  0  0  0
 16 17  1  0  0  0  0
 18 17  1  0  0  0  0
 19 18  1  0  0  0  0
 20 15  1  0  0  0  0
 20 19  1  0  0  0  0
 21 22  1  0  0  0  0
 22 23  1  0  0  0  0
 23 24  2  0  0  0  0
 23 29  1  0  0  0  0
 24 25  1  0  0  0  0
 25 26  2  0  0  0  0
 26 27  1  0  0  0  0
 28 26  1  0  0  0  0
 29 28  2  0  0  0  0
M  END
>  <Pose>
1

>  <Score>
-7.601

$$$$
