MODEL 1
REMARK VINA RESULT:    -7.375      0.000      0.000
REMARK INTER + INTRA:          -9.093
REMARK INTER:                  -8.668
REMARK INTRA:                  -0.424
REMARK UNBOUND:                -0.424
REMARK  3 active torsions:
REMARK  status: ('A' for Active; 'I' for Inactive)
REMARK    1  A    between atoms: C_5  and  N_8 
REMARK    2  A    between atoms: C_16  and  N_17 
REMARK       I    between atoms: N_20  and  C_23 
REMARK    3  A    between atoms: C_23  and  C_25 
ROOT
ATOM      1  N   UNK d   1     -40.201 -66.742  51.167  0.00  0.00    -0.195 N 
ATOM      2  N   UNK d   1     -39.728 -65.817  50.350  0.00  0.00    -0.058 NA
ATOM      3  N   UNK d   1     -38.593 -66.192  49.792  0.00  0.00    -0.124 NA
ATOM      4  C   UNK d   1     -38.267 -67.418  50.236  0.00  0.00     0.174 A 
ATOM      5  C   UNK d   1     -39.292 -67.747  51.100  0.00  0.00     0.188 A 
ATOM      6  N   UNK d   1     -39.234 -68.952  51.713  0.00  0.00    -0.220 NA
ATOM      7  C   UNK d   1     -38.198 -69.772  51.461  0.00  0.00     0.237 A 
ATOM      8  N   UNK d   1     -37.194 -69.442  50.611  0.00  0.00    -0.222 NA
ATOM      9  C   UNK d   1     -37.202 -68.256  49.975  0.00  0.00     0.162 A 
ENDROOT
BRANCH   9  10
ATOM     10  N   UNK d   1     -36.154 -67.892  49.076  0.00  0.00    -0.361 N 
ATOM     11  C   UNK d   1     -36.359 -68.220  47.678  0.00  0.00     0.144 C 
ATOM     12  C   UNK d   1     -35.531 -67.306  46.778  0.00  0.00     0.144 C 
ATOM     13  N   UNK d   1     -34.277 -66.996  47.364  0.00  0.00    -0.360 N 
ATOM     14  C   UNK d   1     -34.405 -66.237  48.646  0.00  0.00     0.144 C 
ATOM     15  C   UNK d   1     -33.028 -67.332  46.872  0.00  0.00     0.157 C 
ATOM     16  C   UNK d   1     -35.001 -67.241  49.615  0.00  0.00     0.144 C 
ATOM     17  O   UNK d   1     -32.022 -66.914  47.622  0.00  0.00    -0.177 OA
BRANCH  15  18
ATOM     18  C   UNK d   1     -32.591 -68.058  45.689  0.00  0.00     0.063 A 
ATOM     19  C   UNK d   1     -31.424 -67.549  44.931  0.00  0.00     0.013 A 
ATOM     20  C   UNK d   1     -31.425 -68.925  45.556  0.00  0.00     0.013 A 
ENDBRANCH  15  18
ENDBRANCH   9  10
BRANCH   1  21
ATOM     21  C   UNK d   1     -41.393 -66.689  51.936  0.00  0.00     0.062 A 
ATOM     22  C   UNK d   1     -41.510 -67.170  53.219  0.00  0.00     0.033 A 
ATOM     23  C   UNK d   1     -42.694 -67.093  53.918  0.00  0.00     0.026 A 
ATOM     24  C   UNK d   1     -43.799 -66.523  53.337  0.00  0.00     0.034 A 
ATOM     25 Cl   UNK d   1     -45.289 -66.427  54.224  0.00  0.00    -0.084 Cl
ATOM     26  C   UNK d   1     -43.715 -66.035  52.065  0.00  0.00     0.026 A 
ATOM     27  C   UNK d   1     -42.518 -66.123  51.380  0.00  0.00     0.033 A 
ENDBRANCH   1  21
TORSDOF 3
ENDMDL
