MODEL 1
REMARK VINA RESULT:    -8.701      0.000      0.000
REMARK INTER + INTRA:         -10.544
REMARK INTER:                 -10.227
REMARK INTRA:                  -0.317
REMARK UNBOUND:                -0.317
REMARK  3 active torsions:
REMARK  status: ('A' for Active; 'I' for Inactive)
REMARK    1  A    between atoms: C_7  and  N_8 
REMARK       I    between atoms: N_8  and  C_9 
REMARK    2  A    between atoms: C_9  and  C_11 
REMARK    3  A    between atoms: N_13  and  C_18 
ROOT
ATOM      1  N   UNK d   1     -40.584 -66.967  52.167  0.00  0.00    -0.319 N 
ATOM      2  C   UNK d   1     -40.225 -67.494  50.925  0.00  0.00     0.293 C 
ATOM      3  O   UNK d   1     -41.052 -67.924  50.108  0.00  0.00    -0.264 OA
ATOM      4  H   UNK d   1     -39.799 -66.623  52.806  0.00  0.00     0.169 HD
ENDROOT
BRANCH   2   5
ATOM      5  C   UNK d   1     -38.794 -67.562  50.517  0.00  0.00     0.213 C 
ATOM      6  N   UNK d   1     -38.277 -66.550  49.893  0.00  0.00    -0.141 NA
ATOM      7  N   UNK d   1     -36.947 -66.532  49.477  0.00  0.00    -0.198 N 
ATOM      8  C   UNK d   1     -36.133 -67.652  49.744  0.00  0.00     0.262 C 
ATOM      9  O   UNK d   1     -34.900 -67.555  49.424  0.00  0.00    -0.269 OA
ATOM     10  C   UNK d   1     -36.655 -68.888  50.363  0.00  0.00     0.226 C 
ATOM     11  N   UNK d   1     -37.995 -68.699  50.797  0.00  0.00    -0.360 N 
ATOM     12  H   UNK d   1     -38.448 -69.456  51.372  0.00  0.00     0.161 HD
BRANCH   7  13
ATOM     13  C   UNK d   1     -36.406 -65.386  48.777  0.00  0.00     0.062 A 
ATOM     14  C   UNK d   1     -36.321 -65.354  47.406  0.00  0.00     0.032 A 
ATOM     15  C   UNK d   1     -35.798 -64.233  46.754  0.00  0.00     0.009 A 
ATOM     16  C   UNK d   1     -35.355 -63.139  47.469  0.00  0.00    -0.062 A 
ATOM     17  C   UNK d   1     -35.445 -63.187  48.842  0.00  0.00     0.009 A 
ATOM     18  C   UNK d   1     -34.792 -61.918  46.821  0.00  0.00     0.048 C 
ATOM     19  C   UNK d   1     -35.957 -64.283  49.471  0.00  0.00     0.032 A 
ENDBRANCH   7  13
ENDBRANCH   2   5
BRANCH   1  20
ATOM     20  C   UNK d   1     -41.896 -66.854  52.645  0.00  0.00     0.059 A 
ATOM     21  C   UNK d   1     -42.177 -67.379  53.909  0.00  0.00     0.063 A 
ATOM     22 Cl   UNK d   1     -40.904 -68.156  54.826  0.00  0.00    -0.082 Cl
ATOM     23  C   UNK d   1     -43.425 -67.308  54.460  0.00  0.00     0.058 A 
ATOM     24  C   UNK d   1     -44.468 -66.717  53.804  0.00  0.00     0.070 A 
ATOM     25  C   UNK d   1     -44.233 -66.189  52.562  0.00  0.00     0.098 A 
ATOM     26  N   UNK d   1     -45.784 -66.620  54.362  0.00  0.00    -0.323 N 
ATOM     27  C   UNK d   1     -42.947 -66.266  52.000  0.00  0.00     0.070 A 
ATOM     28  O   UNK d   1     -45.240 -65.571  51.825  0.00  0.00    -0.340 OA
ATOM     29  C   UNK d   1     -46.459 -65.113  52.429  0.00  0.00     0.278 C 
ATOM     30  C   UNK d   1     -46.799 -65.974  53.600  0.00  0.00     0.246 C 
ATOM     31  O   UNK d   1     -48.006 -66.120  53.902  0.00  0.00    -0.271 OA
ATOM     32  H   UNK d   1     -45.992 -67.012  55.301  0.00  0.00     0.169 HD
ENDBRANCH   1  20
TORSDOF 3
ENDMDL
