/Users/jonathanwahrer/Desktop/Msc/3_Semester/Drug_Design_Praktikum/waehrer_HTS_screening/HTS_experiment/out/docking_results/vina_output/3e7o/2266_docked.pdbqt
 OpenBabel03192217003D

 27 30  0  0  1  0  0  0  0  0999 V2000
  -40.5820  -69.0890   53.0120 N   0  0  0  0  0  0  0  0  0  0  0  0
  -39.4400  -69.7950   53.4360 C   0  0  0  0  0  2  0  0  0  0  0  0
  -38.5800  -70.3130   52.3000 C   0  0  0  0  0  2  0  0  0  0  0  0
  -38.3060  -69.1370   51.4220 C   0  0  1  0  0  3  0  0  0  0  0  0
  -39.3870  -68.3420   51.1000 C   0  0  0  0  0  0  0  0  0  0  0  0
  -39.2080  -67.2760   50.3190 N   0  0  0  0  0  0  0  0  0  0  0  0
  -37.9650  -67.0120   49.8690 C   0  0  2  0  0  3  0  0  0  0  0  0
  -36.8960  -67.7700   50.1690 N   0  0  0  0  0  0  0  0  0  0  0  0
  -35.7930  -67.2680   49.5820 N   0  0  0  0  0  0  0  0  0  0  0  0
  -36.1060  -66.1680   48.8820 C   0  0  0  0  0  3  0  0  0  0  0  0
  -37.4600  -65.9930   49.0510 C   0  0  0  0  0  3  0  0  0  0  0  0
  -37.0400  -68.8580   50.9570 C   0  0  0  0  0  0  0  0  0  0  0  0
  -36.0780  -69.6060   51.2720 O   0  0  0  0  0  0  0  0  0  0  0  0
  -40.7020  -68.7380   51.6570 C   0  0  0  0  0  2  0  0  0  0  0  0
  -34.8440  -67.6950   49.6770 H   0  0  0  0  0  0  0  0  0  0  0  0
  -41.4550  -68.2370   54.1620 S   0  0  0  0  0  0  0  0  0  0  0  0
  -42.1020  -69.1610   55.1850 O   0  0  0  0  0  0  0  0  0  0  0  0
  -40.4690  -67.4070   54.9780 O   0  0  0  0  0  0  0  0  0  0  0  0
  -42.6880  -67.1870   53.5770 C   0  0  0  0  0  0  0  0  0  0  0  0
  -42.3630  -66.0250   52.8800 C   0  0  0  0  0  0  0  0  0  0  0  0
  -43.3740  -65.2060   52.4280 C   0  0  0  0  0  3  0  0  0  0  0  0
  -44.6840  -65.4900   52.6350 C   0  0  0  0  0  3  0  0  0  0  0  0
  -45.0350  -66.6220   53.3150 C   0  0  0  0  0  0  0  0  0  0  0  0
  -44.0250  -67.4430   53.7690 C   0  0  0  0  0  3  0  0  0  0  0  0
  -46.7340  -67.0160   53.5990 Cl  0  0  0  0  0  0  0  0  0  0  0  0
  -41.0610  -65.6650   52.6270 O   0  0  0  0  0  0  0  0  0  0  0  0
  -40.8060  -64.5370   51.8190 C   0  0  0  0  0  1  0  0  0  0  0  0
  1  2  1  0  0  0  0
  1 16  1  0  0  0  0
  3  2  1  0  0  0  0
  4  3  1  1  0  0  0
  5  4  1  0  0  0  0
  5 14  1  0  0  0  0
  6  5  2  0  0  0  0
  7 11  1  1  0  0  0
  7  8  1  0  0  0  0
  7  6  1  0  0  0  0
  8 12  1  0  0  0  0
  9 15  1  0  0  0  0
  9  8  1  0  0  0  0
 10 11  2  0  0  0  0
 10  9  1  0  0  0  0
 12 13  2  0  0  0  0
 12  4  1  0  0  0  0
 14  1  1  0  0  0  0
 16 18  2  0  0  0  0
 16 17  2  0  0  0  0
 19 24  1  0  0  0  0
 19 16  1  0  0  0  0
 20 19  2  0  0  0  0
 21 22  2  0  0  0  0
 21 20  1  0  0  0  0
 22 23  1  0  0  0  0
 23 25  1  0  0  0  0
 23 24  2  0  0  0  0
 26 20  1  0  0  0  0
 27 26  1  0  0  0  0
M  END
>  <Pose>
1

>  <Score>
-8.248

$$$$
