MODEL 1
REMARK VINA RESULT:    -8.248      0.000      0.000
REMARK INTER + INTRA:         -10.090
REMARK INTER:                  -9.694
REMARK INTRA:                  -0.396
REMARK UNBOUND:                -0.396
REMARK  3 active torsions:
REMARK  status: ('A' for Active; 'I' for Inactive)
REMARK    1  A    between atoms: S_1  and  N_4 
REMARK    2  A    between atoms: S_1  and  C_18 
REMARK    3  A    between atoms: C_19  and  O_25 
ROOT
ATOM      1  N   UNK d   1     -40.582 -69.089  53.012  0.00  0.00    -0.301 N 
ATOM      2  C   UNK d   1     -39.440 -69.795  53.436  0.00  0.00     0.140 C 
ATOM      3  C   UNK d   1     -38.580 -70.313  52.300  0.00  0.00     0.067 C 
ATOM      4  C   UNK d   1     -38.306 -69.137  51.422  0.00  0.00     0.040 A 
ATOM      5  C   UNK d   1     -39.387 -68.342  51.100  0.00  0.00     0.067 A 
ATOM      6  N   UNK d   1     -39.208 -67.276  50.319  0.00  0.00    -0.231 NA
ATOM      7  C   UNK d   1     -37.965 -67.012  49.869  0.00  0.00     0.154 A 
ATOM      8  N   UNK d   1     -36.896 -67.770  50.169  0.00  0.00    -0.202 N 
ATOM      9  N   UNK d   1     -35.793 -67.268  49.582  0.00  0.00    -0.301 N 
ATOM     10  C   UNK d   1     -36.106 -66.168  48.882  0.00  0.00     0.112 A 
ATOM     11  C   UNK d   1     -37.460 -65.993  49.051  0.00  0.00     0.071 A 
ATOM     12  C   UNK d   1     -37.040 -68.858  50.957  0.00  0.00     0.276 A 
ATOM     13  O   UNK d   1     -36.078 -69.606  51.272  0.00  0.00    -0.266 OA
ATOM     14  C   UNK d   1     -40.702 -68.738  51.657  0.00  0.00     0.195 C 
ATOM     15  H   UNK d   1     -34.844 -67.695  49.677  0.00  0.00     0.186 HD
ENDROOT
BRANCH   1  16
ATOM     16  S   UNK d   1     -41.455 -68.237  54.162  0.00  0.00     0.264 S 
ATOM     17  O   UNK d   1     -42.102 -69.161  55.185  0.00  0.00    -0.200 OA
ATOM     18  O   UNK d   1     -40.469 -67.407  54.978  0.00  0.00    -0.200 OA
BRANCH  16  19
ATOM     19  C   UNK d   1     -42.688 -67.187  53.577  0.00  0.00     0.114 A 
ATOM     20  C   UNK d   1     -42.363 -66.025  52.880  0.00  0.00     0.091 A 
ATOM     21  C   UNK d   1     -43.374 -65.206  52.428  0.00  0.00     0.040 A 
ATOM     22  C   UNK d   1     -44.684 -65.490  52.635  0.00  0.00     0.026 A 
ATOM     23  C   UNK d   1     -45.035 -66.622  53.315  0.00  0.00     0.035 A 
ATOM     24  C   UNK d   1     -44.025 -67.443  53.769  0.00  0.00     0.052 A 
ATOM     25 Cl   UNK d   1     -46.734 -67.016  53.599  0.00  0.00    -0.084 Cl
BRANCH  20  26
ATOM     26  O   UNK d   1     -41.061 -65.665  52.627  0.00  0.00    -0.354 OA
ATOM     27  C   UNK d   1     -40.806 -64.537  51.819  0.00  0.00     0.210 C 
ENDBRANCH  20  26
ENDBRANCH  16  19
ENDBRANCH   1  16
TORSDOF 3
ENDMDL
