/Users/jonathanwahrer/Desktop/Msc/3_Semester/Drug_Design_Praktikum/waehrer_HTS_screening/HTS_experiment/out/docking_results/vina_output/3e7o/2267_docked.pdbqt
 OpenBabel03192217003D

 27 30  0  0  1  0  0  0  0  0999 V2000
  -41.8240  -65.6130   50.9130 N   0  0  0  0  0  0  0  0  0  0  0  0
  -42.7100  -65.3340   51.9520 C   0  0  0  0  0  2  0  0  0  0  0  0
  -42.9650  -66.5100   52.8650 C   0  0  0  0  0  2  0  0  0  0  0  0
  -41.8370  -67.4680   52.9270 C   0  0  2  0  0  3  0  0  0  0  0  0
  -41.1400  -67.6840   51.7630 C   0  0  0  0  0  0  0  0  0  0  0  0
  -40.1070  -68.5340   51.7230 N   0  0  0  0  0  0  0  0  0  0  0  0
  -39.7390  -69.2000   52.8660 C   0  0  2  0  0  3  0  0  0  0  0  0
  -40.4350  -68.9750   53.9990 N   0  0  0  0  0  0  0  0  0  0  0  0
  -39.8870  -69.7330   54.9520 N   0  0  0  0  0  0  0  0  0  0  0  0
  -38.8690  -70.4270   54.4590 C   0  0  0  0  0  3  0  0  0  0  0  0
  -38.7350  -70.1130   53.1080 C   0  0  0  0  0  3  0  0  0  0  0  0
  -41.4760  -68.1370   54.0960 C   0  0  0  0  0  0  0  0  0  0  0  0
  -42.1220  -67.9290   55.1510 O   0  0  0  0  0  0  0  0  0  0  0  0
  -41.5530  -66.9540   50.5530 C   0  0  0  0  0  2  0  0  0  0  0  0
  -40.2020  -69.7830   55.9480 H   0  0  0  0  0  0  0  0  0  0  0  0
  -40.7560  -64.4350   50.4090 S   0  0  0  0  0  0  0  0  0  0  0  0
  -41.4770  -63.4490   49.5180 O   0  0  0  0  0  0  0  0  0  0  0  0
  -40.2150  -63.6530   51.5690 O   0  0  0  0  0  0  0  0  0  0  0  0
  -39.3940  -65.0360   49.4890 C   0  0  0  0  0  0  0  0  0  0  0  0
  -38.0800  -64.8520   49.8840 C   0  0  0  0  0  3  0  0  0  0  0  0
  -37.0400  -65.3500   49.1150 C   0  0  0  0  0  0  0  0  0  0  0  0
  -37.2550  -66.0400   47.9450 C   0  0  0  0  0  0  0  0  0  0  0  0
  -35.3820  -65.1070   49.6310 Cl  0  0  0  0  0  0  0  0  0  0  0  0
  -38.5630  -66.2240   47.5500 C   0  0  0  0  0  3  0  0  0  0  0  0
  -39.5970  -65.7290   48.3140 C   0  0  0  0  0  3  0  0  0  0  0  0
  -36.1860  -66.5360   47.1820 O   0  0  0  0  0  0  0  0  0  0  0  0
  -35.9830  -67.9340   47.0870 C   0  0  0  0  0  1  0  0  0  0  0  0
  1  2  1  0  0  0  0
  2  3  1  0  0  0  0
  4  3  1  6  0  0  0
  4 12  1  0  0  0  0
  5  4  1  0  0  0  0
  6  5  2  0  0  0  0
  6  7  1  0  0  0  0
  7 11  1  1  0  0  0
  7  8  1  0  0  0  0
  8 12  1  0  0  0  0
  8  9  1  0  0  0  0
  9 15  1  0  0  0  0
 10  9  1  0  0  0  0
 11 10  2  0  0  0  0
 12 13  2  0  0  0  0
 14  1  1  0  0  0  0
 14  5  1  0  0  0  0
 16  1  1  0  0  0  0
 16 18  2  0  0  0  0
 17 16  2  0  0  0  0
 19 20  1  0  0  0  0
 19 16  1  0  0  0  0
 21 23  1  0  0  0  0
 21 20  2  0  0  0  0
 22 21  1  0  0  0  0
 24 22  2  0  0  0  0
 24 25  1  0  0  0  0
 25 19  2  0  0  0  0
 26 22  1  0  0  0  0
 27 26  1  0  0  0  0
M  END
>  <Pose>
1

>  <Score>
-8.436

$$$$
