MODEL 1
REMARK VINA RESULT:    -8.436      0.000      0.000
REMARK INTER + INTRA:         -10.315
REMARK INTER:                  -9.915
REMARK INTRA:                  -0.399
REMARK UNBOUND:                -0.399
REMARK  3 active torsions:
REMARK  status: ('A' for Active; 'I' for Inactive)
REMARK    1  A    between atoms: S_1  and  N_4 
REMARK    2  A    between atoms: S_1  and  C_18 
REMARK    3  A    between atoms: C_21  and  O_24 
ROOT
ATOM      1  N   UNK d   1     -41.824 -65.613  50.913  0.00  0.00    -0.301 N 
ATOM      2  C   UNK d   1     -42.710 -65.334  51.952  0.00  0.00     0.140 C 
ATOM      3  C   UNK d   1     -42.965 -66.510  52.865  0.00  0.00     0.067 C 
ATOM      4  C   UNK d   1     -41.837 -67.468  52.927  0.00  0.00     0.040 A 
ATOM      5  C   UNK d   1     -41.140 -67.684  51.763  0.00  0.00     0.067 A 
ATOM      6  N   UNK d   1     -40.107 -68.534  51.723  0.00  0.00    -0.231 NA
ATOM      7  C   UNK d   1     -39.739 -69.200  52.866  0.00  0.00     0.154 A 
ATOM      8  N   UNK d   1     -40.435 -68.975  53.999  0.00  0.00    -0.202 N 
ATOM      9  N   UNK d   1     -39.887 -69.733  54.952  0.00  0.00    -0.301 N 
ATOM     10  C   UNK d   1     -38.869 -70.427  54.459  0.00  0.00     0.112 A 
ATOM     11  C   UNK d   1     -38.735 -70.113  53.108  0.00  0.00     0.071 A 
ATOM     12  C   UNK d   1     -41.476 -68.137  54.096  0.00  0.00     0.276 A 
ATOM     13  O   UNK d   1     -42.122 -67.929  55.151  0.00  0.00    -0.266 OA
ATOM     14  C   UNK d   1     -41.553 -66.954  50.553  0.00  0.00     0.195 C 
ATOM     15  H   UNK d   1     -40.202 -69.783  55.948  0.00  0.00     0.186 HD
ENDROOT
BRANCH   1  16
ATOM     16  S   UNK d   1     -40.756 -64.435  50.409  0.00  0.00     0.261 S 
ATOM     17  O   UNK d   1     -41.477 -63.449  49.518  0.00  0.00    -0.200 OA
ATOM     18  O   UNK d   1     -40.215 -63.653  51.569  0.00  0.00    -0.200 OA
BRANCH  16  19
ATOM     19  C   UNK d   1     -39.394 -65.036  49.489  0.00  0.00     0.081 A 
ATOM     20  C   UNK d   1     -38.080 -64.852  49.884  0.00  0.00     0.052 A 
ATOM     21  C   UNK d   1     -37.040 -65.350  49.115  0.00  0.00     0.068 A 
ATOM     22  C   UNK d   1     -37.255 -66.040  47.945  0.00  0.00     0.089 A 
ATOM     23 Cl   UNK d   1     -35.382 -65.107  49.631  0.00  0.00    -0.081 Cl
ATOM     24  C   UNK d   1     -38.563 -66.224  47.550  0.00  0.00     0.040 A 
ATOM     25  C   UNK d   1     -39.597 -65.729  48.314  0.00  0.00     0.028 A 
BRANCH  22  26
ATOM     26  O   UNK d   1     -36.186 -66.536  47.182  0.00  0.00    -0.354 OA
ATOM     27  C   UNK d   1     -35.983 -67.934  47.087  0.00  0.00     0.210 C 
ENDBRANCH  22  26
ENDBRANCH  16  19
ENDBRANCH   1  16
TORSDOF 3
ENDMDL
