/Users/jonathanwahrer/Desktop/Msc/3_Semester/Drug_Design_Praktikum/waehrer_HTS_screening/HTS_experiment/out/docking_results/vina_output/3e7o/2270_docked.pdbqt
 OpenBabel03192217013D

 22 24  0  0  1  0  0  0  0  0999 V2000
  -38.2490  -68.9480   51.0040 C   0  0  0  0  0  0  0  0  0  0  0  0
  -37.7920  -70.1220   50.9150 O   0  0  0  0  0  0  0  0  0  0  0  0
  -37.7320  -67.8860   50.1990 N   0  0  0  0  0  0  0  0  0  0  0  0
  -38.1340  -66.9550   50.3070 H   0  0  0  0  0  0  0  0  0  0  0  0
  -39.3120  -68.6790   51.9390 C   0  0  0  0  0  0  0  0  0  0  0  0
  -40.1710  -67.6130   51.6550 C   0  0  0  0  0  3  0  0  0  0  0  0
  -41.2210  -67.2560   52.4710 C   0  0  0  0  0  0  0  0  0  0  0  0
  -41.4370  -67.9830   53.6230 C   0  0  0  0  0  0  0  0  0  0  0  0
  -42.7730  -67.5450   54.6830 Cl  0  0  0  0  0  0  0  0  0  0  0  0
  -40.5950  -69.0440   53.9230 C   0  0  0  0  0  3  0  0  0  0  0  0
  -39.5330  -69.3930   53.0810 C   0  0  0  0  0  3  0  0  0  0  0  0
  -42.0580  -66.1920   52.1630 O   0  0  0  0  0  0  0  0  0  0  0  0
  -41.5600  -64.8730   52.0450 C   0  0  0  0  0  1  0  0  0  0  0  0
  -36.6760  -68.1940   49.2810 C   0  0  0  0  0  2  0  0  0  0  0  0
  -35.5200  -67.2760   49.2490 C   0  0  2  0  0  3  0  0  0  0  0  0
  -35.6880  -65.9840   49.8390 N   0  0  1  0  0  0  0  0  0  0  0  0
  -34.3880  -65.6830   50.4860 C   0  0  0  0  0  2  0  0  0  0  0  0
  -35.8480  -64.8970   48.8950 C   0  0  0  0  0  2  0  0  0  0  0  0
  -33.3520  -66.0410   49.4120 C   0  0  0  0  0  2  0  0  0  0  0  0
  -33.9150  -66.0020   48.0770 N   0  0  1  0  0  0  0  0  0  0  0  0
  -34.9160  -67.0520   47.8730 C   0  0  0  0  0  2  0  0  0  0  0  0
  -34.6480  -64.7530   47.9680 C   0  0  0  0  0  2  0  0  0  0  0  0
  1  5  1  0  0  0  0
  2  1  2  0  0  0  0
  3  4  1  0  0  0  0
  3  1  1  0  0  0  0
  5 11  1  0  0  0  0
  6  5  2  0  0  0  0
  6  7  1  0  0  0  0
  7  8  2  0  0  0  0
  8 10  1  0  0  0  0
  8  9  1  0  0  0  0
 11 10  2  0  0  0  0
 12  7  1  0  0  0  0
 13 12  1  0  0  0  0
 14  3  1  0  0  0  0
 15 14  1  6  0  0  0
 15 16  1  0  0  0  0
 16 18  1  6  0  0  0
 16 17  1  0  0  0  0
 19 17  1  0  0  0  0
 20 21  1  1  0  0  0
 20 19  1  0  0  0  0
 21 15  1  0  0  0  0
 22 20  1  0  0  0  0
 22 18  1  0  0  0  0
M  END
>  <Pose>
1

>  <Score>
-6.773

$$$$
