MODEL 1
REMARK VINA RESULT:    -7.459      0.000      0.000
REMARK INTER + INTRA:          -9.292
REMARK INTER:                  -8.985
REMARK INTRA:                  -0.306
REMARK UNBOUND:                -0.306
REMARK  4 active torsions:
REMARK  status: ('A' for Active; 'I' for Inactive)
REMARK    1  A    between atoms: C_5  and  C_8 
REMARK    2  A    between atoms: C_8  and  O_25 
REMARK    3  A    between atoms: N_9  and  C_17 
REMARK    4  A    between atoms: C_20  and  O_23 
ROOT
ATOM      1  C   UNK d   1     -37.241 -66.705  47.715  0.00  0.00     0.283 C 
ATOM      2  N   UNK d   1     -36.752 -67.434  48.776  0.00  0.00     0.042 N 
ATOM      3  C   UNK d   1     -35.603 -66.688  49.246  0.00  0.00     0.210 C 
ATOM      4  C   UNK d   1     -35.126 -66.349  50.400  0.00  0.00     0.030 C 
ATOM      5  C   UNK d   1     -33.895 -65.559  50.582  0.00  0.00     0.032 C 
ATOM      6  C   UNK d   1     -33.208 -65.135  49.333  0.00  0.00     0.023 C 
ATOM      7  C   UNK d   1     -33.536 -65.959  48.134  0.00  0.00     0.125 C 
ATOM      8  N   UNK d   1     -34.941 -66.299  48.056  0.00  0.00    -0.356 N 
ATOM      9  C   UNK d   1     -35.921 -66.343  46.975  0.00  0.00     0.200 C 
ATOM     10  H   UNK d   1     -36.265 -68.303  48.343  0.00  0.00     0.299 HD
ENDROOT
BRANCH   1  11
ATOM     11  C   UNK d   1     -37.954 -65.452  47.852  0.00  0.00     0.007 A 
ATOM     12  C   UNK d   1     -39.307 -65.412  47.576  0.00  0.00     0.014 A 
ATOM     13  C   UNK d   1     -40.003 -64.244  47.675  0.00  0.00     0.024 A 
ATOM     14  C   UNK d   1     -39.394 -63.053  48.052  0.00  0.00     0.034 A 
ATOM     15 Cl   UNK d   1     -40.261 -61.544  48.187  0.00  0.00    -0.084 Cl
ATOM     16  C   UNK d   1     -38.054 -63.094  48.325  0.00  0.00     0.024 A 
ATOM     17  C   UNK d   1     -37.346 -64.279  48.225  0.00  0.00     0.014 A 
ENDBRANCH   1  11
BRANCH   1  18
ATOM     18  O   UNK d   1     -37.906 -67.532  46.765  0.00  0.00    -0.359 OA
ATOM     19  H   UNK d   1     -37.770 -68.462  47.082  0.00  0.00     0.213 HD
ENDBRANCH   1  18
BRANCH   2  20
ATOM     20  C   UNK d   1     -37.530 -67.942  49.804  0.00  0.00     0.146 A 
ATOM     21  C   UNK d   1     -38.687 -67.428  50.283  0.00  0.00     0.041 A 
ATOM     22  C   UNK d   1     -39.366 -68.063  51.321  0.00  0.00     0.039 A 
ATOM     23  C   UNK d   1     -38.906 -69.231  51.907  0.00  0.00     0.068 A 
ATOM     24  C   UNK d   1     -37.726 -69.730  51.398  0.00  0.00     0.039 A 
ATOM     25  C   UNK d   1     -37.035 -69.129  50.379  0.00  0.00     0.041 A 
BRANCH  23  26
ATOM     26  O   UNK d   1     -39.612 -69.830  52.937  0.00  0.00    -0.356 OA
ATOM     27  C   UNK d   1     -38.912 -70.369  54.029  0.00  0.00     0.210 C 
ENDBRANCH  23  26
ENDBRANCH   2  20
TORSDOF 4
ENDMDL
