/Users/jonathanwahrer/Desktop/Msc/3_Semester/Drug_Design_Praktikum/waehrer_HTS_screening/HTS_experiment/out/docking_results/vina_output/3e7o/2271_docked.pdbqt
 OpenBabel03192217013D

 27 30  0  0  1  0  0  0  0  0999 V2000
  -37.2410  -66.7050   47.7150 C   0  0  2  0  0  0  0  0  0  0  0  0
  -36.7520  -67.4340   48.7760 N   0  0  0  0  0  4  0  0  0  0  0  0
  -35.6030  -66.6880   49.2460 C   0  0  0  0  0  0  0  0  0  0  0  0
  -35.1260  -66.3490   50.4000 C   0  0  0  0  0  3  0  0  0  0  0  0
  -33.8950  -65.5590   50.5820 C   0  0  0  0  0  2  0  0  0  0  0  0
  -33.2080  -65.1350   49.3330 C   0  0  0  0  0  2  0  0  0  0  0  0
  -33.5360  -65.9590   48.1340 C   0  0  0  0  0  2  0  0  0  0  0  0
  -34.9410  -66.2990   48.0560 N   0  0  0  0  0  0  0  0  0  0  0  0
  -35.9210  -66.3430   46.9750 C   0  0  0  0  0  2  0  0  0  0  0  0
  -36.2650  -68.3030   48.3430 H   0  0  0  0  0  0  0  0  0  0  0  0
  -37.9540  -65.4520   47.8520 C   0  0  0  0  0  0  0  0  0  0  0  0
  -39.3070  -65.4120   47.5760 C   0  0  0  0  0  3  0  0  0  0  0  0
  -40.0030  -64.2440   47.6750 C   0  0  0  0  0  3  0  0  0  0  0  0
  -39.3940  -63.0530   48.0520 C   0  0  0  0  0  0  0  0  0  0  0  0
  -40.2610  -61.5440   48.1870 Cl  0  0  0  0  0  0  0  0  0  0  0  0
  -38.0540  -63.0940   48.3250 C   0  0  0  0  0  3  0  0  0  0  0  0
  -37.3460  -64.2790   48.2250 C   0  0  0  0  0  3  0  0  0  0  0  0
  -37.9060  -67.5320   46.7650 O   0  0  0  0  0  0  0  0  0  0  0  0
  -37.7700  -68.4620   47.0820 H   0  0  0  0  0  0  0  0  0  0  0  0
  -37.5300  -67.9420   49.8040 C   0  0  0  0  0  0  0  0  0  0  0  0
  -38.6870  -67.4280   50.2830 C   0  0  0  0  0  3  0  0  0  0  0  0
  -39.3660  -68.0630   51.3210 C   0  0  0  0  0  3  0  0  0  0  0  0
  -38.9060  -69.2310   51.9070 C   0  0  0  0  0  0  0  0  0  0  0  0
  -37.7260  -69.7300   51.3980 C   0  0  0  0  0  3  0  0  0  0  0  0
  -37.0350  -69.1290   50.3790 C   0  0  0  0  0  3  0  0  0  0  0  0
  -39.6120  -69.8300   52.9370 O   0  0  0  0  0  0  0  0  0  0  0  0
  -38.9120  -70.3690   54.0290 C   0  0  0  0  0  1  0  0  0  0  0  0
  1 18  1  6  0  0  0
  1 11  1  0  0  0  0
  1  2  1  0  0  0  0
  2  3  1  0  0  0  0
  2 20  1  0  0  0  0
  3  4  2  0  0  0  0
  4  5  1  0  0  0  0
  6  5  1  0  0  0  0
  7  6  1  0  0  0  0
  8  7  1  0  0  0  0
  8  3  1  0  0  0  0
  9  1  1  0  0  0  0
  9  8  1  0  0  0  0
 10  2  1  0  0  0  0
 11 17  1  0  0  0  0
 12 13  1  0  0  0  0
 12 11  2  0  0  0  0
 13 14  2  0  0  0  0
 14 15  1  0  0  0  0
 14 16  1  0  0  0  0
 17 16  2  0  0  0  0
 18 19  1  0  0  0  0
 20 21  2  0  0  0  0
 20 25  1  0  0  0  0
 21 22  1  0  0  0  0
 22 23  2  0  0  0  0
 23 26  1  0  0  0  0
 24 23  1  0  0  0  0
 25 24  2  0  0  0  0
 26 27  1  0  0  0  0
M  END
>  <Pose>
1

>  <Score>
-7.459

$$$$
