/Users/jonathanwahrer/Desktop/Msc/3_Semester/Drug_Design_Praktikum/waehrer_HTS_screening/HTS_experiment/out/docking_results/vina_output/3e7o/2272_docked.pdbqt
 OpenBabel03192217013D

 29 32  0  0  0  0  0  0  0  0999 V2000
  -38.1600  -64.8080   48.4350 C   0  0  0  0  0  0  0  0  0  0  0  0
  -38.0380  -66.0820   48.2690 O   0  0  0  0  0  0  0  0  0  0  0  0
  -37.1790  -64.0240   47.8240 N   0  0  0  0  0  0  0  0  0  0  0  0
  -37.0000  -62.5790   48.0570 C   0  0  0  0  0  2  0  0  0  0  0  0
  -35.6610  -62.6380   48.8580 C   0  0  0  0  0  2  0  0  0  0  0  0
  -34.6240  -63.0960   47.9440 N   0  0  0  0  0  0  0  0  0  0  0  0
  -34.9340  -63.8470   46.8550 C   0  0  0  0  0  2  0  0  0  0  0  0
  -36.2630  -64.5480   46.8480 C   0  0  0  0  0  2  0  0  0  0  0  0
  -39.3090  -64.4070   49.2090 C   0  0  0  0  0  2  0  0  0  0  0  0
  -40.4520  -65.2910   49.4210 C   0  0  0  0  0  2  0  0  0  0  0  0
  -40.6720  -65.7860   50.7690 N   0  0  0  0  0  0  0  0  0  0  0  0
  -40.2340  -66.8750   51.3950 C   0  0  0  0  0  0  0  0  0  0  0  0
  -40.7880  -66.9560   52.6510 C   0  0  0  0  0  0  0  0  0  0  0  0
  -39.3340  -67.8720   50.9790 C   0  0  0  0  0  3  0  0  0  0  0  0
  -40.4860  -68.0010   53.5330 C   0  0  0  0  0  3  0  0  0  0  0  0
  -41.5560  -65.9030   52.7540 O   0  0  0  0  0  0  0  0  0  0  0  0
  -39.6130  -68.9780   53.1400 C   0  0  0  0  0  0  0  0  0  0  0  0
  -39.2030  -70.2880   54.2200 Cl  0  0  0  0  0  0  0  0  0  0  0  0
  -39.0590  -68.8900   51.8770 C   0  0  0  0  0  3  0  0  0  0  0  0
  -41.5220  -65.1780   51.6640 C   0  0  0  0  0  0  0  0  0  0  0  0
  -42.1560  -64.1040   51.4510 O   0  0  0  0  0  0  0  0  0  0  0  0
  -33.4090  -63.0190   48.6050 C   0  0  0  0  0  2  0  0  0  0  0  0
  -32.9080  -64.3960   49.0410 C   0  0  0  0  0  0  0  0  0  0  0  0
  -31.7490  -64.6970   48.5600 O   0  0  0  0  0  0  0  0  0  0  0  0
  -33.6340  -65.1770   49.8340 N   0  0  0  0  0  0  0  0  0  0  0  0
  -32.6070  -66.0560   49.9730 H   0  0  0  0  0  0  0  0  0  0  0  0
  -34.4070  -66.0070   50.6760 C   0  0  0  0  0  3  0  0  0  0  0  0
  -33.9260  -67.5080   50.7410 C   0  0  0  0  0  2  0  0  0  0  0  0
  -35.1530  -67.1650   50.0460 C   0  0  0  0  0  2  0  0  0  0  0  0
  1  9  1  0  0  0  0
  2  1  2  0  0  0  0
  3  4  1  0  0  0  0
  3  1  1  0  0  0  0
  4  5  1  0  0  0  0
  6 22  1  0  0  0  0
  6  5  1  0  0  0  0
  7  6  1  0  0  0  0
  8  7  1  0  0  0  0
  8  3  1  0  0  0  0
  9 10  1  0  0  0  0
 10 11  1  0  0  0  0
 11 12  1  0  0  0  0
 11 20  1  0  0  0  0
 12 13  1  0  0  0  0
 13 16  1  0  0  0  0
 13 15  2  0  0  0  0
 14 12  2  0  0  0  0
 14 19  1  0  0  0  0
 17 15  1  0  0  0  0
 17 18  1  0  0  0  0
 19 17  2  0  0  0  0
 20 16  1  0  0  0  0
 21 20  2  0  0  0  0
 22 23  1  0  0  0  0
 23 25  1  0  0  0  0
 24 23  2  0  0  0  0
 25 26  1  0  0  0  0
 25 27  1  0  0  0  0
 27 28  1  0  0  0  0
 29 27  1  0  0  0  0
 29 28  1  0  0  0  0
M  END
>  <Pose>
1

>  <Score>
-7.704

$$$$
