MODEL 1
REMARK VINA RESULT:    -7.704      0.000      0.000
REMARK INTER + INTRA:         -11.557
REMARK INTER:                 -10.406
REMARK INTRA:                  -1.151
REMARK UNBOUND:                -1.151
REMARK  6 active torsions:
REMARK  status: ('A' for Active; 'I' for Inactive)
REMARK    1  A    between atoms: N_8  and  C_12 
REMARK    2  A    between atoms: C_12  and  C_13 
REMARK    3  A    between atoms: C_13  and  C_14 
REMARK       I    between atoms: C_14  and  N_16 
REMARK    4  A    between atoms: N_19  and  C_22 
REMARK    5  A    between atoms: C_22  and  C_23 
REMARK       I    between atoms: C_23  and  N_25 
REMARK    6  A    between atoms: N_25  and  C_26 
ROOT
ATOM      1  C   UNK d   1     -38.160 -64.808  48.435  0.00  0.00     0.221 C 
ATOM      2  O   UNK d   1     -38.038 -66.082  48.269  0.00  0.00    -0.273 OA
ATOM      3  N   UNK d   1     -37.179 -64.024  47.824  0.00  0.00    -0.349 N 
ATOM      4  C   UNK d   1     -37.000 -62.579  48.057  0.00  0.00     0.145 C 
ATOM      5  C   UNK d   1     -35.661 -62.638  48.858  0.00  0.00     0.137 C 
ATOM      6  N   UNK d   1     -34.624 -63.096  47.944  0.00  0.00    -0.401 N 
ATOM      7  C   UNK d   1     -34.934 -63.847  46.855  0.00  0.00     0.137 C 
ATOM      8  C   UNK d   1     -36.263 -64.548  46.848  0.00  0.00     0.145 C 
ENDROOT
BRANCH   1   9
ATOM      9  C   UNK d   1     -39.309 -64.407  49.209  0.00  0.00     0.123 C 
BRANCH   9  10
ATOM     10  C   UNK d   1     -40.452 -65.291  49.421  0.00  0.00     0.144 C 
BRANCH  10  11
ATOM     11  N   UNK d   1     -40.672 -65.786  50.769  0.00  0.00    -0.290 N 
ATOM     12  C   UNK d   1     -40.234 -66.875  51.395  0.00  0.00     0.073 A 
ATOM     13  C   UNK d   1     -40.788 -66.956  52.651  0.00  0.00     0.109 A 
ATOM     14  C   UNK d   1     -39.334 -67.872  50.979  0.00  0.00     0.034 A 
ATOM     15  C   UNK d   1     -40.486 -68.001  53.533  0.00  0.00     0.063 A 
ATOM     16  O   UNK d   1     -41.556 -65.903  52.754  0.00  0.00    -0.259 OA
ATOM     17  C   UNK d   1     -39.613 -68.978  53.140  0.00  0.00     0.036 A 
ATOM     18 Cl   UNK d   1     -39.203 -70.288  54.220  0.00  0.00    -0.084 Cl
ATOM     19  C   UNK d   1     -39.059 -68.890  51.877  0.00  0.00     0.026 A 
ATOM     20  C   UNK d   1     -41.522 -65.178  51.664  0.00  0.00     0.372 A 
ATOM     21  O   UNK d   1     -42.156 -64.104  51.451  0.00  0.00    -0.237 OA
ENDBRANCH  10  11
ENDBRANCH   9  10
ENDBRANCH   1   9
BRANCH   6  22
ATOM     22  C   UNK d   1     -33.409 -63.019  48.605  0.00  0.00     0.219 C 
BRANCH  22  23
ATOM     23  C   UNK d   1     -32.908 -64.396  49.041  0.00  0.00     0.235 C 
ATOM     24  O   UNK d   1     -31.749 -64.697  48.560  0.00  0.00    -0.272 OA
ATOM     25  N   UNK d   1     -33.634 -65.177  49.834  0.00  0.00    -0.355 N 
ATOM     26  H   UNK d   1     -32.607 -66.056  49.973  0.00  0.00     0.162 HD
BRANCH  25  27
ATOM     27  C   UNK d   1     -34.407 -66.007  50.676  0.00  0.00     0.084 A 
ATOM     28  C   UNK d   1     -33.926 -67.508  50.741  0.00  0.00     0.027 A 
ATOM     29  C   UNK d   1     -35.153 -67.165  50.046  0.00  0.00     0.027 A 
ENDBRANCH  25  27
ENDBRANCH  22  23
ENDBRANCH   6  22
TORSDOF 6
ENDMDL
