MODEL 1
REMARK VINA RESULT:    -7.205      0.000      0.000
REMARK INTER + INTRA:          -8.394
REMARK INTER:                  -8.047
REMARK INTRA:                  -0.347
REMARK UNBOUND:                -0.347
REMARK  2 active torsions:
REMARK  status: ('A' for Active; 'I' for Inactive)
REMARK    1  A    between atoms: C_3  and  N_17 
REMARK    2  A    between atoms: N_17  and  C_18 
ROOT
ATOM      1 Cl   UNK d   1     -41.756 -66.539  51.805  0.00  0.00    -0.076 Cl
ATOM      2  C   UNK d   1     -40.226 -67.086  51.154  0.00  0.00     0.135 A 
ATOM      3  C   UNK d   1     -39.716 -68.313  51.526  0.00  0.00     0.126 A 
ATOM      4  C   UNK d   1     -38.511 -68.681  50.970  0.00  0.00     0.291 A 
ATOM      5  O   UNK d   1     -37.953 -69.788  51.243  0.00  0.00    -0.264 OA
ATOM      6  N   UNK d   1     -37.889 -67.858  50.113  0.00  0.00    -0.241 N 
ATOM      7  N   UNK d   1     -38.339 -66.680  49.730  0.00  0.00    -0.242 N 
ATOM      8  C   UNK d   1     -37.632 -65.820  48.796  0.00  0.00     0.134 C 
ATOM      9  C   UNK d   1     -36.400 -65.189  49.412  0.00  0.00     0.031 C 
ATOM     10  C   UNK d   1     -35.234 -66.161  49.381  0.00  0.00     0.005 C 
ATOM     11  C   UNK d   1     -35.540 -67.414  50.169  0.00  0.00     0.031 C 
ATOM     12  C   UNK d   1     -36.602 -68.272  49.533  0.00  0.00     0.134 C 
ATOM     13  C   UNK d   1     -36.670 -67.929  48.088  0.00  0.00    -0.002 C 
ATOM     14  C   UNK d   1     -37.123 -66.738  47.710  0.00  0.00    -0.002 C 
ATOM     15  C   UNK d   1     -39.534 -66.291  50.267  0.00  0.00     0.287 A 
ATOM     16  O   UNK d   1     -39.995 -65.153  49.915  0.00  0.00    -0.265 OA
ENDROOT
BRANCH   3  17
ATOM     17  N   UNK d   1     -40.375 -69.185  52.440  0.00  0.00    -0.380 N 
ATOM     18  H   UNK d   1     -41.010 -69.902  51.975  0.00  0.00     0.160 HD
BRANCH  17  19
ATOM     19  C   UNK d   1     -40.221 -69.136  53.869  0.00  0.00     0.073 C 
ATOM     20  C   UNK d   1     -41.555 -69.253  54.587  0.00  0.00     0.031 C 
ATOM     21  C   UNK d   1     -39.304 -70.170  54.429  0.00  0.00     0.031 C 
ENDBRANCH  17  19
ENDBRANCH   3  17
TORSDOF 2
ENDMDL
