/Users/jonathanwahrer/Desktop/Msc/3_Semester/Drug_Design_Praktikum/waehrer_HTS_screening/HTS_experiment/out/docking_results/vina_output/3e7o/2275_docked.pdbqt
 OpenBabel03192217013D

 21 23  0  0  1  0  0  0  0  0999 V2000
  -41.7560  -66.5390   51.8050 Cl  0  0  0  0  0  0  0  0  0  0  0  0
  -40.2260  -67.0860   51.1540 C   0  0  0  0  0  0  0  0  0  0  0  0
  -39.7160  -68.3130   51.5260 C   0  0  0  0  0  0  0  0  0  0  0  0
  -38.5110  -68.6810   50.9700 C   0  0  0  0  0  0  0  0  0  0  0  0
  -37.9530  -69.7880   51.2430 O   0  0  0  0  0  0  0  0  0  0  0  0
  -37.8890  -67.8580   50.1130 N   0  0  0  0  0  0  0  0  0  0  0  0
  -38.3390  -66.6800   49.7300 N   0  0  0  0  0  0  0  0  0  0  0  0
  -37.6320  -65.8200   48.7960 C   0  0  1  0  0  3  0  0  0  0  0  0
  -36.4000  -65.1890   49.4120 C   0  0  0  0  0  2  0  0  0  0  0  0
  -35.2340  -66.1610   49.3810 C   0  0  0  0  0  2  0  0  0  0  0  0
  -35.5400  -67.4140   50.1690 C   0  0  0  0  0  2  0  0  0  0  0  0
  -36.6020  -68.2720   49.5330 C   0  0  2  0  0  3  0  0  0  0  0  0
  -36.6700  -67.9290   48.0880 C   0  0  0  0  0  3  0  0  0  0  0  0
  -37.1230  -66.7380   47.7100 C   0  0  0  0  0  3  0  0  0  0  0  0
  -39.5340  -66.2910   50.2670 C   0  0  0  0  0  0  0  0  0  0  0  0
  -39.9950  -65.1530   49.9150 O   0  0  0  0  0  0  0  0  0  0  0  0
  -40.3750  -69.1850   52.4400 N   0  0  0  0  0  0  0  0  0  0  0  0
  -41.0100  -69.9020   51.9750 H   0  0  0  0  0  0  0  0  0  0  0  0
  -40.2210  -69.1360   53.8690 C   0  0  0  0  0  3  0  0  0  0  0  0
  -41.5550  -69.2530   54.5870 C   0  0  0  0  0  1  0  0  0  0  0  0
  -39.3040  -70.1700   54.4290 C   0  0  0  0  0  1  0  0  0  0  0  0
  2  3  2  0  0  0  0
  2  1  1  0  0  0  0
  3 17  1  0  0  0  0
  4  5  2  0  0  0  0
  4  3  1  0  0  0  0
  6  4  1  0  0  0  0
  7  6  1  0  0  0  0
  7 15  1  0  0  0  0
  8 14  1  6  0  0  0
  8  9  1  0  0  0  0
  8  7  1  0  0  0  0
 10  9  1  0  0  0  0
 10 11  1  0  0  0  0
 12 13  1  6  0  0  0
 12  6  1  0  0  0  0
 12 11  1  0  0  0  0
 14 13  2  0  0  0  0
 15  2  1  0  0  0  0
 16 15  2  0  0  0  0
 17 19  1  0  0  0  0
 18 17  1  0  0  0  0
 19 21  1  0  0  0  0
 19 20  1  0  0  0  0
M  END
>  <Pose>
1

>  <Score>
-7.205

$$$$
