MODEL 1
REMARK VINA RESULT:    -7.029      0.000      0.000
REMARK INTER + INTRA:          -8.176
REMARK INTER:                  -7.851
REMARK INTRA:                  -0.325
REMARK UNBOUND:                -0.325
REMARK  2 active torsions:
REMARK  status: ('A' for Active; 'I' for Inactive)
REMARK    1  A    between atoms: C_3  and  N_17 
REMARK    2  A    between atoms: N_17  and  C_18 
ROOT
ATOM      1 Cl   UNK d   1     -41.747 -66.595  51.710  0.00  0.00    -0.076 Cl
ATOM      2  C   UNK d   1     -40.179 -67.064  51.082  0.00  0.00     0.135 A 
ATOM      3  C   UNK d   1     -39.648 -68.266  51.500  0.00  0.00     0.126 A 
ATOM      4  C   UNK d   1     -38.392 -68.574  50.963  0.00  0.00     0.291 A 
ATOM      5  O   UNK d   1     -37.865 -69.650  51.308  0.00  0.00    -0.264 OA
ATOM      6  N   UNK d   1     -37.778 -67.746  50.109  0.00  0.00    -0.241 N 
ATOM      7  N   UNK d   1     -38.294 -66.593  49.712  0.00  0.00    -0.241 N 
ATOM      8  C   UNK d   1     -37.497 -65.815  48.774  0.00  0.00     0.139 C 
ATOM      9  C   UNK d   1     -36.155 -65.581  49.442  0.00  0.00     0.021 A 
ATOM     10  C   UNK d   1     -35.589 -66.843  49.932  0.00  0.00     0.021 A 
ATOM     11  C   UNK d   1     -36.462 -68.044  49.540  0.00  0.00     0.139 C 
ATOM     12  C   UNK d   1     -36.669 -67.930  48.056  0.00  0.00    -0.001 C 
ATOM     13  C   UNK d   1     -37.201 -66.788  47.656  0.00  0.00    -0.001 C 
ATOM     14  C   UNK d   1     -34.910 -66.065  48.797  0.00  0.00     0.015 A 
ATOM     15  C   UNK d   1     -39.485 -66.250  50.192  0.00  0.00     0.287 A 
ATOM     16  O   UNK d   1     -39.984 -65.157  49.820  0.00  0.00    -0.265 OA
ENDROOT
BRANCH   3  17
ATOM     17  N   UNK d   1     -40.292 -69.159  52.404  0.00  0.00    -0.380 N 
ATOM     18  H   UNK d   1     -40.858 -69.911  51.957  0.00  0.00     0.160 HD
BRANCH  17  19
ATOM     19  C   UNK d   1     -40.217 -69.095  53.818  0.00  0.00     0.073 C 
ATOM     20  C   UNK d   1     -41.541 -69.219  54.525  0.00  0.00     0.031 C 
ATOM     21  C   UNK d   1     -39.305 -70.155  54.419  0.00  0.00     0.031 C 
ENDBRANCH  17  19
ENDBRANCH   3  17
TORSDOF 2
ENDMDL
