/Users/jonathanwahrer/Desktop/Msc/3_Semester/Drug_Design_Praktikum/waehrer_HTS_screening/HTS_experiment/out/docking_results/vina_output/3e7o/2276_docked.pdbqt
 OpenBabel03192217013D

 21 24  0  0  1  0  0  0  0  0999 V2000
  -41.7470  -66.5950   51.7100 Cl  0  0  0  0  0  0  0  0  0  0  0  0
  -40.1790  -67.0640   51.0820 C   0  0  0  0  0  0  0  0  0  0  0  0
  -39.6480  -68.2660   51.5000 C   0  0  0  0  0  0  0  0  0  0  0  0
  -38.3920  -68.5740   50.9630 C   0  0  0  0  0  0  0  0  0  0  0  0
  -37.8650  -69.6500   51.3080 O   0  0  0  0  0  0  0  0  0  0  0  0
  -37.7780  -67.7460   50.1090 N   0  0  0  0  0  0  0  0  0  0  0  0
  -38.2940  -66.5930   49.7120 N   0  0  0  0  0  0  0  0  0  0  0  0
  -37.4970  -65.8150   48.7740 C   0  0  1  0  0  3  0  0  0  0  0  0
  -36.1550  -65.5810   49.4420 C   0  0  1  0  0  3  0  0  0  0  0  0
  -35.5890  -66.8430   49.9320 C   0  0  1  0  0  3  0  0  0  0  0  0
  -36.4620  -68.0440   49.5400 C   0  0  2  0  0  3  0  0  0  0  0  0
  -36.6690  -67.9300   48.0560 C   0  0  0  0  0  2  0  0  0  0  0  0
  -37.2010  -66.7880   47.6560 C   0  0  0  0  0  2  0  0  0  0  0  0
  -34.9100  -66.0650   48.7970 C   0  0  0  0  0  2  0  0  0  0  0  0
  -39.4850  -66.2500   50.1920 C   0  0  0  0  0  0  0  0  0  0  0  0
  -39.9840  -65.1570   49.8200 O   0  0  0  0  0  0  0  0  0  0  0  0
  -40.2920  -69.1590   52.4040 N   0  0  0  0  0  0  0  0  0  0  0  0
  -40.8580  -69.9110   51.9570 H   0  0  0  0  0  0  0  0  0  0  0  0
  -40.2170  -69.0950   53.8180 C   0  0  0  0  0  3  0  0  0  0  0  0
  -41.5410  -69.2190   54.5250 C   0  0  0  0  0  1  0  0  0  0  0  0
  -39.3050  -70.1550   54.4190 C   0  0  0  0  0  1  0  0  0  0  0  0
  2  3  2  0  0  0  0
  2  1  1  0  0  0  0
  3 17  1  0  0  0  0
  4  5  2  0  0  0  0
  4  3  1  0  0  0  0
  6  4  1  0  0  0  0
  7  6  1  0  0  0  0
  7 15  1  0  0  0  0
  8 13  1  6  0  0  0
  8  9  1  0  0  0  0
  8  7  1  0  0  0  0
  9 14  1  6  0  0  0
  9 10  1  0  0  0  0
 10 14  1  6  0  0  0
 11 12  1  6  0  0  0
 11 10  1  0  0  0  0
 11  6  1  0  0  0  0
 13 12  1  0  0  0  0
 15  2  1  0  0  0  0
 16 15  2  0  0  0  0
 17 19  1  0  0  0  0
 18 17  1  0  0  0  0
 19 21  1  0  0  0  0
 19 20  1  0  0  0  0
M  END
>  <Pose>
1

>  <Score>
-7.029

$$$$
