MODEL 1
REMARK VINA RESULT:    -7.881      0.000      0.000
REMARK INTER + INTRA:         -10.761
REMARK INTER:                 -10.185
REMARK INTRA:                  -0.576
REMARK UNBOUND:                -0.576
REMARK  5 active torsions:
REMARK  status: ('A' for Active; 'I' for Inactive)
REMARK    1  A    between atoms: C_3  and  N_15 
REMARK    2  A    between atoms: N_6  and  C_9 
REMARK    3  A    between atoms: N_18  and  C_21 
REMARK    4  A    between atoms: C_21  and  C_22 
REMARK       I    between atoms: C_22  and  N_24 
REMARK       I    between atoms: N_24  and  C_25 
REMARK       I    between atoms: C_25  and  N_27 
REMARK    5  A    between atoms: N_27  and  C_28 
ROOT
ATOM      1  N   UNK d   1     -40.632 -63.545  48.781  0.00  0.00    -0.375 N 
ATOM      2  C   UNK d   1     -41.285 -63.581  47.541  0.00  0.00     0.153 C 
ATOM      3  C   UNK d   1     -40.232 -63.153  46.454  0.00  0.00     0.292 C 
ATOM      4  N   UNK d   1     -38.913 -63.082  46.845  0.00  0.00     0.100 N 
ATOM      5  C   UNK d   1     -38.597 -62.810  48.221  0.00  0.00     0.292 C 
ATOM      6  C   UNK d   1     -39.857 -62.243  48.953  0.00  0.00     0.153 C 
ENDROOT
BRANCH   1   7
ATOM      7  C   UNK d   1     -40.378 -64.468  49.783  0.00  0.00     0.077 A 
ATOM      8  C   UNK d   1     -40.154 -65.767  49.637  0.00  0.00     0.131 A 
ATOM      9 Cl   UNK d   1     -39.655 -66.342  47.996  0.00  0.00    -0.076 Cl
ATOM     10  C   UNK d   1     -40.264 -66.699  50.670  0.00  0.00     0.292 A 
ATOM     11  N   UNK d   1     -40.595 -66.283  51.861  0.00  0.00    -0.197 N 
ATOM     12  O   UNK d   1     -40.046 -67.924  50.377  0.00  0.00    -0.264 OA
ATOM     13  N   UNK d   1     -40.817 -64.957  52.057  0.00  0.00    -0.174 NA
ATOM     14  C   UNK d   1     -40.734 -64.048  51.160  0.00  0.00     0.170 A 
BRANCH  11  15
ATOM     15  C   UNK d   1     -41.005 -67.185  52.936  0.00  0.00     0.062 A 
ATOM     16  C   UNK d   1     -40.124 -67.949  53.632  0.00  0.00     0.032 A 
ATOM     17  C   UNK d   1     -40.523 -68.696  54.719  0.00  0.00     0.002 A 
ATOM     18  C   UNK d   1     -41.853 -68.687  55.138  0.00  0.00     0.000 A 
ATOM     19  C   UNK d   1     -42.736 -67.900  54.399  0.00  0.00     0.002 A 
ATOM     20  C   UNK d   1     -42.327 -67.181  53.345  0.00  0.00     0.032 A 
ENDBRANCH  11  15
ENDBRANCH   1   7
BRANCH   4  21
ATOM     21  C   UNK d   1     -38.091 -62.051  46.127  0.00  0.00     0.375 C 
BRANCH  21  22
ATOM     22  C   UNK d   1     -36.712 -62.115  46.588  0.00  0.00     0.254 C 
ATOM     23  O   UNK d   1     -36.041 -61.458  47.193  0.00  0.00    -0.271 OA
ATOM     24  N   UNK d   1     -35.989 -63.568  46.055  0.00  0.00    -0.278 N 
ATOM     25  C   UNK d   1     -34.804 -63.457  46.976  0.00  0.00     0.323 C 
ATOM     26  H   UNK d   1     -36.599 -63.619  45.582  0.00  0.00     0.173 HD
ATOM     27  O   UNK d   1     -34.295 -62.434  47.341  0.00  0.00    -0.247 OA
ATOM     28  N   UNK d   1     -34.365 -64.772  47.383  0.00  0.00    -0.338 N 
ATOM     29  H   UNK d   1     -34.903 -65.589  46.940  0.00  0.00     0.164 HD
BRANCH  28  30
ATOM     30  C   UNK d   1     -33.309 -65.095  48.266  0.00  0.00     0.086 C 
ATOM     31  C   UNK d   1     -33.374 -64.662  49.674  0.00  0.00     0.025 C 
ATOM     32  C   UNK d   1     -34.028 -65.794  50.472  0.00  0.00     0.002 C 
ATOM     33  C   UNK d   1     -33.520 -67.008  49.729  0.00  0.00     0.002 C 
ATOM     34  C   UNK d   1     -33.303 -66.636  48.329  0.00  0.00     0.025 C 
ENDBRANCH  28  30
ENDBRANCH  21  22
ENDBRANCH   4  21
TORSDOF 5
ENDMDL
