MODEL 1
REMARK VINA RESULT:    -7.822      0.000      0.000
REMARK INTER + INTRA:         -11.268
REMARK INTER:                 -10.566
REMARK INTRA:                  -0.703
REMARK UNBOUND:                -0.703
REMARK  6 active torsions:
REMARK  status: ('A' for Active; 'I' for Inactive)
REMARK    1  A    between atoms: C_3  and  N_15 
REMARK    2  A    between atoms: N_6  and  C_9 
REMARK    3  A    between atoms: N_18  and  C_21 
REMARK    4  A    between atoms: C_21  and  C_22 
REMARK       I    between atoms: C_22  and  N_24 
REMARK    5  A    between atoms: N_24  and  C_25 
REMARK    6  A    between atoms: C_25  and  C_26 
ROOT
ATOM      1  N   UNK d   1     -38.995 -65.598  48.852  0.00  0.00    -0.375 N 
ATOM      2  C   UNK d   1     -38.905 -66.255  47.571  0.00  0.00     0.153 C 
ATOM      3  C   UNK d   1     -37.555 -66.882  47.412  0.00  0.00     0.292 C 
ATOM      4  N   UNK d   1     -36.911 -66.846  48.701  0.00  0.00     0.100 NA
ATOM      5  C   UNK d   1     -36.581 -65.502  49.011  0.00  0.00     0.292 C 
ATOM      6  C   UNK d   1     -37.898 -64.773  49.294  0.00  0.00     0.153 C 
ENDROOT
BRANCH   1   7
ATOM      7  C   UNK d   1     -40.125 -65.726  49.701  0.00  0.00     0.077 A 
ATOM      8  C   UNK d   1     -40.910 -64.632  50.053  0.00  0.00     0.131 A 
ATOM      9 Cl   UNK d   1     -40.439 -63.073  49.410  0.00  0.00    -0.076 Cl
ATOM     10  C   UNK d   1     -42.009 -64.786  50.875  0.00  0.00     0.292 A 
ATOM     11  N   UNK d   1     -42.363 -65.989  51.365  0.00  0.00    -0.197 N 
ATOM     12  O   UNK d   1     -42.717 -63.789  51.191  0.00  0.00    -0.264 OA
ATOM     13  N   UNK d   1     -41.606 -67.015  51.019  0.00  0.00    -0.174 NA
ATOM     14  C   UNK d   1     -40.524 -66.937  50.225  0.00  0.00     0.170 A 
BRANCH  11  15
ATOM     15  C   UNK d   1     -43.506 -66.149  52.216  0.00  0.00     0.062 A 
ATOM     16  C   UNK d   1     -43.338 -66.410  53.556  0.00  0.00     0.032 A 
ATOM     17  C   UNK d   1     -44.446 -66.568  54.396  0.00  0.00     0.002 A 
ATOM     18  C   UNK d   1     -45.730 -66.466  53.912  0.00  0.00     0.000 A 
ATOM     19  C   UNK d   1     -45.908 -66.204  52.571  0.00  0.00     0.002 A 
ATOM     20  C   UNK d   1     -44.798 -66.050  51.746  0.00  0.00     0.032 A 
ENDBRANCH  11  15
ENDBRANCH   1   7
BRANCH   4  21
ATOM     21  C   UNK d   1     -35.958 -67.852  48.953  0.00  0.00     0.374 C 
BRANCH  21  22
ATOM     22  C   UNK d   1     -36.110 -68.533  50.243  0.00  0.00     0.246 C 
ATOM     23  O   UNK d   1     -35.029 -68.765  50.885  0.00  0.00    -0.272 OA
ATOM     24  N   UNK d   1     -37.328 -68.948  50.834  0.00  0.00    -0.357 N 
ATOM     25  H   UNK d   1     -38.206 -68.748  50.313  0.00  0.00     0.162 HD
BRANCH  24  26
ATOM     26  C   UNK d   1     -37.427 -69.615  52.107  0.00  0.00     0.154 C 
BRANCH  26  27
ATOM     27  C   UNK d   1     -38.868 -69.755  52.489  0.00  0.00     0.139 C 
ATOM     28  O   UNK d   1     -38.988 -70.693  53.480  0.00  0.00    -0.384 OA
ATOM     29  C   UNK d   1     -39.591 -70.161  54.587  0.00  0.00     0.168 C 
ATOM     30  C   UNK d   1     -40.461 -69.061  54.016  0.00  0.00     0.029 C 
ATOM     31  C   UNK d   1     -39.437 -68.456  53.040  0.00  0.00     0.035 C 
ENDBRANCH  26  27
ENDBRANCH  24  26
ENDBRANCH  21  22
ENDBRANCH   4  21
TORSDOF 6
ENDMDL
