MODEL 1
REMARK VINA RESULT:    -7.756      0.000      0.000
REMARK INTER + INTRA:         -11.188
REMARK INTER:                 -10.023
REMARK INTRA:                  -1.164
REMARK UNBOUND:                -1.164
REMARK  5 active torsions:
REMARK  status: ('A' for Active; 'I' for Inactive)
REMARK    1  A    between atoms: S_1  and  N_4 
REMARK    2  A    between atoms: S_1  and  C_28 
REMARK    3  A    between atoms: N_7  and  C_10 
REMARK    4  A    between atoms: C_10  and  C_11 
REMARK    5  A    between atoms: C_17  and  C_21 
ROOT
ATOM      1  C   UNK d   1     -37.724 -68.239  50.556  0.00  0.00     0.060 A 
ATOM      2  C   UNK d   1     -38.233 -68.968  51.612  0.00  0.00     0.105 A 
ATOM      3  C   UNK d   1     -39.451 -68.740  52.201  0.00  0.00     0.272 A 
ATOM      4  O   UNK d   1     -39.815 -69.482  53.172  0.00  0.00    -0.266 OA
ATOM      5  N   UNK d   1     -40.246 -67.731  51.735  0.00  0.00    -0.171 N 
ATOM      6  N   UNK d   1     -41.393 -67.417  52.190  0.00  0.00    -0.154 NA
ATOM      7  C   UNK d   1     -42.098 -66.442  51.699  0.00  0.00     0.132 A 
ATOM      8  S   UNK d   1     -41.024 -65.906  50.456  0.00  0.00    -0.028 SA
ATOM      9  C   UNK d   1     -39.751 -67.029  50.714  0.00  0.00     0.199 A 
ATOM     10  N   UNK d   1     -38.550 -67.256  50.138  0.00  0.00    -0.225 NA
ENDROOT
BRANCH   1  11
ATOM     11  C   UNK d   1     -36.399 -68.527  49.956  0.00  0.00     0.176 C 
BRANCH  11  12
ATOM     12  N   UNK d   1     -35.963 -67.376  49.232  0.00  0.00    -0.404 N 
ATOM     13  C   UNK d   1     -35.669 -67.560  47.867  0.00  0.00     0.137 C 
ATOM     14  C   UNK d   1     -35.656 -66.192  47.178  0.00  0.00     0.155 C 
ATOM     15  N   UNK d   1     -34.844 -65.294  47.876  0.00  0.00    -0.302 N 
ATOM     16  C   UNK d   1     -34.124 -65.864  48.937  0.00  0.00     0.155 C 
ATOM     17  C   UNK d   1     -35.070 -66.521  49.917  0.00  0.00     0.137 C 
BRANCH  15  18
ATOM     18  S   UNK d   1     -35.111 -63.657  47.814  0.00  0.00     0.280 S 
ATOM     19  O   UNK d   1     -34.903 -63.184  46.379  0.00  0.00    -0.199 OA
ATOM     20  O   UNK d   1     -34.204 -62.886  48.738  0.00  0.00    -0.199 OA
BRANCH  18  21
ATOM     21  C   UNK d   1     -36.775 -63.272  48.193  0.00  0.00     0.188 A 
ATOM     22  N   UNK d   1     -37.535 -62.293  47.627  0.00  0.00    -0.229 NA
ATOM     23  C   UNK d   1     -38.756 -62.287  48.165  0.00  0.00     0.208 A 
ATOM     24  N   UNK d   1     -38.841 -63.252  49.092  0.00  0.00    -0.358 N 
ATOM     25  C   UNK d   1     -37.621 -63.855  49.105  0.00  0.00     0.134 A 
ATOM     26  H   UNK d   1     -39.664 -63.484  49.672  0.00  0.00     0.166 HD
ENDBRANCH  18  21
ENDBRANCH  15  18
ENDBRANCH  11  12
ENDBRANCH   1  11
BRANCH   7  27
ATOM     27  C   UNK d   1     -43.418 -65.909  52.054  0.00  0.00     0.002 A 
ATOM     28  C   UNK d   1     -43.812 -64.703  51.514  0.00  0.00     0.016 A 
ATOM     29  C   UNK d   1     -45.049 -64.146  51.811  0.00  0.00     0.024 A 
ATOM     30  C   UNK d   1     -45.910 -64.806  52.663  0.00  0.00     0.034 A 
ATOM     31  C   UNK d   1     -45.537 -66.018  53.217  0.00  0.00     0.024 A 
ATOM     32 Cl   UNK d   1     -47.458 -64.122  53.042  0.00  0.00    -0.084 Cl
ATOM     33  C   UNK d   1     -44.301 -66.530  52.893  0.00  0.00     0.016 A 
ENDBRANCH   7  27
TORSDOF 5
ENDMDL
