MODEL 1
REMARK VINA RESULT:    -7.881      0.000      0.000
REMARK INTER + INTRA:         -12.029
REMARK INTER:                 -10.646
REMARK INTRA:                  -1.384
REMARK UNBOUND:                -1.384
REMARK  6 active torsions:
REMARK  status: ('A' for Active; 'I' for Inactive)
REMARK    1  A    between atoms: S_1  and  N_4 
REMARK    2  A    between atoms: S_1  and  C_22 
REMARK    3  A    between atoms: N_7  and  C_10 
REMARK    4  A    between atoms: C_10  and  C_11 
REMARK    5  A    between atoms: N_13  and  C_14 
REMARK    6  A    between atoms: C_14  and  C_15 
ROOT
ATOM      1  N   UNK d   1     -34.297 -64.574  48.254  0.00  0.00    -0.203 NA
ATOM      2  C   UNK d   1     -34.999 -64.557  49.503  0.00  0.00     0.127 C 
ATOM      3  C   UNK d   1     -34.424 -65.519  50.560  0.00  0.00     0.132 C 
ATOM      4  N   UNK d   1     -34.410 -66.817  49.962  0.00  0.00    -0.403 N 
ATOM      5  C   UNK d   1     -33.433 -66.807  48.909  0.00  0.00     0.132 C 
ATOM      6  C   UNK d   1     -34.075 -65.997  47.816  0.00  0.00     0.127 C 
ENDROOT
BRANCH   1   7
ATOM      7  S   UNK d   1     -35.465 -63.993  47.045  0.00  0.00     0.243 S 
ATOM      8  O   UNK d   1     -35.261 -62.495  46.918  0.00  0.00    -0.206 OA
ATOM      9  O   UNK d   1     -35.167 -64.652  45.746  0.00  0.00    -0.206 OA
BRANCH   7  10
ATOM     10  C   UNK d   1     -37.091 -64.294  47.520  0.00  0.00     0.077 A 
ATOM     11  C   UNK d   1     -37.849 -63.151  47.805  0.00  0.00     0.064 A 
ATOM     12  C   UNK d   1     -39.211 -63.188  48.114  0.00  0.00     0.103 A 
ATOM     13  C   UNK d   1     -39.844 -64.428  48.137  0.00  0.00     0.102 A 
ATOM     14  O   UNK d   1     -39.927 -62.037  48.395  0.00  0.00    -0.346 OA
ATOM     15  C   UNK d   1     -39.080 -65.547  47.860  0.00  0.00     0.041 A 
ATOM     16  O   UNK d   1     -41.191 -64.391  48.443  0.00  0.00    -0.346 OA
ATOM     17  C   UNK d   1     -37.727 -65.497  47.551  0.00  0.00     0.028 A 
ATOM     18  C   UNK d   1     -41.970 -63.294  47.893  0.00  0.00     0.202 C 
ATOM     19  C   UNK d   1     -41.268 -61.980  47.975  0.00  0.00     0.202 C 
ENDBRANCH   7  10
ENDBRANCH   1   7
BRANCH   4  20
ATOM     20  C   UNK d   1     -34.665 -67.929  50.745  0.00  0.00     0.204 C 
BRANCH  20  21
ATOM     21  C   UNK d   1     -36.011 -68.504  50.689  0.00  0.00     0.169 C 
ATOM     22  O   UNK d   1     -36.671 -68.139  49.619  0.00  0.00    -0.176 OA
ATOM     23  N   UNK d   1     -36.685 -69.344  51.529  0.00  0.00    -0.366 N 
ATOM     24  H   UNK d   1     -36.301 -69.702  52.465  0.00  0.00     0.161 HD
BRANCH  23  25
ATOM     25  C   UNK d   1     -38.004 -69.919  51.258  0.00  0.00     0.162 C 
BRANCH  25  26
ATOM     26  C   UNK d   1     -38.925 -69.546  52.352  0.00  0.00    -0.019 A 
ATOM     27  C   UNK d   1     -39.765 -68.414  52.241  0.00  0.00     0.042 A 
ATOM     28  C   UNK d   1     -40.513 -67.960  53.259  0.00  0.00     0.024 A 
ATOM     29 Cl   UNK d   1     -39.835 -67.580  50.669  0.00  0.00    -0.084 Cl
ATOM     30  C   UNK d   1     -40.491 -68.624  54.525  0.00  0.00     0.002 A 
ATOM     31  C   UNK d   1     -39.695 -69.690  54.650  0.00  0.00     0.001 A 
ATOM     32  C   UNK d   1     -38.901 -70.182  53.606  0.00  0.00     0.010 A 
ENDBRANCH  25  26
ENDBRANCH  23  25
ENDBRANCH  20  21
ENDBRANCH   4  20
TORSDOF 6
ENDMDL
