/Users/jonathanwahrer/Desktop/Msc/3_Semester/Drug_Design_Praktikum/waehrer_HTS_screening/HTS_experiment/out/docking_results/vina_output/3e7o/2285_docked.pdbqt
 OpenBabel03192217033D

 32 35  0  0  0  0  0  0  0  0999 V2000
  -34.2970  -64.5740   48.2540 N   0  0  0  0  0  0  0  0  0  0  0  0
  -34.9990  -64.5570   49.5030 C   0  0  0  0  0  2  0  0  0  0  0  0
  -34.4240  -65.5190   50.5600 C   0  0  0  0  0  2  0  0  0  0  0  0
  -34.4100  -66.8170   49.9620 N   0  0  0  0  0  0  0  0  0  0  0  0
  -33.4330  -66.8070   48.9090 C   0  0  0  0  0  2  0  0  0  0  0  0
  -34.0750  -65.9970   47.8160 C   0  0  0  0  0  2  0  0  0  0  0  0
  -35.4650  -63.9930   47.0450 S   0  0  0  0  0  0  0  0  0  0  0  0
  -35.2610  -62.4950   46.9180 O   0  0  0  0  0  0  0  0  0  0  0  0
  -35.1670  -64.6520   45.7460 O   0  0  0  0  0  0  0  0  0  0  0  0
  -37.0910  -64.2940   47.5200 C   0  0  0  0  0  0  0  0  0  0  0  0
  -37.8490  -63.1510   47.8050 C   0  0  0  0  0  3  0  0  0  0  0  0
  -39.2110  -63.1880   48.1140 C   0  0  0  0  0  0  0  0  0  0  0  0
  -39.8440  -64.4280   48.1370 C   0  0  0  0  0  0  0  0  0  0  0  0
  -39.9270  -62.0370   48.3950 O   0  0  0  0  0  0  0  0  0  0  0  0
  -39.0800  -65.5470   47.8600 C   0  0  0  0  0  3  0  0  0  0  0  0
  -41.1910  -64.3910   48.4430 O   0  0  0  0  0  0  0  0  0  0  0  0
  -37.7270  -65.4970   47.5510 C   0  0  0  0  0  3  0  0  0  0  0  0
  -41.9700  -63.2940   47.8930 C   0  0  0  0  0  2  0  0  0  0  0  0
  -41.2680  -61.9800   47.9750 C   0  0  0  0  0  2  0  0  0  0  0  0
  -34.6650  -67.9290   50.7450 C   0  0  0  0  0  2  0  0  0  0  0  0
  -36.0110  -68.5040   50.6890 C   0  0  0  0  0  0  0  0  0  0  0  0
  -36.6710  -68.1390   49.6190 O   0  0  0  0  0  0  0  0  0  0  0  0
  -36.6850  -69.3440   51.5290 N   0  0  0  0  0  0  0  0  0  0  0  0
  -36.3010  -69.7020   52.4650 H   0  0  0  0  0  0  0  0  0  0  0  0
  -38.0040  -69.9190   51.2580 C   0  0  0  0  0  2  0  0  0  0  0  0
  -38.9250  -69.5460   52.3520 C   0  0  0  0  0  0  0  0  0  0  0  0
  -39.7650  -68.4140   52.2410 C   0  0  0  0  0  0  0  0  0  0  0  0
  -40.5130  -67.9600   53.2590 C   0  0  0  0  0  3  0  0  0  0  0  0
  -39.8350  -67.5800   50.6690 Cl  0  0  0  0  0  0  0  0  0  0  0  0
  -40.4910  -68.6240   54.5250 C   0  0  0  0  0  3  0  0  0  0  0  0
  -39.6950  -69.6900   54.6500 C   0  0  0  0  0  3  0  0  0  0  0  0
  -38.9010  -70.1820   53.6060 C   0  0  0  0  0  3  0  0  0  0  0  0
  1  2  1  0  0  0  0
  2  3  1  0  0  0  0
  4  3  1  0  0  0  0
  4 20  1  0  0  0  0
  5  4  1  0  0  0  0
  6  1  1  0  0  0  0
  6  5  1  0  0  0  0
  7 10  1  0  0  0  0
  7  1  1  0  0  0  0
  8  7  2  0  0  0  0
  9  7  2  0  0  0  0
 10 17  2  0  0  0  0
 10 11  1  0  0  0  0
 11 12  2  0  0  0  0
 12 13  1  0  0  0  0
 12 14  1  0  0  0  0
 13 16  1  0  0  0  0
 15 13  2  0  0  0  0
 17 15  1  0  0  0  0
 18 19  1  0  0  0  0
 18 16  1  0  0  0  0
 19 14  1  0  0  0  0
 21 20  1  0  0  0  0
 21 23  1  0  0  0  0
 22 21  2  0  0  0  0
 23 24  1  0  0  0  0
 25 23  1  0  0  0  0
 25 26  1  0  0  0  0
 26 32  1  0  0  0  0
 27 26  2  0  0  0  0
 27 28  1  0  0  0  0
 28 30  2  0  0  0  0
 29 27  1  0  0  0  0
 30 31  1  0  0  0  0
 32 31  2  0  0  0  0
M  END
>  <Pose>
1

>  <Score>
-7.881

$$$$
