/Users/jonathanwahrer/Desktop/Msc/3_Semester/Drug_Design_Praktikum/waehrer_HTS_screening/HTS_experiment/out/docking_results/vina_output/3e7o/2286_docked.pdbqt
 OpenBabel03192217033D

 31 34  0  0  0  0  0  0  0  0999 V2000
  -36.3280  -65.8340   48.2130 N   0  0  0  0  0  0  0  0  0  0  0  0
  -37.3890  -65.4920   47.3370 C   0  0  0  0  0  2  0  0  0  0  0  0
  -38.7580  -65.6040   47.9520 C   0  0  0  0  0  2  0  0  0  0  0  0
  -38.7790  -65.1510   49.3270 N   0  0  0  0  0  0  0  0  0  0  0  0
  -37.5990  -64.4410   49.7840 C   0  0  0  0  0  2  0  0  0  0  0  0
  -36.3360  -65.2120   49.4880 C   0  0  0  0  0  2  0  0  0  0  0  0
  -39.8980  -65.4090   50.1280 C   0  0  0  0  0  0  0  0  0  0  0  0
  -40.8690  -66.0310   49.6370 O   0  0  0  0  0  0  0  0  0  0  0  0
  -39.9800  -64.9720   51.5460 C   0  0  0  0  0  2  0  0  0  0  0  0
  -41.1500  -65.4850   52.2030 N   0  0  0  0  0  0  0  0  0  0  0  0
  -41.2150  -66.7390   52.8640 C   0  0  0  0  0  0  0  0  0  0  0  0
  -40.2440  -67.5640   52.9530 O   0  0  0  0  0  0  0  0  0  0  0  0
  -42.5020  -66.9740   53.4190 N   0  0  0  0  0  0  0  0  0  0  0  0
  -43.3730  -65.9300   52.9110 C   0  0  0  0  0  0  0  0  0  0  0  0
  -42.8540  -68.0650   54.3280 C   0  0  0  0  0  1  0  0  0  0  0  0
  -44.1720  -65.2750   54.0000 C   0  0  0  0  0  2  0  0  0  0  0  0
  -44.2320  -66.5540   51.8380 C   0  0  0  0  0  2  0  0  0  0  0  0
  -42.4440  -64.9160   52.3540 C   0  0  0  0  0  0  0  0  0  0  0  0
  -45.4390  -66.0010   54.3430 C   0  0  0  0  0  2  0  0  0  0  0  0
  -46.2830  -66.3400   53.1500 C   0  0  0  0  0  2  0  0  0  0  0  0
  -45.6210  -65.9550   51.8450 C   0  0  0  0  0  2  0  0  0  0  0  0
  -42.7190  -63.7310   52.0480 O   0  0  0  0  0  0  0  0  0  0  0  0
  -35.9270  -67.4970   48.2440 S   0  0  0  0  0  0  0  0  0  0  0  0
  -34.4710  -67.6610   47.9340 O   0  0  0  0  0  0  0  0  0  0  0  0
  -36.7100  -68.2670   47.2220 O   0  0  0  0  0  0  0  0  0  0  0  0
  -36.2960  -68.2260   49.8150 C   0  0  0  0  0  0  0  0  0  0  0  0
  -37.8010  -68.7210   50.4300 S   0  0  0  0  0  0  0  0  0  0  0  0
  -37.3040  -69.2950   51.9510 C   0  0  0  0  0  0  0  0  0  0  0  0
  -35.9510  -69.0840   51.9430 C   0  0  0  0  0  3  0  0  0  0  0  0
  -38.2740  -70.0040   53.2600 Cl  0  0  0  0  0  0  0  0  0  0  0  0
  -35.4260  -68.5260   50.8280 C   0  0  0  0  0  3  0  0  0  0  0  0
  1 23  1  0  0  0  0
  1  6  1  0  0  0  0
  2  3  1  0  0  0  0
  2  1  1  0  0  0  0
  3  4  1  0  0  0  0
  4  5  1  0  0  0  0
  4  7  1  0  0  0  0
  6  5  1  0  0  0  0
  7  9  1  0  0  0  0
  8  7  2  0  0  0  0
  9 10  1  0  0  0  0
 10 18  1  0  0  0  0
 10 11  1  0  0  0  0
 11 12  2  0  0  0  0
 11 13  1  0  0  0  0
 13 15  1  0  0  0  0
 14 13  1  0  0  0  0
 14 16  1  0  0  0  0
 16 19  1  0  0  0  0
 17 21  1  0  0  0  0
 17 14  1  0  0  0  0
 18 14  1  0  0  0  0
 20 19  1  0  0  0  0
 21 20  1  0  0  0  0
 22 18  2  0  0  0  0
 23 26  1  0  0  0  0
 24 23  2  0  0  0  0
 25 23  2  0  0  0  0
 26 27  1  0  0  0  0
 26 31  2  0  0  0  0
 27 28  1  0  0  0  0
 28 30  1  0  0  0  0
 29 28  2  0  0  0  0
 31 29  1  0  0  0  0
M  END
>  <Pose>
1

>  <Score>
-7.815

$$$$
