MODEL 1
REMARK VINA RESULT:    -7.834      0.000      0.000
REMARK INTER + INTRA:          -9.581
REMARK INTER:                  -8.979
REMARK INTRA:                  -0.601
REMARK UNBOUND:                -0.601
REMARK  3 active torsions:
REMARK  status: ('A' for Active; 'I' for Inactive)
REMARK    1  A    between atoms: C_5  and  C_8 
REMARK    2  A    between atoms: C_8  and  O_23 
REMARK    3  A    between atoms: N_11  and  C_14 
ROOT
ATOM      1  C   UNK d   1     -42.777 -65.816  52.993  0.00  0.00     0.088 C 
ATOM      2  C   UNK d   1     -42.056 -65.740  51.688  0.00  0.00     0.062 C 
ATOM      3  C   UNK d   1     -41.880 -67.145  51.086  0.00  0.00     0.128 C 
ATOM      4  N   UNK d   1     -40.993 -67.803  52.056  0.00  0.00    -0.364 N 
ATOM      5  C   UNK d   1     -41.576 -68.016  53.343  0.00  0.00     0.128 C 
ATOM      6  C   UNK d   1     -42.175 -66.779  53.946  0.00  0.00     0.062 C 
ENDROOT
BRANCH   1   7
ATOM      7  C   UNK d   1     -44.219 -65.987  52.749  0.00  0.00    -0.024 A 
ATOM      8  C   UNK d   1     -44.951 -65.334  51.800  0.00  0.00     0.012 A 
ATOM      9  C   UNK d   1     -46.289 -65.590  51.686  0.00  0.00     0.024 A 
ATOM     10  C   UNK d   1     -46.974 -66.493  52.489  0.00  0.00     0.034 A 
ATOM     11 Cl   UNK d   1     -48.688 -66.796  52.298  0.00  0.00    -0.084 Cl
ATOM     12  C   UNK d   1     -46.231 -67.144  53.442  0.00  0.00     0.024 A 
ATOM     13  C   UNK d   1     -44.878 -66.898  53.573  0.00  0.00     0.012 A 
ENDBRANCH   1   7
BRANCH   1  14
ATOM     14  O   UNK d   1     -42.662 -64.525  53.569  0.00  0.00    -0.385 OA
ATOM     15  H   UNK d   1     -43.138 -64.564  54.455  0.00  0.00     0.211 HD
ENDBRANCH   1  14
BRANCH   4  16
ATOM     16  C   UNK d   1     -39.683 -68.156  51.652  0.00  0.00     0.148 A 
ATOM     17  N   UNK d   1     -39.097 -67.487  50.644  0.00  0.00    -0.129 NA
ATOM     18  N   UNK d   1     -37.882 -67.714  50.185  0.00  0.00    -0.108 N 
ATOM     19  N   UNK d   1     -37.120 -67.184  49.224  0.00  0.00    -0.021 NA
ATOM     20  C   UNK d   1     -37.144 -68.674  50.738  0.00  0.00     0.196 A 
ATOM     21  N   UNK d   1     -35.953 -67.787  49.173  0.00  0.00    -0.021 NA
ATOM     22  N   UNK d   1     -35.948 -68.706  50.099  0.00  0.00    -0.107 NA
ATOM     23  C   UNK d   1     -37.680 -69.406  51.783  0.00  0.00     0.060 A 
ATOM     24  C   UNK d   1     -38.953 -69.156  52.250  0.00  0.00     0.056 A 
ENDBRANCH   4  16
TORSDOF 3
ENDMDL
