/Users/jonathanwahrer/Desktop/Msc/3_Semester/Drug_Design_Praktikum/waehrer_HTS_screening/HTS_experiment/out/docking_results/vina_output/3e7o/2304_docked.pdbqt
 OpenBabel03192217043D

 28 31  0  0  1  0  0  0  0  0999 V2000
  -44.5600  -66.1710   52.5830 N   0  0  0  0  0  0  0  0  0  0  0  0
  -45.0710  -65.0860   51.8340 C   0  0  0  0  0  2  0  0  0  0  0  0
  -46.4600  -65.2890   51.2880 C   0  0  0  0  0  2  0  0  0  0  0  0
  -47.3540  -65.9000   52.2310 N   0  0  0  0  0  0  0  0  0  0  0  0
  -46.7640  -66.4670   53.4180 C   0  0  0  0  0  2  0  0  0  0  0  0
  -45.4850  -67.1740   52.9780 C   0  0  0  0  0  2  0  0  0  0  0  0
  -48.7350  -65.9320   51.9760 C   0  0  0  0  0  0  0  0  0  0  0  0
  -49.1350  -65.4150   50.8950 O   0  0  0  0  0  0  0  0  0  0  0  0
  -49.7430  -66.5320   52.8920 C   0  0  2  0  0  3  0  0  0  0  0  0
  -49.9850  -67.8950   52.5900 N   0  0  0  0  0  0  0  0  0  0  0  0
  -51.0260  -68.1640   51.6520 C   0  0  2  0  0  0  0  0  0  0  0  0
  -49.4720  -69.1970   52.9560 C   0  0  0  0  0  0  0  0  0  0  0  0
  -52.1800  -66.8070   51.9360 S   0  0  0  0  0  0  0  0  0  0  0  0
  -51.6650  -69.4200   52.2130 C   0  0  0  0  0  2  0  0  0  0  0  0
  -50.6140  -68.3210   50.2420 C   0  0  0  0  0  1  0  0  0  0  0  0
  -51.0290  -65.7610   52.9120 C   0  0  0  0  0  2  0  0  0  0  0  0
  -50.3930  -70.2310   52.4920 C   0  0  0  0  0  2  0  0  0  0  0  0
  -48.3960  -69.4440   53.5790 O   0  0  0  0  0  0  0  0  0  0  0  0
  -43.3630  -65.7830   53.7210 S   0  0  0  0  0  0  0  0  0  0  0  0
  -42.7870  -64.4280   53.4540 O   0  0  0  0  0  0  0  0  0  0  0  0
  -44.0070  -65.7180   55.0840 O   0  0  0  0  0  0  0  0  0  0  0  0
  -42.0920  -66.9980   53.8240 C   0  0  0  0  0  0  0  0  0  0  0  0
  -41.9710  -67.7910   54.9430 C   0  0  0  0  0  3  0  0  0  0  0  0
  -40.9900  -68.7470   55.0560 C   0  0  0  0  0  3  0  0  0  0  0  0
  -40.0720  -68.9570   54.0430 C   0  0  0  0  0  0  0  0  0  0  0  0
  -40.2180  -68.1450   52.9310 C   0  0  0  0  0  3  0  0  0  0  0  0
  -38.8090  -70.1660   54.1530 Cl  0  0  0  0  0  0  0  0  0  0  0  0
  -41.1940  -67.1870   52.8040 C   0  0  0  0  0  3  0  0  0  0  0  0
  1  6  1  0  0  0  0
  1 19  1  0  0  0  0
  2  1  1  0  0  0  0
  3  2  1  0  0  0  0
  3  4  1  0  0  0  0
  4  5  1  0  0  0  0
  6  5  1  0  0  0  0
  7  4  1  0  0  0  0
  8  7  2  0  0  0  0
  9  7  1  6  0  0  0
  9 16  1  0  0  0  0
 10  9  1  0  0  0  0
 10 12  1  0  0  0  0
 11 15  1  6  0  0  0
 11 13  1  0  0  0  0
 11 14  1  0  0  0  0
 11 10  1  0  0  0  0
 12 18  2  0  0  0  0
 13 16  1  0  0  0  0
 14 17  1  0  0  0  0
 17 12  1  0  0  0  0
 19 22  1  0  0  0  0
 19 21  2  0  0  0  0
 20 19  2  0  0  0  0
 22 23  1  0  0  0  0
 23 24  2  0  0  0  0
 25 27  1  0  0  0  0
 25 24  1  0  0  0  0
 26 25  2  0  0  0  0
 28 26  1  0  0  0  0
 28 22  2  0  0  0  0
M  END
>  <Pose>
1

>  <Score>
-8.194

$$$$
