MODEL 1
REMARK VINA RESULT:    -8.194      0.000      0.000
REMARK INTER + INTRA:         -10.238
REMARK INTER:                  -9.631
REMARK INTRA:                  -0.607
REMARK UNBOUND:                -0.607
REMARK  3 active torsions:
REMARK  status: ('A' for Active; 'I' for Inactive)
REMARK    1  A    between atoms: S_1  and  N_4 
REMARK    2  A    between atoms: S_1  and  C_22 
REMARK       I    between atoms: N_7  and  C_10 
REMARK    3  A    between atoms: C_10  and  C_12 
ROOT
ATOM      1  N   UNK d   1     -44.560 -66.171  52.583  0.00  0.00    -0.304 N 
ATOM      2  C   UNK d   1     -45.071 -65.086  51.834  0.00  0.00     0.155 C 
ATOM      3  C   UNK d   1     -46.460 -65.289  51.288  0.00  0.00     0.146 C 
ATOM      4  N   UNK d   1     -47.354 -65.900  52.231  0.00  0.00    -0.347 N 
ATOM      5  C   UNK d   1     -46.764 -66.467  53.418  0.00  0.00     0.146 C 
ATOM      6  C   UNK d   1     -45.485 -67.174  52.978  0.00  0.00     0.155 C 
ATOM      7  C   UNK d   1     -48.735 -65.932  51.976  0.00  0.00     0.243 C 
ATOM      8  O   UNK d   1     -49.135 -65.415  50.895  0.00  0.00    -0.271 OA
ENDROOT
BRANCH   7   9
ATOM      9  C   UNK d   1     -49.743 -66.532  52.892  0.00  0.00     0.190 C 
ATOM     10  N   UNK d   1     -49.985 -67.895  52.590  0.00  0.00    -0.320 N 
ATOM     11  C   UNK d   1     -51.026 -68.164  51.652  0.00  0.00     0.081 C 
ATOM     12  C   UNK d   1     -49.472 -69.197  52.956  0.00  0.00     0.222 C 
ATOM     13  S   UNK d   1     -52.180 -66.807  51.936  0.00  0.00    -0.135 SA
ATOM     14  C   UNK d   1     -51.665 -69.420  52.213  0.00  0.00     0.051 C 
ATOM     15  C   UNK d   1     -50.614 -68.321  50.242  0.00  0.00     0.051 C 
ATOM     16  C   UNK d   1     -51.029 -65.761  52.912  0.00  0.00     0.111 C 
ATOM     17  C   UNK d   1     -50.393 -70.231  52.492  0.00  0.00     0.106 C 
ATOM     18  O   UNK d   1     -48.396 -69.444  53.579  0.00  0.00    -0.273 OA
ENDBRANCH   7   9
BRANCH   1  19
ATOM     19  S   UNK d   1     -43.363 -65.783  53.721  0.00  0.00     0.260 S 
ATOM     20  O   UNK d   1     -42.787 -64.428  53.454  0.00  0.00    -0.200 OA
ATOM     21  O   UNK d   1     -44.007 -65.718  55.084  0.00  0.00    -0.200 OA
BRANCH  19  22
ATOM     22  C   UNK d   1     -42.092 -66.998  53.824  0.00  0.00     0.079 A 
ATOM     23  C   UNK d   1     -41.971 -67.791  54.943  0.00  0.00     0.027 A 
ATOM     24  C   UNK d   1     -40.990 -68.747  55.056  0.00  0.00     0.025 A 
ATOM     25  C   UNK d   1     -40.072 -68.957  54.043  0.00  0.00     0.034 A 
ATOM     26  C   UNK d   1     -40.218 -68.145  52.931  0.00  0.00     0.025 A 
ATOM     27 Cl   UNK d   1     -38.809 -70.166  54.153  0.00  0.00    -0.084 Cl
ATOM     28  C   UNK d   1     -41.194 -67.187  52.804  0.00  0.00     0.027 A 
ENDBRANCH  19  22
ENDBRANCH   1  19
TORSDOF 3
ENDMDL
