/Users/jonathanwahrer/Desktop/Msc/3_Semester/Drug_Design_Praktikum/waehrer_HTS_screening/HTS_experiment/out/docking_results/vina_output/3e7o/2330_docked.pdbqt
 OpenBabel03192217043D

 28 31  0  0  0  0  0  0  0  0999 V2000
  -40.8390  -68.0400   53.8330 C   0  0  0  0  0  0  0  0  0  0  0  0
  -40.3700  -67.9360   54.9890 O   0  0  0  0  0  0  0  0  0  0  0  0
  -42.2110  -67.8820   53.6330 N   0  0  0  0  0  0  0  0  0  0  0  0
  -42.5090  -67.9800   52.5970 H   0  0  0  0  0  0  0  0  0  0  0  0
  -39.8870  -68.3270   52.7440 C   0  0  0  0  0  0  0  0  0  0  0  0
  -39.0090  -69.3900   52.8020 C   0  0  0  0  0  0  0  0  0  0  0  0
  -39.0610  -70.4090   54.2330 Cl  0  0  0  0  0  0  0  0  0  0  0  0
  -38.1100  -69.6600   51.7740 C   0  0  0  0  0  3  0  0  0  0  0  0
  -38.1000  -68.8420   50.6750 C   0  0  0  0  0  3  0  0  0  0  0  0
  -38.9700  -67.7510   50.5670 C   0  0  0  0  0  0  0  0  0  0  0  0
  -39.8300  -67.5400   51.6130 C   0  0  0  0  0  3  0  0  0  0  0  0
  -38.9270  -66.9070   49.3820 C   0  0  0  0  0  0  0  0  0  0  0  0
  -37.8710  -66.4140   48.7280 N   0  0  0  0  0  0  0  0  0  0  0  0
  -38.3040  -65.6860   47.6860 N   0  0  0  0  0  0  0  0  0  0  0  0
  -39.6250  -65.7180   47.6820 N   0  0  0  0  0  0  0  0  0  0  0  0
  -37.7170  -65.1740   46.9890 H   0  0  0  0  0  0  0  0  0  0  0  0
  -40.0070  -66.4660   48.7190 N   0  0  0  0  0  0  0  0  0  0  0  0
  -43.2560  -67.6230   54.5380 C   0  0  0  0  0  2  0  0  0  0  0  0
  -43.7610  -66.2600   54.7430 C   0  0  0  0  0  2  0  0  0  0  0  0
  -43.8400  -65.3400   53.6120 C   0  0  0  0  0  0  0  0  0  0  0  0
  -44.8300  -65.2220   52.7210 N   0  0  0  0  0  0  0  0  0  0  0  0
  -44.5240  -64.2410   51.8860 C   0  0  0  0  0  0  0  0  0  0  0  0
  -45.9860  -65.8990   52.5740 C   0  0  0  0  0  3  0  0  0  0  0  0
  -43.3360  -63.7460   52.2570 N   0  0  0  0  0  0  0  0  0  0  0  0
  -45.3490  -63.8690   50.8460 C   0  0  0  0  0  3  0  0  0  0  0  0
  -42.9260  -64.4140   53.3020 N   0  0  0  0  0  0  0  0  0  0  0  0
  -46.5340  -64.5650   50.6950 C   0  0  0  0  0  3  0  0  0  0  0  0
  -46.8420  -65.5770   51.5630 C   0  0  0  0  0  3  0  0  0  0  0  0
  1  2  2  0  0  0  0
  3  1  1  0  0  0  0
  3 18  1  0  0  0  0
  4  3  1  0  0  0  0
  5  6  1  0  0  0  0
  5  1  1  0  0  0  0
  6  7  1  0  0  0  0
  8  6  2  0  0  0  0
  9  8  1  0  0  0  0
 10  9  2  0  0  0  0
 10 11  1  0  0  0  0
 11  5  2  0  0  0  0
 12 10  1  0  0  0  0
 13 12  2  0  0  0  0
 14 13  1  0  0  0  0
 15 14  1  0  0  0  0
 15 17  2  0  0  0  0
 16 14  1  0  0  0  0
 17 12  1  0  0  0  0
 18 19  1  0  0  0  0
 20 19  1  0  0  0  0
 21 20  1  0  0  0  0
 22 24  2  0  0  0  0
 22 21  1  0  0  0  0
 23 21  1  0  0  0  0
 24 26  1  0  0  0  0
 25 22  1  0  0  0  0
 26 20  2  0  0  0  0
 27 25  2  0  0  0  0
 27 28  1  0  0  0  0
 28 23  2  0  0  0  0
M  END
>  <Pose>
1

>  <Score>
-8.938

$$$$
