/Users/jonathanwahrer/Desktop/Msc/3_Semester/Drug_Design_Praktikum/waehrer_HTS_screening/HTS_experiment/out/docking_results/vina_output/3e7o/2334_docked.pdbqt
 OpenBabel03192217053D

 30 33  0  0  1  0  0  0  0  0999 V2000
  -38.8540  -65.9980   48.7590 S   0  0  0  0  0  0  0  0  0  0  0  0
  -40.0000  -64.9940   48.9000 O   0  0  0  0  0  0  0  0  0  0  0  0
  -39.1640  -66.7330   47.4500 O   0  0  0  0  0  0  0  0  0  0  0  0
  -37.4340  -65.0890   48.5940 N   0  0  0  0  0  0  0  0  0  0  0  0
  -36.6800  -65.2910   47.4080 C   0  0  0  0  0  2  0  0  0  0  0  0
  -35.4490  -64.4190   47.3260 C   0  0  1  0  0  3  0  0  0  0  0  0
  -35.8180  -62.9830   47.4720 C   0  0  0  0  0  2  0  0  0  0  0  0
  -36.7050  -62.7500   48.6830 C   0  0  0  0  0  2  0  0  0  0  0  0
  -37.8670  -63.6770   48.6150 C   0  0  0  0  0  2  0  0  0  0  0  0
  -34.3330  -64.8680   48.1820 C   0  0  0  0  0  0  0  0  0  0  0  0
  -34.3920  -64.4740   49.4050 O   0  0  0  0  0  0  0  0  0  0  0  0
  -33.2500  -65.6550   47.8170 N   0  0  0  0  0  0  0  0  0  0  0  0
  -32.2520  -66.0500   48.7620 C   0  0  0  0  0  2  0  0  0  0  0  0
  -33.0600  -66.1080   46.4610 C   0  0  0  0  0  2  0  0  0  0  0  0
  -31.7170  -67.4360   48.5330 C   0  0  0  0  0  2  0  0  0  0  0  0
  -31.8290  -67.9060   47.2620 O   0  0  0  0  0  0  0  0  0  0  0  0
  -33.0110  -67.6390   46.6030 C   0  0  0  0  0  2  0  0  0  0  0  0
  -38.9200  -67.1410   50.0340 C   0  0  0  0  0  0  0  0  0  0  0  0
  -37.9590  -68.1050   50.2170 C   0  0  0  0  0  0  0  0  0  0  0  0
  -38.0340  -68.9590   51.3070 C   0  0  0  0  0  3  0  0  0  0  0  0
  -36.6490  -68.3860   49.0910 Cl  0  0  0  0  0  0  0  0  0  0  0  0
  -39.0760  -68.8670   52.2340 C   0  0  0  0  0  3  0  0  0  0  0  0
  -40.0470  -67.9070   52.0600 C   0  0  0  0  0  0  0  0  0  0  0  0
  -39.9550  -67.0690   50.9740 C   0  0  0  0  0  3  0  0  0  0  0  0
  -41.1460  -67.7900   53.0110 C   0  0  0  0  0  0  0  0  0  0  0  0
  -41.4990  -68.7040   53.9300 N   0  0  0  0  0  0  0  0  0  0  0  0
  -42.5250  -68.2740   54.6110 O   0  0  0  0  0  0  0  0  0  0  0  0
  -42.8660  -67.0930   54.1680 C   0  0  0  0  0  0  0  0  0  0  0  0
  -42.0160  -66.7800   53.1720 N   0  0  0  0  0  0  0  0  0  0  0  0
  -43.9940  -66.2330   54.6670 C   0  0  0  0  0  1  0  0  0  0  0  0
  1  2  2  0  0  0  0
  1 18  1  0  0  0  0
  3  1  2  0  0  0  0
  4  9  1  0  0  0  0
  4  1  1  0  0  0  0
  5  4  1  0  0  0  0
  6  5  1  0  0  0  0
  6  7  1  0  0  0  0
  6 10  1  1  0  0  0
  7  8  1  0  0  0  0
  9  8  1  0  0  0  0
 10 11  2  0  0  0  0
 12 10  1  0  0  0  0
 12 13  1  0  0  0  0
 14 17  1  0  0  0  0
 14 12  1  0  0  0  0
 15 13  1  0  0  0  0
 16 15  1  0  0  0  0
 17 16  1  0  0  0  0
 18 19  2  0  0  0  0
 18 24  1  0  0  0  0
 19 20  1  0  0  0  0
 20 22  2  0  0  0  0
 21 19  1  0  0  0  0
 23 22  1  0  0  0  0
 23 25  1  0  0  0  0
 24 23  2  0  0  0  0
 25 29  1  0  0  0  0
 25 26  2  0  0  0  0
 26 27  1  0  0  0  0
 28 27  1  0  0  0  0
 28 30  1  0  0  0  0
 29 28  2  0  0  0  0
M  END
>  <Pose>
1

>  <Score>
-8.557

$$$$
