MODEL 1
REMARK VINA RESULT:    -8.531      0.000      0.000
REMARK INTER + INTRA:         -13.026
REMARK INTER:                 -12.022
REMARK INTRA:                  -1.004
REMARK UNBOUND:                -1.004
REMARK  7 active torsions:
REMARK  status: ('A' for Active; 'I' for Inactive)
REMARK    1  A    between atoms: S_1  and  N_4 
REMARK    2  A    between atoms: S_1  and  C_21 
REMARK    3  A    between atoms: C_6  and  C_10 
REMARK       I    between atoms: C_10  and  N_12 
REMARK    4  A    between atoms: N_12  and  C_13 
REMARK    5  A    between atoms: C_13  and  C_14 
REMARK    6  A    between atoms: C_14  and  N_15 
REMARK       I    between atoms: N_30  and  C_31 
REMARK    7  A    between atoms: C_31  and  C_33 
ROOT
ATOM      1  N   UNK d   1     -40.477 -65.366  49.494  0.00  0.00    -0.306 N 
ATOM      2  C   UNK d   1     -41.211 -64.734  50.516  0.00  0.00     0.149 C 
ATOM      3  C   UNK d   1     -41.067 -65.398  51.868  0.00  0.00     0.096 C 
ATOM      4  C   UNK d   1     -40.767 -66.847  51.803  0.00  0.00     0.017 C 
ATOM      5  C   UNK d   1     -41.016 -67.532  50.509  0.00  0.00     0.021 C 
ATOM      6  C   UNK d   1     -40.698 -66.727  49.274  0.00  0.00     0.135 C 
ENDROOT
BRANCH   1   7
ATOM      7  S   UNK d   1     -39.336 -64.513  48.639  0.00  0.00     0.262 S 
ATOM      8  O   UNK d   1     -39.521 -63.024  48.929  0.00  0.00    -0.200 OA
ATOM      9  O   UNK d   1     -39.660 -64.627  47.154  0.00  0.00    -0.200 OA
BRANCH   7  10
ATOM     10  C   UNK d   1     -37.688 -64.966  48.869  0.00  0.00     0.099 A 
ATOM     11  C   UNK d   1     -37.372 -66.103  49.596  0.00  0.00     0.057 A 
ATOM     12  C   UNK d   1     -36.077 -66.515  49.797  0.00  0.00     0.045 A 
ATOM     13  C   UNK d   1     -35.035 -65.759  49.247  0.00  0.00    -0.028 A 
ATOM     14  N   UNK d   1     -35.447 -67.601  50.462  0.00  0.00    -0.317 N 
ATOM     15  C   UNK d   1     -35.354 -64.648  48.537  0.00  0.00     0.030 A 
ATOM     16  C   UNK d   1     -33.720 -66.371  49.579  0.00  0.00     0.061 C 
ATOM     17  C   UNK d   1     -36.661 -64.234  48.336  0.00  0.00     0.035 A 
ATOM     18 Br   UNK d   1     -36.992 -62.633  47.311  0.00  0.00    -0.049 Br
ATOM     19  C   UNK d   1     -34.071 -67.209  50.791  0.00  0.00     0.137 C 
ATOM     20  C   UNK d   1     -35.983 -68.848  50.776  0.00  0.00     0.224 C 
ATOM     21  O   UNK d   1     -35.247 -69.730  51.341  0.00  0.00    -0.273 OA
BRANCH  20  22
ATOM     22  C   UNK d   1     -37.364 -69.239  50.501  0.00  0.00     0.099 C 
ATOM     23  C   UNK d   1     -38.146 -69.519  51.781  0.00  0.00     0.014 C 
ENDBRANCH  20  22
ENDBRANCH   7  10
ENDBRANCH   1   7
BRANCH   3  24
ATOM     24  C   UNK d   1     -42.270 -65.162  52.707  0.00  0.00     0.223 C 
ATOM     25  O   UNK d   1     -42.767 -64.010  52.711  0.00  0.00    -0.273 OA
ATOM     26  N   UNK d   1     -42.840 -66.236  53.488  0.00  0.00    -0.359 N 
ATOM     27  H   UNK d   1     -42.352 -67.133  53.420  0.00  0.00     0.162 HD
BRANCH  26  28
ATOM     28  C   UNK d   1     -43.989 -65.939  54.263  0.00  0.00     0.142 C 
BRANCH  28  29
ATOM     29  C   UNK d   1     -45.273 -66.595  53.925  0.00  0.00     0.136 C 
BRANCH  29  30
ATOM     30  N   UNK d   1     -46.390 -65.794  53.584  0.00  0.00    -0.407 N 
ATOM     31  C   UNK d   1     -47.654 -66.371  53.621  0.00  0.00     0.143 C 
ATOM     32  C   UNK d   1     -48.370 -66.509  52.309  0.00  0.00     0.187 C 
ATOM     33  O   UNK d   1     -48.187 -65.410  51.483  0.00  0.00    -0.388 OA
ATOM     34  C   UNK d   1     -46.824 -65.358  51.192  0.00  0.00     0.187 C 
ATOM     35  C   UNK d   1     -46.121 -64.929  52.459  0.00  0.00     0.143 C 
ENDBRANCH  29  30
ENDBRANCH  28  29
ENDBRANCH  26  28
ENDBRANCH   3  24
TORSDOF 7
ENDMDL
