/Users/jonathanwahrer/Desktop/Msc/3_Semester/Drug_Design_Praktikum/waehrer_HTS_screening/HTS_experiment/out/docking_results/vina_output/3e7o/2335_docked.pdbqt
 OpenBabel03192217053D

 35 38  0  0  1  0  0  0  0  0999 V2000
  -40.4770  -65.3660   49.4940 N   0  0  0  0  0  0  0  0  0  0  0  0
  -41.2110  -64.7340   50.5160 C   0  0  0  0  0  2  0  0  0  0  0  0
  -41.0670  -65.3980   51.8680 C   0  0  2  0  0  3  0  0  0  0  0  0
  -40.7670  -66.8470   51.8030 C   0  0  0  0  0  2  0  0  0  0  0  0
  -41.0160  -67.5320   50.5090 C   0  0  0  0  0  3  0  0  0  0  0  0
  -40.6980  -66.7270   49.2740 C   0  0  0  0  0  3  0  0  0  0  0  0
  -39.3360  -64.5130   48.6390 S   0  0  0  0  0  0  0  0  0  0  0  0
  -39.5210  -63.0240   48.9290 O   0  0  0  0  0  0  0  0  0  0  0  0
  -39.6600  -64.6270   47.1540 O   0  0  0  0  0  0  0  0  0  0  0  0
  -37.6880  -64.9660   48.8690 C   0  0  0  0  0  0  0  0  0  0  0  0
  -37.3720  -66.1030   49.5960 C   0  0  0  0  0  3  0  0  0  0  0  0
  -36.0770  -66.5150   49.7970 C   0  0  0  0  0  0  0  0  0  0  0  0
  -35.0350  -65.7590   49.2470 C   0  0  0  0  0  0  0  0  0  0  0  0
  -35.4470  -67.6010   50.4620 N   0  0  0  0  0  0  0  0  0  0  0  0
  -35.3540  -64.6480   48.5370 C   0  0  0  0  0  3  0  0  0  0  0  0
  -33.7200  -66.3710   49.5790 C   0  0  0  0  0  2  0  0  0  0  0  0
  -36.6610  -64.2340   48.3360 C   0  0  0  0  0  0  0  0  0  0  0  0
  -36.9920  -62.6330   47.3110 Br  0  0  0  0  0  0  0  0  0  0  0  0
  -34.0710  -67.2090   50.7910 C   0  0  0  0  0  2  0  0  0  0  0  0
  -35.9830  -68.8480   50.7760 C   0  0  0  0  0  0  0  0  0  0  0  0
  -35.2470  -69.7300   51.3410 O   0  0  0  0  0  0  0  0  0  0  0  0
  -37.3640  -69.2390   50.5010 C   0  0  0  0  0  2  0  0  0  0  0  0
  -38.1460  -69.5190   51.7810 C   0  0  0  0  0  1  0  0  0  0  0  0
  -42.2700  -65.1620   52.7070 C   0  0  0  0  0  0  0  0  0  0  0  0
  -42.7670  -64.0100   52.7110 O   0  0  0  0  0  0  0  0  0  0  0  0
  -42.8400  -66.2360   53.4880 N   0  0  0  0  0  0  0  0  0  0  0  0
  -42.3520  -67.1330   53.4200 H   0  0  0  0  0  0  0  0  0  0  0  0
  -43.9890  -65.9390   54.2630 C   0  0  0  0  0  2  0  0  0  0  0  0
  -45.2730  -66.5950   53.9250 C   0  0  0  0  0  2  0  0  0  0  0  0
  -46.3900  -65.7940   53.5840 N   0  0  0  0  0  0  0  0  0  0  0  0
  -47.6540  -66.3710   53.6210 C   0  0  0  0  0  2  0  0  0  0  0  0
  -48.3700  -66.5090   52.3090 C   0  0  0  0  0  2  0  0  0  0  0  0
  -48.1870  -65.4100   51.4830 O   0  0  0  0  0  0  0  0  0  0  0  0
  -46.8240  -65.3580   51.1920 C   0  0  0  0  0  2  0  0  0  0  0  0
  -46.1210  -64.9290   52.4590 C   0  0  0  0  0  2  0  0  0  0  0  0
  1  2  1  0  0  0  0
  2  3  1  0  0  0  0
  3 24  1  1  0  0  0
  4  3  1  0  0  0  0
  5  4  1  0  0  0  0
  6  1  1  0  0  0  0
  6  5  2  0  0  0  0
  7 10  1  0  0  0  0
  7  8  2  0  0  0  0
  7  1  1  0  0  0  0
  9  7  2  0  0  0  0
 10 11  1  0  0  0  0
 11 12  2  0  0  0  0
 12 14  1  0  0  0  0
 13 16  1  0  0  0  0
 13 12  1  0  0  0  0
 14 20  1  0  0  0  0
 14 19  1  0  0  0  0
 15 13  2  0  0  0  0
 16 19  1  0  0  0  0
 17 15  1  0  0  0  0
 17 10  2  0  0  0  0
 18 17  1  0  0  0  0
 20 21  2  0  0  0  0
 22 20  1  0  0  0  0
 22 23  1  0  0  0  0
 24 25  2  0  0  0  0
 24 26  1  0  0  0  0
 26 28  1  0  0  0  0
 27 26  1  0  0  0  0
 29 28  1  0  0  0  0
 30 31  1  0  0  0  0
 30 29  1  0  0  0  0
 32 31  1  0  0  0  0
 33 32  1  0  0  0  0
 34 33  1  0  0  0  0
 34 35  1  0  0  0  0
 35 30  1  0  0  0  0
M  END
>  <Pose>
1

>  <Score>
-8.531

$$$$
