MODEL 1
REMARK VINA RESULT:    -7.705      0.000      0.000
REMARK INTER + INTRA:          -9.685
REMARK INTER:                  -9.056
REMARK INTRA:                  -0.629
REMARK UNBOUND:                -0.629
REMARK  3 active torsions:
REMARK  status: ('A' for Active; 'I' for Inactive)
REMARK    1  A    between atoms: C_5  and  N_8 
REMARK    2  A    between atoms: C_10  and  C_14 
REMARK       I    between atoms: C_14  and  N_16 
REMARK    3  A    between atoms: N_19  and  C_22 
ROOT
ATOM      1  C   UNK d   1     -35.084 -67.525  50.232  0.00  0.00     0.226 C 
ATOM      2  O   UNK d   1     -34.427 -67.296  51.315  0.00  0.00    -0.273 OA
ATOM      3  N   UNK d   1     -34.820 -66.670  49.157  0.00  0.00    -0.349 N 
ATOM      4  C   UNK d   1     -33.859 -65.588  49.300  0.00  0.00     0.146 C 
ATOM      5  C   UNK d   1     -34.512 -64.247  48.981  0.00  0.00     0.161 C 
ATOM      6  N   UNK d   1     -35.478 -64.434  47.938  0.00  0.00    -0.213 N 
ATOM      7  C   UNK d   1     -35.302 -65.523  47.026  0.00  0.00     0.161 C 
ATOM      8  C   UNK d   1     -35.463 -66.803  47.871  0.00  0.00     0.146 C 
ENDROOT
BRANCH   1   9
ATOM      9  C   UNK d   1     -36.028 -68.649  50.257  0.00  0.00     0.105 C 
ATOM     10  C   UNK d   1     -37.426 -68.316  49.816  0.00  0.00     0.146 C 
ATOM     11  N   UNK d   1     -38.272 -68.449  50.996  0.00  0.00    -0.317 N 
ATOM     12  C   UNK d   1     -37.590 -69.393  51.849  0.00  0.00     0.225 C 
ATOM     13  C   UNK d   1     -36.138 -69.375  51.556  0.00  0.00     0.119 C 
ATOM     14  O   UNK d   1     -38.238 -70.089  52.697  0.00  0.00    -0.273 OA
BRANCH  11  15
ATOM     15  C   UNK d   1     -39.510 -67.799  51.269  0.00  0.00     0.037 A 
ATOM     16  C   UNK d   1     -39.937 -67.541  52.554  0.00  0.00     0.031 A 
ATOM     17  C   UNK d   1     -41.140 -66.914  52.823  0.00  0.00     0.026 A 
ATOM     18  C   UNK d   1     -41.957 -66.523  51.796  0.00  0.00     0.034 A 
ATOM     19 Cl   UNK d   1     -43.495 -65.722  52.121  0.00  0.00    -0.084 Cl
ATOM     20  C   UNK d   1     -41.564 -66.763  50.508  0.00  0.00     0.026 A 
ATOM     21  C   UNK d   1     -40.343 -67.400  50.246  0.00  0.00     0.031 A 
ENDBRANCH  11  15
ENDBRANCH   1   9
BRANCH   6  22
ATOM     22  C   UNK d   1     -36.587 -63.571  47.814  0.00  0.00     0.704 A 
ATOM     23  N   UNK d   1     -37.755 -63.640  48.511  0.00  0.00    -0.195 N 
ATOM     24  C   UNK d   1     -38.558 -62.643  48.115  0.00  0.00     0.128 A 
ATOM     25  C   UNK d   1     -38.080 -64.647  49.529  0.00  0.00     0.175 C 
ATOM     26  C   UNK d   1     -37.901 -61.921  47.147  0.00  0.00     0.154 A 
ATOM     27  N   UNK d   1     -36.727 -62.509  46.996  0.00  0.00    -0.075 NA
ENDBRANCH   6  22
TORSDOF 3
ENDMDL
