/Users/jonathanwahrer/Desktop/Msc/3_Semester/Drug_Design_Praktikum/waehrer_HTS_screening/HTS_experiment/out/docking_results/vina_output/3e7o/2349_docked.pdbqt
 OpenBabel03192217053D

 28 31  0  0  1  0  0  0  0  0999 V2000
  -43.7220  -65.6780   52.2700 N   0  0  0  0  0  0  0  0  0  0  0  0
  -43.2400  -64.4240   51.7660 C   0  0  0  0  0  0  0  0  0  0  0  0
  -42.0010  -64.1820   51.8200 O   0  0  0  0  0  0  0  0  0  0  0  0
  -44.2070  -63.5350   51.2340 N   0  0  0  0  0  2  0  0  0  0  0  0
  -45.4450  -63.7550   51.1800 C   0  0  0  0  0  0  0  0  0  0  0  0
  -46.1390  -64.9950   51.6730 C   0  0  1  0  0  0  0  0  0  0  0  0
  -46.9880  -64.5220   52.8190 C   0  0  0  0  0  2  0  0  0  0  0  0
  -48.1190  -65.2970   53.1530 N   0  0  0  0  0  4  0  0  0  0  0  0
  -48.8610  -65.8200   52.0670 C   0  0  0  0  0  0  0  0  0  0  0  0
  -48.2860  -65.9360   50.8430 C   0  0  0  0  0  0  0  0  0  0  0  0
  -49.0480  -66.4570   49.8000 C   0  0  0  0  0  3  0  0  0  0  0  0
  -50.3550  -66.8380   50.0240 C   0  0  0  0  0  0  0  0  0  0  0  0
  -50.9410  -66.7180   51.2750 C   0  0  0  0  0  3  0  0  0  0  0  0
  -50.1680  -66.1960   52.3100 C   0  0  0  0  0  3  0  0  0  0  0  0
  -51.2030  -67.3910   48.9210 C   0  0  0  0  0  1  0  0  0  0  0  0
  -46.8930  -65.5530   50.5280 C   0  0  0  0  0  2  0  0  0  0  0  0
  -47.8930  -66.3410   54.1400 C   0  0  0  0  0  1  0  0  0  0  0  0
  -45.1130  -65.9330   52.1900 C   0  0  0  0  0  0  0  0  0  0  0  0
  -45.4520  -67.0960   52.6130 O   0  0  0  0  0  0  0  0  0  0  0  0
  -46.3120  -62.7970   50.6210 O   0  0  0  0  0  0  0  0  0  0  0  0
  -48.8060  -64.6360   53.6410 H   0  0  0  0  0  0  0  0  0  0  0  0
  -42.7700  -66.5530   52.8410 C   0  0  0  0  0  0  0  0  0  0  0  0
  -42.7770  -66.8530   54.2050 C   0  0  0  0  0  3  0  0  0  0  0  0
  -41.8700  -67.7020   54.7800 C   0  0  0  0  0  3  0  0  0  0  0  0
  -40.8740  -68.3250   54.0280 C   0  0  0  0  0  0  0  0  0  0  0  0
  -39.7300  -69.4170   54.7840 Cl  0  0  0  0  0  0  0  0  0  0  0  0
  -40.8660  -68.0290   52.6780 C   0  0  0  0  0  3  0  0  0  0  0  0
  -41.7770  -67.1760   52.1030 C   0  0  0  0  0  3  0  0  0  0  0  0
  1 22  1  0  0  0  0
  2  3  2  0  0  0  0
  2  1  1  0  0  0  0
  4  2  1  0  0  0  0
  5  4  1  0  0  0  0
  5  6  1  0  0  0  0
  6 16  1  6  0  0  0
  6 18  1  0  0  0  0
  6  7  1  0  0  0  0
  7  8  1  0  0  0  0
  8 21  1  0  0  0  0
  8 17  1  0  0  0  0
  9 14  1  0  0  0  0
  9  8  1  0  0  0  0
 10  9  2  0  0  0  0
 11 12  2  0  0  0  0
 11 10  1  0  0  0  0
 12 13  1  0  0  0  0
 13 14  2  0  0  0  0
 15 12  1  0  0  0  0
 16 10  1  0  0  0  0
 18  1  1  0  0  0  0
 18 19  2  0  0  0  0
 20  5  2  0  0  0  0
 22 23  1  0  0  0  0
 23 24  2  0  0  0  0
 25 24  1  0  0  0  0
 25 26  1  0  0  0  0
 27 25  2  0  0  0  0
 28 27  1  0  0  0  0
 28 22  2  0  0  0  0
M  END
>  <Pose>
1

>  <Score>
-7.866

$$$$
