MODEL 1
REMARK VINA RESULT:    -7.866      0.000      0.000
REMARK INTER + INTRA:          -8.276
REMARK INTER:                  -8.325
REMARK INTRA:                   0.049
REMARK UNBOUND:                 0.049
REMARK  1 active torsions:
REMARK  status: ('A' for Active; 'I' for Inactive)
REMARK    1  A    between atoms: C_5  and  N_8 
ROOT
ATOM      1  N   UNK d   1     -43.722 -65.678  52.270  0.00  0.00    -0.231 N 
ATOM      2  C   UNK d   1     -43.240 -64.424  51.766  0.00  0.00     0.357 A 
ATOM      3  O   UNK d   1     -42.001 -64.182  51.820  0.00  0.00    -0.244 OA
ATOM      4  N   UNK d   1     -44.207 -63.535  51.234  0.00  0.00    -0.169 NA
ATOM      5  C   UNK d   1     -45.445 -63.755  51.180  0.00  0.00     0.202 A 
ATOM      6  C   UNK d   1     -46.139 -64.995  51.673  0.00  0.00     0.140 A 
ATOM      7  C   UNK d   1     -46.988 -64.522  52.819  0.00  0.00     0.269 C 
ATOM      8  N   UNK d   1     -48.119 -65.297  53.153  0.00  0.00    -0.043 N 
ATOM      9  C   UNK d   1     -48.861 -65.820  52.067  0.00  0.00     0.140 A 
ATOM     10  C   UNK d   1     -48.286 -65.936  50.843  0.00  0.00    -0.021 A 
ATOM     11  C   UNK d   1     -49.048 -66.457  49.800  0.00  0.00     0.016 A 
ATOM     12  C   UNK d   1     -50.355 -66.838  50.024  0.00  0.00    -0.061 A 
ATOM     13  C   UNK d   1     -50.941 -66.718  51.275  0.00  0.00     0.009 A 
ATOM     14  C   UNK d   1     -50.168 -66.196  52.310  0.00  0.00     0.038 A 
ATOM     15  C   UNK d   1     -51.203 -67.391  48.921  0.00  0.00     0.048 C 
ATOM     16  C   UNK d   1     -46.893 -65.553  50.528  0.00  0.00     0.070 C 
ATOM     17  C   UNK d   1     -47.893 -66.341  54.140  0.00  0.00     0.276 C 
ATOM     18  C   UNK d   1     -45.113 -65.933  52.190  0.00  0.00     0.251 A 
ATOM     19  O   UNK d   1     -45.452 -67.096  52.613  0.00  0.00    -0.271 OA
ATOM     20  O   UNK d   1     -46.312 -62.797  50.621  0.00  0.00    -0.173 OA
ATOM     21  H   UNK d   1     -48.806 -64.636  53.641  0.00  0.00     0.286 HD
ENDROOT
BRANCH   1  22
ATOM     22  C   UNK d   1     -42.770 -66.553  52.841  0.00  0.00     0.047 A 
ATOM     23  C   UNK d   1     -42.777 -66.853  54.205  0.00  0.00     0.032 A 
ATOM     24  C   UNK d   1     -41.870 -67.702  54.780  0.00  0.00     0.026 A 
ATOM     25  C   UNK d   1     -40.874 -68.325  54.028  0.00  0.00     0.034 A 
ATOM     26 Cl   UNK d   1     -39.730 -69.417  54.784  0.00  0.00    -0.084 Cl
ATOM     27  C   UNK d   1     -40.866 -68.029  52.678  0.00  0.00     0.026 A 
ATOM     28  C   UNK d   1     -41.777 -67.176  52.103  0.00  0.00     0.032 A 
ENDBRANCH   1  22
TORSDOF 1
ENDMDL
