MODEL 1
REMARK VINA RESULT:    -6.935      0.000      0.000
REMARK INTER + INTRA:          -8.139
REMARK INTER:                  -7.746
REMARK INTRA:                  -0.394
REMARK UNBOUND:                -0.394
REMARK  3 active torsions:
REMARK  status: ('A' for Active; 'I' for Inactive)
REMARK    1  A    between atoms: C_5  and  N_8 
REMARK    2  A    between atoms: C_13  and  O_21 
REMARK    3  A    between atoms: C_14  and  O_20 
ROOT
ATOM      1  N   UNK d   1     -35.978 -67.695  49.617  0.00  0.00    -0.252 N 
ATOM      2  C   UNK d   1     -35.832 -67.543  48.196  0.00  0.00     0.236 C 
ATOM      3  O   UNK d   1     -36.646 -68.017  47.364  0.00  0.00    -0.272 OA
ATOM      4  C   UNK d   1     -34.610 -66.764  47.873  0.00  0.00     0.099 C 
ATOM      5  C   UNK d   1     -34.888 -65.456  47.208  0.00  0.00     0.031 C 
ATOM      6  C   UNK d   1     -36.232 -64.970  47.710  0.00  0.00     0.152 C 
ATOM      7  C   UNK d   1     -35.933 -64.727  49.188  0.00  0.00     0.152 C 
ATOM      8  C   UNK d   1     -34.448 -64.953  49.356  0.00  0.00     0.031 C 
ATOM      9  C   UNK d   1     -34.053 -66.393  49.253  0.00  0.00     0.099 C 
ATOM     10  C   UNK d   1     -34.753 -67.287  50.206  0.00  0.00     0.236 C 
ATOM     11  O   UNK d   1     -34.306 -67.608  51.334  0.00  0.00    -0.272 OA
ATOM     12  C   UNK d   1     -33.984 -64.469  47.964  0.00  0.00     0.016 C 
ENDROOT
BRANCH   1  13
ATOM     13  C   UNK d   1     -37.105 -68.152  50.352  0.00  0.00     0.045 A 
ATOM     14  C   UNK d   1     -38.314 -67.448  50.313  0.00  0.00     0.032 A 
ATOM     15  C   UNK d   1     -39.405 -67.882  51.028  0.00  0.00     0.026 A 
ATOM     16  C   UNK d   1     -39.348 -69.022  51.807  0.00  0.00     0.034 A 
ATOM     17 Cl   UNK d   1     -40.761 -69.554  52.717  0.00  0.00    -0.084 Cl
ATOM     18  C   UNK d   1     -38.161 -69.738  51.863  0.00  0.00     0.026 A 
ATOM     19  C   UNK d   1     -37.086 -69.281  51.137  0.00  0.00     0.032 A 
ENDBRANCH   1  13
BRANCH   6  20
ATOM     20  O   UNK d   1     -36.482 -63.745  47.129  0.00  0.00    -0.393 OA
ATOM     21  H   UNK d   1     -35.924 -63.532  46.346  0.00  0.00     0.210 HD
ENDBRANCH   6  20
BRANCH   7  22
ATOM     22  O   UNK d   1     -36.161 -63.396  49.531  0.00  0.00    -0.393 OA
ATOM     23  H   UNK d   1     -36.489 -62.930  48.704  0.00  0.00     0.210 HD
ENDBRANCH   7  22
TORSDOF 3
ENDMDL
