/Users/jonathanwahrer/Desktop/Msc/3_Semester/Drug_Design_Praktikum/waehrer_HTS_screening/HTS_experiment/out/docking_results/vina_output/3e7o/2350_docked.pdbqt
 OpenBabel03192217053D

 23 26  0  0  1  0  0  0  0  0999 V2000
  -35.9780  -67.6950   49.6170 N   0  0  0  0  0  0  0  0  0  0  0  0
  -35.8320  -67.5430   48.1960 C   0  0  0  0  0  0  0  0  0  0  0  0
  -36.6460  -68.0170   47.3640 O   0  0  0  0  0  0  0  0  0  0  0  0
  -34.6100  -66.7640   47.8730 C   0  0  1  0  0  3  0  0  0  0  0  0
  -34.8880  -65.4560   47.2080 C   0  0  1  0  0  3  0  0  0  0  0  0
  -36.2320  -64.9700   47.7100 C   0  0  1  0  0  3  0  0  0  0  0  0
  -35.9330  -64.7270   49.1880 C   0  0  1  0  0  3  0  0  0  0  0  0
  -34.4480  -64.9530   49.3560 C   0  0  1  0  0  3  0  0  0  0  0  0
  -34.0530  -66.3930   49.2530 C   0  0  1  0  0  3  0  0  0  0  0  0
  -34.7530  -67.2870   50.2060 C   0  0  0  0  0  0  0  0  0  0  0  0
  -34.3060  -67.6080   51.3340 O   0  0  0  0  0  0  0  0  0  0  0  0
  -33.9840  -64.4690   47.9640 C   0  0  0  0  0  2  0  0  0  0  0  0
  -37.1050  -68.1520   50.3520 C   0  0  0  0  0  0  0  0  0  0  0  0
  -38.3140  -67.4480   50.3130 C   0  0  0  0  0  3  0  0  0  0  0  0
  -39.4050  -67.8820   51.0280 C   0  0  0  0  0  3  0  0  0  0  0  0
  -39.3480  -69.0220   51.8070 C   0  0  0  0  0  0  0  0  0  0  0  0
  -40.7610  -69.5540   52.7170 Cl  0  0  0  0  0  0  0  0  0  0  0  0
  -38.1610  -69.7380   51.8630 C   0  0  0  0  0  3  0  0  0  0  0  0
  -37.0860  -69.2810   51.1370 C   0  0  0  0  0  3  0  0  0  0  0  0
  -36.4820  -63.7450   47.1290 O   0  0  0  0  0  0  0  0  0  0  0  0
  -35.9240  -63.5320   46.3460 H   0  0  0  0  0  0  0  0  0  0  0  0
  -36.1610  -63.3960   49.5310 O   0  0  0  0  0  0  0  0  0  0  0  0
  -36.4890  -62.9300   48.7040 H   0  0  0  0  0  0  0  0  0  0  0  0
  1 10  1  0  0  0  0
  1 13  1  0  0  0  0
  2  1  1  0  0  0  0
  3  2  2  0  0  0  0
  4  2  1  1  0  0  0
  4  9  1  0  0  0  0
  5  6  1  0  0  0  0
  5  4  1  0  0  0  0
  5 12  1  1  0  0  0
  6 20  1  6  0  0  0
  6  7  1  0  0  0  0
  7  8  1  0  0  0  0
  7 22  1  6  0  0  0
  8 12  1  6  0  0  0
  9  8  1  0  0  0  0
  9 10  1  1  0  0  0
 10 11  2  0  0  0  0
 13 19  1  0  0  0  0
 14 13  2  0  0  0  0
 14 15  1  0  0  0  0
 15 16  2  0  0  0  0
 16 18  1  0  0  0  0
 16 17  1  0  0  0  0
 19 18  2  0  0  0  0
 21 20  1  0  0  0  0
 23 22  1  0  0  0  0
M  END
>  <Pose>
1

>  <Score>
-6.935

$$$$
