MODEL 1
REMARK VINA RESULT:    -8.439      0.000      0.000
REMARK INTER + INTRA:         -12.398
REMARK INTER:                 -11.153
REMARK INTRA:                  -1.246
REMARK UNBOUND:                -1.246
REMARK  6 active torsions:
REMARK  status: ('A' for Active; 'I' for Inactive)
REMARK    1  A    between atoms: C_5  and  N_8 
REMARK    2  A    between atoms: C_14  and  C_17 
REMARK    3  A    between atoms: C_19  and  C_22 
REMARK    4  A    between atoms: C_24  and  O_31 
REMARK    5  A    between atoms: C_25  and  O_30 
REMARK    6  A    between atoms: C_26  and  O_28 
ROOT
ATOM      1  C   UNK d   1     -39.817 -64.623  49.301  0.00  0.00     0.041 C 
ATOM      2  C   UNK d   1     -40.763 -65.517  49.513  0.00  0.00     0.026 C 
ATOM      3  C   UNK d   1     -41.102 -65.564  50.958  0.00  0.00     0.134 C 
ATOM      4  N   UNK d   1     -40.593 -64.311  51.443  0.00  0.00    -0.228 NA
ATOM      5  N   UNK d   1     -39.520 -64.059  50.574  0.00  0.00    -0.323 N 
ATOM      6  H   UNK d   1     -40.345 -64.294  52.431  0.00  0.00     0.147 HD
ATOM      7  H   UNK d   1     -38.657 -63.543  50.836  0.00  0.00     0.180 HD
ENDROOT
BRANCH   1   8
ATOM      8  C   UNK d   1     -39.174 -64.251  47.993  0.00  0.00     0.221 C 
ATOM      9  C   UNK d   1     -38.965 -62.787  47.920  0.00  0.00     0.244 C 
ATOM     10  N   UNK d   1     -37.774 -62.221  48.429  0.00  0.00    -0.277 N 
ATOM     11  O   UNK d   1     -39.845 -62.067  47.411  0.00  0.00    -0.272 OA
ATOM     12  C   UNK d   1     -36.650 -63.016  48.671  0.00  0.00     0.336 C 
ATOM     13  H   UNK d   1     -37.698 -61.183  48.638  0.00  0.00     0.173 HD
ATOM     14  N   UNK d   1     -36.676 -64.413  48.412  0.00  0.00    -0.233 N 
ATOM     15  O   UNK d   1     -35.558 -62.530  49.130  0.00  0.00    -0.246 OA
ATOM     16  C   UNK d   1     -37.879 -64.967  47.903  0.00  0.00     0.251 C 
ATOM     17  O   UNK d   1     -37.854 -66.086  47.362  0.00  0.00    -0.271 OA
BRANCH  14  18
ATOM     18  C   UNK d   1     -35.523 -65.204  48.665  0.00  0.00     0.047 A 
ATOM     19  C   UNK d   1     -34.586 -65.402  47.685  0.00  0.00     0.032 A 
ATOM     20  C   UNK d   1     -33.454 -66.163  47.901  0.00  0.00     0.026 A 
ATOM     21  C   UNK d   1     -33.240 -66.747  49.124  0.00  0.00     0.034 A 
ATOM     22 Cl   UNK d   1     -31.797 -67.726  49.423  0.00  0.00    -0.084 Cl
ATOM     23  C   UNK d   1     -34.167 -66.562  50.121  0.00  0.00     0.026 A 
ATOM     24  C   UNK d   1     -35.309 -65.786  49.884  0.00  0.00     0.032 A 
ENDBRANCH  14  18
ENDBRANCH   1   8
BRANCH   3  25
ATOM     25  C   UNK d   1     -40.481 -66.745  51.546  0.00  0.00    -0.030 A 
ATOM     26  C   UNK d   1     -40.816 -67.088  52.838  0.00  0.00     0.049 A 
ATOM     27  C   UNK d   1     -40.287 -68.187  53.483  0.00  0.00     0.104 A 
ATOM     28  C   UNK d   1     -39.369 -68.977  52.777  0.00  0.00     0.133 A 
ATOM     29  C   UNK d   1     -39.002 -68.674  51.484  0.00  0.00     0.104 A 
ATOM     30  C   UNK d   1     -39.574 -67.559  50.904  0.00  0.00     0.049 A 
BRANCH  27  31
ATOM     31  O   UNK d   1     -40.618 -68.542  54.784  0.00  0.00    -0.353 OA
ATOM     32  C   UNK d   1     -41.885 -69.136  54.980  0.00  0.00     0.210 C 
ENDBRANCH  27  31
BRANCH  28  33
ATOM     33  O   UNK d   1     -38.813 -70.084  53.376  0.00  0.00    -0.356 OA
ATOM     34  H   UNK d   1     -39.410 -70.825  53.717  0.00  0.00     0.218 HD
ENDBRANCH  28  33
BRANCH  29  35
ATOM     35  O   UNK d   1     -38.105 -69.474  50.842  0.00  0.00    -0.353 OA
ATOM     36  C   UNK d   1     -36.758 -69.191  50.599  0.00  0.00     0.210 C 
ENDBRANCH  29  35
ENDBRANCH   3  25
TORSDOF 6
ENDMDL
