/Users/jonathanwahrer/Desktop/Msc/3_Semester/Drug_Design_Praktikum/waehrer_HTS_screening/HTS_experiment/out/docking_results/vina_output/3e7o/2357_docked.pdbqt
 OpenBabel03192217063D

 36 39  0  0  1  0  0  0  0  0999 V2000
  -39.8170  -64.6230   49.3010 C   0  0  2  0  0  3  0  0  0  0  0  0
  -40.7630  -65.5170   49.5130 C   0  0  0  0  0  2  0  0  0  0  0  0
  -41.1020  -65.5640   50.9580 C   0  0  2  0  0  3  0  0  0  0  0  0
  -40.5930  -64.3110   51.4430 N   0  0  0  0  0  0  0  0  0  0  0  0
  -39.5200  -64.0590   50.5740 N   0  0  0  0  0  0  0  0  0  0  0  0
  -40.3450  -64.2940   52.4310 H   0  0  0  0  0  0  0  0  0  0  0  0
  -38.6570  -63.5430   50.8360 H   0  0  0  0  0  0  0  0  0  0  0  0
  -39.1740  -64.2510   47.9930 C   0  0  1  0  0  3  0  0  0  0  0  0
  -38.9650  -62.7870   47.9200 C   0  0  0  0  0  0  0  0  0  0  0  0
  -37.7740  -62.2210   48.4290 N   0  0  0  0  0  0  0  0  0  0  0  0
  -39.8450  -62.0670   47.4110 O   0  0  0  0  0  0  0  0  0  0  0  0
  -36.6500  -63.0160   48.6710 C   0  0  0  0  0  0  0  0  0  0  0  0
  -37.6980  -61.1830   48.6380 H   0  0  0  0  0  0  0  0  0  0  0  0
  -36.6760  -64.4130   48.4120 N   0  0  0  0  0  0  0  0  0  0  0  0
  -35.5580  -62.5300   49.1300 O   0  0  0  0  0  0  0  0  0  0  0  0
  -37.8790  -64.9670   47.9030 C   0  0  0  0  0  0  0  0  0  0  0  0
  -37.8540  -66.0860   47.3620 O   0  0  0  0  0  0  0  0  0  0  0  0
  -35.5230  -65.2040   48.6650 C   0  0  0  0  0  0  0  0  0  0  0  0
  -34.5860  -65.4020   47.6850 C   0  0  0  0  0  3  0  0  0  0  0  0
  -33.4540  -66.1630   47.9010 C   0  0  0  0  0  3  0  0  0  0  0  0
  -33.2400  -66.7470   49.1240 C   0  0  0  0  0  0  0  0  0  0  0  0
  -31.7970  -67.7260   49.4230 Cl  0  0  0  0  0  0  0  0  0  0  0  0
  -34.1670  -66.5620   50.1210 C   0  0  0  0  0  3  0  0  0  0  0  0
  -35.3090  -65.7860   49.8840 C   0  0  0  0  0  3  0  0  0  0  0  0
  -40.4810  -66.7450   51.5460 C   0  0  0  0  0  0  0  0  0  0  0  0
  -40.8160  -67.0880   52.8380 C   0  0  0  0  0  3  0  0  0  0  0  0
  -40.2870  -68.1870   53.4830 C   0  0  0  0  0  0  0  0  0  0  0  0
  -39.3690  -68.9770   52.7770 C   0  0  0  0  0  0  0  0  0  0  0  0
  -39.0020  -68.6740   51.4840 C   0  0  0  0  0  0  0  0  0  0  0  0
  -39.5740  -67.5590   50.9040 C   0  0  0  0  0  3  0  0  0  0  0  0
  -40.6180  -68.5420   54.7840 O   0  0  0  0  0  0  0  0  0  0  0  0
  -41.8850  -69.1360   54.9800 C   0  0  0  0  0  1  0  0  0  0  0  0
  -38.8130  -70.0840   53.3760 O   0  0  0  0  0  0  0  0  0  0  0  0
  -39.4100  -70.8250   53.7170 H   0  0  0  0  0  0  0  0  0  0  0  0
  -38.1050  -69.4740   50.8420 O   0  0  0  0  0  0  0  0  0  0  0  0
  -36.7580  -69.1910   50.5990 C   0  0  0  0  0  1  0  0  0  0  0  0
  1  2  1  6  0  0  0
  1  5  1  0  0  0  0
  2  3  1  0  0  0  0
  3  4  1  0  0  0  0
  3 25  1  1  0  0  0
  4  6  1  0  0  0  0
  5  7  1  0  0  0  0
  5  4  1  0  0  0  0
  8 16  1  1  0  0  0
  8  1  1  0  0  0  0
  9  8  1  0  0  0  0
  9 10  1  0  0  0  0
 10 13  1  0  0  0  0
 10 12  1  0  0  0  0
 11  9  2  0  0  0  0
 12 15  2  0  0  0  0
 14 18  1  0  0  0  0
 14 12  1  0  0  0  0
 16 14  1  0  0  0  0
 17 16  2  0  0  0  0
 18 24  1  0  0  0  0
 19 20  1  0  0  0  0
 19 18  2  0  0  0  0
 20 21  2  0  0  0  0
 21 22  1  0  0  0  0
 21 23  1  0  0  0  0
 24 23  2  0  0  0  0
 25 26  1  0  0  0  0
 26 27  2  0  0  0  0
 27 31  1  0  0  0  0
 28 33  1  0  0  0  0
 28 27  1  0  0  0  0
 29 28  2  0  0  0  0
 30 29  1  0  0  0  0
 30 25  2  0  0  0  0
 31 32  1  0  0  0  0
 33 34  1  0  0  0  0
 35 29  1  0  0  0  0
 36 35  1  0  0  0  0
M  END
>  <Pose>
1

>  <Score>
-8.439

$$$$
