MODEL 1
REMARK VINA RESULT:    -8.545      0.000      0.000
REMARK INTER + INTRA:         -11.906
REMARK INTER:                 -10.793
REMARK INTRA:                  -1.114
REMARK UNBOUND:                -1.114
REMARK  5 active torsions:
REMARK  status: ('A' for Active; 'I' for Inactive)
REMARK    1  A    between atoms: C_5  and  N_8 
REMARK    2  A    between atoms: C_14  and  C_17 
REMARK    3  A    between atoms: C_19  and  C_22 
REMARK    4  A    between atoms: C_24  and  O_30 
REMARK    5  A    between atoms: C_25  and  O_28 
ROOT
ATOM      1  N   UNK d   1     -36.570 -64.459  48.720  0.00  0.00    -0.233 N 
ATOM      2  C   UNK d   1     -36.509 -63.040  48.758  0.00  0.00     0.336 C 
ATOM      3  O   UNK d   1     -35.390 -62.496  48.994  0.00  0.00    -0.246 OA
ATOM      4  N   UNK d   1     -37.656 -62.244  48.541  0.00  0.00    -0.277 N 
ATOM      5  C   UNK d   1     -38.909 -62.845  48.278  0.00  0.00     0.244 C 
ATOM      6  O   UNK d   1     -39.916 -62.149  47.903  0.00  0.00    -0.272 OA
ATOM      7  C   UNK d   1     -39.111 -64.286  48.420  0.00  0.00     0.221 C 
ATOM      8  C   UNK d   1     -37.844 -65.028  48.454  0.00  0.00     0.251 C 
ATOM      9  O   UNK d   1     -37.851 -66.287  48.229  0.00  0.00    -0.271 OA
ATOM     10  H   UNK d   1     -37.589 -61.193  48.574  0.00  0.00     0.173 HD
ENDROOT
BRANCH   7  11
ATOM     11  C   UNK d   1     -39.965 -64.573  49.611  0.00  0.00     0.041 C 
ATOM     12  C   UNK d   1     -41.051 -65.297  49.672  0.00  0.00     0.026 C 
ATOM     13  C   UNK d   1     -41.518 -65.268  51.079  0.00  0.00     0.134 C 
ATOM     14  N   UNK d   1     -40.841 -64.123  51.649  0.00  0.00    -0.228 NA
ATOM     15  N   UNK d   1     -39.661 -64.051  50.900  0.00  0.00    -0.323 N 
ATOM     16  H   UNK d   1     -41.414 -63.251  51.551  0.00  0.00     0.147 HD
ATOM     17  H   UNK d   1     -38.753 -63.673  51.274  0.00  0.00     0.180 HD
BRANCH  13  18
ATOM     18  C   UNK d   1     -41.116 -66.512  51.791  0.00  0.00    -0.032 A 
ATOM     19  C   UNK d   1     -41.420 -66.733  53.115  0.00  0.00     0.048 A 
ATOM     20  C   UNK d   1     -41.049 -67.884  53.786  0.00  0.00     0.099 A 
ATOM     21  C   UNK d   1     -40.348 -68.868  53.128  0.00  0.00     0.101 A 
ATOM     22  C   UNK d   1     -40.036 -68.668  51.806  0.00  0.00     0.040 A 
ATOM     23  C   UNK d   1     -40.409 -67.517  51.147  0.00  0.00     0.012 A 
BRANCH  20  24
ATOM     24  O   UNK d   1     -41.383 -68.048  55.117  0.00  0.00    -0.358 OA
ATOM     25  H   UNK d   1     -42.110 -68.677  55.397  0.00  0.00     0.217 HD
ENDBRANCH  20  24
BRANCH  21  26
ATOM     26  O   UNK d   1     -39.969 -70.025  53.778  0.00  0.00    -0.353 OA
ATOM     27  C   UNK d   1     -38.631 -70.186  54.191  0.00  0.00     0.210 C 
ENDBRANCH  21  26
ENDBRANCH  13  18
ENDBRANCH   7  11
BRANCH   1  28
ATOM     28  C   UNK d   1     -35.433 -65.286  48.931  0.00  0.00     0.047 A 
ATOM     29  C   UNK d   1     -35.102 -65.779  50.188  0.00  0.00     0.032 A 
ATOM     30  C   UNK d   1     -34.014 -66.572  50.395  0.00  0.00     0.026 A 
ATOM     31  C   UNK d   1     -33.197 -66.909  49.326  0.00  0.00     0.034 A 
ATOM     32 Cl   UNK d   1     -31.788 -67.928  49.551  0.00  0.00    -0.084 Cl
ATOM     33  C   UNK d   1     -33.498 -66.434  48.059  0.00  0.00     0.026 A 
ATOM     34  C   UNK d   1     -34.619 -65.623  47.873  0.00  0.00     0.032 A 
ENDBRANCH   1  28
TORSDOF 5
ENDMDL
