/Users/jonathanwahrer/Desktop/Msc/3_Semester/Drug_Design_Praktikum/waehrer_HTS_screening/HTS_experiment/out/docking_results/vina_output/3e7o/2358_docked.pdbqt
 OpenBabel03192217063D

 34 37  0  0  1  0  0  0  0  0999 V2000
  -36.5700  -64.4590   48.7200 N   0  0  0  0  0  0  0  0  0  0  0  0
  -36.5090  -63.0400   48.7580 C   0  0  0  0  0  0  0  0  0  0  0  0
  -35.3900  -62.4960   48.9940 O   0  0  0  0  0  0  0  0  0  0  0  0
  -37.6560  -62.2440   48.5410 N   0  0  0  0  0  0  0  0  0  0  0  0
  -38.9090  -62.8450   48.2780 C   0  0  0  0  0  0  0  0  0  0  0  0
  -39.9160  -62.1490   47.9030 O   0  0  0  0  0  0  0  0  0  0  0  0
  -39.1110  -64.2860   48.4200 C   0  0  1  0  0  3  0  0  0  0  0  0
  -37.8440  -65.0280   48.4540 C   0  0  0  0  0  0  0  0  0  0  0  0
  -37.8510  -66.2870   48.2290 O   0  0  0  0  0  0  0  0  0  0  0  0
  -37.5890  -61.1930   48.5740 H   0  0  0  0  0  0  0  0  0  0  0  0
  -39.9650  -64.5730   49.6110 C   0  0  1  0  0  3  0  0  0  0  0  0
  -41.0510  -65.2970   49.6720 C   0  0  0  0  0  2  0  0  0  0  0  0
  -41.5180  -65.2680   51.0790 C   0  0  2  0  0  3  0  0  0  0  0  0
  -40.8410  -64.1230   51.6490 N   0  0  0  0  0  0  0  0  0  0  0  0
  -39.6610  -64.0510   50.9000 N   0  0  0  0  0  0  0  0  0  0  0  0
  -41.4140  -63.2510   51.5510 H   0  0  0  0  0  0  0  0  0  0  0  0
  -38.7530  -63.6730   51.2740 H   0  0  0  0  0  0  0  0  0  0  0  0
  -41.1160  -66.5120   51.7910 C   0  0  0  0  0  0  0  0  0  0  0  0
  -41.4200  -66.7330   53.1150 C   0  0  0  0  0  3  0  0  0  0  0  0
  -41.0490  -67.8840   53.7860 C   0  0  0  0  0  0  0  0  0  0  0  0
  -40.3480  -68.8680   53.1280 C   0  0  0  0  0  0  0  0  0  0  0  0
  -40.0360  -68.6680   51.8060 C   0  0  0  0  0  3  0  0  0  0  0  0
  -40.4090  -67.5170   51.1470 C   0  0  0  0  0  3  0  0  0  0  0  0
  -41.3830  -68.0480   55.1170 O   0  0  0  0  0  0  0  0  0  0  0  0
  -42.1100  -68.6770   55.3970 H   0  0  0  0  0  0  0  0  0  0  0  0
  -39.9690  -70.0250   53.7780 O   0  0  0  0  0  0  0  0  0  0  0  0
  -38.6310  -70.1860   54.1910 C   0  0  0  0  0  1  0  0  0  0  0  0
  -35.4330  -65.2860   48.9310 C   0  0  0  0  0  0  0  0  0  0  0  0
  -35.1020  -65.7790   50.1880 C   0  0  0  0  0  3  0  0  0  0  0  0
  -34.0140  -66.5720   50.3950 C   0  0  0  0  0  3  0  0  0  0  0  0
  -33.1970  -66.9090   49.3260 C   0  0  0  0  0  0  0  0  0  0  0  0
  -31.7880  -67.9280   49.5510 Cl  0  0  0  0  0  0  0  0  0  0  0  0
  -33.4980  -66.4340   48.0590 C   0  0  0  0  0  3  0  0  0  0  0  0
  -34.6190  -65.6230   47.8730 C   0  0  0  0  0  3  0  0  0  0  0  0
  1  2  1  0  0  0  0
  1 28  1  0  0  0  0
  2  3  2  0  0  0  0
  4 10  1  0  0  0  0
  4  2  1  0  0  0  0
  5  4  1  0  0  0  0
  6  5  2  0  0  0  0
  7  5  1  1  0  0  0
  7  8  1  0  0  0  0
  7 11  1  0  0  0  0
  8  1  1  0  0  0  0
  9  8  2  0  0  0  0
 11 12  1  1  0  0  0
 11 15  1  0  0  0  0
 12 13  1  0  0  0  0
 13 14  1  0  0  0  0
 13 18  1  1  0  0  0
 15 17  1  0  0  0  0
 15 14  1  0  0  0  0
 16 14  1  0  0  0  0
 18 19  1  0  0  0  0
 19 20  2  0  0  0  0
 20 24  1  0  0  0  0
 21 26  1  0  0  0  0
 21 20  1  0  0  0  0
 22 21  2  0  0  0  0
 23 18  2  0  0  0  0
 23 22  1  0  0  0  0
 24 25  1  0  0  0  0
 26 27  1  0  0  0  0
 28 29  1  0  0  0  0
 29 30  2  0  0  0  0
 31 32  1  0  0  0  0
 31 30  1  0  0  0  0
 33 31  2  0  0  0  0
 34 33  1  0  0  0  0
 34 28  2  0  0  0  0
M  END
>  <Pose>
1

>  <Score>
-8.545

$$$$
