MODEL 1
REMARK VINA RESULT:    -9.256      0.000      0.000
REMARK INTER + INTRA:         -11.909
REMARK INTER:                 -11.150
REMARK INTRA:                  -0.759
REMARK UNBOUND:                -0.759
REMARK  4 active torsions:
REMARK  status: ('A' for Active; 'I' for Inactive)
REMARK    1  A    between atoms: C_5  and  N_8 
REMARK    2  A    between atoms: C_14  and  C_17 
REMARK    3  A    between atoms: C_19  and  C_22 
REMARK    4  A    between atoms: C_24  and  O_28 
ROOT
ATOM      1  N   UNK d   1     -42.921 -66.413  52.980  0.00  0.00    -0.233 N 
ATOM      2  C   UNK d   1     -43.078 -66.552  54.401  0.00  0.00     0.336 C 
ATOM      3  O   UNK d   1     -44.032 -65.987  55.020  0.00  0.00    -0.246 OA
ATOM      4  N   UNK d   1     -42.116 -67.350  55.074  0.00  0.00    -0.277 N 
ATOM      5  C   UNK d   1     -41.040 -67.981  54.344  0.00  0.00     0.244 C 
ATOM      6  O   UNK d   1     -40.529 -68.983  54.861  0.00  0.00    -0.272 OA
ATOM      7  C   UNK d   1     -40.621 -67.425  53.072  0.00  0.00     0.221 C 
ATOM      8  C   UNK d   1     -41.849 -67.053  52.307  0.00  0.00     0.251 C 
ATOM      9  O   UNK d   1     -42.001 -67.273  51.078  0.00  0.00    -0.271 OA
ATOM     10  H   UNK d   1     -42.212 -67.463  56.099  0.00  0.00     0.173 HD
ENDROOT
BRANCH   7  11
ATOM     11  C   UNK d   1     -39.670 -68.175  52.285  0.00  0.00     0.041 C 
ATOM     12  C   UNK d   1     -38.838 -67.752  51.361  0.00  0.00     0.026 C 
ATOM     13  C   UNK d   1     -38.036 -68.869  50.805  0.00  0.00     0.134 C 
ATOM     14  N   UNK d   1     -38.322 -69.951  51.717  0.00  0.00    -0.228 NA
ATOM     15  N   UNK d   1     -39.486 -69.602  52.398  0.00  0.00    -0.323 N 
ATOM     16  H   UNK d   1     -37.524 -70.171  52.350  0.00  0.00     0.147 HD
ATOM     17  H   UNK d   1     -40.084 -70.302  52.887  0.00  0.00     0.180 HD
BRANCH  13  18
ATOM     18  C   UNK d   1     -36.590 -68.618  50.845  0.00  0.00    -0.033 A 
ATOM     19  C   UNK d   1     -35.793 -69.501  51.558  0.00  0.00     0.045 A 
ATOM     20  C   UNK d   1     -34.435 -69.296  51.615  0.00  0.00     0.066 A 
ATOM     21  C   UNK d   1     -33.838 -68.231  50.981  0.00  0.00     0.036 A 
ATOM     22  C   UNK d   1     -34.614 -67.346  50.272  0.00  0.00     0.003 A 
ATOM     23  C   UNK d   1     -35.992 -67.557  50.216  0.00  0.00     0.009 A 
BRANCH  20  24
ATOM     24  O   UNK d   1     -33.619 -70.182  52.330  0.00  0.00    -0.361 OA
ATOM     25  H   UNK d   1     -33.946 -70.551  53.206  0.00  0.00     0.217 HD
ENDBRANCH  20  24
ENDBRANCH  13  18
ENDBRANCH   7  11
BRANCH   1  26
ATOM     26  C   UNK d   1     -43.897 -65.601  52.288  0.00  0.00     0.047 A 
ATOM     27  C   UNK d   1     -45.186 -66.047  52.069  0.00  0.00     0.032 A 
ATOM     28  C   UNK d   1     -46.140 -65.296  51.409  0.00  0.00     0.026 A 
ATOM     29  C   UNK d   1     -45.804 -64.034  50.940  0.00  0.00     0.034 A 
ATOM     30 Cl   UNK d   1     -47.026 -63.113  50.112  0.00  0.00    -0.084 Cl
ATOM     31  C   UNK d   1     -44.511 -63.563  51.148  0.00  0.00     0.026 A 
ATOM     32  C   UNK d   1     -43.582 -64.343  51.813  0.00  0.00     0.032 A 
ENDBRANCH   1  26
TORSDOF 4
ENDMDL
