MODEL 1
REMARK VINA RESULT:    -8.554      0.000      0.000
REMARK INTER + INTRA:         -11.198
REMARK INTER:                 -10.054
REMARK INTRA:                  -1.144
REMARK UNBOUND:                -1.144
REMARK  3 active torsions:
REMARK  status: ('A' for Active; 'I' for Inactive)
REMARK    1  A    between atoms: C_5  and  N_8 
REMARK    2  A    between atoms: C_14  and  C_17 
REMARK    3  A    between atoms: C_19  and  C_22 
ROOT
ATOM      1  N   UNK d   1     -40.481 -65.630  50.564  0.00  0.00    -0.233 N 
ATOM      2  C   UNK d   1     -40.207 -64.268  50.834  0.00  0.00     0.336 C 
ATOM      3  O   UNK d   1     -40.258 -63.833  52.011  0.00  0.00    -0.246 OA
ATOM      4  N   UNK d   1     -39.869 -63.397  49.739  0.00  0.00    -0.277 N 
ATOM      5  C   UNK d   1     -39.810 -63.887  48.407  0.00  0.00     0.244 C 
ATOM      6  O   UNK d   1     -39.851 -63.075  47.448  0.00  0.00    -0.272 OA
ATOM      7  C   UNK d   1     -39.702 -65.335  48.173  0.00  0.00     0.221 C 
ATOM      8  C   UNK d   1     -40.413 -66.084  49.223  0.00  0.00     0.251 C 
ATOM      9  O   UNK d   1     -40.995 -67.186  48.932  0.00  0.00    -0.271 OA
ATOM     10  H   UNK d   1     -39.660 -62.387  49.892  0.00  0.00     0.173 HD
ENDROOT
BRANCH   7  11
ATOM     11  C   UNK d   1     -38.263 -65.763  48.120  0.00  0.00     0.041 C 
ATOM     12  C   UNK d   1     -37.771 -66.915  47.747  0.00  0.00     0.026 C 
ATOM     13  C   UNK d   1     -36.305 -66.877  47.863  0.00  0.00     0.135 C 
ATOM     14  N   UNK d   1     -36.004 -65.479  47.996  0.00  0.00    -0.228 NA
ATOM     15  N   UNK d   1     -37.191 -64.911  48.486  0.00  0.00    -0.323 N 
ATOM     16  H   UNK d   1     -35.713 -65.052  47.112  0.00  0.00     0.147 HD
ATOM     17  H   UNK d   1     -37.200 -64.011  49.018  0.00  0.00     0.180 HD
BRANCH  13  18
ATOM     18  C   UNK d   1     -35.948 -67.599  49.111  0.00  0.00    -0.018 A 
ATOM     19  C   UNK d   1     -34.710 -67.424  49.682  0.00  0.00     0.125 A 
ATOM     20  N   UNK d   1     -34.377 -68.084  50.826  0.00  0.00    -0.273 NA
ATOM     21  C   UNK d   1     -35.220 -68.925  51.446  0.00  0.00     0.116 A 
ATOM     22  C   UNK d   1     -36.468 -69.124  50.900  0.00  0.00     0.020 A 
ATOM     23  C   UNK d   1     -36.827 -68.452  49.723  0.00  0.00     0.012 A 
ENDBRANCH  13  18
ENDBRANCH   7  11
BRANCH   1  24
ATOM     24  C   UNK d   1     -40.829 -66.540  51.635  0.00  0.00     0.047 A 
ATOM     25  C   UNK d   1     -42.020 -66.439  52.321  0.00  0.00     0.032 A 
ATOM     26  C   UNK d   1     -42.341 -67.320  53.348  0.00  0.00     0.026 A 
ATOM     27  C   UNK d   1     -41.476 -68.329  53.716  0.00  0.00     0.034 A 
ATOM     28 Cl   UNK d   1     -41.876 -69.444  55.010  0.00  0.00    -0.084 Cl
ATOM     29  C   UNK d   1     -40.285 -68.425  53.027  0.00  0.00     0.026 A 
ATOM     30  C   UNK d   1     -39.968 -67.549  52.006  0.00  0.00     0.032 A 
ENDBRANCH   1  24
TORSDOF 3
ENDMDL
