MODEL 1
REMARK VINA RESULT:    -7.713      0.000      0.000
REMARK INTER + INTRA:         -10.649
REMARK INTER:                 -10.193
REMARK INTRA:                  -0.457
REMARK UNBOUND:                -0.457
REMARK  6 active torsions:
REMARK  status: ('A' for Active; 'I' for Inactive)
REMARK    1  A    between atoms: C_5  and  N_8 
REMARK    2  A    between atoms: C_9  and  O_19 
REMARK    3  A    between atoms: C_9  and  C_20 
REMARK       I    between atoms: C_20  and  N_22 
REMARK    4  A    between atoms: N_22  and  C_23 
REMARK    5  A    between atoms: C_23  and  C_24 
REMARK    6  A    between atoms: C_24  and  N_25 
ROOT
ATOM      1  N   UNK d   1     -39.550 -65.855  49.619  0.00  0.00    -0.254 N 
ATOM      2  C   UNK d   1     -40.489 -66.468  50.490  0.00  0.00     0.256 A 
ATOM      3  C   UNK d   1     -39.991 -67.641  51.192  0.00  0.00     0.034 A 
ATOM      4  C   UNK d   1     -38.756 -68.169  50.962  0.00  0.00     0.048 A 
ATOM      5  C   UNK d   1     -38.349 -69.320  51.663  0.00  0.00     0.030 A 
ATOM      6  C   UNK d   1     -39.145 -69.951  52.585  0.00  0.00     0.002 A 
ATOM      7  C   UNK d   1     -40.397 -69.400  52.806  0.00  0.00     0.001 A 
ATOM      8  C   UNK d   1     -40.796 -68.290  52.134  0.00  0.00     0.015 A 
ATOM      9  N   UNK d   1     -37.831 -67.575  50.037  0.00  0.00    -0.308 N 
ATOM     10  C   UNK d   1     -38.282 -66.406  49.383  0.00  0.00     0.330 A 
ATOM     11  O   UNK d   1     -37.521 -65.819  48.545  0.00  0.00    -0.246 OA
ATOM     12  H   UNK d   1     -36.902 -68.006  49.886  0.00  0.00     0.170 HD
ENDROOT
BRANCH   2  13
ATOM     13  O   UNK d   1     -41.539 -66.920  49.615  0.00  0.00    -0.359 OA
ATOM     14  H   UNK d   1     -41.259 -66.795  48.671  0.00  0.00     0.213 HD
ENDBRANCH   2  13
BRANCH   2  15
ATOM     15  C   UNK d   1     -41.138 -65.491  51.402  0.00  0.00     0.279 C 
ATOM     16  O   UNK d   1     -40.457 -64.840  52.196  0.00  0.00    -0.268 OA
ATOM     17  N   UNK d   1     -42.535 -65.342  51.322  0.00  0.00    -0.355 N 
ATOM     18  H   UNK d   1     -43.127 -65.897  50.643  0.00  0.00     0.162 HD
BRANCH  17  19
ATOM     19  C   UNK d   1     -43.277 -64.410  52.172  0.00  0.00     0.142 C 
BRANCH  19  20
ATOM     20  C   UNK d   1     -43.743 -65.033  53.431  0.00  0.00     0.136 C 
BRANCH  20  21
ATOM     21  N   UNK d   1     -45.073 -65.504  53.472  0.00  0.00    -0.407 N 
ATOM     22  C   UNK d   1     -46.111 -64.639  53.090  0.00  0.00     0.143 C 
ATOM     23  C   UNK d   1     -47.401 -65.454  52.956  0.00  0.00     0.187 C 
ATOM     24  O   UNK d   1     -47.423 -66.489  53.908  0.00  0.00    -0.388 OA
ATOM     25  C   UNK d   1     -46.506 -67.488  53.589  0.00  0.00     0.187 C 
ATOM     26  C   UNK d   1     -45.277 -66.837  53.015  0.00  0.00     0.143 C 
ENDBRANCH  20  21
ENDBRANCH  19  20
ENDBRANCH  17  19
ENDBRANCH   2  15
BRANCH   1  27
ATOM     27  C   UNK d   1     -39.904 -64.600  48.943  0.00  0.00     0.043 A 
ATOM     28  C   UNK d   1     -39.358 -63.402  49.322  0.00  0.00     0.031 A 
ATOM     29  C   UNK d   1     -39.702 -62.221  48.671  0.00  0.00     0.026 A 
ATOM     30  C   UNK d   1     -40.604 -62.260  47.632  0.00  0.00     0.034 A 
ATOM     31 Cl   UNK d   1     -41.035 -60.755  46.811  0.00  0.00    -0.084 Cl
ATOM     32  C   UNK d   1     -41.167 -63.452  47.230  0.00  0.00     0.026 A 
ATOM     33  C   UNK d   1     -40.802 -64.607  47.898  0.00  0.00     0.031 A 
ENDBRANCH   1  27
TORSDOF 6
ENDMDL
