MODEL 1
REMARK VINA RESULT:    -7.928      0.000      0.000
REMARK INTER + INTRA:         -11.573
REMARK INTER:                 -10.709
REMARK INTRA:                  -0.863
REMARK UNBOUND:                -0.863
REMARK  6 active torsions:
REMARK  status: ('A' for Active; 'I' for Inactive)
REMARK    1  A    between atoms: N_4  and  C_7 
REMARK    2  A    between atoms: C_7  and  C_8 
REMARK    3  A    between atoms: C_8  and  C_10 
REMARK       I    between atoms: C_10  and  N_12 
REMARK    4  A    between atoms: N_12  and  N_13 
REMARK       I    between atoms: N_13  and  C_14 
REMARK    5  A    between atoms: C_14  and  C_16 
REMARK    6  A    between atoms: C_18  and  N_26 
ROOT
ATOM      1  N   UNK d   1     -41.948 -65.881  50.749  0.00  0.00    -0.267 N 
ATOM      2  C   UNK d   1     -40.673 -66.466  50.733  0.00  0.00     0.245 C 
ATOM      3  O   UNK d   1     -40.442 -67.425  51.531  0.00  0.00    -0.271 OA
ATOM      4  H   UNK d   1     -42.155 -65.088  50.094  0.00  0.00     0.190 HD
ENDROOT
BRANCH   2   5
ATOM      5  C   UNK d   1     -39.569 -66.040  49.842  0.00  0.00     0.045 C 
ATOM      6  C   UNK d   1     -38.270 -66.710  50.242  0.00  0.00     0.054 C 
ATOM      7  C   UNK d   1     -37.144 -66.271  49.349  0.00  0.00     0.078 C 
ATOM      8  C   UNK d   1     -37.486 -66.739  47.933  0.00  0.00     0.039 C 
ATOM      9  C   UNK d   1     -36.971 -64.785  49.310  0.00  0.00     0.039 C 
ATOM     10  C   UNK d   1     -38.773 -66.115  47.496  0.00  0.00    -0.010 C 
ATOM     11  C   UNK d   1     -39.893 -66.496  48.436  0.00  0.00     0.024 C 
ATOM     12  C   UNK d   1     -38.614 -64.612  47.487  0.00  0.00     0.009 C 
ATOM     13  C   UNK d   1     -38.284 -64.172  48.894  0.00  0.00    -0.010 C 
ATOM     14  C   UNK d   1     -39.403 -64.536  49.833  0.00  0.00     0.024 C 
BRANCH   7  15
ATOM     15  N   UNK d   1     -35.948 -66.956  49.797  0.00  0.00    -0.159 N 
ATOM     16  N   UNK d   1     -35.755 -68.232  50.083  0.00  0.00    -0.046 NA
ATOM     17  N   UNK d   1     -34.534 -68.469  50.456  0.00  0.00    -0.122 NA
ATOM     18  C   UNK d   1     -33.871 -67.326  50.426  0.00  0.00     0.282 A 
ATOM     19  N   UNK d   1     -34.756 -66.376  50.013  0.00  0.00    -0.144 NA
ENDBRANCH   7  15
ENDBRANCH   2   5
BRANCH   1  20
ATOM     20  N   UNK d   1     -42.932 -66.326  51.603  0.00  0.00    -0.267 N 
ATOM     21  C   UNK d   1     -43.201 -65.779  52.881  0.00  0.00     0.241 C 
ATOM     22  O   UNK d   1     -42.531 -64.814  53.328  0.00  0.00    -0.271 OA
ATOM     23  H   UNK d   1     -43.539 -67.137  51.297  0.00  0.00     0.190 HD
BRANCH  21  24
ATOM     24  C   UNK d   1     -44.283 -66.307  53.761  0.00  0.00     0.095 C 
ATOM     25  C   UNK d   1     -45.645 -66.001  53.235  0.00  0.00     0.022 C 
BRANCH  24  26
ATOM     26  C   UNK d   1     -44.080 -67.792  53.960  0.00  0.00     0.164 C 
BRANCH  26  27
ATOM     27  N   UNK d   1     -42.731 -68.118  54.359  0.00  0.00    -0.279 N 
ATOM     28  C   UNK d   1     -41.936 -69.111  53.883  0.00  0.00     0.133 A 
ATOM     29  C   UNK d   1     -40.718 -69.079  54.532  0.00  0.00     0.047 A 
ATOM     30 Br   UNK d   1     -39.199 -70.207  54.302  0.00  0.00    -0.048 Br
ATOM     31  C   UNK d   1     -40.819 -68.012  55.429  0.00  0.00     0.159 A 
ATOM     32  N   UNK d   1     -42.046 -67.484  55.271  0.00  0.00    -0.184 NA
ENDBRANCH  26  27
ENDBRANCH  24  26
ENDBRANCH  21  24
ENDBRANCH   1  20
TORSDOF 6
ENDMDL
