MODEL 1
REMARK VINA RESULT:    -9.053      0.000      0.000
REMARK INTER + INTRA:         -12.694
REMARK INTER:                 -11.435
REMARK INTRA:                  -1.260
REMARK UNBOUND:                -1.260
REMARK  5 active torsions:
REMARK  status: ('A' for Active; 'I' for Inactive)
REMARK    1  A    between atoms: C_5  and  C_8 
REMARK    2  A    between atoms: C_8  and  O_33 
REMARK       I    between atoms: N_11  and  C_14 
REMARK    3  A    between atoms: C_14  and  C_16 
REMARK    4  A    between atoms: C_16  and  N_17 
REMARK       I    between atoms: N_17  and  C_18 
REMARK    5  A    between atoms: C_20  and  C_21 
ROOT
ATOM      1  C   UNK d   1     -40.893 -63.660  48.187  0.00  0.00     0.172 C 
ATOM      2  C   UNK d   1     -41.954 -63.155  47.366  0.00  0.00     0.042 C 
ENDROOT
BRANCH   1   3
ATOM      3  C   UNK d   1     -39.686 -62.765  48.434  0.00  0.00     0.242 C 
ATOM      4  N   UNK d   1     -38.378 -63.259  48.212  0.00  0.00    -0.350 N 
ATOM      5  C   UNK d   1     -37.162 -62.703  48.709  0.00  0.00     0.129 C 
ATOM      6  C   UNK d   1     -38.189 -64.258  47.141  0.00  0.00     0.129 C 
ATOM      7  C   UNK d   1     -36.065 -63.693  49.011  0.00  0.00     0.062 C 
ATOM      8  C   UNK d   1     -36.285 -65.092  48.614  0.00  0.00     0.088 C 
ATOM      9  C   UNK d   1     -37.290 -65.331  47.515  0.00  0.00     0.062 C 
ATOM     10  O   UNK d   1     -39.874 -61.615  48.823  0.00  0.00    -0.271 OA
BRANCH   8  11
ATOM     11  C   UNK d   1     -35.060 -65.796  48.172  0.00  0.00    -0.024 A 
ATOM     12  C   UNK d   1     -35.209 -66.679  47.112  0.00  0.00     0.012 A 
ATOM     13  C   UNK d   1     -34.121 -67.386  46.580  0.00  0.00     0.024 A 
ATOM     14  C   UNK d   1     -32.864 -67.208  47.108  0.00  0.00     0.034 A 
ATOM     15 Cl   UNK d   1     -31.468 -68.082  46.433  0.00  0.00    -0.084 Cl
ATOM     16  C   UNK d   1     -32.714 -66.326  48.165  0.00  0.00     0.024 A 
ATOM     17  C   UNK d   1     -33.809 -65.642  48.676  0.00  0.00     0.012 A 
ENDBRANCH   8  11
BRANCH   8  18
ATOM     18  O   UNK d   1     -36.753 -65.783  49.772  0.00  0.00    -0.385 OA
ATOM     19  H   UNK d   1     -37.052 -65.165  50.460  0.00  0.00     0.211 HD
ENDBRANCH   8  18
ENDBRANCH   1   3
BRANCH   1  20
ATOM     20  N   UNK d   1     -41.133 -64.477  49.352  0.00  0.00    -0.356 N 
ATOM     21  C   UNK d   1     -40.878 -65.845  49.440  0.00  0.00     0.177 C 
ATOM     22  O   UNK d   1     -40.423 -66.304  48.219  0.00  0.00    -0.172 OA
ATOM     23  C   UNK d   1     -40.913 -66.871  50.371  0.00  0.00     0.090 C 
ATOM     24  H   UNK d   1     -41.600 -63.897  50.127  0.00  0.00     0.162 HD
BRANCH  23  25
ATOM     25  C   UNK d   1     -41.057 -67.268  51.601  0.00  0.00     0.063 A 
ATOM     26  N   UNK d   1     -42.238 -66.833  52.358  0.00  0.00    -0.297 N 
ATOM     27  N   UNK d   1     -42.525 -67.276  53.635  0.00  0.00    -0.265 N 
ATOM     28  H   UNK d   1     -42.872 -66.151  51.860  0.00  0.00     0.187 HD
ATOM     29  C   UNK d   1     -41.708 -68.173  54.305  0.00  0.00     0.271 A 
ATOM     30  H   UNK d   1     -43.394 -66.920  54.121  0.00  0.00     0.190 HD
ATOM     31  O   UNK d   1     -41.926 -68.597  55.468  0.00  0.00    -0.266 OA
ATOM     32  C   UNK d   1     -40.490 -68.669  53.620  0.00  0.00     0.046 A 
ATOM     33  C   UNK d   1     -40.245 -68.206  52.350  0.00  0.00     0.008 A 
ATOM     34  C   UNK d   1     -39.724 -69.616  54.256  0.00  0.00     0.018 A 
ATOM     35  C   UNK d   1     -39.141 -68.779  51.707  0.00  0.00     0.015 A 
ATOM     36  C   UNK d   1     -38.358 -69.737  52.335  0.00  0.00     0.001 A 
ATOM     37  C   UNK d   1     -38.636 -70.161  53.608  0.00  0.00     0.001 A 
ENDBRANCH  23  25
ENDBRANCH   1  20
TORSDOF 5
ENDMDL
