MODEL 1
REMARK VINA RESULT:    -8.295      0.000      0.000
REMARK INTER + INTRA:         -11.525
REMARK INTER:                 -11.205
REMARK INTRA:                  -0.320
REMARK UNBOUND:                -0.320
REMARK  6 active torsions:
REMARK  status: ('A' for Active; 'I' for Inactive)
REMARK    1  A    between atoms: C_3  and  N_15 
REMARK    2  A    between atoms: N_6  and  C_9 
REMARK       I    between atoms: N_18  and  C_21 
REMARK    3  A    between atoms: C_21  and  C_23 
REMARK    4  A    between atoms: C_23  and  C_24 
REMARK    5  A    between atoms: C_24  and  C_25 
REMARK    6  A    between atoms: C_25  and  N_26 
ROOT
ATOM      1  N   UNK d   1     -37.432 -66.956  48.049  0.00  0.00    -0.375 N 
ATOM      2  C   UNK d   1     -37.300 -65.585  47.567  0.00  0.00     0.143 C 
ATOM      3  C   UNK d   1     -35.860 -65.123  47.556  0.00  0.00     0.145 C 
ATOM      4  N   UNK d   1     -35.019 -66.294  47.614  0.00  0.00    -0.349 N 
ATOM      5  C   UNK d   1     -35.409 -67.395  46.752  0.00  0.00     0.145 C 
ATOM      6  C   UNK d   1     -36.670 -68.007  47.361  0.00  0.00     0.143 C 
ATOM      7  C   UNK d   1     -33.880 -66.413  48.436  0.00  0.00     0.219 C 
ATOM      8  O   UNK d   1     -33.219 -67.474  48.410  0.00  0.00    -0.273 OA
ENDROOT
BRANCH   1   9
ATOM      9  C   UNK d   1     -38.241 -67.236  49.167  0.00  0.00     0.077 A 
ATOM     10  C   UNK d   1     -37.819 -67.973  50.253  0.00  0.00     0.131 A 
ATOM     11 Cl   UNK d   1     -36.210 -68.648  50.210  0.00  0.00    -0.076 Cl
ATOM     12  C   UNK d   1     -38.663 -68.185  51.347  0.00  0.00     0.292 A 
ATOM     13  N   UNK d   1     -39.908 -67.696  51.406  0.00  0.00    -0.197 N 
ATOM     14  O   UNK d   1     -38.208 -68.866  52.299  0.00  0.00    -0.264 OA
ATOM     15  N   UNK d   1     -40.304 -66.994  50.365  0.00  0.00    -0.174 NA
ATOM     16  C   UNK d   1     -39.550 -66.747  49.278  0.00  0.00     0.170 A 
BRANCH  13  17
ATOM     17  C   UNK d   1     -40.773 -67.909  52.517  0.00  0.00     0.062 A 
ATOM     18  C   UNK d   1     -40.837 -69.126  53.179  0.00  0.00     0.032 A 
ATOM     19  C   UNK d   1     -41.669 -69.349  54.257  0.00  0.00     0.002 A 
ATOM     20  C   UNK d   1     -42.468 -68.311  54.688  0.00  0.00     0.000 A 
ATOM     21  C   UNK d   1     -42.430 -67.084  54.051  0.00  0.00     0.002 A 
ATOM     22  C   UNK d   1     -41.575 -66.889  52.960  0.00  0.00     0.032 A 
ENDBRANCH  13  17
ENDBRANCH   1   9
BRANCH   7  23
ATOM     23  C   UNK d   1     -33.414 -65.336  49.344  0.00  0.00     0.104 C 
BRANCH  23  24
ATOM     24  C   UNK d   1     -32.275 -64.564  48.720  0.00  0.00     0.029 C 
BRANCH  24  25
ATOM     25  C   UNK d   1     -32.490 -63.080  48.773  0.00  0.00     0.137 C 
BRANCH  25  26
ATOM     26  N   UNK d   1     -33.323 -62.570  47.707  0.00  0.00    -0.269 N 
ATOM     27  C   UNK d   1     -34.610 -61.998  47.855  0.00  0.00     0.327 A 
ATOM     28  O   UNK d   1     -35.250 -61.839  48.948  0.00  0.00    -0.247 OA
ATOM     29  N   UNK d   1     -35.141 -61.600  46.610  0.00  0.00    -0.329 N 
ATOM     30  C   UNK d   1     -34.179 -61.928  45.581  0.00  0.00     0.230 A 
ATOM     31  C   UNK d   1     -36.426 -60.969  46.383  0.00  0.00     0.155 C 
ATOM     32  C   UNK d   1     -33.036 -62.528  46.305  0.00  0.00     0.245 A 
ATOM     33  O   UNK d   1     -31.978 -62.939  45.784  0.00  0.00    -0.271 OA
ENDBRANCH  25  26
ENDBRANCH  24  25
ENDBRANCH  23  24
ENDBRANCH   7  23
TORSDOF 6
ENDMDL
