MODEL 1
REMARK VINA RESULT:    -7.929      0.000      0.000
REMARK INTER + INTRA:          -9.381
REMARK INTER:                  -9.319
REMARK INTRA:                  -0.062
REMARK UNBOUND:                -0.062
REMARK  3 active torsions:
REMARK  status: ('A' for Active; 'I' for Inactive)
REMARK    1  A    between atoms: C_3  and  N_15 
REMARK    2  A    between atoms: N_6  and  C_9 
REMARK       I    between atoms: N_18  and  C_21 
REMARK    3  A    between atoms: C_21  and  C_23 
ROOT
ATOM      1 Cl   UNK d   1     -37.970 -70.034  50.974  0.00  0.00    -0.076 Cl
ATOM      2  C   UNK d   1     -38.821 -68.493  50.989  0.00  0.00     0.131 A 
ATOM      3  C   UNK d   1     -38.295 -67.465  50.244  0.00  0.00     0.077 A 
ATOM      4  C   UNK d   1     -38.988 -66.266  50.278  0.00  0.00     0.170 A 
ATOM      5  N   UNK d   1     -40.110 -66.156  51.011  0.00  0.00    -0.174 NA
ATOM      6  N   UNK d   1     -40.628 -67.137  51.731  0.00  0.00    -0.197 N 
ATOM      7  C   UNK d   1     -39.979 -68.315  51.721  0.00  0.00     0.292 A 
ATOM      8  O   UNK d   1     -40.414 -69.299  52.384  0.00  0.00    -0.264 OA
ENDROOT
BRANCH   3   9
ATOM      9  N   UNK d   1     -37.110 -67.667  49.504  0.00  0.00    -0.375 N 
ATOM     10  C   UNK d   1     -35.814 -67.816  50.156  0.00  0.00     0.143 C 
ATOM     11  C   UNK d   1     -35.025 -66.553  49.760  0.00  0.00     0.145 C 
ATOM     12  N   UNK d   1     -35.031 -66.388  48.340  0.00  0.00    -0.347 N 
ATOM     13  C   UNK d   1     -35.668 -67.458  47.543  0.00  0.00     0.145 C 
ATOM     14  C   UNK d   1     -34.463 -65.270  47.676  0.00  0.00     0.248 C 
ATOM     15  C   UNK d   1     -37.065 -67.746  48.055  0.00  0.00     0.143 C 
ATOM     16  O   UNK d   1     -34.492 -65.167  46.413  0.00  0.00    -0.270 OA
BRANCH  14  17
ATOM     17  C   UNK d   1     -33.806 -64.164  48.394  0.00  0.00     0.213 C 
ATOM     18  O   UNK d   1     -32.484 -64.420  48.589  0.00  0.00    -0.376 OA
ATOM     19  C   UNK d   1     -31.797 -63.213  48.572  0.00  0.00     0.168 C 
ATOM     20  C   UNK d   1     -32.466 -62.512  47.398  0.00  0.00     0.029 C 
ATOM     21  C   UNK d   1     -33.920 -62.851  47.651  0.00  0.00     0.043 C 
ENDBRANCH  14  17
ENDBRANCH   3   9
BRANCH   6  22
ATOM     22  C   UNK d   1     -41.830 -66.957  52.493  0.00  0.00     0.062 A 
ATOM     23  C   UNK d   1     -42.951 -66.409  51.904  0.00  0.00     0.032 A 
ATOM     24  C   UNK d   1     -44.129 -66.228  52.634  0.00  0.00     0.002 A 
ATOM     25  C   UNK d   1     -44.189 -66.595  53.955  0.00  0.00     0.000 A 
ATOM     26  C   UNK d   1     -43.082 -67.140  54.554  0.00  0.00     0.002 A 
ATOM     27  C   UNK d   1     -41.932 -67.312  53.822  0.00  0.00     0.032 A 
ENDBRANCH   6  22
TORSDOF 3
ENDMDL
