/Users/jonathanwahrer/Desktop/Msc/3_Semester/Drug_Design_Praktikum/waehrer_HTS_screening/HTS_experiment/out/docking_results/vina_output/3e7o/2380_docked.pdbqt
 OpenBabel03192217093D

 27 30  0  0  1  0  0  0  0  0999 V2000
  -37.9700  -70.0340   50.9740 Cl  0  0  0  0  0  0  0  0  0  0  0  0
  -38.8210  -68.4930   50.9890 C   0  0  0  0  0  0  0  0  0  0  0  0
  -38.2950  -67.4650   50.2440 C   0  0  0  0  0  0  0  0  0  0  0  0
  -38.9880  -66.2660   50.2780 C   0  0  0  0  0  3  0  0  0  0  0  0
  -40.1100  -66.1560   51.0110 N   0  0  0  0  0  0  0  0  0  0  0  0
  -40.6280  -67.1370   51.7310 N   0  0  0  0  0  0  0  0  0  0  0  0
  -39.9790  -68.3150   51.7210 C   0  0  0  0  0  0  0  0  0  0  0  0
  -40.4140  -69.2990   52.3840 O   0  0  0  0  0  0  0  0  0  0  0  0
  -37.1100  -67.6670   49.5040 N   0  0  0  0  0  0  0  0  0  0  0  0
  -35.8140  -67.8160   50.1560 C   0  0  0  0  0  2  0  0  0  0  0  0
  -35.0250  -66.5530   49.7600 C   0  0  0  0  0  2  0  0  0  0  0  0
  -35.0310  -66.3880   48.3400 N   0  0  0  0  0  0  0  0  0  0  0  0
  -35.6680  -67.4580   47.5430 C   0  0  0  0  0  2  0  0  0  0  0  0
  -34.4630  -65.2700   47.6760 C   0  0  0  0  0  0  0  0  0  0  0  0
  -37.0650  -67.7460   48.0550 C   0  0  0  0  0  2  0  0  0  0  0  0
  -34.4920  -65.1670   46.4130 O   0  0  0  0  0  0  0  0  0  0  0  0
  -33.8060  -64.1640   48.3940 C   0  0  1  0  0  3  0  0  0  0  0  0
  -32.4840  -64.4200   48.5890 O   0  0  0  0  0  0  0  0  0  0  0  0
  -31.7970  -63.2130   48.5720 C   0  0  0  0  0  2  0  0  0  0  0  0
  -32.4660  -62.5120   47.3980 C   0  0  0  0  0  2  0  0  0  0  0  0
  -33.9200  -62.8510   47.6510 C   0  0  0  0  0  2  0  0  0  0  0  0
  -41.8300  -66.9570   52.4930 C   0  0  0  0  0  0  0  0  0  0  0  0
  -42.9510  -66.4090   51.9040 C   0  0  0  0  0  3  0  0  0  0  0  0
  -44.1290  -66.2280   52.6340 C   0  0  0  0  0  3  0  0  0  0  0  0
  -44.1890  -66.5950   53.9550 C   0  0  0  0  0  3  0  0  0  0  0  0
  -43.0820  -67.1400   54.5540 C   0  0  0  0  0  3  0  0  0  0  0  0
  -41.9320  -67.3120   53.8220 C   0  0  0  0  0  3  0  0  0  0  0  0
  1  2  1  0  0  0  0
  2  7  1  0  0  0  0
  3  4  1  0  0  0  0
  3  2  2  0  0  0  0
  4  5  2  0  0  0  0
  5  6  1  0  0  0  0
  6 22  1  0  0  0  0
  7  6  1  0  0  0  0
  7  8  2  0  0  0  0
  9 10  1  0  0  0  0
  9  3  1  0  0  0  0
 11 10  1  0  0  0  0
 12 11  1  0  0  0  0
 13 15  1  0  0  0  0
 13 12  1  0  0  0  0
 14 12  1  0  0  0  0
 15  9  1  0  0  0  0
 16 14  2  0  0  0  0
 17 14  1  6  0  0  0
 17 18  1  0  0  0  0
 19 18  1  0  0  0  0
 20 21  1  0  0  0  0
 20 19  1  0  0  0  0
 21 17  1  0  0  0  0
 22 27  1  0  0  0  0
 23 22  2  0  0  0  0
 23 24  1  0  0  0  0
 24 25  2  0  0  0  0
 25 26  1  0  0  0  0
 27 26  2  0  0  0  0
M  END
>  <Pose>
1

>  <Score>
-7.929

$$$$
