MODEL 1
REMARK VINA RESULT:    -7.992      0.000      0.000
REMARK INTER + INTRA:         -11.132
REMARK INTER:                 -10.328
REMARK INTRA:                  -0.803
REMARK UNBOUND:                -0.803
REMARK  5 active torsions:
REMARK  status: ('A' for Active; 'I' for Inactive)
REMARK    1  A    between atoms: C_3  and  N_15 
REMARK    2  A    between atoms: N_6  and  C_9 
REMARK       I    between atoms: N_18  and  C_21 
REMARK    3  A    between atoms: C_21  and  C_23 
REMARK    4  A    between atoms: C_23  and  O_24 
REMARK    5  A    between atoms: O_24  and  C_25 
ROOT
ATOM      1  N   UNK d   1     -38.427 -65.550  48.934  0.00  0.00    -0.375 N 
ATOM      2  C   UNK d   1     -38.527 -66.156  47.635  0.00  0.00     0.143 C 
ATOM      3  C   UNK d   1     -37.207 -66.750  47.197  0.00  0.00     0.145 C 
ATOM      4  N   UNK d   1     -36.084 -65.983  47.677  0.00  0.00    -0.347 N 
ATOM      5  C   UNK d   1     -36.324 -64.665  48.213  0.00  0.00     0.145 C 
ATOM      6  C   UNK d   1     -37.264 -64.810  49.382  0.00  0.00     0.143 C 
ATOM      7  C   UNK d   1     -34.774 -66.523  47.620  0.00  0.00     0.244 C 
ATOM      8  O   UNK d   1     -34.556 -67.685  47.149  0.00  0.00    -0.271 OA
ENDROOT
BRANCH   1   9
ATOM      9  C   UNK d   1     -39.529 -65.683  49.832  0.00  0.00     0.077 A 
ATOM     10  C   UNK d   1     -39.695 -66.790  50.641  0.00  0.00     0.131 A 
ATOM     11 Cl   UNK d   1     -38.514 -68.077  50.569  0.00  0.00    -0.076 Cl
ATOM     12  C   UNK d   1     -40.792 -66.845  51.486  0.00  0.00     0.292 A 
ATOM     13  N   UNK d   1     -41.715 -65.870  51.564  0.00  0.00    -0.197 N 
ATOM     14  O   UNK d   1     -40.950 -67.844  52.220  0.00  0.00    -0.264 OA
ATOM     15  N   UNK d   1     -41.540 -64.816  50.783  0.00  0.00    -0.174 NA
ATOM     16  C   UNK d   1     -40.497 -64.700  49.940  0.00  0.00     0.170 A 
BRANCH  13  17
ATOM     17  C   UNK d   1     -42.827 -65.984  52.456  0.00  0.00     0.062 A 
ATOM     18  C   UNK d   1     -44.102 -66.198  51.973  0.00  0.00     0.032 A 
ATOM     19  C   UNK d   1     -45.181 -66.309  52.827  0.00  0.00     0.002 A 
ATOM     20  C   UNK d   1     -45.039 -66.214  54.196  0.00  0.00     0.000 A 
ATOM     21  C   UNK d   1     -43.767 -66.001  54.685  0.00  0.00     0.002 A 
ATOM     22  C   UNK d   1     -42.695 -65.890  53.829  0.00  0.00     0.032 A 
ENDBRANCH  13  17
ENDBRANCH   1   9
BRANCH   7  23
ATOM     23  C   UNK d   1     -33.583 -65.774  48.100  0.00  0.00     0.280 C 
BRANCH  23  24
ATOM     24  O   UNK d   1     -33.450 -65.839  49.494  0.00  0.00    -0.324 OA
BRANCH  24  25
ATOM     25  C   UNK d   1     -33.645 -67.031  50.164  0.00  0.00     0.194 A 
ATOM     26  N   UNK d   1     -32.831 -68.084  50.294  0.00  0.00    -0.103 NA
ATOM     27  O   UNK d   1     -33.396 -69.004  51.005  0.00  0.00    -0.216 OA
ATOM     28  C   UNK d   1     -34.601 -68.640  51.392  0.00  0.00     0.079 A 
ATOM     29  C   UNK d   1     -34.790 -67.377  50.868  0.00  0.00     0.094 A 
ATOM     30  C   UNK d   1     -35.486 -69.483  52.216  0.00  0.00     0.079 C 
ENDBRANCH  24  25
ENDBRANCH  23  24
ENDBRANCH   7  23
TORSDOF 5
ENDMDL
