/Users/jonathanwahrer/Desktop/Msc/3_Semester/Drug_Design_Praktikum/waehrer_HTS_screening/HTS_experiment/out/docking_results/vina_output/3e7o/2381_docked.pdbqt
 OpenBabel03192217093D

 30 33  0  0  0  0  0  0  0  0999 V2000
  -38.4270  -65.5500   48.9340 N   0  0  0  0  0  0  0  0  0  0  0  0
  -38.5270  -66.1560   47.6350 C   0  0  0  0  0  2  0  0  0  0  0  0
  -37.2070  -66.7500   47.1970 C   0  0  0  0  0  2  0  0  0  0  0  0
  -36.0840  -65.9830   47.6770 N   0  0  0  0  0  0  0  0  0  0  0  0
  -36.3240  -64.6650   48.2130 C   0  0  0  0  0  2  0  0  0  0  0  0
  -37.2640  -64.8100   49.3820 C   0  0  0  0  0  2  0  0  0  0  0  0
  -34.7740  -66.5230   47.6200 C   0  0  0  0  0  0  0  0  0  0  0  0
  -34.5560  -67.6850   47.1490 O   0  0  0  0  0  0  0  0  0  0  0  0
  -39.5290  -65.6830   49.8320 C   0  0  0  0  0  0  0  0  0  0  0  0
  -39.6950  -66.7900   50.6410 C   0  0  0  0  0  0  0  0  0  0  0  0
  -38.5140  -68.0770   50.5690 Cl  0  0  0  0  0  0  0  0  0  0  0  0
  -40.7920  -66.8450   51.4860 C   0  0  0  0  0  0  0  0  0  0  0  0
  -41.7150  -65.8700   51.5640 N   0  0  0  0  0  0  0  0  0  0  0  0
  -40.9500  -67.8440   52.2200 O   0  0  0  0  0  0  0  0  0  0  0  0
  -41.5400  -64.8160   50.7830 N   0  0  0  0  0  0  0  0  0  0  0  0
  -40.4970  -64.7000   49.9400 C   0  0  0  0  0  3  0  0  0  0  0  0
  -42.8270  -65.9840   52.4560 C   0  0  0  0  0  0  0  0  0  0  0  0
  -44.1020  -66.1980   51.9730 C   0  0  0  0  0  3  0  0  0  0  0  0
  -45.1810  -66.3090   52.8270 C   0  0  0  0  0  3  0  0  0  0  0  0
  -45.0390  -66.2140   54.1960 C   0  0  0  0  0  3  0  0  0  0  0  0
  -43.7670  -66.0010   54.6850 C   0  0  0  0  0  3  0  0  0  0  0  0
  -42.6950  -65.8900   53.8290 C   0  0  0  0  0  3  0  0  0  0  0  0
  -33.5830  -65.7740   48.1000 C   0  0  0  0  0  2  0  0  0  0  0  0
  -33.4500  -65.8390   49.4940 O   0  0  0  0  0  0  0  0  0  0  0  0
  -33.6450  -67.0310   50.1640 C   0  0  0  0  0  0  0  0  0  0  0  0
  -32.8310  -68.0840   50.2940 N   0  0  0  0  0  0  0  0  0  0  0  0
  -33.3960  -69.0040   51.0050 O   0  0  0  0  0  0  0  0  0  0  0  0
  -34.6010  -68.6400   51.3920 C   0  0  0  0  0  0  0  0  0  0  0  0
  -34.7900  -67.3770   50.8680 C   0  0  0  0  0  3  0  0  0  0  0  0
  -35.4860  -69.4830   52.2160 C   0  0  0  0  0  1  0  0  0  0  0  0
  1  6  1  0  0  0  0
  1  9  1  0  0  0  0
  2  1  1  0  0  0  0
  3  2  1  0  0  0  0
  3  4  1  0  0  0  0
  4  5  1  0  0  0  0
  5  6  1  0  0  0  0
  7  4  1  0  0  0  0
  7 23  1  0  0  0  0
  8  7  2  0  0  0  0
  9 16  1  0  0  0  0
  9 10  2  0  0  0  0
 10 12  1  0  0  0  0
 11 10  1  0  0  0  0
 12 13  1  0  0  0  0
 12 14  2  0  0  0  0
 13 17  1  0  0  0  0
 15 13  1  0  0  0  0
 16 15  2  0  0  0  0
 17 22  1  0  0  0  0
 18 17  2  0  0  0  0
 18 19  1  0  0  0  0
 19 20  2  0  0  0  0
 20 21  1  0  0  0  0
 22 21  2  0  0  0  0
 23 24  1  0  0  0  0
 24 25  1  0  0  0  0
 25 26  2  0  0  0  0
 25 29  1  0  0  0  0
 26 27  1  0  0  0  0
 27 28  1  0  0  0  0
 28 30  1  0  0  0  0
 29 28  2  0  0  0  0
M  END
>  <Pose>
1

>  <Score>
-7.992

$$$$
