MODEL 1
REMARK VINA RESULT:    -8.525      0.000      0.000
REMARK INTER + INTRA:         -10.883
REMARK INTER:                 -10.519
REMARK INTRA:                  -0.365
REMARK UNBOUND:                -0.365
REMARK  4 active torsions:
REMARK  status: ('A' for Active; 'I' for Inactive)
REMARK       I    between atoms: N_11  and  C_13 
REMARK    1  A    between atoms: C_13  and  C_15 
REMARK    2  A    between atoms: C_15  and  C_16 
REMARK    3  A    between atoms: C_16  and  C_17 
REMARK    4  A    between atoms: C_17  and  N_18 
ROOT
ATOM      1 Cl   UNK d   1     -39.269 -70.653  53.208  0.00  0.00    -0.084 Cl
ATOM      2  C   UNK d   1     -38.699 -69.440  52.067  0.00  0.00     0.034 A 
ATOM      3  C   UNK d   1     -39.665 -68.670  51.423  0.00  0.00     0.035 A 
ATOM      4  C   UNK d   1     -39.235 -67.717  50.528  0.00  0.00    -0.005 A 
ATOM      5  C   UNK d   1     -37.879 -67.541  50.287  0.00  0.00     0.078 A 
ATOM      6  C   UNK d   1     -36.922 -68.314  50.933  0.00  0.00     0.039 A 
ATOM      7  C   UNK d   1     -37.355 -69.272  51.832  0.00  0.00     0.026 A 
ATOM      8  O   UNK d   1     -37.369 -66.606  49.403  0.00  0.00    -0.338 OA
ATOM      9  C   UNK d   1     -37.939 -66.058  48.246  0.00  0.00     0.088 C 
ATOM     10  C   UNK d   1     -39.210 -65.312  48.433  0.00  0.00     0.164 C 
ATOM     11  N   UNK d   1     -39.983 -65.640  49.587  0.00  0.00    -0.345 N 
ATOM     12  C   UNK d   1     -40.403 -67.000  49.948  0.00  0.00     0.167 C 
ATOM     13  C   UNK d   1     -40.395 -64.593  50.457  0.00  0.00     0.220 C 
ATOM     14  O   UNK d   1     -40.052 -63.430  50.146  0.00  0.00    -0.273 OA
ATOM     15  C   UNK d   1     -36.902 -65.113  47.609  0.00  0.00     0.066 C 
ATOM     16  C   UNK d   1     -35.619 -65.893  47.513  0.00  0.00     0.170 C 
ATOM     17  O   UNK d   1     -35.774 -67.220  47.874  0.00  0.00    -0.391 OA
ATOM     18  C   UNK d   1     -36.742 -67.868  47.128  0.00  0.00     0.170 C 
ATOM     19  C   UNK d   1     -38.085 -67.174  47.200  0.00  0.00     0.066 C 
ENDROOT
BRANCH  13  20
ATOM     20  C   UNK d   1     -41.183 -64.837  51.655  0.00  0.00     0.104 C 
BRANCH  20  21
ATOM     21  C   UNK d   1     -42.638 -65.028  51.510  0.00  0.00     0.029 C 
BRANCH  21  22
ATOM     22  C   UNK d   1     -43.559 -64.404  52.473  0.00  0.00     0.137 C 
BRANCH  22  23
ATOM     23  N   UNK d   1     -44.642 -65.139  53.010  0.00  0.00    -0.269 N 
ATOM     24  C   UNK d   1     -44.656 -65.784  54.271  0.00  0.00     0.325 C 
ATOM     25  O   UNK d   1     -43.742 -65.826  55.146  0.00  0.00    -0.247 OA
ATOM     26  N   UNK d   1     -45.923 -66.405  54.407  0.00  0.00    -0.334 N 
ATOM     27  C   UNK d   1     -46.830 -65.843  53.409  0.00  0.00     0.227 C 
ATOM     28  H   UNK d   1     -46.202 -67.139  55.087  0.00  0.00     0.164 HD
ATOM     29  C   UNK d   1     -45.887 -65.363  52.377  0.00  0.00     0.245 C 
ATOM     30  O   UNK d   1     -46.174 -65.190  51.138  0.00  0.00    -0.271 OA
ENDBRANCH  22  23
ENDBRANCH  21  22
ENDBRANCH  20  21
ENDBRANCH  13  20
TORSDOF 4
ENDMDL
