/Users/jonathanwahrer/Desktop/Msc/3_Semester/Drug_Design_Praktikum/waehrer_HTS_screening/HTS_experiment/out/docking_results/vina_output/3e7o/2386_docked.pdbqt
 OpenBabel03192217093D

 30 33  0  0  0  0  0  0  0  0999 V2000
  -39.2690  -70.6530   53.2080 Cl  0  0  0  0  0  0  0  0  0  0  0  0
  -38.6990  -69.4400   52.0670 C   0  0  0  0  0  0  0  0  0  0  0  0
  -39.6650  -68.6700   51.4230 C   0  0  0  0  0  3  0  0  0  0  0  0
  -39.2350  -67.7170   50.5280 C   0  0  0  0  0  0  0  0  0  0  0  0
  -37.8790  -67.5410   50.2870 C   0  0  0  0  0  0  0  0  0  0  0  0
  -36.9220  -68.3140   50.9330 C   0  0  0  0  0  3  0  0  0  0  0  0
  -37.3550  -69.2720   51.8320 C   0  0  0  0  0  3  0  0  0  0  0  0
  -37.3690  -66.6060   49.4030 O   0  0  0  0  0  0  0  0  0  0  0  0
  -37.9390  -66.0580   48.2460 C   0  0  0  0  0  0  0  0  0  0  0  0
  -39.2100  -65.3120   48.4330 C   0  0  0  0  0  2  0  0  0  0  0  0
  -39.9830  -65.6400   49.5870 N   0  0  0  0  0  0  0  0  0  0  0  0
  -40.4030  -67.0000   49.9480 C   0  0  0  0  0  2  0  0  0  0  0  0
  -40.3950  -64.5930   50.4570 C   0  0  0  0  0  0  0  0  0  0  0  0
  -40.0520  -63.4300   50.1460 O   0  0  0  0  0  0  0  0  0  0  0  0
  -36.9020  -65.1130   47.6090 C   0  0  0  0  0  2  0  0  0  0  0  0
  -35.6190  -65.8930   47.5130 C   0  0  0  0  0  2  0  0  0  0  0  0
  -35.7740  -67.2200   47.8740 O   0  0  0  0  0  0  0  0  0  0  0  0
  -36.7420  -67.8680   47.1280 C   0  0  0  0  0  2  0  0  0  0  0  0
  -38.0850  -67.1740   47.2000 C   0  0  0  0  0  2  0  0  0  0  0  0
  -41.1830  -64.8370   51.6550 C   0  0  0  0  0  2  0  0  0  0  0  0
  -42.6380  -65.0280   51.5100 C   0  0  0  0  0  2  0  0  0  0  0  0
  -43.5590  -64.4040   52.4730 C   0  0  0  0  0  2  0  0  0  0  0  0
  -44.6420  -65.1390   53.0100 N   0  0  0  0  0  0  0  0  0  0  0  0
  -44.6560  -65.7840   54.2710 C   0  0  0  0  0  0  0  0  0  0  0  0
  -43.7420  -65.8260   55.1460 O   0  0  0  0  0  0  0  0  0  0  0  0
  -45.9230  -66.4050   54.4070 N   0  0  0  0  0  0  0  0  0  0  0  0
  -46.8300  -65.8430   53.4090 C   0  0  0  0  0  2  0  0  0  0  0  0
  -46.2020  -67.1390   55.0870 H   0  0  0  0  0  0  0  0  0  0  0  0
  -45.8870  -65.3630   52.3770 C   0  0  0  0  0  0  0  0  0  0  0  0
  -46.1740  -65.1900   51.1380 O   0  0  0  0  0  0  0  0  0  0  0  0
  2  1  1  0  0  0  0
  3  2  2  0  0  0  0
  4  3  1  0  0  0  0
  5  4  2  0  0  0  0
  5  6  1  0  0  0  0
  6  7  2  0  0  0  0
  7  2  1  0  0  0  0
  8  5  1  0  0  0  0
  9 10  1  0  0  0  0
  9  8  1  0  0  0  0
 10 11  1  0  0  0  0
 11 12  1  0  0  0  0
 11 13  1  0  0  0  0
 12  4  1  0  0  0  0
 13 20  1  0  0  0  0
 14 13  2  0  0  0  0
 15  9  1  0  0  0  0
 16 15  1  0  0  0  0
 16 17  1  0  0  0  0
 18 19  1  0  0  0  0
 18 17  1  0  0  0  0
 19  9  1  0  0  0  0
 21 20  1  0  0  0  0
 21 22  1  0  0  0  0
 22 23  1  0  0  0  0
 23 24  1  0  0  0  0
 24 26  1  0  0  0  0
 24 25  2  0  0  0  0
 26 28  1  0  0  0  0
 27 26  1  0  0  0  0
 29 23  1  0  0  0  0
 29 27  1  0  0  0  0
 30 29  2  0  0  0  0
M  END
>  <Pose>
1

>  <Score>
-8.525

$$$$
