MODEL 1
REMARK VINA RESULT:    -7.601      0.000      0.000
REMARK INTER + INTRA:         -11.486
REMARK INTER:                 -10.267
REMARK INTRA:                  -1.219
REMARK UNBOUND:                -1.219
REMARK  6 active torsions:
REMARK  status: ('A' for Active; 'I' for Inactive)
REMARK    1  A    between atoms: C_5  and  C_8 
REMARK    2  A    between atoms: N_9  and  C_28 
REMARK    3  A    between atoms: C_15  and  C_17 
REMARK    4  A    between atoms: C_25  and  O_26 
REMARK    5  A    between atoms: C_28  and  C_29 
REMARK    6  A    between atoms: C_29  and  N_30 
ROOT
ATOM      1  C   UNK d   1     -38.561 -64.718  48.164  0.00  0.00     0.161 C 
ATOM      2  N   UNK d   1     -39.012 -63.400  47.831  0.00  0.00    -0.331 N 
ATOM      3  C   UNK d   1     -39.768 -62.846  48.897  0.00  0.00     0.295 C 
ATOM      4  O   UNK d   1     -40.182 -61.676  49.081  0.00  0.00    -0.264 OA
ATOM      5  C   UNK d   1     -40.044 -63.922  49.876  0.00  0.00     0.251 C 
ATOM      6  O   UNK d   1     -40.686 -63.818  50.951  0.00  0.00    -0.282 OA
ATOM      7  C   UNK d   1     -39.413 -65.105  49.322  0.00  0.00     0.064 C 
ATOM      8  C   UNK d   1     -39.592 -66.330  49.832  0.00  0.00     0.153 C 
ATOM      9  O   UNK d   1     -38.873 -67.339  49.177  0.00  0.00    -0.188 OA
ENDROOT
BRANCH   1  10
ATOM     10  C   UNK d   1     -37.130 -64.846  48.383  0.00  0.00    -0.030 A 
ATOM     11  C   UNK d   1     -36.354 -65.500  47.444  0.00  0.00     0.011 A 
ATOM     12  C   UNK d   1     -35.006 -65.668  47.554  0.00  0.00     0.019 A 
ATOM     13  C   UNK d   1     -34.352 -65.173  48.645  0.00  0.00     0.011 A 
ATOM     14 Br   UNK d   1     -32.461 -65.435  48.752  0.00  0.00    -0.051 Br
ATOM     15  C   UNK d   1     -35.067 -64.512  49.616  0.00  0.00     0.019 A 
ATOM     16  C   UNK d   1     -36.445 -64.357  49.475  0.00  0.00     0.011 A 
ENDBRANCH   1  10
BRANCH   8  17
ATOM     17  C   UNK d   1     -40.462 -66.610  50.969  0.00  0.00     0.114 A 
ATOM     18  O   UNK d   1     -41.708 -66.349  51.162  0.00  0.00    -0.304 OA
ATOM     19  C   UNK d   1     -42.174 -66.742  52.310  0.00  0.00     0.119 A 
ATOM     20  C   UNK d   1     -41.134 -67.347  53.000  0.00  0.00     0.003 A 
ATOM     21  C   UNK d   1     -43.416 -66.672  52.916  0.00  0.00     0.102 A 
ATOM     22  C   UNK d   1     -40.053 -67.250  52.122  0.00  0.00     0.054 A 
ATOM     23  C   UNK d   1     -41.355 -67.858  54.257  0.00  0.00     0.014 A 
ATOM     24  C   UNK d   1     -42.597 -67.776  54.842  0.00  0.00     0.004 A 
ATOM     25  C   UNK d   1     -43.645 -67.172  54.159  0.00  0.00     0.040 A 
BRANCH  21  26
ATOM     26  O   UNK d   1     -44.435 -66.066  52.211  0.00  0.00    -0.353 OA
ATOM     27  C   UNK d   1     -44.676 -64.666  52.184  0.00  0.00     0.210 C 
ENDBRANCH  21  26
ENDBRANCH   8  17
BRANCH   2  28
ATOM     28  C   UNK d   1     -38.755 -62.704  46.601  0.00  0.00     0.155 C 
BRANCH  28  29
ATOM     29  C   UNK d   1     -37.751 -61.582  46.794  0.00  0.00     0.254 C 
BRANCH  29  30
ATOM     30  N   UNK d   1     -36.564 -61.741  46.027  0.00  0.00    -0.077 N 
ATOM     31  C   UNK d   1     -35.355 -61.918  46.773  0.00  0.00     0.269 C 
ATOM     32  C   UNK d   1     -36.718 -62.802  45.041  0.00  0.00     0.269 C 
ATOM     33  H   UNK d   1     -36.433 -60.848  45.463  0.00  0.00     0.279 HD
ENDBRANCH  29  30
ENDBRANCH  28  29
ENDBRANCH   2  28
TORSDOF 6
ENDMDL
