MODEL 1
REMARK VINA RESULT:    -8.324      0.000      0.000
REMARK INTER + INTRA:          -9.883
REMARK INTER:                  -9.297
REMARK INTRA:                  -0.586
REMARK UNBOUND:                -0.586
REMARK  2 active torsions:
REMARK  status: ('A' for Active; 'I' for Inactive)
REMARK    1  A    between atoms: C_7  and  C_11 
REMARK    2  A    between atoms: C_11  and  N_12 
ROOT
ATOM      1  N   UNK d   1     -44.951 -65.890  53.496  0.00  0.00    -0.328 N 
ATOM      2  C   UNK d   1     -45.393 -65.246  52.406  0.00  0.00     0.151 A 
ATOM      3  C   UNK d   1     -46.572 -65.815  51.937  0.00  0.00     0.167 A 
ATOM      4  N   UNK d   1     -46.832 -66.835  52.788  0.00  0.00    -0.223 NA
ATOM      5  C   UNK d   1     -45.872 -66.883  53.715  0.00  0.00     0.213 A 
ATOM      6  N   UNK d   1     -47.234 -65.368  50.850  0.00  0.00    -0.286 N 
ATOM      7  C   UNK d   1     -46.691 -64.314  50.212  0.00  0.00     0.332 A 
ATOM      8  O   UNK d   1     -47.297 -63.883  49.193  0.00  0.00    -0.246 OA
ATOM      9  N   UNK d   1     -45.555 -63.730  50.622  0.00  0.00    -0.269 N 
ATOM     10  C   UNK d   1     -44.891 -64.174  51.709  0.00  0.00     0.282 A 
ATOM     11  O   UNK d   1     -43.834 -63.645  52.104  0.00  0.00    -0.265 OA
ATOM     12  C   UNK d   1     -44.973 -62.593  49.930  0.00  0.00     0.164 C 
ATOM     13  C   UNK d   1     -48.462 -66.006  50.414  0.00  0.00     0.163 C 
ENDROOT
BRANCH   1  14
ATOM     14  C   UNK d   1     -43.790 -65.640  54.327  0.00  0.00     0.189 C 
BRANCH  14  15
ATOM     15  C   UNK d   1     -42.621 -66.500  53.944  0.00  0.00     0.060 A 
ATOM     16  N   UNK d   1     -42.052 -66.322  52.738  0.00  0.00    -0.233 NA
ATOM     17  C   UNK d   1     -40.981 -67.073  52.347  0.00  0.00     0.137 A 
ATOM     18  N   UNK d   1     -40.465 -68.011  53.156  0.00  0.00    -0.272 N 
ATOM     19  C   UNK d   1     -40.434 -66.849  51.094  0.00  0.00     0.052 A 
ATOM     20  C   UNK d   1     -39.407 -68.753  52.769  0.00  0.00     0.121 A 
ATOM     21  C   UNK d   1     -40.997 -68.238  54.392  0.00  0.00     0.255 A 
ATOM     22  C   UNK d   1     -38.860 -68.539  51.533  0.00  0.00     0.027 A 
ATOM     23 Br   UNK d   1     -37.366 -69.602  51.016  0.00  0.00    -0.050 Br
ATOM     24  C   UNK d   1     -39.357 -67.589  50.671  0.00  0.00     0.024 A 
ATOM     25  C   UNK d   1     -42.077 -67.465  54.756  0.00  0.00     0.103 A 
ATOM     26  O   UNK d   1     -40.489 -69.115  55.108  0.00  0.00    -0.268 OA
ENDBRANCH  14  15
ENDBRANCH   1  14
TORSDOF 2
ENDMDL
