MODEL 1
REMARK VINA RESULT:    -9.249      0.000      0.000
REMARK INTER + INTRA:         -12.248
REMARK INTER:                 -11.411
REMARK INTRA:                  -0.836
REMARK UNBOUND:                -0.836
REMARK  4 active torsions:
REMARK  status: ('A' for Active; 'I' for Inactive)
REMARK    1  A    between atoms: S_1  and  N_4 
REMARK    2  A    between atoms: S_1  and  C_26 
REMARK       I    between atoms: N_7  and  C_10 
REMARK    3  A    between atoms: C_10  and  C_12 
REMARK    4  A    between atoms: C_12  and  C_13 
ROOT
ATOM      1  N   UNK d   1     -37.411 -63.820  47.861  0.00  0.00    -0.304 N 
ATOM      2  C   UNK d   1     -38.477 -63.059  47.392  0.00  0.00     0.155 C 
ATOM      3  C   UNK d   1     -39.778 -63.850  47.584  0.00  0.00     0.146 C 
ATOM      4  N   UNK d   1     -39.748 -64.530  48.880  0.00  0.00    -0.349 N 
ATOM      5  C   UNK d   1     -38.639 -65.439  49.097  0.00  0.00     0.146 C 
ATOM      6  C   UNK d   1     -37.654 -65.200  47.944  0.00  0.00     0.155 C 
ATOM      7  C   UNK d   1     -40.755 -64.273  49.851  0.00  0.00     0.222 C 
ATOM      8  O   UNK d   1     -41.650 -63.449  49.550  0.00  0.00    -0.273 OA
ENDROOT
BRANCH   7   9
ATOM      9  C   UNK d   1     -40.734 -64.948  51.148  0.00  0.00     0.138 C 
BRANCH   9  10
ATOM     10  C   UNK d   1     -41.744 -66.079  51.276  0.00  0.00     0.186 C 
ATOM     11  N   UNK d   1     -42.229 -66.268  52.618  0.00  0.00    -0.343 N 
ATOM     12  C   UNK d   1     -42.035 -67.306  53.569  0.00  0.00     0.254 C 
ATOM     13  H   UNK d   1     -42.861 -65.506  53.018  0.00  0.00     0.163 HD
ATOM     14  O   UNK d   1     -42.857 -67.459  54.511  0.00  0.00    -0.268 OA
ATOM     15  C   UNK d   1     -40.933 -68.291  53.600  0.00  0.00     0.058 A 
ATOM     16  C   UNK d   1     -40.164 -68.723  52.514  0.00  0.00     0.050 A 
ATOM     17  C   UNK d   1     -40.668 -68.797  54.847  0.00  0.00     0.019 A 
ATOM     18  C   UNK d   1     -39.170 -69.638  52.715  0.00  0.00     0.030 A 
ATOM     19  N   UNK d   1     -40.310 -68.295  51.168  0.00  0.00    -0.324 N 
ATOM     20  C   UNK d   1     -38.879 -70.170  53.972  0.00  0.00     0.002 A 
ATOM     21  C   UNK d   1     -39.662 -69.719  55.035  0.00  0.00     0.001 A 
ATOM     22  C   UNK d   1     -41.195 -67.299  50.646  0.00  0.00     0.245 C 
ATOM     23  H   UNK d   1     -39.699 -68.762  50.499  0.00  0.00     0.169 HD
ATOM     24  O   UNK d   1     -41.542 -67.542  49.437  0.00  0.00    -0.271 OA
ENDBRANCH   9  10
ENDBRANCH   7   9
BRANCH   1  25
ATOM     25  S   UNK d   1     -35.879 -63.205  48.006  0.00  0.00     0.260 S 
ATOM     26  O   UNK d   1     -35.488 -62.549  46.695  0.00  0.00    -0.200 OA
ATOM     27  O   UNK d   1     -35.742 -62.123  49.056  0.00  0.00    -0.200 OA
BRANCH  25  28
ATOM     28  C   UNK d   1     -34.644 -64.426  48.335  0.00  0.00     0.079 A 
ATOM     29  C   UNK d   1     -34.467 -64.951  49.595  0.00  0.00     0.027 A 
ATOM     30  C   UNK d   1     -33.488 -65.897  49.803  0.00  0.00     0.025 A 
ATOM     31  C   UNK d   1     -32.657 -66.361  48.801  0.00  0.00     0.034 A 
ATOM     32  C   UNK d   1     -32.838 -65.830  47.530  0.00  0.00     0.025 A 
ATOM     33 Cl   UNK d   1     -31.424 -67.553  49.054  0.00  0.00    -0.084 Cl
ATOM     34  C   UNK d   1     -33.817 -64.884  47.327  0.00  0.00     0.027 A 
ENDBRANCH  25  28
ENDBRANCH   1  25
TORSDOF 4
ENDMDL
