/Users/jonathanwahrer/Desktop/Msc/3_Semester/Drug_Design_Praktikum/waehrer_HTS_screening/HTS_experiment/out/docking_results/vina_output/3e7o/2420_docked.pdbqt
 OpenBabel03192217113D

 29 32  0  0  1  0  0  0  0  0999 V2000
  -40.5390  -68.3800   53.0310 N   0  0  0  0  0  0  0  0  0  0  0  0
  -40.4330  -69.5680   52.1860 C   0  0  0  0  0  2  0  0  0  0  0  0
  -39.1180  -70.1760   52.6200 C   0  0  2  0  0  3  0  0  0  0  0  0
  -39.1820  -70.0310   54.1360 C   0  0  0  0  0  2  0  0  0  0  0  0
  -40.0440  -68.8080   54.3030 C   0  0  0  0  0  0  0  0  0  0  0  0
  -40.3000  -68.2340   55.4040 O   0  0  0  0  0  0  0  0  0  0  0  0
  -37.9580  -69.4290   52.0800 C   0  0  0  0  0  0  0  0  0  0  0  0
  -36.8770  -69.4690   52.7200 O   0  0  0  0  0  0  0  0  0  0  0  0
  -38.0240  -68.6790   50.8840 N   0  0  0  0  0  0  0  0  0  0  0  0
  -38.9460  -68.6670   50.3770 H   0  0  0  0  0  0  0  0  0  0  0  0
  -36.9000  -67.9510   50.3540 C   0  0  0  0  0  2  0  0  0  0  0  0
  -37.0280  -67.8500   48.8480 C   0  0  0  0  0  2  0  0  0  0  0  0
  -37.1890  -66.4930   48.3880 N   0  0  0  0  0  0  0  0  0  0  0  0
  -38.4100  -66.4440   47.5910 C   0  0  0  0  0  2  0  0  0  0  0  0
  -39.6260  -66.2630   48.4960 C   0  0  0  0  0  2  0  0  0  0  0  0
  -39.6540  -65.0290   49.1040 O   0  0  0  0  0  0  0  0  0  0  0  0
  -38.3820  -64.5070   49.1440 C   0  0  0  0  0  2  0  0  0  0  0  0
  -37.3420  -65.5570   49.4780 C   0  0  0  0  0  2  0  0  0  0  0  0
  -41.0280  -67.1020   52.6580 C   0  0  0  0  0  0  0  0  0  0  0  0
  -40.4020  -66.0680   52.0810 N   0  0  0  0  0  0  0  0  0  0  0  0
  -41.2400  -65.0560   51.9120 N   0  0  0  0  0  0  0  0  0  0  0  0
  -42.4720  -65.4010   52.3830 C   0  0  0  0  0  0  0  0  0  0  0  0
  -41.0850  -64.1040   51.4960 H   0  0  0  0  0  0  0  0  0  0  0  0
  -43.6820  -64.7800   52.4690 C   0  0  0  0  0  3  0  0  0  0  0  0
  -42.3400  -66.6860   52.8510 C   0  0  0  0  0  0  0  0  0  0  0  0
  -44.7790  -65.4090   53.0150 C   0  0  0  0  0  0  0  0  0  0  0  0
  -46.4580  -64.5210   53.1240 Br  0  0  0  0  0  0  0  0  0  0  0  0
  -44.6510  -66.7140   53.4930 C   0  0  0  0  0  3  0  0  0  0  0  0
  -43.4300  -67.3430   53.4070 C   0  0  0  0  0  3  0  0  0  0  0  0
  1  5  1  0  0  0  0
  2  3  1  0  0  0  0
  2  1  1  0  0  0  0
  3  7  1  6  0  0  0
  3  4  1  0  0  0  0
  4  5  1  0  0  0  0
  5  6  2  0  0  0  0
  7  8  2  0  0  0  0
  9  7  1  0  0  0  0
 10  9  1  0  0  0  0
 11  9  1  0  0  0  0
 12 11  1  0  0  0  0
 13 12  1  0  0  0  0
 13 18  1  0  0  0  0
 14 13  1  0  0  0  0
 14 15  1  0  0  0  0
 15 16  1  0  0  0  0
 16 17  1  0  0  0  0
 17 18  1  0  0  0  0
 19 25  1  0  0  0  0
 19  1  1  0  0  0  0
 20 19  2  0  0  0  0
 21 20  1  0  0  0  0
 21 22  1  0  0  0  0
 22 24  2  0  0  0  0
 22 25  1  0  0  0  0
 23 21  1  0  0  0  0
 24 26  1  0  0  0  0
 25 29  2  0  0  0  0
 26 27  1  0  0  0  0
 26 28  2  0  0  0  0
 29 28  1  0  0  0  0
M  END
>  <Pose>
1

>  <Score>
-7.451

$$$$
