MODEL 1
REMARK VINA RESULT:    -7.451      0.000      0.000
REMARK INTER + INTRA:         -11.112
REMARK INTER:                  -9.629
REMARK INTRA:                  -1.483
REMARK UNBOUND:                -1.483
REMARK  5 active torsions:
REMARK  status: ('A' for Active; 'I' for Inactive)
REMARK    1  A    between atoms: C_7  and  N_11 
REMARK    2  A    between atoms: C_13  and  C_17 
REMARK       I    between atoms: C_17  and  N_19 
REMARK    3  A    between atoms: N_19  and  C_20 
REMARK    4  A    between atoms: C_20  and  C_21 
REMARK    5  A    between atoms: C_21  and  N_22 
ROOT
ATOM      1  N   UNK d   1     -40.539 -68.380  53.031  0.00  0.00    -0.299 N 
ATOM      2  C   UNK d   1     -40.433 -69.568  52.186  0.00  0.00     0.148 C 
ATOM      3  C   UNK d   1     -39.118 -70.176  52.620  0.00  0.00     0.105 C 
ATOM      4  C   UNK d   1     -39.182 -70.031  54.136  0.00  0.00     0.119 C 
ATOM      5  C   UNK d   1     -40.044 -68.808  54.303  0.00  0.00     0.226 C 
ATOM      6  O   UNK d   1     -40.300 -68.234  55.404  0.00  0.00    -0.273 OA
ENDROOT
BRANCH   3   7
ATOM      7  C   UNK d   1     -37.958 -69.429  52.080  0.00  0.00     0.223 C 
ATOM      8  O   UNK d   1     -36.877 -69.469  52.720  0.00  0.00    -0.273 OA
ATOM      9  N   UNK d   1     -38.024 -68.679  50.884  0.00  0.00    -0.359 N 
ATOM     10  H   UNK d   1     -38.946 -68.667  50.377  0.00  0.00     0.162 HD
BRANCH   9  11
ATOM     11  C   UNK d   1     -36.900 -67.951  50.354  0.00  0.00     0.152 C 
BRANCH  11  12
ATOM     12  C   UNK d   1     -37.028 -67.850  48.848  0.00  0.00     0.292 C 
BRANCH  12  13
ATOM     13  N   UNK d   1     -37.189 -66.493  48.388  0.00  0.00     0.094 N 
ATOM     14  C   UNK d   1     -38.410 -66.444  47.591  0.00  0.00     0.298 C 
ATOM     15  C   UNK d   1     -39.626 -66.263  48.496  0.00  0.00     0.198 C 
ATOM     16  O   UNK d   1     -39.654 -65.029  49.104  0.00  0.00    -0.388 OA
ATOM     17  C   UNK d   1     -38.382 -64.507  49.144  0.00  0.00     0.198 C 
ATOM     18  C   UNK d   1     -37.342 -65.557  49.478  0.00  0.00     0.298 C 
ENDBRANCH  12  13
ENDBRANCH  11  12
ENDBRANCH   9  11
ENDBRANCH   3   7
BRANCH   1  19
ATOM     19  C   UNK d   1     -41.028 -67.102  52.658  0.00  0.00     0.165 A 
ATOM     20  N   UNK d   1     -40.402 -66.068  52.081  0.00  0.00    -0.155 NA
ATOM     21  N   UNK d   1     -41.240 -65.056  51.912  0.00  0.00    -0.275 N 
ATOM     22  C   UNK d   1     -42.472 -65.401  52.383  0.00  0.00     0.065 A 
ATOM     23  H   UNK d   1     -41.085 -64.104  51.496  0.00  0.00     0.189 HD
ATOM     24  C   UNK d   1     -43.682 -64.780  52.469  0.00  0.00     0.051 A 
ATOM     25  C   UNK d   1     -42.340 -66.686  52.851  0.00  0.00     0.040 A 
ATOM     26  C   UNK d   1     -44.779 -65.409  53.015  0.00  0.00     0.013 A 
ATOM     27 Br   UNK d   1     -46.458 -64.521  53.124  0.00  0.00    -0.051 Br
ATOM     28  C   UNK d   1     -44.651 -66.714  53.493  0.00  0.00     0.020 A 
ATOM     29  C   UNK d   1     -43.430 -67.343  53.407  0.00  0.00     0.019 A 
ENDBRANCH   1  19
TORSDOF 5
ENDMDL
