MODEL 1
REMARK VINA RESULT:    -7.432      0.000      0.000
REMARK INTER + INTRA:          -9.115
REMARK INTER:                  -8.301
REMARK INTRA:                  -0.814
REMARK UNBOUND:                -0.814
REMARK  2 active torsions:
REMARK  status: ('A' for Active; 'I' for Inactive)
REMARK    1  A    between atoms: C_4  and  C_8 
REMARK       I    between atoms: C_8  and  N_10 
REMARK    2  A    between atoms: N_13  and  C_16 
ROOT
ATOM      1  C   UNK d   1     -40.888 -66.577  49.962  0.00  0.00     0.204 C 
ATOM      2  O   UNK d   1     -41.309 -67.635  49.293  0.00  0.00    -0.170 OA
ATOM      3  N   UNK d   1     -40.104 -65.668  49.271  0.00  0.00    -0.355 N 
ATOM      4  C   UNK d   1     -39.767 -65.978  47.860  0.00  0.00     0.145 C 
ATOM      5  C   UNK d   1     -38.266 -66.079  47.805  0.00  0.00     0.144 C 
ATOM      6  N   UNK d   1     -37.598 -65.720  49.016  0.00  0.00    -0.362 N 
ATOM      7  C   UNK d   1     -38.082 -64.717  49.952  0.00  0.00     0.144 C 
ATOM      8  C   UNK d   1     -39.556 -64.436  49.704  0.00  0.00     0.145 C 
ENDROOT
BRANCH   1   9
ATOM      9  C   UNK d   1     -41.344 -66.579  51.328  0.00  0.00     0.089 A 
ATOM     10  N   UNK d   1     -42.308 -65.882  51.932  0.00  0.00    -0.342 N 
ATOM     11  C   UNK d   1     -42.421 -66.210  53.249  0.00  0.00     0.126 A 
ATOM     12  H   UNK d   1     -42.941 -65.154  51.546  0.00  0.00     0.167 HD
ATOM     13 Cl   UNK d   1     -43.536 -65.567  54.437  0.00  0.00    -0.063 Cl
ATOM     14  C   UNK d   1     -41.487 -67.169  53.533  0.00  0.00     0.074 A 
ATOM     15  C   UNK d   1     -40.828 -67.391  52.347  0.00  0.00     0.061 A 
ATOM     16 Cl   UNK d   1     -41.210 -67.934  55.083  0.00  0.00    -0.081 Cl
ENDBRANCH   1   9
BRANCH   6  17
ATOM     17  C   UNK d   1     -36.379 -66.362  49.367  0.00  0.00     0.142 A 
ATOM     18  N   UNK d   1     -35.193 -65.883  48.946  0.00  0.00    -0.224 NA
ATOM     19  C   UNK d   1     -34.023 -66.483  49.269  0.00  0.00     0.237 A 
ATOM     20  N   UNK d   1     -34.015 -67.589  50.032  0.00  0.00    -0.222 NA
ATOM     21  C   UNK d   1     -35.154 -68.130  50.492  0.00  0.00     0.162 A 
ATOM     22  N   UNK d   1     -35.414 -69.206  51.257  0.00  0.00    -0.256 N 
ATOM     23  C   UNK d   1     -36.355 -67.497  50.149  0.00  0.00     0.076 A 
ATOM     24  N   UNK d   1     -36.722 -69.272  51.403  0.00  0.00    -0.182 NA
ATOM     25  C   UNK d   1     -34.454 -70.149  51.833  0.00  0.00     0.182 C 
ATOM     26  C   UNK d   1     -37.328 -68.254  50.747  0.00  0.00     0.158 A 
ENDBRANCH   6  17
TORSDOF 2
ENDMDL
