MODEL 1
REMARK VINA RESULT:    -7.656      0.000      0.000
REMARK INTER + INTRA:         -11.723
REMARK INTER:                  -9.894
REMARK INTRA:                  -1.829
REMARK UNBOUND:                -1.829
REMARK  5 active torsions:
REMARK  status: ('A' for Active; 'I' for Inactive)
REMARK    1  A    between atoms: C_5  and  C_8 
REMARK    2  A    between atoms: N_15  and  C_16 
REMARK    3  A    between atoms: C_16  and  C_17 
REMARK    4  A    between atoms: C_17  and  C_18 
REMARK    5  A    between atoms: C_18  and  N_19 
ROOT
ATOM      1  C   UNK d   1     -37.213 -67.670  49.430  0.00  0.00     0.078 A 
ATOM      2  C   UNK d   1     -37.120 -68.561  50.515  0.00  0.00     0.146 A 
ATOM      3  N   UNK d   1     -38.235 -68.483  51.237  0.00  0.00    -0.153 N 
ATOM      4  C   UNK d   1     -38.839 -68.986  52.345  0.00  0.00     0.083 A 
ATOM      5  C   UNK d   1     -40.041 -68.373  52.445  0.00  0.00     0.077 A 
ATOM      6  N   UNK d   1     -40.140 -67.524  51.411  0.00  0.00    -0.189 N 
ATOM      7  C   UNK d   1     -39.024 -67.582  50.649  0.00  0.00     0.692 A 
ATOM      8  N   UNK d   1     -38.408 -67.071  49.533  0.00  0.00    -0.180 N 
ATOM      9  C   UNK d   1     -40.903 -68.676  53.484  0.00  0.00     0.032 A 
ATOM     10  C   UNK d   1     -40.551 -69.611  54.444  0.00  0.00     0.002 A 
ATOM     11  C   UNK d   1     -39.318 -70.241  54.341  0.00  0.00     0.002 A 
ATOM     12  C   UNK d   1     -38.487 -69.915  53.293  0.00  0.00     0.033 A 
ATOM     13  H   UNK d   1     -40.958 -66.891  51.216  0.00  0.00     0.184 HD
ENDROOT
BRANCH   8  14
ATOM     14  C   UNK d   1     -38.982 -66.069  48.698  0.00  0.00     0.149 C 
BRANCH  14  15
ATOM     15  C   UNK d   1     -38.939 -64.664  49.243  0.00  0.00     0.048 C 
BRANCH  15  16
ATOM     16  C   UNK d   1     -37.619 -64.103  49.532  0.00  0.00     0.236 C 
BRANCH  16  17
ATOM     17  N   UNK d   1     -37.181 -62.926  48.842  0.00  0.00    -0.071 N 
ATOM     18  C   UNK d   1     -35.735 -62.799  48.822  0.00  0.00     0.235 C 
ATOM     19  C   UNK d   1     -35.038 -63.458  47.708  0.00  0.00     0.028 C 
ATOM     20  C   UNK d   1     -35.879 -63.947  46.588  0.00  0.00     0.003 C 
ATOM     21  C   UNK d   1     -37.056 -63.063  46.372  0.00  0.00     0.028 C 
ATOM     22  C   UNK d   1     -37.811 -62.687  47.592  0.00  0.00     0.235 C 
ATOM     23  H   UNK d   1     -37.458 -62.138  49.470  0.00  0.00     0.279 HD
ENDBRANCH  16  17
ENDBRANCH  15  16
ENDBRANCH  14  15
ENDBRANCH   8  14
BRANCH   1  24
ATOM     24  C   UNK d   1     -36.121 -67.515  48.463  0.00  0.00    -0.007 A 
ATOM     25  C   UNK d   1     -34.900 -67.018  48.919  0.00  0.00     0.015 A 
ATOM     26  C   UNK d   1     -33.796 -66.838  48.110  0.00  0.00     0.020 A 
ATOM     27  C   UNK d   1     -33.858 -67.152  46.783  0.00  0.00     0.011 A 
ATOM     28 Br   UNK d   1     -32.368 -66.923  45.632  0.00  0.00    -0.051 Br
ATOM     29  C   UNK d   1     -35.041 -67.643  46.305  0.00  0.00     0.020 A 
ATOM     30  C   UNK d   1     -36.171 -67.824  47.139  0.00  0.00     0.015 A 
ENDBRANCH   1  24
TORSDOF 5
ENDMDL
