/Users/jonathanwahrer/Desktop/Msc/3_Semester/Drug_Design_Praktikum/waehrer_HTS_screening/HTS_experiment/out/docking_results/vina_output/3e7o/2439_docked.pdbqt
 OpenBabel03192217113D

 30 34  0  0  1  0  0  0  0  0999 V2000
  -37.2130  -67.6700   49.4300 C   0  0  0  0  0  0  0  0  0  0  0  0
  -37.1200  -68.5610   50.5150 C   0  0  0  0  0  3  0  0  0  0  0  0
  -38.2350  -68.4830   51.2370 N   0  0  0  0  0  0  0  0  0  0  0  0
  -38.8390  -68.9860   52.3450 C   0  0  0  0  0  0  0  0  0  0  0  0
  -40.0410  -68.3730   52.4450 C   0  0  0  0  0  0  0  0  0  0  0  0
  -40.1400  -67.5240   51.4110 N   0  0  0  0  0  0  0  0  0  0  0  0
  -39.0240  -67.5820   50.6490 C   0  0  1  0  0  3  0  0  0  0  0  0
  -38.4080  -67.0710   49.5330 N   0  0  0  0  0  0  0  0  0  0  0  0
  -40.9030  -68.6760   53.4840 C   0  0  0  0  0  3  0  0  0  0  0  0
  -40.5510  -69.6110   54.4440 C   0  0  0  0  0  3  0  0  0  0  0  0
  -39.3180  -70.2410   54.3410 C   0  0  0  0  0  3  0  0  0  0  0  0
  -38.4870  -69.9150   53.2930 C   0  0  0  0  0  3  0  0  0  0  0  0
  -40.9580  -66.8910   51.2160 H   0  0  0  0  0  0  0  0  0  0  0  0
  -38.9820  -66.0690   48.6980 C   0  0  0  0  0  2  0  0  0  0  0  0
  -38.9390  -64.6640   49.2430 C   0  0  0  0  0  2  0  0  0  0  0  0
  -37.6190  -64.1030   49.5320 C   0  0  0  0  0  2  0  0  0  0  0  0
  -37.1810  -62.9260   48.8420 N   0  0  0  0  0  4  0  0  0  0  0  0
  -35.7350  -62.7990   48.8220 C   0  0  0  0  0  3  0  0  0  0  0  0
  -35.0380  -63.4580   47.7080 C   0  0  0  0  0  3  0  0  0  0  0  0
  -35.8790  -63.9470   46.5880 C   0  0  0  0  0  2  0  0  0  0  0  0
  -37.0560  -63.0630   46.3720 C   0  0  0  0  0  3  0  0  0  0  0  0
  -37.8110  -62.6870   47.5920 C   0  0  0  0  0  3  0  0  0  0  0  0
  -37.4580  -62.1380   49.4700 H   0  0  0  0  0  0  0  0  0  0  0  0
  -36.1210  -67.5150   48.4630 C   0  0  0  0  0  0  0  0  0  0  0  0
  -34.9000  -67.0180   48.9190 C   0  0  0  0  0  3  0  0  0  0  0  0
  -33.7960  -66.8380   48.1100 C   0  0  0  0  0  3  0  0  0  0  0  0
  -33.8580  -67.1520   46.7830 C   0  0  0  0  0  0  0  0  0  0  0  0
  -32.3680  -66.9230   45.6320 Br  0  0  0  0  0  0  0  0  0  0  0  0
  -35.0410  -67.6430   46.3050 C   0  0  0  0  0  3  0  0  0  0  0  0
  -36.1710  -67.8240   47.1390 C   0  0  0  0  0  3  0  0  0  0  0  0
  1  8  1  0  0  0  0
  1  2  2  0  0  0  0
  2  3  1  0  0  0  0
  3  4  1  0  0  0  0
  4  5  2  0  0  0  0
  4 12  1  0  0  0  0
  5  9  1  0  0  0  0
  6  5  1  0  0  0  0
  7  8  1  1  0  0  0
  7  3  1  0  0  0  0
  7  6  1  0  0  0  0
  9 10  2  0  0  0  0
 11 10  1  0  0  0  0
 12 11  2  0  0  0  0
 13  6  1  0  0  0  0
 14 15  1  0  0  0  0
 14  8  1  0  0  0  0
 15 16  1  0  0  0  0
 17 23  1  0  0  0  0
 17 16  1  0  0  0  0
 18 17  1  0  0  0  0
 19 18  2  0  0  0  0
 20 19  1  0  0  0  0
 21 20  1  0  0  0  0
 21 22  2  0  0  0  0
 22 17  1  0  0  0  0
 24 25  1  0  0  0  0
 24  1  1  0  0  0  0
 26 25  2  0  0  0  0
 27 26  1  0  0  0  0
 28 27  1  0  0  0  0
 29 27  2  0  0  0  0
 29 30  1  0  0  0  0
 30 24  2  0  0  0  0
M  END
>  <Pose>
1

>  <Score>
-7.656

$$$$
