/Users/jonathanwahrer/Desktop/Msc/3_Semester/Drug_Design_Praktikum/waehrer_HTS_screening/HTS_experiment/out/docking_results/vina_output/3e7o/2440_docked.pdbqt
 OpenBabel03192217113D

 33 36  0  0  1  0  0  0  0  0999 V2000
  -31.4260  -67.2030   45.9010 Cl  0  0  0  0  0  0  0  0  0  0  0  0
  -32.2250  -65.9930   46.9010 C   0  0  0  0  0  0  0  0  0  0  0  0
  -33.5860  -66.1900   47.1800 C   0  0  0  0  0  0  0  0  0  0  0  0
  -34.2030  -65.2480   47.9570 C   0  0  0  0  0  0  0  0  0  0  0  0
  -33.5010  -64.1290   48.4540 C   0  0  0  0  0  3  0  0  0  0  0  0
  -32.1700  -63.9470   48.1740 C   0  0  0  0  0  3  0  0  0  0  0  0
  -31.5540  -64.9000   47.3910 C   0  0  0  0  0  3  0  0  0  0  0  0
  -35.6040  -65.6550   48.1310 C   0  0  2  0  0  0  0  0  0  0  0  0
  -36.5560  -64.6540   47.8050 N   0  0  0  0  0  0  0  0  0  0  0  0
  -37.7290  -64.7970   48.5480 C   0  0  1  0  0  3  0  0  0  0  0  0
  -37.3510  -65.6880   49.7110 C   0  0  2  0  0  3  0  0  0  0  0  0
  -35.8910  -65.9800   49.5960 C   0  0  1  0  0  3  0  0  0  0  0  0
  -35.6950  -67.4220   49.8990 C   0  0  0  0  0  0  0  0  0  0  0  0
  -34.5730  -67.9730   49.9930 O   0  0  0  0  0  0  0  0  0  0  0  0
  -36.9850  -68.0170   50.0530 N   0  0  0  0  0  0  0  0  0  0  0  0
  -37.9430  -67.0410   49.6180 C   0  0  0  0  0  0  0  0  0  0  0  0
  -39.0900  -67.3110   49.2280 O   0  0  0  0  0  0  0  0  0  0  0  0
  -35.7500  -66.8900   47.3560 C   0  0  0  0  0  0  0  0  0  0  0  0
  -36.7870  -67.6010   47.1760 O   0  0  0  0  0  0  0  0  0  0  0  0
  -34.4940  -67.2130   46.7900 N   0  0  0  0  0  0  0  0  0  0  0  0
  -36.6430  -64.4210   46.8020 H   0  0  0  0  0  0  0  0  0  0  0  0
  -34.2330  -68.0340   46.1950 H   0  0  0  0  0  0  0  0  0  0  0  0
  -38.4800  -63.5900   48.9560 C   0  0  0  0  0  2  0  0  0  0  0  0
  -39.9500  -63.5990   48.8210 C   0  0  0  0  0  2  0  0  0  0  0  0
  -40.7230  -64.2730   49.8700 C   0  0  0  0  0  0  0  0  0  0  0  0
  -40.7310  -63.8320   51.0340 O   0  0  0  0  0  0  0  0  0  0  0  0
  -41.4970  -65.4460   49.6270 N   0  0  0  0  0  0  0  0  0  0  0  0
  -42.3530  -65.4560   49.0460 H   0  0  0  0  0  0  0  0  0  0  0  0
  -41.1890  -66.3370   50.0520 H   0  0  0  0  0  0  0  0  0  0  0  0
  -37.3010  -69.3220   50.5470 C   0  0  0  0  0  2  0  0  0  0  0  0
  -37.5320  -69.4280   52.0120 C   0  0  0  0  0  2  0  0  0  0  0  0
  -38.9130  -69.7720   52.4450 C   0  0  0  0  0  2  0  0  0  0  0  0
  -38.9570  -70.2000   53.9080 C   0  0  0  0  0  1  0  0  0  0  0  0
  1  2  1  0  0  0  0
  2  3  2  0  0  0  0
  2  7  1  0  0  0  0
  3  4  1  0  0  0  0
  4  8  1  0  0  0  0
  4  5  2  0  0  0  0
  6  5  1  0  0  0  0
  7  6  2  0  0  0  0
  8 18  1  6  0  0  0
  8 12  1  0  0  0  0
  9  8  1  0  0  0  0
  9 10  1  0  0  0  0
 10 23  1  1  0  0  0
 10 11  1  0  0  0  0
 11 16  1  6  0  0  0
 12 11  1  0  0  0  0
 12 13  1  6  0  0  0
 13 14  2  0  0  0  0
 13 15  1  0  0  0  0
 15 30  1  0  0  0  0
 16 15  1  0  0  0  0
 17 16  2  0  0  0  0
 19 18  2  0  0  0  0
 20  3  1  0  0  0  0
 20 18  1  0  0  0  0
 21  9  1  0  0  0  0
 22 20  1  0  0  0  0
 24 23  1  0  0  0  0
 24 25  1  0  0  0  0
 25 26  2  0  0  0  0
 27 25  1  0  0  0  0
 27 29  1  0  0  0  0
 28 27  1  0  0  0  0
 30 31  1  0  0  0  0
 31 32  1  0  0  0  0
 32 33  1  0  0  0  0
M  END
>  <Pose>
1

>  <Score>
-6.880

$$$$
