MODEL 1
REMARK VINA RESULT:    -6.880      0.000      0.000
REMARK INTER + INTRA:         -10.355
REMARK INTER:                  -9.293
REMARK INTRA:                  -1.062
REMARK UNBOUND:                -1.062
REMARK  6 active torsions:
REMARK  status: ('A' for Active; 'I' for Inactive)
REMARK    1  A    between atoms: C_10  and  C_22 
REMARK    2  A    between atoms: N_15  and  C_18 
REMARK    3  A    between atoms: C_18  and  C_19 
REMARK    4  A    between atoms: C_19  and  C_20 
REMARK    5  A    between atoms: C_22  and  C_23 
REMARK    6  A    between atoms: C_23  and  C_24 
REMARK       I    between atoms: C_24  and  N_26 
ROOT
ATOM      1 Cl   UNK d   1     -31.426 -67.203  45.901  0.00  0.00    -0.082 Cl
ATOM      2  C   UNK d   1     -32.225 -65.993  46.901  0.00  0.00     0.061 A 
ATOM      3  C   UNK d   1     -33.586 -66.190  47.180  0.00  0.00     0.066 A 
ATOM      4  C   UNK d   1     -34.203 -65.248  47.957  0.00  0.00     0.008 A 
ATOM      5  C   UNK d   1     -33.501 -64.129  48.454  0.00  0.00     0.012 A 
ATOM      6  C   UNK d   1     -32.170 -63.947  48.174  0.00  0.00     0.002 A 
ATOM      7  C   UNK d   1     -31.554 -64.900  47.391  0.00  0.00     0.026 A 
ATOM      8  C   UNK d   1     -35.604 -65.655  48.131  0.00  0.00     0.151 A 
ATOM      9  N   UNK d   1     -36.556 -64.654  47.805  0.00  0.00    -0.395 N 
ATOM     10  C   UNK d   1     -37.729 -64.797  48.548  0.00  0.00     0.092 C 
ATOM     11  C   UNK d   1     -37.351 -65.688  49.711  0.00  0.00     0.117 C 
ATOM     12  C   UNK d   1     -35.891 -65.980  49.596  0.00  0.00     0.135 C 
ATOM     13  C   UNK d   1     -35.695 -67.422  49.899  0.00  0.00     0.234 C 
ATOM     14  O   UNK d   1     -34.573 -67.973  49.993  0.00  0.00    -0.272 OA
ATOM     15  N   UNK d   1     -36.985 -68.017  50.053  0.00  0.00    -0.288 N 
ATOM     16  C   UNK d   1     -37.943 -67.041  49.618  0.00  0.00     0.233 C 
ATOM     17  O   UNK d   1     -39.090 -67.311  49.228  0.00  0.00    -0.272 OA
ATOM     18  C   UNK d   1     -35.750 -66.890  47.356  0.00  0.00     0.256 A 
ATOM     19  O   UNK d   1     -36.787 -67.601  47.176  0.00  0.00    -0.270 OA
ATOM     20  N   UNK d   1     -34.494 -67.213  46.790  0.00  0.00    -0.323 N 
ATOM     21  H   UNK d   1     -36.643 -64.421  46.802  0.00  0.00     0.155 HD
ATOM     22  H   UNK d   1     -34.233 -68.034  46.195  0.00  0.00     0.169 HD
ENDROOT
BRANCH  10  23
ATOM     23  C   UNK d   1     -38.480 -63.590  48.956  0.00  0.00     0.035 C 
BRANCH  23  24
ATOM     24  C   UNK d   1     -39.950 -63.599  48.821  0.00  0.00     0.104 C 
BRANCH  24  25
ATOM     25  C   UNK d   1     -40.723 -64.273  49.870  0.00  0.00     0.215 C 
ATOM     26  O   UNK d   1     -40.731 -63.832  51.034  0.00  0.00    -0.274 OA
ATOM     27  N   UNK d   1     -41.497 -65.446  49.627  0.00  0.00    -0.370 N 
ATOM     28  H   UNK d   1     -42.353 -65.456  49.046  0.00  0.00     0.159 HD
ATOM     29  H   UNK d   1     -41.189 -66.337  50.052  0.00  0.00     0.159 HD
ENDBRANCH  24  25
ENDBRANCH  23  24
ENDBRANCH  10  23
BRANCH  15  30
ATOM     30  C   UNK d   1     -37.301 -69.322  50.547  0.00  0.00     0.135 C 
BRANCH  30  31
ATOM     31  C   UNK d   1     -37.532 -69.428  52.012  0.00  0.00     0.020 C 
BRANCH  31  32
ATOM     32  C   UNK d   1     -38.913 -69.772  52.445  0.00  0.00    -0.003 C 
ATOM     33  C   UNK d   1     -38.957 -70.200  53.908  0.00  0.00     0.005 C 
ENDBRANCH  31  32
ENDBRANCH  30  31
ENDBRANCH  15  30
TORSDOF 6
ENDMDL
