
 OpenBabel03202209423D

 50 53  0  0  0  0  0  0  0  0999 V2000
  -49.7470  -68.5120   57.1330 B   0  0  0  0  0  0  0  0  0  0  0  0
  -49.4170  -68.4790   55.2680 C   0  0  0  0  0  0  0  0  0  0  0  0
  -50.1630  -69.2540   54.4290 C   0  0  0  0  0  0  0  0  0  0  0  0
  -49.8970  -69.2090   53.0630 C   0  0  0  0  0  0  0  0  0  0  0  0
  -48.8840  -68.3820   52.5870 C   0  0  0  0  0  0  0  0  0  0  0  0
  -48.1300  -67.6020   53.4220 C   0  0  0  0  0  0  0  0  0  0  0  0
  -48.4050  -67.6570   54.7710 C   0  0  0  0  0  0  0  0  0  0  0  0
  -47.6360  -66.8620   55.6070 O   0  0  0  0  0  0  0  0  0  0  0  0
  -47.0750  -66.7440   52.9050 C   0  0  0  0  0  0  0  0  0  0  0  0
  -45.9850  -66.4960   53.5390 N   0  0  0  0  0  0  0  0  0  0  0  0
  -45.0050  -65.6350   52.9360 N   0  0  0  0  0  0  0  0  0  0  0  0
  -43.7370  -65.6280   53.5010 C   0  0  0  0  0  0  0  0  0  0  0  0
  -43.2280  -64.4720   53.7590 O   0  0  0  0  0  0  0  0  0  0  0  0
  -42.8840  -66.7490   53.8460 C   0  0  0  0  0  0  0  0  0  0  0  0
  -43.0800  -67.5940   54.9100 N   0  0  0  0  0  0  0  0  0  0  0  0
  -42.1360  -68.4930   54.9290 N   0  0  0  0  0  0  0  0  0  0  0  0
  -41.2850  -68.3220   53.9310 N   0  0  0  0  0  0  0  0  0  0  0  0
  -41.7250  -67.2530   53.2460 C   0  0  0  0  0  0  0  0  0  0  0  0
  -41.0990  -66.6430   52.0690 C   0  0  0  0  0  0  0  0  0  0  0  0
  -41.9620  -66.5910   50.8850 N   0  0  0  0  0  0  0  0  0  0  0  0
  -41.2100  -67.1290   49.7340 C   0  0  0  0  0  0  0  0  0  0  0  0
  -39.8500  -66.5260   49.6940 C   0  0  0  0  0  0  0  0  0  0  0  0
  -39.9510  -65.1560   49.7050 O   0  0  0  0  0  0  0  0  0  0  0  0
  -41.2260  -64.6810   49.5440 C   0  0  0  0  0  0  0  0  0  0  0  0
  -42.2180  -65.1660   50.5680 C   0  0  0  0  0  0  0  0  0  0  0  0
  -40.1410  -69.1290   53.7170 C   0  0  0  0  0  0  0  0  0  0  0  0
  -39.1310  -68.9680   52.8350 N   0  0  0  0  0  0  0  0  0  0  0  0
  -38.2650  -69.9360   52.9730 O   0  0  0  0  0  0  0  0  0  0  0  0
  -38.6450  -70.7560   53.9190 N   0  0  0  0  0  0  0  0  0  0  0  0
  -39.8060  -70.2860   54.4040 C   0  0  0  0  0  0  0  0  0  0  0  0
  -40.5380  -70.8970   55.4440 N   0  0  0  0  0  0  0  0  0  0  0  0
  -50.9160  -70.2730   51.8700 B   0  0  0  0  0  0  0  0  0  0  0  0
  -51.1780  -70.0840   54.8830 O   0  0  0  0  0  0  0  0  0  0  0  0
  -48.6790  -68.3480   51.5370 H   0  0  0  0  0  0  0  0  0  0  0  0
  -46.6260  -66.8980   55.5570 H   0  0  0  0  0  0  0  0  0  0  0  0
  -47.1960  -66.2780   51.9300 H   0  0  0  0  0  0  0  0  0  0  0  0
  -45.3380  -65.0780   52.1140 H   0  0  0  0  0  0  0  0  0  0  0  0
  -40.1950  -67.1760   51.7660 H   0  0  0  0  0  0  0  0  0  0  0  0
  -40.8560  -65.5940   52.2830 H   0  0  0  0  0  0  0  0  0  0  0  0
  -41.1960  -68.2290   49.7540 H   0  0  0  0  0  0  0  0  0  0  0  0
  -41.7730  -66.8160   48.8350 H   0  0  0  0  0  0  0  0  0  0  0  0
  -39.1970  -66.8500   50.5220 H   0  0  0  0  0  0  0  0  0  0  0  0
  -39.3780  -66.7980   48.7050 H   0  0  0  0  0  0  0  0  0  0  0  0
  -41.1590  -63.5610   49.6890 H   0  0  0  0  0  0  0  0  0  0  0  0
  -41.5770  -64.8290   48.5010 H   0  0  0  0  0  0  0  0  0  0  0  0
  -43.2080  -65.1150   50.0960 H   0  0  0  0  0  0  0  0  0  0  0  0
  -42.1690  -64.5300   51.4460 H   0  0  0  0  0  0  0  0  0  0  0  0
  -40.8400  -70.3190   56.2500 H   0  0  0  0  0  0  0  0  0  0  0  0
  -40.7880  -71.9020   55.4360 H   0  0  0  0  0  0  0  0  0  0  0  0
  -51.8290  -69.7730   55.5850 H   0  0  0  0  0  0  0  0  0  0  0  0
  2  1  1  0  0  0  0
  3 33  1  0  0  0  0
  3  2  2  0  0  0  0
  4  3  1  0  0  0  0
  5  4  2  0  0  0  0
  5  6  1  0  0  0  0
  6  7  2  0  0  0  0
  7  2  1  0  0  0  0
  7  8  1  0  0  0  0
  9  6  1  0  0  0  0
  9 10  2  0  0  0  0
 11 12  1  0  0  0  0
 11 10  1  0  0  0  0
 12 13  2  0  0  0  0
 12 14  1  0  0  0  0
 14 15  1  0  0  0  0
 15 16  2  0  0  0  0
 17 16  1  0  0  0  0
 18 14  2  0  0  0  0
 18 17  1  0  0  0  0
 19 39  1  0  0  0  0
 19 18  1  0  0  0  0
 20 19  1  0  0  0  0
 21 40  1  0  0  0  0
 21 20  1  0  0  0  0
 22 23  1  0  0  0  0
 22 21  1  0  0  0  0
 22 42  1  0  0  0  0
 24 44  1  0  0  0  0
 24 23  1  0  0  0  0
 24 25  1  0  0  0  0
 25 20  1  0  0  0  0
 25 47  1  0  0  0  0
 26 17  1  0  0  0  0
 26 30  1  0  0  0  0
 27 28  1  0  0  0  0
 27 26  2  0  0  0  0
 28 29  1  0  0  0  0
 29 30  2  0  0  0  0
 30 31  1  0  0  0  0
 31 48  1  0  0  0  0
 32  4  1  0  0  0  0
 33 50  1  0  0  0  0
 34  5  1  0  0  0  0
 35  8  1  0  0  0  0
 36  9  1  0  0  0  0
 37 11  1  0  0  0  0
 38 19  1  0  0  0  0
 41 21  1  0  0  0  0
 43 22  1  0  0  0  0
 45 24  1  0  0  0  0
 46 25  1  0  0  0  0
 49 31  1  0  0  0  0
M  END
>  <Pose>
1

>  <Score>
-8.02

$$$$
