
 OpenBabel03162216053D

 50 53  0  0  0  0  0  0  0  0999 V2000
  -45.5680  -65.8410   54.0960 B   0  0  0  0  0  0  0  0  0  0  0  0
  -43.7780  -66.2890   53.6660 C   0  0  0  0  0  0  0  0  0  0  0  0
  -43.1630  -67.3290   54.3000 C   0  0  0  0  0  0  0  0  0  0  0  0
  -41.8470  -67.6340   53.9630 C   0  0  0  0  0  0  0  0  0  0  0  0
  -41.1920  -66.8770   52.9970 C   0  0  0  0  0  0  0  0  0  0  0  0
  -41.8010  -65.8310   52.3570 C   0  0  0  0  0  0  0  0  0  0  0  0
  -43.1030  -65.5410   52.7000 C   0  0  0  0  0  0  0  0  0  0  0  0
  -43.7100  -64.4800   52.0460 O   0  0  0  0  0  0  0  0  0  0  0  0
  -41.0980  -65.0510   51.3500 C   0  0  0  0  0  0  0  0  0  0  0  0
  -39.9350  -64.5340   51.5330 N   0  0  0  0  0  0  0  0  0  0  0  0
  -39.3280  -63.7820   50.4710 N   0  0  0  0  0  0  0  0  0  0  0  0
  -39.1140  -64.4430   49.2690 C   0  0  0  0  0  0  0  0  0  0  0  0
  -39.8570  -64.0900   48.2780 O   0  0  0  0  0  0  0  0  0  0  0  0
  -38.1600  -65.4910   48.9610 C   0  0  0  0  0  0  0  0  0  0  0  0
  -38.3170  -66.8190   49.2680 N   0  0  0  0  0  0  0  0  0  0  0  0
  -37.2790  -67.4870   48.8460 N   0  0  0  0  0  0  0  0  0  0  0  0
  -36.4010  -66.6930   48.2570 N   0  0  0  0  0  0  0  0  0  0  0  0
  -36.9210  -65.4550   48.3130 C   0  0  0  0  0  0  0  0  0  0  0  0
  -36.3040  -64.2190   47.8220 C   0  0  0  0  0  0  0  0  0  0  0  0
  -35.5660  -63.4670   48.8400 N   0  0  0  0  0  0  0  0  0  0  0  0
  -35.8210  -62.0270   48.6350 C   0  0  0  0  0  0  0  0  0  0  0  0
  -35.6620  -61.6880   47.1940 C   0  0  0  0  0  0  0  0  0  0  0  0
  -34.4300  -62.1060   46.7530 O   0  0  0  0  0  0  0  0  0  0  0  0
  -33.5880  -62.5300   47.7470 C   0  0  0  0  0  0  0  0  0  0  0  0
  -34.1180  -63.6590   48.5910 C   0  0  0  0  0  0  0  0  0  0  0  0
  -35.1620  -67.1340   47.7290 C   0  0  0  0  0  0  0  0  0  0  0  0
  -33.9820  -67.3230   48.3560 N   0  0  0  0  0  0  0  0  0  0  0  0
  -33.0900  -67.7500   47.5010 O   0  0  0  0  0  0  0  0  0  0  0  0
  -33.6180  -67.8600   46.3090 N   0  0  0  0  0  0  0  0  0  0  0  0
  -34.9040  -67.4870   46.4130 C   0  0  0  0  0  0  0  0  0  0  0  0
  -35.8160  -67.4680   45.3360 N   0  0  0  0  0  0  0  0  0  0  0  0
  -40.9650  -69.0740   54.8240 B   0  0  0  0  0  0  0  0  0  0  0  0
  -43.7990  -68.0970   55.2650 O   0  0  0  0  0  0  0  0  0  0  0  0
  -40.1790  -67.1110   52.7390 H   0  0  0  0  0  0  0  0  0  0  0  0
  -44.3640  -64.6540   51.2930 H   0  0  0  0  0  0  0  0  0  0  0  0
  -41.5650  -64.8840   50.3820 H   0  0  0  0  0  0  0  0  0  0  0  0
  -39.0930  -62.7870   50.7000 H   0  0  0  0  0  0  0  0  0  0  0  0
  -37.0450  -63.5300   47.4080 H   0  0  0  0  0  0  0  0  0  0  0  0
  -35.5560  -64.4600   47.0560 H   0  0  0  0  0  0  0  0  0  0  0  0
  -36.8020  -61.7400   49.0420 H   0  0  0  0  0  0  0  0  0  0  0  0
  -35.0460  -61.4990   49.2200 H   0  0  0  0  0  0  0  0  0  0  0  0
  -36.4460  -62.1190   46.5480 H   0  0  0  0  0  0  0  0  0  0  0  0
  -35.6630  -60.5620   47.0990 H   0  0  0  0  0  0  0  0  0  0  0  0
  -32.6740  -62.9440   47.2220 H   0  0  0  0  0  0  0  0  0  0  0  0
  -33.2250  -61.6740   48.3540 H   0  0  0  0  0  0  0  0  0  0  0  0
  -33.6130  -63.5900   49.5640 H   0  0  0  0  0  0  0  0  0  0  0  0
  -33.9020  -64.6050   48.1040 H   0  0  0  0  0  0  0  0  0  0  0  0
  -36.2180  -66.5610   45.0360 H   0  0  0  0  0  0  0  0  0  0  0  0
  -36.1010  -68.3260   44.8300 H   0  0  0  0  0  0  0  0  0  0  0  0
  -44.7640  -67.9380   55.5020 H   0  0  0  0  0  0  0  0  0  0  0  0
  2  1  1  0  0  0  0
  2  3  1  0  0  0  0
  3 33  1  0  0  0  0
  4  3  2  0  0  0  0
  4 32  1  0  0  0  0
  5  4  1  0  0  0  0
  6  7  1  0  0  0  0
  6  5  2  0  0  0  0
  7  2  2  0  0  0  0
  8  7  1  0  0  0  0
  9 10  2  0  0  0  0
  9  6  1  0  0  0  0
 11 37  1  0  0  0  0
 11 10  1  0  0  0  0
 12 11  1  0  0  0  0
 13 12  2  0  0  0  0
 14 15  1  0  0  0  0
 14 12  1  0  0  0  0
 16 15  2  0  0  0  0
 17 18  1  0  0  0  0
 17 16  1  0  0  0  0
 18 14  2  0  0  0  0
 19 18  1  0  0  0  0
 19 20  1  0  0  0  0
 21 20  1  0  0  0  0
 21 40  1  0  0  0  0
 21 41  1  0  0  0  0
 22 21  1  0  0  0  0
 23 22  1  0  0  0  0
 23 24  1  0  0  0  0
 24 45  1  0  0  0  0
 24 25  1  0  0  0  0
 25 20  1  0  0  0  0
 25 46  1  0  0  0  0
 26 17  1  0  0  0  0
 26 27  2  0  0  0  0
 28 27  1  0  0  0  0
 29 30  2  0  0  0  0
 29 28  1  0  0  0  0
 30 26  1  0  0  0  0
 31 30  1  0  0  0  0
 33 50  1  0  0  0  0
 34  5  1  0  0  0  0
 35  8  1  0  0  0  0
 36  9  1  0  0  0  0
 38 19  1  0  0  0  0
 39 19  1  0  0  0  0
 42 22  1  0  0  0  0
 43 22  1  0  0  0  0
 44 24  1  0  0  0  0
 47 25  1  0  0  0  0
 48 31  1  0  0  0  0
 49 31  1  0  0  0  0
M  END
>  <Pose>
1

>  <Score>
-9.20

$$$$
