
 OpenBabel03202209423D

 52 55  0  0  0  0  0  0  0  0999 V2000
  -39.0640  -70.5810   54.2580 B   0  0  0  0  0  0  0  0  0  0  0  0
  -40.0790  -69.1420   53.5170 C   0  0  0  0  0  0  0  0  0  0  0  0
  -39.5840  -68.5230   52.3860 C   0  0  0  0  0  0  0  0  0  0  0  0
  -40.3120  -67.4850   51.8480 C   0  0  0  0  0  0  0  0  0  0  0  0
  -41.5040  -67.0690   52.4140 C   0  0  0  0  0  0  0  0  0  0  0  0
  -42.0050  -67.6790   53.5400 C   0  0  0  0  0  0  0  0  0  0  0  0
  -41.2740  -68.7180   54.0780 C   0  0  0  0  0  0  0  0  0  0  0  0
  -41.7570  -69.3430   55.2030 O   0  0  0  0  0  0  0  0  0  0  0  0
  -43.2590  -67.2210   54.1150 C   0  0  0  0  0  0  0  0  0  0  0  0
  -44.3860  -67.7790   53.9100 N   0  0  0  0  0  0  0  0  0  0  0  0
  -45.5890  -67.3170   54.4790 N   0  0  0  0  0  0  0  0  0  0  0  0
  -46.7000  -67.0560   53.6310 C   0  0  0  0  0  0  0  0  0  0  0  0
  -47.8710  -67.6540   53.8340 N   0  0  0  0  0  4  0  0  0  0  0  0
  -48.9590  -67.4290   53.0420 C   0  0  0  0  0  0  0  0  0  0  0  0
  -48.7880  -66.5690   52.0410 N   0  0  0  0  0  0  0  0  0  0  0  0
  -47.6350  -65.9200   51.7630 C   0  0  0  0  0  0  0  0  0  0  0  0
  -46.5960  -66.2020   52.6050 N   0  0  0  0  0  0  0  0  0  0  0  0
  -47.5000  -65.0180   50.6920 N   0  0  0  0  0  0  0  0  0  0  0  0
  -46.8310  -63.7670   50.8670 C   0  0  0  0  0  0  0  0  0  0  0  0
  -47.7630  -62.6770   50.3310 C   0  0  0  0  0  0  0  0  0  0  0  0
  -48.9740  -63.1900   49.9200 O   0  0  0  0  0  0  0  0  0  0  0  0
  -48.8830  -64.1610   48.9540 C   0  0  0  0  0  0  0  0  0  0  0  0
  -48.0350  -65.3440   49.4060 C   0  0  0  0  0  0  0  0  0  0  0  0
  -50.1930  -68.0740   53.2740 N   0  0  0  0  0  0  0  0  0  0  0  0
  -50.6190  -68.3630   54.6150 C   0  0  0  0  0  0  0  0  0  0  0  0
  -51.1010  -69.8050   54.6340 C   0  0  0  0  0  0  0  0  0  0  0  0
  -51.9490  -70.0840   53.5690 O   0  0  0  0  0  0  0  0  0  0  0  0
  -51.3520  -69.9320   52.3380 C   0  0  0  0  0  0  0  0  0  0  0  0
  -51.0270  -68.4430   52.1660 C   0  0  0  0  0  0  0  0  0  0  0  0
  -39.6350  -66.6180   50.2800 B   0  0  0  0  0  0  0  0  0  0  0  0
  -38.3820  -68.9550   51.8290 O   0  0  0  0  0  0  0  0  0  0  0  0
  -42.0690  -66.2410   51.9720 H   0  0  0  0  0  0  0  0  0  0  0  0
  -41.1720  -69.9990   55.7290 H   0  0  0  0  0  0  0  0  0  0  0  0
  -43.2400  -66.3540   54.7540 H   0  0  0  0  0  0  0  0  0  0  0  0
  -45.5970  -67.1930   55.4970 H   0  0  0  0  0  0  0  0  0  0  0  0
  -45.9390  -63.7600   50.1970 H   0  0  0  0  0  0  0  0  0  0  0  0
  -46.5600  -63.5900   51.9230 H   0  0  0  0  0  0  0  0  0  0  0  0
  -47.2830  -62.0650   49.5610 H   0  0  0  0  0  0  0  0  0  0  0  0
  -47.9760  -61.9940   51.1930 H   0  0  0  0  0  0  0  0  0  0  0  0
  -48.5250  -63.7640   47.9800 H   0  0  0  0  0  0  0  0  0  0  0  0
  -49.9050  -64.5550   48.7730 H   0  0  0  0  0  0  0  0  0  0  0  0
  -48.6240  -66.2820   49.4500 H   0  0  0  0  0  0  0  0  0  0  0  0
  -47.2550  -65.5090   48.6340 H   0  0  0  0  0  0  0  0  0  0  0  0
  -49.7830  -68.3140   55.3600 H   0  0  0  0  0  0  0  0  0  0  0  0
  -51.4760  -67.7310   54.9230 H   0  0  0  0  0  0  0  0  0  0  0  0
  -50.2340  -70.4860   54.6620 H   0  0  0  0  0  0  0  0  0  0  0  0
  -51.6870  -69.9580   55.5660 H   0  0  0  0  0  0  0  0  0  0  0  0
  -50.3810  -70.4590   52.3360 H   0  0  0  0  0  0  0  0  0  0  0  0
  -52.0440  -70.2840   51.5660 H   0  0  0  0  0  0  0  0  0  0  0  0
  -52.0100  -67.9160   52.2940 H   0  0  0  0  0  0  0  0  0  0  0  0
  -50.5660  -68.2440   51.1860 H   0  0  0  0  0  0  0  0  0  0  0  0
  -37.5190  -68.7850   52.3190 H   0  0  0  0  0  0  0  0  0  0  0  0
  2  7  1  0  0  0  0
  2  1  1  0  0  0  0
  3  2  2  0  0  0  0
  4  3  1  0  0  0  0
  4  5  2  0  0  0  0
  5  6  1  0  0  0  0
  6  7  2  0  0  0  0
  6  9  1  0  0  0  0
  7  8  1  0  0  0  0
  8 33  1  0  0  0  0
  9 34  1  0  0  0  0
 10  9  2  0  0  0  0
 10 11  1  0  0  0  0
 11 35  1  0  0  0  0
 12 13  2  0  0  0  0
 12 11  1  0  0  0  0
 14 24  1  0  0  0  0
 14 13  2  0  0  0  0
 15 14  1  0  0  0  0
 16 15  2  0  0  0  0
 16 17  1  0  0  0  0
 17 12  1  0  0  0  0
 18 19  1  0  0  0  0
 18 16  1  0  0  0  0
 19 37  1  0  0  0  0
 20 19  1  0  0  0  0
 20 39  1  0  0  0  0
 21 20  1  0  0  0  0
 22 23  1  0  0  0  0
 22 21  1  0  0  0  0
 23 42  1  0  0  0  0
 23 18  1  0  0  0  0
 24 25  1  0  0  0  0
 25 26  1  0  0  0  0
 25 45  1  0  0  0  0
 25 44  1  0  0  0  0
 26 46  1  0  0  0  0
 26 47  1  0  0  0  0
 27 26  1  0  0  0  0
 28 27  1  0  0  0  0
 29 50  1  0  0  0  0
 29 28  1  0  0  0  0
 29 24  1  0  0  0  0
 30  4  1  0  0  0  0
 31 52  1  0  0  0  0
 31  3  1  0  0  0  0
 32  5  1  0  0  0  0
 36 19  1  0  0  0  0
 38 20  1  0  0  0  0
 40 22  1  0  0  0  0
 41 22  1  0  0  0  0
 43 23  1  0  0  0  0
 48 28  1  0  0  0  0
 49 28  1  0  0  0  0
 51 29  1  0  0  0  0
M  END
>  <Pose>
1

>  <Score>
-7.40

$$$$
