
 OpenBabel03202209423D

 60 63  0  0  1  0  0  0  0  0999 V2000
  -45.7550  -66.7020   53.8430 B   0  0  0  0  0  0  0  0  0  0  0  0
  -46.7770  -65.6050   52.6540 C   0  0  0  0  0  0  0  0  0  0  0  0
  -46.0830  -64.6640   51.8790 C   0  0  0  0  0  0  0  0  0  0  0  0
  -46.8220  -63.8930   51.0400 C   0  0  0  0  0  0  0  0  0  0  0  0
  -48.2140  -64.0170   50.9430 C   0  0  0  0  0  0  0  0  0  0  0  0
  -48.8710  -64.9470   51.7140 C   0  0  0  0  0  0  0  0  0  0  0  0
  -48.1390  -65.7410   52.5710 C   0  0  0  0  0  0  0  0  0  0  0  0
  -50.7580  -65.2070   51.6660 B   0  0  0  0  0  0  0  0  0  0  0  0
  -46.0070  -62.6080   49.9320 B   0  0  0  0  0  0  0  0  0  0  0  0
  -44.7400  -64.5740   52.0000 O   0  0  0  0  0  0  0  0  0  0  0  0
  -44.0140  -64.2730   53.1900 C   0  0  0  0  0  0  0  0  0  0  0  0
  -43.0790  -65.3600   53.5110 C   0  0  1  0  0  0  0  0  0  0  0  0
  -43.0450  -65.4470   54.9140 O   0  0  0  0  0  0  0  0  0  0  0  0
  -42.8900  -66.5720   52.7320 C   0  0  0  0  0  0  0  0  0  0  0  0
  -41.6430  -67.2460   52.6560 N   0  0  0  0  0  0  0  0  0  0  0  0
  -41.2150  -68.2230   53.4990 C   0  0  0  0  0  0  0  0  0  0  0  0
  -39.9660  -68.6380   53.1210 C   0  0  0  0  0  0  0  0  0  0  0  0
  -39.6610  -67.9090   52.0670 N   0  0  0  0  0  0  0  0  0  0  0  0
  -40.6630  -67.0420   51.7550 C   0  0  0  0  0  0  0  0  0  0  0  0
  -40.5260  -66.0550   50.7170 N   0  0  0  0  0  0  0  0  0  0  0  0
  -40.5050  -66.2690   49.3210 C   0  0  0  0  0  0  0  0  0  0  0  0
  -40.4310  -64.8780   48.6320 C   0  0  0  0  0  0  0  0  0  0  0  0
  -39.1690  -64.3180   49.0740 N   0  0  0  0  0  4  0  0  0  0  0  0
  -39.4840  -63.8060   50.4210 C   0  0  0  0  0  0  0  0  0  0  0  0
  -40.4400  -64.6570   51.1570 C   0  0  0  0  0  0  0  0  0  0  0  0
  -38.7430  -63.2230   48.2250 C   0  0  0  0  0  0  0  0  0  0  0  0
  -37.2310  -63.2060   48.1730 C   0  0  0  0  0  0  0  0  0  0  0  0
  -36.7480  -62.3940   49.2060 O   0  0  0  0  0  0  0  0  0  0  0  0
  -39.2430  -69.6020   53.7700 N   0  0  0  0  0  0  0  0  0  0  0  0
  -39.8160  -70.1570   54.8450 C   0  0  0  0  0  0  0  0  0  0  0  0
  -39.1470  -71.0470   55.4410 O   0  0  0  0  0  0  0  0  0  0  0  0
  -41.0410  -69.7810   55.2600 N   0  0  0  0  0  0  0  0  0  0  0  0
  -41.7610  -68.8380   54.6330 C   0  0  0  0  0  0  0  0  0  0  0  0
  -43.0080  -68.4680   55.0820 O   0  0  0  0  0  0  0  0  0  0  0  0
  -37.9250  -69.9710   53.2710 C   0  0  0  0  0  0  0  0  0  0  0  0
  -48.7740  -63.3960   50.2730 H   0  0  0  0  0  0  0  0  0  0  0  0
  -48.6270  -66.4950   53.2020 H   0  0  0  0  0  0  0  0  0  0  0  0
  -44.8370  -64.3300   53.9840 H   0  0  0  0  0  0  0  0  0  0  0  0
  -43.6680  -63.2520   53.2660 H   0  0  0  0  0  0  0  0  0  0  0  0
  -42.0040  -64.8010   53.3720 H   0  0  0  0  0  0  0  0  0  0  0  0
  -42.9970  -64.5690   55.3340 H   0  0  0  0  0  0  0  0  0  0  0  0
  -43.7580  -67.3050   52.8430 H   0  0  0  0  0  0  0  0  0  0  0  0
  -43.1430  -66.2250   51.6500 H   0  0  0  0  0  0  0  0  0  0  0  0
  -41.4710  -66.6610   48.9080 H   0  0  0  0  0  0  0  0  0  0  0  0
  -39.6090  -66.7690   48.9410 H   0  0  0  0  0  0  0  0  0  0  0  0
  -41.2780  -64.2470   48.9620 H   0  0  0  0  0  0  0  0  0  0  0  0
  -40.4080  -64.9650   47.5460 H   0  0  0  0  0  0  0  0  0  0  0  0
  -38.4200  -65.0280   49.2140 H   0  0  0  0  0  0  0  0  0  0  0  0
  -38.5930  -63.4710   50.9610 H   0  0  0  0  0  0  0  0  0  0  0  0
  -40.0400  -62.8420   50.1870 H   0  0  0  0  0  0  0  0  0  0  0  0
  -40.1730  -64.6440   52.2300 H   0  0  0  0  0  0  0  0  0  0  0  0
  -41.4950  -64.2920   51.1080 H   0  0  0  0  0  0  0  0  0  0  0  0
  -39.0660  -62.2350   48.6460 H   0  0  0  0  0  0  0  0  0  0  0  0
  -39.0980  -63.3380   47.1830 H   0  0  0  0  0  0  0  0  0  0  0  0
  -36.8170  -64.2210   48.3600 H   0  0  0  0  0  0  0  0  0  0  0  0
  -36.8510  -62.7910   47.1980 H   0  0  0  0  0  0  0  0  0  0  0  0
  -37.4350  -62.2810   49.9190 H   0  0  0  0  0  0  0  0  0  0  0  0
  -38.0840  -70.9530   52.7360 H   0  0  0  0  0  0  0  0  0  0  0  0
  -37.6480  -69.2660   52.4630 H   0  0  0  0  0  0  0  0  0  0  0  0
  -37.1690  -70.0950   54.0420 H   0  0  0  0  0  0  0  0  0  0  0  0
  2  1  1  0  0  0  0
  3 10  1  0  0  0  0
  3  2  2  0  0  0  0
  4  3  1  0  0  0  0
  5  4  2  0  0  0  0
  5  6  1  0  0  0  0
  6  7  2  0  0  0  0
  7  2  1  0  0  0  0
  7 37  1  0  0  0  0
  8  6  1  0  0  0  0
  9  4  1  0  0  0  0
 10 11  1  0  0  0  0
 11 39  1  0  0  0  0
 11 12  1  0  0  0  0
 11 38  1  0  0  0  0
 12 40  1  6  0  0  0
 12 13  1  0  0  0  0
 13 41  1  0  0  0  0
 14 42  1  0  0  0  0
 14 12  1  0  0  0  0
 15 14  1  0  0  0  0
 15 16  1  0  0  0  0
 16 33  1  0  0  0  0
 17 16  2  0  0  0  0
 17 29  1  0  0  0  0
 18 17  1  0  0  0  0
 19 18  2  0  0  0  0
 19 15  1  0  0  0  0
 20 25  1  0  0  0  0
 20 19  1  0  0  0  0
 21 20  1  0  0  0  0
 22 46  1  0  0  0  0
 22 23  1  0  0  0  0
 22 21  1  0  0  0  0
 23 48  1  0  0  0  0
 23 24  1  0  0  0  0
 24 49  1  0  0  0  0
 24 25  1  0  0  0  0
 25 51  1  0  0  0  0
 26 53  1  0  0  0  0
 26 23  1  0  0  0  0
 27 26  1  0  0  0  0
 27 55  1  0  0  0  0
 27 28  1  0  0  0  0
 28 57  1  0  0  0  0
 29 30  1  0  0  0  0
 30 32  1  0  0  0  0
 30 31  2  0  0  0  0
 33 34  2  0  0  0  0
 33 32  1  0  0  0  0
 35 29  1  0  0  0  0
 35 60  1  0  0  0  0
 36  5  1  0  0  0  0
 43 14  1  0  0  0  0
 44 21  1  0  0  0  0
 45 21  1  0  0  0  0
 47 22  1  0  0  0  0
 50 24  1  0  0  0  0
 52 25  1  0  0  0  0
 54 26  1  0  0  0  0
 56 27  1  0  0  0  0
 58 35  1  0  0  0  0
 59 35  1  0  0  0  0
M  END
>  <Pose>
1

>  <Score>
-8.67

$$$$
