
 OpenBabel03202209423D

 50 53  0  0  0  0  0  0  0  0999 V2000
  -36.4820  -67.4180   47.1270 B   0  0  0  0  0  0  0  0  0  0  0  0
  -36.6770  -65.6410   47.7630 C   0  0  0  0  0  0  0  0  0  0  0  0
  -35.6540  -64.7320   47.6110 C   0  0  0  0  0  0  0  0  0  0  0  0
  -35.8140  -63.4180   48.1130 C   0  0  0  0  0  0  0  0  0  0  0  0
  -36.9940  -63.1200   48.7320 C   0  0  0  0  0  0  0  0  0  0  0  0
  -38.0600  -64.0130   48.9110 C   0  0  0  0  0  0  0  0  0  0  0  0
  -37.8470  -65.2740   48.4000 C   0  0  0  0  0  0  0  0  0  0  0  0
  -39.2370  -63.5930   49.5890 C   0  0  0  0  0  0  0  0  0  0  0  0
  -40.1430  -64.1510   50.1030 N   0  0  0  0  0  0  0  0  0  0  0  0
  -41.0480  -64.8140   50.6160 N   0  0  0  0  0  0  0  0  0  0  0  0
  -42.0420  -65.5410   51.1830 C   0  0  0  0  0  0  0  0  0  0  0  0
  -42.8070  -66.4330   50.8230 O   0  0  0  0  0  0  0  0  0  0  0  0
  -42.2560  -65.1310   52.6570 C   0  0  0  0  0  0  0  0  0  0  0  0
  -43.1720  -65.9700   53.3120 N   0  0  0  0  0  0  0  0  0  0  0  0
  -44.5250  -65.6670   53.2870 C   0  0  0  0  0  0  0  0  0  0  0  0
  -45.1550  -66.6120   54.0060 C   0  0  0  0  0  0  0  0  0  0  0  0
  -44.2270  -67.4460   54.4490 N   0  0  0  0  0  0  0  0  0  0  0  0
  -42.9690  -67.0520   54.0150 C   0  0  0  0  0  0  0  0  0  0  0  0
  -41.8550  -67.8760   54.4480 C   0  0  0  0  0  0  0  0  0  0  0  0
  -41.8280  -68.4990   55.6940 N   0  0  0  0  0  0  0  0  0  0  0  0
  -40.7640  -69.1810   55.8300 O   0  0  0  0  0  0  0  0  0  0  0  0
  -40.0410  -69.0900   54.7870 N   0  0  0  0  0  0  0  0  0  0  0  0
  -40.6950  -68.2760   53.8900 C   0  0  0  0  0  0  0  0  0  0  0  0
  -40.1620  -67.9920   52.6150 N   0  0  0  0  0  4  0  0  0  0  0  0
  -46.5280  -66.6180   54.1960 C   0  0  0  0  0  0  0  0  0  0  0  0
  -47.2320  -65.5970   53.6050 C   0  0  0  0  0  0  0  0  0  0  0  0
  -46.6360  -64.6030   52.8530 C   0  0  0  0  0  0  0  0  0  0  0  0
  -45.2510  -64.6450   52.6960 C   0  0  0  0  0  0  0  0  0  0  0  0
  -34.7690  -62.5280   47.9480 O   0  0  0  0  0  0  0  0  0  0  0  0
  -34.4140  -62.0000   46.7170 C   0  0  0  0  0  0  0  0  0  0  0  0
  -35.4330  -61.1160   46.0560 C   0  0  0  0  0  0  0  0  0  0  0  0
  -34.4710  -65.0260   46.9970 O   0  0  0  0  0  0  0  0  0  0  0  0
  -37.1480  -62.1350   49.1340 H   0  0  0  0  0  0  0  0  0  0  0  0
  -38.6550  -66.0280   48.4920 H   0  0  0  0  0  0  0  0  0  0  0  0
  -39.4200  -62.4660   49.7140 H   0  0  0  0  0  0  0  0  0  0  0  0
  -40.5810  -64.5250   51.9110 H   0  0  0  0  0  0  0  0  0  0  0  0
  -42.7350  -64.0930   52.5910 H   0  0  0  0  0  0  0  0  0  0  0  0
  -41.2810  -65.0280   53.0940 H   0  0  0  0  0  0  0  0  0  0  0  0
  -39.7040  -67.0050   52.6520 H   0  0  0  0  0  0  0  0  0  0  0  0
  -40.9210  -67.8730   51.9330 H   0  0  0  0  0  0  0  0  0  0  0  0
  -39.3710  -68.5910   52.3930 H   0  0  0  0  0  0  0  0  0  0  0  0
  -46.9690  -67.4150   54.7850 H   0  0  0  0  0  0  0  0  0  0  0  0
  -48.3320  -65.5640   53.7300 H   0  0  0  0  0  0  0  0  0  0  0  0
  -47.2330  -63.8200   52.4130 H   0  0  0  0  0  0  0  0  0  0  0  0
  -44.7360  -63.9010   52.1190 H   0  0  0  0  0  0  0  0  0  0  0  0
  -33.4290  -61.4240   46.8160 H   0  0  0  0  0  0  0  0  0  0  0  0
  -34.1500  -62.8100   45.9710 H   0  0  0  0  0  0  0  0  0  0  0  0
  -35.6310  -61.4990   45.0440 H   0  0  0  0  0  0  0  0  0  0  0  0
  -36.3380  -61.0690   46.6490 H   0  0  0  0  0  0  0  0  0  0  0  0
  -34.9830  -60.0900   45.8820 H   0  0  0  0  0  0  0  0  0  0  0  0
  1  2  1  0  0  0  0
  2  7  1  0  0  0  0
  3  2  2  0  0  0  0
  3  4  1  0  0  0  0
  4  5  2  0  0  0  0
  5  6  1  0  0  0  0
  5 33  1  0  0  0  0
  6  8  1  0  0  0  0
  7 34  1  0  0  0  0
  7  6  2  0  0  0  0
  8 35  1  0  0  0  0
  8  9  1  0  0  0  0
  9 10  1  0  0  0  0
 10 11  1  0  0  0  0
 10 36  1  0  0  0  0
 11 13  1  0  0  0  0
 12 11  2  0  0  0  0
 13 38  1  0  0  0  0
 13 14  1  0  0  0  0
 14 18  1  0  0  0  0
 15 14  1  0  0  0  0
 15 16  1  0  0  0  0
 16 25  2  0  0  0  0
 16 17  1  0  0  0  0
 18 19  1  0  0  0  0
 18 17  2  0  0  0  0
 19 20  2  0  0  0  0
 20 21  1  0  0  0  0
 22 21  1  0  0  0  0
 23 19  1  0  0  0  0
 23 22  2  0  0  0  0
 24 39  1  0  0  0  0
 24 23  1  0  0  0  0
 25 42  1  0  0  0  0
 26 43  1  0  0  0  0
 26 25  1  0  0  0  0
 27 26  2  0  0  0  0
 28 27  1  0  0  0  0
 28 15  2  0  0  0  0
 29  4  1  0  0  0  0
 30 46  1  0  0  0  0
 30 29  1  0  0  0  0
 31 49  1  0  0  0  0
 31 30  1  0  0  0  0
 32  3  1  0  0  0  0
 37 13  1  0  0  0  0
 40 24  1  0  0  0  0
 41 24  1  0  0  0  0
 44 27  1  0  0  0  0
 45 28  1  0  0  0  0
 47 30  1  0  0  0  0
 48 31  1  0  0  0  0
 50 31  1  0  0  0  0
M  END
>  <Pose>
1

>  <Score>
-7.79

$$$$
