
 OpenBabel03202209423D

 56 59  0  0  0  0  0  0  0  0999 V2000
  -40.2390  -68.6180   53.6300 B   0  0  0  0  0  0  0  0  0  0  0  0
  -41.5780  -67.3310   53.2050 C   0  0  0  0  0  0  0  0  0  0  0  0
  -42.6880  -67.1380   54.0200 C   0  0  0  0  0  0  0  0  0  0  0  0
  -43.6590  -66.2100   53.7200 C   0  0  0  0  0  0  0  0  0  0  0  0
  -43.4970  -65.4700   52.5730 C   0  0  0  0  0  0  0  0  0  0  0  0
  -42.4040  -65.6360   51.7370 C   0  0  0  0  0  0  0  0  0  0  0  0
  -41.4560  -66.5750   52.0770 C   0  0  0  0  0  0  0  0  0  0  0  0
  -42.2060  -64.8670   50.5190 C   0  0  0  0  0  0  0  0  0  0  0  0
  -41.1570  -64.1550   50.3320 N   0  0  0  0  0  0  0  0  0  0  0  0
  -40.8880  -63.4010   49.2160 N   0  0  0  0  0  0  0  0  0  0  0  0
  -39.9160  -63.7200   48.2420 C   0  0  0  0  0  0  0  0  0  0  0  0
  -40.1040  -64.7000   47.4960 O   0  0  0  0  0  0  0  0  0  0  0  0
  -38.6980  -62.9340   48.0860 C   0  0  0  0  0  0  0  0  0  0  0  0
  -37.6610  -62.8170   48.9250 N   0  0  0  0  0  0  0  0  0  0  0  0
  -36.7660  -62.0120   48.4060 N   0  0  0  0  0  0  0  0  0  0  0  0
  -37.1710  -61.5630   47.2050 N   0  0  0  0  0  0  0  0  0  0  0  0
  -38.3650  -62.1210   46.9860 C   0  0  0  0  0  0  0  0  0  0  0  0
  -39.2420  -61.9990   45.8200 C   0  0  0  0  0  0  0  0  0  0  0  0
  -38.6690  -61.4250   44.6290 N   0  0  0  0  0  0  0  0  0  0  0  0
  -39.0870  -62.3250   43.5480 C   0  0  0  0  0  0  0  0  0  0  0  0
  -40.5480  -62.4360   43.3570 C   0  0  0  0  0  0  0  0  0  0  0  0
  -41.1920  -61.2470   43.6660 O   0  0  0  0  0  0  0  0  0  0  0  0
  -40.3540  -60.2030   43.3380 C   0  0  0  0  0  0  0  0  0  0  0  0
  -39.2640  -60.1080   44.3880 C   0  0  0  0  0  0  0  0  0  0  0  0
  -36.3860  -60.6830   46.3930 C   0  0  0  0  0  0  0  0  0  0  0  0
  -36.5720  -59.3780   46.1380 N   0  0  0  0  0  0  0  0  0  0  0  0
  -35.6150  -58.9530   45.3480 O   0  0  0  0  0  0  0  0  0  0  0  0
  -34.7900  -59.9310   45.0620 N   0  0  0  0  0  0  0  0  0  0  0  0
  -35.2480  -61.0220   45.7020 C   0  0  0  0  0  0  0  0  0  0  0  0
  -34.6130  -62.2900   45.6390 N   0  0  0  0  0  0  0  0  0  0  0  0
  -44.7290  -66.0740   54.5710 O   0  0  0  0  0  0  0  0  0  0  0  0
  -46.0690  -66.2940   54.2740 C   0  0  0  0  0  0  0  0  0  0  0  0
  -46.6240  -65.4360   53.1830 C   0  0  0  0  0  0  0  0  0  0  0  0
  -42.7990  -67.9170   55.1680 O   0  0  0  0  0  0  0  0  0  0  0  0
  -44.2460  -64.7370   52.3200 H   0  0  0  0  0  0  0  0  0  0  0  0
  -40.5860  -66.7190   51.4270 H   0  0  0  0  0  0  0  0  0  0  0  0
  -42.9590  -64.8910   49.7440 H   0  0  0  0  0  0  0  0  0  0  0  0
  -41.4580  -62.5160   49.0840 H   0  0  0  0  0  0  0  0  0  0  0  0
  -40.1340  -61.3730   46.0890 H   0  0  0  0  0  0  0  0  0  0  0  0
  -39.7110  -63.0020   45.5720 H   0  0  0  0  0  0  0  0  0  0  0  0
  -38.6010  -61.9670   42.6400 H   0  0  0  0  0  0  0  0  0  0  0  0
  -38.7020  -63.3330   43.8710 H   0  0  0  0  0  0  0  0  0  0  0  0
  -40.9350  -63.1880   44.1070 H   0  0  0  0  0  0  0  0  0  0  0  0
  -40.8480  -62.8340   42.3670 H   0  0  0  0  0  0  0  0  0  0  0  0
  -40.8660  -59.2190   43.3350 H   0  0  0  0  0  0  0  0  0  0  0  0
  -39.8930  -60.4240   42.3550 H   0  0  0  0  0  0  0  0  0  0  0  0
  -39.7370  -59.7250   45.3020 H   0  0  0  0  0  0  0  0  0  0  0  0
  -38.5010  -59.4360   43.9640 H   0  0  0  0  0  0  0  0  0  0  0  0
  -33.6460  -62.4390   45.2850 H   0  0  0  0  0  0  0  0  0  0  0  0
  -35.1130  -63.1590   45.9590 H   0  0  0  0  0  0  0  0  0  0  0  0
  -46.2610  -67.3670   54.0150 H   0  0  0  0  0  0  0  0  0  0  0  0
  -46.6580  -66.0860   55.2020 H   0  0  0  0  0  0  0  0  0  0  0  0
  -47.4740  -64.7910   53.5420 H   0  0  0  0  0  0  0  0  0  0  0  0
  -46.9970  -66.0100   52.3030 H   0  0  0  0  0  0  0  0  0  0  0  0
  -45.8390  -64.7210   52.8490 H   0  0  0  0  0  0  0  0  0  0  0  0
  -43.6560  -67.8990   55.7080 H   0  0  0  0  0  0  0  0  0  0  0  0
  2  1  1  0  0  0  0
  2  3  1  0  0  0  0
  3 34  1  0  0  0  0
  4  3  2  0  0  0  0
  4 31  1  0  0  0  0
  5  4  1  0  0  0  0
  6  7  1  0  0  0  0
  6  5  2  0  0  0  0
  7  2  2  0  0  0  0
  8  6  1  0  0  0  0
  9  8  2  0  0  0  0
 10  9  1  0  0  0  0
 11 10  1  0  0  0  0
 12 11  2  0  0  0  0
 13 11  1  0  0  0  0
 13 14  1  0  0  0  0
 15 14  2  0  0  0  0
 16 15  1  0  0  0  0
 17 16  1  0  0  0  0
 17 13  2  0  0  0  0
 18 39  1  0  0  0  0
 18 17  1  0  0  0  0
 19 18  1  0  0  0  0
 20 42  1  0  0  0  0
 20 19  1  0  0  0  0
 21 20  1  0  0  0  0
 21 22  1  0  0  0  0
 21 43  1  0  0  0  0
 23 22  1  0  0  0  0
 23 24  1  0  0  0  0
 24 19  1  0  0  0  0
 24 47  1  0  0  0  0
 25 16  1  0  0  0  0
 26 25  2  0  0  0  0
 27 26  1  0  0  0  0
 28 27  1  0  0  0  0
 28 29  2  0  0  0  0
 29 25  1  0  0  0  0
 30 29  1  0  0  0  0
 30 50  1  0  0  0  0
 32 31  1  0  0  0  0
 32 52  1  0  0  0  0
 33 53  1  0  0  0  0
 33 32  1  0  0  0  0
 34 56  1  0  0  0  0
 35  5  1  0  0  0  0
 36  7  1  0  0  0  0
 37  8  1  0  0  0  0
 38 10  1  0  0  0  0
 40 18  1  0  0  0  0
 41 20  1  0  0  0  0
 44 21  1  0  0  0  0
 45 23  1  0  0  0  0
 46 23  1  0  0  0  0
 48 24  1  0  0  0  0
 49 30  1  0  0  0  0
 51 32  1  0  0  0  0
 54 33  1  0  0  0  0
 55 33  1  0  0  0  0
M  END
>  <Pose>
1

>  <Score>
-7.36

$$$$
