
 OpenBabel03202209423D

 53 56  0  0  0  0  0  0  0  0999 V2000
  -51.6250  -69.7290   50.6310 B   0  0  0  0  0  0  0  0  0  0  0  0
  -50.9790  -69.1950   52.3700 C   0  0  0  0  0  0  0  0  0  0  0  0
  -51.8640  -69.1710   53.4270 C   0  0  0  0  0  0  0  0  0  0  0  0
  -51.4290  -68.8170   54.6740 C   0  0  0  0  0  0  0  0  0  0  0  0
  -50.1010  -68.4880   54.8240 C   0  0  0  0  0  0  0  0  0  0  0  0
  -49.1740  -68.4940   53.7980 C   0  0  0  0  0  0  0  0  0  0  0  0
  -49.6960  -68.8800   52.5080 C   0  0  0  0  0  0  0  0  0  0  0  0
  -47.8440  -68.1860   53.8370 C   0  0  0  0  0  0  0  0  0  0  0  0
  -46.8850  -67.4850   54.4710 N   0  0  0  0  0  0  0  0  0  0  0  0
  -45.6930  -67.9880   53.5360 N   0  0  0  0  0  0  0  0  0  0  0  0
  -44.5310  -67.4560   54.2120 C   0  0  0  0  0  0  0  0  0  0  0  0
  -43.9330  -68.1380   55.0430 O   0  0  0  0  0  0  0  0  0  0  0  0
  -44.0080  -66.1570   53.8510 C   0  0  0  0  0  0  0  0  0  0  0  0
  -44.4840  -65.0870   53.3190 N   0  0  0  0  0  0  0  0  0  0  0  0
  -43.5120  -64.3910   52.7560 N   0  0  0  0  0  0  0  0  0  0  0  0
  -42.3670  -65.0320   52.9410 N   0  0  0  0  0  0  0  0  0  0  0  0
  -42.5340  -66.1520   53.6300 C   0  0  0  0  0  0  0  0  0  0  0  0
  -41.7010  -67.2650   53.9810 C   0  0  0  0  0  0  0  0  0  0  0  0
  -41.4260  -68.2700   52.9520 N   0  0  0  0  0  0  0  0  0  0  0  0
  -41.1490  -69.5550   53.5060 C   0  0  0  0  0  0  0  0  0  0  0  0
  -39.8570  -69.6500   54.2660 C   0  0  0  0  0  0  0  0  0  0  0  0
  -38.7950  -69.6520   53.3770 O   0  0  0  0  0  0  0  0  0  0  0  0
  -39.1570  -69.0330   52.1750 C   0  0  0  0  0  0  0  0  0  0  0  0
  -40.0390  -67.8640   52.4590 C   0  0  0  0  0  0  0  0  0  0  0  0
  -41.2260  -64.7430   52.0960 C   0  0  0  0  0  0  0  0  0  0  0  0
  -40.2080  -63.9970   52.2100 N   0  0  0  0  0  0  0  0  0  0  0  0
  -39.4370  -64.0180   51.1230 O   0  0  0  0  0  0  0  0  0  0  0  0
  -40.0040  -64.8170   50.2930 N   0  0  0  0  0  0  0  0  0  0  0  0
  -41.1290  -65.3270   50.7950 C   0  0  0  0  0  0  0  0  0  0  0  0
  -42.0300  -66.2170   50.1870 N   0  0  0  0  0  0  0  0  0  0  0  0
  -52.2920  -68.7970   55.7760 O   0  0  0  0  0  0  0  0  0  0  0  0
  -51.7940  -69.2410   57.0540 C   0  0  0  0  0  0  0  0  0  0  0  0
  -53.2030  -69.5100   53.2140 O   0  0  0  0  0  0  0  0  0  0  0  0
  -49.7560  -68.2140   55.8380 H   0  0  0  0  0  0  0  0  0  0  0  0
  -49.0010  -68.9180   51.6650 H   0  0  0  0  0  0  0  0  0  0  0  0
  -47.2340  -68.7260   52.9640 H   0  0  0  0  0  0  0  0  0  0  0  0
  -46.0020  -68.4930   52.8170 H   0  0  0  0  0  0  0  0  0  0  0  0
  -40.8190  -67.1240   54.6140 H   0  0  0  0  0  0  0  0  0  0  0  0
  -42.3400  -67.9360   54.7250 H   0  0  0  0  0  0  0  0  0  0  0  0
  -41.9820  -69.8450   54.1600 H   0  0  0  0  0  0  0  0  0  0  0  0
  -41.0800  -70.3370   52.6770 H   0  0  0  0  0  0  0  0  0  0  0  0
  -39.7630  -68.9380   55.0870 H   0  0  0  0  0  0  0  0  0  0  0  0
  -39.8330  -70.6750   54.7400 H   0  0  0  0  0  0  0  0  0  0  0  0
  -39.4470  -69.6740   51.3650 H   0  0  0  0  0  0  0  0  0  0  0  0
  -38.1660  -68.5630   51.8210 H   0  0  0  0  0  0  0  0  0  0  0  0
  -40.1070  -67.2110   51.6000 H   0  0  0  0  0  0  0  0  0  0  0  0
  -39.5530  -67.3900   53.3660 H   0  0  0  0  0  0  0  0  0  0  0  0
  -42.8550  -65.9010   49.6470 H   0  0  0  0  0  0  0  0  0  0  0  0
  -41.9010  -67.2830   50.2380 H   0  0  0  0  0  0  0  0  0  0  0  0
  -52.5520  -69.1410   57.8410 H   0  0  0  0  0  0  0  0  0  0  0  0
  -51.4970  -70.3420   56.9210 H   0  0  0  0  0  0  0  0  0  0  0  0
  -50.8990  -68.6680   57.2800 H   0  0  0  0  0  0  0  0  0  0  0  0
  -53.9340  -68.8490   53.5520 H   0  0  0  0  0  0  0  0  0  0  0  0
  1  2  1  0  0  0  0
  2  7  2  0  0  0  0
  2  3  1  0  0  0  0
  3  4  2  0  0  0  0
  4  5  1  0  0  0  0
  4 31  1  0  0  0  0
  5 34  1  0  0  0  0
  6  8  1  0  0  0  0
  6  5  2  0  0  0  0
  7  6  1  0  0  0  0
  8  9  1  0  0  0  0
 10 11  1  0  0  0  0
 10  9  1  0  0  0  0
 11 12  2  0  0  0  0
 13 11  1  0  0  0  0
 14 13  1  0  0  0  0
 15 16  1  0  0  0  0
 15 14  2  0  0  0  0
 16 17  1  0  0  0  0
 17 13  2  0  0  0  0
 17 18  1  0  0  0  0
 18 38  1  0  0  0  0
 18 39  1  0  0  0  0
 19 20  1  0  0  0  0
 19 18  1  0  0  0  0
 20 40  1  0  0  0  0
 20 21  1  0  0  0  0
 21 43  1  0  0  0  0
 21 42  1  0  0  0  0
 22 21  1  0  0  0  0
 23 24  1  0  0  0  0
 23 22  1  0  0  0  0
 24 19  1  0  0  0  0
 24 47  1  0  0  0  0
 25 26  2  0  0  0  0
 25 16  1  0  0  0  0
 27 26  1  0  0  0  0
 28 29  2  0  0  0  0
 28 27  1  0  0  0  0
 29 25  1  0  0  0  0
 30 49  1  0  0  0  0
 30 29  1  0  0  0  0
 31 32  1  0  0  0  0
 32 52  1  0  0  0  0
 32 50  1  0  0  0  0
 33  3  1  0  0  0  0
 33 53  1  0  0  0  0
 35  7  1  0  0  0  0
 36  8  1  0  0  0  0
 37 10  1  0  0  0  0
 41 20  1  0  0  0  0
 44 23  1  0  0  0  0
 45 23  1  0  0  0  0
 46 24  1  0  0  0  0
 48 30  1  0  0  0  0
 51 32  1  0  0  0  0
M  END
>  <Pose>
1

>  <Score>
-7.36

$$$$
