
 OpenBabel03202209423D

 64 67  0  0  1  0  0  0  0  0999 V2000
  -41.9090  -70.7180   56.3990 B   0  0  0  0  0  0  0  0  0  0  0  0
  -41.2200  -69.7090   54.9480 C   0  0  0  0  0  0  0  0  0  0  0  0
  -39.9190  -69.9720   54.4980 C   0  0  0  0  0  0  0  0  0  0  0  0
  -39.4140  -69.2330   53.4360 C   0  0  0  0  0  0  0  0  0  0  0  0
  -40.1990  -68.2830   52.8730 C   0  0  0  0  0  0  0  0  0  0  0  0
  -41.4850  -68.0250   53.3190 C   0  0  0  0  0  0  0  0  0  0  0  0
  -42.0110  -68.7390   54.3670 C   0  0  0  0  0  0  0  0  0  0  0  0
  -42.2220  -66.9470   52.6090 C   0  0  1  0  0  0  0  0  0  0  0  0
  -42.5670  -65.9440   53.5950 N   0  0  0  0  0  0  0  0  0  0  0  0
  -41.7780  -64.7970   53.4590 C   0  0  0  0  0  0  0  0  0  0  0  0
  -41.7550  -63.8270   54.2320 O   0  0  0  0  0  0  0  0  0  0  0  0
  -40.9820  -64.9480   52.2410 C   0  0  0  0  0  0  0  0  0  0  0  0
  -40.1670  -64.0740   51.8500 O   0  0  0  0  0  0  0  0  0  0  0  0
  -41.3180  -66.2230   51.6430 C   0  0  0  0  0  0  0  0  0  0  0  0
  -40.8680  -66.6610   50.4980 C   0  0  0  0  0  0  0  0  0  0  0  0
  -41.2160  -67.9310   50.0660 O   0  0  0  0  0  0  0  0  0  0  0  0
  -40.0180  -65.8600   49.6520 C   0  0  0  0  0  0  0  0  0  0  0  0
  -38.7830  -66.4450   49.3410 C   0  0  0  0  0  0  0  0  0  0  0  0
  -37.8870  -65.8120   48.5160 C   0  0  0  0  0  0  0  0  0  0  0  0
  -38.1920  -64.5830   47.9790 C   0  0  0  0  0  0  0  0  0  0  0  0
  -39.4150  -64.0260   48.3010 C   0  0  0  0  0  0  0  0  0  0  0  0
  -40.3280  -64.6470   49.1260 C   0  0  0  0  0  0  0  0  0  0  0  0
  -37.1040  -64.1720   47.1800 O   0  0  0  0  0  0  0  0  0  0  0  0
  -35.9680  -64.9580   47.5280 C   0  0  2  0  0  0  0  0  0  0  0  0
  -36.5270  -66.2540   48.0690 C   0  0  0  0  0  0  0  0  0  0  0  0
  -35.1480  -64.3160   48.6310 C   0  0  0  0  0  0  0  0  0  0  0  0
  -43.6080  -66.1780   54.5740 C   0  0  0  0  0  0  0  0  0  0  0  0
  -44.9280  -65.5980   54.2840 C   0  0  0  0  0  0  0  0  0  0  0  0
  -46.0530  -66.5250   54.0070 C   0  0  0  0  0  0  0  0  0  0  0  0
  -47.3550  -65.9070   54.0480 N   0  0  0  0  0  4  0  0  0  0  0  0
  -48.3640  -66.9380   54.3320 C   0  0  0  0  0  0  0  0  0  0  0  0
  -47.6320  -65.3990   52.7160 C   0  0  0  0  0  0  0  0  0  0  0  0
  -38.1170  -69.4920   52.9830 O   0  0  0  0  0  0  0  0  0  0  0  0
  -37.7370  -69.3860   51.6380 C   0  0  0  0  0  0  0  0  0  0  0  0
  -39.1350  -70.9380   55.0770 O   0  0  0  0  0  0  0  0  0  0  0  0
  -39.7680  -67.7170   52.0350 H   0  0  0  0  0  0  0  0  0  0  0  0
  -43.0210  -68.5220   54.7000 H   0  0  0  0  0  0  0  0  0  0  0  0
  -43.1330  -67.3230   52.1030 H   0  0  0  0  0  0  0  0  0  0  0  0
  -38.5070  -67.4310   49.7520 H   0  0  0  0  0  0  0  0  0  0  0  0
  -39.6850  -63.0440   47.8850 H   0  0  0  0  0  0  0  0  0  0  0  0
  -41.2940  -64.2150   49.3550 H   0  0  0  0  0  0  0  0  0  0  0  0
  -35.3200  -65.1900   46.6710 H   0  0  0  0  0  0  0  0  0  0  0  0
  -35.9230  -66.6330   48.9470 H   0  0  0  0  0  0  0  0  0  0  0  0
  -36.5570  -67.0680   47.3390 H   0  0  0  0  0  0  0  0  0  0  0  0
  -35.7770  -63.5600   49.1610 H   0  0  0  0  0  0  0  0  0  0  0  0
  -34.2050  -63.8830   48.2320 H   0  0  0  0  0  0  0  0  0  0  0  0
  -34.8720  -65.0780   49.3700 H   0  0  0  0  0  0  0  0  0  0  0  0
  -43.7120  -67.2750   54.6980 H   0  0  0  0  0  0  0  0  0  0  0  0
  -43.2390  -65.8430   55.5930 H   0  0  0  0  0  0  0  0  0  0  0  0
  -44.8230  -64.9320   53.3780 H   0  0  0  0  0  0  0  0  0  0  0  0
  -45.2360  -64.9080   55.0910 H   0  0  0  0  0  0  0  0  0  0  0  0
  -45.9760  -67.1050   53.0770 H   0  0  0  0  0  0  0  0  0  0  0  0
  -46.0540  -67.2900   54.8320 H   0  0  0  0  0  0  0  0  0  0  0  0
  -47.4460  -65.1250   54.7020 H   0  0  0  0  0  0  0  0  0  0  0  0
  -48.2900  -67.2800   55.3990 H   0  0  0  0  0  0  0  0  0  0  0  0
  -49.3920  -66.5530   54.1860 H   0  0  0  0  0  0  0  0  0  0  0  0
  -48.1960  -67.7930   53.6320 H   0  0  0  0  0  0  0  0  0  0  0  0
  -47.9100  -64.3290   52.7300 H   0  0  0  0  0  0  0  0  0  0  0  0
  -48.4150  -66.0040   52.2090 H   0  0  0  0  0  0  0  0  0  0  0  0
  -46.7240  -65.4720   52.0520 H   0  0  0  0  0  0  0  0  0  0  0  0
  -38.3820  -70.0050   50.9630 H   0  0  0  0  0  0  0  0  0  0  0  0
  -37.8020  -68.2930   51.3610 H   0  0  0  0  0  0  0  0  0  0  0  0
  -36.6910  -69.6940   51.5440 H   0  0  0  0  0  0  0  0  0  0  0  0
  -39.4330  -71.4010   55.9000 H   0  0  0  0  0  0  0  0  0  0  0  0
  2  1  1  0  0  0  0
  3  2  1  0  0  0  0
  3 35  1  0  0  0  0
  4  3  2  0  0  0  0
  5  6  2  0  0  0  0
  5  4  1  0  0  0  0
  6  7  1  0  0  0  0
  7 37  1  0  0  0  0
  7  2  2  0  0  0  0
  8 38  1  6  0  0  0
  8  6  1  0  0  0  0
  8  9  1  0  0  0  0
  9 27  1  0  0  0  0
 10  9  1  0  0  0  0
 10 11  2  0  0  0  0
 12 10  1  0  0  0  0
 13 12  2  0  0  0  0
 14 12  1  0  0  0  0
 14  8  1  0  0  0  0
 15 14  2  0  0  0  0
 16 15  1  0  0  0  0
 17 15  1  0  0  0  0
 18 17  1  0  0  0  0
 18 39  1  0  0  0  0
 19 18  2  0  0  0  0
 20 21  2  0  0  0  0
 20 19  1  0  0  0  0
 21 22  1  0  0  0  0
 22 41  1  0  0  0  0
 22 17  2  0  0  0  0
 23 24  1  0  0  0  0
 23 20  1  0  0  0  0
 24 42  1  6  0  0  0
 24 25  1  0  0  0  0
 24 26  1  0  0  0  0
 25 19  1  0  0  0  0
 25 43  1  0  0  0  0
 26 45  1  0  0  0  0
 26 47  1  0  0  0  0
 27 48  1  0  0  0  0
 27 49  1  0  0  0  0
 28 27  1  0  0  0  0
 28 51  1  0  0  0  0
 29 30  1  0  0  0  0
 29 28  1  0  0  0  0
 29 53  1  0  0  0  0
 30 31  1  0  0  0  0
 30 54  1  0  0  0  0
 31 55  1  0  0  0  0
 32 58  1  0  0  0  0
 32 30  1  0  0  0  0
 33  4  1  0  0  0  0
 34 33  1  0  0  0  0
 35 64  1  0  0  0  0
 36  5  1  0  0  0  0
 40 21  1  0  0  0  0
 44 25  1  0  0  0  0
 46 26  1  0  0  0  0
 50 28  1  0  0  0  0
 52 29  1  0  0  0  0
 56 31  1  0  0  0  0
 57 31  1  0  0  0  0
 59 32  1  0  0  0  0
 60 32  1  0  0  0  0
 61 34  1  0  0  0  0
 62 34  1  0  0  0  0
 63 34  1  0  0  0  0
M  END
>  <Pose>
1

>  <Score>
-5.83

$$$$
