
 OpenBabel03202209423D

 52 55  0  0  0  0  0  0  0  0999 V2000
  -50.5620  -64.9080   53.9570 B   0  0  0  0  0  0  0  0  0  0  0  0
  -48.8580  -65.7510   53.9830 C   0  0  0  0  0  0  0  0  0  0  0  0
  -48.7250  -66.9370   54.6880 C   0  0  0  0  0  0  0  0  0  0  0  0
  -47.4750  -67.5270   54.6960 C   0  0  0  0  0  0  0  0  0  0  0  0
  -46.4170  -66.9590   54.0360 C   0  0  0  0  0  0  0  0  0  0  0  0
  -46.5280  -65.7680   53.3180 C   0  0  0  0  0  0  0  0  0  0  0  0
  -47.7800  -65.1940   53.3210 C   0  0  0  0  0  0  0  0  0  0  0  0
  -45.3750  -65.2330   52.6230 C   0  0  0  0  0  0  0  0  0  0  0  0
  -44.6110  -64.3400   53.1510 N   0  0  0  0  0  0  0  0  0  0  0  0
  -43.5010  -63.7970   52.5250 N   0  0  0  0  0  0  0  0  0  0  0  0
  -42.4050  -64.6230   52.1540 C   0  0  0  0  0  0  0  0  0  0  0  0
  -42.1580  -65.7430   52.8150 N   0  0  0  0  0  4  0  0  0  0  0  0
  -41.1640  -66.5970   52.5150 C   0  0  0  0  0  0  0  0  0  0  0  0
  -40.3790  -66.2670   51.4650 N   0  0  0  0  0  0  0  0  0  0  0  0
  -40.5820  -65.1300   50.7470 C   0  0  0  0  0  0  0  0  0  0  0  0
  -41.6050  -64.3170   51.1100 N   0  0  0  0  0  0  0  0  0  0  0  0
  -39.7660  -64.8070   49.6450 N   0  0  0  0  0  0  0  0  0  0  0  0
  -38.7410  -65.7070   49.1820 C   0  0  0  0  0  0  0  0  0  0  0  0
  -39.0140  -65.8930   47.6820 C   0  0  0  0  0  0  0  0  0  0  0  0
  -39.0920  -64.6530   47.0830 O   0  0  0  0  0  0  0  0  0  0  0  0
  -40.2510  -63.9890   47.4840 C   0  0  0  0  0  0  0  0  0  0  0  0
  -39.9610  -63.5660   48.9400 C   0  0  0  0  0  0  0  0  0  0  0  0
  -40.9370  -67.8040   53.2600 N   0  0  0  0  0  0  0  0  0  0  0  0
  -39.9450  -68.7580   52.8540 C   0  0  0  0  0  0  0  0  0  0  0  0
  -39.6180  -69.8300   53.8190 C   0  0  0  0  0  0  0  0  0  0  0  0
  -40.5520  -69.9990   54.8320 O   0  0  0  0  0  0  0  0  0  0  0  0
  -40.8970  -68.7960   55.4320 C   0  0  0  0  0  0  0  0  0  0  0  0
  -41.7310  -68.0350   54.4310 C   0  0  0  0  0  0  0  0  0  0  0  0
  -45.1550  -67.5620   54.0500 O   0  0  0  0  0  0  0  0  0  0  0  0
  -49.7930  -67.5220   55.3640 O   0  0  0  0  0  0  0  0  0  0  0  0
  -47.3890  -68.4620   55.2600 H   0  0  0  0  0  0  0  0  0  0  0  0
  -47.8820  -64.2520   52.7610 H   0  0  0  0  0  0  0  0  0  0  0  0
  -45.1390  -65.5870   51.6330 H   0  0  0  0  0  0  0  0  0  0  0  0
  -43.4640  -62.7900   52.3260 H   0  0  0  0  0  0  0  0  0  0  0  0
  -37.7430  -65.2420   49.3150 H   0  0  0  0  0  0  0  0  0  0  0  0
  -38.8030  -66.7000   49.6940 H   0  0  0  0  0  0  0  0  0  0  0  0
  -38.2040  -66.5200   47.2680 H   0  0  0  0  0  0  0  0  0  0  0  0
  -39.9880  -66.4390   47.6160 H   0  0  0  0  0  0  0  0  0  0  0  0
  -41.0730  -64.7610   47.5610 H   0  0  0  0  0  0  0  0  0  0  0  0
  -40.5080  -63.1490   46.8440 H   0  0  0  0  0  0  0  0  0  0  0  0
  -38.9570  -63.0530   48.8930 H   0  0  0  0  0  0  0  0  0  0  0  0
  -40.7490  -62.9260   49.3490 H   0  0  0  0  0  0  0  0  0  0  0  0
  -40.2930  -69.1840   51.8720 H   0  0  0  0  0  0  0  0  0  0  0  0
  -38.9980  -68.1690   52.6460 H   0  0  0  0  0  0  0  0  0  0  0  0
  -38.6010  -69.6720   54.2610 H   0  0  0  0  0  0  0  0  0  0  0  0
  -39.5620  -70.8020   53.2660 H   0  0  0  0  0  0  0  0  0  0  0  0
  -41.4260  -69.0230   56.3610 H   0  0  0  0  0  0  0  0  0  0  0  0
  -40.0040  -68.1460   55.6340 H   0  0  0  0  0  0  0  0  0  0  0  0
  -42.0010  -67.0760   54.9460 H   0  0  0  0  0  0  0  0  0  0  0  0
  -42.6840  -68.5540   54.1960 H   0  0  0  0  0  0  0  0  0  0  0  0
  -44.7970  -67.9050   54.9360 H   0  0  0  0  0  0  0  0  0  0  0  0
  -49.7840  -67.7340   56.3500 H   0  0  0  0  0  0  0  0  0  0  0  0
  1  2  1  0  0  0  0
  2  3  1  0  0  0  0
  3  4  2  0  0  0  0
  3 30  1  0  0  0  0
  4 31  1  0  0  0  0
  5 29  1  0  0  0  0
  5  4  1  0  0  0  0
  6  7  1  0  0  0  0
  6  5  2  0  0  0  0
  7  2  2  0  0  0  0
  8  9  2  0  0  0  0
  8  6  1  0  0  0  0
 10  9  1  0  0  0  0
 11 10  1  0  0  0  0
 11 12  2  0  0  0  0
 13 12  2  0  0  0  0
 13 23  1  0  0  0  0
 14 13  1  0  0  0  0
 15 16  1  0  0  0  0
 15 14  2  0  0  0  0
 16 11  1  0  0  0  0
 17 15  1  0  0  0  0
 18 35  1  0  0  0  0
 18 17  1  0  0  0  0
 18 36  1  0  0  0  0
 19 18  1  0  0  0  0
 20 21  1  0  0  0  0
 20 19  1  0  0  0  0
 21 39  1  0  0  0  0
 21 22  1  0  0  0  0
 22 42  1  0  0  0  0
 22 17  1  0  0  0  0
 23 28  1  0  0  0  0
 24 23  1  0  0  0  0
 24 25  1  0  0  0  0
 25 45  1  0  0  0  0
 25 26  1  0  0  0  0
 26 27  1  0  0  0  0
 27 48  1  0  0  0  0
 27 47  1  0  0  0  0
 28 49  1  0  0  0  0
 28 27  1  0  0  0  0
 29 51  1  0  0  0  0
 30 52  1  0  0  0  0
 32  7  1  0  0  0  0
 33  8  1  0  0  0  0
 34 10  1  0  0  0  0
 37 19  1  0  0  0  0
 38 19  1  0  0  0  0
 40 21  1  0  0  0  0
 41 22  1  0  0  0  0
 43 24  1  0  0  0  0
 44 24  1  0  0  0  0
 46 25  1  0  0  0  0
 50 28  1  0  0  0  0
M  END
>  <Pose>
1

>  <Score>
-6.77

$$$$
