
 OpenBabel03202209423D

 36 39  0  0  1  0  0  0  0  0999 V2000
  -39.9440  -64.9840   50.2810 B   0  0  0  0  0  0  0  0  0  0  0  0
  -41.5200  -64.1990   49.6090 C   0  0  0  0  0  0  0  0  0  0  0  0
  -42.7000  -64.2010   50.3320 C   0  0  0  0  0  0  0  0  0  0  0  0
  -43.7820  -63.5880   49.7120 C   0  0  0  0  0  0  0  0  0  0  0  0
  -43.7160  -63.0100   48.4690 C   0  0  0  0  0  0  0  0  0  0  0  0
  -42.5480  -63.0190   47.7750 C   0  0  0  0  0  0  0  0  0  0  0  0
  -41.4520  -63.6120   48.3430 C   0  0  0  0  0  0  0  0  0  0  0  0
  -42.8050  -64.7880   51.6190 N   0  0  0  0  0  0  0  0  0  0  0  0
  -42.1920  -66.0500   52.0770 C   0  0  0  0  0  0  0  0  0  0  0  0
  -43.1150  -66.4610   53.1270 C   0  0  2  0  0  0  0  0  0  0  0  0
  -44.2450  -67.1820   52.7070 O   0  0  0  0  0  0  0  0  0  0  0  0
  -44.8990  -67.1730   53.9680 C   0  0  2  0  0  0  0  0  0  0  0  0
  -45.0890  -65.6540   54.0800 C   0  0  1  0  0  0  0  0  0  0  0  0
  -43.6980  -65.1930   53.7740 C   0  0  2  0  0  0  0  0  0  0  0  0
  -43.5490  -64.2290   52.6950 C   0  0  0  0  0  0  0  0  0  0  0  0
  -44.0010  -63.0660   52.6910 O   0  0  0  0  0  0  0  0  0  0  0  0
  -46.0130  -65.2990   52.9570 C   0  0  0  0  0  0  0  0  0  0  0  0
  -47.1240  -64.7800   53.1370 O   0  0  0  0  0  0  0  0  0  0  0  0
  -45.6050  -65.5660   51.6560 O   0  0  0  0  0  0  0  0  0  0  0  0
  -46.3350  -64.9750   50.5750 C   0  0  0  0  0  0  0  0  0  0  0  0
  -43.7990  -67.6630   54.8490 C   0  0  0  0  0  0  0  0  0  0  0  0
  -42.6540  -67.3050   54.2250 C   0  0  0  0  0  0  0  0  0  0  0  0
  -44.7390  -63.5470   50.2120 H   0  0  0  0  0  0  0  0  0  0  0  0
  -44.5860  -62.5430   48.0240 H   0  0  0  0  0  0  0  0  0  0  0  0
  -42.4800  -62.5650   46.7870 H   0  0  0  0  0  0  0  0  0  0  0  0
  -40.5260  -63.6170   47.7880 H   0  0  0  0  0  0  0  0  0  0  0  0
  -42.2360  -66.7420   51.2150 H   0  0  0  0  0  0  0  0  0  0  0  0
  -41.1540  -65.9170   52.4030 H   0  0  0  0  0  0  0  0  0  0  0  0
  -45.8060  -67.7350   53.9950 H   0  0  0  0  0  0  0  0  0  0  0  0
  -45.4740  -65.3570   55.0480 H   0  0  0  0  0  0  0  0  0  0  0  0
  -43.1180  -64.9240   54.6800 H   0  0  0  0  0  0  0  0  0  0  0  0
  -45.8300  -65.1560   49.6130 H   0  0  0  0  0  0  0  0  0  0  0  0
  -46.4500  -63.8810   50.7130 H   0  0  0  0  0  0  0  0  0  0  0  0
  -47.3430  -65.4530   50.4950 H   0  0  0  0  0  0  0  0  0  0  0  0
  -43.9170  -68.1930   55.7880 H   0  0  0  0  0  0  0  0  0  0  0  0
  -41.6630  -67.6080   54.5220 H   0  0  0  0  0  0  0  0  0  0  0  0
  2  1  1  0  0  0  0
  2  3  1  0  0  0  0
  3  8  1  0  0  0  0
  4 23  1  0  0  0  0
  4  3  2  0  0  0  0
  5  4  1  0  0  0  0
  6  7  1  0  0  0  0
  6  5  2  0  0  0  0
  7  2  2  0  0  0  0
  8  9  1  0  0  0  0
  8 15  1  0  0  0  0
  9 28  1  0  0  0  0
  9 10  1  0  0  0  0
 10 11  1  6  0  0  0
 10 14  1  0  0  0  0
 10 22  1  0  0  0  0
 11 12  1  0  0  0  0
 12 29  1  1  0  0  0
 12 13  1  0  0  0  0
 12 21  1  0  0  0  0
 13 30  1  1  0  0  0
 14 13  1  0  0  0  0
 14 31  1  1  0  0  0
 15 14  1  0  0  0  0
 16 15  2  0  0  0  0
 17 18  2  0  0  0  0
 17 13  1  0  0  0  0
 19 17  1  0  0  0  0
 20 33  1  0  0  0  0
 20 19  1  0  0  0  0
 21 35  1  0  0  0  0
 22 36  1  0  0  0  0
 22 21  2  0  0  0  0
 24  5  1  0  0  0  0
 25  6  1  0  0  0  0
 26  7  1  0  0  0  0
 27  9  1  0  0  0  0
 32 20  1  0  0  0  0
 34 20  1  0  0  0  0
M  END
>  <Pose>
1

>  <Score>
-4.25

$$$$
