
 OpenBabel03202209423D

 36 39  0  0  0  0  0  0  0  0999 V2000
  -39.2820  -70.2680   54.3140 B   0  0  0  0  0  0  0  0  0  0  0  0
  -40.5030  -68.8640   53.9650 C   0  0  0  0  0  0  0  0  0  0  0  0
  -40.4530  -68.1960   52.7350 C   0  0  0  0  0  0  0  0  0  0  0  0
  -41.3470  -67.1820   52.5000 C   0  0  0  0  0  0  0  0  0  0  0  0
  -42.2720  -66.8220   53.4430 C   0  0  0  0  0  0  0  0  0  0  0  0
  -42.3270  -67.4900   54.6780 C   0  0  0  0  0  0  0  0  0  0  0  0
  -41.4280  -68.5110   54.9160 C   0  0  0  0  0  0  0  0  0  0  0  0
  -43.1580  -65.7610   53.1340 N   0  0  0  0  0  0  0  0  0  0  0  0
  -42.8340  -64.4860   53.2250 N   0  0  0  0  0  0  0  0  0  0  0  0
  -43.8460  -63.7200   52.8770 N   0  0  0  0  0  0  0  0  0  0  0  0
  -44.8610  -64.5020   52.5490 N   0  0  0  0  0  0  0  0  0  0  0  0
  -44.4310  -65.7580   52.7100 C   0  0  0  0  0  0  0  0  0  0  0  0
  -41.3540  -66.4300   51.1900 C   0  0  0  0  0  0  0  0  0  0  0  0
  -42.4950  -66.0180   50.8040 O   0  0  0  0  0  0  0  0  0  0  0  0
  -40.1620  -66.2510   50.5290 N   0  0  0  0  0  0  0  0  0  0  0  0
  -38.9770  -66.0730   49.8720 C   0  0  0  0  0  0  0  0  0  0  0  0
  -39.0760  -65.1730   48.6520 C   0  0  0  0  0  0  0  0  0  0  0  0
  -38.2150  -64.1750   48.3540 N   0  0  0  0  0  0  0  0  0  0  0  0
  -38.5800  -63.5740   47.2140 C   0  0  0  0  0  0  0  0  0  0  0  0
  -39.6850  -64.2160   46.8020 N   0  0  0  0  0  0  0  0  0  0  0  0
  -39.9880  -65.1880   47.6750 N   0  0  0  0  0  0  0  0  0  0  0  0
  -37.8350  -62.5050   46.6990 C   0  0  0  0  0  0  0  0  0  0  0  0
  -36.7220  -62.0610   47.3590 C   0  0  0  0  0  0  0  0  0  0  0  0
  -36.3460  -62.6810   48.5340 C   0  0  0  0  0  0  0  0  0  0  0  0
  -37.1070  -63.7360   49.0160 C   0  0  0  0  0  0  0  0  0  0  0  0
  -39.7270  -68.4650   51.9820 H   0  0  0  0  0  0  0  0  0  0  0  0
  -43.0700  -67.1780   55.3900 H   0  0  0  0  0  0  0  0  0  0  0  0
  -41.4690  -69.0260   55.8710 H   0  0  0  0  0  0  0  0  0  0  0  0
  -45.0200  -66.6340   52.5230 H   0  0  0  0  0  0  0  0  0  0  0  0
  -40.2790  -67.4810   49.9570 H   0  0  0  0  0  0  0  0  0  0  0  0
  -38.4520  -67.0040   49.5100 H   0  0  0  0  0  0  0  0  0  0  0  0
  -38.1590  -65.5650   50.4760 H   0  0  0  0  0  0  0  0  0  0  0  0
  -38.1780  -62.0560   45.7800 H   0  0  0  0  0  0  0  0  0  0  0  0
  -36.1140  -61.2240   46.9860 H   0  0  0  0  0  0  0  0  0  0  0  0
  -35.4890  -62.3860   49.0950 H   0  0  0  0  0  0  0  0  0  0  0  0
  -36.8490  -64.2440   49.9300 H   0  0  0  0  0  0  0  0  0  0  0  0
  2  1  1  0  0  0  0
  2  7  1  0  0  0  0
  3  2  2  0  0  0  0
  4  3  1  0  0  0  0
  4  5  2  0  0  0  0
  5  6  1  0  0  0  0
  6  7  2  0  0  0  0
  6 27  1  0  0  0  0
  7 28  1  0  0  0  0
  8  9  1  0  0  0  0
  8  5  1  0  0  0  0
 10  9  2  0  0  0  0
 11 12  2  0  0  0  0
 11 10  1  0  0  0  0
 12  8  1  0  0  0  0
 13  4  1  0  0  0  0
 14 13  2  0  0  0  0
 15 13  1  0  0  0  0
 16 32  1  0  0  0  0
 16 15  1  0  0  0  0
 17 16  1  0  0  0  0
 18 17  1  0  0  0  0
 18 25  1  0  0  0  0
 19 18  1  0  0  0  0
 20 19  2  0  0  0  0
 20 21  1  0  0  0  0
 21 17  2  0  0  0  0
 22 19  1  0  0  0  0
 22 23  2  0  0  0  0
 23 24  1  0  0  0  0
 24 25  2  0  0  0  0
 24 35  1  0  0  0  0
 25 36  1  0  0  0  0
 26  3  1  0  0  0  0
 29 12  1  0  0  0  0
 30 15  1  0  0  0  0
 31 16  1  0  0  0  0
 33 22  1  0  0  0  0
 34 23  1  0  0  0  0
M  END
>  <Pose>
1

>  <Score>
-6.46

$$$$
