
 OpenBabel03202209423D

 48 51  0  0  0  0  0  0  0  0999 V2000
  -48.1620  -65.2110   51.6210 B   0  0  0  0  0  0  0  0  0  0  0  0
  -46.3330  -65.1800   52.1510 C   0  0  0  0  0  0  0  0  0  0  0  0
  -45.7140  -66.1520   52.8820 C   0  0  0  0  0  0  0  0  0  0  0  0
  -44.3880  -66.1070   53.2520 C   0  0  0  0  0  0  0  0  0  0  0  0
  -43.6540  -64.9900   52.8420 C   0  0  0  0  0  0  0  0  0  0  0  0
  -44.2220  -63.9840   52.1090 C   0  0  0  0  0  0  0  0  0  0  0  0
  -45.5650  -64.0850   51.7650 C   0  0  0  0  0  0  0  0  0  0  0  0
  -42.3210  -64.9220   53.1960 O   0  0  0  0  0  0  0  0  0  0  0  0
  -41.3210  -65.0190   52.2160 C   0  0  0  0  0  0  0  0  0  0  0  0
  -43.7450  -67.1620   54.0180 C   0  0  0  0  0  0  0  0  0  0  0  0
  -42.5890  -67.7090   53.7630 C   0  0  0  0  0  0  0  0  0  0  0  0
  -41.7730  -67.3610   52.6980 O   0  0  0  0  0  0  0  0  0  0  0  0
  -40.6100  -68.1080   52.6750 C   0  0  0  0  0  0  0  0  0  0  0  0
  -40.5870  -68.9990   53.7230 C   0  0  0  0  0  0  0  0  0  0  0  0
  -39.5120  -69.8470   53.8880 C   0  0  0  0  0  0  0  0  0  0  0  0
  -38.4640  -69.7940   52.9930 C   0  0  0  0  0  0  0  0  0  0  0  0
  -38.5130  -68.8730   51.9280 C   0  0  0  0  0  0  0  0  0  0  0  0
  -39.5630  -68.0260   51.7460 C   0  0  0  0  0  0  0  0  0  0  0  0
  -39.6580  -67.0550   50.6910 C   0  0  0  0  0  0  0  0  0  0  0  0
  -38.8740  -67.1140   49.5260 N   0  0  0  0  0  4  0  0  0  0  0  0
  -39.5430  -66.7680   48.3020 C   0  0  0  0  0  0  0  0  0  0  0  0
  -39.6320  -65.2830   48.0470 C   0  0  0  0  0  0  0  0  0  0  0  0
  -39.1620  -64.5100   49.0990 O   0  0  0  0  0  0  0  0  0  0  0  0
  -37.8340  -64.8770   49.2910 C   0  0  0  0  0  0  0  0  0  0  0  0
  -37.6390  -66.3160   49.6390 C   0  0  0  0  0  0  0  0  0  0  0  0
  -37.3810  -68.9340   51.0990 O   0  0  0  0  0  0  0  0  0  0  0  0
  -41.8430  -68.7710   54.4450 C   0  0  0  0  0  0  0  0  0  0  0  0
  -42.2280  -69.3730   55.4720 O   0  0  0  0  0  0  0  0  0  0  0  0
  -46.3200  -67.0110   53.1830 H   0  0  0  0  0  0  0  0  0  0  0  0
  -43.6930  -63.0880   51.7660 H   0  0  0  0  0  0  0  0  0  0  0  0
  -46.0330  -63.2840   51.1750 H   0  0  0  0  0  0  0  0  0  0  0  0
  -40.3520  -65.3690   52.6920 H   0  0  0  0  0  0  0  0  0  0  0  0
  -41.1080  -63.9990   51.8050 H   0  0  0  0  0  0  0  0  0  0  0  0
  -41.5360  -65.7710   51.4300 H   0  0  0  0  0  0  0  0  0  0  0  0
  -44.2780  -67.5470   54.9030 H   0  0  0  0  0  0  0  0  0  0  0  0
  -39.5020  -70.5460   54.7230 H   0  0  0  0  0  0  0  0  0  0  0  0
  -37.5970  -70.4300   53.0700 H   0  0  0  0  0  0  0  0  0  0  0  0
  -40.7370  -66.9300   50.3230 H   0  0  0  0  0  0  0  0  0  0  0  0
  -39.4880  -65.9880   51.1060 H   0  0  0  0  0  0  0  0  0  0  0  0
  -38.5020  -68.0790   49.4140 H   0  0  0  0  0  0  0  0  0  0  0  0
  -38.8930  -67.1850   47.4750 H   0  0  0  0  0  0  0  0  0  0  0  0
  -40.5070  -67.2660   48.2100 H   0  0  0  0  0  0  0  0  0  0  0  0
  -39.0410  -64.9640   47.1400 H   0  0  0  0  0  0  0  0  0  0  0  0
  -40.6790  -65.0110   47.8050 H   0  0  0  0  0  0  0  0  0  0  0  0
  -37.4760  -64.2840   50.1850 H   0  0  0  0  0  0  0  0  0  0  0  0
  -37.2160  -64.5410   48.4100 H   0  0  0  0  0  0  0  0  0  0  0  0
  -37.2100  -66.4700   50.6510 H   0  0  0  0  0  0  0  0  0  0  0  0
  -36.8860  -66.7320   48.9370 H   0  0  0  0  0  0  0  0  0  0  0  0
  1  2  1  0  0  0  0
  2  3  1  0  0  0  0
  3 29  1  0  0  0  0
  3  4  2  0  0  0  0
  4 10  1  0  0  0  0
  5  8  1  0  0  0  0
  5  4  1  0  0  0  0
  6  5  2  0  0  0  0
  7  6  1  0  0  0  0
  7  2  2  0  0  0  0
  9 32  1  0  0  0  0
  9  8  1  0  0  0  0
 10 35  1  0  0  0  0
 11 10  2  0  0  0  0
 11 27  1  0  0  0  0
 12 11  1  0  0  0  0
 13 12  1  0  0  0  0
 13 14  1  0  0  0  0
 14 15  2  0  0  0  0
 14 27  1  0  0  0  0
 15 36  1  0  0  0  0
 16 37  1  0  0  0  0
 16 15  1  0  0  0  0
 17 16  2  0  0  0  0
 18 17  1  0  0  0  0
 18 13  2  0  0  0  0
 19 39  1  0  0  0  0
 19 18  1  0  0  0  0
 20 25  1  0  0  0  0
 20 19  1  0  0  0  0
 21 20  1  0  0  0  0
 22 21  1  0  0  0  0
 22 23  1  0  0  0  0
 23 24  1  0  0  0  0
 24 25  1  0  0  0  0
 24 45  1  0  0  0  0
 25 47  1  0  0  0  0
 26 17  1  0  0  0  0
 27 28  2  0  0  0  0
 30  6  1  0  0  0  0
 31  7  1  0  0  0  0
 33  9  1  0  0  0  0
 34  9  1  0  0  0  0
 38 19  1  0  0  0  0
 40 20  1  0  0  0  0
 41 21  1  0  0  0  0
 42 21  1  0  0  0  0
 43 22  1  0  0  0  0
 44 22  1  0  0  0  0
 46 24  1  0  0  0  0
 48 25  1  0  0  0  0
M  END
>  <Pose>
1

>  <Score>
-6.19

$$$$
