
 OpenBabel03202209423D

 49 52  0  0  0  0  0  0  0  0999 V2000
  -40.8410  -69.0080   54.7020 B   0  0  0  0  0  0  0  0  0  0  0  0
  -42.1040  -67.7010   54.1680 C   0  0  0  0  0  0  0  0  0  0  0  0
  -41.8270  -66.9030   53.0730 C   0  0  0  0  0  0  0  0  0  0  0  0
  -42.7060  -65.9310   52.6330 C   0  0  0  0  0  0  0  0  0  0  0  0
  -43.8970  -65.7720   53.3280 C   0  0  0  0  0  0  0  0  0  0  0  0
  -44.1650  -66.5680   54.4160 C   0  0  0  0  0  0  0  0  0  0  0  0
  -43.3010  -67.5410   54.8680 C   0  0  0  0  0  0  0  0  0  0  0  0
  -42.4430  -65.0750   51.4850 C   0  0  0  0  0  0  0  0  0  0  0  0
  -42.5310  -63.8270   51.6100 O   0  0  0  0  0  0  0  0  0  0  0  0
  -42.0870  -65.5800   50.2140 N   0  0  0  0  0  0  0  0  0  0  0  0
  -40.7150  -65.5980   49.7530 C   0  0  0  0  0  0  0  0  0  0  0  0
  -40.2280  -64.2320   49.4260 C   0  0  0  0  0  0  0  0  0  0  0  0
  -41.0220  -63.2810   49.6280 O   0  0  0  0  0  0  0  0  0  0  0  0
  -38.9500  -63.9630   48.9120 N   0  0  0  0  0  0  0  0  0  0  0  0
  -38.7460  -63.3480   47.6240 C   0  0  0  0  0  0  0  0  0  0  0  0
  -38.0400  -64.3680   46.7580 C   0  0  0  0  0  0  0  0  0  0  0  0
  -36.8330  -64.9080   47.4880 C   0  0  0  0  0  0  0  0  0  0  0  0
  -37.0340  -66.3260   47.6970 N   0  0  0  0  0  0  0  0  0  0  0  0
  -35.9260  -67.0110   48.2650 C   0  0  0  0  0  0  0  0  0  0  0  0
  -34.5740  -66.6170   47.7960 C   0  0  0  0  0  0  0  0  0  0  0  0
  -34.5650  -65.6160   46.7080 C   0  0  0  0  0  0  0  0  0  0  0  0
  -33.6420  -65.3060   45.7460 N   0  0  0  0  0  0  0  0  0  0  0  0
  -34.1620  -64.3050   45.0260 C   0  0  0  0  0  0  0  0  0  0  0  0
  -35.3740  -63.9920   45.5140 N   0  0  0  0  0  0  0  0  0  0  0  0
  -35.6600  -64.7940   46.5710 C   0  0  0  0  0  0  0  0  0  0  0  0
  -36.5350  -64.2200   48.7820 C   0  0  0  0  0  0  0  0  0  0  0  0
  -37.7760  -64.3010   49.6760 C   0  0  0  0  0  0  0  0  0  0  0  0
  -40.9060  -67.0550   52.5680 H   0  0  0  0  0  0  0  0  0  0  0  0
  -44.6430  -65.0320   53.0500 H   0  0  0  0  0  0  0  0  0  0  0  0
  -45.0910  -66.4590   54.9730 H   0  0  0  0  0  0  0  0  0  0  0  0
  -43.4780  -68.1750   55.7050 H   0  0  0  0  0  0  0  0  0  0  0  0
  -42.8340  -65.9480   49.5930 H   0  0  0  0  0  0  0  0  0  0  0  0
  -40.6180  -66.1960   48.8240 H   0  0  0  0  0  0  0  0  0  0  0  0
  -40.1180  -66.0820   50.5510 H   0  0  0  0  0  0  0  0  0  0  0  0
  -38.0920  -62.4440   47.7180 H   0  0  0  0  0  0  0  0  0  0  0  0
  -39.6830  -62.9870   47.1640 H   0  0  0  0  0  0  0  0  0  0  0  0
  -37.7610  -63.9450   45.7690 H   0  0  0  0  0  0  0  0  0  0  0  0
  -38.7950  -65.1800   46.5760 H   0  0  0  0  0  0  0  0  0  0  0  0
  -37.8600  -66.4500   48.3410 H   0  0  0  0  0  0  0  0  0  0  0  0
  -36.0580  -68.1040   48.0100 H   0  0  0  0  0  0  0  0  0  0  0  0
  -35.9480  -67.0100   49.3890 H   0  0  0  0  0  0  0  0  0  0  0  0
  -33.9680  -67.5010   47.4330 H   0  0  0  0  0  0  0  0  0  0  0  0
  -33.9410  -66.2140   48.6380 H   0  0  0  0  0  0  0  0  0  0  0  0
  -32.7060  -65.7950   45.6360 H   0  0  0  0  0  0  0  0  0  0  0  0
  -33.6870  -63.8250   44.1860 H   0  0  0  0  0  0  0  0  0  0  0  0
  -36.1720  -63.1990   48.6640 H   0  0  0  0  0  0  0  0  0  0  0  0
  -35.7530  -64.8000   49.3030 H   0  0  0  0  0  0  0  0  0  0  0  0
  -37.6890  -63.5900   50.5240 H   0  0  0  0  0  0  0  0  0  0  0  0
  -37.7990  -65.3120   50.0900 H   0  0  0  0  0  0  0  0  0  0  0  0
  2  1  1  0  0  0  0
  2  7  1  0  0  0  0
  3  2  2  0  0  0  0
  4  3  1  0  0  0  0
  4  5  2  0  0  0  0
  5  6  1  0  0  0  0
  6  7  2  0  0  0  0
  6 30  1  0  0  0  0
  7 31  1  0  0  0  0
  8  9  2  0  0  0  0
  8  4  1  0  0  0  0
 10  8  1  0  0  0  0
 11 10  1  0  0  0  0
 11 34  1  0  0  0  0
 12 13  2  0  0  0  0
 12 11  1  0  0  0  0
 14 12  1  0  0  0  0
 14 27  1  0  0  0  0
 15 35  1  0  0  0  0
 15 14  1  0  0  0  0
 16 17  1  0  0  0  0
 16 15  1  0  0  0  0
 17 18  1  0  0  0  0
 17 26  1  0  0  0  0
 18 19  1  0  0  0  0
 18 39  1  0  0  0  0
 19 41  1  0  0  0  0
 20 19  1  0  0  0  0
 20 43  1  0  0  0  0
 21 20  1  0  0  0  0
 22 21  1  0  0  0  0
 23 24  2  0  0  0  0
 23 22  1  0  0  0  0
 24 25  1  0  0  0  0
 25 21  2  0  0  0  0
 25 17  1  0  0  0  0
 26 47  1  0  0  0  0
 26 27  1  0  0  0  0
 27 49  1  0  0  0  0
 27 48  1  0  0  0  0
 28  3  1  0  0  0  0
 29  5  1  0  0  0  0
 32 10  1  0  0  0  0
 33 11  1  0  0  0  0
 36 15  1  0  0  0  0
 37 16  1  0  0  0  0
 38 16  1  0  0  0  0
 40 19  1  0  0  0  0
 42 20  1  0  0  0  0
 44 22  1  0  0  0  0
 45 23  1  0  0  0  0
 46 26  1  0  0  0  0
M  END
>  <Pose>
1

>  <Score>
-6.20

$$$$
