
 OpenBabel03202209423D

 42 45  0  0  1  0  0  0  0  0999 V2000
  -40.7040  -69.0240   55.0400 B   0  0  0  0  0  0  0  0  0  0  0  0
  -41.9350  -67.8490   54.1920 C   0  0  0  0  0  0  0  0  0  0  0  0
  -41.6300  -67.1710   53.0400 C   0  0  0  0  0  0  0  0  0  0  0  0
  -42.4990  -66.3180   52.4080 C   0  0  0  0  0  0  0  0  0  0  0  0
  -43.7360  -66.1530   52.9830 C   0  0  0  0  0  0  0  0  0  0  0  0
  -44.0890  -66.8280   54.1610 C   0  0  0  0  0  0  0  0  0  0  0  0
  -43.1770  -67.6800   54.7640 C   0  0  0  0  0  0  0  0  0  0  0  0
  -42.1620  -65.6070   51.1870 C   0  0  0  0  0  0  0  0  0  0  0  0
  -42.0100  -64.3420   51.3120 O   0  0  0  0  0  0  0  0  0  0  0  0
  -41.9970  -66.2010   49.9160 N   0  0  0  0  0  0  0  0  0  0  0  0
  -40.7280  -66.6790   49.5100 C   0  0  2  0  0  0  0  0  0  0  0  0
  -39.8870  -67.2630   50.5950 C   0  0  0  0  0  0  0  0  0  0  0  0
  -38.5290  -67.2040   50.0260 N   0  0  0  0  0  0  0  0  0  0  0  0
  -38.5420  -66.3480   48.8490 C   0  0  1  0  0  0  0  0  0  0  0  0
  -39.8060  -65.5590   49.0050 C   0  0  0  0  0  0  0  0  0  0  0  0
  -37.3230  -65.5430   48.8650 C   0  0  0  0  0  0  0  0  0  0  0  0
  -37.3230  -64.3740   48.4610 O   0  0  0  0  0  0  0  0  0  0  0  0
  -36.1030  -66.1160   49.3570 N   0  0  0  0  0  0  0  0  0  0  0  0
  -36.1100  -67.5430   49.5650 C   0  0  1  0  0  0  0  0  0  0  0  0
  -34.8380  -67.9830   50.1630 C   0  0  0  0  0  0  0  0  0  0  0  0
  -33.9260  -66.8020   49.8910 C   0  0  0  0  0  0  0  0  0  0  0  0
  -34.8120  -65.6150   49.7150 C   0  0  0  0  0  0  0  0  0  0  0  0
  -37.3090  -67.8160   50.4320 C   0  0  0  0  0  0  0  0  0  0  0  0
  -37.2350  -68.5390   51.4510 O   0  0  0  0  0  0  0  0  0  0  0  0
  -40.6500  -67.2980   52.5800 H   0  0  0  0  0  0  0  0  0  0  0  0
  -44.4810  -65.5020   52.5530 H   0  0  0  0  0  0  0  0  0  0  0  0
  -45.0620  -66.6980   54.6130 H   0  0  0  0  0  0  0  0  0  0  0  0
  -43.4920  -68.1780   55.6700 H   0  0  0  0  0  0  0  0  0  0  0  0
  -42.8160  -66.2810   49.2870 H   0  0  0  0  0  0  0  0  0  0  0  0
  -40.7730  -67.4130   48.6820 H   0  0  0  0  0  0  0  0  0  0  0  0
  -39.9380  -66.5490   51.4660 H   0  0  0  0  0  0  0  0  0  0  0  0
  -40.1590  -68.2680   50.9120 H   0  0  0  0  0  0  0  0  0  0  0  0
  -38.6000  -67.0250   47.9580 H   0  0  0  0  0  0  0  0  0  0  0  0
  -39.6610  -64.7880   49.7640 H   0  0  0  0  0  0  0  0  0  0  0  0
  -40.1920  -65.1810   48.0370 H   0  0  0  0  0  0  0  0  0  0  0  0
  -36.3570  -68.0560   48.5950 H   0  0  0  0  0  0  0  0  0  0  0  0
  -34.4420  -68.8440   49.5680 H   0  0  0  0  0  0  0  0  0  0  0  0
  -34.8690  -68.2710   51.2210 H   0  0  0  0  0  0  0  0  0  0  0  0
  -33.3690  -66.9680   48.9240 H   0  0  0  0  0  0  0  0  0  0  0  0
  -33.2060  -66.7320   50.7160 H   0  0  0  0  0  0  0  0  0  0  0  0
  -34.8130  -65.0480   50.6730 H   0  0  0  0  0  0  0  0  0  0  0  0
  -34.3750  -64.9510   48.9140 H   0  0  0  0  0  0  0  0  0  0  0  0
  2  7  1  0  0  0  0
  2  1  1  0  0  0  0
  3  2  2  0  0  0  0
  4  5  2  0  0  0  0
  4  3  1  0  0  0  0
  5  6  1  0  0  0  0
  6 27  1  0  0  0  0
  6  7  2  0  0  0  0
  7 28  1  0  0  0  0
  8  9  2  0  0  0  0
  8  4  1  0  0  0  0
 10  8  1  0  0  0  0
 11 30  1  6  0  0  0
 11 10  1  0  0  0  0
 11 12  1  0  0  0  0
 12 32  1  0  0  0  0
 12 31  1  0  0  0  0
 13 23  1  0  0  0  0
 13 12  1  0  0  0  0
 14 33  1  6  0  0  0
 14 16  1  0  0  0  0
 14 15  1  0  0  0  0
 14 13  1  0  0  0  0
 15 11  1  0  0  0  0
 15 34  1  0  0  0  0
 16 18  1  0  0  0  0
 17 16  2  0  0  0  0
 18 19  1  0  0  0  0
 18 22  1  0  0  0  0
 19 36  1  6  0  0  0
 19 20  1  0  0  0  0
 19 23  1  0  0  0  0
 20 38  1  0  0  0  0
 21 20  1  0  0  0  0
 21 40  1  0  0  0  0
 22 21  1  0  0  0  0
 22 41  1  0  0  0  0
 23 24  2  0  0  0  0
 25  3  1  0  0  0  0
 26  5  1  0  0  0  0
 29 10  1  0  0  0  0
 35 15  1  0  0  0  0
 37 20  1  0  0  0  0
 39 21  1  0  0  0  0
 42 22  1  0  0  0  0
M  END
>  <Pose>
1

>  <Score>
-6.20

$$$$
