
 OpenBabel03202209423D

 52 55  0  0  0  0  0  0  0  0999 V2000
  -48.3710  -67.3090   54.6210 B   0  0  0  0  0  0  0  0  0  0  0  0
  -47.7850  -66.0430   53.3050 C   0  0  0  0  0  0  0  0  0  0  0  0
  -46.5520  -66.1710   52.6660 C   0  0  0  0  0  0  0  0  0  0  0  0
  -46.1630  -65.2130   51.7500 C   0  0  0  0  0  0  0  0  0  0  0  0
  -47.0280  -64.1630   51.4990 C   0  0  0  0  0  0  0  0  0  0  0  0
  -48.2270  -64.0800   52.1450 C   0  0  0  0  0  0  0  0  0  0  0  0
  -48.6630  -64.9910   53.0720 C   0  0  0  0  0  0  0  0  0  0  0  0
  -44.8370  -65.1440   51.1050 C   0  0  0  0  0  0  0  0  0  0  0  0
  -43.7480  -64.8640   51.7640 N   0  0  0  0  0  0  0  0  0  0  0  0
  -42.5230  -64.7580   51.2970 N   0  0  0  0  0  0  0  0  0  0  0  0
  -41.1690  -64.6200   51.4000 C   0  0  0  0  0  0  0  0  0  0  0  0
  -40.5040  -64.2160   52.3790 O   0  0  0  0  0  0  0  0  0  0  0  0
  -40.3840  -65.0350   50.1640 C   0  0  0  0  0  0  0  0  0  0  0  0
  -40.0850  -64.3920   49.0870 N   0  0  0  0  0  0  0  0  0  0  0  0
  -39.2090  -65.0910   48.3700 N   0  0  0  0  0  0  0  0  0  0  0  0
  -38.9260  -66.2430   49.0330 N   0  0  0  0  0  0  0  0  0  0  0  0
  -39.6330  -66.2740   50.1140 C   0  0  0  0  0  0  0  0  0  0  0  0
  -39.8430  -67.2250   51.2000 C   0  0  0  0  0  0  0  0  0  0  0  0
  -39.4970  -68.5700   51.1200 N   0  0  0  0  0  0  0  0  0  0  0  0
  -38.4130  -69.3090   51.4030 C   0  0  0  0  0  0  0  0  0  0  0  0
  -38.7200  -70.1690   52.6600 C   0  0  0  0  0  0  0  0  0  0  0  0
  -39.7330  -69.4970   53.3930 N   0  0  0  0  0  0  0  0  0  0  0  0
  -40.9910  -69.5630   52.7120 C   0  0  0  0  0  0  0  0  0  0  0  0
  -40.7130  -69.4340   51.2090 C   0  0  0  0  0  0  0  0  0  0  0  0
  -39.7660  -69.6030   54.7900 C   0  0  0  0  0  0  0  0  0  0  0  0
  -37.6780  -66.9060   48.6870 C   0  0  0  0  0  0  0  0  0  0  0  0
  -36.6940  -66.8660   49.7420 N   0  0  0  0  0  0  0  0  0  0  0  0
  -35.6420  -67.4410   49.3950 O   0  0  0  0  0  0  0  0  0  0  0  0
  -35.7790  -67.8850   48.1840 N   0  0  0  0  0  0  0  0  0  0  0  0
  -37.0610  -67.5440   47.7540 C   0  0  0  0  0  0  0  0  0  0  0  0
  -37.4760  -67.9170   46.4600 N   0  0  0  0  0  0  0  0  0  0  0  0
  -45.9170  -66.9940   52.8950 H   0  0  0  0  0  0  0  0  0  0  0  0
  -46.7050  -63.4280   50.7690 H   0  0  0  0  0  0  0  0  0  0  0  0
  -48.9270  -63.2410   51.9280 H   0  0  0  0  0  0  0  0  0  0  0  0
  -49.6080  -64.8790   53.5620 H   0  0  0  0  0  0  0  0  0  0  0  0
  -44.7230  -65.2240   50.0460 H   0  0  0  0  0  0  0  0  0  0  0  0
  -42.6900  -64.9290   50.0970 H   0  0  0  0  0  0  0  0  0  0  0  0
  -39.0860  -66.7460   52.0550 H   0  0  0  0  0  0  0  0  0  0  0  0
  -40.7770  -67.1070   51.7570 H   0  0  0  0  0  0  0  0  0  0  0  0
  -37.4330  -68.8830   51.4820 H   0  0  0  0  0  0  0  0  0  0  0  0
  -38.2920  -70.1040   50.5590 H   0  0  0  0  0  0  0  0  0  0  0  0
  -39.0540  -71.1410   52.3470 H   0  0  0  0  0  0  0  0  0  0  0  0
  -37.7940  -70.1920   53.2420 H   0  0  0  0  0  0  0  0  0  0  0  0
  -41.7200  -68.7430   52.9950 H   0  0  0  0  0  0  0  0  0  0  0  0
  -41.4900  -70.5130   52.9330 H   0  0  0  0  0  0  0  0  0  0  0  0
  -41.5070  -69.0350   50.6330 H   0  0  0  0  0  0  0  0  0  0  0  0
  -40.4240  -70.3940   50.8250 H   0  0  0  0  0  0  0  0  0  0  0  0
  -38.9100  -70.2680   55.1070 H   0  0  0  0  0  0  0  0  0  0  0  0
  -39.5590  -68.5750   55.2260 H   0  0  0  0  0  0  0  0  0  0  0  0
  -40.6980  -70.0060   55.1860 H   0  0  0  0  0  0  0  0  0  0  0  0
  -36.8680  -68.7030   46.0390 H   0  0  0  0  0  0  0  0  0  0  0  0
  -38.2180  -67.5930   45.8700 H   0  0  0  0  0  0  0  0  0  0  0  0
  2  1  1  0  0  0  0
  3 32  1  0  0  0  0
  3  2  2  0  0  0  0
  4  3  1  0  0  0  0
  5  4  2  0  0  0  0
  5  6  1  0  0  0  0
  6  7  2  0  0  0  0
  7  2  1  0  0  0  0
  7 35  1  0  0  0  0
  8  4  1  0  0  0  0
  8  9  2  0  0  0  0
 10 11  1  0  0  0  0
 10  9  1  0  0  0  0
 11 12  2  0  0  0  0
 13 11  1  0  0  0  0
 14 13  1  0  0  0  0
 15 16  1  0  0  0  0
 15 14  2  0  0  0  0
 16 17  1  0  0  0  0
 17 13  2  0  0  0  0
 17 18  1  0  0  0  0
 18 39  1  0  0  0  0
 18 38  1  0  0  0  0
 19 18  1  0  0  0  0
 19 24  1  0  0  0  0
 19 20  1  0  0  0  0
 20 40  1  0  0  0  0
 20 21  1  0  0  0  0
 21 43  1  0  0  0  0
 21 22  1  0  0  0  0
 22 25  1  0  0  0  0
 23 45  1  0  0  0  0
 23 44  1  0  0  0  0
 23 22  1  0  0  0  0
 24 23  1  0  0  0  0
 25 48  1  0  0  0  0
 25 50  1  0  0  0  0
 25 49  1  0  0  0  0
 26 16  1  0  0  0  0
 26 27  2  0  0  0  0
 28 27  1  0  0  0  0
 29 28  1  0  0  0  0
 30 29  2  0  0  0  0
 30 26  1  0  0  0  0
 31 30  1  0  0  0  0
 33  5  1  0  0  0  0
 34  6  1  0  0  0  0
 36  8  1  0  0  0  0
 37 10  1  0  0  0  0
 41 20  1  0  0  0  0
 42 21  1  0  0  0  0
 46 24  1  0  0  0  0
 47 24  1  0  0  0  0
 51 31  1  0  0  0  0
 52 31  1  0  0  0  0
M  END
>  <Pose>
1

>  <Score>
-7.09

$$$$
