
 OpenBabel03202209423D

 61 64  0  0  1  0  0  0  0  0999 V2000
  -41.3850  -69.3800   55.0880 B   0  0  0  0  0  0  0  0  0  0  0  0
  -40.8670  -68.4080   53.5280 C   0  0  0  0  0  0  0  0  0  0  0  0
  -41.2350  -67.1220   53.2790 C   0  0  0  0  0  0  0  0  0  0  0  0
  -40.8820  -66.3840   52.1620 C   0  0  0  0  0  0  0  0  0  0  0  0
  -40.0800  -67.0120   51.2120 C   0  0  0  0  0  0  0  0  0  0  0  0
  -39.6870  -68.3170   51.4340 C   0  0  0  0  0  0  0  0  0  0  0  0
  -40.0580  -69.0280   52.5620 C   0  0  0  0  0  0  0  0  0  0  0  0
  -41.3880  -65.0130   52.0440 C   0  0  1  0  0  0  0  0  0  0  0  0
  -41.0770  -64.4640   50.7780 N   0  0  0  0  0  0  0  0  0  0  0  0
  -42.2710  -64.2420   50.0460 C   0  0  0  0  0  0  0  0  0  0  0  0
  -42.3230  -63.8450   48.8400 O   0  0  0  0  0  0  0  0  0  0  0  0
  -43.3980  -64.5350   50.9040 C   0  0  0  0  0  0  0  0  0  0  0  0
  -44.5860  -64.4230   50.4990 O   0  0  0  0  0  0  0  0  0  0  0  0
  -42.8660  -64.9480   52.1890 C   0  0  0  0  0  0  0  0  0  0  0  0
  -43.5980  -65.2510   53.2370 C   0  0  0  0  0  0  0  0  0  0  0  0
  -42.9780  -65.6950   54.3820 O   0  0  0  0  0  0  0  0  0  0  0  0
  -45.0330  -65.1190   53.2100 C   0  0  0  0  0  0  0  0  0  0  0  0
  -45.9220  -66.1300   53.6160 C   0  0  0  0  0  0  0  0  0  0  0  0
  -47.1780  -65.6800   53.5040 N   0  0  0  0  0  0  0  0  0  0  0  0
  -47.1070  -64.4420   53.0490 N   0  0  0  0  0  0  0  0  0  0  0  0
  -45.8330  -64.0660   52.8610 C   0  0  0  0  0  0  0  0  0  0  0  0
  -48.3740  -66.3770   53.8230 C   0  0  0  0  0  0  0  0  0  0  0  0
  -48.4580  -67.7300   53.5220 C   0  0  0  0  0  0  0  0  0  0  0  0
  -49.5850  -68.4730   53.8120 C   0  0  0  0  0  0  0  0  0  0  0  0
  -50.6930  -67.8870   54.4270 C   0  0  0  0  0  0  0  0  0  0  0  0
  -50.6090  -66.5390   54.7270 C   0  0  0  0  0  0  0  0  0  0  0  0
  -49.4780  -65.8230   54.4270 C   0  0  0  0  0  0  0  0  0  0  0  0
  -45.4880  -67.4750   54.0920 C   0  0  0  0  0  0  0  0  0  0  0  0
  -39.7210  -64.1290   50.2570 C   0  0  0  0  0  0  0  0  0  0  0  0
  -39.8510  -63.2770   49.0210 C   0  0  0  0  0  0  0  0  0  0  0  0
  -38.5620  -63.0970   48.2830 C   0  0  0  0  0  0  0  0  0  0  0  0
  -37.4080  -62.8460   49.0810 N   0  0  0  0  0  4  0  0  0  0  0  0
  -36.7280  -63.9900   49.5920 C   0  0  0  0  0  0  0  0  0  0  0  0
  -36.4300  -62.0510   48.3210 C   0  0  0  0  0  0  0  0  0  0  0  0
  -41.8750  -66.6550   54.0530 H   0  0  0  0  0  0  0  0  0  0  0  0
  -39.7880  -66.4720   50.3300 H   0  0  0  0  0  0  0  0  0  0  0  0
  -39.0560  -68.8050   50.6850 H   0  0  0  0  0  0  0  0  0  0  0  0
  -39.7520  -70.0540   52.7370 H   0  0  0  0  0  0  0  0  0  0  0  0
  -40.8970  -64.3830   52.8300 H   0  0  0  0  0  0  0  0  0  0  0  0
  -45.4890  -63.0920   52.5080 H   0  0  0  0  0  0  0  0  0  0  0  0
  -47.5700  -68.1710   53.0380 H   0  0  0  0  0  0  0  0  0  0  0  0
  -49.6180  -69.5280   53.5680 H   0  0  0  0  0  0  0  0  0  0  0  0
  -51.5730  -68.4970   54.6430 H   0  0  0  0  0  0  0  0  0  0  0  0
  -51.4830  -66.0940   55.2050 H   0  0  0  0  0  0  0  0  0  0  0  0
  -49.4550  -64.7740   54.6820 H   0  0  0  0  0  0  0  0  0  0  0  0
  -44.5640  -67.3920   54.7130 H   0  0  0  0  0  0  0  0  0  0  0  0
  -45.3750  -68.1920   53.2580 H   0  0  0  0  0  0  0  0  0  0  0  0
  -46.2630  -67.9000   54.7760 H   0  0  0  0  0  0  0  0  0  0  0  0
  -39.1120  -63.6710   51.0580 H   0  0  0  0  0  0  0  0  0  0  0  0
  -39.2570  -65.0980   49.9160 H   0  0  0  0  0  0  0  0  0  0  0  0
  -40.4950  -63.8990   48.3270 H   0  0  0  0  0  0  0  0  0  0  0  0
  -40.4330  -62.3680   49.1820 H   0  0  0  0  0  0  0  0  0  0  0  0
  -38.6410  -62.2420   47.5400 H   0  0  0  0  0  0  0  0  0  0  0  0
  -38.3700  -64.0030   47.6350 H   0  0  0  0  0  0  0  0  0  0  0  0
  -37.6710  -62.2180   49.9000 H   0  0  0  0  0  0  0  0  0  0  0  0
  -35.6390  -63.9960   49.3140 H   0  0  0  0  0  0  0  0  0  0  0  0
  -37.2010  -64.9720   49.3960 H   0  0  0  0  0  0  0  0  0  0  0  0
  -36.7110  -63.9100   50.7190 H   0  0  0  0  0  0  0  0  0  0  0  0
  -36.2080  -61.0940   48.8210 H   0  0  0  0  0  0  0  0  0  0  0  0
  -36.8850  -61.8420   47.3260 H   0  0  0  0  0  0  0  0  0  0  0  0
  -35.5150  -62.6550   48.1260 H   0  0  0  0  0  0  0  0  0  0  0  0
  2  1  1  0  0  0  0
  3  2  1  0  0  0  0
  3 35  1  0  0  0  0
  4  3  2  0  0  0  0
  5  6  2  0  0  0  0
  5  4  1  0  0  0  0
  6  7  1  0  0  0  0
  7 38  1  0  0  0  0
  7  2  2  0  0  0  0
  8  4  1  0  0  0  0
  8 14  1  0  0  0  0
  8 39  1  1  0  0  0
  9  8  1  0  0  0  0
 10  9  1  0  0  0  0
 10 12  1  0  0  0  0
 11 10  2  0  0  0  0
 12 14  1  0  0  0  0
 13 12  2  0  0  0  0
 14 15  2  0  0  0  0
 15 16  1  0  0  0  0
 17 15  1  0  0  0  0
 17 18  2  0  0  0  0
 18 28  1  0  0  0  0
 19 18  1  0  0  0  0
 19 22  1  0  0  0  0
 20 19  1  0  0  0  0
 21 20  2  0  0  0  0
 21 17  1  0  0  0  0
 22 27  1  0  0  0  0
 23 24  1  0  0  0  0
 23 22  2  0  0  0  0
 24 25  2  0  0  0  0
 25 43  1  0  0  0  0
 25 26  1  0  0  0  0
 26 44  1  0  0  0  0
 27 45  1  0  0  0  0
 27 26  2  0  0  0  0
 28 46  1  0  0  0  0
 28 48  1  0  0  0  0
 29  9  1  0  0  0  0
 29 49  1  0  0  0  0
 30 52  1  0  0  0  0
 30 29  1  0  0  0  0
 31 30  1  0  0  0  0
 31 32  1  0  0  0  0
 32 33  1  0  0  0  0
 32 55  1  0  0  0  0
 33 58  1  0  0  0  0
 34 59  1  0  0  0  0
 34 32  1  0  0  0  0
 36  5  1  0  0  0  0
 37  6  1  0  0  0  0
 40 21  1  0  0  0  0
 41 23  1  0  0  0  0
 42 24  1  0  0  0  0
 47 28  1  0  0  0  0
 50 29  1  0  0  0  0
 51 30  1  0  0  0  0
 53 31  1  0  0  0  0
 54 31  1  0  0  0  0
 56 33  1  0  0  0  0
 57 33  1  0  0  0  0
 60 34  1  0  0  0  0
 61 34  1  0  0  0  0
M  END
>  <Pose>
1

>  <Score>
-6.36

$$$$
