
 OpenBabel03202209423D

 56 59  0  0  1  0  0  0  0  0999 V2000
  -39.9520  -69.6930   54.1020 B   0  0  0  0  0  0  0  0  0  0  0  0
  -41.2270  -68.2720   54.1520 C   0  0  0  0  0  0  0  0  0  0  0  0
  -41.4030  -67.4250   53.0630 C   0  0  0  0  0  0  0  0  0  0  0  0
  -42.3160  -66.3910   53.0680 C   0  0  0  0  0  0  0  0  0  0  0  0
  -43.0600  -66.2310   54.2280 C   0  0  0  0  0  0  0  0  0  0  0  0
  -42.9010  -67.0580   55.3190 C   0  0  0  0  0  0  0  0  0  0  0  0
  -41.9800  -68.0740   55.2660 C   0  0  0  0  0  0  0  0  0  0  0  0
  -42.5030  -65.4850   51.9000 C   0  0  2  0  0  0  0  0  0  0  0  0
  -43.7370  -65.7150   51.2090 N   0  0  0  0  0  0  0  0  0  0  0  0
  -43.4600  -66.6860   50.2110 C   0  0  0  0  0  0  0  0  0  0  0  0
  -44.3110  -67.3980   49.6220 O   0  0  0  0  0  0  0  0  0  0  0  0
  -41.9990  -66.7300   49.9650 C   0  0  0  0  0  0  0  0  0  0  0  0
  -41.3840  -67.4510   49.1630 O   0  0  0  0  0  0  0  0  0  0  0  0
  -41.4360  -65.7430   50.8670 C   0  0  0  0  0  0  0  0  0  0  0  0
  -40.2660  -65.1490   50.7890 C   0  0  0  0  0  0  0  0  0  0  0  0
  -39.9250  -64.1790   51.7080 O   0  0  0  0  0  0  0  0  0  0  0  0
  -39.3120  -65.4870   49.7630 C   0  0  0  0  0  0  0  0  0  0  0  0
  -39.1070  -64.8190   48.5910 C   0  0  0  0  0  0  0  0  0  0  0  0
  -38.1240  -65.2340   47.7120 C   0  0  0  0  0  0  0  0  0  0  0  0
  -37.3050  -66.3160   47.9430 C   0  0  0  0  0  0  0  0  0  0  0  0
  -37.5140  -66.9900   49.1270 C   0  0  0  0  0  0  0  0  0  0  0  0
  -38.4850  -66.5950   50.0140 C   0  0  0  0  0  0  0  0  0  0  0  0
  -36.2530  -66.7420   46.9780 C   0  0  0  0  0  0  0  0  0  0  0  0
  -45.0530  -65.0930   51.4570 C   0  0  0  0  0  0  0  0  0  0  0  0
  -45.0320  -63.7340   50.8160 C   0  0  0  0  0  0  0  0  0  0  0  0
  -45.1040  -63.7310   49.4000 N   0  0  0  0  0  4  0  0  0  0  0  0
  -46.4130  -63.5780   48.8360 C   0  0  0  0  0  0  0  0  0  0  0  0
  -46.8050  -62.1530   48.5570 C   0  0  0  0  0  0  0  0  0  0  0  0
  -45.7910  -61.3930   48.0160 O   0  0  0  0  0  0  0  0  0  0  0  0
  -44.6640  -61.3890   48.8050 C   0  0  0  0  0  0  0  0  0  0  0  0
  -44.1410  -62.7990   48.8700 C   0  0  0  0  0  0  0  0  0  0  0  0
  -40.8040  -67.6010   52.2050 H   0  0  0  0  0  0  0  0  0  0  0  0
  -43.7850  -65.4400   54.2850 H   0  0  0  0  0  0  0  0  0  0  0  0
  -43.4970  -66.9060   56.2080 H   0  0  0  0  0  0  0  0  0  0  0  0
  -41.8530  -68.7320   56.1290 H   0  0  0  0  0  0  0  0  0  0  0  0
  -42.4850  -64.4550   52.2550 H   0  0  0  0  0  0  0  0  0  0  0  0
  -39.7580  -63.9800   48.3660 H   0  0  0  0  0  0  0  0  0  0  0  0
  -37.9820  -64.6850   46.7880 H   0  0  0  0  0  0  0  0  0  0  0  0
  -36.8680  -67.8540   49.3200 H   0  0  0  0  0  0  0  0  0  0  0  0
  -38.5970  -67.1710   50.9290 H   0  0  0  0  0  0  0  0  0  0  0  0
  -35.8320  -65.8670   46.4130 H   0  0  0  0  0  0  0  0  0  0  0  0
  -35.3680  -67.1390   47.5590 H   0  0  0  0  0  0  0  0  0  0  0  0
  -36.5750  -67.5410   46.3110 H   0  0  0  0  0  0  0  0  0  0  0  0
  -45.8330  -65.6940   50.9350 H   0  0  0  0  0  0  0  0  0  0  0  0
  -45.1600  -65.0790   52.5430 H   0  0  0  0  0  0  0  0  0  0  0  0
  -44.1070  -63.2200   51.2120 H   0  0  0  0  0  0  0  0  0  0  0  0
  -45.8760  -63.1560   51.2650 H   0  0  0  0  0  0  0  0  0  0  0  0
  -44.7520  -64.6830   49.0790 H   0  0  0  0  0  0  0  0  0  0  0  0
  -47.2050  -64.0080   49.4820 H   0  0  0  0  0  0  0  0  0  0  0  0
  -46.4930  -64.1220   47.8680 H   0  0  0  0  0  0  0  0  0  0  0  0
  -47.6400  -62.1590   47.8080 H   0  0  0  0  0  0  0  0  0  0  0  0
  -47.2080  -61.6250   49.4370 H   0  0  0  0  0  0  0  0  0  0  0  0
  -44.8220  -60.9400   49.8040 H   0  0  0  0  0  0  0  0  0  0  0  0
  -43.8900  -60.7750   48.3000 H   0  0  0  0  0  0  0  0  0  0  0  0
  -43.2310  -62.8830   49.5120 H   0  0  0  0  0  0  0  0  0  0  0  0
  -43.8240  -63.0920   47.8470 H   0  0  0  0  0  0  0  0  0  0  0  0
  1  2  1  0  0  0  0
  2  7  1  0  0  0  0
  3  4  1  0  0  0  0
  3  2  2  0  0  0  0
  4  5  2  0  0  0  0
  5 33  1  0  0  0  0
  5  6  1  0  0  0  0
  6 34  1  0  0  0  0
  7  6  2  0  0  0  0
  7 35  1  0  0  0  0
  8 36  1  1  0  0  0
  8  4  1  0  0  0  0
  9 24  1  0  0  0  0
  9  8  1  0  0  0  0
 10  9  1  0  0  0  0
 11 10  2  0  0  0  0
 12 10  1  0  0  0  0
 12 14  1  0  0  0  0
 13 12  2  0  0  0  0
 14  8  1  0  0  0  0
 15 14  2  0  0  0  0
 15 16  1  0  0  0  0
 17 22  1  0  0  0  0
 17 15  1  0  0  0  0
 18 17  2  0  0  0  0
 19 20  2  0  0  0  0
 19 18  1  0  0  0  0
 20 21  1  0  0  0  0
 21 39  1  0  0  0  0
 21 22  2  0  0  0  0
 22 40  1  0  0  0  0
 23 42  1  0  0  0  0
 23 20  1  0  0  0  0
 24 45  1  0  0  0  0
 25 46  1  0  0  0  0
 25 47  1  0  0  0  0
 25 24  1  0  0  0  0
 26 25  1  0  0  0  0
 27 26  1  0  0  0  0
 27 49  1  0  0  0  0
 28 27  1  0  0  0  0
 28 52  1  0  0  0  0
 29 28  1  0  0  0  0
 29 30  1  0  0  0  0
 30 31  1  0  0  0  0
 30 53  1  0  0  0  0
 31 26  1  0  0  0  0
 31 55  1  0  0  0  0
 32  3  1  0  0  0  0
 37 18  1  0  0  0  0
 38 19  1  0  0  0  0
 41 23  1  0  0  0  0
 43 23  1  0  0  0  0
 44 24  1  0  0  0  0
 48 26  1  0  0  0  0
 50 27  1  0  0  0  0
 51 28  1  0  0  0  0
 54 30  1  0  0  0  0
 56 31  1  0  0  0  0
M  END
>  <Pose>
1

>  <Score>
-4.82

$$$$
