
 OpenBabel03202209423D

 62 66  0  0  1  0  0  0  0  0999 V2000
  -41.1350  -68.5910   55.0270 B   0  0  0  0  0  0  0  0  0  0  0  0
  -41.3660  -67.7590   53.3160 C   0  0  0  0  0  0  0  0  0  0  0  0
  -42.2470  -66.7230   53.1520 C   0  0  0  0  0  0  0  0  0  0  0  0
  -42.4560  -66.0770   51.9170 C   0  0  0  0  0  0  0  0  0  0  0  0
  -41.6860  -66.5900   50.8970 C   0  0  0  0  0  0  0  0  0  0  0  0
  -40.7940  -67.6310   51.0390 C   0  0  0  0  0  0  0  0  0  0  0  0
  -40.6250  -68.2310   52.2660 C   0  0  0  0  0  0  0  0  0  0  0  0
  -43.3890  -64.9930   51.8420 C   0  0  2  0  0  0  0  0  0  0  0  0
  -44.7820  -65.2130   52.0110 N   0  0  0  0  0  0  0  0  0  0  0  0
  -45.3670  -63.8940   51.7530 C   0  0  0  0  0  0  0  0  0  0  0  0
  -46.4340  -63.4610   52.2170 O   0  0  0  0  0  0  0  0  0  0  0  0
  -44.4380  -63.2040   50.8430 C   0  0  0  0  0  0  0  0  0  0  0  0
  -44.5410  -62.0550   50.3570 O   0  0  0  0  0  0  0  0  0  0  0  0
  -43.3480  -64.1490   50.6110 C   0  0  0  0  0  0  0  0  0  0  0  0
  -42.5860  -64.2270   49.5510 C   0  0  0  0  0  0  0  0  0  0  0  0
  -41.6340  -65.2680   49.5190 O   0  0  0  0  0  0  0  0  0  0  0  0
  -42.6800  -63.2950   48.4370 C   0  0  0  0  0  0  0  0  0  0  0  0
  -43.6830  -63.0030   47.5970 N   0  0  0  0  0  0  0  0  0  0  0  0
  -43.2720  -62.1030   46.7000 C   0  0  0  0  0  0  0  0  0  0  0  0
  -41.9730  -61.8170   46.9820 N   0  0  0  0  0  0  0  0  0  0  0  0
  -41.5710  -62.5290   48.0440 C   0  0  0  0  0  0  0  0  0  0  0  0
  -40.2230  -62.5120   48.6780 C   0  0  0  0  0  0  0  0  0  0  0  0
  -44.1220  -61.6100   45.7130 C   0  0  0  0  0  0  0  0  0  0  0  0
  -45.4180  -62.0900   45.7010 C   0  0  0  0  0  0  0  0  0  0  0  0
  -45.8120  -63.0200   46.6440 C   0  0  0  0  0  0  0  0  0  0  0  0
  -44.9540  -63.4930   47.6070 C   0  0  0  0  0  0  0  0  0  0  0  0
  -43.6100  -60.6120   44.7430 C   0  0  0  0  0  0  0  0  0  0  0  0
  -45.5960  -66.3540   52.3930 C   0  0  0  0  0  0  0  0  0  0  0  0
  -46.4430  -66.1540   53.6020 C   0  0  0  0  0  0  0  0  0  0  0  0
  -46.5640  -67.3500   54.4120 N   0  0  0  0  0  4  0  0  0  0  0  0
  -47.9410  -67.6100   54.7700 C   0  0  0  0  0  0  0  0  0  0  0  0
  -48.7060  -68.1110   53.5410 C   0  0  0  0  0  0  0  0  0  0  0  0
  -48.1410  -69.3500   53.2210 O   0  0  0  0  0  0  0  0  0  0  0  0
  -46.8630  -69.0610   52.7020 C   0  0  0  0  0  0  0  0  0  0  0  0
  -45.9520  -68.4950   53.7660 C   0  0  0  0  0  0  0  0  0  0  0  0
  -42.8080  -66.3940   54.0320 H   0  0  0  0  0  0  0  0  0  0  0  0
  -41.7660  -66.1540   49.9350 H   0  0  0  0  0  0  0  0  0  0  0  0
  -40.2090  -68.0070   50.2140 H   0  0  0  0  0  0  0  0  0  0  0  0
  -39.9430  -69.0470   52.4340 H   0  0  0  0  0  0  0  0  0  0  0  0
  -43.1160  -64.2450   52.6650 H   0  0  0  0  0  0  0  0  0  0  0  0
  -39.6120  -63.3130   48.2140 H   0  0  0  0  0  0  0  0  0  0  0  0
  -40.3530  -62.7400   49.7420 H   0  0  0  0  0  0  0  0  0  0  0  0
  -39.7440  -61.5120   48.5250 H   0  0  0  0  0  0  0  0  0  0  0  0
  -46.1120  -61.7210   44.9380 H   0  0  0  0  0  0  0  0  0  0  0  0
  -46.8230  -63.4010   46.6420 H   0  0  0  0  0  0  0  0  0  0  0  0
  -45.2470  -64.2170   48.3480 H   0  0  0  0  0  0  0  0  0  0  0  0
  -44.3740  -60.4370   43.9570 H   0  0  0  0  0  0  0  0  0  0  0  0
  -42.6770  -61.0080   44.2660 H   0  0  0  0  0  0  0  0  0  0  0  0
  -43.3850  -59.6420   45.1960 H   0  0  0  0  0  0  0  0  0  0  0  0
  -46.2800  -66.5690   51.5400 H   0  0  0  0  0  0  0  0  0  0  0  0
  -44.9530  -67.2700   52.4710 H   0  0  0  0  0  0  0  0  0  0  0  0
  -45.8790  -65.3950   54.2360 H   0  0  0  0  0  0  0  0  0  0  0  0
  -47.4280  -65.7430   53.4770 H   0  0  0  0  0  0  0  0  0  0  0  0
  -46.0460  -67.2050   55.3120 H   0  0  0  0  0  0  0  0  0  0  0  0
  -48.3940  -66.6350   55.0290 H   0  0  0  0  0  0  0  0  0  0  0  0
  -48.0440  -68.2750   55.6270 H   0  0  0  0  0  0  0  0  0  0  0  0
  -49.7790  -68.1620   53.7490 H   0  0  0  0  0  0  0  0  0  0  0  0
  -48.4700  -67.4370   52.7010 H   0  0  0  0  0  0  0  0  0  0  0  0
  -47.0160  -68.2500   51.9490 H   0  0  0  0  0  0  0  0  0  0  0  0
  -46.3930  -69.9360   52.2520 H   0  0  0  0  0  0  0  0  0  0  0  0
  -45.0450  -68.1240   53.2440 H   0  0  0  0  0  0  0  0  0  0  0  0
  -45.6150  -69.2560   54.4950 H   0  0  0  0  0  0  0  0  0  0  0  0
  2  1  1  0  0  0  0
  3  2  1  0  0  0  0
  3 36  1  0  0  0  0
  4  3  2  0  0  0  0
  5  6  2  0  0  0  0
  5  4  1  0  0  0  0
  6  7  1  0  0  0  0
  7 39  1  0  0  0  0
  7  2  2  0  0  0  0
  8  4  1  0  0  0  0
  8  9  1  0  0  0  0
  8 40  1  1  0  0  0
  9 28  1  0  0  0  0
 10  9  1  0  0  0  0
 10 11  2  0  0  0  0
 12 10  1  0  0  0  0
 13 12  2  0  0  0  0
 14 12  1  0  0  0  0
 14  8  1  0  0  0  0
 15 14  2  0  0  0  0
 16 15  1  0  0  0  0
 16 37  1  0  0  0  0
 17 15  1  0  0  0  0
 18 26  1  0  0  0  0
 18 17  1  0  0  0  0
 19 20  2  0  0  0  0
 19 18  1  0  0  0  0
 20 21  1  0  0  0  0
 21 17  2  0  0  0  0
 21 22  1  0  0  0  0
 22 42  1  0  0  0  0
 23 19  1  0  0  0  0
 24 23  2  0  0  0  0
 24 25  1  0  0  0  0
 25 26  2  0  0  0  0
 26 46  1  0  0  0  0
 27 49  1  0  0  0  0
 27 23  1  0  0  0  0
 28 51  1  0  0  0  0
 28 29  1  0  0  0  0
 29 52  1  0  0  0  0
 29 30  1  0  0  0  0
 30 31  1  0  0  0  0
 30 54  1  0  0  0  0
 31 55  1  0  0  0  0
 31 56  1  0  0  0  0
 32 57  1  0  0  0  0
 32 31  1  0  0  0  0
 33 32  1  0  0  0  0
 34 33  1  0  0  0  0
 34 35  1  0  0  0  0
 35 30  1  0  0  0  0
 35 62  1  0  0  0  0
 38  6  1  0  0  0  0
 41 22  1  0  0  0  0
 43 22  1  0  0  0  0
 44 24  1  0  0  0  0
 45 25  1  0  0  0  0
 47 27  1  0  0  0  0
 48 27  1  0  0  0  0
 50 28  1  0  0  0  0
 53 29  1  0  0  0  0
 58 32  1  0  0  0  0
 59 34  1  0  0  0  0
 60 34  1  0  0  0  0
 61 35  1  0  0  0  0
M  END
>  <Pose>
1

>  <Score>
-4.71

$$$$
