
 OpenBabel03202209423D

 53 56  0  0  1  0  0  0  0  0999 V2000
  -44.8300  -61.7190   48.7740 B   0  0  0  0  0  0  0  0  0  0  0  0
  -43.1030  -62.3820   48.2690 C   0  0  0  0  0  0  0  0  0  0  0  0
  -42.5630  -63.5160   48.8560 C   0  0  0  0  0  0  0  0  0  0  0  0
  -41.3250  -64.0170   48.5170 C   0  0  0  0  0  0  0  0  0  0  0  0
  -40.6090  -63.3410   47.5480 C   0  0  0  0  0  0  0  0  0  0  0  0
  -41.1380  -62.1970   46.9460 C   0  0  0  0  0  0  0  0  0  0  0  0
  -42.3830  -61.7120   47.3010 C   0  0  0  0  0  0  0  0  0  0  0  0
  -40.7950  -65.2430   49.1840 C   0  0  2  0  0  0  0  0  0  0  0  0
  -40.9230  -65.1540   50.6310 N   0  0  0  0  0  0  0  0  0  0  0  0
  -39.8790  -64.2200   50.9950 C   0  0  0  0  0  0  0  0  0  0  0  0
  -39.8460  -63.5020   52.0180 O   0  0  0  0  0  0  0  0  0  0  0  0
  -38.8510  -64.2410   49.9630 C   0  0  0  0  0  0  0  0  0  0  0  0
  -37.7740  -63.6000   49.8550 O   0  0  0  0  0  0  0  0  0  0  0  0
  -39.3020  -65.2150   48.9700 C   0  0  0  0  0  0  0  0  0  0  0  0
  -38.6120  -65.8840   48.0920 C   0  0  0  0  0  0  0  0  0  0  0  0
  -39.3090  -66.7440   47.2160 O   0  0  0  0  0  0  0  0  0  0  0  0
  -37.1690  -65.7480   48.0230 C   0  0  0  0  0  0  0  0  0  0  0  0
  -36.5240  -65.4850   46.9180 O   0  0  0  0  0  0  0  0  0  0  0  0
  -35.2370  -65.4180   47.1260 C   0  0  0  0  0  0  0  0  0  0  0  0
  -35.0090  -65.6490   48.4480 C   0  0  0  0  0  0  0  0  0  0  0  0
  -36.2600  -65.8660   49.0380 C   0  0  0  0  0  0  0  0  0  0  0  0
  -41.8360  -65.7820   51.5480 C   0  0  0  0  0  0  0  0  0  0  0  0
  -43.2690  -65.3290   51.3920 C   0  0  0  0  0  0  0  0  0  0  0  0
  -44.1460  -66.1500   52.2510 C   0  0  0  0  0  0  0  0  0  0  0  0
  -44.7740  -65.4410   53.3430 N   0  0  0  0  0  4  0  0  0  0  0  0
  -45.7620  -64.4890   52.8900 C   0  0  0  0  0  0  0  0  0  0  0  0
  -47.1630  -64.9890   52.8980 C   0  0  0  0  0  0  0  0  0  0  0  0
  -47.5200  -65.7410   53.9980 O   0  0  0  0  0  0  0  0  0  0  0  0
  -46.6230  -66.7590   54.2930 C   0  0  0  0  0  0  0  0  0  0  0  0
  -45.2120  -66.2490   54.4300 C   0  0  0  0  0  0  0  0  0  0  0  0
  -43.1350  -64.0410   49.6190 H   0  0  0  0  0  0  0  0  0  0  0  0
  -39.6390  -63.7230   47.2740 H   0  0  0  0  0  0  0  0  0  0  0  0
  -40.5700  -61.6830   46.1940 H   0  0  0  0  0  0  0  0  0  0  0  0
  -42.8170  -60.8280   46.8520 H   0  0  0  0  0  0  0  0  0  0  0  0
  -41.1600  -66.1630   48.7420 H   0  0  0  0  0  0  0  0  0  0  0  0
  -34.5010  -65.2080   46.3460 H   0  0  0  0  0  0  0  0  0  0  0  0
  -34.0590  -65.6630   48.9440 H   0  0  0  0  0  0  0  0  0  0  0  0
  -36.3970  -66.0850   50.0820 H   0  0  0  0  0  0  0  0  0  0  0  0
  -41.8320  -66.8990   51.3660 H   0  0  0  0  0  0  0  0  0  0  0  0
  -41.4940  -65.6960   52.6080 H   0  0  0  0  0  0  0  0  0  0  0  0
  -43.5740  -65.4820   50.3310 H   0  0  0  0  0  0  0  0  0  0  0  0
  -43.2460  -64.2480   51.6590 H   0  0  0  0  0  0  0  0  0  0  0  0
  -43.6000  -66.9970   52.7420 H   0  0  0  0  0  0  0  0  0  0  0  0
  -44.9290  -66.6180   51.6240 H   0  0  0  0  0  0  0  0  0  0  0  0
  -43.9880  -64.8320   53.7370 H   0  0  0  0  0  0  0  0  0  0  0  0
  -45.7180  -63.5480   53.4840 H   0  0  0  0  0  0  0  0  0  0  0  0
  -45.4990  -64.2010   51.8490 H   0  0  0  0  0  0  0  0  0  0  0  0
  -47.8390  -64.0810   52.9130 H   0  0  0  0  0  0  0  0  0  0  0  0
  -47.4540  -65.5000   51.9330 H   0  0  0  0  0  0  0  0  0  0  0  0
  -46.9150  -67.1520   55.3010 H   0  0  0  0  0  0  0  0  0  0  0  0
  -46.6550  -67.6080   53.6060 H   0  0  0  0  0  0  0  0  0  0  0  0
  -45.2170  -65.6260   55.3770 H   0  0  0  0  0  0  0  0  0  0  0  0
  -44.5310  -67.0690   54.6390 H   0  0  0  0  0  0  0  0  0  0  0  0
  2  1  1  0  0  0  0
  2  3  1  0  0  0  0
  3 31  1  0  0  0  0
  4  3  2  0  0  0  0
  4  8  1  0  0  0  0
  5  4  1  0  0  0  0
  6  7  1  0  0  0  0
  6  5  2  0  0  0  0
  7  2  2  0  0  0  0
  8 35  1  6  0  0  0
  8  9  1  0  0  0  0
  9 10  1  0  0  0  0
  9 22  1  0  0  0  0
 10 11  2  0  0  0  0
 12 10  1  0  0  0  0
 13 12  2  0  0  0  0
 14  8  1  0  0  0  0
 14 12  1  0  0  0  0
 15 14  2  0  0  0  0
 16 15  1  0  0  0  0
 17 15  1  0  0  0  0
 17 21  2  0  0  0  0
 18 19  1  0  0  0  0
 18 17  1  0  0  0  0
 19 20  2  0  0  0  0
 20 37  1  0  0  0  0
 20 21  1  0  0  0  0
 21 38  1  0  0  0  0
 22 40  1  0  0  0  0
 23 22  1  0  0  0  0
 23 42  1  0  0  0  0
 23 24  1  0  0  0  0
 24 43  1  0  0  0  0
 24 25  1  0  0  0  0
 25 45  1  0  0  0  0
 25 30  1  0  0  0  0
 26 27  1  0  0  0  0
 26 25  1  0  0  0  0
 26 46  1  0  0  0  0
 27 48  1  0  0  0  0
 27 28  1  0  0  0  0
 28 29  1  0  0  0  0
 29 30  1  0  0  0  0
 29 50  1  0  0  0  0
 30 53  1  0  0  0  0
 30 52  1  0  0  0  0
 32  5  1  0  0  0  0
 33  6  1  0  0  0  0
 34  7  1  0  0  0  0
 36 19  1  0  0  0  0
 39 22  1  0  0  0  0
 41 23  1  0  0  0  0
 44 24  1  0  0  0  0
 47 26  1  0  0  0  0
 49 27  1  0  0  0  0
 51 29  1  0  0  0  0
M  END
>  <Pose>
1

>  <Score>
-5.18

$$$$
