
 OpenBabel03202209423D

 38 41  0  0  1  0  0  0  0  0999 V2000
  -44.4360  -60.3290   49.0100 B   0  0  0  0  0  0  0  0  0  0  0  0
  -45.4570  -61.7610   49.7440 C   0  0  0  0  0  0  0  0  0  0  0  0
  -44.8580  -62.9140   50.1940 C   0  0  0  0  0  0  0  0  0  0  0  0
  -45.5800  -63.9860   50.7390 C   0  0  0  0  0  0  0  0  0  0  0  0
  -46.9360  -63.8280   50.8040 C   0  0  0  0  0  0  0  0  0  0  0  0
  -47.5360  -62.6530   50.3450 C   0  0  0  0  0  0  0  0  0  0  0  0
  -46.8120  -61.6300   49.8210 C   0  0  0  0  0  0  0  0  0  0  0  0
  -44.8840  -65.1300   51.1750 N   0  0  0  0  0  0  0  0  0  0  0  0
  -45.2050  -65.8920   52.3090 C   0  0  0  0  0  0  0  0  0  0  0  0
  -45.9840  -66.8560   52.3390 O   0  0  0  0  0  0  0  0  0  0  0  0
  -44.5720  -65.5430   53.6290 C   0  0  2  0  0  0  0  0  0  0  0  0
  -43.0660  -65.5180   53.5950 C   0  0  0  0  0  0  0  0  0  0  0  0
  -43.0020  -66.8950   54.1080 N   0  0  2  0  0  0  0  0  0  0  0  0
  -44.3710  -66.7100   54.5510 C   0  0  0  0  0  0  0  0  0  0  0  0
  -41.9910  -67.8950   54.1190 C   0  0  2  0  0  0  0  0  0  0  0  0
  -41.9090  -68.8280   55.1020 N   0  0  0  0  0  0  0  0  0  0  0  0
  -40.9280  -69.7780   55.0890 C   0  0  0  0  0  0  0  0  0  0  0  0
  -40.0190  -69.8210   54.1100 N   0  0  0  0  0  0  0  0  0  0  0  0
  -40.0400  -68.9350   53.1130 C   0  0  0  0  0  0  0  0  0  0  0  0
  -39.2520  -68.7680   52.0320 N   0  0  0  0  0  0  0  0  0  0  0  0
  -39.7320  -67.7310   51.3800 N   0  0  0  0  0  0  0  0  0  0  0  0
  -40.8000  -67.2330   52.0130 N   0  0  0  0  0  0  0  0  0  0  0  0
  -41.0320  -67.9750   53.1290 C   0  0  0  0  0  0  0  0  0  0  0  0
  -38.0920  -69.5600   51.6320 C   0  0  0  0  0  0  0  0  0  0  0  0
  -43.7790  -62.9950   50.1220 H   0  0  0  0  0  0  0  0  0  0  0  0
  -47.5760  -64.6130   51.2140 H   0  0  0  0  0  0  0  0  0  0  0  0
  -48.6290  -62.5810   50.4210 H   0  0  0  0  0  0  0  0  0  0  0  0
  -47.3030  -60.7230   49.4700 H   0  0  0  0  0  0  0  0  0  0  0  0
  -44.0340  -65.4310   50.5720 H   0  0  0  0  0  0  0  0  0  0  0  0
  -44.9730  -64.6180   54.0760 H   0  0  0  0  0  0  0  0  0  0  0  0
  -42.6050  -65.5160   52.5850 H   0  0  0  0  0  0  0  0  0  0  0  0
  -42.5800  -64.8450   54.3080 H   0  0  0  0  0  0  0  0  0  0  0  0
  -45.0510  -67.5560   54.3170 H   0  0  0  0  0  0  0  0  0  0  0  0
  -44.3860  -66.4650   55.6230 H   0  0  0  0  0  0  0  0  0  0  0  0
  -40.9250  -70.4870   55.9020 H   0  0  0  0  0  0  0  0  0  0  0  0
  -37.9600  -69.5600   50.5380 H   0  0  0  0  0  0  0  0  0  0  0  0
  -38.2380  -70.6430   51.9160 H   0  0  0  0  0  0  0  0  0  0  0  0
  -37.1750  -69.2390   52.1300 H   0  0  0  0  0  0  0  0  0  0  0  0
  1  2  1  0  0  0  0
  2  7  2  0  0  0  0
  2  3  1  0  0  0  0
  3  4  2  0  0  0  0
  4  5  1  0  0  0  0
  4  8  1  0  0  0  0
  5 26  1  0  0  0  0
  6 27  1  0  0  0  0
  6  5  2  0  0  0  0
  7  6  1  0  0  0  0
  8  9  1  0  0  0  0
  9 10  2  0  0  0  0
  9 11  1  0  0  0  0
 11 30  1  1  0  0  0
 11 14  1  0  0  0  0
 12 11  1  0  0  0  0
 12 32  1  0  0  0  0
 13 12  1  1  0  0  0
 13 15  1  0  0  0  0
 13 14  1  0  0  0  0
 14 34  1  0  0  0  0
 15 23  1  1  0  0  0
 15 16  1  0  0  0  0
 17 16  2  0  0  0  0
 17 35  1  0  0  0  0
 18 17  1  0  0  0  0
 19 23  2  0  0  0  0
 19 18  1  0  0  0  0
 20 19  1  0  0  0  0
 21 22  2  0  0  0  0
 21 20  1  0  0  0  0
 22 23  1  0  0  0  0
 24 37  1  0  0  0  0
 24 20  1  0  0  0  0
 24 38  1  0  0  0  0
 25  3  1  0  0  0  0
 28  7  1  0  0  0  0
 29  8  1  0  0  0  0
 31 12  1  0  0  0  0
 33 14  1  0  0  0  0
 36 24  1  0  0  0  0
M  END
>  <Pose>
1

>  <Score>
-7.04

$$$$
