
 OpenBabel03202209423D

 25 28  0  0  1  0  0  0  0  0999 V2000
  -48.9710  -68.9860   53.6490 B   0  0  0  0  0  0  0  0  0  0  0  0
  -47.8020  -67.5080   53.3610 C   0  0  0  0  0  0  0  0  0  0  0  0
  -46.6250  -67.3590   54.0770 C   0  0  0  0  0  0  0  0  0  0  0  0
  -45.7390  -66.3280   53.9250 C   0  0  0  0  0  0  0  0  0  0  0  0
  -46.1150  -65.3820   52.9480 C   0  0  0  0  0  0  0  0  0  0  0  0
  -47.2740  -65.4970   52.2190 C   0  0  0  0  0  0  0  0  0  0  0  0
  -48.1230  -66.5620   52.4220 C   0  0  0  0  0  0  0  0  0  0  0  0
  -44.5330  -66.1390   54.6310 N   0  0  0  0  0  0  0  0  0  0  0  0
  -43.3520  -66.8910   54.4250 C   0  0  1  0  0  0  0  0  0  0  0  0
  -42.9820  -67.9960   55.0630 N   0  0  0  0  0  0  0  0  0  0  0  0
  -41.8490  -68.6810   54.8340 C   0  0  0  0  0  0  0  0  0  0  0  0
  -41.2630  -69.7860   55.3260 N   0  0  0  0  0  0  0  0  0  0  0  0
  -40.1340  -70.0240   54.7360 O   0  0  0  0  0  0  0  0  0  0  0  0
  -39.9530  -69.1000   53.8600 N   0  0  0  0  0  0  0  0  0  0  0  0
  -40.9730  -68.2250   53.8580 C   0  0  0  0  0  0  0  0  0  0  0  0
  -41.3040  -67.1130   53.1850 N   0  0  0  0  0  0  0  0  0  0  0  0
  -40.6390  -66.4890   52.2170 N   0  0  0  0  0  0  0  0  0  0  0  0
  -41.3700  -65.4230   51.8580 N   0  0  0  0  0  0  0  0  0  0  0  0
  -42.4720  -65.4080   52.6100 N   0  0  0  0  0  0  0  0  0  0  0  0
  -42.4450  -66.4540   53.4400 C   0  0  0  0  0  0  0  0  0  0  0  0
  -46.4300  -68.1270   54.7910 H   0  0  0  0  0  0  0  0  0  0  0  0
  -45.4760  -64.5400   52.7650 H   0  0  0  0  0  0  0  0  0  0  0  0
  -47.5500  -64.7590   51.4700 H   0  0  0  0  0  0  0  0  0  0  0  0
  -49.0330  -66.6580   51.8540 H   0  0  0  0  0  0  0  0  0  0  0  0
  -44.5430  -65.3720   55.3630 H   0  0  0  0  0  0  0  0  0  0  0  0
  2  1  1  0  0  0  0
  2  3  1  0  0  0  0
  3 21  1  0  0  0  0
  4  3  2  0  0  0  0
  4  8  1  0  0  0  0
  5  4  1  0  0  0  0
  6  7  1  0  0  0  0
  6  5  2  0  0  0  0
  7  2  2  0  0  0  0
  8 25  1  0  0  0  0
  9  8  1  6  0  0  0
  9 10  1  0  0  0  0
 11 10  2  0  0  0  0
 11 12  1  0  0  0  0
 13 12  1  0  0  0  0
 14 13  1  0  0  0  0
 15 14  2  0  0  0  0
 15 11  1  0  0  0  0
 16 20  1  0  0  0  0
 16 15  1  0  0  0  0
 17 16  1  0  0  0  0
 18 17  2  0  0  0  0
 18 19  1  0  0  0  0
 19 20  2  0  0  0  0
 20  9  1  0  0  0  0
 22  5  1  0  0  0  0
 23  6  1  0  0  0  0
 24  7  1  0  0  0  0
M  END
>  <Pose>
1

>  <Score>
-6.25

$$$$
