
 OpenBabel03202209423D

 37 40  0  0  1  0  0  0  0  0999 V2000
  -46.5830  -65.7050   53.6080 B   0  0  0  0  0  0  0  0  0  0  0  0
  -44.7620  -65.5910   53.0530 C   0  0  0  0  0  0  0  0  0  0  0  0
  -43.8400  -66.5670   53.3310 C   0  0  0  0  0  0  0  0  0  0  0  0
  -42.5050  -66.5100   52.9350 C   0  0  0  0  0  0  0  0  0  0  0  0
  -42.1450  -65.3770   52.2210 C   0  0  0  0  0  0  0  0  0  0  0  0
  -43.0610  -64.3930   51.9370 C   0  0  0  0  0  0  0  0  0  0  0  0
  -44.3910  -64.4680   52.3410 C   0  0  0  0  0  0  0  0  0  0  0  0
  -41.5880  -67.5390   53.2450 N   0  0  0  0  0  0  0  0  0  0  0  0
  -41.4910  -68.3500   54.4330 C   0  0  0  0  0  0  0  0  0  0  0  0
  -41.9730  -68.0140   55.5520 O   0  0  0  0  0  0  0  0  0  0  0  0
  -40.7660  -69.5790   54.1180 C   0  0  2  0  0  0  0  0  0  0  0  0
  -39.9360  -70.0990   55.0710 O   0  0  0  0  0  0  0  0  0  0  0  0
  -38.9080  -70.6410   54.3020 N   0  0  0  0  0  0  0  0  0  0  0  0
  -38.6490  -69.7590   53.2360 C   0  0  0  0  0  0  0  0  0  0  0  0
  -39.7860  -69.0660   53.0880 C   0  0  0  0  0  0  0  0  0  0  0  0
  -40.5120  -67.9990   52.4090 C   0  0  0  0  0  0  0  0  0  0  0  0
  -40.2400  -67.5530   51.2740 O   0  0  0  0  0  0  0  0  0  0  0  0
  -37.4550  -69.6330   52.4140 C   0  0  0  0  0  0  0  0  0  0  0  0
  -36.1660  -69.9830   52.8270 C   0  0  0  0  0  0  0  0  0  0  0  0
  -35.3350  -69.7650   51.8280 N   0  0  0  0  0  0  0  0  0  0  0  0
  -36.0320  -69.2910   50.7970 N   0  0  0  0  0  0  0  0  0  0  0  0
  -37.3100  -69.2020   51.1260 C   0  0  0  0  0  0  0  0  0  0  0  0
  -33.8900  -69.9880   51.8240 C   0  0  0  0  0  0  0  0  0  0  0  0
  -35.7850  -70.4870   54.1680 C   0  0  0  0  0  0  0  0  0  0  0  0
  -44.1200  -67.4510   53.8940 H   0  0  0  0  0  0  0  0  0  0  0  0
  -41.1150  -65.2890   51.8920 H   0  0  0  0  0  0  0  0  0  0  0  0
  -42.8040  -63.4850   51.3760 H   0  0  0  0  0  0  0  0  0  0  0  0
  -45.0990  -63.6890   52.1140 H   0  0  0  0  0  0  0  0  0  0  0  0
  -41.4310  -70.3470   53.6630 H   0  0  0  0  0  0  0  0  0  0  0  0
  -38.4230  -71.5290   54.4830 H   0  0  0  0  0  0  0  0  0  0  0  0
  -38.1070  -68.8520   50.4960 H   0  0  0  0  0  0  0  0  0  0  0  0
  -33.6130  -70.6310   50.9500 H   0  0  0  0  0  0  0  0  0  0  0  0
  -33.3120  -69.0480   51.8110 H   0  0  0  0  0  0  0  0  0  0  0  0
  -33.6200  -70.5510   52.7510 H   0  0  0  0  0  0  0  0  0  0  0  0
  -36.6280  -70.3790   54.8940 H   0  0  0  0  0  0  0  0  0  0  0  0
  -35.4400  -71.5280   54.0470 H   0  0  0  0  0  0  0  0  0  0  0  0
  -34.9350  -69.8650   54.5010 H   0  0  0  0  0  0  0  0  0  0  0  0
  2  3  1  0  0  0  0
  2  1  1  0  0  0  0
  3 25  1  0  0  0  0
  4  8  1  0  0  0  0
  4  3  2  0  0  0  0
  5  4  1  0  0  0  0
  6  5  2  0  0  0  0
  6  7  1  0  0  0  0
  7  2  2  0  0  0  0
  8  9  1  0  0  0  0
  9 10  2  0  0  0  0
 11 29  1  6  0  0  0
 11  9  1  0  0  0  0
 11 12  1  0  0  0  0
 13 30  1  0  0  0  0
 13 12  1  0  0  0  0
 14 13  1  0  0  0  0
 15 14  2  0  0  0  0
 15 11  1  0  0  0  0
 16 15  1  0  0  0  0
 16  8  1  0  0  0  0
 17 16  2  0  0  0  0
 18 19  2  0  0  0  0
 18 14  1  0  0  0  0
 19 24  1  0  0  0  0
 20 19  1  0  0  0  0
 21 22  2  0  0  0  0
 21 20  1  0  0  0  0
 22 18  1  0  0  0  0
 23 20  1  0  0  0  0
 23 34  1  0  0  0  0
 24 37  1  0  0  0  0
 24 35  1  0  0  0  0
 26  5  1  0  0  0  0
 27  6  1  0  0  0  0
 28  7  1  0  0  0  0
 31 22  1  0  0  0  0
 32 23  1  0  0  0  0
 33 23  1  0  0  0  0
 36 24  1  0  0  0  0
M  END
>  <Pose>
1

>  <Score>
-6.09

$$$$
