
 OpenBabel03202209423D

 33 36  0  0  1  0  0  0  0  0999 V2000
  -38.8350  -70.0520   52.7100 B   0  0  0  0  0  0  0  0  0  0  0  0
  -39.8080  -68.5160   52.1280 C   0  0  0  0  0  0  0  0  0  0  0  0
  -40.7940  -68.0030   52.9080 C   0  0  0  0  0  0  0  0  0  0  0  0
  -41.5610  -66.8940   52.5830 C   0  0  0  0  0  0  0  0  0  0  0  0
  -41.2780  -66.2930   51.3780 C   0  0  0  0  0  0  0  0  0  0  0  0
  -40.2700  -66.7960   50.5510 C   0  0  0  0  0  0  0  0  0  0  0  0
  -39.5350  -67.9020   50.9210 C   0  0  0  0  0  0  0  0  0  0  0  0
  -42.6000  -66.3980   53.4580 N   0  0  0  0  0  0  0  0  0  0  0  0
  -43.2000  -65.1110   53.4160 C   0  0  0  0  0  0  0  0  0  0  0  0
  -42.6350  -64.0550   52.9470 O   0  0  0  0  0  0  0  0  0  0  0  0
  -44.5510  -65.1950   53.9880 C   0  0  1  0  0  0  0  0  0  0  0  0
  -45.5210  -65.4340   52.8730 C   0  0  1  0  0  0  0  0  0  0  0  0
  -45.1780  -66.7690   52.5400 O   0  0  0  0  0  0  0  0  0  0  0  0
  -45.4930  -67.3300   53.8060 C   0  0  1  0  0  0  0  0  0  0  0  0
  -44.5650  -66.5220   54.6950 C   0  0  1  0  0  0  0  0  0  0  0  0
  -43.2160  -67.0960   54.5270 C   0  0  0  0  0  0  0  0  0  0  0  0
  -42.7220  -68.0310   55.2110 O   0  0  0  0  0  0  0  0  0  0  0  0
  -46.8920  -66.8660   53.9480 C   0  0  0  0  0  0  0  0  0  0  0  0
  -46.9160  -65.6680   53.3350 C   0  0  0  0  0  0  0  0  0  0  0  0
  -45.4170  -64.5000   51.7270 C   0  0  0  0  0  0  0  0  0  0  0  0
  -45.8790  -65.1460   50.5790 O   0  0  0  0  0  0  0  0  0  0  0  0
  -41.0100  -68.4910   53.8650 H   0  0  0  0  0  0  0  0  0  0  0  0
  -41.8270  -65.4290   51.0530 H   0  0  0  0  0  0  0  0  0  0  0  0
  -40.0240  -66.3460   49.6010 H   0  0  0  0  0  0  0  0  0  0  0  0
  -38.7510  -68.3290   50.3250 H   0  0  0  0  0  0  0  0  0  0  0  0
  -44.8230  -64.3440   54.6380 H   0  0  0  0  0  0  0  0  0  0  0  0
  -45.3450  -68.3940   53.8480 H   0  0  0  0  0  0  0  0  0  0  0  0
  -44.8980  -66.4700   55.7410 H   0  0  0  0  0  0  0  0  0  0  0  0
  -47.7320  -67.3510   54.4270 H   0  0  0  0  0  0  0  0  0  0  0  0
  -47.7930  -65.0340   53.2230 H   0  0  0  0  0  0  0  0  0  0  0  0
  -46.0510  -63.5980   51.8440 H   0  0  0  0  0  0  0  0  0  0  0  0
  -44.3910  -64.1690   51.5500 H   0  0  0  0  0  0  0  0  0  0  0  0
  -45.2160  -65.8130   50.2710 H   0  0  0  0  0  0  0  0  0  0  0  0
  2  1  1  0  0  0  0
  2  3  1  0  0  0  0
  3 22  1  0  0  0  0
  4  3  2  0  0  0  0
  4  8  1  0  0  0  0
  5  4  1  0  0  0  0
  6  7  1  0  0  0  0
  6  5  2  0  0  0  0
  7  2  2  0  0  0  0
  8 16  1  0  0  0  0
  9  8  1  0  0  0  0
  9 11  1  0  0  0  0
 10  9  2  0  0  0  0
 11 26  1  1  0  0  0
 11 15  1  0  0  0  0
 12 20  1  6  0  0  0
 12 19  1  0  0  0  0
 12 11  1  0  0  0  0
 13 12  1  0  0  0  0
 13 14  1  0  0  0  0
 14 27  1  1  0  0  0
 14 18  1  0  0  0  0
 14 15  1  0  0  0  0
 15 28  1  1  0  0  0
 16 15  1  0  0  0  0
 16 17  2  0  0  0  0
 18 29  1  0  0  0  0
 19 18  2  0  0  0  0
 20 31  1  0  0  0  0
 21 20  1  0  0  0  0
 23  5  1  0  0  0  0
 24  6  1  0  0  0  0
 25  7  1  0  0  0  0
 30 19  1  0  0  0  0
 32 20  1  0  0  0  0
 33 21  1  0  0  0  0
M  END
>  <Pose>
1

>  <Score>
-5.89

$$$$
