
 OpenBabel03202209423D

 37 40  0  0  1  0  0  0  0  0999 V2000
  -38.1040  -69.9860   51.6710 B   0  0  0  0  0  0  0  0  0  0  0  0
  -39.3520  -69.4640   53.0100 C   0  0  0  0  0  0  0  0  0  0  0  0
  -40.2340  -68.4030   52.7810 C   0  0  0  0  0  0  0  0  0  0  0  0
  -41.1440  -68.0100   53.7360 C   0  0  0  0  0  0  0  0  0  0  0  0
  -41.1550  -68.6980   54.9240 C   0  0  0  0  0  0  0  0  0  0  0  0
  -40.2720  -69.7620   55.1570 C   0  0  0  0  0  0  0  0  0  0  0  0
  -39.3610  -70.1530   54.2000 C   0  0  0  0  0  0  0  0  0  0  0  0
  -42.0290  -66.9380   53.4760 N   0  0  0  0  0  0  0  0  0  0  0  0
  -41.7600  -65.8010   52.6270 C   0  0  0  0  0  0  0  0  0  0  0  0
  -40.9580  -65.7230   51.6890 O   0  0  0  0  0  0  0  0  0  0  0  0
  -42.6410  -64.6860   53.0780 C   0  0  1  0  0  0  0  0  0  0  0  0
  -43.1090  -63.8810   52.0560 O   0  0  0  0  0  0  0  0  0  0  0  0
  -44.3280  -63.4840   52.5530 N   0  0  0  0  0  0  0  0  0  0  0  0
  -44.9030  -64.6880   53.0910 C   0  0  0  0  0  0  0  0  0  0  0  0
  -43.8970  -65.4590   53.4270 C   0  0  0  0  0  0  0  0  0  0  0  0
  -43.3680  -66.7150   53.9730 C   0  0  0  0  0  0  0  0  0  0  0  0
  -44.0170  -67.4350   54.7390 O   0  0  0  0  0  0  0  0  0  0  0  0
  -46.2920  -65.0300   53.2410 C   0  0  0  0  0  0  0  0  0  0  0  0
  -47.3090  -64.0810   53.1640 C   0  0  0  0  0  0  0  0  0  0  0  0
  -48.5000  -64.6840   53.3250 N   0  0  0  0  0  0  0  0  0  0  0  0
  -48.2320  -65.9670   53.4980 N   0  0  0  0  0  0  0  0  0  0  0  0
  -46.9280  -66.2310   53.4560 C   0  0  0  0  0  0  0  0  0  0  0  0
  -46.2440  -67.5600   53.6010 C   0  0  0  0  0  0  0  0  0  0  0  0
  -49.8220  -64.0360   53.3130 C   0  0  0  0  0  0  0  0  0  0  0  0
  -40.1850  -67.8990   51.8440 H   0  0  0  0  0  0  0  0  0  0  0  0
  -41.8510  -68.4140   55.6830 H   0  0  0  0  0  0  0  0  0  0  0  0
  -40.3060  -70.2880   56.1110 H   0  0  0  0  0  0  0  0  0  0  0  0
  -38.6830  -70.9840   54.3980 H   0  0  0  0  0  0  0  0  0  0  0  0
  -42.2320  -64.1530   53.9440 H   0  0  0  0  0  0  0  0  0  0  0  0
  -44.7560  -62.5520   52.5550 H   0  0  0  0  0  0  0  0  0  0  0  0
  -47.1780  -63.0140   52.9990 H   0  0  0  0  0  0  0  0  0  0  0  0
  -46.2270  -67.8970   54.6390 H   0  0  0  0  0  0  0  0  0  0  0  0
  -45.2780  -67.5360   53.1010 H   0  0  0  0  0  0  0  0  0  0  0  0
  -46.8960  -68.2800   53.0410 H   0  0  0  0  0  0  0  0  0  0  0  0
  -50.1310  -64.0750   52.2290 H   0  0  0  0  0  0  0  0  0  0  0  0
  -49.7490  -63.0030   53.6630 H   0  0  0  0  0  0  0  0  0  0  0  0
  -50.5120  -64.6760   53.8550 H   0  0  0  0  0  0  0  0  0  0  0  0
  1  2  1  0  0  0  0
  2  7  1  0  0  0  0
  3  2  2  0  0  0  0
  3  4  1  0  0  0  0
  4  5  2  0  0  0  0
  5  6  1  0  0  0  0
  5 26  1  0  0  0  0
  6 27  1  0  0  0  0
  7 28  1  0  0  0  0
  7  6  2  0  0  0  0
  8  4  1  0  0  0  0
  8 16  1  0  0  0  0
  9 11  1  0  0  0  0
  9  8  1  0  0  0  0
 10  9  2  0  0  0  0
 11 15  1  0  0  0  0
 11 29  1  1  0  0  0
 12 13  1  0  0  0  0
 12 11  1  0  0  0  0
 13 30  1  0  0  0  0
 13 14  1  0  0  0  0
 14 18  1  0  0  0  0
 14 15  2  0  0  0  0
 15 16  1  0  0  0  0
 16 17  2  0  0  0  0
 18 22  1  0  0  0  0
 19 18  2  0  0  0  0
 19 20  1  0  0  0  0
 20 21  1  0  0  0  0
 22 21  2  0  0  0  0
 22 23  1  0  0  0  0
 23 32  1  0  0  0  0
 24 20  1  0  0  0  0
 24 36  1  0  0  0  0
 24 37  1  0  0  0  0
 25  3  1  0  0  0  0
 31 19  1  0  0  0  0
 33 23  1  0  0  0  0
 34 23  1  0  0  0  0
 35 24  1  0  0  0  0
M  END
>  <Pose>
1

>  <Score>
-6.51

$$$$
