
 OpenBabel03202209423D

 50 53  0  0  0  0  0  0  0  0999 V2000
  -37.6830  -62.9590   46.5170 B   0  0  0  0  0  0  0  0  0  0  0  0
  -38.7660  -63.8860   47.7760 C   0  0  0  0  0  0  0  0  0  0  0  0
  -39.8090  -63.2320   48.4160 C   0  0  0  0  0  0  0  0  0  0  0  0
  -40.6150  -63.8800   49.3370 C   0  0  0  0  0  0  0  0  0  0  0  0
  -40.4180  -65.2000   49.6600 C   0  0  0  0  0  0  0  0  0  0  0  0
  -39.3760  -65.8410   49.0150 C   0  0  0  0  0  0  0  0  0  0  0  0
  -38.5670  -65.2110   48.0970 C   0  0  0  0  0  0  0  0  0  0  0  0
  -41.2680  -65.8880   50.6290 C   0  0  0  0  0  0  0  0  0  0  0  0
  -41.9140  -66.8790   50.2530 O   0  0  0  0  0  0  0  0  0  0  0  0
  -41.3600  -65.4070   52.0430 C   0  0  0  0  0  0  0  0  0  0  0  0
  -42.5370  -65.8710   52.7210 N   0  0  0  0  0  0  0  0  0  0  0  0
  -43.7530  -65.2990   52.7260 C   0  0  0  0  0  0  0  0  0  0  0  0
  -44.6170  -66.0460   53.5030 C   0  0  0  0  0  0  0  0  0  0  0  0
  -43.8800  -67.0680   53.9550 N   0  0  0  0  0  0  0  0  0  0  0  0
  -42.6180  -66.9880   53.4980 C   0  0  0  0  0  0  0  0  0  0  0  0
  -41.5270  -67.8570   53.7420 N   0  0  0  0  0  0  0  0  0  0  0  0
  -41.2160  -68.2170   55.0880 C   0  0  0  0  0  0  0  0  0  0  0  0
  -40.3180  -69.3810   55.2870 C   0  0  0  0  0  0  0  0  0  0  0  0
  -39.4340  -69.6810   54.2000 N   0  0  0  0  0  0  0  0  0  0  0  0
  -40.2250  -69.7600   52.9870 C   0  0  0  0  0  0  0  0  0  0  0  0
  -40.7580  -68.3670   52.6490 C   0  0  0  0  0  0  0  0  0  0  0  0
  -38.3290  -68.7720   54.0880 C   0  0  0  0  0  0  0  0  0  0  0  0
  -45.8960  -65.6580   53.6550 N   0  0  0  0  0  0  0  0  0  0  0  0
  -46.3520  -64.5450   53.0550 C   0  0  0  0  0  0  0  0  0  0  0  0
  -47.5370  -64.1470   53.1700 O   0  0  0  0  0  0  0  0  0  0  0  0
  -45.5110  -63.7990   52.2870 N   0  0  0  0  0  0  0  0  0  0  0  0
  -44.2240  -64.1450   52.1040 C   0  0  0  0  0  0  0  0  0  0  0  0
  -43.4690  -63.4220   51.3760 O   0  0  0  0  0  0  0  0  0  0  0  0
  -46.8270  -66.4200   54.4630 C   0  0  0  0  0  0  0  0  0  0  0  0
  -39.9680  -62.1850   48.1620 H   0  0  0  0  0  0  0  0  0  0  0  0
  -41.4330  -63.3340   49.8270 H   0  0  0  0  0  0  0  0  0  0  0  0
  -39.2050  -66.8890   49.2570 H   0  0  0  0  0  0  0  0  0  0  0  0
  -37.7630  -65.7330   47.6110 H   0  0  0  0  0  0  0  0  0  0  0  0
  -40.4230  -65.6590   52.5850 H   0  0  0  0  0  0  0  0  0  0  0  0
  -41.3810  -64.3020   51.9970 H   0  0  0  0  0  0  0  0  0  0  0  0
  -40.7410  -67.3060   55.5430 H   0  0  0  0  0  0  0  0  0  0  0  0
  -42.1550  -68.4010   55.6640 H   0  0  0  0  0  0  0  0  0  0  0  0
  -40.8860  -70.3070   55.5520 H   0  0  0  0  0  0  0  0  0  0  0  0
  -39.6370  -69.1390   56.1600 H   0  0  0  0  0  0  0  0  0  0  0  0
  -41.1250  -70.3700   53.2390 H   0  0  0  0  0  0  0  0  0  0  0  0
  -39.7210  -70.1840   52.1270 H   0  0  0  0  0  0  0  0  0  0  0  0
  -39.9140  -67.6910   52.3630 H   0  0  0  0  0  0  0  0  0  0  0  0
  -41.3470  -68.5090   51.7190 H   0  0  0  0  0  0  0  0  0  0  0  0
  -38.6440  -67.7640   54.4850 H   0  0  0  0  0  0  0  0  0  0  0  0
  -37.9630  -68.6590   53.0490 H   0  0  0  0  0  0  0  0  0  0  0  0
  -37.4680  -69.0680   54.7180 H   0  0  0  0  0  0  0  0  0  0  0  0
  -45.9050  -62.9390   51.8380 H   0  0  0  0  0  0  0  0  0  0  0  0
  -47.1330  -67.2920   53.8470 H   0  0  0  0  0  0  0  0  0  0  0  0
  -46.2950  -66.8160   55.3500 H   0  0  0  0  0  0  0  0  0  0  0  0
  -47.7070  -65.8090   54.7420 H   0  0  0  0  0  0  0  0  0  0  0  0
  1  2  1  0  0  0  0
  2  7  2  0  0  0  0
  2  3  1  0  0  0  0
  3  4  2  0  0  0  0
  4  5  1  0  0  0  0
  4 31  1  0  0  0  0
  5  8  1  0  0  0  0
  6 32  1  0  0  0  0
  6  5  2  0  0  0  0
  7  6  1  0  0  0  0
  8 10  1  0  0  0  0
  9  8  2  0  0  0  0
 10 34  1  0  0  0  0
 10 11  1  0  0  0  0
 11 12  1  0  0  0  0
 11 15  1  0  0  0  0
 12 13  2  0  0  0  0
 13 23  1  0  0  0  0
 13 14  1  0  0  0  0
 15 16  1  0  0  0  0
 15 14  2  0  0  0  0
 16 17  1  0  0  0  0
 17 18  1  0  0  0  0
 17 36  1  0  0  0  0
 17 37  1  0  0  0  0
 18 38  1  0  0  0  0
 18 39  1  0  0  0  0
 19 18  1  0  0  0  0
 20 40  1  0  0  0  0
 20 19  1  0  0  0  0
 21 20  1  0  0  0  0
 21 16  1  0  0  0  0
 22 19  1  0  0  0  0
 22 44  1  0  0  0  0
 22 46  1  0  0  0  0
 23 29  1  0  0  0  0
 24 25  2  0  0  0  0
 24 23  1  0  0  0  0
 26 24  1  0  0  0  0
 27 26  1  0  0  0  0
 27 12  1  0  0  0  0
 28 27  2  0  0  0  0
 29 50  1  0  0  0  0
 29 49  1  0  0  0  0
 30  3  1  0  0  0  0
 33  7  1  0  0  0  0
 35 10  1  0  0  0  0
 41 20  1  0  0  0  0
 42 21  1  0  0  0  0
 43 21  1  0  0  0  0
 45 22  1  0  0  0  0
 47 26  1  0  0  0  0
 48 29  1  0  0  0  0
M  END
>  <Pose>
1

>  <Score>
-6.49

$$$$
