
 OpenBabel03202209423D

 58 61  0  0  1  0  0  0  0  0999 V2000
  -41.1880  -68.8720   54.7420 B   0  0  0  0  0  0  0  0  0  0  0  0
  -42.3360  -67.5680   53.9790 C   0  0  0  0  0  0  0  0  0  0  0  0
  -41.8820  -66.8230   52.9170 C   0  0  0  0  0  0  0  0  0  0  0  0
  -42.7010  -65.8780   52.3570 C   0  0  0  0  0  0  0  0  0  0  0  0
  -43.9960  -65.6460   52.8350 C   0  0  0  0  0  0  0  0  0  0  0  0
  -44.3910  -66.4260   53.9030 C   0  0  0  0  0  0  0  0  0  0  0  0
  -43.5930  -67.3880   54.4940 C   0  0  0  0  0  0  0  0  0  0  0  0
  -44.8450  -64.6430   52.2200 C   0  0  0  0  0  0  0  0  0  0  0  0
  -44.4170  -63.4750   52.1150 O   0  0  0  0  0  0  0  0  0  0  0  0
  -46.1660  -65.0050   51.7400 C   0  0  2  0  0  0  0  0  0  0  0  0
  -46.4470  -64.6510   50.3000 C   0  0  1  0  0  0  0  0  0  0  0  0
  -47.8810  -64.8060   50.2220 N   0  0  0  0  0  0  0  0  0  0  0  0
  -48.3950  -64.4120   51.4900 C   0  0  0  0  0  0  0  0  0  0  0  0
  -49.6230  -64.2690   51.7820 O   0  0  0  0  0  0  0  0  0  0  0  0
  -47.2560  -64.1980   52.4030 C   0  0  0  0  0  0  0  0  0  0  0  0
  -47.2380  -63.5190   53.4420 O   0  0  0  0  0  0  0  0  0  0  0  0
  -48.7050  -65.2600   49.1300 C   0  0  0  0  0  0  0  0  0  0  0  0
  -49.6070  -66.4000   49.4940 C   0  0  0  0  0  0  0  0  0  0  0  0
  -49.6410  -67.4690   48.5720 N   0  0  0  0  0  4  0  0  0  0  0  0
  -50.5600  -67.1070   47.4890 C   0  0  0  0  0  0  0  0  0  0  0  0
  -51.9880  -67.1000   47.9260 C   0  0  0  0  0  0  0  0  0  0  0  0
  -52.2240  -67.7160   49.1300 O   0  0  0  0  0  0  0  0  0  0  0  0
  -51.5340  -68.8990   49.2300 C   0  0  0  0  0  0  0  0  0  0  0  0
  -50.0460  -68.7340   49.0740 C   0  0  0  0  0  0  0  0  0  0  0  0
  -45.9610  -63.3410   49.8950 C   0  0  0  0  0  0  0  0  0  0  0  0
  -44.7040  -63.1640   49.3010 C   0  0  0  0  0  0  0  0  0  0  0  0
  -44.2520  -61.9190   48.9160 C   0  0  0  0  0  0  0  0  0  0  0  0
  -45.0280  -60.7900   49.1010 C   0  0  0  0  0  0  0  0  0  0  0  0
  -46.2690  -60.9410   49.6830 C   0  0  0  0  0  0  0  0  0  0  0  0
  -46.7080  -62.1990   50.0650 C   0  0  0  0  0  0  0  0  0  0  0  0
  -44.5970  -59.5250   48.7230 O   0  0  0  0  0  0  0  0  0  0  0  0
  -43.0120  -61.7380   48.3300 O   0  0  0  0  0  0  0  0  0  0  0  0
  -42.1830  -62.7960   47.9180 C   0  0  0  0  0  0  0  0  0  0  0  0
  -40.8880  -67.0040   52.5530 H   0  0  0  0  0  0  0  0  0  0  0  0
  -42.3930  -65.2660   51.5220 H   0  0  0  0  0  0  0  0  0  0  0  0
  -45.3780  -66.3120   54.3290 H   0  0  0  0  0  0  0  0  0  0  0  0
  -43.9160  -67.9850   55.3200 H   0  0  0  0  0  0  0  0  0  0  0  0
  -46.4380  -66.0670   51.9160 H   0  0  0  0  0  0  0  0  0  0  0  0
  -45.9110  -65.4130   49.6920 H   0  0  0  0  0  0  0  0  0  0  0  0
  -48.0000  -65.6450   48.3450 H   0  0  0  0  0  0  0  0  0  0  0  0
  -49.3000  -64.4760   48.6620 H   0  0  0  0  0  0  0  0  0  0  0  0
  -50.6680  -66.0430   49.6470 H   0  0  0  0  0  0  0  0  0  0  0  0
  -49.2890  -66.7690   50.4900 H   0  0  0  0  0  0  0  0  0  0  0  0
  -48.7040  -67.5910   48.0960 H   0  0  0  0  0  0  0  0  0  0  0  0
  -50.2470  -66.1740   46.9830 H   0  0  0  0  0  0  0  0  0  0  0  0
  -50.4530  -67.9250   46.7250 H   0  0  0  0  0  0  0  0  0  0  0  0
  -52.3120  -66.0350   48.0300 H   0  0  0  0  0  0  0  0  0  0  0  0
  -52.6610  -67.6010   47.1710 H   0  0  0  0  0  0  0  0  0  0  0  0
  -51.7970  -69.3860   50.2150 H   0  0  0  0  0  0  0  0  0  0  0  0
  -51.9690  -69.5970   48.4640 H   0  0  0  0  0  0  0  0  0  0  0  0
  -49.5720  -69.0390   50.0250 H   0  0  0  0  0  0  0  0  0  0  0  0
  -49.7200  -69.5120   48.3220 H   0  0  0  0  0  0  0  0  0  0  0  0
  -44.0910  -64.0530   49.1550 H   0  0  0  0  0  0  0  0  0  0  0  0
  -46.8660  -60.0500   49.8240 H   0  0  0  0  0  0  0  0  0  0  0  0
  -47.6700  -62.2630   50.5070 H   0  0  0  0  0  0  0  0  0  0  0  0
  -42.0640  -63.5700   48.7210 H   0  0  0  0  0  0  0  0  0  0  0  0
  -41.1630  -62.3890   47.7510 H   0  0  0  0  0  0  0  0  0  0  0  0
  -42.5040  -63.2860   46.9910 H   0  0  0  0  0  0  0  0  0  0  0  0
  2  7  1  0  0  0  0
  2  1  1  0  0  0  0
  3  2  2  0  0  0  0
  4  5  2  0  0  0  0
  4  3  1  0  0  0  0
  5  6  1  0  0  0  0
  6 36  1  0  0  0  0
  6  7  2  0  0  0  0
  7 37  1  0  0  0  0
  8  5  1  0  0  0  0
  9  8  2  0  0  0  0
 10 38  1  1  0  0  0
 10  8  1  0  0  0  0
 10 15  1  0  0  0  0
 11 39  1  6  0  0  0
 11 10  1  0  0  0  0
 12 11  1  0  0  0  0
 12 13  1  0  0  0  0
 13 14  2  0  0  0  0
 13 15  1  0  0  0  0
 15 16  2  0  0  0  0
 17 18  1  0  0  0  0
 17 12  1  0  0  0  0
 18 42  1  0  0  0  0
 18 43  1  0  0  0  0
 19 24  1  0  0  0  0
 19 18  1  0  0  0  0
 20 21  1  0  0  0  0
 20 19  1  0  0  0  0
 21 47  1  0  0  0  0
 21 22  1  0  0  0  0
 22 23  1  0  0  0  0
 23 49  1  0  0  0  0
 24 23  1  0  0  0  0
 24 51  1  0  0  0  0
 25 30  1  0  0  0  0
 25 11  1  0  0  0  0
 26 25  2  0  0  0  0
 27 28  2  0  0  0  0
 27 26  1  0  0  0  0
 28 29  1  0  0  0  0
 29 54  1  0  0  0  0
 29 30  2  0  0  0  0
 30 55  1  0  0  0  0
 31 28  1  0  0  0  0
 32 27  1  0  0  0  0
 33 32  1  0  0  0  0
 33 56  1  0  0  0  0
 34  3  1  0  0  0  0
 35  4  1  0  0  0  0
 40 17  1  0  0  0  0
 41 17  1  0  0  0  0
 44 19  1  0  0  0  0
 45 20  1  0  0  0  0
 46 20  1  0  0  0  0
 48 21  1  0  0  0  0
 50 23  1  0  0  0  0
 52 24  1  0  0  0  0
 53 26  1  0  0  0  0
 57 33  1  0  0  0  0
 58 33  1  0  0  0  0
M  END
>  <Pose>
1

>  <Score>
-6.35

$$$$
