
 OpenBabel03202209423D

 41 44  0  0  1  0  0  0  0  0999 V2000
  -37.2950  -71.2390   52.9970 B   0  0  0  0  0  0  0  0  0  0  0  0
  -38.8330  -70.2130   53.4730 C   0  0  0  0  0  0  0  0  0  0  0  0
  -39.3800  -69.2990   52.6000 C   0  0  0  0  0  0  0  0  0  0  0  0
  -40.4860  -68.5360   52.8980 C   0  0  0  0  0  0  0  0  0  0  0  0
  -41.1020  -68.6660   54.1160 C   0  0  0  0  0  0  0  0  0  0  0  0
  -40.5610  -69.5830   55.0030 C   0  0  0  0  0  0  0  0  0  0  0  0
  -39.4540  -70.3410   54.6970 C   0  0  0  0  0  0  0  0  0  0  0  0
  -42.2630  -67.8900   54.4870 C   0  0  0  0  0  0  0  0  0  0  0  0
  -43.2220  -68.4890   55.0740 O   0  0  0  0  0  0  0  0  0  0  0  0
  -42.4410  -66.4520   54.2440 C   0  0  1  0  0  0  0  0  0  0  0  0
  -42.3010  -66.1310   52.8320 N   0  0  0  0  0  0  0  0  0  0  0  0
  -41.9340  -66.7900   51.6770 N   0  0  0  0  0  0  0  0  0  0  0  0
  -42.0110  -66.2680   50.5040 C   0  0  0  0  0  0  0  0  0  0  0  0
  -42.4930  -64.9140   50.3550 C   0  0  0  0  0  0  0  0  0  0  0  0
  -42.8350  -64.2120   51.4100 C   0  0  0  0  0  0  0  0  0  0  0  0
  -42.7390  -64.7390   52.7580 C   0  0  1  0  0  0  0  0  0  0  0  0
  -44.0050  -64.7930   53.5380 C   0  0  2  0  0  0  0  0  0  0  0  0
  -43.8570  -65.9830   54.4930 C   0  0  1  0  0  0  0  0  0  0  0  0
  -44.8650  -66.9340   54.0300 C   0  0  0  0  0  0  0  0  0  0  0  0
  -44.9260  -68.1530   54.3520 O   0  0  0  0  0  0  0  0  0  0  0  0
  -45.7600  -66.2670   53.1620 N   0  0  0  0  0  0  0  0  0  0  0  0
  -45.1980  -65.0390   52.7190 C   0  0  0  0  0  0  0  0  0  0  0  0
  -45.6320  -64.2980   51.8040 O   0  0  0  0  0  0  0  0  0  0  0  0
  -47.0650  -66.7430   52.7670 C   0  0  0  0  0  0  0  0  0  0  0  0
  -47.8980  -67.2290   53.9140 C   0  0  0  0  0  0  0  0  0  0  0  0
  -38.9200  -69.1630   51.6140 H   0  0  0  0  0  0  0  0  0  0  0  0
  -40.9020  -67.8190   52.1790 H   0  0  0  0  0  0  0  0  0  0  0  0
  -41.0330  -69.7100   55.9900 H   0  0  0  0  0  0  0  0  0  0  0  0
  -39.0640  -71.0420   55.4150 H   0  0  0  0  0  0  0  0  0  0  0  0
  -41.7660  -65.8890   54.8830 H   0  0  0  0  0  0  0  0  0  0  0  0
  -41.7210  -66.8150   49.5940 H   0  0  0  0  0  0  0  0  0  0  0  0
  -42.5650  -64.4940   49.3480 H   0  0  0  0  0  0  0  0  0  0  0  0
  -43.2040  -63.2010   51.2740 H   0  0  0  0  0  0  0  0  0  0  0  0
  -41.9390  -64.1580   53.3040 H   0  0  0  0  0  0  0  0  0  0  0  0
  -44.1770  -63.8440   54.0920 H   0  0  0  0  0  0  0  0  0  0  0  0
  -44.0370  -65.5810   55.4960 H   0  0  0  0  0  0  0  0  0  0  0  0
  -47.0060  -67.5640   52.0160 H   0  0  0  0  0  0  0  0  0  0  0  0
  -47.6550  -65.9300   52.2630 H   0  0  0  0  0  0  0  0  0  0  0  0
  -47.2840  -67.6140   54.7580 H   0  0  0  0  0  0  0  0  0  0  0  0
  -48.6070  -66.4340   54.2540 H   0  0  0  0  0  0  0  0  0  0  0  0
  -48.5500  -68.0800   53.5850 H   0  0  0  0  0  0  0  0  0  0  0  0
  1  2  1  0  0  0  0
  2  7  1  0  0  0  0
  3  4  1  0  0  0  0
  3  2  2  0  0  0  0
  4  5  2  0  0  0  0
  5  8  1  0  0  0  0
  5  6  1  0  0  0  0
  6 28  1  0  0  0  0
  7  6  2  0  0  0  0
  7 29  1  0  0  0  0
  8  9  2  0  0  0  0
 10  8  1  0  0  0  0
 10 18  1  0  0  0  0
 10 30  1  1  0  0  0
 11 10  1  0  0  0  0
 12 11  1  0  0  0  0
 13 12  2  0  0  0  0
 14 13  1  0  0  0  0
 14 15  2  0  0  0  0
 15 16  1  0  0  0  0
 16 11  1  0  0  0  0
 16 34  1  1  0  0  0
 16 17  1  0  0  0  0
 17 35  1  1  0  0  0
 17 18  1  0  0  0  0
 18 36  1  1  0  0  0
 19 20  2  0  0  0  0
 19 18  1  0  0  0  0
 21 19  1  0  0  0  0
 22 21  1  0  0  0  0
 22 17  1  0  0  0  0
 23 22  2  0  0  0  0
 24 21  1  0  0  0  0
 24 25  1  0  0  0  0
 25 40  1  0  0  0  0
 25 39  1  0  0  0  0
 26  3  1  0  0  0  0
 27  4  1  0  0  0  0
 31 13  1  0  0  0  0
 32 14  1  0  0  0  0
 33 15  1  0  0  0  0
 37 24  1  0  0  0  0
 38 24  1  0  0  0  0
 41 25  1  0  0  0  0
M  END
>  <Pose>
1

>  <Score>
-4.91

$$$$
