
 OpenBabel03202209423D

 48 51  0  0  1  0  0  0  0  0999 V2000
  -36.2200  -62.7660   48.5760 B   0  0  0  0  0  0  0  0  0  0  0  0
  -37.8040  -63.7310   48.9890 C   0  0  0  0  0  0  0  0  0  0  0  0
  -39.0460  -63.1380   49.0970 C   0  0  0  0  0  0  0  0  0  0  0  0
  -40.1770  -63.8680   49.3990 C   0  0  0  0  0  0  0  0  0  0  0  0
  -40.1280  -65.2300   49.6090 C   0  0  0  0  0  0  0  0  0  0  0  0
  -38.8910  -65.8220   49.5010 C   0  0  0  0  0  0  0  0  0  0  0  0
  -37.7570  -65.1040   49.2020 C   0  0  0  0  0  0  0  0  0  0  0  0
  -41.3340  -66.0070   49.9310 C   0  0  0  0  0  0  0  0  0  0  0  0
  -41.2800  -67.2540   49.6560 O   0  0  0  0  0  0  0  0  0  0  0  0
  -42.4810  -65.4490   50.5000 N   0  0  0  0  0  0  0  0  0  0  0  0
  -42.4670  -64.9420   51.8480 C   0  0  2  0  0  0  0  0  0  0  0  0
  -42.6200  -66.0360   52.8770 C   0  0  0  0  0  0  0  0  0  0  0  0
  -44.0430  -66.0890   53.1330 N   0  0  0  0  0  0  0  0  0  0  0  0
  -44.6740  -64.8580   52.6870 C   0  0  1  0  0  0  0  0  0  0  0  0
  -43.6450  -64.0220   52.0110 C   0  0  0  0  0  0  0  0  0  0  0  0
  -45.7830  -65.2670   51.7950 C   0  0  0  0  0  0  0  0  0  0  0  0
  -45.9080  -64.7170   50.6780 O   0  0  0  0  0  0  0  0  0  0  0  0
  -46.6670  -66.2760   52.2490 N   0  0  0  0  0  0  0  0  0  0  0  0
  -46.3570  -67.1900   53.3240 C   0  0  1  0  0  0  0  0  0  0  0  0
  -44.9230  -67.0490   53.7050 C   0  0  0  0  0  0  0  0  0  0  0  0
  -44.4240  -67.8250   54.5970 O   0  0  0  0  0  0  0  0  0  0  0  0
  -47.2870  -66.9930   54.4960 C   0  0  0  0  0  0  0  0  0  0  0  0
  -48.3830  -68.0030   54.4980 C   0  0  0  0  0  0  0  0  0  0  0  0
  -48.6560  -68.7550   53.3550 C   0  0  0  0  0  0  0  0  0  0  0  0
  -49.6790  -69.6740   53.4140 C   0  0  0  0  0  0  0  0  0  0  0  0
  -50.4410  -69.8830   54.5500 C   0  0  0  0  0  0  0  0  0  0  0  0
  -50.1350  -69.1190   55.6520 C   0  0  0  0  0  0  0  0  0  0  0  0
  -49.1230  -68.1840   55.6520 C   0  0  0  0  0  0  0  0  0  0  0  0
  -39.0760  -62.0570   48.9290 H   0  0  0  0  0  0  0  0  0  0  0  0
  -41.0960  -63.3380   49.4640 H   0  0  0  0  0  0  0  0  0  0  0  0
  -38.8030  -66.8830   49.6570 H   0  0  0  0  0  0  0  0  0  0  0  0
  -36.7740  -65.5830   49.1180 H   0  0  0  0  0  0  0  0  0  0  0  0
  -43.3610  -65.3920   49.9610 H   0  0  0  0  0  0  0  0  0  0  0  0
  -41.5030  -64.4550   52.0380 H   0  0  0  0  0  0  0  0  0  0  0  0
  -42.2160  -66.9560   52.4440 H   0  0  0  0  0  0  0  0  0  0  0  0
  -42.0990  -65.8350   53.8200 H   0  0  0  0  0  0  0  0  0  0  0  0
  -45.0560  -64.3120   53.5750 H   0  0  0  0  0  0  0  0  0  0  0  0
  -44.0020  -63.5930   51.0660 H   0  0  0  0  0  0  0  0  0  0  0  0
  -43.3360  -63.1860   52.6700 H   0  0  0  0  0  0  0  0  0  0  0  0
  -47.5950  -66.3360   51.7530 H   0  0  0  0  0  0  0  0  0  0  0  0
  -46.4620  -68.2190   52.9220 H   0  0  0  0  0  0  0  0  0  0  0  0
  -47.7190  -65.9770   54.5010 H   0  0  0  0  0  0  0  0  0  0  0  0
  -46.6860  -67.1690   55.4100 H   0  0  0  0  0  0  0  0  0  0  0  0
  -48.0540  -68.5810   52.4760 H   0  0  0  0  0  0  0  0  0  0  0  0
  -49.9080  -70.2760   52.5230 H   0  0  0  0  0  0  0  0  0  0  0  0
  -51.2340  -70.6210   54.5390 H   0  0  0  0  0  0  0  0  0  0  0  0
  -50.7300  -69.2750   56.5590 H   0  0  0  0  0  0  0  0  0  0  0  0
  -48.8900  -67.5890   56.5210 H   0  0  0  0  0  0  0  0  0  0  0  0
  1  2  1  0  0  0  0
  2  3  2  0  0  0  0
  2  7  1  0  0  0  0
  3  4  1  0  0  0  0
  4 30  1  0  0  0  0
  4  5  2  0  0  0  0
  5  8  1  0  0  0  0
  6  5  1  0  0  0  0
  6 31  1  0  0  0  0
  7  6  2  0  0  0  0
  8 10  1  0  0  0  0
  9  8  2  0  0  0  0
 10 11  1  0  0  0  0
 11 15  1  0  0  0  0
 11 34  1  1  0  0  0
 11 12  1  0  0  0  0
 12 13  1  0  0  0  0
 12 36  1  0  0  0  0
 13 20  1  0  0  0  0
 14 13  1  0  0  0  0
 14 37  1  1  0  0  0
 15 39  1  0  0  0  0
 15 14  1  0  0  0  0
 16 18  1  0  0  0  0
 16 14  1  0  0  0  0
 17 16  2  0  0  0  0
 18 19  1  0  0  0  0
 19 41  1  6  0  0  0
 19 20  1  0  0  0  0
 19 22  1  0  0  0  0
 20 21  2  0  0  0  0
 22 23  1  0  0  0  0
 22 42  1  0  0  0  0
 22 43  1  0  0  0  0
 23 28  1  0  0  0  0
 24 25  1  0  0  0  0
 24 23  2  0  0  0  0
 25 26  2  0  0  0  0
 26 27  1  0  0  0  0
 27 28  2  0  0  0  0
 27 47  1  0  0  0  0
 28 48  1  0  0  0  0
 29  3  1  0  0  0  0
 32  7  1  0  0  0  0
 33 10  1  0  0  0  0
 35 12  1  0  0  0  0
 38 15  1  0  0  0  0
 40 18  1  0  0  0  0
 44 24  1  0  0  0  0
 45 25  1  0  0  0  0
 46 26  1  0  0  0  0
M  END
>  <Pose>
1

>  <Score>
-6.04

$$$$
