
 OpenBabel03202209423D

 42 45  0  0  1  0  0  0  0  0999 V2000
  -48.1640  -67.9880   54.6880 B   0  0  0  0  0  0  0  0  0  0  0  0
  -46.8270  -66.9920   53.7810 C   0  0  0  0  0  0  0  0  0  0  0  0
  -47.1940  -66.0680   52.8180 C   0  0  0  0  0  0  0  0  0  0  0  0
  -46.2640  -65.3200   52.1300 C   0  0  0  0  0  0  0  0  0  0  0  0
  -44.9180  -65.4690   52.3850 C   0  0  0  0  0  0  0  0  0  0  0  0
  -44.5510  -66.3760   53.3320 C   0  0  0  0  0  0  0  0  0  0  0  0
  -45.4770  -67.1420   54.0370 C   0  0  0  0  0  0  0  0  0  0  0  0
  -43.9490  -64.6510   51.6300 C   0  0  0  0  0  0  0  0  0  0  0  0
  -43.9770  -63.4090   51.7560 O   0  0  0  0  0  0  0  0  0  0  0  0
  -42.9940  -65.2480   50.7690 N   0  0  0  0  0  0  0  0  0  0  0  0
  -41.6340  -64.8230   50.8200 C   0  0  2  0  0  0  0  0  0  0  0  0
  -40.6670  -65.8420   50.2630 C   0  0  0  0  0  0  0  0  0  0  0  0
  -40.4380  -66.7250   51.3920 N   0  0  0  0  0  0  0  0  0  0  0  0
  -40.6650  -65.9910   52.6210 C   0  0  1  0  0  0  0  0  0  0  0  0
  -41.2450  -64.6620   52.2690 C   0  0  0  0  0  0  0  0  0  0  0  0
  -41.5750  -66.8230   53.4490 C   0  0  0  0  0  0  0  0  0  0  0  0
  -42.5780  -66.3680   54.0490 O   0  0  0  0  0  0  0  0  0  0  0  0
  -41.3220  -68.2090   53.5890 N   0  0  0  0  0  0  0  0  0  0  0  0
  -40.6130  -68.9740   52.5840 C   0  0  2  0  0  0  0  0  0  0  0  0
  -39.5860  -69.6620   53.4270 C   0  0  0  0  0  0  0  0  0  0  0  0
  -40.4120  -70.0480   54.6590 C   0  0  0  0  0  0  0  0  0  0  0  0
  -41.6470  -69.1410   54.6310 C   0  0  0  0  0  0  0  0  0  0  0  0
  -40.0560  -68.0880   51.5310 C   0  0  0  0  0  0  0  0  0  0  0  0
  -39.1960  -68.5490   50.7040 O   0  0  0  0  0  0  0  0  0  0  0  0
  -48.2320  -65.9120   52.5800 H   0  0  0  0  0  0  0  0  0  0  0  0
  -46.5640  -64.5900   51.3680 H   0  0  0  0  0  0  0  0  0  0  0  0
  -43.5300  -66.5340   53.5700 H   0  0  0  0  0  0  0  0  0  0  0  0
  -45.1700  -67.8590   54.7860 H   0  0  0  0  0  0  0  0  0  0  0  0
  -43.2510  -66.0040   50.0850 H   0  0  0  0  0  0  0  0  0  0  0  0
  -41.5370  -63.8480   50.3040 H   0  0  0  0  0  0  0  0  0  0  0  0
  -39.7420  -65.3200   49.9770 H   0  0  0  0  0  0  0  0  0  0  0  0
  -41.0830  -66.3360   49.3900 H   0  0  0  0  0  0  0  0  0  0  0  0
  -39.7200  -65.8660   53.2120 H   0  0  0  0  0  0  0  0  0  0  0  0
  -42.0640  -64.3220   52.9020 H   0  0  0  0  0  0  0  0  0  0  0  0
  -40.4380  -63.8780   52.2930 H   0  0  0  0  0  0  0  0  0  0  0  0
  -41.2600  -69.7400   52.1090 H   0  0  0  0  0  0  0  0  0  0  0  0
  -39.2040  -70.5500   52.9100 H   0  0  0  0  0  0  0  0  0  0  0  0
  -38.7610  -68.9570   53.7160 H   0  0  0  0  0  0  0  0  0  0  0  0
  -39.8240  -69.9030   55.5880 H   0  0  0  0  0  0  0  0  0  0  0  0
  -40.7710  -71.0840   54.5940 H   0  0  0  0  0  0  0  0  0  0  0  0
  -42.5590  -69.7240   54.4010 H   0  0  0  0  0  0  0  0  0  0  0  0
  -41.7920  -68.6630   55.6190 H   0  0  0  0  0  0  0  0  0  0  0  0
  2  7  1  0  0  0  0
  2  1  1  0  0  0  0
  3  2  2  0  0  0  0
  4  5  2  0  0  0  0
  4  3  1  0  0  0  0
  5  6  1  0  0  0  0
  6 27  1  0  0  0  0
  6  7  2  0  0  0  0
  7 28  1  0  0  0  0
  8  9  2  0  0  0  0
  8  5  1  0  0  0  0
 10 11  1  0  0  0  0
 10  8  1  0  0  0  0
 11 30  1  6  0  0  0
 11 15  1  0  0  0  0
 12 11  1  0  0  0  0
 12 13  1  0  0  0  0
 13 23  1  0  0  0  0
 13 14  1  0  0  0  0
 14 33  1  1  0  0  0
 14 16  1  0  0  0  0
 15 35  1  0  0  0  0
 15 14  1  0  0  0  0
 15 34  1  0  0  0  0
 16 18  1  0  0  0  0
 16 17  2  0  0  0  0
 18 22  1  0  0  0  0
 19 36  1  6  0  0  0
 19 20  1  0  0  0  0
 19 18  1  0  0  0  0
 20 38  1  0  0  0  0
 20 21  1  0  0  0  0
 21 39  1  0  0  0  0
 22 21  1  0  0  0  0
 22 42  1  0  0  0  0
 23 19  1  0  0  0  0
 24 23  2  0  0  0  0
 25  3  1  0  0  0  0
 26  4  1  0  0  0  0
 29 10  1  0  0  0  0
 31 12  1  0  0  0  0
 32 12  1  0  0  0  0
 37 20  1  0  0  0  0
 40 21  1  0  0  0  0
 41 22  1  0  0  0  0
M  END
>  <Pose>
1

>  <Score>
-5.49

$$$$
