
 OpenBabel03202209423D

 59 62  0  0  1  0  0  0  0  0999 V2000
  -43.8720  -66.0430   54.4940 B   0  0  0  0  0  0  0  0  0  0  0  0
  -43.1720  -65.4860   52.8040 C   0  0  0  0  0  0  0  0  0  0  0  0
  -43.8010  -64.4810   52.1010 C   0  0  0  0  0  0  0  0  0  0  0  0
  -43.3090  -64.0650   50.8820 C   0  0  0  0  0  0  0  0  0  0  0  0
  -42.1660  -64.6210   50.2930 C   0  0  0  0  0  0  0  0  0  0  0  0
  -41.5530  -65.6230   51.0080 C   0  0  0  0  0  0  0  0  0  0  0  0
  -42.0480  -66.0490   52.2470 C   0  0  0  0  0  0  0  0  0  0  0  0
  -41.7180  -64.1640   48.9860 C   0  0  0  0  0  0  0  0  0  0  0  0
  -40.4870  -63.7830   48.7270 C   0  0  0  0  0  0  0  0  0  0  0  0
  -39.9710  -63.3070   47.3930 C   0  0  2  0  0  0  0  0  0  0  0  0
  -38.5780  -63.0860   47.5640 N   0  0  0  0  0  0  0  0  0  0  0  0
  -38.1900  -63.2540   48.9440 C   0  0  0  0  0  0  0  0  0  0  0  0
  -37.0790  -63.0770   49.4640 O   0  0  0  0  0  0  0  0  0  0  0  0
  -39.4010  -63.6920   49.6750 C   0  0  0  0  0  0  0  0  0  0  0  0
  -39.4480  -63.9370   50.9240 O   0  0  0  0  0  0  0  0  0  0  0  0
  -37.6070  -62.7310   46.5640 C   0  0  0  0  0  0  0  0  0  0  0  0
  -36.3950  -63.5960   46.5160 C   0  0  0  0  0  0  0  0  0  0  0  0
  -36.0310  -64.0740   45.2160 N   0  0  0  0  0  4  0  0  0  0  0  0
  -34.6660  -64.5500   45.1230 C   0  0  0  0  0  0  0  0  0  0  0  0
  -34.5100  -65.1920   43.7600 C   0  0  0  0  0  0  0  0  0  0  0  0
  -34.6060  -64.1330   42.8250 O   0  0  0  0  0  0  0  0  0  0  0  0
  -35.9370  -63.7100   42.8690 C   0  0  0  0  0  0  0  0  0  0  0  0
  -36.1510  -63.0090   44.2010 C   0  0  0  0  0  0  0  0  0  0  0  0
  -40.7040  -62.0270   47.1450 C   0  0  0  0  0  0  0  0  0  0  0  0
  -40.4970  -60.9910   47.9990 C   0  0  0  0  0  0  0  0  0  0  0  0
  -41.1510  -59.7900   47.8210 C   0  0  0  0  0  0  0  0  0  0  0  0
  -42.0180  -59.6340   46.7740 C   0  0  0  0  0  0  0  0  0  0  0  0
  -42.2250  -60.6790   45.9130 C   0  0  0  0  0  0  0  0  0  0  0  0
  -41.5720  -61.8880   46.0860 C   0  0  0  0  0  0  0  0  0  0  0  0
  -42.7210  -58.3640   46.5760 C   0  0  0  0  0  0  0  0  0  0  0  0
  -42.3400  -57.5810   45.6690 O   0  0  0  0  0  0  0  0  0  0  0  0
  -43.7880  -57.9740   47.3370 O   0  0  0  0  0  0  0  0  0  0  0  0
  -43.8610  -58.1930   48.7280 C   0  0  0  0  0  0  0  0  0  0  0  0
  -42.6190  -64.1050   47.8980 O   0  0  0  0  0  0  0  0  0  0  0  0
  -44.6960  -64.0300   52.5420 H   0  0  0  0  0  0  0  0  0  0  0  0
  -43.8140  -63.2820   50.3500 H   0  0  0  0  0  0  0  0  0  0  0  0
  -40.6680  -66.1140   50.5880 H   0  0  0  0  0  0  0  0  0  0  0  0
  -41.5440  -66.8380   52.7860 H   0  0  0  0  0  0  0  0  0  0  0  0
  -40.2590  -64.0880   46.6750 H   0  0  0  0  0  0  0  0  0  0  0  0
  -38.0730  -62.6990   45.5350 H   0  0  0  0  0  0  0  0  0  0  0  0
  -37.2390  -61.6770   46.7220 H   0  0  0  0  0  0  0  0  0  0  0  0
  -36.6280  -64.5160   47.1290 H   0  0  0  0  0  0  0  0  0  0  0  0
  -35.5170  -63.1490   47.0240 H   0  0  0  0  0  0  0  0  0  0  0  0
  -36.7020  -64.8080   44.8630 H   0  0  0  0  0  0  0  0  0  0  0  0
  -34.3820  -65.2400   45.9420 H   0  0  0  0  0  0  0  0  0  0  0  0
  -33.9880  -63.6610   45.1320 H   0  0  0  0  0  0  0  0  0  0  0  0
  -33.5030  -65.6550   43.6720 H   0  0  0  0  0  0  0  0  0  0  0  0
  -35.3320  -65.9360   43.5730 H   0  0  0  0  0  0  0  0  0  0  0  0
  -36.5710  -64.6380   42.9090 H   0  0  0  0  0  0  0  0  0  0  0  0
  -36.1880  -63.0530   42.0150 H   0  0  0  0  0  0  0  0  0  0  0  0
  -35.3300  -62.2790   44.4190 H   0  0  0  0  0  0  0  0  0  0  0  0
  -37.1440  -62.5180   44.2520 H   0  0  0  0  0  0  0  0  0  0  0  0
  -39.8290  -61.0710   48.8290 H   0  0  0  0  0  0  0  0  0  0  0  0
  -40.9790  -58.9860   48.5000 H   0  0  0  0  0  0  0  0  0  0  0  0
  -42.9260  -60.5270   45.0810 H   0  0  0  0  0  0  0  0  0  0  0  0
  -41.7340  -62.6980   45.4170 H   0  0  0  0  0  0  0  0  0  0  0  0
  -44.4870  -59.0450   49.0000 H   0  0  0  0  0  0  0  0  0  0  0  0
  -42.8400  -58.3420   49.1610 H   0  0  0  0  0  0  0  0  0  0  0  0
  -44.2940  -57.2880   49.2400 H   0  0  0  0  0  0  0  0  0  0  0  0
  2  1  1  0  0  0  0
  3 35  1  0  0  0  0
  3  2  2  0  0  0  0
  4  3  1  0  0  0  0
  5  4  2  0  0  0  0
  5  6  1  0  0  0  0
  6  7  2  0  0  0  0
  7 38  1  0  0  0  0
  7  2  1  0  0  0  0
  8  5  1  0  0  0  0
  9  8  2  0  0  0  0
  9 14  1  0  0  0  0
 10 39  1  6  0  0  0
 10 11  1  0  0  0  0
 10  9  1  0  0  0  0
 11 12  1  0  0  0  0
 12 13  2  0  0  0  0
 12 14  1  0  0  0  0
 14 15  2  0  0  0  0
 16 41  1  0  0  0  0
 16 11  1  0  0  0  0
 17 16  1  0  0  0  0
 17 43  1  0  0  0  0
 17 42  1  0  0  0  0
 18 17  1  0  0  0  0
 19 46  1  0  0  0  0
 19 18  1  0  0  0  0
 19 45  1  0  0  0  0
 20 19  1  0  0  0  0
 21 22  1  0  0  0  0
 21 20  1  0  0  0  0
 22 49  1  0  0  0  0
 22 23  1  0  0  0  0
 23 52  1  0  0  0  0
 23 51  1  0  0  0  0
 23 18  1  0  0  0  0
 24 10  1  0  0  0  0
 24 25  1  0  0  0  0
 25 53  1  0  0  0  0
 26 25  2  0  0  0  0
 26 54  1  0  0  0  0
 27 26  1  0  0  0  0
 28 29  1  0  0  0  0
 28 27  2  0  0  0  0
 29 24  2  0  0  0  0
 30 27  1  0  0  0  0
 30 32  1  0  0  0  0
 31 30  2  0  0  0  0
 32 33  1  0  0  0  0
 33 57  1  0  0  0  0
 33 58  1  0  0  0  0
 33 59  1  0  0  0  0
 34  8  1  0  0  0  0
 36  4  1  0  0  0  0
 37  6  1  0  0  0  0
 40 16  1  0  0  0  0
 44 18  1  0  0  0  0
 47 20  1  0  0  0  0
 48 20  1  0  0  0  0
 50 22  1  0  0  0  0
 55 28  1  0  0  0  0
 56 29  1  0  0  0  0
M  END
>  <Pose>
1

>  <Score>
-5.03

$$$$
