
 OpenBabel03202209423D

 48 51  0  0  1  0  0  0  0  0999 V2000
  -37.3430  -61.9390   46.8810 B   0  0  0  0  0  0  0  0  0  0  0  0
  -38.6860  -62.8090   47.9310 C   0  0  0  0  0  0  0  0  0  0  0  0
  -38.3110  -63.5220   49.0470 C   0  0  0  0  0  0  0  0  0  0  0  0
  -39.2770  -64.1420   49.7940 C   0  0  0  0  0  0  0  0  0  0  0  0
  -40.5970  -64.0510   49.4310 C   0  0  0  0  0  0  0  0  0  0  0  0
  -40.9340  -63.3310   48.3100 C   0  0  0  0  0  0  0  0  0  0  0  0
  -39.9930  -62.6870   47.5220 C   0  0  0  0  0  0  0  0  0  0  0  0
  -41.6600  -64.7400   50.2540 C   0  0  1  0  0  0  0  0  0  0  0  0
  -41.7510  -66.0390   49.7920 O   0  0  0  0  0  0  0  0  0  0  0  0
  -41.3530  -64.6270   51.7160 C   0  0  0  0  0  0  0  0  0  0  0  0
  -42.3540  -65.2170   52.5570 N   0  0  0  0  0  0  0  0  0  0  0  0
  -42.1630  -66.4060   53.1760 C   0  0  0  0  0  0  0  0  0  0  0  0
  -43.3230  -66.6610   53.8900 C   0  0  0  0  0  0  0  0  0  0  0  0
  -43.4020  -67.8230   54.6340 C   0  0  0  0  0  0  0  0  0  0  0  0
  -42.3470  -68.7430   54.6840 C   0  0  0  0  0  0  0  0  0  0  0  0
  -41.2060  -68.4430   53.9520 C   0  0  0  0  0  0  0  0  0  0  0  0
  -41.1000  -67.2960   53.2050 C   0  0  0  0  0  0  0  0  0  0  0  0
  -44.2160  -65.6430   53.7080 N   0  0  0  0  0  0  0  0  0  0  0  0
  -43.5820  -64.7690   52.8800 C   0  0  1  0  0  0  0  0  0  0  0  0
  -44.1150  -63.6640   52.4780 N   0  0  0  0  0  0  0  0  0  0  0  0
  -45.5210  -65.6050   54.2950 C   0  0  0  0  0  0  0  0  0  0  0  0
  -46.6310  -65.8500   53.3120 C   0  0  0  0  0  0  0  0  0  0  0  0
  -47.5640  -66.8360   53.5860 C   0  0  0  0  0  0  0  0  0  0  0  0
  -48.6130  -67.1200   52.7330 C   0  0  0  0  0  0  0  0  0  0  0  0
  -48.7100  -66.3810   51.5800 C   0  0  0  0  0  0  0  0  0  0  0  0
  -47.8000  -65.4000   51.2850 C   0  0  0  0  0  0  0  0  0  0  0  0
  -46.7720  -65.1430   52.1510 C   0  0  0  0  0  0  0  0  0  0  0  0
  -37.2400  -63.5890   49.3320 H   0  0  0  0  0  0  0  0  0  0  0  0
  -38.9960  -64.7070   50.6760 H   0  0  0  0  0  0  0  0  0  0  0  0
  -41.9910  -63.2500   48.0010 H   0  0  0  0  0  0  0  0  0  0  0  0
  -40.2750  -62.1160   46.6310 H   0  0  0  0  0  0  0  0  0  0  0  0
  -42.6320  -64.2470   49.9880 H   0  0  0  0  0  0  0  0  0  0  0  0
  -42.6340  -66.2700   49.4420 H   0  0  0  0  0  0  0  0  0  0  0  0
  -40.4130  -65.2310   51.8810 H   0  0  0  0  0  0  0  0  0  0  0  0
  -41.0990  -63.6080   52.0330 H   0  0  0  0  0  0  0  0  0  0  0  0
  -44.3060  -68.0100   55.1950 H   0  0  0  0  0  0  0  0  0  0  0  0
  -42.4550  -69.6270   55.2720 H   0  0  0  0  0  0  0  0  0  0  0  0
  -40.3800  -69.1450   53.9800 H   0  0  0  0  0  0  0  0  0  0  0  0
  -40.1980  -67.0970   52.6500 H   0  0  0  0  0  0  0  0  0  0  0  0
  -43.5570  -63.0310   51.8290 H   0  0  0  0  0  0  0  0  0  0  0  0
  -45.0430  -63.3100   52.7210 H   0  0  0  0  0  0  0  0  0  0  0  0
  -45.7280  -64.6150   54.7640 H   0  0  0  0  0  0  0  0  0  0  0  0
  -45.5900  -66.3970   55.0680 H   0  0  0  0  0  0  0  0  0  0  0  0
  -47.5130  -67.4530   54.4990 H   0  0  0  0  0  0  0  0  0  0  0  0
  -49.3450  -67.9050   52.9660 H   0  0  0  0  0  0  0  0  0  0  0  0
  -49.5190  -66.5650   50.8750 H   0  0  0  0  0  0  0  0  0  0  0  0
  -47.9200  -64.8310   50.3450 H   0  0  0  0  0  0  0  0  0  0  0  0
  -46.0750  -64.3790   51.9010 H   0  0  0  0  0  0  0  0  0  0  0  0
  1  2  1  0  0  0  0
  2  3  1  0  0  0  0
  3 28  1  0  0  0  0
  3  4  2  0  0  0  0
  4 29  1  0  0  0  0
  5  4  1  0  0  0  0
  5  8  1  0  0  0  0
  6  5  2  0  0  0  0
  7  2  2  0  0  0  0
  7  6  1  0  0  0  0
  8 32  1  6  0  0  0
  8 10  1  0  0  0  0
  9  8  1  0  0  0  0
 10 34  1  0  0  0  0
 10 35  1  0  0  0  0
 10 11  1  0  0  0  0
 11 19  1  0  0  0  0
 11 12  1  0  0  0  0
 12 17  2  0  0  0  0
 12 13  1  0  0  0  0
 13 14  2  0  0  0  0
 14 15  1  0  0  0  0
 14 36  1  0  0  0  0
 15 37  1  0  0  0  0
 16 38  1  0  0  0  0
 16 15  2  0  0  0  0
 17 16  1  0  0  0  0
 18 13  1  0  0  0  0
 18 21  1  0  0  0  0
 19 20  1  1  0  0  0
 19 18  1  0  0  0  0
 20 41  1  0  0  0  0
 21 42  1  0  0  0  0
 21 43  1  0  0  0  0
 22 23  1  0  0  0  0
 22 21  1  0  0  0  0
 23 44  1  0  0  0  0
 24 45  1  0  0  0  0
 24 23  2  0  0  0  0
 25 24  1  0  0  0  0
 26 25  2  0  0  0  0
 26 27  1  0  0  0  0
 27 22  2  0  0  0  0
 30  6  1  0  0  0  0
 31  7  1  0  0  0  0
 33  9  1  0  0  0  0
 39 17  1  0  0  0  0
 40 20  1  0  0  0  0
 46 25  1  0  0  0  0
 47 26  1  0  0  0  0
 48 27  1  0  0  0  0
M  END
>  <Pose>
1

>  <Score>
-5.84

$$$$
