
 OpenBabel03202209423D

 50 54  0  0  1  0  0  0  0  0999 V2000
  -51.7550  -70.6130   57.2250 B   0  0  0  0  0  0  0  0  0  0  0  0
  -50.4230  -69.6290   56.2980 C   0  0  0  0  0  0  0  0  0  0  0  0
  -49.6170  -68.7350   56.9750 C   0  0  0  0  0  0  0  0  0  0  0  0
  -48.6400  -68.0150   56.2920 C   0  0  0  0  0  0  0  0  0  0  0  0
  -48.4440  -68.1630   54.9380 C   0  0  0  0  0  0  0  0  0  0  0  0
  -49.2510  -69.0570   54.2710 C   0  0  0  0  0  0  0  0  0  0  0  0
  -50.2370  -69.7870   54.9400 C   0  0  0  0  0  0  0  0  0  0  0  0
  -47.4210  -67.4080   54.2220 C   0  0  0  0  0  0  0  0  0  0  0  0
  -46.0870  -67.4690   54.4180 N   0  0  0  0  0  0  0  0  0  0  0  0
  -45.4530  -66.6260   53.5670 C   0  0  1  0  0  0  0  0  0  0  0  0
  -46.3810  -66.0110   52.8130 N   0  0  0  0  0  0  0  0  0  0  0  0
  -47.5840  -66.4860   53.2080 C   0  0  0  0  0  0  0  0  0  0  0  0
  -45.7040  -65.1880   51.9890 C   0  0  0  0  0  0  0  0  0  0  0  0
  -44.3500  -65.2860   52.2270 C   0  0  0  0  0  0  0  0  0  0  0  0
  -43.4180  -64.5420   51.5120 C   0  0  0  0  0  0  0  0  0  0  0  0
  -43.8460  -63.6750   50.5340 C   0  0  0  0  0  0  0  0  0  0  0  0
  -45.2020  -63.5840   50.3030 C   0  0  0  0  0  0  0  0  0  0  0  0
  -46.1480  -64.3090   50.9960 C   0  0  0  0  0  0  0  0  0  0  0  0
  -44.2260  -66.1990   53.2260 N   0  0  0  0  0  0  0  0  0  0  0  0
  -42.9410  -66.5860   53.7700 C   0  0  0  0  0  0  0  0  0  0  0  0
  -43.0110  -67.9250   54.4720 C   0  0  0  0  0  0  0  0  0  0  0  0
  -41.9680  -68.7910   54.0000 N   0  0  0  0  0  4  0  0  0  0  0  0
  -41.4180  -69.5620   55.0960 C   0  0  0  0  0  0  0  0  0  0  0  0
  -39.9100  -69.6030   55.0810 C   0  0  0  0  0  0  0  0  0  0  0  0
  -39.4830  -69.9970   53.8110 O   0  0  0  0  0  0  0  0  0  0  0  0
  -39.9250  -69.1440   52.8230 C   0  0  0  0  0  0  0  0  0  0  0  0
  -40.8860  -68.1120   53.3520 C   0  0  0  0  0  0  0  0  0  0  0  0
  -49.7650  -68.6120   58.0450 H   0  0  0  0  0  0  0  0  0  0  0  0
  -48.0370  -67.3320   56.8530 H   0  0  0  0  0  0  0  0  0  0  0  0
  -49.1450  -69.2160   53.2100 H   0  0  0  0  0  0  0  0  0  0  0  0
  -50.8680  -70.4920   54.3960 H   0  0  0  0  0  0  0  0  0  0  0  0
  -45.5950  -68.0670   55.1120 H   0  0  0  0  0  0  0  0  0  0  0  0
  -48.5410  -66.1940   52.8000 H   0  0  0  0  0  0  0  0  0  0  0  0
  -42.3790  -64.6650   51.7470 H   0  0  0  0  0  0  0  0  0  0  0  0
  -43.1360  -63.0690   49.9480 H   0  0  0  0  0  0  0  0  0  0  0  0
  -45.5460  -62.9090   49.5400 H   0  0  0  0  0  0  0  0  0  0  0  0
  -47.1970  -64.2520   50.8310 H   0  0  0  0  0  0  0  0  0  0  0  0
  -42.1970  -66.6770   52.9420 H   0  0  0  0  0  0  0  0  0  0  0  0
  -42.5780  -65.7920   54.4500 H   0  0  0  0  0  0  0  0  0  0  0  0
  -43.9710  -68.4140   54.3000 H   0  0  0  0  0  0  0  0  0  0  0  0
  -42.8650  -67.7390   55.5530 H   0  0  0  0  0  0  0  0  0  0  0  0
  -42.3520  -69.4880   53.3140 H   0  0  0  0  0  0  0  0  0  0  0  0
  -41.7550  -69.1380   56.0840 H   0  0  0  0  0  0  0  0  0  0  0  0
  -41.7730  -70.6160   55.0850 H   0  0  0  0  0  0  0  0  0  0  0  0
  -39.6040  -70.3800   55.8110 H   0  0  0  0  0  0  0  0  0  0  0  0
  -39.4940  -68.6310   55.3940 H   0  0  0  0  0  0  0  0  0  0  0  0
  -39.0150  -68.6060   52.4360 H   0  0  0  0  0  0  0  0  0  0  0  0
  -40.3990  -69.6790   51.9690 H   0  0  0  0  0  0  0  0  0  0  0  0
  -41.3080  -67.5880   52.4480 H   0  0  0  0  0  0  0  0  0  0  0  0
  -40.3420  -67.4100   53.9980 H   0  0  0  0  0  0  0  0  0  0  0  0
  2  3  1  0  0  0  0
  2  1  1  0  0  0  0
  3 28  1  0  0  0  0
  4 29  1  0  0  0  0
  4  3  2  0  0  0  0
  5  4  1  0  0  0  0
  6  5  2  0  0  0  0
  6  7  1  0  0  0  0
  7  2  2  0  0  0  0
  8  9  1  0  0  0  0
  8  5  1  0  0  0  0
  9 32  1  0  0  0  0
 10 11  1  1  0  0  0
 10  9  1  0  0  0  0
 11 12  1  0  0  0  0
 12  8  2  0  0  0  0
 13 14  1  0  0  0  0
 13 11  1  0  0  0  0
 14 19  1  0  0  0  0
 15 34  1  0  0  0  0
 15 14  2  0  0  0  0
 16 15  1  0  0  0  0
 17 16  2  0  0  0  0
 17 18  1  0  0  0  0
 18 13  2  0  0  0  0
 19 10  1  0  0  0  0
 19 20  1  0  0  0  0
 20 39  1  0  0  0  0
 20 21  1  0  0  0  0
 21 41  1  0  0  0  0
 22 21  1  0  0  0  0
 22 23  1  0  0  0  0
 23 43  1  0  0  0  0
 24 23  1  0  0  0  0
 24 46  1  0  0  0  0
 24 45  1  0  0  0  0
 25 24  1  0  0  0  0
 26 27  1  0  0  0  0
 26 25  1  0  0  0  0
 27 50  1  0  0  0  0
 27 22  1  0  0  0  0
 30  6  1  0  0  0  0
 31  7  1  0  0  0  0
 33 12  1  0  0  0  0
 35 16  1  0  0  0  0
 36 17  1  0  0  0  0
 37 18  1  0  0  0  0
 38 20  1  0  0  0  0
 40 21  1  0  0  0  0
 42 22  1  0  0  0  0
 44 23  1  0  0  0  0
 47 26  1  0  0  0  0
 48 26  1  0  0  0  0
 49 27  1  0  0  0  0
M  END
>  <Pose>
1

>  <Score>
-6.05

$$$$
