
 OpenBabel03202209423D

 60 63  0  0  1  0  0  0  0  0999 V2000
  -43.3580  -62.4610   44.5940 B   0  0  0  0  0  0  0  0  0  0  0  0
  -42.5640  -62.8870   46.2750 C   0  0  0  0  0  0  0  0  0  0  0  0
  -41.2240  -63.1890   46.3470 C   0  0  0  0  0  0  0  0  0  0  0  0
  -40.6390  -63.5010   47.5770 C   0  0  0  0  0  0  0  0  0  0  0  0
  -41.3770  -63.5140   48.7350 C   0  0  0  0  0  0  0  0  0  0  0  0
  -42.7150  -63.2090   48.6320 C   0  0  0  0  0  0  0  0  0  0  0  0
  -43.3110  -62.8970   47.4230 C   0  0  0  0  0  0  0  0  0  0  0  0
  -40.7500  -63.8280   50.0110 C   0  0  2  0  0  0  0  0  0  0  0  0
  -39.5920  -64.6810   49.8350 N   0  0  0  0  0  0  0  0  0  0  0  0
  -40.0950  -66.0050   49.6430 C   0  0  0  0  0  0  0  0  0  0  0  0
  -39.5260  -66.9470   49.0360 O   0  0  0  0  0  0  0  0  0  0  0  0
  -41.3980  -66.0350   50.2970 C   0  0  0  0  0  0  0  0  0  0  0  0
  -42.2200  -66.9800   50.3950 O   0  0  0  0  0  0  0  0  0  0  0  0
  -41.6310  -64.7100   50.8630 C   0  0  0  0  0  0  0  0  0  0  0  0
  -42.4440  -64.3990   51.8420 C   0  0  0  0  0  0  0  0  0  0  0  0
  -42.5280  -63.0330   52.1660 O   0  0  0  0  0  0  0  0  0  0  0  0
  -43.2270  -65.3840   52.5810 C   0  0  0  0  0  0  0  0  0  0  0  0
  -42.6850  -66.3170   53.4360 C   0  0  0  0  0  0  0  0  0  0  0  0
  -43.4180  -67.2680   54.1240 C   0  0  0  0  0  0  0  0  0  0  0  0
  -44.7730  -67.2920   53.9530 C   0  0  0  0  0  0  0  0  0  0  0  0
  -45.3640  -66.3650   53.0990 C   0  0  0  0  0  0  0  0  0  0  0  0
  -44.6010  -65.4320   52.4290 C   0  0  0  0  0  0  0  0  0  0  0  0
  -42.7110  -68.1240   54.9370 O   0  0  0  0  0  0  0  0  0  0  0  0
  -41.5800  -68.8590   54.6190 C   0  0  0  0  0  0  0  0  0  0  0  0
  -38.1730  -64.2870   49.8460 C   0  0  0  0  0  0  0  0  0  0  0  0
  -37.9390  -63.1140   48.8820 C   0  0  0  0  0  0  0  0  0  0  0  0
  -36.5830  -63.2580   48.2510 C   0  0  0  0  0  0  0  0  0  0  0  0
  -35.9510  -61.9620   48.1930 N   0  0  0  0  0  4  0  0  0  0  0  0
  -36.1010  -61.2950   46.9380 C   0  0  0  0  0  0  0  0  0  0  0  0
  -35.2780  -61.8970   45.8500 C   0  0  0  0  0  0  0  0  0  0  0  0
  -33.9410  -61.9400   46.2080 O   0  0  0  0  0  0  0  0  0  0  0  0
  -33.8320  -62.7470   47.3410 C   0  0  0  0  0  0  0  0  0  0  0  0
  -34.5300  -62.0340   48.4830 C   0  0  0  0  0  0  0  0  0  0  0  0
  -40.6630  -63.1740   45.4270 H   0  0  0  0  0  0  0  0  0  0  0  0
  -39.5990  -63.7260   47.5740 H   0  0  0  0  0  0  0  0  0  0  0  0
  -43.2730  -63.2270   49.5590 H   0  0  0  0  0  0  0  0  0  0  0  0
  -44.3610  -62.6590   47.3840 H   0  0  0  0  0  0  0  0  0  0  0  0
  -40.5030  -62.8950   50.5510 H   0  0  0  0  0  0  0  0  0  0  0  0
  -41.6200  -66.2980   53.5900 H   0  0  0  0  0  0  0  0  0  0  0  0
  -45.3690  -68.0280   54.4810 H   0  0  0  0  0  0  0  0  0  0  0  0
  -46.4490  -66.4370   53.0050 H   0  0  0  0  0  0  0  0  0  0  0  0
  -45.1220  -64.7250   51.7650 H   0  0  0  0  0  0  0  0  0  0  0  0
  -41.6070  -69.9050   55.0370 H   0  0  0  0  0  0  0  0  0  0  0  0
  -41.4170  -68.8670   53.5380 H   0  0  0  0  0  0  0  0  0  0  0  0
  -40.7040  -68.3910   55.1140 H   0  0  0  0  0  0  0  0  0  0  0  0
  -37.5870  -65.1140   49.4500 H   0  0  0  0  0  0  0  0  0  0  0  0
  -37.9620  -63.9930   50.8780 H   0  0  0  0  0  0  0  0  0  0  0  0
  -38.6820  -63.0960   48.0880 H   0  0  0  0  0  0  0  0  0  0  0  0
  -37.9870  -62.1530   49.4350 H   0  0  0  0  0  0  0  0  0  0  0  0
  -36.0160  -63.9700   48.8960 H   0  0  0  0  0  0  0  0  0  0  0  0
  -36.6830  -63.6720   47.2500 H   0  0  0  0  0  0  0  0  0  0  0  0
  -36.3700  -61.3620   48.9410 H   0  0  0  0  0  0  0  0  0  0  0  0
  -37.1770  -61.2930   46.6530 H   0  0  0  0  0  0  0  0  0  0  0  0
  -35.8120  -60.2240   47.0780 H   0  0  0  0  0  0  0  0  0  0  0  0
  -35.5970  -62.9540   45.6690 H   0  0  0  0  0  0  0  0  0  0  0  0
  -35.4450  -61.3150   44.9160 H   0  0  0  0  0  0  0  0  0  0  0  0
  -32.7810  -62.9460   47.6260 H   0  0  0  0  0  0  0  0  0  0  0  0
  -34.3220  -63.7350   47.2010 H   0  0  0  0  0  0  0  0  0  0  0  0
  -34.1370  -60.9980   48.4910 H   0  0  0  0  0  0  0  0  0  0  0  0
  -34.3230  -62.5280   49.4430 H   0  0  0  0  0  0  0  0  0  0  0  0
  1  2  1  0  0  0  0
  2  3  2  0  0  0  0
  2  7  1  0  0  0  0
  3  4  1  0  0  0  0
  4  5  2  0  0  0  0
  5  8  1  0  0  0  0
  6  5  1  0  0  0  0
  6 36  1  0  0  0  0
  7  6  2  0  0  0  0
  8 38  1  1  0  0  0
  8 14  1  0  0  0  0
  9 25  1  0  0  0  0
  9  8  1  0  0  0  0
 10  9  1  0  0  0  0
 10 12  1  0  0  0  0
 11 10  2  0  0  0  0
 12 13  2  0  0  0  0
 12 14  1  0  0  0  0
 14 15  2  0  0  0  0
 15 16  1  0  0  0  0
 15 17  1  0  0  0  0
 17 18  1  0  0  0  0
 18 39  1  0  0  0  0
 18 19  2  0  0  0  0
 19 23  1  0  0  0  0
 20 19  1  0  0  0  0
 20 40  1  0  0  0  0
 21 20  2  0  0  0  0
 22 17  2  0  0  0  0
 22 21  1  0  0  0  0
 24 23  1  0  0  0  0
 24 43  1  0  0  0  0
 24 45  1  0  0  0  0
 25 47  1  0  0  0  0
 26 49  1  0  0  0  0
 26 25  1  0  0  0  0
 27 26  1  0  0  0  0
 27 50  1  0  0  0  0
 28 27  1  0  0  0  0
 28 33  1  0  0  0  0
 28 52  1  0  0  0  0
 29 54  1  0  0  0  0
 29 28  1  0  0  0  0
 30 31  1  0  0  0  0
 30 29  1  0  0  0  0
 31 32  1  0  0  0  0
 32 57  1  0  0  0  0
 32 33  1  0  0  0  0
 33 59  1  0  0  0  0
 33 60  1  0  0  0  0
 34  3  1  0  0  0  0
 35  4  1  0  0  0  0
 37  7  1  0  0  0  0
 41 21  1  0  0  0  0
 42 22  1  0  0  0  0
 44 24  1  0  0  0  0
 46 25  1  0  0  0  0
 48 26  1  0  0  0  0
 51 27  1  0  0  0  0
 53 29  1  0  0  0  0
 55 30  1  0  0  0  0
 56 30  1  0  0  0  0
 58 32  1  0  0  0  0
M  END
>  <Pose>
1

>  <Score>
-5.76

$$$$
