
 OpenBabel03202209423D

 56 59  0  0  1  0  0  0  0  0999 V2000
  -40.6560  -68.2840   54.1950 B   0  0  0  0  0  0  0  0  0  0  0  0
  -42.3020  -67.3650   53.8570 C   0  0  0  0  0  0  0  0  0  0  0  0
  -42.4570  -66.5300   52.7720 C   0  0  0  0  0  0  0  0  0  0  0  0
  -43.6400  -65.8850   52.5510 C   0  0  0  0  0  0  0  0  0  0  0  0
  -44.7460  -66.0320   53.4020 C   0  0  0  0  0  0  0  0  0  0  0  0
  -44.5890  -66.8520   54.4640 C   0  0  0  0  0  0  0  0  0  0  0  0
  -43.3820  -67.5140   54.6940 C   0  0  0  0  0  0  0  0  0  0  0  0
  -45.9210  -65.3240   53.0680 C   0  0  1  0  0  0  0  0  0  0  0  0
  -46.2160  -64.6430   51.8820 N   0  0  0  0  0  0  0  0  0  0  0  0
  -47.4560  -63.9080   52.2070 C   0  0  0  0  0  0  0  0  0  0  0  0
  -47.8340  -62.8030   51.7290 O   0  0  0  0  0  0  0  0  0  0  0  0
  -48.1310  -64.7540   53.1970 C   0  0  0  0  0  0  0  0  0  0  0  0
  -49.2440  -64.5550   53.7720 O   0  0  0  0  0  0  0  0  0  0  0  0
  -47.2470  -65.9190   53.3960 C   0  0  0  0  0  0  0  0  0  0  0  0
  -47.5920  -67.1440   53.7210 C   0  0  0  0  0  0  0  0  0  0  0  0
  -46.6340  -68.1480   53.8000 O   0  0  0  0  0  0  0  0  0  0  0  0
  -48.9620  -67.5280   54.0250 C   0  0  0  0  0  0  0  0  0  0  0  0
  -49.8080  -68.2000   53.2000 C   0  0  0  0  0  0  0  0  0  0  0  0
  -51.0810  -68.5470   53.6310 C   0  0  0  0  0  0  0  0  0  0  0  0
  -51.5030  -68.2160   54.8980 C   0  0  0  0  0  0  0  0  0  0  0  0
  -50.6780  -67.5360   55.7630 C   0  0  0  0  0  0  0  0  0  0  0  0
  -49.4100  -67.2000   55.3100 C   0  0  0  0  0  0  0  0  0  0  0  0
  -52.8650  -68.5720   55.3960 C   0  0  0  0  0  0  0  0  0  0  0  0
  -45.6430  -64.4640   50.5570 C   0  0  0  0  0  0  0  0  0  0  0  0
  -44.4380  -63.5620   50.5250 C   0  0  0  0  0  0  0  0  0  0  0  0
  -43.4240  -63.9830   49.6140 N   0  0  0  0  0  4  0  0  0  0  0  0
  -42.2390  -64.4010   50.3400 C   0  0  0  0  0  0  0  0  0  0  0  0
  -41.2110  -64.8780   49.3490 C   0  0  0  0  0  0  0  0  0  0  0  0
  -40.7780  -63.7380   48.6520 O   0  0  0  0  0  0  0  0  0  0  0  0
  -41.8490  -63.2500   47.9410 C   0  0  0  0  0  0  0  0  0  0  0  0
  -42.9900  -62.8140   48.8230 C   0  0  0  0  0  0  0  0  0  0  0  0
  -41.5920  -66.4200   52.1150 H   0  0  0  0  0  0  0  0  0  0  0  0
  -43.7150  -65.2270   51.6700 H   0  0  0  0  0  0  0  0  0  0  0  0
  -45.3420  -67.0810   55.2070 H   0  0  0  0  0  0  0  0  0  0  0  0
  -43.2410  -68.1770   55.5460 H   0  0  0  0  0  0  0  0  0  0  0  0
  -45.9060  -64.4230   53.8570 H   0  0  0  0  0  0  0  0  0  0  0  0
  -49.4870  -68.4360   52.1830 H   0  0  0  0  0  0  0  0  0  0  0  0
  -51.7430  -69.0820   52.9640 H   0  0  0  0  0  0  0  0  0  0  0  0
  -50.9940  -67.2610   56.7760 H   0  0  0  0  0  0  0  0  0  0  0  0
  -48.7200  -66.6620   55.9570 H   0  0  0  0  0  0  0  0  0  0  0  0
  -53.4950  -67.6760   55.5600 H   0  0  0  0  0  0  0  0  0  0  0  0
  -53.3800  -69.2250   54.6380 H   0  0  0  0  0  0  0  0  0  0  0  0
  -52.8100  -69.1660   56.3310 H   0  0  0  0  0  0  0  0  0  0  0  0
  -45.2610  -65.4690   50.2090 H   0  0  0  0  0  0  0  0  0  0  0  0
  -46.3650  -64.0780   49.8440 H   0  0  0  0  0  0  0  0  0  0  0  0
  -44.7610  -62.5200   50.1920 H   0  0  0  0  0  0  0  0  0  0  0  0
  -44.0190  -63.4430   51.5650 H   0  0  0  0  0  0  0  0  0  0  0  0
  -43.7390  -64.7170   48.9630 H   0  0  0  0  0  0  0  0  0  0  0  0
  -42.4010  -65.1860   51.0790 H   0  0  0  0  0  0  0  0  0  0  0  0
  -41.8390  -63.5250   50.8980 H   0  0  0  0  0  0  0  0  0  0  0  0
  -41.6270  -65.6150   48.6510 H   0  0  0  0  0  0  0  0  0  0  0  0
  -40.3410  -65.3240   49.8670 H   0  0  0  0  0  0  0  0  0  0  0  0
  -41.4850  -62.3470   47.3820 H   0  0  0  0  0  0  0  0  0  0  0  0
  -42.1960  -63.9940   47.2160 H   0  0  0  0  0  0  0  0  0  0  0  0
  -42.6570  -62.0590   49.5550 H   0  0  0  0  0  0  0  0  0  0  0  0
  -43.7910  -62.4190   48.1920 H   0  0  0  0  0  0  0  0  0  0  0  0
  2  1  1  0  0  0  0
  2  7  1  0  0  0  0
  3  2  2  0  0  0  0
  4  3  1  0  0  0  0
  4  5  2  0  0  0  0
  5  6  1  0  0  0  0
  6  7  2  0  0  0  0
  6 34  1  0  0  0  0
  7 35  1  0  0  0  0
  8 14  1  0  0  0  0
  8  5  1  0  0  0  0
  8 36  1  1  0  0  0
  9 10  1  0  0  0  0
  9  8  1  0  0  0  0
 10 12  1  0  0  0  0
 11 10  2  0  0  0  0
 12 14  1  0  0  0  0
 12 13  2  0  0  0  0
 14 15  2  0  0  0  0
 15 16  1  0  0  0  0
 15 17  1  0  0  0  0
 17 22  1  0  0  0  0
 18 19  1  0  0  0  0
 18 17  2  0  0  0  0
 19 20  2  0  0  0  0
 20 23  1  0  0  0  0
 20 21  1  0  0  0  0
 21 39  1  0  0  0  0
 22 21  2  0  0  0  0
 22 40  1  0  0  0  0
 23 41  1  0  0  0  0
 23 43  1  0  0  0  0
 24  9  1  0  0  0  0
 25 24  1  0  0  0  0
 25 47  1  0  0  0  0
 26 27  1  0  0  0  0
 26 25  1  0  0  0  0
 27 50  1  0  0  0  0
 27 49  1  0  0  0  0
 28 52  1  0  0  0  0
 28 27  1  0  0  0  0
 29 28  1  0  0  0  0
 30 29  1  0  0  0  0
 30 31  1  0  0  0  0
 31 55  1  0  0  0  0
 31 26  1  0  0  0  0
 32  3  1  0  0  0  0
 33  4  1  0  0  0  0
 37 18  1  0  0  0  0
 38 19  1  0  0  0  0
 42 23  1  0  0  0  0
 44 24  1  0  0  0  0
 45 24  1  0  0  0  0
 46 25  1  0  0  0  0
 48 26  1  0  0  0  0
 51 28  1  0  0  0  0
 53 30  1  0  0  0  0
 54 30  1  0  0  0  0
 56 31  1  0  0  0  0
M  END
>  <Pose>
1

>  <Score>
-5.68

$$$$
