
 OpenBabel03202209423D

 55 57  0  0  1  0  0  0  0  0999 V2000
  -40.0150  -62.9250   47.9470 B   0  0  0  0  0  0  0  0  0  0  0  0
  -40.8660  -63.6590   49.4900 C   0  0  0  0  0  0  0  0  0  0  0  0
  -42.1500  -64.1570   49.4530 C   0  0  0  0  0  0  0  0  0  0  0  0
  -42.7530  -64.6850   50.5790 C   0  0  0  0  0  0  0  0  0  0  0  0
  -42.1250  -64.7450   51.7770 C   0  0  0  0  0  0  0  0  0  0  0  0
  -40.8160  -64.2350   51.8010 C   0  0  0  0  0  0  0  0  0  0  0  0
  -40.1960  -63.7050   50.6930 C   0  0  0  0  0  0  0  0  0  0  0  0
  -42.6600  -65.2520   53.0250 C   0  0  1  0  0  0  0  0  0  0  0  0
  -44.0700  -65.4480   53.1320 N   0  0  0  0  0  0  0  0  0  0  0  0
  -44.2510  -66.3870   54.2230 C   0  0  0  0  0  0  0  0  0  0  0  0
  -45.3230  -66.5380   54.8640 O   0  0  0  0  0  0  0  0  0  0  0  0
  -42.9970  -67.0900   54.4180 C   0  0  0  0  0  0  0  0  0  0  0  0
  -42.7390  -67.9950   55.2680 O   0  0  0  0  0  0  0  0  0  0  0  0
  -42.0750  -66.5560   53.4370 C   0  0  0  0  0  0  0  0  0  0  0  0
  -40.9760  -67.1470   53.0030 C   0  0  0  0  0  0  0  0  0  0  0  0
  -40.2500  -66.4560   52.0030 O   0  0  0  0  0  0  0  0  0  0  0  0
  -40.4840  -68.4220   53.4860 C   0  0  0  0  0  0  0  0  0  0  0  0
  -39.7050  -69.1620   52.5880 C   0  0  0  0  0  0  0  0  0  0  0  0
  -39.1370  -70.3720   52.9290 C   0  0  0  0  0  0  0  0  0  0  0  0
  -39.3300  -70.8700   54.1630 N   0  0  0  0  0  0  0  0  0  0  0  0
  -40.0760  -70.1780   55.0500 C   0  0  0  0  0  0  0  0  0  0  0  0
  -40.6540  -68.9550   54.7170 C   0  0  0  0  0  0  0  0  0  0  0  0
  -45.2010  -64.8390   52.4290 C   0  0  0  0  0  0  0  0  0  0  0  0
  -45.0360  -64.7140   50.9530 C   0  0  0  0  0  0  0  0  0  0  0  0
  -46.2030  -63.9810   50.3100 C   0  0  0  0  0  0  0  0  0  0  0  0
  -46.6530  -64.6560   49.1150 N   0  0  0  0  0  4  0  0  0  0  0  0
  -47.9950  -65.1780   49.2440 C   0  0  0  0  0  0  0  0  0  0  0  0
  -48.4910  -65.4670   47.8250 C   0  0  0  0  0  0  0  0  0  0  0  0
  -48.8190  -64.2550   47.2190 O   0  0  0  0  0  0  0  0  0  0  0  0
  -47.8960  -63.2580   47.5320 C   0  0  0  0  0  0  0  0  0  0  0  0
  -46.5600  -63.8460   47.9400 C   0  0  0  0  0  0  0  0  0  0  0  0
  -42.6670  -64.1160   48.5050 H   0  0  0  0  0  0  0  0  0  0  0  0
  -43.7720  -65.0860   50.5020 H   0  0  0  0  0  0  0  0  0  0  0  0
  -40.2400  -64.2440   52.7180 H   0  0  0  0  0  0  0  0  0  0  0  0
  -39.1710  -63.3180   50.7570 H   0  0  0  0  0  0  0  0  0  0  0  0
  -42.3900  -64.5580   53.8680 H   0  0  0  0  0  0  0  0  0  0  0  0
  -39.5230  -68.8020   51.5850 H   0  0  0  0  0  0  0  0  0  0  0  0
  -38.5360  -70.9490   52.2420 H   0  0  0  0  0  0  0  0  0  0  0  0
  -40.2340  -70.5780   56.0500 H   0  0  0  0  0  0  0  0  0  0  0  0
  -41.2120  -68.4340   55.4740 H   0  0  0  0  0  0  0  0  0  0  0  0
  -45.3390  -63.8310   52.8540 H   0  0  0  0  0  0  0  0  0  0  0  0
  -46.1430  -65.3930   52.6210 H   0  0  0  0  0  0  0  0  0  0  0  0
  -44.0780  -64.1560   50.6990 H   0  0  0  0  0  0  0  0  0  0  0  0
  -44.9570  -65.6920   50.4720 H   0  0  0  0  0  0  0  0  0  0  0  0
  -47.0320  -63.9720   51.0180 H   0  0  0  0  0  0  0  0  0  0  0  0
  -45.8380  -62.9840   50.0170 H   0  0  0  0  0  0  0  0  0  0  0  0
  -46.0190  -65.4800   48.9840 H   0  0  0  0  0  0  0  0  0  0  0  0
  -48.0490  -66.1320   49.7890 H   0  0  0  0  0  0  0  0  0  0  0  0
  -48.6700  -64.4500   49.7140 H   0  0  0  0  0  0  0  0  0  0  0  0
  -49.3130  -66.1810   47.8280 H   0  0  0  0  0  0  0  0  0  0  0  0
  -47.6270  -65.8920   47.2800 H   0  0  0  0  0  0  0  0  0  0  0  0
  -47.7020  -62.6180   46.6480 H   0  0  0  0  0  0  0  0  0  0  0  0
  -48.2860  -62.6370   48.3700 H   0  0  0  0  0  0  0  0  0  0  0  0
  -45.8650  -63.0260   48.1110 H   0  0  0  0  0  0  0  0  0  0  0  0
  -46.1910  -64.4190   47.0510 H   0  0  0  0  0  0  0  0  0  0  0  0
  1  2  1  0  0  0  0
  2  7  1  0  0  0  0
  3  2  2  0  0  0  0
  3  4  1  0  0  0  0
  4  5  2  0  0  0  0
  5  6  1  0  0  0  0
  5  8  1  0  0  0  0
  6 34  1  0  0  0  0
  7 35  1  0  0  0  0
  7  6  2  0  0  0  0
  8  9  1  0  0  0  0
  8 14  1  0  0  0  0
  8 36  1  1  0  0  0
  9 10  1  0  0  0  0
 10 12  1  0  0  0  0
 10 11  2  0  0  0  0
 12 13  2  0  0  0  0
 14 12  1  0  0  0  0
 15 14  2  0  0  0  0
 15 17  1  0  0  0  0
 16 15  1  0  0  0  0
 17 22  1  0  0  0  0
 18 19  1  0  0  0  0
 18 17  2  0  0  0  0
 19 20  2  0  0  0  0
 20 21  1  0  0  0  0
 21 39  1  0  0  0  0
 22 21  2  0  0  0  0
 22 40  1  0  0  0  0
 23 42  1  0  0  0  0
 23 41  1  0  0  0  0
 23  9  1  0  0  0  0
 24 23  1  0  0  0  0
 25 45  1  0  0  0  0
 26 27  1  0  0  0  0
 26 25  1  0  0  0  0
 27 49  1  0  0  0  0
 27 48  1  0  0  0  0
 28 50  1  0  0  0  0
 28 27  1  0  0  0  0
 29 30  1  0  0  0  0
 29 28  1  0  0  0  0
 30 31  1  0  0  0  0
 30 53  1  0  0  0  0
 31 54  1  0  0  0  0
 31 26  1  0  0  0  0
 32  3  1  0  0  0  0
 33  4  1  0  0  0  0
 37 18  1  0  0  0  0
 38 19  1  0  0  0  0
 43 24  1  0  0  0  0
 44 24  1  0  0  0  0
 46 25  1  0  0  0  0
 47 26  1  0  0  0  0
 51 28  1  0  0  0  0
 52 30  1  0  0  0  0
 55 31  1  0  0  0  0
M  END
>  <Pose>
1

>  <Score>
-6.62

$$$$
