
 OpenBabel03202209423D

 62 66  0  0  1  0  0  0  0  0999 V2000
  -39.1980  -64.5610   47.4130 B   0  0  0  0  0  0  0  0  0  0  0  0
  -39.9510  -65.0760   49.0890 C   0  0  0  0  0  0  0  0  0  0  0  0
  -39.7440  -64.3440   50.2430 C   0  0  0  0  0  0  0  0  0  0  0  0
  -40.2880  -64.7150   51.4550 C   0  0  0  0  0  0  0  0  0  0  0  0
  -41.0610  -65.8380   51.5460 C   0  0  0  0  0  0  0  0  0  0  0  0
  -41.2680  -66.5640   50.4080 C   0  0  0  0  0  0  0  0  0  0  0  0
  -40.7340  -66.2100   49.1910 C   0  0  0  0  0  0  0  0  0  0  0  0
  -41.6650  -66.2620   52.7710 C   0  0  2  0  0  0  0  0  0  0  0  0
  -41.6150  -67.5840   53.2370 N   0  0  0  0  0  0  0  0  0  0  0  0
  -42.4380  -67.5320   54.4340 C   0  0  0  0  0  0  0  0  0  0  0  0
  -42.3760  -68.2860   55.4640 O   0  0  0  0  0  0  0  0  0  0  0  0
  -43.3890  -66.4390   54.2670 C   0  0  0  0  0  0  0  0  0  0  0  0
  -44.3030  -66.0060   55.0400 O   0  0  0  0  0  0  0  0  0  0  0  0
  -43.0870  -65.8750   52.9530 C   0  0  0  0  0  0  0  0  0  0  0  0
  -43.8740  -65.1690   52.1630 C   0  0  0  0  0  0  0  0  0  0  0  0
  -43.3840  -64.6690   50.9630 O   0  0  0  0  0  0  0  0  0  0  0  0
  -45.2620  -64.8810   52.4880 C   0  0  0  0  0  0  0  0  0  0  0  0
  -46.2160  -65.7450   52.8760 N   0  0  0  0  0  0  0  0  0  0  0  0
  -47.3700  -65.0820   53.1220 C   0  0  0  0  0  0  0  0  0  0  0  0
  -47.1200  -63.7850   52.8800 N   0  0  0  0  0  0  0  0  0  0  0  0
  -45.8570  -63.6180   52.4930 C   0  0  0  0  0  0  0  0  0  0  0  0
  -45.1320  -62.3740   52.1210 C   0  0  0  0  0  0  0  0  0  0  0  0
  -48.5200  -65.7250   53.5270 C   0  0  0  0  0  0  0  0  0  0  0  0
  -48.5440  -67.0890   53.6990 C   0  0  0  0  0  0  0  0  0  0  0  0
  -47.3790  -67.7790   53.4510 C   0  0  0  0  0  0  0  0  0  0  0  0
  -46.2710  -67.0970   53.0540 C   0  0  0  0  0  0  0  0  0  0  0  0
  -41.0100  -68.8330   52.9060 C   0  0  0  0  0  0  0  0  0  0  0  0
  -39.6770  -69.2090   53.3250 C   0  0  0  0  0  0  0  0  0  0  0  0
  -38.7290  -69.7370   52.2750 C   0  0  0  0  0  0  0  0  0  0  0  0
  -37.3720  -69.2420   52.4860 N   0  0  0  0  0  4  0  0  0  0  0  0
  -37.3010  -67.8400   52.7730 C   0  0  0  0  0  0  0  0  0  0  0  0
  -37.2130  -66.9550   51.5640 C   0  0  0  0  0  0  0  0  0  0  0  0
  -37.5220  -67.5910   50.3910 O   0  0  0  0  0  0  0  0  0  0  0  0
  -36.8380  -68.7550   50.1540 C   0  0  0  0  0  0  0  0  0  0  0  0
  -36.5100  -69.5380   51.3820 C   0  0  0  0  0  0  0  0  0  0  0  0
  -39.1290  -63.4440   50.1850 H   0  0  0  0  0  0  0  0  0  0  0  0
  -40.0720  -64.0680   52.3380 H   0  0  0  0  0  0  0  0  0  0  0  0
  -41.8890  -67.4790   50.4030 H   0  0  0  0  0  0  0  0  0  0  0  0
  -40.9040  -66.7990   48.2780 H   0  0  0  0  0  0  0  0  0  0  0  0
  -41.1430  -65.6550   53.5860 H   0  0  0  0  0  0  0  0  0  0  0  0
  -44.1270  -62.4050   52.5840 H   0  0  0  0  0  0  0  0  0  0  0  0
  -45.6940  -61.5270   52.5350 H   0  0  0  0  0  0  0  0  0  0  0  0
  -45.0880  -62.3300   51.0180 H   0  0  0  0  0  0  0  0  0  0  0  0
  -49.4210  -65.1660   53.7150 H   0  0  0  0  0  0  0  0  0  0  0  0
  -49.4100  -67.6280   54.0110 H   0  0  0  0  0  0  0  0  0  0  0  0
  -47.3790  -68.8460   53.5830 H   0  0  0  0  0  0  0  0  0  0  0  0
  -45.3390  -67.6470   52.8470 H   0  0  0  0  0  0  0  0  0  0  0  0
  -41.1150  -69.0470   51.7930 H   0  0  0  0  0  0  0  0  0  0  0  0
  -41.7150  -69.6140   53.3390 H   0  0  0  0  0  0  0  0  0  0  0  0
  -39.1620  -68.5520   54.0770 H   0  0  0  0  0  0  0  0  0  0  0  0
  -39.8260  -70.1300   53.9950 H   0  0  0  0  0  0  0  0  0  0  0  0
  -39.0010  -69.3800   51.2550 H   0  0  0  0  0  0  0  0  0  0  0  0
  -38.6850  -70.8350   52.3640 H   0  0  0  0  0  0  0  0  0  0  0  0
  -37.0090  -69.7450   53.3340 H   0  0  0  0  0  0  0  0  0  0  0  0
  -38.0580  -67.4730   53.4960 H   0  0  0  0  0  0  0  0  0  0  0  0
  -36.3160  -67.6970   53.3150 H   0  0  0  0  0  0  0  0  0  0  0  0
  -36.2420  -66.3900   51.4960 H   0  0  0  0  0  0  0  0  0  0  0  0
  -37.9790  -66.1370   51.7000 H   0  0  0  0  0  0  0  0  0  0  0  0
  -35.9260  -68.5870   49.5160 H   0  0  0  0  0  0  0  0  0  0  0  0
  -37.5000  -69.4060   49.5130 H   0  0  0  0  0  0  0  0  0  0  0  0
  -35.4740  -69.2570   51.6920 H   0  0  0  0  0  0  0  0  0  0  0  0
  -36.4900  -70.6340   51.2250 H   0  0  0  0  0  0  0  0  0  0  0  0
  1  2  1  0  0  0  0
  2  7  2  0  0  0  0
  2  3  1  0  0  0  0
  3  4  2  0  0  0  0
  4  5  1  0  0  0  0
  4 37  1  0  0  0  0
  5  8  1  0  0  0  0
  6  5  2  0  0  0  0
  7  6  1  0  0  0  0
  8 14  1  0  0  0  0
  8  9  1  0  0  0  0
  8 40  1  1  0  0  0
  9 10  1  0  0  0  0
 10 11  2  0  0  0  0
 12 10  1  0  0  0  0
 12 13  2  0  0  0  0
 14 12  1  0  0  0  0
 15 17  1  0  0  0  0
 15 14  2  0  0  0  0
 16 15  1  0  0  0  0
 17 21  2  0  0  0  0
 17 18  1  0  0  0  0
 18 26  1  0  0  0  0
 18 19  1  0  0  0  0
 19 23  1  0  0  0  0
 20 19  2  0  0  0  0
 21 20  1  0  0  0  0
 22 21  1  0  0  0  0
 22 42  1  0  0  0  0
 22 41  1  0  0  0  0
 23 24  2  0  0  0  0
 23 44  1  0  0  0  0
 24 45  1  0  0  0  0
 25 46  1  0  0  0  0
 25 24  1  0  0  0  0
 26 25  2  0  0  0  0
 27  9  1  0  0  0  0
 27 28  1  0  0  0  0
 27 49  1  0  0  0  0
 28 51  1  0  0  0  0
 28 50  1  0  0  0  0
 29 53  1  0  0  0  0
 29 30  1  0  0  0  0
 29 28  1  0  0  0  0
 30 31  1  0  0  0  0
 30 54  1  0  0  0  0
 31 56  1  0  0  0  0
 31 55  1  0  0  0  0
 32 58  1  0  0  0  0
 32 31  1  0  0  0  0
 33 32  1  0  0  0  0
 34 33  1  0  0  0  0
 34 35  1  0  0  0  0
 35 61  1  0  0  0  0
 35 30  1  0  0  0  0
 36  3  1  0  0  0  0
 38  6  1  0  0  0  0
 39  7  1  0  0  0  0
 43 22  1  0  0  0  0
 47 26  1  0  0  0  0
 48 27  1  0  0  0  0
 52 29  1  0  0  0  0
 57 32  1  0  0  0  0
 59 34  1  0  0  0  0
 60 34  1  0  0  0  0
 62 35  1  0  0  0  0
M  END
>  <Pose>
1

>  <Score>
-5.97

$$$$
