
 OpenBabel03202209423D

 47 50  0  0  1  0  0  0  0  0999 V2000
  -46.9670  -64.3940   53.0120 B   0  0  0  0  0  0  0  0  0  0  0  0
  -45.4100  -65.4470   53.3800 C   0  0  0  0  0  0  0  0  0  0  0  0
  -45.5150  -66.7330   53.8660 C   0  0  0  0  0  0  0  0  0  0  0  0
  -44.3990  -67.5100   54.1380 C   0  0  0  0  0  0  0  0  0  0  0  0
  -43.1310  -67.0120   53.9280 C   0  0  0  0  0  0  0  0  0  0  0  0
  -43.0330  -65.7240   53.4410 C   0  0  0  0  0  0  0  0  0  0  0  0
  -44.1410  -64.9490   53.1700 C   0  0  0  0  0  0  0  0  0  0  0  0
  -41.9850  -67.8190   54.2110 N   0  0  0  0  0  0  0  0  0  0  0  0
  -41.6010  -68.3130   55.3760 N   0  0  0  0  0  0  0  0  0  0  0  0
  -40.4870  -69.0160   55.2590 N   0  0  0  0  0  0  0  0  0  0  0  0
  -40.0980  -68.9990   53.9560 C   0  0  0  0  0  0  0  0  0  0  0  0
  -41.0640  -68.2370   53.3250 C   0  0  0  0  0  0  0  0  0  0  0  0
  -40.9270  -68.0530   52.0070 N   0  0  0  0  0  0  0  0  0  0  0  0
  -39.8910  -68.5910   51.3390 C   0  0  0  0  0  0  0  0  0  0  0  0
  -38.9430  -69.3370   51.9490 N   0  0  0  0  0  0  0  0  0  0  0  0
  -39.0420  -69.5470   53.2670 C   0  0  0  0  0  0  0  0  0  0  0  0
  -38.1660  -70.2370   53.8340 O   0  0  0  0  0  0  0  0  0  0  0  0
  -37.8630  -69.8770   51.1430 C   0  0  0  0  0  0  0  0  0  0  0  0
  -36.9690  -68.7630   50.6610 C   0  0  0  0  0  0  0  0  0  0  0  0
  -35.7920  -68.6510   51.0960 O   0  0  0  0  0  0  0  0  0  0  0  0
  -37.4310  -67.8220   49.7110 N   0  0  0  0  0  0  0  0  0  0  0  0
  -36.8030  -67.6890   48.4190 C   0  0  0  0  0  0  0  0  0  0  0  0
  -36.6370  -66.2010   48.1590 C   0  0  2  0  0  0  0  0  0  0  0  0
  -37.8080  -65.4950   48.2530 O   0  0  0  0  0  0  0  0  0  0  0  0
  -38.8730  -66.2020   48.7540 C   0  0  1  0  0  0  0  0  0  0  0  0
  -38.5520  -66.9650   50.0220 C   0  0  0  0  0  0  0  0  0  0  0  0
  -40.1010  -65.3660   48.9650 C   0  0  0  0  0  0  0  0  0  0  0  0
  -36.1500  -66.0740   46.7120 C   0  0  0  0  0  0  0  0  0  0  0  0
  -46.5010  -67.1280   54.0320 H   0  0  0  0  0  0  0  0  0  0  0  0
  -44.4910  -68.5150   54.5190 H   0  0  0  0  0  0  0  0  0  0  0  0
  -42.0550  -65.3080   53.2680 H   0  0  0  0  0  0  0  0  0  0  0  0
  -44.0620  -63.9310   52.7850 H   0  0  0  0  0  0  0  0  0  0  0  0
  -39.8070  -68.4220   50.2580 H   0  0  0  0  0  0  0  0  0  0  0  0
  -37.2310  -70.5750   51.7240 H   0  0  0  0  0  0  0  0  0  0  0  0
  -38.2620  -70.3520   50.2240 H   0  0  0  0  0  0  0  0  0  0  0  0
  -37.3960  -68.1700   47.6130 H   0  0  0  0  0  0  0  0  0  0  0  0
  -35.8160  -68.1750   48.4790 H   0  0  0  0  0  0  0  0  0  0  0  0
  -35.8290  -65.8320   48.8330 H   0  0  0  0  0  0  0  0  0  0  0  0
  -39.1420  -66.9900   47.9910 H   0  0  0  0  0  0  0  0  0  0  0  0
  -39.4570  -67.5370   50.2990 H   0  0  0  0  0  0  0  0  0  0  0  0
  -38.2510  -66.3030   50.8510 H   0  0  0  0  0  0  0  0  0  0  0  0
  -41.0080  -65.9760   48.7670 H   0  0  0  0  0  0  0  0  0  0  0  0
  -40.1900  -64.9980   50.0170 H   0  0  0  0  0  0  0  0  0  0  0  0
  -40.1370  -64.5140   48.2420 H   0  0  0  0  0  0  0  0  0  0  0  0
  -35.4870  -66.9390   46.5320 H   0  0  0  0  0  0  0  0  0  0  0  0
  -36.9790  -66.1170   45.9990 H   0  0  0  0  0  0  0  0  0  0  0  0
  -35.5280  -65.1480   46.5980 H   0  0  0  0  0  0  0  0  0  0  0  0
  1  2  1  0  0  0  0
  2  3  1  0  0  0  0
  3 29  1  0  0  0  0
  3  4  2  0  0  0  0
  4 30  1  0  0  0  0
  5  4  1  0  0  0  0
  5  8  1  0  0  0  0
  6  5  2  0  0  0  0
  7  2  2  0  0  0  0
  7  6  1  0  0  0  0
  8  9  1  0  0  0  0
 10  9  2  0  0  0  0
 11 10  1  0  0  0  0
 12 11  2  0  0  0  0
 12  8  1  0  0  0  0
 13 12  1  0  0  0  0
 14 15  1  0  0  0  0
 14 13  2  0  0  0  0
 15 16  1  0  0  0  0
 16 17  2  0  0  0  0
 16 11  1  0  0  0  0
 18 34  1  0  0  0  0
 18 15  1  0  0  0  0
 19 20  2  0  0  0  0
 19 18  1  0  0  0  0
 21 26  1  0  0  0  0
 21 19  1  0  0  0  0
 22 37  1  0  0  0  0
 22 21  1  0  0  0  0
 23 24  1  0  0  0  0
 23 22  1  0  0  0  0
 23 38  1  1  0  0  0
 24 25  1  0  0  0  0
 25 39  1  6  0  0  0
 25 27  1  0  0  0  0
 25 26  1  0  0  0  0
 26 40  1  0  0  0  0
 26 41  1  0  0  0  0
 27 43  1  0  0  0  0
 28 23  1  0  0  0  0
 31  6  1  0  0  0  0
 32  7  1  0  0  0  0
 33 14  1  0  0  0  0
 35 18  1  0  0  0  0
 36 22  1  0  0  0  0
 42 27  1  0  0  0  0
 44 27  1  0  0  0  0
 45 28  1  0  0  0  0
 46 28  1  0  0  0  0
 47 28  1  0  0  0  0
M  END
>  <Pose>
1

>  <Score>
-6.82

$$$$
