
 OpenBabel03202209423D

 56 59  0  0  1  0  0  0  0  0999 V2000
  -38.8570  -70.3720   53.3470 B   0  0  0  0  0  0  0  0  0  0  0  0
  -40.1610  -68.9730   53.3640 C   0  0  0  0  0  0  0  0  0  0  0  0
  -41.0840  -68.8450   54.3750 C   0  0  0  0  0  0  0  0  0  0  0  0
  -42.0360  -67.8180   54.3790 C   0  0  0  0  0  0  0  0  0  0  0  0
  -42.0770  -66.8970   53.3670 C   0  0  0  0  0  0  0  0  0  0  0  0
  -41.1490  -67.0340   52.3590 C   0  0  0  0  0  0  0  0  0  0  0  0
  -40.2020  -68.0460   52.3440 C   0  0  0  0  0  0  0  0  0  0  0  0
  -43.0570  -65.8550   53.3890 N   0  0  0  0  0  0  0  0  0  0  0  0
  -43.0260  -64.6340   52.6420 C   0  0  0  0  0  0  0  0  0  0  0  0
  -42.0180  -64.0280   52.2040 O   0  0  0  0  0  0  0  0  0  0  0  0
  -44.4290  -64.1810   52.4610 C   0  0  2  0  0  0  0  0  0  0  0  0
  -45.2770  -65.0090   53.4010 C   0  0  0  0  0  0  0  0  0  0  0  0
  -44.2600  -65.7980   54.1450 C   0  0  0  0  0  0  0  0  0  0  0  0
  -44.4200  -66.3500   55.2900 O   0  0  0  0  0  0  0  0  0  0  0  0
  -44.7920  -64.2940   51.1060 N   0  0  2  0  0  0  0  0  0  0  0  0
  -44.4640  -63.2570   50.2140 C   0  0  0  0  0  0  0  0  0  0  0  0
  -45.0930  -63.5680   48.8490 C   0  0  0  0  0  0  0  0  0  0  0  0
  -46.6020  -63.4960   48.9130 C   0  0  1  0  0  0  0  0  0  0  0  0
  -47.0740  -64.1070   50.1700 C   0  0  0  0  0  0  0  0  0  0  0  0
  -46.0100  -64.9540   50.8230 C   0  0  0  0  0  0  0  0  0  0  0  0
  -46.9940  -62.1700   48.6660 N   0  0  0  0  0  0  0  0  0  0  0  0
  -46.5450  -61.5380   47.4980 C   0  0  0  0  0  0  0  0  0  0  0  0
  -45.8460  -60.2390   47.9360 C   0  0  0  0  0  0  0  0  0  0  0  0
  -46.9330  -59.3730   48.5410 C   0  0  0  0  0  0  0  0  0  0  0  0
  -48.1700  -60.1300   48.8910 C   0  0  0  0  0  0  0  0  0  0  0  0
  -47.8740  -61.5080   49.5010 C   0  0  0  0  0  0  0  0  0  0  0  0
  -47.0900  -64.3390   47.7650 C   0  0  0  0  0  0  0  0  0  0  0  0
  -48.2900  -64.7470   47.7470 O   0  0  0  0  0  0  0  0  0  0  0  0
  -46.2630  -64.7100   46.6780 N   0  0  0  0  0  0  0  0  0  0  0  0
  -41.0450  -69.5700   55.1630 H   0  0  0  0  0  0  0  0  0  0  0  0
  -42.7310  -67.7840   55.2110 H   0  0  0  0  0  0  0  0  0  0  0  0
  -41.1570  -66.3270   51.5490 H   0  0  0  0  0  0  0  0  0  0  0  0
  -39.4750  -68.1350   51.5340 H   0  0  0  0  0  0  0  0  0  0  0  0
  -44.4610  -63.1270   52.8490 H   0  0  0  0  0  0  0  0  0  0  0  0
  -45.9200  -65.7450   52.8740 H   0  0  0  0  0  0  0  0  0  0  0  0
  -45.8140  -64.3920   54.1300 H   0  0  0  0  0  0  0  0  0  0  0  0
  -44.9000  -62.2920   50.5760 H   0  0  0  0  0  0  0  0  0  0  0  0
  -43.3720  -63.1430   49.9940 H   0  0  0  0  0  0  0  0  0  0  0  0
  -44.8460  -64.6500   48.6760 H   0  0  0  0  0  0  0  0  0  0  0  0
  -44.6500  -62.9550   48.0670 H   0  0  0  0  0  0  0  0  0  0  0  0
  -47.9040  -64.8370   49.9200 H   0  0  0  0  0  0  0  0  0  0  0  0
  -47.5620  -63.4120   50.8790 H   0  0  0  0  0  0  0  0  0  0  0  0
  -46.4360  -65.4990   51.7170 H   0  0  0  0  0  0  0  0  0  0  0  0
  -45.7510  -65.8110   50.1260 H   0  0  0  0  0  0  0  0  0  0  0  0
  -45.8260  -62.1560   46.9580 H   0  0  0  0  0  0  0  0  0  0  0  0
  -47.4190  -61.2410   46.8810 H   0  0  0  0  0  0  0  0  0  0  0  0
  -45.0980  -60.4610   48.7400 H   0  0  0  0  0  0  0  0  0  0  0  0
  -45.3590  -59.7760   47.0640 H   0  0  0  0  0  0  0  0  0  0  0  0
  -46.5480  -58.7490   49.3740 H   0  0  0  0  0  0  0  0  0  0  0  0
  -47.2020  -58.6320   47.7360 H   0  0  0  0  0  0  0  0  0  0  0  0
  -48.7100  -59.5530   49.6920 H   0  0  0  0  0  0  0  0  0  0  0  0
  -48.8820  -60.2460   48.0360 H   0  0  0  0  0  0  0  0  0  0  0  0
  -48.8510  -61.9640   49.7020 H   0  0  0  0  0  0  0  0  0  0  0  0
  -47.4120  -61.3110   50.4950 H   0  0  0  0  0  0  0  0  0  0  0  0
  -46.3670  -64.2350   45.7740 H   0  0  0  0  0  0  0  0  0  0  0  0
  -45.5490  -65.4570   46.7820 H   0  0  0  0  0  0  0  0  0  0  0  0
  1  2  1  0  0  0  0
  2  3  1  0  0  0  0
  3  4  2  0  0  0  0
  3 30  1  0  0  0  0
  4 31  1  0  0  0  0
  5  8  1  0  0  0  0
  5  4  1  0  0  0  0
  6  5  2  0  0  0  0
  7  6  1  0  0  0  0
  7  2  2  0  0  0  0
  8 13  1  0  0  0  0
  9  8  1  0  0  0  0
 10  9  2  0  0  0  0
 11  9  1  0  0  0  0
 11 34  1  1  0  0  0
 11 12  1  0  0  0  0
 12 36  1  0  0  0  0
 12 13  1  0  0  0  0
 13 14  2  0  0  0  0
 15 16  1  1  0  0  0
 15 11  1  0  0  0  0
 16 37  1  0  0  0  0
 17 18  1  0  0  0  0
 17 16  1  0  0  0  0
 18 27  1  6  0  0  0
 18 19  1  0  0  0  0
 19 20  1  0  0  0  0
 19 42  1  0  0  0  0
 20 15  1  0  0  0  0
 20 43  1  0  0  0  0
 21 18  1  0  0  0  0
 21 26  1  0  0  0  0
 22 23  1  0  0  0  0
 22 21  1  0  0  0  0
 23 24  1  0  0  0  0
 23 47  1  0  0  0  0
 24 25  1  0  0  0  0
 24 49  1  0  0  0  0
 25 26  1  0  0  0  0
 25 51  1  0  0  0  0
 26 53  1  0  0  0  0
 26 54  1  0  0  0  0
 28 27  2  0  0  0  0
 29 56  1  0  0  0  0
 29 27  1  0  0  0  0
 32  6  1  0  0  0  0
 33  7  1  0  0  0  0
 35 12  1  0  0  0  0
 38 16  1  0  0  0  0
 39 17  1  0  0  0  0
 40 17  1  0  0  0  0
 41 19  1  0  0  0  0
 44 20  1  0  0  0  0
 45 22  1  0  0  0  0
 46 22  1  0  0  0  0
 48 23  1  0  0  0  0
 50 24  1  0  0  0  0
 52 25  1  0  0  0  0
 55 29  1  0  0  0  0
M  END
>  <Pose>
1

>  <Score>
-5.34

$$$$
