
 OpenBabel03202209423D

 49 52  0  0  0  0  0  0  0  0999 V2000
  -35.8190  -65.6390   46.3700 B   0  0  0  0  0  0  0  0  0  0  0  0
  -36.5470  -66.5740   47.8910 C   0  0  0  0  0  0  0  0  0  0  0  0
  -36.2970  -67.9100   48.0890 C   0  0  0  0  0  0  0  0  0  0  0  0
  -36.8310  -68.5900   49.1960 C   0  0  0  0  0  0  0  0  0  0  0  0
  -37.6170  -67.9290   50.1080 C   0  0  0  0  0  0  0  0  0  0  0  0
  -37.8520  -66.5890   49.8880 C   0  0  0  0  0  0  0  0  0  0  0  0
  -37.3350  -65.9150   48.8060 C   0  0  0  0  0  0  0  0  0  0  0  0
  -38.1650  -68.6150   51.2370 N   0  0  0  0  0  0  0  0  0  0  0  0
  -39.4090  -68.6080   51.7240 C   0  0  0  0  0  0  0  0  0  0  0  0
  -40.3690  -67.9320   51.2230 O   0  0  0  0  0  0  0  0  0  0  0  0
  -39.5660  -69.4040   52.8350 C   0  0  0  0  0  0  0  0  0  0  0  0
  -38.3430  -69.9300   53.0360 C   0  0  0  0  0  0  0  0  0  0  0  0
  -38.4710  -70.7220   54.1280 N   0  0  0  0  0  0  0  0  0  0  0  0
  -39.7140  -70.6840   54.5740 N   0  0  0  0  0  0  0  0  0  0  0  0
  -40.3910  -69.8760   53.7830 N   0  0  0  0  0  0  0  0  0  0  0  0
  -41.7840  -69.5690   53.9290 C   0  0  0  0  0  0  0  0  0  0  0  0
  -42.0410  -68.2310   54.4550 C   0  0  0  0  0  0  0  0  0  0  0  0
  -42.1710  -67.9990   55.6920 O   0  0  0  0  0  0  0  0  0  0  0  0
  -42.1540  -67.1630   53.5360 N   0  0  0  0  0  0  0  0  0  0  0  0
  -43.3970  -66.4940   53.4110 C   0  0  0  0  0  0  0  0  0  0  0  0
  -44.4920  -67.1290   53.9420 C   0  0  0  0  0  0  0  0  0  0  0  0
  -45.7620  -66.5480   53.8330 C   0  0  0  0  0  0  0  0  0  0  0  0
  -45.9080  -65.3460   53.1940 C   0  0  0  0  0  0  0  0  0  0  0  0
  -44.8070  -64.6900   52.6480 C   0  0  0  0  0  0  0  0  0  0  0  0
  -43.5640  -65.2910   52.7750 C   0  0  0  0  0  0  0  0  0  0  0  0
  -45.0320  -63.4860   52.0150 O   0  0  0  0  0  0  0  0  0  0  0  0
  -44.9640  -63.2290   50.6470 C   0  0  0  0  0  0  0  0  0  0  0  0
  -46.7830  -67.2690   54.4040 O   0  0  0  0  0  0  0  0  0  0  0  0
  -47.8260  -67.8410   53.7030 C   0  0  0  0  0  0  0  0  0  0  0  0
  -37.4830  -69.4580   52.0720 C   0  0  0  0  0  0  0  0  0  0  0  0
  -36.2640  -69.7140   51.9200 O   0  0  0  0  0  0  0  0  0  0  0  0
  -35.6810  -68.4330   47.3780 H   0  0  0  0  0  0  0  0  0  0  0  0
  -36.6230  -69.6420   49.3280 H   0  0  0  0  0  0  0  0  0  0  0  0
  -38.4810  -66.0870   50.6260 H   0  0  0  0  0  0  0  0  0  0  0  0
  -37.5270  -64.8570   48.6450 H   0  0  0  0  0  0  0  0  0  0  0  0
  -37.6810  -71.2710   54.5400 H   0  0  0  0  0  0  0  0  0  0  0  0
  -40.0390  -71.2250   55.4190 H   0  0  0  0  0  0  0  0  0  0  0  0
  -42.3410  -69.6800   52.9610 H   0  0  0  0  0  0  0  0  0  0  0  0
  -42.3030  -70.2990   54.6160 H   0  0  0  0  0  0  0  0  0  0  0  0
  -41.3170  -66.8660   52.9450 H   0  0  0  0  0  0  0  0  0  0  0  0
  -44.3680  -68.0920   54.4540 H   0  0  0  0  0  0  0  0  0  0  0  0
  -46.8990  -64.9170   53.1230 H   0  0  0  0  0  0  0  0  0  0  0  0
  -42.7030  -64.7820   52.3550 H   0  0  0  0  0  0  0  0  0  0  0  0
  -44.6240  -62.1820   50.4740 H   0  0  0  0  0  0  0  0  0  0  0  0
  -45.9870  -63.2700   50.1680 H   0  0  0  0  0  0  0  0  0  0  0  0
  -44.2900  -63.9030   50.0880 H   0  0  0  0  0  0  0  0  0  0  0  0
  -48.0810  -68.8350   54.1430 H   0  0  0  0  0  0  0  0  0  0  0  0
  -47.6270  -67.9800   52.6430 H   0  0  0  0  0  0  0  0  0  0  0  0
  -48.7410  -67.1970   53.8700 H   0  0  0  0  0  0  0  0  0  0  0  0
  1  2  1  0  0  0  0
  2  3  2  0  0  0  0
  2  7  1  0  0  0  0
  3  4  1  0  0  0  0
  4 33  1  0  0  0  0
  4  5  2  0  0  0  0
  5  8  1  0  0  0  0
  6  5  1  0  0  0  0
  6 34  1  0  0  0  0
  7  6  2  0  0  0  0
  8  9  1  0  0  0  0
  8 30  1  0  0  0  0
  9 11  1  0  0  0  0
 10  9  2  0  0  0  0
 11 12  2  0  0  0  0
 11 15  1  0  0  0  0
 12 13  1  0  0  0  0
 13 36  1  0  0  0  0
 13 14  1  0  0  0  0
 14 37  1  0  0  0  0
 15 16  1  0  0  0  0
 15 14  1  0  0  0  0
 16 17  1  0  0  0  0
 16 39  1  0  0  0  0
 17 18  2  0  0  0  0
 19 17  1  0  0  0  0
 20 19  1  0  0  0  0
 20 21  1  0  0  0  0
 21 41  1  0  0  0  0
 22 21  2  0  0  0  0
 22 28  1  0  0  0  0
 23 22  1  0  0  0  0
 24 25  1  0  0  0  0
 24 23  2  0  0  0  0
 25 20  2  0  0  0  0
 26 24  1  0  0  0  0
 27 26  1  0  0  0  0
 29 49  1  0  0  0  0
 29 47  1  0  0  0  0
 29 28  1  0  0  0  0
 30 12  1  0  0  0  0
 31 30  2  0  0  0  0
 32  3  1  0  0  0  0
 35  7  1  0  0  0  0
 38 16  1  0  0  0  0
 40 19  1  0  0  0  0
 42 23  1  0  0  0  0
 43 25  1  0  0  0  0
 44 27  1  0  0  0  0
 45 27  1  0  0  0  0
 46 27  1  0  0  0  0
 48 29  1  0  0  0  0
M  END
>  <Pose>
1

>  <Score>
-7.99

$$$$
