
 OpenBabel03202209423D

 45 48  0  0  1  0  0  0  0  0999 V2000
  -45.6300  -65.9920   54.0940 B   0  0  0  0  0  0  0  0  0  0  0  0
  -43.9800  -66.1580   53.1530 C   0  0  0  0  0  0  0  0  0  0  0  0
  -43.9350  -65.8320   51.8240 C   0  0  0  0  0  0  0  0  0  0  0  0
  -42.7350  -65.9510   51.1330 C   0  0  0  0  0  0  0  0  0  0  0  0
  -41.5830  -66.3870   51.7460 C   0  0  0  0  0  0  0  0  0  0  0  0
  -41.6510  -66.7090   53.0840 C   0  0  0  0  0  0  0  0  0  0  0  0
  -42.8340  -66.6000   53.7960 C   0  0  0  0  0  0  0  0  0  0  0  0
  -40.4040  -66.4750   50.9610 N   0  0  0  0  0  0  0  0  0  0  0  0
  -39.6520  -67.7020   50.9090 C   0  0  0  0  0  0  0  0  0  0  0  0
  -40.0490  -68.7020   51.5680 O   0  0  0  0  0  0  0  0  0  0  0  0
  -38.4930  -67.7120   50.1070 N   0  0  0  0  0  0  0  0  0  0  0  0
  -38.0760  -66.7210   49.4350 C   0  0  0  0  0  0  0  0  0  0  0  0
  -38.7150  -65.3830   49.3670 C   0  0  1  0  0  0  0  0  0  0  0  0
  -37.6990  -64.3620   49.7490 C   0  0  0  0  0  0  0  0  0  0  0  0
  -37.8470  -63.0650   49.1950 N   0  0  0  0  0  4  0  0  0  0  0  0
  -39.0680  -62.8080   48.5410 C   0  0  0  0  0  0  0  0  0  0  0  0
  -39.7370  -63.8330   47.8590 C   0  0  0  0  0  0  0  0  0  0  0  0
  -40.9200  -63.5640   47.2300 C   0  0  0  0  0  0  0  0  0  0  0  0
  -41.5160  -62.3240   47.2220 C   0  0  0  0  0  0  0  0  0  0  0  0
  -40.8550  -61.3190   47.8960 C   0  0  0  0  0  0  0  0  0  0  0  0
  -39.6500  -61.5600   48.5440 C   0  0  0  0  0  0  0  0  0  0  0  0
  -42.8020  -62.0720   46.5310 C   0  0  0  0  0  0  0  0  0  0  0  0
  -39.0600  -65.1550   47.8920 C   0  0  0  0  0  0  0  0  0  0  0  0
  -36.7140  -62.6950   48.3300 C   0  0  0  0  0  0  0  0  0  0  0  0
  -39.9310  -65.3630   50.2070 C   0  0  0  0  0  0  0  0  0  0  0  0
  -40.6410  -64.3080   50.2980 O   0  0  0  0  0  0  0  0  0  0  0  0
  -36.8980  -66.8710   48.6730 O   0  0  0  0  0  0  0  0  0  0  0  0
  -44.8450  -65.4900   51.3510 H   0  0  0  0  0  0  0  0  0  0  0  0
  -42.7680  -65.6760   50.0830 H   0  0  0  0  0  0  0  0  0  0  0  0
  -40.7620  -67.0560   53.6000 H   0  0  0  0  0  0  0  0  0  0  0  0
  -42.9190  -66.8430   54.8420 H   0  0  0  0  0  0  0  0  0  0  0  0
  -37.6300  -64.3540   50.8620 H   0  0  0  0  0  0  0  0  0  0  0  0
  -36.6940  -64.7570   49.4130 H   0  0  0  0  0  0  0  0  0  0  0  0
  -37.7900  -62.3680   49.9970 H   0  0  0  0  0  0  0  0  0  0  0  0
  -41.4100  -64.3870   46.7100 H   0  0  0  0  0  0  0  0  0  0  0  0
  -41.2900  -60.3250   47.9120 H   0  0  0  0  0  0  0  0  0  0  0  0
  -39.1520  -60.7570   49.0630 H   0  0  0  0  0  0  0  0  0  0  0  0
  -42.9660  -61.0280   46.2770 H   0  0  0  0  0  0  0  0  0  0  0  0
  -42.8730  -62.7710   45.6750 H   0  0  0  0  0  0  0  0  0  0  0  0
  -43.6050  -62.3890   47.2570 H   0  0  0  0  0  0  0  0  0  0  0  0
  -39.6920  -65.9620   47.4970 H   0  0  0  0  0  0  0  0  0  0  0  0
  -38.0920  -65.0590   47.3670 H   0  0  0  0  0  0  0  0  0  0  0  0
  -36.8950  -62.9810   47.2800 H   0  0  0  0  0  0  0  0  0  0  0  0
  -35.7930  -63.1450   48.7430 H   0  0  0  0  0  0  0  0  0  0  0  0
  -36.6080  -61.5910   48.3530 H   0  0  0  0  0  0  0  0  0  0  0  0
  2  7  1  0  0  0  0
  2  1  1  0  0  0  0
  3  2  2  0  0  0  0
  4  5  2  0  0  0  0
  4  3  1  0  0  0  0
  5  6  1  0  0  0  0
  6 30  1  0  0  0  0
  6  7  2  0  0  0  0
  7 31  1  0  0  0  0
  8  5  1  0  0  0  0
  9  8  1  0  0  0  0
  9 10  2  0  0  0  0
 11  9  1  0  0  0  0
 12 11  1  0  0  0  0
 13 12  1  1  0  0  0
 13 14  1  0  0  0  0
 13 25  1  0  0  0  0
 14 32  1  0  0  0  0
 15 14  1  0  0  0  0
 15 34  1  0  0  0  0
 16 21  1  0  0  0  0
 16 15  1  0  0  0  0
 17 23  1  0  0  0  0
 17 16  2  0  0  0  0
 18 17  1  0  0  0  0
 19 18  2  0  0  0  0
 19 20  1  0  0  0  0
 20 36  1  0  0  0  0
 20 21  2  0  0  0  0
 21 37  1  0  0  0  0
 22 19  1  0  0  0  0
 22 40  1  0  0  0  0
 23 13  1  0  0  0  0
 24 45  1  0  0  0  0
 24 44  1  0  0  0  0
 24 15  1  0  0  0  0
 25 26  2  0  0  0  0
 25  8  1  0  0  0  0
 27 12  2  0  0  0  0
 28  3  1  0  0  0  0
 29  4  1  0  0  0  0
 33 14  1  0  0  0  0
 35 18  1  0  0  0  0
 38 22  1  0  0  0  0
 39 22  1  0  0  0  0
 41 23  1  0  0  0  0
 42 23  1  0  0  0  0
 43 24  1  0  0  0  0
M  END
>  <Pose>
1

>  <Score>
-5.26

$$$$
