
 OpenBabel03202209423D

 44 47  0  0  0  0  0  0  0  0999 V2000
  -39.1560  -70.2960   54.6740 B   0  0  0  0  0  0  0  0  0  0  0  0
  -40.4030  -69.0400   54.0240 C   0  0  0  0  0  0  0  0  0  0  0  0
  -41.5230  -68.6750   54.7410 C   0  0  0  0  0  0  0  0  0  0  0  0
  -42.4320  -67.7430   54.2380 C   0  0  0  0  0  0  0  0  0  0  0  0
  -42.2160  -67.1710   53.0050 C   0  0  0  0  0  0  0  0  0  0  0  0
  -41.0880  -67.5590   52.3180 C   0  0  0  0  0  0  0  0  0  0  0  0
  -40.1800  -68.4700   52.7860 C   0  0  0  0  0  0  0  0  0  0  0  0
  -43.0770  -66.2210   52.4110 N   0  0  0  0  0  0  0  0  0  0  0  0
  -42.5360  -65.2800   51.4500 C   0  0  0  0  0  0  0  0  0  0  0  0
  -43.5620  -64.2880   50.9550 C   0  0  0  0  0  0  0  0  0  0  0  0
  -44.3410  -63.8020   52.1870 C   0  0  0  0  0  0  0  0  0  0  0  0
  -45.1300  -64.9340   52.5970 N   0  0  0  0  0  0  0  0  0  0  0  0
  -44.4660  -66.1260   52.6990 C   0  0  0  0  0  0  0  0  0  0  0  0
  -45.3410  -67.0680   53.0870 N   0  0  0  0  0  0  0  0  0  0  0  0
  -46.5410  -66.4480   53.2240 C   0  0  0  0  0  0  0  0  0  0  0  0
  -46.4160  -65.1020   52.9180 C   0  0  0  0  0  0  0  0  0  0  0  0
  -47.5090  -64.2600   52.9840 C   0  0  0  0  0  0  0  0  0  0  0  0
  -47.3520  -63.0270   52.6940 O   0  0  0  0  0  0  0  0  0  0  0  0
  -48.7030  -64.7580   53.3510 N   0  0  0  0  0  0  0  0  0  0  0  0
  -48.7960  -66.0670   53.6430 C   0  0  0  0  0  0  0  0  0  0  0  0
  -49.9330  -66.4920   53.9820 O   0  0  0  0  0  0  0  0  0  0  0  0
  -47.7550  -66.8980   53.5850 N   0  0  0  0  0  0  0  0  0  0  0  0
  -47.8920  -68.3100   53.9080 C   0  0  0  0  0  0  0  0  0  0  0  0
  -49.8590  -63.8800   53.4250 C   0  0  0  0  0  0  0  0  0  0  0  0
  -49.6890  -62.9660   54.6020 C   0  0  0  0  0  0  0  0  0  0  0  0
  -49.8360  -61.7280   54.4740 O   0  0  0  0  0  0  0  0  0  0  0  0
  -49.3610  -63.4680   55.8820 N   0  0  0  0  0  0  0  0  0  0  0  0
  -41.7150  -69.1120   55.7160 H   0  0  0  0  0  0  0  0  0  0  0  0
  -43.2940  -67.4850   54.8350 H   0  0  0  0  0  0  0  0  0  0  0  0
  -40.8690  -67.1310   51.3280 H   0  0  0  0  0  0  0  0  0  0  0  0
  -39.3130  -68.7350   52.2010 H   0  0  0  0  0  0  0  0  0  0  0  0
  -41.7340  -64.6670   51.9550 H   0  0  0  0  0  0  0  0  0  0  0  0
  -42.0350  -65.7990   50.6010 H   0  0  0  0  0  0  0  0  0  0  0  0
  -44.2740  -64.7970   50.2490 H   0  0  0  0  0  0  0  0  0  0  0  0
  -43.0670  -63.4370   50.4940 H   0  0  0  0  0  0  0  0  0  0  0  0
  -44.9300  -62.9090   51.9740 H   0  0  0  0  0  0  0  0  0  0  0  0
  -43.5530  -63.6380   52.9740 H   0  0  0  0  0  0  0  0  0  0  0  0
  -47.0460  -68.8860   53.5360 H   0  0  0  0  0  0  0  0  0  0  0  0
  -48.1110  -68.4360   54.9810 H   0  0  0  0  0  0  0  0  0  0  0  0
  -48.8170  -68.6490   53.3610 H   0  0  0  0  0  0  0  0  0  0  0  0
  -50.7840  -64.4680   53.5250 H   0  0  0  0  0  0  0  0  0  0  0  0
  -49.8900  -63.2640   52.5150 H   0  0  0  0  0  0  0  0  0  0  0  0
  -48.8700  -62.8950   56.6050 H   0  0  0  0  0  0  0  0  0  0  0  0
  -49.6030  -64.4510   56.1610 H   0  0  0  0  0  0  0  0  0  0  0  0
  2  1  1  0  0  0  0
  2  3  1  0  0  0  0
  3 28  1  0  0  0  0
  4  3  2  0  0  0  0
  4 29  1  0  0  0  0
  5  4  1  0  0  0  0
  6  7  1  0  0  0  0
  6  5  2  0  0  0  0
  7  2  2  0  0  0  0
  8 13  1  0  0  0  0
  8  5  1  0  0  0  0
  9 32  1  0  0  0  0
  9  8  1  0  0  0  0
 10  9  1  0  0  0  0
 10 11  1  0  0  0  0
 11 12  1  0  0  0  0
 11 37  1  0  0  0  0
 12 13  1  0  0  0  0
 12 16  1  0  0  0  0
 13 14  2  0  0  0  0
 14 15  1  0  0  0  0
 15 22  1  0  0  0  0
 16 17  1  0  0  0  0
 16 15  2  0  0  0  0
 17 19  1  0  0  0  0
 18 17  2  0  0  0  0
 19 24  1  0  0  0  0
 19 20  1  0  0  0  0
 20 21  2  0  0  0  0
 22 20  1  0  0  0  0
 22 23  1  0  0  0  0
 23 39  1  0  0  0  0
 24 41  1  0  0  0  0
 24 25  1  0  0  0  0
 25 27  1  0  0  0  0
 26 25  2  0  0  0  0
 27 44  1  0  0  0  0
 27 43  1  0  0  0  0
 30  6  1  0  0  0  0
 31  7  1  0  0  0  0
 33  9  1  0  0  0  0
 34 10  1  0  0  0  0
 35 10  1  0  0  0  0
 36 11  1  0  0  0  0
 38 23  1  0  0  0  0
 40 23  1  0  0  0  0
 42 24  1  0  0  0  0
M  END
>  <Pose>
1

>  <Score>
-6.09

$$$$
