
 OpenBabel03202209423D

 56 59  0  0  1  0  0  0  0  0999 V2000
  -32.4320  -62.9920   48.6090 B   0  0  0  0  0  0  0  0  0  0  0  0
  -34.2140  -63.6400   48.4850 C   0  0  0  0  0  0  0  0  0  0  0  0
  -34.4240  -64.9910   48.4210 C   0  0  0  0  0  0  0  0  0  0  0  0
  -35.7150  -65.4650   48.3310 C   0  0  0  0  0  0  0  0  0  0  0  0
  -36.8100  -64.6240   48.3040 C   0  0  0  0  0  0  0  0  0  0  0  0
  -36.5590  -63.2350   48.3710 C   0  0  0  0  0  0  0  0  0  0  0  0
  -35.2880  -62.7740   48.4600 C   0  0  0  0  0  0  0  0  0  0  0  0
  -38.0570  -65.0190   48.2230 O   0  0  0  0  0  0  0  0  0  0  0  0
  -39.0850  -65.8160   48.4270 C   0  0  0  0  0  0  0  0  0  0  0  0
  -39.6810  -65.7650   49.7970 C   0  0  1  0  0  0  0  0  0  0  0  0
  -39.9300  -64.4180   50.0980 O   0  0  0  0  0  0  0  0  0  0  0  0
  -40.8810  -66.6310   50.0470 C   0  0  0  0  0  0  0  0  0  0  0  0
  -41.0330  -67.1090   51.4050 N   0  0  0  0  0  0  0  0  0  0  0  0
  -40.2530  -68.0290   52.0160 C   0  0  0  0  0  0  0  0  0  0  0  0
  -40.7580  -68.2590   53.2750 C   0  0  0  0  0  0  0  0  0  0  0  0
  -41.8110  -67.4750   53.3760 N   0  0  0  0  0  0  0  0  0  0  0  0
  -42.0180  -66.7390   52.2390 C   0  0  0  0  0  0  0  0  0  0  0  0
  -43.0570  -65.7510   52.1060 N   0  0  0  0  0  0  0  0  0  0  0  0
  -44.0840  -65.8300   53.1690 C   0  0  0  0  0  0  0  0  0  0  0  0
  -44.9830  -64.6630   53.2440 C   0  0  0  0  0  0  0  0  0  0  0  0
  -45.2800  -64.0830   51.9580 N   0  0  0  0  0  0  0  0  0  0  0  0
  -44.0380  -63.6010   51.4440 C   0  0  0  0  0  0  0  0  0  0  0  0
  -43.0890  -64.7480   51.1010 C   0  0  0  0  0  0  0  0  0  0  0  0
  -45.9940  -64.9730   51.1030 C   0  0  0  0  0  0  0  0  0  0  0  0
  -40.2120  -69.1350   54.1680 N   0  0  0  0  0  0  0  0  0  0  0  0
  -39.1220  -69.8020   53.7840 C   0  0  0  0  0  0  0  0  0  0  0  0
  -38.6040  -70.6160   54.5960 O   0  0  0  0  0  0  0  0  0  0  0  0
  -38.6060  -69.5980   52.5650 N   0  0  0  0  0  0  0  0  0  0  0  0
  -39.1250  -68.7370   51.6580 C   0  0  0  0  0  0  0  0  0  0  0  0
  -38.6260  -68.5680   50.5370 O   0  0  0  0  0  0  0  0  0  0  0  0
  -40.8290  -69.3180   55.4820 C   0  0  0  0  0  0  0  0  0  0  0  0
  -33.5810  -65.6800   48.4440 H   0  0  0  0  0  0  0  0  0  0  0  0
  -35.8200  -66.5320   48.2720 H   0  0  0  0  0  0  0  0  0  0  0  0
  -37.4070  -62.5710   48.3500 H   0  0  0  0  0  0  0  0  0  0  0  0
  -35.1200  -61.6900   48.5170 H   0  0  0  0  0  0  0  0  0  0  0  0
  -39.9440  -65.6690   47.6580 H   0  0  0  0  0  0  0  0  0  0  0  0
  -38.8260  -66.9390   48.2750 H   0  0  0  0  0  0  0  0  0  0  0  0
  -38.8930  -66.1620   50.5170 H   0  0  0  0  0  0  0  0  0  0  0  0
  -39.2230  -64.0940   50.7430 H   0  0  0  0  0  0  0  0  0  0  0  0
  -41.0120  -67.4050   49.2720 H   0  0  0  0  0  0  0  0  0  0  0  0
  -41.7620  -65.9380   49.8360 H   0  0  0  0  0  0  0  0  0  0  0  0
  -44.6080  -66.8100   53.0790 H   0  0  0  0  0  0  0  0  0  0  0  0
  -43.5250  -65.8990   54.1480 H   0  0  0  0  0  0  0  0  0  0  0  0
  -45.8820  -64.9460   53.8060 H   0  0  0  0  0  0  0  0  0  0  0  0
  -44.4640  -63.8440   53.8240 H   0  0  0  0  0  0  0  0  0  0  0  0
  -44.2200  -63.0120   50.5090 H   0  0  0  0  0  0  0  0  0  0  0  0
  -43.5810  -62.9230   52.1650 H   0  0  0  0  0  0  0  0  0  0  0  0
  -42.0750  -64.2370   51.1350 H   0  0  0  0  0  0  0  0  0  0  0  0
  -43.3900  -65.0460   50.0920 H   0  0  0  0  0  0  0  0  0  0  0  0
  -47.0710  -64.6400   51.0610 H   0  0  0  0  0  0  0  0  0  0  0  0
  -45.6120  -65.0430   50.0690 H   0  0  0  0  0  0  0  0  0  0  0  0
  -46.0510  -66.0260   51.4830 H   0  0  0  0  0  0  0  0  0  0  0  0
  -37.7550  -70.1360   52.3010 H   0  0  0  0  0  0  0  0  0  0  0  0
  -40.5210  -70.2560   55.9500 H   0  0  0  0  0  0  0  0  0  0  0  0
  -41.9240  -69.4000   55.3070 H   0  0  0  0  0  0  0  0  0  0  0  0
  -40.5880  -68.4730   56.1480 H   0  0  0  0  0  0  0  0  0  0  0  0
  2  1  1  0  0  0  0
  3 32  1  0  0  0  0
  3  2  2  0  0  0  0
  4  3  1  0  0  0  0
  5  4  2  0  0  0  0
  5  6  1  0  0  0  0
  6  7  2  0  0  0  0
  7  2  1  0  0  0  0
  7 35  1  0  0  0  0
  8  5  1  0  0  0  0
  8  9  1  0  0  0  0
  9 10  1  0  0  0  0
 10 12  1  0  0  0  0
 10 11  1  0  0  0  0
 10 38  1  1  0  0  0
 11 39  1  0  0  0  0
 12 13  1  0  0  0  0
 13 14  1  0  0  0  0
 13 17  1  0  0  0  0
 14 15  2  0  0  0  0
 15 16  1  0  0  0  0
 15 25  1  0  0  0  0
 17 16  2  0  0  0  0
 18 17  1  0  0  0  0
 18 19  1  0  0  0  0
 19 20  1  0  0  0  0
 19 43  1  0  0  0  0
 20 44  1  0  0  0  0
 20 45  1  0  0  0  0
 21 20  1  0  0  0  0
 22 21  1  0  0  0  0
 22 47  1  0  0  0  0
 23 48  1  0  0  0  0
 23 22  1  0  0  0  0
 23 18  1  0  0  0  0
 24 52  1  0  0  0  0
 24 21  1  0  0  0  0
 25 31  1  0  0  0  0
 26 25  1  0  0  0  0
 26 27  2  0  0  0  0
 28 26  1  0  0  0  0
 29 14  1  0  0  0  0
 29 28  1  0  0  0  0
 30 29  2  0  0  0  0
 31 54  1  0  0  0  0
 31 56  1  0  0  0  0
 33  4  1  0  0  0  0
 34  6  1  0  0  0  0
 36  9  1  0  0  0  0
 37  9  1  0  0  0  0
 40 12  1  0  0  0  0
 41 12  1  0  0  0  0
 42 19  1  0  0  0  0
 46 22  1  0  0  0  0
 49 23  1  0  0  0  0
 50 24  1  0  0  0  0
 51 24  1  0  0  0  0
 53 28  1  0  0  0  0
 55 31  1  0  0  0  0
M  END
>  <Pose>
1

>  <Score>
-6.75

$$$$
