
 OpenBabel03202209423D

 39 43  0  0  1  0  0  0  0  0999 V2000
  -39.4030  -70.3880   54.4700 B   0  0  0  0  0  0  0  0  0  0  0  0
  -39.2550  -69.3350   52.8790 C   0  0  0  0  0  0  0  0  0  0  0  0
  -38.1180  -69.4090   52.0960 C   0  0  0  0  0  0  0  0  0  0  0  0
  -37.9930  -68.6520   50.9500 C   0  0  0  0  0  0  0  0  0  0  0  0
  -38.9510  -67.7750   50.4980 C   0  0  0  0  0  0  0  0  0  0  0  0
  -40.0730  -67.7050   51.2780 C   0  0  0  0  0  0  0  0  0  0  0  0
  -40.2550  -68.4490   52.4460 C   0  0  0  0  0  0  0  0  0  0  0  0
  -41.4020  -68.2380   53.3310 C   0  0  0  0  0  0  0  0  0  0  0  0
  -42.2530  -67.1390   53.1400 N   0  0  2  0  0  4  0  0  0  0  0  0
  -42.8620  -67.0150   54.5130 C   0  0  0  0  0  0  0  0  0  0  0  0
  -43.9890  -66.1840   54.5810 N   0  0  2  0  0  0  0  0  0  0  0  0
  -44.9620  -66.6950   53.6310 C   0  0  0  0  0  0  0  0  0  0  0  0
  -44.3930  -66.5450   52.3150 N   0  0  2  0  0  0  0  0  0  0  0  0
  -43.2740  -67.4120   52.1300 C   0  0  0  0  0  0  0  0  0  0  0  0
  -43.9690  -65.1740   52.0090 C   0  0  0  0  0  0  0  0  0  0  0  0
  -42.9060  -64.8410   52.9440 N   0  0  2  0  0  0  0  0  0  0  0  0
  -41.7950  -65.8130   52.8670 C   0  0  0  0  0  0  0  0  0  0  0  0
  -43.5200  -64.8340   54.2500 C   0  0  0  0  0  0  0  0  0  0  0  0
  -38.4220  -67.2240   49.3420 O   0  0  0  0  0  0  0  0  0  0  0  0
  -36.9720  -67.2600   49.4610 C   0  0  0  0  0  0  0  0  0  0  0  0
  -36.8990  -68.6010   50.0320 O   0  0  0  0  0  0  0  0  0  0  0  0
  -37.3800  -70.0760   52.4740 H   0  0  0  0  0  0  0  0  0  0  0  0
  -40.8820  -66.9970   50.9330 H   0  0  0  0  0  0  0  0  0  0  0  0
  -40.9550  -68.0670   54.3940 H   0  0  0  0  0  0  0  0  0  0  0  0
  -41.8830  -69.2410   53.4530 H   0  0  0  0  0  0  0  0  0  0  0  0
  -42.0020  -66.5450   55.0820 H   0  0  0  0  0  0  0  0  0  0  0  0
  -43.0270  -67.9890   54.9590 H   0  0  0  0  0  0  0  0  0  0  0  0
  -45.9640  -66.2640   53.7140 H   0  0  0  0  0  0  0  0  0  0  0  0
  -44.9920  -67.8080   53.8290 H   0  0  0  0  0  0  0  0  0  0  0  0
  -43.6220  -68.4230   52.0760 H   0  0  0  0  0  0  0  0  0  0  0  0
  -42.7730  -67.0640   51.1720 H   0  0  0  0  0  0  0  0  0  0  0  0
  -43.6970  -65.1410   50.9630 H   0  0  0  0  0  0  0  0  0  0  0  0
  -44.8290  -64.5330   52.2810 H   0  0  0  0  0  0  0  0  0  0  0  0
  -41.0020  -65.4240   53.5510 H   0  0  0  0  0  0  0  0  0  0  0  0
  -41.4280  -65.7600   51.8040 H   0  0  0  0  0  0  0  0  0  0  0  0
  -42.8670  -64.5110   55.0460 H   0  0  0  0  0  0  0  0  0  0  0  0
  -44.4420  -64.2200   54.1420 H   0  0  0  0  0  0  0  0  0  0  0  0
  -36.6110  -66.6330   50.3270 H   0  0  0  0  0  0  0  0  0  0  0  0
  -36.4580  -67.1570   48.5330 H   0  0  0  0  0  0  0  0  0  0  0  0
  2  1  1  0  0  0  0
  3 22  1  0  0  0  0
  3  2  2  0  0  0  0
  4  3  1  0  0  0  0
  5  4  2  0  0  0  0
  5  6  1  0  0  0  0
  6  7  2  0  0  0  0
  7  2  1  0  0  0  0
  7  8  1  0  0  0  0
  8 25  1  0  0  0  0
  8 24  1  0  0  0  0
  9  8  1  6  0  0  0
  9 10  1  0  0  0  0
 10 11  1  0  0  0  0
 10 27  1  0  0  0  0
 10 26  1  0  0  0  0
 11 12  1  6  0  0  0
 12 28  1  0  0  0  0
 12 29  1  0  0  0  0
 13 15  1  1  0  0  0
 13 12  1  0  0  0  0
 14 13  1  0  0  0  0
 14  9  1  0  0  0  0
 15 33  1  0  0  0  0
 16 15  1  6  0  0  0
 16 18  1  0  0  0  0
 17 16  1  0  0  0  0
 17  9  1  0  0  0  0
 17 34  1  0  0  0  0
 18 11  1  0  0  0  0
 18 36  1  0  0  0  0
 19 20  1  0  0  0  0
 19  5  1  0  0  0  0
 20 21  1  0  0  0  0
 20 38  1  0  0  0  0
 21  4  1  0  0  0  0
 23  6  1  0  0  0  0
 30 14  1  0  0  0  0
 31 14  1  0  0  0  0
 32 15  1  0  0  0  0
 35 17  1  0  0  0  0
 37 18  1  0  0  0  0
 39 20  1  0  0  0  0
M  END
>  <Pose>
1

>  <Score>
-4.51

$$$$
