
 OpenBabel03202209423D

 44 47  0  0  1  0  0  0  0  0999 V2000
  -42.7660  -65.3840   52.2490 B   0  0  0  0  0  0  0  0  0  0  0  0
  -42.0550  -66.9100   53.1180 C   0  0  0  0  0  0  0  0  0  0  0  0
  -40.8100  -67.3940   52.7620 C   0  0  0  0  0  0  0  0  0  0  0  0
  -40.2460  -68.5160   53.3730 C   0  0  0  0  0  0  0  0  0  0  0  0
  -40.9830  -69.1490   54.3710 C   0  0  0  0  0  0  0  0  0  0  0  0
  -42.2230  -68.6480   54.7090 C   0  0  0  0  0  0  0  0  0  0  0  0
  -42.7920  -67.5290   54.1030 C   0  0  0  0  0  0  0  0  0  0  0  0
  -44.1020  -67.0510   54.4960 C   0  0  0  0  0  0  0  0  0  0  0  0
  -45.1540  -67.7060   54.2440 N   0  0  0  0  0  0  0  0  0  0  0  0
  -46.4600  -67.3800   54.5500 N   0  0  0  0  0  0  0  0  0  0  0  0
  -47.4440  -67.1630   53.5610 C   0  0  0  0  0  0  0  0  0  0  0  0
  -48.2270  -68.2110   53.2560 N   0  0  0  0  0  0  0  0  0  0  0  0
  -49.2340  -68.1360   52.3450 C   0  0  1  0  0  0  0  0  0  0  0  0
  -49.4050  -66.9490   51.7640 N   0  0  0  0  0  0  0  0  0  0  0  0
  -48.6650  -65.8740   52.0210 C   0  0  0  0  0  0  0  0  0  0  0  0
  -47.6660  -66.0030   52.9440 N   0  0  0  0  0  0  0  0  0  0  0  0
  -48.8680  -64.6530   51.3990 O   0  0  0  0  0  0  0  0  0  0  0  0
  -47.9140  -63.6310   51.5000 C   0  0  0  0  0  0  0  0  0  0  0  0
  -49.9940  -69.2770   52.0780 N   0  0  0  0  0  0  0  0  0  0  0  0
  -50.2220  -70.2810   53.0900 C   0  0  0  0  0  0  0  0  0  0  0  0
  -51.3740  -71.1870   52.7100 C   0  0  0  0  0  0  0  0  0  0  0  0
  -52.3820  -70.6020   52.0150 O   0  0  0  0  0  0  0  0  0  0  0  0
  -52.0850  -69.6610   51.0790 C   0  0  0  0  0  0  0  0  0  0  0  0
  -50.5980  -69.4890   50.7870 C   0  0  0  0  0  0  0  0  0  0  0  0
  -40.2210  -70.2100   54.8060 O   0  0  0  0  0  0  0  0  0  0  0  0
  -39.0830  -70.3880   53.9860 C   0  0  0  0  0  0  0  0  0  0  0  0
  -39.0550  -69.2080   53.2260 O   0  0  0  0  0  0  0  0  0  0  0  0
  -40.2330  -66.8900   51.9740 H   0  0  0  0  0  0  0  0  0  0  0  0
  -42.7630  -69.1860   55.5050 H   0  0  0  0  0  0  0  0  0  0  0  0
  -44.1880  -66.1150   55.0130 H   0  0  0  0  0  0  0  0  0  0  0  0
  -46.7310  -67.2910   55.5530 H   0  0  0  0  0  0  0  0  0  0  0  0
  -48.3240  -62.8630   52.2100 H   0  0  0  0  0  0  0  0  0  0  0  0
  -47.7730  -63.0880   50.5310 H   0  0  0  0  0  0  0  0  0  0  0  0
  -46.9220  -64.0210   51.8100 H   0  0  0  0  0  0  0  0  0  0  0  0
  -50.3330  -69.8990   54.1120 H   0  0  0  0  0  0  0  0  0  0  0  0
  -49.3020  -70.9450   53.0990 H   0  0  0  0  0  0  0  0  0  0  0  0
  -51.0280  -72.1150   52.1700 H   0  0  0  0  0  0  0  0  0  0  0  0
  -51.7980  -71.5740   53.6840 H   0  0  0  0  0  0  0  0  0  0  0  0
  -52.6800  -69.7690   50.1400 H   0  0  0  0  0  0  0  0  0  0  0  0
  -52.3960  -68.6620   51.5100 H   0  0  0  0  0  0  0  0  0  0  0  0
  -50.2010  -70.4720   50.4260 H   0  0  0  0  0  0  0  0  0  0  0  0
  -50.4730  -68.6850   50.0680 H   0  0  0  0  0  0  0  0  0  0  0  0
  -39.1220  -71.3100   53.3700 H   0  0  0  0  0  0  0  0  0  0  0  0
  -38.2040  -70.3990   54.6740 H   0  0  0  0  0  0  0  0  0  0  0  0
  1  2  1  0  0  0  0
  2  7  1  0  0  0  0
  3  2  2  0  0  0  0
  3  4  1  0  0  0  0
  4  5  2  0  0  0  0
  5  6  1  0  0  0  0
  5 25  1  0  0  0  0
  6 29  1  0  0  0  0
  7  8  1  0  0  0  0
  7  6  2  0  0  0  0
  8 30  1  0  0  0  0
  9  8  2  0  0  0  0
  9 10  1  0  0  0  0
 10 31  1  0  0  0  0
 11 10  1  0  0  0  0
 12 11  2  0  0  0  0
 13 19  1  6  0  0  0
 13 12  1  0  0  0  0
 14 15  2  0  0  0  0
 14 13  1  0  0  0  0
 15 16  2  0  0  0  0
 16 11  1  0  0  0  0
 17 18  1  0  0  0  0
 17 15  1  0  0  0  0
 18 34  1  0  0  0  0
 18 32  1  0  0  0  0
 19 20  1  0  0  0  0
 20 36  1  0  0  0  0
 20 35  1  0  0  0  0
 21 20  1  0  0  0  0
 21 38  1  0  0  0  0
 22 21  1  0  0  0  0
 23 40  1  0  0  0  0
 23 22  1  0  0  0  0
 24 23  1  0  0  0  0
 24 19  1  0  0  0  0
 26 44  1  0  0  0  0
 26 25  1  0  0  0  0
 27  4  1  0  0  0  0
 27 26  1  0  0  0  0
 28  3  1  0  0  0  0
 33 18  1  0  0  0  0
 37 21  1  0  0  0  0
 39 23  1  0  0  0  0
 41 24  1  0  0  0  0
 42 24  1  0  0  0  0
 43 26  1  0  0  0  0
M  END
>  <Pose>
1

>  <Score>
-6.40

$$$$
