
 OpenBabel03202209423D

 49 52  0  0  0  0  0  0  0  0999 V2000
  -35.7850  -67.4340   46.6010 B   0  0  0  0  0  0  0  0  0  0  0  0
  -37.0460  -66.4300   47.6210 C   0  0  0  0  0  0  0  0  0  0  0  0
  -37.8010  -67.0800   48.5770 C   0  0  0  0  0  0  0  0  0  0  0  0
  -38.7280  -66.3990   49.3440 C   0  0  0  0  0  0  0  0  0  0  0  0
  -38.8740  -65.0440   49.1200 C   0  0  0  0  0  0  0  0  0  0  0  0
  -38.1140  -64.4050   48.1620 C   0  0  0  0  0  0  0  0  0  0  0  0
  -37.1860  -65.0770   47.3930 C   0  0  0  0  0  0  0  0  0  0  0  0
  -39.8940  -64.5660   50.0380 C   0  0  0  0  0  0  0  0  0  0  0  0
  -40.2780  -63.3540   50.1000 O   0  0  0  0  0  0  0  0  0  0  0  0
  -40.3480  -65.6680   50.8090 N   0  0  0  0  0  0  0  0  0  0  0  0
  -39.6510  -66.8210   50.4090 C   0  0  0  0  0  0  0  0  0  0  0  0
  -39.7690  -67.9960   50.8530 O   0  0  0  0  0  0  0  0  0  0  0  0
  -41.3690  -65.5520   51.8270 C   0  0  0  0  0  0  0  0  0  0  0  0
  -42.7490  -65.7150   51.3070 C   0  0  0  0  0  0  0  0  0  0  0  0
  -43.3200  -64.3730   50.9460 C   0  0  0  0  0  0  0  0  0  0  0  0
  -44.7870  -64.2670   51.1210 C   0  0  0  0  0  0  0  0  0  0  0  0
  -45.5880  -64.0580   50.1730 O   0  0  0  0  0  0  0  0  0  0  0  0
  -45.3790  -64.4030   52.4270 N   0  0  0  0  0  0  0  0  0  0  0  0
  -46.6530  -63.7940   52.7310 C   0  0  0  0  0  0  0  0  0  0  0  0
  -47.5760  -64.6890   53.4900 C   0  0  0  0  0  0  0  0  0  0  0  0
  -47.0280  -65.9900   53.7920 N   0  0  0  0  0  0  0  0  0  0  0  0
  -45.6280  -66.2650   53.9760 C   0  0  0  0  0  0  0  0  0  0  0  0
  -44.7340  -65.1490   53.4920 C   0  0  0  0  0  0  0  0  0  0  0  0
  -47.9430  -67.0830   53.9190 C   0  0  0  0  0  0  0  0  0  0  0  0
  -48.7630  -67.4480   52.8960 N   0  0  0  0  0  0  0  0  0  0  0  0
  -49.6280  -68.4580   52.9730 C   0  0  0  0  0  0  0  0  0  0  0  0
  -49.7050  -69.1840   54.1530 C   0  0  0  0  0  0  0  0  0  0  0  0
  -48.9020  -68.8470   55.1910 N   0  0  0  0  0  0  0  0  0  0  0  0
  -48.0430  -67.8220   55.0750 C   0  0  0  0  0  0  0  0  0  0  0  0
  -37.7150  -68.1460   48.7820 H   0  0  0  0  0  0  0  0  0  0  0  0
  -38.2650  -63.3390   48.0240 H   0  0  0  0  0  0  0  0  0  0  0  0
  -36.6090  -64.5450   46.6530 H   0  0  0  0  0  0  0  0  0  0  0  0
  -41.2580  -64.5630   52.2960 H   0  0  0  0  0  0  0  0  0  0  0  0
  -41.1640  -66.3700   52.5810 H   0  0  0  0  0  0  0  0  0  0  0  0
  -43.4190  -66.2890   51.9710 H   0  0  0  0  0  0  0  0  0  0  0  0
  -42.7400  -66.3180   50.3490 H   0  0  0  0  0  0  0  0  0  0  0  0
  -42.8410  -63.5480   51.5240 H   0  0  0  0  0  0  0  0  0  0  0  0
  -43.1000  -64.1490   49.8810 H   0  0  0  0  0  0  0  0  0  0  0  0
  -47.1150  -63.3820   51.8130 H   0  0  0  0  0  0  0  0  0  0  0  0
  -46.4190  -62.8940   53.3680 H   0  0  0  0  0  0  0  0  0  0  0  0
  -47.8590  -64.2330   54.4820 H   0  0  0  0  0  0  0  0  0  0  0  0
  -48.5410  -64.8120   52.9500 H   0  0  0  0  0  0  0  0  0  0  0  0
  -45.4310  -66.4310   55.0380 H   0  0  0  0  0  0  0  0  0  0  0  0
  -45.3940  -67.1570   53.3350 H   0  0  0  0  0  0  0  0  0  0  0  0
  -43.7320  -65.5150   53.1940 H   0  0  0  0  0  0  0  0  0  0  0  0
  -44.6210  -64.4180   54.3440 H   0  0  0  0  0  0  0  0  0  0  0  0
  -50.2730  -68.7340   52.1490 H   0  0  0  0  0  0  0  0  0  0  0  0
  -50.3870  -70.0000   54.2490 H   0  0  0  0  0  0  0  0  0  0  0  0
  -47.4190  -67.5810   55.9210 H   0  0  0  0  0  0  0  0  0  0  0  0
  1  2  1  0  0  0  0
  2  3  1  0  0  0  0
  3 30  1  0  0  0  0
  3  4  2  0  0  0  0
  4 11  1  0  0  0  0
  5  4  1  0  0  0  0
  5  8  1  0  0  0  0
  6  5  2  0  0  0  0
  7  2  2  0  0  0  0
  7  6  1  0  0  0  0
  8  9  2  0  0  0  0
  8 10  1  0  0  0  0
 10 13  1  0  0  0  0
 11 10  1  0  0  0  0
 11 12  2  0  0  0  0
 13 33  1  0  0  0  0
 13 34  1  0  0  0  0
 14 13  1  0  0  0  0
 14 35  1  0  0  0  0
 15 16  1  0  0  0  0
 15 14  1  0  0  0  0
 15 37  1  0  0  0  0
 16 18  1  0  0  0  0
 17 16  2  0  0  0  0
 18 19  1  0  0  0  0
 18 23  1  0  0  0  0
 19 40  1  0  0  0  0
 19 20  1  0  0  0  0
 20 21  1  0  0  0  0
 20 41  1  0  0  0  0
 21 24  1  0  0  0  0
 21 22  1  0  0  0  0
 22 43  1  0  0  0  0
 23 22  1  0  0  0  0
 23 46  1  0  0  0  0
 24 29  1  0  0  0  0
 25 26  1  0  0  0  0
 25 24  2  0  0  0  0
 26 27  2  0  0  0  0
 27 48  1  0  0  0  0
 27 28  1  0  0  0  0
 29 28  2  0  0  0  0
 29 49  1  0  0  0  0
 31  6  1  0  0  0  0
 32  7  1  0  0  0  0
 36 14  1  0  0  0  0
 38 15  1  0  0  0  0
 39 19  1  0  0  0  0
 42 20  1  0  0  0  0
 44 22  1  0  0  0  0
 45 23  1  0  0  0  0
 47 26  1  0  0  0  0
M  END
>  <Pose>
1

>  <Score>
-5.89

$$$$
