
 OpenBabel03202209423D

 44 47  0  0  0  0  0  0  0  0999 V2000
  -41.7160  -68.9610   54.6190 B   0  0  0  0  0  0  0  0  0  0  0  0
  -40.7980  -68.2720   53.1040 C   0  0  0  0  0  0  0  0  0  0  0  0
  -41.1050  -67.0180   52.5640 C   0  0  0  0  0  0  0  0  0  0  0  0
  -40.4430  -66.5140   51.4650 C   0  0  0  0  0  0  0  0  0  0  0  0
  -39.4330  -67.2780   50.8680 C   0  0  0  0  0  0  0  0  0  0  0  0
  -39.1370  -68.5190   51.4120 C   0  0  0  0  0  0  0  0  0  0  0  0
  -39.8090  -69.0050   52.5090 C   0  0  0  0  0  0  0  0  0  0  0  0
  -38.8770  -66.5860   49.7560 N   0  0  0  0  0  0  0  0  0  0  0  0
  -39.5630  -65.3480   49.6550 C   0  0  0  0  0  0  0  0  0  0  0  0
  -39.4160  -64.4070   48.8270 O   0  0  0  0  0  0  0  0  0  0  0  0
  -40.5740  -65.2630   50.7310 C   0  0  0  0  0  0  0  0  0  0  0  0
  -41.3870  -64.2890   50.9570 N   0  0  0  0  0  0  0  0  0  0  0  0
  -42.3070  -64.3140   52.0090 N   0  0  0  0  0  0  0  0  0  0  0  0
  -43.6660  -64.6670   51.8240 C   0  0  0  0  0  0  0  0  0  0  0  0
  -44.0250  -65.1580   50.7290 O   0  0  0  0  0  0  0  0  0  0  0  0
  -44.6310  -64.4590   52.8940 C   0  0  0  0  0  0  0  0  0  0  0  0
  -45.2230  -65.6940   53.3730 N   0  0  0  0  0  0  0  0  0  0  0  0
  -44.5890  -66.7800   53.7780 N   0  0  0  0  0  0  0  0  0  0  0  0
  -45.4550  -67.7100   54.1460 N   0  0  0  0  0  0  0  0  0  0  0  0
  -46.6930  -67.2140   53.9740 C   0  0  0  0  0  0  0  0  0  0  0  0
  -46.5130  -65.9740   53.4990 N   0  0  0  0  0  0  0  0  0  0  0  0
  -47.9360  -67.9210   54.2610 C   0  0  0  0  0  0  0  0  0  0  0  0
  -48.5340  -67.7940   55.4970 C   0  0  0  0  0  0  0  0  0  0  0  0
  -49.7240  -68.4700   55.7750 C   0  0  0  0  0  0  0  0  0  0  0  0
  -50.3340  -69.2740   54.8390 C   0  0  0  0  0  0  0  0  0  0  0  0
  -49.7360  -69.4020   53.5980 C   0  0  0  0  0  0  0  0  0  0  0  0
  -48.5530  -68.7280   53.3290 C   0  0  0  0  0  0  0  0  0  0  0  0
  -37.8180  -66.9890   48.8520 C   0  0  0  0  0  0  0  0  0  0  0  0
  -36.7460  -67.6430   49.5840 C   0  0  0  0  0  0  0  0  0  0  0  0
  -35.8620  -68.1760   50.2030 C   0  0  0  0  0  0  0  0  0  0  0  0
  -41.8930  -66.4550   53.0520 H   0  0  0  0  0  0  0  0  0  0  0  0
  -38.3660  -69.1430   50.9860 H   0  0  0  0  0  0  0  0  0  0  0  0
  -39.5770  -69.9860   52.9400 H   0  0  0  0  0  0  0  0  0  0  0  0
  -41.9740  -64.0550   52.9590 H   0  0  0  0  0  0  0  0  0  0  0  0
  -45.4320  -63.7670   52.5720 H   0  0  0  0  0  0  0  0  0  0  0  0
  -44.1080  -63.9460   53.7370 H   0  0  0  0  0  0  0  0  0  0  0  0
  -48.0700  -67.1640   56.2550 H   0  0  0  0  0  0  0  0  0  0  0  0
  -50.1980  -68.3720   56.7520 H   0  0  0  0  0  0  0  0  0  0  0  0
  -51.2680  -69.7940   55.0810 H   0  0  0  0  0  0  0  0  0  0  0  0
  -50.2120  -70.0340   52.8540 H   0  0  0  0  0  0  0  0  0  0  0  0
  -48.0720  -68.8180   52.3590 H   0  0  0  0  0  0  0  0  0  0  0  0
  -38.1870  -67.6970   48.0690 H   0  0  0  0  0  0  0  0  0  0  0  0
  -37.4730  -66.0820   48.2980 H   0  0  0  0  0  0  0  0  0  0  0  0
  -35.0660  -68.6410   50.7600 H   0  0  0  0  0  0  0  0  0  0  0  0
  2  1  1  0  0  0  0
  3 31  1  0  0  0  0
  3  2  1  0  0  0  0
  4  3  2  0  0  0  0
  5  6  2  0  0  0  0
  5  4  1  0  0  0  0
  6  7  1  0  0  0  0
  7 33  1  0  0  0  0
  7  2  2  0  0  0  0
  8  5  1  0  0  0  0
  9  8  1  0  0  0  0
  9 11  1  0  0  0  0
 10  9  2  0  0  0  0
 11 12  2  0  0  0  0
 11  4  1  0  0  0  0
 12 13  1  0  0  0  0
 13 34  1  0  0  0  0
 14 13  1  0  0  0  0
 14 16  1  0  0  0  0
 15 14  2  0  0  0  0
 16 17  1  0  0  0  0
 16 36  1  0  0  0  0
 17 21  1  0  0  0  0
 17 18  1  0  0  0  0
 18 19  1  0  0  0  0
 20 19  2  0  0  0  0
 20 22  1  0  0  0  0
 21 20  1  0  0  0  0
 22 23  1  0  0  0  0
 23 24  2  0  0  0  0
 23 37  1  0  0  0  0
 24 38  1  0  0  0  0
 25 39  1  0  0  0  0
 25 24  1  0  0  0  0
 26 25  2  0  0  0  0
 27 26  1  0  0  0  0
 27 22  2  0  0  0  0
 28 29  1  0  0  0  0
 28  8  1  0  0  0  0
 29 30  3  0  0  0  0
 30 44  1  0  0  0  0
 32  6  1  0  0  0  0
 35 16  1  0  0  0  0
 40 26  1  0  0  0  0
 41 27  1  0  0  0  0
 42 28  1  0  0  0  0
 43 28  1  0  0  0  0
M  END
>  <Pose>
1

>  <Score>
-6.81

$$$$
