
 OpenBabel03202209423D

 58 61  0  0  0  0  0  0  0  0999 V2000
  -40.7180  -69.5540   55.0000 B   0  0  0  0  0  0  0  0  0  0  0  0
  -41.4720  -68.0910   54.0320 C   0  0  0  0  0  0  0  0  0  0  0  0
  -40.9440  -67.6750   52.8010 C   0  0  0  0  0  0  0  0  0  0  0  0
  -41.5700  -66.6240   52.1940 C   0  0  0  0  0  0  0  0  0  0  0  0
  -42.6630  -65.9660   52.7180 C   0  0  0  0  0  0  0  0  0  0  0  0
  -43.1750  -66.3730   53.9280 C   0  0  0  0  0  0  0  0  0  0  0  0
  -42.5640  -67.4540   54.5800 C   0  0  0  0  0  0  0  0  0  0  0  0
  -43.1050  -64.9120   51.8710 N   0  0  0  0  0  0  0  0  0  0  0  0
  -42.2060  -64.9100   50.7310 C   0  0  0  0  0  0  0  0  0  0  0  0
  -42.2820  -64.1330   49.7570 O   0  0  0  0  0  0  0  0  0  0  0  0
  -41.2530  -65.9730   50.9610 C   0  0  0  0  0  0  0  0  0  0  0  0
  -40.1880  -66.2410   50.3090 N   0  0  0  0  0  0  0  0  0  0  0  0
  -39.2050  -66.8660   50.2470 N   0  0  0  0  0  0  0  0  0  0  0  0
  -38.0060  -67.6090   50.1580 C   0  0  0  0  0  0  0  0  0  0  0  0
  -37.6820  -68.6960   50.5810 O   0  0  0  0  0  0  0  0  0  0  0  0
  -36.9600  -66.7920   49.3650 C   0  0  0  0  0  0  0  0  0  0  0  0
  -35.7100  -67.4540   49.6570 O   0  0  0  0  0  0  0  0  0  0  0  0
  -34.9400  -67.7880   48.5060 N   0  0  0  0  0  0  0  0  0  0  0  0
  -34.2380  -66.9140   47.8970 C   0  0  0  0  0  0  0  0  0  0  0  0
  -33.4780  -67.2750   46.7230 C   0  0  0  0  0  0  0  0  0  0  0  0
  -32.2580  -67.8640   46.7250 C   0  0  0  0  0  0  0  0  0  0  0  0
  -31.6500  -68.0650   45.4590 C   0  0  0  0  0  0  0  0  0  0  0  0
  -32.1560  -67.7490   44.2690 C   0  0  0  0  0  0  0  0  0  0  0  0
  -33.3770  -67.1670   44.3190 C   0  0  0  0  0  0  0  0  0  0  0  0
  -34.1030  -66.8850   45.4130 C   0  0  0  0  0  0  0  0  0  0  0  0
  -31.4450  -68.0120   43.0930 O   0  0  0  0  0  0  0  0  0  0  0  0
  -32.1300  -68.3210   41.8840 C   0  0  0  0  0  0  0  0  0  0  0  0
  -44.2280  -63.9950   51.9600 C   0  0  0  0  0  0  0  0  0  0  0  0
  -45.4400  -64.6460   51.8570 N   0  0  0  0  0  0  0  0  0  0  0  0
  -45.9130  -65.1120   53.0960 C   0  0  0  0  0  0  0  0  0  0  0  0
  -47.4040  -64.7900   53.2310 C   0  0  0  0  0  0  0  0  0  0  0  0
  -47.4600  -63.3990   52.9430 O   0  0  0  0  0  0  0  0  0  0  0  0
  -47.3380  -63.2140   51.5590 C   0  0  0  0  0  0  0  0  0  0  0  0
  -46.3600  -64.1470   50.9160 C   0  0  0  0  0  0  0  0  0  0  0  0
  -40.1480  -68.2240   52.4520 H   0  0  0  0  0  0  0  0  0  0  0  0
  -44.0380  -65.9110   54.3990 H   0  0  0  0  0  0  0  0  0  0  0  0
  -42.9460  -67.7520   55.5310 H   0  0  0  0  0  0  0  0  0  0  0  0
  -38.6510  -66.0260   49.2890 H   0  0  0  0  0  0  0  0  0  0  0  0
  -37.1920  -67.2820   48.3180 H   0  0  0  0  0  0  0  0  0  0  0  0
  -37.0520  -65.7940   49.3240 H   0  0  0  0  0  0  0  0  0  0  0  0
  -34.1820  -65.8870   48.2530 H   0  0  0  0  0  0  0  0  0  0  0  0
  -31.7730  -68.1630   47.6220 H   0  0  0  0  0  0  0  0  0  0  0  0
  -30.6590  -68.5550   45.5080 H   0  0  0  0  0  0  0  0  0  0  0  0
  -33.7950  -66.8960   43.3120 H   0  0  0  0  0  0  0  0  0  0  0  0
  -35.0530  -66.4490   45.5050 H   0  0  0  0  0  0  0  0  0  0  0  0
  -32.5380  -67.3850   41.4180 H   0  0  0  0  0  0  0  0  0  0  0  0
  -31.3410  -68.6910   41.1550 H   0  0  0  0  0  0  0  0  0  0  0  0
  -32.8920  -69.1130   41.9870 H   0  0  0  0  0  0  0  0  0  0  0  0
  -44.0230  -63.2280   51.1840 H   0  0  0  0  0  0  0  0  0  0  0  0
  -44.0810  -63.4280   52.9270 H   0  0  0  0  0  0  0  0  0  0  0  0
  -45.7320  -66.2020   53.2520 H   0  0  0  0  0  0  0  0  0  0  0  0
  -45.3730  -64.6070   53.9120 H   0  0  0  0  0  0  0  0  0  0  0  0
  -47.6680  -64.9340   54.2710 H   0  0  0  0  0  0  0  0  0  0  0  0
  -48.0220  -65.3570   52.5420 H   0  0  0  0  0  0  0  0  0  0  0  0
  -47.0680  -62.1740   51.3370 H   0  0  0  0  0  0  0  0  0  0  0  0
  -48.3490  -63.4140   51.1290 H   0  0  0  0  0  0  0  0  0  0  0  0
  -46.9430  -65.0260   50.4240 H   0  0  0  0  0  0  0  0  0  0  0  0
  -45.8600  -63.6610   50.0730 H   0  0  0  0  0  0  0  0  0  0  0  0
  2  7  1  0  0  0  0
  2  1  1  0  0  0  0
  3  2  2  0  0  0  0
  4  5  2  0  0  0  0
  4  3  1  0  0  0  0
  5  6  1  0  0  0  0
  6 36  1  0  0  0  0
  6  7  2  0  0  0  0
  7 37  1  0  0  0  0
  8 28  1  0  0  0  0
  8  5  1  0  0  0  0
  9 11  1  0  0  0  0
  9  8  1  0  0  0  0
 10  9  2  0  0  0  0
 11  4  1  0  0  0  0
 12 11  2  0  0  0  0
 13 12  1  0  0  0  0
 14 13  1  0  0  0  0
 14 15  2  0  0  0  0
 16 17  1  0  0  0  0
 16 14  1  0  0  0  0
 18 17  1  0  0  0  0
 19 41  1  0  0  0  0
 19 18  2  0  0  0  0
 20 21  1  0  0  0  0
 20 19  1  0  0  0  0
 21 42  1  0  0  0  0
 22 43  1  0  0  0  0
 22 21  2  0  0  0  0
 23 24  2  0  0  0  0
 23 22  1  0  0  0  0
 24 25  1  0  0  0  0
 25 45  1  0  0  0  0
 25 20  2  0  0  0  0
 26 23  1  0  0  0  0
 27 48  1  0  0  0  0
 27 26  1  0  0  0  0
 28 50  1  0  0  0  0
 29 28  1  0  0  0  0
 29 30  1  0  0  0  0
 30 31  1  0  0  0  0
 30 51  1  0  0  0  0
 30 52  1  0  0  0  0
 31 53  1  0  0  0  0
 32 31  1  0  0  0  0
 33 32  1  0  0  0  0
 34 33  1  0  0  0  0
 34 29  1  0  0  0  0
 35  3  1  0  0  0  0
 38 13  1  0  0  0  0
 39 16  1  0  0  0  0
 40 16  1  0  0  0  0
 44 24  1  0  0  0  0
 46 27  1  0  0  0  0
 47 27  1  0  0  0  0
 49 28  1  0  0  0  0
 54 31  1  0  0  0  0
 55 33  1  0  0  0  0
 56 33  1  0  0  0  0
 57 34  1  0  0  0  0
 58 34  1  0  0  0  0
M  END
>  <Pose>
1

>  <Score>
-6.58

$$$$
