
 OpenBabel03202209423D

 36 39  0  0  1  0  0  0  0  0999 V2000
  -50.3050  -61.8980   55.7140 B   0  0  0  0  0  0  0  0  0  0  0  0
  -49.9930  -63.1100   54.2480 C   0  0  0  0  0  0  0  0  0  0  0  0
  -48.7210  -63.4660   53.8850 C   0  0  0  0  0  0  0  0  0  0  0  0
  -48.5220  -64.3350   52.8330 C   0  0  0  0  0  0  0  0  0  0  0  0
  -49.6290  -64.8130   52.1850 C   0  0  0  0  0  0  0  0  0  0  0  0
  -50.9370  -64.4460   52.5610 C   0  0  0  0  0  0  0  0  0  0  0  0
  -51.1160  -63.5820   53.6080 C   0  0  0  0  0  0  0  0  0  0  0  0
  -49.2630  -65.6950   51.1280 N   0  0  0  0  0  0  0  0  0  0  0  0
  -47.8660  -65.7800   51.1020 C   0  0  0  0  0  0  0  0  0  0  0  0
  -47.1910  -66.4780   50.2840 O   0  0  0  0  0  0  0  0  0  0  0  0
  -47.3100  -64.9100   52.1970 C   0  0  2  0  0  0  0  0  0  0  0  0
  -46.5700  -65.8030   53.0800 C   0  0  0  0  0  0  0  0  0  0  0  0
  -45.2260  -65.6750   53.2490 C   0  0  0  0  0  0  0  0  0  0  0  0
  -44.8490  -66.6510   54.1260 N   0  0  0  0  0  0  0  0  0  0  0  0
  -45.8940  -67.3610   54.4950 N   0  0  0  0  0  0  0  0  0  0  0  0
  -46.9710  -66.8780   53.8790 C   0  0  0  0  0  0  0  0  0  0  0  0
  -48.3940  -67.3350   53.9630 C   0  0  0  0  0  0  0  0  0  0  0  0
  -44.4710  -64.6930   52.5990 O   0  0  0  0  0  0  0  0  0  0  0  0
  -45.1810  -63.8430   51.7570 C   0  0  0  0  0  0  0  0  0  0  0  0
  -46.4710  -63.9160   51.5550 C   0  0  0  0  0  0  0  0  0  0  0  0
  -47.0560  -62.9310   50.6290 C   0  0  0  0  0  0  0  0  0  0  0  0
  -47.5060  -62.1330   49.9040 N   0  0  0  0  0  0  0  0  0  0  0  0
  -44.4490  -62.8000   51.0530 N   0  0  0  0  0  0  0  0  0  0  0  0
  -50.1800  -66.3970   50.2170 C   0  0  0  0  0  0  0  0  0  0  0  0
  -47.8600  -63.0800   54.4060 H   0  0  0  0  0  0  0  0  0  0  0  0
  -51.8100  -64.8260   52.0470 H   0  0  0  0  0  0  0  0  0  0  0  0
  -52.1260  -63.2780   53.9230 H   0  0  0  0  0  0  0  0  0  0  0  0
  -45.9310  -68.1790   55.1570 H   0  0  0  0  0  0  0  0  0  0  0  0
  -48.3980  -68.2020   54.6730 H   0  0  0  0  0  0  0  0  0  0  0  0
  -49.0420  -66.5650   54.4490 H   0  0  0  0  0  0  0  0  0  0  0  0
  -48.7790  -67.7070   53.0140 H   0  0  0  0  0  0  0  0  0  0  0  0
  -44.4650  -61.8700   51.5170 H   0  0  0  0  0  0  0  0  0  0  0  0
  -43.9570  -62.9540   50.1750 H   0  0  0  0  0  0  0  0  0  0  0  0
  -49.9430  -66.0610   49.1880 H   0  0  0  0  0  0  0  0  0  0  0  0
  -49.8800  -67.4690   50.2810 H   0  0  0  0  0  0  0  0  0  0  0  0
  -51.2210  -66.2550   50.5050 H   0  0  0  0  0  0  0  0  0  0  0  0
  2  1  1  0  0  0  0
  3  2  1  0  0  0  0
  3 25  1  0  0  0  0
  4  3  2  0  0  0  0
  5  6  2  0  0  0  0
  5  4  1  0  0  0  0
  6  7  1  0  0  0  0
  7 27  1  0  0  0  0
  7  2  2  0  0  0  0
  8  5  1  0  0  0  0
  9  8  1  0  0  0  0
 10  9  2  0  0  0  0
 11  9  1  6  0  0  0
 11  4  1  0  0  0  0
 11 12  1  0  0  0  0
 12 13  1  0  0  0  0
 12 16  2  0  0  0  0
 13 14  2  0  0  0  0
 14 15  1  0  0  0  0
 15 28  1  0  0  0  0
 16 17  1  0  0  0  0
 16 15  1  0  0  0  0
 17 30  1  0  0  0  0
 17 29  1  0  0  0  0
 18 13  1  0  0  0  0
 19 18  1  0  0  0  0
 20 19  2  0  0  0  0
 20 11  1  0  0  0  0
 21 20  1  0  0  0  0
 22 21  3  0  0  0  0
 23 32  1  0  0  0  0
 23 19  1  0  0  0  0
 24 35  1  0  0  0  0
 24 36  1  0  0  0  0
 24  8  1  0  0  0  0
 26  6  1  0  0  0  0
 31 17  1  0  0  0  0
 33 23  1  0  0  0  0
 34 24  1  0  0  0  0
M  END
>  <Pose>
1

>  <Score>
-4.12

$$$$
