
 OpenBabel03202209423D

 41 44  0  0  1  0  0  0  0  0999 V2000
  -44.5540  -66.3650   52.9110 B   0  0  0  0  0  0  0  0  0  0  0  0
  -46.0090  -65.2810   52.3480 C   0  0  0  0  0  0  0  0  0  0  0  0
  -46.2070  -64.9120   51.0390 C   0  0  0  0  0  0  0  0  0  0  0  0
  -47.3000  -64.1130   50.7070 C   0  0  0  0  0  0  0  0  0  0  0  0
  -48.1990  -63.6690   51.6180 C   0  0  0  0  0  0  0  0  0  0  0  0
  -47.9980  -64.0450   52.9490 C   0  0  0  0  0  0  0  0  0  0  0  0
  -46.9240  -64.8340   53.2960 C   0  0  0  0  0  0  0  0  0  0  0  0
  -49.2130  -62.8790   51.0280 N   0  0  0  0  0  0  0  0  0  0  0  0
  -48.9460  -62.8100   49.6470 C   0  0  0  0  0  0  0  0  0  0  0  0
  -49.6320  -62.1920   48.7860 O   0  0  0  0  0  0  0  0  0  0  0  0
  -47.7120  -63.5940   49.3630 C   0  0  1  0  0  0  0  0  0  0  0  0
  -46.6490  -62.7090   48.8230 C   0  0  0  0  0  0  0  0  0  0  0  0
  -46.0290  -62.9600   47.7270 C   0  0  0  0  0  0  0  0  0  0  0  0
  -46.3120  -64.1340   46.9150 N   0  0  0  0  0  0  0  0  0  0  0  0
  -47.3210  -64.9850   47.4180 C   0  0  0  0  0  0  0  0  0  0  0  0
  -47.9630  -64.7480   48.5290 C   0  0  0  0  0  0  0  0  0  0  0  0
  -48.9800  -65.7170   48.9210 C   0  0  0  0  0  0  0  0  0  0  0  0
  -49.7720  -66.4990   49.2400 N   0  0  0  0  0  0  0  0  0  0  0  0
  -47.6460  -66.1750   46.6480 N   0  0  0  0  0  0  0  0  0  0  0  0
  -45.0310  -61.8740   47.4790 C   0  0  0  0  0  0  0  0  0  0  0  0
  -45.1640  -61.0050   48.5430 O   0  0  0  0  0  0  0  0  0  0  0  0
  -46.1230  -61.4330   49.4090 C   0  0  0  0  0  0  0  0  0  0  0  0
  -46.5350  -60.9170   50.4910 O   0  0  0  0  0  0  0  0  0  0  0  0
  -45.2940  -61.2270   46.1330 C   0  0  0  0  0  0  0  0  0  0  0  0
  -43.6190  -62.4290   47.4980 C   0  0  0  0  0  0  0  0  0  0  0  0
  -50.3510  -62.2290   51.6960 C   0  0  0  0  0  0  0  0  0  0  0  0
  -45.5000  -65.2570   50.3030 H   0  0  0  0  0  0  0  0  0  0  0  0
  -48.7190  -63.6880   53.6770 H   0  0  0  0  0  0  0  0  0  0  0  0
  -46.8060  -65.1010   54.3400 H   0  0  0  0  0  0  0  0  0  0  0  0
  -45.7820  -64.2880   46.0400 H   0  0  0  0  0  0  0  0  0  0  0  0
  -47.4190  -66.1540   45.6330 H   0  0  0  0  0  0  0  0  0  0  0  0
  -48.0820  -66.9980   47.0860 H   0  0  0  0  0  0  0  0  0  0  0  0
  -45.8520  -60.2640   46.2350 H   0  0  0  0  0  0  0  0  0  0  0  0
  -44.3280  -61.0880   45.6130 H   0  0  0  0  0  0  0  0  0  0  0  0
  -45.9000  -61.9350   45.5460 H   0  0  0  0  0  0  0  0  0  0  0  0
  -43.2490  -62.4450   48.5420 H   0  0  0  0  0  0  0  0  0  0  0  0
  -42.9510  -61.8190   46.8640 H   0  0  0  0  0  0  0  0  0  0  0  0
  -43.5850  -63.4640   47.1020 H   0  0  0  0  0  0  0  0  0  0  0  0
  -51.2910  -62.7290   51.3380 H   0  0  0  0  0  0  0  0  0  0  0  0
  -50.2990  -62.4140   52.7920 H   0  0  0  0  0  0  0  0  0  0  0  0
  -50.3900  -61.1590   51.4900 H   0  0  0  0  0  0  0  0  0  0  0  0
  2  1  1  0  0  0  0
  2  7  1  0  0  0  0
  3  2  2  0  0  0  0
  4  3  1  0  0  0  0
  4  5  2  0  0  0  0
  5  6  1  0  0  0  0
  6  7  2  0  0  0  0
  6 28  1  0  0  0  0
  7 29  1  0  0  0  0
  8  5  1  0  0  0  0
  8 26  1  0  0  0  0
  9  8  1  0  0  0  0
 10  9  2  0  0  0  0
 11 16  1  6  0  0  0
 11  9  1  0  0  0  0
 11  4  1  0  0  0  0
 12 11  1  0  0  0  0
 12 22  1  0  0  0  0
 13 12  2  0  0  0  0
 14 15  1  0  0  0  0
 14 13  1  0  0  0  0
 15 16  2  0  0  0  0
 16 17  1  0  0  0  0
 17 18  3  0  0  0  0
 19 32  1  0  0  0  0
 19 15  1  0  0  0  0
 20 25  1  0  0  0  0
 20 13  1  0  0  0  0
 20 21  1  0  0  0  0
 21 22  1  0  0  0  0
 22 23  2  0  0  0  0
 24 33  1  0  0  0  0
 24 20  1  0  0  0  0
 25 36  1  0  0  0  0
 26 40  1  0  0  0  0
 27  3  1  0  0  0  0
 30 14  1  0  0  0  0
 31 19  1  0  0  0  0
 34 24  1  0  0  0  0
 35 24  1  0  0  0  0
 37 25  1  0  0  0  0
 38 25  1  0  0  0  0
 39 26  1  0  0  0  0
 41 26  1  0  0  0  0
M  END
>  <Pose>
1

>  <Score>
-3.40

$$$$
