
 OpenBabel03202209423D

 39 42  0  0  1  0  0  0  0  0999 V2000
  -44.5540  -58.9500   49.8520 B   0  0  0  0  0  0  0  0  0  0  0  0
  -45.2480  -60.6420   49.3240 C   0  0  0  0  0  0  0  0  0  0  0  0
  -45.5390  -61.5910   50.2790 C   0  0  0  0  0  0  0  0  0  0  0  0
  -46.0500  -62.8420   49.9170 C   0  0  0  0  0  0  0  0  0  0  0  0
  -46.2480  -63.0830   48.5960 C   0  0  0  0  0  0  0  0  0  0  0  0
  -45.9490  -62.1110   47.6190 C   0  0  0  0  0  0  0  0  0  0  0  0
  -45.4470  -60.8830   47.9840 C   0  0  0  0  0  0  0  0  0  0  0  0
  -46.7670  -64.3980   48.4410 N   0  0  0  0  0  0  0  0  0  0  0  0
  -46.9020  -65.0070   49.7020 C   0  0  0  0  0  0  0  0  0  0  0  0
  -47.3280  -66.1620   49.9550 O   0  0  0  0  0  0  0  0  0  0  0  0
  -46.4430  -64.0290   50.7330 C   0  0  1  0  0  0  0  0  0  0  0  0
  -45.3000  -64.5570   51.4850 C   0  0  0  0  0  0  0  0  0  0  0  0
  -45.3150  -64.6400   52.8390 C   0  0  0  0  0  0  0  0  0  0  0  0
  -46.4380  -64.2190   53.5580 O   0  0  0  0  0  0  0  0  0  0  0  0
  -47.5400  -63.7140   52.8970 C   0  0  0  0  0  0  0  0  0  0  0  0
  -47.5520  -63.6250   51.6020 C   0  0  0  0  0  0  0  0  0  0  0  0
  -48.7670  -63.0760   50.9830 C   0  0  0  0  0  0  0  0  0  0  0  0
  -49.7040  -62.6440   50.5010 N   0  0  0  0  0  0  0  0  0  0  0  0
  -48.6570  -63.3010   53.7020 N   0  0  0  0  0  0  0  0  0  0  0  0
  -44.2020  -65.1500   53.5140 C   0  0  0  0  0  0  0  0  0  0  0  0
  -44.2290  -65.2210   54.7600 O   0  0  0  0  0  0  0  0  0  0  0  0
  -43.1050  -65.5600   52.7930 C   0  0  0  0  0  0  0  0  0  0  0  0
  -43.1460  -65.4530   51.4190 C   0  0  0  0  0  0  0  0  0  0  0  0
  -44.2010  -64.9740   50.8510 O   0  0  0  0  0  0  0  0  0  0  0  0
  -41.9510  -65.8990   50.6040 C   0  0  0  0  0  0  0  0  0  0  0  0
  -42.1870  -67.1840   50.1150 O   0  0  0  0  0  0  0  0  0  0  0  0
  -47.0970  -64.9840   47.1270 C   0  0  0  0  0  0  0  0  0  0  0  0
  -45.3940  -61.4330   51.3420 H   0  0  0  0  0  0  0  0  0  0  0  0
  -46.1120  -62.3140   46.5610 H   0  0  0  0  0  0  0  0  0  0  0  0
  -45.2170  -60.1300   47.2260 H   0  0  0  0  0  0  0  0  0  0  0  0
  -48.6030  -63.4220   54.7120 H   0  0  0  0  0  0  0  0  0  0  0  0
  -49.4690  -62.9000   53.2340 H   0  0  0  0  0  0  0  0  0  0  0  0
  -42.2140  -65.9630   53.2500 H   0  0  0  0  0  0  0  0  0  0  0  0
  -41.7560  -65.2170   49.7760 H   0  0  0  0  0  0  0  0  0  0  0  0
  -41.0540  -65.9950   51.2780 H   0  0  0  0  0  0  0  0  0  0  0  0
  -42.9510  -67.1500   49.4640 H   0  0  0  0  0  0  0  0  0  0  0  0
  -47.1870  -64.1850   46.3670 H   0  0  0  0  0  0  0  0  0  0  0  0
  -46.2810  -65.6700   46.8480 H   0  0  0  0  0  0  0  0  0  0  0  0
  -48.0910  -65.4960   47.1950 H   0  0  0  0  0  0  0  0  0  0  0  0
  2  1  1  0  0  0  0
  2  3  1  0  0  0  0
  3 28  1  0  0  0  0
  4  3  2  0  0  0  0
  4 11  1  0  0  0  0
  5  4  1  0  0  0  0
  6  7  1  0  0  0  0
  6  5  2  0  0  0  0
  7  2  2  0  0  0  0
  8  5  1  0  0  0  0
  8  9  1  0  0  0  0
  9 10  2  0  0  0  0
 11  9  1  6  0  0  0
 11 12  1  0  0  0  0
 11 16  1  0  0  0  0
 12 13  2  0  0  0  0
 13 20  1  0  0  0  0
 13 14  1  0  0  0  0
 15 14  1  0  0  0  0
 15 19  1  0  0  0  0
 16 15  2  0  0  0  0
 17 16  1  0  0  0  0
 18 17  3  0  0  0  0
 19 31  1  0  0  0  0
 20 21  2  0  0  0  0
 22 33  1  0  0  0  0
 22 20  1  0  0  0  0
 23 22  2  0  0  0  0
 24 23  1  0  0  0  0
 24 12  1  0  0  0  0
 25 35  1  0  0  0  0
 25 23  1  0  0  0  0
 26 25  1  0  0  0  0
 27 39  1  0  0  0  0
 27  8  1  0  0  0  0
 29  6  1  0  0  0  0
 30  7  1  0  0  0  0
 32 19  1  0  0  0  0
 34 25  1  0  0  0  0
 36 26  1  0  0  0  0
 37 27  1  0  0  0  0
 38 27  1  0  0  0  0
M  END
>  <Pose>
1

>  <Score>
-4.59

$$$$
