
 OpenBabel03202209423D

 51 56  0  0  1  0  0  0  0  0999 V2000
  -47.6290  -67.2190   53.7150 B   0  0  0  0  0  0  0  0  0  0  0  0
  -45.9920  -66.3100   53.3500 C   0  0  0  0  0  0  0  0  0  0  0  0
  -44.7880  -66.9880   53.2050 C   0  0  0  0  0  0  0  0  0  0  0  0
  -43.6160  -66.3300   52.9430 C   0  0  0  0  0  0  0  0  0  0  0  0
  -43.6760  -64.9500   52.8260 C   0  0  0  0  0  0  0  0  0  0  0  0
  -44.8680  -64.2700   52.9690 C   0  0  0  0  0  0  0  0  0  0  0  0
  -46.0380  -64.9430   53.2330 C   0  0  0  0  0  0  0  0  0  0  0  0
  -42.3760  -64.4230   52.5490 N   0  0  0  0  0  0  0  0  0  0  0  0
  -41.4580  -65.4930   52.4870 C   0  0  0  0  0  0  0  0  0  0  0  0
  -40.2470  -65.3630   52.2570 O   0  0  0  0  0  0  0  0  0  0  0  0
  -42.2260  -66.7310   52.7430 C   0  0  1  0  0  0  0  0  0  0  0  0
  -41.5980  -67.3990   53.8430 N   0  0  2  0  0  0  0  0  0  0  0  0
  -40.3960  -67.9910   53.2590 C   0  0  2  0  0  0  0  0  0  0  0  0
  -40.7420  -68.3440   51.8500 C   0  0  1  0  0  0  0  0  0  0  0  0
  -42.0850  -67.7380   51.6290 C   0  0  2  0  0  0  0  0  0  0  0  0
  -42.0120  -67.1350   50.3020 C   0  0  0  0  0  0  0  0  0  0  0  0
  -42.9660  -66.6430   49.6580 O   0  0  0  0  0  0  0  0  0  0  0  0
  -40.6860  -67.1860   49.8380 N   0  0  0  0  0  0  0  0  0  0  0  0
  -39.8190  -67.7040   50.8590 C   0  0  0  0  0  0  0  0  0  0  0  0
  -38.5670  -67.6490   50.9360 O   0  0  0  0  0  0  0  0  0  0  0  0
  -40.2320  -66.7880   48.5430 C   0  0  0  0  0  0  0  0  0  0  0  0
  -39.8020  -65.3710   48.4290 C   0  0  2  0  0  0  0  0  0  0  0  0
  -39.4550  -64.9910   47.1370 O   0  0  0  0  0  0  0  0  0  0  0  0
  -38.8710  -63.7430   47.3090 C   0  0  0  0  0  0  0  0  0  0  0  0
  -38.0960  -63.7610   48.5880 C   0  0  0  0  0  0  0  0  0  0  0  0
  -38.6870  -64.9610   49.3280 C   0  0  0  0  0  0  0  0  0  0  0  0
  -40.1650  -69.2830   54.0300 C   0  0  0  0  0  0  0  0  0  0  0  0
  -41.2590  -69.3460   55.0750 C   0  0  0  0  0  0  0  0  0  0  0  0
  -42.3470  -68.5150   54.3820 C   0  0  0  0  0  0  0  0  0  0  0  0
  -44.8470  -68.0730   53.3140 H   0  0  0  0  0  0  0  0  0  0  0  0
  -44.9350  -63.1760   52.8800 H   0  0  0  0  0  0  0  0  0  0  0  0
  -46.9890  -64.3890   53.3450 H   0  0  0  0  0  0  0  0  0  0  0  0
  -42.1600  -63.3910   52.4170 H   0  0  0  0  0  0  0  0  0  0  0  0
  -39.5350  -67.3110   53.3510 H   0  0  0  0  0  0  0  0  0  0  0  0
  -40.7340  -69.4550   51.6860 H   0  0  0  0  0  0  0  0  0  0  0  0
  -42.9110  -68.4690   51.7380 H   0  0  0  0  0  0  0  0  0  0  0  0
  -39.3620  -67.4290   48.2800 H   0  0  0  0  0  0  0  0  0  0  0  0
  -40.9860  -66.9760   47.7390 H   0  0  0  0  0  0  0  0  0  0  0  0
  -40.6920  -64.7350   48.6980 H   0  0  0  0  0  0  0  0  0  0  0  0
  -38.1240  -63.6220   46.4730 H   0  0  0  0  0  0  0  0  0  0  0  0
  -39.6010  -62.9120   47.2370 H   0  0  0  0  0  0  0  0  0  0  0  0
  -38.2230  -62.8390   49.1910 H   0  0  0  0  0  0  0  0  0  0  0  0
  -37.0260  -63.9980   48.4110 H   0  0  0  0  0  0  0  0  0  0  0  0
  -37.9400  -65.7230   49.5400 H   0  0  0  0  0  0  0  0  0  0  0  0
  -39.0850  -64.6170   50.3280 H   0  0  0  0  0  0  0  0  0  0  0  0
  -39.1550  -69.3490   54.4510 H   0  0  0  0  0  0  0  0  0  0  0  0
  -40.2930  -70.1810   53.3740 H   0  0  0  0  0  0  0  0  0  0  0  0
  -40.9810  -68.8980   56.0310 H   0  0  0  0  0  0  0  0  0  0  0  0
  -41.6520  -70.3480   55.2390 H   0  0  0  0  0  0  0  0  0  0  0  0
  -43.0960  -68.2290   55.1210 H   0  0  0  0  0  0  0  0  0  0  0  0
  -42.7740  -69.1850   53.6280 H   0  0  0  0  0  0  0  0  0  0  0  0
  2  1  1  0  0  0  0
  3 30  1  0  0  0  0
  3  2  2  0  0  0  0
  4  3  1  0  0  0  0
  5  4  2  0  0  0  0
  5  6  1  0  0  0  0
  6  7  2  0  0  0  0
  7 32  1  0  0  0  0
  7  2  1  0  0  0  0
  8  5  1  0  0  0  0
  9  8  1  0  0  0  0
 10  9  2  0  0  0  0
 11  9  1  6  0  0  0
 11  4  1  0  0  0  0
 11 12  1  0  0  0  0
 12 29  1  6  0  0  0
 13 34  1  1  0  0  0
 13 12  1  0  0  0  0
 13 27  1  0  0  0  0
 14 35  1  6  0  0  0
 14 13  1  0  0  0  0
 15 36  1  1  0  0  0
 15 14  1  0  0  0  0
 15 11  1  0  0  0  0
 16 15  1  0  0  0  0
 17 16  2  0  0  0  0
 18 16  1  0  0  0  0
 18 19  1  0  0  0  0
 19 20  2  0  0  0  0
 19 14  1  0  0  0  0
 21 18  1  0  0  0  0
 22 21  1  0  0  0  0
 22 39  1  1  0  0  0
 22 26  1  0  0  0  0
 23 24  1  0  0  0  0
 23 22  1  0  0  0  0
 24 25  1  0  0  0  0
 25 42  1  0  0  0  0
 25 26  1  0  0  0  0
 26 44  1  0  0  0  0
 26 45  1  0  0  0  0
 27 46  1  0  0  0  0
 27 28  1  0  0  0  0
 28 49  1  0  0  0  0
 28 48  1  0  0  0  0
 29 28  1  0  0  0  0
 29 50  1  0  0  0  0
 31  6  1  0  0  0  0
 33  8  1  0  0  0  0
 37 21  1  0  0  0  0
 38 21  1  0  0  0  0
 40 24  1  0  0  0  0
 41 24  1  0  0  0  0
 43 25  1  0  0  0  0
 47 27  1  0  0  0  0
 51 29  1  0  0  0  0
M  END
>  <Pose>
1

>  <Score>
-5.04

$$$$
