
 OpenBabel03202209423D

 41 44  0  0  1  0  0  0  0  0999 V2000
  -38.4890  -62.6340   52.2270 B   0  0  0  0  0  0  0  0  0  0  0  0
  -39.6350  -63.9340   51.4310 C   0  0  0  0  0  0  0  0  0  0  0  0
  -40.3230  -64.7660   52.2800 C   0  0  0  0  0  0  0  0  0  0  0  0
  -41.1770  -65.7360   51.7440 C   0  0  0  0  0  0  0  0  0  0  0  0
  -41.3060  -65.8340   50.3970 C   0  0  0  0  0  0  0  0  0  0  0  0
  -40.6100  -64.9920   49.5090 C   0  0  0  0  0  0  0  0  0  0  0  0
  -39.7780  -64.0480   50.0650 C   0  0  0  0  0  0  0  0  0  0  0  0
  -42.2050  -66.8730   50.0540 N   0  0  0  0  0  0  0  0  0  0  0  0
  -42.6560  -67.4490   51.2430 C   0  0  0  0  0  0  0  0  0  0  0  0
  -43.4820  -68.4350   51.3670 O   0  0  0  0  0  0  0  0  0  0  0  0
  -42.0200  -66.7310   52.3880 C   0  0  2  0  0  0  0  0  0  0  0  0
  -43.1020  -66.2440   53.2030 C   0  0  0  0  0  0  0  0  0  0  0  0
  -43.3250  -66.7320   54.4360 C   0  0  0  0  0  0  0  0  0  0  0  0
  -44.4160  -66.0640   54.9380 N   0  0  0  0  0  0  0  0  0  0  0  0
  -44.8310  -65.2040   54.0330 N   0  0  0  0  0  0  0  0  0  0  0  0
  -44.0720  -65.2570   52.9370 C   0  0  0  0  0  0  0  0  0  0  0  0
  -44.1930  -64.4600   51.6820 C   0  0  0  0  0  0  0  0  0  0  0  0
  -42.5380  -67.7390   55.0240 O   0  0  0  0  0  0  0  0  0  0  0  0
  -41.4880  -68.2220   54.2530 C   0  0  0  0  0  0  0  0  0  0  0  0
  -41.2260  -67.7900   53.0570 C   0  0  0  0  0  0  0  0  0  0  0  0
  -40.0730  -68.3770   52.3140 C   0  0  0  0  0  0  0  0  0  0  0  0
  -39.6850  -69.5110   52.6460 O   0  0  0  0  0  0  0  0  0  0  0  0
  -39.4330  -67.7310   51.2920 O   0  0  0  0  0  0  0  0  0  0  0  0
  -38.2280  -68.1570   50.7020 C   0  0  0  0  0  0  0  0  0  0  0  0
  -37.8150  -67.0840   49.6890 C   0  0  0  0  0  0  0  0  0  0  0  0
  -40.6340  -69.2580   54.7880 N   0  0  0  0  0  0  0  0  0  0  0  0
  -40.2200  -64.6880   53.3690 H   0  0  0  0  0  0  0  0  0  0  0  0
  -40.7170  -65.0750   48.4450 H   0  0  0  0  0  0  0  0  0  0  0  0
  -39.2200  -63.3740   49.4280 H   0  0  0  0  0  0  0  0  0  0  0  0
  -42.5050  -67.1850   49.0860 H   0  0  0  0  0  0  0  0  0  0  0  0
  -44.8410  -66.2170   55.8800 H   0  0  0  0  0  0  0  0  0  0  0  0
  -44.9630  -63.6720   51.8040 H   0  0  0  0  0  0  0  0  0  0  0  0
  -44.5650  -65.1530   50.9000 H   0  0  0  0  0  0  0  0  0  0  0  0
  -43.2560  -63.9460   51.4120 H   0  0  0  0  0  0  0  0  0  0  0  0
  -38.3030  -69.1420   50.2320 H   0  0  0  0  0  0  0  0  0  0  0  0
  -37.4330  -68.1680   51.4800 H   0  0  0  0  0  0  0  0  0  0  0  0
  -38.1290  -66.0790   50.0350 H   0  0  0  0  0  0  0  0  0  0  0  0
  -36.7190  -67.0670   49.5400 H   0  0  0  0  0  0  0  0  0  0  0  0
  -38.2690  -67.3370   48.7010 H   0  0  0  0  0  0  0  0  0  0  0  0
  -41.0710  -70.0200   55.3120 H   0  0  0  0  0  0  0  0  0  0  0  0
  -39.6270  -69.2050   54.6310 H   0  0  0  0  0  0  0  0  0  0  0  0
  2  1  1  0  0  0  0
  2  3  1  0  0  0  0
  3 27  1  0  0  0  0
  4  3  2  0  0  0  0
  4 11  1  0  0  0  0
  5  4  1  0  0  0  0
  6  7  1  0  0  0  0
  6  5  2  0  0  0  0
  7  2  2  0  0  0  0
  8  5  1  0  0  0  0
  8  9  1  0  0  0  0
  9 10  2  0  0  0  0
 11  9  1  6  0  0  0
 11 20  1  0  0  0  0
 11 12  1  0  0  0  0
 12 13  2  0  0  0  0
 13 14  1  0  0  0  0
 13 18  1  0  0  0  0
 14 31  1  0  0  0  0
 15 14  1  0  0  0  0
 16 12  1  0  0  0  0
 16 15  2  0  0  0  0
 17 32  1  0  0  0  0
 17 16  1  0  0  0  0
 19 26  1  0  0  0  0
 19 18  1  0  0  0  0
 20 19  2  0  0  0  0
 21 22  2  0  0  0  0
 21 20  1  0  0  0  0
 23 21  1  0  0  0  0
 24 23  1  0  0  0  0
 24 36  1  0  0  0  0
 25 37  1  0  0  0  0
 25 24  1  0  0  0  0
 26 40  1  0  0  0  0
 28  6  1  0  0  0  0
 29  7  1  0  0  0  0
 30  8  1  0  0  0  0
 33 17  1  0  0  0  0
 34 17  1  0  0  0  0
 35 24  1  0  0  0  0
 38 25  1  0  0  0  0
 39 25  1  0  0  0  0
 41 26  1  0  0  0  0
M  END
>  <Pose>
1

>  <Score>
-5.20

$$$$
