
 OpenBabel03202209423D

 49 52  0  0  1  0  0  0  0  0999 V2000
  -49.3910  -65.8500   49.8340 B   0  0  0  0  0  0  0  0  0  0  0  0
  -48.2130  -66.0150   51.3410 C   0  0  0  0  0  0  0  0  0  0  0  0
  -46.8540  -65.7880   51.2300 C   0  0  0  0  0  0  0  0  0  0  0  0
  -45.9990  -65.9050   52.3070 C   0  0  0  0  0  0  0  0  0  0  0  0
  -46.5740  -66.2620   53.5090 C   0  0  0  0  0  0  0  0  0  0  0  0
  -47.9410  -66.4920   53.6250 C   0  0  0  0  0  0  0  0  0  0  0  0
  -48.7620  -66.3690   52.5460 C   0  0  0  0  0  0  0  0  0  0  0  0
  -45.5430  -66.3420   54.5070 N   0  0  0  0  0  0  0  0  0  0  0  0
  -44.2970  -66.0280   53.9120 C   0  0  0  0  0  0  0  0  0  0  0  0
  -43.2050  -66.0210   54.5270 O   0  0  0  0  0  0  0  0  0  0  0  0
  -44.5400  -65.7240   52.4860 C   0  0  1  0  0  0  0  0  0  0  0  0
  -43.7680  -66.5870   51.6330 N   0  0  0  0  0  0  0  0  0  0  0  0
  -42.4530  -65.9830   51.6260 C   0  0  2  0  0  0  0  0  0  0  0  0
  -42.7390  -64.5100   51.5030 C   0  0  2  0  0  0  0  0  0  0  0  0
  -44.0710  -64.3430   52.1940 C   0  0  1  0  0  0  0  0  0  0  0  0
  -44.9020  -63.5740   51.2570 C   0  0  0  0  0  0  0  0  0  0  0  0
  -46.0470  -63.1040   51.4770 O   0  0  0  0  0  0  0  0  0  0  0  0
  -44.2040  -63.4200   50.0000 N   0  0  0  0  0  0  0  0  0  0  0  0
  -42.9510  -64.0760   50.1050 C   0  0  0  0  0  0  0  0  0  0  0  0
  -42.1650  -64.2470   49.1440 O   0  0  0  0  0  0  0  0  0  0  0  0
  -44.6800  -62.7250   48.8300 C   0  0  0  0  0  0  0  0  0  0  0  0
  -43.6310  -62.6620   47.7460 C   0  0  0  0  0  0  0  0  0  0  0  0
  -45.9250  -63.4420   48.3000 C   0  0  0  0  0  0  0  0  0  0  0  0
  -45.0600  -61.3000   49.1670 C   0  0  0  0  0  0  0  0  0  0  0  0
  -41.6270  -66.5350   50.4950 C   0  0  0  0  0  0  0  0  0  0  0  0
  -40.6990  -67.5720   50.9750 C   0  0  0  0  0  0  0  0  0  0  0  0
  -39.5250  -67.5940   50.5140 O   0  0  0  0  0  0  0  0  0  0  0  0
  -41.0260  -68.5670   51.9320 N   0  0  0  0  0  0  0  0  0  0  0  0
  -46.4960  -65.5160   50.2530 H   0  0  0  0  0  0  0  0  0  0  0  0
  -48.3830  -66.7720   54.5740 H   0  0  0  0  0  0  0  0  0  0  0  0
  -49.8340  -66.5570   52.6700 H   0  0  0  0  0  0  0  0  0  0  0  0
  -45.7330  -66.5970   55.5000 H   0  0  0  0  0  0  0  0  0  0  0  0
  -44.1530  -66.5450   50.6760 H   0  0  0  0  0  0  0  0  0  0  0  0
  -41.8880  -66.2010   52.5660 H   0  0  0  0  0  0  0  0  0  0  0  0
  -41.9990  -63.8660   52.0000 H   0  0  0  0  0  0  0  0  0  0  0  0
  -43.9600  -63.7910   53.1540 H   0  0  0  0  0  0  0  0  0  0  0  0
  -42.7490  -62.1230   48.1470 H   0  0  0  0  0  0  0  0  0  0  0  0
  -43.9920  -62.0350   46.8940 H   0  0  0  0  0  0  0  0  0  0  0  0
  -43.3940  -63.6690   47.3400 H   0  0  0  0  0  0  0  0  0  0  0  0
  -45.6210  -64.4950   48.1360 H   0  0  0  0  0  0  0  0  0  0  0  0
  -46.2750  -62.9870   47.3680 H   0  0  0  0  0  0  0  0  0  0  0  0
  -46.6710  -63.4000   49.1290 H   0  0  0  0  0  0  0  0  0  0  0  0
  -44.9230  -60.6810   48.2590 H   0  0  0  0  0  0  0  0  0  0  0  0
  -46.1040  -61.1940   49.4960 H   0  0  0  0  0  0  0  0  0  0  0  0
  -44.3970  -60.9550   49.9800 H   0  0  0  0  0  0  0  0  0  0  0  0
  -42.3660  -67.0710   49.8280 H   0  0  0  0  0  0  0  0  0  0  0  0
  -41.1710  -65.7710   49.8550 H   0  0  0  0  0  0  0  0  0  0  0  0
  -40.9070  -68.4750   52.9510 H   0  0  0  0  0  0  0  0  0  0  0  0
  -41.4210  -69.4710   51.5620 H   0  0  0  0  0  0  0  0  0  0  0  0
  1  2  1  0  0  0  0
  2  7  1  0  0  0  0
  3  2  2  0  0  0  0
  3  4  1  0  0  0  0
  4  5  2  0  0  0  0
  5  6  1  0  0  0  0
  5  8  1  0  0  0  0
  6 30  1  0  0  0  0
  7 31  1  0  0  0  0
  7  6  2  0  0  0  0
  8 32  1  0  0  0  0
  9  8  1  0  0  0  0
  9 10  2  0  0  0  0
 11  4  1  6  0  0  0
 11  9  1  0  0  0  0
 12 11  1  0  0  0  0
 13 12  1  0  0  0  0
 13 34  1  1  0  0  0
 14 13  1  0  0  0  0
 14 35  1  1  0  0  0
 14 15  1  0  0  0  0
 15 11  1  0  0  0  0
 15 36  1  1  0  0  0
 16 17  2  0  0  0  0
 16 15  1  0  0  0  0
 18 19  1  0  0  0  0
 18 16  1  0  0  0  0
 19 14  1  0  0  0  0
 20 19  2  0  0  0  0
 21 24  1  0  0  0  0
 21 18  1  0  0  0  0
 22 37  1  0  0  0  0
 22 21  1  0  0  0  0
 23 21  1  0  0  0  0
 23 42  1  0  0  0  0
 24 44  1  0  0  0  0
 24 45  1  0  0  0  0
 25 26  1  0  0  0  0
 25 13  1  0  0  0  0
 26 28  1  0  0  0  0
 27 26  2  0  0  0  0
 28 48  1  0  0  0  0
 29  3  1  0  0  0  0
 33 12  1  0  0  0  0
 38 22  1  0  0  0  0
 39 22  1  0  0  0  0
 40 23  1  0  0  0  0
 41 23  1  0  0  0  0
 43 24  1  0  0  0  0
 46 25  1  0  0  0  0
 47 25  1  0  0  0  0
 49 28  1  0  0  0  0
M  END
>  <Pose>
1

>  <Score>
-6.19

$$$$
