
 OpenBabel03202209423D

 45 48  0  0  1  0  0  0  0  0999 V2000
  -40.5850  -66.3940   50.1960 B   0  0  0  0  0  0  0  0  0  0  0  0
  -41.8290  -66.5900   51.6320 C   0  0  0  0  0  0  0  0  0  0  0  0
  -43.1260  -66.1510   51.5420 C   0  0  0  0  0  0  0  0  0  0  0  0
  -44.0690  -66.2770   52.5770 C   0  0  0  0  0  0  0  0  0  0  0  0
  -43.6420  -66.8750   53.7250 C   0  0  0  0  0  0  0  0  0  0  0  0
  -42.3150  -67.3300   53.8360 C   0  0  0  0  0  0  0  0  0  0  0  0
  -41.4160  -67.1910   52.8040 C   0  0  0  0  0  0  0  0  0  0  0  0
  -44.6940  -66.9450   54.6780 N   0  0  0  0  0  0  0  0  0  0  0  0
  -45.8320  -66.3610   54.0880 C   0  0  0  0  0  0  0  0  0  0  0  0
  -46.9880  -66.2520   54.6410 O   0  0  0  0  0  0  0  0  0  0  0  0
  -45.4590  -65.9040   52.7370 C   0  0  2  0  0  0  0  0  0  0  0  0
  -46.3110  -66.7180   51.8520 N   0  0  0  0  0  0  0  0  0  0  0  0
  -47.4150  -65.9180   51.4220 C   0  0  2  0  0  0  0  0  0  0  0  0
  -46.8960  -64.5270   51.4470 C   0  0  1  0  0  0  0  0  0  0  0  0
  -45.8060  -64.4840   52.4840 C   0  0  2  0  0  0  0  0  0  0  0  0
  -44.8050  -63.6270   51.8920 C   0  0  0  0  0  0  0  0  0  0  0  0
  -43.8380  -63.1000   52.5170 O   0  0  0  0  0  0  0  0  0  0  0  0
  -45.0820  -63.4730   50.5070 N   0  0  0  0  0  0  0  0  0  0  0  0
  -46.2010  -64.2690   50.1460 C   0  0  0  0  0  0  0  0  0  0  0  0
  -46.4790  -64.6320   48.9860 O   0  0  0  0  0  0  0  0  0  0  0  0
  -44.2960  -62.6100   49.6360 C   0  0  0  0  0  0  0  0  0  0  0  0
  -43.2760  -63.3810   48.8530 C   0  0  0  0  0  0  0  0  0  0  0  0
  -42.3660  -62.5030   48.0380 C   0  0  0  0  0  0  0  0  0  0  0  0
  -41.0390  -63.2590   47.9040 C   0  0  0  0  0  0  0  0  0  0  0  0
  -48.6790  -66.0960   52.2300 C   0  0  0  0  0  0  0  0  0  0  0  0
  -43.4210  -65.6890   50.6200 H   0  0  0  0  0  0  0  0  0  0  0  0
  -42.0150  -67.8040   54.7780 H   0  0  0  0  0  0  0  0  0  0  0  0
  -40.3880  -67.5370   52.8720 H   0  0  0  0  0  0  0  0  0  0  0  0
  -44.6510  -67.3570   55.6560 H   0  0  0  0  0  0  0  0  0  0  0  0
  -45.7610  -67.0920   51.0470 H   0  0  0  0  0  0  0  0  0  0  0  0
  -47.6280  -66.1910   50.3370 H   0  0  0  0  0  0  0  0  0  0  0  0
  -47.6820  -63.7610   51.6320 H   0  0  0  0  0  0  0  0  0  0  0  0
  -46.2140  -64.0760   53.4590 H   0  0  0  0  0  0  0  0  0  0  0  0
  -44.9550  -62.0960   48.9160 H   0  0  0  0  0  0  0  0  0  0  0  0
  -43.7930  -61.8350   50.2630 H   0  0  0  0  0  0  0  0  0  0  0  0
  -43.8130  -64.0420   48.1560 H   0  0  0  0  0  0  0  0  0  0  0  0
  -42.6490  -63.9490   49.5730 H   0  0  0  0  0  0  0  0  0  0  0  0
  -42.1940  -61.5190   48.5340 H   0  0  0  0  0  0  0  0  0  0  0  0
  -42.7830  -62.3210   47.0470 H   0  0  0  0  0  0  0  0  0  0  0  0
  -40.2080  -62.5590   47.6990 H   0  0  0  0  0  0  0  0  0  0  0  0
  -40.8780  -63.8830   48.8000 H   0  0  0  0  0  0  0  0  0  0  0  0
  -41.1970  -63.9820   47.0520 H   0  0  0  0  0  0  0  0  0  0  0  0
  -49.5690  -66.0740   51.5300 H   0  0  0  0  0  0  0  0  0  0  0  0
  -48.6820  -67.0930   52.6650 H   0  0  0  0  0  0  0  0  0  0  0  0
  -48.8650  -65.2570   52.9190 H   0  0  0  0  0  0  0  0  0  0  0  0
  1  2  1  0  0  0  0
  2  7  1  0  0  0  0
  3  2  2  0  0  0  0
  3  4  1  0  0  0  0
  4  5  2  0  0  0  0
  5  6  1  0  0  0  0
  5  8  1  0  0  0  0
  6 27  1  0  0  0  0
  7 28  1  0  0  0  0
  7  6  2  0  0  0  0
  8 29  1  0  0  0  0
  9 10  2  0  0  0  0
  9  8  1  0  0  0  0
 11  4  1  6  0  0  0
 11  9  1  0  0  0  0
 12 11  1  0  0  0  0
 13 31  1  6  0  0  0
 13 14  1  0  0  0  0
 13 12  1  0  0  0  0
 13 25  1  0  0  0  0
 14 32  1  1  0  0  0
 14 15  1  0  0  0  0
 15 11  1  0  0  0  0
 15 33  1  1  0  0  0
 16 15  1  0  0  0  0
 16 17  2  0  0  0  0
 18 16  1  0  0  0  0
 19 18  1  0  0  0  0
 19 14  1  0  0  0  0
 20 19  2  0  0  0  0
 21 35  1  0  0  0  0
 21 18  1  0  0  0  0
 22 37  1  0  0  0  0
 22 21  1  0  0  0  0
 23 38  1  0  0  0  0
 23 22  1  0  0  0  0
 24 23  1  0  0  0  0
 24 41  1  0  0  0  0
 25 44  1  0  0  0  0
 25 45  1  0  0  0  0
 26  3  1  0  0  0  0
 30 12  1  0  0  0  0
 34 21  1  0  0  0  0
 36 22  1  0  0  0  0
 39 23  1  0  0  0  0
 40 24  1  0  0  0  0
 42 24  1  0  0  0  0
 43 25  1  0  0  0  0
M  END
>  <Pose>
1

>  <Score>
-4.72

$$$$
