
 OpenBabel03202209423D

 37 40  0  0  0  0  0  0  0  0999 V2000
  -37.4170  -66.8820   48.6920 B   0  0  0  0  0  0  0  0  0  0  0  0
  -38.6630  -67.1230   50.1320 C   0  0  0  0  0  0  0  0  0  0  0  0
  -39.5520  -66.1220   50.4610 C   0  0  0  0  0  0  0  0  0  0  0  0
  -40.4460  -66.3010   51.4960 C   0  0  0  0  0  0  0  0  0  0  0  0
  -40.5020  -67.4610   52.2450 C   0  0  0  0  0  0  0  0  0  0  0  0
  -39.5960  -68.4610   51.9000 C   0  0  0  0  0  0  0  0  0  0  0  0
  -38.7000  -68.2900   50.8660 C   0  0  0  0  0  0  0  0  0  0  0  0
  -41.3420  -67.8010   53.3230 N   0  0  0  0  0  0  0  0  0  0  0  0
  -41.1250  -68.8350   54.1200 N   0  0  0  0  0  0  0  0  0  0  0  0
  -42.0990  -68.8650   55.0160 N   0  0  0  0  0  0  0  0  0  0  0  0
  -42.9140  -67.8640   54.7830 N   0  0  0  0  0  0  0  0  0  0  0  0
  -42.4660  -67.1640   53.7110 C   0  0  0  0  0  0  0  0  0  0  0  0
  -43.1950  -65.9890   53.2300 C   0  0  0  0  0  0  0  0  0  0  0  0
  -42.4290  -64.9860   52.5740 N   0  0  0  0  0  0  0  0  0  0  0  0
  -41.3150  -65.1410   51.7100 C   0  0  0  0  0  0  0  0  0  0  0  0
  -40.9710  -64.1660   50.9900 O   0  0  0  0  0  0  0  0  0  0  0  0
  -44.3170  -66.3820   52.2570 C   0  0  0  0  0  0  0  0  0  0  0  0
  -45.4670  -65.4220   52.4310 C   0  0  0  0  0  0  0  0  0  0  0  0
  -46.1760  -65.8060   53.6310 N   0  0  0  0  0  0  0  0  0  0  0  0
  -45.2280  -65.9960   54.6970 C   0  0  0  0  0  0  0  0  0  0  0  0
  -43.8920  -65.3490   54.4260 C   0  0  0  0  0  0  0  0  0  0  0  0
  -46.9100  -67.0350   53.3350 C   0  0  0  0  0  0  0  0  0  0  0  0
  -39.5760  -65.1790   49.9250 H   0  0  0  0  0  0  0  0  0  0  0  0
  -39.6350  -69.3710   52.4820 H   0  0  0  0  0  0  0  0  0  0  0  0
  -38.0110  -69.0820   50.6210 H   0  0  0  0  0  0  0  0  0  0  0  0
  -42.7310  -64.0070   52.7540 H   0  0  0  0  0  0  0  0  0  0  0  0
  -43.9640  -66.2580   51.1970 H   0  0  0  0  0  0  0  0  0  0  0  0
  -44.5780  -67.4290   52.3870 H   0  0  0  0  0  0  0  0  0  0  0  0
  -45.0540  -64.4090   52.5660 H   0  0  0  0  0  0  0  0  0  0  0  0
  -46.1120  -65.4140   51.5510 H   0  0  0  0  0  0  0  0  0  0  0  0
  -45.1520  -67.0650   54.9140 H   0  0  0  0  0  0  0  0  0  0  0  0
  -45.6430  -65.5060   55.5990 H   0  0  0  0  0  0  0  0  0  0  0  0
  -44.0090  -64.2710   54.3290 H   0  0  0  0  0  0  0  0  0  0  0  0
  -43.2530  -65.5430   55.3140 H   0  0  0  0  0  0  0  0  0  0  0  0
  -46.4940  -67.8230   54.0020 H   0  0  0  0  0  0  0  0  0  0  0  0
  -48.0030  -66.9110   53.4850 H   0  0  0  0  0  0  0  0  0  0  0  0
  -46.7750  -67.3410   52.2690 H   0  0  0  0  0  0  0  0  0  0  0  0
  1  2  1  0  0  0  0
  2  3  2  0  0  0  0
  2  7  1  0  0  0  0
  3  4  1  0  0  0  0
  4 15  1  0  0  0  0
  4  5  2  0  0  0  0
  5  8  1  0  0  0  0
  6  5  1  0  0  0  0
  6 24  1  0  0  0  0
  7  6  2  0  0  0  0
  8 12  1  0  0  0  0
  8  9  1  0  0  0  0
  9 10  2  0  0  0  0
 11 10  1  0  0  0  0
 12 11  2  0  0  0  0
 13 12  1  0  0  0  0
 13 21  1  0  0  0  0
 14 26  1  0  0  0  0
 14 13  1  0  0  0  0
 15 14  1  0  0  0  0
 16 15  2  0  0  0  0
 17 28  1  0  0  0  0
 17 18  1  0  0  0  0
 17 13  1  0  0  0  0
 18 29  1  0  0  0  0
 18 19  1  0  0  0  0
 19 20  1  0  0  0  0
 20 31  1  0  0  0  0
 20 32  1  0  0  0  0
 21 20  1  0  0  0  0
 21 34  1  0  0  0  0
 22 36  1  0  0  0  0
 22 19  1  0  0  0  0
 22 35  1  0  0  0  0
 23  3  1  0  0  0  0
 25  7  1  0  0  0  0
 27 17  1  0  0  0  0
 30 18  1  0  0  0  0
 33 21  1  0  0  0  0
 37 22  1  0  0  0  0
M  END
>  <Pose>
1

>  <Score>
-5.53

$$$$
