
 OpenBabel03202209423D

 51 54  0  0  0  0  0  0  0  0999 V2000
  -39.2770  -70.3310   53.7980 B   0  0  0  0  0  0  0  0  0  0  0  0
  -40.5880  -68.9490   53.9100 C   0  0  0  0  0  0  0  0  0  0  0  0
  -40.7060  -67.9990   52.8990 C   0  0  0  0  0  0  0  0  0  0  0  0
  -41.6600  -66.9930   52.9790 C   0  0  0  0  0  0  0  0  0  0  0  0
  -42.5030  -66.9280   54.0680 C   0  0  0  0  0  0  0  0  0  0  0  0
  -43.4380  -65.9480   54.1460 N   0  0  0  0  0  0  0  0  0  0  0  0
  -43.5760  -65.0210   53.1800 C   0  0  0  0  0  0  0  0  0  0  0  0
  -42.7490  -65.1010   52.1310 N   0  0  0  0  0  0  0  0  0  0  0  0
  -41.7990  -66.0430   51.9880 C   0  0  0  0  0  0  0  0  0  0  0  0
  -40.9520  -66.0410   50.8070 C   0  0  0  0  0  0  0  0  0  0  0  0
  -39.9890  -65.0560   50.6340 C   0  0  0  0  0  0  0  0  0  0  0  0
  -39.1590  -65.0290   49.5340 C   0  0  0  0  0  0  0  0  0  0  0  0
  -39.2510  -65.9910   48.5500 C   0  0  0  0  0  0  0  0  0  0  0  0
  -40.2150  -66.9770   48.7240 C   0  0  0  0  0  0  0  0  0  0  0  0
  -41.0410  -66.9960   49.8260 C   0  0  0  0  0  0  0  0  0  0  0  0
  -39.8480  -63.8110   51.8780 Cl  0  0  0  0  0  0  0  0  0  0  0  0
  -44.5770  -64.0030   53.2960 N   0  0  0  0  0  4  0  0  0  0  0  0
  -45.1250  -64.0000   54.6260 C   0  0  0  0  0  0  0  0  0  0  0  0
  -46.0690  -65.1200   54.9060 C   0  0  0  0  0  0  0  0  0  0  0  0
  -46.4880  -65.8070   53.7050 N   0  0  0  0  0  0  0  0  0  0  0  0
  -46.7060  -64.9890   52.5310 C   0  0  0  0  0  0  0  0  0  0  0  0
  -45.5640  -64.0600   52.2620 C   0  0  0  0  0  0  0  0  0  0  0  0
  -46.6580  -67.2110   53.7480 C   0  0  0  0  0  0  0  0  0  0  0  0
  -45.7910  -67.9480   54.2670 O   0  0  0  0  0  0  0  0  0  0  0  0
  -47.9130  -67.7500   53.1470 C   0  0  0  0  0  0  0  0  0  0  0  0
  -48.5980  -68.7100   54.0710 C   0  0  0  0  0  0  0  0  0  0  0  0
  -49.4760  -69.6620   53.3750 C   0  0  0  0  0  0  0  0  0  0  0  0
  -49.9190  -69.4260   52.2310 O   0  0  0  0  0  0  0  0  0  0  0  0
  -49.8200  -70.8450   53.9970 O   0  0  0  0  0  0  0  0  0  0  0  0
  -42.3640  -67.8860   55.0630 C   0  0  0  0  0  0  0  0  0  0  0  0
  -41.4250  -68.8930   55.0040 C   0  0  0  0  0  0  0  0  0  0  0  0
  -40.0610  -68.0490   52.0530 H   0  0  0  0  0  0  0  0  0  0  0  0
  -38.4100  -64.2610   49.4010 H   0  0  0  0  0  0  0  0  0  0  0  0
  -38.6010  -65.9780   47.6810 H   0  0  0  0  0  0  0  0  0  0  0  0
  -40.3060  -67.7390   47.9650 H   0  0  0  0  0  0  0  0  0  0  0  0
  -41.7610  -67.7910   49.8990 H   0  0  0  0  0  0  0  0  0  0  0  0
  -44.0360  -63.0920   53.2090 H   0  0  0  0  0  0  0  0  0  0  0  0
  -44.2850  -64.0050   55.3440 H   0  0  0  0  0  0  0  0  0  0  0  0
  -45.6540  -63.0200   54.7490 H   0  0  0  0  0  0  0  0  0  0  0  0
  -47.0090  -64.7070   55.3680 H   0  0  0  0  0  0  0  0  0  0  0  0
  -45.6050  -65.8060   55.6430 H   0  0  0  0  0  0  0  0  0  0  0  0
  -46.9450  -65.5990   51.6350 H   0  0  0  0  0  0  0  0  0  0  0  0
  -47.6000  -64.3480   52.7890 H   0  0  0  0  0  0  0  0  0  0  0  0
  -45.9390  -63.0110   52.1110 H   0  0  0  0  0  0  0  0  0  0  0  0
  -45.0480  -64.3520   51.3170 H   0  0  0  0  0  0  0  0  0  0  0  0
  -48.6010  -66.8970   52.9720 H   0  0  0  0  0  0  0  0  0  0  0  0
  -47.7260  -68.2150   52.1580 H   0  0  0  0  0  0  0  0  0  0  0  0
  -49.2430  -68.1090   54.7600 H   0  0  0  0  0  0  0  0  0  0  0  0
  -47.8530  -69.2320   54.7050 H   0  0  0  0  0  0  0  0  0  0  0  0
  -43.0130  -67.8380   55.9080 H   0  0  0  0  0  0  0  0  0  0  0  0
  -41.3010  -69.6480   55.7700 H   0  0  0  0  0  0  0  0  0  0  0  0
  1  2  1  0  0  0  0
  2 31  1  0  0  0  0
  3  4  1  0  0  0  0
  3  2  2  0  0  0  0
  4  5  2  0  0  0  0
  5  6  1  0  0  0  0
  5 30  1  0  0  0  0
  7 17  1  0  0  0  0
  7  6  2  0  0  0  0
  8  7  1  0  0  0  0
  9  8  2  0  0  0  0
  9  4  1  0  0  0  0
 10  9  1  0  0  0  0
 11 10  1  0  0  0  0
 11 16  1  0  0  0  0
 12 11  2  0  0  0  0
 13 14  2  0  0  0  0
 13 12  1  0  0  0  0
 14 15  1  0  0  0  0
 15 36  1  0  0  0  0
 15 10  2  0  0  0  0
 17 18  1  0  0  0  0
 18 39  1  0  0  0  0
 18 19  1  0  0  0  0
 18 38  1  0  0  0  0
 19 40  1  0  0  0  0
 19 41  1  0  0  0  0
 20 23  1  0  0  0  0
 20 19  1  0  0  0  0
 21 43  1  0  0  0  0
 21 20  1  0  0  0  0
 22 21  1  0  0  0  0
 22 17  1  0  0  0  0
 23 24  2  0  0  0  0
 25 23  1  0  0  0  0
 25 26  1  0  0  0  0
 26 49  1  0  0  0  0
 26 48  1  0  0  0  0
 27 29  1  0  0  0  0
 27 26  1  0  0  0  0
 28 27  2  0  0  0  0
 30 50  1  0  0  0  0
 31 30  2  0  0  0  0
 31 51  1  0  0  0  0
 32  3  1  0  0  0  0
 33 12  1  0  0  0  0
 34 13  1  0  0  0  0
 35 14  1  0  0  0  0
 37 17  1  0  0  0  0
 42 21  1  0  0  0  0
 44 22  1  0  0  0  0
 45 22  1  0  0  0  0
 46 25  1  0  0  0  0
 47 25  1  0  0  0  0
M  END
>  <Pose>
1

>  <Score>
-5.79

$$$$
