
 OpenBabel03202209423D

 54 57  0  0  0  0  0  0  0  0999 V2000
  -36.2360  -67.9190   49.2210 B   0  0  0  0  0  0  0  0  0  0  0  0
  -37.9820  -67.1860   49.4870 C   0  0  0  0  0  0  0  0  0  0  0  0
  -38.7930  -67.5840   50.5350 C   0  0  0  0  0  0  0  0  0  0  0  0
  -40.0550  -67.0760   50.7530 C   0  0  0  0  0  0  0  0  0  0  0  0
  -40.5640  -66.1170   49.8970 C   0  0  0  0  0  0  0  0  0  0  0  0
  -41.8070  -65.6090   50.0890 N   0  0  0  0  0  0  0  0  0  0  0  0
  -42.5970  -66.0020   51.1030 C   0  0  0  0  0  0  0  0  0  0  0  0
  -42.1020  -66.9330   51.9380 N   0  0  0  0  0  0  0  0  0  0  0  0
  -40.8690  -67.4720   51.7900 C   0  0  0  0  0  0  0  0  0  0  0  0
  -40.3840  -68.4790   52.7210 C   0  0  0  0  0  0  0  0  0  0  0  0
  -40.9310  -68.6300   53.9860 C   0  0  0  0  0  0  0  0  0  0  0  0
  -40.4660  -69.5700   54.8880 C   0  0  0  0  0  0  0  0  0  0  0  0
  -39.4040  -70.3860   54.4800 C   0  0  0  0  0  0  0  0  0  0  0  0
  -38.8380  -70.2620   53.2280 C   0  0  0  0  0  0  0  0  0  0  0  0
  -39.3260  -69.3240   52.3760 C   0  0  0  0  0  0  0  0  0  0  0  0
  -42.2620  -67.5930   54.4730 Cl  0  0  0  0  0  0  0  0  0  0  0  0
  -43.8960  -65.4460   51.2740 N   0  0  0  0  0  4  0  0  0  0  0  0
  -43.8510  -64.0010   51.2360 C   0  0  0  0  0  0  0  0  0  0  0  0
  -45.2310  -63.4910   50.9640 C   0  0  0  0  0  0  0  0  0  0  0  0
  -46.1760  -64.5640   51.1960 N   0  0  0  0  0  0  0  0  0  0  0  0
  -45.9910  -65.3650   52.3930 C   0  0  0  0  0  0  0  0  0  0  0  0
  -44.5350  -65.8320   52.5050 C   0  0  0  0  0  0  0  0  0  0  0  0
  -47.2090  -64.7760   50.2670 C   0  0  0  0  0  0  0  0  0  0  0  0
  -47.8470  -65.8550   50.3360 O   0  0  0  0  0  0  0  0  0  0  0  0
  -47.5570  -63.7930   49.2390 C   0  0  0  0  0  0  0  0  0  0  0  0
  -47.1600  -64.3070   47.8860 C   0  0  0  0  0  0  0  0  0  0  0  0
  -45.8570  -63.7140   47.3970 C   0  0  0  0  0  0  0  0  0  0  0  0
  -45.6700  -63.8490   45.9380 C   0  0  0  0  0  0  0  0  0  0  0  0
  -45.4170  -64.9940   45.4930 O   0  0  0  0  0  0  0  0  0  0  0  0
  -45.7760  -62.7370   45.1170 O   0  0  0  0  0  0  0  0  0  0  0  0
  -39.7640  -65.7140   48.8510 C   0  0  0  0  0  0  0  0  0  0  0  0
  -38.4920  -66.2310   48.6360 C   0  0  0  0  0  0  0  0  0  0  0  0
  -38.3830  -68.3410   51.1870 H   0  0  0  0  0  0  0  0  0  0  0  0
  -40.8980  -69.6860   55.8780 H   0  0  0  0  0  0  0  0  0  0  0  0
  -39.0410  -71.1290   55.1980 H   0  0  0  0  0  0  0  0  0  0  0  0
  -38.0080  -70.9080   52.9190 H   0  0  0  0  0  0  0  0  0  0  0  0
  -38.8830  -69.2190   51.3970 H   0  0  0  0  0  0  0  0  0  0  0  0
  -44.4840  -65.7950   50.4890 H   0  0  0  0  0  0  0  0  0  0  0  0
  -43.1350  -63.7220   50.4360 H   0  0  0  0  0  0  0  0  0  0  0  0
  -43.4340  -63.6580   52.2060 H   0  0  0  0  0  0  0  0  0  0  0  0
  -45.2600  -63.1390   49.9110 H   0  0  0  0  0  0  0  0  0  0  0  0
  -45.4610  -62.6190   51.6120 H   0  0  0  0  0  0  0  0  0  0  0  0
  -46.1690  -64.6890   53.2550 H   0  0  0  0  0  0  0  0  0  0  0  0
  -46.6990  -66.1920   52.4780 H   0  0  0  0  0  0  0  0  0  0  0  0
  -44.0450  -65.4260   53.3970 H   0  0  0  0  0  0  0  0  0  0  0  0
  -44.5690  -66.9240   52.6080 H   0  0  0  0  0  0  0  0  0  0  0  0
  -48.6670  -63.6010   49.1860 H   0  0  0  0  0  0  0  0  0  0  0  0
  -47.1170  -62.7950   49.4440 H   0  0  0  0  0  0  0  0  0  0  0  0
  -47.0010  -65.4160   47.9020 H   0  0  0  0  0  0  0  0  0  0  0  0
  -47.9380  -64.1220   47.1320 H   0  0  0  0  0  0  0  0  0  0  0  0
  -45.0370  -64.2600   47.9020 H   0  0  0  0  0  0  0  0  0  0  0  0
  -45.7960  -62.6460   47.7290 H   0  0  0  0  0  0  0  0  0  0  0  0
  -40.1610  -64.9630   48.1790 H   0  0  0  0  0  0  0  0  0  0  0  0
  -37.8570  -65.9210   47.8210 H   0  0  0  0  0  0  0  0  0  0  0  0
  1  2  1  0  0  0  0
  2  3  1  0  0  0  0
  3  4  2  0  0  0  0
  3 33  1  0  0  0  0
  4  9  1  0  0  0  0
  5  6  1  0  0  0  0
  5  4  1  0  0  0  0
  6  7  2  0  0  0  0
  7 17  1  0  0  0  0
  7  8  1  0  0  0  0
  9  8  2  0  0  0  0
  9 10  1  0  0  0  0
 10 11  1  0  0  0  0
 11 16  1  0  0  0  0
 11 12  2  0  0  0  0
 12 34  1  0  0  0  0
 13 12  1  0  0  0  0
 13 35  1  0  0  0  0
 14 13  2  0  0  0  0
 15 10  2  0  0  0  0
 15 14  1  0  0  0  0
 17 22  1  0  0  0  0
 18 17  1  0  0  0  0
 18 40  1  0  0  0  0
 19 20  1  0  0  0  0
 19 18  1  0  0  0  0
 19 42  1  0  0  0  0
 20 21  1  0  0  0  0
 21 44  1  0  0  0  0
 21 22  1  0  0  0  0
 21 43  1  0  0  0  0
 22 46  1  0  0  0  0
 22 45  1  0  0  0  0
 23 24  2  0  0  0  0
 23 20  1  0  0  0  0
 25 48  1  0  0  0  0
 25 23  1  0  0  0  0
 26 49  1  0  0  0  0
 26 25  1  0  0  0  0
 27 52  1  0  0  0  0
 27 26  1  0  0  0  0
 27 51  1  0  0  0  0
 28 27  1  0  0  0  0
 29 28  1  0  0  0  0
 30 28  2  0  0  0  0
 31  5  2  0  0  0  0
 32 31  1  0  0  0  0
 32  2  2  0  0  0  0
 36 14  1  0  0  0  0
 37 15  1  0  0  0  0
 38 17  1  0  0  0  0
 39 18  1  0  0  0  0
 41 19  1  0  0  0  0
 47 25  1  0  0  0  0
 50 26  1  0  0  0  0
 53 31  1  0  0  0  0
 54 32  1  0  0  0  0
M  END
>  <Pose>
1

>  <Score>
-6.09

$$$$
