
 OpenBabel03202209423D

 37 40  0  0  0  0  0  0  0  0999 V2000
  -44.6800  -62.5920   50.0760 B   0  0  0  0  0  0  0  0  0  0  0  0
  -44.7050  -64.0260   51.3280 C   0  0  0  0  0  0  0  0  0  0  0  0
  -45.9200  -64.4900   51.7860 C   0  0  0  0  0  0  0  0  0  0  0  0
  -45.9720  -65.5440   52.7080 C   0  0  0  0  0  0  0  0  0  0  0  0
  -44.8010  -66.0860   53.1290 C   0  0  0  0  0  0  0  0  0  0  0  0
  -43.5640  -65.6570   52.7000 C   0  0  0  0  0  0  0  0  0  0  0  0
  -43.5380  -64.6240   51.7990 C   0  0  0  0  0  0  0  0  0  0  0  0
  -42.4630  -66.2930   53.2080 C   0  0  0  0  0  0  0  0  0  0  0  0
  -41.3410  -65.9170   52.8290 O   0  0  0  0  0  0  0  0  0  0  0  0
  -42.5530  -67.3340   54.1190 C   0  0  0  0  0  0  0  0  0  0  0  0
  -43.8200  -67.7150   54.5070 C   0  0  0  0  0  0  0  0  0  0  0  0
  -44.9290  -67.0830   54.0050 N   0  0  0  0  0  0  0  0  0  0  0  0
  -46.3430  -67.2750   54.2350 C   0  0  0  0  0  0  0  0  0  0  0  0
  -47.0640  -66.2640   53.3850 C   0  0  0  0  0  0  0  0  0  0  0  0
  -41.3690  -68.0030   54.6500 C   0  0  0  0  0  0  0  0  0  0  0  0
  -40.8980  -67.6300   55.7480 O   0  0  0  0  0  0  0  0  0  0  0  0
  -40.7470  -69.0750   53.9280 N   0  0  0  0  0  0  0  0  0  0  0  0
  -40.4230  -70.3360   54.5600 C   0  0  0  0  0  0  0  0  0  0  0  0
  -38.9320  -70.5750   54.2900 C   0  0  0  0  0  0  0  0  0  0  0  0
  -38.6930  -70.4780   52.9400 O   0  0  0  0  0  0  0  0  0  0  0  0
  -38.9130  -69.2220   52.4160 C   0  0  0  0  0  0  0  0  0  0  0  0
  -40.4130  -68.9360   52.5240 C   0  0  0  0  0  0  0  0  0  0  0  0
  -46.8620  -64.0720   51.4630 H   0  0  0  0  0  0  0  0  0  0  0  0
  -42.5880  -64.2750   51.4510 H   0  0  0  0  0  0  0  0  0  0  0  0
  -43.9920  -68.5120   55.2110 H   0  0  0  0  0  0  0  0  0  0  0  0
  -46.5770  -67.0800   55.3200 H   0  0  0  0  0  0  0  0  0  0  0  0
  -46.6640  -68.3130   54.0030 H   0  0  0  0  0  0  0  0  0  0  0  0
  -47.7520  -66.7680   52.6660 H   0  0  0  0  0  0  0  0  0  0  0  0
  -47.6410  -65.5320   54.0180 H   0  0  0  0  0  0  0  0  0  0  0  0
  -40.9430  -71.1580   53.9880 H   0  0  0  0  0  0  0  0  0  0  0  0
  -40.6450  -70.3600   55.6320 H   0  0  0  0  0  0  0  0  0  0  0  0
  -38.6190  -71.5620   54.6450 H   0  0  0  0  0  0  0  0  0  0  0  0
  -38.3350  -69.8200   54.8180 H   0  0  0  0  0  0  0  0  0  0  0  0
  -38.6830  -69.2650   51.3320 H   0  0  0  0  0  0  0  0  0  0  0  0
  -38.3410  -68.4170   52.9410 H   0  0  0  0  0  0  0  0  0  0  0  0
  -40.9020  -69.8110   52.0060 H   0  0  0  0  0  0  0  0  0  0  0  0
  -40.6860  -67.9740   52.0950 H   0  0  0  0  0  0  0  0  0  0  0  0
  1  2  1  0  0  0  0
  2  3  2  0  0  0  0
  2  7  1  0  0  0  0
  3  4  1  0  0  0  0
  4  5  2  0  0  0  0
  4 14  1  0  0  0  0
  5 12  1  0  0  0  0
  6  5  1  0  0  0  0
  6  8  1  0  0  0  0
  7  6  2  0  0  0  0
  8 10  1  0  0  0  0
  9  8  2  0  0  0  0
 10 11  2  0  0  0  0
 10 15  1  0  0  0  0
 11 25  1  0  0  0  0
 12 13  1  0  0  0  0
 12 11  1  0  0  0  0
 13 26  1  0  0  0  0
 14 29  1  0  0  0  0
 14 13  1  0  0  0  0
 15 16  2  0  0  0  0
 17 18  1  0  0  0  0
 17 15  1  0  0  0  0
 18 31  1  0  0  0  0
 19 18  1  0  0  0  0
 19 32  1  0  0  0  0
 19 33  1  0  0  0  0
 20 19  1  0  0  0  0
 21 22  1  0  0  0  0
 21 20  1  0  0  0  0
 21 35  1  0  0  0  0
 22 17  1  0  0  0  0
 23  3  1  0  0  0  0
 24  7  1  0  0  0  0
 27 13  1  0  0  0  0
 28 14  1  0  0  0  0
 30 18  1  0  0  0  0
 34 21  1  0  0  0  0
 36 22  1  0  0  0  0
 37 22  1  0  0  0  0
M  END
>  <Pose>
1

>  <Score>
-5.38

$$$$
