
 OpenBabel03202209423D

 51 54  0  0  0  0  0  0  0  0999 V2000
  -38.4940  -65.9110   48.6630 B   0  0  0  0  0  0  0  0  0  0  0  0
  -37.6840  -67.2070   49.8230 C   0  0  0  0  0  0  0  0  0  0  0  0
  -36.3230  -67.4040   49.7510 C   0  0  0  0  0  0  0  0  0  0  0  0
  -35.7090  -68.3300   50.5580 C   0  0  0  0  0  0  0  0  0  0  0  0
  -34.4490  -68.7640   50.7460 N   0  0  0  0  0  0  0  0  0  0  0  0
  -34.4170  -69.7160   51.6980 C   0  0  0  0  0  0  0  0  0  0  0  0
  -35.6940  -69.8590   52.0950 N   0  0  0  0  0  0  0  0  0  0  0  0
  -36.5100  -69.0260   51.4180 C   0  0  0  0  0  0  0  0  0  0  0  0
  -37.8970  -68.8290   51.4950 C   0  0  0  0  0  0  0  0  0  0  0  0
  -38.5150  -67.9020   50.6870 C   0  0  0  0  0  0  0  0  0  0  0  0
  -39.8970  -67.6130   50.6900 N   0  0  0  0  0  0  0  0  0  0  0  0
  -40.7560  -67.5590   51.7950 C   0  0  0  0  0  0  0  0  0  0  0  0
  -41.1270  -68.6180   52.3600 O   0  0  0  0  0  0  0  0  0  0  0  0
  -41.2760  -66.3120   52.3670 C   0  0  0  0  0  0  0  0  0  0  0  0
  -42.6690  -66.1890   52.5410 N   0  0  0  0  0  0  0  0  0  0  0  0
  -43.1540  -65.7700   53.8060 C   0  0  0  0  0  0  0  0  0  0  0  0
  -44.6280  -66.1220   54.0040 C   0  0  0  0  0  0  0  0  0  0  0  0
  -45.3490  -65.5950   52.9250 N   0  0  0  0  0  0  0  0  0  0  0  0
  -44.6390  -65.0140   51.8530 C   0  0  0  0  0  0  0  0  0  0  0  0
  -43.3960  -65.7240   51.4090 C   0  0  0  0  0  0  0  0  0  0  0  0
  -46.6400  -66.0800   52.7360 C   0  0  0  0  0  0  0  0  0  0  0  0
  -47.7520  -65.3920   53.3940 C   0  0  0  0  0  0  0  0  0  0  0  0
  -48.0710  -64.2510   52.8800 O   0  0  0  0  0  0  0  0  0  0  0  0
  -48.4960  -65.8150   54.4900 N   0  0  0  0  0  0  0  0  0  0  0  0
  -49.1060  -67.1380   54.5820 C   0  0  0  0  0  0  0  0  0  0  0  0
  -48.4600  -68.3120   53.9740 C   0  0  0  0  0  0  0  0  0  0  0  0
  -48.4400  -68.1560   55.4830 C   0  0  0  0  0  0  0  0  0  0  0  0
  -33.2800  -70.4030   52.1660 O   0  0  0  0  0  0  0  0  0  0  0  0
  -35.7010  -66.8460   49.0660 H   0  0  0  0  0  0  0  0  0  0  0  0
  -36.0270  -70.5330   52.8390 H   0  0  0  0  0  0  0  0  0  0  0  0
  -38.4580  -69.4100   52.1890 H   0  0  0  0  0  0  0  0  0  0  0  0
  -40.3590  -67.3940   49.7550 H   0  0  0  0  0  0  0  0  0  0  0  0
  -40.7960  -66.2300   53.3910 H   0  0  0  0  0  0  0  0  0  0  0  0
  -40.9180  -65.4070   51.8160 H   0  0  0  0  0  0  0  0  0  0  0  0
  -43.1640  -64.6310   53.7690 H   0  0  0  0  0  0  0  0  0  0  0  0
  -42.5170  -66.0300   54.6380 H   0  0  0  0  0  0  0  0  0  0  0  0
  -44.9320  -65.5780   54.9390 H   0  0  0  0  0  0  0  0  0  0  0  0
  -44.7250  -67.1940   54.0970 H   0  0  0  0  0  0  0  0  0  0  0  0
  -45.3130  -64.7720   50.9970 H   0  0  0  0  0  0  0  0  0  0  0  0
  -44.2910  -63.9950   52.2080 H   0  0  0  0  0  0  0  0  0  0  0  0
  -43.6030  -66.5180   50.6570 H   0  0  0  0  0  0  0  0  0  0  0  0
  -42.7580  -64.9700   50.8820 H   0  0  0  0  0  0  0  0  0  0  0  0
  -46.8270  -66.0980   51.6030 H   0  0  0  0  0  0  0  0  0  0  0  0
  -46.6830  -67.2080   52.9550 H   0  0  0  0  0  0  0  0  0  0  0  0
  -48.6370  -65.1850   55.3060 H   0  0  0  0  0  0  0  0  0  0  0  0
  -50.2110  -67.1570   54.6520 H   0  0  0  0  0  0  0  0  0  0  0  0
  -49.0850  -69.1670   53.6110 H   0  0  0  0  0  0  0  0  0  0  0  0
  -47.4820  -68.2850   53.4950 H   0  0  0  0  0  0  0  0  0  0  0  0
  -47.4690  -67.9160   55.9670 H   0  0  0  0  0  0  0  0  0  0  0  0
  -49.0790  -68.8330   56.1010 H   0  0  0  0  0  0  0  0  0  0  0  0
  -32.8220  -71.0110   51.4730 H   0  0  0  0  0  0  0  0  0  0  0  0
  1  2  1  0  0  0  0
  2 10  1  0  0  0  0
  3  2  2  0  0  0  0
  3  4  1  0  0  0  0
  4  5  1  0  0  0  0
  4  8  2  0  0  0  0
  5  6  2  0  0  0  0
  6  7  1  0  0  0  0
  6 28  1  0  0  0  0
  7 30  1  0  0  0  0
  8  9  1  0  0  0  0
  8  7  1  0  0  0  0
  9 31  1  0  0  0  0
 10 11  1  0  0  0  0
 10  9  2  0  0  0  0
 11 12  1  0  0  0  0
 12 13  2  0  0  0  0
 12 14  1  0  0  0  0
 14 15  1  0  0  0  0
 14 33  1  0  0  0  0
 15 16  1  0  0  0  0
 16 17  1  0  0  0  0
 16 36  1  0  0  0  0
 17 38  1  0  0  0  0
 17 37  1  0  0  0  0
 18 17  1  0  0  0  0
 19 40  1  0  0  0  0
 19 18  1  0  0  0  0
 20 19  1  0  0  0  0
 20 15  1  0  0  0  0
 21 18  1  0  0  0  0
 21 44  1  0  0  0  0
 21 22  1  0  0  0  0
 22 24  1  0  0  0  0
 23 22  2  0  0  0  0
 24 25  1  0  0  0  0
 24 45  1  0  0  0  0
 25 46  1  0  0  0  0
 25 27  1  0  0  0  0
 26 25  1  0  0  0  0
 26 27  1  0  0  0  0
 27 49  1  0  0  0  0
 27 50  1  0  0  0  0
 29  3  1  0  0  0  0
 32 11  1  0  0  0  0
 34 14  1  0  0  0  0
 35 16  1  0  0  0  0
 39 19  1  0  0  0  0
 41 20  1  0  0  0  0
 42 20  1  0  0  0  0
 43 21  1  0  0  0  0
 47 26  1  0  0  0  0
 48 26  1  0  0  0  0
 51 28  1  0  0  0  0
M  END
>  <Pose>
1

>  <Score>
-7.12

$$$$
