
 OpenBabel03202209423D

 43 46  0  0  1  0  0  0  0  0999 V2000
  -38.0490  -69.4120   51.7030 B   0  0  0  0  0  0  0  0  0  0  0  0
  -39.6560  -68.6720   52.4370 C   0  0  0  0  0  0  0  0  0  0  0  0
  -40.0690  -68.9960   53.7280 C   0  0  0  0  0  0  0  0  0  0  0  0
  -41.2350  -68.4250   54.1830 C   0  0  0  0  0  0  0  0  0  0  0  0
  -41.9040  -68.5190   55.3460 N   0  0  0  0  0  0  0  0  0  0  0  0
  -42.9960  -67.7620   55.2950 N   0  0  0  0  0  0  0  0  0  0  0  0
  -43.0980  -67.1400   54.1120 C   0  0  0  0  0  0  0  0  0  0  0  0
  -41.9610  -67.5700   53.4000 C   0  0  0  0  0  0  0  0  0  0  0  0
  -41.5650  -67.2450   52.1330 C   0  0  0  0  0  0  0  0  0  0  0  0
  -40.4060  -67.8030   51.6560 C   0  0  0  0  0  0  0  0  0  0  0  0
  -44.0800  -66.2590   53.6250 N   0  0  0  0  0  0  0  0  0  0  0  0
  -45.5210  -66.5860   53.7000 C   0  0  0  0  0  0  0  0  0  0  0  0
  -46.0590  -66.0610   52.3790 C   0  0  2  0  0  0  0  0  0  0  0  0
  -45.1840  -64.8530   52.1170 C   0  0  0  0  0  0  0  0  0  0  0  0
  -43.9840  -64.9890   52.9830 C   0  0  0  0  0  0  0  0  0  0  0  0
  -43.0680  -64.1700   53.1330 O   0  0  0  0  0  0  0  0  0  0  0  0
  -47.4750  -65.7460   52.6290 C   0  0  0  0  0  0  0  0  0  0  0  0
  -48.3890  -66.3080   51.9810 O   0  0  0  0  0  0  0  0  0  0  0  0
  -47.7800  -64.7850   53.6300 N   0  0  0  0  0  0  0  0  0  0  0  0
  -48.5410  -63.5910   53.3300 C   0  0  0  0  0  0  0  0  0  0  0  0
  -50.0070  -63.7310   53.6790 C   0  0  0  0  0  0  0  0  0  0  0  0
  -50.2460  -63.3830   55.0930 C   0  0  0  0  0  0  0  0  0  0  0  0
  -50.7200  -64.2470   56.0050 N   0  0  0  0  0  0  0  0  0  0  0  0
  -50.8260  -63.6480   57.1920 C   0  0  0  0  0  0  0  0  0  0  0  0
  -50.4090  -62.3620   57.0420 N   0  0  0  0  0  0  0  0  0  0  0  0
  -50.0580  -62.2130   55.7610 C   0  0  0  0  0  0  0  0  0  0  0  0
  -39.4480  -69.6750   54.2840 H   0  0  0  0  0  0  0  0  0  0  0  0
  -43.6620  -67.6870   56.0900 H   0  0  0  0  0  0  0  0  0  0  0  0
  -42.1730  -66.5580   51.5460 H   0  0  0  0  0  0  0  0  0  0  0  0
  -40.0650  -67.5660   50.6600 H   0  0  0  0  0  0  0  0  0  0  0  0
  -45.6450  -67.6600   53.7880 H   0  0  0  0  0  0  0  0  0  0  0  0
  -45.9270  -66.0720   54.5780 H   0  0  0  0  0  0  0  0  0  0  0  0
  -45.9890  -66.8090   51.5830 H   0  0  0  0  0  0  0  0  0  0  0  0
  -44.7870  -64.9840   51.0640 H   0  0  0  0  0  0  0  0  0  0  0  0
  -45.6840  -63.8940   52.1640 H   0  0  0  0  0  0  0  0  0  0  0  0
  -47.4390  -64.9580   54.5950 H   0  0  0  0  0  0  0  0  0  0  0  0
  -48.1370  -62.7540   53.9160 H   0  0  0  0  0  0  0  0  0  0  0  0
  -48.4510  -63.3230   52.2550 H   0  0  0  0  0  0  0  0  0  0  0  0
  -50.5560  -63.0020   53.0500 H   0  0  0  0  0  0  0  0  0  0  0  0
  -50.4210  -64.7250   53.3900 H   0  0  0  0  0  0  0  0  0  0  0  0
  -51.1760  -64.1040   58.1020 H   0  0  0  0  0  0  0  0  0  0  0  0
  -50.3980  -61.6810   57.8350 H   0  0  0  0  0  0  0  0  0  0  0  0
  -49.6850  -61.2910   55.3500 H   0  0  0  0  0  0  0  0  0  0  0  0
  1  2  1  0  0  0  0
  2  3  2  0  0  0  0
  3  4  1  0  0  0  0
  3 27  1  0  0  0  0
  4  5  2  0  0  0  0
  6  5  1  0  0  0  0
  6 28  1  0  0  0  0
  7  6  1  0  0  0  0
  8  7  2  0  0  0  0
  8  4  1  0  0  0  0
  9  8  1  0  0  0  0
 10  9  2  0  0  0  0
 10  2  1  0  0  0  0
 11 12  1  0  0  0  0
 11  7  1  0  0  0  0
 12 31  1  0  0  0  0
 12 32  1  0  0  0  0
 13 33  1  6  0  0  0
 13 17  1  0  0  0  0
 13 12  1  0  0  0  0
 14 35  1  0  0  0  0
 14 13  1  0  0  0  0
 14 15  1  0  0  0  0
 15 16  2  0  0  0  0
 15 11  1  0  0  0  0
 17 19  1  0  0  0  0
 18 17  2  0  0  0  0
 19 36  1  0  0  0  0
 20 19  1  0  0  0  0
 20 21  1  0  0  0  0
 20 37  1  0  0  0  0
 21 22  1  0  0  0  0
 22 26  2  0  0  0  0
 22 23  1  0  0  0  0
 23 24  2  0  0  0  0
 24 41  1  0  0  0  0
 25 24  1  0  0  0  0
 25 42  1  0  0  0  0
 26 25  1  0  0  0  0
 29  9  1  0  0  0  0
 30 10  1  0  0  0  0
 34 14  1  0  0  0  0
 38 20  1  0  0  0  0
 39 21  1  0  0  0  0
 40 21  1  0  0  0  0
 43 26  1  0  0  0  0
M  END
>  <Pose>
1

>  <Score>
-7.05

$$$$
