
 OpenBabel03202209423D

 58 61  0  0  0  0  0  0  0  0999 V2000
  -39.1650  -70.3470   53.7160 B   0  0  0  0  0  0  0  0  0  0  0  0
  -38.5210  -69.2980   52.2380 C   0  0  0  0  0  0  0  0  0  0  0  0
  -37.3310  -69.4450   51.5790 C   0  0  0  0  0  0  0  0  0  0  0  0
  -37.2920  -68.5110   50.6240 N   0  0  0  0  0  0  0  0  0  0  0  0
  -38.3920  -67.8080   50.6700 N   0  0  0  0  0  0  0  0  0  0  0  0
  -39.2260  -68.2380   51.6610 C   0  0  0  0  0  0  0  0  0  0  0  0
  -40.5230  -67.7350   52.0380 C   0  0  0  0  0  0  0  0  0  0  0  0
  -41.4230  -67.7830   51.1250 O   0  0  0  0  0  0  0  0  0  0  0  0
  -40.8810  -67.2190   53.2560 N   0  0  0  0  0  0  0  0  0  0  0  0
  -40.5820  -65.9030   53.7290 C   0  0  0  0  0  0  0  0  0  0  0  0
  -41.8410  -65.0990   53.7390 C   0  0  0  0  0  0  0  0  0  0  0  0
  -43.0140  -65.9450   53.9040 N   0  0  0  0  0  0  0  0  0  0  0  0
  -42.9660  -67.2510   54.4740 C   0  0  0  0  0  0  0  0  0  0  0  0
  -41.6630  -68.0060   54.2310 C   0  0  0  0  0  0  0  0  0  0  0  0
  -44.2180  -65.3640   53.3810 C   0  0  0  0  0  0  0  0  0  0  0  0
  -44.1390  -64.1350   52.9610 O   0  0  0  0  0  0  0  0  0  0  0  0
  -45.4710  -66.0300   53.2890 C   0  0  0  0  0  0  0  0  0  0  0  0
  -46.4060  -65.7520   52.3000 N   0  0  0  0  0  0  0  0  0  0  0  0
  -47.4720  -66.4570   52.4940 N   0  0  0  0  0  0  0  0  0  0  0  0
  -47.3530  -67.2280   53.5720 C   0  0  0  0  0  0  0  0  0  0  0  0
  -46.0670  -66.9490   54.0780 C   0  0  0  0  0  0  0  0  0  0  0  0
  -48.2900  -68.1820   54.1370 C   0  0  0  0  0  0  0  0  0  0  0  0
  -48.0420  -68.5840   55.3290 O   0  0  0  0  0  0  0  0  0  0  0  0
  -49.4110  -68.6860   53.4970 N   0  0  0  0  0  0  0  0  0  0  0  0
  -50.3750  -69.4510   54.2950 C   0  0  0  0  0  0  0  0  0  0  0  0
  -50.5630  -70.7640   53.5650 C   0  0  0  0  0  0  0  0  0  0  0  0
  -51.1960  -70.4300   52.3540 O   0  0  0  0  0  0  0  0  0  0  0  0
  -50.3120  -69.7990   51.5240 C   0  0  0  0  0  0  0  0  0  0  0  0
  -49.6940  -68.5330   52.1040 C   0  0  0  0  0  0  0  0  0  0  0  0
  -46.2250  -64.8200   51.2120 C   0  0  0  0  0  0  0  0  0  0  0  0
  -36.1500  -68.3750   49.7270 C   0  0  0  0  0  0  0  0  0  0  0  0
  -35.0140  -67.6000   50.3370 C   0  0  0  0  0  0  0  0  0  0  0  0
  -36.5710  -70.1910   51.8100 H   0  0  0  0  0  0  0  0  0  0  0  0
  -40.2620  -65.9860   54.8130 H   0  0  0  0  0  0  0  0  0  0  0  0
  -39.8260  -65.3430   53.1540 H   0  0  0  0  0  0  0  0  0  0  0  0
  -41.9870  -64.5480   52.7670 H   0  0  0  0  0  0  0  0  0  0  0  0
  -41.7600  -64.3700   54.5810 H   0  0  0  0  0  0  0  0  0  0  0  0
  -43.7010  -67.8630   53.8510 H   0  0  0  0  0  0  0  0  0  0  0  0
  -43.2570  -67.3500   55.5160 H   0  0  0  0  0  0  0  0  0  0  0  0
  -41.7880  -69.0250   53.8860 H   0  0  0  0  0  0  0  0  0  0  0  0
  -41.0940  -67.9810   55.1700 H   0  0  0  0  0  0  0  0  0  0  0  0
  -45.7020  -67.4090   54.9720 H   0  0  0  0  0  0  0  0  0  0  0  0
  -51.3090  -68.8500   54.2890 H   0  0  0  0  0  0  0  0  0  0  0  0
  -50.0300  -69.6300   55.3160 H   0  0  0  0  0  0  0  0  0  0  0  0
  -49.5760  -71.1930   53.3380 H   0  0  0  0  0  0  0  0  0  0  0  0
  -51.2190  -71.4430   54.1540 H   0  0  0  0  0  0  0  0  0  0  0  0
  -49.4800  -70.4950   51.2810 H   0  0  0  0  0  0  0  0  0  0  0  0
  -50.8080  -69.5710   50.5640 H   0  0  0  0  0  0  0  0  0  0  0  0
  -48.7490  -68.3790   51.5500 H   0  0  0  0  0  0  0  0  0  0  0  0
  -50.3890  -67.6990   51.9450 H   0  0  0  0  0  0  0  0  0  0  0  0
  -46.3250  -63.7810   51.5300 H   0  0  0  0  0  0  0  0  0  0  0  0
  -45.2500  -65.0020   50.7020 H   0  0  0  0  0  0  0  0  0  0  0  0
  -46.9980  -65.0100   50.4420 H   0  0  0  0  0  0  0  0  0  0  0  0
  -35.7750  -69.3730   49.4040 H   0  0  0  0  0  0  0  0  0  0  0  0
  -36.4590  -67.8490   48.7930 H   0  0  0  0  0  0  0  0  0  0  0  0
  -34.9100  -67.8450   51.4180 H   0  0  0  0  0  0  0  0  0  0  0  0
  -34.0750  -67.9280   49.8430 H   0  0  0  0  0  0  0  0  0  0  0  0
  -35.1460  -66.5210   50.1390 H   0  0  0  0  0  0  0  0  0  0  0  0
  2  1  1  0  0  0  0
  3 33  1  0  0  0  0
  3  2  2  0  0  0  0
  4  5  1  0  0  0  0
  4  3  1  0  0  0  0
  5  6  2  0  0  0  0
  6  7  1  0  0  0  0
  6  2  1  0  0  0  0
  7  9  1  0  0  0  0
  8  7  2  0  0  0  0
  9 10  1  0  0  0  0
  9 14  1  0  0  0  0
 10 11  1  0  0  0  0
 10 34  1  0  0  0  0
 11 12  1  0  0  0  0
 11 37  1  0  0  0  0
 12 13  1  0  0  0  0
 13 39  1  0  0  0  0
 14 13  1  0  0  0  0
 14 41  1  0  0  0  0
 15 12  1  0  0  0  0
 16 15  2  0  0  0  0
 17 15  1  0  0  0  0
 17 21  2  0  0  0  0
 18 19  1  0  0  0  0
 18 17  1  0  0  0  0
 19 20  2  0  0  0  0
 20 21  1  0  0  0  0
 20 22  1  0  0  0  0
 21 42  1  0  0  0  0
 22 23  2  0  0  0  0
 24 22  1  0  0  0  0
 24 25  1  0  0  0  0
 25 44  1  0  0  0  0
 26 46  1  0  0  0  0
 26 25  1  0  0  0  0
 27 26  1  0  0  0  0
 28 29  1  0  0  0  0
 28 27  1  0  0  0  0
 29 24  1  0  0  0  0
 30 51  1  0  0  0  0
 30 18  1  0  0  0  0
 31 32  1  0  0  0  0
 31  4  1  0  0  0  0
 32 56  1  0  0  0  0
 35 10  1  0  0  0  0
 36 11  1  0  0  0  0
 38 13  1  0  0  0  0
 40 14  1  0  0  0  0
 43 25  1  0  0  0  0
 45 26  1  0  0  0  0
 47 28  1  0  0  0  0
 48 28  1  0  0  0  0
 49 29  1  0  0  0  0
 50 29  1  0  0  0  0
 52 30  1  0  0  0  0
 53 30  1  0  0  0  0
 54 31  1  0  0  0  0
 55 31  1  0  0  0  0
 57 32  1  0  0  0  0
 58 32  1  0  0  0  0
M  END
>  <Pose>
1

>  <Score>
-6.21

$$$$
