
 OpenBabel03202209423D

 38 41  0  0  0  0  0  0  0  0999 V2000
  -38.8440  -70.5800   54.2140 B   0  0  0  0  0  0  0  0  0  0  0  0
  -40.3020  -69.3430   54.1600 C   0  0  0  0  0  0  0  0  0  0  0  0
  -41.2200  -69.3000   55.1850 C   0  0  0  0  0  0  0  0  0  0  0  0
  -42.2230  -68.4340   55.1270 N   0  0  0  0  0  0  0  0  0  0  0  0
  -42.4340  -67.5590   54.1210 C   0  0  0  0  0  0  0  0  0  0  0  0
  -41.5200  -67.6080   53.1070 N   0  0  0  0  0  0  0  0  0  0  0  0
  -40.4830  -68.4650   53.1130 C   0  0  0  0  0  0  0  0  0  0  0  0
  -43.5010  -66.6550   54.0810 N   0  0  0  0  0  0  0  0  0  0  0  0
  -43.6610  -65.2530   53.8230 C   0  0  0  0  0  0  0  0  0  0  0  0
  -44.9730  -65.6420   53.1730 C   0  0  0  0  0  0  0  0  0  0  0  0
  -44.9220  -66.6920   54.2770 C   0  0  0  0  0  0  0  0  0  0  0  0
  -46.0820  -64.6460   53.2960 C   0  0  0  0  0  0  0  0  0  0  0  0
  -47.2910  -65.2680   52.8240 N   0  0  0  0  0  0  0  0  0  0  0  0
  -48.3110  -65.5970   53.7170 N   0  0  0  0  0  0  0  0  0  0  0  0
  -49.5210  -66.2110   53.2980 C   0  0  0  0  0  0  0  0  0  0  0  0
  -50.4540  -66.5020   54.1850 C   0  0  0  0  0  0  0  0  0  0  0  0
  -51.0610  -66.5750   55.5290 C   0  0  0  0  0  0  0  0  0  0  0  0
  -51.8310  -67.0940   54.4090 C   0  0  0  0  0  0  0  0  0  0  0  0
  -49.7380  -66.5210   51.8980 C   0  0  0  0  0  0  0  0  0  0  0  0
  -48.7840  -66.2180   51.0330 C   0  0  0  0  0  0  0  0  0  0  0  0
  -47.5220  -65.5780   51.4580 C   0  0  0  0  0  0  0  0  0  0  0  0
  -46.6300  -65.3000   50.6130 O   0  0  0  0  0  0  0  0  0  0  0  0
  -41.0640  -69.9960   56.0020 H   0  0  0  0  0  0  0  0  0  0  0  0
  -39.7520  -68.5120   52.3150 H   0  0  0  0  0  0  0  0  0  0  0  0
  -43.9000  -64.6330   54.7340 H   0  0  0  0  0  0  0  0  0  0  0  0
  -42.9250  -64.7860   53.1480 H   0  0  0  0  0  0  0  0  0  0  0  0
  -44.8000  -66.0700   52.1800 H   0  0  0  0  0  0  0  0  0  0  0  0
  -45.2840  -66.2640   55.2370 H   0  0  0  0  0  0  0  0  0  0  0  0
  -45.4270  -67.6430   54.0370 H   0  0  0  0  0  0  0  0  0  0  0  0
  -45.8590  -63.7440   52.6830 H   0  0  0  0  0  0  0  0  0  0  0  0
  -46.2410  -64.3240   54.3240 H   0  0  0  0  0  0  0  0  0  0  0  0
  -48.1440  -65.3670   54.7400 H   0  0  0  0  0  0  0  0  0  0  0  0
  -50.6560  -67.3240   56.2510 H   0  0  0  0  0  0  0  0  0  0  0  0
  -51.4110  -65.6570   56.0280 H   0  0  0  0  0  0  0  0  0  0  0  0
  -51.9120  -68.2030   54.2820 H   0  0  0  0  0  0  0  0  0  0  0  0
  -52.6620  -66.5070   53.9550 H   0  0  0  0  0  0  0  0  0  0  0  0
  -50.6760  -66.9990   51.5530 H   0  0  0  0  0  0  0  0  0  0  0  0
  -48.9600  -66.4540   49.9950 H   0  0  0  0  0  0  0  0  0  0  0  0
  2  1  1  0  0  0  0
  2  3  2  0  0  0  0
  3 23  1  0  0  0  0
  4  3  1  0  0  0  0
  5  4  2  0  0  0  0
  6  7  2  0  0  0  0
  6  5  1  0  0  0  0
  7  2  1  0  0  0  0
  8  5  1  0  0  0  0
  8 11  1  0  0  0  0
  9  8  1  0  0  0  0
  9 25  1  0  0  0  0
 10 12  1  0  0  0  0
 10  9  1  0  0  0  0
 10 11  1  0  0  0  0
 11 28  1  0  0  0  0
 12 31  1  0  0  0  0
 13 12  1  0  0  0  0
 13 14  1  0  0  0  0
 14 32  1  0  0  0  0
 15 14  1  0  0  0  0
 15 16  2  0  0  0  0
 16 18  1  0  0  0  0
 16 17  1  0  0  0  0
 17 34  1  0  0  0  0
 17 33  1  0  0  0  0
 18 17  1  0  0  0  0
 19 15  1  0  0  0  0
 20 21  1  0  0  0  0
 20 19  2  0  0  0  0
 21 13  1  0  0  0  0
 22 21  2  0  0  0  0
 24  7  1  0  0  0  0
 26  9  1  0  0  0  0
 27 10  1  0  0  0  0
 29 11  1  0  0  0  0
 30 12  1  0  0  0  0
 35 18  1  0  0  0  0
 36 18  1  0  0  0  0
 37 19  1  0  0  0  0
 38 20  1  0  0  0  0
M  END
>  <Pose>
1

>  <Score>
-6.22

$$$$
