
 OpenBabel03202209423D

 40 43  0  0  1  0  0  0  0  0999 V2000
  -47.0050  -67.2580   53.5140 B   0  0  0  0  0  0  0  0  0  0  0  0
  -45.2990  -66.4170   53.5540 C   0  0  0  0  0  0  0  0  0  0  0  0
  -44.5140  -66.5440   54.6750 C   0  0  0  0  0  0  0  0  0  0  0  0
  -43.2930  -65.9520   54.7200 N   0  0  0  0  0  0  0  0  0  0  0  0
  -42.8340  -65.2370   53.6870 C   0  0  0  0  0  0  0  0  0  0  0  0
  -43.5660  -65.0540   52.5060 C   0  0  0  0  0  0  0  0  0  0  0  0
  -44.7960  -65.6710   52.4990 C   0  0  0  0  0  0  0  0  0  0  0  0
  -43.0140  -64.2850   51.4160 C   0  0  0  0  0  0  0  0  0  0  0  0
  -43.6890  -63.2420   51.0840 O   0  0  0  0  0  0  0  0  0  0  0  0
  -41.8380  -64.5510   50.6900 N   0  0  0  0  0  0  0  0  0  0  0  0
  -41.4320  -65.1140   49.4400 C   0  0  0  0  0  0  0  0  0  0  0  0
  -40.1830  -64.2180   49.5220 C   0  0  0  0  0  0  0  0  0  0  0  0
  -40.4020  -64.3560   50.9810 C   0  0  0  0  0  0  0  0  0  0  0  0
  -39.0270  -64.8610   48.9600 N   0  0  0  0  0  0  0  0  0  0  0  0
  -38.2650  -65.9580   49.4970 C   0  0  0  0  0  0  0  0  0  0  0  0
  -38.7040  -66.8070   50.2910 O   0  0  0  0  0  0  0  0  0  0  0  0
  -36.8930  -65.8270   48.8950 C   0  0  1  0  0  0  0  0  0  0  0  0
  -37.2600  -65.3990   47.4930 C   0  0  2  0  0  0  0  0  0  0  0  0
  -36.1060  -64.7170   46.8110 C   0  0  0  0  0  0  0  0  0  0  0  0
  -35.6960  -63.5240   47.5990 C   0  0  0  0  0  0  0  0  0  0  0  0
  -35.7430  -63.6100   48.9120 C   0  0  0  0  0  0  0  0  0  0  0  0
  -36.1680  -64.7880   49.6810 C   0  0  0  0  0  0  0  0  0  0  0  0
  -38.4140  -64.5090   47.7250 C   0  0  0  0  0  0  0  0  0  0  0  0
  -38.7550  -63.6020   46.9260 O   0  0  0  0  0  0  0  0  0  0  0  0
  -44.8930  -67.1240   55.5070 H   0  0  0  0  0  0  0  0  0  0  0  0
  -41.8610  -64.7840   53.7680 H   0  0  0  0  0  0  0  0  0  0  0  0
  -45.4190  -65.5960   51.6430 H   0  0  0  0  0  0  0  0  0  0  0  0
  -41.9700  -64.8000   48.5210 H   0  0  0  0  0  0  0  0  0  0  0  0
  -41.1890  -66.2070   49.4700 H   0  0  0  0  0  0  0  0  0  0  0  0
  -40.4040  -63.2070   49.1640 H   0  0  0  0  0  0  0  0  0  0  0  0
  -40.0320  -65.2880   51.4520 H   0  0  0  0  0  0  0  0  0  0  0  0
  -40.2180  -63.4700   51.6130 H   0  0  0  0  0  0  0  0  0  0  0  0
  -36.3680  -66.8030   48.8970 H   0  0  0  0  0  0  0  0  0  0  0  0
  -37.5210  -66.3050   46.9110 H   0  0  0  0  0  0  0  0  0  0  0  0
  -36.3980  -64.4750   45.7810 H   0  0  0  0  0  0  0  0  0  0  0  0
  -35.2570  -65.4380   46.8160 H   0  0  0  0  0  0  0  0  0  0  0  0
  -35.3740  -62.6300   47.0570 H   0  0  0  0  0  0  0  0  0  0  0  0
  -35.4390  -62.7250   49.4840 H   0  0  0  0  0  0  0  0  0  0  0  0
  -36.7730  -64.4090   50.5550 H   0  0  0  0  0  0  0  0  0  0  0  0
  -35.2580  -65.2230   50.1460 H   0  0  0  0  0  0  0  0  0  0  0  0
  1  2  1  0  0  0  0
  2  3  1  0  0  0  0
  3  4  2  0  0  0  0
  3 25  1  0  0  0  0
  5 26  1  0  0  0  0
  5  4  1  0  0  0  0
  6  5  2  0  0  0  0
  7  6  1  0  0  0  0
  7  2  2  0  0  0  0
  8  6  1  0  0  0  0
  9  8  2  0  0  0  0
 10 13  1  0  0  0  0
 10  8  1  0  0  0  0
 11 29  1  0  0  0  0
 11 12  1  0  0  0  0
 11 10  1  0  0  0  0
 12 13  1  0  0  0  0
 13 31  1  0  0  0  0
 13 32  1  0  0  0  0
 14 15  1  0  0  0  0
 14 12  1  0  0  0  0
 15 16  2  0  0  0  0
 17 33  1  1  0  0  0
 17 15  1  0  0  0  0
 17 22  1  0  0  0  0
 18 34  1  6  0  0  0
 18 23  1  0  0  0  0
 18 17  1  0  0  0  0
 19 36  1  0  0  0  0
 19 18  1  0  0  0  0
 19 20  1  0  0  0  0
 20 21  2  0  0  0  0
 21 38  1  0  0  0  0
 21 22  1  0  0  0  0
 22 40  1  0  0  0  0
 22 39  1  0  0  0  0
 23 14  1  0  0  0  0
 24 23  2  0  0  0  0
 27  7  1  0  0  0  0
 28 11  1  0  0  0  0
 30 12  1  0  0  0  0
 35 19  1  0  0  0  0
 37 20  1  0  0  0  0
M  END
>  <Pose>
1

>  <Score>
-5.16

$$$$
