
 OpenBabel03202209423D

 48 44  0  0  1  0  0  0  0  0999 V2000
  -41.8580  -65.8340   52.8330 B   0  0  0  0  0  0  0  0  0  0  0  0
  -41.3340  -67.4430   53.6710 C   0  0  0  0  0  0  0  0  0  0  0  0
  -41.8820  -67.7910   54.8950 C   0  0  0  0  0  0  0  0  0  0  0  0
  -41.4780  -68.9440   55.4500 N   0  0  0  0  0  0  0  0  0  0  0  0
  -40.5810  -69.7710   54.8920 C   0  0  0  0  0  0  0  0  0  0  0  0
  -40.0420  -69.4180   53.6800 C   0  0  0  0  0  0  0  0  0  0  0  0
  -40.4060  -68.2450   53.0400 C   0  0  1  0  0  0  0  0  0  0  0  0
  -39.0670  -70.2890   53.0430 C   0  0  0  0  0  0  0  0  0  0  0  0
  -38.7440  -71.3890   53.5750 O   0  0  0  0  0  0  0  0  0  0  0  0
  -38.4650  -69.9430   51.8460 O   0  0  0  0  0  0  0  0  0  0  0  0
  -42.5500  -68.1690   53.6980 N   0  0  0  0  0  0  0  0  0  0  0  0
  -41.9640  -68.3300   55.0180 C   0  0  0  0  0  0  0  0  0  0  0  0
  -40.4670  -68.1130   55.0060 C   0  0  0  0  0  0  0  0  0  0  0  0
  -39.7540  -69.4250   54.7320 C   0  0  0  0  0  0  0  0  0  0  0  0
  -39.8750  -69.8090   53.2740 C   0  0  0  0  0  0  0  0  0  0  0  0
  -40.3590  -68.6530   52.5030 C   0  0  0  0  0  0  0  0  0  0  0  0
  -41.5250  -67.9550   52.7030 C   0  0  1  0  0  0  0  0  0  0  0  0
  -41.8180  -66.9230   51.9080 N   0  0  0  0  0  0  0  0  0  0  0  0
  -41.0130  -66.5400   50.9130 C   0  0  0  0  0  0  0  0  0  0  0  0
  -39.8430  -67.2230   50.6940 C   0  0  0  0  0  0  0  0  0  0  0  0
  -39.5150  -68.2930   51.5010 C   0  0  0  0  0  0  0  0  0  0  0  0
  -38.2860  -68.9940   51.2530 N   0  0  0  0  0  4  0  0  0  0  0  0
  -38.9680  -66.8670   49.6720 C   0  0  0  0  0  0  0  0  0  0  0  0
  -39.3080  -65.8010   48.8770 C   0  0  0  0  0  0  0  0  0  0  0  0
  -40.4790  -65.1180   49.0980 C   0  0  0  0  0  0  0  0  0  0  0  0
  -41.3480  -65.4830   50.1240 C   0  0  0  0  0  0  0  0  0  0  0  0
  -43.3840  -66.9720   53.7280 C   0  0  0  0  0  0  0  0  0  0  0  0
  -42.6040  -67.1350   55.3510 H   0  0  0  0  0  0  0  0  0  0  0  0
  -40.3060  -70.6770   55.3980 H   0  0  0  0  0  0  0  0  0  0  0  0
  -40.0060  -67.9440   52.0990 H   0  0  0  0  0  0  0  0  0  0  0  0
  -43.1280  -69.0040   53.4520 H   0  0  0  0  0  0  0  0  0  0  0  0
  -42.1670  -69.3170   55.4600 H   0  0  0  0  0  0  0  0  0  0  0  0
  -42.3820  -67.5800   55.7400 H   0  0  0  0  0  0  0  0  0  0  0  0
  -40.1520  -67.7950   56.0230 H   0  0  0  0  0  0  0  0  0  0  0  0
  -40.2490  -67.3600   54.2310 H   0  0  0  0  0  0  0  0  0  0  0  0
  -38.7100  -69.3220   55.0350 H   0  0  0  0  0  0  0  0  0  0  0  0
  -40.2440  -70.2040   55.3370 H   0  0  0  0  0  0  0  0  0  0  0  0
  -38.8890  -70.1660   52.9130 H   0  0  0  0  0  0  0  0  0  0  0  0
  -40.5650  -70.6920   53.1490 H   0  0  0  0  0  0  0  0  0  0  0  0
  -38.2340  -69.6830   50.4860 H   0  0  0  0  0  0  0  0  0  0  0  0
  -37.4380  -68.8190   51.8400 H   0  0  0  0  0  0  0  0  0  0  0  0
  -38.0560  -67.4230   49.5250 H   0  0  0  0  0  0  0  0  0  0  0  0
  -38.6560  -65.4860   48.0680 H   0  0  0  0  0  0  0  0  0  0  0  0
  -40.7500  -64.2830   48.4790 H   0  0  0  0  0  0  0  0  0  0  0  0
  -42.2750  -64.9610   50.3160 H   0  0  0  0  0  0  0  0  0  0  0  0
  -43.9360  -66.9790   54.6830 H   0  0  0  0  0  0  0  0  0  0  0  0
  -44.0250  -66.9150   52.8350 H   0  0  0  0  0  0  0  0  0  0  0  0
  -42.6990  -66.0870   53.7540 H   0  0  0  0  0  0  0  0  0  0  0  0
  3 12  1  0  0  0  0
  3 33  1  0  0  0  0
  4 32  1  0  0  0  0
  5 37  1  0  0  0  0
  6 14  1  0  0  0  0
  7 16  1  1  0  0  0
  7  2  1  0  0  0  0
  8 15  1  0  0  0  0
  8  9  2  0  0  0  0
 10 38  1  0  0  0  0
 11 27  1  0  0  0  0
 12  4  1  0  0  0  0
 13  4  1  0  0  0  0
 13 34  1  0  0  0  0
 14  5  1  0  0  0  0
 14 36  1  0  0  0  0
 15  6  1  0  0  0  0
 17 18  1  6  0  0  0
 17  7  1  0  0  0  0
 17  2  1  0  0  0  0
 17 11  1  0  0  0  0
 18  1  1  0  0  0  0
 19 18  1  0  0  0  0
 20 19  1  0  0  0  0
 20 21  1  0  0  0  0
 21 30  1  0  0  0  0
 22 21  1  0  0  0  0
 22 41  1  0  0  0  0
 22 10  1  0  0  0  0
 23 20  2  0  0  0  0
 24 25  2  0  0  0  0
 24 23  1  0  0  0  0
 25 26  1  0  0  0  0
 26 45  1  0  0  0  0
 26 19  2  0  0  0  0
 27 48  1  0  0  0  0
 27 46  1  0  0  0  0
 31 11  1  0  0  0  0
 35 13  1  0  0  0  0
 40 22  1  0  0  0  0
 42 23  1  0  0  0  0
 43 24  1  0  0  0  0
 44 25  1  0  0  0  0
 47 27  1  0  0  0  0
M  END
>  <Pose>
1

>  <Score>
-6.96

$$$$
