
 OpenBabel03202209423D

 45 41  0  0  1  0  0  0  0  0999 V2000
  -41.2060  -69.3850   55.0770 B   0  0  0  0  0  0  0  0  0  0  0  0
  -41.5670  -67.9560   53.8690 C   0  0  0  0  0  0  0  0  0  0  0  0
  -42.6910  -67.1660   53.9830 C   0  0  0  0  0  0  0  0  0  0  0  0
  -42.9520  -66.1570   53.1350 N   0  0  0  0  0  0  0  0  0  0  0  0
  -42.0860  -65.9090   52.1410 C   0  0  0  0  0  0  0  0  0  0  0  0
  -40.9400  -66.6510   51.9590 C   0  0  0  0  0  0  0  0  0  0  0  0
  -40.6980  -67.6740   52.8380 C   0  0  0  0  0  0  0  0  0  0  0  0
  -40.0070  -66.3690   50.8750 C   0  0  0  0  0  0  0  0  0  0  0  0
  -38.9510  -67.0400   50.7760 O   0  0  0  0  0  0  0  0  0  0  0  0
  -40.3260  -65.3580   49.9800 O   0  0  0  0  0  0  0  0  0  0  0  0
  -43.0240  -65.3370   50.7400 N   0  0  0  0  0  0  0  0  0  0  0  0
  -43.2920  -64.1060   51.5080 C   0  0  0  0  0  0  0  0  0  0  0  0
  -44.5270  -64.3120   52.3210 C   0  0  0  0  0  0  0  0  0  0  0  0
  -44.3060  -65.4490   53.2820 C   0  0  0  0  0  0  0  0  0  0  0  0
  -43.1430  -66.2970   52.9700 C   0  0  0  0  0  0  0  0  0  0  0  0
  -42.5230  -66.2460   51.7410 C   0  0  2  0  0  0  0  0  0  0  0  0
  -41.4770  -67.0410   51.5230 N   0  0  0  0  0  0  0  0  0  0  0  0
  -40.9870  -67.9000   52.4420 C   0  0  0  0  0  0  0  0  0  0  0  0
  -41.5830  -67.9770   53.6830 C   0  0  0  0  0  0  0  0  0  0  0  0
  -42.6680  -67.1730   53.9540 C   0  0  0  0  0  0  0  0  0  0  0  0
  -43.2810  -67.2560   55.2360 N   0  0  0  0  0  0  0  0  0  0  0  0
  -41.0780  -68.8640   54.6360 C   0  0  2  0  0  0  0  0  0  0  0  0
  -39.9940  -69.6760   54.3860 C   0  0  0  0  0  0  0  0  0  0  0  0
  -39.4020  -69.5950   53.1420 C   0  0  0  0  0  0  0  0  0  0  0  0
  -39.9030  -68.7140   52.1950 C   0  0  0  0  0  0  0  0  0  0  0  0
  -41.9960  -64.9910   49.7800 C   0  0  0  0  0  0  0  0  0  0  0  0
  -43.3740  -67.4020   54.8080 H   0  0  0  0  0  0  0  0  0  0  0  0
  -42.3030  -65.0960   51.4640 H   0  0  0  0  0  0  0  0  0  0  0  0
  -39.8200  -68.3060   52.7650 H   0  0  0  0  0  0  0  0  0  0  0  0
  -43.8890  -65.6850   50.2950 H   0  0  0  0  0  0  0  0  0  0  0  0
  -43.4440  -63.2440   50.8350 H   0  0  0  0  0  0  0  0  0  0  0  0
  -42.4080  -63.9730   52.1720 H   0  0  0  0  0  0  0  0  0  0  0  0
  -44.7910  -63.3670   52.8430 H   0  0  0  0  0  0  0  0  0  0  0  0
  -45.3610  -64.5470   51.5970 H   0  0  0  0  0  0  0  0  0  0  0  0
  -44.2340  -64.9940   54.3010 H   0  0  0  0  0  0  0  0  0  0  0  0
  -45.2590  -66.0370   53.3020 H   0  0  0  0  0  0  0  0  0  0  0  0
  -42.6830  -67.5910   56.0230 H   0  0  0  0  0  0  0  0  0  0  0  0
  -44.2600  -67.0120   55.4390 H   0  0  0  0  0  0  0  0  0  0  0  0
  -41.5400  -68.9270   55.6030 H   0  0  0  0  0  0  0  0  0  0  0  0
  -39.6330  -70.3530   55.1560 H   0  0  0  0  0  0  0  0  0  0  0  0
  -38.5520  -70.2390   52.9610 H   0  0  0  0  0  0  0  0  0  0  0  0
  -39.4130  -68.6750   51.2270 H   0  0  0  0  0  0  0  0  0  0  0  0
  -41.0540  -64.8110   50.3370 H   0  0  0  0  0  0  0  0  0  0  0  0
  -41.8870  -65.8220   49.0360 H   0  0  0  0  0  0  0  0  0  0  0  0
  -42.3220  -64.0500   49.2920 H   0  0  0  0  0  0  0  0  0  0  0  0
  1 39  1  0  0  0  0
  2 20  2  0  0  0  0
  4 20  1  0  0  0  0
  5  4  1  0  0  0  0
  6 18  1  0  0  0  0
  7 19  1  0  0  0  0
  8 17  1  0  0  0  0
  9  8  2  0  0  0  0
 10 43  1  0  0  0  0
 10  8  1  0  0  0  0
 11 28  1  0  0  0  0
 12 32  1  0  0  0  0
 12 13  1  0  0  0  0
 13 33  1  0  0  0  0
 13 14  1  0  0  0  0
 14 36  1  0  0  0  0
 14 35  1  0  0  0  0
 15 14  1  0  0  0  0
 16  5  1  1  0  0  0
 16 15  1  0  0  0  0
 17 16  1  0  0  0  0
 17  6  1  0  0  0  0
 18  7  1  0  0  0  0
 21 38  1  0  0  0  0
 21 37  1  0  0  0  0
 22  2  1  6  0  0  0
 22  1  1  0  0  0  0
 23 22  1  0  0  0  0
 23 40  1  0  0  0  0
 24 23  2  0  0  0  0
 25 29  1  0  0  0  0
 25 24  1  0  0  0  0
 26 11  1  0  0  0  0
 27 21  1  0  0  0  0
 30 11  1  0  0  0  0
 31 12  1  0  0  0  0
 34 13  1  0  0  0  0
 41 24  1  0  0  0  0
 42 25  1  0  0  0  0
 44 26  1  0  0  0  0
 45 26  1  0  0  0  0
M  END
>  <Pose>
1

>  <Score>
-7.44

$$$$
