
 OpenBabel03202209423D

 31 34  0  0  0  0  0  0  0  0999 V2000
  -40.4350  -67.2620   50.6180 B   0  0  0  0  0  0  0  0  0  0  0  0
  -41.0080  -67.4820   52.4380 C   0  0  0  0  0  0  0  0  0  0  0  0
  -40.3620  -68.4350   53.1970 C   0  0  0  0  0  0  0  0  0  0  0  0
  -40.7720  -68.5930   54.4990 C   0  0  0  0  0  0  0  0  0  0  0  0
  -41.8050  -67.8100   55.0150 C   0  0  0  0  0  0  0  0  0  0  0  0
  -42.4560  -66.8570   54.2660 C   0  0  0  0  0  0  0  0  0  0  0  0
  -42.0310  -66.7050   52.9430 C   0  0  0  0  0  0  0  0  0  0  0  0
  -43.5570  -66.0090   54.7900 C   0  0  0  0  0  0  0  0  0  0  0  0
  -44.7780  -66.7750   54.8250 N   0  0  0  0  0  0  0  0  0  0  0  0
  -45.9170  -66.2810   54.0950 C   0  0  0  0  0  0  0  0  0  0  0  0
  -45.9420  -65.0290   53.6170 N   0  0  0  0  0  0  0  0  0  0  0  0
  -47.0090  -64.5760   52.9370 C   0  0  0  0  0  0  0  0  0  0  0  0
  -48.1180  -65.3850   52.7070 C   0  0  0  0  0  0  0  0  0  0  0  0
  -48.0850  -66.6290   53.1860 N   0  0  0  0  0  0  0  0  0  0  0  0
  -47.0090  -67.0900   53.8740 C   0  0  0  0  0  0  0  0  0  0  0  0
  -47.2630  -68.3610   54.2250 N   0  0  0  0  0  0  0  0  0  0  0  0
  -48.4580  -68.7170   53.7850 N   0  0  0  0  0  0  0  0  0  0  0  0
  -48.9570  -67.6530   53.1500 C   0  0  0  0  0  0  0  0  0  0  0  0
  -39.9730  -69.6010   55.0420 O   0  0  0  0  0  0  0  0  0  0  0  0
  -39.4730  -70.3820   53.9450 C   0  0  0  0  0  0  0  0  0  0  0  0
  -39.3230  -69.3440   52.9650 O   0  0  0  0  0  0  0  0  0  0  0  0
  -42.0940  -67.9700   56.0330 H   0  0  0  0  0  0  0  0  0  0  0  0
  -42.5000  -65.9760   52.3040 H   0  0  0  0  0  0  0  0  0  0  0  0
  -43.7230  -65.1640   54.0670 H   0  0  0  0  0  0  0  0  0  0  0  0
  -43.3070  -65.5710   55.7790 H   0  0  0  0  0  0  0  0  0  0  0  0
  -44.8550  -67.6600   55.3540 H   0  0  0  0  0  0  0  0  0  0  0  0
  -47.0550  -63.5760   52.5420 H   0  0  0  0  0  0  0  0  0  0  0  0
  -48.9670  -65.0190   52.1650 H   0  0  0  0  0  0  0  0  0  0  0  0
  -49.9400  -67.6520   52.6800 H   0  0  0  0  0  0  0  0  0  0  0  0
  -38.5330  -70.8780   54.1780 H   0  0  0  0  0  0  0  0  0  0  0  0
  -40.2790  -71.0510   53.5880 H   0  0  0  0  0  0  0  0  0  0  0  0
  1  2  1  0  0  0  0
  2  7  2  0  0  0  0
  2  3  1  0  0  0  0
  3  4  2  0  0  0  0
  4  5  1  0  0  0  0
  4 19  1  0  0  0  0
  5 22  1  0  0  0  0
  6  8  1  0  0  0  0
  6  5  2  0  0  0  0
  7  6  1  0  0  0  0
  8  9  1  0  0  0  0
  8 25  1  0  0  0  0
  9 26  1  0  0  0  0
 10  9  1  0  0  0  0
 11 10  2  0  0  0  0
 12 11  1  0  0  0  0
 13 12  2  0  0  0  0
 13 14  1  0  0  0  0
 14 15  1  0  0  0  0
 15 10  1  0  0  0  0
 15 16  2  0  0  0  0
 17 16  1  0  0  0  0
 18 14  1  0  0  0  0
 18 17  2  0  0  0  0
 20 30  1  0  0  0  0
 20 19  1  0  0  0  0
 21  3  1  0  0  0  0
 21 20  1  0  0  0  0
 23  7  1  0  0  0  0
 24  8  1  0  0  0  0
 27 12  1  0  0  0  0
 28 13  1  0  0  0  0
 29 18  1  0  0  0  0
 31 20  1  0  0  0  0
M  END
>  <Pose>
1

>  <Score>
-6.03

$$$$
