
 OpenBabel03202209423D

 46 49  0  0  0  0  0  0  0  0999 V2000
  -38.6330  -70.1100   53.2560 B   0  0  0  0  0  0  0  0  0  0  0  0
  -38.3660  -68.8940   51.7820 C   0  0  0  0  0  0  0  0  0  0  0  0
  -39.2750  -68.0630   51.2410 N   0  0  0  0  0  0  0  0  0  0  0  0
  -38.7100  -67.3770   50.2350 C   0  0  0  0  0  0  0  0  0  0  0  0
  -37.3970  -67.7930   50.1410 C   0  0  0  0  0  0  0  0  0  0  0  0
  -37.2230  -68.7160   51.0960 N   0  0  0  0  0  0  0  0  0  0  0  0
  -36.6080  -67.2430   49.1950 N   0  0  0  0  0  0  0  0  0  0  0  0
  -37.0490  -66.2980   48.3350 C   0  0  0  0  0  0  0  0  0  0  0  0
  -36.2740  -65.8070   47.4610 O   0  0  0  0  0  0  0  0  0  0  0  0
  -38.3220  -65.8680   48.3990 N   0  0  0  0  0  0  0  0  0  0  0  0
  -39.1170  -66.4110   49.3380 C   0  0  0  0  0  0  0  0  0  0  0  0
  -40.2990  -66.0180   49.4070 O   0  0  0  0  0  0  0  0  0  0  0  0
  -38.7710  -64.8530   47.4660 C   0  0  0  0  0  0  0  0  0  0  0  0
  -35.2330  -67.6870   49.1030 C   0  0  0  0  0  0  0  0  0  0  0  0
  -40.6140  -67.9620   51.7140 C   0  0  0  0  0  0  0  0  0  0  0  0
  -40.8760  -67.0060   52.8200 C   0  0  0  0  0  0  0  0  0  0  0  0
  -42.0650  -67.1920   53.5820 N   0  0  0  0  0  0  0  0  0  0  0  0
  -43.2100  -66.4780   53.4410 C   0  0  0  0  0  0  0  0  0  0  0  0
  -44.1400  -66.9260   54.3470 C   0  0  0  0  0  0  0  0  0  0  0  0
  -43.5260  -67.9140   55.0200 N   0  0  0  0  0  0  0  0  0  0  0  0
  -42.2770  -68.0750   54.5620 C   0  0  0  0  0  0  0  0  0  0  0  0
  -40.9600  -69.3430   55.1730 B   0  0  0  0  0  0  0  0  0  0  0  0
  -45.3920  -66.4050   54.4490 N   0  0  0  0  0  0  0  0  0  0  0  0
  -45.7000  -65.4030   53.6080 C   0  0  0  0  0  0  0  0  0  0  0  0
  -46.8590  -64.9100   53.6930 O   0  0  0  0  0  0  0  0  0  0  0  0
  -44.8310  -64.9230   52.7010 N   0  0  0  0  0  0  0  0  0  0  0  0
  -43.6070  -65.4400   52.6080 C   0  0  0  0  0  0  0  0  0  0  0  0
  -42.7450  -65.0360   51.7820 O   0  0  0  0  0  0  0  0  0  0  0  0
  -45.2130  -63.8410   51.8180 C   0  0  0  0  0  0  0  0  0  0  0  0
  -46.3530  -66.9070   55.4220 C   0  0  0  0  0  0  0  0  0  0  0  0
  -39.8740  -64.8590   47.3860 H   0  0  0  0  0  0  0  0  0  0  0  0
  -38.4740  -63.8270   47.7820 H   0  0  0  0  0  0  0  0  0  0  0  0
  -38.3060  -65.0790   46.4830 H   0  0  0  0  0  0  0  0  0  0  0  0
  -34.9650  -67.7290   48.0130 H   0  0  0  0  0  0  0  0  0  0  0  0
  -35.1240  -68.6940   49.5150 H   0  0  0  0  0  0  0  0  0  0  0  0
  -34.5680  -66.9370   49.5870 H   0  0  0  0  0  0  0  0  0  0  0  0
  -41.3440  -67.6890   50.8940 H   0  0  0  0  0  0  0  0  0  0  0  0
  -40.9360  -69.0090   51.9890 H   0  0  0  0  0  0  0  0  0  0  0  0
  -40.8560  -65.9780   52.3720 H   0  0  0  0  0  0  0  0  0  0  0  0
  -40.0020  -66.9730   53.5420 H   0  0  0  0  0  0  0  0  0  0  0  0
  -44.3310  -63.3100   51.4060 H   0  0  0  0  0  0  0  0  0  0  0  0
  -45.7900  -64.2140   50.9250 H   0  0  0  0  0  0  0  0  0  0  0  0
  -45.8040  -63.0590   52.3590 H   0  0  0  0  0  0  0  0  0  0  0  0
  -46.3090  -68.0120   55.5190 H   0  0  0  0  0  0  0  0  0  0  0  0
  -46.2330  -66.3980   56.4040 H   0  0  0  0  0  0  0  0  0  0  0  0
  -47.3630  -66.6790   55.0200 H   0  0  0  0  0  0  0  0  0  0  0  0
  2  1  1  0  0  0  0
  3 15  1  0  0  0  0
  3  2  1  0  0  0  0
  4  3  1  0  0  0  0
  5  4  2  0  0  0  0
  5  6  1  0  0  0  0
  6  2  2  0  0  0  0
  7  5  1  0  0  0  0
  8 10  1  0  0  0  0
  8  7  1  0  0  0  0
  9  8  2  0  0  0  0
 10 11  1  0  0  0  0
 11 12  2  0  0  0  0
 11  4  1  0  0  0  0
 13 32  1  0  0  0  0
 13 10  1  0  0  0  0
 14  7  1  0  0  0  0
 14 35  1  0  0  0  0
 14 36  1  0  0  0  0
 15 38  1  0  0  0  0
 15 16  1  0  0  0  0
 16 40  1  0  0  0  0
 16 17  1  0  0  0  0
 17 21  1  0  0  0  0
 18 17  1  0  0  0  0
 18 19  2  0  0  0  0
 19 23  1  0  0  0  0
 19 20  1  0  0  0  0
 21 20  2  0  0  0  0
 21 22  1  0  0  0  0
 23 30  1  0  0  0  0
 24 25  2  0  0  0  0
 24 23  1  0  0  0  0
 26 24  1  0  0  0  0
 27 26  1  0  0  0  0
 27 18  1  0  0  0  0
 28 27  2  0  0  0  0
 29 43  1  0  0  0  0
 29 26  1  0  0  0  0
 30 44  1  0  0  0  0
 30 45  1  0  0  0  0
 31 13  1  0  0  0  0
 33 13  1  0  0  0  0
 34 14  1  0  0  0  0
 37 15  1  0  0  0  0
 39 16  1  0  0  0  0
 41 29  1  0  0  0  0
 42 29  1  0  0  0  0
 46 30  1  0  0  0  0
M  END
>  <Pose>
1

>  <Score>
-7.50

$$$$
