
 OpenBabel03162216053D

 43 46  0  0  0  0  0  0  0  0999 V2000
  -44.8940  -63.0320   50.3540 B   0  0  0  0  0  0  0  0  0  0  0  0
  -46.0790  -63.8950   51.5690 C   0  0  0  0  0  0  0  0  0  0  0  0
  -45.7630  -65.0580   52.2150 N   0  0  0  0  0  0  0  0  0  0  0  0
  -46.8440  -65.3350   52.9700 C   0  0  0  0  0  0  0  0  0  0  0  0
  -47.8240  -64.3700   52.8040 C   0  0  0  0  0  0  0  0  0  0  0  0
  -47.3080  -63.4870   51.9220 N   0  0  0  0  0  0  0  0  0  0  0  0
  -49.0110  -64.3800   53.4350 N   0  0  0  0  0  0  0  0  0  0  0  0
  -49.2340  -65.4050   54.2770 C   0  0  0  0  0  0  0  0  0  0  0  0
  -50.3470  -65.4610   54.9000 O   0  0  0  0  0  0  0  0  0  0  0  0
  -48.3100  -66.3640   54.4690 N   0  0  0  0  0  0  0  0  0  0  0  0
  -47.1060  -66.3560   53.8310 C   0  0  0  0  0  0  0  0  0  0  0  0
  -46.2590  -67.2520   54.0220 O   0  0  0  0  0  0  0  0  0  0  0  0
  -50.0290  -63.3680   53.2540 C   0  0  0  0  0  0  0  0  0  0  0  0
  -44.5060  -65.7650   52.0770 C   0  0  0  0  0  0  0  0  0  0  0  0
  -43.4090  -65.2310   52.9530 C   0  0  0  0  0  0  0  0  0  0  0  0
  -42.8400  -66.2280   53.9210 C   0  0  0  0  0  0  0  0  0  0  0  0
  -41.7220  -66.9340   53.3100 N   0  0  0  0  0  0  0  0  0  0  0  0
  -41.0810  -68.0380   53.7570 C   0  0  0  0  0  0  0  0  0  0  0  0
  -40.0770  -68.3920   52.8860 C   0  0  0  0  0  0  0  0  0  0  0  0
  -40.1180  -67.4790   51.8970 N   0  0  0  0  0  0  0  0  0  0  0  0
  -41.1120  -66.6040   52.1610 C   0  0  0  0  0  0  0  0  0  0  0  0
  -41.6250  -65.1030   51.0980 B   0  0  0  0  0  0  0  0  0  0  0  0
  -39.2680  -69.4520   53.0700 N   0  0  0  0  0  0  0  0  0  0  0  0
  -39.4840  -70.1900   54.1870 C   0  0  0  0  0  0  0  0  0  0  0  0
  -38.7240  -71.1910   54.3640 O   0  0  0  0  0  0  0  0  0  0  0  0
  -40.4580  -69.8780   55.0670 N   0  0  0  0  0  0  0  0  0  0  0  0
  -41.2630  -68.8130   54.8720 C   0  0  0  0  0  0  0  0  0  0  0  0
  -42.1770  -68.4970   55.6710 O   0  0  0  0  0  0  0  0  0  0  0  0
  -38.2130  -69.7890   52.1170 C   0  0  0  0  0  0  0  0  0  0  0  0
  -48.4680  -67.1640   55.1180 H   0  0  0  0  0  0  0  0  0  0  0  0
  -49.8400  -62.7580   52.3460 H   0  0  0  0  0  0  0  0  0  0  0  0
  -51.0040  -63.8950   53.0480 H   0  0  0  0  0  0  0  0  0  0  0  0
  -50.1080  -62.6790   54.1180 H   0  0  0  0  0  0  0  0  0  0  0  0
  -44.2100  -65.8110   51.0060 H   0  0  0  0  0  0  0  0  0  0  0  0
  -44.6960  -66.8180   52.4350 H   0  0  0  0  0  0  0  0  0  0  0  0
  -43.7090  -64.2900   53.4660 H   0  0  0  0  0  0  0  0  0  0  0  0
  -42.5520  -64.9270   52.2790 H   0  0  0  0  0  0  0  0  0  0  0  0
  -42.3840  -65.6630   54.7870 H   0  0  0  0  0  0  0  0  0  0  0  0
  -43.5880  -66.9330   54.2800 H   0  0  0  0  0  0  0  0  0  0  0  0
  -40.5770  -70.4810   55.9050 H   0  0  0  0  0  0  0  0  0  0  0  0
  -38.6410  -70.0910   51.1380 H   0  0  0  0  0  0  0  0  0  0  0  0
  -37.5400  -68.9290   51.9370 H   0  0  0  0  0  0  0  0  0  0  0  0
  -37.6780  -70.6590   52.5270 H   0  0  0  0  0  0  0  0  0  0  0  0
  1  2  1  0  0  0  0
  2  6  2  0  0  0  0
  2  3  1  0  0  0  0
  3  4  1  0  0  0  0
  4 11  1  0  0  0  0
  5  4  2  0  0  0  0
  5  7  1  0  0  0  0
  6  5  1  0  0  0  0
  7  8  1  0  0  0  0
  8 10  1  0  0  0  0
  8  9  2  0  0  0  0
 10 30  1  0  0  0  0
 11 12  2  0  0  0  0
 11 10  1  0  0  0  0
 13  7  1  0  0  0  0
 13 33  1  0  0  0  0
 14  3  1  0  0  0  0
 14 35  1  0  0  0  0
 14 15  1  0  0  0  0
 15 36  1  0  0  0  0
 15 16  1  0  0  0  0
 16 39  1  0  0  0  0
 16 38  1  0  0  0  0
 17 18  1  0  0  0  0
 17 16  1  0  0  0  0
 18 27  1  0  0  0  0
 19 23  1  0  0  0  0
 19 18  2  0  0  0  0
 20 21  2  0  0  0  0
 20 19  1  0  0  0  0
 21 17  1  0  0  0  0
 22 21  1  0  0  0  0
 23 24  1  0  0  0  0
 24 25  2  0  0  0  0
 24 26  1  0  0  0  0
 26 40  1  0  0  0  0
 27 26  1  0  0  0  0
 27 28  2  0  0  0  0
 29 43  1  0  0  0  0
 29 23  1  0  0  0  0
 31 13  1  0  0  0  0
 32 13  1  0  0  0  0
 34 14  1  0  0  0  0
 37 15  1  0  0  0  0
 41 29  1  0  0  0  0
 42 29  1  0  0  0  0
M  END
>  <Pose>
1

>  <Score>
-7.77

$$$$
