
 OpenBabel03202209423D

 50 54  0  0  1  0  0  0  0  0999 V2000
  -39.5130  -70.1290   54.3100 B   0  0  0  0  0  0  0  0  0  0  0  0
  -41.0520  -68.9850   54.3480 C   0  0  0  0  0  0  0  0  0  0  0  0
  -41.2850  -67.8940   53.5960 N   0  0  0  0  0  0  0  0  0  0  0  0
  -42.4590  -67.3550   53.9000 N   0  0  0  0  0  0  0  0  0  0  0  0
  -42.9700  -68.1350   54.8710 C   0  0  0  0  0  0  0  0  0  0  0  0
  -42.1250  -69.1370   55.1570 N   0  0  0  0  0  0  0  0  0  0  0  0
  -43.0720  -66.1660   53.3110 C   0  0  2  0  0  0  0  0  0  0  0  0
  -42.2410  -65.7090   52.1330 C   0  0  0  0  0  0  0  0  0  0  0  0
  -42.9740  -64.6280   51.3950 C   0  0  2  0  0  0  0  0  0  0  0  0
  -43.0430  -63.4290   52.3510 C   0  0  0  0  0  0  0  0  0  0  0  0
  -43.7690  -63.8530   53.6030 C   0  0  2  0  0  0  0  0  0  0  0  0
  -43.1120  -65.0190   54.2970 C   0  0  0  0  0  0  0  0  0  0  0  0
  -45.1800  -64.1930   53.2450 C   0  0  0  0  0  0  0  0  0  0  0  0
  -45.1640  -65.3500   52.2720 C   0  0  2  0  0  0  0  0  0  0  0  0
  -44.4800  -66.5010   52.9290 C   0  0  0  0  0  0  0  0  0  0  0  0
  -44.3800  -64.9720   51.0340 C   0  0  0  0  0  0  0  0  0  0  0  0
  -42.2490  -64.2180   50.1730 C   0  0  0  0  0  0  0  0  0  0  0  0
  -41.0020  -64.0800   50.2440 O   0  0  0  0  0  0  0  0  0  0  0  0
  -42.9450  -63.9860   48.9510 N   0  0  0  0  0  0  0  0  0  0  0  0
  -43.0330  -62.7320   48.2910 C   0  0  0  0  0  0  0  0  0  0  0  0
  -42.3500  -62.4070   47.1530 C   0  0  0  0  0  0  0  0  0  0  0  0
  -42.6920  -61.1370   46.8310 N   0  0  0  0  0  0  0  0  0  0  0  0
  -43.5480  -60.6890   47.7250 N   0  0  0  0  0  0  0  0  0  0  0  0
  -43.7880  -61.6320   48.6420 C   0  0  0  0  0  0  0  0  0  0  0  0
  -42.2260  -60.3510   45.7020 C   0  0  0  0  0  0  0  0  0  0  0  0
  -41.4170  -63.1710   46.3500 C   0  0  0  0  0  0  0  0  0  0  0  0
  -40.6540  -64.0230   46.8700 O   0  0  0  0  0  0  0  0  0  0  0  0
  -41.2930  -63.0230   44.9420 N   0  0  0  0  0  0  0  0  0  0  0  0
  -43.9240  -67.9790   55.3510 H   0  0  0  0  0  0  0  0  0  0  0  0
  -41.3250  -65.2220   52.5800 H   0  0  0  0  0  0  0  0  0  0  0  0
  -41.8780  -66.5220   51.5050 H   0  0  0  0  0  0  0  0  0  0  0  0
  -43.5910  -62.5950   51.9030 H   0  0  0  0  0  0  0  0  0  0  0  0
  -42.0450  -63.0800   52.6430 H   0  0  0  0  0  0  0  0  0  0  0  0
  -43.7760  -63.0030   54.3090 H   0  0  0  0  0  0  0  0  0  0  0  0
  -42.1160  -64.7590   54.6940 H   0  0  0  0  0  0  0  0  0  0  0  0
  -43.7480  -65.2960   55.1510 H   0  0  0  0  0  0  0  0  0  0  0  0
  -45.6960  -63.3010   52.8160 H   0  0  0  0  0  0  0  0  0  0  0  0
  -45.7540  -64.4800   54.1430 H   0  0  0  0  0  0  0  0  0  0  0  0
  -46.1730  -65.6550   51.9590 H   0  0  0  0  0  0  0  0  0  0  0  0
  -45.0270  -66.7780   53.8410 H   0  0  0  0  0  0  0  0  0  0  0  0
  -44.4940  -67.3560   52.2220 H   0  0  0  0  0  0  0  0  0  0  0  0
  -44.3690  -65.8360   50.3380 H   0  0  0  0  0  0  0  0  0  0  0  0
  -44.8590  -64.0730   50.6130 H   0  0  0  0  0  0  0  0  0  0  0  0
  -43.4160  -64.8060   48.5270 H   0  0  0  0  0  0  0  0  0  0  0  0
  -44.4530  -61.5630   49.5100 H   0  0  0  0  0  0  0  0  0  0  0  0
  -42.8950  -59.4770   45.5770 H   0  0  0  0  0  0  0  0  0  0  0  0
  -42.4160  -60.9770   44.7870 H   0  0  0  0  0  0  0  0  0  0  0  0
  -41.1650  -60.0490   45.8020 H   0  0  0  0  0  0  0  0  0  0  0  0
  -41.3190  -62.0390   44.5450 H   0  0  0  0  0  0  0  0  0  0  0  0
  -41.1790  -63.8030   44.2670 H   0  0  0  0  0  0  0  0  0  0  0  0
  1  2  1  0  0  0  0
  2  6  1  0  0  0  0
  3  4  1  0  0  0  0
  3  2  2  0  0  0  0
  4  5  1  0  0  0  0
  5  6  2  0  0  0  0
  5 29  1  0  0  0  0
  7  4  1  1  0  0  0
  7 12  1  0  0  0  0
  8 30  1  0  0  0  0
  8  7  1  0  0  0  0
  9 17  1  6  0  0  0
  9  8  1  0  0  0  0
  9 10  1  0  0  0  0
 10 33  1  0  0  0  0
 10 11  1  0  0  0  0
 11 12  1  0  0  0  0
 11 34  1  1  0  0  0
 12 35  1  0  0  0  0
 12 36  1  0  0  0  0
 13 11  1  0  0  0  0
 13 38  1  0  0  0  0
 14 39  1  6  0  0  0
 14 15  1  0  0  0  0
 14 13  1  0  0  0  0
 15  7  1  0  0  0  0
 15 40  1  0  0  0  0
 16  9  1  0  0  0  0
 16 14  1  0  0  0  0
 17 18  2  0  0  0  0
 19 17  1  0  0  0  0
 20 24  1  0  0  0  0
 20 19  1  0  0  0  0
 21 20  2  0  0  0  0
 22 21  1  0  0  0  0
 22 23  1  0  0  0  0
 23 24  2  0  0  0  0
 24 45  1  0  0  0  0
 25 48  1  0  0  0  0
 25 22  1  0  0  0  0
 26 27  2  0  0  0  0
 26 21  1  0  0  0  0
 28 26  1  0  0  0  0
 31  8  1  0  0  0  0
 32 10  1  0  0  0  0
 37 13  1  0  0  0  0
 41 15  1  0  0  0  0
 42 16  1  0  0  0  0
 43 16  1  0  0  0  0
 44 19  1  0  0  0  0
 46 25  1  0  0  0  0
 47 25  1  0  0  0  0
 49 28  1  0  0  0  0
 50 28  1  0  0  0  0
M  END
>  <Pose>
1

>  <Score>
-5.51

$$$$
