
 OpenBabel03202209423D

 37 40  0  0  1  0  0  0  0  0999 V2000
  -41.5960  -68.7830   50.2510 B   0  0  0  0  0  0  0  0  0  0  0  0
  -40.7170  -67.1790   49.7270 C   0  0  0  0  0  0  0  0  0  0  0  0
  -40.1410  -66.9130   48.5330 N   0  0  0  0  0  0  0  0  0  0  0  0
  -39.6500  -65.6950   48.4970 N   0  0  0  0  0  0  0  0  0  0  0  0
  -39.9110  -65.1500   49.6990 C   0  0  0  0  0  0  0  0  0  0  0  0
  -39.6520  -63.9380   50.2010 N   0  0  0  0  0  0  0  0  0  0  0  0
  -40.0270  -63.5990   51.4470 C   0  0  0  0  0  0  0  0  0  0  0  0
  -40.6780  -64.4770   52.2300 N   0  0  0  0  0  0  0  0  0  0  0  0
  -40.9780  -65.7370   51.7870 C   0  0  0  0  0  0  0  0  0  0  0  0
  -40.5900  -66.0620   50.5170 C   0  0  0  0  0  0  0  0  0  0  0  0
  -41.6220  -66.6500   52.6880 N   0  0  0  0  0  0  0  0  0  0  0  0
  -43.0230  -66.5820   52.9620 C   0  0  1  0  0  0  0  0  0  0  0  0
  -43.3780  -67.0330   54.3270 C   0  0  0  0  0  0  0  0  0  0  0  0
  -42.3950  -67.6340   55.0650 O   0  0  0  0  0  0  0  0  0  0  0  0
  -41.5530  -68.4340   54.3010 C   0  0  0  0  0  0  0  0  0  0  0  0
  -40.7890  -67.6490   53.2840 C   0  0  0  0  0  0  0  0  0  0  0  0
  -43.5860  -65.2600   52.6090 C   0  0  0  0  0  0  0  0  0  0  0  0
  -44.1410  -64.9300   51.4420 N   0  0  0  0  0  0  0  0  0  0  0  0
  -44.5200  -63.6250   51.5520 C   0  0  0  0  0  0  0  0  0  0  0  0
  -44.1720  -63.2290   52.7890 N   0  0  0  0  0  0  0  0  0  0  0  0
  -43.6120  -64.2300   53.4040 O   0  0  0  0  0  0  0  0  0  0  0  0
  -45.1840  -62.7940   50.5210 C   0  0  0  0  0  0  0  0  0  0  0  0
  -38.9660  -65.0810   47.3740 C   0  0  0  0  0  0  0  0  0  0  0  0
  -39.7790  -62.5870   51.7840 H   0  0  0  0  0  0  0  0  0  0  0  0
  -43.4910  -67.3750   52.2610 H   0  0  0  0  0  0  0  0  0  0  0  0
  -44.3280  -67.6520   54.3420 H   0  0  0  0  0  0  0  0  0  0  0  0
  -43.6900  -66.1110   54.9060 H   0  0  0  0  0  0  0  0  0  0  0  0
  -40.8200  -68.8870   55.0050 H   0  0  0  0  0  0  0  0  0  0  0  0
  -42.1020  -69.2970   53.8490 H   0  0  0  0  0  0  0  0  0  0  0  0
  -39.8380  -67.2300   53.6920 H   0  0  0  0  0  0  0  0  0  0  0  0
  -40.4510  -68.3130   52.4310 H   0  0  0  0  0  0  0  0  0  0  0  0
  -44.8370  -63.1440   49.5080 H   0  0  0  0  0  0  0  0  0  0  0  0
  -44.9110  -61.7270   50.6020 H   0  0  0  0  0  0  0  0  0  0  0  0
  -46.2970  -62.9030   50.5450 H   0  0  0  0  0  0  0  0  0  0  0  0
  -38.6360  -65.8710   46.6710 H   0  0  0  0  0  0  0  0  0  0  0  0
  -38.0630  -64.5380   47.7510 H   0  0  0  0  0  0  0  0  0  0  0  0
  -39.6430  -64.4050   46.7930 H   0  0  0  0  0  0  0  0  0  0  0  0
  2  1  1  0  0  0  0
  2 10  1  0  0  0  0
  3  2  2  0  0  0  0
  4  3  1  0  0  0  0
  4  5  1  0  0  0  0
  5  6  1  0  0  0  0
  5 10  2  0  0  0  0
  6  7  2  0  0  0  0
  7 24  1  0  0  0  0
  7  8  1  0  0  0  0
  9  8  2  0  0  0  0
  9 11  1  0  0  0  0
 10  9  1  0  0  0  0
 11 12  1  0  0  0  0
 11 16  1  0  0  0  0
 12 25  1  6  0  0  0
 12 13  1  0  0  0  0
 13 26  1  0  0  0  0
 13 27  1  0  0  0  0
 13 14  1  0  0  0  0
 15 28  1  0  0  0  0
 15 14  1  0  0  0  0
 16 30  1  0  0  0  0
 16 15  1  0  0  0  0
 17 12  1  0  0  0  0
 17 21  1  0  0  0  0
 18 19  1  0  0  0  0
 18 17  2  0  0  0  0
 19 20  2  0  0  0  0
 20 21  1  0  0  0  0
 22 34  1  0  0  0  0
 22 33  1  0  0  0  0
 22 19  1  0  0  0  0
 23 36  1  0  0  0  0
 23  4  1  0  0  0  0
 29 15  1  0  0  0  0
 31 16  1  0  0  0  0
 32 22  1  0  0  0  0
 35 23  1  0  0  0  0
 37 23  1  0  0  0  0
M  END
>  <Pose>
1

>  <Score>
-5.06

$$$$
