
 OpenBabel03202209423D

 35 38  0  0  0  0  0  0  0  0999 V2000
  -41.2640  -68.4030   55.0930 B   0  0  0  0  0  0  0  0  0  0  0  0
  -40.4010  -68.4120   53.3960 C   0  0  0  0  0  0  0  0  0  0  0  0
  -39.3850  -69.2430   53.0190 N   0  0  0  0  0  0  0  0  0  0  0  0
  -39.0610  -68.9730   51.7770 N   0  0  0  0  0  0  0  0  0  0  0  0
  -39.8330  -67.9800   51.3070 C   0  0  0  0  0  0  0  0  0  0  0  0
  -39.9190  -67.3480   50.1260 N   0  0  0  0  0  0  0  0  0  0  0  0
  -40.8040  -66.3780   49.9100 C   0  0  0  0  0  0  0  0  0  0  0  0
  -41.6340  -66.0140   50.8830 N   0  0  0  0  0  0  0  0  0  0  0  0
  -41.6310  -66.5930   52.1290 C   0  0  0  0  0  0  0  0  0  0  0  0
  -40.7130  -67.5930   52.3320 C   0  0  0  0  0  0  0  0  0  0  0  0
  -42.4940  -66.1480   53.1300 N   0  0  0  0  0  0  0  0  0  0  0  0
  -42.8620  -64.7540   53.2400 C   0  0  0  0  0  0  0  0  0  0  0  0
  -44.3320  -64.6330   52.7890 C   0  0  0  0  0  0  0  0  0  0  0  0
  -45.0850  -65.8160   53.2580 C   0  0  0  0  0  0  0  0  0  0  0  0
  -46.4210  -66.0140   53.1770 N   0  0  0  0  0  0  0  0  0  0  0  0
  -46.6920  -67.2130   53.7190 C   0  0  0  0  0  0  0  0  0  0  0  0
  -45.5700  -67.7900   54.1450 N   0  0  0  0  0  0  0  0  0  0  0  0
  -44.5710  -66.9250   53.8610 C   0  0  0  0  0  0  0  0  0  0  0  0
  -43.1100  -67.0190   54.0980 C   0  0  0  0  0  0  0  0  0  0  0  0
  -47.4200  -65.1370   52.6220 C   0  0  0  0  0  0  0  0  0  0  0  0
  -38.0250  -69.6110   50.9510 C   0  0  0  0  0  0  0  0  0  0  0  0
  -40.8470  -65.8960   48.9590 H   0  0  0  0  0  0  0  0  0  0  0  0
  -42.2860  -64.0810   52.5920 H   0  0  0  0  0  0  0  0  0  0  0  0
  -42.7850  -64.3740   54.2860 H   0  0  0  0  0  0  0  0  0  0  0  0
  -44.4010  -64.5620   51.6870 H   0  0  0  0  0  0  0  0  0  0  0  0
  -44.7000  -63.6800   53.2100 H   0  0  0  0  0  0  0  0  0  0  0  0
  -47.6810  -67.6870   53.8170 H   0  0  0  0  0  0  0  0  0  0  0  0
  -42.7330  -68.0590   54.0510 H   0  0  0  0  0  0  0  0  0  0  0  0
  -42.9430  -66.5790   55.1250 H   0  0  0  0  0  0  0  0  0  0  0  0
  -48.1600  -65.6950   52.0100 H   0  0  0  0  0  0  0  0  0  0  0  0
  -48.0050  -64.6630   53.4470 H   0  0  0  0  0  0  0  0  0  0  0  0
  -46.9560  -64.3700   51.9570 H   0  0  0  0  0  0  0  0  0  0  0  0
  -38.4750  -69.9890   50.0130 H   0  0  0  0  0  0  0  0  0  0  0  0
  -37.5450  -70.4170   51.5350 H   0  0  0  0  0  0  0  0  0  0  0  0
  -37.2320  -68.8650   50.7170 H   0  0  0  0  0  0  0  0  0  0  0  0
  2  1  1  0  0  0  0
  3  2  2  0  0  0  0
  4  3  1  0  0  0  0
  5  4  1  0  0  0  0
  5 10  2  0  0  0  0
  6  5  1  0  0  0  0
  7  6  2  0  0  0  0
  7  8  1  0  0  0  0
  8  9  2  0  0  0  0
  9 10  1  0  0  0  0
  9 11  1  0  0  0  0
 10  2  1  0  0  0  0
 11 12  1  0  0  0  0
 11 19  1  0  0  0  0
 12 24  1  0  0  0  0
 13 26  1  0  0  0  0
 13 12  1  0  0  0  0
 13 14  1  0  0  0  0
 14 18  2  0  0  0  0
 15 14  1  0  0  0  0
 15 16  1  0  0  0  0
 16 27  1  0  0  0  0
 16 17  2  0  0  0  0
 18 19  1  0  0  0  0
 18 17  1  0  0  0  0
 19 29  1  0  0  0  0
 20 15  1  0  0  0  0
 20 31  1  0  0  0  0
 21 34  1  0  0  0  0
 21  4  1  0  0  0  0
 22  7  1  0  0  0  0
 23 12  1  0  0  0  0
 25 13  1  0  0  0  0
 28 19  1  0  0  0  0
 30 20  1  0  0  0  0
 32 20  1  0  0  0  0
 33 21  1  0  0  0  0
 35 21  1  0  0  0  0
M  END
>  <Pose>
1

>  <Score>
-5.35

$$$$
