
 OpenBabel03202209423D

 49 52  0  0  0  0  0  0  0  0999 V2000
  -37.7690  -69.7640   51.7860 B   0  0  0  0  0  0  0  0  0  0  0  0
  -39.2330  -69.5950   53.0390 C   0  0  0  0  0  0  0  0  0  0  0  0
  -40.2190  -68.7740   53.0000 O   0  0  0  0  0  0  0  0  0  0  0  0
  -41.0260  -68.9320   54.0050 C   0  0  0  0  0  0  0  0  0  0  0  0
  -40.5180  -69.9540   54.7740 C   0  0  0  0  0  0  0  0  0  0  0  0
  -39.3700  -70.3800   54.1570 C   0  0  0  0  0  0  0  0  0  0  0  0
  -42.2610  -68.1890   54.3120 C   0  0  0  0  0  0  0  0  0  0  0  0
  -43.1600  -68.7640   54.9420 O   0  0  0  0  0  0  0  0  0  0  0  0
  -42.4370  -66.8440   53.9030 N   0  0  0  0  0  0  0  0  0  0  0  0
  -42.8870  -65.8540   54.8590 C   0  0  0  0  0  0  0  0  0  0  0  0
  -44.1940  -65.2190   54.4510 C   0  0  0  0  0  0  0  0  0  0  0  0
  -44.2300  -65.2530   52.9790 N   0  0  0  0  0  0  0  0  0  0  0  0
  -42.9840  -65.0640   52.3180 C   0  0  0  0  0  0  0  0  0  0  0  0
  -42.1930  -66.3630   52.5570 C   0  0  0  0  0  0  0  0  0  0  0  0
  -45.4930  -65.4670   52.3760 C   0  0  0  0  0  0  0  0  0  0  0  0
  -46.4590  -66.2060   52.9890 N   0  0  0  0  0  0  0  0  0  0  0  0
  -47.6590  -66.4190   52.4280 C   0  0  0  0  0  0  0  0  0  0  0  0
  -47.9430  -65.8950   51.2160 N   0  0  0  0  0  0  0  0  0  0  0  0
  -47.0520  -65.1520   50.5360 C   0  0  0  0  0  0  0  0  0  0  0  0
  -45.8080  -64.9510   51.1520 C   0  0  0  0  0  0  0  0  0  0  0  0
  -47.3430  -64.5650   49.2010 C   0  0  0  0  0  0  0  0  0  0  0  0
  -48.6320  -67.1950   53.1070 N   0  0  0  0  0  0  0  0  0  0  0  0
  -49.7570  -67.8100   52.4460 C   0  0  0  0  0  0  0  0  0  0  0  0
  -49.8140  -69.2710   52.7780 C   0  0  0  0  0  0  0  0  0  0  0  0
  -48.9400  -69.6320   53.8020 O   0  0  0  0  0  0  0  0  0  0  0  0
  -49.0540  -68.7560   54.8780 C   0  0  0  0  0  0  0  0  0  0  0  0
  -48.5060  -67.3920   54.5350 C   0  0  0  0  0  0  0  0  0  0  0  0
  -40.9490  -70.3570   55.7070 H   0  0  0  0  0  0  0  0  0  0  0  0
  -38.7130  -71.1830   54.5030 H   0  0  0  0  0  0  0  0  0  0  0  0
  -42.1260  -65.0700   55.0410 H   0  0  0  0  0  0  0  0  0  0  0  0
  -43.0830  -66.3410   55.8600 H   0  0  0  0  0  0  0  0  0  0  0  0
  -45.0640  -65.7390   54.8500 H   0  0  0  0  0  0  0  0  0  0  0  0
  -44.2060  -64.1190   54.7020 H   0  0  0  0  0  0  0  0  0  0  0  0
  -43.1230  -64.9110   51.2470 H   0  0  0  0  0  0  0  0  0  0  0  0
  -42.4140  -64.2260   52.7920 H   0  0  0  0  0  0  0  0  0  0  0  0
  -42.5130  -67.0360   51.7670 H   0  0  0  0  0  0  0  0  0  0  0  0
  -41.1040  -66.1960   52.4560 H   0  0  0  0  0  0  0  0  0  0  0  0
  -45.1130  -64.3550   50.5880 H   0  0  0  0  0  0  0  0  0  0  0  0
  -46.6400  -64.9630   48.4430 H   0  0  0  0  0  0  0  0  0  0  0  0
  -48.3960  -64.7290   48.9720 H   0  0  0  0  0  0  0  0  0  0  0  0
  -47.1670  -63.4680   49.2910 H   0  0  0  0  0  0  0  0  0  0  0  0
  -49.6650  -67.7130   51.3300 H   0  0  0  0  0  0  0  0  0  0  0  0
  -50.7110  -67.3120   52.7590 H   0  0  0  0  0  0  0  0  0  0  0  0
  -50.8470  -69.5440   53.1270 H   0  0  0  0  0  0  0  0  0  0  0  0
  -49.5950  -69.8960   51.8890 H   0  0  0  0  0  0  0  0  0  0  0  0
  -48.4940  -69.1650   55.7360 H   0  0  0  0  0  0  0  0  0  0  0  0
  -50.1290  -68.6900   55.1980 H   0  0  0  0  0  0  0  0  0  0  0  0
  -47.4470  -67.3180   54.8760 H   0  0  0  0  0  0  0  0  0  0  0  0
  -49.1270  -66.6290   55.0680 H   0  0  0  0  0  0  0  0  0  0  0  0
  1  2  1  0  0  0  0
  2  6  2  0  0  0  0
  3  2  1  0  0  0  0
  3  4  1  0  0  0  0
  4  7  1  0  0  0  0
  4  5  2  0  0  0  0
  5 28  1  0  0  0  0
  6 29  1  0  0  0  0
  6  5  1  0  0  0  0
  7  8  2  0  0  0  0
  9  7  1  0  0  0  0
  9 10  1  0  0  0  0
 10 30  1  0  0  0  0
 10 31  1  0  0  0  0
 11 33  1  0  0  0  0
 11 32  1  0  0  0  0
 11 10  1  0  0  0  0
 12 11  1  0  0  0  0
 13 14  1  0  0  0  0
 13 35  1  0  0  0  0
 13 12  1  0  0  0  0
 14  9  1  0  0  0  0
 15 12  1  0  0  0  0
 15 16  1  0  0  0  0
 17 16  2  0  0  0  0
 17 22  1  0  0  0  0
 18 17  1  0  0  0  0
 19 20  1  0  0  0  0
 19 18  2  0  0  0  0
 20 15  2  0  0  0  0
 21 41  1  0  0  0  0
 21 19  1  0  0  0  0
 22 27  1  0  0  0  0
 23 43  1  0  0  0  0
 23 24  1  0  0  0  0
 23 22  1  0  0  0  0
 24 44  1  0  0  0  0
 24 25  1  0  0  0  0
 25 26  1  0  0  0  0
 26 47  1  0  0  0  0
 26 46  1  0  0  0  0
 27 48  1  0  0  0  0
 27 26  1  0  0  0  0
 27 49  1  0  0  0  0
 34 13  1  0  0  0  0
 36 14  1  0  0  0  0
 37 14  1  0  0  0  0
 38 20  1  0  0  0  0
 39 21  1  0  0  0  0
 40 21  1  0  0  0  0
 42 23  1  0  0  0  0
 45 24  1  0  0  0  0
M  END
>  <Pose>
1

>  <Score>
-6.17

$$$$
