
 OpenBabel03202209423D

 53 56  0  0  0  0  0  0  0  0999 V2000
  -38.8340  -69.8260   52.5100 B   0  0  0  0  0  0  0  0  0  0  0  0
  -40.2730  -69.1050   53.5390 C   0  0  0  0  0  0  0  0  0  0  0  0
  -40.9860  -68.0520   53.2280 O   0  0  0  0  0  0  0  0  0  0  0  0
  -41.9060  -67.7930   54.1240 C   0  0  0  0  0  0  0  0  0  0  0  0
  -41.7810  -68.7560   55.0960 C   0  0  0  0  0  0  0  0  0  0  0  0
  -40.7530  -69.5900   54.7370 C   0  0  0  0  0  0  0  0  0  0  0  0
  -42.8850  -66.6820   54.0920 C   0  0  0  0  0  0  0  0  0  0  0  0
  -43.7990  -66.6440   54.9300 O   0  0  0  0  0  0  0  0  0  0  0  0
  -42.7620  -65.6740   53.1000 N   0  0  0  0  0  0  0  0  0  0  0  0
  -43.5130  -65.7630   51.8510 C   0  0  0  0  0  0  0  0  0  0  0  0
  -43.1480  -64.5940   50.9390 C   0  0  0  0  0  0  0  0  0  0  0  0
  -41.7010  -64.5370   50.8710 N   0  0  0  0  0  0  0  0  0  0  0  0
  -40.9600  -64.3930   52.0940 C   0  0  0  0  0  0  0  0  0  0  0  0
  -41.8990  -64.5210   53.2660 C   0  0  0  0  0  0  0  0  0  0  0  0
  -41.0080  -64.6190   49.6200 C   0  0  0  0  0  0  0  0  0  0  0  0
  -41.3730  -63.8800   48.5630 N   0  0  0  0  0  0  0  0  0  0  0  0
  -40.7070  -63.9800   47.4060 C   0  0  0  0  0  0  0  0  0  0  0  0
  -39.6600  -64.8150   47.2600 N   0  0  0  0  0  0  0  0  0  0  0  0
  -39.2430  -65.5850   48.2810 C   0  0  0  0  0  0  0  0  0  0  0  0
  -39.9410  -65.4670   49.4640 C   0  0  0  0  0  0  0  0  0  0  0  0
  -38.1480  -66.4770   48.1770 N   0  0  0  0  0  0  0  0  0  0  0  0
  -37.4310  -66.8990   49.3630 C   0  0  0  0  0  0  0  0  0  0  0  0
  -36.5480  -68.0630   48.9660 C   0  0  0  0  0  0  0  0  0  0  0  0
  -35.6100  -67.6140   47.9730 N   0  0  0  0  0  0  0  0  0  0  0  0
  -36.1800  -66.8590   46.9010 C   0  0  0  0  0  0  0  0  0  0  0  0
  -37.6860  -67.0110   46.9100 C   0  0  0  0  0  0  0  0  0  0  0  0
  -34.4790  -66.9900   48.6100 C   0  0  0  0  0  0  0  0  0  0  0  0
  -41.1190  -63.1560   46.2420 C   0  0  0  0  0  0  0  0  0  0  0  0
  -42.3780  -68.8520   55.9880 H   0  0  0  0  0  0  0  0  0  0  0  0
  -40.3710  -70.4720   55.2770 H   0  0  0  0  0  0  0  0  0  0  0  0
  -44.5980  -65.7760   52.0420 H   0  0  0  0  0  0  0  0  0  0  0  0
  -43.2480  -66.7160   51.3450 H   0  0  0  0  0  0  0  0  0  0  0  0
  -43.5680  -64.7460   49.9430 H   0  0  0  0  0  0  0  0  0  0  0  0
  -43.5390  -63.6750   51.4290 H   0  0  0  0  0  0  0  0  0  0  0  0
  -40.1400  -65.1500   52.1430 H   0  0  0  0  0  0  0  0  0  0  0  0
  -40.5260  -63.3540   52.1290 H   0  0  0  0  0  0  0  0  0  0  0  0
  -41.3530  -64.5370   54.2180 H   0  0  0  0  0  0  0  0  0  0  0  0
  -42.5600  -63.6200   53.2560 H   0  0  0  0  0  0  0  0  0  0  0  0
  -39.6430  -66.0650   50.3140 H   0  0  0  0  0  0  0  0  0  0  0  0
  -36.8160  -66.0710   49.7410 H   0  0  0  0  0  0  0  0  0  0  0  0
  -38.1880  -67.1940   50.1200 H   0  0  0  0  0  0  0  0  0  0  0  0
  -36.0000  -68.3710   49.8730 H   0  0  0  0  0  0  0  0  0  0  0  0
  -37.1730  -68.9000   48.6140 H   0  0  0  0  0  0  0  0  0  0  0  0
  -35.7940  -67.2080   45.9220 H   0  0  0  0  0  0  0  0  0  0  0  0
  -35.9430  -65.7870   46.9900 H   0  0  0  0  0  0  0  0  0  0  0  0
  -37.9350  -68.1010   46.8970 H   0  0  0  0  0  0  0  0  0  0  0  0
  -38.1640  -66.4710   46.0700 H   0  0  0  0  0  0  0  0  0  0  0  0
  -34.4720  -67.1430   49.6920 H   0  0  0  0  0  0  0  0  0  0  0  0
  -33.5490  -67.4490   48.1820 H   0  0  0  0  0  0  0  0  0  0  0  0
  -34.4730  -65.9040   48.3780 H   0  0  0  0  0  0  0  0  0  0  0  0
  -40.2100  -62.8510   45.6850 H   0  0  0  0  0  0  0  0  0  0  0  0
  -41.7860  -63.7450   45.5790 H   0  0  0  0  0  0  0  0  0  0  0  0
  -41.5970  -62.2260   46.5940 H   0  0  0  0  0  0  0  0  0  0  0  0
  1  2  1  0  0  0  0
  2  6  2  0  0  0  0
  3  2  1  0  0  0  0
  3  4  1  0  0  0  0
  4  5  2  0  0  0  0
  5 29  1  0  0  0  0
  6  5  1  0  0  0  0
  6 30  1  0  0  0  0
  7  4  1  0  0  0  0
  7  8  2  0  0  0  0
  9 14  1  0  0  0  0
  9  7  1  0  0  0  0
 10 31  1  0  0  0  0
 10  9  1  0  0  0  0
 11 34  1  0  0  0  0
 11 10  1  0  0  0  0
 12 11  1  0  0  0  0
 12 13  1  0  0  0  0
 13 36  1  0  0  0  0
 13 35  1  0  0  0  0
 13 14  1  0  0  0  0
 14 37  1  0  0  0  0
 15 12  1  0  0  0  0
 16 15  1  0  0  0  0
 17 16  2  0  0  0  0
 18 17  1  0  0  0  0
 18 19  2  0  0  0  0
 19 20  1  0  0  0  0
 20 15  2  0  0  0  0
 20 39  1  0  0  0  0
 21 19  1  0  0  0  0
 21 22  1  0  0  0  0
 22 40  1  0  0  0  0
 22 41  1  0  0  0  0
 23 22  1  0  0  0  0
 23 42  1  0  0  0  0
 24 27  1  0  0  0  0
 24 23  1  0  0  0  0
 25 26  1  0  0  0  0
 25 45  1  0  0  0  0
 25 24  1  0  0  0  0
 26 21  1  0  0  0  0
 27 48  1  0  0  0  0
 28 53  1  0  0  0  0
 28 17  1  0  0  0  0
 32 10  1  0  0  0  0
 33 11  1  0  0  0  0
 38 14  1  0  0  0  0
 43 23  1  0  0  0  0
 44 25  1  0  0  0  0
 46 26  1  0  0  0  0
 47 26  1  0  0  0  0
 49 27  1  0  0  0  0
 50 27  1  0  0  0  0
 51 28  1  0  0  0  0
 52 28  1  0  0  0  0
M  END
>  <Pose>
1

>  <Score>
-6.23

$$$$
