
 OpenBabel03202209423D

 43 46  0  0  0  0  0  0  0  0999 V2000
  -48.2460  -74.2610   60.7870 B   0  0  0  0  0  0  0  0  0  0  0  0
  -48.7100  -72.4660   60.3850 C   0  0  0  0  0  0  0  0  0  0  0  0
  -48.6320  -71.8370   59.2530 O   0  0  0  0  0  0  0  0  0  0  0  0
  -49.0410  -70.5970   59.3410 C   0  0  0  0  0  0  0  0  0  0  0  0
  -49.4210  -70.4020   60.6560 C   0  0  0  0  0  0  0  0  0  0  0  0
  -49.2170  -71.5880   61.3450 C   0  0  0  0  0  0  0  0  0  0  0  0
  -49.0970  -69.5960   58.2820 C   0  0  0  0  0  0  0  0  0  0  0  0
  -49.8340  -68.4630   58.2530 N   0  0  0  0  0  0  0  0  0  0  0  0
  -49.6130  -67.8280   57.1380 O   0  0  0  0  0  0  0  0  0  0  0  0
  -48.7520  -68.4860   56.4040 C   0  0  0  0  0  0  0  0  0  0  0  0
  -48.4360  -69.5770   57.1120 N   0  0  0  0  0  0  0  0  0  0  0  0
  -48.2960  -68.0360   55.0950 C   0  0  0  0  0  0  0  0  0  0  0  0
  -48.1580  -68.8800   54.1450 O   0  0  0  0  0  0  0  0  0  0  0  0
  -47.9930  -66.6720   54.8290 N   0  0  0  0  0  0  0  0  0  0  0  0
  -47.5060  -66.2430   53.5620 C   0  0  0  0  0  0  0  0  0  0  0  0
  -46.0780  -65.7430   53.6170 C   0  0  0  0  0  0  0  0  0  0  0  0
  -45.3130  -66.4370   54.6440 N   0  0  0  0  0  0  0  0  0  0  0  0
  -43.9870  -66.8120   54.3700 C   0  0  0  0  0  0  0  0  0  0  0  0
  -43.5820  -67.8700   54.9700 O   0  0  0  0  0  0  0  0  0  0  0  0
  -43.0400  -66.1560   53.5030 C   0  0  0  0  0  0  0  0  0  0  0  0
  -42.2170  -66.9430   52.6990 C   0  0  0  0  0  0  0  0  0  0  0  0
  -41.3130  -66.3440   51.8580 C   0  0  0  0  0  0  0  0  0  0  0  0
  -41.2180  -64.9880   51.8060 C   0  0  0  0  0  0  0  0  0  0  0  0
  -40.2960  -64.3830   50.9480 C   0  0  0  0  0  0  0  0  0  0  0  0
  -39.4690  -65.1240   50.1390 C   0  0  0  0  0  0  0  0  0  0  0  0
  -39.5690  -66.4900   50.1960 C   0  0  0  0  0  0  0  0  0  0  0  0
  -40.4720  -67.1020   51.0370 C   0  0  0  0  0  0  0  0  0  0  0  0
  -42.0000  -64.2810   52.5690 O   0  0  0  0  0  0  0  0  0  0  0  0
  -42.8960  -64.7950   53.4050 C   0  0  0  0  0  0  0  0  0  0  0  0
  -43.5870  -64.0010   54.0840 O   0  0  0  0  0  0  0  0  0  0  0  0
  -49.7990  -69.4820   61.0280 H   0  0  0  0  0  0  0  0  0  0  0  0
  -49.4140  -71.7780   62.3970 H   0  0  0  0  0  0  0  0  0  0  0  0
  -48.1320  -65.9770   55.5860 H   0  0  0  0  0  0  0  0  0  0  0  0
  -48.1320  -65.3660   53.2420 H   0  0  0  0  0  0  0  0  0  0  0  0
  -47.6420  -67.0130   52.7780 H   0  0  0  0  0  0  0  0  0  0  0  0
  -45.6060  -66.0010   52.6460 H   0  0  0  0  0  0  0  0  0  0  0  0
  -46.0380  -64.6440   53.7300 H   0  0  0  0  0  0  0  0  0  0  0  0
  -45.7210  -66.6570   55.5700 H   0  0  0  0  0  0  0  0  0  0  0  0
  -42.2790  -68.0340   52.7270 H   0  0  0  0  0  0  0  0  0  0  0  0
  -40.2460  -63.3070   50.9300 H   0  0  0  0  0  0  0  0  0  0  0  0
  -38.7720  -64.6180   49.4910 H   0  0  0  0  0  0  0  0  0  0  0  0
  -38.9250  -67.0810   49.5670 H   0  0  0  0  0  0  0  0  0  0  0  0
  -40.5590  -68.1750   51.0890 H   0  0  0  0  0  0  0  0  0  0  0  0
  2  1  1  0  0  0  0
  2  6  2  0  0  0  0
  3  4  1  0  0  0  0
  3  2  1  0  0  0  0
  4  5  2  0  0  0  0
  5 31  1  0  0  0  0
  5  6  1  0  0  0  0
  6 32  1  0  0  0  0
  7  4  1  0  0  0  0
  8  7  2  0  0  0  0
  9  8  1  0  0  0  0
 10 11  2  0  0  0  0
 10  9  1  0  0  0  0
 11  7  1  0  0  0  0
 12 10  1  0  0  0  0
 13 12  2  0  0  0  0
 14 12  1  0  0  0  0
 14 33  1  0  0  0  0
 15 16  1  0  0  0  0
 15 14  1  0  0  0  0
 16 37  1  0  0  0  0
 16 17  1  0  0  0  0
 17 38  1  0  0  0  0
 18 17  1  0  0  0  0
 18 19  2  0  0  0  0
 20 18  1  0  0  0  0
 21 39  1  0  0  0  0
 21 20  2  0  0  0  0
 22 21  1  0  0  0  0
 23 22  1  0  0  0  0
 23 28  1  0  0  0  0
 24 23  2  0  0  0  0
 25 26  2  0  0  0  0
 25 24  1  0  0  0  0
 26 27  1  0  0  0  0
 27 43  1  0  0  0  0
 27 22  2  0  0  0  0
 28 29  1  0  0  0  0
 29 20  1  0  0  0  0
 29 30  2  0  0  0  0
 34 15  1  0  0  0  0
 35 15  1  0  0  0  0
 36 16  1  0  0  0  0
 40 24  1  0  0  0  0
 41 25  1  0  0  0  0
 42 26  1  0  0  0  0
M  END
>  <Pose>
1

>  <Score>
-6.81

$$$$
