
 OpenBabel03202209423D

 63 66  0  0  1  0  0  0  0  0999 V2000
  -35.1900  -67.2190   50.2880 B   0  0  0  0  0  0  0  0  0  0  0  0
  -36.4200  -67.0760   48.8430 C   0  0  0  0  0  0  0  0  0  0  0  0
  -37.7110  -66.7000   49.1190 C   0  0  0  0  0  0  0  0  0  0  0  0
  -38.6540  -66.5700   48.1700 N   0  0  0  0  0  0  0  0  0  0  0  0
  -38.2320  -66.8410   46.8980 C   0  0  0  0  0  0  0  0  0  0  0  0
  -39.0620  -66.7420   45.9480 O   0  0  0  0  0  0  0  0  0  0  0  0
  -36.9960  -67.2070   46.5970 N   0  0  0  0  0  0  0  0  0  0  0  0
  -36.0530  -67.3360   47.5460 C   0  0  0  0  0  0  0  0  0  0  0  0
  -34.8710  -67.6790   47.3010 O   0  0  0  0  0  0  0  0  0  0  0  0
  -40.0040  -66.1810   48.4240 C   0  0  2  0  0  0  0  0  0  0  0  0
  -40.1000  -64.8270   49.1390 C   0  0  2  0  0  0  0  0  0  0  0  0
  -39.9710  -65.0390   50.6080 C   0  0  0  0  0  0  0  0  0  0  0  0
  -41.1330  -65.8850   51.0770 C   0  0  0  0  0  0  0  0  0  0  0  0
  -41.7370  -66.5800   50.0470 O   0  0  0  0  0  0  0  0  0  0  0  0
  -40.8360  -67.1700   49.1700 C   0  0  0  0  0  0  0  0  0  0  0  0
  -40.6470  -66.7450   52.1870 C   0  0  0  0  0  0  0  0  0  0  0  0
  -41.8280  -67.5840   52.7000 C   0  0  0  0  0  0  0  0  0  0  0  0
  -42.7590  -66.6930   53.3110 N   0  0  0  0  0  0  0  0  0  0  0  0
  -42.4600  -65.2370   53.0970 C   0  0  0  0  0  0  0  0  0  0  0  0
  -42.1710  -64.9500   51.6610 C   0  0  0  0  0  0  0  0  0  0  0  0
  -43.8710  -67.0470   54.0500 C   0  0  0  0  0  0  0  0  0  0  0  0
  -43.6290  -67.7970   55.1050 O   0  0  0  0  0  0  0  0  0  0  0  0
  -45.2450  -66.7390   53.8690 C   0  0  0  0  0  0  0  0  0  0  0  0
  -46.2330  -67.6640   54.2510 C   0  0  0  0  0  0  0  0  0  0  0  0
  -47.5750  -67.4800   54.1460 C   0  0  0  0  0  0  0  0  0  0  0  0
  -48.0000  -66.2480   53.6060 C   0  0  0  0  0  0  0  0  0  0  0  0
  -47.0680  -65.3420   53.2320 C   0  0  0  0  0  0  0  0  0  0  0  0
  -45.6850  -65.5640   53.3530 C   0  0  0  0  0  0  0  0  0  0  0  0
  -48.5020  -68.4040   54.5240 O   0  0  0  0  0  0  0  0  0  0  0  0
  -49.7130  -68.2870   55.1390 C   0  0  0  0  0  0  0  0  0  0  0  0
  -49.6650  -68.6240   56.5910 C   0  0  0  0  0  0  0  0  0  0  0  0
  -48.2760  -68.6020   57.0520 N   0  0  0  0  0  0  0  0  0  0  0  0
  -41.3860  -64.3420   48.8890 O   0  0  0  0  0  0  0  0  0  0  0  0
  -39.1240  -63.8460   48.5740 C   0  0  0  0  0  0  0  0  0  0  0  0
  -37.9870  -66.5010   50.1220 H   0  0  0  0  0  0  0  0  0  0  0  0
  -36.7030  -67.4070   45.6180 H   0  0  0  0  0  0  0  0  0  0  0  0
  -40.4800  -65.9800   47.4170 H   0  0  0  0  0  0  0  0  0  0  0  0
  -38.9940  -65.4490   50.9280 H   0  0  0  0  0  0  0  0  0  0  0  0
  -40.0160  -64.0160   51.0860 H   0  0  0  0  0  0  0  0  0  0  0  0
  -40.2920  -67.9380   49.7180 H   0  0  0  0  0  0  0  0  0  0  0  0
  -41.4770  -67.7300   48.4240 H   0  0  0  0  0  0  0  0  0  0  0  0
  -40.3030  -66.1240   53.0210 H   0  0  0  0  0  0  0  0  0  0  0  0
  -39.8050  -67.4100   51.9090 H   0  0  0  0  0  0  0  0  0  0  0  0
  -41.3510  -68.2830   53.4510 H   0  0  0  0  0  0  0  0  0  0  0  0
  -42.1930  -68.1420   51.8250 H   0  0  0  0  0  0  0  0  0  0  0  0
  -41.6740  -64.9000   53.7710 H   0  0  0  0  0  0  0  0  0  0  0  0
  -43.3850  -64.7030   53.4130 H   0  0  0  0  0  0  0  0  0  0  0  0
  -43.1560  -65.0420   51.1180 H   0  0  0  0  0  0  0  0  0  0  0  0
  -41.8560  -63.8840   51.5680 H   0  0  0  0  0  0  0  0  0  0  0  0
  -45.8810  -68.5790   54.6800 H   0  0  0  0  0  0  0  0  0  0  0  0
  -49.0660  -66.1160   53.5300 H   0  0  0  0  0  0  0  0  0  0  0  0
  -47.4150  -64.3930   52.8150 H   0  0  0  0  0  0  0  0  0  0  0  0
  -45.0830  -64.7530   53.0260 H   0  0  0  0  0  0  0  0  0  0  0  0
  -50.4420  -69.0280   54.6710 H   0  0  0  0  0  0  0  0  0  0  0  0
  -50.1440  -67.2510   54.9990 H   0  0  0  0  0  0  0  0  0  0  0  0
  -50.2270  -68.0050   57.2750 H   0  0  0  0  0  0  0  0  0  0  0  0
  -49.9640  -69.7070   56.7130 H   0  0  0  0  0  0  0  0  0  0  0  0
  -48.1720  -68.1040   57.9480 H   0  0  0  0  0  0  0  0  0  0  0  0
  -47.6160  -68.3260   56.3190 H   0  0  0  0  0  0  0  0  0  0  0  0
  -42.0350  -65.0610   48.6800 H   0  0  0  0  0  0  0  0  0  0  0  0
  -38.1070  -64.2400   48.4390 H   0  0  0  0  0  0  0  0  0  0  0  0
  -39.5500  -63.4550   47.6220 H   0  0  0  0  0  0  0  0  0  0  0  0
  -39.0850  -62.9760   49.2670 H   0  0  0  0  0  0  0  0  0  0  0  0
  2  3  2  0  0  0  0
  2  1  1  0  0  0  0
  3 35  1  0  0  0  0
  4 10  1  0  0  0  0
  4  3  1  0  0  0  0
  5  4  1  0  0  0  0
  6  5  2  0  0  0  0
  7  5  1  0  0  0  0
  7  8  1  0  0  0  0
  8  2  1  0  0  0  0
  9  8  2  0  0  0  0
 10 37  1  6  0  0  0
 10 11  1  0  0  0  0
 10 15  1  0  0  0  0
 11 33  1  6  0  0  0
 11 12  1  0  0  0  0
 12 38  1  0  0  0  0
 12 13  1  0  0  0  0
 12 39  1  0  0  0  0
 13 20  1  0  0  0  0
 13 16  1  0  0  0  0
 14 13  1  0  0  0  0
 15 40  1  0  0  0  0
 15 14  1  0  0  0  0
 16 17  1  0  0  0  0
 16 42  1  0  0  0  0
 17 18  1  0  0  0  0
 17 44  1  0  0  0  0
 18 21  1  0  0  0  0
 19 18  1  0  0  0  0
 19 47  1  0  0  0  0
 19 46  1  0  0  0  0
 20 19  1  0  0  0  0
 21 22  2  0  0  0  0
 23 21  1  0  0  0  0
 23 24  1  0  0  0  0
 24 50  1  0  0  0  0
 25 24  2  0  0  0  0
 25 29  1  0  0  0  0
 26 25  1  0  0  0  0
 27 28  1  0  0  0  0
 27 26  2  0  0  0  0
 28 23  2  0  0  0  0
 29 30  1  0  0  0  0
 30 31  1  0  0  0  0
 31 57  1  0  0  0  0
 31 32  1  0  0  0  0
 31 56  1  0  0  0  0
 32 58  1  0  0  0  0
 34 11  1  0  0  0  0
 34 63  1  0  0  0  0
 36  7  1  0  0  0  0
 41 15  1  0  0  0  0
 43 16  1  0  0  0  0
 45 17  1  0  0  0  0
 48 20  1  0  0  0  0
 49 20  1  0  0  0  0
 51 26  1  0  0  0  0
 52 27  1  0  0  0  0
 53 28  1  0  0  0  0
 54 30  1  0  0  0  0
 55 30  1  0  0  0  0
 59 32  1  0  0  0  0
 60 33  1  0  0  0  0
 61 34  1  0  0  0  0
 62 34  1  0  0  0  0
M  END
>  <Pose>
1

>  <Score>
-7.39

$$$$
