
 OpenBabel03202209423D

 39 42  0  0  0  0  0  0  0  0999 V2000
  -41.5770  -68.5980   54.8160 B   0  0  0  0  0  0  0  0  0  0  0  0
  -42.9050  -67.3590   54.2430 C   0  0  0  0  0  0  0  0  0  0  0  0
  -42.5840  -66.3220   53.4250 C   0  0  0  0  0  0  0  0  0  0  0  0
  -43.5050  -65.4560   53.0210 N   0  0  0  0  0  0  0  0  0  0  0  0
  -43.4290  -64.3810   52.2340 N   0  0  0  0  0  0  0  0  0  0  0  0
  -44.6560  -63.8450   52.1400 C   0  0  0  0  0  0  0  0  0  0  0  0
  -45.5380  -64.5940   52.8840 C   0  0  0  0  0  0  0  0  0  0  0  0
  -44.7730  -65.6160   53.4360 C   0  0  0  0  0  0  0  0  0  0  0  0
  -45.1070  -66.6350   54.2440 N   0  0  0  0  0  0  0  0  0  0  0  0
  -44.1970  -67.5180   54.6620 C   0  0  0  0  0  0  0  0  0  0  0  0
  -46.9530  -64.4040   53.0830 C   0  0  0  0  0  0  0  0  0  0  0  0
  -47.3570  -63.2480   53.4000 O   0  0  0  0  0  0  0  0  0  0  0  0
  -47.8670  -65.4780   52.9270 N   0  0  0  0  0  0  0  0  0  0  0  0
  -47.7900  -66.5780   53.9010 C   0  0  0  0  0  0  0  0  0  0  0  0
  -49.2000  -67.1680   53.9020 C   0  0  0  0  0  0  0  0  0  0  0  0
  -50.0910  -66.0510   53.7910 N   0  0  0  0  0  0  0  0  0  0  0  0
  -50.2800  -65.6160   52.3760 C   0  0  0  0  0  0  0  0  0  0  0  0
  -48.8470  -65.5050   51.8510 C   0  0  0  0  0  0  0  0  0  0  0  0
  -50.7230  -65.3450   54.8020 C   0  0  0  0  0  0  0  0  0  0  0  0
  -51.3560  -64.2630   54.4590 O   0  0  0  0  0  0  0  0  0  0  0  0
  -50.7940  -65.6240   56.2270 C   0  0  0  0  0  0  0  0  0  0  0  0
  -51.1270  -64.7230   57.1610 O   0  0  0  0  0  0  0  0  0  0  0  0
  -51.1110  -65.2270   58.3470 C   0  0  0  0  0  0  0  0  0  0  0  0
  -50.7520  -66.5500   58.2760 C   0  0  0  0  0  0  0  0  0  0  0  0
  -50.5540  -66.7830   56.9250 C   0  0  0  0  0  0  0  0  0  0  0  0
  -41.5500  -66.1940   53.0890 H   0  0  0  0  0  0  0  0  0  0  0  0
  -44.8840  -62.9590   51.5590 H   0  0  0  0  0  0  0  0  0  0  0  0
  -44.4340  -68.3490   55.3110 H   0  0  0  0  0  0  0  0  0  0  0  0
  -47.6170  -66.1650   54.8970 H   0  0  0  0  0  0  0  0  0  0  0  0
  -47.0700  -67.3230   53.5560 H   0  0  0  0  0  0  0  0  0  0  0  0
  -49.3940  -67.9040   54.6580 H   0  0  0  0  0  0  0  0  0  0  0  0
  -49.2590  -67.7780   52.9230 H   0  0  0  0  0  0  0  0  0  0  0  0
  -50.8230  -64.6690   52.3270 H   0  0  0  0  0  0  0  0  0  0  0  0
  -50.8210  -66.4600   51.9010 H   0  0  0  0  0  0  0  0  0  0  0  0
  -48.6110  -66.3270   51.1560 H   0  0  0  0  0  0  0  0  0  0  0  0
  -48.7770  -64.5380   51.3220 H   0  0  0  0  0  0  0  0  0  0  0  0
  -51.3430  -64.7110   59.2920 H   0  0  0  0  0  0  0  0  0  0  0  0
  -50.6400  -67.2720   59.0890 H   0  0  0  0  0  0  0  0  0  0  0  0
  -50.2460  -67.7470   56.5460 H   0  0  0  0  0  0  0  0  0  0  0  0
  2 10  1  0  0  0  0
  2  1  1  0  0  0  0
  3  2  2  0  0  0  0
  4  3  1  0  0  0  0
  4  8  1  0  0  0  0
  5  4  1  0  0  0  0
  6  5  2  0  0  0  0
  6  7  1  0  0  0  0
  7 11  1  0  0  0  0
  7  8  2  0  0  0  0
  8  9  1  0  0  0  0
  9 10  2  0  0  0  0
 10 28  1  0  0  0  0
 11 12  2  0  0  0  0
 13 11  1  0  0  0  0
 13 14  1  0  0  0  0
 14 15  1  0  0  0  0
 14 29  1  0  0  0  0
 15 31  1  0  0  0  0
 16 15  1  0  0  0  0
 16 19  1  0  0  0  0
 17 16  1  0  0  0  0
 18 17  1  0  0  0  0
 18 13  1  0  0  0  0
 19 21  1  0  0  0  0
 20 19  2  0  0  0  0
 21 25  2  0  0  0  0
 21 22  1  0  0  0  0
 22 23  1  0  0  0  0
 23 37  1  0  0  0  0
 24 23  2  0  0  0  0
 24 38  1  0  0  0  0
 25 24  1  0  0  0  0
 26  3  1  0  0  0  0
 27  6  1  0  0  0  0
 30 14  1  0  0  0  0
 32 15  1  0  0  0  0
 33 17  1  0  0  0  0
 34 17  1  0  0  0  0
 35 18  1  0  0  0  0
 36 18  1  0  0  0  0
 39 25  1  0  0  0  0
M  END
>  <Pose>
1

>  <Score>
-5.15

$$$$
