
 OpenBabel03202209423D

 47 50  0  0  0  0  0  0  0  0999 V2000
  -45.4110  -64.4610   52.6590 B   0  0  0  0  0  0  0  0  0  0  0  0
  -43.7990  -65.4510   52.4840 C   0  0  0  0  0  0  0  0  0  0  0  0
  -43.4030  -66.3900   53.3710 C   0  0  0  0  0  0  0  0  0  0  0  0
  -42.3160  -67.1500   53.2100 N   0  0  0  0  0  0  0  0  0  0  0  0
  -41.5780  -66.9750   52.1140 C   0  0  0  0  0  0  0  0  0  0  0  0
  -40.4610  -67.7340   51.9320 N   0  0  0  0  0  0  0  0  0  0  0  0
  -40.0580  -68.6510   52.8000 C   0  0  0  0  0  0  0  0  0  0  0  0
  -40.8030  -68.8510   53.9400 C   0  0  0  0  0  0  0  0  0  0  0  0
  -40.4320  -69.7860   54.8850 C   0  0  0  0  0  0  0  0  0  0  0  0
  -39.2910  -70.5770   54.7410 C   0  0  0  0  0  0  0  0  0  0  0  0
  -38.5530  -70.3680   53.5960 C   0  0  0  0  0  0  0  0  0  0  0  0
  -38.9220  -69.4320   52.6460 C   0  0  0  0  0  0  0  0  0  0  0  0
  -41.9400  -68.0690   54.1060 C   0  0  0  0  0  0  0  0  0  0  0  0
  -42.6250  -68.2400   55.1390 O   0  0  0  0  0  0  0  0  0  0  0  0
  -41.9530  -66.0400   51.2100 N   0  0  0  0  0  0  0  0  0  0  0  0
  -43.0130  -65.2490   51.3010 C   0  0  0  0  0  0  0  0  0  0  0  0
  -43.3900  -64.2240   50.4930 N   0  0  0  0  0  0  0  0  0  0  0  0
  -43.7620  -63.2140   49.6960 C   0  0  0  0  0  0  0  0  0  0  0  0
  -42.9050  -62.7920   48.6710 C   0  0  0  0  0  0  0  0  0  0  0  0
  -43.1390  -61.6340   48.0040 C   0  0  0  0  0  0  0  0  0  0  0  0
  -44.2250  -60.8550   48.3190 C   0  0  0  0  0  0  0  0  0  0  0  0
  -45.1090  -61.2170   49.3110 C   0  0  0  0  0  0  0  0  0  0  0  0
  -44.8500  -62.3940   49.9750 C   0  0  0  0  0  0  0  0  0  0  0  0
  -41.8160  -63.6420   48.1740 C   0  0  0  0  0  0  0  0  0  0  0  0
  -41.7750  -63.8740   46.9390 O   0  0  0  0  0  0  0  0  0  0  0  0
  -40.8410  -64.2110   48.9410 O   0  0  0  0  0  0  0  0  0  0  0  0
  -39.6980  -64.8350   48.3890 C   0  0  0  0  0  0  0  0  0  0  0  0
  -39.6390  -66.3050   48.8150 C   0  0  0  0  0  0  0  0  0  0  0  0
  -38.2830  -66.5790   49.4200 C   0  0  0  0  0  0  0  0  0  0  0  0
  -43.9900  -66.5500   54.2750 H   0  0  0  0  0  0  0  0  0  0  0  0
  -41.0540  -69.8940   55.7470 H   0  0  0  0  0  0  0  0  0  0  0  0
  -39.0170  -71.3070   55.4960 H   0  0  0  0  0  0  0  0  0  0  0  0
  -37.6560  -70.9660   53.4500 H   0  0  0  0  0  0  0  0  0  0  0  0
  -38.3520  -69.2570   51.7470 H   0  0  0  0  0  0  0  0  0  0  0  0
  -41.2790  -66.0000   50.3780 H   0  0  0  0  0  0  0  0  0  0  0  0
  -43.8210  -65.0840   49.5220 H   0  0  0  0  0  0  0  0  0  0  0  0
  -42.4850  -61.2680   47.1950 H   0  0  0  0  0  0  0  0  0  0  0  0
  -44.3780  -59.9350   47.7740 H   0  0  0  0  0  0  0  0  0  0  0  0
  -45.9430  -60.5640   49.5100 H   0  0  0  0  0  0  0  0  0  0  0  0
  -45.5560  -62.6550   50.7520 H   0  0  0  0  0  0  0  0  0  0  0  0
  -39.6750  -64.8430   47.2850 H   0  0  0  0  0  0  0  0  0  0  0  0
  -38.7580  -64.3600   48.7440 H   0  0  0  0  0  0  0  0  0  0  0  0
  -40.4130  -66.5300   49.5740 H   0  0  0  0  0  0  0  0  0  0  0  0
  -39.7530  -66.9700   47.9260 H   0  0  0  0  0  0  0  0  0  0  0  0
  -37.6180  -67.0390   48.6680 H   0  0  0  0  0  0  0  0  0  0  0  0
  -37.8040  -65.6280   49.7750 H   0  0  0  0  0  0  0  0  0  0  0  0
  -38.3670  -67.2950   50.2630 H   0  0  0  0  0  0  0  0  0  0  0  0
  2  1  1  0  0  0  0
  2  3  1  0  0  0  0
  3 30  1  0  0  0  0
  4  3  1  0  0  0  0
  4 13  1  0  0  0  0
  5  4  1  0  0  0  0
  6  5  2  0  0  0  0
  6  7  1  0  0  0  0
  7  8  1  0  0  0  0
  8 13  1  0  0  0  0
  8  9  2  0  0  0  0
  9 31  1  0  0  0  0
 10  9  1  0  0  0  0
 10 32  1  0  0  0  0
 11 10  2  0  0  0  0
 12  7  2  0  0  0  0
 12 11  1  0  0  0  0
 13 14  2  0  0  0  0
 15 16  1  0  0  0  0
 15  5  1  0  0  0  0
 16  2  2  0  0  0  0
 17 16  1  0  0  0  0
 18 23  1  0  0  0  0
 18 17  1  0  0  0  0
 19 18  2  0  0  0  0
 20 21  2  0  0  0  0
 20 19  1  0  0  0  0
 21 22  1  0  0  0  0
 22 39  1  0  0  0  0
 22 23  2  0  0  0  0
 23 40  1  0  0  0  0
 24 19  1  0  0  0  0
 24 26  1  0  0  0  0
 25 24  2  0  0  0  0
 27 42  1  0  0  0  0
 27 28  1  0  0  0  0
 27 26  1  0  0  0  0
 28 29  1  0  0  0  0
 28 43  1  0  0  0  0
 29 46  1  0  0  0  0
 29 47  1  0  0  0  0
 33 11  1  0  0  0  0
 34 12  1  0  0  0  0
 35 15  1  0  0  0  0
 36 17  1  0  0  0  0
 37 20  1  0  0  0  0
 38 21  1  0  0  0  0
 41 27  1  0  0  0  0
 44 28  1  0  0  0  0
 45 29  1  0  0  0  0
M  END
>  <Pose>
1

>  <Score>
-7.55

$$$$
