
 OpenBabel03202209423D

 50 53  0  0  1  0  0  0  0  0999 V2000
  -50.9660  -70.0290   53.0030 B   0  0  0  0  0  0  0  0  0  0  0  0
  -49.8850  -68.4560   53.1500 C   0  0  0  0  0  0  0  0  0  0  0  0
  -49.1730  -68.2320   54.3050 C   0  0  0  0  0  0  0  0  0  0  0  0
  -48.3770  -67.0940   54.4420 C   0  0  0  0  0  0  0  0  0  0  0  0
  -48.3450  -66.2080   53.3620 C   0  0  0  0  0  0  0  0  0  0  0  0
  -49.0460  -66.4190   52.2170 C   0  0  0  0  0  0  0  0  0  0  0  0
  -49.8300  -67.5540   52.1000 C   0  0  0  0  0  0  0  0  0  0  0  0
  -47.4800  -65.0150   53.4610 C   0  0  1  0  0  0  0  0  0  0  0  0
  -46.1090  -65.3450   53.0980 N   0  0  0  0  0  0  0  0  0  0  0  0
  -45.5260  -66.6600   53.3410 C   0  0  0  0  0  0  0  0  0  0  0  0
  -44.0510  -66.6850   53.1790 C   0  0  0  0  0  0  0  0  0  0  0  0
  -43.3280  -65.6160   53.9570 C   0  0  0  0  0  0  0  0  0  0  0  0
  -43.0870  -64.4800   52.9810 C   0  0  0  0  0  0  0  0  0  0  0  0
  -44.2610  -63.8300   52.4770 C   0  0  0  0  0  0  0  0  0  0  0  0
  -45.5620  -64.1990   52.5260 C   0  0  0  0  0  0  0  0  0  0  0  0
  -46.5610  -63.3960   51.9410 N   0  0  0  0  0  4  0  0  0  0  0  0
  -47.7750  -63.9720   52.4410 C   0  0  0  0  0  0  0  0  0  0  0  0
  -46.4220  -63.5580   50.5290 C   0  0  0  0  0  0  0  0  0  0  0  0
  -45.6910  -62.6510   49.7800 C   0  0  0  0  0  0  0  0  0  0  0  0
  -45.6810  -62.8530   48.4060 C   0  0  0  0  0  0  0  0  0  0  0  0
  -46.3460  -63.8840   47.7690 C   0  0  0  0  0  0  0  0  0  0  0  0
  -47.0770  -64.7840   48.5740 C   0  0  0  0  0  0  0  0  0  0  0  0
  -47.0770  -64.5770   49.9060 C   0  0  0  0  0  0  0  0  0  0  0  0
  -45.0300  -61.6320   50.3970 O   0  0  0  0  0  0  0  0  0  0  0  0
  -44.8570  -60.3850   49.7770 C   0  0  0  0  0  0  0  0  0  0  0  0
  -47.4620  -64.5520   54.7510 O   0  0  0  0  0  0  0  0  0  0  0  0
  -49.1970  -68.9290   55.1460 H   0  0  0  0  0  0  0  0  0  0  0  0
  -47.8250  -66.9780   55.3550 H   0  0  0  0  0  0  0  0  0  0  0  0
  -49.0110  -65.7100   51.3710 H   0  0  0  0  0  0  0  0  0  0  0  0
  -50.3980  -67.7160   51.1720 H   0  0  0  0  0  0  0  0  0  0  0  0
  -45.7630  -66.9270   54.3950 H   0  0  0  0  0  0  0  0  0  0  0  0
  -45.9220  -67.4100   52.6020 H   0  0  0  0  0  0  0  0  0  0  0  0
  -43.6740  -67.6650   53.5850 H   0  0  0  0  0  0  0  0  0  0  0  0
  -43.8220  -66.6650   52.0930 H   0  0  0  0  0  0  0  0  0  0  0  0
  -42.2890  -65.9800   54.2570 H   0  0  0  0  0  0  0  0  0  0  0  0
  -43.9030  -65.2580   54.8340 H   0  0  0  0  0  0  0  0  0  0  0  0
  -42.4780  -64.9250   52.1300 H   0  0  0  0  0  0  0  0  0  0  0  0
  -42.4120  -63.7400   53.4930 H   0  0  0  0  0  0  0  0  0  0  0  0
  -44.0940  -62.8860   51.9820 H   0  0  0  0  0  0  0  0  0  0  0  0
  -46.5270  -62.3890   52.2220 H   0  0  0  0  0  0  0  0  0  0  0  0
  -48.4410  -64.3400   51.6280 H   0  0  0  0  0  0  0  0  0  0  0  0
  -48.3620  -63.1730   52.9230 H   0  0  0  0  0  0  0  0  0  0  0  0
  -45.1050  -62.1230   47.8410 H   0  0  0  0  0  0  0  0  0  0  0  0
  -46.3290  -64.0320   46.7040 H   0  0  0  0  0  0  0  0  0  0  0  0
  -47.6010  -65.5770   48.0920 H   0  0  0  0  0  0  0  0  0  0  0  0
  -47.6840  -65.3070   50.4810 H   0  0  0  0  0  0  0  0  0  0  0  0
  -44.4650  -60.5390   48.7470 H   0  0  0  0  0  0  0  0  0  0  0  0
  -45.8330  -59.8830   49.7360 H   0  0  0  0  0  0  0  0  0  0  0  0
  -44.1080  -59.7910   50.3850 H   0  0  0  0  0  0  0  0  0  0  0  0
  -47.3680  -63.5800   54.8290 H   0  0  0  0  0  0  0  0  0  0  0  0
  1  2  1  0  0  0  0
  2  3  1  0  0  0  0
  3  4  2  0  0  0  0
  3 27  1  0  0  0  0
  4 28  1  0  0  0  0
  5  8  1  0  0  0  0
  5  4  1  0  0  0  0
  6  5  2  0  0  0  0
  7  6  1  0  0  0  0
  7  2  2  0  0  0  0
  8 26  1  1  0  0  0
  9 10  1  0  0  0  0
  9  8  1  0  0  0  0
 10 31  1  0  0  0  0
 11 10  1  0  0  0  0
 11 33  1  0  0  0  0
 11 12  1  0  0  0  0
 12 35  1  0  0  0  0
 12 36  1  0  0  0  0
 13 38  1  0  0  0  0
 13 12  1  0  0  0  0
 14 15  2  0  0  0  0
 14 13  1  0  0  0  0
 15  9  1  0  0  0  0
 16 40  1  0  0  0  0
 16 17  1  0  0  0  0
 16 15  1  0  0  0  0
 17 42  1  0  0  0  0
 17  8  1  0  0  0  0
 18 16  1  0  0  0  0
 19 24  1  0  0  0  0
 19 18  2  0  0  0  0
 20 19  1  0  0  0  0
 21 20  2  0  0  0  0
 21 22  1  0  0  0  0
 22 23  2  0  0  0  0
 23 46  1  0  0  0  0
 23 18  1  0  0  0  0
 25 49  1  0  0  0  0
 25 24  1  0  0  0  0
 26 50  1  0  0  0  0
 29  6  1  0  0  0  0
 30  7  1  0  0  0  0
 32 10  1  0  0  0  0
 34 11  1  0  0  0  0
 37 13  1  0  0  0  0
 39 14  1  0  0  0  0
 41 17  1  0  0  0  0
 43 20  1  0  0  0  0
 44 21  1  0  0  0  0
 45 22  1  0  0  0  0
 47 25  1  0  0  0  0
 48 25  1  0  0  0  0
M  END
>  <Pose>
1

>  <Score>
-4.25

$$$$
