
 OpenBabel03202209423D

 50 53  0  0  1  0  0  0  0  0999 V2000
  -41.3720  -69.3340   54.7700 B   0  0  0  0  0  0  0  0  0  0  0  0
  -40.8320  -68.2700   53.2740 C   0  0  0  0  0  0  0  0  0  0  0  0
  -39.9310  -68.7500   52.3470 C   0  0  0  0  0  0  0  0  0  0  0  0
  -39.5490  -67.9590   51.2700 C   0  0  0  0  0  0  0  0  0  0  0  0
  -40.0340  -66.7080   51.0840 C   0  0  0  0  0  0  0  0  0  0  0  0
  -40.9550  -66.2120   52.0300 C   0  0  0  0  0  0  0  0  0  0  0  0
  -41.3260  -67.0010   53.0890 C   0  0  0  0  0  0  0  0  0  0  0  0
  -39.7220  -65.7700   50.0080 C   0  0  2  0  0  0  0  0  0  0  0  0
  -38.4240  -65.8380   49.4170 N   0  0  0  0  0  0  0  0  0  0  0  0
  -37.8190  -66.9460   48.7450 C   0  0  0  0  0  0  0  0  0  0  0  0
  -36.4210  -67.2770   49.0980 C   0  0  0  0  0  0  0  0  0  0  0  0
  -35.7420  -66.4010   50.0880 C   0  0  0  0  0  0  0  0  0  0  0  0
  -35.3860  -65.0340   49.5010 C   0  0  0  0  0  0  0  0  0  0  0  0
  -36.5950  -64.1700   49.6710 C   0  0  0  0  0  0  0  0  0  0  0  0
  -37.8720  -64.5110   49.6350 C   0  0  0  0  0  0  0  0  0  0  0  0
  -38.9470  -63.5990   49.8290 N   0  0  0  0  0  4  0  0  0  0  0  0
  -39.8080  -64.3860   50.6600 C   0  0  0  0  0  0  0  0  0  0  0  0
  -39.5070  -63.2760   48.5830 C   0  0  0  0  0  0  0  0  0  0  0  0
  -40.6600  -62.4740   48.4970 C   0  0  0  0  0  0  0  0  0  0  0  0
  -41.2320  -62.1450   47.2980 C   0  0  0  0  0  0  0  0  0  0  0  0
  -40.6930  -62.5910   46.1100 C   0  0  0  0  0  0  0  0  0  0  0  0
  -39.5690  -63.3740   46.1680 C   0  0  0  0  0  0  0  0  0  0  0  0
  -38.9930  -63.7060   47.3770 C   0  0  0  0  0  0  0  0  0  0  0  0
  -41.2880  -62.2470   44.8820 O   0  0  0  0  0  0  0  0  0  0  0  0
  -42.4300  -62.9320   44.4390 C   0  0  0  0  0  0  0  0  0  0  0  0
  -40.7510  -65.9180   49.0580 O   0  0  0  0  0  0  0  0  0  0  0  0
  -39.5050  -69.7280   52.4320 H   0  0  0  0  0  0  0  0  0  0  0  0
  -38.8400  -68.3330   50.5500 H   0  0  0  0  0  0  0  0  0  0  0  0
  -41.3830  -65.2130   51.9370 H   0  0  0  0  0  0  0  0  0  0  0  0
  -42.0310  -66.6370   53.8250 H   0  0  0  0  0  0  0  0  0  0  0  0
  -38.5160  -67.8270   48.8620 H   0  0  0  0  0  0  0  0  0  0  0  0
  -37.8250  -66.8070   47.6140 H   0  0  0  0  0  0  0  0  0  0  0  0
  -35.7340  -67.3870   48.2220 H   0  0  0  0  0  0  0  0  0  0  0  0
  -36.4220  -68.3140   49.5560 H   0  0  0  0  0  0  0  0  0  0  0  0
  -36.3140  -66.2820   51.0350 H   0  0  0  0  0  0  0  0  0  0  0  0
  -34.7730  -66.8710   50.3630 H   0  0  0  0  0  0  0  0  0  0  0  0
  -34.5890  -64.6210   50.1840 H   0  0  0  0  0  0  0  0  0  0  0  0
  -35.0690  -65.1370   48.4670 H   0  0  0  0  0  0  0  0  0  0  0  0
  -36.3880  -63.1210   49.8460 H   0  0  0  0  0  0  0  0  0  0  0  0
  -38.5650  -62.7560   50.3280 H   0  0  0  0  0  0  0  0  0  0  0  0
  -40.8160  -64.0220   50.7960 H   0  0  0  0  0  0  0  0  0  0  0  0
  -39.3230  -64.4620   51.6660 H   0  0  0  0  0  0  0  0  0  0  0  0
  -41.0490  -62.1480   49.4360 H   0  0  0  0  0  0  0  0  0  0  0  0
  -42.1180  -61.5270   47.2470 H   0  0  0  0  0  0  0  0  0  0  0  0
  -39.1350  -63.7300   45.2200 H   0  0  0  0  0  0  0  0  0  0  0  0
  -38.0920  -64.3320   47.3670 H   0  0  0  0  0  0  0  0  0  0  0  0
  -43.2080  -63.0360   45.2220 H   0  0  0  0  0  0  0  0  0  0  0  0
  -42.1180  -63.9300   44.0590 H   0  0  0  0  0  0  0  0  0  0  0  0
  -42.8980  -62.3900   43.5990 H   0  0  0  0  0  0  0  0  0  0  0  0
  -41.4490  -66.4510   49.5180 H   0  0  0  0  0  0  0  0  0  0  0  0
  2  1  1  0  0  0  0
  3 27  1  0  0  0  0
  3  2  2  0  0  0  0
  4  3  1  0  0  0  0
  5  4  2  0  0  0  0
  5  6  1  0  0  0  0
  6  7  2  0  0  0  0
  7  2  1  0  0  0  0
  7 30  1  0  0  0  0
  8 26  1  6  0  0  0
  8 17  1  0  0  0  0
  8  5  1  0  0  0  0
  9 15  1  0  0  0  0
  9  8  1  0  0  0  0
 10 31  1  0  0  0  0
 10 11  1  0  0  0  0
 10  9  1  0  0  0  0
 11 34  1  0  0  0  0
 11 12  1  0  0  0  0
 12 36  1  0  0  0  0
 12 35  1  0  0  0  0
 13 14  1  0  0  0  0
 13 12  1  0  0  0  0
 13 37  1  0  0  0  0
 14 39  1  0  0  0  0
 15 14  2  0  0  0  0
 15 16  1  0  0  0  0
 16 40  1  0  0  0  0
 16 17  1  0  0  0  0
 17 41  1  0  0  0  0
 17 42  1  0  0  0  0
 18 16  1  0  0  0  0
 19 18  1  0  0  0  0
 19 43  1  0  0  0  0
 20 19  2  0  0  0  0
 21 22  2  0  0  0  0
 21 20  1  0  0  0  0
 22 23  1  0  0  0  0
 23 18  2  0  0  0  0
 24 21  1  0  0  0  0
 25 24  1  0  0  0  0
 25 47  1  0  0  0  0
 26 50  1  0  0  0  0
 28  4  1  0  0  0  0
 29  6  1  0  0  0  0
 32 10  1  0  0  0  0
 33 11  1  0  0  0  0
 38 13  1  0  0  0  0
 44 20  1  0  0  0  0
 45 22  1  0  0  0  0
 46 23  1  0  0  0  0
 48 25  1  0  0  0  0
 49 25  1  0  0  0  0
M  END
>  <Pose>
1

>  <Score>
-5.42

$$$$
