
 OpenBabel03202209423D

 53 56  0  0  1  0  0  0  0  0999 V2000
  -45.2240  -60.6040   46.4450 B   0  0  0  0  0  0  0  0  0  0  0  0
  -44.5620  -61.8600   47.7320 C   0  0  0  0  0  0  0  0  0  0  0  0
  -43.3310  -62.4580   47.5830 C   0  0  0  0  0  0  0  0  0  0  0  0
  -42.8710  -63.3770   48.5150 C   0  0  0  0  0  0  0  0  0  0  0  0
  -43.6180  -63.7380   49.6350 C   0  0  0  0  0  0  0  0  0  0  0  0
  -44.8280  -63.1170   49.7360 C   0  0  0  0  0  0  0  0  0  0  0  0
  -45.3150  -62.1920   48.8160 C   0  0  0  0  0  0  0  0  0  0  0  0
  -43.1140  -64.6770   50.5090 N   0  0  0  0  0  4  0  0  0  0  0  0
  -43.0960  -64.3540   51.9050 C   0  0  1  0  0  0  0  0  0  0  0  0
  -41.8760  -63.4340   51.9440 C   0  0  0  0  0  0  0  0  0  0  0  0
  -40.9400  -64.0900   51.0170 N   0  0  0  0  0  0  0  0  0  0  0  0
  -39.5510  -63.7980   51.0560 C   0  0  0  0  0  0  0  0  0  0  0  0
  -38.7120  -64.5860   50.0950 C   0  0  0  0  0  0  0  0  0  0  0  0
  -39.0460  -66.0470   50.2230 C   0  0  0  0  0  0  0  0  0  0  0  0
  -39.9930  -66.3440   49.0520 C   0  0  0  0  0  0  0  0  0  0  0  0
  -41.3570  -65.9260   49.4340 C   0  0  0  0  0  0  0  0  0  0  0  0
  -41.7530  -64.9660   50.2390 C   0  0  0  0  0  0  0  0  0  0  0  0
  -44.2310  -63.8430   52.4500 O   0  0  0  0  0  0  0  0  0  0  0  0
  -42.7200  -65.5290   52.7430 C   0  0  0  0  0  0  0  0  0  0  0  0
  -41.7110  -66.4010   52.4630 C   0  0  0  0  0  0  0  0  0  0  0  0
  -41.4020  -67.4910   53.3040 C   0  0  0  0  0  0  0  0  0  0  0  0
  -42.1170  -67.7180   54.4540 C   0  0  0  0  0  0  0  0  0  0  0  0
  -43.1380  -66.8450   54.7470 C   0  0  0  0  0  0  0  0  0  0  0  0
  -43.4370  -65.7840   53.9230 C   0  0  0  0  0  0  0  0  0  0  0  0
  -41.8150  -68.7980   55.3010 O   0  0  0  0  0  0  0  0  0  0  0  0
  -41.1900  -69.9620   54.8150 C   0  0  0  0  0  0  0  0  0  0  0  0
  -39.7140  -69.7910   54.6380 C   0  0  0  0  0  0  0  0  0  0  0  0
  -42.7640  -62.1650   46.7100 H   0  0  0  0  0  0  0  0  0  0  0  0
  -41.8980  -63.7960   48.3200 H   0  0  0  0  0  0  0  0  0  0  0  0
  -45.4780  -63.3250   50.5450 H   0  0  0  0  0  0  0  0  0  0  0  0
  -46.3100  -61.7420   48.9850 H   0  0  0  0  0  0  0  0  0  0  0  0
  -43.7470  -65.5300   50.4000 H   0  0  0  0  0  0  0  0  0  0  0  0
  -42.0580  -62.4060   51.6930 H   0  0  0  0  0  0  0  0  0  0  0  0
  -41.3500  -63.4440   52.9100 H   0  0  0  0  0  0  0  0  0  0  0  0
  -39.4000  -62.7220   50.8290 H   0  0  0  0  0  0  0  0  0  0  0  0
  -39.1660  -64.0440   52.0980 H   0  0  0  0  0  0  0  0  0  0  0  0
  -38.8990  -64.1860   49.0780 H   0  0  0  0  0  0  0  0  0  0  0  0
  -37.6580  -64.4650   50.4070 H   0  0  0  0  0  0  0  0  0  0  0  0
  -38.1750  -66.7190   50.1860 H   0  0  0  0  0  0  0  0  0  0  0  0
  -39.6250  -66.2970   51.1360 H   0  0  0  0  0  0  0  0  0  0  0  0
  -39.6950  -65.7920   48.1390 H   0  0  0  0  0  0  0  0  0  0  0  0
  -39.9150  -67.4290   48.8230 H   0  0  0  0  0  0  0  0  0  0  0  0
  -42.1210  -66.5380   48.9940 H   0  0  0  0  0  0  0  0  0  0  0  0
  -44.4570  -62.9540   52.1200 H   0  0  0  0  0  0  0  0  0  0  0  0
  -41.1360  -66.2720   51.5680 H   0  0  0  0  0  0  0  0  0  0  0  0
  -40.5880  -68.1460   53.0200 H   0  0  0  0  0  0  0  0  0  0  0  0
  -43.6900  -67.0480   55.6770 H   0  0  0  0  0  0  0  0  0  0  0  0
  -44.2540  -65.1080   54.1670 H   0  0  0  0  0  0  0  0  0  0  0  0
  -41.6300  -70.1460   53.7880 H   0  0  0  0  0  0  0  0  0  0  0  0
  -41.4640  -70.8840   55.3810 H   0  0  0  0  0  0  0  0  0  0  0  0
  -39.4080  -68.7200   54.7100 H   0  0  0  0  0  0  0  0  0  0  0  0
  -39.3170  -70.1960   53.6860 H   0  0  0  0  0  0  0  0  0  0  0  0
  -39.2090  -70.4140   55.4330 H   0  0  0  0  0  0  0  0  0  0  0  0
  1  2  1  0  0  0  0
  2  7  1  0  0  0  0
  3  2  2  0  0  0  0
  3  4  1  0  0  0  0
  4  5  2  0  0  0  0
  5  6  1  0  0  0  0
  5  8  1  0  0  0  0
  6 30  1  0  0  0  0
  7 31  1  0  0  0  0
  7  6  2  0  0  0  0
  8  9  1  0  0  0  0
  9 10  1  0  0  0  0
  9 18  1  1  0  0  0
  9 19  1  0  0  0  0
 10 34  1  0  0  0  0
 11 12  1  0  0  0  0
 11 10  1  0  0  0  0
 12 36  1  0  0  0  0
 13 14  1  0  0  0  0
 13 38  1  0  0  0  0
 13 12  1  0  0  0  0
 14 40  1  0  0  0  0
 15 16  1  0  0  0  0
 15 14  1  0  0  0  0
 16 17  2  0  0  0  0
 17  8  1  0  0  0  0
 17 11  1  0  0  0  0
 19 24  1  0  0  0  0
 20 19  2  0  0  0  0
 20 21  1  0  0  0  0
 21 22  2  0  0  0  0
 22 23  1  0  0  0  0
 22 25  1  0  0  0  0
 23 47  1  0  0  0  0
 24 48  1  0  0  0  0
 24 23  2  0  0  0  0
 26 25  1  0  0  0  0
 26 50  1  0  0  0  0
 27 51  1  0  0  0  0
 27 26  1  0  0  0  0
 27 53  1  0  0  0  0
 28  3  1  0  0  0  0
 29  4  1  0  0  0  0
 32  8  1  0  0  0  0
 33 10  1  0  0  0  0
 35 12  1  0  0  0  0
 37 13  1  0  0  0  0
 39 14  1  0  0  0  0
 41 15  1  0  0  0  0
 42 15  1  0  0  0  0
 43 16  1  0  0  0  0
 44 18  1  0  0  0  0
 45 20  1  0  0  0  0
 46 21  1  0  0  0  0
 49 26  1  0  0  0  0
 52 27  1  0  0  0  0
M  END
>  <Pose>
1

>  <Score>
-3.96

$$$$
