
 OpenBabel03202209423D

 66 69  0  0  1  0  0  0  0  0999 V2000
  -43.9340  -67.1800   54.4670 B   0  0  0  0  0  0  0  0  0  0  0  0
  -44.9090  -65.9320   53.3880 C   0  0  0  0  0  0  0  0  0  0  0  0
  -46.2380  -65.6950   53.6480 C   0  0  0  0  0  0  0  0  0  0  0  0
  -46.9890  -64.7880   52.8810 C   0  0  0  0  0  0  0  0  0  0  0  0
  -46.3220  -64.1510   51.8570 C   0  0  0  0  0  0  0  0  0  0  0  0
  -44.9910  -64.3710   51.5740 C   0  0  0  0  0  0  0  0  0  0  0  0
  -44.2770  -65.2640   52.3400 C   0  0  0  0  0  0  0  0  0  0  0  0
  -42.8400  -65.5690   52.1160 C   0  0  0  0  0  0  0  0  0  0  0  0
  -44.0950  -63.4740   50.1490 B   0  0  0  0  0  0  0  0  0  0  0  0
  -48.3870  -64.5710   53.1880 C   0  0  0  0  0  0  0  0  0  0  0  0
  -49.0280  -63.7010   52.5880 O   0  0  0  0  0  0  0  0  0  0  0  0
  -49.0390  -65.3940   54.2210 C   0  0  1  0  0  0  0  0  0  0  0  0
  -47.9930  -65.7070   55.2690 C   0  0  0  0  0  0  0  0  0  0  0  0
  -46.8760  -66.3570   54.6920 O   0  0  0  0  0  0  0  0  0  0  0  0
  -50.2520  -64.7550   54.8250 C   0  0  0  0  0  0  0  0  0  0  0  0
  -50.0410  -63.5250   55.4860 N   0  0  0  0  0  4  0  0  0  0  0  0
  -50.6970  -62.4680   54.7750 C   0  0  0  0  0  0  0  0  0  0  0  0
  -52.1820  -62.4770   54.8530 C   0  0  2  0  0  0  0  0  0  0  0  0
  -52.7930  -63.4230   55.8130 C   0  0  0  0  0  0  0  0  0  0  0  0
  -51.9420  -63.8750   56.9350 C   0  0  0  0  0  0  0  0  0  0  0  0
  -50.5030  -63.4590   56.8450 C   0  0  0  0  0  0  0  0  0  0  0  0
  -52.7170  -62.8210   53.4590 C   0  0  0  0  0  0  0  0  0  0  0  0
  -49.4220  -66.6920   53.5400 C   0  0  0  0  0  0  0  0  0  0  0  0
  -49.4990  -67.8280   54.3930 N   0  0  0  0  0  4  0  0  0  0  0  0
  -49.4130  -69.0580   53.6080 C   0  0  0  0  0  0  0  0  0  0  0  0
  -50.7530  -69.6940   53.3840 C   0  0  1  0  0  0  0  0  0  0  0  0
  -51.7750  -68.6260   53.0670 C   0  0  0  0  0  0  0  0  0  0  0  0
  -51.9600  -67.7920   54.2970 C   0  0  0  0  0  0  0  0  0  0  0  0
  -50.7260  -67.9170   55.1550 C   0  0  0  0  0  0  0  0  0  0  0  0
  -50.6320  -70.5620   52.1240 C   0  0  0  0  0  0  0  0  0  0  0  0
  -46.8550  -63.4390   51.2320 H   0  0  0  0  0  0  0  0  0  0  0  0
  -42.2800  -65.2490   53.0230 H   0  0  0  0  0  0  0  0  0  0  0  0
  -42.4510  -65.1470   51.1880 H   0  0  0  0  0  0  0  0  0  0  0  0
  -42.7640  -66.6930   52.1120 H   0  0  0  0  0  0  0  0  0  0  0  0
  -47.6160  -64.7890   55.7450 H   0  0  0  0  0  0  0  0  0  0  0  0
  -48.4280  -66.3200   56.1060 H   0  0  0  0  0  0  0  0  0  0  0  0
  -50.9590  -64.5800   53.9870 H   0  0  0  0  0  0  0  0  0  0  0  0
  -50.7440  -65.5060   55.4770 H   0  0  0  0  0  0  0  0  0  0  0  0
  -49.0150  -63.2960   55.5020 H   0  0  0  0  0  0  0  0  0  0  0  0
  -50.2810  -61.5020   55.1900 H   0  0  0  0  0  0  0  0  0  0  0  0
  -50.3380  -62.4920   53.7250 H   0  0  0  0  0  0  0  0  0  0  0  0
  -52.5270  -61.4340   55.0420 H   0  0  0  0  0  0  0  0  0  0  0  0
  -53.7090  -62.9270   56.2480 H   0  0  0  0  0  0  0  0  0  0  0  0
  -53.2190  -64.3300   55.2880 H   0  0  0  0  0  0  0  0  0  0  0  0
  -51.9930  -64.9960   57.0710 H   0  0  0  0  0  0  0  0  0  0  0  0
  -52.3150  -63.4830   57.9280 H   0  0  0  0  0  0  0  0  0  0  0  0
  -49.9050  -63.9720   57.5870 H   0  0  0  0  0  0  0  0  0  0  0  0
  -50.4790  -62.3630   57.1270 H   0  0  0  0  0  0  0  0  0  0  0  0
  -53.6880  -62.2990   53.2700 H   0  0  0  0  0  0  0  0  0  0  0  0
  -51.9520  -62.5980   52.7040 H   0  0  0  0  0  0  0  0  0  0  0  0
  -52.9050  -63.9110   53.4370 H   0  0  0  0  0  0  0  0  0  0  0  0
  -48.6240  -66.8700   52.7640 H   0  0  0  0  0  0  0  0  0  0  0  0
  -50.3540  -66.5300   52.9290 H   0  0  0  0  0  0  0  0  0  0  0  0
  -48.7100  -67.8450   55.0450 H   0  0  0  0  0  0  0  0  0  0  0  0
  -48.7450  -69.7980   54.0790 H   0  0  0  0  0  0  0  0  0  0  0  0
  -48.9880  -68.8450   52.5910 H   0  0  0  0  0  0  0  0  0  0  0  0
  -51.0690  -70.3720   54.1880 H   0  0  0  0  0  0  0  0  0  0  0  0
  -52.7110  -69.1460   52.7820 H   0  0  0  0  0  0  0  0  0  0  0  0
  -51.4190  -68.0630   52.1990 H   0  0  0  0  0  0  0  0  0  0  0  0
  -52.2310  -66.7540   54.1210 H   0  0  0  0  0  0  0  0  0  0  0  0
  -52.8000  -68.2420   54.8990 H   0  0  0  0  0  0  0  0  0  0  0  0
  -50.7110  -68.9380   55.6360 H   0  0  0  0  0  0  0  0  0  0  0  0
  -50.8170  -67.2040   55.9750 H   0  0  0  0  0  0  0  0  0  0  0  0
  -49.5860  -70.9310   52.0190 H   0  0  0  0  0  0  0  0  0  0  0  0
  -50.9680  -70.0070   51.2220 H   0  0  0  0  0  0  0  0  0  0  0  0
  -51.2860  -71.4560   52.1970 H   0  0  0  0  0  0  0  0  0  0  0  0
  2  3  1  0  0  0  0
  2  1  1  0  0  0  0
  3 14  1  0  0  0  0
  4 10  1  0  0  0  0
  4  3  2  0  0  0  0
  5  4  1  0  0  0  0
  6  5  2  0  0  0  0
  6  7  1  0  0  0  0
  7  2  2  0  0  0  0
  8  7  1  0  0  0  0
  8 32  1  0  0  0  0
  9  6  1  0  0  0  0
 10 12  1  0  0  0  0
 11 10  2  0  0  0  0
 12 23  1  6  0  0  0
 12 15  1  0  0  0  0
 12 13  1  0  0  0  0
 13 35  1  0  0  0  0
 13 36  1  0  0  0  0
 14 13  1  0  0  0  0
 15 38  1  0  0  0  0
 15 16  1  0  0  0  0
 16 39  1  0  0  0  0
 16 21  1  0  0  0  0
 17 18  1  0  0  0  0
 17 40  1  0  0  0  0
 17 16  1  0  0  0  0
 18 42  1  1  0  0  0
 18 19  1  0  0  0  0
 19 43  1  0  0  0  0
 19 20  1  0  0  0  0
 20 45  1  0  0  0  0
 20 46  1  0  0  0  0
 21 20  1  0  0  0  0
 21 48  1  0  0  0  0
 21 47  1  0  0  0  0
 22 18  1  0  0  0  0
 23 24  1  0  0  0  0
 24 54  1  0  0  0  0
 24 29  1  0  0  0  0
 25 55  1  0  0  0  0
 25 24  1  0  0  0  0
 26 25  1  0  0  0  0
 26 57  1  1  0  0  0
 27 26  1  0  0  0  0
 27 28  1  0  0  0  0
 28 61  1  0  0  0  0
 28 29  1  0  0  0  0
 29 62  1  0  0  0  0
 29 63  1  0  0  0  0
 30 66  1  0  0  0  0
 30 26  1  0  0  0  0
 31  5  1  0  0  0  0
 33  8  1  0  0  0  0
 34  8  1  0  0  0  0
 37 15  1  0  0  0  0
 41 17  1  0  0  0  0
 44 19  1  0  0  0  0
 49 22  1  0  0  0  0
 50 22  1  0  0  0  0
 51 22  1  0  0  0  0
 52 23  1  0  0  0  0
 53 23  1  0  0  0  0
 56 25  1  0  0  0  0
 58 27  1  0  0  0  0
 59 27  1  0  0  0  0
 60 28  1  0  0  0  0
 64 30  1  0  0  0  0
 65 30  1  0  0  0  0
M  END
>  <Pose>
1

>  <Score>
-4.49

$$$$
