
 OpenBabel03202209423D

 50 53  0  0  0  0  0  0  0  0999 V2000
  -32.8290  -66.3930   47.2920 F   0  0  0  0  0  0  0  0  0  0  0  0
  -34.0730  -66.0180   47.6980 C   0  0  0  0  0  0  0  0  0  0  0  0
  -34.2940  -64.8320   48.3660 C   0  0  0  0  0  0  0  0  0  0  0  0
  -35.5630  -64.4720   48.7680 C   0  0  0  0  0  0  0  0  0  0  0  0
  -36.6650  -65.2760   48.5250 C   0  0  0  0  0  0  0  0  0  0  0  0
  -36.4350  -66.4600   47.8570 C   0  0  0  0  0  0  0  0  0  0  0  0
  -35.1590  -66.8260   47.4510 C   0  0  0  0  0  0  0  0  0  0  0  0
  -38.0070  -64.9010   48.9490 C   0  0  0  0  0  0  0  0  0  0  0  0
  -38.1860  -64.1500   49.9750 N   0  0  0  0  0  0  0  0  0  0  0  0
  -39.4350  -63.7530   50.4350 N   0  0  0  0  0  0  0  0  0  0  0  0
  -40.2920  -64.6720   51.0820 C   0  0  0  0  0  0  0  0  0  0  0  0
  -39.8850  -65.9450   51.2800 N   0  0  0  0  0  4  0  0  0  0  0  0
  -40.6570  -66.8770   51.8930 C   0  0  0  0  0  0  0  0  0  0  0  0
  -41.8610  -66.4740   52.3030 N   0  0  0  0  0  0  0  0  0  0  0  0
  -42.3320  -65.2260   52.1400 C   0  0  0  0  0  0  0  0  0  0  0  0
  -41.5200  -64.3490   51.5240 N   0  0  0  0  0  0  0  0  0  0  0  0
  -43.6280  -64.8700   52.6030 N   0  0  0  0  0  0  0  0  0  0  0  0
  -44.5940  -64.3490   51.6550 C   0  0  0  0  0  0  0  0  0  0  0  0
  -45.8750  -64.0030   52.3790 C   0  0  0  0  0  0  0  0  0  0  0  0
  -46.3430  -64.9880   53.2010 O   0  0  0  0  0  0  0  0  0  0  0  0
  -45.4160  -65.6570   53.9540 C   0  0  0  0  0  0  0  0  0  0  0  0
  -44.0490  -64.9920   53.9670 C   0  0  0  0  0  0  0  0  0  0  0  0
  -40.1770  -68.2040   52.0760 N   0  0  0  0  0  0  0  0  0  0  0  0
  -40.7990  -69.1780   52.9420 C   0  0  0  0  0  0  0  0  0  0  0  0
  -39.6640  -69.6340   53.8570 C   0  0  0  0  0  0  0  0  0  0  0  0
  -38.7620  -70.3180   53.1290 O   0  0  0  0  0  0  0  0  0  0  0  0
  -38.3380  -69.8390   51.9530 C   0  0  0  0  0  0  0  0  0  0  0  0
  -38.9980  -68.6510   51.3730 C   0  0  0  0  0  0  0  0  0  0  0  0
  -32.7930  -63.7030   48.7140 B   0  0  0  0  0  0  0  0  0  0  0  0
  -35.7490  -63.5320   49.2990 H   0  0  0  0  0  0  0  0  0  0  0  0
  -37.3010  -67.1010   47.6620 H   0  0  0  0  0  0  0  0  0  0  0  0
  -34.9970  -67.7670   46.9240 H   0  0  0  0  0  0  0  0  0  0  0  0
  -38.8460  -65.2630   48.3880 H   0  0  0  0  0  0  0  0  0  0  0  0
  -39.7470  -62.7770   50.3040 H   0  0  0  0  0  0  0  0  0  0  0  0
  -44.2280  -63.3810   51.2070 H   0  0  0  0  0  0  0  0  0  0  0  0
  -44.7710  -65.1260   50.9050 H   0  0  0  0  0  0  0  0  0  0  0  0
  -46.6480  -63.8570   51.5710 H   0  0  0  0  0  0  0  0  0  0  0  0
  -45.7910  -63.0240   52.8790 H   0  0  0  0  0  0  0  0  0  0  0  0
  -45.2560  -66.6650   53.4970 H   0  0  0  0  0  0  0  0  0  0  0  0
  -45.8160  -65.7720   54.9870 H   0  0  0  0  0  0  0  0  0  0  0  0
  -44.2110  -63.9690   54.3710 H   0  0  0  0  0  0  0  0  0  0  0  0
  -43.3660  -65.5960   54.5670 H   0  0  0  0  0  0  0  0  0  0  0  0
  -41.0450  -70.0570   52.3120 H   0  0  0  0  0  0  0  0  0  0  0  0
  -41.6530  -68.7880   53.5100 H   0  0  0  0  0  0  0  0  0  0  0  0
  -39.2500  -68.7270   54.3350 H   0  0  0  0  0  0  0  0  0  0  0  0
  -40.0760  -70.3180   54.6520 H   0  0  0  0  0  0  0  0  0  0  0  0
  -38.3900  -70.6760   51.1920 H   0  0  0  0  0  0  0  0  0  0  0  0
  -37.2250  -69.6440   52.0290 H   0  0  0  0  0  0  0  0  0  0  0  0
  -39.3400  -68.8360   50.3100 H   0  0  0  0  0  0  0  0  0  0  0  0
  -38.2620  -67.8010   51.2570 H   0  0  0  0  0  0  0  0  0  0  0  0
  1  2  1  0  0  0  0
  2  3  1  0  0  0  0
  3 29  1  0  0  0  0
  3  4  2  0  0  0  0
  4 30  1  0  0  0  0
  5  4  1  0  0  0  0
  5  8  1  0  0  0  0
  6  5  2  0  0  0  0
  7  2  2  0  0  0  0
  7  6  1  0  0  0  0
  8  9  2  0  0  0  0
  9 10  1  0  0  0  0
 10 11  1  0  0  0  0
 11 12  2  0  0  0  0
 11 16  1  0  0  0  0
 12 13  2  0  0  0  0
 13 23  1  0  0  0  0
 13 14  1  0  0  0  0
 15 14  2  0  0  0  0
 15 17  1  0  0  0  0
 16 15  1  0  0  0  0
 17 22  1  0  0  0  0
 18 19  1  0  0  0  0
 18 17  1  0  0  0  0
 19 38  1  0  0  0  0
 19 20  1  0  0  0  0
 20 21  1  0  0  0  0
 21 22  1  0  0  0  0
 21 40  1  0  0  0  0
 22 41  1  0  0  0  0
 22 42  1  0  0  0  0
 23 24  1  0  0  0  0
 24 44  1  0  0  0  0
 24 25  1  0  0  0  0
 25 45  1  0  0  0  0
 25 46  1  0  0  0  0
 26 25  1  0  0  0  0
 27 48  1  0  0  0  0
 27 26  1  0  0  0  0
 28 27  1  0  0  0  0
 28 23  1  0  0  0  0
 31  6  1  0  0  0  0
 32  7  1  0  0  0  0
 33  8  1  0  0  0  0
 34 10  1  0  0  0  0
 35 18  1  0  0  0  0
 36 18  1  0  0  0  0
 37 19  1  0  0  0  0
 39 21  1  0  0  0  0
 43 24  1  0  0  0  0
 47 27  1  0  0  0  0
 49 28  1  0  0  0  0
 50 28  1  0  0  0  0
M  END
>  <Pose>
1

>  <Score>
-5.84

$$$$
