
 OpenBabel03202209423D

 41 44  0  0  0  0  0  0  0  0999 V2000
  -40.3130  -67.1920   50.9810 F   0  0  0  0  0  0  0  0  0  0  0  0
  -39.8990  -68.1510   51.8590 C   0  0  0  0  0  0  0  0  0  0  0  0
  -40.6190  -68.3130   53.0530 C   0  0  0  0  0  0  0  0  0  0  0  0
  -40.1650  -69.2890   53.9020 C   0  0  0  0  0  0  0  0  0  0  0  0
  -39.0580  -70.0560   53.5780 C   0  0  0  0  0  0  0  0  0  0  0  0
  -38.3610  -69.8950   52.4160 C   0  0  0  0  0  0  0  0  0  0  0  0
  -38.8040  -68.9190   51.5540 C   0  0  0  0  0  0  0  0  0  0  0  0
  -41.7470  -67.4810   53.3070 N   0  0  0  0  0  0  0  0  0  0  0  0
  -42.4570  -67.3410   54.4950 C   0  0  0  0  0  0  0  0  0  0  0  0
  -42.6300  -68.2830   55.2850 O   0  0  0  0  0  0  0  0  0  0  0  0
  -43.0560  -66.0350   54.8910 C   0  0  0  0  0  0  0  0  0  0  0  0
  -44.3530  -65.8830   54.2590 N   0  0  0  0  0  0  0  0  0  0  0  0
  -45.5120  -66.3840   54.6280 N   0  0  0  0  0  0  0  0  0  0  0  0
  -46.4640  -66.0130   53.7840 N   0  0  0  0  0  0  0  0  0  0  0  0
  -45.8990  -65.2400   52.8310 C   0  0  0  0  0  0  0  0  0  0  0  0
  -44.6190  -65.1700   53.1320 C   0  0  0  0  0  0  0  0  0  0  0  0
  -44.0380  -64.3770   52.1550 C   0  0  0  0  0  0  0  0  0  0  0  0
  -42.8220  -64.0890   52.1150 O   0  0  0  0  0  0  0  0  0  0  0  0
  -44.9550  -63.9650   51.2620 N   0  0  0  0  0  0  0  0  0  0  0  0
  -46.1150  -64.5020   51.6820 C   0  0  0  0  0  0  0  0  0  0  0  0
  -47.2280  -64.3620   51.1270 O   0  0  0  0  0  0  0  0  0  0  0  0
  -44.7250  -63.1370   50.1220 C   0  0  0  0  0  0  0  0  0  0  0  0
  -43.6770  -63.3860   49.2570 C   0  0  0  0  0  0  0  0  0  0  0  0
  -43.4410  -62.5960   48.1490 C   0  0  0  0  0  0  0  0  0  0  0  0
  -44.2480  -61.5150   47.8610 C   0  0  0  0  0  0  0  0  0  0  0  0
  -45.2990  -61.2470   48.7120 C   0  0  0  0  0  0  0  0  0  0  0  0
  -45.5190  -62.0490   49.8140 C   0  0  0  0  0  0  0  0  0  0  0  0
  -43.9440  -60.4040   46.3350 B   0  0  0  0  0  0  0  0  0  0  0  0
  -40.6580  -69.4770   54.8310 H   0  0  0  0  0  0  0  0  0  0  0  0
  -38.7070  -70.8320   54.2660 H   0  0  0  0  0  0  0  0  0  0  0  0
  -37.5030  -70.5190   52.2100 H   0  0  0  0  0  0  0  0  0  0  0  0
  -38.2430  -68.7950   50.6270 H   0  0  0  0  0  0  0  0  0  0  0  0
  -42.0980  -66.8860   52.4860 H   0  0  0  0  0  0  0  0  0  0  0  0
  -42.3780  -65.2270   54.5040 H   0  0  0  0  0  0  0  0  0  0  0  0
  -43.1200  -65.9400   55.9910 H   0  0  0  0  0  0  0  0  0  0  0  0
  -45.6330  -66.9920   55.4790 H   0  0  0  0  0  0  0  0  0  0  0  0
  -47.4790  -66.2710   53.8430 H   0  0  0  0  0  0  0  0  0  0  0  0
  -43.0440  -64.2470   49.4940 H   0  0  0  0  0  0  0  0  0  0  0  0
  -42.6210  -62.8040   47.4830 H   0  0  0  0  0  0  0  0  0  0  0  0
  -45.9380  -60.3860   48.4790 H   0  0  0  0  0  0  0  0  0  0  0  0
  -46.3390  -61.8450   50.4850 H   0  0  0  0  0  0  0  0  0  0  0  0
  1  2  1  0  0  0  0
  2  3  1  0  0  0  0
  3  8  1  0  0  0  0
  3  4  2  0  0  0  0
  4 29  1  0  0  0  0
  5  4  1  0  0  0  0
  5 30  1  0  0  0  0
  6  5  2  0  0  0  0
  7  2  2  0  0  0  0
  7  6  1  0  0  0  0
  8  9  1  0  0  0  0
  9 11  1  0  0  0  0
  9 10  2  0  0  0  0
 11 35  1  0  0  0  0
 12 13  1  0  0  0  0
 12 11  1  0  0  0  0
 13 36  1  0  0  0  0
 14 37  1  0  0  0  0
 14 13  1  0  0  0  0
 15 16  2  0  0  0  0
 15 14  1  0  0  0  0
 16 12  1  0  0  0  0
 17 16  1  0  0  0  0
 18 17  2  0  0  0  0
 19 20  1  0  0  0  0
 19 17  1  0  0  0  0
 20 15  1  0  0  0  0
 21 20  2  0  0  0  0
 22 19  1  0  0  0  0
 23 38  1  0  0  0  0
 23 22  2  0  0  0  0
 24 23  1  0  0  0  0
 25 24  2  0  0  0  0
 25 26  1  0  0  0  0
 26 27  2  0  0  0  0
 27 22  1  0  0  0  0
 27 41  1  0  0  0  0
 28 25  1  0  0  0  0
 31  6  1  0  0  0  0
 32  7  1  0  0  0  0
 33  8  1  0  0  0  0
 34 11  1  0  0  0  0
 39 24  1  0  0  0  0
 40 26  1  0  0  0  0
M  END
>  <Pose>
1

>  <Score>
-7.29

$$$$
