
 OpenBabel03202209423D

 40 43  0  0  0  0  0  0  0  0999 V2000
  -38.6820  -69.9220   52.6280 I   0  0  0  0  0  0  0  0  0  0  0  0
  -40.3250  -69.2820   53.8190 C   0  0  0  0  0  0  0  0  0  0  0  0
  -41.2240  -68.2850   53.5050 C   0  0  0  0  0  0  0  0  0  0  0  0
  -42.0890  -68.1980   54.5190 N   0  0  0  0  0  0  0  0  0  0  0  0
  -41.7540  -69.1010   55.4320 N   0  0  0  0  0  0  0  0  0  0  0  0
  -40.6800  -69.7870   55.0450 C   0  0  0  0  0  0  0  0  0  0  0  0
  -43.2100  -67.2550   54.6920 C   0  0  0  0  0  0  0  0  0  0  0  0
  -41.1710  -67.4410   52.2810 C   0  0  0  0  0  0  0  0  0  0  0  0
  -40.1810  -67.8160   51.5280 O   0  0  0  0  0  0  0  0  0  0  0  0
  -42.0030  -66.4460   51.9770 N   0  0  0  0  0  0  0  0  0  0  0  0
  -42.8650  -65.4160   51.6620 C   0  0  0  0  0  0  0  0  0  0  0  0
  -42.6120  -64.7850   50.4220 C   0  0  0  0  0  0  0  0  0  0  0  0
  -41.6430  -64.9580   49.5310 N   0  0  0  0  0  0  0  0  0  0  0  0
  -41.8410  -64.1320   48.5480 O   0  0  0  0  0  0  0  0  0  0  0  0
  -42.8940  -63.4280   48.7590 N   0  0  0  0  0  0  0  0  0  0  0  0
  -43.4150  -63.8070   49.9330 C   0  0  0  0  0  0  0  0  0  0  0  0
  -44.5170  -63.4020   50.6530 C   0  0  0  0  0  0  0  0  0  0  0  0
  -44.7900  -63.9930   51.8600 C   0  0  0  0  0  0  0  0  0  0  0  0
  -43.9810  -64.9900   52.3690 C   0  0  0  0  0  0  0  0  0  0  0  0
  -45.3180  -62.3830   50.1160 N   0  0  0  0  0  0  0  0  0  0  0  0
  -46.7640  -62.5220   49.9410 C   0  0  0  0  0  0  0  0  0  0  0  0
  -46.9790  -62.4160   48.4450 C   0  0  0  0  0  0  0  0  0  0  0  0
  -45.8130  -62.1910   47.7300 O   0  0  0  0  0  0  0  0  0  0  0  0
  -45.0630  -61.1130   48.1500 C   0  0  0  0  0  0  0  0  0  0  0  0
  -44.8840  -61.0830   49.6580 C   0  0  0  0  0  0  0  0  0  0  0  0
  -40.1660  -70.5920   55.5710 H   0  0  0  0  0  0  0  0  0  0  0  0
  -44.1530  -67.8090   54.7920 H   0  0  0  0  0  0  0  0  0  0  0  0
  -43.2640  -66.5320   53.8740 H   0  0  0  0  0  0  0  0  0  0  0  0
  -43.0210  -66.6950   55.6570 H   0  0  0  0  0  0  0  0  0  0  0  0
  -42.6390  -67.2350   51.0670 H   0  0  0  0  0  0  0  0  0  0  0  0
  -45.6370  -63.6830   52.4330 H   0  0  0  0  0  0  0  0  0  0  0  0
  -44.2670  -65.4140   53.3170 H   0  0  0  0  0  0  0  0  0  0  0  0
  -47.2220  -63.3700   50.3960 H   0  0  0  0  0  0  0  0  0  0  0  0
  -47.2590  -61.6100   50.3930 H   0  0  0  0  0  0  0  0  0  0  0  0
  -47.8040  -61.7180   48.2000 H   0  0  0  0  0  0  0  0  0  0  0  0
  -47.3360  -63.4340   48.1070 H   0  0  0  0  0  0  0  0  0  0  0  0
  -44.0370  -61.2660   47.7200 H   0  0  0  0  0  0  0  0  0  0  0  0
  -45.4310  -60.1460   47.7750 H   0  0  0  0  0  0  0  0  0  0  0  0
  -45.6310  -60.3170   50.0540 H   0  0  0  0  0  0  0  0  0  0  0  0
  -43.9280  -60.7280   50.0010 H   0  0  0  0  0  0  0  0  0  0  0  0
  1  2  1  0  0  0  0
  2  6  1  0  0  0  0
  3  2  2  0  0  0  0
  3  4  1  0  0  0  0
  4  7  1  0  0  0  0
  4  5  1  0  0  0  0
  6  5  2  0  0  0  0
  6 26  1  0  0  0  0
  7 27  1  0  0  0  0
  7 29  1  0  0  0  0
  8  3  1  0  0  0  0
  9  8  2  0  0  0  0
 10  8  1  0  0  0  0
 11 10  1  0  0  0  0
 11 19  2  0  0  0  0
 12 11  1  0  0  0  0
 13 12  2  0  0  0  0
 14 15  1  0  0  0  0
 14 13  1  0  0  0  0
 15 16  2  0  0  0  0
 16 12  1  0  0  0  0
 16 17  1  0  0  0  0
 17 18  2  0  0  0  0
 18 19  1  0  0  0  0
 18 31  1  0  0  0  0
 19 32  1  0  0  0  0
 20 17  1  0  0  0  0
 21 20  1  0  0  0  0
 21 34  1  0  0  0  0
 21 33  1  0  0  0  0
 22 21  1  0  0  0  0
 23 24  1  0  0  0  0
 23 22  1  0  0  0  0
 24 25  1  0  0  0  0
 25 40  1  0  0  0  0
 25 39  1  0  0  0  0
 25 20  1  0  0  0  0
 28  7  1  0  0  0  0
 30 10  1  0  0  0  0
 35 22  1  0  0  0  0
 36 22  1  0  0  0  0
 37 24  1  0  0  0  0
 38 24  1  0  0  0  0
M  END
>  <Pose>
1

>  <Score>
-6.51

$$$$
