
 OpenBabel03202209423D

 50 53  0  0  0  0  0  0  0  0999 V2000
  -39.0430  -64.6370   48.7020 I   0  0  0  0  0  0  0  0  0  0  0  0
  -41.0210  -64.2540   49.2660 C   0  0  0  0  0  0  0  0  0  0  0  0
  -41.5100  -64.5670   50.4970 C   0  0  0  0  0  0  0  0  0  0  0  0
  -42.8470  -64.2840   50.8120 C   0  0  0  0  0  0  0  0  0  0  0  0
  -43.7110  -63.6970   49.9360 C   0  0  0  0  0  0  0  0  0  0  0  0
  -43.1810  -63.3850   48.6750 C   0  0  0  0  0  0  0  0  0  0  0  0
  -41.8720  -63.6600   48.3610 C   0  0  0  0  0  0  0  0  0  0  0  0
  -45.0920  -63.3660   50.1560 C   0  0  0  0  0  0  0  0  0  0  0  0
  -45.7250  -63.3460   51.2450 N   0  0  0  0  0  0  0  0  0  0  0  0
  -45.1820  -63.6460   52.4500 N   0  0  0  0  0  0  0  0  0  0  0  0
  -45.2470  -65.0080   52.9370 C   0  0  0  0  0  0  0  0  0  0  0  0
  -44.1180  -65.7090   53.1360 N   0  0  0  0  0  4  0  0  0  0  0  0
  -44.1530  -66.9700   53.5850 C   0  0  0  0  0  0  0  0  0  0  0  0
  -45.3670  -67.4920   53.8250 N   0  0  0  0  0  0  0  0  0  0  0  0
  -46.5210  -66.8210   53.6380 C   0  0  0  0  0  0  0  0  0  0  0  0
  -46.4420  -65.5560   53.1840 N   0  0  0  0  0  0  0  0  0  0  0  0
  -47.7650  -67.4490   53.9180 N   0  0  0  0  0  0  0  0  0  0  0  0
  -48.5540  -67.0010   55.0410 C   0  0  0  0  0  0  0  0  0  0  0  0
  -49.2240  -68.2660   55.5980 C   0  0  0  0  0  0  0  0  0  0  0  0
  -50.1000  -68.7200   54.6460 O   0  0  0  0  0  0  0  0  0  0  0  0
  -49.5580  -69.0910   53.4480 C   0  0  0  0  0  0  0  0  0  0  0  0
  -48.2340  -68.5140   53.1000 C   0  0  0  0  0  0  0  0  0  0  0  0
  -42.9670  -67.7330   53.8050 N   0  0  0  0  0  0  0  0  0  0  0  0
  -42.3800  -67.9190   55.0970 C   0  0  0  0  0  0  0  0  0  0  0  0
  -41.0400  -68.6300   54.8990 C   0  0  0  0  0  0  0  0  0  0  0  0
  -40.2760  -68.0130   53.9220 O   0  0  0  0  0  0  0  0  0  0  0  0
  -40.8310  -68.0830   52.6680 C   0  0  0  0  0  0  0  0  0  0  0  0
  -42.3120  -68.3590   52.6670 C   0  0  0  0  0  0  0  0  0  0  0  0
  -40.8500  -65.0330   51.2120 H   0  0  0  0  0  0  0  0  0  0  0  0
  -43.1290  -64.5630   51.7900 H   0  0  0  0  0  0  0  0  0  0  0  0
  -43.8010  -62.9200   47.9270 H   0  0  0  0  0  0  0  0  0  0  0  0
  -41.5400  -63.3870   47.3620 H   0  0  0  0  0  0  0  0  0  0  0  0
  -45.7230  -63.0850   49.2710 H   0  0  0  0  0  0  0  0  0  0  0  0
  -44.7400  -62.9060   53.0370 H   0  0  0  0  0  0  0  0  0  0  0  0
  -49.3200  -66.2920   54.6990 H   0  0  0  0  0  0  0  0  0  0  0  0
  -47.9230  -66.5890   55.8560 H   0  0  0  0  0  0  0  0  0  0  0  0
  -48.4350  -68.9680   55.8710 H   0  0  0  0  0  0  0  0  0  0  0  0
  -49.7990  -67.9470   56.4780 H   0  0  0  0  0  0  0  0  0  0  0  0
  -49.5830  -70.2150   53.3180 H   0  0  0  0  0  0  0  0  0  0  0  0
  -50.2810  -68.7370   52.6520 H   0  0  0  0  0  0  0  0  0  0  0  0
  -48.1830  -68.1570   52.0300 H   0  0  0  0  0  0  0  0  0  0  0  0
  -47.4930  -69.3680   53.1140 H   0  0  0  0  0  0  0  0  0  0  0  0
  -42.2630  -67.0040   55.6870 H   0  0  0  0  0  0  0  0  0  0  0  0
  -43.0330  -68.6350   55.6580 H   0  0  0  0  0  0  0  0  0  0  0  0
  -41.2650  -69.7020   54.6600 H   0  0  0  0  0  0  0  0  0  0  0  0
  -40.4570  -68.6140   55.8410 H   0  0  0  0  0  0  0  0  0  0  0  0
  -40.3620  -68.8830   52.0320 H   0  0  0  0  0  0  0  0  0  0  0  0
  -40.6770  -67.0850   52.1750 H   0  0  0  0  0  0  0  0  0  0  0  0
  -42.4680  -69.4590   52.6990 H   0  0  0  0  0  0  0  0  0  0  0  0
  -42.7080  -67.9470   51.7030 H   0  0  0  0  0  0  0  0  0  0  0  0
  1  2  1  0  0  0  0
  2  3  1  0  0  0  0
  3  4  2  0  0  0  0
  3 29  1  0  0  0  0
  4 30  1  0  0  0  0
  5  8  1  0  0  0  0
  5  4  1  0  0  0  0
  6  5  2  0  0  0  0
  7  6  1  0  0  0  0
  7  2  2  0  0  0  0
  8  9  2  0  0  0  0
  9 10  1  0  0  0  0
 10 11  1  0  0  0  0
 10 34  1  0  0  0  0
 11 12  2  0  0  0  0
 11 16  1  0  0  0  0
 12 13  2  0  0  0  0
 13 23  1  0  0  0  0
 13 14  1  0  0  0  0
 15 14  2  0  0  0  0
 15 17  1  0  0  0  0
 16 15  1  0  0  0  0
 17 18  1  0  0  0  0
 18 19  1  0  0  0  0
 18 36  1  0  0  0  0
 19 37  1  0  0  0  0
 19 38  1  0  0  0  0
 20 19  1  0  0  0  0
 21 20  1  0  0  0  0
 22 42  1  0  0  0  0
 22 21  1  0  0  0  0
 22 17  1  0  0  0  0
 23 24  1  0  0  0  0
 24 44  1  0  0  0  0
 24 43  1  0  0  0  0
 25 24  1  0  0  0  0
 25 46  1  0  0  0  0
 26 25  1  0  0  0  0
 27 26  1  0  0  0  0
 28 27  1  0  0  0  0
 28 49  1  0  0  0  0
 28 23  1  0  0  0  0
 31  6  1  0  0  0  0
 32  7  1  0  0  0  0
 33  8  1  0  0  0  0
 35 18  1  0  0  0  0
 39 21  1  0  0  0  0
 40 21  1  0  0  0  0
 41 22  1  0  0  0  0
 45 25  1  0  0  0  0
 47 27  1  0  0  0  0
 48 27  1  0  0  0  0
 50 28  1  0  0  0  0
M  END
>  <Pose>
1

>  <Score>
-5.77

$$$$
