
 OpenBabel03202209423D

 52 54  0  0  1  0  0  0  0  0999 V2000
  -38.9040  -64.5100   49.6880 I   0  0  0  0  0  0  0  0  0  0  0  0
  -40.6300  -65.0390   50.7590 C   0  0  0  0  0  0  0  0  0  0  0  0
  -41.4890  -66.0110   50.2570 C   0  0  0  0  0  0  0  0  0  0  0  0
  -42.6130  -66.3600   50.9460 C   0  0  0  0  0  0  0  0  0  0  0  0
  -42.9570  -65.7820   52.1570 C   0  0  0  0  0  0  0  0  0  0  0  0
  -42.1020  -64.8080   52.6640 C   0  0  0  0  0  0  0  0  0  0  0  0
  -40.9680  -64.4620   51.9600 C   0  0  0  0  0  0  0  0  0  0  0  0
  -44.1270  -66.1470   52.8720 N   0  0  0  0  0  0  0  0  0  0  0  0
  -45.2980  -65.5190   52.6710 C   0  0  0  0  0  0  0  0  0  0  0  0
  -46.4460  -65.8580   53.3520 C   0  0  2  0  0  0  0  0  0  0  0  0
  -46.3250  -66.8880   54.2640 C   0  0  0  0  0  0  0  0  0  0  0  0
  -47.2870  -67.3190   54.9700 O   0  0  0  0  0  0  0  0  0  0  0  0
  -45.1380  -67.5360   54.4790 N   0  0  0  0  0  0  0  0  0  0  0  0
  -44.0650  -67.1440   53.7700 C   0  0  0  0  0  0  0  0  0  0  0  0
  -42.9540  -67.7090   53.9330 O   0  0  0  0  0  0  0  0  0  0  0  0
  -47.7470  -65.2390   53.1790 C   0  0  1  0  0  0  0  0  0  0  0  0
  -47.8420  -63.8310   53.3990 N   0  0  0  0  0  4  0  0  0  0  0  0
  -47.0860  -63.0280   52.4770 C   0  0  0  0  0  0  0  0  0  0  0  0
  -46.5360  -63.8160   51.3070 C   0  0  0  0  0  0  0  0  0  0  0  0
  -47.6240  -64.7280   50.7930 C   0  0  0  0  0  0  0  0  0  0  0  0
  -48.2580  -65.4440   51.7760 C   0  0  0  0  0  0  0  0  0  0  0  0
  -49.2940  -66.2910   51.4630 C   0  0  0  0  0  0  0  0  0  0  0  0
  -49.6580  -66.3850   50.1280 C   0  0  0  0  0  0  0  0  0  0  0  0
  -49.0300  -65.6720   49.1270 C   0  0  0  0  0  0  0  0  0  0  0  0
  -47.9840  -64.8240   49.4890 C   0  0  0  0  0  0  0  0  0  0  0  0
  -49.6280  -65.9910   47.9180 O   0  0  0  0  0  0  0  0  0  0  0  0
  -50.4020  -67.1910   48.0830 C   0  0  0  0  0  0  0  0  0  0  0  0
  -50.6490  -67.1350   49.4760 O   0  0  0  0  0  0  0  0  0  0  0  0
  -49.9210  -66.9990   52.4490 O   0  0  0  0  0  0  0  0  0  0  0  0
  -49.4980  -68.1930   53.0270 C   0  0  0  0  0  0  0  0  0  0  0  0
  -49.2630  -63.4930   53.1230 C   0  0  0  0  0  0  0  0  0  0  0  0
  -45.3760  -64.4980   51.7580 O   0  0  0  0  0  0  0  0  0  0  0  0
  -41.2300  -66.4670   49.3160 H   0  0  0  0  0  0  0  0  0  0  0  0
  -43.2760  -67.1170   50.5490 H   0  0  0  0  0  0  0  0  0  0  0  0
  -42.3760  -64.3560   53.6150 H   0  0  0  0  0  0  0  0  0  0  0  0
  -40.3100  -63.7130   52.3510 H   0  0  0  0  0  0  0  0  0  0  0  0
  -45.0530  -68.3100   55.1640 H   0  0  0  0  0  0  0  0  0  0  0  0
  -48.4670  -65.7580   53.8350 H   0  0  0  0  0  0  0  0  0  0  0  0
  -47.7460  -63.5070   54.3760 H   0  0  0  0  0  0  0  0  0  0  0  0
  -46.2370  -62.5330   52.9730 H   0  0  0  0  0  0  0  0  0  0  0  0
  -47.6870  -62.1930   52.0190 H   0  0  0  0  0  0  0  0  0  0  0  0
  -45.6000  -64.3480   51.5140 H   0  0  0  0  0  0  0  0  0  0  0  0
  -46.3280  -63.1150   50.4720 H   0  0  0  0  0  0  0  0  0  0  0  0
  -47.4630  -64.2480   48.7530 H   0  0  0  0  0  0  0  0  0  0  0  0
  -49.7310  -68.0650   47.9160 H   0  0  0  0  0  0  0  0  0  0  0  0
  -51.3020  -67.1940   47.4720 H   0  0  0  0  0  0  0  0  0  0  0  0
  -50.2860  -68.9690   52.8120 H   0  0  0  0  0  0  0  0  0  0  0  0
  -48.5110  -68.5480   52.6880 H   0  0  0  0  0  0  0  0  0  0  0  0
  -49.4590  -68.1480   54.1480 H   0  0  0  0  0  0  0  0  0  0  0  0
  -49.9130  -64.0050   53.8300 H   0  0  0  0  0  0  0  0  0  0  0  0
  -49.4530  -63.6990   52.0610 H   0  0  0  0  0  0  0  0  0  0  0  0
  -49.3750  -62.3820   53.2430 H   0  0  0  0  0  0  0  0  0  0  0  0
  1  2  1  0  0  0  0
  2  7  1  0  0  0  0
  3  2  2  0  0  0  0
  3  4  1  0  0  0  0
  4  5  2  0  0  0  0
  5  6  1  0  0  0  0
  5  8  1  0  0  0  0
  6 35  1  0  0  0  0
  7 36  1  0  0  0  0
  7  6  2  0  0  0  0
  8 14  1  0  0  0  0
  9  8  1  0  0  0  0
  9 10  1  0  0  0  0
 10 16  1  6  0  0  0
 10 11  1  0  0  0  0
 11 13  1  0  0  0  0
 11 12  2  0  0  0  0
 13 37  1  0  0  0  0
 14 15  2  0  0  0  0
 14 13  1  0  0  0  0
 16 17  1  0  0  0  0
 16 38  1  1  0  0  0
 17 39  1  0  0  0  0
 18 40  1  0  0  0  0
 18 17  1  0  0  0  0
 19 42  1  0  0  0  0
 20 21  1  0  0  0  0
 21 16  1  0  0  0  0
 22 21  2  0  0  0  0
 22 29  1  0  0  0  0
 23 22  1  0  0  0  0
 24 25  1  0  0  0  0
 24 23  2  0  0  0  0
 25 20  2  0  0  0  0
 26 27  1  0  0  0  0
 26 24  1  0  0  0  0
 27 28  1  0  0  0  0
 28 23  1  0  0  0  0
 29 30  1  0  0  0  0
 30 49  1  0  0  0  0
 31 52  1  0  0  0  0
 31 17  1  0  0  0  0
 31 50  1  0  0  0  0
 32  9  2  0  0  0  0
 33  3  1  0  0  0  0
 34  4  1  0  0  0  0
 41 18  1  0  0  0  0
 43 19  1  0  0  0  0
 44 25  1  0  0  0  0
 45 27  1  0  0  0  0
 46 27  1  0  0  0  0
 47 30  1  0  0  0  0
 48 30  1  0  0  0  0
 51 31  1  0  0  0  0
M  END
>  <Pose>
1

>  <Score>
-4.94

$$$$
