
 OpenBabel03202209423D

 40 43  0  0  0  0  0  0  0  0999 V2000
  -39.5990  -70.3760   54.4560 I   0  0  0  0  0  0  0  0  0  0  0  0
  -40.1120  -68.8460   53.1370 C   0  0  0  0  0  0  0  0  0  0  0  0
  -39.4680  -68.6100   51.9220 C   0  0  0  0  0  0  0  0  0  0  0  0
  -40.0350  -67.5500   51.3440 N   0  0  0  0  0  0  0  0  0  0  0  0
  -40.9820  -67.1310   52.1360 N   0  0  0  0  0  0  0  0  0  0  0  0
  -41.0740  -67.9060   53.2700 C   0  0  0  0  0  0  0  0  0  0  0  0
  -42.0820  -67.6580   54.3170 C   0  0  0  0  0  0  0  0  0  0  0  0
  -42.2810  -68.6310   55.1250 O   0  0  0  0  0  0  0  0  0  0  0  0
  -42.7960  -66.4780   54.4680 N   0  0  0  0  0  0  0  0  0  0  0  0
  -44.1190  -66.2170   54.0410 C   0  0  0  0  0  0  0  0  0  0  0  0
  -44.3040  -65.1710   53.1320 C   0  0  0  0  0  0  0  0  0  0  0  0
  -43.4300  -64.3240   52.5590 N   0  0  0  0  0  0  0  0  0  0  0  0
  -44.0890  -63.5200   51.7780 O   0  0  0  0  0  0  0  0  0  0  0  0
  -45.3560  -63.7970   51.8110 N   0  0  0  0  0  0  0  0  0  0  0  0
  -45.5410  -64.8320   52.6520 C   0  0  0  0  0  0  0  0  0  0  0  0
  -46.6530  -65.5340   53.0660 C   0  0  0  0  0  0  0  0  0  0  0  0
  -46.4600  -66.5590   53.9580 C   0  0  0  0  0  0  0  0  0  0  0  0
  -45.1990  -66.9120   54.4550 C   0  0  0  0  0  0  0  0  0  0  0  0
  -47.9250  -65.1680   52.5590 N   0  0  0  0  0  0  0  0  0  0  0  0
  -48.6200  -64.0070   53.0750 C   0  0  0  0  0  0  0  0  0  0  0  0
  -49.8820  -63.8160   52.3090 C   0  0  0  0  0  0  0  0  0  0  0  0
  -49.7270  -63.8600   50.9370 O   0  0  0  0  0  0  0  0  0  0  0  0
  -49.1600  -64.9970   50.4550 C   0  0  0  0  0  0  0  0  0  0  0  0
  -48.6000  -65.9130   51.5140 C   0  0  0  0  0  0  0  0  0  0  0  0
  -39.6340  -66.9880   50.0470 C   0  0  0  0  0  0  0  0  0  0  0  0
  -38.6440  -69.1750   51.4920 H   0  0  0  0  0  0  0  0  0  0  0  0
  -42.2730  -65.6970   54.9770 H   0  0  0  0  0  0  0  0  0  0  0  0
  -47.3320  -67.1060   54.2810 H   0  0  0  0  0  0  0  0  0  0  0  0
  -45.1730  -67.7400   55.1540 H   0  0  0  0  0  0  0  0  0  0  0  0
  -47.9310  -63.1470   52.9500 H   0  0  0  0  0  0  0  0  0  0  0  0
  -48.8980  -64.1520   54.1500 H   0  0  0  0  0  0  0  0  0  0  0  0
  -50.3460  -62.8650   52.6370 H   0  0  0  0  0  0  0  0  0  0  0  0
  -50.5770  -64.6550   52.5870 H   0  0  0  0  0  0  0  0  0  0  0  0
  -49.9300  -65.5710   49.8980 H   0  0  0  0  0  0  0  0  0  0  0  0
  -48.3580  -64.7590   49.7060 H   0  0  0  0  0  0  0  0  0  0  0  0
  -47.8330  -66.5490   51.0250 H   0  0  0  0  0  0  0  0  0  0  0  0
  -49.3660  -66.5870   51.9370 H   0  0  0  0  0  0  0  0  0  0  0  0
  -39.2300  -67.8090   49.4450 H   0  0  0  0  0  0  0  0  0  0  0  0
  -40.5700  -66.6290   49.5620 H   0  0  0  0  0  0  0  0  0  0  0  0
  -38.8990  -66.1850   50.2170 H   0  0  0  0  0  0  0  0  0  0  0  0
  2  6  1  0  0  0  0
  2  1  1  0  0  0  0
  3  2  2  0  0  0  0
  4  3  1  0  0  0  0
  4  5  1  0  0  0  0
  5  6  2  0  0  0  0
  6  7  1  0  0  0  0
  7  9  1  0  0  0  0
  7  8  2  0  0  0  0
  9 27  1  0  0  0  0
 10 18  2  0  0  0  0
 10  9  1  0  0  0  0
 11 10  1  0  0  0  0
 12 11  2  0  0  0  0
 13 14  1  0  0  0  0
 13 12  1  0  0  0  0
 14 15  2  0  0  0  0
 15 16  1  0  0  0  0
 15 11  1  0  0  0  0
 16 17  2  0  0  0  0
 17 28  1  0  0  0  0
 17 18  1  0  0  0  0
 18 29  1  0  0  0  0
 19 16  1  0  0  0  0
 19 20  1  0  0  0  0
 20 31  1  0  0  0  0
 21 33  1  0  0  0  0
 21 32  1  0  0  0  0
 21 20  1  0  0  0  0
 22 21  1  0  0  0  0
 23 22  1  0  0  0  0
 23 24  1  0  0  0  0
 24 37  1  0  0  0  0
 24 19  1  0  0  0  0
 25 40  1  0  0  0  0
 25  4  1  0  0  0  0
 26  3  1  0  0  0  0
 30 20  1  0  0  0  0
 34 23  1  0  0  0  0
 35 23  1  0  0  0  0
 36 24  1  0  0  0  0
 38 25  1  0  0  0  0
 39 25  1  0  0  0  0
M  END
>  <Pose>
1

>  <Score>
-6.35

$$$$
