
 OpenBabel03202209423D

 35 39  0  0  0  0  0  0  0  0999 V2000
  -46.1800  -66.5310   53.7930 B   0  0  0  0  0  0  0  0  0  0  0  0
  -44.3050  -66.5880   53.4520 C   0  0  0  0  0  0  0  0  0  0  0  0
  -43.7230  -65.8280   52.4210 C   0  0  0  0  0  0  0  0  0  0  0  0
  -42.3870  -65.8410   52.1450 C   0  0  0  0  0  0  0  0  0  0  0  0
  -41.5730  -66.6550   52.9350 C   0  0  0  0  0  0  0  0  0  0  0  0
  -42.1370  -67.3920   53.9340 C   0  0  0  0  0  0  0  0  0  0  0  0
  -43.4870  -67.3820   54.2190 C   0  0  0  0  0  0  0  0  0  0  0  0
  -43.9990  -68.1680   55.2650 O   0  0  0  0  0  0  0  0  0  0  0  0
  -41.0320  -68.5070   55.0190 B   0  0  0  0  0  0  0  0  0  0  0  0
  -41.8140  -65.0420   51.0700 C   0  0  0  0  0  0  0  0  0  0  0  0
  -40.9210  -64.1150   51.6840 O   0  0  0  0  0  0  0  0  0  0  0  0
  -39.6330  -64.2760   51.2510 C   0  0  0  0  0  0  0  0  0  0  0  0
  -38.6490  -63.5980   51.6240 O   0  0  0  0  0  0  0  0  0  0  0  0
  -39.6680  -65.3680   50.2970 C   0  0  0  0  0  0  0  0  0  0  0  0
  -40.9500  -65.8500   50.1630 C   0  0  0  0  0  0  0  0  0  0  0  0
  -41.1600  -66.8780   49.3040 C   0  0  0  0  0  0  0  0  0  0  0  0
  -40.1040  -67.4120   48.5950 C   0  0  0  0  0  0  0  0  0  0  0  0
  -38.8190  -66.9320   48.7280 C   0  0  0  0  0  0  0  0  0  0  0  0
  -38.5900  -65.8930   49.5910 C   0  0  0  0  0  0  0  0  0  0  0  0
  -42.7950  -64.2470   50.3390 C   0  0  0  0  0  0  0  0  0  0  0  0
  -44.1230  -64.2760   50.6630 C   0  0  0  0  0  0  0  0  0  0  0  0
  -45.0580  -63.5010   49.9460 C   0  0  0  0  0  0  0  0  0  0  0  0
  -44.6090  -62.7140   48.9110 C   0  0  0  0  0  0  0  0  0  0  0  0
  -43.2640  -62.6790   48.5770 C   0  0  0  0  0  0  0  0  0  0  0  0
  -42.3640  -63.4330   49.2760 C   0  0  0  0  0  0  0  0  0  0  0  0
  -42.6280  -61.5930   47.1460 B   0  0  0  0  0  0  0  0  0  0  0  0
  -45.5390  -61.9560   48.2140 O   0  0  0  0  0  0  0  0  0  0  0  0
  -46.9070  -63.5680   50.4300 B   0  0  0  0  0  0  0  0  0  0  0  0
  -44.6310  -65.0510   51.6970 O   0  0  0  0  0  0  0  0  0  0  0  0
  -40.5150  -66.6480   52.6960 H   0  0  0  0  0  0  0  0  0  0  0  0
  -42.1500  -67.2820   49.1730 H   0  0  0  0  0  0  0  0  0  0  0  0
  -40.2370  -68.2400   47.8960 H   0  0  0  0  0  0  0  0  0  0  0  0
  -37.9750  -67.3470   48.1700 H   0  0  0  0  0  0  0  0  0  0  0  0
  -37.5950  -65.5000   49.7120 H   0  0  0  0  0  0  0  0  0  0  0  0
  -41.3040  -63.4510   49.0650 H   0  0  0  0  0  0  0  0  0  0  0  0
  2  1  1  0  0  0  0
  2  7  1  0  0  0  0
  3  2  2  0  0  0  0
  4  3  1  0  0  0  0
  4  5  2  0  0  0  0
  5  6  1  0  0  0  0
  6  7  2  0  0  0  0
  6  9  1  0  0  0  0
  7  8  1  0  0  0  0
 10 11  1  0  0  0  0
 10  4  1  0  0  0  0
 12 13  2  0  0  0  0
 12 11  1  0  0  0  0
 14 12  1  0  0  0  0
 15 14  1  0  0  0  0
 15 10  1  0  0  0  0
 16 15  2  0  0  0  0
 17 18  2  0  0  0  0
 17 16  1  0  0  0  0
 18 19  1  0  0  0  0
 19 34  1  0  0  0  0
 19 14  2  0  0  0  0
 20 21  1  0  0  0  0
 20 10  1  0  0  0  0
 21 29  1  0  0  0  0
 22 28  1  0  0  0  0
 22 21  2  0  0  0  0
 23 22  1  0  0  0  0
 24 23  2  0  0  0  0
 24 25  1  0  0  0  0
 25 20  2  0  0  0  0
 26 24  1  0  0  0  0
 27 23  1  0  0  0  0
 29  3  1  0  0  0  0
 30  5  1  0  0  0  0
 31 16  1  0  0  0  0
 32 17  1  0  0  0  0
 33 18  1  0  0  0  0
 35 25  1  0  0  0  0
M  END
>  <Pose>
1

>  <Score>
-5.57

$$$$
