
 OpenBabel03202209423D

 34 37  0  0  1  0  0  0  0  0999 V2000
  -38.8610  -63.6880   47.8540 P   0  0  1  0  0  0  0  0  0  0  0  0
  -37.7120  -63.1520   48.6800 O   0  0  0  0  0  0  0  0  0  0  0  0
  -39.1970  -65.3120   48.2560 O   0  0  0  0  0  0  0  0  0  0  0  0
  -40.4240  -65.3050   48.9160 C   0  0  2  0  0  0  0  0  0  0  0  0
  -40.4060  -64.0660   49.8190 C   0  0  2  0  0  0  0  0  0  0  0  0
  -41.1380  -64.4980   50.8970 O   0  0  0  0  0  0  0  0  0  0  0  0
  -40.4650  -65.6720   51.2350 C   0  0  2  0  0  0  0  0  0  0  0  0
  -40.5440  -66.4360   49.9150 C   0  0  2  0  0  0  0  0  0  0  0  0
  -39.5570  -67.3810   49.7900 O   0  0  0  0  0  0  0  0  0  0  0  0
  -41.1170  -66.3840   52.3060 N   0  0  0  0  0  0  0  0  0  0  0  0
  -40.6550  -67.5310   52.8180 C   0  0  0  0  0  0  0  0  0  0  0  0
  -39.5590  -68.2810   52.5190 N   0  0  0  0  0  0  0  0  0  0  0  0
  -39.2560  -69.4130   53.1480 C   0  0  0  0  0  0  0  0  0  0  0  0
  -40.0730  -69.8400   54.1290 N   0  0  0  0  0  0  0  0  0  0  0  0
  -41.1750  -69.1440   54.4760 C   0  0  0  0  0  0  0  0  0  0  0  0
  -41.4910  -67.9700   53.8250 C   0  0  0  0  0  0  0  0  0  0  0  0
  -42.4730  -67.0610   53.9100 N   0  0  0  0  0  0  0  0  0  0  0  0
  -42.2420  -66.0990   52.9860 C   0  0  0  0  0  0  0  0  0  0  0  0
  -43.3320  -64.5560   52.6690 B   0  0  0  0  0  0  0  0  0  0  0  0
  -42.0220  -69.5810   55.4900 O   0  0  0  0  0  0  0  0  0  0  0  0
  -38.0970  -70.1640   52.7980 N   0  0  0  0  0  0  0  0  0  0  0  0
  -40.9910  -62.9340   49.0630 C   0  0  0  0  0  0  0  0  0  0  0  0
  -40.2210  -62.7260   47.9140 O   0  0  0  0  0  0  0  0  0  0  0  0
  -38.3020  -63.7200   46.2370 O   0  0  0  0  0  0  0  0  0  0  0  0
  -41.2700  -65.2700   48.2090 H   0  0  0  0  0  0  0  0  0  0  0  0
  -39.3780  -63.8510   50.1640 H   0  0  0  0  0  0  0  0  0  0  0  0
  -39.3810  -65.5020   51.4200 H   0  0  0  0  0  0  0  0  0  0  0  0
  -41.5740  -66.8920   49.8530 H   0  0  0  0  0  0  0  0  0  0  0  0
  -39.9690  -68.2980   49.7000 H   0  0  0  0  0  0  0  0  0  0  0  0
  -41.6260  -70.2800   56.1360 H   0  0  0  0  0  0  0  0  0  0  0  0
  -37.8800  -70.9910   53.3950 H   0  0  0  0  0  0  0  0  0  0  0  0
  -37.4840  -69.9080   51.9850 H   0  0  0  0  0  0  0  0  0  0  0  0
  -42.0060  -63.2310   48.6930 H   0  0  0  0  0  0  0  0  0  0  0  0
  -41.0590  -62.0270   49.6920 H   0  0  0  0  0  0  0  0  0  0  0  0
  1 24  2  6  0  0  0
  1 23  1  0  0  0  0
  1  3  1  0  0  0  0
  1  2  1  0  0  0  0
  3  4  1  0  0  0  0
  4 25  1  6  0  0  0
  4  5  1  0  0  0  0
  4  8  1  0  0  0  0
  5 26  1  1  0  0  0
  5  6  1  0  0  0  0
  6  7  1  0  0  0  0
  7 27  1  1  0  0  0
  7 10  1  0  0  0  0
  8 28  1  6  0  0  0
  8  7  1  0  0  0  0
  9  8  1  0  0  0  0
 10 11  1  0  0  0  0
 10 18  1  0  0  0  0
 11 16  2  0  0  0  0
 12 11  1  0  0  0  0
 12 13  2  0  0  0  0
 13 14  1  0  0  0  0
 14 15  2  0  0  0  0
 15 20  1  0  0  0  0
 16 17  1  0  0  0  0
 16 15  1  0  0  0  0
 18 17  2  0  0  0  0
 19 18  1  0  0  0  0
 20 30  1  0  0  0  0
 21 13  1  0  0  0  0
 21 31  1  0  0  0  0
 22 34  1  0  0  0  0
 22  5  1  0  0  0  0
 23 22  1  0  0  0  0
 29  9  1  0  0  0  0
 32 21  1  0  0  0  0
 33 22  1  0  0  0  0
M  END
>  <Pose>
1

>  <Score>
-6.48

$$$$
