
 OpenBabel03202209423D

 60 64  0  0  0  0  0  0  0  0999 V2000
  -39.8620  -66.5560   49.7580 S   0  0  0  0  0  0  0  0  0  0  0  0
  -39.6960  -65.8860   48.4490 O   0  0  0  0  0  0  0  0  0  0  0  0
  -41.0250  -67.5340   49.5540 O   0  0  0  0  0  0  0  0  0  0  0  0
  -40.3980  -65.5070   51.0120 N   0  0  0  0  0  0  0  0  0  0  0  0
  -41.0330  -66.1700   52.0970 C   0  0  0  0  0  0  0  0  0  0  0  0
  -42.5310  -66.3780   51.9120 C   0  0  0  0  0  0  0  0  0  0  0  0
  -43.1290  -65.1310   51.5700 N   0  0  0  0  0  0  0  0  0  0  0  0
  -42.5670  -64.5680   50.3000 C   0  0  0  0  0  0  0  0  0  0  0  0
  -41.1090  -64.3680   50.5380 C   0  0  0  0  0  0  0  0  0  0  0  0
  -44.1060  -64.3790   52.1920 C   0  0  0  0  0  0  0  0  0  0  0  0
  -43.6800  -63.2540   52.7300 O   0  0  0  0  0  0  0  0  0  0  0  0
  -45.5120  -64.6030   52.3600 C   0  0  0  0  0  0  0  0  0  0  0  0
  -45.9700  -65.7920   52.9820 N   0  0  0  0  0  0  0  0  0  0  0  0
  -45.3430  -66.5270   53.8980 N   0  0  0  0  0  0  0  0  0  0  0  0
  -46.1020  -67.5600   54.2840 C   0  0  0  0  0  0  0  0  0  0  0  0
  -47.2680  -67.4610   53.5650 C   0  0  0  0  0  0  0  0  0  0  0  0
  -47.1820  -66.3650   52.7590 C   0  0  0  0  0  0  0  0  0  0  0  0
  -48.7680  -68.6610   53.6710 B   0  0  0  0  0  0  0  0  0  0  0  0
  -38.5190  -67.5380   50.2540 C   0  0  0  0  0  0  0  0  0  0  0  0
  -38.6670  -68.6070   51.1480 C   0  0  0  0  0  0  0  0  0  0  0  0
  -37.5940  -69.3820   51.5400 C   0  0  0  0  0  0  0  0  0  0  0  0
  -36.3230  -69.1320   51.0630 C   0  0  0  0  0  0  0  0  0  0  0  0
  -36.1700  -68.0890   50.1920 C   0  0  0  0  0  0  0  0  0  0  0  0
  -37.2610  -67.3170   49.8050 C   0  0  0  0  0  0  0  0  0  0  0  0
  -36.9390  -66.2250   48.8720 C   0  0  0  0  0  0  0  0  0  0  0  0
  -36.0920  -66.7280   47.7230 C   0  0  0  0  0  0  0  0  0  0  0  0
  -35.0770  -67.5990   48.1800 N   0  0  0  0  0  0  0  0  0  0  0  0
  -34.8750  -67.6980   49.5910 C   0  0  0  0  0  0  0  0  0  0  0  0
  -34.8780  -68.7970   47.4440 C   0  0  0  0  0  0  0  0  0  0  0  0
  -35.2210  -69.9190   51.4590 O   0  0  0  0  0  0  0  0  0  0  0  0
  -34.1110  -69.2710   52.0970 C   0  0  0  0  0  0  0  0  0  0  0  0
  -38.0690  -70.3370   52.4120 O   0  0  0  0  0  0  0  0  0  0  0  0
  -39.4190  -70.0800   52.6750 C   0  0  0  0  0  0  0  0  0  0  0  0
  -39.8250  -69.0670   51.7680 O   0  0  0  0  0  0  0  0  0  0  0  0
  -40.5810  -67.1720   52.2380 H   0  0  0  0  0  0  0  0  0  0  0  0
  -40.9070  -65.5780   53.0250 H   0  0  0  0  0  0  0  0  0  0  0  0
  -42.8810  -66.8930   52.7930 H   0  0  0  0  0  0  0  0  0  0  0  0
  -42.7240  -67.0680   51.0500 H   0  0  0  0  0  0  0  0  0  0  0  0
  -43.0270  -63.5870   50.0900 H   0  0  0  0  0  0  0  0  0  0  0  0
  -42.7480  -65.2440   49.4660 H   0  0  0  0  0  0  0  0  0  0  0  0
  -40.6410  -63.9560   49.6240 H   0  0  0  0  0  0  0  0  0  0  0  0
  -41.0050  -63.5600   51.3120 H   0  0  0  0  0  0  0  0  0  0  0  0
  -46.0650  -64.5470   51.3470 H   0  0  0  0  0  0  0  0  0  0  0  0
  -45.9710  -63.6860   52.8860 H   0  0  0  0  0  0  0  0  0  0  0  0
  -45.8370  -68.3230   55.0240 H   0  0  0  0  0  0  0  0  0  0  0  0
  -47.9390  -66.0280   52.0800 H   0  0  0  0  0  0  0  0  0  0  0  0
  -37.7510  -65.5720   48.5820 H   0  0  0  0  0  0  0  0  0  0  0  0
  -36.2300  -65.5540   49.4560 H   0  0  0  0  0  0  0  0  0  0  0  0
  -36.7930  -67.3310   47.0790 H   0  0  0  0  0  0  0  0  0  0  0  0
  -35.7310  -65.8910   47.0890 H   0  0  0  0  0  0  0  0  0  0  0  0
  -34.0910  -68.4500   49.7860 H   0  0  0  0  0  0  0  0  0  0  0  0
  -34.5530  -66.7430   50.0580 H   0  0  0  0  0  0  0  0  0  0  0  0
  -33.8230  -68.9930   47.1640 H   0  0  0  0  0  0  0  0  0  0  0  0
  -35.5410  -68.7710   46.5450 H   0  0  0  0  0  0  0  0  0  0  0  0
  -35.2370  -69.6660   48.0430 H   0  0  0  0  0  0  0  0  0  0  0  0
  -34.2630  -68.1730   52.1250 H   0  0  0  0  0  0  0  0  0  0  0  0
  -33.1810  -69.4610   51.5280 H   0  0  0  0  0  0  0  0  0  0  0  0
  -33.9370  -69.7060   53.1130 H   0  0  0  0  0  0  0  0  0  0  0  0
  -39.6300  -69.7930   53.7150 H   0  0  0  0  0  0  0  0  0  0  0  0
  -39.9850  -71.0030   52.3720 H   0  0  0  0  0  0  0  0  0  0  0  0
  1 19  1  0  0  0  0
  1  4  1  0  0  0  0
  2  1  2  0  0  0  0
  3  1  2  0  0  0  0
  4  5  1  0  0  0  0
  5 35  1  0  0  0  0
  5 36  1  0  0  0  0
  6  5  1  0  0  0  0
  6 37  1  0  0  0  0
  7  6  1  0  0  0  0
  7 10  1  0  0  0  0
  8  9  1  0  0  0  0
  8  7  1  0  0  0  0
  9  4  1  0  0  0  0
  9 42  1  0  0  0  0
 10 12  1  0  0  0  0
 10 11  2  0  0  0  0
 12 44  1  0  0  0  0
 12 13  1  0  0  0  0
 13 14  1  0  0  0  0
 14 15  2  0  0  0  0
 15 45  1  0  0  0  0
 16 18  1  0  0  0  0
 16 15  1  0  0  0  0
 17 13  1  0  0  0  0
 17 16  2  0  0  0  0
 19 20  1  0  0  0  0
 20 21  2  0  0  0  0
 20 34  1  0  0  0  0
 21 32  1  0  0  0  0
 22 30  1  0  0  0  0
 22 21  1  0  0  0  0
 23 22  2  0  0  0  0
 24 23  1  0  0  0  0
 24 19  2  0  0  0  0
 25 48  1  0  0  0  0
 25 24  1  0  0  0  0
 26 27  1  0  0  0  0
 26 25  1  0  0  0  0
 27 28  1  0  0  0  0
 28 51  1  0  0  0  0
 28 52  1  0  0  0  0
 28 23  1  0  0  0  0
 29 55  1  0  0  0  0
 29 27  1  0  0  0  0
 30 31  1  0  0  0  0
 31 56  1  0  0  0  0
 31 58  1  0  0  0  0
 32 33  1  0  0  0  0
 33 59  1  0  0  0  0
 34 33  1  0  0  0  0
 38  6  1  0  0  0  0
 39  8  1  0  0  0  0
 40  8  1  0  0  0  0
 41  9  1  0  0  0  0
 43 12  1  0  0  0  0
 46 17  1  0  0  0  0
 47 25  1  0  0  0  0
 49 26  1  0  0  0  0
 50 26  1  0  0  0  0
 53 29  1  0  0  0  0
 54 29  1  0  0  0  0
 57 31  1  0  0  0  0
 60 33  1  0  0  0  0
M  END
>  <Pose>
1

>  <Score>
-7.16

$$$$
