
 OpenBabel03202209423D

 53 56  0  0  0  0  0  0  0  0999 V2000
  -44.4240  -64.3340   51.9020 S   0  0  0  0  0  0  0  0  0  0  0  0
  -43.9230  -63.4750   53.0710 O   0  0  0  0  0  0  0  0  0  0  0  0
  -45.2530  -63.3420   51.0800 O   0  0  0  0  0  0  0  0  0  0  0  0
  -43.1060  -64.8860   51.0630 N   0  0  0  0  0  0  0  0  0  0  0  0
  -42.4430  -64.1530   50.0920 C   0  0  0  0  0  0  0  0  0  0  0  0
  -41.4810  -65.1110   49.3380 C   0  0  0  0  0  0  0  0  0  0  0  0
  -40.6640  -65.8170   50.2840 N   0  0  0  0  0  0  0  0  0  0  0  0
  -41.3530  -66.6180   51.2700 C   0  0  0  0  0  0  0  0  0  0  0  0
  -42.8260  -66.2920   51.1500 C   0  0  0  0  0  0  0  0  0  0  0  0
  -39.2570  -65.7660   50.2940 C   0  0  0  0  0  0  0  0  0  0  0  0
  -38.6870  -64.6680   50.4860 O   0  0  0  0  0  0  0  0  0  0  0  0
  -38.4550  -66.9720   50.0840 C   0  0  0  0  0  0  0  0  0  0  0  0
  -37.6740  -66.8630   48.8550 N   0  0  0  0  0  0  0  0  0  0  0  0
  -38.0780  -66.4660   47.5610 C   0  0  0  0  0  0  0  0  0  0  0  0
  -39.2600  -66.1150   47.2380 O   0  0  0  0  0  0  0  0  0  0  0  0
  -36.9340  -66.5320   46.7170 N   0  0  0  0  0  0  0  0  0  0  0  0
  -35.7770  -66.5000   47.5730 C   0  0  0  0  0  0  0  0  0  0  0  0
  -35.2590  -65.1230   47.8350 C   0  0  0  0  0  0  0  0  0  0  0  0
  -33.8640  -65.4200   48.3980 C   0  0  0  0  0  0  0  0  0  0  0  0
  -33.3950  -66.6030   47.5970 C   0  0  0  0  0  0  0  0  0  0  0  0
  -34.5980  -67.2240   46.9660 C   0  0  0  0  0  0  0  0  0  0  0  0
  -36.2670  -67.1770   48.7970 C   0  0  0  0  0  0  0  0  0  0  0  0
  -35.5970  -67.8670   49.5970 O   0  0  0  0  0  0  0  0  0  0  0  0
  -45.4930  -65.5020   52.6150 C   0  0  0  0  0  0  0  0  0  0  0  0
  -45.1680  -66.4190   53.5780 C   0  0  0  0  0  0  0  0  0  0  0  0
  -46.0940  -67.3550   54.0510 C   0  0  0  0  0  0  0  0  0  0  0  0
  -47.3680  -67.4010   53.5780 C   0  0  0  0  0  0  0  0  0  0  0  0
  -47.7260  -66.4950   52.6160 C   0  0  0  0  0  0  0  0  0  0  0  0
  -46.8180  -65.5750   52.1480 C   0  0  0  0  0  0  0  0  0  0  0  0
  -43.4330  -66.3820   54.3450 B   0  0  0  0  0  0  0  0  0  0  0  0
  -41.8650  -63.2700   50.4320 H   0  0  0  0  0  0  0  0  0  0  0  0
  -43.1310  -63.8200   49.2910 H   0  0  0  0  0  0  0  0  0  0  0  0
  -42.1140  -65.7960   48.7630 H   0  0  0  0  0  0  0  0  0  0  0  0
  -40.9320  -64.4730   48.6410 H   0  0  0  0  0  0  0  0  0  0  0  0
  -41.2590  -67.6980   50.9750 H   0  0  0  0  0  0  0  0  0  0  0  0
  -40.9810  -66.5120   52.2870 H   0  0  0  0  0  0  0  0  0  0  0  0
  -43.4240  -66.7300   51.9680 H   0  0  0  0  0  0  0  0  0  0  0  0
  -43.1810  -66.7630   50.2080 H   0  0  0  0  0  0  0  0  0  0  0  0
  -39.0720  -67.9040   50.1040 H   0  0  0  0  0  0  0  0  0  0  0  0
  -37.6940  -67.1310   50.9020 H   0  0  0  0  0  0  0  0  0  0  0  0
  -37.0120  -66.5920   45.6720 H   0  0  0  0  0  0  0  0  0  0  0  0
  -35.1230  -64.6080   46.8710 H   0  0  0  0  0  0  0  0  0  0  0  0
  -35.8630  -64.5550   48.5700 H   0  0  0  0  0  0  0  0  0  0  0  0
  -33.9650  -65.7310   49.4610 H   0  0  0  0  0  0  0  0  0  0  0  0
  -33.2110  -64.5400   48.2940 H   0  0  0  0  0  0  0  0  0  0  0  0
  -32.9010  -67.3590   48.2280 H   0  0  0  0  0  0  0  0  0  0  0  0
  -32.7460  -66.2230   46.7880 H   0  0  0  0  0  0  0  0  0  0  0  0
  -34.6310  -67.1230   45.8710 H   0  0  0  0  0  0  0  0  0  0  0  0
  -34.6730  -68.3220   47.1940 H   0  0  0  0  0  0  0  0  0  0  0  0
  -45.7590  -68.0370   54.8020 H   0  0  0  0  0  0  0  0  0  0  0  0
  -48.0310  -68.1440   53.9830 H   0  0  0  0  0  0  0  0  0  0  0  0
  -48.7400  -66.5320   52.2420 H   0  0  0  0  0  0  0  0  0  0  0  0
  -47.1040  -64.8610   51.3880 H   0  0  0  0  0  0  0  0  0  0  0  0
  1 24  1  0  0  0  0
  1  2  2  0  0  0  0
  3  1  2  0  0  0  0
  4  9  1  0  0  0  0
  4  1  1  0  0  0  0
  5 31  1  0  0  0  0
  5  4  1  0  0  0  0
  6  5  1  0  0  0  0
  6  7  1  0  0  0  0
  7 10  1  0  0  0  0
  7  8  1  0  0  0  0
  8 36  1  0  0  0  0
  9  8  1  0  0  0  0
  9 37  1  0  0  0  0
 10 11  2  0  0  0  0
 12 39  1  0  0  0  0
 12 10  1  0  0  0  0
 12 40  1  0  0  0  0
 13 12  1  0  0  0  0
 14 13  1  0  0  0  0
 15 14  2  0  0  0  0
 16 14  1  0  0  0  0
 16 17  1  0  0  0  0
 17 18  1  0  0  0  0
 17 22  1  0  0  0  0
 18 19  1  0  0  0  0
 18 43  1  0  0  0  0
 19 44  1  0  0  0  0
 20 46  1  0  0  0  0
 20 19  1  0  0  0  0
 21 49  1  0  0  0  0
 21 17  1  0  0  0  0
 21 20  1  0  0  0  0
 22 13  1  0  0  0  0
 22 23  2  0  0  0  0
 24 25  1  0  0  0  0
 25 26  2  0  0  0  0
 25 30  1  0  0  0  0
 26 50  1  0  0  0  0
 27 51  1  0  0  0  0
 27 26  1  0  0  0  0
 28 27  2  0  0  0  0
 29 24  2  0  0  0  0
 29 28  1  0  0  0  0
 32  5  1  0  0  0  0
 33  6  1  0  0  0  0
 34  6  1  0  0  0  0
 35  8  1  0  0  0  0
 38  9  1  0  0  0  0
 41 16  1  0  0  0  0
 42 18  1  0  0  0  0
 45 19  1  0  0  0  0
 47 20  1  0  0  0  0
 48 21  1  0  0  0  0
 52 28  1  0  0  0  0
 53 29  1  0  0  0  0
M  END
>  <Pose>
1

>  <Score>
-7.34

$$$$
