
 OpenBabel03202209423D

 53 56  0  0  0  0  0  0  0  0999 V2000
  -43.5070  -65.7720   52.7340 S   0  0  0  0  0  0  0  0  0  0  0  0
  -43.4540  -64.5740   53.6650 O   0  0  0  0  0  0  0  0  0  0  0  0
  -43.1860  -65.2380   51.3610 O   0  0  0  0  0  0  0  0  0  0  0  0
  -45.1130  -66.3480   52.7540 N   0  0  0  0  0  0  0  0  0  0  0  0
  -45.4550  -67.0440   53.9760 C   0  0  0  0  0  0  0  0  0  0  0  0
  -46.8370  -66.6690   54.4500 C   0  0  0  0  0  0  0  0  0  0  0  0
  -47.7500  -66.8650   53.3040 N   0  0  0  0  0  0  0  0  0  0  0  0
  -47.4040  -66.1480   52.1160 C   0  0  0  0  0  0  0  0  0  0  0  0
  -46.0940  -65.3790   52.4120 C   0  0  0  0  0  0  0  0  0  0  0  0
  -48.8640  -67.7080   53.4150 C   0  0  0  0  0  0  0  0  0  0  0  0
  -48.7670  -68.8340   52.7370 O   0  0  0  0  0  0  0  0  0  0  0  0
  -50.1100  -67.5940   54.1290 C   0  0  0  0  0  0  0  0  0  0  0  0
  -50.1200  -67.4320   55.5490 N   0  0  0  0  0  0  0  0  0  0  0  0
  -49.2440  -68.0650   56.5160 C   0  0  0  0  0  0  0  0  0  0  0  0
  -48.3180  -68.8560   56.1810 O   0  0  0  0  0  0  0  0  0  0  0  0
  -49.6340  -67.6260   57.8070 N   0  0  0  0  0  0  0  0  0  0  0  0
  -50.9560  -67.1090   57.6970 C   0  0  0  0  0  0  0  0  0  0  0  0
  -52.0270  -68.1240   58.0190 C   0  0  0  0  0  0  0  0  0  0  0  0
  -53.2520  -67.2400   58.1470 C   0  0  0  0  0  0  0  0  0  0  0  0
  -52.7480  -65.8910   58.6000 C   0  0  0  0  0  0  0  0  0  0  0  0
  -51.2480  -66.0210   58.7160 C   0  0  0  0  0  0  0  0  0  0  0  0
  -51.0250  -66.6170   56.3220 C   0  0  0  0  0  0  0  0  0  0  0  0
  -51.7210  -65.6760   55.8630 O   0  0  0  0  0  0  0  0  0  0  0  0
  -42.3360  -66.9820   53.2020 C   0  0  0  0  0  0  0  0  0  0  0  0
  -42.5600  -67.8560   54.2470 C   0  0  0  0  0  0  0  0  0  0  0  0
  -41.6220  -68.8150   54.6120 C   0  0  0  0  0  0  0  0  0  0  0  0
  -40.4330  -68.9240   53.9380 C   0  0  0  0  0  0  0  0  0  0  0  0
  -40.1970  -68.0570   52.8920 C   0  0  0  0  0  0  0  0  0  0  0  0
  -41.1370  -67.1020   52.5330 C   0  0  0  0  0  0  0  0  0  0  0  0
  -39.1280  -70.2500   54.4370 B   0  0  0  0  0  0  0  0  0  0  0  0
  -45.5120  -68.1360   53.6980 H   0  0  0  0  0  0  0  0  0  0  0  0
  -44.6980  -66.8780   54.7650 H   0  0  0  0  0  0  0  0  0  0  0  0
  -46.8290  -65.6480   54.8210 H   0  0  0  0  0  0  0  0  0  0  0  0
  -47.1150  -67.3600   55.2740 H   0  0  0  0  0  0  0  0  0  0  0  0
  -48.1550  -65.4380   51.7540 H   0  0  0  0  0  0  0  0  0  0  0  0
  -47.1480  -66.9010   51.3130 H   0  0  0  0  0  0  0  0  0  0  0  0
  -46.3470  -64.6320   53.1620 H   0  0  0  0  0  0  0  0  0  0  0  0
  -45.7810  -64.8350   51.4910 H   0  0  0  0  0  0  0  0  0  0  0  0
  -50.7650  -68.5170   53.9080 H   0  0  0  0  0  0  0  0  0  0  0  0
  -50.7600  -66.7530   53.7070 H   0  0  0  0  0  0  0  0  0  0  0  0
  -49.0000  -67.7040   58.6480 H   0  0  0  0  0  0  0  0  0  0  0  0
  -51.8080  -68.5320   59.0240 H   0  0  0  0  0  0  0  0  0  0  0  0
  -52.1350  -68.8940   57.2520 H   0  0  0  0  0  0  0  0  0  0  0  0
  -53.9790  -67.6280   58.8850 H   0  0  0  0  0  0  0  0  0  0  0  0
  -53.7040  -67.1920   57.1310 H   0  0  0  0  0  0  0  0  0  0  0  0
  -53.2160  -65.5720   59.5530 H   0  0  0  0  0  0  0  0  0  0  0  0
  -52.9510  -65.1650   57.7810 H   0  0  0  0  0  0  0  0  0  0  0  0
  -50.9480  -66.4540   59.7090 H   0  0  0  0  0  0  0  0  0  0  0  0
  -50.7140  -65.0900   58.4980 H   0  0  0  0  0  0  0  0  0  0  0  0
  -43.4920  -67.7740   54.7780 H   0  0  0  0  0  0  0  0  0  0  0  0
  -41.7850  -69.5050   55.4290 H   0  0  0  0  0  0  0  0  0  0  0  0
  -39.2460  -68.1640   52.3730 H   0  0  0  0  0  0  0  0  0  0  0  0
  -40.9060  -66.4320   51.6930 H   0  0  0  0  0  0  0  0  0  0  0  0
  1  4  1  0  0  0  0
  1 24  1  0  0  0  0
  1  2  2  0  0  0  0
  3  1  2  0  0  0  0
  4  5  1  0  0  0  0
  5  6  1  0  0  0  0
  5 32  1  0  0  0  0
  6 33  1  0  0  0  0
  6 34  1  0  0  0  0
  7 10  1  0  0  0  0
  7  6  1  0  0  0  0
  8  9  1  0  0  0  0
  8  7  1  0  0  0  0
  9  4  1  0  0  0  0
  9 37  1  0  0  0  0
 10 12  1  0  0  0  0
 11 10  2  0  0  0  0
 12 13  1  0  0  0  0
 13 22  1  0  0  0  0
 13 14  1  0  0  0  0
 14 16  1  0  0  0  0
 15 14  2  0  0  0  0
 16 41  1  0  0  0  0
 17 16  1  0  0  0  0
 17 18  1  0  0  0  0
 17 21  1  0  0  0  0
 18 19  1  0  0  0  0
 18 42  1  0  0  0  0
 19 20  1  0  0  0  0
 19 44  1  0  0  0  0
 20 21  1  0  0  0  0
 20 46  1  0  0  0  0
 21 48  1  0  0  0  0
 22 17  1  0  0  0  0
 23 22  2  0  0  0  0
 24 25  1  0  0  0  0
 25 26  2  0  0  0  0
 25 50  1  0  0  0  0
 26 51  1  0  0  0  0
 27 30  1  0  0  0  0
 27 26  1  0  0  0  0
 28 27  2  0  0  0  0
 29 28  1  0  0  0  0
 29 24  2  0  0  0  0
 31  5  1  0  0  0  0
 35  8  1  0  0  0  0
 36  8  1  0  0  0  0
 38  9  1  0  0  0  0
 39 12  1  0  0  0  0
 40 12  1  0  0  0  0
 43 18  1  0  0  0  0
 45 19  1  0  0  0  0
 47 20  1  0  0  0  0
 49 21  1  0  0  0  0
 52 28  1  0  0  0  0
 53 29  1  0  0  0  0
M  END
>  <Pose>
1

>  <Score>
-6.63

$$$$
