
 OpenBabel03202209423D

 45 48  0  0  0  0  0  0  0  0999 V2000
  -44.3540  -64.4280   51.5000 S   0  0  0  0  0  0  0  0  0  0  0  0
  -45.5970  -64.6230   50.6990 O   0  0  0  0  0  0  0  0  0  0  0  0
  -44.3840  -63.0630   52.1090 O   0  0  0  0  0  0  0  0  0  0  0  0
  -44.1530  -65.5880   52.6720 N   0  0  0  0  0  0  0  0  0  0  0  0
  -45.2040  -66.4880   52.9260 C   0  0  0  0  0  0  0  0  0  0  0  0
  -44.8710  -67.5150   53.9730 C   0  0  0  0  0  0  0  0  0  0  0  0
  -43.4810  -67.7060   54.1850 N   0  0  0  0  0  0  0  0  0  0  0  0
  -42.8390  -66.4890   54.5320 C   0  0  0  0  0  0  0  0  0  0  0  0
  -43.2380  -65.3170   53.7140 C   0  0  0  0  0  0  0  0  0  0  0  0
  -42.8910  -68.5060   53.1780 C   0  0  0  0  0  0  0  0  0  0  0  0
  -41.5350  -68.8930   53.3680 N   0  0  0  0  0  0  0  0  0  0  0  0
  -40.6300  -68.6550   52.4410 N   0  0  0  0  0  0  0  0  0  0  0  0
  -39.3340  -68.9910   52.5390 C   0  0  0  0  0  0  0  0  0  0  0  0
  -38.9460  -69.6270   53.6940 C   0  0  0  0  0  0  0  0  0  0  0  0
  -39.8450  -69.9050   54.7020 C   0  0  0  0  0  0  0  0  0  0  0  0
  -41.1610  -69.5140   54.4990 C   0  0  0  0  0  0  0  0  0  0  0  0
  -41.9930  -69.7720   55.4370 O   0  0  0  0  0  0  0  0  0  0  0  0
  -38.3740  -68.7190   51.5120 N   0  0  0  0  0  0  0  0  0  0  0  0
  -37.2540  -69.3880   51.2170 C   0  0  0  0  0  0  0  0  0  0  0  0
  -36.6530  -68.7820   50.1770 N   0  0  0  0  0  0  0  0  0  0  0  0
  -37.3870  -67.7190   49.8000 C   0  0  0  0  0  0  0  0  0  0  0  0
  -38.4700  -67.6930   50.6520 C   0  0  0  0  0  0  0  0  0  0  0  0
  -42.9860  -64.5000   50.3690 C   0  0  0  0  0  0  0  0  0  0  0  0
  -41.6310  -65.5340   50.3860 S   0  0  0  0  0  0  0  0  0  0  0  0
  -40.8320  -64.9580   48.9960 C   0  0  0  0  0  0  0  0  0  0  0  0
  -41.6580  -63.9560   48.5500 C   0  0  0  0  0  0  0  0  0  0  0  0
  -42.7700  -63.7250   49.2650 C   0  0  0  0  0  0  0  0  0  0  0  0
  -39.1810  -65.5450   48.2210 B   0  0  0  0  0  0  0  0  0  0  0  0
  -46.1180  -65.9200   53.2060 H   0  0  0  0  0  0  0  0  0  0  0  0
  -45.4640  -67.0350   51.9880 H   0  0  0  0  0  0  0  0  0  0  0  0
  -45.3400  -68.4870   53.7280 H   0  0  0  0  0  0  0  0  0  0  0  0
  -45.3270  -67.1870   54.9350 H   0  0  0  0  0  0  0  0  0  0  0  0
  -41.7190  -66.5980   54.6270 H   0  0  0  0  0  0  0  0  0  0  0  0
  -43.1460  -66.2670   55.6000 H   0  0  0  0  0  0  0  0  0  0  0  0
  -42.3090  -64.8690   53.2700 H   0  0  0  0  0  0  0  0  0  0  0  0
  -43.6650  -64.4880   54.3380 H   0  0  0  0  0  0  0  0  0  0  0  0
  -43.4920  -69.4640   53.1300 H   0  0  0  0  0  0  0  0  0  0  0  0
  -43.0330  -68.0680   52.1490 H   0  0  0  0  0  0  0  0  0  0  0  0
  -37.9090  -69.9160   53.8130 H   0  0  0  0  0  0  0  0  0  0  0  0
  -39.5520  -70.4030   55.6120 H   0  0  0  0  0  0  0  0  0  0  0  0
  -36.9000  -70.2750   51.7420 H   0  0  0  0  0  0  0  0  0  0  0  0
  -37.1570  -67.0240   48.9780 H   0  0  0  0  0  0  0  0  0  0  0  0
  -39.2500  -66.9550   50.6100 H   0  0  0  0  0  0  0  0  0  0  0  0
  -41.3750  -63.3890   47.6290 H   0  0  0  0  0  0  0  0  0  0  0  0
  -43.4890  -62.9280   48.9640 H   0  0  0  0  0  0  0  0  0  0  0  0
  1  3  2  0  0  0  0
  1  4  1  0  0  0  0
  2  1  2  0  0  0  0
  4  5  1  0  0  0  0
  4  9  1  0  0  0  0
  5 29  1  0  0  0  0
  5  6  1  0  0  0  0
  6  7  1  0  0  0  0
  6 32  1  0  0  0  0
  7  8  1  0  0  0  0
  8 33  1  0  0  0  0
  8 34  1  0  0  0  0
  9 36  1  0  0  0  0
  9  8  1  0  0  0  0
 10 11  1  0  0  0  0
 10  7  1  0  0  0  0
 11 16  1  0  0  0  0
 12 13  2  0  0  0  0
 12 11  1  0  0  0  0
 13 14  1  0  0  0  0
 14 39  1  0  0  0  0
 14 15  2  0  0  0  0
 15 40  1  0  0  0  0
 16 15  1  0  0  0  0
 16 17  2  0  0  0  0
 18 13  1  0  0  0  0
 19 18  1  0  0  0  0
 19 41  1  0  0  0  0
 20 19  2  0  0  0  0
 21 20  1  0  0  0  0
 21 22  2  0  0  0  0
 22 18  1  0  0  0  0
 23 24  1  0  0  0  0
 23  1  1  0  0  0  0
 25 24  1  0  0  0  0
 26 25  2  0  0  0  0
 26 27  1  0  0  0  0
 27 23  2  0  0  0  0
 28 25  1  0  0  0  0
 30  5  1  0  0  0  0
 31  6  1  0  0  0  0
 35  9  1  0  0  0  0
 37 10  1  0  0  0  0
 38 10  1  0  0  0  0
 42 21  1  0  0  0  0
 43 22  1  0  0  0  0
 44 26  1  0  0  0  0
 45 27  1  0  0  0  0
M  END
>  <Pose>
1

>  <Score>
-6.49

$$$$
