
 OpenBabel03202209423D

 52 55  0  0  0  0  0  0  0  0999 V2000
  -41.5900  -66.5450   51.0750 S   0  0  0  0  0  0  0  0  0  0  0  0
  -40.9170  -65.2240   50.8100 O   0  0  0  0  0  0  0  0  0  0  0  0
  -42.1410  -67.0150   49.7480 O   0  0  0  0  0  0  0  0  0  0  0  0
  -42.9150  -66.3880   52.1470 N   0  0  0  0  0  0  0  0  0  0  0  0
  -42.5450  -66.3350   53.5260 C   0  0  0  0  0  0  0  0  0  0  0  0
  -43.8480  -66.5360   54.3190 C   0  0  0  0  0  0  0  0  0  0  0  0
  -44.9540  -66.0250   53.6340 N   0  0  0  0  0  0  0  0  0  0  0  0
  -44.7110  -64.8840   52.7930 C   0  0  0  0  0  0  0  0  0  0  0  0
  -43.5370  -65.0830   51.8620 C   0  0  0  0  0  0  0  0  0  0  0  0
  -46.0110  -66.8560   53.2340 C   0  0  0  0  0  0  0  0  0  0  0  0
  -47.1970  -66.8810   54.0280 N   0  0  0  0  0  0  0  0  0  0  0  0
  -47.4350  -67.9290   54.9540 N   0  0  0  0  0  0  0  0  0  0  0  0
  -48.6850  -67.6250   55.5670 C   0  0  0  0  0  0  0  0  0  0  0  0
  -49.2370  -68.3920   56.4990 C   0  0  0  0  0  0  0  0  0  0  0  0
  -50.4900  -68.3210   57.2860 C   0  0  0  0  0  0  0  0  0  0  0  0
  -51.5570  -67.5600   56.5350 C   0  0  0  0  0  0  0  0  0  0  0  0
  -51.1390  -66.1010   56.5740 C   0  0  0  0  0  0  0  0  0  0  0  0
  -50.4320  -65.6910   55.3180 C   0  0  0  0  0  0  0  0  0  0  0  0
  -49.2300  -66.4210   55.0500 N   0  0  0  0  0  0  0  0  0  0  0  0
  -48.2840  -65.9700   54.0850 C   0  0  0  0  0  0  0  0  0  0  0  0
  -48.4300  -64.9200   53.4120 O   0  0  0  0  0  0  0  0  0  0  0  0
  -40.4070  -67.6850   51.5900 C   0  0  0  0  0  0  0  0  0  0  0  0
  -40.4460  -68.4220   52.7370 C   0  0  0  0  0  0  0  0  0  0  0  0
  -39.4360  -69.3160   53.0600 C   0  0  0  0  0  0  0  0  0  0  0  0
  -38.3590  -69.4980   52.2430 C   0  0  0  0  0  0  0  0  0  0  0  0
  -38.2920  -68.7620   51.0700 C   0  0  0  0  0  0  0  0  0  0  0  0
  -39.2970  -67.8800   50.7620 C   0  0  0  0  0  0  0  0  0  0  0  0
  -39.5120  -70.3440   54.6820 B   0  0  0  0  0  0  0  0  0  0  0  0
  -41.7740  -67.0620   53.8260 H   0  0  0  0  0  0  0  0  0  0  0  0
  -42.1700  -65.3150   53.8130 H   0  0  0  0  0  0  0  0  0  0  0  0
  -43.9280  -67.6260   54.4540 H   0  0  0  0  0  0  0  0  0  0  0  0
  -43.7270  -66.1110   55.3450 H   0  0  0  0  0  0  0  0  0  0  0  0
  -45.6080  -64.7360   52.1570 H   0  0  0  0  0  0  0  0  0  0  0  0
  -44.6140  -63.9890   53.4320 H   0  0  0  0  0  0  0  0  0  0  0  0
  -42.7720  -64.3260   52.1390 H   0  0  0  0  0  0  0  0  0  0  0  0
  -43.7750  -64.9560   50.8090 H   0  0  0  0  0  0  0  0  0  0  0  0
  -45.6140  -67.8890   53.0790 H   0  0  0  0  0  0  0  0  0  0  0  0
  -46.3160  -66.5370   52.1910 H   0  0  0  0  0  0  0  0  0  0  0  0
  -46.8200  -68.7550   55.1470 H   0  0  0  0  0  0  0  0  0  0  0  0
  -48.6080  -69.2680   56.7200 H   0  0  0  0  0  0  0  0  0  0  0  0
  -50.3120  -67.9040   58.2980 H   0  0  0  0  0  0  0  0  0  0  0  0
  -50.8560  -69.3820   57.3940 H   0  0  0  0  0  0  0  0  0  0  0  0
  -52.5420  -67.7230   57.0000 H   0  0  0  0  0  0  0  0  0  0  0  0
  -51.5090  -67.8800   55.4730 H   0  0  0  0  0  0  0  0  0  0  0  0
  -52.0620  -65.5050   56.7140 H   0  0  0  0  0  0  0  0  0  0  0  0
  -50.4810  -65.9060   57.4390 H   0  0  0  0  0  0  0  0  0  0  0  0
  -51.1460  -65.8490   54.4740 H   0  0  0  0  0  0  0  0  0  0  0  0
  -50.2300  -64.5970   55.3820 H   0  0  0  0  0  0  0  0  0  0  0  0
  -41.2950  -68.2860   53.3920 H   0  0  0  0  0  0  0  0  0  0  0  0
  -37.5690  -70.2010   52.5020 H   0  0  0  0  0  0  0  0  0  0  0  0
  -37.4430  -68.8970   50.4150 H   0  0  0  0  0  0  0  0  0  0  0  0
  -39.2110  -67.3210   49.8350 H   0  0  0  0  0  0  0  0  0  0  0  0
  1 22  1  0  0  0  0
  1  4  1  0  0  0  0
  2  1  2  0  0  0  0
  3  1  2  0  0  0  0
  4  5  1  0  0  0  0
  5 30  1  0  0  0  0
  5 29  1  0  0  0  0
  5  6  1  0  0  0  0
  6 31  1  0  0  0  0
  6 32  1  0  0  0  0
  7  6  1  0  0  0  0
  8 34  1  0  0  0  0
  8  7  1  0  0  0  0
  9 35  1  0  0  0  0
  9  4  1  0  0  0  0
  9  8  1  0  0  0  0
 10  7  1  0  0  0  0
 10 11  1  0  0  0  0
 11 20  1  0  0  0  0
 11 12  1  0  0  0  0
 12 39  1  0  0  0  0
 12 13  1  0  0  0  0
 13 14  2  0  0  0  0
 14 40  1  0  0  0  0
 14 15  1  0  0  0  0
 15 42  1  0  0  0  0
 15 41  1  0  0  0  0
 16 17  1  0  0  0  0
 16 43  1  0  0  0  0
 16 15  1  0  0  0  0
 17 45  1  0  0  0  0
 17 46  1  0  0  0  0
 18 48  1  0  0  0  0
 18 17  1  0  0  0  0
 19 18  1  0  0  0  0
 19 13  1  0  0  0  0
 20 19  1  0  0  0  0
 21 20  2  0  0  0  0
 22 23  1  0  0  0  0
 23 24  2  0  0  0  0
 23 49  1  0  0  0  0
 24 28  1  0  0  0  0
 25 50  1  0  0  0  0
 25 24  1  0  0  0  0
 26 25  2  0  0  0  0
 27 26  1  0  0  0  0
 27 22  2  0  0  0  0
 33  8  1  0  0  0  0
 36  9  1  0  0  0  0
 37 10  1  0  0  0  0
 38 10  1  0  0  0  0
 44 16  1  0  0  0  0
 47 18  1  0  0  0  0
 51 26  1  0  0  0  0
 52 27  1  0  0  0  0
M  END
>  <Pose>
1

>  <Score>
-6.51

$$$$
