
 OpenBabel03202209423D

 44 47  0  0  0  0  0  0  0  0999 V2000
  -39.9500  -63.9050   49.9610 S   0  0  0  0  0  0  0  0  0  0  0  0
  -39.7590  -63.7440   51.4170 O   0  0  0  0  0  0  0  0  0  0  0  0
  -39.9250  -62.5020   49.3670 O   0  0  0  0  0  0  0  0  0  0  0  0
  -41.4170  -64.6340   49.5050 N   0  0  0  0  0  0  0  0  0  0  0  0
  -42.5900  -63.8580   49.6420 C   0  0  0  0  0  0  0  0  0  0  0  0
  -43.5540  -64.2680   50.7040 C   0  0  0  0  0  0  0  0  0  0  0  0
  -43.1490  -65.4230   51.4670 N   0  0  0  0  0  0  0  0  0  0  0  0
  -42.4240  -66.4690   50.8230 C   0  0  0  0  0  0  0  0  0  0  0  0
  -41.5010  -66.0250   49.7420 C   0  0  0  0  0  0  0  0  0  0  0  0
  -43.5150  -65.4570   52.8540 C   0  0  0  0  0  0  0  0  0  0  0  0
  -44.7630  -65.3490   53.3420 N   0  0  0  0  0  0  0  0  0  0  0  0
  -44.6290  -65.4180   54.6710 N   0  0  0  0  0  0  0  0  0  0  0  0
  -43.3600  -65.5620   54.9840 N   0  0  0  0  0  0  0  0  0  0  0  0
  -42.6370  -65.5910   53.8850 N   0  0  0  0  0  0  0  0  0  0  0  0
  -45.9620  -65.2050   52.5950 C   0  0  0  0  0  0  0  0  0  0  0  0
  -46.2730  -64.0230   51.9620 C   0  0  0  0  0  0  0  0  0  0  0  0
  -47.4580  -63.9130   51.2360 C   0  0  0  0  0  0  0  0  0  0  0  0
  -48.3370  -64.9700   51.1350 C   0  0  0  0  0  0  0  0  0  0  0  0
  -48.0200  -66.1720   51.7790 C   0  0  0  0  0  0  0  0  0  0  0  0
  -46.8290  -66.2640   52.5020 C   0  0  0  0  0  0  0  0  0  0  0  0
  -38.6140  -64.7760   49.2610 C   0  0  0  0  0  0  0  0  0  0  0  0
  -38.7790  -65.8560   48.4300 C   0  0  0  0  0  0  0  0  0  0  0  0
  -37.7000  -66.5420   47.8740 C   0  0  0  0  0  0  0  0  0  0  0  0
  -36.4090  -66.1020   48.1830 C   0  0  0  0  0  0  0  0  0  0  0  0
  -36.2310  -65.0190   49.0150 C   0  0  0  0  0  0  0  0  0  0  0  0
  -37.3150  -64.3730   49.5410 C   0  0  0  0  0  0  0  0  0  0  0  0
  -34.8820  -66.9950   47.4520 B   0  0  0  0  0  0  0  0  0  0  0  0
  -42.2710  -62.7870   49.7380 H   0  0  0  0  0  0  0  0  0  0  0  0
  -43.1210  -63.9040   48.6430 H   0  0  0  0  0  0  0  0  0  0  0  0
  -43.7050  -63.3690   51.3640 H   0  0  0  0  0  0  0  0  0  0  0  0
  -44.5630  -64.4260   50.2470 H   0  0  0  0  0  0  0  0  0  0  0  0
  -41.8130  -67.0460   51.5770 H   0  0  0  0  0  0  0  0  0  0  0  0
  -43.1970  -67.1960   50.4350 H   0  0  0  0  0  0  0  0  0  0  0  0
  -41.8350  -66.5200   48.7840 H   0  0  0  0  0  0  0  0  0  0  0  0
  -40.4620  -66.4380   49.8930 H   0  0  0  0  0  0  0  0  0  0  0  0
  -45.6220  -63.1420   52.0000 H   0  0  0  0  0  0  0  0  0  0  0  0
  -47.7360  -62.9880   50.7190 H   0  0  0  0  0  0  0  0  0  0  0  0
  -49.2590  -64.9180   50.5820 H   0  0  0  0  0  0  0  0  0  0  0  0
  -48.7100  -66.9940   51.6960 H   0  0  0  0  0  0  0  0  0  0  0  0
  -46.6500  -67.2290   52.9760 H   0  0  0  0  0  0  0  0  0  0  0  0
  -39.7880  -66.2120   48.1800 H   0  0  0  0  0  0  0  0  0  0  0  0
  -37.8040  -67.3870   47.2240 H   0  0  0  0  0  0  0  0  0  0  0  0
  -35.1980  -64.7180   49.2240 H   0  0  0  0  0  0  0  0  0  0  0  0
  -37.1330  -63.5110   50.2040 H   0  0  0  0  0  0  0  0  0  0  0  0
  1  2  2  0  0  0  0
  3  1  2  0  0  0  0
  4  5  1  0  0  0  0
  4  9  1  0  0  0  0
  4  1  1  0  0  0  0
  5 28  1  0  0  0  0
  5  6  1  0  0  0  0
  6 30  1  0  0  0  0
  6  7  1  0  0  0  0
  7 10  1  0  0  0  0
  8  7  1  0  0  0  0
  8 32  1  0  0  0  0
  9 35  1  0  0  0  0
  9  8  1  0  0  0  0
 10 11  1  0  0  0  0
 10 14  2  0  0  0  0
 11 12  1  0  0  0  0
 12 13  2  0  0  0  0
 14 13  1  0  0  0  0
 15 11  1  0  0  0  0
 16 36  1  0  0  0  0
 16 15  2  0  0  0  0
 17 16  1  0  0  0  0
 18 17  2  0  0  0  0
 18 19  1  0  0  0  0
 19 20  2  0  0  0  0
 20 15  1  0  0  0  0
 20 40  1  0  0  0  0
 21 26  1  0  0  0  0
 21  1  1  0  0  0  0
 22 21  2  0  0  0  0
 23 24  2  0  0  0  0
 23 22  1  0  0  0  0
 24 25  1  0  0  0  0
 25 43  1  0  0  0  0
 25 26  2  0  0  0  0
 26 44  1  0  0  0  0
 27 24  1  0  0  0  0
 29  5  1  0  0  0  0
 31  6  1  0  0  0  0
 33  8  1  0  0  0  0
 34  9  1  0  0  0  0
 37 17  1  0  0  0  0
 38 18  1  0  0  0  0
 39 19  1  0  0  0  0
 41 22  1  0  0  0  0
 42 23  1  0  0  0  0
M  END
>  <Pose>
1

>  <Score>
-5.87

$$$$
