
 OpenBabel03202209423D

 40 43  0  0  1  0  0  0  0  0999 V2000
  -40.0190  -64.3210   49.4860 S   0  0  0  0  0  0  0  0  0  0  0  0
  -40.6300  -63.1980   50.2840 O   0  0  0  0  0  0  0  0  0  0  0  0
  -40.9570  -64.5590   48.3110 O   0  0  0  0  0  0  0  0  0  0  0  0
  -39.9090  -65.7710   50.3630 N   0  0  0  0  0  0  0  0  0  0  0  0
  -41.1410  -66.4840   50.2970 C   0  0  0  0  0  0  0  0  0  0  0  0
  -40.9590  -67.9850   50.3810 C   0  0  0  0  0  0  0  0  0  0  0  0
  -39.8470  -68.2320   51.2640 N   0  0  0  0  0  0  0  0  0  0  0  0
  -38.5590  -67.7960   50.7900 C   0  0  0  0  0  0  0  0  0  0  0  0
  -38.7250  -66.5060   50.0700 C   0  0  0  0  0  0  0  0  0  0  0  0
  -39.9790  -68.8620   52.5230 C   0  0  1  0  0  0  0  0  0  0  0  0
  -39.1670  -69.8440   52.9150 C   0  0  0  0  0  0  0  0  0  0  0  0
  -39.2680  -70.5140   54.1980 C   0  0  0  0  0  0  0  0  0  0  0  0
  -38.4340  -71.4840   54.5340 C   0  0  0  0  0  0  0  0  0  0  0  0
  -40.2830  -70.1110   55.0930 N   0  0  0  0  0  0  0  0  0  0  0  0
  -41.1380  -69.0510   54.6390 C   0  0  0  0  0  0  0  0  0  0  0  0
  -41.0020  -68.4630   53.4400 N   0  0  0  0  0  0  0  0  0  0  0  0
  -41.9380  -67.5200   53.3090 N   0  0  0  0  0  0  0  0  0  0  0  0
  -42.6910  -67.4870   54.4220 C   0  0  0  0  0  0  0  0  0  0  0  0
  -42.1900  -68.4340   55.2330 N   0  0  0  0  0  0  0  0  0  0  0  0
  -38.4760  -63.8320   48.7890 C   0  0  0  0  0  0  0  0  0  0  0  0
  -36.9360  -64.0700   49.4660 S   0  0  0  0  0  0  0  0  0  0  0  0
  -35.9840  -63.3530   48.2510 C   0  0  0  0  0  0  0  0  0  0  0  0
  -36.9090  -62.9390   47.3300 C   0  0  0  0  0  0  0  0  0  0  0  0
  -38.2090  -63.1910   47.6130 C   0  0  0  0  0  0  0  0  0  0  0  0
  -34.0660  -63.1510   48.1530 B   0  0  0  0  0  0  0  0  0  0  0  0
  -41.8040  -66.1740   49.4640 H   0  0  0  0  0  0  0  0  0  0  0  0
  -41.7210  -66.2090   51.2280 H   0  0  0  0  0  0  0  0  0  0  0  0
  -41.8770  -68.5080   50.6730 H   0  0  0  0  0  0  0  0  0  0  0  0
  -40.6570  -68.3340   49.3730 H   0  0  0  0  0  0  0  0  0  0  0  0
  -37.7900  -67.7740   51.5870 H   0  0  0  0  0  0  0  0  0  0  0  0
  -38.1730  -68.5770   50.0690 H   0  0  0  0  0  0  0  0  0  0  0  0
  -37.8640  -65.8510   50.4000 H   0  0  0  0  0  0  0  0  0  0  0  0
  -38.5420  -66.6570   48.9910 H   0  0  0  0  0  0  0  0  0  0  0  0
  -38.3940  -70.1460   52.2250 H   0  0  0  0  0  0  0  0  0  0  0  0
  -37.6510  -71.7950   53.8420 H   0  0  0  0  0  0  0  0  0  0  0  0
  -38.4890  -71.9970   55.4810 H   0  0  0  0  0  0  0  0  0  0  0  0
  -40.4390  -70.5210   56.0240 H   0  0  0  0  0  0  0  0  0  0  0  0
  -43.5400  -66.8310   54.6350 H   0  0  0  0  0  0  0  0  0  0  0  0
  -36.5550  -62.4210   46.4010 H   0  0  0  0  0  0  0  0  0  0  0  0
  -39.0070  -62.8730   46.8950 H   0  0  0  0  0  0  0  0  0  0  0  0
  1  2  2  0  0  0  0
  1  4  1  0  0  0  0
  3  1  2  0  0  0  0
  5  4  1  0  0  0  0
  5  6  1  0  0  0  0
  5 27  1  0  0  0  0
  6 28  1  0  0  0  0
  6  7  1  0  0  0  0
  8  7  1  0  0  0  0
  8 30  1  0  0  0  0
  9  4  1  0  0  0  0
  9 32  1  0  0  0  0
  9  8  1  0  0  0  0
 10  7  1  1  0  0  0
 10 11  1  0  0  0  0
 10 16  1  0  0  0  0
 11 12  2  0  0  0  0
 12 13  1  0  0  0  0
 12 14  1  0  0  0  0
 13 36  1  0  0  0  0
 14 37  1  0  0  0  0
 15 14  1  0  0  0  0
 15 19  2  0  0  0  0
 16 15  1  0  0  0  0
 17 16  1  0  0  0  0
 17 18  2  0  0  0  0
 18 38  1  0  0  0  0
 18 19  1  0  0  0  0
 20 21  1  0  0  0  0
 20  1  1  0  0  0  0
 22 21  1  0  0  0  0
 23 24  1  0  0  0  0
 23 22  2  0  0  0  0
 24 20  2  0  0  0  0
 25 22  1  0  0  0  0
 26  5  1  0  0  0  0
 29  6  1  0  0  0  0
 31  8  1  0  0  0  0
 33  9  1  0  0  0  0
 34 11  1  0  0  0  0
 35 13  1  0  0  0  0
 39 23  1  0  0  0  0
 40 24  1  0  0  0  0
M  END
>  <Pose>
1

>  <Score>
-6.83

$$$$
