
 OpenBabel03202209423D

 57 60  0  0  1  0  0  0  0  0999 V2000
  -43.6900  -65.8150   53.6980 S   0  0  0  0  0  0  0  0  0  0  0  0
  -44.5470  -65.8130   54.9240 O   0  0  0  0  0  0  0  0  0  0  0  0
  -42.9000  -64.5120   53.7330 O   0  0  0  0  0  0  0  0  0  0  0  0
  -44.5550  -65.9540   52.2420 N   0  0  0  0  0  0  0  0  0  0  0  0
  -43.9560  -65.1390   51.2390 C   0  0  0  0  0  0  0  0  0  0  0  0
  -44.8720  -64.0930   50.6450 C   0  0  0  0  0  0  0  0  0  0  0  0
  -45.6190  -63.3990   51.6960 N   0  0  0  0  0  0  0  0  0  0  0  0
  -46.2040  -64.3000   52.6630 C   0  0  0  0  0  0  0  0  0  0  0  0
  -46.8340  -63.9000   53.6460 O   0  0  0  0  0  0  0  0  0  0  0  0
  -45.9520  -65.7400   52.3250 C   0  0  2  0  0  0  0  0  0  0  0  0
  -46.7440  -66.6730   53.1530 C   0  0  0  0  0  0  0  0  0  0  0  0
  -48.1760  -66.5720   52.7830 C   0  0  0  0  0  0  0  0  0  0  0  0
  -48.4700  -66.8430   51.5880 O   0  0  0  0  0  0  0  0  0  0  0  0
  -49.1760  -66.1890   53.7290 N   0  0  0  0  0  0  0  0  0  0  0  0
  -50.0280  -65.0570   53.4850 C   0  0  0  0  0  0  0  0  0  0  0  0
  -51.3850  -65.1670   54.1070 C   0  0  0  0  0  0  0  0  0  0  0  0
  -51.4080  -65.9250   55.3460 N   0  0  0  0  0  0  0  0  0  0  0  0
  -50.7740  -67.2320   55.2620 C   0  0  0  0  0  0  0  0  0  0  0  0
  -49.3210  -66.9560   54.9380 C   0  0  0  0  0  0  0  0  0  0  0  0
  -51.9880  -65.5000   56.5490 C   0  0  0  0  0  0  0  0  0  0  0  0
  -51.1930  -64.9370   57.5220 C   0  0  0  0  0  0  0  0  0  0  0  0
  -51.7670  -64.5310   58.7170 C   0  0  0  0  0  0  0  0  0  0  0  0
  -53.1080  -64.6660   58.9790 C   0  0  0  0  0  0  0  0  0  0  0  0
  -53.8980  -65.2280   58.0030 C   0  0  0  0  0  0  0  0  0  0  0  0
  -53.3300  -65.6370   56.8060 C   0  0  0  0  0  0  0  0  0  0  0  0
  -42.4970  -67.0910   53.8680 C   0  0  0  0  0  0  0  0  0  0  0  0
  -42.7350  -68.2400   54.6130 C   0  0  0  0  0  0  0  0  0  0  0  0
  -41.8210  -69.2450   54.7620 C   0  0  0  0  0  0  0  0  0  0  0  0
  -40.5930  -69.1520   54.1600 C   0  0  0  0  0  0  0  0  0  0  0  0
  -40.3170  -68.0080   53.4000 C   0  0  0  0  0  0  0  0  0  0  0  0
  -41.2600  -67.0170   53.2720 C   0  0  0  0  0  0  0  0  0  0  0  0
  -39.2790  -70.5170   54.3300 B   0  0  0  0  0  0  0  0  0  0  0  0
  -43.6330  -65.7870   50.3820 H   0  0  0  0  0  0  0  0  0  0  0  0
  -43.0430  -64.6000   51.5630 H   0  0  0  0  0  0  0  0  0  0  0  0
  -45.5350  -64.5570   49.8990 H   0  0  0  0  0  0  0  0  0  0  0  0
  -44.2540  -63.3410   50.1270 H   0  0  0  0  0  0  0  0  0  0  0  0
  -45.7360  -62.3890   51.7710 H   0  0  0  0  0  0  0  0  0  0  0  0
  -46.3480  -65.8350   51.2700 H   0  0  0  0  0  0  0  0  0  0  0  0
  -46.5840  -66.3510   54.2260 H   0  0  0  0  0  0  0  0  0  0  0  0
  -46.4060  -67.7270   53.1440 H   0  0  0  0  0  0  0  0  0  0  0  0
  -49.5610  -64.0970   53.8240 H   0  0  0  0  0  0  0  0  0  0  0  0
  -50.2010  -64.8930   52.3860 H   0  0  0  0  0  0  0  0  0  0  0  0
  -51.7540  -64.1540   54.3040 H   0  0  0  0  0  0  0  0  0  0  0  0
  -52.1170  -65.6540   53.4170 H   0  0  0  0  0  0  0  0  0  0  0  0
  -51.1820  -67.7660   54.3710 H   0  0  0  0  0  0  0  0  0  0  0  0
  -50.8250  -67.8380   56.1510 H   0  0  0  0  0  0  0  0  0  0  0  0
  -48.8220  -66.3830   55.7480 H   0  0  0  0  0  0  0  0  0  0  0  0
  -48.7590  -67.9050   54.8430 H   0  0  0  0  0  0  0  0  0  0  0  0
  -50.1140  -64.7810   57.4110 H   0  0  0  0  0  0  0  0  0  0  0  0
  -51.1490  -64.0870   59.4900 H   0  0  0  0  0  0  0  0  0  0  0  0
  -53.5490  -64.3410   59.9250 H   0  0  0  0  0  0  0  0  0  0  0  0
  -54.9650  -65.3460   58.1870 H   0  0  0  0  0  0  0  0  0  0  0  0
  -54.0290  -66.0710   56.1030 H   0  0  0  0  0  0  0  0  0  0  0  0
  -43.6850  -68.3580   55.1000 H   0  0  0  0  0  0  0  0  0  0  0  0
  -42.0190  -70.1470   55.3530 H   0  0  0  0  0  0  0  0  0  0  0  0
  -39.3410  -67.9720   52.9430 H   0  0  0  0  0  0  0  0  0  0  0  0
  -41.0200  -66.1520   52.6830 H   0  0  0  0  0  0  0  0  0  0  0  0
  1  3  2  0  0  0  0
  1 26  1  0  0  0  0
  1  2  2  0  0  0  0
  4 10  1  0  0  0  0
  4  1  1  0  0  0  0
  5 34  1  0  0  0  0
  5  4  1  0  0  0  0
  6  5  1  0  0  0  0
  6  7  1  0  0  0  0
  7 37  1  0  0  0  0
  7  8  1  0  0  0  0
  8  9  2  0  0  0  0
 10 38  1  6  0  0  0
 10  8  1  0  0  0  0
 10 11  1  0  0  0  0
 11 39  1  0  0  0  0
 12 11  1  0  0  0  0
 12 14  1  0  0  0  0
 13 12  2  0  0  0  0
 14 19  1  0  0  0  0
 15 14  1  0  0  0  0
 15 41  1  0  0  0  0
 15 16  1  0  0  0  0
 16 43  1  0  0  0  0
 16 17  1  0  0  0  0
 17 20  1  0  0  0  0
 18 17  1  0  0  0  0
 18 46  1  0  0  0  0
 19 18  1  0  0  0  0
 19 47  1  0  0  0  0
 20 25  2  0  0  0  0
 20 21  1  0  0  0  0
 21 22  2  0  0  0  0
 22 23  1  0  0  0  0
 22 50  1  0  0  0  0
 23 51  1  0  0  0  0
 24 52  1  0  0  0  0
 24 23  2  0  0  0  0
 25 24  1  0  0  0  0
 26 27  1  0  0  0  0
 27 28  2  0  0  0  0
 27 54  1  0  0  0  0
 28 55  1  0  0  0  0
 29 32  1  0  0  0  0
 29 28  1  0  0  0  0
 30 29  2  0  0  0  0
 31 30  1  0  0  0  0
 31 26  2  0  0  0  0
 33  5  1  0  0  0  0
 35  6  1  0  0  0  0
 36  6  1  0  0  0  0
 40 11  1  0  0  0  0
 42 15  1  0  0  0  0
 44 16  1  0  0  0  0
 45 18  1  0  0  0  0
 48 19  1  0  0  0  0
 49 21  1  0  0  0  0
 53 25  1  0  0  0  0
 56 30  1  0  0  0  0
 57 31  1  0  0  0  0
M  END
>  <Pose>
1

>  <Score>
-6.17

$$$$
