
 OpenBabel03202209423D

 43 46  0  0  0  0  0  0  0  0999 V2000
  -41.2480  -68.6960   54.8150 S   0  0  0  0  0  0  0  0  0  0  0  0
  -40.2750  -67.9220   55.6630 O   0  0  0  0  0  0  0  0  0  0  0  0
  -41.8130  -69.7870   55.6660 O   0  0  0  0  0  0  0  0  0  0  0  0
  -40.4110  -69.3240   53.4630 N   0  0  0  0  0  0  0  0  0  0  0  0
  -39.2510  -70.0690   53.7840 C   0  0  0  0  0  0  0  0  0  0  0  0
  -38.0950  -69.9480   52.8470 C   0  0  0  0  0  0  0  0  0  0  0  0
  -38.6270  -69.8150   51.5440 O   0  0  0  0  0  0  0  0  0  0  0  0
  -39.1280  -68.5100   51.5080 C   0  0  0  0  0  0  0  0  0  0  0  0
  -40.3490  -68.4420   52.3550 C   0  0  0  0  0  0  0  0  0  0  0  0
  -42.5140  -67.5680   54.3130 C   0  0  0  0  0  0  0  0  0  0  0  0
  -43.6260  -67.2360   54.9920 N   0  0  0  0  0  0  0  0  0  0  0  0
  -44.3250  -66.3480   54.2600 C   0  0  0  0  0  0  0  0  0  0  0  0
  -43.6890  -66.0890   53.1080 N   0  0  0  0  0  0  0  0  0  0  0  0
  -42.5750  -66.8380   53.1390 C   0  0  0  0  0  0  0  0  0  0  0  0
  -44.1240  -65.1890   52.0600 C   0  0  0  0  0  0  0  0  0  0  0  0
  -43.0210  -64.7880   51.1560 C   0  0  0  0  0  0  0  0  0  0  0  0
  -42.9610  -63.6180   50.4920 N   0  0  0  0  0  0  0  0  0  0  0  0
  -41.8660  -63.5940   49.7940 O   0  0  0  0  0  0  0  0  0  0  0  0
  -41.1850  -64.6950   49.9570 C   0  0  0  0  0  0  0  0  0  0  0  0
  -41.9040  -65.4440   50.8090 N   0  0  0  0  0  0  0  0  0  0  0  0
  -39.9030  -65.0010   49.3200 C   0  0  0  0  0  0  0  0  0  0  0  0
  -38.8580  -64.1010   49.3120 C   0  0  0  0  0  0  0  0  0  0  0  0
  -37.6440  -64.4070   48.7020 C   0  0  0  0  0  0  0  0  0  0  0  0
  -37.4450  -65.6230   48.0860 C   0  0  0  0  0  0  0  0  0  0  0  0
  -38.4870  -66.5240   48.0930 C   0  0  0  0  0  0  0  0  0  0  0  0
  -39.7050  -66.2150   48.7050 C   0  0  0  0  0  0  0  0  0  0  0  0
  -36.2080  -63.1450   48.7010 B   0  0  0  0  0  0  0  0  0  0  0  0
  -38.9270  -69.8660   54.8380 H   0  0  0  0  0  0  0  0  0  0  0  0
  -39.5480  -71.1610   53.7770 H   0  0  0  0  0  0  0  0  0  0  0  0
  -37.5230  -70.9050   52.8240 H   0  0  0  0  0  0  0  0  0  0  0  0
  -37.4110  -69.1150   53.0550 H   0  0  0  0  0  0  0  0  0  0  0  0
  -38.3050  -67.8550   51.8540 H   0  0  0  0  0  0  0  0  0  0  0  0
  -39.3820  -68.1880   50.4830 H   0  0  0  0  0  0  0  0  0  0  0  0
  -41.2280  -68.6670   51.6900 H   0  0  0  0  0  0  0  0  0  0  0  0
  -40.5380  -67.3960   52.7120 H   0  0  0  0  0  0  0  0  0  0  0  0
  -45.2680  -65.8940   54.5410 H   0  0  0  0  0  0  0  0  0  0  0  0
  -41.8310  -66.8700   52.3590 H   0  0  0  0  0  0  0  0  0  0  0  0
  -44.5440  -64.2900   52.5380 H   0  0  0  0  0  0  0  0  0  0  0  0
  -44.9200  -65.6260   51.4230 H   0  0  0  0  0  0  0  0  0  0  0  0
  -39.0090  -63.1460   49.7940 H   0  0  0  0  0  0  0  0  0  0  0  0
  -36.4890  -65.8500   47.6110 H   0  0  0  0  0  0  0  0  0  0  0  0
  -38.3720  -67.4890   47.6210 H   0  0  0  0  0  0  0  0  0  0  0  0
  -40.5360  -66.9080   48.7220 H   0  0  0  0  0  0  0  0  0  0  0  0
  1  2  2  0  0  0  0
  1  3  2  0  0  0  0
  4  5  1  0  0  0  0
  4  1  1  0  0  0  0
  5 28  1  0  0  0  0
  6 31  1  0  0  0  0
  6  5  1  0  0  0  0
  7  6  1  0  0  0  0
  8  7  1  0  0  0  0
  8 32  1  0  0  0  0
  8  9  1  0  0  0  0
  9 35  1  0  0  0  0
  9  4  1  0  0  0  0
 10  1  1  0  0  0  0
 10 11  1  0  0  0  0
 12 36  1  0  0  0  0
 12 11  2  0  0  0  0
 13 14  1  0  0  0  0
 13 12  1  0  0  0  0
 14 10  2  0  0  0  0
 15 38  1  0  0  0  0
 15 13  1  0  0  0  0
 16 15  1  0  0  0  0
 17 16  2  0  0  0  0
 18 19  1  0  0  0  0
 18 17  1  0  0  0  0
 19 20  2  0  0  0  0
 20 16  1  0  0  0  0
 21 19  1  0  0  0  0
 22 21  1  0  0  0  0
 22 40  1  0  0  0  0
 23 22  2  0  0  0  0
 24 25  2  0  0  0  0
 24 23  1  0  0  0  0
 25 26  1  0  0  0  0
 26 43  1  0  0  0  0
 26 21  2  0  0  0  0
 27 23  1  0  0  0  0
 29  5  1  0  0  0  0
 30  6  1  0  0  0  0
 33  8  1  0  0  0  0
 34  9  1  0  0  0  0
 37 14  1  0  0  0  0
 39 15  1  0  0  0  0
 41 24  1  0  0  0  0
 42 25  1  0  0  0  0
M  END
>  <Pose>
1

>  <Score>
-6.91

$$$$
