
 OpenBabel03202209423D

 36 39  0  0  1  0  0  0  0  0999 V2000
  -48.3460  -64.5890   52.1580 S   0  0  0  0  0  0  0  0  0  0  0  0
  -46.9030  -65.4580   51.8940 C   0  0  0  0  0  0  0  0  0  0  0  0
  -47.0010  -66.4890   52.7920 C   0  0  0  0  0  0  0  0  0  0  0  0
  -48.0900  -66.5390   53.5620 C   0  0  0  0  0  0  0  0  0  0  0  0
  -49.0250  -65.5500   53.3900 C   0  0  0  0  0  0  0  0  0  0  0  0
  -48.4110  -67.9160   54.8890 B   0  0  0  0  0  0  0  0  0  0  0  0
  -45.8020  -65.1910   50.9400 C   0  0  0  0  0  0  0  0  0  0  0  0
  -46.1530  -64.9000   49.7690 O   0  0  0  0  0  0  0  0  0  0  0  0
  -44.4500  -65.2630   51.3440 N   0  0  0  0  0  0  0  0  0  0  0  0
  -43.9140  -64.4070   52.3920 C   0  0  2  0  0  0  0  0  0  0  0  0
  -42.4570  -64.6920   52.6570 C   0  0  0  0  0  0  0  0  0  0  0  0
  -42.5270  -65.9820   53.3280 N   0  0  0  0  0  0  0  0  0  0  0  0
  -43.5730  -65.8410   54.3120 C   0  0  0  0  0  0  0  0  0  0  0  0
  -44.5420  -64.8500   53.6970 C   0  0  0  0  0  0  0  0  0  0  0  0
  -41.7010  -67.1190   53.0290 C   0  0  0  0  0  0  0  0  0  0  0  0
  -41.1470  -67.2760   51.8120 N   0  0  0  0  0  0  0  0  0  0  0  0
  -40.3800  -68.3510   51.5620 C   0  0  0  0  0  0  0  0  0  0  0  0
  -40.1370  -69.3090   52.5120 C   0  0  0  0  0  0  0  0  0  0  0  0
  -40.6820  -69.1680   53.7320 N   0  0  0  0  0  0  0  0  0  0  0  0
  -41.4490  -68.0860   53.9720 C   0  0  0  0  0  0  0  0  0  0  0  0
  -41.8450  -68.2210   55.2530 N   0  0  0  0  0  0  0  0  0  0  0  0
  -41.3540  -69.3250   55.7890 N   0  0  0  0  0  0  0  0  0  0  0  0
  -40.6180  -69.9360   54.8460 C   0  0  0  0  0  0  0  0  0  0  0  0
  -46.1750  -67.2320   52.8390 H   0  0  0  0  0  0  0  0  0  0  0  0
  -49.9850  -65.3860   53.8990 H   0  0  0  0  0  0  0  0  0  0  0  0
  -43.8330  -65.9570   50.8670 H   0  0  0  0  0  0  0  0  0  0  0  0
  -44.0460  -63.3490   52.1770 H   0  0  0  0  0  0  0  0  0  0  0  0
  -41.8330  -64.7060   51.7640 H   0  0  0  0  0  0  0  0  0  0  0  0
  -42.1100  -63.9460   53.3980 H   0  0  0  0  0  0  0  0  0  0  0  0
  -44.0630  -66.7730   54.6050 H   0  0  0  0  0  0  0  0  0  0  0  0
  -43.1160  -65.3510   55.1970 H   0  0  0  0  0  0  0  0  0  0  0  0
  -45.5050  -65.3830   53.5340 H   0  0  0  0  0  0  0  0  0  0  0  0
  -44.6760  -63.9600   54.3490 H   0  0  0  0  0  0  0  0  0  0  0  0
  -39.9360  -68.4660   50.5700 H   0  0  0  0  0  0  0  0  0  0  0  0
  -39.5180  -70.1780   52.3150 H   0  0  0  0  0  0  0  0  0  0  0  0
  -40.0760  -70.8550   54.9340 H   0  0  0  0  0  0  0  0  0  0  0  0
  1  5  1  0  0  0  0
  2  1  1  0  0  0  0
  2  3  2  0  0  0  0
  3 24  1  0  0  0  0
  3  4  1  0  0  0  0
  4  6  1  0  0  0  0
  5  4  2  0  0  0  0
  5 25  1  0  0  0  0
  7  9  1  0  0  0  0
  7  2  1  0  0  0  0
  8  7  2  0  0  0  0
  9 10  1  0  0  0  0
 10 27  1  6  0  0  0
 10 11  1  0  0  0  0
 10 14  1  0  0  0  0
 11 12  1  0  0  0  0
 11 29  1  0  0  0  0
 12 13  1  0  0  0  0
 13 30  1  0  0  0  0
 13 31  1  0  0  0  0
 14 13  1  0  0  0  0
 14 33  1  0  0  0  0
 15 12  1  0  0  0  0
 15 20  1  0  0  0  0
 16 15  2  0  0  0  0
 17 16  1  0  0  0  0
 17 18  2  0  0  0  0
 18 19  1  0  0  0  0
 19 20  1  0  0  0  0
 19 23  1  0  0  0  0
 20 21  2  0  0  0  0
 21 22  1  0  0  0  0
 23 36  1  0  0  0  0
 23 22  2  0  0  0  0
 26  9  1  0  0  0  0
 28 11  1  0  0  0  0
 32 14  1  0  0  0  0
 34 17  1  0  0  0  0
 35 18  1  0  0  0  0
M  END
>  <Pose>
1

>  <Score>
-6.54

$$$$
