
 OpenBabel03202209423D

 34 37  0  0  1  0  0  0  0  0999 V2000
  -48.1280  -63.2690   49.2720 S   0  0  0  0  0  0  0  0  0  0  0  0
  -46.6940  -62.5190   49.7880 C   0  0  0  0  0  0  0  0  0  0  0  0
  -46.1400  -63.4400   50.6380 C   0  0  0  0  0  0  0  0  0  0  0  0
  -46.8270  -64.5910   50.8190 C   0  0  0  0  0  0  0  0  0  0  0  0
  -48.0040  -64.7290   50.1380 C   0  0  0  0  0  0  0  0  0  0  0  0
  -46.3160  -65.6910   51.7310 C   0  0  1  0  0  0  0  0  0  0  0  0
  -46.1150  -65.2120   53.1760 C   0  0  1  0  0  0  0  0  0  0  0  0
  -47.2030  -66.1460   52.8040 C   0  0  0  0  0  0  0  0  0  0  0  0
  -44.8640  -65.7530   53.8140 C   0  0  0  0  0  0  0  0  0  0  0  0
  -44.2140  -66.8920   53.5100 N   0  0  0  0  0  0  0  0  0  0  0  0
  -43.1360  -67.0350   54.3000 C   0  0  0  0  0  0  0  0  0  0  0  0
  -43.1410  -65.9530   55.0960 N   0  0  0  0  0  0  0  0  0  0  0  0
  -44.1780  -65.2050   54.7890 O   0  0  0  0  0  0  0  0  0  0  0  0
  -42.1540  -68.1190   54.3120 C   0  0  0  0  0  0  0  0  0  0  0  0
  -41.5130  -68.6220   53.2430 N   0  0  0  0  0  0  0  0  0  0  0  0
  -40.6880  -69.6040   53.6230 N   0  0  0  0  0  0  0  0  0  0  0  0
  -40.7920  -69.7430   54.9630 C   0  0  0  0  0  0  0  0  0  0  0  0
  -41.6990  -68.8210   55.3630 N   0  0  0  0  0  0  0  0  0  0  0  0
  -39.8260  -70.3880   52.7550 C   0  0  0  0  0  0  0  0  0  0  0  0
  -38.4700  -69.8010   52.7810 C   0  0  0  0  0  0  0  0  0  0  0  0
  -37.6890  -70.1340   53.6990 O   0  0  0  0  0  0  0  0  0  0  0  0
  -38.0760  -68.8810   51.7800 N   0  0  0  0  0  0  0  0  0  0  0  0
  -45.9770  -60.7900   49.3150 B   0  0  0  0  0  0  0  0  0  0  0  0
  -45.1620  -63.2020   51.1380 H   0  0  0  0  0  0  0  0  0  0  0  0
  -48.6840  -65.6040   50.1740 H   0  0  0  0  0  0  0  0  0  0  0  0
  -45.6050  -66.4130   51.3280 H   0  0  0  0  0  0  0  0  0  0  0  0
  -46.3440  -64.1750   53.4180 H   0  0  0  0  0  0  0  0  0  0  0  0
  -47.0750  -67.1880   53.1970 H   0  0  0  0  0  0  0  0  0  0  0  0
  -48.2320  -65.7330   52.8840 H   0  0  0  0  0  0  0  0  0  0  0  0
  -40.2460  -70.4600   55.5580 H   0  0  0  0  0  0  0  0  0  0  0  0
  -40.2720  -70.4170   51.7430 H   0  0  0  0  0  0  0  0  0  0  0  0
  -39.7280  -71.4330   53.1310 H   0  0  0  0  0  0  0  0  0  0  0  0
  -37.5660  -67.9870   52.0180 H   0  0  0  0  0  0  0  0  0  0  0  0
  -38.2570  -69.0190   50.7570 H   0  0  0  0  0  0  0  0  0  0  0  0
  1  2  1  0  0  0  0
  1  5  1  0  0  0  0
  2  3  2  0  0  0  0
  3  4  1  0  0  0  0
  3 24  1  0  0  0  0
  4  6  1  0  0  0  0
  5 25  1  0  0  0  0
  5  4  2  0  0  0  0
  6 26  1  6  0  0  0
  6  8  1  0  0  0  0
  6  7  1  0  0  0  0
  7 27  1  1  0  0  0
  7  9  1  0  0  0  0
  8 29  1  0  0  0  0
  8  7  1  0  0  0  0
  8 28  1  0  0  0  0
  9 13  1  0  0  0  0
 10  9  2  0  0  0  0
 10 11  1  0  0  0  0
 11 14  1  0  0  0  0
 11 12  2  0  0  0  0
 13 12  1  0  0  0  0
 14 18  1  0  0  0  0
 15 16  1  0  0  0  0
 15 14  2  0  0  0  0
 16 17  1  0  0  0  0
 17 18  2  0  0  0  0
 17 30  1  0  0  0  0
 19 20  1  0  0  0  0
 19 32  1  0  0  0  0
 19 16  1  0  0  0  0
 20 21  2  0  0  0  0
 22 33  1  0  0  0  0
 22 20  1  0  0  0  0
 23  2  1  0  0  0  0
 31 19  1  0  0  0  0
 34 22  1  0  0  0  0
M  END
>  <Pose>
1

>  <Score>
-6.47

$$$$
