
 OpenBabel03202209423D

 51 54  0  0  0  0  0  0  0  0999 V2000
  -38.3500  -63.2020   48.9970 S   0  0  0  0  0  0  0  0  0  0  0  0
  -36.8540  -63.7880   48.4410 C   0  0  0  0  0  0  0  0  0  0  0  0
  -36.8140  -65.0530   48.9570 C   0  0  0  0  0  0  0  0  0  0  0  0
  -37.8550  -65.4580   49.6890 C   0  0  0  0  0  0  0  0  0  0  0  0
  -38.8890  -64.5730   49.8690 C   0  0  0  0  0  0  0  0  0  0  0  0
  -40.1330  -64.7850   50.6170 C   0  0  0  0  0  0  0  0  0  0  0  0
  -40.5120  -63.8550   51.3700 O   0  0  0  0  0  0  0  0  0  0  0  0
  -40.9170  -66.0380   50.4950 C   0  0  0  0  0  0  0  0  0  0  0  0
  -41.6400  -66.3410   51.7050 N   0  0  0  0  0  0  0  0  0  0  0  0
  -41.3210  -67.3440   52.5570 C   0  0  0  0  0  0  0  0  0  0  0  0
  -42.2000  -67.3620   53.5970 C   0  0  0  0  0  0  0  0  0  0  0  0
  -42.0790  -68.3050   54.6010 C   0  0  0  0  0  0  0  0  0  0  0  0
  -41.0580  -69.2250   54.5350 C   0  0  0  0  0  0  0  0  0  0  0  0
  -40.1610  -69.2290   53.4980 C   0  0  0  0  0  0  0  0  0  0  0  0
  -40.3090  -68.2760   52.5140 C   0  0  0  0  0  0  0  0  0  0  0  0
  -43.0630  -66.3630   53.3850 N   0  0  0  0  0  0  0  0  0  0  0  0
  -42.7140  -65.7400   52.2230 C   0  0  0  0  0  0  0  0  0  0  0  0
  -43.3870  -64.7330   51.8040 N   0  0  0  0  0  0  0  0  0  0  0  0
  -44.1820  -66.0360   54.2580 C   0  0  0  0  0  0  0  0  0  0  0  0
  -45.4130  -66.8130   53.7690 C   0  0  0  0  0  0  0  0  0  0  0  0
  -46.5450  -66.6220   54.6300 N   0  0  0  0  0  4  0  0  0  0  0  0
  -47.0700  -65.2710   54.6230 C   0  0  0  0  0  0  0  0  0  0  0  0
  -47.3400  -64.7790   53.2290 C   0  0  0  0  0  0  0  0  0  0  0  0
  -48.1020  -65.7530   52.3950 C   0  0  0  0  0  0  0  0  0  0  0  0
  -47.9400  -67.1860   52.7540 C   0  0  0  0  0  0  0  0  0  0  0  0
  -47.6140  -67.4780   54.1760 C   0  0  0  0  0  0  0  0  0  0  0  0
  -35.5690  -62.8770   47.3660 B   0  0  0  0  0  0  0  0  0  0  0  0
  -35.9200  -65.6900   48.7450 H   0  0  0  0  0  0  0  0  0  0  0  0
  -37.9040  -66.4740   50.1440 H   0  0  0  0  0  0  0  0  0  0  0  0
  -40.2610  -66.8910   50.1760 H   0  0  0  0  0  0  0  0  0  0  0  0
  -41.6450  -65.9280   49.6540 H   0  0  0  0  0  0  0  0  0  0  0  0
  -42.7990  -68.2870   55.4120 H   0  0  0  0  0  0  0  0  0  0  0  0
  -40.9290  -69.9810   55.2980 H   0  0  0  0  0  0  0  0  0  0  0  0
  -39.3450  -69.9410   53.4150 H   0  0  0  0  0  0  0  0  0  0  0  0
  -39.6260  -68.2470   51.6870 H   0  0  0  0  0  0  0  0  0  0  0  0
  -43.2400  -64.1670   50.9700 H   0  0  0  0  0  0  0  0  0  0  0  0
  -44.4210  -64.9540   54.2730 H   0  0  0  0  0  0  0  0  0  0  0  0
  -44.0000  -66.4140   55.2950 H   0  0  0  0  0  0  0  0  0  0  0  0
  -45.1230  -67.8860   53.8170 H   0  0  0  0  0  0  0  0  0  0  0  0
  -45.5900  -66.4470   52.7390 H   0  0  0  0  0  0  0  0  0  0  0  0
  -46.2880  -66.8220   55.6200 H   0  0  0  0  0  0  0  0  0  0  0  0
  -48.0060  -65.2900   55.2070 H   0  0  0  0  0  0  0  0  0  0  0  0
  -46.3370  -64.5940   55.1020 H   0  0  0  0  0  0  0  0  0  0  0  0
  -46.3830  -64.4510   52.7280 H   0  0  0  0  0  0  0  0  0  0  0  0
  -47.9410  -63.8500   53.3280 H   0  0  0  0  0  0  0  0  0  0  0  0
  -49.1850  -65.4820   52.4240 H   0  0  0  0  0  0  0  0  0  0  0  0
  -47.7570  -65.6300   51.3260 H   0  0  0  0  0  0  0  0  0  0  0  0
  -48.9050  -67.7050   52.4670 H   0  0  0  0  0  0  0  0  0  0  0  0
  -47.1820  -67.6630   52.0900 H   0  0  0  0  0  0  0  0  0  0  0  0
  -48.5220  -67.3740   54.8100 H   0  0  0  0  0  0  0  0  0  0  0  0
  -47.2120  -68.5170   54.2200 H   0  0  0  0  0  0  0  0  0  0  0  0
  1  5  1  0  0  0  0
  2  3  2  0  0  0  0
  2  1  1  0  0  0  0
  3  4  1  0  0  0  0
  4  5  2  0  0  0  0
  4 29  1  0  0  0  0
  5  6  1  0  0  0  0
  6  7  2  0  0  0  0
  8  6  1  0  0  0  0
  8  9  1  0  0  0  0
  9 17  1  0  0  0  0
  9 10  1  0  0  0  0
 10 11  1  0  0  0  0
 11 12  2  0  0  0  0
 12 32  1  0  0  0  0
 13 12  1  0  0  0  0
 13 33  1  0  0  0  0
 14 13  2  0  0  0  0
 15 10  2  0  0  0  0
 15 14  1  0  0  0  0
 16 11  1  0  0  0  0
 16 19  1  0  0  0  0
 17 16  1  0  0  0  0
 18 17  2  0  0  0  0
 19 37  1  0  0  0  0
 19 38  1  0  0  0  0
 20 39  1  0  0  0  0
 20 19  1  0  0  0  0
 20 21  1  0  0  0  0
 21 41  1  0  0  0  0
 22 21  1  0  0  0  0
 22 43  1  0  0  0  0
 22 42  1  0  0  0  0
 23 45  1  0  0  0  0
 23 22  1  0  0  0  0
 24 46  1  0  0  0  0
 24 25  1  0  0  0  0
 24 23  1  0  0  0  0
 25 26  1  0  0  0  0
 26 51  1  0  0  0  0
 26 21  1  0  0  0  0
 26 50  1  0  0  0  0
 27  2  1  0  0  0  0
 28  3  1  0  0  0  0
 30  8  1  0  0  0  0
 31  8  1  0  0  0  0
 34 14  1  0  0  0  0
 35 15  1  0  0  0  0
 36 18  1  0  0  0  0
 40 20  1  0  0  0  0
 44 23  1  0  0  0  0
 47 24  1  0  0  0  0
 48 25  1  0  0  0  0
 49 25  1  0  0  0  0
M  END
>  <Pose>
1

>  <Score>
-6.26

$$$$
