
 OpenBabel03202209423D

 42 45  0  0  1  0  0  0  0  0999 V2000
  -44.8160  -64.1050   52.1380 S   0  0  0  0  0  0  0  0  0  0  0  0
  -46.6040  -64.4180   52.1620 C   0  0  0  0  0  0  0  0  0  0  0  0
  -46.8290  -65.6680   52.9940 C   0  0  0  0  0  0  0  0  0  0  0  0
  -45.9970  -65.6100   54.2580 C   0  0  0  0  0  0  0  0  0  0  0  0
  -44.6790  -66.1190   53.9140 N   0  0  0  0  0  0  0  0  0  0  0  0
  -44.0250  -65.4930   52.9310 C   0  0  2  0  0  0  0  0  0  0  0  0
  -42.8060  -66.1120   52.7490 N   0  0  0  0  0  0  0  0  0  0  0  0
  -42.7020  -67.1120   53.6090 C   0  0  0  0  0  0  0  0  0  0  0  0
  -43.8910  -67.1010   54.3340 C   0  0  0  0  0  0  0  0  0  0  0  0
  -41.6310  -68.0700   53.8320 C   0  0  0  0  0  0  0  0  0  0  0  0
  -40.8030  -68.4350   52.7610 C   0  0  0  0  0  0  0  0  0  0  0  0
  -39.7810  -69.3310   52.9100 C   0  0  0  0  0  0  0  0  0  0  0  0
  -39.4880  -69.9360   54.1110 C   0  0  0  0  0  0  0  0  0  0  0  0
  -40.2910  -69.5860   55.1650 C   0  0  0  0  0  0  0  0  0  0  0  0
  -41.3450  -68.6700   55.0340 C   0  0  0  0  0  0  0  0  0  0  0  0
  -38.4410  -70.8410   54.2230 O   0  0  0  0  0  0  0  0  0  0  0  0
  -37.3690  -70.5860   55.1120 C   0  0  0  0  0  0  0  0  0  0  0  0
  -41.8760  -65.6670   51.7640 C   0  0  0  0  0  0  0  0  0  0  0  0
  -41.8290  -66.2600   50.5140 C   0  0  0  0  0  0  0  0  0  0  0  0
  -40.9610  -65.8330   49.5290 C   0  0  0  0  0  0  0  0  0  0  0  0
  -40.1190  -64.7780   49.8190 C   0  0  0  0  0  0  0  0  0  0  0  0
  -40.1730  -64.1940   51.0670 C   0  0  0  0  0  0  0  0  0  0  0  0
  -41.0310  -64.6030   52.0640 C   0  0  0  0  0  0  0  0  0  0  0  0
  -38.8760  -64.1150   48.5120 B   0  0  0  0  0  0  0  0  0  0  0  0
  -47.1330  -63.5770   52.6450 H   0  0  0  0  0  0  0  0  0  0  0  0
  -46.9160  -64.5680   51.1130 H   0  0  0  0  0  0  0  0  0  0  0  0
  -47.9070  -65.8060   53.2190 H   0  0  0  0  0  0  0  0  0  0  0  0
  -46.5180  -66.5370   52.3720 H   0  0  0  0  0  0  0  0  0  0  0  0
  -45.8480  -64.5170   54.4920 H   0  0  0  0  0  0  0  0  0  0  0  0
  -46.4530  -66.1510   55.0920 H   0  0  0  0  0  0  0  0  0  0  0  0
  -44.1920  -67.7670   55.1370 H   0  0  0  0  0  0  0  0  0  0  0  0
  -40.9930  -67.9880   51.7990 H   0  0  0  0  0  0  0  0  0  0  0  0
  -39.1350  -69.6130   52.0620 H   0  0  0  0  0  0  0  0  0  0  0  0
  -40.1190  -70.0220   56.1340 H   0  0  0  0  0  0  0  0  0  0  0  0
  -41.9380  -68.4360   55.8930 H   0  0  0  0  0  0  0  0  0  0  0  0
  -36.6410  -71.3950   55.1420 H   0  0  0  0  0  0  0  0  0  0  0  0
  -37.7970  -70.3750   56.1360 H   0  0  0  0  0  0  0  0  0  0  0  0
  -36.8660  -69.6560   54.8070 H   0  0  0  0  0  0  0  0  0  0  0  0
  -42.4750  -67.0920   50.2470 H   0  0  0  0  0  0  0  0  0  0  0  0
  -40.9080  -66.2820   48.5480 H   0  0  0  0  0  0  0  0  0  0  0  0
  -39.5150  -63.3520   51.3250 H   0  0  0  0  0  0  0  0  0  0  0  0
  -41.0610  -64.1330   53.0390 H   0  0  0  0  0  0  0  0  0  0  0  0
  1  2  1  0  0  0  0
  2 25  1  0  0  0  0
  2  3  1  0  0  0  0
  3 27  1  0  0  0  0
  3  4  1  0  0  0  0
  4 29  1  0  0  0  0
  4 30  1  0  0  0  0
  5  4  1  0  0  0  0
  5  9  1  0  0  0  0
  6  1  1  1  0  0  0
  6  5  1  0  0  0  0
  7  6  1  0  0  0  0
  7  8  1  0  0  0  0
  8 10  1  0  0  0  0
  8  9  2  0  0  0  0
  9 31  1  0  0  0  0
 10 15  1  0  0  0  0
 11 12  1  0  0  0  0
 11 10  2  0  0  0  0
 12 13  2  0  0  0  0
 13 16  1  0  0  0  0
 13 14  1  0  0  0  0
 14 34  1  0  0  0  0
 15 14  2  0  0  0  0
 15 35  1  0  0  0  0
 16 17  1  0  0  0  0
 17 36  1  0  0  0  0
 17 37  1  0  0  0  0
 18 23  1  0  0  0  0
 18  7  1  0  0  0  0
 19 18  2  0  0  0  0
 20 21  2  0  0  0  0
 20 19  1  0  0  0  0
 21 22  1  0  0  0  0
 22 41  1  0  0  0  0
 22 23  2  0  0  0  0
 23 42  1  0  0  0  0
 24 21  1  0  0  0  0
 26  2  1  0  0  0  0
 28  3  1  0  0  0  0
 32 11  1  0  0  0  0
 33 12  1  0  0  0  0
 38 17  1  0  0  0  0
 39 19  1  0  0  0  0
 40 20  1  0  0  0  0
M  END
>  <Pose>
1

>  <Score>
-5.64

$$$$
