
 OpenBabel03202209423D

 49 52  0  0  1  0  0  0  0  0999 V2000
  -41.2250  -67.3670   51.4250 S   0  0  0  0  0  0  0  0  0  0  0  0
  -40.6680  -68.6410   52.5300 C   0  0  0  0  0  0  0  0  0  0  0  0
  -41.6210  -68.7490   53.7030 C   0  0  0  0  0  0  0  0  0  0  0  0
  -41.6510  -67.4260   54.4470 C   0  0  0  0  0  0  0  0  0  0  0  0
  -42.4150  -66.4550   53.6960 N   0  0  2  0  0  0  0  0  0  0  0  0
  -43.5470  -65.6580   54.0420 C   0  0  2  0  0  0  0  0  0  0  0  0
  -43.2430  -64.4150   53.2210 C   0  0  0  0  0  0  0  0  0  0  0  0
  -42.6430  -64.9550   52.0220 N   0  0  0  0  0  0  0  0  0  0  0  0
  -42.1340  -66.0960   52.3320 C   0  0  2  0  0  0  0  0  0  0  0  0
  -42.6360  -64.3780   50.7240 C   0  0  0  0  0  0  0  0  0  0  0  0
  -41.3990  -64.1940   50.1220 C   0  0  0  0  0  0  0  0  0  0  0  0
  -41.3090  -63.6080   48.8550 C   0  0  0  0  0  0  0  0  0  0  0  0
  -42.4610  -63.2090   48.2010 C   0  0  0  0  0  0  0  0  0  0  0  0
  -43.7020  -63.3770   48.7680 C   0  0  0  0  0  0  0  0  0  0  0  0
  -43.7240  -63.9730   50.0440 C   0  0  0  0  0  0  0  0  0  0  0  0
  -44.8910  -63.0000   48.1660 O   0  0  0  0  0  0  0  0  0  0  0  0
  -45.3780  -63.4720   46.9430 C   0  0  0  0  0  0  0  0  0  0  0  0
  -40.2530  -64.5900   50.7770 O   0  0  0  0  0  0  0  0  0  0  0  0
  -38.9490  -64.5150   50.2510 C   0  0  0  0  0  0  0  0  0  0  0  0
  -43.5390  -65.3720   55.4030 O   0  0  0  0  0  0  0  0  0  0  0  0
  -44.8540  -66.1760   53.5950 C   0  0  0  0  0  0  0  0  0  0  0  0
  -45.6960  -65.5810   52.7090 C   0  0  0  0  0  0  0  0  0  0  0  0
  -46.9320  -66.1450   52.3840 C   0  0  0  0  0  0  0  0  0  0  0  0
  -47.3480  -67.3300   52.9530 C   0  0  0  0  0  0  0  0  0  0  0  0
  -46.5130  -67.9340   53.8410 C   0  0  0  0  0  0  0  0  0  0  0  0
  -45.3030  -67.3820   54.1590 C   0  0  0  0  0  0  0  0  0  0  0  0
  -49.0510  -68.0890   52.5010 B   0  0  0  0  0  0  0  0  0  0  0  0
  -40.6150  -69.6420   52.0240 H   0  0  0  0  0  0  0  0  0  0  0  0
  -39.6590  -68.3740   52.9550 H   0  0  0  0  0  0  0  0  0  0  0  0
  -42.6430  -68.9890   53.3280 H   0  0  0  0  0  0  0  0  0  0  0  0
  -41.2760  -69.5140   54.4140 H   0  0  0  0  0  0  0  0  0  0  0  0
  -42.1720  -67.6300   55.4210 H   0  0  0  0  0  0  0  0  0  0  0  0
  -40.6080  -67.0890   54.5870 H   0  0  0  0  0  0  0  0  0  0  0  0
  -44.2120  -63.9330   53.0970 H   0  0  0  0  0  0  0  0  0  0  0  0
  -42.5300  -63.7810   53.7790 H   0  0  0  0  0  0  0  0  0  0  0  0
  -40.3280  -63.4720   48.3950 H   0  0  0  0  0  0  0  0  0  0  0  0
  -42.4230  -62.7480   47.2170 H   0  0  0  0  0  0  0  0  0  0  0  0
  -44.7000  -64.0830   50.4500 H   0  0  0  0  0  0  0  0  0  0  0  0
  -46.4980  -63.3030   46.8740 H   0  0  0  0  0  0  0  0  0  0  0  0
  -44.8760  -62.8250   46.1660 H   0  0  0  0  0  0  0  0  0  0  0  0
  -45.1950  -64.5510   46.7720 H   0  0  0  0  0  0  0  0  0  0  0  0
  -38.9460  -64.8270   49.2010 H   0  0  0  0  0  0  0  0  0  0  0  0
  -38.5800  -63.4580   50.2440 H   0  0  0  0  0  0  0  0  0  0  0  0
  -38.2500  -65.1860   50.8080 H   0  0  0  0  0  0  0  0  0  0  0  0
  -43.0280  -64.5480   55.5750 H   0  0  0  0  0  0  0  0  0  0  0  0
  -45.4080  -64.6650   52.2480 H   0  0  0  0  0  0  0  0  0  0  0  0
  -47.5990  -65.6410   51.6570 H   0  0  0  0  0  0  0  0  0  0  0  0
  -46.8670  -68.8650   54.2710 H   0  0  0  0  0  0  0  0  0  0  0  0
  -44.6730  -67.8920   54.8690 H   0  0  0  0  0  0  0  0  0  0  0  0
  1  2  1  0  0  0  0
  2 29  1  0  0  0  0
  2  3  1  0  0  0  0
  3 31  1  0  0  0  0
  3  4  1  0  0  0  0
  4 33  1  0  0  0  0
  4 32  1  0  0  0  0
  5  6  1  0  0  0  0
  5  4  1  6  0  0  0
  6 20  1  1  0  0  0
  7 35  1  0  0  0  0
  7  6  1  0  0  0  0
  8  9  1  0  0  0  0
  8  7  1  0  0  0  0
  9  1  1  6  0  0  0
  9  5  1  0  0  0  0
 10  8  1  0  0  0  0
 11 10  1  0  0  0  0
 11 18  1  0  0  0  0
 12 11  2  0  0  0  0
 13 14  2  0  0  0  0
 13 12  1  0  0  0  0
 14 15  1  0  0  0  0
 15 38  1  0  0  0  0
 15 10  2  0  0  0  0
 16 14  1  0  0  0  0
 17 16  1  0  0  0  0
 19 18  1  0  0  0  0
 19 44  1  0  0  0  0
 20 45  1  0  0  0  0
 21  6  1  0  0  0  0
 21 26  1  0  0  0  0
 22 21  2  0  0  0  0
 23 22  1  0  0  0  0
 23 24  2  0  0  0  0
 24 25  1  0  0  0  0
 25 26  2  0  0  0  0
 25 48  1  0  0  0  0
 26 49  1  0  0  0  0
 27 24  1  0  0  0  0
 28  2  1  0  0  0  0
 30  3  1  0  0  0  0
 34  7  1  0  0  0  0
 36 12  1  0  0  0  0
 37 13  1  0  0  0  0
 39 17  1  0  0  0  0
 40 17  1  0  0  0  0
 41 17  1  0  0  0  0
 42 19  1  0  0  0  0
 43 19  1  0  0  0  0
 46 22  1  0  0  0  0
 47 23  1  0  0  0  0
M  END
>  <Pose>
1

>  <Score>
-5.02

$$$$
