
 OpenBabel03202209423D

 43 46  0  0  1  0  0  0  0  0999 V2000
  -45.9930  -66.4680   54.0200 S   0  0  0  0  0  0  0  0  0  0  0  0
  -47.4780  -66.8300   53.0000 C   0  0  0  0  0  0  0  0  0  0  0  0
  -47.7100  -65.8470   51.9310 C   0  0  0  0  0  0  0  0  0  0  0  0
  -46.9410  -64.5890   51.9200 C   0  0  0  0  0  0  0  0  0  0  0  0
  -45.5460  -64.6570   52.0700 N   0  0  1  0  0  0  0  0  0  0  0  0
  -44.4530  -63.8450   51.6280 C   0  0  2  0  0  0  0  0  0  0  0  0
  -43.3890  -64.9000   51.4150 C   0  0  0  0  0  0  0  0  0  0  0  0
  -43.6910  -65.8410   52.4720 N   0  0  0  0  0  0  0  0  0  0  0  0
  -44.8830  -65.7070   52.8210 C   0  0  1  0  0  0  0  0  0  0  0  0
  -42.7570  -66.7670   53.0390 C   0  0  0  0  0  0  0  0  0  0  0  0
  -41.5530  -66.9770   52.3800 C   0  0  0  0  0  0  0  0  0  0  0  0
  -40.6050  -67.8780   52.8600 C   0  0  0  0  0  0  0  0  0  0  0  0
  -40.8390  -68.5940   54.0130 C   0  0  0  0  0  0  0  0  0  0  0  0
  -42.0260  -68.3960   54.6760 C   0  0  0  0  0  0  0  0  0  0  0  0
  -42.9610  -67.4850   54.1690 C   0  0  0  0  0  0  0  0  0  0  0  0
  -39.5330  -69.8490   54.6610 B   0  0  0  0  0  0  0  0  0  0  0  0
  -44.0120  -63.0510   52.6890 O   0  0  0  0  0  0  0  0  0  0  0  0
  -44.6850  -63.0460   50.4100 C   0  0  0  0  0  0  0  0  0  0  0  0
  -43.8850  -63.3230   49.3050 C   0  0  0  0  0  0  0  0  0  0  0  0
  -44.0280  -62.6330   48.1220 C   0  0  0  0  0  0  0  0  0  0  0  0
  -44.9720  -61.6330   47.9720 C   0  0  0  0  0  0  0  0  0  0  0  0
  -45.7710  -61.3550   49.0660 C   0  0  0  0  0  0  0  0  0  0  0  0
  -45.6230  -62.0570   50.2660 C   0  0  0  0  0  0  0  0  0  0  0  0
  -45.1010  -60.9400   46.7450 N   0  0  0  0  0  0  0  0  0  0  0  0
  -44.9530  -61.4740   45.6400 O   0  0  0  0  0  0  0  0  0  0  0  0
  -45.4120  -59.6040   46.7650 O   0  0  0  0  0  0  0  0  0  0  0  0
  -47.3300  -67.8660   52.5750 H   0  0  0  0  0  0  0  0  0  0  0  0
  -48.3070  -66.9280   53.7000 H   0  0  0  0  0  0  0  0  0  0  0  0
  -47.6220  -66.3490   50.9420 H   0  0  0  0  0  0  0  0  0  0  0  0
  -48.8090  -65.5560   51.9840 H   0  0  0  0  0  0  0  0  0  0  0  0
  -47.3340  -63.9180   52.7460 H   0  0  0  0  0  0  0  0  0  0  0  0
  -47.2220  -64.0300   51.0000 H   0  0  0  0  0  0  0  0  0  0  0  0
  -43.6440  -65.3530   50.4090 H   0  0  0  0  0  0  0  0  0  0  0  0
  -42.3770  -64.4810   51.4380 H   0  0  0  0  0  0  0  0  0  0  0  0
  -41.3370  -66.4400   51.4690 H   0  0  0  0  0  0  0  0  0  0  0  0
  -39.6690  -68.0250   52.3190 H   0  0  0  0  0  0  0  0  0  0  0  0
  -42.2320  -68.9530   55.5660 H   0  0  0  0  0  0  0  0  0  0  0  0
  -43.8980  -67.3560   54.7100 H   0  0  0  0  0  0  0  0  0  0  0  0
  -44.0800  -62.1160   52.4330 H   0  0  0  0  0  0  0  0  0  0  0  0
  -43.1290  -64.1060   49.3960 H   0  0  0  0  0  0  0  0  0  0  0  0
  -43.4150  -62.8250   47.2360 H   0  0  0  0  0  0  0  0  0  0  0  0
  -46.5210  -60.5710   48.9740 H   0  0  0  0  0  0  0  0  0  0  0  0
  -46.2610  -61.8190   51.1120 H   0  0  0  0  0  0  0  0  0  0  0  0
  2 28  1  0  0  0  0
  2  1  1  0  0  0  0
  3 30  1  0  0  0  0
  3  2  1  0  0  0  0
  4  3  1  0  0  0  0
  4 31  1  0  0  0  0
  5  4  1  1  0  0  0
  5  9  1  0  0  0  0
  6  5  1  0  0  0  0
  6 17  1  1  0  0  0
  7 34  1  0  0  0  0
  7  6  1  0  0  0  0
  7  8  1  0  0  0  0
  8  9  1  0  0  0  0
  8 10  1  0  0  0  0
  9  1  1  1  0  0  0
 10 15  1  0  0  0  0
 11 12  1  0  0  0  0
 11 10  2  0  0  0  0
 12 13  2  0  0  0  0
 13 16  1  0  0  0  0
 13 14  1  0  0  0  0
 14 37  1  0  0  0  0
 15 14  2  0  0  0  0
 15 38  1  0  0  0  0
 18  6  1  0  0  0  0
 19 40  1  0  0  0  0
 19 18  2  0  0  0  0
 20 19  1  0  0  0  0
 21 20  2  0  0  0  0
 21 22  1  0  0  0  0
 22 23  2  0  0  0  0
 23 18  1  0  0  0  0
 23 43  1  0  0  0  0
 24 26  2  0  0  0  0
 24 21  1  0  0  0  0
 25 24  2  0  0  0  0
 27  2  1  0  0  0  0
 29  3  1  0  0  0  0
 32  4  1  0  0  0  0
 33  7  1  0  0  0  0
 35 11  1  0  0  0  0
 36 12  1  0  0  0  0
 39 17  1  0  0  0  0
 41 20  1  0  0  0  0
 42 22  1  0  0  0  0
M  END
>  <Pose>
1

>  <Score>
-5.73

$$$$
