
 OpenBabel03202209423D

 45 49  0  0  1  0  0  0  0  0999 V2000
  -37.4210  -62.6750   47.2050 S   0  0  0  0  0  0  0  0  0  0  0  0
  -36.5270  -62.8130   48.8140 C   0  0  0  0  0  0  0  0  0  0  0  0
  -36.4670  -64.3050   48.9170 C   0  0  0  0  0  0  0  0  0  0  0  0
  -37.6460  -64.9130   48.4270 N   0  0  0  0  0  0  0  0  0  0  0  0
  -38.3500  -64.2160   47.4230 C   0  0  0  0  0  0  0  0  0  0  0  0
  -39.4350  -64.6460   46.8620 N   0  0  0  0  0  0  0  0  0  0  0  0
  -39.9870  -65.9430   47.2180 C   0  0  0  0  0  0  0  0  0  0  0  0
  -40.6780  -66.4510   46.3010 O   0  0  0  0  0  0  0  0  0  0  0  0
  -39.6720  -66.4520   48.5230 C   0  0  1  0  0  0  0  0  0  0  0  0
  -38.2160  -66.1820   48.8210 C   0  0  0  0  0  0  0  0  0  0  0  0
  -37.5080  -67.0290   49.3950 O   0  0  0  0  0  0  0  0  0  0  0  0
  -40.5130  -66.2090   49.7050 C   0  0  2  0  0  0  0  0  0  0  0  0
  -40.8070  -64.8520   50.1830 C   0  0  1  0  0  0  0  0  0  0  0  0
  -42.3170  -64.6450   50.0630 C   0  0  0  0  0  0  0  0  0  0  0  0
  -42.8240  -64.3870   48.9470 O   0  0  0  0  0  0  0  0  0  0  0  0
  -43.1580  -64.7480   51.2350 N   0  0  0  0  0  0  0  0  0  0  0  0
  -44.5700  -64.9160   51.2740 C   0  0  0  0  0  0  0  0  0  0  0  0
  -45.0000  -65.6670   52.5100 C   0  0  0  0  0  0  0  0  0  0  0  0
  -43.8250  -64.8550   53.6930 S   0  0  0  0  0  0  0  0  0  0  0  0
  -42.5190  -64.6530   52.4950 C   0  0  0  0  0  0  0  0  0  0  0  0
  -41.2660  -64.4810   52.6490 N   0  0  0  0  0  0  0  0  0  0  0  0
  -40.4050  -64.3680   51.4770 C   0  0  0  0  0  0  0  0  0  0  0  0
  -39.3070  -63.8210   51.6830 O   0  0  0  0  0  0  0  0  0  0  0  0
  -40.2390  -67.1940   50.8210 C   0  0  0  0  0  0  0  0  0  0  0  0
  -41.1480  -67.3860   51.8330 C   0  0  0  0  0  0  0  0  0  0  0  0
  -40.8620  -68.2840   52.8300 C   0  0  0  0  0  0  0  0  0  0  0  0
  -39.7110  -69.0050   52.8680 C   0  0  0  0  0  0  0  0  0  0  0  0
  -38.7830  -68.8360   51.8710 C   0  0  0  0  0  0  0  0  0  0  0  0
  -39.0730  -67.9220   50.8570 C   0  0  0  0  0  0  0  0  0  0  0  0
  -39.3200  -70.2600   54.2670 B   0  0  0  0  0  0  0  0  0  0  0  0
  -35.5160  -62.3950   48.6420 H   0  0  0  0  0  0  0  0  0  0  0  0
  -37.0820  -62.3230   49.6140 H   0  0  0  0  0  0  0  0  0  0  0  0
  -35.5460  -64.6760   48.3950 H   0  0  0  0  0  0  0  0  0  0  0  0
  -36.3500  -64.5300   50.0070 H   0  0  0  0  0  0  0  0  0  0  0  0
  -39.6640  -67.6040   48.4010 H   0  0  0  0  0  0  0  0  0  0  0  0
  -41.5600  -66.5910   49.3420 H   0  0  0  0  0  0  0  0  0  0  0  0
  -40.4390  -64.0980   49.3870 H   0  0  0  0  0  0  0  0  0  0  0  0
  -45.1060  -63.9320   51.2570 H   0  0  0  0  0  0  0  0  0  0  0  0
  -44.8980  -65.5400   50.4150 H   0  0  0  0  0  0  0  0  0  0  0  0
  -44.7540  -66.7270   52.4690 H   0  0  0  0  0  0  0  0  0  0  0  0
  -46.0260  -65.4290   52.7740 H   0  0  0  0  0  0  0  0  0  0  0  0
  -42.0940  -66.8220   51.8340 H   0  0  0  0  0  0  0  0  0  0  0  0
  -41.5860  -68.4260   53.6240 H   0  0  0  0  0  0  0  0  0  0  0  0
  -37.8490  -69.4010   51.8740 H   0  0  0  0  0  0  0  0  0  0  0  0
  -38.3140  -67.8160   50.0850 H   0  0  0  0  0  0  0  0  0  0  0  0
  1  5  1  0  0  0  0
  1  2  1  0  0  0  0
  2  3  1  0  0  0  0
  2 32  1  0  0  0  0
  3 34  1  0  0  0  0
  4 10  1  0  0  0  0
  4  3  1  0  0  0  0
  5  4  1  0  0  0  0
  6  7  1  0  0  0  0
  6  5  2  0  0  0  0
  7  9  1  0  0  0  0
  8  7  2  0  0  0  0
  9 35  1  6  0  0  0
  9 10  1  0  0  0  0
  9 12  1  0  0  0  0
 10 11  2  0  0  0  0
 12 36  1  6  0  0  0
 12 13  1  0  0  0  0
 12 24  1  0  0  0  0
 13 37  1  6  0  0  0
 13 22  1  0  0  0  0
 14 13  1  0  0  0  0
 14 16  1  0  0  0  0
 15 14  2  0  0  0  0
 16 17  1  0  0  0  0
 16 20  1  0  0  0  0
 17 18  1  0  0  0  0
 18 41  1  0  0  0  0
 18 19  1  0  0  0  0
 20 21  2  0  0  0  0
 20 19  1  0  0  0  0
 22 23  2  0  0  0  0
 22 21  1  0  0  0  0
 24 29  2  0  0  0  0
 24 25  1  0  0  0  0
 25 42  1  0  0  0  0
 25 26  2  0  0  0  0
 26 27  1  0  0  0  0
 26 43  1  0  0  0  0
 27 30  1  0  0  0  0
 28 44  1  0  0  0  0
 28 27  2  0  0  0  0
 29 28  1  0  0  0  0
 31  2  1  0  0  0  0
 33  3  1  0  0  0  0
 38 17  1  0  0  0  0
 39 17  1  0  0  0  0
 40 18  1  0  0  0  0
 45 29  1  0  0  0  0
M  END
>  <Pose>
1

>  <Score>
-5.10

$$$$
