
 OpenBabel03202209423D

 45 49  0  0  1  0  0  0  0  0999 V2000
  -47.1200  -64.4780   48.7040 S   0  0  0  0  0  0  0  0  0  0  0  0
  -48.6320  -65.0000   49.4960 C   0  0  0  0  0  0  0  0  0  0  0  0
  -49.3300  -66.0810   49.3640 N   0  0  0  0  0  0  0  0  0  0  0  0
  -50.5370  -66.2520   50.1430 C   0  0  0  0  0  0  0  0  0  0  0  0
  -51.5230  -66.9040   49.8030 O   0  0  0  0  0  0  0  0  0  0  0  0
  -50.5660  -65.5550   51.5020 C   0  0  2  0  0  0  0  0  0  0  0  0
  -50.2200  -64.1480   51.1250 C   0  0  0  0  0  0  0  0  0  0  0  0
  -50.9380  -63.1530   51.4300 O   0  0  0  0  0  0  0  0  0  0  0  0
  -48.9920  -63.9480   50.3670 N   0  0  0  0  0  0  0  0  0  0  0  0
  -48.1540  -62.8660   50.3860 N   0  0  0  0  0  0  0  0  0  0  0  0
  -47.0210  -62.9040   49.5440 C   0  0  0  0  0  0  0  0  0  0  0  0
  -46.0690  -61.9900   49.3850 C   0  0  0  0  0  0  0  0  0  0  0  0
  -49.5220  -66.1890   52.3770 C   0  0  1  0  0  0  0  0  0  0  0  0
  -49.1270  -65.4650   53.6020 C   0  0  2  0  0  0  0  0  0  0  0  0
  -48.0800  -64.4600   53.4940 C   0  0  0  0  0  0  0  0  0  0  0  0
  -48.3850  -63.2190   53.4650 O   0  0  0  0  0  0  0  0  0  0  0  0
  -46.6780  -64.8270   53.4190 N   0  0  0  0  0  0  0  0  0  0  0  0
  -45.6520  -64.1110   52.8920 N   0  0  0  0  0  0  0  0  0  0  0  0
  -44.3590  -64.6880   52.9480 C   0  0  0  0  0  0  0  0  0  0  0  0
  -43.2090  -64.2120   52.5230 C   0  0  0  0  0  0  0  0  0  0  0  0
  -44.6030  -66.2710   53.7480 S   0  0  0  0  0  0  0  0  0  0  0  0
  -46.3610  -66.0840   53.9740 C   0  0  0  0  0  0  0  0  0  0  0  0
  -47.2240  -66.8700   54.5130 N   0  0  0  0  0  0  0  0  0  0  0  0
  -48.6120  -66.5030   54.5830 C   0  0  0  0  0  0  0  0  0  0  0  0
  -49.4220  -66.9770   55.3920 O   0  0  0  0  0  0  0  0  0  0  0  0
  -49.8720  -67.6000   52.7070 C   0  0  0  0  0  0  0  0  0  0  0  0
  -49.0740  -68.6460   52.3030 C   0  0  0  0  0  0  0  0  0  0  0  0
  -49.3930  -69.9500   52.6030 C   0  0  0  0  0  0  0  0  0  0  0  0
  -50.5340  -70.2210   53.3240 C   0  0  0  0  0  0  0  0  0  0  0  0
  -51.3710  -69.1890   53.7540 C   0  0  0  0  0  0  0  0  0  0  0  0
  -51.0170  -67.8950   53.4320 C   0  0  0  0  0  0  0  0  0  0  0  0
  -51.0040  -72.0230   53.7590 B   0  0  0  0  0  0  0  0  0  0  0  0
  -51.5790  -65.6270   51.8810 H   0  0  0  0  0  0  0  0  0  0  0  0
  -48.3170  -61.9900   50.9980 H   0  0  0  0  0  0  0  0  0  0  0  0
  -45.2720  -62.1970   48.6880 H   0  0  0  0  0  0  0  0  0  0  0  0
  -46.0640  -61.0700   49.9140 H   0  0  0  0  0  0  0  0  0  0  0  0
  -48.5820  -66.2520   51.7360 H   0  0  0  0  0  0  0  0  0  0  0  0
  -49.9920  -64.9680   54.1200 H   0  0  0  0  0  0  0  0  0  0  0  0
  -45.7450  -63.1370   52.4390 H   0  0  0  0  0  0  0  0  0  0  0  0
  -42.3230  -64.7960   52.6500 H   0  0  0  0  0  0  0  0  0  0  0  0
  -43.1400  -63.2530   52.0500 H   0  0  0  0  0  0  0  0  0  0  0  0
  -48.1660  -68.4920   51.7340 H   0  0  0  0  0  0  0  0  0  0  0  0
  -48.7740  -70.7720   52.2910 H   0  0  0  0  0  0  0  0  0  0  0  0
  -52.2720  -69.3970   54.3230 H   0  0  0  0  0  0  0  0  0  0  0  0
  -51.6220  -67.0370   53.7330 H   0  0  0  0  0  0  0  0  0  0  0  0
  1  2  1  0  0  0  0
  1 11  1  0  0  0  0
  2  9  1  0  0  0  0
  3  2  2  0  0  0  0
  3  4  1  0  0  0  0
  4  6  1  0  0  0  0
  5  4  2  0  0  0  0
  6 33  1  1  0  0  0
  6 13  1  0  0  0  0
  7  8  2  0  0  0  0
  7  6  1  0  0  0  0
  9 10  1  0  0  0  0
  9  7  1  0  0  0  0
 10 34  1  0  0  0  0
 11 10  1  0  0  0  0
 12 11  2  0  0  0  0
 12 36  1  0  0  0  0
 13 37  1  6  0  0  0
 13 26  1  0  0  0  0
 13 14  1  0  0  0  0
 14 38  1  1  0  0  0
 14 24  1  0  0  0  0
 15 14  1  0  0  0  0
 16 15  2  0  0  0  0
 17 15  1  0  0  0  0
 17 22  1  0  0  0  0
 18 19  1  0  0  0  0
 18 17  1  0  0  0  0
 19 21  1  0  0  0  0
 20 40  1  0  0  0  0
 20 19  2  0  0  0  0
 21 22  1  0  0  0  0
 22 23  2  0  0  0  0
 23 24  1  0  0  0  0
 24 25  2  0  0  0  0
 26 31  1  0  0  0  0
 27 28  1  0  0  0  0
 27 26  2  0  0  0  0
 28 29  2  0  0  0  0
 29 30  1  0  0  0  0
 29 32  1  0  0  0  0
 30 44  1  0  0  0  0
 31 45  1  0  0  0  0
 31 30  2  0  0  0  0
 35 12  1  0  0  0  0
 39 18  1  0  0  0  0
 41 20  1  0  0  0  0
 42 27  1  0  0  0  0
 43 28  1  0  0  0  0
M  END
>  <Pose>
1

>  <Score>
-4.91

$$$$
