
 OpenBabel03202209423D

 40 43  0  0  1  0  0  0  0  0999 V2000
  -43.4920  -67.1640   54.1590 S   0  0  0  0  0  0  0  0  0  0  0  0
  -43.2930  -66.0370   52.7860 C   0  0  1  0  0  0  0  0  0  0  0  0
  -42.4220  -65.6050   51.9340 N   0  0  0  0  0  0  0  0  0  0  0  0
  -42.9780  -64.6430   51.0590 C   0  0  0  0  0  0  0  0  0  0  0  0
  -44.4020  -64.5170   51.4920 C   0  0  0  0  0  0  0  0  0  0  0  0
  -44.5650  -65.4570   52.6270 N   0  0  0  0  0  0  0  0  0  0  0  0
  -45.5590  -65.8860   53.5140 C   0  0  0  0  0  0  0  0  0  0  0  0
  -45.2200  -66.7850   54.4110 C   0  0  0  0  0  0  0  0  0  0  0  0
  -46.9780  -65.4010   53.4970 C   0  0  0  0  0  0  0  0  0  0  0  0
  -48.0140  -66.1920   53.9390 C   0  0  0  0  0  0  0  0  0  0  0  0
  -49.3350  -65.7970   53.9420 C   0  0  0  0  0  0  0  0  0  0  0  0
  -49.6800  -64.5470   53.4830 C   0  0  0  0  0  0  0  0  0  0  0  0
  -48.6700  -63.7430   53.0380 C   0  0  0  0  0  0  0  0  0  0  0  0
  -47.3240  -64.1560   53.0390 C   0  0  0  0  0  0  0  0  0  0  0  0
  -41.0380  -66.1110   51.9280 C   0  0  0  0  0  0  0  0  0  0  0  0
  -40.8570  -66.8550   50.6660 C   0  0  0  0  0  0  0  0  0  0  0  0
  -41.8210  -67.3960   50.0870 O   0  0  0  0  0  0  0  0  0  0  0  0
  -39.5340  -66.9710   50.0700 C   0  0  0  0  0  0  0  0  0  0  0  0
  -38.5300  -67.7190   50.6880 C   0  0  0  0  0  0  0  0  0  0  0  0
  -37.2630  -67.8400   50.1480 C   0  0  0  0  0  0  0  0  0  0  0  0
  -37.0120  -67.1930   48.9670 C   0  0  0  0  0  0  0  0  0  0  0  0
  -37.9720  -66.4400   48.3160 C   0  0  0  0  0  0  0  0  0  0  0  0
  -39.2440  -66.3340   48.8810 C   0  0  0  0  0  0  0  0  0  0  0  0
  -35.2510  -67.3670   48.2260 B   0  0  0  0  0  0  0  0  0  0  0  0
  -42.8800  -64.9300   49.9750 H   0  0  0  0  0  0  0  0  0  0  0  0
  -42.4020  -63.6820   51.1290 H   0  0  0  0  0  0  0  0  0  0  0  0
  -45.0280  -64.8440   50.6340 H   0  0  0  0  0  0  0  0  0  0  0  0
  -44.5480  -63.4710   51.8030 H   0  0  0  0  0  0  0  0  0  0  0  0
  -45.8440  -67.2510   55.1960 H   0  0  0  0  0  0  0  0  0  0  0  0
  -47.8170  -67.1940   54.3160 H   0  0  0  0  0  0  0  0  0  0  0  0
  -50.1070  -66.4590   54.3010 H   0  0  0  0  0  0  0  0  0  0  0  0
  -50.7130  -64.2410   53.4850 H   0  0  0  0  0  0  0  0  0  0  0  0
  -48.8790  -62.7410   52.6620 H   0  0  0  0  0  0  0  0  0  0  0  0
  -46.5730  -63.4820   52.6800 H   0  0  0  0  0  0  0  0  0  0  0  0
  -40.4140  -65.1730   51.8840 H   0  0  0  0  0  0  0  0  0  0  0  0
  -40.8160  -66.6790   52.8290 H   0  0  0  0  0  0  0  0  0  0  0  0
  -38.7560  -68.2160   51.6090 H   0  0  0  0  0  0  0  0  0  0  0  0
  -36.4980  -68.4100   50.6220 H   0  0  0  0  0  0  0  0  0  0  0  0
  -37.7780  -65.9320   47.3920 H   0  0  0  0  0  0  0  0  0  0  0  0
  -39.9730  -65.7400   48.3490 H   0  0  0  0  0  0  0  0  0  0  0  0
  1  8  1  0  0  0  0
  2  1  1  6  0  0  0
  3  2  1  0  0  0  0
  4 26  1  0  0  0  0
  4  5  1  0  0  0  0
  4  3  1  0  0  0  0
  5 28  1  0  0  0  0
  5  6  1  0  0  0  0
  6  2  1  0  0  0  0
  6  7  1  0  0  0  0
  7  8  2  0  0  0  0
  8 29  1  0  0  0  0
  9  7  1  0  0  0  0
  9 10  1  0  0  0  0
 10 11  2  0  0  0  0
 10 30  1  0  0  0  0
 11 31  1  0  0  0  0
 12 32  1  0  0  0  0
 12 11  1  0  0  0  0
 13 14  1  0  0  0  0
 13 12  2  0  0  0  0
 14  9  2  0  0  0  0
 15  3  1  0  0  0  0
 15 36  1  0  0  0  0
 16 15  1  0  0  0  0
 17 16  2  0  0  0  0
 18 16  1  0  0  0  0
 18 19  1  0  0  0  0
 19 37  1  0  0  0  0
 20 38  1  0  0  0  0
 20 19  2  0  0  0  0
 21 20  1  0  0  0  0
 22 23  1  0  0  0  0
 22 21  2  0  0  0  0
 23 18  2  0  0  0  0
 24 21  1  0  0  0  0
 25  4  1  0  0  0  0
 27  5  1  0  0  0  0
 33 13  1  0  0  0  0
 34 14  1  0  0  0  0
 35 15  1  0  0  0  0
 39 22  1  0  0  0  0
 40 23  1  0  0  0  0
M  END
>  <Pose>
1

>  <Score>
-5.19

$$$$
