
 OpenBabel03202209423D

 43 46  0  0  1  0  0  0  0  0999 V2000
  -42.2310  -68.8850   56.8690 Cl  0  0  0  0  0  0  0  0  0  0  0  0
  -41.5800  -68.7860   55.2200 C   0  0  0  0  0  0  0  0  0  0  0  0
  -42.1190  -67.8010   54.3770 C   0  0  0  0  0  0  0  0  0  0  0  0
  -41.6150  -67.7260   53.1110 C   0  0  0  0  0  0  0  0  0  0  0  0
  -40.6170  -68.5920   52.7010 C   0  0  0  0  0  0  0  0  0  0  0  0
  -40.0830  -69.5630   53.5310 C   0  0  0  0  0  0  0  0  0  0  0  0
  -40.5860  -69.6550   54.8240 C   0  0  0  0  0  0  0  0  0  0  0  0
  -43.2890  -67.0060   54.8930 C   0  0  2  0  0  0  0  0  0  0  0  0
  -44.4580  -67.7700   54.4750 N   0  0  0  0  0  0  0  0  0  0  0  0
  -45.3340  -67.2220   53.5500 C   0  0  0  0  0  0  0  0  0  0  0  0
  -44.8280  -66.1810   52.5740 C   0  0  0  0  0  0  0  0  0  0  0  0
  -43.7390  -65.4460   53.0500 N   0  0  0  0  0  0  0  0  0  0  0  0
  -43.3350  -65.6300   54.4120 C   0  0  0  0  0  0  0  0  0  0  0  0
  -42.9660  -64.5150   52.3100 C   0  0  0  0  0  0  0  0  0  0  0  0
  -43.2350  -63.2760   52.6530 O   0  0  0  0  0  0  0  0  0  0  0  0
  -41.9780  -64.6510   51.3020 C   0  0  0  0  0  0  0  0  0  0  0  0
  -42.4120  -65.0850   50.0260 C   0  0  0  0  0  0  0  0  0  0  0  0
  -41.5780  -65.1130   48.9870 N   0  0  0  0  0  0  0  0  0  0  0  0
  -40.3020  -64.7380   49.0970 C   0  0  0  0  0  0  0  0  0  0  0  0
  -39.8250  -64.3090   50.3060 C   0  0  0  0  0  0  0  0  0  0  0  0
  -40.6650  -64.2650   51.4170 C   0  0  0  0  0  0  0  0  0  0  0  0
  -38.4690  -63.8710   50.4290 N   0  0  0  0  0  0  0  0  0  0  0  0
  -37.6370  -63.8940   49.2680 C   0  0  0  0  0  0  0  0  0  0  0  0
  -36.6290  -63.1760   49.1100 O   0  0  0  0  0  0  0  0  0  0  0  0
  -38.0170  -64.8470   48.1790 C   0  0  0  0  0  0  0  0  0  0  0  0
  -39.4400  -64.7780   47.9960 O   0  0  0  0  0  0  0  0  0  0  0  0
  -42.0160  -66.9910   52.3900 H   0  0  0  0  0  0  0  0  0  0  0  0
  -40.2330  -68.5100   51.6670 H   0  0  0  0  0  0  0  0  0  0  0  0
  -39.2870  -70.2230   53.1590 H   0  0  0  0  0  0  0  0  0  0  0  0
  -40.2050  -70.3880   55.5150 H   0  0  0  0  0  0  0  0  0  0  0  0
  -43.2590  -67.0850   56.0100 H   0  0  0  0  0  0  0  0  0  0  0  0
  -44.1930  -68.7530   54.2640 H   0  0  0  0  0  0  0  0  0  0  0  0
  -45.7350  -68.0790   52.9050 H   0  0  0  0  0  0  0  0  0  0  0  0
  -46.2620  -66.8160   54.0640 H   0  0  0  0  0  0  0  0  0  0  0  0
  -45.7020  -65.3450   52.5760 H   0  0  0  0  0  0  0  0  0  0  0  0
  -44.8690  -66.5350   51.5480 H   0  0  0  0  0  0  0  0  0  0  0  0
  -42.3660  -65.0750   54.5880 H   0  0  0  0  0  0  0  0  0  0  0  0
  -44.0570  -65.0350   55.0930 H   0  0  0  0  0  0  0  0  0  0  0  0
  -43.4490  -65.3970   49.9150 H   0  0  0  0  0  0  0  0  0  0  0  0
  -40.2360  -63.8930   52.2930 H   0  0  0  0  0  0  0  0  0  0  0  0
  -38.0840  -63.5370   51.3260 H   0  0  0  0  0  0  0  0  0  0  0  0
  -37.7690  -65.8830   48.4140 H   0  0  0  0  0  0  0  0  0  0  0  0
  -37.5630  -64.5760   47.2090 H   0  0  0  0  0  0  0  0  0  0  0  0
  2  1  1  0  0  0  0
  3  8  1  0  0  0  0
  3  2  2  0  0  0  0
  4  3  1  0  0  0  0
  5  4  2  0  0  0  0
  5  6  1  0  0  0  0
  6  7  2  0  0  0  0
  7  2  1  0  0  0  0
  7 30  1  0  0  0  0
  8 31  1  1  0  0  0
  9  8  1  0  0  0  0
 10 34  1  0  0  0  0
 10  9  1  0  0  0  0
 11 35  1  0  0  0  0
 11 12  1  0  0  0  0
 11 10  1  0  0  0  0
 12 13  1  0  0  0  0
 13 37  1  0  0  0  0
 13  8  1  0  0  0  0
 13 38  1  0  0  0  0
 14 15  2  0  0  0  0
 14 12  1  0  0  0  0
 16 21  1  0  0  0  0
 16 14  1  0  0  0  0
 17 16  2  0  0  0  0
 18 19  2  0  0  0  0
 18 17  1  0  0  0  0
 19 20  1  0  0  0  0
 20 22  1  0  0  0  0
 20 21  2  0  0  0  0
 21 40  1  0  0  0  0
 22 41  1  0  0  0  0
 23 22  1  0  0  0  0
 24 23  2  0  0  0  0
 25 42  1  0  0  0  0
 25 23  1  0  0  0  0
 26 25  1  0  0  0  0
 26 19  1  0  0  0  0
 27  4  1  0  0  0  0
 28  5  1  0  0  0  0
 29  6  1  0  0  0  0
 32  9  1  0  0  0  0
 33 10  1  0  0  0  0
 36 11  1  0  0  0  0
 39 17  1  0  0  0  0
 43 25  1  0  0  0  0
M  END
>  <Pose>
1

>  <Score>
-6.22

$$$$
