
 OpenBabel03202209423D

 53 56  0  0  0  0  0  0  0  0999 V2000
  -45.4120  -63.0730   50.2320 B   0  0  0  0  0  0  0  0  0  0  0  0
  -46.6860  -63.9350   51.3510 C   0  0  0  0  0  0  0  0  0  0  0  0
  -46.3430  -65.0350   52.0980 C   0  0  0  0  0  0  0  0  0  0  0  0
  -47.2830  -65.6600   52.9170 C   0  0  0  0  0  0  0  0  0  0  0  0
  -48.5380  -65.1270   52.9330 C   0  0  0  0  0  0  0  0  0  0  0  0
  -48.8910  -64.0090   52.1770 C   0  0  0  0  0  0  0  0  0  0  0  0
  -47.9650  -63.4080   51.3810 C   0  0  0  0  0  0  0  0  0  0  0  0
  -46.9110  -66.8300   53.6880 C   0  0  0  0  0  0  0  0  0  0  0  0
  -47.7630  -67.4990   54.4230 C   0  0  0  0  0  0  0  0  0  0  0  0
  -45.5430  -67.2870   53.6290 N   0  0  0  0  0  0  0  0  0  0  0  0
  -44.6990  -66.9670   54.6920 N   0  0  0  0  0  0  0  0  0  0  0  0
  -43.7610  -65.9100   54.6160 C   0  0  0  0  0  0  0  0  0  0  0  0
  -43.4440  -65.3030   55.6650 O   0  0  0  0  0  0  0  0  0  0  0  0
  -43.1460  -65.4980   53.3680 C   0  0  0  0  0  0  0  0  0  0  0  0
  -43.4730  -64.3840   52.7000 N   0  0  0  0  0  0  0  0  0  0  0  0
  -42.7240  -64.3580   51.6280 N   0  0  0  0  0  0  0  0  0  0  0  0
  -41.9270  -65.4230   51.5900 N   0  0  0  0  0  0  0  0  0  0  0  0
  -42.1450  -66.1780   52.6560 C   0  0  0  0  0  0  0  0  0  0  0  0
  -41.5470  -67.4020   53.1370 C   0  0  0  0  0  0  0  0  0  0  0  0
  -40.0990  -67.4670   53.0990 N   0  0  0  0  0  0  0  0  0  0  0  0
  -39.5500  -67.5610   54.4480 C   0  0  0  0  0  0  0  0  0  0  0  0
  -40.2620  -68.6080   55.2760 C   0  0  0  0  0  0  0  0  0  0  0  0
  -40.1880  -69.9560   54.5810 C   0  0  0  0  0  0  0  0  0  0  0  0
  -39.4080  -69.8580   53.3010 C   0  0  0  0  0  0  0  0  0  0  0  0
  -39.6870  -68.6990   52.4300 C   0  0  0  0  0  0  0  0  0  0  0  0
  -40.9840  -65.6600   50.5620 C   0  0  0  0  0  0  0  0  0  0  0  0
  -41.0790  -66.7070   49.6960 N   0  0  0  0  0  0  0  0  0  0  0  0
  -40.0670  -66.6400   48.8900 O   0  0  0  0  0  0  0  0  0  0  0  0
  -39.3150  -65.6350   49.1610 N   0  0  0  0  0  0  0  0  0  0  0  0
  -39.8520  -64.9890   50.2050 C   0  0  0  0  0  0  0  0  0  0  0  0
  -39.3650  -63.8350   50.8360 N   0  0  0  0  0  0  0  0  0  0  0  0
  -45.3300  -65.4220   52.0520 H   0  0  0  0  0  0  0  0  0  0  0  0
  -49.3080  -65.5810   53.5580 H   0  0  0  0  0  0  0  0  0  0  0  0
  -49.9070  -63.6130   52.2170 H   0  0  0  0  0  0  0  0  0  0  0  0
  -48.2350  -62.5550   50.8030 H   0  0  0  0  0  0  0  0  0  0  0  0
  -48.7970  -67.2450   54.5210 H   0  0  0  0  0  0  0  0  0  0  0  0
  -47.4500  -68.3780   54.9930 H   0  0  0  0  0  0  0  0  0  0  0  0
  -45.2730  -67.8320   52.7930 H   0  0  0  0  0  0  0  0  0  0  0  0
  -44.8060  -67.5640   55.5550 H   0  0  0  0  0  0  0  0  0  0  0  0
  -41.8230  -67.6540   54.1990 H   0  0  0  0  0  0  0  0  0  0  0  0
  -41.9090  -68.2760   52.5400 H   0  0  0  0  0  0  0  0  0  0  0  0
  -39.6410  -66.5810   54.9420 H   0  0  0  0  0  0  0  0  0  0  0  0
  -38.4870  -67.8140   54.3470 H   0  0  0  0  0  0  0  0  0  0  0  0
  -41.3280  -68.3750   55.4340 H   0  0  0  0  0  0  0  0  0  0  0  0
  -39.7440  -68.6440   56.2480 H   0  0  0  0  0  0  0  0  0  0  0  0
  -39.6030  -70.6270   55.2500 H   0  0  0  0  0  0  0  0  0  0  0  0
  -41.1780  -70.4360   54.4900 H   0  0  0  0  0  0  0  0  0  0  0  0
  -38.3220  -69.7770   53.6060 H   0  0  0  0  0  0  0  0  0  0  0  0
  -39.4800  -70.8330   52.8000 H   0  0  0  0  0  0  0  0  0  0  0  0
  -40.5400  -68.9850   51.7530 H   0  0  0  0  0  0  0  0  0  0  0  0
  -38.8370  -68.4450   51.7580 H   0  0  0  0  0  0  0  0  0  0  0  0
  -38.9460  -63.7870   51.7910 H   0  0  0  0  0  0  0  0  0  0  0  0
  -39.4170  -62.9270   50.3250 H   0  0  0  0  0  0  0  0  0  0  0  0
  1  2  1  0  0  0  0
  2  7  2  0  0  0  0
  2  3  1  0  0  0  0
  3  4  2  0  0  0  0
  4  5  1  0  0  0  0
  4  8  1  0  0  0  0
  5 33  1  0  0  0  0
  6 34  1  0  0  0  0
  6  5  2  0  0  0  0
  7  6  1  0  0  0  0
  8  9  2  0  0  0  0
  9 36  1  0  0  0  0
  9 37  1  0  0  0  0
 10  8  1  0  0  0  0
 10 11  1  0  0  0  0
 11 39  1  0  0  0  0
 12 11  1  0  0  0  0
 12 13  2  0  0  0  0
 14 12  1  0  0  0  0
 15 14  1  0  0  0  0
 16 15  2  0  0  0  0
 17 16  1  0  0  0  0
 17 18  1  0  0  0  0
 18 19  1  0  0  0  0
 18 14  2  0  0  0  0
 19 40  1  0  0  0  0
 20 19  1  0  0  0  0
 20 21  1  0  0  0  0
 21 42  1  0  0  0  0
 21 22  1  0  0  0  0
 22 44  1  0  0  0  0
 22 45  1  0  0  0  0
 23 46  1  0  0  0  0
 23 22  1  0  0  0  0
 24 48  1  0  0  0  0
 24 23  1  0  0  0  0
 25 20  1  0  0  0  0
 25 24  1  0  0  0  0
 26 17  1  0  0  0  0
 27 26  2  0  0  0  0
 28 29  1  0  0  0  0
 28 27  1  0  0  0  0
 29 30  2  0  0  0  0
 30 26  1  0  0  0  0
 30 31  1  0  0  0  0
 31 52  1  0  0  0  0
 32  3  1  0  0  0  0
 35  7  1  0  0  0  0
 38 10  1  0  0  0  0
 41 19  1  0  0  0  0
 43 21  1  0  0  0  0
 47 23  1  0  0  0  0
 49 24  1  0  0  0  0
 50 25  1  0  0  0  0
 51 25  1  0  0  0  0
 53 31  1  0  0  0  0
M  END
>  <Pose>
1

>  <Score>
-8.01

$$$$
