
 OpenBabel03202209423D

 51 53  0  0  0  0  0  0  0  0999 V2000
  -52.2320  -65.2370   58.3440 B   0  0  0  0  0  0  0  0  0  0  0  0
  -51.5600  -66.0410   56.7480 C   0  0  0  0  0  0  0  0  0  0  0  0
  -52.4640  -66.5970   55.8650 C   0  0  0  0  0  0  0  0  0  0  0  0
  -51.9730  -67.1730   54.7210 C   0  0  0  0  0  0  0  0  0  0  0  0
  -50.6150  -67.1970   54.4590 C   0  0  0  0  0  0  0  0  0  0  0  0
  -49.7220  -66.6510   55.3260 C   0  0  0  0  0  0  0  0  0  0  0  0
  -50.2070  -66.0700   56.4780 C   0  0  0  0  0  0  0  0  0  0  0  0
  -48.2780  -66.6760   55.0480 C   0  0  0  0  0  0  0  0  0  0  0  0
  -47.6760  -67.7570   54.7370 N   0  0  0  0  0  0  0  0  0  0  0  0
  -46.2670  -67.7830   54.4650 N   0  0  0  0  0  0  0  0  0  0  0  0
  -45.8310  -67.0560   53.3350 C   0  0  0  0  0  0  0  0  0  0  0  0
  -46.6090  -67.1670   52.3130 O   0  0  0  0  0  0  0  0  0  0  0  0
  -44.6320  -66.2320   53.2340 C   0  0  0  0  0  0  0  0  0  0  0  0
  -44.7140  -64.9370   52.7920 N   0  0  0  0  0  0  0  0  0  0  0  0
  -43.4800  -64.4760   52.8180 N   0  0  0  0  0  0  0  0  0  0  0  0
  -42.6420  -65.3670   53.2340 N   0  0  0  0  0  0  0  0  0  0  0  0
  -43.3230  -66.5140   53.5160 C   0  0  0  0  0  0  0  0  0  0  0  0
  -42.7940  -67.7790   54.0240 C   0  0  0  0  0  0  0  0  0  0  0  0
  -41.4340  -67.6930   54.5350 N   0  0  0  0  0  0  0  0  0  0  0  0
  -41.1500  -68.8290   55.4020 C   0  0  0  0  0  0  0  0  0  0  0  0
  -40.5490  -69.9770   54.6410 C   0  0  0  0  0  0  0  0  0  0  0  0
  -40.8270  -69.9640   53.2870 O   0  0  0  0  0  0  0  0  0  0  0  0
  -40.4030  -68.8220   52.6230 C   0  0  0  0  0  0  0  0  0  0  0  0
  -40.4400  -67.5960   53.4940 C   0  0  0  0  0  0  0  0  0  0  0  0
  -45.8790  -64.2430   52.3950 C   0  0  0  0  0  0  0  0  0  0  0  0
  -46.9020  -63.7680   53.1470 N   0  0  0  0  0  0  0  0  0  0  0  0
  -47.7590  -63.2000   52.3760 O   0  0  0  0  0  0  0  0  0  0  0  0
  -47.4060  -63.2440   51.1300 N   0  0  0  0  0  0  0  0  0  0  0  0
  -46.2150  -63.9000   51.0980 C   0  0  0  0  0  0  0  0  0  0  0  0
  -45.4790  -64.1630   49.9150 N   0  0  0  0  0  0  0  0  0  0  0  0
  -53.2270  -67.9480   53.4870 B   0  0  0  0  0  0  0  0  0  0  0  0
  -53.8330  -66.5920   56.0940 O   0  0  0  0  0  0  0  0  0  0  0  0
  -42.3470  -64.1840   49.6110 Cl  0  0  0  0  0  0  0  0  0  0  0  0
  -50.2510  -67.6580   53.5470 H   0  0  0  0  0  0  0  0  0  0  0  0
  -49.4960  -65.6390   57.1620 H   0  0  0  0  0  0  0  0  0  0  0  0
  -47.7210  -65.7750   55.1080 H   0  0  0  0  0  0  0  0  0  0  0  0
  -45.6600  -68.3310   55.1150 H   0  0  0  0  0  0  0  0  0  0  0  0
  -43.3780  -68.1970   54.8690 H   0  0  0  0  0  0  0  0  0  0  0  0
  -42.7380  -68.5690   53.2440 H   0  0  0  0  0  0  0  0  0  0  0  0
  -40.4230  -68.4910   56.1610 H   0  0  0  0  0  0  0  0  0  0  0  0
  -42.0930  -69.0730   55.9270 H   0  0  0  0  0  0  0  0  0  0  0  0
  -40.9970  -70.9070   55.0480 H   0  0  0  0  0  0  0  0  0  0  0  0
  -39.4500  -70.0740   54.8270 H   0  0  0  0  0  0  0  0  0  0  0  0
  -41.1170  -68.6480   51.7830 H   0  0  0  0  0  0  0  0  0  0  0  0
  -39.4210  -69.0150   52.1680 H   0  0  0  0  0  0  0  0  0  0  0  0
  -40.4670  -66.6430   52.9720 H   0  0  0  0  0  0  0  0  0  0  0  0
  -39.4510  -67.5980   54.0470 H   0  0  0  0  0  0  0  0  0  0  0  0
  -45.3700  -63.3940   49.2280 H   0  0  0  0  0  0  0  0  0  0  0  0
  -45.0430  -65.0770   49.6950 H   0  0  0  0  0  0  0  0  0  0  0  0
  -54.2390  -66.5410   57.0120 H   0  0  0  0  0  0  0  0  0  0  0  0
  -42.8610  -63.2180   48.7750 H   0  0  0  0  0  0  0  0  0  0  0  0
  2  1  1  0  0  0  0
  3 32  1  0  0  0  0
  3  2  2  0  0  0  0
  4  3  1  0  0  0  0
  5  4  2  0  0  0  0
  5  6  1  0  0  0  0
  6  7  2  0  0  0  0
  7  2  1  0  0  0  0
  7 35  1  0  0  0  0
  8 36  1  0  0  0  0
  8  6  1  0  0  0  0
  9  8  2  0  0  0  0
 10  9  1  0  0  0  0
 10 37  1  0  0  0  0
 11 10  1  0  0  0  0
 12 11  2  0  0  0  0
 13 11  1  0  0  0  0
 13 17  2  0  0  0  0
 14 15  1  0  0  0  0
 14 13  1  0  0  0  0
 15 16  2  0  0  0  0
 16 17  1  0  0  0  0
 17 18  1  0  0  0  0
 18 19  1  0  0  0  0
 18 38  1  0  0  0  0
 19 20  1  0  0  0  0
 20 41  1  0  0  0  0
 20 40  1  0  0  0  0
 21 43  1  0  0  0  0
 21 42  1  0  0  0  0
 21 20  1  0  0  0  0
 22 21  1  0  0  0  0
 23 22  1  0  0  0  0
 23 24  1  0  0  0  0
 24 47  1  0  0  0  0
 24 19  1  0  0  0  0
 25 14  1  0  0  0  0
 25 26  2  0  0  0  0
 27 26  1  0  0  0  0
 28 27  1  0  0  0  0
 29 28  2  0  0  0  0
 29 25  1  0  0  0  0
 30 29  1  0  0  0  0
 31  4  1  0  0  0  0
 32 50  1  0  0  0  0
 34  5  1  0  0  0  0
 39 18  1  0  0  0  0
 44 23  1  0  0  0  0
 45 23  1  0  0  0  0
 46 24  1  0  0  0  0
 48 30  1  0  0  0  0
 49 30  1  0  0  0  0
 51 33  1  0  0  0  0
M  END
>  <Pose>
1

>  <Score>
-7.54

$$$$
