
 OpenBabel03202209423D

 39 42  0  0  1  0  0  0  0  0999 V2000
  -38.9760  -70.2800   53.7260 B   0  0  0  0  0  0  0  0  0  0  0  0
  -39.8570  -68.8160   52.8890 C   0  0  0  0  0  0  0  0  0  0  0  0
  -39.3950  -68.3820   51.6680 C   0  0  0  0  0  0  0  0  0  0  0  0
  -40.0500  -67.3220   51.0860 C   0  0  0  0  0  0  0  0  0  0  0  0
  -41.1430  -66.7210   51.7210 C   0  0  0  0  0  0  0  0  0  0  0  0
  -41.6180  -67.1450   52.9460 C   0  0  0  0  0  0  0  0  0  0  0  0
  -40.9470  -68.2120   53.5190 C   0  0  0  0  0  0  0  0  0  0  0  0
  -42.7260  -66.5360   53.5930 N   0  0  0  0  0  0  0  0  0  0  0  0
  -43.1460  -65.1890   53.4100 C   0  0  0  0  0  0  0  0  0  0  0  0
  -42.4380  -64.2080   53.0940 O   0  0  0  0  0  0  0  0  0  0  0  0
  -44.6160  -65.0890   53.6570 C   0  0  1  0  0  0  0  0  0  0  0  0
  -45.4120  -65.3750   52.4270 C   0  0  1  0  0  0  0  0  0  0  0  0
  -45.3790  -66.7900   52.3470 O   0  0  0  0  0  0  0  0  0  0  0  0
  -45.9220  -67.0300   53.6350 C   0  0  1  0  0  0  0  0  0  0  0  0
  -44.9180  -66.3310   54.4920 C   0  0  1  0  0  0  0  0  0  0  0  0
  -43.6460  -67.0900   54.5250 C   0  0  0  0  0  0  0  0  0  0  0  0
  -43.4190  -68.0720   55.2630 O   0  0  0  0  0  0  0  0  0  0  0  0
  -47.1730  -66.2210   53.5200 C   0  0  0  0  0  0  0  0  0  0  0  0
  -46.8520  -65.1730   52.7400 C   0  0  0  0  0  0  0  0  0  0  0  0
  -46.1340  -68.4550   53.9190 C   0  0  0  0  0  0  0  0  0  0  0  0
  -44.9540  -64.7100   51.1950 C   0  0  0  0  0  0  0  0  0  0  0  0
  -45.8590  -64.8690   50.1480 O   0  0  0  0  0  0  0  0  0  0  0  0
  -38.2320  -69.0220   50.9860 C   0  0  0  0  0  0  0  0  0  0  0  0
  -39.7200  -66.9450   50.1220 H   0  0  0  0  0  0  0  0  0  0  0  0
  -41.6320  -65.8920   51.2270 H   0  0  0  0  0  0  0  0  0  0  0  0
  -41.2920  -68.5800   54.4850 H   0  0  0  0  0  0  0  0  0  0  0  0
  -44.8760  -64.1640   54.1730 H   0  0  0  0  0  0  0  0  0  0  0  0
  -45.2770  -66.0670   55.5050 H   0  0  0  0  0  0  0  0  0  0  0  0
  -48.0990  -66.4670   53.9800 H   0  0  0  0  0  0  0  0  0  0  0  0
  -47.5250  -64.3830   52.4320 H   0  0  0  0  0  0  0  0  0  0  0  0
  -45.8170  -68.8090   54.9150 H   0  0  0  0  0  0  0  0  0  0  0  0
  -47.2130  -68.7060   53.8150 H   0  0  0  0  0  0  0  0  0  0  0  0
  -45.6050  -69.0950   53.1550 H   0  0  0  0  0  0  0  0  0  0  0  0
  -43.9940  -65.1420   50.8640 H   0  0  0  0  0  0  0  0  0  0  0  0
  -44.8640  -63.6160   51.3470 H   0  0  0  0  0  0  0  0  0  0  0  0
  -45.5960  -65.5910   49.5110 H   0  0  0  0  0  0  0  0  0  0  0  0
  -37.6240  -69.4890   51.7840 H   0  0  0  0  0  0  0  0  0  0  0  0
  -38.5610  -69.8680   50.3320 H   0  0  0  0  0  0  0  0  0  0  0  0
  -37.6760  -68.3250   50.3590 H   0  0  0  0  0  0  0  0  0  0  0  0
  2  7  1  0  0  0  0
  2  1  1  0  0  0  0
  3  2  2  0  0  0  0
  4  3  1  0  0  0  0
  4  5  2  0  0  0  0
  5  6  1  0  0  0  0
  6  7  2  0  0  0  0
  6  8  1  0  0  0  0
  7 26  1  0  0  0  0
  8 16  1  0  0  0  0
  9  8  1  0  0  0  0
  9 11  1  0  0  0  0
 10  9  2  0  0  0  0
 11 27  1  1  0  0  0
 11 15  1  0  0  0  0
 12 21  1  6  0  0  0
 12 19  1  0  0  0  0
 12 11  1  0  0  0  0
 13 12  1  0  0  0  0
 13 14  1  0  0  0  0
 14 20  1  1  0  0  0
 14 15  1  0  0  0  0
 15 16  1  0  0  0  0
 15 28  1  1  0  0  0
 16 17  2  0  0  0  0
 18 14  1  0  0  0  0
 18 29  1  0  0  0  0
 19 18  2  0  0  0  0
 20 31  1  0  0  0  0
 21 35  1  0  0  0  0
 22 21  1  0  0  0  0
 23  3  1  0  0  0  0
 23 37  1  0  0  0  0
 24  4  1  0  0  0  0
 25  5  1  0  0  0  0
 30 19  1  0  0  0  0
 32 20  1  0  0  0  0
 33 20  1  0  0  0  0
 34 21  1  0  0  0  0
 36 22  1  0  0  0  0
 38 23  1  0  0  0  0
 39 23  1  0  0  0  0
M  END
>  <Pose>
1

>  <Score>
-5.94

$$$$
