
 OpenBabel03202209423D

 54 57  0  0  1  0  0  0  0  0999 V2000
  -47.4420  -65.3700   46.2860 B   0  0  0  0  0  0  0  0  0  0  0  0
  -46.9210  -63.9740   47.5030 C   0  0  0  0  0  0  0  0  0  0  0  0
  -46.9570  -64.1910   48.8820 C   0  0  0  0  0  0  0  0  0  0  0  0
  -46.5960  -63.2340   49.7950 C   0  0  0  0  0  0  0  0  0  0  0  0
  -46.1800  -62.0020   49.2630 C   0  0  0  0  0  0  0  0  0  0  0  0
  -46.1400  -61.7740   47.9070 C   0  0  0  0  0  0  0  0  0  0  0  0
  -46.5080  -62.7540   47.0130 C   0  0  0  0  0  0  0  0  0  0  0  0
  -46.6210  -63.4030   51.2510 C   0  0  1  0  0  0  0  0  0  0  0  0
  -47.8310  -64.0110   51.7610 N   0  0  0  0  0  0  0  0  0  0  0  0
  -47.7070  -65.4070   51.5550 C   0  0  0  0  0  0  0  0  0  0  0  0
  -48.6250  -66.2520   51.4080 O   0  0  0  0  0  0  0  0  0  0  0  0
  -46.2710  -65.6880   51.5460 C   0  0  0  0  0  0  0  0  0  0  0  0
  -45.6820  -66.7830   51.3940 O   0  0  0  0  0  0  0  0  0  0  0  0
  -45.6140  -64.3880   51.7580 C   0  0  0  0  0  0  0  0  0  0  0  0
  -44.4080  -64.2160   52.2500 C   0  0  0  0  0  0  0  0  0  0  0  0
  -43.9370  -62.9000   52.3320 O   0  0  0  0  0  0  0  0  0  0  0  0
  -43.5700  -65.3410   52.7120 C   0  0  0  0  0  0  0  0  0  0  0  0
  -42.4850  -65.8220   52.1830 O   0  0  0  0  0  0  0  0  0  0  0  0
  -42.0120  -66.8300   52.8800 C   0  0  0  0  0  0  0  0  0  0  0  0
  -42.8400  -67.0510   53.9680 C   0  0  0  0  0  0  0  0  0  0  0  0
  -43.8270  -66.0910   53.8440 C   0  0  0  0  0  0  0  0  0  0  0  0
  -42.5620  -68.0600   54.8640 C   0  0  0  0  0  0  0  0  0  0  0  0
  -41.4680  -68.8830   54.7240 C   0  0  0  0  0  0  0  0  0  0  0  0
  -40.6340  -68.6760   53.6470 C   0  0  0  0  0  0  0  0  0  0  0  0
  -40.9110  -67.6570   52.7380 C   0  0  0  0  0  0  0  0  0  0  0  0
  -48.9930  -63.3990   52.4010 C   0  0  0  0  0  0  0  0  0  0  0  0
  -49.0580  -63.7880   53.8660 C   0  0  0  0  0  0  0  0  0  0  0  0
  -50.2620  -63.2170   54.5670 C   0  0  0  0  0  0  0  0  0  0  0  0
  -49.8560  -62.5760   55.7760 N   0  0  0  0  0  4  0  0  0  0  0  0
  -49.9140  -61.1310   55.7060 C   0  0  0  0  0  0  0  0  0  0  0  0
  -50.5610  -62.9840   56.9530 C   0  0  0  0  0  0  0  0  0  0  0  0
  -47.2810  -65.1560   49.2340 H   0  0  0  0  0  0  0  0  0  0  0  0
  -45.8870  -61.2240   49.9620 H   0  0  0  0  0  0  0  0  0  0  0  0
  -45.8180  -60.8210   47.4970 H   0  0  0  0  0  0  0  0  0  0  0  0
  -46.4830  -62.5930   45.9260 H   0  0  0  0  0  0  0  0  0  0  0  0
  -46.4650  -62.4060   51.7300 H   0  0  0  0  0  0  0  0  0  0  0  0
  -44.6410  -65.9520   54.5240 H   0  0  0  0  0  0  0  0  0  0  0  0
  -43.2090  -68.2270   55.7090 H   0  0  0  0  0  0  0  0  0  0  0  0
  -41.2090  -69.6860   55.3980 H   0  0  0  0  0  0  0  0  0  0  0  0
  -39.7600  -69.3180   53.5170 H   0  0  0  0  0  0  0  0  0  0  0  0
  -40.2260  -67.5340   51.9070 H   0  0  0  0  0  0  0  0  0  0  0  0
  -48.9620  -62.2920   52.3660 H   0  0  0  0  0  0  0  0  0  0  0  0
  -49.9190  -63.7240   51.9010 H   0  0  0  0  0  0  0  0  0  0  0  0
  -48.1710  -63.3020   54.3360 H   0  0  0  0  0  0  0  0  0  0  0  0
  -48.9730  -64.8670   54.0090 H   0  0  0  0  0  0  0  0  0  0  0  0
  -51.0040  -64.0040   54.8300 H   0  0  0  0  0  0  0  0  0  0  0  0
  -50.7550  -62.4560   53.9210 H   0  0  0  0  0  0  0  0  0  0  0  0
  -48.8310  -62.8170   55.9300 H   0  0  0  0  0  0  0  0  0  0  0  0
  -49.1680  -60.7130   56.4380 H   0  0  0  0  0  0  0  0  0  0  0  0
  -50.9050  -60.7810   56.0470 H   0  0  0  0  0  0  0  0  0  0  0  0
  -49.6660  -60.8140   54.6830 H   0  0  0  0  0  0  0  0  0  0  0  0
  -51.5030  -62.4320   57.1260 H   0  0  0  0  0  0  0  0  0  0  0  0
  -49.9230  -62.7680   57.8330 H   0  0  0  0  0  0  0  0  0  0  0  0
  -50.7180  -64.1030   56.9830 H   0  0  0  0  0  0  0  0  0  0  0  0
  1  2  1  0  0  0  0
  2  3  1  0  0  0  0
  3 32  1  0  0  0  0
  3  4  2  0  0  0  0
  4  8  1  0  0  0  0
  5  4  1  0  0  0  0
  5 33  1  0  0  0  0
  6  5  2  0  0  0  0
  7  2  2  0  0  0  0
  7  6  1  0  0  0  0
  8 36  1  1  0  0  0
  8 14  1  0  0  0  0
  8  9  1  0  0  0  0
  9 26  1  0  0  0  0
 10  9  1  0  0  0  0
 11 10  2  0  0  0  0
 12 10  1  0  0  0  0
 12 14  1  0  0  0  0
 13 12  2  0  0  0  0
 14 15  2  0  0  0  0
 15 16  1  0  0  0  0
 15 17  1  0  0  0  0
 17 21  2  0  0  0  0
 18 17  1  0  0  0  0
 18 19  1  0  0  0  0
 19 20  1  0  0  0  0
 20 22  2  0  0  0  0
 21 20  1  0  0  0  0
 21 37  1  0  0  0  0
 22 38  1  0  0  0  0
 23 22  1  0  0  0  0
 23 39  1  0  0  0  0
 24 23  2  0  0  0  0
 25 19  2  0  0  0  0
 25 24  1  0  0  0  0
 26 27  1  0  0  0  0
 27 45  1  0  0  0  0
 27 44  1  0  0  0  0
 27 28  1  0  0  0  0
 28 46  1  0  0  0  0
 28 29  1  0  0  0  0
 29 48  1  0  0  0  0
 29 31  1  0  0  0  0
 30 29  1  0  0  0  0
 30 50  1  0  0  0  0
 30 49  1  0  0  0  0
 31 54  1  0  0  0  0
 31 52  1  0  0  0  0
 31 53  1  0  0  0  0
 34  6  1  0  0  0  0
 35  7  1  0  0  0  0
 40 24  1  0  0  0  0
 41 25  1  0  0  0  0
 42 26  1  0  0  0  0
 43 26  1  0  0  0  0
 47 28  1  0  0  0  0
 51 30  1  0  0  0  0
M  END
>  <Pose>
1

>  <Score>
-5.49

$$$$
