
 OpenBabel03202209423D

 47 50  0  0  0  0  0  0  0  0999 V2000
  -50.4300  -69.4820   57.1000 B   0  0  0  0  0  0  0  0  0  0  0  0
  -50.5720  -69.6250   55.2230 C   0  0  0  0  0  0  0  0  0  0  0  0
  -50.5370  -68.4920   54.4460 C   0  0  0  0  0  0  0  0  0  0  0  0
  -50.6000  -68.5370   53.1150 C   0  0  0  0  0  0  0  0  0  0  0  0
  -50.7000  -69.7930   52.4400 C   0  0  0  0  0  0  0  0  0  0  0  0
  -50.7090  -70.9290   53.1780 C   0  0  0  0  0  0  0  0  0  0  0  0
  -50.6460  -70.8610   54.5730 C   0  0  0  0  0  0  0  0  0  0  0  0
  -50.0900  -67.1890   55.1530 C   0  0  0  0  0  0  0  0  0  0  0  0
  -49.0170  -66.8040   54.6570 N   0  0  0  0  0  0  0  0  0  0  0  0
  -47.9830  -66.0470   54.4940 N   0  0  0  0  0  0  0  0  0  0  0  0
  -46.9610  -66.9630   53.7840 C   0  0  0  0  0  0  0  0  0  0  0  0
  -46.9950  -68.1190   54.1900 O   0  0  0  0  0  0  0  0  0  0  0  0
  -46.0910  -66.4760   52.7920 C   0  0  0  0  0  0  0  0  0  0  0  0
  -46.3080  -65.7510   51.7370 N   0  0  0  0  0  0  0  0  0  0  0  0
  -45.1880  -65.3150   51.2750 N   0  0  0  0  0  0  0  0  0  0  0  0
  -44.1050  -65.7440   52.0320 N   0  0  0  0  0  0  0  0  0  0  0  0
  -44.6330  -66.4760   52.9870 C   0  0  0  0  0  0  0  0  0  0  0  0
  -44.1500  -67.3770   54.0300 C   0  0  0  0  0  0  0  0  0  0  0  0
  -42.9220  -67.5920   54.5140 N   0  0  0  0  0  0  0  0  0  0  0  0
  -42.8710  -68.8720   55.2050 C   0  0  0  0  0  0  0  0  0  0  0  0
  -41.6310  -69.5730   54.7350 C   0  0  0  0  0  0  0  0  0  0  0  0
  -41.0050  -68.6500   53.6940 C   0  0  0  0  0  0  0  0  0  0  0  0
  -41.6600  -67.3000   54.0780 C   0  0  0  0  0  0  0  0  0  0  0  0
  -42.8440  -65.2820   51.6570 C   0  0  0  0  0  0  0  0  0  0  0  0
  -42.3310  -64.0830   52.1510 N   0  0  0  0  0  0  0  0  0  0  0  0
  -41.2250  -63.8490   51.5640 O   0  0  0  0  0  0  0  0  0  0  0  0
  -40.9290  -64.7630   50.7290 N   0  0  0  0  0  0  0  0  0  0  0  0
  -41.9360  -65.6800   50.7660 C   0  0  0  0  0  0  0  0  0  0  0  0
  -41.9000  -66.8300   49.9120 N   0  0  0  0  0  0  0  0  0  0  0  0
  -50.6380  -67.6290   52.5420 H   0  0  0  0  0  0  0  0  0  0  0  0
  -50.7950  -69.8480   51.3990 H   0  0  0  0  0  0  0  0  0  0  0  0
  -50.7440  -71.9460   52.7060 H   0  0  0  0  0  0  0  0  0  0  0  0
  -50.6000  -71.8010   55.1250 H   0  0  0  0  0  0  0  0  0  0  0  0
  -50.6100  -66.7900   55.9050 H   0  0  0  0  0  0  0  0  0  0  0  0
  -47.6360  -65.1140   54.7010 H   0  0  0  0  0  0  0  0  0  0  0  0
  -44.9680  -67.7870   54.7230 H   0  0  0  0  0  0  0  0  0  0  0  0
  -44.2150  -68.4930   53.3490 H   0  0  0  0  0  0  0  0  0  0  0  0
  -43.8010  -69.4230   55.0710 H   0  0  0  0  0  0  0  0  0  0  0  0
  -42.8080  -68.7270   56.3320 H   0  0  0  0  0  0  0  0  0  0  0  0
  -40.9420  -69.8130   55.5590 H   0  0  0  0  0  0  0  0  0  0  0  0
  -41.9110  -70.5720   54.2840 H   0  0  0  0  0  0  0  0  0  0  0  0
  -39.9360  -68.6260   53.8250 H   0  0  0  0  0  0  0  0  0  0  0  0
  -41.4110  -68.8760   52.7130 H   0  0  0  0  0  0  0  0  0  0  0  0
  -41.0240  -66.9760   54.9740 H   0  0  0  0  0  0  0  0  0  0  0  0
  -41.5280  -66.5850   53.2550 H   0  0  0  0  0  0  0  0  0  0  0  0
  -42.6350  -66.9050   49.1950 H   0  0  0  0  0  0  0  0  0  0  0  0
  -41.2140  -67.5680   50.0580 H   0  0  0  0  0  0  0  0  0  0  0  0
  2  1  1  0  0  0  0
  3  8  1  0  0  0  0
  3  2  2  0  0  0  0
  4  3  1  0  0  0  0
  5  4  2  0  0  0  0
  5  6  1  0  0  0  0
  6  7  2  0  0  0  0
  7 33  1  0  0  0  0
  7  2  1  0  0  0  0
  8 34  1  0  0  0  0
  9  8  1  0  0  0  0
 10  9  1  0  0  0  0
 10 35  1  0  0  0  0
 11 12  2  0  0  0  0
 11 10  1  0  0  0  0
 13 17  2  0  0  0  0
 13 11  1  0  0  0  0
 14 13  1  0  0  0  0
 15 14  2  0  0  0  0
 15 16  1  0  0  0  0
 16 17  1  0  0  0  0
 17 18  1  0  0  0  0
 18 19  1  0  0  0  0
 18 36  1  0  0  0  0
 19 20  1  0  0  0  0
 20 39  1  0  0  0  0
 21 20  1  0  0  0  0
 21 40  1  0  0  0  0
 22 42  1  0  0  0  0
 22 23  1  0  0  0  0
 22 21  1  0  0  0  0
 23 19  1  0  0  0  0
 23 44  1  0  0  0  0
 24 16  1  0  0  0  0
 24 25  2  0  0  0  0
 26 25  1  0  0  0  0
 27 28  2  0  0  0  0
 27 26  1  0  0  0  0
 28 24  1  0  0  0  0
 29 47  1  0  0  0  0
 29 28  1  0  0  0  0
 30  4  1  0  0  0  0
 31  5  1  0  0  0  0
 32  6  1  0  0  0  0
 37 18  1  0  0  0  0
 38 20  1  0  0  0  0
 41 21  1  0  0  0  0
 43 22  1  0  0  0  0
 45 23  1  0  0  0  0
 46 29  1  0  0  0  0
M  END
>  <Pose>
1

>  <Score>
-6.29

$$$$
