
 OpenBabel03202209423D

 48 51  0  0  0  0  0  0  0  0999 V2000
  -47.9790  -65.2280   53.1150 B   0  0  0  0  0  0  0  0  0  0  0  0
  -46.0690  -65.1980   53.1590 C   0  0  0  0  0  0  0  0  0  0  0  0
  -45.3650  -66.1570   53.8820 C   0  0  0  0  0  0  0  0  0  0  0  0
  -43.9880  -66.1390   53.9070 C   0  0  0  0  0  0  0  0  0  0  0  0
  -43.2940  -65.1740   53.2190 C   0  0  0  0  0  0  0  0  0  0  0  0
  -44.0050  -64.2360   52.5090 C   0  0  0  0  0  0  0  0  0  0  0  0
  -45.3810  -64.2180   52.4600 C   0  0  0  0  0  0  0  0  0  0  0  0
  -43.2410  -67.1390   54.6440 C   0  0  0  0  0  0  0  0  0  0  0  0
  -42.1560  -67.7120   54.1220 C   0  0  0  0  0  0  0  0  0  0  0  0
  -41.5950  -67.4680   52.8700 O   0  0  0  0  0  0  0  0  0  0  0  0
  -40.4800  -68.2360   52.6800 C   0  0  0  0  0  0  0  0  0  0  0  0
  -40.2470  -69.0300   53.7980 C   0  0  0  0  0  0  0  0  0  0  0  0
  -39.1480  -69.8740   53.7850 C   0  0  0  0  0  0  0  0  0  0  0  0
  -38.3170  -69.9130   52.6890 C   0  0  0  0  0  0  0  0  0  0  0  0
  -38.5830  -69.1020   51.5830 C   0  0  0  0  0  0  0  0  0  0  0  0
  -39.6630  -68.2590   51.5690 C   0  0  0  0  0  0  0  0  0  0  0  0
  -39.9440  -67.4890   50.3560 C   0  0  0  0  0  0  0  0  0  0  0  0
  -40.0830  -66.0880   50.5150 N   0  0  0  0  0  4  0  0  0  0  0  0
  -41.4300  -65.7150   50.1150 C   0  0  0  0  0  0  0  0  0  0  0  0
  -41.5390  -64.4260   49.3760 C   0  0  0  0  0  0  0  0  0  0  0  0
  -40.6340  -64.2660   48.2930 N   0  0  0  0  0  0  0  0  0  0  0  0
  -39.5800  -65.2260   48.3310 C   0  0  0  0  0  0  0  0  0  0  0  0
  -39.0930  -65.3900   49.7310 C   0  0  0  0  0  0  0  0  0  0  0  0
  -40.1370  -62.9070   48.2640 C   0  0  0  0  0  0  0  0  0  0  0  0
  -37.6890  -69.2150   50.5300 O   0  0  0  0  0  0  0  0  0  0  0  0
  -41.3160  -68.7210   54.7630 C   0  0  0  0  0  0  0  0  0  0  0  0
  -41.4360  -69.2540   55.8960 O   0  0  0  0  0  0  0  0  0  0  0  0
  -45.9510  -66.9030   54.4180 H   0  0  0  0  0  0  0  0  0  0  0  0
  -42.2120  -65.1600   53.2470 H   0  0  0  0  0  0  0  0  0  0  0  0
  -43.4260  -63.4820   51.9580 H   0  0  0  0  0  0  0  0  0  0  0  0
  -45.9060  -63.4580   51.8740 H   0  0  0  0  0  0  0  0  0  0  0  0
  -43.5610  -67.4330   55.6250 H   0  0  0  0  0  0  0  0  0  0  0  0
  -38.9970  -70.4730   54.6720 H   0  0  0  0  0  0  0  0  0  0  0  0
  -37.4800  -70.5880   52.7380 H   0  0  0  0  0  0  0  0  0  0  0  0
  -39.0700  -67.6800   49.6410 H   0  0  0  0  0  0  0  0  0  0  0  0
  -40.8080  -67.9250   49.8340 H   0  0  0  0  0  0  0  0  0  0  0  0
  -39.9110  -65.7670   51.5160 H   0  0  0  0  0  0  0  0  0  0  0  0
  -42.1290  -65.6590   50.9660 H   0  0  0  0  0  0  0  0  0  0  0  0
  -41.8840  -66.5180   49.4620 H   0  0  0  0  0  0  0  0  0  0  0  0
  -42.5910  -64.4010   48.9430 H   0  0  0  0  0  0  0  0  0  0  0  0
  -41.5460  -63.5160   50.0580 H   0  0  0  0  0  0  0  0  0  0  0  0
  -40.0050  -66.2230   48.0030 H   0  0  0  0  0  0  0  0  0  0  0  0
  -38.7390  -64.9910   47.6290 H   0  0  0  0  0  0  0  0  0  0  0  0
  -38.8440  -64.3880   50.1980 H   0  0  0  0  0  0  0  0  0  0  0  0
  -38.1340  -65.9650   49.6950 H   0  0  0  0  0  0  0  0  0  0  0  0
  -40.0390  -62.4530   49.2820 H   0  0  0  0  0  0  0  0  0  0  0  0
  -39.1700  -62.7870   47.7310 H   0  0  0  0  0  0  0  0  0  0  0  0
  -40.9330  -62.2770   47.7710 H   0  0  0  0  0  0  0  0  0  0  0  0
  1  2  1  0  0  0  0
  2  3  1  0  0  0  0
  3  4  2  0  0  0  0
  3 28  1  0  0  0  0
  4  8  1  0  0  0  0
  5 29  1  0  0  0  0
  5  4  1  0  0  0  0
  6  5  2  0  0  0  0
  7  6  1  0  0  0  0
  7  2  2  0  0  0  0
  8 32  1  0  0  0  0
  9  8  2  0  0  0  0
  9 26  1  0  0  0  0
 10  9  1  0  0  0  0
 11 10  1  0  0  0  0
 11 12  1  0  0  0  0
 12 26  1  0  0  0  0
 13 12  2  0  0  0  0
 13 33  1  0  0  0  0
 14 34  1  0  0  0  0
 14 13  1  0  0  0  0
 15 14  2  0  0  0  0
 16 15  1  0  0  0  0
 16 11  2  0  0  0  0
 17 18  1  0  0  0  0
 17 16  1  0  0  0  0
 18 37  1  0  0  0  0
 19 18  1  0  0  0  0
 19 38  1  0  0  0  0
 20 41  1  0  0  0  0
 20 19  1  0  0  0  0
 21 22  1  0  0  0  0
 21 20  1  0  0  0  0
 22 23  1  0  0  0  0
 23 44  1  0  0  0  0
 23 18  1  0  0  0  0
 24 21  1  0  0  0  0
 24 46  1  0  0  0  0
 25 15  1  0  0  0  0
 26 27  2  0  0  0  0
 30  6  1  0  0  0  0
 31  7  1  0  0  0  0
 35 17  1  0  0  0  0
 36 17  1  0  0  0  0
 39 19  1  0  0  0  0
 40 20  1  0  0  0  0
 42 22  1  0  0  0  0
 43 22  1  0  0  0  0
 45 23  1  0  0  0  0
 47 24  1  0  0  0  0
 48 24  1  0  0  0  0
M  END
>  <Pose>
1

>  <Score>
-7.06

$$$$
