
 OpenBabel03202209423D

 56 59  0  0  1  0  0  0  0  0999 V2000
  -38.4630  -65.8480   48.4720 B   0  0  0  0  0  0  0  0  0  0  0  0
  -39.0480  -64.1030   47.9960 C   0  0  0  0  0  0  0  0  0  0  0  0
  -39.6740  -63.3320   48.9520 C   0  0  0  0  0  0  0  0  0  0  0  0
  -40.0810  -62.0740   48.5630 C   0  0  0  0  0  0  0  0  0  0  0  0
  -39.8810  -61.5920   47.2860 C   0  0  0  0  0  0  0  0  0  0  0  0
  -39.2550  -62.3630   46.3290 C   0  0  0  0  0  0  0  0  0  0  0  0
  -38.8400  -63.6250   46.6990 C   0  0  0  0  0  0  0  0  0  0  0  0
  -39.0550  -61.8700   45.0390 O   0  0  0  0  0  0  0  0  0  0  0  0
  -39.8680  -62.2060   43.9550 C   0  0  0  0  0  0  0  0  0  0  0  0
  -40.2950  -60.3210   46.9010 O   0  0  0  0  0  0  0  0  0  0  0  0
  -41.2960  -59.5900   47.5340 C   0  0  0  0  0  0  0  0  0  0  0  0
  -39.8870  -63.8380   50.3040 C   0  0  0  0  0  0  0  0  0  0  0  0
  -41.0170  -64.1340   50.8000 N   0  0  0  0  0  0  0  0  0  0  0  0
  -41.1930  -64.6210   52.1100 N   0  0  0  0  0  0  0  0  0  0  0  0
  -42.5250  -64.8480   52.5530 C   0  0  0  0  0  0  0  0  0  0  0  0
  -42.9320  -65.8210   53.4080 N   0  0  0  0  0  0  0  0  0  0  0  0
  -44.2740  -65.7120   53.5840 C   0  0  0  0  0  0  0  0  0  0  0  0
  -45.1780  -66.3900   54.3000 N   0  0  0  0  0  0  0  0  0  0  0  0
  -46.4840  -66.0650   54.2970 C   0  0  0  0  0  0  0  0  0  0  0  0
  -46.8950  -65.0200   53.5470 N   0  0  0  0  0  0  0  0  0  0  0  0
  -46.0540  -64.3020   52.8110 C   0  0  0  0  0  0  0  0  0  0  0  0
  -44.7150  -64.6410   52.8180 C   0  0  0  0  0  0  0  0  0  0  0  0
  -43.6380  -64.1580   52.2230 N   0  0  0  0  0  0  0  0  0  0  0  0
  -46.4490  -63.2160   52.0230 O   0  0  0  0  0  0  0  0  0  0  0  0
  -47.4410  -66.8030   55.0720 N   0  0  0  0  0  0  0  0  0  0  0  0
  -42.0830  -66.7980   54.0180 C   0  0  2  0  0  0  0  0  0  0  0  0
  -40.9160  -67.0530   53.3120 O   0  0  0  0  0  0  0  0  0  0  0  0
  -40.4520  -68.2860   53.6700 C   0  0  1  0  0  0  0  0  0  0  0  0
  -41.4990  -69.0200   54.4350 C   0  0  2  0  0  0  0  0  0  0  0  0
  -42.7370  -68.1540   54.1900 C   0  0  1  0  0  0  0  0  0  0  0  0
  -43.5850  -68.1860   55.2960 O   0  0  0  0  0  0  0  0  0  0  0  0
  -41.2490  -68.9260   55.8190 O   0  0  0  0  0  0  0  0  0  0  0  0
  -40.1660  -69.0790   52.3930 C   0  0  0  0  0  0  0  0  0  0  0  0
  -39.2320  -70.0870   52.6560 O   0  0  0  0  0  0  0  0  0  0  0  0
  -40.5780  -61.4600   49.3190 H   0  0  0  0  0  0  0  0  0  0  0  0
  -38.3460  -64.2510   45.9670 H   0  0  0  0  0  0  0  0  0  0  0  0
  -39.8350  -61.4540   43.1360 H   0  0  0  0  0  0  0  0  0  0  0  0
  -40.9520  -62.2470   44.2600 H   0  0  0  0  0  0  0  0  0  0  0  0
  -39.6330  -63.1820   43.4980 H   0  0  0  0  0  0  0  0  0  0  0  0
  -41.1320  -58.5160   47.2950 H   0  0  0  0  0  0  0  0  0  0  0  0
  -41.4180  -59.7880   48.6030 H   0  0  0  0  0  0  0  0  0  0  0  0
  -42.2840  -59.8440   47.0530 H   0  0  0  0  0  0  0  0  0  0  0  0
  -39.0240  -63.9760   50.9430 H   0  0  0  0  0  0  0  0  0  0  0  0
  -40.4060  -64.8160   52.7480 H   0  0  0  0  0  0  0  0  0  0  0  0
  -45.7530  -62.4930   51.8810 H   0  0  0  0  0  0  0  0  0  0  0  0
  -48.4050  -66.9890   54.7770 H   0  0  0  0  0  0  0  0  0  0  0  0
  -47.1110  -67.1640   55.9910 H   0  0  0  0  0  0  0  0  0  0  0  0
  -41.7740  -66.4760   55.0350 H   0  0  0  0  0  0  0  0  0  0  0  0
  -39.5150  -68.1450   54.2540 H   0  0  0  0  0  0  0  0  0  0  0  0
  -41.6600  -70.0580   54.1110 H   0  0  0  0  0  0  0  0  0  0  0  0
  -43.2740  -68.4770   53.2880 H   0  0  0  0  0  0  0  0  0  0  0  0
  -44.4000  -67.6510   55.1130 H   0  0  0  0  0  0  0  0  0  0  0  0
  -40.9860  -69.7930   56.1960 H   0  0  0  0  0  0  0  0  0  0  0  0
  -39.7490  -68.3610   51.6660 H   0  0  0  0  0  0  0  0  0  0  0  0
  -41.1250  -69.4840   52.0400 H   0  0  0  0  0  0  0  0  0  0  0  0
  -39.6320  -70.8190   53.1920 H   0  0  0  0  0  0  0  0  0  0  0  0
  2  1  1  0  0  0  0
  2  3  1  0  0  0  0
  3 12  1  0  0  0  0
  4  3  2  0  0  0  0
  4 35  1  0  0  0  0
  5  4  1  0  0  0  0
  6  7  1  0  0  0  0
  6  5  2  0  0  0  0
  7  2  2  0  0  0  0
  8  6  1  0  0  0  0
  9 38  1  0  0  0  0
  9  8  1  0  0  0  0
 10  5  1  0  0  0  0
 10 11  1  0  0  0  0
 11 41  1  0  0  0  0
 12 13  2  0  0  0  0
 12 43  1  0  0  0  0
 13 14  1  0  0  0  0
 14 15  1  0  0  0  0
 14 44  1  0  0  0  0
 15 16  1  0  0  0  0
 16 17  1  0  0  0  0
 16 26  1  0  0  0  0
 17 18  1  0  0  0  0
 19 18  2  0  0  0  0
 19 25  1  0  0  0  0
 20 19  1  0  0  0  0
 21 22  1  0  0  0  0
 21 20  2  0  0  0  0
 22 17  2  0  0  0  0
 23 15  2  0  0  0  0
 23 22  1  0  0  0  0
 24 21  1  0  0  0  0
 25 47  1  0  0  0  0
 26 30  1  0  0  0  0
 26 48  1  1  0  0  0
 27 28  1  0  0  0  0
 27 26  1  0  0  0  0
 28 49  1  1  0  0  0
 28 29  1  0  0  0  0
 29 50  1  6  0  0  0
 29 32  1  0  0  0  0
 30 51  1  6  0  0  0
 30 29  1  0  0  0  0
 30 31  1  0  0  0  0
 32 53  1  0  0  0  0
 33 34  1  0  0  0  0
 33 28  1  0  0  0  0
 34 56  1  0  0  0  0
 36  7  1  0  0  0  0
 37  9  1  0  0  0  0
 39  9  1  0  0  0  0
 40 11  1  0  0  0  0
 42 11  1  0  0  0  0
 45 24  1  0  0  0  0
 46 25  1  0  0  0  0
 52 31  1  0  0  0  0
 54 33  1  0  0  0  0
 55 33  1  0  0  0  0
M  END
>  <Pose>
1

>  <Score>
-8.04

$$$$
