
 OpenBabel03202209423D

 51 54  0  0  1  0  0  0  0  0999 V2000
  -48.0640  -67.5430   53.5590 B   0  0  0  0  0  0  0  0  0  0  0  0
  -46.3320  -66.7420   53.5870 C   0  0  0  0  0  0  0  0  0  0  0  0
  -45.2030  -67.4870   53.8690 C   0  0  0  0  0  0  0  0  0  0  0  0
  -43.9310  -66.9550   53.9010 C   0  0  0  0  0  0  0  0  0  0  0  0
  -43.8370  -65.5880   53.6280 C   0  0  0  0  0  0  0  0  0  0  0  0
  -44.9590  -64.8480   53.3480 C   0  0  0  0  0  0  0  0  0  0  0  0
  -46.2250  -65.3940   53.3190 C   0  0  0  0  0  0  0  0  0  0  0  0
  -47.4090  -64.5430   53.0090 C   0  0  0  0  0  0  0  0  0  0  0  0
  -42.5420  -65.0880   53.6680 O   0  0  0  0  0  0  0  0  0  0  0  0
  -41.4240  -65.8030   54.1590 C   0  0  0  0  0  0  0  0  0  0  0  0
  -41.4530  -67.2810   53.6470 C   0  0  2  0  0  0  0  0  0  0  0  0
  -42.7440  -67.7380   54.2160 C   0  0  0  0  0  0  0  0  0  0  0  0
  -42.9360  -68.7260   54.9460 O   0  0  0  0  0  0  0  0  0  0  0  0
  -40.3430  -67.9950   53.9750 N   0  0  0  0  0  0  0  0  0  0  0  0
  -39.4910  -68.6010   53.0430 C   0  0  0  0  0  0  0  0  0  0  0  0
  -39.7820  -70.0840   52.9600 C   0  0  0  0  0  0  0  0  0  0  0  0
  -39.4080  -70.6130   54.2180 O   0  0  0  0  0  0  0  0  0  0  0  0
  -40.4090  -70.1580   55.0940 C   0  0  0  0  0  0  0  0  0  0  0  0
  -40.2750  -68.6380   55.2120 C   0  0  0  0  0  0  0  0  0  0  0  0
  -41.5800  -67.1200   52.1740 C   0  0  0  0  0  0  0  0  0  0  0  0
  -40.4390  -66.6770   51.4370 N   0  0  0  0  0  0  0  0  0  0  0  0
  -40.0800  -67.3740   50.2600 C   0  0  0  0  0  0  0  0  0  0  0  0
  -41.0260  -67.0090   49.1060 C   0  0  0  0  0  0  0  0  0  0  0  0
  -40.7790  -65.6590   48.8350 O   0  0  0  0  0  0  0  0  0  0  0  0
  -41.2790  -64.9300   49.9200 C   0  0  0  0  0  0  0  0  0  0  0  0
  -40.5630  -65.2370   51.1990 C   0  0  0  0  0  0  0  0  0  0  0  0
  -45.2790  -68.5670   54.0830 H   0  0  0  0  0  0  0  0  0  0  0  0
  -44.8490  -63.7910   53.1410 H   0  0  0  0  0  0  0  0  0  0  0  0
  -48.3110  -64.8770   53.5580 H   0  0  0  0  0  0  0  0  0  0  0  0
  -47.1200  -63.4970   53.2620 H   0  0  0  0  0  0  0  0  0  0  0  0
  -47.6060  -64.5540   51.9180 H   0  0  0  0  0  0  0  0  0  0  0  0
  -40.5260  -65.2840   53.7900 H   0  0  0  0  0  0  0  0  0  0  0  0
  -41.4220  -65.8040   55.2730 H   0  0  0  0  0  0  0  0  0  0  0  0
  -39.4460  -68.1860   52.0410 H   0  0  0  0  0  0  0  0  0  0  0  0
  -38.4410  -68.5340   53.4440 H   0  0  0  0  0  0  0  0  0  0  0  0
  -40.8250  -70.2890   52.7350 H   0  0  0  0  0  0  0  0  0  0  0  0
  -39.0690  -70.5210   52.2340 H   0  0  0  0  0  0  0  0  0  0  0  0
  -40.1900  -70.5640   56.0960 H   0  0  0  0  0  0  0  0  0  0  0  0
  -41.3600  -70.4860   54.6800 H   0  0  0  0  0  0  0  0  0  0  0  0
  -39.1990  -68.5180   55.5840 H   0  0  0  0  0  0  0  0  0  0  0  0
  -40.8750  -68.2990   56.0470 H   0  0  0  0  0  0  0  0  0  0  0  0
  -42.4170  -66.4190   51.8890 H   0  0  0  0  0  0  0  0  0  0  0  0
  -41.8830  -68.0890   51.6690 H   0  0  0  0  0  0  0  0  0  0  0  0
  -40.0990  -68.4450   50.3350 H   0  0  0  0  0  0  0  0  0  0  0  0
  -39.0820  -66.9960   49.9220 H   0  0  0  0  0  0  0  0  0  0  0  0
  -40.6970  -67.6530   48.2500 H   0  0  0  0  0  0  0  0  0  0  0  0
  -42.0790  -67.2070   49.3510 H   0  0  0  0  0  0  0  0  0  0  0  0
  -41.0640  -63.8540   49.6700 H   0  0  0  0  0  0  0  0  0  0  0  0
  -42.3790  -65.0220   50.0010 H   0  0  0  0  0  0  0  0  0  0  0  0
  -39.5840  -64.7390   51.2320 H   0  0  0  0  0  0  0  0  0  0  0  0
  -41.1610  -64.8370   52.0430 H   0  0  0  0  0  0  0  0  0  0  0  0
  1  2  1  0  0  0  0
  2  3  1  0  0  0  0
  3  4  2  0  0  0  0
  3 27  1  0  0  0  0
  4 12  1  0  0  0  0
  5  9  1  0  0  0  0
  5  4  1  0  0  0  0
  6  5  2  0  0  0  0
  7  6  1  0  0  0  0
  7  2  2  0  0  0  0
  8 30  1  0  0  0  0
  8  7  1  0  0  0  0
  8 29  1  0  0  0  0
  9 10  1  0  0  0  0
 10 33  1  0  0  0  0
 11 20  1  6  0  0  0
 11 14  1  0  0  0  0
 11 10  1  0  0  0  0
 11 12  1  0  0  0  0
 12 13  2  0  0  0  0
 14 19  1  0  0  0  0
 15 35  1  0  0  0  0
 15 14  1  0  0  0  0
 16 15  1  0  0  0  0
 16 17  1  0  0  0  0
 17 18  1  0  0  0  0
 18 19  1  0  0  0  0
 18 38  1  0  0  0  0
 19 40  1  0  0  0  0
 19 41  1  0  0  0  0
 21 20  1  0  0  0  0
 22 44  1  0  0  0  0
 22 21  1  0  0  0  0
 23 47  1  0  0  0  0
 23 22  1  0  0  0  0
 24 23  1  0  0  0  0
 24 25  1  0  0  0  0
 25 49  1  0  0  0  0
 25 26  1  0  0  0  0
 26 50  1  0  0  0  0
 26 21  1  0  0  0  0
 26 51  1  0  0  0  0
 28  6  1  0  0  0  0
 31  8  1  0  0  0  0
 32 10  1  0  0  0  0
 34 15  1  0  0  0  0
 36 16  1  0  0  0  0
 37 16  1  0  0  0  0
 39 18  1  0  0  0  0
 42 20  1  0  0  0  0
 43 20  1  0  0  0  0
 45 22  1  0  0  0  0
 46 23  1  0  0  0  0
 48 25  1  0  0  0  0
M  END
>  <Pose>
1

>  <Score>
-4.56

$$$$
