
 OpenBabel03202209423D

 56 59  0  0  1  0  0  0  0  0999 V2000
  -36.3240  -62.8630   48.7740 B   0  0  0  0  0  0  0  0  0  0  0  0
  -37.2860  -64.4750   48.5040 C   0  0  0  0  0  0  0  0  0  0  0  0
  -38.6170  -64.5660   48.9240 C   0  0  0  0  0  0  0  0  0  0  0  0
  -39.3480  -65.7130   48.7340 C   0  0  0  0  0  0  0  0  0  0  0  0
  -38.7230  -66.7700   48.1170 C   0  0  0  0  0  0  0  0  0  0  0  0
  -37.3980  -66.7070   47.6890 C   0  0  0  0  0  0  0  0  0  0  0  0
  -36.6680  -65.5320   47.8860 C   0  0  0  0  0  0  0  0  0  0  0  0
  -35.2530  -65.4500   47.4270 C   0  0  0  0  0  0  0  0  0  0  0  0
  -36.7610  -67.8860   47.0440 C   0  0  0  0  0  0  0  0  0  0  0  0
  -40.7790  -65.8850   49.1140 C   0  0  2  0  0  0  0  0  0  0  0  0
  -41.3410  -64.7710   49.9430 C   0  0  2  0  0  0  0  0  0  0  0  0
  -40.1940  -64.0180   50.5920 C   0  0  0  0  0  0  0  0  0  0  0  0
  -39.2940  -63.5350   49.5610 O   0  0  0  0  0  0  0  0  0  0  0  0
  -42.1110  -65.3960   50.9970 N   0  0  0  0  0  0  0  0  0  0  0  0
  -43.3740  -64.7800   51.2280 C   0  0  0  0  0  0  0  0  0  0  0  0
  -44.0310  -65.1170   52.5360 C   0  0  0  0  0  0  0  0  0  0  0  0
  -43.1810  -65.2520   53.5990 O   0  0  0  0  0  0  0  0  0  0  0  0
  -42.2440  -66.2440   53.2780 C   0  0  0  0  0  0  0  0  0  0  0  0
  -41.3540  -65.5690   52.2020 C   0  0  0  0  0  0  0  0  0  0  0  0
  -42.1010  -63.7320   49.2100 C   0  0  0  0  0  0  0  0  0  0  0  0
  -42.1700  -63.6520   47.8230 N   0  0  0  0  0  0  0  0  0  0  0  0
  -43.1680  -62.5980   47.4330 C   0  0  0  0  0  0  0  0  0  0  0  0
  -42.8400  -61.2910   48.0540 C   0  0  0  0  0  0  0  0  0  0  0  0
  -41.5040  -61.0620   48.2500 O   0  0  0  0  0  0  0  0  0  0  0  0
  -40.6530  -61.7460   47.4320 C   0  0  0  0  0  0  0  0  0  0  0  0
  -41.0240  -63.1520   47.0880 C   0  0  0  0  0  0  0  0  0  0  0  0
  -40.8740  -67.1210   49.8260 O   0  0  0  0  0  0  0  0  0  0  0  0
  -39.2190  -67.7340   47.9200 H   0  0  0  0  0  0  0  0  0  0  0  0
  -34.5730  -66.1500   47.9200 H   0  0  0  0  0  0  0  0  0  0  0  0
  -34.8730  -64.4230   47.6420 H   0  0  0  0  0  0  0  0  0  0  0  0
  -35.2990  -65.6230   46.3130 H   0  0  0  0  0  0  0  0  0  0  0  0
  -36.5860  -68.6490   47.8550 H   0  0  0  0  0  0  0  0  0  0  0  0
  -37.3750  -68.3580   46.2680 H   0  0  0  0  0  0  0  0  0  0  0  0
  -35.7580  -67.5760   46.6700 H   0  0  0  0  0  0  0  0  0  0  0  0
  -41.2940  -66.0860   48.1750 H   0  0  0  0  0  0  0  0  0  0  0  0
  -39.6000  -64.5810   51.2970 H   0  0  0  0  0  0  0  0  0  0  0  0
  -40.6340  -63.0820   51.0170 H   0  0  0  0  0  0  0  0  0  0  0  0
  -44.0800  -65.1150   50.4450 H   0  0  0  0  0  0  0  0  0  0  0  0
  -43.2000  -63.6870   51.2550 H   0  0  0  0  0  0  0  0  0  0  0  0
  -44.7270  -65.9780   52.4630 H   0  0  0  0  0  0  0  0  0  0  0  0
  -44.7060  -64.2550   52.7940 H   0  0  0  0  0  0  0  0  0  0  0  0
  -41.6060  -66.4090   54.1490 H   0  0  0  0  0  0  0  0  0  0  0  0
  -42.7280  -67.1420   52.8550 H   0  0  0  0  0  0  0  0  0  0  0  0
  -41.1280  -64.5800   52.6720 H   0  0  0  0  0  0  0  0  0  0  0  0
  -40.4980  -66.2350   52.1020 H   0  0  0  0  0  0  0  0  0  0  0  0
  -41.5780  -62.7550   49.5560 H   0  0  0  0  0  0  0  0  0  0  0  0
  -43.1110  -63.5930   49.6760 H   0  0  0  0  0  0  0  0  0  0  0  0
  -44.1860  -62.9650   47.6590 H   0  0  0  0  0  0  0  0  0  0  0  0
  -43.1100  -62.5160   46.3330 H   0  0  0  0  0  0  0  0  0  0  0  0
  -43.2960  -60.4330   47.4790 H   0  0  0  0  0  0  0  0  0  0  0  0
  -43.3360  -61.2660   49.0570 H   0  0  0  0  0  0  0  0  0  0  0  0
  -39.6630  -61.7700   47.9250 H   0  0  0  0  0  0  0  0  0  0  0  0
  -40.5230  -61.1030   46.5140 H   0  0  0  0  0  0  0  0  0  0  0  0
  -41.4500  -63.0620   46.0160 H   0  0  0  0  0  0  0  0  0  0  0  0
  -40.1980  -63.8270   46.9400 H   0  0  0  0  0  0  0  0  0  0  0  0
  -41.8360  -67.3420   49.8850 H   0  0  0  0  0  0  0  0  0  0  0  0
  2  1  1  0  0  0  0
  2  3  1  0  0  0  0
  3 13  1  0  0  0  0
  4  3  2  0  0  0  0
  4 10  1  0  0  0  0
  5  4  1  0  0  0  0
  6  7  1  0  0  0  0
  6  5  2  0  0  0  0
  7  2  2  0  0  0  0
  8 30  1  0  0  0  0
  8  7  1  0  0  0  0
  8 29  1  0  0  0  0
  9  6  1  0  0  0  0
  9 32  1  0  0  0  0
 10 35  1  6  0  0  0
 10 27  1  0  0  0  0
 10 11  1  0  0  0  0
 11 20  1  6  0  0  0
 11 12  1  0  0  0  0
 11 14  1  0  0  0  0
 12 37  1  0  0  0  0
 12 36  1  0  0  0  0
 13 12  1  0  0  0  0
 14 15  1  0  0  0  0
 14 19  1  0  0  0  0
 15 39  1  0  0  0  0
 15 16  1  0  0  0  0
 16 41  1  0  0  0  0
 16 17  1  0  0  0  0
 18 17  1  0  0  0  0
 18 42  1  0  0  0  0
 19 44  1  0  0  0  0
 19 18  1  0  0  0  0
 20 46  1  0  0  0  0
 20 47  1  0  0  0  0
 21 20  1  0  0  0  0
 22 48  1  0  0  0  0
 22 21  1  0  0  0  0
 22 23  1  0  0  0  0
 23 24  1  0  0  0  0
 23 51  1  0  0  0  0
 25 52  1  0  0  0  0
 25 24  1  0  0  0  0
 26 25  1  0  0  0  0
 26 21  1  0  0  0  0
 27 56  1  0  0  0  0
 28  5  1  0  0  0  0
 31  8  1  0  0  0  0
 33  9  1  0  0  0  0
 34  9  1  0  0  0  0
 38 15  1  0  0  0  0
 40 16  1  0  0  0  0
 43 18  1  0  0  0  0
 45 19  1  0  0  0  0
 49 22  1  0  0  0  0
 50 23  1  0  0  0  0
 53 25  1  0  0  0  0
 54 26  1  0  0  0  0
 55 26  1  0  0  0  0
M  END
>  <Pose>
1

>  <Score>
-4.61

$$$$
