
 OpenBabel03202209423D

 45 48  0  0  0  0  0  0  0  0999 V2000
  -41.0120  -69.4460   55.0540 B   0  0  0  0  0  0  0  0  0  0  0  0
  -41.6820  -67.9090   54.1360 C   0  0  0  0  0  0  0  0  0  0  0  0
  -41.2320  -67.5200   52.8990 C   0  0  0  0  0  0  0  0  0  0  0  0
  -41.9310  -66.3910   52.5600 C   0  0  0  0  0  0  0  0  0  0  0  0
  -42.7990  -66.0830   53.5690 N   0  0  0  0  0  0  0  0  0  0  0  0
  -42.6400  -67.0200   54.5340 C   0  0  0  0  0  0  0  0  0  0  0  0
  -43.3890  -67.0610   55.8110 C   0  0  0  0  0  0  0  0  0  0  0  0
  -43.6590  -64.9520   53.5370 C   0  0  0  0  0  0  0  0  0  0  0  0
  -44.7190  -64.8770   52.5520 C   0  0  0  0  0  0  0  0  0  0  0  0
  -44.6660  -63.7460   51.8570 O   0  0  0  0  0  0  0  0  0  0  0  0
  -45.7580  -65.7220   52.1920 N   0  0  0  0  0  0  0  0  0  0  0  0
  -46.1540  -66.9370   52.8100 C   0  0  0  0  0  0  0  0  0  0  0  0
  -47.4770  -66.7360   53.5500 C   0  0  0  0  0  0  0  0  0  0  0  0
  -48.3210  -65.7100   52.8140 C   0  0  0  0  0  0  0  0  0  0  0  0
  -49.6990  -66.1400   52.9850 N   0  0  0  0  0  0  0  0  0  0  0  0
  -50.1690  -65.5190   54.2000 C   0  0  0  0  0  0  0  0  0  0  0  0
  -51.1730  -65.8720   54.8680 O   0  0  0  0  0  0  0  0  0  0  0  0
  -49.2740  -64.4300   54.4950 N   0  0  0  0  0  0  0  0  0  0  0  0
  -48.2800  -64.3910   53.4790 C   0  0  0  0  0  0  0  0  0  0  0  0
  -47.5370  -63.4120   53.2310 O   0  0  0  0  0  0  0  0  0  0  0  0
  -48.0210  -65.6580   51.3490 C   0  0  0  0  0  0  0  0  0  0  0  0
  -46.5960  -65.3460   51.0270 C   0  0  0  0  0  0  0  0  0  0  0  0
  -41.6770  -65.7700   51.3370 C   0  0  0  0  0  0  0  0  0  0  0  0
  -40.7270  -66.2870   50.4660 C   0  0  0  0  0  0  0  0  0  0  0  0
  -40.0410  -67.4140   50.8210 C   0  0  0  0  0  0  0  0  0  0  0  0
  -40.2840  -68.0320   52.0260 C   0  0  0  0  0  0  0  0  0  0  0  0
  -43.6460  -68.1040   56.1060 H   0  0  0  0  0  0  0  0  0  0  0  0
  -42.7270  -66.6530   56.6110 H   0  0  0  0  0  0  0  0  0  0  0  0
  -44.3290  -66.4600   55.7590 H   0  0  0  0  0  0  0  0  0  0  0  0
  -42.9990  -64.0240   53.4490 H   0  0  0  0  0  0  0  0  0  0  0  0
  -44.0750  -64.8200   54.5890 H   0  0  0  0  0  0  0  0  0  0  0  0
  -45.4470  -67.4840   53.4060 H   0  0  0  0  0  0  0  0  0  0  0  0
  -46.4090  -67.6570   51.9570 H   0  0  0  0  0  0  0  0  0  0  0  0
  -47.9660  -67.7320   53.5820 H   0  0  0  0  0  0  0  0  0  0  0  0
  -47.2610  -66.4350   54.5750 H   0  0  0  0  0  0  0  0  0  0  0  0
  -50.2490  -66.7690   52.3650 H   0  0  0  0  0  0  0  0  0  0  0  0
  -49.3470  -63.7950   55.3020 H   0  0  0  0  0  0  0  0  0  0  0  0
  -48.3790  -66.6160   50.9040 H   0  0  0  0  0  0  0  0  0  0  0  0
  -48.6750  -64.8580   50.9140 H   0  0  0  0  0  0  0  0  0  0  0  0
  -46.3900  -64.3360   50.6820 H   0  0  0  0  0  0  0  0  0  0  0  0
  -46.2750  -66.0690   50.2200 H   0  0  0  0  0  0  0  0  0  0  0  0
  -42.2420  -64.8790   51.0920 H   0  0  0  0  0  0  0  0  0  0  0  0
  -40.5580  -65.7730   49.5200 H   0  0  0  0  0  0  0  0  0  0  0  0
  -39.3080  -67.8110   50.1490 H   0  0  0  0  0  0  0  0  0  0  0  0
  -39.7590  -68.9220   52.3320 H   0  0  0  0  0  0  0  0  0  0  0  0
  2  6  2  0  0  0  0
  2  1  1  0  0  0  0
  3  2  1  0  0  0  0
  4  3  1  0  0  0  0
  4  5  1  0  0  0  0
  5  6  1  0  0  0  0
  6  7  1  0  0  0  0
  7 27  1  0  0  0  0
  7 28  1  0  0  0  0
  8  5  1  0  0  0  0
  8 31  1  0  0  0  0
  9  8  1  0  0  0  0
 10  9  2  0  0  0  0
 11  9  1  0  0  0  0
 11 12  1  0  0  0  0
 12 32  1  0  0  0  0
 12 13  1  0  0  0  0
 13 34  1  0  0  0  0
 13 35  1  0  0  0  0
 14 15  1  0  0  0  0
 14 19  1  0  0  0  0
 14 13  1  0  0  0  0
 15 16  1  0  0  0  0
 16 18  1  0  0  0  0
 16 17  2  0  0  0  0
 18 37  1  0  0  0  0
 19 18  1  0  0  0  0
 20 19  2  0  0  0  0
 21 14  1  0  0  0  0
 22 21  1  0  0  0  0
 22 11  1  0  0  0  0
 23  4  2  0  0  0  0
 24 25  2  0  0  0  0
 24 23  1  0  0  0  0
 25 26  1  0  0  0  0
 26 45  1  0  0  0  0
 26  3  2  0  0  0  0
 29  7  1  0  0  0  0
 30  8  1  0  0  0  0
 33 12  1  0  0  0  0
 36 15  1  0  0  0  0
 38 21  1  0  0  0  0
 39 21  1  0  0  0  0
 40 22  1  0  0  0  0
 41 22  1  0  0  0  0
 42 23  1  0  0  0  0
 43 24  1  0  0  0  0
 44 25  1  0  0  0  0
M  END
>  <Pose>
1

>  <Score>
-5.59

$$$$
