
 OpenBabel03202209423D

 47 50  0  0  0  0  0  0  0  0999 V2000
  -40.8970  -66.0110   50.0900 B   0  0  0  0  0  0  0  0  0  0  0  0
  -40.7840  -67.1370   51.6310 C   0  0  0  0  0  0  0  0  0  0  0  0
  -41.6020  -67.1530   52.6810 N   0  0  0  0  0  0  0  0  0  0  0  0
  -41.1490  -68.1510   53.4900 C   0  0  0  0  0  0  0  0  0  0  0  0
  -40.0450  -68.7100   52.8850 C   0  0  0  0  0  0  0  0  0  0  0  0
  -39.8210  -68.0820   51.7390 N   0  0  0  0  0  0  0  0  0  0  0  0
  -39.4060  -69.7430   53.5020 N   0  0  0  0  0  0  0  0  0  0  0  0
  -39.8690  -70.1830   54.6700 C   0  0  0  0  0  0  0  0  0  0  0  0
  -39.2540  -71.1430   55.2190 O   0  0  0  0  0  0  0  0  0  0  0  0
  -40.9430  -69.6450   55.2690 N   0  0  0  0  0  0  0  0  0  0  0  0
  -41.6260  -68.6090   54.7020 C   0  0  0  0  0  0  0  0  0  0  0  0
  -42.6320  -68.1150   55.2690 O   0  0  0  0  0  0  0  0  0  0  0  0
  -38.2410  -70.3580   52.8990 C   0  0  0  0  0  0  0  0  0  0  0  0
  -42.7220  -66.3400   53.0150 C   0  0  0  0  0  0  0  0  0  0  0  0
  -43.1460  -65.3020   52.0600 C   0  0  0  0  0  0  0  0  0  0  0  0
  -44.4160  -65.2190   51.5950 O   0  0  0  0  0  0  0  0  0  0  0  0
  -45.2860  -64.7610   52.5710 C   0  0  0  0  0  0  0  0  0  0  0  0
  -46.5520  -64.2910   51.9200 C   0  0  0  0  0  0  0  0  0  0  0  0
  -47.4960  -65.3510   51.7530 N   0  0  0  0  0  0  0  0  0  0  0  0
  -47.7720  -66.3040   52.6530 C   0  0  0  0  0  0  0  0  0  0  0  0
  -48.7150  -67.1230   52.1140 C   0  0  0  0  0  0  0  0  0  0  0  0
  -48.9900  -66.6490   50.9010 N   0  0  0  0  0  0  0  0  0  0  0  0
  -48.2560  -65.5540   50.6430 C   0  0  0  0  0  0  0  0  0  0  0  0
  -48.2230  -64.4620   49.0890 B   0  0  0  0  0  0  0  0  0  0  0  0
  -49.1770  -68.1720   52.8160 N   0  0  0  0  0  0  0  0  0  0  0  0
  -48.7000  -68.3940   54.0380 C   0  0  0  0  0  0  0  0  0  0  0  0
  -49.1420  -69.3800   54.6850 O   0  0  0  0  0  0  0  0  0  0  0  0
  -47.7800  -67.6070   54.5820 N   0  0  0  0  0  0  0  0  0  0  0  0
  -47.2910  -66.5530   53.9230 C   0  0  0  0  0  0  0  0  0  0  0  0
  -46.4100  -65.8230   54.4800 O   0  0  0  0  0  0  0  0  0  0  0  0
  -50.1810  -69.0550   52.2590 C   0  0  0  0  0  0  0  0  0  0  0  0
  -41.2950  -70.0000   56.1840 H   0  0  0  0  0  0  0  0  0  0  0  0
  -38.3610  -70.4000   51.7920 H   0  0  0  0  0  0  0  0  0  0  0  0
  -38.0950  -71.3820   53.2570 H   0  0  0  0  0  0  0  0  0  0  0  0
  -37.3160  -69.7830   53.1560 H   0  0  0  0  0  0  0  0  0  0  0  0
  -43.5930  -67.0600   53.1280 H   0  0  0  0  0  0  0  0  0  0  0  0
  -42.6400  -65.9330   54.0760 H   0  0  0  0  0  0  0  0  0  0  0  0
  -42.9300  -64.2550   52.4970 H   0  0  0  0  0  0  0  0  0  0  0  0
  -42.4020  -65.2720   51.1770 H   0  0  0  0  0  0  0  0  0  0  0  0
  -44.7930  -63.8570   53.0630 H   0  0  0  0  0  0  0  0  0  0  0  0
  -45.3860  -65.5020   53.3480 H   0  0  0  0  0  0  0  0  0  0  0  0
  -46.9550  -63.4600   52.5630 H   0  0  0  0  0  0  0  0  0  0  0  0
  -46.2510  -63.8410   50.9440 H   0  0  0  0  0  0  0  0  0  0  0  0
  -47.4180  -67.7970   55.5420 H   0  0  0  0  0  0  0  0  0  0  0  0
  -51.1720  -68.6920   52.5720 H   0  0  0  0  0  0  0  0  0  0  0  0
  -50.1000  -69.0730   51.1580 H   0  0  0  0  0  0  0  0  0  0  0  0
  -49.9490  -70.0780   52.6630 H   0  0  0  0  0  0  0  0  0  0  0  0
  1  2  1  0  0  0  0
  2  6  2  0  0  0  0
  2  3  1  0  0  0  0
  3 14  1  0  0  0  0
  3  4  1  0  0  0  0
  4 11  1  0  0  0  0
  5  4  2  0  0  0  0
  5  7  1  0  0  0  0
  6  5  1  0  0  0  0
  7  8  1  0  0  0  0
  8  9  2  0  0  0  0
  8 10  1  0  0  0  0
 10 32  1  0  0  0  0
 11 10  1  0  0  0  0
 11 12  2  0  0  0  0
 13 35  1  0  0  0  0
 13 34  1  0  0  0  0
 13  7  1  0  0  0  0
 14 36  1  0  0  0  0
 14 37  1  0  0  0  0
 15 38  1  0  0  0  0
 15 14  1  0  0  0  0
 16 15  1  0  0  0  0
 16 17  1  0  0  0  0
 17 40  1  0  0  0  0
 17 41  1  0  0  0  0
 18 42  1  0  0  0  0
 18 17  1  0  0  0  0
 19 18  1  0  0  0  0
 19 20  1  0  0  0  0
 20 29  1  0  0  0  0
 21 20  2  0  0  0  0
 21 25  1  0  0  0  0
 22 21  1  0  0  0  0
 23 22  2  0  0  0  0
 23 19  1  0  0  0  0
 24 23  1  0  0  0  0
 25 26  1  0  0  0  0
 26 28  1  0  0  0  0
 26 27  2  0  0  0  0
 28 44  1  0  0  0  0
 29 30  2  0  0  0  0
 29 28  1  0  0  0  0
 31 45  1  0  0  0  0
 31 47  1  0  0  0  0
 31 25  1  0  0  0  0
 33 13  1  0  0  0  0
 39 15  1  0  0  0  0
 43 18  1  0  0  0  0
 46 31  1  0  0  0  0
M  END
>  <Pose>
1

>  <Score>
-7.97

$$$$
