
 OpenBabel03202209423D

 50 53  0  0  0  0  0  0  0  0999 V2000
  -50.5630  -62.2000   54.4040 B   0  0  0  0  0  0  0  0  0  0  0  0
  -50.1250  -63.2860   52.9150 C   0  0  0  0  0  0  0  0  0  0  0  0
  -51.0850  -63.6110   52.0010 C   0  0  0  0  0  0  0  0  0  0  0  0
  -50.7320  -64.4120   50.9180 C   0  0  0  0  0  0  0  0  0  0  0  0
  -49.4200  -64.8590   50.7910 C   0  0  0  0  0  0  0  0  0  0  0  0
  -48.4520  -64.5360   51.7030 C   0  0  0  0  0  0  0  0  0  0  0  0
  -48.8150  -63.7440   52.7700 C   0  0  0  0  0  0  0  0  0  0  0  0
  -47.8250  -63.4240   53.6870 O   0  0  0  0  0  0  0  0  0  0  0  0
  -47.0860  -65.0140   51.5520 C   0  0  0  0  0  0  0  0  0  0  0  0
  -46.0820  -64.2420   51.3330 N   0  0  0  0  0  0  0  0  0  0  0  0
  -44.7720  -64.8160   51.2010 N   0  0  0  0  0  0  0  0  0  0  0  0
  -43.9390  -64.7550   52.3100 C   0  0  0  0  0  0  0  0  0  0  0  0
  -43.4980  -63.5890   52.6350 O   0  0  0  0  0  0  0  0  0  0  0  0
  -43.4830  -65.8300   53.1700 C   0  0  0  0  0  0  0  0  0  0  0  0
  -44.0780  -66.2080   54.3480 N   0  0  0  0  0  0  0  0  0  0  0  0
  -43.4190  -67.2070   54.8650 N   0  0  0  0  0  0  0  0  0  0  0  0
  -42.3900  -67.5490   54.1100 N   0  0  0  0  0  0  0  0  0  0  0  0
  -42.4070  -66.7160   53.0550 C   0  0  0  0  0  0  0  0  0  0  0  0
  -41.4440  -66.6740   51.9510 C   0  0  0  0  0  0  0  0  0  0  0  0
  -42.0530  -66.5480   50.6240 N   0  0  0  0  0  0  0  0  0  0  0  0
  -41.2920  -67.3880   49.6780 C   0  0  0  0  0  0  0  0  0  0  0  0
  -39.8330  -67.1530   49.8560 C   0  0  0  0  0  0  0  0  0  0  0  0
  -39.5650  -65.8100   49.7510 O   0  0  0  0  0  0  0  0  0  0  0  0
  -40.6220  -65.0540   49.3160 C   0  0  0  0  0  0  0  0  0  0  0  0
  -41.8630  -65.1510   50.1640 C   0  0  0  0  0  0  0  0  0  0  0  0
  -41.4750  -68.5810   54.4360 C   0  0  0  0  0  0  0  0  0  0  0  0
  -41.2470  -69.1800   55.6240 N   0  0  0  0  0  0  0  0  0  0  0  0
  -40.3230  -70.0950   55.4880 O   0  0  0  0  0  0  0  0  0  0  0  0
  -39.9100  -70.1440   54.2470 N   0  0  0  0  0  0  0  0  0  0  0  0
  -40.6040  -69.2180   53.5660 C   0  0  0  0  0  0  0  0  0  0  0  0
  -40.4450  -68.9630   52.1860 N   0  0  0  0  0  0  0  0  0  0  0  0
  -52.0410  -64.8820   49.6310 B   0  0  0  0  0  0  0  0  0  0  0  0
  -52.3970  -63.1760   52.1090 O   0  0  0  0  0  0  0  0  0  0  0  0
  -49.1500  -65.4740   49.9570 H   0  0  0  0  0  0  0  0  0  0  0  0
  -47.7530  -63.9360   54.5570 H   0  0  0  0  0  0  0  0  0  0  0  0
  -46.8820  -66.0790   51.6250 H   0  0  0  0  0  0  0  0  0  0  0  0
  -44.5550  -65.2350   50.2650 H   0  0  0  0  0  0  0  0  0  0  0  0
  -40.8210  -67.5710   51.9180 H   0  0  0  0  0  0  0  0  0  0  0  0
  -40.8070  -65.7850   52.0510 H   0  0  0  0  0  0  0  0  0  0  0  0
  -41.5760  -68.4470   49.7780 H   0  0  0  0  0  0  0  0  0  0  0  0
  -41.5940  -67.0530   48.6690 H   0  0  0  0  0  0  0  0  0  0  0  0
  -39.4370  -67.5300   50.8140 H   0  0  0  0  0  0  0  0  0  0  0  0
  -39.2940  -67.6490   48.9960 H   0  0  0  0  0  0  0  0  0  0  0  0
  -40.2840  -63.9770   49.3930 H   0  0  0  0  0  0  0  0  0  0  0  0
  -40.8220  -65.2320   48.2390 H   0  0  0  0  0  0  0  0  0  0  0  0
  -42.7110  -64.9110   49.5100 H   0  0  0  0  0  0  0  0  0  0  0  0
  -41.7920  -64.4490   50.9890 H   0  0  0  0  0  0  0  0  0  0  0  0
  -39.5780  -68.4990   51.8600 H   0  0  0  0  0  0  0  0  0  0  0  0
  -41.1620  -69.2210   51.4840 H   0  0  0  0  0  0  0  0  0  0  0  0
  -52.9520  -63.3950   52.9200 H   0  0  0  0  0  0  0  0  0  0  0  0
  2  1  1  0  0  0  0
  3 33  1  0  0  0  0
  3  2  2  0  0  0  0
  4  3  1  0  0  0  0
  5  4  2  0  0  0  0
  5  6  1  0  0  0  0
  6  7  2  0  0  0  0
  7  2  1  0  0  0  0
  7  8  1  0  0  0  0
  8 35  1  0  0  0  0
  9 36  1  0  0  0  0
  9  6  1  0  0  0  0
 10  9  2  0  0  0  0
 11 10  1  0  0  0  0
 11 12  1  0  0  0  0
 12 13  2  0  0  0  0
 12 14  1  0  0  0  0
 14 15  1  0  0  0  0
 15 16  2  0  0  0  0
 17 26  1  0  0  0  0
 17 16  1  0  0  0  0
 18 14  2  0  0  0  0
 18 17  1  0  0  0  0
 19 39  1  0  0  0  0
 19 18  1  0  0  0  0
 20 19  1  0  0  0  0
 21 40  1  0  0  0  0
 21 22  1  0  0  0  0
 21 20  1  0  0  0  0
 22 42  1  0  0  0  0
 23 22  1  0  0  0  0
 24 44  1  0  0  0  0
 24 23  1  0  0  0  0
 24 25  1  0  0  0  0
 25 20  1  0  0  0  0
 25 47  1  0  0  0  0
 26 27  2  0  0  0  0
 28 27  1  0  0  0  0
 29 28  1  0  0  0  0
 30 29  2  0  0  0  0
 30 26  1  0  0  0  0
 31 30  1  0  0  0  0
 32  4  1  0  0  0  0
 33 50  1  0  0  0  0
 34  5  1  0  0  0  0
 37 11  1  0  0  0  0
 38 19  1  0  0  0  0
 41 21  1  0  0  0  0
 43 22  1  0  0  0  0
 45 24  1  0  0  0  0
 46 25  1  0  0  0  0
 48 31  1  0  0  0  0
 49 31  1  0  0  0  0
M  END
>  <Pose>
1

>  <Score>
-8.01

$$$$
