
 OpenBabel03202209423D

 48 49  0  0  1  0  0  0  0  0999 V2000
  -41.5800  -68.4400   54.7740 Cl  0  0  0  0  0  0  0  0  0  0  0  0
  -42.5960  -67.3020   53.9020 C   0  0  0  0  0  0  0  0  0  0  0  0
  -43.8440  -66.9410   54.4030 C   0  0  0  0  0  0  0  0  0  0  0  0
  -44.6820  -66.0750   53.7420 C   0  0  0  0  0  0  0  0  0  0  0  0
  -44.2050  -65.5690   52.5270 C   0  0  0  0  0  0  0  0  0  0  0  0
  -42.9630  -65.9170   52.0100 C   0  0  0  0  0  0  0  0  0  0  0  0
  -42.1590  -66.7860   52.6990 C   0  0  0  0  0  0  0  0  0  0  0  0
  -45.9050  -65.6140   54.2960 N   0  0  0  0  0  4  0  0  0  0  0  0
  -46.8360  -66.6440   54.6860 C   0  0  0  0  0  0  0  0  0  0  0  0
  -48.1790  -66.3930   54.1430 C   0  0  2  0  0  0  0  0  0  0  0  0
  -48.0310  -65.1480   53.4440 N   0  0  0  0  0  0  0  0  0  0  0  0
  -48.9800  -64.1350   53.0490 C   0  0  0  0  0  0  0  0  0  0  0  0
  -49.0680  -63.8880   51.5770 C   0  0  0  0  0  0  0  0  0  0  0  0
  -48.0080  -64.5390   50.7590 C   0  0  0  0  0  0  0  0  0  0  0  0
  -46.6980  -63.7440   50.9560 C   0  0  0  0  0  0  0  0  0  0  0  0
  -46.0400  -64.4140   52.1500 C   0  0  0  0  0  0  0  0  0  0  0  0
  -46.6090  -64.9910   53.1840 C   0  0  0  0  0  0  0  0  0  0  0  0
  -49.0830  -66.1440   55.2140 O   0  0  0  0  0  0  0  0  0  0  0  0
  -48.7910  -67.4450   53.3690 C   0  0  0  0  0  0  0  0  0  0  0  0
  -49.3440  -67.2460   52.1040 C   0  0  0  0  0  0  0  0  0  0  0  0
  -49.9090  -68.2670   51.3530 C   0  0  0  0  0  0  0  0  0  0  0  0
  -49.9250  -69.5560   51.8850 C   0  0  0  0  0  0  0  0  0  0  0  0
  -49.3950  -69.7950   53.1200 C   0  0  0  0  0  0  0  0  0  0  0  0
  -48.8320  -68.7350   53.8490 C   0  0  0  0  0  0  0  0  0  0  0  0
  -50.4520  -67.9910   50.0770 N   0  0  0  0  0  0  0  0  0  0  0  0
  -49.8780  -68.4480   49.0390 O   0  0  0  0  0  0  0  0  0  0  0  0
  -51.5600  -67.2550   49.8850 O   0  0  0  0  0  0  0  0  0  0  0  0
  -44.1180  -67.4350   55.3500 H   0  0  0  0  0  0  0  0  0  0  0  0
  -44.8320  -64.8820   51.9850 H   0  0  0  0  0  0  0  0  0  0  0  0
  -42.6080  -65.5070   51.0470 H   0  0  0  0  0  0  0  0  0  0  0  0
  -41.2010  -67.0720   52.3180 H   0  0  0  0  0  0  0  0  0  0  0  0
  -45.7140  -64.8760   54.9640 H   0  0  0  0  0  0  0  0  0  0  0  0
  -46.3560  -67.6000   54.6180 H   0  0  0  0  0  0  0  0  0  0  0  0
  -46.9240  -66.4760   55.8240 H   0  0  0  0  0  0  0  0  0  0  0  0
  -49.9960  -64.2630   53.4640 H   0  0  0  0  0  0  0  0  0  0  0  0
  -48.6810  -63.1030   53.4650 H   0  0  0  0  0  0  0  0  0  0  0  0
  -49.1080  -62.8010   51.3330 H   0  0  0  0  0  0  0  0  0  0  0  0
  -50.0570  -64.2910   51.1670 H   0  0  0  0  0  0  0  0  0  0  0  0
  -47.8170  -65.6100   50.9760 H   0  0  0  0  0  0  0  0  0  0  0  0
  -48.2040  -64.4580   49.6530 H   0  0  0  0  0  0  0  0  0  0  0  0
  -46.9300  -62.7060   51.1610 H   0  0  0  0  0  0  0  0  0  0  0  0
  -46.0260  -63.9110   50.0880 H   0  0  0  0  0  0  0  0  0  0  0  0
  -44.9660  -64.3910   52.0930 H   0  0  0  0  0  0  0  0  0  0  0  0
  -48.7850  -65.2620   55.6150 H   0  0  0  0  0  0  0  0  0  0  0  0
  -49.3210  -66.2660   51.7170 H   0  0  0  0  0  0  0  0  0  0  0  0
  -50.3740  -70.3230   51.2630 H   0  0  0  0  0  0  0  0  0  0  0  0
  -49.4130  -70.8210   53.5360 H   0  0  0  0  0  0  0  0  0  0  0  0
  -48.4440  -69.0460   54.8150 H   0  0  0  0  0  0  0  0  0  0  0  0
  2  3  1  0  0  0  0
  2  1  1  0  0  0  0
  3 28  1  0  0  0  0
  4  8  1  0  0  0  0
  4  3  2  0  0  0  0
  5  4  1  0  0  0  0
  6  5  2  0  0  0  0
  6  7  1  0  0  0  0
  7  2  2  0  0  0  0
  8  9  1  0  0  0  0
  8 32  1  0  0  0  0
  9 34  1  0  0  0  0
 10  9  1  0  0  0  0
 10 18  1  1  0  0  0
 11 10  1  0  0  0  0
 12 11  1  0  0  0  0
 12 35  1  0  0  0  0
 12 36  1  0  0  0  0
 13 12  1  0  0  0  0
 14 15  1  0  0  0  0
 14 39  1  0  0  0  0
 14 13  1  0  0  0  0
 15 41  1  0  0  0  0
 17 11  1  0  0  0  0
 17  8  1  0  0  0  0
 18 44  1  0  0  0  0
 19 24  1  0  0  0  0
 19 10  1  0  0  0  0
 20 19  2  0  0  0  0
 21 22  2  0  0  0  0
 21 20  1  0  0  0  0
 22 23  1  0  0  0  0
 23 47  1  0  0  0  0
 23 24  2  0  0  0  0
 24 48  1  0  0  0  0
 25 21  1  0  0  0  0
 26 25  2  0  0  0  0
 27 25  2  0  0  0  0
 29  5  1  0  0  0  0
 30  6  1  0  0  0  0
 31  7  1  0  0  0  0
 33  9  1  0  0  0  0
 37 13  1  0  0  0  0
 38 13  1  0  0  0  0
 40 14  1  0  0  0  0
 42 15  1  0  0  0  0
 43 16  1  0  0  0  0
 45 20  1  0  0  0  0
 46 22  1  0  0  0  0
M  END
>  <Pose>
1

>  <Score>
-4.52

$$$$
