
 OpenBabel03202209423D

 53 56  0  0  1  0  0  0  0  0999 V2000
  -50.9360  -66.7010   54.2820 B   0  0  0  0  0  0  0  0  0  0  0  0
  -49.0190  -66.8070   54.1720 C   0  0  0  0  0  0  0  0  0  0  0  0
  -48.2460  -67.0400   55.2860 C   0  0  0  0  0  0  0  0  0  0  0  0
  -46.8820  -67.1240   55.2660 C   0  0  0  0  0  0  0  0  0  0  0  0
  -46.2320  -66.9660   54.0560 C   0  0  0  0  0  0  0  0  0  0  0  0
  -46.9810  -66.7330   52.9260 C   0  0  0  0  0  0  0  0  0  0  0  0
  -48.3770  -66.6490   52.9610 C   0  0  0  0  0  0  0  0  0  0  0  0
  -44.7820  -67.0710   53.9430 C   0  0  0  0  0  0  0  0  0  0  0  0
  -44.0770  -66.1450   53.3260 C   0  0  0  0  0  0  0  0  0  0  0  0
  -42.5980  -66.0640   53.0970 C   0  0  2  0  0  0  0  0  0  0  0  0
  -42.5310  -65.5950   51.7610 N   0  0  0  0  0  0  0  0  0  0  0  0
  -43.5410  -64.5420   51.7160 C   0  0  0  0  0  0  0  0  0  0  0  0
  -43.5630  -63.5290   50.9690 O   0  0  0  0  0  0  0  0  0  0  0  0
  -44.5370  -64.8950   52.7210 C   0  0  0  0  0  0  0  0  0  0  0  0
  -45.6100  -64.2950   53.0620 O   0  0  0  0  0  0  0  0  0  0  0  0
  -41.6980  -65.9050   50.6150 C   0  0  0  0  0  0  0  0  0  0  0  0
  -40.7650  -64.8580   50.1460 C   0  0  0  0  0  0  0  0  0  0  0  0
  -40.4820  -64.9070   48.7070 N   0  0  0  0  0  4  0  0  0  0  0  0
  -39.6230  -66.0020   48.4100 C   0  0  0  0  0  0  0  0  0  0  0  0
  -38.2690  -65.6670   47.8880 C   0  0  0  0  0  0  0  0  0  0  0  0
  -38.1720  -64.4710   47.2030 O   0  0  0  0  0  0  0  0  0  0  0  0
  -38.5360  -63.4820   48.1440 C   0  0  0  0  0  0  0  0  0  0  0  0
  -40.0070  -63.6100   48.3240 C   0  0  0  0  0  0  0  0  0  0  0  0
  -41.8640  -67.1920   53.5650 C   0  0  0  0  0  0  0  0  0  0  0  0
  -40.9960  -67.8280   52.7110 C   0  0  0  0  0  0  0  0  0  0  0  0
  -40.2420  -68.9110   53.0930 C   0  0  0  0  0  0  0  0  0  0  0  0
  -40.3310  -69.4100   54.3840 C   0  0  0  0  0  0  0  0  0  0  0  0
  -41.2080  -68.7570   55.2270 C   0  0  0  0  0  0  0  0  0  0  0  0
  -41.9610  -67.6720   54.8360 C   0  0  0  0  0  0  0  0  0  0  0  0
  -39.3770  -70.7850   54.8830 Cl  0  0  0  0  0  0  0  0  0  0  0  0
  -44.1920  -68.1840   54.5160 O   0  0  0  0  0  0  0  0  0  0  0  0
  -48.7690  -67.1600   56.2220 H   0  0  0  0  0  0  0  0  0  0  0  0
  -46.2600  -67.3060   56.1300 H   0  0  0  0  0  0  0  0  0  0  0  0
  -46.5270  -66.6180   51.9390 H   0  0  0  0  0  0  0  0  0  0  0  0
  -48.9350  -66.4610   52.0410 H   0  0  0  0  0  0  0  0  0  0  0  0
  -42.3060  -65.1580   53.7280 H   0  0  0  0  0  0  0  0  0  0  0  0
  -41.0440  -66.8060   50.8540 H   0  0  0  0  0  0  0  0  0  0  0  0
  -42.3300  -66.3280   49.7750 H   0  0  0  0  0  0  0  0  0  0  0  0
  -39.7910  -64.7920   50.6270 H   0  0  0  0  0  0  0  0  0  0  0  0
  -41.3410  -63.8770   50.2750 H   0  0  0  0  0  0  0  0  0  0  0  0
  -41.4370  -65.0530   48.2560 H   0  0  0  0  0  0  0  0  0  0  0  0
  -39.5400  -66.6830   49.3090 H   0  0  0  0  0  0  0  0  0  0  0  0
  -40.1210  -66.6270   47.6100 H   0  0  0  0  0  0  0  0  0  0  0  0
  -37.5660  -65.5730   48.7670 H   0  0  0  0  0  0  0  0  0  0  0  0
  -37.8350  -66.4480   47.2370 H   0  0  0  0  0  0  0  0  0  0  0  0
  -37.9670  -63.5740   49.0800 H   0  0  0  0  0  0  0  0  0  0  0  0
  -38.2930  -62.5010   47.7100 H   0  0  0  0  0  0  0  0  0  0  0  0
  -40.3440  -62.8100   49.0320 H   0  0  0  0  0  0  0  0  0  0  0  0
  -40.4790  -63.3360   47.3390 H   0  0  0  0  0  0  0  0  0  0  0  0
  -40.8740  -67.4820   51.6600 H   0  0  0  0  0  0  0  0  0  0  0  0
  -39.5610  -69.4080   52.4170 H   0  0  0  0  0  0  0  0  0  0  0  0
  -41.2630  -69.1660   56.2390 H   0  0  0  0  0  0  0  0  0  0  0  0
  -42.6000  -67.2410   55.6000 H   0  0  0  0  0  0  0  0  0  0  0  0
  2  1  1  0  0  0  0
  2  3  1  0  0  0  0
  3 32  1  0  0  0  0
  4  3  2  0  0  0  0
  4 33  1  0  0  0  0
  5  4  1  0  0  0  0
  6  7  1  0  0  0  0
  6  5  2  0  0  0  0
  7  2  2  0  0  0  0
  8  5  1  0  0  0  0
  8 31  1  0  0  0  0
  9  8  2  0  0  0  0
 10  9  1  0  0  0  0
 10 24  1  0  0  0  0
 10 36  1  1  0  0  0
 11 10  1  0  0  0  0
 12 11  1  0  0  0  0
 12 14  1  0  0  0  0
 13 12  2  0  0  0  0
 14 15  2  0  0  0  0
 14  9  1  0  0  0  0
 16 37  1  0  0  0  0
 16 11  1  0  0  0  0
 17 40  1  0  0  0  0
 17 16  1  0  0  0  0
 17 39  1  0  0  0  0
 18 17  1  0  0  0  0
 19 18  1  0  0  0  0
 19 42  1  0  0  0  0
 20 19  1  0  0  0  0
 20 44  1  0  0  0  0
 21 20  1  0  0  0  0
 21 22  1  0  0  0  0
 22 23  1  0  0  0  0
 22 46  1  0  0  0  0
 23 18  1  0  0  0  0
 23 48  1  0  0  0  0
 24 29  1  0  0  0  0
 25 26  1  0  0  0  0
 25 24  2  0  0  0  0
 26 27  2  0  0  0  0
 27 30  1  0  0  0  0
 27 28  1  0  0  0  0
 28 52  1  0  0  0  0
 29 28  2  0  0  0  0
 29 53  1  0  0  0  0
 34  6  1  0  0  0  0
 35  7  1  0  0  0  0
 38 16  1  0  0  0  0
 41 18  1  0  0  0  0
 43 19  1  0  0  0  0
 45 20  1  0  0  0  0
 47 22  1  0  0  0  0
 49 23  1  0  0  0  0
 50 25  1  0  0  0  0
 51 26  1  0  0  0  0
M  END
>  <Pose>
1

>  <Score>
-5.64

$$$$
