
 OpenBabel03202209423D

 49 52  0  0  0  0  0  0  0  0999 V2000
  -37.1110  -71.0450   52.4810 Cl  0  0  0  0  0  0  0  0  0  0  0  0
  -38.5170  -70.1060   52.9620 C   0  0  0  0  0  0  0  0  0  0  0  0
  -39.0940  -70.3670   54.1740 C   0  0  0  0  0  0  0  0  0  0  0  0
  -40.2100  -69.6180   54.5610 C   0  0  0  0  0  0  0  0  0  0  0  0
  -40.6930  -68.6530   53.7270 C   0  0  0  0  0  0  0  0  0  0  0  0
  -40.1250  -68.3910   52.5270 C   0  0  0  0  0  0  0  0  0  0  0  0
  -38.9990  -69.1400   52.1290 C   0  0  0  0  0  0  0  0  0  0  0  0
  -41.8900  -67.8590   54.1570 C   0  0  0  0  0  0  0  0  0  0  0  0
  -42.4340  -68.2550   55.2200 O   0  0  0  0  0  0  0  0  0  0  0  0
  -42.2670  -66.8150   53.3810 N   0  0  0  0  0  0  0  0  0  0  0  0
  -42.6470  -65.7580   52.5960 C   0  0  0  0  0  0  0  0  0  0  0  0
  -43.9080  -65.0880   52.9080 C   0  0  0  0  0  0  0  0  0  0  0  0
  -43.8850  -63.7890   52.7180 O   0  0  0  0  0  0  0  0  0  0  0  0
  -45.1250  -65.5720   53.3670 N   0  0  0  0  0  0  0  0  0  0  0  0
  -46.3830  -64.9390   53.1420 C   0  0  0  0  0  0  0  0  0  0  0  0
  -47.4200  -65.5960   54.0810 C   0  0  0  0  0  0  0  0  0  0  0  0
  -47.6180  -67.0120   53.5750 C   0  0  0  0  0  0  0  0  0  0  0  0
  -48.1040  -66.9700   52.2570 N   0  0  0  0  0  0  0  0  0  0  0  0
  -49.4740  -66.8390   52.0020 C   0  0  0  0  0  0  0  0  0  0  0  0
  -50.4130  -67.5350   52.9140 C   0  0  0  0  0  0  0  0  0  0  0  0
  -49.8030  -67.9480   54.1950 C   0  0  0  0  0  0  0  0  0  0  0  0
  -50.3870  -68.5970   55.2210 N   0  0  0  0  0  0  0  0  0  0  0  0
  -49.4710  -68.7680   56.1790 C   0  0  0  0  0  0  0  0  0  0  0  0
  -48.3080  -68.2240   55.7530 N   0  0  0  0  0  0  0  0  0  0  0  0
  -48.4970  -67.7100   54.5240 C   0  0  0  0  0  0  0  0  0  0  0  0
  -46.2350  -67.6850   53.5350 C   0  0  0  0  0  0  0  0  0  0  0  0
  -45.1680  -66.8190   54.1460 C   0  0  0  0  0  0  0  0  0  0  0  0
  -38.7150  -71.1280   54.8330 H   0  0  0  0  0  0  0  0  0  0  0  0
  -40.6990  -69.7910   55.5040 H   0  0  0  0  0  0  0  0  0  0  0  0
  -40.4760  -67.6330   51.8370 H   0  0  0  0  0  0  0  0  0  0  0  0
  -38.5370  -68.9420   51.1730 H   0  0  0  0  0  0  0  0  0  0  0  0
  -40.9520  -66.4580   53.1820 H   0  0  0  0  0  0  0  0  0  0  0  0
  -42.7180  -66.0930   51.4880 H   0  0  0  0  0  0  0  0  0  0  0  0
  -41.8350  -64.9440   52.4820 H   0  0  0  0  0  0  0  0  0  0  0  0
  -46.7500  -65.0650   52.1280 H   0  0  0  0  0  0  0  0  0  0  0  0
  -46.2830  -63.8590   53.4510 H   0  0  0  0  0  0  0  0  0  0  0  0
  -48.3630  -65.0190   53.9960 H   0  0  0  0  0  0  0  0  0  0  0  0
  -47.0230  -65.5480   55.0900 H   0  0  0  0  0  0  0  0  0  0  0  0
  -47.4510  -66.8630   51.4900 H   0  0  0  0  0  0  0  0  0  0  0  0
  -49.6610  -67.2550   50.9640 H   0  0  0  0  0  0  0  0  0  0  0  0
  -49.7310  -65.7450   51.8880 H   0  0  0  0  0  0  0  0  0  0  0  0
  -50.8340  -68.4720   52.4430 H   0  0  0  0  0  0  0  0  0  0  0  0
  -51.3210  -66.8930   53.0680 H   0  0  0  0  0  0  0  0  0  0  0  0
  -49.6210  -69.2590   57.1330 H   0  0  0  0  0  0  0  0  0  0  0  0
  -47.4230  -68.2080   56.2920 H   0  0  0  0  0  0  0  0  0  0  0  0
  -46.2600  -68.6750   54.0450 H   0  0  0  0  0  0  0  0  0  0  0  0
  -45.9250  -67.8940   52.4750 H   0  0  0  0  0  0  0  0  0  0  0  0
  -44.2050  -67.3840   54.0230 H   0  0  0  0  0  0  0  0  0  0  0  0
  -45.3140  -66.6150   55.2090 H   0  0  0  0  0  0  0  0  0  0  0  0
  1  2  1  0  0  0  0
  2  3  1  0  0  0  0
  3  4  2  0  0  0  0
  3 28  1  0  0  0  0
  4 29  1  0  0  0  0
  5  8  1  0  0  0  0
  5  4  1  0  0  0  0
  6  5  2  0  0  0  0
  7  6  1  0  0  0  0
  7  2  2  0  0  0  0
  8  9  2  0  0  0  0
 10  8  1  0  0  0  0
 11 12  1  0  0  0  0
 11 10  1  0  0  0  0
 12 14  1  0  0  0  0
 13 12  2  0  0  0  0
 14 27  1  0  0  0  0
 15 14  1  0  0  0  0
 15 36  1  0  0  0  0
 15 16  1  0  0  0  0
 16 38  1  0  0  0  0
 17 16  1  0  0  0  0
 17 25  1  0  0  0  0
 18 17  1  0  0  0  0
 19 18  1  0  0  0  0
 19 20  1  0  0  0  0
 20 43  1  0  0  0  0
 20 21  1  0  0  0  0
 21 25  2  0  0  0  0
 21 22  1  0  0  0  0
 22 23  2  0  0  0  0
 23 44  1  0  0  0  0
 24 23  1  0  0  0  0
 24 45  1  0  0  0  0
 25 24  1  0  0  0  0
 26 17  1  0  0  0  0
 26 46  1  0  0  0  0
 26 27  1  0  0  0  0
 27 49  1  0  0  0  0
 30  6  1  0  0  0  0
 31  7  1  0  0  0  0
 32 10  1  0  0  0  0
 33 11  1  0  0  0  0
 34 11  1  0  0  0  0
 35 15  1  0  0  0  0
 37 16  1  0  0  0  0
 39 18  1  0  0  0  0
 40 19  1  0  0  0  0
 41 19  1  0  0  0  0
 42 20  1  0  0  0  0
 47 26  1  0  0  0  0
 48 27  1  0  0  0  0
M  END
>  <Pose>
1

>  <Score>
-6.31

$$$$
