
 OpenBabel03202209423D

 41 42  0  0  1  0  0  0  0  0999 V2000
  -47.9290  -67.2240   54.8970 Cl  0  0  0  0  0  0  0  0  0  0  0  0
  -46.7460  -66.2980   53.9970 C   0  0  0  0  0  0  0  0  0  0  0  0
  -45.4220  -66.6620   54.0480 C   0  0  0  0  0  0  0  0  0  0  0  0
  -44.7350  -67.6350   54.6690 N   0  0  0  0  0  0  0  0  0  0  0  0
  -43.4190  -67.5640   54.3920 C   0  0  0  0  0  0  0  0  0  0  0  0
  -43.2770  -66.4820   53.5500 C   0  0  0  0  0  0  0  0  0  0  0  0
  -44.5110  -65.9090   53.3270 C   0  0  0  0  0  0  0  0  0  0  0  0
  -44.9560  -64.8320   52.5870 C   0  0  0  0  0  0  0  0  0  0  0  0
  -46.2720  -64.4490   52.5190 C   0  0  0  0  0  0  0  0  0  0  0  0
  -47.1850  -65.2070   53.2460 C   0  0  0  0  0  0  0  0  0  0  0  0
  -41.8930  -66.1970   53.0970 C   0  0  0  0  0  0  0  0  0  0  0  0
  -41.4030  -67.4600   52.5930 N   0  0  0  0  0  0  0  0  0  0  0  0
  -41.2270  -68.4610   53.5720 C   0  0  0  0  0  0  0  0  0  0  0  0
  -42.1770  -68.2890   54.7350 C   0  0  0  0  0  0  0  0  0  0  0  0
  -40.4740  -67.3600   51.5500 C   0  0  0  0  0  0  0  0  0  0  0  0
  -40.8910  -66.3990   50.4780 C   0  0  1  0  0  0  0  0  0  0  0  0
  -41.4690  -65.1320   51.0060 C   0  0  0  0  0  0  0  0  0  0  0  0
  -40.7510  -64.0120   50.5030 N   0  0  0  0  0  0  0  0  0  0  0  0
  -39.6650  -64.4710   49.7000 C   0  0  0  0  0  0  0  0  0  0  0  0
  -39.6640  -65.9620   49.7240 C   0  0  0  0  0  0  0  0  0  0  0  0
  -41.7360  -67.0180   49.5480 O   0  0  0  0  0  0  0  0  0  0  0  0
  -45.1330  -68.3840   55.3020 H   0  0  0  0  0  0  0  0  0  0  0  0
  -44.2260  -64.2650   52.0350 H   0  0  0  0  0  0  0  0  0  0  0  0
  -46.6160  -63.6010   51.9360 H   0  0  0  0  0  0  0  0  0  0  0  0
  -48.2270  -64.9200   53.2050 H   0  0  0  0  0  0  0  0  0  0  0  0
  -41.3300  -65.8790   54.0210 H   0  0  0  0  0  0  0  0  0  0  0  0
  -41.8340  -65.4640   52.2950 H   0  0  0  0  0  0  0  0  0  0  0  0
  -41.4500  -69.4830   53.1530 H   0  0  0  0  0  0  0  0  0  0  0  0
  -40.1980  -68.4780   54.0150 H   0  0  0  0  0  0  0  0  0  0  0  0
  -42.4560  -69.2830   55.1460 H   0  0  0  0  0  0  0  0  0  0  0  0
  -41.6700  -67.7600   55.5820 H   0  0  0  0  0  0  0  0  0  0  0  0
  -40.1900  -68.3150   51.0640 H   0  0  0  0  0  0  0  0  0  0  0  0
  -39.5050  -66.9580   51.9730 H   0  0  0  0  0  0  0  0  0  0  0  0
  -42.5710  -65.0400   50.8660 H   0  0  0  0  0  0  0  0  0  0  0  0
  -41.3250  -65.1390   52.1260 H   0  0  0  0  0  0  0  0  0  0  0  0
  -41.3510  -63.3110   50.0070 H   0  0  0  0  0  0  0  0  0  0  0  0
  -39.7150  -64.0430   48.6790 H   0  0  0  0  0  0  0  0  0  0  0  0
  -38.6810  -64.1340   50.1210 H   0  0  0  0  0  0  0  0  0  0  0  0
  -39.6950  -66.2980   48.6500 H   0  0  0  0  0  0  0  0  0  0  0  0
  -38.7390  -66.3910   50.1770 H   0  0  0  0  0  0  0  0  0  0  0  0
  -42.6350  -66.6220   49.6940 H   0  0  0  0  0  0  0  0  0  0  0  0
  2  3  1  0  0  0  0
  2  1  1  0  0  0  0
  3  4  1  0  0  0  0
  4 22  1  0  0  0  0
  5  4  1  0  0  0  0
  5 14  1  0  0  0  0
  6  5  2  0  0  0  0
  7  6  1  0  0  0  0
  7  3  2  0  0  0  0
  8  7  1  0  0  0  0
  9  8  2  0  0  0  0
  9 10  1  0  0  0  0
 10  2  2  0  0  0  0
 11  6  1  0  0  0  0
 11 26  1  0  0  0  0
 12 11  1  0  0  0  0
 12 13  1  0  0  0  0
 13 29  1  0  0  0  0
 13 14  1  0  0  0  0
 14 30  1  0  0  0  0
 14 31  1  0  0  0  0
 15 33  1  0  0  0  0
 15 12  1  0  0  0  0
 16 21  1  6  0  0  0
 16 15  1  0  0  0  0
 17 35  1  0  0  0  0
 19 20  1  0  0  0  0
 19 38  1  0  0  0  0
 19 18  1  0  0  0  0
 20 40  1  0  0  0  0
 20 16  1  0  0  0  0
 21 41  1  0  0  0  0
 23  8  1  0  0  0  0
 24  9  1  0  0  0  0
 25 10  1  0  0  0  0
 27 11  1  0  0  0  0
 28 13  1  0  0  0  0
 32 15  1  0  0  0  0
 34 17  1  0  0  0  0
 36 18  1  0  0  0  0
 37 19  1  0  0  0  0
 39 20  1  0  0  0  0
M  END
>  <Pose>
1

>  <Score>
-5.41

$$$$
