
 OpenBabel03202209423D

 43 46  0  0  0  0  0  0  0  0999 V2000
  -37.9850  -69.1220   51.1760 B   0  0  0  0  0  0  0  0  0  0  0  0
  -39.1220  -69.3930   52.6830 C   0  0  0  0  0  0  0  0  0  0  0  0
  -40.2760  -68.6120   52.8470 C   0  0  0  0  0  0  0  0  0  0  0  0
  -41.0870  -68.8170   53.9360 C   0  0  0  0  0  0  0  0  0  0  0  0
  -40.7460  -69.7850   54.8440 C   0  0  0  0  0  0  0  0  0  0  0  0
  -39.5970  -70.5700   54.6890 C   0  0  0  0  0  0  0  0  0  0  0  0
  -38.7920  -70.3580   53.5960 C   0  0  0  0  0  0  0  0  0  0  0  0
  -42.2570  -68.0390   54.1200 N   0  0  0  0  0  0  0  0  0  0  0  0
  -42.4330  -67.0870   55.0420 N   0  0  0  0  0  0  0  0  0  0  0  0
  -43.6330  -66.5620   54.9390 N   0  0  0  0  0  0  0  0  0  0  0  0
  -44.2920  -67.1600   53.9350 C   0  0  0  0  0  0  0  0  0  0  0  0
  -43.4090  -68.0860   53.4310 C   0  0  0  0  0  0  0  0  0  0  0  0
  -45.6700  -66.8830   53.4670 C   0  0  0  0  0  0  0  0  0  0  0  0
  -46.4730  -67.8790   53.5290 O   0  0  0  0  0  0  0  0  0  0  0  0
  -46.1060  -65.6480   52.9870 N   0  0  0  0  0  0  0  0  0  0  0  0
  -45.2090  -64.8230   52.2260 C   0  0  0  0  0  0  0  0  0  0  0  0
  -45.7280  -64.7300   50.8170 C   0  0  0  0  0  0  0  0  0  0  0  0
  -47.1420  -64.4880   50.8440 N   0  0  0  0  0  0  0  0  0  0  0  0
  -47.6840  -64.0250   52.1360 C   0  0  0  0  0  0  0  0  0  0  0  0
  -47.4260  -65.0930   53.1900 C   0  0  0  0  0  0  0  0  0  0  0  0
  -48.0570  -64.6460   49.8030 C   0  0  0  0  0  0  0  0  0  0  0  0
  -49.1420  -65.2840   50.1190 O   0  0  0  0  0  0  0  0  0  0  0  0
  -47.9930  -64.2090   48.4130 C   0  0  0  0  0  0  0  0  0  0  0  0
  -46.7520  -64.0200   47.6620 C   0  0  0  0  0  0  0  0  0  0  0  0
  -47.7430  -65.1100   47.2610 C   0  0  0  0  0  0  0  0  0  0  0  0
  -40.4690  -67.8720   52.0840 H   0  0  0  0  0  0  0  0  0  0  0  0
  -41.3370  -69.9990   55.7200 H   0  0  0  0  0  0  0  0  0  0  0  0
  -39.3230  -71.3320   55.3990 H   0  0  0  0  0  0  0  0  0  0  0  0
  -37.8920  -70.9670   53.4690 H   0  0  0  0  0  0  0  0  0  0  0  0
  -43.6170  -68.7500   52.6070 H   0  0  0  0  0  0  0  0  0  0  0  0
  -44.1570  -65.1580   52.2780 H   0  0  0  0  0  0  0  0  0  0  0  0
  -45.2200  -63.8220   52.7170 H   0  0  0  0  0  0  0  0  0  0  0  0
  -45.1810  -63.9310   50.2470 H   0  0  0  0  0  0  0  0  0  0  0  0
  -45.5620  -65.6880   50.2860 H   0  0  0  0  0  0  0  0  0  0  0  0
  -47.2020  -63.0640   52.3480 H   0  0  0  0  0  0  0  0  0  0  0  0
  -48.7660  -63.9340   52.0210 H   0  0  0  0  0  0  0  0  0  0  0  0
  -48.1770  -65.8830   53.1610 H   0  0  0  0  0  0  0  0  0  0  0  0
  -47.4420  -64.6010   54.1700 H   0  0  0  0  0  0  0  0  0  0  0  0
  -48.8200  -63.4510   48.1310 H   0  0  0  0  0  0  0  0  0  0  0  0
  -46.6720  -63.1550   46.9240 H   0  0  0  0  0  0  0  0  0  0  0  0
  -45.7530  -64.3520   47.9790 H   0  0  0  0  0  0  0  0  0  0  0  0
  -47.4580  -66.1470   47.3160 H   0  0  0  0  0  0  0  0  0  0  0  0
  -48.2940  -64.9010   46.2910 H   0  0  0  0  0  0  0  0  0  0  0  0
  1  2  1  0  0  0  0
  2  3  2  0  0  0  0
  2  7  1  0  0  0  0
  3  4  1  0  0  0  0
  4  8  1  0  0  0  0
  4  5  2  0  0  0  0
  5 27  1  0  0  0  0
  6  5  1  0  0  0  0
  6 28  1  0  0  0  0
  7  6  2  0  0  0  0
  8  9  1  0  0  0  0
 10  9  2  0  0  0  0
 11 10  1  0  0  0  0
 12 11  2  0  0  0  0
 12  8  1  0  0  0  0
 13 14  2  0  0  0  0
 13 11  1  0  0  0  0
 15 20  1  0  0  0  0
 15 13  1  0  0  0  0
 16 31  1  0  0  0  0
 16 32  1  0  0  0  0
 16 15  1  0  0  0  0
 17 18  1  0  0  0  0
 17 16  1  0  0  0  0
 18 19  1  0  0  0  0
 19 35  1  0  0  0  0
 19 20  1  0  0  0  0
 20 38  1  0  0  0  0
 21 22  2  0  0  0  0
 21 18  1  0  0  0  0
 23 21  1  0  0  0  0
 24 41  1  0  0  0  0
 24 23  1  0  0  0  0
 25 42  1  0  0  0  0
 25 24  1  0  0  0  0
 25 23  1  0  0  0  0
 26  3  1  0  0  0  0
 29  7  1  0  0  0  0
 30 12  1  0  0  0  0
 33 17  1  0  0  0  0
 34 17  1  0  0  0  0
 36 19  1  0  0  0  0
 37 20  1  0  0  0  0
 39 23  1  0  0  0  0
 40 24  1  0  0  0  0
 43 25  1  0  0  0  0
M  END
>  <Pose>
1

>  <Score>
-5.19

$$$$
