
 OpenBabel03202209423D

 44 47  0  0  1  0  0  0  0  0999 V2000
  -39.6400  -70.1140   54.6520 Cl  0  0  0  0  0  0  0  0  0  0  0  0
  -39.9220  -69.0000   53.3520 C   0  0  0  0  0  0  0  0  0  0  0  0
  -39.0560  -68.9260   52.2940 C   0  0  0  0  0  0  0  0  0  0  0  0
  -39.3290  -68.0240   51.2940 C   0  0  0  0  0  0  0  0  0  0  0  0
  -40.4410  -67.2260   51.3580 C   0  0  0  0  0  0  0  0  0  0  0  0
  -41.3470  -67.2760   52.4220 C   0  0  0  0  0  0  0  0  0  0  0  0
  -41.0590  -68.1700   53.4000 C   0  0  0  0  0  0  0  0  0  0  0  0
  -42.5070  -66.3840   52.4470 C   0  0  0  0  0  0  0  0  0  0  0  0
  -43.6330  -66.4340   53.1760 N   0  0  0  0  0  0  0  0  0  0  0  0
  -44.4240  -65.3890   52.8560 C   0  0  2  0  0  0  0  0  0  0  0  0
  -43.7960  -64.6670   51.9110 N   0  0  0  0  0  0  0  0  0  0  0  0
  -42.5980  -65.2500   51.6240 C   0  0  0  0  0  0  0  0  0  0  0  0
  -44.2690  -63.4660   51.3280 C   0  0  0  0  0  0  0  0  0  0  0  0
  -44.6130  -63.3420   49.9410 C   0  0  2  0  0  0  0  0  0  0  0  0
  -45.7760  -63.9010   49.6730 O   0  0  0  0  0  0  0  0  0  0  0  0
  -43.9440  -62.7380   48.8130 C   0  0  0  0  0  0  0  0  0  0  0  0
  -43.0280  -63.3660   48.0120 C   0  0  0  0  0  0  0  0  0  0  0  0
  -42.4210  -62.7160   46.9340 C   0  0  0  0  0  0  0  0  0  0  0  0
  -42.7310  -61.4250   46.6520 C   0  0  0  0  0  0  0  0  0  0  0  0
  -43.6500  -60.7680   47.4420 C   0  0  0  0  0  0  0  0  0  0  0  0
  -44.2510  -61.3940   48.4990 C   0  0  0  0  0  0  0  0  0  0  0  0
  -41.4730  -63.4280   46.1370 N   0  0  0  0  0  0  0  0  0  0  0  0
  -40.5140  -63.9960   46.6890 O   0  0  0  0  0  0  0  0  0  0  0  0
  -41.5840  -63.5060   44.7860 O   0  0  0  0  0  0  0  0  0  0  0  0
  -45.6660  -65.4260   53.6630 C   0  0  0  0  0  0  0  0  0  0  0  0
  -45.7880  -66.9140   53.8710 C   0  0  0  0  0  0  0  0  0  0  0  0
  -44.3190  -67.2350   54.1970 C   0  0  0  0  0  0  0  0  0  0  0  0
  -37.6330  -69.9410   52.2010 Cl  0  0  0  0  0  0  0  0  0  0  0  0
  -38.6610  -67.9340   50.4300 H   0  0  0  0  0  0  0  0  0  0  0  0
  -40.6270  -66.5340   50.5600 H   0  0  0  0  0  0  0  0  0  0  0  0
  -41.6920  -68.2650   54.2550 H   0  0  0  0  0  0  0  0  0  0  0  0
  -41.8850  -64.9010   50.9150 H   0  0  0  0  0  0  0  0  0  0  0  0
  -43.5230  -62.6190   51.5480 H   0  0  0  0  0  0  0  0  0  0  0  0
  -45.1990  -63.1370   51.9160 H   0  0  0  0  0  0  0  0  0  0  0  0
  -42.7430  -64.3900   48.1910 H   0  0  0  0  0  0  0  0  0  0  0  0
  -42.2410  -60.9340   45.7980 H   0  0  0  0  0  0  0  0  0  0  0  0
  -43.9010  -59.7220   47.2110 H   0  0  0  0  0  0  0  0  0  0  0  0
  -44.9720  -60.8320   49.0950 H   0  0  0  0  0  0  0  0  0  0  0  0
  -45.4720  -64.9050   54.6290 H   0  0  0  0  0  0  0  0  0  0  0  0
  -46.5430  -65.0130   53.1320 H   0  0  0  0  0  0  0  0  0  0  0  0
  -45.9730  -67.3730   52.8840 H   0  0  0  0  0  0  0  0  0  0  0  0
  -46.4620  -67.2130   54.6570 H   0  0  0  0  0  0  0  0  0  0  0  0
  -44.1020  -66.8040   55.1680 H   0  0  0  0  0  0  0  0  0  0  0  0
  -44.1550  -68.3210   54.0840 H   0  0  0  0  0  0  0  0  0  0  0  0
  2  7  1  0  0  0  0
  2  1  1  0  0  0  0
  3  2  2  0  0  0  0
  4  5  2  0  0  0  0
  4  3  1  0  0  0  0
  5  6  1  0  0  0  0
  6  8  1  0  0  0  0
  6  7  2  0  0  0  0
  7 31  1  0  0  0  0
  8  9  1  0  0  0  0
  9 27  1  0  0  0  0
 10 11  1  1  0  0  0
 10  9  1  0  0  0  0
 10 25  1  0  0  0  0
 12 11  1  0  0  0  0
 12  8  2  0  0  0  0
 13 33  1  0  0  0  0
 13 11  1  0  0  0  0
 13 34  1  0  0  0  0
 14 15  1  6  0  0  0
 14 13  1  0  0  0  0
 16 14  1  0  0  0  0
 17 35  1  0  0  0  0
 17 16  2  0  0  0  0
 18 17  1  0  0  0  0
 19 18  2  0  0  0  0
 19 20  1  0  0  0  0
 20 21  2  0  0  0  0
 21 16  1  0  0  0  0
 21 38  1  0  0  0  0
 22 23  2  0  0  0  0
 22 18  1  0  0  0  0
 24 22  2  0  0  0  0
 25 26  1  0  0  0  0
 25 39  1  0  0  0  0
 26 27  1  0  0  0  0
 26 42  1  0  0  0  0
 27 43  1  0  0  0  0
 28  3  1  0  0  0  0
 29  4  1  0  0  0  0
 30  5  1  0  0  0  0
 32 12  1  0  0  0  0
 36 19  1  0  0  0  0
 37 20  1  0  0  0  0
 40 25  1  0  0  0  0
 41 26  1  0  0  0  0
 44 27  1  0  0  0  0
M  END
>  <Pose>
1

>  <Score>
-6.56

$$$$
