
 OpenBabel03202209423D

 55 58  0  0  0  0  0  0  0  0999 V2000
  -43.3050  -66.8560   54.1010 S   0  0  0  0  0  0  0  0  0  0  0  0
  -42.8370  -65.5380   54.7270 O   0  0  0  0  0  0  0  0  0  0  0  0
  -43.2540  -67.8350   55.2760 O   0  0  0  0  0  0  0  0  0  0  0  0
  -42.2040  -67.3050   52.9530 N   0  0  0  0  0  0  0  0  0  0  0  0
  -40.8940  -66.8430   52.8940 C   0  0  0  0  0  0  0  0  0  0  0  0
  -40.6440  -65.6370   52.0470 C   0  0  0  0  0  0  0  0  0  0  0  0
  -41.7590  -65.5180   51.0100 C   0  0  0  0  0  0  0  0  0  0  0  0
  -41.9700  -66.9670   50.5420 C   0  0  0  0  0  0  0  0  0  0  0  0
  -42.7760  -67.6260   51.6510 C   0  0  0  0  0  0  0  0  0  0  0  0
  -41.3980  -64.6400   49.9100 C   0  0  0  0  0  0  0  0  0  0  0  0
  -42.1690  -63.6990   49.5870 O   0  0  0  0  0  0  0  0  0  0  0  0
  -40.2070  -64.8100   49.1960 N   0  0  0  0  0  0  0  0  0  0  0  0
  -39.2090  -63.7460   49.0420 C   0  0  0  0  0  0  0  0  0  0  0  0
  -38.1910  -64.2580   48.0440 C   0  0  0  0  0  0  0  0  0  0  0  0
  -37.5290  -65.4400   48.5610 N   0  0  0  0  0  0  0  0  0  0  0  0
  -38.4800  -66.5040   48.8300 C   0  0  0  0  0  0  0  0  0  0  0  0
  -39.9010  -66.0520   48.5430 C   0  0  0  0  0  0  0  0  0  0  0  0
  -36.4950  -65.8940   47.6570 C   0  0  0  0  0  0  0  0  0  0  0  0
  -44.9540  -66.5830   53.6210 C   0  0  0  0  0  0  0  0  0  0  0  0
  -45.9190  -67.5670   53.8950 C   0  0  0  0  0  0  0  0  0  0  0  0
  -47.2270  -67.4470   53.5040 C   0  0  0  0  0  0  0  0  0  0  0  0
  -47.6270  -66.3380   52.8240 C   0  0  0  0  0  0  0  0  0  0  0  0
  -46.7300  -65.3430   52.5290 C   0  0  0  0  0  0  0  0  0  0  0  0
  -45.4040  -65.4900   52.9400 C   0  0  0  0  0  0  0  0  0  0  0  0
  -44.3170  -64.1520   52.6040 Cl  0  0  0  0  0  0  0  0  0  0  0  0
  -49.0030  -66.2320   52.4170 N   0  0  0  0  0  0  0  0  0  0  0  0
  -49.9060  -67.2770   52.7310 C   0  0  0  0  0  0  0  0  0  0  0  0
  -51.1410  -67.0930   52.7520 O   0  0  0  0  0  0  0  0  0  0  0  0
  -49.3300  -68.6130   53.0370 C   0  0  0  0  0  0  0  0  0  0  0  0
  -48.1610  -68.4500   53.7950 O   0  0  0  0  0  0  0  0  0  0  0  0
  -40.4330  -66.7200   53.8750 H   0  0  0  0  0  0  0  0  0  0  0  0
  -40.2770  -67.7150   52.4460 H   0  0  0  0  0  0  0  0  0  0  0  0
  -39.7060  -65.7950   51.4590 H   0  0  0  0  0  0  0  0  0  0  0  0
  -40.5120  -64.6910   52.5780 H   0  0  0  0  0  0  0  0  0  0  0  0
  -42.6700  -65.1920   51.5350 H   0  0  0  0  0  0  0  0  0  0  0  0
  -42.4580  -67.0470   49.5770 H   0  0  0  0  0  0  0  0  0  0  0  0
  -40.9390  -67.4250   50.5370 H   0  0  0  0  0  0  0  0  0  0  0  0
  -42.8800  -68.7100   51.4780 H   0  0  0  0  0  0  0  0  0  0  0  0
  -43.7880  -67.1810   51.6220 H   0  0  0  0  0  0  0  0  0  0  0  0
  -38.7050  -63.6470   50.0490 H   0  0  0  0  0  0  0  0  0  0  0  0
  -39.6710  -62.8130   48.7170 H   0  0  0  0  0  0  0  0  0  0  0  0
  -38.7450  -64.4600   47.0850 H   0  0  0  0  0  0  0  0  0  0  0  0
  -37.4470  -63.4630   47.8550 H   0  0  0  0  0  0  0  0  0  0  0  0
  -38.4180  -66.8300   49.8760 H   0  0  0  0  0  0  0  0  0  0  0  0
  -38.2680  -67.3270   48.1180 H   0  0  0  0  0  0  0  0  0  0  0  0
  -40.0710  -65.9450   47.4430 H   0  0  0  0  0  0  0  0  0  0  0  0
  -40.5880  -66.8280   48.8770 H   0  0  0  0  0  0  0  0  0  0  0  0
  -35.8830  -66.6410   48.1950 H   0  0  0  0  0  0  0  0  0  0  0  0
  -35.8430  -65.0500   47.3870 H   0  0  0  0  0  0  0  0  0  0  0  0
  -36.9170  -66.4160   46.7620 H   0  0  0  0  0  0  0  0  0  0  0  0
  -45.5850  -68.4520   54.4410 H   0  0  0  0  0  0  0  0  0  0  0  0
  -47.0400  -64.4720   51.9950 H   0  0  0  0  0  0  0  0  0  0  0  0
  -49.3170  -65.3880   51.8980 H   0  0  0  0  0  0  0  0  0  0  0  0
  -50.0550  -69.2390   53.6010 H   0  0  0  0  0  0  0  0  0  0  0  0
  -49.0620  -69.1510   52.1170 H   0  0  0  0  0  0  0  0  0  0  0  0
  1  2  2  0  0  0  0
  1  3  2  0  0  0  0
  4  1  1  0  0  0  0
  5  4  1  0  0  0  0
  5 31  1  0  0  0  0
  6 34  1  0  0  0  0
  6  5  1  0  0  0  0
  7 35  1  0  0  0  0
  7  6  1  0  0  0  0
  8  7  1  0  0  0  0
  8  9  1  0  0  0  0
  9  4  1  0  0  0  0
 10  7  1  0  0  0  0
 11 10  2  0  0  0  0
 12 10  1  0  0  0  0
 13 12  1  0  0  0  0
 13 40  1  0  0  0  0
 14 15  1  0  0  0  0
 14 13  1  0  0  0  0
 15 16  1  0  0  0  0
 16 44  1  0  0  0  0
 17 16  1  0  0  0  0
 17 47  1  0  0  0  0
 17 12  1  0  0  0  0
 18 48  1  0  0  0  0
 18 15  1  0  0  0  0
 19 20  1  0  0  0  0
 19  1  1  0  0  0  0
 20 51  1  0  0  0  0
 21 30  1  0  0  0  0
 21 20  2  0  0  0  0
 22 21  1  0  0  0  0
 23 22  2  0  0  0  0
 23 24  1  0  0  0  0
 24 19  2  0  0  0  0
 25 24  1  0  0  0  0
 26 27  1  0  0  0  0
 26 22  1  0  0  0  0
 27 28  2  0  0  0  0
 27 29  1  0  0  0  0
 29 54  1  0  0  0  0
 29 30  1  0  0  0  0
 32  5  1  0  0  0  0
 33  6  1  0  0  0  0
 36  8  1  0  0  0  0
 37  8  1  0  0  0  0
 38  9  1  0  0  0  0
 39  9  1  0  0  0  0
 41 13  1  0  0  0  0
 42 14  1  0  0  0  0
 43 14  1  0  0  0  0
 45 16  1  0  0  0  0
 46 17  1  0  0  0  0
 49 18  1  0  0  0  0
 50 18  1  0  0  0  0
 52 23  1  0  0  0  0
 53 26  1  0  0  0  0
 55 29  1  0  0  0  0
M  END
>  <Pose>
1

>  <Score>
-5.81

$$$$
