
 OpenBabel03202209423D

 39 42  0  0  1  0  0  0  0  0999 V2000
  -41.2130  -69.0120   55.0960 B   0  0  0  0  0  0  0  0  0  0  0  0
  -41.8080  -67.7230   53.8140 C   0  0  0  0  0  0  0  0  0  0  0  0
  -42.8820  -66.8780   54.1130 C   0  0  0  0  0  0  0  0  0  0  0  0
  -43.3200  -65.9400   53.1960 C   0  0  0  0  0  0  0  0  0  0  0  0
  -42.6620  -65.8690   51.9850 C   0  0  0  0  0  0  0  0  0  0  0  0
  -41.5950  -66.7110   51.6960 C   0  0  0  0  0  0  0  0  0  0  0  0
  -41.1620  -67.6430   52.6100 C   0  0  0  0  0  0  0  0  0  0  0  0
  -40.7110  -66.5650   49.9920 B   0  0  0  0  0  0  0  0  0  0  0  0
  -44.4810  -65.0220   53.4880 C   0  0  1  0  0  0  0  0  0  0  0  0
  -44.5570  -64.0360   52.4780 N   0  0  0  0  0  4  0  0  0  0  0  0
  -45.8460  -63.8020   51.8950 C   0  0  2  0  0  0  0  0  0  0  0  0
  -46.4110  -65.1370   51.3800 C   0  0  0  0  0  0  0  0  0  0  0  0
  -46.5940  -65.9380   52.6060 C   0  0  0  0  0  0  0  0  0  0  0  0
  -47.5990  -66.8100   52.9920 C   0  0  0  0  0  0  0  0  0  0  0  0
  -47.2570  -67.2680   54.2450 C   0  0  0  0  0  0  0  0  0  0  0  0
  -46.0970  -66.7120   54.6250 N   0  0  0  0  0  0  0  0  0  0  0  0
  -45.6800  -65.8840   53.6110 C   0  0  0  0  0  0  0  0  0  0  0  0
  -48.1130  -68.1650   54.8590 C   0  0  0  0  0  0  0  0  0  0  0  0
  -49.2530  -68.5540   54.2010 C   0  0  0  0  0  0  0  0  0  0  0  0
  -49.5920  -68.0940   52.9480 C   0  0  0  0  0  0  0  0  0  0  0  0
  -48.7390  -67.1910   52.3180 C   0  0  0  0  0  0  0  0  0  0  0  0
  -45.7280  -62.8230   50.7950 C   0  0  0  0  0  0  0  0  0  0  0  0
  -46.7720  -62.2820   50.3460 O   0  0  0  0  0  0  0  0  0  0  0  0
  -44.4780  -62.5220   50.2800 O   0  0  0  0  0  0  0  0  0  0  0  0
  -43.4550  -67.0430   55.3470 O   0  0  0  0  0  0  0  0  0  0  0  0
  -42.9630  -65.1510   51.2210 H   0  0  0  0  0  0  0  0  0  0  0  0
  -40.3260  -68.3070   52.3940 H   0  0  0  0  0  0  0  0  0  0  0  0
  -44.2500  -64.5880   54.5020 H   0  0  0  0  0  0  0  0  0  0  0  0
  -44.2420  -63.1090   52.9100 H   0  0  0  0  0  0  0  0  0  0  0  0
  -43.8930  -64.1840   51.6780 H   0  0  0  0  0  0  0  0  0  0  0  0
  -46.5230  -63.4290   52.6960 H   0  0  0  0  0  0  0  0  0  0  0  0
  -47.3640  -64.9430   50.8470 H   0  0  0  0  0  0  0  0  0  0  0  0
  -45.6300  -65.5290   50.7040 H   0  0  0  0  0  0  0  0  0  0  0  0
  -45.5580  -66.8470   55.5190 H   0  0  0  0  0  0  0  0  0  0  0  0
  -47.8470  -68.5310   55.8490 H   0  0  0  0  0  0  0  0  0  0  0  0
  -49.9240  -69.2640   54.6960 H   0  0  0  0  0  0  0  0  0  0  0  0
  -50.5080  -68.4090   52.4250 H   0  0  0  0  0  0  0  0  0  0  0  0
  -48.9480  -66.7910   51.3350 H   0  0  0  0  0  0  0  0  0  0  0  0
  -44.2330  -67.6010   55.5660 H   0  0  0  0  0  0  0  0  0  0  0  0
  2  3  1  0  0  0  0
  2  1  1  0  0  0  0
  3 25  1  0  0  0  0
  4  9  1  0  0  0  0
  4  3  2  0  0  0  0
  5  4  1  0  0  0  0
  6  5  2  0  0  0  0
  6  7  1  0  0  0  0
  7  2  2  0  0  0  0
  8  6  1  0  0  0  0
  9 17  1  0  0  0  0
  9 28  1  1  0  0  0
 10 29  1  0  0  0  0
 10  9  1  0  0  0  0
 11 10  1  0  0  0  0
 11 31  1  1  0  0  0
 12 11  1  0  0  0  0
 12 13  1  0  0  0  0
 13 14  1  0  0  0  0
 13 17  2  0  0  0  0
 14 15  1  0  0  0  0
 15 16  1  0  0  0  0
 15 18  2  0  0  0  0
 16 34  1  0  0  0  0
 17 16  1  0  0  0  0
 18 35  1  0  0  0  0
 19 36  1  0  0  0  0
 19 18  1  0  0  0  0
 20 19  2  0  0  0  0
 21 20  1  0  0  0  0
 21 14  2  0  0  0  0
 22 11  1  0  0  0  0
 23 22  1  0  0  0  0
 24 22  2  0  0  0  0
 25 39  1  0  0  0  0
 26  5  1  0  0  0  0
 27  7  1  0  0  0  0
 30 10  1  0  0  0  0
 32 12  1  0  0  0  0
 33 12  1  0  0  0  0
 37 20  1  0  0  0  0
 38 21  1  0  0  0  0
M  END
>  <Pose>
1

>  <Score>
-6.43

$$$$
