
 OpenBabel03202209423D

 43 46  0  0  0  0  0  0  0  0999 V2000
  -43.2860  -64.7650   52.1440 Cl  0  0  0  0  0  0  0  0  0  0  0  0
  -43.1650  -66.2100   53.1220 C   0  0  0  0  0  0  0  0  0  0  0  0
  -44.2000  -66.5820   53.9330 C   0  0  0  0  0  0  0  0  0  0  0  0
  -43.9860  -67.7450   54.6780 C   0  0  0  0  0  0  0  0  0  0  0  0
  -42.8320  -68.4240   54.5770 N   0  0  0  0  0  0  0  0  0  0  0  0
  -41.8260  -68.0840   53.8040 N   0  0  0  0  0  0  0  0  0  0  0  0
  -41.9870  -66.9740   53.0710 C   0  0  0  0  0  0  0  0  0  0  0  0
  -41.0810  -66.5680   52.3000 O   0  0  0  0  0  0  0  0  0  0  0  0
  -40.6340  -68.8620   53.7560 C   0  0  0  0  0  0  0  0  0  0  0  0
  -40.2880  -69.7570   54.7490 C   0  0  0  0  0  0  0  0  0  0  0  0
  -39.1320  -70.5060   54.6920 C   0  0  0  0  0  0  0  0  0  0  0  0
  -38.2660  -70.3830   53.6240 C   0  0  0  0  0  0  0  0  0  0  0  0
  -38.6070  -69.4910   52.6290 C   0  0  0  0  0  0  0  0  0  0  0  0
  -39.7670  -68.7420   52.6900 C   0  0  0  0  0  0  0  0  0  0  0  0
  -45.4220  -65.8730   54.0160 N   0  0  0  0  0  0  0  0  0  0  0  0
  -46.4350  -66.1630   55.0160 C   0  0  0  0  0  0  0  0  0  0  0  0
  -47.7180  -66.6410   54.3860 C   0  0  0  0  0  0  0  0  0  0  0  0
  -47.9310  -65.8330   53.2110 N   0  0  0  0  0  0  0  0  0  0  0  0
  -47.3000  -64.5400   53.1570 C   0  0  0  0  0  0  0  0  0  0  0  0
  -45.7800  -64.8060   53.0870 C   0  0  0  0  0  0  0  0  0  0  0  0
  -48.7370  -66.2910   52.1410 C   0  0  0  0  0  0  0  0  0  0  0  0
  -49.6540  -67.3010   52.1690 N   0  0  0  0  0  0  0  0  0  0  0  0
  -50.2000  -67.4260   50.9750 N   0  0  0  0  0  0  0  0  0  0  0  0
  -49.6510  -66.5160   50.1810 C   0  0  0  0  0  0  0  0  0  0  0  0
  -48.7820  -65.8520   50.8970 O   0  0  0  0  0  0  0  0  0  0  0  0
  -49.9230  -66.2440   48.7320 C   0  0  0  0  0  0  0  0  0  0  0  0
  -44.7690  -68.0780   55.3230 H   0  0  0  0  0  0  0  0  0  0  0  0
  -40.9680  -69.8570   55.5940 H   0  0  0  0  0  0  0  0  0  0  0  0
  -38.8860  -71.2070   55.4960 H   0  0  0  0  0  0  0  0  0  0  0  0
  -37.3600  -70.9740   53.5850 H   0  0  0  0  0  0  0  0  0  0  0  0
  -37.9430  -69.3870   51.7960 H   0  0  0  0  0  0  0  0  0  0  0  0
  -40.0370  -68.0370   51.9050 H   0  0  0  0  0  0  0  0  0  0  0  0
  -46.6880  -65.1810   55.5120 H   0  0  0  0  0  0  0  0  0  0  0  0
  -46.1510  -66.8310   55.8090 H   0  0  0  0  0  0  0  0  0  0  0  0
  -47.6430  -67.7110   54.0500 H   0  0  0  0  0  0  0  0  0  0  0  0
  -48.5680  -66.6100   55.0880 H   0  0  0  0  0  0  0  0  0  0  0  0
  -47.5290  -63.9900   54.0870 H   0  0  0  0  0  0  0  0  0  0  0  0
  -47.6210  -63.9580   52.2780 H   0  0  0  0  0  0  0  0  0  0  0  0
  -45.3260  -63.8360   53.3300 H   0  0  0  0  0  0  0  0  0  0  0  0
  -45.6420  -65.1330   52.0250 H   0  0  0  0  0  0  0  0  0  0  0  0
  -51.0100  -66.2870   48.5260 H   0  0  0  0  0  0  0  0  0  0  0  0
  -49.5990  -65.2180   48.4600 H   0  0  0  0  0  0  0  0  0  0  0  0
  -49.3260  -66.9510   48.1490 H   0  0  0  0  0  0  0  0  0  0  0  0
  1  2  1  0  0  0  0
  2  3  2  0  0  0  0
  3 15  1  0  0  0  0
  3  4  1  0  0  0  0
  4 27  1  0  0  0  0
  5  4  2  0  0  0  0
  6  5  1  0  0  0  0
  7  2  1  0  0  0  0
  7  6  1  0  0  0  0
  8  7  2  0  0  0  0
  9  6  1  0  0  0  0
  9 10  1  0  0  0  0
 10 28  1  0  0  0  0
 11 10  2  0  0  0  0
 11 29  1  0  0  0  0
 12 11  1  0  0  0  0
 13 14  1  0  0  0  0
 13 12  2  0  0  0  0
 14  9  2  0  0  0  0
 15 16  1  0  0  0  0
 16 33  1  0  0  0  0
 16 34  1  0  0  0  0
 17 16  1  0  0  0  0
 17 36  1  0  0  0  0
 18 17  1  0  0  0  0
 19 18  1  0  0  0  0
 19 37  1  0  0  0  0
 20 19  1  0  0  0  0
 20 39  1  0  0  0  0
 20 15  1  0  0  0  0
 21 22  2  0  0  0  0
 21 18  1  0  0  0  0
 23 22  1  0  0  0  0
 24 25  1  0  0  0  0
 24 23  2  0  0  0  0
 25 21  1  0  0  0  0
 26 24  1  0  0  0  0
 30 12  1  0  0  0  0
 31 13  1  0  0  0  0
 32 14  1  0  0  0  0
 35 17  1  0  0  0  0
 38 19  1  0  0  0  0
 40 20  1  0  0  0  0
 41 26  1  0  0  0  0
 42 26  1  0  0  0  0
 43 26  1  0  0  0  0
M  END
>  <Pose>
1

>  <Score>
-5.07

$$$$
