
 OpenBabel03202209423D

 41 44  0  0  0  0  0  0  0  0999 V2000
  -36.0500  -67.6970   48.3200 Cl  0  0  0  0  0  0  0  0  0  0  0  0
  -37.5540  -67.4280   49.1820 C   0  0  0  0  0  0  0  0  0  0  0  0
  -37.7880  -68.0310   50.3970 C   0  0  0  0  0  0  0  0  0  0  0  0
  -38.9670  -67.7990   51.0380 N   0  0  0  0  0  0  0  0  0  0  0  0
  -39.8740  -66.9920   50.4770 C   0  0  0  0  0  0  0  0  0  0  0  0
  -40.9430  -66.9180   51.2850 N   0  0  0  0  0  0  0  0  0  0  0  0
  -40.7320  -67.6710   52.3650 C   0  0  0  0  0  0  0  0  0  0  0  0
  -39.4580  -68.2380   52.2040 C   0  0  0  0  0  0  0  0  0  0  0  0
  -41.6060  -67.8940   53.5030 C   0  0  0  0  0  0  0  0  0  0  0  0
  -41.4650  -69.0050   54.1360 O   0  0  0  0  0  0  0  0  0  0  0  0
  -42.5780  -67.0330   53.9760 N   0  0  0  0  0  0  0  0  0  0  0  0
  -42.6570  -65.6360   53.6230 C   0  0  0  0  0  0  0  0  0  0  0  0
  -43.8680  -65.3640   52.7560 C   0  0  0  0  0  0  0  0  0  0  0  0
  -45.0130  -66.2200   53.2180 C   0  0  0  0  0  0  0  0  0  0  0  0
  -44.9270  -67.1820   54.1860 C   0  0  0  0  0  0  0  0  0  0  0  0
  -46.1770  -67.7050   54.2900 N   0  0  0  0  0  0  0  0  0  0  0  0
  -47.0000  -67.1190   53.4500 N   0  0  0  0  0  0  0  0  0  0  0  0
  -46.3370  -66.1860   52.7540 C   0  0  0  0  0  0  0  0  0  0  0  0
  -46.7850  -65.4100   51.8500 O   0  0  0  0  0  0  0  0  0  0  0  0
  -48.4310  -67.3940   53.2520 C   0  0  0  0  0  0  0  0  0  0  0  0
  -49.2780  -66.4130   54.0280 C   0  0  0  0  0  0  0  0  0  0  0  0
  -49.0030  -66.4410   55.3890 O   0  0  0  0  0  0  0  0  0  0  0  0
  -43.6510  -67.4820   54.8960 C   0  0  0  0  0  0  0  0  0  0  0  0
  -39.6620  -66.3630   49.2380 C   0  0  0  0  0  0  0  0  0  0  0  0
  -38.4860  -66.5910   48.5930 C   0  0  0  0  0  0  0  0  0  0  0  0
  -37.0620  -68.6820   50.8560 H   0  0  0  0  0  0  0  0  0  0  0  0
  -38.9750  -68.9130   52.9120 H   0  0  0  0  0  0  0  0  0  0  0  0
  -41.7770  -65.1940   53.1860 H   0  0  0  0  0  0  0  0  0  0  0  0
  -42.8000  -65.1050   54.6230 H   0  0  0  0  0  0  0  0  0  0  0  0
  -43.6830  -65.5230   51.6950 H   0  0  0  0  0  0  0  0  0  0  0  0
  -44.1120  -64.2750   52.8900 H   0  0  0  0  0  0  0  0  0  0  0  0
  -46.4020  -68.4730   54.9670 H   0  0  0  0  0  0  0  0  0  0  0  0
  -48.6160  -68.3960   53.6920 H   0  0  0  0  0  0  0  0  0  0  0  0
  -48.7080  -67.4240   52.2010 H   0  0  0  0  0  0  0  0  0  0  0  0
  -48.9990  -65.4020   53.6660 H   0  0  0  0  0  0  0  0  0  0  0  0
  -50.3470  -66.6010   53.8790 H   0  0  0  0  0  0  0  0  0  0  0  0
  -48.7590  -65.5340   55.7430 H   0  0  0  0  0  0  0  0  0  0  0  0
  -43.5590  -66.9340   55.8490 H   0  0  0  0  0  0  0  0  0  0  0  0
  -43.5240  -68.5780   55.0020 H   0  0  0  0  0  0  0  0  0  0  0  0
  -40.4350  -65.7130   48.8230 H   0  0  0  0  0  0  0  0  0  0  0  0
  -38.3050  -66.1110   47.6280 H   0  0  0  0  0  0  0  0  0  0  0  0
  1  2  1  0  0  0  0
  2  3  2  0  0  0  0
  3 26  1  0  0  0  0
  3  4  1  0  0  0  0
  4  8  1  0  0  0  0
  5  4  1  0  0  0  0
  5  6  2  0  0  0  0
  6  7  1  0  0  0  0
  7  9  1  0  0  0  0
  8  7  2  0  0  0  0
  8 27  1  0  0  0  0
  9 11  1  0  0  0  0
  9 10  2  0  0  0  0
 11 23  1  0  0  0  0
 12 11  1  0  0  0  0
 12 29  1  0  0  0  0
 13 31  1  0  0  0  0
 13 14  1  0  0  0  0
 13 12  1  0  0  0  0
 14 15  2  0  0  0  0
 15 16  1  0  0  0  0
 15 23  1  0  0  0  0
 16 32  1  0  0  0  0
 17 16  1  0  0  0  0
 18 14  1  0  0  0  0
 18 17  1  0  0  0  0
 19 18  2  0  0  0  0
 20 17  1  0  0  0  0
 20 33  1  0  0  0  0
 20 21  1  0  0  0  0
 21 22  1  0  0  0  0
 22 37  1  0  0  0  0
 23 39  1  0  0  0  0
 23 38  1  0  0  0  0
 24  5  1  0  0  0  0
 25  2  1  0  0  0  0
 25 24  2  0  0  0  0
 28 12  1  0  0  0  0
 30 13  1  0  0  0  0
 34 20  1  0  0  0  0
 35 21  1  0  0  0  0
 36 21  1  0  0  0  0
 40 24  1  0  0  0  0
 41 25  1  0  0  0  0
M  END
>  <Pose>
1

>  <Score>
-6.07

$$$$
