
 OpenBabel03202209423D

 45 48  0  0  0  0  0  0  0  0999 V2000
  -43.5600  -64.0020   51.9400 Cl  0  0  0  0  0  0  0  0  0  0  0  0
  -42.6430  -65.4180   52.4710 C   0  0  0  0  0  0  0  0  0  0  0  0
  -41.3580  -65.5880   52.0020 C   0  0  0  0  0  0  0  0  0  0  0  0
  -40.6330  -66.6860   52.4080 C   0  0  0  0  0  0  0  0  0  0  0  0
  -41.1730  -67.6140   53.2740 C   0  0  0  0  0  0  0  0  0  0  0  0
  -42.4670  -67.4030   53.7210 C   0  0  0  0  0  0  0  0  0  0  0  0
  -43.2240  -66.3200   53.3390 C   0  0  0  0  0  0  0  0  0  0  0  0
  -40.4420  -68.7600   53.7090 N   0  0  0  0  0  0  0  0  0  0  0  0
  -40.3740  -69.2790   54.9100 N   0  0  0  0  0  0  0  0  0  0  0  0
  -39.5600  -70.3750   54.8910 C   0  0  0  0  0  0  0  0  0  0  0  0
  -39.1000  -70.5410   53.6030 C   0  0  0  0  0  0  0  0  0  0  0  0
  -39.6810  -69.4950   52.8800 C   0  0  0  0  0  0  0  0  0  0  0  0
  -40.7690  -64.6110   51.0810 C   0  0  0  0  0  0  0  0  0  0  0  0
  -40.4280  -63.5110   51.5860 O   0  0  0  0  0  0  0  0  0  0  0  0
  -40.5960  -64.8990   49.7000 N   0  0  0  0  0  0  0  0  0  0  0  0
  -40.7360  -63.8230   48.7430 C   0  0  0  0  0  0  0  0  0  0  0  0
  -39.8960  -64.1940   47.5360 C   0  0  0  0  0  0  0  0  0  0  0  0
  -38.6350  -64.9330   47.9290 C   0  0  0  0  0  0  0  0  0  0  0  0
  -37.8150  -65.0380   46.7440 N   0  0  0  0  0  0  0  0  0  0  0  0
  -37.0280  -63.8600   46.6420 C   0  0  0  0  0  0  0  0  0  0  0  0
  -36.4490  -63.3920   45.6120 O   0  0  0  0  0  0  0  0  0  0  0  0
  -37.0100  -63.2860   47.9520 N   0  0  0  0  0  0  0  0  0  0  0  0
  -37.7790  -64.1150   48.8250 C   0  0  0  0  0  0  0  0  0  0  0  0
  -37.7130  -64.1180   50.0840 O   0  0  0  0  0  0  0  0  0  0  0  0
  -36.3330  -62.0600   48.3800 C   0  0  0  0  0  0  0  0  0  0  0  0
  -38.9290  -66.2690   48.5470 C   0  0  0  0  0  0  0  0  0  0  0  0
  -40.2850  -66.2110   49.1800 C   0  0  0  0  0  0  0  0  0  0  0  0
  -39.6200  -66.8770   52.0760 H   0  0  0  0  0  0  0  0  0  0  0  0
  -42.8990  -68.1290   54.4030 H   0  0  0  0  0  0  0  0  0  0  0  0
  -44.2500  -66.1900   53.7170 H   0  0  0  0  0  0  0  0  0  0  0  0
  -39.2900  -71.0320   55.7040 H   0  0  0  0  0  0  0  0  0  0  0  0
  -38.4310  -71.3160   53.2320 H   0  0  0  0  0  0  0  0  0  0  0  0
  -39.5290  -69.3250   51.8220 H   0  0  0  0  0  0  0  0  0  0  0  0
  -41.8030  -63.7310   48.4530 H   0  0  0  0  0  0  0  0  0  0  0  0
  -40.3220  -62.8770   49.1470 H   0  0  0  0  0  0  0  0  0  0  0  0
  -40.4940  -64.8150   46.8400 H   0  0  0  0  0  0  0  0  0  0  0  0
  -39.6070  -63.2870   46.9680 H   0  0  0  0  0  0  0  0  0  0  0  0
  -37.8190  -65.8460   46.0940 H   0  0  0  0  0  0  0  0  0  0  0  0
  -36.9220  -61.5270   49.1660 H   0  0  0  0  0  0  0  0  0  0  0  0
  -36.1790  -61.3990   47.5090 H   0  0  0  0  0  0  0  0  0  0  0  0
  -35.3590  -62.3020   48.8430 H   0  0  0  0  0  0  0  0  0  0  0  0
  -38.1370  -66.4650   49.3020 H   0  0  0  0  0  0  0  0  0  0  0  0
  -38.9230  -67.0280   47.7360 H   0  0  0  0  0  0  0  0  0  0  0  0
  -41.0400  -66.4210   48.3720 H   0  0  0  0  0  0  0  0  0  0  0  0
  -40.4400  -67.0080   49.9440 H   0  0  0  0  0  0  0  0  0  0  0  0
  1  2  1  0  0  0  0
  2  7  1  0  0  0  0
  3  4  1  0  0  0  0
  3  2  2  0  0  0  0
  4  5  2  0  0  0  0
  5  8  1  0  0  0  0
  5  6  1  0  0  0  0
  6 29  1  0  0  0  0
  7 30  1  0  0  0  0
  7  6  2  0  0  0  0
  8  9  1  0  0  0  0
 10  9  2  0  0  0  0
 10 31  1  0  0  0  0
 11 10  1  0  0  0  0
 12 11  2  0  0  0  0
 12  8  1  0  0  0  0
 13 14  2  0  0  0  0
 13  3  1  0  0  0  0
 15 13  1  0  0  0  0
 16 35  1  0  0  0  0
 16 15  1  0  0  0  0
 17 18  1  0  0  0  0
 17 16  1  0  0  0  0
 18 26  1  0  0  0  0
 18 23  1  0  0  0  0
 19 18  1  0  0  0  0
 20 19  1  0  0  0  0
 20 22  1  0  0  0  0
 21 20  2  0  0  0  0
 22 25  1  0  0  0  0
 22 23  1  0  0  0  0
 23 24  2  0  0  0  0
 25 41  1  0  0  0  0
 25 39  1  0  0  0  0
 26 27  1  0  0  0  0
 26 42  1  0  0  0  0
 27 15  1  0  0  0  0
 27 45  1  0  0  0  0
 28  4  1  0  0  0  0
 32 11  1  0  0  0  0
 33 12  1  0  0  0  0
 34 16  1  0  0  0  0
 36 17  1  0  0  0  0
 37 17  1  0  0  0  0
 38 19  1  0  0  0  0
 40 25  1  0  0  0  0
 43 26  1  0  0  0  0
 44 27  1  0  0  0  0
M  END
>  <Pose>
1

>  <Score>
-6.76

$$$$
