
 OpenBabel03202209423D

 53 56  0  0  1  0  0  0  0  0999 V2000
  -39.0450  -70.5430   54.8940 Cl  0  0  0  0  0  0  0  0  0  0  0  0
  -40.0600  -69.3290   54.1650 C   0  0  0  0  0  0  0  0  0  0  0  0
  -41.1380  -68.8120   54.8200 C   0  0  0  0  0  0  0  0  0  0  0  0
  -41.9140  -67.8480   54.1930 C   0  0  0  0  0  0  0  0  0  0  0  0
  -41.6590  -67.3830   52.9430 C   0  0  0  0  0  0  0  0  0  0  0  0
  -40.5560  -67.9150   52.2760 C   0  0  0  0  0  0  0  0  0  0  0  0
  -39.7710  -68.8720   52.8770 C   0  0  0  0  0  0  0  0  0  0  0  0
  -42.4830  -66.3760   52.2860 C   0  0  1  0  0  0  0  0  0  0  0  0
  -42.8790  -65.3430   53.2600 N   0  0  0  0  0  0  0  0  0  0  0  0
  -41.8560  -64.3570   53.3030 C   0  0  0  0  0  0  0  0  0  0  0  0
  -41.6320  -63.5490   54.2070 O   0  0  0  0  0  0  0  0  0  0  0  0
  -41.0890  -64.4680   52.0460 C   0  0  0  0  0  0  0  0  0  0  0  0
  -40.0850  -63.7770   51.6790 O   0  0  0  0  0  0  0  0  0  0  0  0
  -41.7170  -65.5450   51.2990 C   0  0  0  0  0  0  0  0  0  0  0  0
  -41.5780  -65.7250   50.0090 C   0  0  0  0  0  0  0  0  0  0  0  0
  -42.2020  -66.8270   49.4320 O   0  0  0  0  0  0  0  0  0  0  0  0
  -40.8230  -64.8670   49.1020 C   0  0  0  0  0  0  0  0  0  0  0  0
  -39.7040  -65.4380   48.5060 C   0  0  0  0  0  0  0  0  0  0  0  0
  -38.9640  -64.7020   47.6250 C   0  0  0  0  0  0  0  0  0  0  0  0
  -39.3040  -63.3990   47.3150 C   0  0  0  0  0  0  0  0  0  0  0  0
  -40.4140  -62.8380   47.9090 C   0  0  0  0  0  0  0  0  0  0  0  0
  -41.1550  -63.5920   48.7960 C   0  0  0  0  0  0  0  0  0  0  0  0
  -38.3340  -62.5040   46.1930 Cl  0  0  0  0  0  0  0  0  0  0  0  0
  -44.1260  -65.4250   53.9770 C   0  0  0  0  0  0  0  0  0  0  0  0
  -45.3450  -65.1250   53.1920 C   0  0  0  0  0  0  0  0  0  0  0  0
  -46.6090  -65.2380   53.8200 N   0  0  0  0  0  4  0  0  0  0  0  0
  -47.0740  -66.6010   53.9680 C   0  0  0  0  0  0  0  0  0  0  0  0
  -48.4320  -66.8490   53.3550 C   0  0  0  0  0  0  0  0  0  0  0  0
  -49.3920  -65.9300   53.6910 O   0  0  0  0  0  0  0  0  0  0  0  0
  -48.9680  -64.6190   53.5810 C   0  0  0  0  0  0  0  0  0  0  0  0
  -47.6100  -64.5880   52.9480 C   0  0  0  0  0  0  0  0  0  0  0  0
  -41.3570  -69.1700   55.8180 H   0  0  0  0  0  0  0  0  0  0  0  0
  -42.7460  -67.4710   54.7530 H   0  0  0  0  0  0  0  0  0  0  0  0
  -40.3410  -67.5540   51.2810 H   0  0  0  0  0  0  0  0  0  0  0  0
  -38.9120  -69.3060   52.3960 H   0  0  0  0  0  0  0  0  0  0  0  0
  -43.3990  -66.7980   51.8150 H   0  0  0  0  0  0  0  0  0  0  0  0
  -39.4200  -66.4770   48.7440 H   0  0  0  0  0  0  0  0  0  0  0  0
  -38.0950  -65.1900   47.1820 H   0  0  0  0  0  0  0  0  0  0  0  0
  -40.6570  -61.8170   47.6470 H   0  0  0  0  0  0  0  0  0  0  0  0
  -42.0440  -63.1340   49.2420 H   0  0  0  0  0  0  0  0  0  0  0  0
  -44.0750  -64.6540   54.8080 H   0  0  0  0  0  0  0  0  0  0  0  0
  -44.2030  -66.3850   54.5480 H   0  0  0  0  0  0  0  0  0  0  0  0
  -45.2580  -64.0940   52.7230 H   0  0  0  0  0  0  0  0  0  0  0  0
  -45.4050  -65.7800   52.2600 H   0  0  0  0  0  0  0  0  0  0  0  0
  -46.6790  -64.7140   54.7070 H   0  0  0  0  0  0  0  0  0  0  0  0
  -47.0910  -66.8450   55.0480 H   0  0  0  0  0  0  0  0  0  0  0  0
  -46.3920  -67.3300   53.4820 H   0  0  0  0  0  0  0  0  0  0  0  0
  -48.7520  -67.8530   53.7420 H   0  0  0  0  0  0  0  0  0  0  0  0
  -48.3290  -66.9910   52.2560 H   0  0  0  0  0  0  0  0  0  0  0  0
  -49.6430  -64.0020   52.9710 H   0  0  0  0  0  0  0  0  0  0  0  0
  -48.8800  -64.1580   54.5880 H   0  0  0  0  0  0  0  0  0  0  0  0
  -47.5810  -65.1180   51.9820 H   0  0  0  0  0  0  0  0  0  0  0  0
  -47.3090  -63.5320   52.7480 H   0  0  0  0  0  0  0  0  0  0  0  0
  2  3  1  0  0  0  0
  2  1  1  0  0  0  0
  3 32  1  0  0  0  0
  4 33  1  0  0  0  0
  4  3  2  0  0  0  0
  5  4  1  0  0  0  0
  6  7  1  0  0  0  0
  6  5  2  0  0  0  0
  7  2  2  0  0  0  0
  8 36  1  6  0  0  0
  8  5  1  0  0  0  0
  8  9  1  0  0  0  0
  9 10  1  0  0  0  0
  9 24  1  0  0  0  0
 10 11  2  0  0  0  0
 12 10  1  0  0  0  0
 13 12  2  0  0  0  0
 14 12  1  0  0  0  0
 14  8  1  0  0  0  0
 15 14  2  0  0  0  0
 16 15  1  0  0  0  0
 17 15  1  0  0  0  0
 18 37  1  0  0  0  0
 18 17  2  0  0  0  0
 19 18  1  0  0  0  0
 20 19  2  0  0  0  0
 20 21  1  0  0  0  0
 21 22  2  0  0  0  0
 22 17  1  0  0  0  0
 22 40  1  0  0  0  0
 23 20  1  0  0  0  0
 24 42  1  0  0  0  0
 24 41  1  0  0  0  0
 25 26  1  0  0  0  0
 25 24  1  0  0  0  0
 26 27  1  0  0  0  0
 26 45  1  0  0  0  0
 27 46  1  0  0  0  0
 28 29  1  0  0  0  0
 28 48  1  0  0  0  0
 28 27  1  0  0  0  0
 30 29  1  0  0  0  0
 30 51  1  0  0  0  0
 31 30  1  0  0  0  0
 31 26  1  0  0  0  0
 34  6  1  0  0  0  0
 35  7  1  0  0  0  0
 38 19  1  0  0  0  0
 39 21  1  0  0  0  0
 43 25  1  0  0  0  0
 44 25  1  0  0  0  0
 47 27  1  0  0  0  0
 49 28  1  0  0  0  0
 50 30  1  0  0  0  0
 52 31  1  0  0  0  0
 53 31  1  0  0  0  0
M  END
>  <Pose>
1

>  <Score>
-5.79

$$$$
