
 OpenBabel03202209423D

 42 45  0  0  1  0  0  0  0  0999 V2000
  -44.3090  -60.8760   48.6540 Cl  0  0  0  0  0  0  0  0  0  0  0  0
  -45.2830  -62.2370   49.1640 C   0  0  0  0  0  0  0  0  0  0  0  0
  -45.4090  -62.5950   50.4860 C   0  0  0  0  0  0  0  0  0  0  0  0
  -46.1710  -63.6710   50.9200 C   0  0  0  0  0  0  0  0  0  0  0  0
  -46.8320  -64.4070   49.9410 C   0  0  0  0  0  0  0  0  0  0  0  0
  -46.7230  -64.0710   48.6100 C   0  0  0  0  0  0  0  0  0  0  0  0
  -45.9530  -62.9930   48.2270 C   0  0  0  0  0  0  0  0  0  0  0  0
  -46.2780  -64.0210   52.3590 C   0  0  1  0  0  0  0  0  0  0  0  0
  -47.5250  -64.6360   52.7150 N   0  0  0  0  0  0  0  0  0  0  0  0
  -47.3980  -66.0550   52.7330 C   0  0  0  0  0  0  0  0  0  0  0  0
  -48.3300  -66.9100   52.7310 O   0  0  0  0  0  0  0  0  0  0  0  0
  -45.9550  -66.3730   52.7560 C   0  0  0  0  0  0  0  0  0  0  0  0
  -45.4730  -67.5280   52.7730 O   0  0  0  0  0  0  0  0  0  0  0  0
  -45.2840  -65.0800   52.7510 C   0  0  0  0  0  0  0  0  0  0  0  0
  -44.0050  -64.9160   53.0160 C   0  0  0  0  0  0  0  0  0  0  0  0
  -43.4950  -63.6050   52.9190 O   0  0  0  0  0  0  0  0  0  0  0  0
  -43.1000  -65.9890   53.4030 C   0  0  0  0  0  0  0  0  0  0  0  0
  -41.9320  -66.2100   52.6590 C   0  0  0  0  0  0  0  0  0  0  0  0
  -41.0430  -67.1990   53.0190 C   0  0  0  0  0  0  0  0  0  0  0  0
  -41.2480  -68.0120   54.1140 C   0  0  0  0  0  0  0  0  0  0  0  0
  -42.3880  -67.8100   54.8580 C   0  0  0  0  0  0  0  0  0  0  0  0
  -43.2880  -66.8080   54.4920 C   0  0  0  0  0  0  0  0  0  0  0  0
  -48.7230  -63.9480   53.0050 C   0  0  1  0  0  0  0  0  0  0  0  0
  -49.2390  -64.1500   54.2470 N   0  0  0  0  0  0  0  0  0  0  0  0
  -50.3640  -63.5570   54.6430 C   0  0  0  0  0  0  0  0  0  0  0  0
  -51.0030  -62.7200   53.7570 C   0  0  0  0  0  0  0  0  0  0  0  0
  -50.4610  -62.5280   52.5040 C   0  0  0  0  0  0  0  0  0  0  0  0
  -49.3250  -63.1320   52.1120 N   0  0  0  0  0  0  0  0  0  0  0  0
  -44.8710  -61.9890   51.2010 H   0  0  0  0  0  0  0  0  0  0  0  0
  -47.4300  -65.2530   50.2640 H   0  0  0  0  0  0  0  0  0  0  0  0
  -47.2460  -64.6550   47.8380 H   0  0  0  0  0  0  0  0  0  0  0  0
  -45.8750  -62.7360   47.1800 H   0  0  0  0  0  0  0  0  0  0  0  0
  -46.1110  -63.0830   52.9300 H   0  0  0  0  0  0  0  0  0  0  0  0
  -41.7760  -65.5660   51.7980 H   0  0  0  0  0  0  0  0  0  0  0  0
  -40.1560  -67.3340   52.4140 H   0  0  0  0  0  0  0  0  0  0  0  0
  -40.5630  -68.7920   54.4150 H   0  0  0  0  0  0  0  0  0  0  0  0
  -42.5750  -68.4450   55.7330 H   0  0  0  0  0  0  0  0  0  0  0  0
  -44.1710  -66.6670   55.1230 H   0  0  0  0  0  0  0  0  0  0  0  0
  -48.7530  -64.7890   54.9340 H   0  0  0  0  0  0  0  0  0  0  0  0
  -50.7430  -63.7470   55.6390 H   0  0  0  0  0  0  0  0  0  0  0  0
  -51.9180  -62.2320   54.0690 H   0  0  0  0  0  0  0  0  0  0  0  0
  -50.9990  -61.8610   51.8470 H   0  0  0  0  0  0  0  0  0  0  0  0
  1  2  1  0  0  0  0
  2  3  1  0  0  0  0
  3  4  2  0  0  0  0
  3 29  1  0  0  0  0
  4  8  1  0  0  0  0
  5 30  1  0  0  0  0
  5  4  1  0  0  0  0
  6  5  2  0  0  0  0
  7  6  1  0  0  0  0
  7  2  2  0  0  0  0
  8  9  1  0  0  0  0
  8 14  1  0  0  0  0
  8 33  1  1  0  0  0
  9 10  1  0  0  0  0
 10 12  1  0  0  0  0
 11 10  2  0  0  0  0
 12 13  2  0  0  0  0
 14 12  1  0  0  0  0
 14 15  2  0  0  0  0
 15 17  1  0  0  0  0
 16 15  1  0  0  0  0
 17 22  1  0  0  0  0
 18 19  1  0  0  0  0
 18 17  2  0  0  0  0
 19 20  2  0  0  0  0
 20 36  1  0  0  0  0
 20 21  1  0  0  0  0
 21 37  1  0  0  0  0
 22 21  2  0  0  0  0
 22 38  1  0  0  0  0
 23  9  1  1  0  0  0
 23 24  1  0  0  0  0
 24 25  1  0  0  0  0
 24 39  1  0  0  0  0
 25 40  1  0  0  0  0
 26 41  1  0  0  0  0
 26 25  2  0  0  0  0
 27 26  1  0  0  0  0
 28 27  2  0  0  0  0
 28 23  1  0  0  0  0
 31  6  1  0  0  0  0
 32  7  1  0  0  0  0
 34 18  1  0  0  0  0
 35 19  1  0  0  0  0
 42 27  1  0  0  0  0
M  END
>  <Pose>
1

>  <Score>
-5.65

$$$$
