
 OpenBabel03202209423D

 44 47  0  0  0  0  0  0  0  0999 V2000
  -47.3260  -66.7180   53.4160 S   0  0  0  0  0  0  0  0  0  0  0  0
  -47.5340  -66.7730   51.9860 O   0  0  0  0  0  0  0  0  0  0  0  0
  -47.9990  -65.5310   54.0370 O   0  0  0  0  0  0  0  0  0  0  0  0
  -47.9380  -68.1900   54.2740 C   0  0  0  0  0  0  0  0  0  0  0  0
  -45.6100  -66.6050   53.8460 C   0  0  0  0  0  0  0  0  0  0  0  0
  -44.9730  -67.7210   54.2190 N   0  0  0  0  0  0  0  0  0  0  0  0
  -43.6750  -67.7880   54.4960 C   0  0  0  0  0  0  0  0  0  0  0  0
  -42.9340  -66.6000   54.3770 C   0  0  0  0  0  0  0  0  0  0  0  0
  -43.5810  -65.4770   54.0010 C   0  0  0  0  0  0  0  0  0  0  0  0
  -44.9190  -65.4850   53.7400 N   0  0  0  0  0  0  0  0  0  0  0  0
  -42.8550  -64.3010   53.8960 O   0  0  0  0  0  0  0  0  0  0  0  0
  -41.4880  -66.7540   54.5550 C   0  0  0  0  0  0  0  0  0  0  0  0
  -41.1090  -67.8390   53.7040 N   0  0  0  0  0  0  0  0  0  0  0  0
  -41.5050  -69.0640   54.5300 C   0  0  0  0  0  0  0  0  0  0  0  0
  -42.9480  -69.0220   54.8930 C   0  0  0  0  0  0  0  0  0  0  0  0
  -41.9530  -68.0740   52.4770 C   0  0  0  0  0  0  0  0  0  0  0  0
  -41.0200  -67.4690   51.4250 C   0  0  0  0  0  0  0  0  0  0  0  0
  -41.2330  -66.3340   50.7450 C   0  0  0  0  0  0  0  0  0  0  0  0
  -40.3350  -65.8080   49.7780 C   0  0  0  0  0  0  0  0  0  0  0  0
  -39.1820  -66.5730   49.5840 C   0  0  0  0  0  0  0  0  0  0  0  0
  -38.2820  -66.1170   48.6660 C   0  0  0  0  0  0  0  0  0  0  0  0
  -38.4450  -64.9350   47.9100 C   0  0  0  0  0  0  0  0  0  0  0  0
  -39.6190  -64.1960   48.1450 C   0  0  0  0  0  0  0  0  0  0  0  0
  -40.5100  -64.6690   49.0670 C   0  0  0  0  0  0  0  0  0  0  0  0
  -38.9620  -67.6600   50.2410 O   0  0  0  0  0  0  0  0  0  0  0  0
  -39.8290  -68.1370   51.1470 C   0  0  0  0  0  0  0  0  0  0  0  0
  -39.6000  -69.2330   51.7890 O   0  0  0  0  0  0  0  0  0  0  0  0
  -42.6580  -65.4200   51.1060 Cl  0  0  0  0  0  0  0  0  0  0  0  0
  -47.4120  -68.2140   55.2940 H   0  0  0  0  0  0  0  0  0  0  0  0
  -47.5540  -69.0940   53.7170 H   0  0  0  0  0  0  0  0  0  0  0  0
  -49.0260  -68.2000   54.3610 H   0  0  0  0  0  0  0  0  0  0  0  0
  -42.4680  -63.7940   54.6980 H   0  0  0  0  0  0  0  0  0  0  0  0
  -40.8880  -65.8190   54.4750 H   0  0  0  0  0  0  0  0  0  0  0  0
  -41.3340  -67.1490   55.6420 H   0  0  0  0  0  0  0  0  0  0  0  0
  -41.2260  -69.9440   53.8690 H   0  0  0  0  0  0  0  0  0  0  0  0
  -40.8390  -69.0190   55.3860 H   0  0  0  0  0  0  0  0  0  0  0  0
  -43.4120  -69.9110   54.3490 H   0  0  0  0  0  0  0  0  0  0  0  0
  -43.0650  -69.2370   55.9570 H   0  0  0  0  0  0  0  0  0  0  0  0
  -42.1020  -69.1150   52.2720 H   0  0  0  0  0  0  0  0  0  0  0  0
  -42.8320  -67.4340   52.6020 H   0  0  0  0  0  0  0  0  0  0  0  0
  -37.3360  -66.6190   48.4690 H   0  0  0  0  0  0  0  0  0  0  0  0
  -37.6980  -64.6060   47.1610 H   0  0  0  0  0  0  0  0  0  0  0  0
  -39.7110  -63.3070   47.6010 H   0  0  0  0  0  0  0  0  0  0  0  0
  -41.4750  -64.1580   49.2140 H   0  0  0  0  0  0  0  0  0  0  0  0
  1  5  1  0  0  0  0
  1  3  2  0  0  0  0
  1  4  1  0  0  0  0
  2  1  2  0  0  0  0
  4 31  1  0  0  0  0
  4 29  1  0  0  0  0
  5  6  2  0  0  0  0
  6  7  1  0  0  0  0
  7 15  1  0  0  0  0
  8  7  2  0  0  0  0
  8 12  1  0  0  0  0
  9  8  1  0  0  0  0
 10  5  1  0  0  0  0
 10  9  2  0  0  0  0
 11  9  1  0  0  0  0
 11 32  1  0  0  0  0
 12 34  1  0  0  0  0
 13 14  1  0  0  0  0
 13 12  1  0  0  0  0
 14 15  1  0  0  0  0
 14 36  1  0  0  0  0
 15 38  1  0  0  0  0
 16 40  1  0  0  0  0
 16 13  1  0  0  0  0
 17 16  1  0  0  0  0
 18 28  1  0  0  0  0
 18 17  2  0  0  0  0
 19 18  1  0  0  0  0
 20 19  1  0  0  0  0
 20 25  1  0  0  0  0
 21 20  2  0  0  0  0
 22 23  2  0  0  0  0
 22 21  1  0  0  0  0
 23 24  1  0  0  0  0
 24 44  1  0  0  0  0
 24 19  2  0  0  0  0
 25 26  1  0  0  0  0
 26 17  1  0  0  0  0
 26 27  2  0  0  0  0
 30  4  1  0  0  0  0
 33 12  1  0  0  0  0
 35 14  1  0  0  0  0
 37 15  1  0  0  0  0
 39 16  1  0  0  0  0
 41 21  1  0  0  0  0
 42 22  1  0  0  0  0
 43 23  1  0  0  0  0
M  END
>  <Pose>
1

>  <Score>
-4.87

$$$$
