
 OpenBabel03202209423D

 52 55  0  0  0  0  0  0  0  0999 V2000
  -38.8350  -70.4800   54.3720 Cl  0  0  0  0  0  0  0  0  0  0  0  0
  -40.0940  -69.3060   54.1680 C   0  0  0  0  0  0  0  0  0  0  0  0
  -41.1480  -69.1480   55.0400 C   0  0  0  0  0  0  0  0  0  0  0  0
  -42.1390  -68.2030   54.8620 C   0  0  0  0  0  0  0  0  0  0  0  0
  -42.1110  -67.3630   53.7790 C   0  0  0  0  0  0  0  0  0  0  0  0
  -41.0460  -67.5320   52.9090 C   0  0  0  0  0  0  0  0  0  0  0  0
  -40.0480  -68.4680   53.0690 C   0  0  0  0  0  0  0  0  0  0  0  0
  -43.0550  -66.3380   53.5130 N   0  0  0  0  0  0  0  0  0  0  0  0
  -42.8110  -65.1200   53.1100 N   0  0  0  0  0  0  0  0  0  0  0  0
  -43.9230  -64.3910   52.9700 C   0  0  0  0  0  0  0  0  0  0  0  0
  -44.9860  -65.2160   53.3140 C   0  0  0  0  0  0  0  0  0  0  0  0
  -44.3970  -66.4310   53.6500 C   0  0  0  0  0  0  0  0  0  0  0  0
  -45.2290  -67.4090   54.0190 N   0  0  0  0  0  0  0  0  0  0  0  0
  -46.5670  -67.2240   54.0640 C   0  0  0  0  0  0  0  0  0  0  0  0
  -47.1630  -66.0640   53.7460 N   0  0  0  0  0  0  0  0  0  0  0  0
  -46.3500  -65.0450   53.3650 C   0  0  0  0  0  0  0  0  0  0  0  0
  -46.8630  -63.9400   53.0570 O   0  0  0  0  0  0  0  0  0  0  0  0
  -48.6130  -65.8540   53.8070 C   0  0  0  0  0  0  0  0  0  0  0  0
  -49.2970  -66.9270   54.5490 C   0  0  0  0  0  0  0  0  0  0  0  0
  -49.7190  -66.5890   55.7110 O   0  0  0  0  0  0  0  0  0  0  0  0
  -49.5230  -68.2330   54.1190 N   0  0  0  0  0  0  0  0  0  0  0  0
  -48.8740  -68.7570   52.9080 C   0  0  0  0  0  0  0  0  0  0  0  0
  -50.0370  -69.0140   51.9400 C   0  0  0  0  0  0  0  0  0  0  0  0
  -51.0460  -69.8210   52.5730 N   0  0  0  0  0  0  0  0  0  0  0  0
  -50.7780  -70.2930   53.9190 C   0  0  0  0  0  0  0  0  0  0  0  0
  -50.3710  -69.1640   54.8310 C   0  0  0  0  0  0  0  0  0  0  0  0
  -52.2630  -70.1230   51.9230 C   0  0  0  0  0  0  0  0  0  0  0  0
  -52.5350  -71.3650   51.7230 O   0  0  0  0  0  0  0  0  0  0  0  0
  -53.1960  -69.2140   51.4790 O   0  0  0  0  0  0  0  0  0  0  0  0
  -53.8730  -69.4060   50.2220 C   0  0  0  0  0  0  0  0  0  0  0  0
  -52.7910  -69.4120   49.1560 C   0  0  0  0  0  0  0  0  0  0  0  0
  -41.1410  -69.8340   55.9040 H   0  0  0  0  0  0  0  0  0  0  0  0
  -42.9460  -68.1150   55.5660 H   0  0  0  0  0  0  0  0  0  0  0  0
  -41.0030  -66.8690   52.0280 H   0  0  0  0  0  0  0  0  0  0  0  0
  -39.2590  -68.5110   52.3230 H   0  0  0  0  0  0  0  0  0  0  0  0
  -44.0810  -63.3720   52.6640 H   0  0  0  0  0  0  0  0  0  0  0  0
  -47.2310  -68.0420   54.3710 H   0  0  0  0  0  0  0  0  0  0  0  0
  -49.0340  -65.8680   52.7540 H   0  0  0  0  0  0  0  0  0  0  0  0
  -48.7770  -64.8530   54.2380 H   0  0  0  0  0  0  0  0  0  0  0  0
  -48.3100  -69.6750   53.1210 H   0  0  0  0  0  0  0  0  0  0  0  0
  -48.2720  -67.9560   52.4840 H   0  0  0  0  0  0  0  0  0  0  0  0
  -49.6090  -69.4370   51.0190 H   0  0  0  0  0  0  0  0  0  0  0  0
  -50.4680  -68.0070   51.6570 H   0  0  0  0  0  0  0  0  0  0  0  0
  -50.0110  -71.0740   53.8410 H   0  0  0  0  0  0  0  0  0  0  0  0
  -51.7350  -70.7240   54.3230 H   0  0  0  0  0  0  0  0  0  0  0  0
  -49.6960  -69.6460   55.6050 H   0  0  0  0  0  0  0  0  0  0  0  0
  -51.2110  -68.6630   55.3380 H   0  0  0  0  0  0  0  0  0  0  0  0
  -54.3590  -70.4330   50.2310 H   0  0  0  0  0  0  0  0  0  0  0  0
  -54.6140  -68.6590   49.9970 H   0  0  0  0  0  0  0  0  0  0  0  0
  -52.8850  -70.2140   48.4210 H   0  0  0  0  0  0  0  0  0  0  0  0
  -52.8000  -68.3760   48.6990 H   0  0  0  0  0  0  0  0  0  0  0  0
  -51.8180  -69.5050   49.6510 H   0  0  0  0  0  0  0  0  0  0  0  0
  2  1  1  0  0  0  0
  2  3  1  0  0  0  0
  3 32  1  0  0  0  0
  4  3  2  0  0  0  0
  4 33  1  0  0  0  0
  5  4  1  0  0  0  0
  6  7  1  0  0  0  0
  6  5  2  0  0  0  0
  7  2  2  0  0  0  0
  8 12  1  0  0  0  0
  8  5  1  0  0  0  0
  9  8  1  0  0  0  0
 10  9  2  0  0  0  0
 10 11  1  0  0  0  0
 11 16  1  0  0  0  0
 11 12  2  0  0  0  0
 12 13  1  0  0  0  0
 13 14  2  0  0  0  0
 14 37  1  0  0  0  0
 15 18  1  0  0  0  0
 15 14  1  0  0  0  0
 16 15  1  0  0  0  0
 17 16  2  0  0  0  0
 18 39  1  0  0  0  0
 18 19  1  0  0  0  0
 19 20  2  0  0  0  0
 21 19  1  0  0  0  0
 21 26  1  0  0  0  0
 22 40  1  0  0  0  0
 22 21  1  0  0  0  0
 23 24  1  0  0  0  0
 23 22  1  0  0  0  0
 24 25  1  0  0  0  0
 25 45  1  0  0  0  0
 25 26  1  0  0  0  0
 26 47  1  0  0  0  0
 26 46  1  0  0  0  0
 27 24  1  0  0  0  0
 28 27  2  0  0  0  0
 29 27  1  0  0  0  0
 30 48  1  0  0  0  0
 30 29  1  0  0  0  0
 31 52  1  0  0  0  0
 31 30  1  0  0  0  0
 34  6  1  0  0  0  0
 35  7  1  0  0  0  0
 36 10  1  0  0  0  0
 38 18  1  0  0  0  0
 41 22  1  0  0  0  0
 42 23  1  0  0  0  0
 43 23  1  0  0  0  0
 44 25  1  0  0  0  0
 49 30  1  0  0  0  0
 50 31  1  0  0  0  0
 51 31  1  0  0  0  0
M  END
>  <Pose>
1

>  <Score>
-6.07

$$$$
