
 OpenBabel03202209423D

 61 64  0  0  1  0  0  0  0  0999 V2000
  -49.7590  -64.1400   52.9990 B   0  0  0  0  0  0  0  0  0  0  0  0
  -47.9270  -64.6860   52.7470 C   0  0  0  0  0  0  0  0  0  0  0  0
  -47.0530  -63.9270   52.0130 C   0  0  0  0  0  0  0  0  0  0  0  0
  -45.7230  -64.2740   51.8000 C   0  0  0  0  0  0  0  0  0  0  0  0
  -45.2560  -65.4430   52.3570 C   0  0  0  0  0  0  0  0  0  0  0  0
  -46.1500  -66.2020   53.0980 C   0  0  0  0  0  0  0  0  0  0  0  0
  -47.4650  -65.8580   53.3070 C   0  0  0  0  0  0  0  0  0  0  0  0
  -43.8710  -65.8680   52.2130 C   0  0  0  0  0  0  0  0  0  0  0  0
  -43.6080  -66.4640   51.1110 O   0  0  0  0  0  0  0  0  0  0  0  0
  -42.8060  -65.6720   53.1960 C   0  0  2  0  0  0  0  0  0  0  0  0
  -41.4830  -66.2880   52.8300 C   0  0  1  0  0  0  0  0  0  0  0  0
  -41.4900  -67.5940   53.3180 N   0  0  0  0  0  0  0  0  0  0  0  0
  -42.1580  -67.4230   54.6320 C   0  0  0  0  0  0  0  0  0  0  0  0
  -41.9390  -68.0790   55.6860 O   0  0  0  0  0  0  0  0  0  0  0  0
  -43.1250  -66.3490   54.4730 C   0  0  0  0  0  0  0  0  0  0  0  0
  -44.0500  -66.0670   55.2860 O   0  0  0  0  0  0  0  0  0  0  0  0
  -40.9880  -68.9030   53.0370 C   0  0  0  0  0  0  0  0  0  0  0  0
  -39.5350  -69.1280   53.2230 C   0  0  0  0  0  0  0  0  0  0  0  0
  -38.9220  -70.3540   52.9370 N   0  0  0  0  0  4  0  0  0  0  0  0
  -38.7100  -70.5670   51.5000 C   0  0  0  0  0  0  0  0  0  0  0  0
  -37.7730  -69.5730   50.9000 C   0  0  0  0  0  0  0  0  0  0  0  0
  -37.1970  -68.8170   51.8960 O   0  0  0  0  0  0  0  0  0  0  0  0
  -36.5860  -69.6980   52.8030 C   0  0  0  0  0  0  0  0  0  0  0  0
  -37.6220  -70.4330   53.6280 C   0  0  0  0  0  0  0  0  0  0  0  0
  -40.8970  -65.8340   51.5940 C   0  0  0  0  0  0  0  0  0  0  0  0
  -40.6800  -64.5380   51.2480 C   0  0  0  0  0  0  0  0  0  0  0  0
  -40.0910  -64.2060   50.0380 C   0  0  0  0  0  0  0  0  0  0  0  0
  -39.7140  -65.2300   49.1570 C   0  0  0  0  0  0  0  0  0  0  0  0
  -39.9330  -66.5320   49.5060 C   0  0  0  0  0  0  0  0  0  0  0  0
  -40.5100  -66.8570   50.6940 C   0  0  0  0  0  0  0  0  0  0  0  0
  -39.1240  -64.9540   47.9400 O   0  0  0  0  0  0  0  0  0  0  0  0
  -39.8590  -62.9210   49.6650 O   0  0  0  0  0  0  0  0  0  0  0  0
  -40.4300  -62.3120   48.5530 C   0  0  0  0  0  0  0  0  0  0  0  0
  -39.4340  -61.9940   47.4520 C   0  0  0  0  0  0  0  0  0  0  0  0
  -47.4040  -62.9950   51.5630 H   0  0  0  0  0  0  0  0  0  0  0  0
  -45.1110  -63.6240   51.1890 H   0  0  0  0  0  0  0  0  0  0  0  0
  -45.8300  -67.1470   53.5660 H   0  0  0  0  0  0  0  0  0  0  0  0
  -48.1490  -66.4660   53.8890 H   0  0  0  0  0  0  0  0  0  0  0  0
  -42.6640  -64.5620   53.4050 H   0  0  0  0  0  0  0  0  0  0  0  0
  -40.7830  -65.7550   53.6830 H   0  0  0  0  0  0  0  0  0  0  0  0
  -41.5100  -69.6860   53.6620 H   0  0  0  0  0  0  0  0  0  0  0  0
  -41.2100  -69.1190   51.9490 H   0  0  0  0  0  0  0  0  0  0  0  0
  -39.2230  -68.8500   54.2950 H   0  0  0  0  0  0  0  0  0  0  0  0
  -38.9430  -68.3180   52.6530 H   0  0  0  0  0  0  0  0  0  0  0  0
  -39.4600  -71.1510   53.2690 H   0  0  0  0  0  0  0  0  0  0  0  0
  -39.6920  -70.6330   51.0210 H   0  0  0  0  0  0  0  0  0  0  0  0
  -38.2380  -71.5780   51.4280 H   0  0  0  0  0  0  0  0  0  0  0  0
  -36.9590  -70.0780   50.3350 H   0  0  0  0  0  0  0  0  0  0  0  0
  -38.3750  -68.9040   50.2390 H   0  0  0  0  0  0  0  0  0  0  0  0
  -35.9460  -70.4340   52.3140 H   0  0  0  0  0  0  0  0  0  0  0  0
  -36.0100  -69.0560   53.5070 H   0  0  0  0  0  0  0  0  0  0  0  0
  -37.3620  -71.4930   53.8050 H   0  0  0  0  0  0  0  0  0  0  0  0
  -37.7900  -69.9680   54.6210 H   0  0  0  0  0  0  0  0  0  0  0  0
  -40.9770  -63.6970   51.8830 H   0  0  0  0  0  0  0  0  0  0  0  0
  -39.6350  -67.3350   48.8130 H   0  0  0  0  0  0  0  0  0  0  0  0
  -40.6690  -67.9010   50.9400 H   0  0  0  0  0  0  0  0  0  0  0  0
  -41.2390  -62.9390   48.1090 H   0  0  0  0  0  0  0  0  0  0  0  0
  -40.9270  -61.3470   48.8200 H   0  0  0  0  0  0  0  0  0  0  0  0
  -39.5820  -62.7330   46.6200 H   0  0  0  0  0  0  0  0  0  0  0  0
  -39.6360  -60.9920   47.0460 H   0  0  0  0  0  0  0  0  0  0  0  0
  -38.4020  -62.0860   47.7880 H   0  0  0  0  0  0  0  0  0  0  0  0
  2  1  1  0  0  0  0
  2  7  1  0  0  0  0
  3  2  2  0  0  0  0
  4  3  1  0  0  0  0
  4  5  2  0  0  0  0
  5  6  1  0  0  0  0
  6  7  2  0  0  0  0
  6 37  1  0  0  0  0
  7 38  1  0  0  0  0
  8  5  1  0  0  0  0
  8 10  1  0  0  0  0
  9  8  2  0  0  0  0
 10 39  1  1  0  0  0
 10 15  1  0  0  0  0
 11 10  1  0  0  0  0
 11 12  1  0  0  0  0
 11 40  1  1  0  0  0
 12 13  1  0  0  0  0
 13 14  2  0  0  0  0
 15 13  1  0  0  0  0
 15 16  2  0  0  0  0
 17 18  1  0  0  0  0
 17 12  1  0  0  0  0
 17 41  1  0  0  0  0
 18 43  1  0  0  0  0
 19 18  1  0  0  0  0
 19 45  1  0  0  0  0
 19 24  1  0  0  0  0
 20 19  1  0  0  0  0
 21 20  1  0  0  0  0
 21 22  1  0  0  0  0
 22 23  1  0  0  0  0
 23 51  1  0  0  0  0
 23 24  1  0  0  0  0
 24 52  1  0  0  0  0
 24 53  1  0  0  0  0
 25 11  1  0  0  0  0
 26 25  1  0  0  0  0
 26 54  1  0  0  0  0
 27 26  2  0  0  0  0
 28 29  2  0  0  0  0
 28 27  1  0  0  0  0
 29 30  1  0  0  0  0
 30 56  1  0  0  0  0
 30 25  2  0  0  0  0
 31 28  1  0  0  0  0
 32 27  1  0  0  0  0
 33 58  1  0  0  0  0
 33 32  1  0  0  0  0
 34 61  1  0  0  0  0
 34 33  1  0  0  0  0
 35  3  1  0  0  0  0
 36  4  1  0  0  0  0
 42 17  1  0  0  0  0
 44 18  1  0  0  0  0
 46 20  1  0  0  0  0
 47 20  1  0  0  0  0
 48 21  1  0  0  0  0
 49 21  1  0  0  0  0
 50 23  1  0  0  0  0
 55 29  1  0  0  0  0
 57 33  1  0  0  0  0
 59 34  1  0  0  0  0
 60 34  1  0  0  0  0
M  END
>  <Pose>
1

>  <Score>
-5.79

$$$$
