
 OpenBabel03202209423D

 55 58  0  0  1  0  0  0  0  0999 V2000
  -51.5940  -59.8290   56.0990 Cl  0  0  0  0  0  0  0  0  0  0  0  0
  -51.0800  -60.9290   54.8410 C   0  0  0  0  0  0  0  0  0  0  0  0
  -50.2720  -62.0230   55.0980 C   0  0  0  0  0  0  0  0  0  0  0  0
  -49.8730  -62.8830   54.1020 C   0  0  0  0  0  0  0  0  0  0  0  0
  -49.1130  -63.9850   54.0880 N   0  0  0  0  0  0  0  0  0  0  0  0
  -49.0160  -64.4830   52.8240 C   0  0  0  0  0  0  0  0  0  0  0  0
  -49.7340  -63.6570   52.0780 N   0  0  0  0  0  0  0  0  0  0  0  0
  -50.2710  -62.6730   52.8050 C   0  0  0  0  0  0  0  0  0  0  0  0
  -51.0750  -61.5910   52.5240 C   0  0  0  0  0  0  0  0  0  0  0  0
  -51.4780  -60.7240   53.5320 C   0  0  0  0  0  0  0  0  0  0  0  0
  -48.2600  -65.7030   52.4530 C   0  0  0  0  0  0  0  0  0  0  0  0
  -46.8530  -65.3150   52.1010 C   0  0  0  0  0  0  0  0  0  0  0  0
  -45.9120  -66.0130   52.9940 C   0  0  0  0  0  0  0  0  0  0  0  0
  -46.3250  -66.8650   53.8220 O   0  0  0  0  0  0  0  0  0  0  0  0
  -44.5240  -65.6970   52.8980 N   0  0  0  0  0  0  0  0  0  0  0  0
  -43.7640  -65.7610   51.6700 C   0  0  0  0  0  0  0  0  0  0  0  0
  -42.3390  -66.2690   51.9480 C   0  0  1  0  0  0  0  0  0  0  0  0
  -42.4220  -67.0990   53.1820 C   0  0  2  0  0  0  0  0  0  0  0  0
  -42.6410  -66.1980   54.3750 C   0  0  0  0  0  0  0  0  0  0  0  0
  -43.8180  -65.2870   54.0930 C   0  0  0  0  0  0  0  0  0  0  0  0
  -41.3790  -68.0450   53.3710 N   0  0  0  0  0  0  0  0  0  0  0  0
  -40.2650  -68.0840   52.6250 C   0  0  0  0  0  0  0  0  0  0  0  0
  -39.2650  -69.0240   52.8390 C   0  0  0  0  0  0  0  0  0  0  0  0
  -39.4200  -69.9460   53.8480 C   0  0  0  0  0  0  0  0  0  0  0  0
  -38.5080  -70.8080   54.0490 O   0  0  0  0  0  0  0  0  0  0  0  0
  -40.5340  -69.9050   54.5920 N   0  0  0  0  0  0  0  0  0  0  0  0
  -41.4720  -68.9750   54.3450 C   0  0  0  0  0  0  0  0  0  0  0  0
  -42.5360  -68.9390   55.0590 O   0  0  0  0  0  0  0  0  0  0  0  0
  -38.0380  -69.0170   51.9710 C   0  0  0  0  0  0  0  0  0  0  0  0
  -41.9920  -67.0230   50.8170 O   0  0  0  0  0  0  0  0  0  0  0  0
  -41.4590  -65.0620   52.0430 C   0  0  0  0  0  0  0  0  0  0  0  0
  -49.9750  -62.1610   56.1290 H   0  0  0  0  0  0  0  0  0  0  0  0
  -48.6400  -64.4330   54.9200 H   0  0  0  0  0  0  0  0  0  0  0  0
  -51.3780  -61.4430   51.5030 H   0  0  0  0  0  0  0  0  0  0  0  0
  -52.1070  -59.8880   53.2710 H   0  0  0  0  0  0  0  0  0  0  0  0
  -48.7050  -66.1510   51.5270 H   0  0  0  0  0  0  0  0  0  0  0  0
  -48.2290  -66.4400   53.2820 H   0  0  0  0  0  0  0  0  0  0  0  0
  -46.6460  -65.5710   51.0300 H   0  0  0  0  0  0  0  0  0  0  0  0
  -46.7270  -64.2050   52.1380 H   0  0  0  0  0  0  0  0  0  0  0  0
  -44.2620  -66.3620   50.9110 H   0  0  0  0  0  0  0  0  0  0  0  0
  -43.7270  -64.7040   51.2730 H   0  0  0  0  0  0  0  0  0  0  0  0
  -43.3780  -67.6980   53.0910 H   0  0  0  0  0  0  0  0  0  0  0  0
  -42.9360  -66.7940   55.2820 H   0  0  0  0  0  0  0  0  0  0  0  0
  -41.7440  -65.6350   54.6770 H   0  0  0  0  0  0  0  0  0  0  0  0
  -44.5130  -65.2190   54.9530 H   0  0  0  0  0  0  0  0  0  0  0  0
  -43.4030  -64.2590   53.8740 H   0  0  0  0  0  0  0  0  0  0  0  0
  -40.1660  -67.3550   51.8450 H   0  0  0  0  0  0  0  0  0  0  0  0
  -40.6630  -70.5970   55.3590 H   0  0  0  0  0  0  0  0  0  0  0  0
  -37.6900  -70.0870   51.9070 H   0  0  0  0  0  0  0  0  0  0  0  0
  -38.3750  -68.7440   50.9590 H   0  0  0  0  0  0  0  0  0  0  0  0
  -37.2520  -68.3820   52.3860 H   0  0  0  0  0  0  0  0  0  0  0  0
  -42.6590  -66.8330   50.0820 H   0  0  0  0  0  0  0  0  0  0  0  0
  -42.0270  -64.0940   51.9180 H   0  0  0  0  0  0  0  0  0  0  0  0
  -40.7140  -65.0290   51.1950 H   0  0  0  0  0  0  0  0  0  0  0  0
  -40.8770  -64.9710   52.9570 H   0  0  0  0  0  0  0  0  0  0  0  0
  2  3  1  0  0  0  0
  2  1  1  0  0  0  0
  3 32  1  0  0  0  0
  4  3  2  0  0  0  0
  5  4  1  0  0  0  0
  5 33  1  0  0  0  0
  6  5  1  0  0  0  0
  7  8  1  0  0  0  0
  7  6  2  0  0  0  0
  8  4  1  0  0  0  0
  9  8  2  0  0  0  0
  9 10  1  0  0  0  0
 10  2  2  0  0  0  0
 11  6  1  0  0  0  0
 11 37  1  0  0  0  0
 12 39  1  0  0  0  0
 12 11  1  0  0  0  0
 12 13  1  0  0  0  0
 13 14  2  0  0  0  0
 15 13  1  0  0  0  0
 15 20  1  0  0  0  0
 16 17  1  0  0  0  0
 16 15  1  0  0  0  0
 17 30  1  6  0  0  0
 17 31  1  0  0  0  0
 17 18  1  0  0  0  0
 18 42  1  6  0  0  0
 18 21  1  0  0  0  0
 18 19  1  0  0  0  0
 19 44  1  0  0  0  0
 19 43  1  0  0  0  0
 20 19  1  0  0  0  0
 20 45  1  0  0  0  0
 21 27  1  0  0  0  0
 22 23  2  0  0  0  0
 22 21  1  0  0  0  0
 23 24  1  0  0  0  0
 24 25  2  0  0  0  0
 24 26  1  0  0  0  0
 26 48  1  0  0  0  0
 27 26  1  0  0  0  0
 27 28  2  0  0  0  0
 29 51  1  0  0  0  0
 29 23  1  0  0  0  0
 31 55  1  0  0  0  0
 34  9  1  0  0  0  0
 35 10  1  0  0  0  0
 36 11  1  0  0  0  0
 38 12  1  0  0  0  0
 40 16  1  0  0  0  0
 41 16  1  0  0  0  0
 46 20  1  0  0  0  0
 47 22  1  0  0  0  0
 49 29  1  0  0  0  0
 50 29  1  0  0  0  0
 52 30  1  0  0  0  0
 53 31  1  0  0  0  0
 54 31  1  0  0  0  0
M  END
>  <Pose>
1

>  <Score>
-7.12

$$$$
