
 OpenBabel03202209423D

 48 51  0  0  0  0  0  0  0  0999 V2000
  -43.8930  -66.0080   54.2060 S   0  0  0  0  0  0  0  0  0  0  0  0
  -44.0310  -65.7180   55.6950 O   0  0  0  0  0  0  0  0  0  0  0  0
  -45.1790  -66.7140   53.8220 O   0  0  0  0  0  0  0  0  0  0  0  0
  -43.8200  -64.5480   53.3810 N   0  0  0  0  0  0  0  0  0  0  0  0
  -43.2480  -64.5750   52.0810 C   0  0  0  0  0  0  0  0  0  0  0  0
  -44.1410  -63.9780   51.0230 C   0  0  0  0  0  0  0  0  0  0  0  0
  -45.5390  -64.1850   51.2990 N   0  0  0  0  0  0  0  0  0  0  0  0
  -46.0580  -63.8570   52.6050 C   0  0  0  0  0  0  0  0  0  0  0  0
  -44.9050  -63.6500   53.5380 C   0  0  0  0  0  0  0  0  0  0  0  0
  -46.4330  -64.7040   50.3290 C   0  0  0  0  0  0  0  0  0  0  0  0
  -47.1150  -65.7060   50.6160 O   0  0  0  0  0  0  0  0  0  0  0  0
  -46.5780  -64.0900   48.9900 C   0  0  0  0  0  0  0  0  0  0  0  0
  -45.9530  -62.8010   48.9390 N   0  0  0  0  0  0  0  0  0  0  0  0
  -46.4310  -61.5400   49.3880 C   0  0  0  0  0  0  0  0  0  0  0  0
  -47.5440  -61.3630   49.9300 O   0  0  0  0  0  0  0  0  0  0  0  0
  -45.4170  -60.5380   49.1060 C   0  0  0  0  0  0  0  0  0  0  0  0
  -44.3410  -61.1450   48.5030 C   0  0  0  0  0  0  0  0  0  0  0  0
  -43.2420  -60.3790   48.1390 C   0  0  0  0  0  0  0  0  0  0  0  0
  -43.2000  -59.0310   48.3660 C   0  0  0  0  0  0  0  0  0  0  0  0
  -44.2840  -58.4020   48.9770 C   0  0  0  0  0  0  0  0  0  0  0  0
  -45.3720  -59.1850   49.3330 C   0  0  0  0  0  0  0  0  0  0  0  0
  -44.6520  -62.5640   48.3870 C   0  0  0  0  0  0  0  0  0  0  0  0
  -43.8550  -63.3910   47.8720 O   0  0  0  0  0  0  0  0  0  0  0  0
  -42.5930  -67.1000   53.9160 C   0  0  0  0  0  0  0  0  0  0  0  0
  -42.3690  -68.1520   54.7880 C   0  0  0  0  0  0  0  0  0  0  0  0
  -41.3430  -69.0560   54.6020 C   0  0  0  0  0  0  0  0  0  0  0  0
  -40.5230  -68.8870   53.5010 C   0  0  0  0  0  0  0  0  0  0  0  0
  -40.7580  -67.8340   52.6400 C   0  0  0  0  0  0  0  0  0  0  0  0
  -41.7800  -66.9240   52.8140 C   0  0  0  0  0  0  0  0  0  0  0  0
  -39.0720  -70.1130   53.1810 B   0  0  0  0  0  0  0  0  0  0  0  0
  -42.3210  -63.9300   52.1120 H   0  0  0  0  0  0  0  0  0  0  0  0
  -42.8950  -65.5930   51.8160 H   0  0  0  0  0  0  0  0  0  0  0  0
  -43.8720  -64.4180   50.0440 H   0  0  0  0  0  0  0  0  0  0  0  0
  -43.9280  -62.8820   50.9260 H   0  0  0  0  0  0  0  0  0  0  0  0
  -46.6090  -62.8720   52.5540 H   0  0  0  0  0  0  0  0  0  0  0  0
  -46.7570  -64.6450   52.9230 H   0  0  0  0  0  0  0  0  0  0  0  0
  -45.2390  -63.6170   54.5920 H   0  0  0  0  0  0  0  0  0  0  0  0
  -44.5110  -62.6120   53.3310 H   0  0  0  0  0  0  0  0  0  0  0  0
  -47.6820  -63.9700   48.8090 H   0  0  0  0  0  0  0  0  0  0  0  0
  -46.1600  -64.7520   48.1980 H   0  0  0  0  0  0  0  0  0  0  0  0
  -42.4160  -60.8770   47.6690 H   0  0  0  0  0  0  0  0  0  0  0  0
  -42.3570  -58.4420   48.0870 H   0  0  0  0  0  0  0  0  0  0  0  0
  -44.3050  -57.3550   49.1770 H   0  0  0  0  0  0  0  0  0  0  0  0
  -46.2110  -58.6900   49.8070 H   0  0  0  0  0  0  0  0  0  0  0  0
  -42.9960  -68.3200   55.6710 H   0  0  0  0  0  0  0  0  0  0  0  0
  -41.1450  -69.8870   55.2670 H   0  0  0  0  0  0  0  0  0  0  0  0
  -40.1160  -67.6850   51.7600 H   0  0  0  0  0  0  0  0  0  0  0  0
  -41.9240  -66.1050   52.1020 H   0  0  0  0  0  0  0  0  0  0  0  0
  1  2  2  0  0  0  0
  3  1  2  0  0  0  0
  4  9  1  0  0  0  0
  4  1  1  0  0  0  0
  5 31  1  0  0  0  0
  5  4  1  0  0  0  0
  6  7  1  0  0  0  0
  6  5  1  0  0  0  0
  7  8  1  0  0  0  0
  8 36  1  0  0  0  0
  8  9  1  0  0  0  0
  9 37  1  0  0  0  0
 10 11  2  0  0  0  0
 10  7  1  0  0  0  0
 12 10  1  0  0  0  0
 13 12  1  0  0  0  0
 13 14  1  0  0  0  0
 14 15  2  0  0  0  0
 16 21  1  0  0  0  0
 16 14  1  0  0  0  0
 17 16  2  0  0  0  0
 18 19  2  0  0  0  0
 18 17  1  0  0  0  0
 19 20  1  0  0  0  0
 20 43  1  0  0  0  0
 20 21  2  0  0  0  0
 21 44  1  0  0  0  0
 22 17  1  0  0  0  0
 22 13  1  0  0  0  0
 23 22  2  0  0  0  0
 24  1  1  0  0  0  0
 24 25  1  0  0  0  0
 25 45  1  0  0  0  0
 26 25  2  0  0  0  0
 26 46  1  0  0  0  0
 27 26  1  0  0  0  0
 28 29  1  0  0  0  0
 28 27  2  0  0  0  0
 29 24  2  0  0  0  0
 30 27  1  0  0  0  0
 32  5  1  0  0  0  0
 33  6  1  0  0  0  0
 34  6  1  0  0  0  0
 35  8  1  0  0  0  0
 38  9  1  0  0  0  0
 39 12  1  0  0  0  0
 40 12  1  0  0  0  0
 41 18  1  0  0  0  0
 42 19  1  0  0  0  0
 47 28  1  0  0  0  0
 48 29  1  0  0  0  0
M  END
>  <Pose>
1

>  <Score>
-5.53

$$$$
