
 OpenBabel03202209423D

 51 55  0  0  1  0  0  0  0  0999 V2000
  -40.4030  -69.0700   55.0880 Cl  0  0  0  0  0  0  0  0  0  0  0  0
  -40.8090  -68.1400   53.6640 C   0  0  0  0  0  0  0  0  0  0  0  0
  -41.8810  -67.2520   53.7680 C   0  0  0  0  0  0  0  0  0  0  0  0
  -42.2320  -66.5010   52.6680 C   0  0  0  0  0  0  0  0  0  0  0  0
  -41.4920  -66.6680   51.4970 C   0  0  0  0  0  0  0  0  0  0  0  0
  -40.4350  -67.5480   51.4030 C   0  0  0  0  0  0  0  0  0  0  0  0
  -40.0840  -68.2990   52.5050 C   0  0  0  0  0  0  0  0  0  0  0  0
  -43.3730  -65.6380   52.9720 C   0  0  1  0  0  0  0  0  0  0  0  0
  -43.0960  -64.2330   52.7390 N   0  0  0  0  0  0  0  0  0  0  0  0
  -44.4030  -63.6090   52.5740 C   0  0  2  0  0  0  0  0  0  0  0  0
  -45.2790  -64.6370   51.9130 C   0  0  1  0  0  0  0  0  0  0  0  0
  -44.5970  -65.9620   52.1450 C   0  0  2  0  0  0  0  0  0  0  0  0
  -45.5670  -66.7910   52.9050 C   0  0  0  0  0  0  0  0  0  0  0  0
  -45.2490  -67.9180   53.3740 O   0  0  0  0  0  0  0  0  0  0  0  0
  -46.8100  -66.1130   52.9830 N   0  0  0  0  0  0  0  0  0  0  0  0
  -46.5610  -64.7460   52.6920 C   0  0  0  0  0  0  0  0  0  0  0  0
  -47.2550  -63.7370   53.0020 O   0  0  0  0  0  0  0  0  0  0  0  0
  -48.0670  -66.6930   53.2910 C   0  0  0  0  0  0  0  0  0  0  0  0
  -48.9030  -66.0060   54.2960 C   0  0  2  0  0  0  0  0  0  0  0  0
  -49.6100  -66.8410   55.1490 O   0  0  0  0  0  0  0  0  0  0  0  0
  -50.1860  -65.9110   56.0160 C   0  0  0  0  0  0  0  0  0  0  0  0
  -50.7270  -64.8070   55.0990 C   0  0  0  0  0  0  0  0  0  0  0  0
  -49.9490  -65.0760   53.8000 C   0  0  0  0  0  0  0  0  0  0  0  0
  -44.2490  -62.3690   51.7430 C   0  0  0  0  0  0  0  0  0  0  0  0
  -44.6420  -62.7270   50.3430 C   0  0  0  0  0  0  0  0  0  0  0  0
  -45.7740  -62.3360   49.9590 O   0  0  0  0  0  0  0  0  0  0  0  0
  -43.7970  -63.4670   49.4770 N   0  0  0  0  0  0  0  0  0  0  0  0
  -43.6910  -65.9230   54.3800 C   0  0  0  0  0  0  0  0  0  0  0  0
  -44.6210  -65.3940   55.0930 O   0  0  0  0  0  0  0  0  0  0  0  0
  -42.7700  -66.9040   54.8220 N   0  0  0  0  0  0  0  0  0  0  0  0
  -41.7240  -66.1030   50.5990 H   0  0  0  0  0  0  0  0  0  0  0  0
  -39.8630  -67.6750   50.4930 H   0  0  0  0  0  0  0  0  0  0  0  0
  -39.2500  -68.9850   52.4130 H   0  0  0  0  0  0  0  0  0  0  0  0
  -42.4940  -64.0870   51.8990 H   0  0  0  0  0  0  0  0  0  0  0  0
  -44.7690  -63.3760   53.5870 H   0  0  0  0  0  0  0  0  0  0  0  0
  -45.4550  -64.4080   50.8600 H   0  0  0  0  0  0  0  0  0  0  0  0
  -44.3290  -66.4240   51.1970 H   0  0  0  0  0  0  0  0  0  0  0  0
  -48.7000  -66.7770   52.3570 H   0  0  0  0  0  0  0  0  0  0  0  0
  -47.9840  -67.7690   53.6250 H   0  0  0  0  0  0  0  0  0  0  0  0
  -48.2180  -65.4130   54.9500 H   0  0  0  0  0  0  0  0  0  0  0  0
  -49.4450  -65.4460   56.6850 H   0  0  0  0  0  0  0  0  0  0  0  0
  -50.9810  -66.3500   56.6380 H   0  0  0  0  0  0  0  0  0  0  0  0
  -51.7980  -64.9510   54.9840 H   0  0  0  0  0  0  0  0  0  0  0  0
  -50.4410  -63.7980   55.4800 H   0  0  0  0  0  0  0  0  0  0  0  0
  -50.6780  -65.4870   53.1050 H   0  0  0  0  0  0  0  0  0  0  0  0
  -49.5350  -64.1100   53.4290 H   0  0  0  0  0  0  0  0  0  0  0  0
  -43.1750  -62.0830   51.7780 H   0  0  0  0  0  0  0  0  0  0  0  0
  -44.8760  -61.5650   52.1430 H   0  0  0  0  0  0  0  0  0  0  0  0
  -42.8770  -63.0570   49.2240 H   0  0  0  0  0  0  0  0  0  0  0  0
  -44.0390  -64.3960   49.0800 H   0  0  0  0  0  0  0  0  0  0  0  0
  -42.7370  -67.3240   55.7900 H   0  0  0  0  0  0  0  0  0  0  0  0
  2  3  1  0  0  0  0
  2  1  1  0  0  0  0
  3 30  1  0  0  0  0
  4  3  2  0  0  0  0
  5  4  1  0  0  0  0
  6  5  2  0  0  0  0
  6  7  1  0  0  0  0
  7  2  2  0  0  0  0
  8  4  1  6  0  0  0
  8 28  1  0  0  0  0
  9  8  1  0  0  0  0
 10  9  1  0  0  0  0
 10 35  1  1  0  0  0
 11 36  1  6  0  0  0
 11 12  1  0  0  0  0
 11 10  1  0  0  0  0
 11 16  1  0  0  0  0
 12 37  1  6  0  0  0
 12 13  1  0  0  0  0
 12  8  1  0  0  0  0
 13 15  1  0  0  0  0
 13 14  2  0  0  0  0
 15 18  1  0  0  0  0
 16 15  1  0  0  0  0
 16 17  2  0  0  0  0
 18 39  1  0  0  0  0
 18 19  1  0  0  0  0
 19 40  1  1  0  0  0
 19 20  1  0  0  0  0
 20 21  1  0  0  0  0
 21 42  1  0  0  0  0
 21 41  1  0  0  0  0
 22 44  1  0  0  0  0
 22 21  1  0  0  0  0
 23 19  1  0  0  0  0
 23 22  1  0  0  0  0
 24 47  1  0  0  0  0
 24 48  1  0  0  0  0
 24 10  1  0  0  0  0
 25 24  1  0  0  0  0
 26 25  2  0  0  0  0
 27 25  1  0  0  0  0
 28 30  1  0  0  0  0
 28 29  2  0  0  0  0
 30 51  1  0  0  0  0
 31  5  1  0  0  0  0
 32  6  1  0  0  0  0
 33  7  1  0  0  0  0
 34  9  1  0  0  0  0
 38 18  1  0  0  0  0
 43 22  1  0  0  0  0
 45 23  1  0  0  0  0
 46 23  1  0  0  0  0
 49 27  1  0  0  0  0
 50 27  1  0  0  0  0
M  END
>  <Pose>
1

>  <Score>
-5.82

$$$$
