
 OpenBabel03202209423D

 53 56  0  0  1  0  0  0  0  0999 V2000
  -48.1160  -68.3480   53.9000 B   0  0  0  0  0  0  0  0  0  0  0  0
  -49.1510  -66.8910   54.5580 C   0  0  0  0  0  0  0  0  0  0  0  0
  -49.3650  -65.8130   53.7290 C   0  0  0  0  0  0  0  0  0  0  0  0
  -50.1150  -64.7670   54.2190 C   0  0  0  0  0  0  0  0  0  0  0  0
  -50.6390  -64.8020   55.5150 C   0  0  0  0  0  0  0  0  0  0  0  0
  -50.4060  -65.8980   56.3230 C   0  0  0  0  0  0  0  0  0  0  0  0
  -49.6650  -66.9420   55.8520 C   0  0  0  0  0  0  0  0  0  0  0  0
  -50.9560  -65.9600   57.7130 C   0  0  0  0  0  0  0  0  0  0  0  0
  -50.4300  -63.2620   53.0980 B   0  0  0  0  0  0  0  0  0  0  0  0
  -48.8490  -65.8000   52.4760 O   0  0  0  0  0  0  0  0  0  0  0  0
  -47.9780  -64.8610   51.9160 C   0  0  0  0  0  0  0  0  0  0  0  0
  -46.8580  -65.6520   51.2400 C   0  0  1  0  0  0  0  0  0  0  0  0
  -46.1820  -64.8730   50.3030 O   0  0  0  0  0  0  0  0  0  0  0  0
  -45.9180  -66.0740   52.3230 C   0  0  0  0  0  0  0  0  0  0  0  0
  -44.6390  -65.3930   52.2890 N   0  0  0  0  0  4  0  0  0  0  0  0
  -44.3910  -64.8970   53.6010 C   0  0  0  0  0  0  0  0  0  0  0  0
  -43.0500  -65.2350   54.1720 C   0  0  1  0  0  0  0  0  0  0  0  0
  -42.8920  -66.6580   54.5750 C   0  0  0  0  0  0  0  0  0  0  0  0
  -41.9490  -67.4090   53.7940 N   0  0  0  0  0  0  0  0  0  0  0  0
  -41.5680  -67.0900   52.5430 C   0  0  0  0  0  0  0  0  0  0  0  0
  -40.6720  -67.8040   51.7990 C   0  0  0  0  0  0  0  0  0  0  0  0
  -40.1060  -68.9340   52.3520 C   0  0  0  0  0  0  0  0  0  0  0  0
  -40.4900  -69.2670   53.6300 C   0  0  0  0  0  0  0  0  0  0  0  0
  -41.3950  -68.5250   54.3500 C   0  0  0  0  0  0  0  0  0  0  0  0
  -41.7230  -68.8600   55.5170 O   0  0  0  0  0  0  0  0  0  0  0  0
  -42.2250  -65.8430   51.9960 C   0  0  1  0  0  0  0  0  0  0  0  0
  -43.6310  -66.1890   51.7020 C   0  0  0  0  0  0  0  0  0  0  0  0
  -42.0410  -64.8240   53.0930 C   0  0  0  0  0  0  0  0  0  0  0  0
  -51.2280  -63.9870   55.9090 H   0  0  0  0  0  0  0  0  0  0  0  0
  -49.4990  -67.7890   56.5100 H   0  0  0  0  0  0  0  0  0  0  0  0
  -50.1790  -66.3800   58.3790 H   0  0  0  0  0  0  0  0  0  0  0  0
  -51.8170  -66.6870   57.7400 H   0  0  0  0  0  0  0  0  0  0  0  0
  -51.3130  -64.9630   58.0560 H   0  0  0  0  0  0  0  0  0  0  0  0
  -48.4470  -64.1480   51.2270 H   0  0  0  0  0  0  0  0  0  0  0  0
  -47.4990  -64.2840   52.7330 H   0  0  0  0  0  0  0  0  0  0  0  0
  -47.3370  -66.4700   50.7010 H   0  0  0  0  0  0  0  0  0  0  0  0
  -45.4000  -65.4190   50.0060 H   0  0  0  0  0  0  0  0  0  0  0  0
  -46.3910  -65.8510   53.3010 H   0  0  0  0  0  0  0  0  0  0  0  0
  -45.7190  -67.1650   52.3130 H   0  0  0  0  0  0  0  0  0  0  0  0
  -44.7930  -64.5510   51.6560 H   0  0  0  0  0  0  0  0  0  0  0  0
  -44.4840  -63.7710   53.6550 H   0  0  0  0  0  0  0  0  0  0  0  0
  -45.1530  -65.2500   54.3580 H   0  0  0  0  0  0  0  0  0  0  0  0
  -42.8630  -64.5250   55.0280 H   0  0  0  0  0  0  0  0  0  0  0  0
  -42.5090  -66.6800   55.6380 H   0  0  0  0  0  0  0  0  0  0  0  0
  -43.8700  -67.2080   54.6330 H   0  0  0  0  0  0  0  0  0  0  0  0
  -40.4370  -67.4590   50.8040 H   0  0  0  0  0  0  0  0  0  0  0  0
  -39.3980  -69.5030   51.7700 H   0  0  0  0  0  0  0  0  0  0  0  0
  -40.0630  -70.1520   54.0950 H   0  0  0  0  0  0  0  0  0  0  0  0
  -41.6420  -65.4830   51.1210 H   0  0  0  0  0  0  0  0  0  0  0  0
  -43.7500  -66.1170   50.5780 H   0  0  0  0  0  0  0  0  0  0  0  0
  -43.8830  -67.2700   51.9150 H   0  0  0  0  0  0  0  0  0  0  0  0
  -42.2340  -63.7980   52.7830 H   0  0  0  0  0  0  0  0  0  0  0  0
  -41.0370  -64.9430   53.5830 H   0  0  0  0  0  0  0  0  0  0  0  0
  1  2  1  0  0  0  0
  2  7  1  0  0  0  0
  3  4  1  0  0  0  0
  3  2  2  0  0  0  0
  4  5  2  0  0  0  0
  5 29  1  0  0  0  0
  5  6  1  0  0  0  0
  6  8  1  0  0  0  0
  7  6  2  0  0  0  0
  7 30  1  0  0  0  0
  8 32  1  0  0  0  0
  8 33  1  0  0  0  0
  8 31  1  0  0  0  0
  9  4  1  0  0  0  0
 10  3  1  0  0  0  0
 11 10  1  0  0  0  0
 11 35  1  0  0  0  0
 12 36  1  6  0  0  0
 12 11  1  0  0  0  0
 12 14  1  0  0  0  0
 13 12  1  0  0  0  0
 14 38  1  0  0  0  0
 15 14  1  0  0  0  0
 15 16  1  0  0  0  0
 16 41  1  0  0  0  0
 16 17  1  0  0  0  0
 16 42  1  0  0  0  0
 17 18  1  0  0  0  0
 17 43  1  1  0  0  0
 18 45  1  0  0  0  0
 18 44  1  0  0  0  0
 19 24  1  0  0  0  0
 19 18  1  0  0  0  0
 20 19  1  0  0  0  0
 21 22  1  0  0  0  0
 21 20  2  0  0  0  0
 22 23  2  0  0  0  0
 23 48  1  0  0  0  0
 23 24  1  0  0  0  0
 24 25  2  0  0  0  0
 26 49  1  6  0  0  0
 26 20  1  0  0  0  0
 26 28  1  0  0  0  0
 27 51  1  0  0  0  0
 27 26  1  0  0  0  0
 27 15  1  0  0  0  0
 28 53  1  0  0  0  0
 28 17  1  0  0  0  0
 34 11  1  0  0  0  0
 37 13  1  0  0  0  0
 39 14  1  0  0  0  0
 40 15  1  0  0  0  0
 46 21  1  0  0  0  0
 47 22  1  0  0  0  0
 50 27  1  0  0  0  0
 52 28  1  0  0  0  0
M  END
>  <Pose>
1

>  <Score>
-5.70

$$$$
