
 OpenBabel03202209423D

 47 50  0  0  1  0  0  0  0  0999 V2000
  -46.6090  -60.0740   48.9270 Cl  0  0  0  0  0  0  0  0  0  0  0  0
  -47.8320  -61.2570   49.3060 C   0  0  0  0  0  0  0  0  0  0  0  0
  -47.5530  -62.2260   50.2440 C   0  0  0  0  0  0  0  0  0  0  0  0
  -48.4860  -63.2060   50.6020 C   0  0  0  0  0  0  0  0  0  0  0  0
  -49.6980  -63.1470   49.9660 C   0  0  0  0  0  0  0  0  0  0  0  0
  -49.9850  -62.1810   49.0260 C   0  0  0  0  0  0  0  0  0  0  0  0
  -49.0470  -61.2060   48.6760 C   0  0  0  0  0  0  0  0  0  0  0  0
  -48.1030  -64.1510   51.5910 N   0  0  0  0  0  0  0  0  0  0  0  0
  -48.3510  -64.0100   52.9810 C   0  0  0  0  0  0  0  0  0  0  0  0
  -48.9080  -63.0030   53.4390 O   0  0  0  0  0  0  0  0  0  0  0  0
  -47.9520  -65.0470   53.8890 N   0  0  0  0  0  0  0  0  0  0  0  0
  -47.3090  -66.2290   53.4160 C   0  0  0  0  0  0  0  0  0  0  0  0
  -47.3290  -67.2960   54.0530 O   0  0  0  0  0  0  0  0  0  0  0  0
  -46.5820  -66.1650   52.0980 C   0  0  1  0  0  0  0  0  0  0  0  0
  -47.4430  -65.3730   51.1950 C   0  0  0  0  0  0  0  0  0  0  0  0
  -47.6460  -65.7440   49.9830 O   0  0  0  0  0  0  0  0  0  0  0  0
  -45.2350  -65.5570   52.3100 C   0  0  0  0  0  0  0  0  0  0  0  0
  -44.5920  -65.3350   53.4380 C   0  0  0  0  0  0  0  0  0  0  0  0
  -43.2790  -64.7090   53.1220 C   0  0  2  0  0  0  0  0  0  0  0  0
  -43.5770  -64.1050   51.7980 N   0  0  0  0  0  0  0  0  0  0  0  0
  -44.4140  -65.0780   51.2370 N   0  0  0  0  0  0  0  0  0  0  0  0
  -42.2820  -65.7810   52.8550 C   0  0  0  0  0  0  0  0  0  0  0  0
  -42.2890  -66.9900   53.5820 C   0  0  0  0  0  0  0  0  0  0  0  0
  -41.4210  -68.0120   53.3510 C   0  0  0  0  0  0  0  0  0  0  0  0
  -40.4710  -67.8840   52.3540 C   0  0  0  0  0  0  0  0  0  0  0  0
  -40.4350  -66.7180   51.6260 C   0  0  0  0  0  0  0  0  0  0  0  0
  -41.3200  -65.6920   51.8710 C   0  0  0  0  0  0  0  0  0  0  0  0
  -39.5760  -68.9190   52.1030 O   0  0  0  0  0  0  0  0  0  0  0  0
  -41.4680  -69.1920   54.1060 O   0  0  0  0  0  0  0  0  0  0  0  0
  -40.6740  -69.3050   55.2670 C   0  0  0  0  0  0  0  0  0  0  0  0
  -46.5790  -62.2710   50.7560 H   0  0  0  0  0  0  0  0  0  0  0  0
  -50.4410  -63.8780   50.2040 H   0  0  0  0  0  0  0  0  0  0  0  0
  -50.9450  -62.1360   48.5190 H   0  0  0  0  0  0  0  0  0  0  0  0
  -49.2780  -60.4490   47.9410 H   0  0  0  0  0  0  0  0  0  0  0  0
  -48.1400  -64.9240   54.8920 H   0  0  0  0  0  0  0  0  0  0  0  0
  -46.4900  -67.1730   51.6480 H   0  0  0  0  0  0  0  0  0  0  0  0
  -44.9140  -65.5480   54.4420 H   0  0  0  0  0  0  0  0  0  0  0  0
  -42.9540  -63.9720   53.8510 H   0  0  0  0  0  0  0  0  0  0  0  0
  -44.0540  -63.1910   51.9280 H   0  0  0  0  0  0  0  0  0  0  0  0
  -44.4520  -65.3960   50.2740 H   0  0  0  0  0  0  0  0  0  0  0  0
  -43.0400  -67.0600   54.3520 H   0  0  0  0  0  0  0  0  0  0  0  0
  -39.6760  -66.6530   50.8620 H   0  0  0  0  0  0  0  0  0  0  0  0
  -41.2660  -64.7850   51.2770 H   0  0  0  0  0  0  0  0  0  0  0  0
  -39.9350  -69.8140   51.7950 H   0  0  0  0  0  0  0  0  0  0  0  0
  -41.0280  -68.6390   56.0620 H   0  0  0  0  0  0  0  0  0  0  0  0
  -40.7790  -70.3650   55.6100 H   0  0  0  0  0  0  0  0  0  0  0  0
  -39.6080  -69.1440   54.9770 H   0  0  0  0  0  0  0  0  0  0  0  0
  1  2  1  0  0  0  0
  2  3  1  0  0  0  0
  3  4  2  0  0  0  0
  3 31  1  0  0  0  0
  4  8  1  0  0  0  0
  5 32  1  0  0  0  0
  5  4  1  0  0  0  0
  6  5  2  0  0  0  0
  7  6  1  0  0  0  0
  7  2  2  0  0  0  0
  8  9  1  0  0  0  0
  9 10  2  0  0  0  0
  9 11  1  0  0  0  0
 11 35  1  0  0  0  0
 12 11  1  0  0  0  0
 12 13  2  0  0  0  0
 14 36  1  6  0  0  0
 14 17  1  0  0  0  0
 14 12  1  0  0  0  0
 15  8  1  0  0  0  0
 15 14  1  0  0  0  0
 16 15  2  0  0  0  0
 17 18  2  0  0  0  0
 18 37  1  0  0  0  0
 19 18  1  0  0  0  0
 19 38  1  1  0  0  0
 20 39  1  0  0  0  0
 20 19  1  0  0  0  0
 21 20  1  0  0  0  0
 21 17  1  0  0  0  0
 22 19  1  0  0  0  0
 22 23  1  0  0  0  0
 23 41  1  0  0  0  0
 24 23  2  0  0  0  0
 24 29  1  0  0  0  0
 25 24  1  0  0  0  0
 26 27  1  0  0  0  0
 26 25  2  0  0  0  0
 27 22  2  0  0  0  0
 28 25  1  0  0  0  0
 29 30  1  0  0  0  0
 30 46  1  0  0  0  0
 30 45  1  0  0  0  0
 33  6  1  0  0  0  0
 34  7  1  0  0  0  0
 40 21  1  0  0  0  0
 42 26  1  0  0  0  0
 43 27  1  0  0  0  0
 44 28  1  0  0  0  0
 47 30  1  0  0  0  0
M  END
>  <Pose>
1

>  <Score>
-6.01

$$$$
