
 OpenBabel03202209423D

 42 45  0  0  0  0  0  0  0  0999 V2000
  -50.3690  -63.5070   51.4790 Cl  0  0  0  0  0  0  0  0  0  0  0  0
  -48.9080  -64.2800   52.0990 C   0  0  0  0  0  0  0  0  0  0  0  0
  -47.6860  -63.6690   52.0820 C   0  0  0  0  0  0  0  0  0  0  0  0
  -46.5240  -64.2400   52.5570 C   0  0  0  0  0  0  0  0  0  0  0  0
  -46.6200  -65.5250   53.0830 C   0  0  0  0  0  0  0  0  0  0  0  0
  -47.8700  -66.1580   53.1040 C   0  0  0  0  0  0  0  0  0  0  0  0
  -48.9930  -65.5480   52.6210 C   0  0  0  0  0  0  0  0  0  0  0  0
  -45.4720  -66.1730   53.5880 N   0  0  0  0  0  0  0  0  0  0  0  0
  -45.4200  -66.8740   54.6950 N   0  0  0  0  0  0  0  0  0  0  0  0
  -44.1700  -67.3110   54.8120 N   0  0  0  0  0  0  0  0  0  0  0  0
  -43.4170  -66.8900   53.7780 C   0  0  0  0  0  0  0  0  0  0  0  0
  -44.2530  -66.1750   53.0190 C   0  0  0  0  0  0  0  0  0  0  0  0
  -43.4810  -65.7400   51.9510 C   0  0  0  0  0  0  0  0  0  0  0  0
  -43.9180  -65.0320   51.0160 O   0  0  0  0  0  0  0  0  0  0  0  0
  -42.2130  -66.1680   52.0450 N   0  0  0  0  0  0  0  0  0  0  0  0
  -42.1720  -66.8850   53.1830 C   0  0  0  0  0  0  0  0  0  0  0  0
  -41.1440  -67.4690   53.6410 O   0  0  0  0  0  0  0  0  0  0  0  0
  -41.1180  -65.9390   51.1620 C   0  0  0  0  0  0  0  0  0  0  0  0
  -40.7110  -64.6750   50.7820 C   0  0  0  0  0  0  0  0  0  0  0  0
  -39.6490  -64.4630   49.9280 C   0  0  0  0  0  0  0  0  0  0  0  0
  -38.9370  -65.5220   49.4040 C   0  0  0  0  0  0  0  0  0  0  0  0
  -39.3330  -66.7900   49.7740 C   0  0  0  0  0  0  0  0  0  0  0  0
  -40.3980  -66.9930   50.6320 C   0  0  0  0  0  0  0  0  0  0  0  0
  -37.8670  -65.2970   48.5410 O   0  0  0  0  0  0  0  0  0  0  0  0
  -37.4630  -66.1990   47.5570 C   0  0  0  0  0  0  0  0  0  0  0  0
  -39.2390  -63.1890   49.5450 O   0  0  0  0  0  0  0  0  0  0  0  0
  -39.8650  -62.6180   48.4110 C   0  0  0  0  0  0  0  0  0  0  0  0
  -47.6180  -62.6630   51.6670 H   0  0  0  0  0  0  0  0  0  0  0  0
  -45.5700  -63.7270   52.5280 H   0  0  0  0  0  0  0  0  0  0  0  0
  -47.9550  -67.1680   53.5170 H   0  0  0  0  0  0  0  0  0  0  0  0
  -49.9780  -66.0310   52.6310 H   0  0  0  0  0  0  0  0  0  0  0  0
  -46.2180  -67.0620   55.3730 H   0  0  0  0  0  0  0  0  0  0  0  0
  -43.8460  -67.9030   55.6140 H   0  0  0  0  0  0  0  0  0  0  0  0
  -41.2630  -63.8420   51.1880 H   0  0  0  0  0  0  0  0  0  0  0  0
  -38.7750  -67.6220   49.3640 H   0  0  0  0  0  0  0  0  0  0  0  0
  -40.7000  -67.9950   50.9170 H   0  0  0  0  0  0  0  0  0  0  0  0
  -36.4150  -66.0500   47.2270 H   0  0  0  0  0  0  0  0  0  0  0  0
  -37.5250  -67.2640   47.9040 H   0  0  0  0  0  0  0  0  0  0  0  0
  -38.1390  -66.0970   46.6860 H   0  0  0  0  0  0  0  0  0  0  0  0
  -40.9610  -62.7020   48.4950 H   0  0  0  0  0  0  0  0  0  0  0  0
  -39.5720  -61.5640   48.2600 H   0  0  0  0  0  0  0  0  0  0  0  0
  -39.5140  -63.1730   47.5170 H   0  0  0  0  0  0  0  0  0  0  0  0
  1  2  1  0  0  0  0
  2  7  1  0  0  0  0
  3  2  2  0  0  0  0
  3  4  1  0  0  0  0
  4  5  2  0  0  0  0
  5  6  1  0  0  0  0
  5  8  1  0  0  0  0
  6 30  1  0  0  0  0
  7 31  1  0  0  0  0
  7  6  2  0  0  0  0
  8  9  1  0  0  0  0
  9 10  1  0  0  0  0
  9 32  1  0  0  0  0
 10 33  1  0  0  0  0
 11 10  1  0  0  0  0
 12  8  1  0  0  0  0
 12 11  2  0  0  0  0
 13 15  1  0  0  0  0
 13 12  1  0  0  0  0
 14 13  2  0  0  0  0
 15 16  1  0  0  0  0
 16 17  2  0  0  0  0
 16 11  1  0  0  0  0
 18 15  1  0  0  0  0
 19 18  1  0  0  0  0
 19 34  1  0  0  0  0
 20 19  2  0  0  0  0
 21 22  2  0  0  0  0
 21 20  1  0  0  0  0
 22 23  1  0  0  0  0
 23 36  1  0  0  0  0
 23 18  2  0  0  0  0
 24 21  1  0  0  0  0
 25 38  1  0  0  0  0
 25 24  1  0  0  0  0
 26 20  1  0  0  0  0
 27 40  1  0  0  0  0
 27 26  1  0  0  0  0
 28  3  1  0  0  0  0
 29  4  1  0  0  0  0
 35 22  1  0  0  0  0
 37 25  1  0  0  0  0
 39 25  1  0  0  0  0
 41 27  1  0  0  0  0
 42 27  1  0  0  0  0
M  END
>  <Pose>
1

>  <Score>
-5.86

$$$$
