
 OpenBabel03202209423D

 42 45  0  0  0  0  0  0  0  0999 V2000
  -39.9310  -65.0860   48.4350 Cl  0  0  0  0  0  0  0  0  0  0  0  0
  -39.8580  -66.2730   49.7370 C   0  0  0  0  0  0  0  0  0  0  0  0
  -40.8380  -66.3020   50.7120 C   0  0  0  0  0  0  0  0  0  0  0  0
  -40.7930  -67.2180   51.7270 C   0  0  0  0  0  0  0  0  0  0  0  0
  -39.7370  -68.0970   51.7270 C   0  0  0  0  0  0  0  0  0  0  0  0
  -38.7530  -68.0900   50.7730 C   0  0  0  0  0  0  0  0  0  0  0  0
  -38.8110  -67.1570   49.7510 C   0  0  0  0  0  0  0  0  0  0  0  0
  -39.6550  -69.1000   52.8080 C   0  0  0  0  0  0  0  0  0  0  0  0
  -38.8110  -70.0330   53.0760 N   0  0  0  0  0  0  0  0  0  0  0  0
  -39.1670  -70.7620   54.2590 C   0  0  0  0  0  0  0  0  0  0  0  0
  -40.4300  -70.1240   54.7360 C   0  0  0  0  0  0  0  0  0  0  0  0
  -40.6900  -69.0770   53.7760 N   0  0  0  0  0  0  0  0  0  0  0  0
  -41.7720  -68.1360   53.7280 C   0  0  0  0  0  0  0  0  0  0  0  0
  -42.8360  -67.9320   54.5170 N   0  0  0  0  0  0  0  0  0  0  0  0
  -43.5610  -66.9290   54.0540 N   0  0  0  0  0  0  0  0  0  0  0  0
  -42.9240  -66.5030   52.9500 C   0  0  0  0  0  0  0  0  0  0  0  0
  -43.3230  -65.5530   52.2340 O   0  0  0  0  0  0  0  0  0  0  0  0
  -41.8030  -67.2400   52.7250 N   0  0  0  0  0  0  0  0  0  0  0  0
  -44.7950  -66.3780   54.6040 C   0  0  0  0  0  0  0  0  0  0  0  0
  -45.9480  -67.0760   53.9880 C   0  0  0  0  0  0  0  0  0  0  0  0
  -45.8550  -67.4610   52.7890 O   0  0  0  0  0  0  0  0  0  0  0  0
  -47.1550  -67.3320   54.6890 N   0  0  0  0  0  0  0  0  0  0  0  0
  -48.4290  -67.2970   54.0060 C   0  0  0  0  0  0  0  0  0  0  0  0
  -48.8060  -68.6930   53.5040 C   0  0  0  0  0  0  0  0  0  0  0  0
  -49.4750  -66.9370   55.0520 C   0  0  0  0  0  0  0  0  0  0  0  0
  -41.6390  -65.5980   50.6690 H   0  0  0  0  0  0  0  0  0  0  0  0
  -37.9160  -68.7770   50.7630 H   0  0  0  0  0  0  0  0  0  0  0  0
  -38.0230  -67.1480   48.9820 H   0  0  0  0  0  0  0  0  0  0  0  0
  -39.3640  -71.8210   53.9500 H   0  0  0  0  0  0  0  0  0  0  0  0
  -38.3550  -70.7350   55.0220 H   0  0  0  0  0  0  0  0  0  0  0  0
  -41.2770  -70.8360   54.8170 H   0  0  0  0  0  0  0  0  0  0  0  0
  -40.2440  -69.6020   55.7110 H   0  0  0  0  0  0  0  0  0  0  0  0
  -44.8030  -66.6310   55.6800 H   0  0  0  0  0  0  0  0  0  0  0  0
  -44.8460  -65.2830   54.5180 H   0  0  0  0  0  0  0  0  0  0  0  0
  -47.0850  -67.5420   55.7060 H   0  0  0  0  0  0  0  0  0  0  0  0
  -48.4490  -66.5530   53.1970 H   0  0  0  0  0  0  0  0  0  0  0  0
  -48.3750  -69.4050   54.2450 H   0  0  0  0  0  0  0  0  0  0  0  0
  -49.9040  -68.7310   53.4770 H   0  0  0  0  0  0  0  0  0  0  0  0
  -48.3620  -68.8630   52.4920 H   0  0  0  0  0  0  0  0  0  0  0  0
  -49.7160  -67.8740   55.5940 H   0  0  0  0  0  0  0  0  0  0  0  0
  -50.4090  -66.5710   54.5920 H   0  0  0  0  0  0  0  0  0  0  0  0
  -49.0270  -66.2300   55.7630 H   0  0  0  0  0  0  0  0  0  0  0  0
  1  2  1  0  0  0  0
  2  7  2  0  0  0  0
  2  3  1  0  0  0  0
  3  4  2  0  0  0  0
  4 18  1  0  0  0  0
  5  4  1  0  0  0  0
  5  8  2  0  0  0  0
  6  5  1  0  0  0  0
  7  6  1  0  0  0  0
  8  9  1  0  0  0  0
  8 12  1  0  0  0  0
  9 10  1  0  0  0  0
 10 11  1  0  0  0  0
 10 30  1  0  0  0  0
 11 31  1  0  0  0  0
 11 32  1  0  0  0  0
 12 11  1  0  0  0  0
 13 12  1  0  0  0  0
 13 14  2  0  0  0  0
 15 14  1  0  0  0  0
 15 19  1  0  0  0  0
 16 15  1  0  0  0  0
 17 16  2  0  0  0  0
 18 16  1  0  0  0  0
 18 13  1  0  0  0  0
 19 33  1  0  0  0  0
 20 19  1  0  0  0  0
 20 22  1  0  0  0  0
 21 20  2  0  0  0  0
 22 35  1  0  0  0  0
 23 22  1  0  0  0  0
 23 25  1  0  0  0  0
 24 23  1  0  0  0  0
 24 37  1  0  0  0  0
 25 40  1  0  0  0  0
 25 42  1  0  0  0  0
 26  3  1  0  0  0  0
 27  6  1  0  0  0  0
 28  7  1  0  0  0  0
 29 10  1  0  0  0  0
 34 19  1  0  0  0  0
 36 23  1  0  0  0  0
 38 24  1  0  0  0  0
 39 24  1  0  0  0  0
 41 25  1  0  0  0  0
M  END
>  <Pose>
1

>  <Score>
-6.44

$$$$
