
 OpenBabel03202209423D

 57 60  0  0  1  0  0  0  0  0999 V2000
  -43.3410  -66.6640   54.3690 S   0  0  0  0  0  0  0  0  0  0  0  0
  -43.4310  -67.8940   55.2280 O   0  0  0  0  0  0  0  0  0  0  0  0
  -43.0330  -65.5220   55.3150 O   0  0  0  0  0  0  0  0  0  0  0  0
  -44.8470  -66.2970   53.6270 N   0  0  0  0  0  0  0  0  0  0  0  0
  -45.8170  -67.3370   53.8640 C   0  0  0  0  0  0  0  0  0  0  0  0
  -47.1770  -66.7910   53.4990 C   0  0  0  0  0  0  0  0  0  0  0  0
  -47.0190  -65.5510   52.7850 N   0  0  0  0  0  0  0  0  0  0  0  0
  -45.9870  -65.3790   51.7690 C   0  0  0  0  0  0  0  0  0  0  0  0
  -44.7230  -66.1310   52.1930 C   0  0  0  0  0  0  0  0  0  0  0  0
  -47.8670  -64.4660   53.0720 C   0  0  0  0  0  0  0  0  0  0  0  0
  -47.4330  -63.5210   53.8180 O   0  0  0  0  0  0  0  0  0  0  0  0
  -49.2480  -64.4180   52.5200 C   0  0  1  0  0  0  0  0  0  0  0  0
  -49.2900  -64.6600   51.0380 C   0  0  0  0  0  0  0  0  0  0  0  0
  -49.7670  -66.0300   50.8800 N   0  0  0  0  0  0  0  0  0  0  0  0
  -49.9340  -66.6280   52.1520 C   0  0  0  0  0  0  0  0  0  0  0  0
  -49.9300  -67.8640   52.3640 O   0  0  0  0  0  0  0  0  0  0  0  0
  -50.1060  -65.5070   53.1010 C   0  0  0  0  0  0  0  0  0  0  0  0
  -50.0190  -66.6690   49.6080 C   0  0  0  0  0  0  0  0  0  0  0  0
  -50.7860  -65.7920   48.6930 C   0  0  0  0  0  0  0  0  0  0  0  0
  -50.1680  -65.2960   47.5550 C   0  0  0  0  0  0  0  0  0  0  0  0
  -50.8200  -64.4700   46.6550 C   0  0  0  0  0  0  0  0  0  0  0  0
  -52.1330  -64.1480   46.9310 C   0  0  0  0  0  0  0  0  0  0  0  0
  -52.7810  -64.6260   48.0570 C   0  0  0  0  0  0  0  0  0  0  0  0
  -52.0990  -65.4560   48.9470 C   0  0  0  0  0  0  0  0  0  0  0  0
  -48.5080  -65.7380   47.2620 Cl  0  0  0  0  0  0  0  0  0  0  0  0
  -42.0620  -66.7840   53.2000 C   0  0  0  0  0  0  0  0  0  0  0  0
  -41.2100  -67.8230   52.9000 C   0  0  0  0  0  0  0  0  0  0  0  0
  -40.3760  -67.3980   51.9010 N   0  0  0  0  0  0  0  0  0  0  0  0
  -40.6960  -66.1930   51.6150 O   0  0  0  0  0  0  0  0  0  0  0  0
  -41.6930  -65.7600   52.3490 C   0  0  0  0  0  0  0  0  0  0  0  0
  -42.2670  -64.4020   52.2280 C   0  0  0  0  0  0  0  0  0  0  0  0
  -41.2220  -69.1480   53.5480 C   0  0  0  0  0  0  0  0  0  0  0  0
  -45.6370  -68.2290   53.2020 H   0  0  0  0  0  0  0  0  0  0  0  0
  -45.7890  -67.7130   54.9080 H   0  0  0  0  0  0  0  0  0  0  0  0
  -47.7600  -67.5340   52.8950 H   0  0  0  0  0  0  0  0  0  0  0  0
  -47.7180  -66.5870   54.4380 H   0  0  0  0  0  0  0  0  0  0  0  0
  -46.3590  -65.7030   50.7800 H   0  0  0  0  0  0  0  0  0  0  0  0
  -45.7730  -64.2960   51.7040 H   0  0  0  0  0  0  0  0  0  0  0  0
  -43.8570  -65.5490   51.8830 H   0  0  0  0  0  0  0  0  0  0  0  0
  -44.7350  -67.0910   51.6380 H   0  0  0  0  0  0  0  0  0  0  0  0
  -49.6890  -63.4060   52.7750 H   0  0  0  0  0  0  0  0  0  0  0  0
  -49.9980  -63.9320   50.5660 H   0  0  0  0  0  0  0  0  0  0  0  0
  -48.2760  -64.5670   50.5460 H   0  0  0  0  0  0  0  0  0  0  0  0
  -49.7890  -65.7830   54.1300 H   0  0  0  0  0  0  0  0  0  0  0  0
  -51.1670  -65.1700   53.0740 H   0  0  0  0  0  0  0  0  0  0  0  0
  -50.5520  -67.6370   49.7100 H   0  0  0  0  0  0  0  0  0  0  0  0
  -49.0320  -66.8560   49.1100 H   0  0  0  0  0  0  0  0  0  0  0  0
  -50.2830  -64.1170   45.7870 H   0  0  0  0  0  0  0  0  0  0  0  0
  -52.6720  -63.4970   46.2360 H   0  0  0  0  0  0  0  0  0  0  0  0
  -53.8060  -64.3480   48.2330 H   0  0  0  0  0  0  0  0  0  0  0  0
  -52.6030  -65.8270   49.8250 H   0  0  0  0  0  0  0  0  0  0  0  0
  -43.0040  -64.2610   53.0460 H   0  0  0  0  0  0  0  0  0  0  0  0
  -41.4130  -63.6860   52.4120 H   0  0  0  0  0  0  0  0  0  0  0  0
  -42.6700  -64.2420   51.2260 H   0  0  0  0  0  0  0  0  0  0  0  0
  -40.7480  -69.8560   52.8030 H   0  0  0  0  0  0  0  0  0  0  0  0
  -40.6020  -69.2190   54.4470 H   0  0  0  0  0  0  0  0  0  0  0  0
  -42.2710  -69.4990   53.7630 H   0  0  0  0  0  0  0  0  0  0  0  0
  1  2  2  0  0  0  0
  1  3  2  0  0  0  0
  4  5  1  0  0  0  0
  4  1  1  0  0  0  0
  5 34  1  0  0  0  0
  6  5  1  0  0  0  0
  6 36  1  0  0  0  0
  7 10  1  0  0  0  0
  7  6  1  0  0  0  0
  8  9  1  0  0  0  0
  8  7  1  0  0  0  0
  9  4  1  0  0  0  0
 10 11  2  0  0  0  0
 12 41  1  1  0  0  0
 12 10  1  0  0  0  0
 12 17  1  0  0  0  0
 13 12  1  0  0  0  0
 14 13  1  0  0  0  0
 14 15  1  0  0  0  0
 15 16  2  0  0  0  0
 15 17  1  0  0  0  0
 17 44  1  0  0  0  0
 18 46  1  0  0  0  0
 18 14  1  0  0  0  0
 19 24  1  0  0  0  0
 19 18  1  0  0  0  0
 20 19  2  0  0  0  0
 21 22  2  0  0  0  0
 21 20  1  0  0  0  0
 22 23  1  0  0  0  0
 23 50  1  0  0  0  0
 23 24  2  0  0  0  0
 24 51  1  0  0  0  0
 25 20  1  0  0  0  0
 26  1  1  0  0  0  0
 27 26  1  0  0  0  0
 27 32  1  0  0  0  0
 28 27  2  0  0  0  0
 29 28  1  0  0  0  0
 29 30  1  0  0  0  0
 30 26  2  0  0  0  0
 31 30  1  0  0  0  0
 31 53  1  0  0  0  0
 31 52  1  0  0  0  0
 32 57  1  0  0  0  0
 32 56  1  0  0  0  0
 33  5  1  0  0  0  0
 35  6  1  0  0  0  0
 37  8  1  0  0  0  0
 38  8  1  0  0  0  0
 39  9  1  0  0  0  0
 40  9  1  0  0  0  0
 42 13  1  0  0  0  0
 43 13  1  0  0  0  0
 45 17  1  0  0  0  0
 47 18  1  0  0  0  0
 48 21  1  0  0  0  0
 49 22  1  0  0  0  0
 54 31  1  0  0  0  0
 55 32  1  0  0  0  0
M  END
>  <Pose>
1

>  <Score>
-5.37

$$$$
