
 OpenBabel03202209423D

 35 38  0  0  1  0  0  0  0  0999 V2000
  -39.4810  -70.5740   54.8740 Cl  0  0  0  0  0  0  0  0  0  0  0  0
  -40.1310  -69.3820   53.7530 C   0  0  0  0  0  0  0  0  0  0  0  0
  -39.4840  -69.1910   52.5530 C   0  0  0  0  0  0  0  0  0  0  0  0
  -39.9880  -68.2800   51.7060 N   0  0  0  0  0  0  0  0  0  0  0  0
  -41.0990  -67.5510   51.9880 C   0  0  0  0  0  0  0  0  0  0  0  0
  -41.7390  -67.7290   53.1550 N   0  0  0  0  0  0  0  0  0  0  0  0
  -42.7850  -66.9100   53.1990 N   0  0  0  0  0  0  0  0  0  0  0  0
  -42.8520  -66.1820   52.0660 C   0  0  0  0  0  0  0  0  0  0  0  0
  -41.7910  -66.6020   51.3320 N   0  0  0  0  0  0  0  0  0  0  0  0
  -43.8160  -65.1930   51.7160 N   0  0  0  0  0  0  0  0  0  0  0  0
  -43.5590  -63.9950   50.9970 C   0  0  0  0  0  0  0  0  0  0  0  0
  -42.5770  -63.7270   50.2570 O   0  0  0  0  0  0  0  0  0  0  0  0
  -44.6780  -63.0230   51.2430 C   0  0  2  0  0  0  0  0  0  0  0  0
  -45.7570  -63.8120   51.8950 C   0  0  1  0  0  0  0  0  0  0  0  0
  -47.0320  -63.9260   51.0780 C   0  0  0  0  0  0  0  0  0  0  0  0
  -46.6190  -64.3540   49.7030 C   0  0  0  0  0  0  0  0  0  0  0  0
  -45.6780  -63.6170   49.1420 C   0  0  0  0  0  0  0  0  0  0  0  0
  -45.1440  -62.4690   49.9140 C   0  0  0  0  0  0  0  0  0  0  0  0
  -45.2070  -65.1770   51.9970 C   0  0  0  0  0  0  0  0  0  0  0  0
  -45.8790  -66.2180   52.2990 O   0  0  0  0  0  0  0  0  0  0  0  0
  -41.2570  -68.6410   54.0350 C   0  0  0  0  0  0  0  0  0  0  0  0
  -41.8610  -68.8120   55.1410 O   0  0  0  0  0  0  0  0  0  0  0  0
  -38.2540  -69.9880   52.2260 C   0  0  0  0  0  0  0  0  0  0  0  0
  -39.4990  -68.1290   50.7910 H   0  0  0  0  0  0  0  0  0  0  0  0
  -44.2950  -62.1940   51.8800 H   0  0  0  0  0  0  0  0  0  0  0  0
  -45.9600  -63.3640   52.8910 H   0  0  0  0  0  0  0  0  0  0  0  0
  -47.6740  -64.7050   51.5250 H   0  0  0  0  0  0  0  0  0  0  0  0
  -47.5220  -62.9390   51.0300 H   0  0  0  0  0  0  0  0  0  0  0  0
  -47.0840  -65.2130   49.2420 H   0  0  0  0  0  0  0  0  0  0  0  0
  -45.3110  -63.8390   48.1600 H   0  0  0  0  0  0  0  0  0  0  0  0
  -44.2980  -61.9970   49.3600 H   0  0  0  0  0  0  0  0  0  0  0  0
  -45.9530  -61.7240   50.1030 H   0  0  0  0  0  0  0  0  0  0  0  0
  -37.4530  -69.7990   52.9510 H   0  0  0  0  0  0  0  0  0  0  0  0
  -38.5020  -71.0800   52.1940 H   0  0  0  0  0  0  0  0  0  0  0  0
  -37.8600  -69.7110   51.2270 H   0  0  0  0  0  0  0  0  0  0  0  0
  2 21  1  0  0  0  0
  2  1  1  0  0  0  0
  3  2  2  0  0  0  0
  4  5  1  0  0  0  0
  4  3  1  0  0  0  0
  5  6  1  0  0  0  0
  6  7  1  0  0  0  0
  6 21  1  0  0  0  0
  8  7  2  0  0  0  0
  9  5  2  0  0  0  0
  9  8  1  0  0  0  0
 10 19  1  0  0  0  0
 10  8  1  0  0  0  0
 11 13  1  0  0  0  0
 11 10  1  0  0  0  0
 12 11  2  0  0  0  0
 13 25  1  1  0  0  0
 13 14  1  0  0  0  0
 14 19  1  0  0  0  0
 14 26  1  1  0  0  0
 15 27  1  0  0  0  0
 15 14  1  0  0  0  0
 16 15  1  0  0  0  0
 17 16  2  0  0  0  0
 17 18  1  0  0  0  0
 18 32  1  0  0  0  0
 18 13  1  0  0  0  0
 19 20  2  0  0  0  0
 21 22  2  0  0  0  0
 23  3  1  0  0  0  0
 23 33  1  0  0  0  0
 24  4  1  0  0  0  0
 28 15  1  0  0  0  0
 29 16  1  0  0  0  0
 30 17  1  0  0  0  0
 31 18  1  0  0  0  0
 34 23  1  0  0  0  0
 35 23  1  0  0  0  0
M  END
>  <Pose>
1

>  <Score>
-5.66

$$$$
