
 OpenBabel03202209423D

 46 49  0  0  0  0  0  0  0  0999 V2000
  -48.4960  -64.7050   52.6780 Cl  0  0  0  0  0  0  0  0  0  0  0  0
  -46.9740  -65.5130   52.9950 C   0  0  0  0  0  0  0  0  0  0  0  0
  -45.7710  -64.8430   53.0660 C   0  0  0  0  0  0  0  0  0  0  0  0
  -44.5730  -65.4730   53.3150 C   0  0  0  0  0  0  0  0  0  0  0  0
  -44.5490  -66.8360   53.5040 C   0  0  0  0  0  0  0  0  0  0  0  0
  -45.7470  -67.5250   53.4350 C   0  0  0  0  0  0  0  0  0  0  0  0
  -46.9410  -66.8810   53.1850 C   0  0  0  0  0  0  0  0  0  0  0  0
  -43.3040  -64.7170   53.3840 C   0  0  0  0  0  0  0  0  0  0  0  0
  -42.6530  -64.5960   52.1010 N   0  0  0  0  0  0  0  0  0  0  0  0
  -43.1760  -64.0280   50.8900 C   0  0  0  0  0  0  0  0  0  0  0  0
  -44.3420  -63.5250   50.7680 O   0  0  0  0  0  0  0  0  0  0  0  0
  -42.1870  -64.1190   49.8690 N   0  0  0  0  0  0  0  0  0  0  0  0
  -41.2840  -65.1660   50.2930 C   0  0  0  0  0  0  0  0  0  0  0  0
  -41.9530  -66.4870   49.9610 C   0  0  0  0  0  0  0  0  0  0  0  0
  -41.2320  -67.5450   50.7870 C   0  0  0  0  0  0  0  0  0  0  0  0
  -39.7960  -67.3930   50.6460 N   0  0  0  0  0  0  0  0  0  0  0  0
  -39.2690  -66.4360   49.7080 C   0  0  0  0  0  0  0  0  0  0  0  0
  -39.9370  -65.1000   49.7130 C   0  0  0  0  0  0  0  0  0  0  0  0
  -38.9220  -68.1910   51.4280 C   0  0  0  0  0  0  0  0  0  0  0  0
  -37.7060  -68.3200   51.0740 O   0  0  0  0  0  0  0  0  0  0  0  0
  -39.3350  -68.8870   52.6350 C   0  0  0  0  0  0  0  0  0  0  0  0
  -40.3510  -68.4590   53.4100 N   0  0  0  0  0  0  0  0  0  0  0  0
  -40.6800  -69.1530   54.5130 C   0  0  0  0  0  0  0  0  0  0  0  0
  -40.0140  -70.2990   54.8930 C   0  0  0  0  0  0  0  0  0  0  0  0
  -39.0020  -70.7280   54.1240 N   0  0  0  0  0  0  0  0  0  0  0  0
  -38.6650  -70.0300   53.0060 C   0  0  0  0  0  0  0  0  0  0  0  0
  -41.3350  -65.0240   51.7700 C   0  0  0  0  0  0  0  0  0  0  0  0
  -40.4360  -65.2230   52.6310 O   0  0  0  0  0  0  0  0  0  0  0  0
  -45.8120  -63.7710   52.9150 H   0  0  0  0  0  0  0  0  0  0  0  0
  -43.6330  -67.3970   53.7050 H   0  0  0  0  0  0  0  0  0  0  0  0
  -45.7190  -68.6070   53.5860 H   0  0  0  0  0  0  0  0  0  0  0  0
  -47.8790  -67.4210   53.1310 H   0  0  0  0  0  0  0  0  0  0  0  0
  -43.5140  -63.7480   53.8600 H   0  0  0  0  0  0  0  0  0  0  0  0
  -42.5780  -65.2410   54.0690 H   0  0  0  0  0  0  0  0  0  0  0  0
  -42.1230  -63.5550   49.0000 H   0  0  0  0  0  0  0  0  0  0  0  0
  -43.0070  -66.3920   50.2930 H   0  0  0  0  0  0  0  0  0  0  0  0
  -41.8810  -66.7020   48.8770 H   0  0  0  0  0  0  0  0  0  0  0  0
  -41.5130  -68.5510   50.4880 H   0  0  0  0  0  0  0  0  0  0  0  0
  -41.5550  -67.3810   51.8340 H   0  0  0  0  0  0  0  0  0  0  0  0
  -39.2910  -66.9290   48.7110 H   0  0  0  0  0  0  0  0  0  0  0  0
  -38.1760  -66.2420   49.9110 H   0  0  0  0  0  0  0  0  0  0  0  0
  -40.0560  -64.8120   48.6250 H   0  0  0  0  0  0  0  0  0  0  0  0
  -39.2910  -64.2940   50.1230 H   0  0  0  0  0  0  0  0  0  0  0  0
  -41.5020  -68.8140   55.1490 H   0  0  0  0  0  0  0  0  0  0  0  0
  -40.3240  -70.8120   55.7900 H   0  0  0  0  0  0  0  0  0  0  0  0
  -37.8290  -70.4160   52.4030 H   0  0  0  0  0  0  0  0  0  0  0  0
  1  2  1  0  0  0  0
  2  3  2  0  0  0  0
  2  7  1  0  0  0  0
  3  4  1  0  0  0  0
  4  8  1  0  0  0  0
  4  5  2  0  0  0  0
  5 30  1  0  0  0  0
  6  5  1  0  0  0  0
  6 31  1  0  0  0  0
  7  6  2  0  0  0  0
  8 33  1  0  0  0  0
  8 34  1  0  0  0  0
  9  8  1  0  0  0  0
 10  9  1  0  0  0  0
 11 10  2  0  0  0  0
 12 13  1  0  0  0  0
 12 10  1  0  0  0  0
 13 27  1  0  0  0  0
 14 36  1  0  0  0  0
 14 13  1  0  0  0  0
 14 15  1  0  0  0  0
 15 39  1  0  0  0  0
 16 15  1  0  0  0  0
 16 19  1  0  0  0  0
 17 18  1  0  0  0  0
 17 41  1  0  0  0  0
 17 16  1  0  0  0  0
 18 43  1  0  0  0  0
 18 13  1  0  0  0  0
 19 21  1  0  0  0  0
 20 19  2  0  0  0  0
 21 26  2  0  0  0  0
 21 22  1  0  0  0  0
 22 23  2  0  0  0  0
 23 24  1  0  0  0  0
 23 44  1  0  0  0  0
 24 45  1  0  0  0  0
 25 24  2  0  0  0  0
 26 25  1  0  0  0  0
 27  9  1  0  0  0  0
 27 28  2  0  0  0  0
 29  3  1  0  0  0  0
 32  7  1  0  0  0  0
 35 12  1  0  0  0  0
 37 14  1  0  0  0  0
 38 15  1  0  0  0  0
 40 17  1  0  0  0  0
 42 18  1  0  0  0  0
 46 26  1  0  0  0  0
M  END
>  <Pose>
1

>  <Score>
-6.63

$$$$
