
 OpenBabel03202209423D

 41 44  0  0  0  0  0  0  0  0999 V2000
  -44.8160  -60.3120   46.8060 Cl  0  0  0  0  0  0  0  0  0  0  0  0
  -45.0430  -61.4440   48.1440 C   0  0  0  0  0  0  0  0  0  0  0  0
  -46.1650  -61.3790   48.9440 C   0  0  0  0  0  0  0  0  0  0  0  0
  -46.2870  -62.2920   49.9760 C   0  0  0  0  0  0  0  0  0  0  0  0
  -45.3370  -63.2580   50.2350 C   0  0  0  0  0  0  0  0  0  0  0  0
  -44.2290  -63.2910   49.4120 C   0  0  0  0  0  0  0  0  0  0  0  0
  -44.0640  -62.3920   48.3620 C   0  0  0  0  0  0  0  0  0  0  0  0
  -45.4860  -64.1780   51.2940 N   0  0  0  0  0  0  0  0  0  0  0  0
  -44.5550  -64.5100   52.2200 C   0  0  0  0  0  0  0  0  0  0  0  0
  -43.3950  -64.0220   52.2560 O   0  0  0  0  0  0  0  0  0  0  0  0
  -45.0530  -65.4490   53.1080 C   0  0  0  0  0  0  0  0  0  0  0  0
  -46.2950  -65.6930   52.7220 C   0  0  0  0  0  0  0  0  0  0  0  0
  -46.7760  -66.6080   53.5900 N   0  0  0  0  0  0  0  0  0  0  0  0
  -45.8210  -66.9030   54.4820 N   0  0  0  0  0  0  0  0  0  0  0  0
  -44.7470  -66.1870   54.1900 N   0  0  0  0  0  0  0  0  0  0  0  0
  -43.4830  -66.1900   54.8960 C   0  0  0  0  0  0  0  0  0  0  0  0
  -42.4430  -67.0050   54.2210 C   0  0  0  0  0  0  0  0  0  0  0  0
  -41.8630  -68.1270   54.7700 C   0  0  0  0  0  0  0  0  0  0  0  0
  -40.8960  -68.8830   54.1380 C   0  0  0  0  0  0  0  0  0  0  0  0
  -40.4750  -68.5050   52.8860 C   0  0  0  0  0  0  0  0  0  0  0  0
  -41.0280  -67.3910   52.2990 C   0  0  0  0  0  0  0  0  0  0  0  0
  -41.9960  -66.6500   52.9560 C   0  0  0  0  0  0  0  0  0  0  0  0
  -40.3710  -70.0080   54.7870 O   0  0  0  0  0  0  0  0  0  0  0  0
  -39.1380  -70.5770   54.3970 C   0  0  0  0  0  0  0  0  0  0  0  0
  -46.5620  -64.9180   51.6130 C   0  0  0  0  0  0  0  0  0  0  0  0
  -47.6590  -64.9230   51.0130 O   0  0  0  0  0  0  0  0  0  0  0  0
  -46.9050  -60.6230   48.7380 H   0  0  0  0  0  0  0  0  0  0  0  0
  -47.1560  -62.2560   50.6090 H   0  0  0  0  0  0  0  0  0  0  0  0
  -43.4940  -64.0570   49.6330 H   0  0  0  0  0  0  0  0  0  0  0  0
  -43.1680  -62.4600   47.7410 H   0  0  0  0  0  0  0  0  0  0  0  0
  -47.7300  -67.0130   53.5630 H   0  0  0  0  0  0  0  0  0  0  0  0
  -45.8690  -67.5700   55.2810 H   0  0  0  0  0  0  0  0  0  0  0  0
  -43.1110  -65.1550   55.0180 H   0  0  0  0  0  0  0  0  0  0  0  0
  -43.6740  -66.6670   55.9020 H   0  0  0  0  0  0  0  0  0  0  0  0
  -42.1840  -68.4490   55.7750 H   0  0  0  0  0  0  0  0  0  0  0  0
  -39.7070  -69.0890   52.3600 H   0  0  0  0  0  0  0  0  0  0  0  0
  -40.6940  -67.0980   51.3140 H   0  0  0  0  0  0  0  0  0  0  0  0
  -42.4250  -65.7760   52.4880 H   0  0  0  0  0  0  0  0  0  0  0  0
  -39.2260  -71.1530   53.4470 H   0  0  0  0  0  0  0  0  0  0  0  0
  -38.7980  -71.2850   55.1700 H   0  0  0  0  0  0  0  0  0  0  0  0
  -38.3880  -69.7680   54.2110 H   0  0  0  0  0  0  0  0  0  0  0  0
  1  2  1  0  0  0  0
  2  7  2  0  0  0  0
  2  3  1  0  0  0  0
  3  4  2  0  0  0  0
  4  5  1  0  0  0  0
  4 28  1  0  0  0  0
  5  8  1  0  0  0  0
  6 29  1  0  0  0  0
  6  5  2  0  0  0  0
  7  6  1  0  0  0  0
  8 25  1  0  0  0  0
  8  9  1  0  0  0  0
  9 10  2  0  0  0  0
  9 11  1  0  0  0  0
 11 15  1  0  0  0  0
 12 11  2  0  0  0  0
 12 13  1  0  0  0  0
 13 14  1  0  0  0  0
 14 32  1  0  0  0  0
 15 14  1  0  0  0  0
 15 16  1  0  0  0  0
 16 33  1  0  0  0  0
 16 34  1  0  0  0  0
 17 18  1  0  0  0  0
 17 16  1  0  0  0  0
 18 35  1  0  0  0  0
 19 18  2  0  0  0  0
 19 23  1  0  0  0  0
 20 19  1  0  0  0  0
 21 20  2  0  0  0  0
 21 22  1  0  0  0  0
 22 17  2  0  0  0  0
 24 23  1  0  0  0  0
 24 40  1  0  0  0  0
 25 12  1  0  0  0  0
 26 25  2  0  0  0  0
 27  3  1  0  0  0  0
 30  7  1  0  0  0  0
 31 13  1  0  0  0  0
 36 20  1  0  0  0  0
 37 21  1  0  0  0  0
 38 22  1  0  0  0  0
 39 24  1  0  0  0  0
 41 24  1  0  0  0  0
M  END
>  <Pose>
1

>  <Score>
-6.14

$$$$
