
 OpenBabel03202209423D

 39 42  0  0  0  0  0  0  0  0999 V2000
  -50.0010  -65.8430   54.0980 Cl  0  0  0  0  0  0  0  0  0  0  0  0
  -48.3130  -65.6910   53.6400 C   0  0  0  0  0  0  0  0  0  0  0  0
  -47.3880  -66.6630   53.9760 C   0  0  0  0  0  0  0  0  0  0  0  0
  -46.0640  -66.5250   53.6060 C   0  0  0  0  0  0  0  0  0  0  0  0
  -45.6100  -65.4340   52.9020 C   0  0  0  0  0  0  0  0  0  0  0  0
  -46.5270  -64.4610   52.5650 C   0  0  0  0  0  0  0  0  0  0  0  0
  -47.8580  -64.5890   52.9300 C   0  0  0  0  0  0  0  0  0  0  0  0
  -44.2110  -65.2990   52.5180 C   0  0  0  0  0  0  0  0  0  0  0  0
  -43.4050  -64.2810   52.8540 N   0  0  0  0  0  0  0  0  0  0  0  0
  -42.2200  -64.4630   52.3530 O   0  0  0  0  0  0  0  0  0  0  0  0
  -42.2100  -65.5880   51.6810 C   0  0  0  0  0  0  0  0  0  0  0  0
  -43.4570  -66.1230   51.7780 N   0  0  0  0  0  0  0  0  0  0  0  0
  -41.0340  -66.1270   50.9710 C   0  0  0  0  0  0  0  0  0  0  0  0
  -40.4930  -67.2740   51.7030 N   0  0  0  0  0  0  0  0  0  0  0  0
  -41.0920  -67.6440   52.8540 C   0  0  0  0  0  0  0  0  0  0  0  0
  -40.6260  -68.7110   53.5780 C   0  0  0  0  0  0  0  0  0  0  0  0
  -39.4600  -69.4540   53.0880 C   0  0  0  0  0  0  0  0  0  0  0  0
  -39.2260  -70.4360   53.9860 N   0  0  0  0  0  0  0  0  0  0  0  0
  -40.1180  -70.3640   54.9540 N   0  0  0  0  0  0  0  0  0  0  0  0
  -40.9790  -69.3530   54.7640 C   0  0  0  0  0  0  0  0  0  0  0  0
  -41.9400  -69.0140   55.4940 O   0  0  0  0  0  0  0  0  0  0  0  0
  -38.8810  -69.0390   51.9080 C   0  0  0  0  0  0  0  0  0  0  0  0
  -39.4360  -67.9620   51.2750 C   0  0  0  0  0  0  0  0  0  0  0  0
  -37.7170  -69.7560   51.3880 C   0  0  0  0  0  0  0  0  0  0  0  0
  -37.8510  -70.6660   50.5580 O   0  0  0  0  0  0  0  0  0  0  0  0
  -36.4360  -69.4390   51.8080 O   0  0  0  0  0  0  0  0  0  0  0  0
  -35.4360  -68.9360   50.9550 C   0  0  0  0  0  0  0  0  0  0  0  0
  -47.7280  -67.5350   54.5350 H   0  0  0  0  0  0  0  0  0  0  0  0
  -45.3440  -67.2870   53.8700 H   0  0  0  0  0  0  0  0  0  0  0  0
  -46.1740  -63.5980   52.0080 H   0  0  0  0  0  0  0  0  0  0  0  0
  -48.5790  -63.8320   52.6690 H   0  0  0  0  0  0  0  0  0  0  0  0
  -41.3640  -66.5000   49.9870 H   0  0  0  0  0  0  0  0  0  0  0  0
  -40.2240  -65.3650   50.8820 H   0  0  0  0  0  0  0  0  0  0  0  0
  -41.9510  -67.1010   53.2180 H   0  0  0  0  0  0  0  0  0  0  0  0
  -40.1470  -71.0110   55.7630 H   0  0  0  0  0  0  0  0  0  0  0  0
  -38.9660  -67.6460   50.3430 H   0  0  0  0  0  0  0  0  0  0  0  0
  -35.7390  -68.9100   49.8990 H   0  0  0  0  0  0  0  0  0  0  0  0
  -35.1520  -67.8800   51.2360 H   0  0  0  0  0  0  0  0  0  0  0  0
  -34.5190  -69.5320   51.1440 H   0  0  0  0  0  0  0  0  0  0  0  0
  2  3  1  0  0  0  0
  2  1  1  0  0  0  0
  3 28  1  0  0  0  0
  4 29  1  0  0  0  0
  4  3  2  0  0  0  0
  5  4  1  0  0  0  0
  6  5  2  0  0  0  0
  6  7  1  0  0  0  0
  7  2  2  0  0  0  0
  8  9  2  0  0  0  0
  8  5  1  0  0  0  0
 10  9  1  0  0  0  0
 11 12  2  0  0  0  0
 11 10  1  0  0  0  0
 12  8  1  0  0  0  0
 13 11  1  0  0  0  0
 13 14  1  0  0  0  0
 14 15  1  0  0  0  0
 15 34  1  0  0  0  0
 15 16  1  0  0  0  0
 16 20  1  0  0  0  0
 17 16  2  0  0  0  0
 17 18  1  0  0  0  0
 18 19  1  0  0  0  0
 19 35  1  0  0  0  0
 20 19  1  0  0  0  0
 20 21  2  0  0  0  0
 22 17  1  0  0  0  0
 23 14  1  0  0  0  0
 23 22  2  0  0  0  0
 24 26  1  0  0  0  0
 24 22  1  0  0  0  0
 25 24  2  0  0  0  0
 27 39  1  0  0  0  0
 27 38  1  0  0  0  0
 27 26  1  0  0  0  0
 30  6  1  0  0  0  0
 31  7  1  0  0  0  0
 32 13  1  0  0  0  0
 33 13  1  0  0  0  0
 36 23  1  0  0  0  0
 37 27  1  0  0  0  0
M  END
>  <Pose>
1

>  <Score>
-7.52

$$$$
