
 OpenBabel03202209423D

 58 61  0  0  1  0  0  0  0  0999 V2000
  -38.8880  -70.7550   54.4950 Cl  0  0  0  0  0  0  0  0  0  0  0  0
  -40.0390  -69.4860   54.1030 C   0  0  0  0  0  0  0  0  0  0  0  0
  -41.1920  -69.2790   54.8150 C   0  0  0  0  0  0  0  0  0  0  0  0
  -42.0950  -68.2750   54.4990 C   0  0  0  0  0  0  0  0  0  0  0  0
  -43.2670  -67.8460   54.9950 N   0  0  0  0  0  0  0  0  0  0  0  0
  -43.7380  -66.8030   54.2900 C   0  0  0  0  0  0  0  0  0  0  0  0
  -42.8070  -66.5870   53.3160 N   0  0  0  0  0  0  0  0  0  0  0  0
  -41.8020  -67.4650   53.4210 C   0  0  0  0  0  0  0  0  0  0  0  0
  -40.6540  -67.6400   52.6780 C   0  0  0  0  0  0  0  0  0  0  0  0
  -39.7770  -68.6590   53.0310 C   0  0  0  0  0  0  0  0  0  0  0  0
  -42.9550  -65.5210   52.3270 C   0  0  0  0  0  0  0  0  0  0  0  0
  -44.9860  -66.0250   54.4850 C   0  0  0  0  0  0  0  0  0  0  0  0
  -46.2100  -66.7050   53.9670 C   0  0  0  0  0  0  0  0  0  0  0  0
  -46.3790  -66.5860   52.4980 C   0  0  0  0  0  0  0  0  0  0  0  0
  -45.7720  -67.3940   51.7490 O   0  0  0  0  0  0  0  0  0  0  0  0
  -47.1980  -65.5930   51.9310 N   0  0  0  0  0  0  0  0  0  0  0  0
  -47.8470  -65.7580   50.6290 C   0  0  0  0  0  0  0  0  0  0  0  0
  -47.2220  -64.7060   49.7340 C   0  0  2  0  0  0  0  0  0  0  0  0
  -47.3670  -63.3280   50.3360 C   0  0  1  0  0  0  0  0  0  0  0  0
  -48.1870  -63.3960   51.6300 C   0  0  0  0  0  0  0  0  0  0  0  0
  -47.4670  -64.3270   52.5910 C   0  0  0  0  0  0  0  0  0  0  0  0
  -46.1210  -62.7930   50.7440 O   0  0  0  0  0  0  0  0  0  0  0  0
  -47.9670  -62.3200   49.4040 C   0  0  0  0  0  0  0  0  0  0  0  0
  -47.5950  -64.7980   48.3660 N   0  0  0  0  0  0  0  0  0  0  0  0
  -48.7840  -65.3500   47.9850 C   0  0  0  0  0  0  0  0  0  0  0  0
  -49.1480  -65.4410   46.6580 C   0  0  0  0  0  0  0  0  0  0  0  0
  -48.2950  -64.9650   45.6870 C   0  0  0  0  0  0  0  0  0  0  0  0
  -48.5940  -65.0310   44.4460 O   0  0  0  0  0  0  0  0  0  0  0  0
  -47.1250  -64.4240   46.0700 N   0  0  0  0  0  0  0  0  0  0  0  0
  -46.8090  -64.3560   47.3960 C   0  0  0  0  0  0  0  0  0  0  0  0
  -45.7080  -63.8420   47.6930 O   0  0  0  0  0  0  0  0  0  0  0  0
  -50.4320  -66.0330   46.2090 C   0  0  0  0  0  0  0  0  0  0  0  0
  -41.4080  -69.9230   55.6600 H   0  0  0  0  0  0  0  0  0  0  0  0
  -40.4270  -67.0040   51.8350 H   0  0  0  0  0  0  0  0  0  0  0  0
  -38.8770  -68.8020   52.4560 H   0  0  0  0  0  0  0  0  0  0  0  0
  -42.8090  -64.5110   52.8040 H   0  0  0  0  0  0  0  0  0  0  0  0
  -43.9870  -65.5020   51.9100 H   0  0  0  0  0  0  0  0  0  0  0  0
  -42.1880  -65.6620   51.5300 H   0  0  0  0  0  0  0  0  0  0  0  0
  -44.8870  -64.9860   54.0770 H   0  0  0  0  0  0  0  0  0  0  0  0
  -45.1160  -65.8940   55.5800 H   0  0  0  0  0  0  0  0  0  0  0  0
  -46.1370  -67.7980   54.2340 H   0  0  0  0  0  0  0  0  0  0  0  0
  -47.0820  -66.2890   54.5140 H   0  0  0  0  0  0  0  0  0  0  0  0
  -48.9240  -65.5860   50.8310 H   0  0  0  0  0  0  0  0  0  0  0  0
  -47.6470  -66.7520   50.1940 H   0  0  0  0  0  0  0  0  0  0  0  0
  -46.1140  -64.9420   49.7920 H   0  0  0  0  0  0  0  0  0  0  0  0
  -48.1670  -62.3860   52.0870 H   0  0  0  0  0  0  0  0  0  0  0  0
  -49.2270  -63.6680   51.4540 H   0  0  0  0  0  0  0  0  0  0  0  0
  -48.1420  -64.5420   53.4460 H   0  0  0  0  0  0  0  0  0  0  0  0
  -46.5520  -63.8390   52.9570 H   0  0  0  0  0  0  0  0  0  0  0  0
  -46.3230  -62.1900   51.5010 H   0  0  0  0  0  0  0  0  0  0  0  0
  -47.4990  -61.3000   49.5350 H   0  0  0  0  0  0  0  0  0  0  0  0
  -49.0600  -62.1410   49.6020 H   0  0  0  0  0  0  0  0  0  0  0  0
  -47.8300  -62.5810   48.3480 H   0  0  0  0  0  0  0  0  0  0  0  0
  -49.4650  -65.7290   48.7610 H   0  0  0  0  0  0  0  0  0  0  0  0
  -46.4800  -64.0640   45.3430 H   0  0  0  0  0  0  0  0  0  0  0  0
  -51.1650  -65.1890   46.1640 H   0  0  0  0  0  0  0  0  0  0  0  0
  -50.3530  -66.4300   45.1760 H   0  0  0  0  0  0  0  0  0  0  0  0
  -50.7620  -66.8200   46.9190 H   0  0  0  0  0  0  0  0  0  0  0  0
  2  1  1  0  0  0  0
  2  3  1  0  0  0  0
  3 33  1  0  0  0  0
  4  3  2  0  0  0  0
  4  5  1  0  0  0  0
  6 12  1  0  0  0  0
  6  5  2  0  0  0  0
  7  8  1  0  0  0  0
  7  6  1  0  0  0  0
  8  4  1  0  0  0  0
  9 10  1  0  0  0  0
  9  8  2  0  0  0  0
 10  2  2  0  0  0  0
 11 36  1  0  0  0  0
 11  7  1  0  0  0  0
 12 40  1  0  0  0  0
 13 41  1  0  0  0  0
 13 12  1  0  0  0  0
 13 42  1  0  0  0  0
 14 13  1  0  0  0  0
 15 14  2  0  0  0  0
 16 14  1  0  0  0  0
 16 21  1  0  0  0  0
 17 43  1  0  0  0  0
 17 16  1  0  0  0  0
 18 45  1  1  0  0  0
 18 19  1  0  0  0  0
 18 17  1  0  0  0  0
 19 22  1  1  0  0  0
 19 20  1  0  0  0  0
 20 46  1  0  0  0  0
 20 21  1  0  0  0  0
 21 49  1  0  0  0  0
 21 48  1  0  0  0  0
 22 50  1  0  0  0  0
 23 51  1  0  0  0  0
 23 52  1  0  0  0  0
 23 19  1  0  0  0  0
 24 18  1  0  0  0  0
 25 24  1  0  0  0  0
 25 54  1  0  0  0  0
 26 25  2  0  0  0  0
 27 29  1  0  0  0  0
 27 26  1  0  0  0  0
 28 27  2  0  0  0  0
 29 30  1  0  0  0  0
 30 31  2  0  0  0  0
 30 24  1  0  0  0  0
 32 26  1  0  0  0  0
 32 58  1  0  0  0  0
 34  9  1  0  0  0  0
 35 10  1  0  0  0  0
 37 11  1  0  0  0  0
 38 11  1  0  0  0  0
 39 12  1  0  0  0  0
 44 17  1  0  0  0  0
 47 20  1  0  0  0  0
 53 23  1  0  0  0  0
 55 29  1  0  0  0  0
 56 32  1  0  0  0  0
 57 32  1  0  0  0  0
M  END
>  <Pose>
1

>  <Score>
-6.02

$$$$
