
 OpenBabel03202209423D

 42 45  0  0  0  0  0  0  0  0999 V2000
  -37.9620  -69.9600   51.2060 Cl  0  0  0  0  0  0  0  0  0  0  0  0
  -39.1640  -69.4240   52.3780 C   0  0  0  0  0  0  0  0  0  0  0  0
  -40.0550  -68.4000   52.1010 C   0  0  0  0  0  0  0  0  0  0  0  0
  -41.0090  -67.9500   52.9880 C   0  0  0  0  0  0  0  0  0  0  0  0
  -41.9670  -67.0060   52.9790 N   0  0  0  0  0  0  0  0  0  0  0  0
  -42.6330  -66.9920   54.1490 C   0  0  0  0  0  0  0  0  0  0  0  0
  -42.0680  -67.9530   54.8980 N   0  0  0  0  0  0  0  0  0  0  0  0
  -41.0700  -68.5730   54.2380 C   0  0  0  0  0  0  0  0  0  0  0  0
  -40.1910  -69.5910   54.5260 C   0  0  0  0  0  0  0  0  0  0  0  0
  -39.2480  -70.0250   53.6300 C   0  0  0  0  0  0  0  0  0  0  0  0
  -43.7700  -66.0860   54.5320 C   0  0  0  0  0  0  0  0  0  0  0  0
  -45.0270  -66.8070   54.4410 N   0  0  0  0  0  0  0  0  0  0  0  0
  -45.9080  -66.6660   53.3530 C   0  0  0  0  0  0  0  0  0  0  0  0
  -45.4130  -66.5780   52.2160 O   0  0  0  0  0  0  0  0  0  0  0  0
  -47.3720  -66.6190   53.5090 C   0  0  0  0  0  0  0  0  0  0  0  0
  -48.0200  -65.3220   53.2200 C   0  0  0  0  0  0  0  0  0  0  0  0
  -48.1570  -66.3610   52.1780 C   0  0  0  0  0  0  0  0  0  0  0  0
  -48.0320  -67.6020   54.3150 N   0  0  0  0  0  0  0  0  0  0  0  0
  -48.5220  -68.7400   53.6430 C   0  0  0  0  0  0  0  0  0  0  0  0
  -50.0050  -68.5150   53.3710 C   0  0  0  0  0  0  0  0  0  0  0  0
  -50.7090  -68.5390   54.5510 O   0  0  0  0  0  0  0  0  0  0  0  0
  -50.0150  -68.1010   55.6510 C   0  0  0  0  0  0  0  0  0  0  0  0
  -48.9150  -67.1210   55.2970 C   0  0  0  0  0  0  0  0  0  0  0  0
  -40.0030  -67.9140   51.1200 H   0  0  0  0  0  0  0  0  0  0  0  0
  -42.3690  -68.1880   55.8700 H   0  0  0  0  0  0  0  0  0  0  0  0
  -40.2500  -70.0610   55.4910 H   0  0  0  0  0  0  0  0  0  0  0  0
  -38.5400  -70.8280   53.8270 H   0  0  0  0  0  0  0  0  0  0  0  0
  -43.8060  -65.2020   53.9080 H   0  0  0  0  0  0  0  0  0  0  0  0
  -43.6240  -65.8280   55.5950 H   0  0  0  0  0  0  0  0  0  0  0  0
  -45.2850  -67.4550   55.2210 H   0  0  0  0  0  0  0  0  0  0  0  0
  -47.4270  -64.4290   52.9380 H   0  0  0  0  0  0  0  0  0  0  0  0
  -48.9470  -65.0050   53.7520 H   0  0  0  0  0  0  0  0  0  0  0  0
  -47.5260  -66.3430   51.2590 H   0  0  0  0  0  0  0  0  0  0  0  0
  -49.1240  -66.8250   52.0430 H   0  0  0  0  0  0  0  0  0  0  0  0
  -47.9850  -69.0880   52.7640 H   0  0  0  0  0  0  0  0  0  0  0  0
  -48.4950  -69.6060   54.3700 H   0  0  0  0  0  0  0  0  0  0  0  0
  -50.1300  -67.5340   52.8770 H   0  0  0  0  0  0  0  0  0  0  0  0
  -50.3360  -69.3400   52.6820 H   0  0  0  0  0  0  0  0  0  0  0  0
  -50.7510  -67.5210   56.2850 H   0  0  0  0  0  0  0  0  0  0  0  0
  -49.6540  -68.9170   56.3100 H   0  0  0  0  0  0  0  0  0  0  0  0
  -49.4160  -66.1590   55.0780 H   0  0  0  0  0  0  0  0  0  0  0  0
  -48.3530  -66.9430   56.2590 H   0  0  0  0  0  0  0  0  0  0  0  0
  1  2  1  0  0  0  0
  2 10  1  0  0  0  0
  3  2  2  0  0  0  0
  3  4  1  0  0  0  0
  4  8  2  0  0  0  0
  5  4  1  0  0  0  0
  5  6  2  0  0  0  0
  6 11  1  0  0  0  0
  6  7  1  0  0  0  0
  7 25  1  0  0  0  0
  8  9  1  0  0  0  0
  8  7  1  0  0  0  0
  9 26  1  0  0  0  0
 10 27  1  0  0  0  0
 10  9  2  0  0  0  0
 11 29  1  0  0  0  0
 12 11  1  0  0  0  0
 12 30  1  0  0  0  0
 13 15  1  0  0  0  0
 13 12  1  0  0  0  0
 14 13  2  0  0  0  0
 15 18  1  0  0  0  0
 16 15  1  0  0  0  0
 16 32  1  0  0  0  0
 17 16  1  0  0  0  0
 17 15  1  0  0  0  0
 18 23  1  0  0  0  0
 19 18  1  0  0  0  0
 19 36  1  0  0  0  0
 20 19  1  0  0  0  0
 20 21  1  0  0  0  0
 21 22  1  0  0  0  0
 22 39  1  0  0  0  0
 22 40  1  0  0  0  0
 23 22  1  0  0  0  0
 23 42  1  0  0  0  0
 24  3  1  0  0  0  0
 28 11  1  0  0  0  0
 31 16  1  0  0  0  0
 33 17  1  0  0  0  0
 34 17  1  0  0  0  0
 35 19  1  0  0  0  0
 37 20  1  0  0  0  0
 38 20  1  0  0  0  0
 41 23  1  0  0  0  0
M  END
>  <Pose>
1

>  <Score>
-5.60

$$$$
