
 OpenBabel03202209423D

 54 57  0  0  1  0  0  0  0  0999 V2000
  -38.8460  -68.0840   50.9030 Cl  0  0  0  0  0  0  0  0  0  0  0  0
  -39.3330  -68.8720   52.3850 C   0  0  0  0  0  0  0  0  0  0  0  0
  -40.5350  -68.4890   52.9690 C   0  0  0  0  0  0  0  0  0  0  0  0
  -40.9070  -69.1680   54.1000 C   0  0  0  0  0  0  0  0  0  0  0  0
  -40.1100  -70.1750   54.6310 C   0  0  0  0  0  0  0  0  0  0  0  0
  -38.8910  -70.5660   54.0410 C   0  0  0  0  0  0  0  0  0  0  0  0
  -38.5640  -69.8650   52.8970 C   0  0  0  0  0  0  0  0  0  0  0  0
  -41.2180  -67.2800   52.4390 C   0  0  0  0  0  0  0  0  0  0  0  0
  -42.3670  -66.9190   53.1870 N   0  0  0  0  0  0  0  0  0  0  0  0
  -42.8420  -65.6320   53.4460 C   0  0  0  0  0  0  0  0  0  0  0  0
  -42.3080  -64.6400   53.0210 O   0  0  0  0  0  0  0  0  0  0  0  0
  -44.1120  -65.5040   54.2940 C   0  0  0  0  0  0  0  0  0  0  0  0
  -45.2210  -65.4340   53.3730 N   0  0  0  0  0  0  0  0  0  0  0  0
  -45.0600  -65.3070   51.9990 C   0  0  0  0  0  0  0  0  0  0  0  0
  -46.4750  -65.5850   51.3350 C   0  0  0  0  0  0  0  0  0  0  0  0
  -47.3520  -65.1370   52.3840 N   0  0  0  0  0  0  0  0  0  0  0  0
  -47.5230  -66.2000   53.4180 C   0  0  0  0  0  0  0  0  0  0  0  0
  -46.1030  -66.6130   53.6870 C   0  0  0  0  0  0  0  0  0  0  0  0
  -48.0190  -63.9490   52.4050 C   0  0  0  0  0  0  0  0  0  0  0  0
  -48.0250  -63.2920   53.5020 O   0  0  0  0  0  0  0  0  0  0  0  0
  -48.7850  -63.3030   51.2930 C   0  0  1  0  0  0  0  0  0  0  0  0
  -49.5750  -64.3990   50.7250 O   0  0  0  0  0  0  0  0  0  0  0  0
  -50.0060  -65.2830   51.7560 C   0  0  0  0  0  0  0  0  0  0  0  0
  -50.3080  -64.7300   52.9730 C   0  0  0  0  0  0  0  0  0  0  0  0
  -50.7290  -65.5130   54.0420 C   0  0  0  0  0  0  0  0  0  0  0  0
  -50.8270  -66.8790   53.8050 C   0  0  0  0  0  0  0  0  0  0  0  0
  -50.5400  -67.4660   52.5930 C   0  0  0  0  0  0  0  0  0  0  0  0
  -50.1270  -66.6530   51.5550 C   0  0  0  0  0  0  0  0  0  0  0  0
  -50.1890  -63.3460   53.1420 O   0  0  0  0  0  0  0  0  0  0  0  0
  -49.8810  -62.4790   52.0210 C   0  0  0  0  0  0  0  0  0  0  0  0
  -41.8160  -68.9500   54.6390 H   0  0  0  0  0  0  0  0  0  0  0  0
  -40.3540  -70.7290   55.5330 H   0  0  0  0  0  0  0  0  0  0  0  0
  -38.2950  -71.3520   54.4740 H   0  0  0  0  0  0  0  0  0  0  0  0
  -37.6580  -70.1680   52.4110 H   0  0  0  0  0  0  0  0  0  0  0  0
  -40.4280  -66.4560   52.5930 H   0  0  0  0  0  0  0  0  0  0  0  0
  -41.4390  -67.4290   51.3790 H   0  0  0  0  0  0  0  0  0  0  0  0
  -42.9100  -67.7060   53.6930 H   0  0  0  0  0  0  0  0  0  0  0  0
  -44.2360  -66.3770   54.9470 H   0  0  0  0  0  0  0  0  0  0  0  0
  -44.0330  -64.5730   54.8660 H   0  0  0  0  0  0  0  0  0  0  0  0
  -44.3630  -65.9180   51.4600 H   0  0  0  0  0  0  0  0  0  0  0  0
  -44.9540  -64.2030   51.7530 H   0  0  0  0  0  0  0  0  0  0  0  0
  -46.5450  -66.6710   51.1890 H   0  0  0  0  0  0  0  0  0  0  0  0
  -46.5880  -65.0020   50.4300 H   0  0  0  0  0  0  0  0  0  0  0  0
  -47.9970  -67.0380   52.8760 H   0  0  0  0  0  0  0  0  0  0  0  0
  -48.1080  -65.8840   54.2550 H   0  0  0  0  0  0  0  0  0  0  0  0
  -45.7700  -67.3810   52.9680 H   0  0  0  0  0  0  0  0  0  0  0  0
  -45.8600  -66.9210   54.6950 H   0  0  0  0  0  0  0  0  0  0  0  0
  -48.2200  -62.7600   50.5800 H   0  0  0  0  0  0  0  0  0  0  0  0
  -50.9500  -65.0470   55.0120 H   0  0  0  0  0  0  0  0  0  0  0  0
  -51.1380  -67.4910   54.6430 H   0  0  0  0  0  0  0  0  0  0  0  0
  -50.6210  -68.5610   52.4560 H   0  0  0  0  0  0  0  0  0  0  0  0
  -49.8870  -67.0560   50.5800 H   0  0  0  0  0  0  0  0  0  0  0  0
  -49.3120  -61.6240   52.4750 H   0  0  0  0  0  0  0  0  0  0  0  0
  -50.7120  -62.2290   51.4020 H   0  0  0  0  0  0  0  0  0  0  0  0
  1  2  1  0  0  0  0
  2  7  2  0  0  0  0
  2  3  1  0  0  0  0
  3  4  2  0  0  0  0
  4  5  1  0  0  0  0
  4 31  1  0  0  0  0
  5 32  1  0  0  0  0
  6 33  1  0  0  0  0
  6  5  2  0  0  0  0
  7  6  1  0  0  0  0
  8 35  1  0  0  0  0
  8  3  1  0  0  0  0
  8  9  1  0  0  0  0
  9 10  1  0  0  0  0
  9 37  1  0  0  0  0
 10 12  1  0  0  0  0
 11 10  2  0  0  0  0
 12 39  1  0  0  0  0
 12 38  1  0  0  0  0
 13 18  1  0  0  0  0
 13 12  1  0  0  0  0
 14 13  1  0  0  0  0
 15 14  1  0  0  0  0
 15 16  1  0  0  0  0
 16 19  1  0  0  0  0
 16 17  1  0  0  0  0
 17 18  1  0  0  0  0
 17 45  1  0  0  0  0
 18 47  1  0  0  0  0
 19 20  2  0  0  0  0
 21 48  1  6  0  0  0
 21 30  1  0  0  0  0
 21 19  1  0  0  0  0
 22 21  1  0  0  0  0
 22 23  1  0  0  0  0
 23 24  1  0  0  0  0
 24 29  1  0  0  0  0
 24 25  2  0  0  0  0
 25 49  1  0  0  0  0
 26 25  1  0  0  0  0
 26 50  1  0  0  0  0
 27 26  2  0  0  0  0
 28 23  2  0  0  0  0
 28 27  1  0  0  0  0
 30 53  1  0  0  0  0
 30 29  1  0  0  0  0
 34  7  1  0  0  0  0
 36  8  1  0  0  0  0
 40 14  1  0  0  0  0
 41 14  1  0  0  0  0
 42 15  1  0  0  0  0
 43 15  1  0  0  0  0
 44 17  1  0  0  0  0
 46 18  1  0  0  0  0
 51 27  1  0  0  0  0
 52 28  1  0  0  0  0
 54 30  1  0  0  0  0
M  END
>  <Pose>
1

>  <Score>
-4.97

$$$$
