
 OpenBabel03202209423D

 50 53  0  0  1  0  0  0  0  0999 V2000
  -40.6400  -69.3100   55.4740 Cl  0  0  0  0  0  0  0  0  0  0  0  0
  -41.1180  -68.2080   54.2080 C   0  0  0  0  0  0  0  0  0  0  0  0
  -42.2410  -67.4140   54.3020 C   0  0  0  0  0  0  0  0  0  0  0  0
  -42.5620  -66.5650   53.2610 C   0  0  0  0  0  0  0  0  0  0  0  0
  -41.8070  -66.4710   52.1190 C   0  0  0  0  0  0  0  0  0  0  0  0
  -40.6750  -67.2820   52.0410 C   0  0  0  0  0  0  0  0  0  0  0  0
  -40.3490  -68.1310   53.0760 C   0  0  0  0  0  0  0  0  0  0  0  0
  -42.1680  -65.5640   51.0010 C   0  0  1  0  0  0  0  0  0  0  0  0
  -42.8480  -64.3660   51.5080 N   0  0  0  0  0  0  0  0  0  0  0  0
  -41.8760  -63.6770   52.2740 C   0  0  0  0  0  0  0  0  0  0  0  0
  -42.0900  -62.9270   53.2560 O   0  0  0  0  0  0  0  0  0  0  0  0
  -40.5600  -64.0100   51.6960 C   0  0  0  0  0  0  0  0  0  0  0  0
  -39.4340  -63.6140   52.0720 O   0  0  0  0  0  0  0  0  0  0  0  0
  -40.8610  -64.9070   50.5890 C   0  0  0  0  0  0  0  0  0  0  0  0
  -40.1740  -65.0800   49.5140 C   0  0  0  0  0  0  0  0  0  0  0  0
  -40.5950  -65.9690   48.5260 O   0  0  0  0  0  0  0  0  0  0  0  0
  -38.9290  -64.3500   49.2980 C   0  0  0  0  0  0  0  0  0  0  0  0
  -38.6910  -63.1380   48.9400 O   0  0  0  0  0  0  0  0  0  0  0  0
  -37.4100  -62.9140   48.8730 C   0  0  0  0  0  0  0  0  0  0  0  0
  -36.7320  -64.0580   49.2100 C   0  0  0  0  0  0  0  0  0  0  0  0
  -37.6950  -64.9880   49.4840 C   0  0  0  0  0  0  0  0  0  0  0  0
  -44.2350  -63.9970   51.2650 C   0  0  0  0  0  0  0  0  0  0  0  0
  -44.4370  -63.1080   50.0770 C   0  0  0  0  0  0  0  0  0  0  0  0
  -45.2440  -61.9550   50.2840 N   0  0  0  0  0  4  0  0  0  0  0  0
  -44.8360  -60.7560   49.6250 C   0  0  0  0  0  0  0  0  0  0  0  0
  -44.8820  -60.8460   48.1160 C   0  0  0  0  0  0  0  0  0  0  0  0
  -46.1560  -61.1920   47.6790 O   0  0  0  0  0  0  0  0  0  0  0  0
  -46.6460  -62.3180   48.3310 C   0  0  0  0  0  0  0  0  0  0  0  0
  -46.6310  -62.1900   49.8320 C   0  0  0  0  0  0  0  0  0  0  0  0
  -42.8230  -67.4990   55.2060 H   0  0  0  0  0  0  0  0  0  0  0  0
  -43.4480  -65.9550   53.3740 H   0  0  0  0  0  0  0  0  0  0  0  0
  -40.0720  -67.2070   51.1240 H   0  0  0  0  0  0  0  0  0  0  0  0
  -39.4640  -68.7590   53.0080 H   0  0  0  0  0  0  0  0  0  0  0  0
  -42.6800  -66.0400   50.1700 H   0  0  0  0  0  0  0  0  0  0  0  0
  -36.8920  -61.9880   48.5980 H   0  0  0  0  0  0  0  0  0  0  0  0
  -35.6480  -64.2290   49.2600 H   0  0  0  0  0  0  0  0  0  0  0  0
  -37.5290  -66.0080   49.7880 H   0  0  0  0  0  0  0  0  0  0  0  0
  -44.6800  -63.5310   52.1780 H   0  0  0  0  0  0  0  0  0  0  0  0
  -44.7690  -64.9720   51.0890 H   0  0  0  0  0  0  0  0  0  0  0  0
  -43.4600  -62.8870   49.5910 H   0  0  0  0  0  0  0  0  0  0  0  0
  -44.9780  -63.7390   49.3140 H   0  0  0  0  0  0  0  0  0  0  0  0
  -45.2760  -61.7570   51.3080 H   0  0  0  0  0  0  0  0  0  0  0  0
  -45.6270  -59.9860   49.8840 H   0  0  0  0  0  0  0  0  0  0  0  0
  -43.8980  -60.3200   49.9510 H   0  0  0  0  0  0  0  0  0  0  0  0
  -44.7260  -59.7840   47.7600 H   0  0  0  0  0  0  0  0  0  0  0  0
  -44.0750  -61.4410   47.6770 H   0  0  0  0  0  0  0  0  0  0  0  0
  -46.0880  -63.2380   48.0470 H   0  0  0  0  0  0  0  0  0  0  0  0
  -47.7010  -62.4390   48.0090 H   0  0  0  0  0  0  0  0  0  0  0  0
  -47.2170  -61.2970   50.1050 H   0  0  0  0  0  0  0  0  0  0  0  0
  -47.0360  -63.1340   50.2380 H   0  0  0  0  0  0  0  0  0  0  0  0
  2  3  1  0  0  0  0
  2  1  1  0  0  0  0
  3 30  1  0  0  0  0
  4 31  1  0  0  0  0
  4  3  2  0  0  0  0
  5  4  1  0  0  0  0
  6  5  2  0  0  0  0
  6  7  1  0  0  0  0
  7  2  2  0  0  0  0
  8 34  1  6  0  0  0
  8  9  1  0  0  0  0
  8  5  1  0  0  0  0
  9 10  1  0  0  0  0
 10 11  2  0  0  0  0
 12 13  2  0  0  0  0
 12 10  1  0  0  0  0
 14  8  1  0  0  0  0
 14 12  1  0  0  0  0
 15 14  2  0  0  0  0
 16 15  1  0  0  0  0
 17 21  2  0  0  0  0
 17 15  1  0  0  0  0
 18 17  1  0  0  0  0
 19 18  1  0  0  0  0
 19 20  2  0  0  0  0
 20 36  1  0  0  0  0
 20 21  1  0  0  0  0
 21 37  1  0  0  0  0
 22  9  1  0  0  0  0
 22 38  1  0  0  0  0
 23 24  1  0  0  0  0
 23 22  1  0  0  0  0
 24 42  1  0  0  0  0
 25 43  1  0  0  0  0
 25 44  1  0  0  0  0
 25 24  1  0  0  0  0
 26 25  1  0  0  0  0
 27 26  1  0  0  0  0
 27 28  1  0  0  0  0
 28 29  1  0  0  0  0
 29 49  1  0  0  0  0
 29 50  1  0  0  0  0
 29 24  1  0  0  0  0
 32  6  1  0  0  0  0
 33  7  1  0  0  0  0
 35 19  1  0  0  0  0
 39 22  1  0  0  0  0
 40 23  1  0  0  0  0
 41 23  1  0  0  0  0
 45 26  1  0  0  0  0
 46 26  1  0  0  0  0
 47 28  1  0  0  0  0
 48 28  1  0  0  0  0
M  END
>  <Pose>
1

>  <Score>
-5.23

$$$$
