
 OpenBabel03202209423D

 47 51  0  0  1  0  0  0  0  0999 V2000
  -35.9450  -64.3890   47.7120 Cl  0  0  0  0  0  0  0  0  0  0  0  0
  -37.3450  -64.8660   48.6570 C   0  0  0  0  0  0  0  0  0  0  0  0
  -37.6600  -66.1970   48.7870 C   0  0  0  0  0  0  0  0  0  0  0  0
  -38.7760  -66.5620   49.5310 C   0  0  0  0  0  0  0  0  0  0  0  0
  -39.5930  -65.6580   50.1520 C   0  0  0  0  0  0  0  0  0  0  0  0
  -39.2530  -64.3350   50.0050 C   0  0  0  0  0  0  0  0  0  0  0  0
  -38.1360  -63.9390   49.2620 C   0  0  0  0  0  0  0  0  0  0  0  0
  -40.7190  -66.0230   50.8980 N   0  0  0  0  0  0  0  0  0  0  0  0
  -41.9150  -65.2610   51.1720 C   0  0  0  0  0  0  0  0  0  0  0  0
  -42.1330  -64.1010   50.8140 O   0  0  0  0  0  0  0  0  0  0  0  0
  -42.8520  -66.0820   51.9510 C   0  0  2  0  0  0  0  0  0  0  0  0
  -43.4670  -65.4080   53.1540 C   0  0  2  0  0  0  0  0  0  0  0  0
  -42.6360  -65.7010   54.2970 N   0  0  0  0  0  0  0  0  0  0  0  0
  -41.3980  -66.2420   53.7710 C   0  0  2  0  0  0  0  0  0  0  0  0
  -41.9120  -67.0660   52.6080 C   0  0  2  0  0  0  0  0  0  0  0  0
  -40.9080  -67.2900   51.5510 C   0  0  0  0  0  0  0  0  0  0  0  0
  -40.3770  -68.3800   51.3250 O   0  0  0  0  0  0  0  0  0  0  0  0
  -40.6780  -67.1020   54.7750 C   0  0  0  0  0  0  0  0  0  0  0  0
  -41.4160  -68.2940   55.1830 C   0  0  0  0  0  0  0  0  0  0  0  0
  -42.6570  -68.2670   55.2830 O   0  0  0  0  0  0  0  0  0  0  0  0
  -40.7210  -69.4920   55.4710 N   0  0  0  0  0  0  0  0  0  0  0  0
  -44.8300  -66.0300   53.2880 C   0  0  0  0  0  0  0  0  0  0  0  0
  -45.7530  -65.0750   52.9670 C   0  0  0  0  0  0  0  0  0  0  0  0
  -47.1270  -65.3580   52.9360 C   0  0  0  0  0  0  0  0  0  0  0  0
  -47.5810  -66.6250   53.2370 C   0  0  0  0  0  0  0  0  0  0  0  0
  -46.6570  -67.5820   53.5620 C   0  0  0  0  0  0  0  0  0  0  0  0
  -45.3100  -67.2880   53.5870 C   0  0  0  0  0  0  0  0  0  0  0  0
  -45.1330  -63.8150   52.7680 N   0  0  0  0  0  0  0  0  0  0  0  0
  -43.7420  -63.9950   52.9860 C   0  0  0  0  0  0  0  0  0  0  0  0
  -42.9250  -63.0510   53.0220 O   0  0  0  0  0  0  0  0  0  0  0  0
  -37.0410  -66.9600   48.3120 H   0  0  0  0  0  0  0  0  0  0  0  0
  -38.9670  -67.6010   49.5930 H   0  0  0  0  0  0  0  0  0  0  0  0
  -39.8140  -63.5430   50.4430 H   0  0  0  0  0  0  0  0  0  0  0  0
  -37.8820  -62.8840   49.1560 H   0  0  0  0  0  0  0  0  0  0  0  0
  -43.6040  -66.5920   51.3140 H   0  0  0  0  0  0  0  0  0  0  0  0
  -42.4750  -64.8030   54.8110 H   0  0  0  0  0  0  0  0  0  0  0  0
  -40.7570  -65.4430   53.3370 H   0  0  0  0  0  0  0  0  0  0  0  0
  -42.3990  -67.9980   52.9390 H   0  0  0  0  0  0  0  0  0  0  0  0
  -40.5270  -66.4530   55.6890 H   0  0  0  0  0  0  0  0  0  0  0  0
  -39.6590  -67.3020   54.3800 H   0  0  0  0  0  0  0  0  0  0  0  0
  -41.0620  -70.2290   56.1340 H   0  0  0  0  0  0  0  0  0  0  0  0
  -39.7890  -69.7360   55.0260 H   0  0  0  0  0  0  0  0  0  0  0  0
  -47.8520  -64.5940   52.6780 H   0  0  0  0  0  0  0  0  0  0  0  0
  -48.6550  -66.8170   53.2020 H   0  0  0  0  0  0  0  0  0  0  0  0
  -46.9890  -68.5730   53.8040 H   0  0  0  0  0  0  0  0  0  0  0  0
  -44.5920  -68.0590   53.8520 H   0  0  0  0  0  0  0  0  0  0  0  0
  -45.6200  -62.9040   52.5060 H   0  0  0  0  0  0  0  0  0  0  0  0
  1  2  1  0  0  0  0
  2  3  2  0  0  0  0
  2  7  1  0  0  0  0
  3  4  1  0  0  0  0
  4 32  1  0  0  0  0
  4  5  2  0  0  0  0
  5  8  1  0  0  0  0
  6  5  1  0  0  0  0
  6 33  1  0  0  0  0
  7  6  2  0  0  0  0
  8  9  1  0  0  0  0
  8 16  1  0  0  0  0
  9 11  1  0  0  0  0
 10  9  2  0  0  0  0
 11 35  1  6  0  0  0
 11 15  1  0  0  0  0
 11 12  1  0  0  0  0
 12 29  1  6  0  0  0
 12 22  1  0  0  0  0
 12 13  1  0  0  0  0
 13 36  1  0  0  0  0
 14 37  1  6  0  0  0
 14 13  1  0  0  0  0
 14 18  1  0  0  0  0
 15 38  1  1  0  0  0
 15 14  1  0  0  0  0
 16 15  1  0  0  0  0
 17 16  2  0  0  0  0
 18 19  1  0  0  0  0
 18 39  1  0  0  0  0
 19 20  2  0  0  0  0
 19 21  1  0  0  0  0
 21 41  1  0  0  0  0
 22 27  1  0  0  0  0
 23 22  2  0  0  0  0
 24 23  1  0  0  0  0
 24 25  2  0  0  0  0
 25 26  1  0  0  0  0
 26 27  2  0  0  0  0
 26 45  1  0  0  0  0
 27 46  1  0  0  0  0
 28 23  1  0  0  0  0
 28 29  1  0  0  0  0
 29 30  2  0  0  0  0
 31  3  1  0  0  0  0
 34  7  1  0  0  0  0
 40 18  1  0  0  0  0
 42 21  1  0  0  0  0
 43 24  1  0  0  0  0
 44 25  1  0  0  0  0
 47 28  1  0  0  0  0
M  END
>  <Pose>
1

>  <Score>
-6.15

$$$$
