
 OpenBabel03202209423D

 48 51  0  0  1  0  0  0  0  0999 V2000
  -31.9200  -63.3420   48.8360 Cl  0  0  0  0  0  0  0  0  0  0  0  0
  -33.0670  -64.5800   48.3730 C   0  0  0  0  0  0  0  0  0  0  0  0
  -33.2900  -65.6830   49.1910 C   0  0  0  0  0  0  0  0  0  0  0  0
  -34.1960  -66.6500   48.8160 C   0  0  0  0  0  0  0  0  0  0  0  0
  -34.9070  -66.5740   47.6370 C   0  0  0  0  0  0  0  0  0  0  0  0
  -34.6920  -65.4850   46.8210 C   0  0  0  0  0  0  0  0  0  0  0  0
  -33.7870  -64.5170   47.1950 C   0  0  0  0  0  0  0  0  0  0  0  0
  -35.8820  -67.5890   47.2080 C   0  0  0  0  0  0  0  0  0  0  0  0
  -37.0080  -67.7090   48.1890 C   0  0  0  0  0  0  0  0  0  0  0  0
  -36.8620  -68.5710   49.1240 O   0  0  0  0  0  0  0  0  0  0  0  0
  -38.1600  -66.9170   48.0850 N   0  0  0  0  0  0  0  0  0  0  0  0
  -38.1070  -65.5430   47.6980 C   0  0  0  0  0  0  0  0  0  0  0  0
  -39.2390  -64.7060   48.2220 C   0  0  0  0  0  0  0  0  0  0  0  0
  -39.8010  -65.3180   49.4510 C   0  0  2  0  0  0  0  0  0  0  0  0
  -39.9240  -66.6900   49.5650 C   0  0  0  0  0  0  0  0  0  0  0  0
  -40.4350  -67.2510   50.6660 N   0  0  0  0  0  0  0  0  0  0  0  0
  -40.8570  -66.5280   51.7260 C   0  0  2  0  0  0  0  0  0  0  0  0
  -40.7370  -65.1830   51.6190 N   0  0  0  0  0  0  0  0  0  0  0  0
  -40.2310  -64.5730   50.5330 C   0  0  0  0  0  0  0  0  0  0  0  0
  -40.1230  -63.1920   50.4560 O   0  0  0  0  0  0  0  0  0  0  0  0
  -41.3830  -67.1670   52.8610 N   0  0  0  0  0  0  0  0  0  0  0  0
  -42.4820  -66.5930   53.5790 C   0  0  0  0  0  0  0  0  0  0  0  0
  -43.1530  -67.7500   54.3340 C   0  0  0  0  0  0  0  0  0  0  0  0
  -42.2940  -68.3120   55.2450 O   0  0  0  0  0  0  0  0  0  0  0  0
  -41.0350  -68.5990   54.7910 C   0  0  0  0  0  0  0  0  0  0  0  0
  -40.8220  -68.4040   53.3150 C   0  0  0  0  0  0  0  0  0  0  0  0
  -39.4440  -67.4930   48.3790 C   0  0  0  0  0  0  0  0  0  0  0  0
  -32.7390  -65.7500   50.1140 H   0  0  0  0  0  0  0  0  0  0  0  0
  -34.3770  -67.5160   49.4480 H   0  0  0  0  0  0  0  0  0  0  0  0
  -35.2280  -65.3670   45.8660 H   0  0  0  0  0  0  0  0  0  0  0  0
  -33.6080  -63.6440   46.5490 H   0  0  0  0  0  0  0  0  0  0  0  0
  -35.3340  -68.5580   47.0990 H   0  0  0  0  0  0  0  0  0  0  0  0
  -36.2450  -67.2980   46.1980 H   0  0  0  0  0  0  0  0  0  0  0  0
  -37.1120  -65.0760   47.8780 H   0  0  0  0  0  0  0  0  0  0  0  0
  -38.2170  -65.5020   46.5670 H   0  0  0  0  0  0  0  0  0  0  0  0
  -40.0740  -64.5990   47.4680 H   0  0  0  0  0  0  0  0  0  0  0  0
  -38.9280  -63.6540   48.4270 H   0  0  0  0  0  0  0  0  0  0  0  0
  -39.4200  -62.6710   50.9870 H   0  0  0  0  0  0  0  0  0  0  0  0
  -43.2740  -66.1850   52.9070 H   0  0  0  0  0  0  0  0  0  0  0  0
  -42.1810  -65.7900   54.2940 H   0  0  0  0  0  0  0  0  0  0  0  0
  -43.3930  -68.5120   53.5640 H   0  0  0  0  0  0  0  0  0  0  0  0
  -44.0770  -67.4300   54.8150 H   0  0  0  0  0  0  0  0  0  0  0  0
  -40.2690  -68.0100   55.3420 H   0  0  0  0  0  0  0  0  0  0  0  0
  -40.8320  -69.6840   55.0020 H   0  0  0  0  0  0  0  0  0  0  0  0
  -41.2310  -69.2890   52.7530 H   0  0  0  0  0  0  0  0  0  0  0  0
  -39.7210  -68.3760   53.1560 H   0  0  0  0  0  0  0  0  0  0  0  0
  -39.3510  -68.5600   48.6510 H   0  0  0  0  0  0  0  0  0  0  0  0
  -40.1640  -67.3900   47.5380 H   0  0  0  0  0  0  0  0  0  0  0  0
  2  1  1  0  0  0  0
  2  3  1  0  0  0  0
  3 28  1  0  0  0  0
  4  3  2  0  0  0  0
  4 29  1  0  0  0  0
  5  4  1  0  0  0  0
  6  7  1  0  0  0  0
  6  5  2  0  0  0  0
  7  2  2  0  0  0  0
  8  5  1  0  0  0  0
  8  9  1  0  0  0  0
  9 10  2  0  0  0  0
 11  9  1  0  0  0  0
 11 27  1  0  0  0  0
 12 34  1  0  0  0  0
 12 11  1  0  0  0  0
 12 13  1  0  0  0  0
 13 37  1  0  0  0  0
 13 14  1  0  0  0  0
 14 15  1  6  0  0  0
 14 19  1  0  0  0  0
 15 16  2  0  0  0  0
 16 17  1  0  0  0  0
 17 21  1  1  0  0  0
 18 17  1  0  0  0  0
 19 18  2  0  0  0  0
 20 19  1  0  0  0  0
 20 38  1  0  0  0  0
 21 26  1  0  0  0  0
 21 22  1  0  0  0  0
 22 40  1  0  0  0  0
 22 23  1  0  0  0  0
 23 42  1  0  0  0  0
 23 24  1  0  0  0  0
 25 44  1  0  0  0  0
 25 24  1  0  0  0  0
 25 43  1  0  0  0  0
 26 25  1  0  0  0  0
 27 47  1  0  0  0  0
 27 15  1  0  0  0  0
 30  6  1  0  0  0  0
 31  7  1  0  0  0  0
 32  8  1  0  0  0  0
 33  8  1  0  0  0  0
 35 12  1  0  0  0  0
 36 13  1  0  0  0  0
 39 22  1  0  0  0  0
 41 23  1  0  0  0  0
 45 26  1  0  0  0  0
 46 26  1  0  0  0  0
 48 27  1  0  0  0  0
M  END
>  <Pose>
1

>  <Score>
-5.52

$$$$
