
 OpenBabel03202209423D

 37 40  0  0  0  0  0  0  0  0999 V2000
  -42.0290  -66.6860   52.4550 F   0  0  0  0  0  0  0  0  0  0  0  0
  -41.7880  -67.6500   53.3760 C   0  0  0  0  0  0  0  0  0  0  0  0
  -40.6740  -68.4420   53.3240 N   0  0  0  0  0  0  0  0  0  0  0  0
  -40.7760  -69.2680   54.3780 C   0  0  0  0  0  0  0  0  0  0  0  0
  -41.9070  -68.9940   55.0490 N   0  0  0  0  0  0  0  0  0  0  0  0
  -42.5700  -67.9850   54.4530 C   0  0  0  0  0  0  0  0  0  0  0  0
  -43.8600  -67.3890   54.8940 C   0  0  0  0  0  0  0  0  0  0  0  0
  -43.7770  -67.0010   56.1240 O   0  0  0  0  0  0  0  0  0  0  0  0
  -44.9850  -67.2610   54.1200 N   0  0  0  0  0  0  0  0  0  0  0  0
  -46.1040  -67.1350   53.3510 C   0  0  0  0  0  0  0  0  0  0  0  0
  -46.6810  -65.7440   53.2610 C   0  0  0  0  0  0  0  0  0  0  0  0
  -47.9410  -65.4030   53.5390 N   0  0  0  0  0  0  0  0  0  0  0  0
  -48.0580  -64.1000   53.3450 N   0  0  0  0  0  0  0  0  0  0  0  0
  -46.9070  -63.5990   52.9510 N   0  0  0  0  0  0  0  0  0  0  0  0
  -46.0580  -64.6260   52.9020 N   0  0  0  0  0  0  0  0  0  0  0  0
  -48.9210  -66.3460   53.9760 C   0  0  0  0  0  0  0  0  0  0  0  0
  -48.6260  -67.1290   55.0870 C   0  0  0  0  0  0  0  0  0  0  0  0
  -49.5270  -68.0780   55.5530 C   0  0  0  0  0  0  0  0  0  0  0  0
  -50.7430  -68.2750   54.9280 C   0  0  0  0  0  0  0  0  0  0  0  0
  -51.0290  -67.4950   53.8280 C   0  0  0  0  0  0  0  0  0  0  0  0
  -50.1330  -66.5500   53.3610 C   0  0  0  0  0  0  0  0  0  0  0  0
  -39.7680  -70.1830   54.5600 C   0  0  0  0  0  0  0  0  0  0  0  0
  -38.6710  -70.2710   53.7000 C   0  0  0  0  0  0  0  0  0  0  0  0
  -38.6020  -69.4120   52.6360 C   0  0  0  0  0  0  0  0  0  0  0  0
  -39.6350  -68.4960   52.4740 C   0  0  0  0  0  0  0  0  0  0  0  0
  -37.2430  -69.4630   51.5130 Cl  0  0  0  0  0  0  0  0  0  0  0  0
  -45.7700  -67.2410   55.2390 H   0  0  0  0  0  0  0  0  0  0  0  0
  -46.9870  -67.7570   53.7500 H   0  0  0  0  0  0  0  0  0  0  0  0
  -46.0510  -67.5190   52.2800 H   0  0  0  0  0  0  0  0  0  0  0  0
  -47.6810  -66.9860   55.5860 H   0  0  0  0  0  0  0  0  0  0  0  0
  -49.3100  -68.6950   56.4130 H   0  0  0  0  0  0  0  0  0  0  0  0
  -51.4570  -69.0290   55.2930 H   0  0  0  0  0  0  0  0  0  0  0  0
  -51.9960  -67.6480   53.3270 H   0  0  0  0  0  0  0  0  0  0  0  0
  -50.3960  -65.9590   52.4930 H   0  0  0  0  0  0  0  0  0  0  0  0
  -39.7800  -70.8810   55.3850 H   0  0  0  0  0  0  0  0  0  0  0  0
  -37.8720  -71.0080   53.8530 H   0  0  0  0  0  0  0  0  0  0  0  0
  -39.5600  -67.8270   51.6320 H   0  0  0  0  0  0  0  0  0  0  0  0
  1  2  1  0  0  0  0
  2  6  2  0  0  0  0
  3  2  1  0  0  0  0
  3  4  1  0  0  0  0
  4 22  1  0  0  0  0
  4  5  2  0  0  0  0
  6  7  1  0  0  0  0
  6  5  1  0  0  0  0
  7  8  2  0  0  0  0
  9  7  1  0  0  0  0
  9 27  1  0  0  0  0
 10 28  1  0  0  0  0
 10  9  1  0  0  0  0
 11 10  1  0  0  0  0
 11 12  1  0  0  0  0
 12 16  1  0  0  0  0
 13 12  1  0  0  0  0
 14 13  2  0  0  0  0
 15 14  1  0  0  0  0
 15 11  2  0  0  0  0
 16 17  1  0  0  0  0
 17 18  2  0  0  0  0
 17 30  1  0  0  0  0
 18 31  1  0  0  0  0
 19 32  1  0  0  0  0
 19 18  1  0  0  0  0
 20 19  2  0  0  0  0
 21 20  1  0  0  0  0
 21 16  2  0  0  0  0
 22 35  1  0  0  0  0
 23 36  1  0  0  0  0
 23 22  2  0  0  0  0
 24 23  1  0  0  0  0
 25 24  2  0  0  0  0
 25  3  1  0  0  0  0
 26 24  1  0  0  0  0
 29 10  1  0  0  0  0
 33 20  1  0  0  0  0
 34 21  1  0  0  0  0
 37 25  1  0  0  0  0
M  END
>  <Pose>
1

>  <Score>
-6.66

$$$$
