
 OpenBabel03202209423D

 41 44  0  0  0  0  0  0  0  0999 V2000
  -41.9020  -65.4430   51.3630 F   0  0  0  0  0  0  0  0  0  0  0  0
  -40.9700  -66.4240   51.4300 C   0  0  0  0  0  0  0  0  0  0  0  0
  -40.9730  -67.2620   52.5340 C   0  0  0  0  0  0  0  0  0  0  0  0
  -40.0560  -68.2810   52.6710 C   0  0  0  0  0  0  0  0  0  0  0  0
  -39.1210  -68.4420   51.6620 C   0  0  0  0  0  0  0  0  0  0  0  0
  -39.1170  -67.6120   50.5660 C   0  0  0  0  0  0  0  0  0  0  0  0
  -40.0360  -66.5970   50.4360 C   0  0  0  0  0  0  0  0  0  0  0  0
  -37.9500  -69.7380   51.8310 Cl  0  0  0  0  0  0  0  0  0  0  0  0
  -40.2620  -69.0130   53.9030 C   0  0  0  0  0  0  0  0  0  0  0  0
  -39.6190  -69.9920   54.3460 O   0  0  0  0  0  0  0  0  0  0  0  0
  -41.4000  -68.3710   54.5490 C   0  0  0  0  0  0  0  0  0  0  0  0
  -41.9040  -68.7180   55.6630 O   0  0  0  0  0  0  0  0  0  0  0  0
  -41.8170  -67.3110   53.7040 N   0  0  0  0  0  0  0  0  0  0  0  0
  -42.9130  -66.3930   53.9370 C   0  0  0  0  0  0  0  0  0  0  0  0
  -44.2080  -66.9490   53.6080 N   0  0  0  0  0  0  0  0  0  0  0  0
  -45.2180  -66.4420   54.4730 C   0  0  0  0  0  0  0  0  0  0  0  0
  -46.4900  -66.0430   53.8130 C   0  0  0  0  0  0  0  0  0  0  0  0
  -46.3040  -65.4010   52.5380 N   0  0  0  0  0  0  0  0  0  0  0  0
  -45.0320  -65.5470   51.8710 C   0  0  0  0  0  0  0  0  0  0  0  0
  -44.5150  -66.9270   52.2180 C   0  0  0  0  0  0  0  0  0  0  0  0
  -47.3190  -64.6370   51.9190 C   0  0  0  0  0  0  0  0  0  0  0  0
  -48.3870  -65.2210   51.3510 N   0  0  0  0  0  0  0  0  0  0  0  0
  -49.3670  -64.5150   50.7540 C   0  0  0  0  0  0  0  0  0  0  0  0
  -49.3060  -63.1360   50.7070 C   0  0  0  0  0  0  0  0  0  0  0  0
  -48.2410  -62.5450   51.2740 N   0  0  0  0  0  0  0  0  0  0  0  0
  -47.2610  -63.2490   51.8700 C   0  0  0  0  0  0  0  0  0  0  0  0
  -38.3630  -67.7660   49.7810 H   0  0  0  0  0  0  0  0  0  0  0  0
  -40.0080  -65.9510   49.5500 H   0  0  0  0  0  0  0  0  0  0  0  0
  -42.8420  -66.0620   54.9770 H   0  0  0  0  0  0  0  0  0  0  0  0
  -42.7620  -65.4990   53.2970 H   0  0  0  0  0  0  0  0  0  0  0  0
  -45.4520  -67.2360   55.2290 H   0  0  0  0  0  0  0  0  0  0  0  0
  -44.8030  -65.5920   55.0840 H   0  0  0  0  0  0  0  0  0  0  0  0
  -47.2350  -66.8750   53.7630 H   0  0  0  0  0  0  0  0  0  0  0  0
  -46.9780  -65.2720   54.4800 H   0  0  0  0  0  0  0  0  0  0  0  0
  -44.3430  -64.8110   52.3640 H   0  0  0  0  0  0  0  0  0  0  0  0
  -45.1000  -65.3860   50.7820 H   0  0  0  0  0  0  0  0  0  0  0  0
  -43.6720  -67.2670   51.6210 H   0  0  0  0  0  0  0  0  0  0  0  0
  -45.3340  -67.6830   52.0410 H   0  0  0  0  0  0  0  0  0  0  0  0
  -50.2250  -64.9980   50.2980 H   0  0  0  0  0  0  0  0  0  0  0  0
  -50.1090  -62.5920   50.2200 H   0  0  0  0  0  0  0  0  0  0  0  0
  -46.3990  -62.7800   52.3300 H   0  0  0  0  0  0  0  0  0  0  0  0
  1  2  1  0  0  0  0
  2  3  1  0  0  0  0
  3  4  2  0  0  0  0
  3 13  1  0  0  0  0
  4  9  1  0  0  0  0
  5  8  1  0  0  0  0
  5  4  1  0  0  0  0
  6  5  2  0  0  0  0
  7  6  1  0  0  0  0
  7  2  2  0  0  0  0
  9 10  2  0  0  0  0
  9 11  1  0  0  0  0
 11 12  2  0  0  0  0
 13 14  1  0  0  0  0
 13 11  1  0  0  0  0
 14 29  1  0  0  0  0
 15 14  1  0  0  0  0
 15 16  1  0  0  0  0
 16 32  1  0  0  0  0
 16 31  1  0  0  0  0
 17 16  1  0  0  0  0
 17 34  1  0  0  0  0
 18 17  1  0  0  0  0
 19 20  1  0  0  0  0
 19 35  1  0  0  0  0
 19 18  1  0  0  0  0
 20 15  1  0  0  0  0
 21 18  1  0  0  0  0
 22 21  2  0  0  0  0
 23 22  1  0  0  0  0
 24 23  2  0  0  0  0
 24 25  1  0  0  0  0
 25 26  2  0  0  0  0
 26 21  1  0  0  0  0
 26 41  1  0  0  0  0
 27  6  1  0  0  0  0
 28  7  1  0  0  0  0
 30 14  1  0  0  0  0
 33 17  1  0  0  0  0
 36 19  1  0  0  0  0
 37 20  1  0  0  0  0
 38 20  1  0  0  0  0
 39 23  1  0  0  0  0
 40 24  1  0  0  0  0
M  END
>  <Pose>
1

>  <Score>
-5.78

$$$$
