
 OpenBabel03202209423D

 41 43  0  0  0  0  0  0  0  0999 V2000
  -45.2990  -67.3170   53.7500 Cl  0  0  0  0  0  0  0  0  0  0  0  0
  -46.3600  -66.0460   53.2030 C   0  0  0  0  0  0  0  0  0  0  0  0
  -47.6540  -65.9230   53.6840 C   0  0  0  0  0  0  0  0  0  0  0  0
  -48.5080  -64.9220   53.2610 C   0  0  0  0  0  0  0  0  0  0  0  0
  -48.0290  -64.0240   52.3260 C   0  0  0  0  0  0  0  0  0  0  0  0
  -46.7360  -64.1610   51.8560 C   0  0  0  0  0  0  0  0  0  0  0  0
  -45.8670  -65.1560   52.2680 C   0  0  0  0  0  0  0  0  0  0  0  0
  -44.4770  -65.2480   51.7260 C   0  0  0  0  0  0  0  0  0  0  0  0
  -43.4770  -65.0270   52.8190 C   0  0  0  0  0  0  0  0  0  0  0  0
  -43.5260  -63.9080   53.4390 O   0  0  0  0  0  0  0  0  0  0  0  0
  -42.5200  -66.0220   53.1490 N   0  0  0  0  0  0  0  0  0  0  0  0
  -41.2650  -66.0270   52.4830 C   0  0  0  0  0  0  0  0  0  0  0  0
  -40.9880  -67.4580   52.0040 C   0  0  0  0  0  0  0  0  0  0  0  0
  -40.8800  -68.2270   53.3040 C   0  0  0  0  0  0  0  0  0  0  0  0
  -41.7770  -67.9680   54.3190 C   0  0  0  0  0  0  0  0  0  0  0  0
  -41.6540  -68.6630   55.4860 N   0  0  0  0  0  0  0  0  0  0  0  0
  -40.6980  -69.5850   55.6840 C   0  0  0  0  0  0  0  0  0  0  0  0
  -39.8320  -69.8240   54.6830 N   0  0  0  0  0  0  0  0  0  0  0  0
  -39.9030  -69.1620   53.4910 C   0  0  0  0  0  0  0  0  0  0  0  0
  -39.0130  -69.4060   52.4610 O   0  0  0  0  0  0  0  0  0  0  0  0
  -42.8560  -66.9750   54.1530 C   0  0  0  0  0  0  0  0  0  0  0  0
  -48.8810  -63.0250   51.9040 O   0  0  0  0  0  0  0  0  0  0  0  0
  -50.0390  -62.6040   52.5950 C   0  0  0  0  0  0  0  0  0  0  0  0
  -50.5280  -63.5660   53.6200 C   0  0  0  0  0  0  0  0  0  0  0  0
  -49.7960  -64.7580   53.7060 O   0  0  0  0  0  0  0  0  0  0  0  0
  -48.0480  -66.6100   54.4120 H   0  0  0  0  0  0  0  0  0  0  0  0
  -46.3680  -63.4490   51.1200 H   0  0  0  0  0  0  0  0  0  0  0  0
  -44.3890  -64.4540   50.9530 H   0  0  0  0  0  0  0  0  0  0  0  0
  -44.2840  -66.1980   51.2260 H   0  0  0  0  0  0  0  0  0  0  0  0
  -40.4160  -65.7490   53.1720 H   0  0  0  0  0  0  0  0  0  0  0  0
  -41.1920  -65.3120   51.6410 H   0  0  0  0  0  0  0  0  0  0  0  0
  -40.0710  -67.5290   51.4190 H   0  0  0  0  0  0  0  0  0  0  0  0
  -41.8750  -67.7760   51.4240 H   0  0  0  0  0  0  0  0  0  0  0  0
  -40.6130  -70.1320   56.6230 H   0  0  0  0  0  0  0  0  0  0  0  0
  -38.3980  -70.2060   52.5430 H   0  0  0  0  0  0  0  0  0  0  0  0
  -43.8370  -67.4780   53.9230 H   0  0  0  0  0  0  0  0  0  0  0  0
  -43.0110  -66.5120   55.1580 H   0  0  0  0  0  0  0  0  0  0  0  0
  -49.7440  -61.6590   53.1410 H   0  0  0  0  0  0  0  0  0  0  0  0
  -50.8160  -62.2770   51.8770 H   0  0  0  0  0  0  0  0  0  0  0  0
  -50.5510  -63.1290   54.6500 H   0  0  0  0  0  0  0  0  0  0  0  0
  -51.6050  -63.7990   53.3840 H   0  0  0  0  0  0  0  0  0  0  0  0
  2  3  1  0  0  0  0
  3 26  1  0  0  0  0
  4  3  2  0  0  0  0
  4 25  1  0  0  0  0
  5  4  1  0  0  0  0
  6  7  1  0  0  0  0
  6  5  2  0  0  0  0
  7  2  2  0  0  0  0
  8  7  1  0  0  0  0
  8  9  1  0  0  0  0
  9 11  1  0  0  0  0
  9 10  2  0  0  0  0
 11 21  1  0  0  0  0
 12 11  1  0  0  0  0
 12 30  1  0  0  0  0
 13 12  1  0  0  0  0
 13 14  1  0  0  0  0
 14 19  1  0  0  0  0
 14 15  2  0  0  0  0
 15 16  1  0  0  0  0
 16 17  2  0  0  0  0
 17 34  1  0  0  0  0
 18 17  1  0  0  0  0
 19 18  2  0  0  0  0
 20 35  1  0  0  0  0
 20 19  1  0  0  0  0
 21 15  1  0  0  0  0
 21 37  1  0  0  0  0
 22  5  1  0  0  0  0
 22 23  1  0  0  0  0
 23 38  1  0  0  0  0
 23 24  1  0  0  0  0
 24 25  1  0  0  0  0
 24 40  1  0  0  0  0
 27  6  1  0  0  0  0
 28  8  1  0  0  0  0
 29  8  1  0  0  0  0
 31 12  1  0  0  0  0
 32 13  1  0  0  0  0
 33 13  1  0  0  0  0
 36 21  1  0  0  0  0
 39 23  1  0  0  0  0
 41 24  1  0  0  0  0
M  END
>  <Pose>
1

>  <Score>
-6.15

$$$$
