
 OpenBabel03202209423D

 36 39  0  0  0  0  0  0  0  0999 V2000
  -47.5960  -66.5140   54.4100 Cl  0  0  0  0  0  0  0  0  0  0  0  0
  -46.1180  -66.0950   53.5700 C   0  0  0  0  0  0  0  0  0  0  0  0
  -44.9030  -66.6780   53.8640 C   0  0  0  0  0  0  0  0  0  0  0  0
  -43.7310  -66.3570   53.2110 C   0  0  0  0  0  0  0  0  0  0  0  0
  -43.7960  -65.4020   52.2140 C   0  0  0  0  0  0  0  0  0  0  0  0
  -45.0050  -64.8120   51.9110 C   0  0  0  0  0  0  0  0  0  0  0  0
  -46.1770  -65.1330   52.5650 C   0  0  0  0  0  0  0  0  0  0  0  0
  -42.5520  -65.0420   51.4990 C   0  0  0  0  0  0  0  0  0  0  0  0
  -42.3400  -64.2150   50.5640 N   0  0  0  0  0  0  0  0  0  0  0  0
  -40.9560  -64.1630   50.1400 C   0  0  0  0  0  0  0  0  0  0  0  0
  -40.2530  -65.1560   51.0060 C   0  0  0  0  0  0  0  0  0  0  0  0
  -41.3230  -65.6710   51.8390 N   0  0  0  0  0  0  0  0  0  0  0  0
  -41.3430  -66.6470   52.8800 C   0  0  0  0  0  0  0  0  0  0  0  0
  -40.3530  -67.3910   53.4040 N   0  0  0  0  0  0  0  0  0  0  0  0
  -40.8100  -68.1780   54.3630 N   0  0  0  0  0  0  0  0  0  0  0  0
  -42.1380  -67.9110   54.4340 C   0  0  0  0  0  0  0  0  0  0  0  0
  -42.9070  -68.4770   55.2410 O   0  0  0  0  0  0  0  0  0  0  0  0
  -42.4870  -66.9760   53.5350 N   0  0  0  0  0  0  0  0  0  0  0  0
  -40.0530  -69.1220   55.1620 C   0  0  0  0  0  0  0  0  0  0  0  0
  -39.7910  -70.3880   54.3350 C   0  0  0  0  0  0  0  0  0  0  0  0
  -38.6900  -70.1470   53.3690 C   0  0  0  0  0  0  0  0  0  0  0  0
  -37.5200  -69.8240   53.6930 O   0  0  0  0  0  0  0  0  0  0  0  0
  -38.9770  -70.2910   51.9870 N   0  0  0  0  0  0  0  0  0  0  0  0
  -44.8910  -67.4210   54.6490 H   0  0  0  0  0  0  0  0  0  0  0  0
  -45.0220  -64.0700   51.1270 H   0  0  0  0  0  0  0  0  0  0  0  0
  -47.1300  -64.6700   52.3290 H   0  0  0  0  0  0  0  0  0  0  0  0
  -40.5340  -63.1440   50.2430 H   0  0  0  0  0  0  0  0  0  0  0  0
  -40.9510  -64.4740   49.0650 H   0  0  0  0  0  0  0  0  0  0  0  0
  -39.4220  -64.7210   51.5930 H   0  0  0  0  0  0  0  0  0  0  0  0
  -39.8390  -65.9870   50.3660 H   0  0  0  0  0  0  0  0  0  0  0  0
  -39.0440  -68.6910   55.3570 H   0  0  0  0  0  0  0  0  0  0  0  0
  -40.5640  -69.3890   56.0870 H   0  0  0  0  0  0  0  0  0  0  0  0
  -40.7040  -70.6930   53.7910 H   0  0  0  0  0  0  0  0  0  0  0  0
  -39.4640  -71.2300   54.9940 H   0  0  0  0  0  0  0  0  0  0  0  0
  -38.5450  -71.0140   51.3840 H   0  0  0  0  0  0  0  0  0  0  0  0
  -39.6600  -69.6290   51.5620 H   0  0  0  0  0  0  0  0  0  0  0  0
  2  3  1  0  0  0  0
  2  1  1  0  0  0  0
  3 24  1  0  0  0  0
  4 18  1  0  0  0  0
  4  3  2  0  0  0  0
  5  4  1  0  0  0  0
  6  5  1  0  0  0  0
  6  7  1  0  0  0  0
  7  2  2  0  0  0  0
  8 12  1  0  0  0  0
  8  5  2  0  0  0  0
  9  8  1  0  0  0  0
 10 27  1  0  0  0  0
 10  9  1  0  0  0  0
 10 11  1  0  0  0  0
 11 29  1  0  0  0  0
 11 12  1  0  0  0  0
 12 13  1  0  0  0  0
 13 14  2  0  0  0  0
 13 18  1  0  0  0  0
 14 15  1  0  0  0  0
 15 16  1  0  0  0  0
 15 19  1  0  0  0  0
 16 17  2  0  0  0  0
 18 16  1  0  0  0  0
 19 31  1  0  0  0  0
 19 32  1  0  0  0  0
 20 34  1  0  0  0  0
 20 19  1  0  0  0  0
 21 22  2  0  0  0  0
 21 20  1  0  0  0  0
 23 21  1  0  0  0  0
 25  6  1  0  0  0  0
 26  7  1  0  0  0  0
 28 10  1  0  0  0  0
 30 11  1  0  0  0  0
 33 20  1  0  0  0  0
 35 23  1  0  0  0  0
 36 23  1  0  0  0  0
M  END
>  <Pose>
1

>  <Score>
-6.43

$$$$
