
 OpenBabel03202209423D

 46 49  0  0  1  0  0  0  0  0999 V2000
  -32.4960  -69.2360   51.7790 Cl  0  0  0  0  0  0  0  0  0  0  0  0
  -34.0740  -68.6950   51.2340 C   0  0  0  0  0  0  0  0  0  0  0  0
  -34.2460  -67.4360   50.6960 C   0  0  0  0  0  0  0  0  0  0  0  0
  -35.5060  -67.0030   50.2610 C   0  0  0  0  0  0  0  0  0  0  0  0
  -36.5430  -67.8890   50.3980 C   0  0  0  0  0  0  0  0  0  0  0  0
  -36.3640  -69.1670   50.9450 C   0  0  0  0  0  0  0  0  0  0  0  0
  -35.1210  -69.5830   51.3700 C   0  0  0  0  0  0  0  0  0  0  0  0
  -37.8050  -67.4830   49.9720 O   0  0  0  0  0  0  0  0  0  0  0  0
  -38.0570  -66.2380   49.4240 C   0  0  0  0  0  0  0  0  0  0  0  0
  -37.0070  -65.3430   49.2860 C   0  0  0  0  0  0  0  0  0  0  0  0
  -35.6310  -65.6450   49.6960 C   0  0  2  0  0  0  0  0  0  0  0  0
  -34.7240  -65.5280   48.5080 C   0  0  0  0  0  0  0  0  0  0  0  0
  -35.0420  -66.1380   47.3140 C   0  0  0  0  0  0  0  0  0  0  0  0
  -34.2100  -66.0260   46.2430 N   0  0  0  0  0  0  0  0  0  0  0  0
  -33.0580  -65.3160   46.3380 C   0  0  0  0  0  0  0  0  0  0  0  0
  -32.3090  -65.2350   45.3240 O   0  0  0  0  0  0  0  0  0  0  0  0
  -32.7210  -64.7120   47.4890 N   0  0  0  0  0  0  0  0  0  0  0  0
  -33.5410  -64.8180   48.5520 C   0  0  0  0  0  0  0  0  0  0  0  0
  -33.2160  -64.2550   49.6070 O   0  0  0  0  0  0  0  0  0  0  0  0
  -31.4740  -63.9560   47.5570 C   0  0  0  0  0  0  0  0  0  0  0  0
  -34.6040  -66.6920   45.0060 C   0  0  0  0  0  0  0  0  0  0  0  0
  -36.2020  -66.8540   47.2140 O   0  0  0  0  0  0  0  0  0  0  0  0
  -37.3080  -64.1150   48.7320 C   0  0  0  0  0  0  0  0  0  0  0  0
  -36.3850  -63.2530   48.5810 O   0  0  0  0  0  0  0  0  0  0  0  0
  -38.5340  -63.7450   48.3290 N   0  0  0  0  0  0  0  0  0  0  0  0
  -39.5290  -64.6530   48.4820 C   0  0  0  0  0  0  0  0  0  0  0  0
  -40.6720  -64.2860   48.0970 O   0  0  0  0  0  0  0  0  0  0  0  0
  -39.2820  -65.8630   49.0180 N   0  0  0  0  0  0  0  0  0  0  0  0
  -40.3990  -66.7760   49.1490 C   0  0  0  0  0  0  0  0  0  0  0  0
  -38.7980  -62.4300   47.7450 C   0  0  0  0  0  0  0  0  0  0  0  0
  -33.4080  -66.7470   50.5950 H   0  0  0  0  0  0  0  0  0  0  0  0
  -37.2340  -69.8150   51.0210 H   0  0  0  0  0  0  0  0  0  0  0  0
  -35.0030  -70.5730   51.7890 H   0  0  0  0  0  0  0  0  0  0  0  0
  -35.3050  -64.8610   50.4150 H   0  0  0  0  0  0  0  0  0  0  0  0
  -31.1310  -63.7920   48.5780 H   0  0  0  0  0  0  0  0  0  0  0  0
  -31.6980  -62.9720   47.0630 H   0  0  0  0  0  0  0  0  0  0  0  0
  -30.7270  -64.4570   46.9010 H   0  0  0  0  0  0  0  0  0  0  0  0
  -35.2070  -67.5870   45.2780 H   0  0  0  0  0  0  0  0  0  0  0  0
  -35.2700  -65.9880   44.4280 H   0  0  0  0  0  0  0  0  0  0  0  0
  -33.7170  -66.9540   44.4030 H   0  0  0  0  0  0  0  0  0  0  0  0
  -40.5460  -67.2930   48.1680 H   0  0  0  0  0  0  0  0  0  0  0  0
  -40.2220  -67.5420   49.9210 H   0  0  0  0  0  0  0  0  0  0  0  0
  -41.3280  -66.2270   49.4310 H   0  0  0  0  0  0  0  0  0  0  0  0
  -38.8720  -62.6230   46.6370 H   0  0  0  0  0  0  0  0  0  0  0  0
  -39.6930  -61.9600   48.1480 H   0  0  0  0  0  0  0  0  0  0  0  0
  -37.9190  -61.7970   47.8830 H   0  0  0  0  0  0  0  0  0  0  0  0
  2  7  1  0  0  0  0
  2  1  1  0  0  0  0
  3  2  2  0  0  0  0
  4  5  2  0  0  0  0
  4  3  1  0  0  0  0
  5  6  1  0  0  0  0
  6 32  1  0  0  0  0
  6  7  2  0  0  0  0
  7 33  1  0  0  0  0
  8  5  1  0  0  0  0
  9  8  1  0  0  0  0
 10  9  2  0  0  0  0
 10 11  1  0  0  0  0
 11  4  1  0  0  0  0
 11 34  1  1  0  0  0
 12 18  1  0  0  0  0
 12 11  1  0  0  0  0
 13 12  1  0  0  0  0
 14 15  1  0  0  0  0
 14 13  1  0  0  0  0
 15 17  1  0  0  0  0
 16 15  2  0  0  0  0
 17 20  1  0  0  0  0
 17 18  1  0  0  0  0
 18 19  2  0  0  0  0
 20 35  1  0  0  0  0
 21 38  1  0  0  0  0
 21 14  1  0  0  0  0
 22 13  2  0  0  0  0
 23 10  1  0  0  0  0
 24 23  2  0  0  0  0
 25 26  1  0  0  0  0
 25 23  1  0  0  0  0
 26 28  1  0  0  0  0
 27 26  2  0  0  0  0
 28 29  1  0  0  0  0
 28  9  1  0  0  0  0
 29 43  1  0  0  0  0
 29 42  1  0  0  0  0
 30 46  1  0  0  0  0
 30 45  1  0  0  0  0
 30 25  1  0  0  0  0
 31  3  1  0  0  0  0
 36 20  1  0  0  0  0
 37 20  1  0  0  0  0
 39 21  1  0  0  0  0
 40 21  1  0  0  0  0
 41 29  1  0  0  0  0
 44 30  1  0  0  0  0
M  END
>  <Pose>
1

>  <Score>
-4.59

$$$$
