
 OpenBabel03202209423D

 37 40  0  0  1  0  0  0  0  0999 V2000
  -38.2310  -70.0560   51.4780 Cl  0  0  0  0  0  0  0  0  0  0  0  0
  -39.2890  -69.4630   52.7550 C   0  0  0  0  0  0  0  0  0  0  0  0
  -40.1860  -68.4280   52.5020 C   0  0  0  0  0  0  0  0  0  0  0  0
  -40.9930  -68.0030   53.5310 C   0  0  0  0  0  0  0  0  0  0  0  0
  -40.9140  -68.5950   54.8020 C   0  0  0  0  0  0  0  0  0  0  0  0
  -40.0340  -69.6070   55.0420 C   0  0  0  0  0  0  0  0  0  0  0  0
  -39.2220  -70.0390   54.0070 C   0  0  0  0  0  0  0  0  0  0  0  0
  -41.9370  -66.9510   53.3690 N   0  0  0  0  0  0  0  0  0  0  0  0
  -41.8420  -65.7030   52.6920 C   0  0  0  0  0  0  0  0  0  0  0  0
  -41.0240  -65.4520   51.7920 O   0  0  0  0  0  0  0  0  0  0  0  0
  -42.8560  -64.7800   53.2320 C   0  0  1  0  0  0  0  0  0  0  0  0
  -43.4550  -63.9150   52.3740 O   0  0  0  0  0  0  0  0  0  0  0  0
  -44.7460  -63.8500   52.8650 N   0  0  0  0  0  0  0  0  0  0  0  0
  -45.1220  -65.1600   53.2970 C   0  0  0  0  0  0  0  0  0  0  0  0
  -43.9580  -65.7560   53.5240 C   0  0  0  0  0  0  0  0  0  0  0  0
  -43.2860  -66.9900   53.9040 C   0  0  0  0  0  0  0  0  0  0  0  0
  -43.8290  -67.8990   54.5810 O   0  0  0  0  0  0  0  0  0  0  0  0
  -46.4520  -65.7020   53.4970 C   0  0  0  0  0  0  0  0  0  0  0  0
  -46.6530  -67.0350   53.8690 C   0  0  0  0  0  0  0  0  0  0  0  0
  -47.9680  -67.2790   53.9730 N   0  0  0  0  0  0  0  0  0  0  0  0
  -48.6200  -66.1520   53.6810 N   0  0  0  0  0  0  0  0  0  0  0  0
  -47.7120  -65.1910   53.3900 C   0  0  0  0  0  0  0  0  0  0  0  0
  -48.0300  -63.7960   52.9960 C   0  0  0  0  0  0  0  0  0  0  0  0
  -48.6470  -68.5190   54.3310 C   0  0  0  0  0  0  0  0  0  0  0  0
  -40.2600  -67.9570   51.5150 H   0  0  0  0  0  0  0  0  0  0  0  0
  -41.5740  -68.2260   55.5900 H   0  0  0  0  0  0  0  0  0  0  0  0
  -39.9860  -70.0590   56.0510 H   0  0  0  0  0  0  0  0  0  0  0  0
  -38.5040  -70.8450   54.1650 H   0  0  0  0  0  0  0  0  0  0  0  0
  -42.4950  -64.3140   54.1750 H   0  0  0  0  0  0  0  0  0  0  0  0
  -45.3030  -62.9810   52.9050 H   0  0  0  0  0  0  0  0  0  0  0  0
  -45.8880  -67.7710   54.0490 H   0  0  0  0  0  0  0  0  0  0  0  0
  -48.0910  -63.1680   53.8910 H   0  0  0  0  0  0  0  0  0  0  0  0
  -49.0440  -63.7700   52.5310 H   0  0  0  0  0  0  0  0  0  0  0  0
  -47.3330  -63.4090   52.2350 H   0  0  0  0  0  0  0  0  0  0  0  0
  -49.3120  -68.8560   53.5060 H   0  0  0  0  0  0  0  0  0  0  0  0
  -47.9030  -69.3590   54.4320 H   0  0  0  0  0  0  0  0  0  0  0  0
  -49.2640  -68.4100   55.2430 H   0  0  0  0  0  0  0  0  0  0  0  0
  1  2  1  0  0  0  0
  2  7  1  0  0  0  0
  3  2  2  0  0  0  0
  3  4  1  0  0  0  0
  4  5  2  0  0  0  0
  5  6  1  0  0  0  0
  5 26  1  0  0  0  0
  6 27  1  0  0  0  0
  7 28  1  0  0  0  0
  7  6  2  0  0  0  0
  8  4  1  0  0  0  0
  8 16  1  0  0  0  0
  9 11  1  0  0  0  0
  9  8  1  0  0  0  0
 10  9  2  0  0  0  0
 11 15  1  0  0  0  0
 11 29  1  1  0  0  0
 12 13  1  0  0  0  0
 12 11  1  0  0  0  0
 13 30  1  0  0  0  0
 13 14  1  0  0  0  0
 14 18  1  0  0  0  0
 14 15  2  0  0  0  0
 15 16  1  0  0  0  0
 16 17  2  0  0  0  0
 18 19  2  0  0  0  0
 19 20  1  0  0  0  0
 19 31  1  0  0  0  0
 20 24  1  0  0  0  0
 21 20  1  0  0  0  0
 22 18  1  0  0  0  0
 22 21  2  0  0  0  0
 23 22  1  0  0  0  0
 23 32  1  0  0  0  0
 24 36  1  0  0  0  0
 24 37  1  0  0  0  0
 25  3  1  0  0  0  0
 33 23  1  0  0  0  0
 34 23  1  0  0  0  0
 35 24  1  0  0  0  0
M  END
>  <Pose>
1

>  <Score>
-6.76

$$$$
