
 OpenBabel03202209423D

 41 40  0  0  0  0  0  0  0  0999 V2000
  -47.5050  -65.7960   52.7020 B   0  0  0  0  0  0  0  0  0  0  0  0
  -45.6050  -65.5410   52.7620 C   0  0  0  0  0  0  0  0  0  0  0  0
  -44.7820  -66.5420   53.2010 C   0  0  0  0  0  0  0  0  0  0  0  0
  -43.4040  -66.3450   53.2390 C   0  0  0  0  0  0  0  0  0  0  0  0
  -42.9380  -65.1160   52.8200 C   0  0  0  0  0  0  0  0  0  0  0  0
  -43.7680  -64.1260   52.3840 C   0  0  0  0  0  0  0  0  0  0  0  0
  -45.1400  -64.3080   52.3400 C   0  0  0  0  0  0  0  0  0  0  0  0
  -41.5370  -64.9430   52.8700 O   0  0  0  0  0  0  0  0  0  0  0  0
  -40.7850  -64.7660   51.6840 C   0  0  0  0  0  0  0  0  0  0  0  0
  -42.5210  -67.3720   53.7810 C   0  0  0  0  0  0  0  0  0  0  0  0
  -41.3830  -67.9100   53.3530 N   0  0  0  0  0  0  0  0  0  0  0  0
  -40.9530  -68.8560   54.2380 C   0  0  0  0  0  0  0  0  0  0  0  0
  -41.8840  -68.8700   55.2200 N   0  0  0  0  0  0  0  0  0  0  0  0
  -42.8190  -67.9960   54.9630 N   0  0  0  0  0  0  0  0  0  0  0  0
  -39.8060  -69.4110   53.8180 N   0  0  0  0  0  0  0  0  0  0  0  0
  -39.4560  -68.8560   52.6640 C   0  0  0  0  0  0  0  0  0  0  0  0
  -40.4510  -67.9090   52.3660 C   0  0  0  0  0  0  0  0  0  0  0  0
  -40.3650  -67.1950   51.2370 N   0  0  0  0  0  0  0  0  0  0  0  0
  -39.3010  -67.4180   50.4190 C   0  0  0  0  0  0  0  0  0  0  0  0
  -39.2440  -66.7250   49.3560 O   0  0  0  0  0  0  0  0  0  0  0  0
  -38.3330  -68.3000   50.6550 N   0  0  0  0  0  0  0  0  0  0  0  0
  -38.4160  -69.0160   51.7780 C   0  0  0  0  0  0  0  0  0  0  0  0
  -37.5280  -69.8640   52.0510 O   0  0  0  0  0  0  0  0  0  0  0  0
  -37.2120  -68.4810   49.7160 C   0  0  0  0  0  0  0  0  0  0  0  0
  -41.3630  -66.2390   50.8530 C   0  0  0  0  0  0  0  0  0  0  0  0
  -39.0510  -70.4470   54.4940 C   0  0  0  0  0  0  0  0  0  0  0  0
  -45.1710  -67.4980   53.5260 H   0  0  0  0  0  0  0  0  0  0  0  0
  -43.3370  -63.1690   52.0630 H   0  0  0  0  0  0  0  0  0  0  0  0
  -45.7970  -63.5240   51.9940 H   0  0  0  0  0  0  0  0  0  0  0  0
  -39.7140  -64.9000   51.9660 H   0  0  0  0  0  0  0  0  0  0  0  0
  -41.0390  -65.5080   50.9110 H   0  0  0  0  0  0  0  0  0  0  0  0
  -40.8920  -63.7730   51.2420 H   0  0  0  0  0  0  0  0  0  0  0  0
  -37.5020  -69.0580   48.8360 H   0  0  0  0  0  0  0  0  0  0  0  0
  -36.9000  -67.4450   49.4080 H   0  0  0  0  0  0  0  0  0  0  0  0
  -36.3720  -68.8890   50.2880 H   0  0  0  0  0  0  0  0  0  0  0  0
  -41.1280  -65.9620   49.7580 H   0  0  0  0  0  0  0  0  0  0  0  0
  -41.2950  -65.2850   51.3600 H   0  0  0  0  0  0  0  0  0  0  0  0
  -42.3300  -66.7170   50.7660 H   0  0  0  0  0  0  0  0  0  0  0  0
  -38.6390  -71.1620   53.7400 H   0  0  0  0  0  0  0  0  0  0  0  0
  -38.2060  -69.9600   55.0230 H   0  0  0  0  0  0  0  0  0  0  0  0
  -39.6880  -71.0590   55.1670 H   0  0  0  0  0  0  0  0  0  0  0  0
  1  2  1  0  0  0  0
  2  3  1  0  0  0  0
  3  4  2  0  0  0  0
  3 27  1  0  0  0  0
  4 10  1  0  0  0  0
  5  8  1  0  0  0  0
  5  4  1  0  0  0  0
  6  5  2  0  0  0  0
  7  6  1  0  0  0  0
  7  2  2  0  0  0  0
 10 14  2  0  0  0  0
 11 10  1  0  0  0  0
 11 12  1  0  0  0  0
 12 13  2  0  0  0  0
 14 13  1  0  0  0  0
 15 12  1  0  0  0  0
 15 26  1  0  0  0  0
 16 15  1  0  0  0  0
 17 16  2  0  0  0  0
 17 11  1  0  0  0  0
 18 17  1  0  0  0  0
 19 21  1  0  0  0  0
 19 18  1  0  0  0  0
 20 19  2  0  0  0  0
 21 22  1  0  0  0  0
 22 23  2  0  0  0  0
 22 16  1  0  0  0  0
 24 35  1  0  0  0  0
 24 21  1  0  0  0  0
 25 31  1  0  0  0  0
 26 40  1  0  0  0  0
 26 41  1  0  0  0  0
 28  6  1  0  0  0  0
 29  7  1  0  0  0  0
 32  9  1  0  0  0  0
 33 24  1  0  0  0  0
 34 24  1  0  0  0  0
 37  9  1  0  0  0  0
 38 25  1  0  0  0  0
 39 26  1  0  0  0  0
M  END
>  <Pose>
1

>  <Score>
-6.01

$$$$
