
 OpenBabel03202209423D

 40 43  0  0  0  0  0  0  0  0999 V2000
  -34.3180  -65.1930   46.9760 Cl  0  0  0  0  0  0  0  0  0  0  0  0
  -35.5750  -65.9050   47.9730 C   0  0  0  0  0  0  0  0  0  0  0  0
  -36.9190  -65.6910   47.7340 C   0  0  0  0  0  0  0  0  0  0  0  0
  -37.8840  -66.2460   48.5120 N   0  0  0  0  0  0  0  0  0  0  0  0
  -37.6000  -67.0370   49.5610 C   0  0  0  0  0  0  0  0  0  0  0  0
  -38.5490  -67.5920   50.3380 N   0  0  0  0  0  0  0  0  0  0  0  0
  -39.8590  -67.3880   50.1130 C   0  0  0  0  0  0  0  0  0  0  0  0
  -40.1640  -66.5690   49.0240 C   0  0  0  0  0  0  0  0  0  0  0  0
  -39.1840  -66.0060   48.2360 C   0  0  0  0  0  0  0  0  0  0  0  0
  -39.4680  -65.2590   47.2450 O   0  0  0  0  0  0  0  0  0  0  0  0
  -40.9430  -67.9780   50.9410 C   0  0  0  0  0  0  0  0  0  0  0  0
  -40.9090  -67.4010   52.2340 N   0  0  0  0  0  0  0  0  0  0  0  0
  -41.0830  -68.2590   53.3450 C   0  0  0  0  0  0  0  0  0  0  0  0
  -41.7120  -67.5930   54.5590 C   0  0  0  0  0  0  0  0  0  0  0  0
  -42.9190  -66.8860   54.0550 C   0  0  0  0  0  0  0  0  0  0  0  0
  -42.7340  -66.1090   52.9310 C   0  0  0  0  0  0  0  0  0  0  0  0
  -43.7940  -65.4510   52.4380 N   0  0  0  0  0  0  0  0  0  0  0  0
  -45.0180  -65.5580   53.0420 C   0  0  0  0  0  0  0  0  0  0  0  0
  -45.1620  -66.3310   54.1440 N   0  0  0  0  0  0  0  0  0  0  0  0
  -44.1330  -67.0180   54.6890 C   0  0  0  0  0  0  0  0  0  0  0  0
  -46.2000  -64.8350   52.5050 C   0  0  0  0  0  0  0  0  0  0  0  0
  -41.3680  -66.0590   52.3540 C   0  0  0  0  0  0  0  0  0  0  0  0
  -36.2560  -67.2690   49.8240 C   0  0  0  0  0  0  0  0  0  0  0  0
  -35.2620  -66.7140   49.0450 C   0  0  0  0  0  0  0  0  0  0  0  0
  -37.1790  -65.0510   46.8870 H   0  0  0  0  0  0  0  0  0  0  0  0
  -41.2040  -66.3840   48.8150 H   0  0  0  0  0  0  0  0  0  0  0  0
  -41.9020  -67.7350   50.4290 H   0  0  0  0  0  0  0  0  0  0  0  0
  -40.7920  -69.0690   50.9620 H   0  0  0  0  0  0  0  0  0  0  0  0
  -40.1530  -68.7700   53.6750 H   0  0  0  0  0  0  0  0  0  0  0  0
  -41.8190  -69.0650   53.0580 H   0  0  0  0  0  0  0  0  0  0  0  0
  -40.9610  -66.8320   54.9120 H   0  0  0  0  0  0  0  0  0  0  0  0
  -41.9570  -68.3340   55.3170 H   0  0  0  0  0  0  0  0  0  0  0  0
  -44.2820  -67.6260   55.5700 H   0  0  0  0  0  0  0  0  0  0  0  0
  -45.8370  -64.0220   51.8480 H   0  0  0  0  0  0  0  0  0  0  0  0
  -46.7720  -65.5770   51.8920 H   0  0  0  0  0  0  0  0  0  0  0  0
  -46.8200  -64.4150   53.3200 H   0  0  0  0  0  0  0  0  0  0  0  0
  -40.6960  -65.4150   52.9740 H   0  0  0  0  0  0  0  0  0  0  0  0
  -41.4070  -65.6140   51.3370 H   0  0  0  0  0  0  0  0  0  0  0  0
  -36.0160  -67.9100   50.6750 H   0  0  0  0  0  0  0  0  0  0  0  0
  -34.2050  -66.9020   49.2600 H   0  0  0  0  0  0  0  0  0  0  0  0
  1  2  1  0  0  0  0
  2 24  2  0  0  0  0
  3  2  1  0  0  0  0
  3  4  1  0  0  0  0
  4  5  1  0  0  0  0
  5 23  2  0  0  0  0
  5  6  1  0  0  0  0
  7  6  2  0  0  0  0
  7 11  1  0  0  0  0
  8  7  1  0  0  0  0
  9  4  1  0  0  0  0
  9  8  1  0  0  0  0
 10  9  2  0  0  0  0
 11 28  1  0  0  0  0
 11 12  1  0  0  0  0
 12 22  1  0  0  0  0
 12 13  1  0  0  0  0
 13 29  1  0  0  0  0
 13 14  1  0  0  0  0
 14 31  1  0  0  0  0
 14 32  1  0  0  0  0
 15 14  1  0  0  0  0
 15 20  1  0  0  0  0
 16 15  2  0  0  0  0
 17 16  1  0  0  0  0
 17 18  2  0  0  0  0
 18 19  1  0  0  0  0
 19 20  2  0  0  0  0
 20 33  1  0  0  0  0
 21 18  1  0  0  0  0
 21 36  1  0  0  0  0
 22 16  1  0  0  0  0
 22 37  1  0  0  0  0
 23 39  1  0  0  0  0
 24 40  1  0  0  0  0
 24 23  1  0  0  0  0
 25  3  1  0  0  0  0
 26  8  1  0  0  0  0
 27 11  1  0  0  0  0
 30 13  1  0  0  0  0
 34 21  1  0  0  0  0
 35 21  1  0  0  0  0
 38 22  1  0  0  0  0
M  END
>  <Pose>
1

>  <Score>
-5.39

$$$$
