
 OpenBabel03202209423D

 50 53  0  0  1  0  0  0  0  0999 V2000
  -48.6820  -66.8170   54.3060 Cl  0  0  0  0  0  0  0  0  0  0  0  0
  -47.5940  -66.0660   53.1420 C   0  0  0  0  0  0  0  0  0  0  0  0
  -46.2310  -65.9680   53.4780 C   0  0  0  0  0  0  0  0  0  0  0  0
  -45.3920  -65.3900   52.5720 C   0  0  0  0  0  0  0  0  0  0  0  0
  -45.8480  -64.9020   51.3560 C   0  0  0  0  0  0  0  0  0  0  0  0
  -47.1870  -65.0100   51.0560 C   0  0  0  0  0  0  0  0  0  0  0  0
  -48.0690  -65.5910   51.9400 C   0  0  0  0  0  0  0  0  0  0  0  0
  -47.6550  -64.4730   49.7310 C   0  0  0  0  0  0  0  0  0  0  0  0
  -44.0030  -65.5270   53.1110 C   0  0  2  0  0  0  0  0  0  0  0  0
  -43.1550  -64.4300   52.8650 N   0  0  0  0  0  0  0  0  0  0  0  0
  -42.5230  -64.6700   51.5980 C   0  0  2  0  0  0  0  0  0  0  0  0
  -42.8020  -66.0540   51.1710 C   0  0  2  0  0  0  0  0  0  0  0  0
  -43.2970  -66.6830   52.4760 C   0  0  1  0  0  0  0  0  0  0  0  0
  -42.0370  -67.0220   53.1130 C   0  0  0  0  0  0  0  0  0  0  0  0
  -41.6350  -66.9910   54.2970 O   0  0  0  0  0  0  0  0  0  0  0  0
  -41.1830  -67.4690   52.0270 N   0  0  0  0  0  0  0  0  0  0  0  0
  -41.6660  -66.8980   50.8200 C   0  0  0  0  0  0  0  0  0  0  0  0
  -41.1900  -67.0980   49.6940 O   0  0  0  0  0  0  0  0  0  0  0  0
  -40.0440  -68.3450   52.0980 C   0  0  0  0  0  0  0  0  0  0  0  0
  -40.1990  -69.5350   52.9700 C   0  0  0  0  0  0  0  0  0  0  0  0
  -39.0770  -70.2320   53.3010 O   0  0  0  0  0  0  0  0  0  0  0  0
  -38.9300  -70.5080   54.6450 C   0  0  0  0  0  0  0  0  0  0  0  0
  -41.0610  -64.2650   51.6000 C   0  0  1  0  0  0  0  0  0  0  0  0
  -40.2610  -64.9830   52.4380 O   0  0  0  0  0  0  0  0  0  0  0  0
  -40.5870  -64.1210   50.1920 C   0  0  0  0  0  0  0  0  0  0  0  0
  -44.2190  -65.8400   54.5220 C   0  0  0  0  0  0  0  0  0  0  0  0
  -43.4360  -65.7800   55.5220 O   0  0  0  0  0  0  0  0  0  0  0  0
  -45.5500  -66.2700   54.6890 N   0  0  0  0  0  0  0  0  0  0  0  0
  -45.2110  -64.4230   50.6130 H   0  0  0  0  0  0  0  0  0  0  0  0
  -49.1280  -65.6650   51.6730 H   0  0  0  0  0  0  0  0  0  0  0  0
  -46.9380  -64.8000   48.9510 H   0  0  0  0  0  0  0  0  0  0  0  0
  -47.6050  -63.3450   49.7300 H   0  0  0  0  0  0  0  0  0  0  0  0
  -48.6550  -64.8310   49.4760 H   0  0  0  0  0  0  0  0  0  0  0  0
  -43.6570  -63.5100   52.8770 H   0  0  0  0  0  0  0  0  0  0  0  0
  -42.9710  -63.9730   50.8200 H   0  0  0  0  0  0  0  0  0  0  0  0
  -43.6610  -66.1680   50.4660 H   0  0  0  0  0  0  0  0  0  0  0  0
  -43.9590  -67.5460   52.2720 H   0  0  0  0  0  0  0  0  0  0  0  0
  -39.8020  -68.7100   51.0730 H   0  0  0  0  0  0  0  0  0  0  0  0
  -39.1540  -67.7440   52.4070 H   0  0  0  0  0  0  0  0  0  0  0  0
  -40.8820  -70.2490   52.4260 H   0  0  0  0  0  0  0  0  0  0  0  0
  -40.7760  -69.2750   53.8900 H   0  0  0  0  0  0  0  0  0  0  0  0
  -39.7550  -71.0930   55.0550 H   0  0  0  0  0  0  0  0  0  0  0  0
  -37.9900  -71.0880   54.7660 H   0  0  0  0  0  0  0  0  0  0  0  0
  -38.8520  -69.5210   55.1740 H   0  0  0  0  0  0  0  0  0  0  0  0
  -41.0870  -63.2150   52.0460 H   0  0  0  0  0  0  0  0  0  0  0  0
  -39.6260  -64.4400   52.9700 H   0  0  0  0  0  0  0  0  0  0  0  0
  -40.1980  -63.0680   50.0390 H   0  0  0  0  0  0  0  0  0  0  0  0
  -39.7030  -64.7540   49.9610 H   0  0  0  0  0  0  0  0  0  0  0  0
  -41.4330  -64.2460   49.5050 H   0  0  0  0  0  0  0  0  0  0  0  0
  -46.0090  -66.7270   55.5170 H   0  0  0  0  0  0  0  0  0  0  0  0
  2  3  1  0  0  0  0
  2  1  1  0  0  0  0
  3 28  1  0  0  0  0
  4  3  2  0  0  0  0
  5  4  1  0  0  0  0
  6  5  2  0  0  0  0
  6  7  1  0  0  0  0
  7  2  2  0  0  0  0
  8  6  1  0  0  0  0
  9  4  1  6  0  0  0
  9 26  1  0  0  0  0
 10 34  1  0  0  0  0
 10  9  1  0  0  0  0
 11 35  1  6  0  0  0
 11 23  1  0  0  0  0
 11 10  1  0  0  0  0
 12 36  1  6  0  0  0
 12 11  1  0  0  0  0
 12 13  1  0  0  0  0
 13 37  1  6  0  0  0
 13  9  1  0  0  0  0
 13 14  1  0  0  0  0
 14 15  2  0  0  0  0
 16 19  1  0  0  0  0
 16 14  1  0  0  0  0
 17 12  1  0  0  0  0
 17 16  1  0  0  0  0
 18 17  2  0  0  0  0
 19 39  1  0  0  0  0
 19 20  1  0  0  0  0
 20 21  1  0  0  0  0
 20 41  1  0  0  0  0
 21 22  1  0  0  0  0
 22 43  1  0  0  0  0
 22 42  1  0  0  0  0
 22 44  1  0  0  0  0
 23 45  1  1  0  0  0
 23 24  1  0  0  0  0
 24 46  1  0  0  0  0
 25 23  1  0  0  0  0
 26 28  1  0  0  0  0
 26 27  2  0  0  0  0
 28 50  1  0  0  0  0
 29  5  1  0  0  0  0
 30  7  1  0  0  0  0
 31  8  1  0  0  0  0
 32  8  1  0  0  0  0
 33  8  1  0  0  0  0
 38 19  1  0  0  0  0
 40 20  1  0  0  0  0
 47 25  1  0  0  0  0
 48 25  1  0  0  0  0
 49 25  1  0  0  0  0
M  END
>  <Pose>
1

>  <Score>
-6.20

$$$$
