
 OpenBabel03202209423D

 55 58  0  0  0  0  0  0  0  0999 V2000
  -38.4090  -69.7290   52.1790 B   0  0  0  0  0  0  0  0  0  0  0  0
  -39.8910  -68.9060   53.0310 C   0  0  0  0  0  0  0  0  0  0  0  0
  -40.5660  -67.8130   52.4590 C   0  0  0  0  0  0  0  0  0  0  0  0
  -41.6300  -67.2350   53.1010 C   0  0  0  0  0  0  0  0  0  0  0  0
  -42.0410  -67.7350   54.3150 C   0  0  0  0  0  0  0  0  0  0  0  0
  -41.3660  -68.8260   54.8840 C   0  0  0  0  0  0  0  0  0  0  0  0
  -40.3100  -69.3950   54.2480 C   0  0  0  0  0  0  0  0  0  0  0  0
  -43.0980  -67.1260   54.8980 O   0  0  0  0  0  0  0  0  0  0  0  0
  -44.4180  -67.1350   54.4760 C   0  0  0  0  0  0  0  0  0  0  0  0
  -42.3490  -66.1300   52.4830 C   0  0  0  0  0  0  0  0  0  0  0  0
  -42.0580  -65.5360   51.3710 C   0  0  0  0  0  0  0  0  0  0  0  0
  -41.0110  -65.8220   50.5410 O   0  0  0  0  0  0  0  0  0  0  0  0
  -41.0510  -64.9630   49.4450 C   0  0  0  0  0  0  0  0  0  0  0  0
  -42.0950  -64.0960   49.5110 C   0  0  0  0  0  0  0  0  0  0  0  0
  -42.3240  -63.1600   48.4970 C   0  0  0  0  0  0  0  0  0  0  0  0
  -41.5150  -63.0650   47.3950 C   0  0  0  0  0  0  0  0  0  0  0  0
  -40.4460  -63.9780   47.3740 C   0  0  0  0  0  0  0  0  0  0  0  0
  -40.2000  -64.8990   48.3350 C   0  0  0  0  0  0  0  0  0  0  0  0
  -39.0510  -65.8240   48.3410 C   0  0  0  0  0  0  0  0  0  0  0  0
  -37.7960  -65.1110   48.3210 N   0  0  0  0  0  4  0  0  0  0  0  0
  -36.8230  -65.8750   47.5610 C   0  0  0  0  0  0  0  0  0  0  0  0
  -35.4600  -65.8690   48.1110 C   0  0  0  0  0  0  0  0  0  0  0  0
  -35.0700  -64.6930   48.8210 N   0  0  0  0  0  0  0  0  0  0  0  0
  -36.0470  -63.7430   49.1070 C   0  0  0  0  0  0  0  0  0  0  0  0
  -37.3790  -64.4540   49.4630 C   0  0  0  0  0  0  0  0  0  0  0  0
  -33.9760  -64.8160   49.7070 C   0  0  0  0  0  0  0  0  0  0  0  0
  -32.6980  -64.2150   49.2390 C   0  0  0  0  0  0  0  0  0  0  0  0
  -39.6330  -63.8280   46.2310 O   0  0  0  0  0  0  0  0  0  0  0  0
  -42.7910  -64.4270   50.7590 C   0  0  0  0  0  0  0  0  0  0  0  0
  -43.8280  -63.8600   51.2110 O   0  0  0  0  0  0  0  0  0  0  0  0
  -40.1800  -67.4810   51.5090 H   0  0  0  0  0  0  0  0  0  0  0  0
  -41.6940  -69.2270   55.8420 H   0  0  0  0  0  0  0  0  0  0  0  0
  -39.8260  -70.2410   54.7310 H   0  0  0  0  0  0  0  0  0  0  0  0
  -45.1220  -67.4920   55.2780 H   0  0  0  0  0  0  0  0  0  0  0  0
  -44.6570  -67.7640   53.6020 H   0  0  0  0  0  0  0  0  0  0  0  0
  -44.7420  -66.0800   54.1770 H   0  0  0  0  0  0  0  0  0  0  0  0
  -43.2600  -65.7260   52.9920 H   0  0  0  0  0  0  0  0  0  0  0  0
  -43.1910  -62.5190   48.6470 H   0  0  0  0  0  0  0  0  0  0  0  0
  -41.6660  -62.3630   46.6090 H   0  0  0  0  0  0  0  0  0  0  0  0
  -39.1430  -66.5980   47.5660 H   0  0  0  0  0  0  0  0  0  0  0  0
  -39.1430  -66.4140   49.3140 H   0  0  0  0  0  0  0  0  0  0  0  0
  -38.0470  -64.2830   47.6080 H   0  0  0  0  0  0  0  0  0  0  0  0
  -36.8410  -65.5600   46.4880 H   0  0  0  0  0  0  0  0  0  0  0  0
  -37.1850  -66.9290   47.5330 H   0  0  0  0  0  0  0  0  0  0  0  0
  -35.2570  -66.8080   48.6820 H   0  0  0  0  0  0  0  0  0  0  0  0
  -34.7460  -65.9410   47.2290 H   0  0  0  0  0  0  0  0  0  0  0  0
  -35.7600  -63.0210   49.8590 H   0  0  0  0  0  0  0  0  0  0  0  0
  -36.3320  -63.1740   48.1780 H   0  0  0  0  0  0  0  0  0  0  0  0
  -38.0410  -63.5450   49.6370 H   0  0  0  0  0  0  0  0  0  0  0  0
  -37.3470  -64.9950   50.3930 H   0  0  0  0  0  0  0  0  0  0  0  0
  -34.2650  -64.3040   50.6730 H   0  0  0  0  0  0  0  0  0  0  0  0
  -33.8740  -65.9090   49.9540 H   0  0  0  0  0  0  0  0  0  0  0  0
  -32.6810  -63.9450   48.1820 H   0  0  0  0  0  0  0  0  0  0  0  0
  -32.4040  -63.3300   49.8630 H   0  0  0  0  0  0  0  0  0  0  0  0
  -31.9070  -64.9740   49.3760 H   0  0  0  0  0  0  0  0  0  0  0  0
  1  2  1  0  0  0  0
  2  7  1  0  0  0  0
  3  2  2  0  0  0  0
  3  4  1  0  0  0  0
  4  5  2  0  0  0  0
  5  6  1  0  0  0  0
  5  8  1  0  0  0  0
  6 32  1  0  0  0  0
  7 33  1  0  0  0  0
  7  6  2  0  0  0  0
  9  8  1  0  0  0  0
  9 34  1  0  0  0  0
 10 37  1  0  0  0  0
 10  4  1  0  0  0  0
 11 10  2  0  0  0  0
 12 11  1  0  0  0  0
 13 14  1  0  0  0  0
 13 12  1  0  0  0  0
 14 29  1  0  0  0  0
 15 38  1  0  0  0  0
 15 14  2  0  0  0  0
 16 15  1  0  0  0  0
 17 16  2  0  0  0  0
 17 18  1  0  0  0  0
 18 19  1  0  0  0  0
 18 13  2  0  0  0  0
 19 41  1  0  0  0  0
 20 19  1  0  0  0  0
 20 25  1  0  0  0  0
 21 22  1  0  0  0  0
 21 20  1  0  0  0  0
 22 45  1  0  0  0  0
 22 23  1  0  0  0  0
 23 24  1  0  0  0  0
 23 26  1  0  0  0  0
 24 25  1  0  0  0  0
 24 47  1  0  0  0  0
 25 49  1  0  0  0  0
 25 50  1  0  0  0  0
 26 52  1  0  0  0  0
 26 51  1  0  0  0  0
 27 55  1  0  0  0  0
 27 26  1  0  0  0  0
 27 54  1  0  0  0  0
 28 17  1  0  0  0  0
 29 30  2  0  0  0  0
 29 11  1  0  0  0  0
 31  3  1  0  0  0  0
 35  9  1  0  0  0  0
 36  9  1  0  0  0  0
 39 16  1  0  0  0  0
 40 19  1  0  0  0  0
 42 20  1  0  0  0  0
 43 21  1  0  0  0  0
 44 21  1  0  0  0  0
 46 22  1  0  0  0  0
 48 24  1  0  0  0  0
 53 27  1  0  0  0  0
M  END
>  <Pose>
1

>  <Score>
-6.22

$$$$
