
 OpenBabel03202209423D

 44 47  0  0  0  0  0  0  0  0999 V2000
  -40.5020  -64.3970   51.6850 Cl  0  0  0  0  0  0  0  0  0  0  0  0
  -41.8630  -65.1070   52.4960 C   0  0  0  0  0  0  0  0  0  0  0  0
  -41.9450  -66.4620   52.6930 C   0  0  0  0  0  0  0  0  0  0  0  0
  -43.0500  -66.9650   53.3420 C   0  0  0  0  0  0  0  0  0  0  0  0
  -44.0800  -66.1760   53.8070 C   0  0  0  0  0  0  0  0  0  0  0  0
  -43.9820  -64.8190   53.6010 C   0  0  0  0  0  0  0  0  0  0  0  0
  -42.8800  -64.3060   52.9510 C   0  0  0  0  0  0  0  0  0  0  0  0
  -45.2320  -66.7330   54.4880 N   0  0  0  0  0  0  0  0  0  0  0  0
  -46.3230  -67.1280   53.6670 C   0  0  0  0  0  0  0  0  0  0  0  0
  -47.3460  -66.1370   53.3470 C   0  0  0  0  0  0  0  0  0  0  0  0
  -48.3710  -66.1940   54.1620 O   0  0  0  0  0  0  0  0  0  0  0  0
  -47.4270  -65.1770   52.3690 N   0  0  0  0  0  0  0  0  0  0  0  0
  -46.8710  -63.8630   52.4240 C   0  0  0  0  0  0  0  0  0  0  0  0
  -45.9030  -63.7010   51.2550 C   0  0  0  0  0  0  0  0  0  0  0  0
  -46.7130  -63.8050   50.1030 O   0  0  0  0  0  0  0  0  0  0  0  0
  -47.1240  -65.1140   49.9820 C   0  0  0  0  0  0  0  0  0  0  0  0
  -48.1120  -65.4820   51.0940 C   0  0  0  0  0  0  0  0  0  0  0  0
  -40.9520  -67.3520   52.2490 N   0  0  0  0  0  0  0  0  0  0  0  0
  -40.5750  -67.4870   50.9930 N   0  0  0  0  0  0  0  0  0  0  0  0
  -39.6180  -68.3910   50.9010 N   0  0  0  0  0  0  0  0  0  0  0  0
  -39.3980  -68.8260   52.1250 N   0  0  0  0  0  0  0  0  0  0  0  0
  -40.2320  -68.1800   52.9950 C   0  0  0  0  0  0  0  0  0  0  0  0
  -40.2350  -68.4540   54.4310 C   0  0  0  0  0  0  0  0  0  0  0  0
  -41.3950  -68.8540   55.2190 C   0  0  0  0  0  0  0  0  0  0  0  0
  -40.4040  -69.9560   54.8060 C   0  0  0  0  0  0  0  0  0  0  0  0
  -43.1390  -68.0530   53.5120 H   0  0  0  0  0  0  0  0  0  0  0  0
  -44.7960  -64.2000   53.9690 H   0  0  0  0  0  0  0  0  0  0  0  0
  -42.8540  -63.2160   52.8140 H   0  0  0  0  0  0  0  0  0  0  0  0
  -45.2510  -66.8340   55.5070 H   0  0  0  0  0  0  0  0  0  0  0  0
  -46.8580  -67.9600   54.2240 H   0  0  0  0  0  0  0  0  0  0  0  0
  -45.9700  -67.6570   52.7360 H   0  0  0  0  0  0  0  0  0  0  0  0
  -47.7490  -63.1800   52.1040 H   0  0  0  0  0  0  0  0  0  0  0  0
  -46.5200  -63.4910   53.3710 H   0  0  0  0  0  0  0  0  0  0  0  0
  -45.3960  -62.7370   51.3270 H   0  0  0  0  0  0  0  0  0  0  0  0
  -45.1710  -64.5030   51.1800 H   0  0  0  0  0  0  0  0  0  0  0  0
  -46.2410  -65.7830   50.0170 H   0  0  0  0  0  0  0  0  0  0  0  0
  -47.6140  -65.2740   49.0130 H   0  0  0  0  0  0  0  0  0  0  0  0
  -48.4010  -66.5270   51.0170 H   0  0  0  0  0  0  0  0  0  0  0  0
  -48.9420  -64.7500   51.0260 H   0  0  0  0  0  0  0  0  0  0  0  0
  -39.3690  -68.0250   55.0300 H   0  0  0  0  0  0  0  0  0  0  0  0
  -41.4100  -68.5760   56.3160 H   0  0  0  0  0  0  0  0  0  0  0  0
  -42.3980  -69.0690   54.8600 H   0  0  0  0  0  0  0  0  0  0  0  0
  -39.8180  -70.3510   55.6450 H   0  0  0  0  0  0  0  0  0  0  0  0
  -40.6620  -70.6500   54.0100 H   0  0  0  0  0  0  0  0  0  0  0  0
  1  2  1  0  0  0  0
  2  3  2  0  0  0  0
  2  7  1  0  0  0  0
  3  4  1  0  0  0  0
  4 26  1  0  0  0  0
  4  5  2  0  0  0  0
  5  8  1  0  0  0  0
  6  5  1  0  0  0  0
  6 27  1  0  0  0  0
  7  6  2  0  0  0  0
  8 29  1  0  0  0  0
  9 30  1  0  0  0  0
  9  8  1  0  0  0  0
 10  9  1  0  0  0  0
 10 11  2  0  0  0  0
 12 13  1  0  0  0  0
 12 10  1  0  0  0  0
 13 33  1  0  0  0  0
 14 34  1  0  0  0  0
 14 13  1  0  0  0  0
 15 14  1  0  0  0  0
 16 36  1  0  0  0  0
 16 15  1  0  0  0  0
 16 17  1  0  0  0  0
 17 12  1  0  0  0  0
 18  3  1  0  0  0  0
 18 22  1  0  0  0  0
 19 18  1  0  0  0  0
 20 19  2  0  0  0  0
 20 21  1  0  0  0  0
 21 22  2  0  0  0  0
 22 23  1  0  0  0  0
 23 25  1  0  0  0  0
 23 40  1  0  0  0  0
 23 24  1  0  0  0  0
 24 41  1  0  0  0  0
 25 24  1  0  0  0  0
 25 43  1  0  0  0  0
 28  7  1  0  0  0  0
 31  9  1  0  0  0  0
 32 13  1  0  0  0  0
 35 14  1  0  0  0  0
 37 16  1  0  0  0  0
 38 17  1  0  0  0  0
 39 17  1  0  0  0  0
 42 24  1  0  0  0  0
 44 25  1  0  0  0  0
M  END
>  <Pose>
1

>  <Score>
-6.12

$$$$
