
 OpenBabel03202209423D

 45 48  0  0  0  0  0  0  0  0999 V2000
  -41.5610  -68.4180   54.5780 S   0  0  0  0  0  0  0  0  0  0  0  0
  -40.4720  -68.3980   55.6270 O   0  0  0  0  0  0  0  0  0  0  0  0
  -42.1440  -69.7810   54.5550 O   0  0  0  0  0  0  0  0  0  0  0  0
  -42.7340  -67.2250   54.9860 N   0  0  0  0  0  0  0  0  0  0  0  0
  -44.0230  -67.6970   54.6340 C   0  0  0  0  0  0  0  0  0  0  0  0
  -44.8950  -66.7900   53.8140 C   0  0  0  0  0  0  0  0  0  0  0  0
  -44.0750  -66.0070   52.9510 N   0  0  0  0  0  0  0  0  0  0  0  0
  -43.2920  -65.1310   53.8220 C   0  0  0  0  0  0  0  0  0  0  0  0
  -42.3030  -65.9630   54.5500 C   0  0  0  0  0  0  0  0  0  0  0  0
  -44.7740  -65.2590   51.9620 C   0  0  0  0  0  0  0  0  0  0  0  0
  -44.4320  -63.8090   52.0130 C   0  0  0  0  0  0  0  0  0  0  0  0
  -44.6820  -63.1380   50.7540 N   0  0  0  0  0  0  0  0  0  0  0  0
  -45.7870  -62.4890   50.3900 N   0  0  0  0  0  0  0  0  0  0  0  0
  -45.6480  -61.9840   49.1560 C   0  0  0  0  0  0  0  0  0  0  0  0
  -44.4260  -62.3220   48.7270 N   0  0  0  0  0  0  0  0  0  0  0  0
  -43.9850  -61.9540   47.5000 C   0  0  0  0  0  0  0  0  0  0  0  0
  -44.7610  -61.2170   46.6340 C   0  0  0  0  0  0  0  0  0  0  0  0
  -46.0270  -60.8550   47.0510 C   0  0  0  0  0  0  0  0  0  0  0  0
  -46.4470  -61.2440   48.3040 C   0  0  0  0  0  0  0  0  0  0  0  0
  -43.8350  -63.0390   49.7280 C   0  0  0  0  0  0  0  0  0  0  0  0
  -42.6740  -63.4950   49.6080 O   0  0  0  0  0  0  0  0  0  0  0  0
  -40.8850  -68.0880   52.9750 C   0  0  0  0  0  0  0  0  0  0  0  0
  -41.2990  -66.8680   51.8590 S   0  0  0  0  0  0  0  0  0  0  0  0
  -40.2020  -67.2490   50.6140 C   0  0  0  0  0  0  0  0  0  0  0  0
  -39.5330  -68.3350   51.1120 C   0  0  0  0  0  0  0  0  0  0  0  0
  -39.8850  -68.7670   52.3290 C   0  0  0  0  0  0  0  0  0  0  0  0
  -39.9380  -66.3860   48.9110 B   0  0  0  0  0  0  0  0  0  0  0  0
  -43.8820  -68.6360   54.0120 H   0  0  0  0  0  0  0  0  0  0  0  0
  -44.5530  -67.9920   55.5920 H   0  0  0  0  0  0  0  0  0  0  0  0
  -45.6290  -67.4440   53.2980 H   0  0  0  0  0  0  0  0  0  0  0  0
  -45.4230  -66.1340   54.5690 H   0  0  0  0  0  0  0  0  0  0  0  0
  -42.7720  -64.3470   53.2570 H   0  0  0  0  0  0  0  0  0  0  0  0
  -44.0210  -64.7290   54.5640 H   0  0  0  0  0  0  0  0  0  0  0  0
  -41.3930  -66.0480   53.8890 H   0  0  0  0  0  0  0  0  0  0  0  0
  -41.9880  -65.3740   55.4580 H   0  0  0  0  0  0  0  0  0  0  0  0
  -44.5450  -65.6210   50.9130 H   0  0  0  0  0  0  0  0  0  0  0  0
  -45.8810  -65.3870   52.1350 H   0  0  0  0  0  0  0  0  0  0  0  0
  -45.0970  -63.3090   52.7720 H   0  0  0  0  0  0  0  0  0  0  0  0
  -43.3570  -63.6350   52.2860 H   0  0  0  0  0  0  0  0  0  0  0  0
  -42.9880  -62.2410   47.1760 H   0  0  0  0  0  0  0  0  0  0  0  0
  -44.4250  -60.9140   45.6530 H   0  0  0  0  0  0  0  0  0  0  0  0
  -46.6530  -60.2720   46.3760 H   0  0  0  0  0  0  0  0  0  0  0  0
  -47.4350  -60.9570   48.6180 H   0  0  0  0  0  0  0  0  0  0  0  0
  -38.7350  -68.8110   50.5010 H   0  0  0  0  0  0  0  0  0  0  0  0
  -39.3990  -69.6450   52.8200 H   0  0  0  0  0  0  0  0  0  0  0  0
  1  4  1  0  0  0  0
  1  2  2  0  0  0  0
  3  1  2  0  0  0  0
  5  4  1  0  0  0  0
  5 29  1  0  0  0  0
  6 31  1  0  0  0  0
  6  5  1  0  0  0  0
  7  6  1  0  0  0  0
  7  8  1  0  0  0  0
  8  9  1  0  0  0  0
  8 33  1  0  0  0  0
  9  4  1  0  0  0  0
  9 35  1  0  0  0  0
 10 11  1  0  0  0  0
 10 37  1  0  0  0  0
 10  7  1  0  0  0  0
 11 39  1  0  0  0  0
 11 38  1  0  0  0  0
 12 11  1  0  0  0  0
 13 12  1  0  0  0  0
 14 13  2  0  0  0  0
 15 14  1  0  0  0  0
 15 20  1  0  0  0  0
 16 15  1  0  0  0  0
 17 18  1  0  0  0  0
 17 16  2  0  0  0  0
 18 19  2  0  0  0  0
 19 43  1  0  0  0  0
 19 14  1  0  0  0  0
 20 12  1  0  0  0  0
 21 20  2  0  0  0  0
 22  1  1  0  0  0  0
 23 22  1  0  0  0  0
 24 25  2  0  0  0  0
 24 23  1  0  0  0  0
 25 26  1  0  0  0  0
 26 45  1  0  0  0  0
 26 22  2  0  0  0  0
 27 24  1  0  0  0  0
 28  5  1  0  0  0  0
 30  6  1  0  0  0  0
 32  8  1  0  0  0  0
 34  9  1  0  0  0  0
 36 10  1  0  0  0  0
 40 16  1  0  0  0  0
 41 17  1  0  0  0  0
 42 18  1  0  0  0  0
 44 25  1  0  0  0  0
M  END
>  <Pose>
1

>  <Score>
-5.81

$$$$
