
 OpenBabel03202209423D

 38 41  0  0  1  0  0  0  0  0999 V2000
  -50.3350  -66.8630   56.6160 Cl  0  0  0  0  0  0  0  0  0  0  0  0
  -49.5940  -67.3710   55.1130 C   0  0  0  0  0  0  0  0  0  0  0  0
  -48.9730  -66.4430   54.2780 C   0  0  0  0  0  0  0  0  0  0  0  0
  -48.3850  -66.7980   53.1000 C   0  0  0  0  0  0  0  0  0  0  0  0
  -48.4330  -68.1450   52.7650 C   0  0  0  0  0  0  0  0  0  0  0  0
  -49.0410  -69.0770   53.5770 C   0  0  0  0  0  0  0  0  0  0  0  0
  -49.6300  -68.6980   54.7630 C   0  0  0  0  0  0  0  0  0  0  0  0
  -47.8240  -65.5910   52.4600 C   0  0  2  0  0  0  0  0  0  0  0  0
  -48.5060  -65.3360   51.1390 C   0  0  0  0  0  0  0  0  0  0  0  0
  -47.8660  -65.2290   50.0080 C   0  0  0  0  0  0  0  0  0  0  0  0
  -46.4470  -65.3480   49.9340 N   0  0  0  0  0  0  0  0  0  0  0  0
  -45.7270  -65.5890   51.1290 C   0  0  0  0  0  0  0  0  0  0  0  0
  -46.3610  -65.6980   52.2740 C   0  0  0  0  0  0  0  0  0  0  0  0
  -45.5810  -65.9460   53.4790 C   0  0  0  0  0  0  0  0  0  0  0  0
  -44.9490  -66.1340   54.4300 N   0  0  0  0  0  0  0  0  0  0  0  0
  -44.3020  -65.7200   51.1340 N   0  0  0  0  0  0  0  0  0  0  0  0
  -48.8420  -64.9810   48.9280 C   0  0  0  0  0  0  0  0  0  0  0  0
  -50.0750  -64.9580   49.5350 O   0  0  0  0  0  0  0  0  0  0  0  0
  -49.9310  -65.1680   50.8870 C   0  0  0  0  0  0  0  0  0  0  0  0
  -50.8500  -65.2150   51.7780 O   0  0  0  0  0  0  0  0  0  0  0  0
  -48.6900  -66.0520   47.8710 C   0  0  0  0  0  0  0  0  0  0  0  0
  -48.6130  -63.6400   48.2550 C   0  0  0  0  0  0  0  0  0  0  0  0
  -48.1500  -64.4910   53.3970 C   0  0  0  0  0  0  0  0  0  0  0  0
  -47.8560  -63.2510   53.2520 O   0  0  0  0  0  0  0  0  0  0  0  0
  -48.8490  -65.0470   54.4880 N   0  0  0  0  0  0  0  0  0  0  0  0
  -47.9850  -68.4830   51.8470 H   0  0  0  0  0  0  0  0  0  0  0  0
  -49.0840  -70.1360   53.3220 H   0  0  0  0  0  0  0  0  0  0  0  0
  -50.1150  -69.4060   55.4210 H   0  0  0  0  0  0  0  0  0  0  0  0
  -45.9290  -65.2640   49.0330 H   0  0  0  0  0  0  0  0  0  0  0  0
  -43.7680  -65.6240   52.0080 H   0  0  0  0  0  0  0  0  0  0  0  0
  -43.8250  -65.9110   50.2450 H   0  0  0  0  0  0  0  0  0  0  0  0
  -49.4970  -66.0020   47.1180 H   0  0  0  0  0  0  0  0  0  0  0  0
  -48.5180  -67.0500   48.2890 H   0  0  0  0  0  0  0  0  0  0  0  0
  -47.7470  -65.7920   47.3080 H   0  0  0  0  0  0  0  0  0  0  0  0
  -48.4670  -62.9070   49.0980 H   0  0  0  0  0  0  0  0  0  0  0  0
  -49.5450  -63.3910   47.7110 H   0  0  0  0  0  0  0  0  0  0  0  0
  -47.7810  -63.6510   47.5480 H   0  0  0  0  0  0  0  0  0  0  0  0
  -49.2050  -64.4770   55.3150 H   0  0  0  0  0  0  0  0  0  0  0  0
  2  1  1  0  0  0  0
  3 25  1  0  0  0  0
  3  2  2  0  0  0  0
  4  3  1  0  0  0  0
  5  4  2  0  0  0  0
  5  6  1  0  0  0  0
  6  7  2  0  0  0  0
  7  2  1  0  0  0  0
  7 28  1  0  0  0  0
  8  9  1  6  0  0  0
  8  4  1  0  0  0  0
  8 23  1  0  0  0  0
 10  9  2  0  0  0  0
 11 10  1  0  0  0  0
 11 12  1  0  0  0  0
 12 16  1  0  0  0  0
 12 13  2  0  0  0  0
 13  8  1  0  0  0  0
 13 14  1  0  0  0  0
 14 15  3  0  0  0  0
 16 30  1  0  0  0  0
 17 18  1  0  0  0  0
 17 10  1  0  0  0  0
 18 19  1  0  0  0  0
 19  9  1  0  0  0  0
 19 20  2  0  0  0  0
 21 33  1  0  0  0  0
 21 17  1  0  0  0  0
 22 17  1  0  0  0  0
 22 35  1  0  0  0  0
 23 25  1  0  0  0  0
 24 23  2  0  0  0  0
 25 38  1  0  0  0  0
 26  5  1  0  0  0  0
 27  6  1  0  0  0  0
 29 11  1  0  0  0  0
 31 16  1  0  0  0  0
 32 21  1  0  0  0  0
 34 21  1  0  0  0  0
 36 22  1  0  0  0  0
 37 22  1  0  0  0  0
M  END
>  <Pose>
1

>  <Score>
-4.51

$$$$
