
 OpenBabel03202209423D

 52 55  0  0  0  0  0  0  0  0999 V2000
  -40.5280  -69.3800   55.0920 B   0  0  0  0  0  0  0  0  0  0  0  0
  -41.4800  -68.0590   54.1100 C   0  0  0  0  0  0  0  0  0  0  0  0
  -40.9150  -67.5820   52.9380 C   0  0  0  0  0  0  0  0  0  0  0  0
  -41.6240  -66.6180   52.2460 C   0  0  0  0  0  0  0  0  0  0  0  0
  -42.8310  -66.1580   52.7040 C   0  0  0  0  0  0  0  0  0  0  0  0
  -43.4190  -66.6250   53.8790 C   0  0  0  0  0  0  0  0  0  0  0  0
  -42.6990  -67.5840   54.5560 C   0  0  0  0  0  0  0  0  0  0  0  0
  -44.7080  -66.1120   54.2950 C   0  0  0  0  0  0  0  0  0  0  0  0
  -45.8010  -66.7670   54.1020 N   0  0  0  0  0  0  0  0  0  0  0  0
  -47.0550  -66.3160   54.4790 N   0  0  0  0  0  0  0  0  0  0  0  0
  -48.1930  -67.1610   54.3570 C   0  0  0  0  0  0  0  0  0  0  0  0
  -48.7050  -67.4240   53.1660 N   0  0  0  0  0  4  0  0  0  0  0  0
  -49.7590  -68.2330   52.9560 C   0  0  0  0  0  0  0  0  0  0  0  0
  -50.3120  -68.8020   54.0490 N   0  0  0  0  0  0  0  0  0  0  0  0
  -49.8310  -68.5700   55.3000 C   0  0  0  0  0  0  0  0  0  0  0  0
  -48.7650  -67.7420   55.4330 N   0  0  0  0  0  0  0  0  0  0  0  0
  -50.4080  -69.1830   56.4300 N   0  0  0  0  0  0  0  0  0  0  0  0
  -51.3960  -70.2230   56.2960 C   0  0  0  0  0  0  0  0  0  0  0  0
  -50.8710  -71.3910   57.1430 C   0  0  0  0  0  0  0  0  0  0  0  0
  -50.5940  -70.9340   58.4150 O   0  0  0  0  0  0  0  0  0  0  0  0
  -49.4810  -70.0940   58.4010 C   0  0  0  0  0  0  0  0  0  0  0  0
  -49.9970  -68.7910   57.7540 C   0  0  0  0  0  0  0  0  0  0  0  0
  -50.2780  -68.4920   51.6410 N   0  0  0  0  0  0  0  0  0  0  0  0
  -51.0210  -69.6850   51.3530 C   0  0  0  0  0  0  0  0  0  0  0  0
  -51.7210  -69.7350   50.0510 C   0  0  0  0  0  0  0  0  0  0  0  0
  -51.2860  -68.7960   49.1260 O   0  0  0  0  0  0  0  0  0  0  0  0
  -51.2110  -67.5210   49.6690 C   0  0  0  0  0  0  0  0  0  0  0  0
  -50.0360  -67.5210   50.6150 C   0  0  0  0  0  0  0  0  0  0  0  0
  -43.5410  -65.1810   51.9980 O   0  0  0  0  0  0  0  0  0  0  0  0
  -39.6890  -68.0420   52.4640 O   0  0  0  0  0  0  0  0  0  0  0  0
  -41.1620  -66.2520   51.3230 H   0  0  0  0  0  0  0  0  0  0  0  0
  -43.1490  -67.9610   55.4870 H   0  0  0  0  0  0  0  0  0  0  0  0
  -44.7670  -65.1530   54.7840 H   0  0  0  0  0  0  0  0  0  0  0  0
  -47.1700  -65.3650   54.8480 H   0  0  0  0  0  0  0  0  0  0  0  0
  -52.3650  -69.8780   56.7120 H   0  0  0  0  0  0  0  0  0  0  0  0
  -51.5010  -70.5560   55.2320 H   0  0  0  0  0  0  0  0  0  0  0  0
  -51.6370  -72.1870   57.1290 H   0  0  0  0  0  0  0  0  0  0  0  0
  -49.9450  -71.7470   56.6280 H   0  0  0  0  0  0  0  0  0  0  0  0
  -48.7460  -70.5200   57.6550 H   0  0  0  0  0  0  0  0  0  0  0  0
  -49.0510  -69.9350   59.3860 H   0  0  0  0  0  0  0  0  0  0  0  0
  -50.9360  -68.5400   58.3280 H   0  0  0  0  0  0  0  0  0  0  0  0
  -49.2510  -67.9910   57.7840 H   0  0  0  0  0  0  0  0  0  0  0  0
  -50.3030  -70.5450   51.4640 H   0  0  0  0  0  0  0  0  0  0  0  0
  -51.7950  -69.7880   52.1740 H   0  0  0  0  0  0  0  0  0  0  0  0
  -52.8290  -69.6470   50.1910 H   0  0  0  0  0  0  0  0  0  0  0  0
  -51.5500  -70.7430   49.5930 H   0  0  0  0  0  0  0  0  0  0  0  0
  -51.1110  -66.8090   48.8450 H   0  0  0  0  0  0  0  0  0  0  0  0
  -52.1050  -67.2710   50.3010 H   0  0  0  0  0  0  0  0  0  0  0  0
  -49.9960  -66.4790   51.0300 H   0  0  0  0  0  0  0  0  0  0  0  0
  -49.0730  -67.6960   50.0900 H   0  0  0  0  0  0  0  0  0  0  0  0
  -43.8600  -65.4030   51.0600 H   0  0  0  0  0  0  0  0  0  0  0  0
  -38.8180  -67.9300   52.9610 H   0  0  0  0  0  0  0  0  0  0  0  0
  2  7  1  0  0  0  0
  2  1  1  0  0  0  0
  3  2  2  0  0  0  0
  4  5  2  0  0  0  0
  4  3  1  0  0  0  0
  5  6  1  0  0  0  0
  6  8  1  0  0  0  0
  6  7  2  0  0  0  0
  7 32  1  0  0  0  0
  8 33  1  0  0  0  0
  9  8  2  0  0  0  0
  9 10  1  0  0  0  0
 10 34  1  0  0  0  0
 11 10  1  0  0  0  0
 11 16  1  0  0  0  0
 12 11  2  0  0  0  0
 13 12  2  0  0  0  0
 13 14  1  0  0  0  0
 14 15  2  0  0  0  0
 15 16  1  0  0  0  0
 15 17  1  0  0  0  0
 17 22  1  0  0  0  0
 18 17  1  0  0  0  0
 18 35  1  0  0  0  0
 18 19  1  0  0  0  0
 19 20  1  0  0  0  0
 21 20  1  0  0  0  0
 21 40  1  0  0  0  0
 22 42  1  0  0  0  0
 22 41  1  0  0  0  0
 22 21  1  0  0  0  0
 23 13  1  0  0  0  0
 24 43  1  0  0  0  0
 24 23  1  0  0  0  0
 24 44  1  0  0  0  0
 25 45  1  0  0  0  0
 25 24  1  0  0  0  0
 26 27  1  0  0  0  0
 26 25  1  0  0  0  0
 27 48  1  0  0  0  0
 27 28  1  0  0  0  0
 28 49  1  0  0  0  0
 28 23  1  0  0  0  0
 29  5  1  0  0  0  0
 30  3  1  0  0  0  0
 30 52  1  0  0  0  0
 31  4  1  0  0  0  0
 36 18  1  0  0  0  0
 37 19  1  0  0  0  0
 38 19  1  0  0  0  0
 39 21  1  0  0  0  0
 46 25  1  0  0  0  0
 47 27  1  0  0  0  0
 50 28  1  0  0  0  0
 51 29  1  0  0  0  0
M  END
>  <Pose>
1

>  <Score>
-6.40

$$$$
