
 OpenBabel03202209423D

 42 45  0  0  0  0  0  0  0  0999 V2000
  -34.2510  -65.9610   49.5420 Cl  0  0  0  0  0  0  0  0  0  0  0  0
  -35.4940  -67.0930   50.0640 C   0  0  0  0  0  0  0  0  0  0  0  0
  -36.8190  -66.7920   49.8720 C   0  0  0  0  0  0  0  0  0  0  0  0
  -37.7850  -67.6940   50.2890 C   0  0  0  0  0  0  0  0  0  0  0  0
  -37.4470  -68.8770   50.8870 C   0  0  0  0  0  0  0  0  0  0  0  0
  -36.1210  -69.1810   51.0800 C   0  0  0  0  0  0  0  0  0  0  0  0
  -35.1640  -68.2890   50.6680 C   0  0  0  0  0  0  0  0  0  0  0  0
  -38.5500  -69.7810   51.3010 C   0  0  0  0  0  0  0  0  0  0  0  0
  -39.6390  -68.9490   51.8090 N   0  0  0  0  0  0  0  0  0  0  0  0
  -40.2010  -67.8930   51.2500 N   0  0  0  0  0  0  0  0  0  0  0  0
  -41.1600  -67.4020   52.0140 N   0  0  0  0  0  0  0  0  0  0  0  0
  -41.2470  -68.1470   53.1150 C   0  0  0  0  0  0  0  0  0  0  0  0
  -40.2860  -69.1260   52.9880 C   0  0  0  0  0  0  0  0  0  0  0  0
  -40.1670  -70.0190   53.9810 N   0  0  0  0  0  0  0  0  0  0  0  0
  -40.9600  -69.9580   55.0650 C   0  0  0  0  0  0  0  0  0  0  0  0
  -41.8910  -68.9930   55.1670 N   0  0  0  0  0  0  0  0  0  0  0  0
  -42.0900  -68.0440   54.2150 C   0  0  0  0  0  0  0  0  0  0  0  0
  -43.0620  -67.0330   54.3180 N   0  0  0  0  0  0  0  0  0  0  0  0
  -42.8330  -65.6450   54.6190 C   0  0  0  0  0  0  0  0  0  0  0  0
  -43.3390  -64.8310   53.4870 C   0  0  0  0  0  0  0  0  0  0  0  0
  -44.2310  -65.4300   52.5860 N   0  0  0  0  0  0  0  0  0  0  0  0
  -44.9420  -66.5820   52.9470 C   0  0  0  0  0  0  0  0  0  0  0  0
  -44.4510  -67.3590   54.1100 C   0  0  0  0  0  0  0  0  0  0  0  0
  -43.5550  -65.6570   51.3210 C   0  0  0  0  0  0  0  0  0  0  0  0
  -37.1180  -65.8670   49.4030 H   0  0  0  0  0  0  0  0  0  0  0  0
  -38.8350  -67.4440   50.1300 H   0  0  0  0  0  0  0  0  0  0  0  0
  -35.8590  -70.1020   51.5460 H   0  0  0  0  0  0  0  0  0  0  0  0
  -34.0910  -68.4860   50.8000 H   0  0  0  0  0  0  0  0  0  0  0  0
  -38.9190  -70.3590   50.4450 H   0  0  0  0  0  0  0  0  0  0  0  0
  -38.1780  -70.4780   52.0810 H   0  0  0  0  0  0  0  0  0  0  0  0
  -40.8370  -70.6950   55.8460 H   0  0  0  0  0  0  0  0  0  0  0  0
  -41.7680  -65.4110   54.8080 H   0  0  0  0  0  0  0  0  0  0  0  0
  -43.3630  -65.3900   55.5610 H   0  0  0  0  0  0  0  0  0  0  0  0
  -43.8480  -63.9220   53.9270 H   0  0  0  0  0  0  0  0  0  0  0  0
  -42.4670  -64.3860   52.9310 H   0  0  0  0  0  0  0  0  0  0  0  0
  -46.0090  -66.2820   53.1750 H   0  0  0  0  0  0  0  0  0  0  0  0
  -45.0570  -67.2790   52.0670 H   0  0  0  0  0  0  0  0  0  0  0  0
  -45.0290  -67.1340   55.0330 H   0  0  0  0  0  0  0  0  0  0  0  0
  -44.5690  -68.4590   53.9030 H   0  0  0  0  0  0  0  0  0  0  0  0
  -42.5430  -65.1650   51.3090 H   0  0  0  0  0  0  0  0  0  0  0  0
  -43.3620  -66.7450   51.1980 H   0  0  0  0  0  0  0  0  0  0  0  0
  -44.1120  -65.2290   50.4670 H   0  0  0  0  0  0  0  0  0  0  0  0
  1  2  1  0  0  0  0
  2  7  1  0  0  0  0
  3  2  2  0  0  0  0
  3  4  1  0  0  0  0
  4  5  2  0  0  0  0
  5  6  1  0  0  0  0
  5  8  1  0  0  0  0
  6 27  1  0  0  0  0
  7 28  1  0  0  0  0
  7  6  2  0  0  0  0
  8  9  1  0  0  0  0
  8 30  1  0  0  0  0
  9 13  1  0  0  0  0
 10  9  1  0  0  0  0
 10 11  2  0  0  0  0
 11 12  1  0  0  0  0
 12 17  1  0  0  0  0
 13 12  2  0  0  0  0
 13 14  1  0  0  0  0
 14 15  2  0  0  0  0
 15 16  1  0  0  0  0
 15 31  1  0  0  0  0
 17 18  1  0  0  0  0
 17 16  2  0  0  0  0
 18 19  1  0  0  0  0
 19 32  1  0  0  0  0
 19 33  1  0  0  0  0
 20 34  1  0  0  0  0
 20 19  1  0  0  0  0
 21 22  1  0  0  0  0
 21 20  1  0  0  0  0
 22 36  1  0  0  0  0
 22 23  1  0  0  0  0
 23 18  1  0  0  0  0
 23 38  1  0  0  0  0
 24 21  1  0  0  0  0
 25  3  1  0  0  0  0
 26  4  1  0  0  0  0
 29  8  1  0  0  0  0
 35 20  1  0  0  0  0
 37 22  1  0  0  0  0
 39 23  1  0  0  0  0
 40 24  1  0  0  0  0
 41 24  1  0  0  0  0
 42 24  1  0  0  0  0
M  END
>  <Pose>
1

>  <Score>
-5.90

$$$$
