
 OpenBabel03202209423D

 52 56  0  0  0  0  0  0  0  0999 V2000
  -39.2940  -62.9300   45.9530 Cl  0  0  0  0  0  0  0  0  0  0  0  0
  -39.9200  -63.4960   47.4920 C   0  0  0  0  0  0  0  0  0  0  0  0
  -39.0750  -63.9420   48.4990 C   0  0  0  0  0  0  0  0  0  0  0  0
  -39.5870  -64.3840   49.7020 C   0  0  0  0  0  0  0  0  0  0  0  0
  -40.9420  -64.4050   49.9590 C   0  0  0  0  0  0  0  0  0  0  0  0
  -41.7820  -63.9520   48.9350 C   0  0  0  0  0  0  0  0  0  0  0  0
  -41.2790  -63.5080   47.7300 C   0  0  0  0  0  0  0  0  0  0  0  0
  -41.4880  -64.8710   51.2270 C   0  0  0  0  0  0  0  0  0  0  0  0
  -41.1970  -64.2620   52.2810 O   0  0  0  0  0  0  0  0  0  0  0  0
  -42.3690  -66.0520   51.2080 C   0  0  0  0  0  0  0  0  0  0  0  0
  -42.7610  -66.5050   52.5230 N   0  0  0  0  0  0  0  0  0  0  0  0
  -42.1970  -67.3840   53.3230 N   0  0  0  0  0  0  0  0  0  0  0  0
  -42.8750  -67.5210   54.4710 C   0  0  0  0  0  0  0  0  0  0  0  0
  -42.2840  -68.4200   55.2730 N   0  0  0  0  0  0  0  0  0  0  0  0
  -41.1830  -68.9000   54.6550 C   0  0  0  0  0  0  0  0  0  0  0  0
  -41.1410  -68.2360   53.4230 C   0  0  0  0  0  0  0  0  0  0  0  0
  -40.0760  -68.5710   52.6150 C   0  0  0  0  0  0  0  0  0  0  0  0
  -39.9940  -67.9920   51.4900 O   0  0  0  0  0  0  0  0  0  0  0  0
  -39.1220  -69.4770   52.9590 N   0  0  0  0  0  0  0  0  0  0  0  0
  -39.2350  -70.0710   54.1570 C   0  0  0  0  0  0  0  0  0  0  0  0
  -38.3310  -70.9170   54.4610 O   0  0  0  0  0  0  0  0  0  0  0  0
  -40.2420  -69.7950   54.9980 N   0  0  0  0  0  0  0  0  0  0  0  0
  -40.3040  -70.4660   56.2680 C   0  0  0  0  0  0  0  0  0  0  0  0
  -38.0370  -69.7720   52.0510 C   0  0  0  0  0  0  0  0  0  0  0  0
  -43.9230  -66.6650   54.3660 N   0  0  0  0  0  0  0  0  0  0  0  0
  -43.8650  -66.0380   53.1840 C   0  0  0  0  0  0  0  0  0  0  0  0
  -44.7560  -65.0600   52.6570 N   0  0  0  0  0  0  0  0  0  0  0  0
  -46.1960  -65.2590   52.6520 C   0  0  0  0  0  0  0  0  0  0  0  0
  -46.7310  -64.7100   51.3530 C   0  0  0  0  0  0  0  0  0  0  0  0
  -46.3480  -63.3670   51.2050 O   0  0  0  0  0  0  0  0  0  0  0  0
  -44.9920  -63.2420   50.9930 C   0  0  0  0  0  0  0  0  0  0  0  0
  -44.2220  -63.8370   52.1190 C   0  0  0  0  0  0  0  0  0  0  0  0
  -38.0140  -63.9380   48.3290 H   0  0  0  0  0  0  0  0  0  0  0  0
  -38.9300  -64.7320   50.4890 H   0  0  0  0  0  0  0  0  0  0  0  0
  -42.8480  -63.9430   49.0760 H   0  0  0  0  0  0  0  0  0  0  0  0
  -41.9260  -63.1550   46.9270 H   0  0  0  0  0  0  0  0  0  0  0  0
  -42.0250  -66.8660   50.5860 H   0  0  0  0  0  0  0  0  0  0  0  0
  -43.3110  -65.6860   50.6920 H   0  0  0  0  0  0  0  0  0  0  0  0
  -39.7800  -71.4480   56.1710 H   0  0  0  0  0  0  0  0  0  0  0  0
  -41.3750  -70.6240   56.5540 H   0  0  0  0  0  0  0  0  0  0  0  0
  -39.8690  -69.8410   57.0670 H   0  0  0  0  0  0  0  0  0  0  0  0
  -37.3090  -68.9210   52.0490 H   0  0  0  0  0  0  0  0  0  0  0  0
  -38.4440  -69.8040   51.0090 H   0  0  0  0  0  0  0  0  0  0  0  0
  -37.5680  -70.7400   52.2380 H   0  0  0  0  0  0  0  0  0  0  0  0
  -46.6830  -64.7180   53.4920 H   0  0  0  0  0  0  0  0  0  0  0  0
  -46.4600  -66.3410   52.6950 H   0  0  0  0  0  0  0  0  0  0  0  0
  -46.4850  -65.3090   50.4750 H   0  0  0  0  0  0  0  0  0  0  0  0
  -47.8470  -64.6850   51.4410 H   0  0  0  0  0  0  0  0  0  0  0  0
  -44.6680  -63.7420   50.0410 H   0  0  0  0  0  0  0  0  0  0  0  0
  -44.7660  -62.1540   50.9610 H   0  0  0  0  0  0  0  0  0  0  0  0
  -44.0520  -63.1290   52.9610 H   0  0  0  0  0  0  0  0  0  0  0  0
  -43.1870  -64.0580   51.7330 H   0  0  0  0  0  0  0  0  0  0  0  0
  1  2  1  0  0  0  0
  2  7  2  0  0  0  0
  2  3  1  0  0  0  0
  3  4  2  0  0  0  0
  4  5  1  0  0  0  0
  4 34  1  0  0  0  0
  5  8  1  0  0  0  0
  6 35  1  0  0  0  0
  6  5  2  0  0  0  0
  7  6  1  0  0  0  0
  8  9  2  0  0  0  0
 10  8  1  0  0  0  0
 10 11  1  0  0  0  0
 11 26  1  0  0  0  0
 11 12  1  0  0  0  0
 12 16  1  0  0  0  0
 12 13  1  0  0  0  0
 13 14  2  0  0  0  0
 15 22  1  0  0  0  0
 15 14  1  0  0  0  0
 16 15  2  0  0  0  0
 17 19  1  0  0  0  0
 17 16  1  0  0  0  0
 18 17  2  0  0  0  0
 19 20  1  0  0  0  0
 20 21  2  0  0  0  0
 20 22  1  0  0  0  0
 22 23  1  0  0  0  0
 23 40  1  0  0  0  0
 23 41  1  0  0  0  0
 24 44  1  0  0  0  0
 24 19  1  0  0  0  0
 25 13  1  0  0  0  0
 26 25  2  0  0  0  0
 27 26  1  0  0  0  0
 28 27  1  0  0  0  0
 28 46  1  0  0  0  0
 28 45  1  0  0  0  0
 29 48  1  0  0  0  0
 29 28  1  0  0  0  0
 30 29  1  0  0  0  0
 31 30  1  0  0  0  0
 31 32  1  0  0  0  0
 32 27  1  0  0  0  0
 32 51  1  0  0  0  0
 33  3  1  0  0  0  0
 36  7  1  0  0  0  0
 37 10  1  0  0  0  0
 38 10  1  0  0  0  0
 39 23  1  0  0  0  0
 42 24  1  0  0  0  0
 43 24  1  0  0  0  0
 47 29  1  0  0  0  0
 49 31  1  0  0  0  0
 50 31  1  0  0  0  0
 52 32  1  0  0  0  0
M  END
>  <Pose>
1

>  <Score>
-7.48

$$$$
