
 OpenBabel03202209423D

 47 50  0  0  1  0  0  0  0  0999 V2000
  -41.3140  -68.5550   54.5930 S   0  0  0  0  0  0  0  0  0  0  0  0
  -42.4040  -69.5540   54.7640 O   0  0  0  0  0  0  0  0  0  0  0  0
  -40.5190  -68.4090   55.8740 O   0  0  0  0  0  0  0  0  0  0  0  0
  -41.8760  -67.0200   54.1450 N   0  0  0  0  0  0  0  0  0  0  0  0
  -43.0340  -66.6100   54.8010 C   0  0  0  0  0  0  0  0  0  0  0  0
  -43.8360  -65.4950   54.2940 C   0  0  1  0  0  0  0  0  0  0  0  0
  -43.0610  -64.6770   53.2930 C   0  0  0  0  0  0  0  0  0  0  0  0
  -42.5220  -65.5900   52.2500 C   0  0  0  0  0  0  0  0  0  0  0  0
  -41.5630  -66.5630   52.8720 C   0  0  0  0  0  0  0  0  0  0  0  0
  -45.1390  -65.8770   53.6840 C   0  0  0  0  0  0  0  0  0  0  0  0
  -46.1110  -66.4880   54.3580 N   0  0  0  0  0  0  0  0  0  0  0  0
  -47.2750  -66.8260   53.7750 C   0  0  0  0  0  0  0  0  0  0  0  0
  -48.4060  -67.4410   54.2180 N   0  0  0  0  0  0  0  0  0  0  0  0
  -49.2230  -67.5020   53.1880 N   0  0  0  0  0  0  0  0  0  0  0  0
  -48.6840  -66.9630   52.1110 N   0  0  0  0  0  0  0  0  0  0  0  0
  -47.4620  -66.5260   52.4330 C   0  0  0  0  0  0  0  0  0  0  0  0
  -46.4590  -65.8910   51.7200 C   0  0  0  0  0  0  0  0  0  0  0  0
  -45.3390  -65.5960   52.3930 N   0  0  0  0  0  0  0  0  0  0  0  0
  -46.6270  -65.5820   50.3770 O   0  0  0  0  0  0  0  0  0  0  0  0
  -48.6470  -67.9210   55.5430 C   0  0  0  0  0  0  0  0  0  0  0  0
  -49.6370  -67.1150   56.2970 C   0  0  0  0  0  0  0  0  0  0  0  0
  -50.1460  -67.6270   57.4630 C   0  0  0  0  0  0  0  0  0  0  0  0
  -51.0800  -66.9360   58.2320 C   0  0  0  0  0  0  0  0  0  0  0  0
  -51.5220  -65.6950   57.8270 C   0  0  0  0  0  0  0  0  0  0  0  0
  -51.0150  -65.1740   56.6570 C   0  0  0  0  0  0  0  0  0  0  0  0
  -50.0810  -65.8740   55.8960 C   0  0  0  0  0  0  0  0  0  0  0  0
  -49.6280  -69.1980   58.0360 Cl  0  0  0  0  0  0  0  0  0  0  0  0
  -40.1450  -69.1910   53.3820 C   0  0  0  0  0  0  0  0  0  0  0  0
  -42.7740  -66.4310   55.8880 H   0  0  0  0  0  0  0  0  0  0  0  0
  -43.7200  -67.5120   54.8650 H   0  0  0  0  0  0  0  0  0  0  0  0
  -44.0430  -64.7720   55.1500 H   0  0  0  0  0  0  0  0  0  0  0  0
  -43.7000  -63.8670   52.8850 H   0  0  0  0  0  0  0  0  0  0  0  0
  -42.1890  -64.1830   53.7860 H   0  0  0  0  0  0  0  0  0  0  0  0
  -41.9200  -64.9330   51.5460 H   0  0  0  0  0  0  0  0  0  0  0  0
  -43.2500  -66.0830   51.6040 H   0  0  0  0  0  0  0  0  0  0  0  0
  -41.4180  -67.3930   52.1320 H   0  0  0  0  0  0  0  0  0  0  0  0
  -40.5580  -66.0520   52.9140 H   0  0  0  0  0  0  0  0  0  0  0  0
  -46.0100  -65.9810   49.6860 H   0  0  0  0  0  0  0  0  0  0  0  0
  -47.7280  -67.9560   56.1720 H   0  0  0  0  0  0  0  0  0  0  0  0
  -49.0940  -68.9530   55.4640 H   0  0  0  0  0  0  0  0  0  0  0  0
  -51.4900  -67.3270   59.1530 H   0  0  0  0  0  0  0  0  0  0  0  0
  -52.2590  -65.1440   58.4270 H   0  0  0  0  0  0  0  0  0  0  0  0
  -51.3670  -64.1850   56.3330 H   0  0  0  0  0  0  0  0  0  0  0  0
  -49.6950  -65.4490   54.9800 H   0  0  0  0  0  0  0  0  0  0  0  0
  -40.6530  -69.4360   52.4390 H   0  0  0  0  0  0  0  0  0  0  0  0
  -39.3660  -68.4100   53.2720 H   0  0  0  0  0  0  0  0  0  0  0  0
  -39.7600  -70.1390   53.8090 H   0  0  0  0  0  0  0  0  0  0  0  0
  1  2  2  0  0  0  0
  1  3  2  0  0  0  0
  4  1  1  0  0  0  0
  4  5  1  0  0  0  0
  5 30  1  0  0  0  0
  5 29  1  0  0  0  0
  6  5  1  0  0  0  0
  6 31  1  1  0  0  0
  7 33  1  0  0  0  0
  7  6  1  0  0  0  0
  8  9  1  0  0  0  0
  8  7  1  0  0  0  0
  9 37  1  0  0  0  0
  9  4  1  0  0  0  0
 10  6  1  0  0  0  0
 10 11  2  0  0  0  0
 12 13  1  0  0  0  0
 12 11  1  0  0  0  0
 13 20  1  0  0  0  0
 14 13  1  0  0  0  0
 15 16  1  0  0  0  0
 15 14  2  0  0  0  0
 16 12  2  0  0  0  0
 17 18  2  0  0  0  0
 17 16  1  0  0  0  0
 18 10  1  0  0  0  0
 19 17  1  0  0  0  0
 20 39  1  0  0  0  0
 20 21  1  0  0  0  0
 21 22  1  0  0  0  0
 22 27  1  0  0  0  0
 22 23  2  0  0  0  0
 23 41  1  0  0  0  0
 24 23  1  0  0  0  0
 24 42  1  0  0  0  0
 25 24  2  0  0  0  0
 26 21  2  0  0  0  0
 26 25  1  0  0  0  0
 28 47  1  0  0  0  0
 28  1  1  0  0  0  0
 32  7  1  0  0  0  0
 34  8  1  0  0  0  0
 35  8  1  0  0  0  0
 36  9  1  0  0  0  0
 38 19  1  0  0  0  0
 40 20  1  0  0  0  0
 43 25  1  0  0  0  0
 44 26  1  0  0  0  0
 45 28  1  0  0  0  0
 46 28  1  0  0  0  0
M  END
>  <Pose>
1

>  <Score>
-6.24

$$$$
