
 OpenBabel03202209423D

 45 49  0  0  0  0  0  0  0  0999 V2000
  -33.7310  -67.6730   46.6970 Cl  0  0  0  0  0  0  0  0  0  0  0  0
  -35.1650  -67.4840   47.6570 C   0  0  0  0  0  0  0  0  0  0  0  0
  -35.0890  -67.5780   49.0240 C   0  0  0  0  0  0  0  0  0  0  0  0
  -36.2240  -67.4300   49.7900 C   0  0  0  0  0  0  0  0  0  0  0  0
  -37.4530  -67.1870   49.2240 C   0  0  0  0  0  0  0  0  0  0  0  0
  -37.4990  -67.0980   47.8500 C   0  0  0  0  0  0  0  0  0  0  0  0
  -36.3710  -67.2440   47.0650 C   0  0  0  0  0  0  0  0  0  0  0  0
  -38.6560  -67.0250   49.9610 N   0  0  0  0  0  0  0  0  0  0  0  0
  -39.3960  -67.9700   50.5120 N   0  0  0  0  0  0  0  0  0  0  0  0
  -40.4510  -67.4700   51.1250 N   0  0  0  0  0  0  0  0  0  0  0  0
  -40.4450  -66.1330   50.9930 C   0  0  0  0  0  0  0  0  0  0  0  0
  -39.3060  -65.8710   50.2580 C   0  0  0  0  0  0  0  0  0  0  0  0
  -39.0310  -64.5810   49.9630 N   0  0  0  0  0  0  0  0  0  0  0  0
  -39.8630  -63.6140   50.3920 C   0  0  0  0  0  0  0  0  0  0  0  0
  -40.9800  -63.8770   51.1150 N   0  0  0  0  0  0  0  0  0  0  0  0
  -41.3010  -65.1440   51.4350 C   0  0  0  0  0  0  0  0  0  0  0  0
  -42.4730  -65.4400   52.1950 N   0  0  0  0  0  0  0  0  0  0  0  0
  -42.2660  -66.0730   53.4830 C   0  0  0  0  0  0  0  0  0  0  0  0
  -43.4420  -65.8020   54.4180 C   0  0  0  0  0  0  0  0  0  0  0  0
  -44.6720  -65.7810   53.7120 N   0  0  0  0  0  0  0  0  0  0  0  0
  -44.7440  -64.6830   52.6990 C   0  0  0  0  0  0  0  0  0  0  0  0
  -43.7420  -65.0930   51.6360 C   0  0  0  0  0  0  0  0  0  0  0  0
  -45.7360  -66.6510   53.8770 C   0  0  0  0  0  0  0  0  0  0  0  0
  -45.4380  -67.9190   53.6490 O   0  0  0  0  0  0  0  0  0  0  0  0
  -47.1280  -66.4540   54.2540 C   0  0  0  0  0  0  0  0  0  0  0  0
  -47.9810  -65.5930   53.4030 C   0  0  0  0  0  0  0  0  0  0  0  0
  -48.3100  -67.0490   53.6390 C   0  0  0  0  0  0  0  0  0  0  0  0
  -34.1040  -67.7730   49.4670 H   0  0  0  0  0  0  0  0  0  0  0  0
  -36.1270  -67.5100   50.8600 H   0  0  0  0  0  0  0  0  0  0  0  0
  -38.4620  -66.9050   47.3740 H   0  0  0  0  0  0  0  0  0  0  0  0
  -36.4970  -67.1580   45.9790 H   0  0  0  0  0  0  0  0  0  0  0  0
  -39.6300  -62.5680   50.1470 H   0  0  0  0  0  0  0  0  0  0  0  0
  -42.0700  -67.1510   53.3480 H   0  0  0  0  0  0  0  0  0  0  0  0
  -41.3710  -65.6410   53.9740 H   0  0  0  0  0  0  0  0  0  0  0  0
  -43.2980  -64.7280   54.7940 H   0  0  0  0  0  0  0  0  0  0  0  0
  -43.3260  -66.4100   55.2890 H   0  0  0  0  0  0  0  0  0  0  0  0
  -45.7480  -64.5980   52.2900 H   0  0  0  0  0  0  0  0  0  0  0  0
  -44.3770  -63.7760   53.1790 H   0  0  0  0  0  0  0  0  0  0  0  0
  -44.2260  -65.9280   51.0690 H   0  0  0  0  0  0  0  0  0  0  0  0
  -43.6530  -64.2400   50.9300 H   0  0  0  0  0  0  0  0  0  0  0  0
  -47.2580  -66.2690   55.3900 H   0  0  0  0  0  0  0  0  0  0  0  0
  -47.6290  -65.2210   52.4300 H   0  0  0  0  0  0  0  0  0  0  0  0
  -48.6790  -64.8530   53.8780 H   0  0  0  0  0  0  0  0  0  0  0  0
  -49.1980  -67.2490   54.3300 H   0  0  0  0  0  0  0  0  0  0  0  0
  -48.3670  -67.6780   52.7630 H   0  0  0  0  0  0  0  0  0  0  0  0
  1  2  1  0  0  0  0
  2  3  1  0  0  0  0
  3 28  1  0  0  0  0
  3  4  2  0  0  0  0
  4 29  1  0  0  0  0
  5  4  1  0  0  0  0
  5  8  1  0  0  0  0
  6  5  2  0  0  0  0
  7  2  2  0  0  0  0
  7  6  1  0  0  0  0
  8 12  1  0  0  0  0
  8  9  1  0  0  0  0
  9 10  2  0  0  0  0
 11 10  1  0  0  0  0
 11 16  1  0  0  0  0
 12 11  2  0  0  0  0
 13 12  1  0  0  0  0
 13 14  2  0  0  0  0
 14 15  1  0  0  0  0
 15 16  2  0  0  0  0
 16 17  1  0  0  0  0
 17 18  1  0  0  0  0
 18 34  1  0  0  0  0
 18 19  1  0  0  0  0
 19 35  1  0  0  0  0
 19 36  1  0  0  0  0
 20 23  1  0  0  0  0
 20 19  1  0  0  0  0
 21 38  1  0  0  0  0
 21 20  1  0  0  0  0
 22 17  1  0  0  0  0
 22 21  1  0  0  0  0
 23 25  1  0  0  0  0
 24 23  2  0  0  0  0
 25 41  1  0  0  0  0
 26 27  1  0  0  0  0
 26 43  1  0  0  0  0
 26 25  1  0  0  0  0
 27 25  1  0  0  0  0
 27 44  1  0  0  0  0
 30  6  1  0  0  0  0
 31  7  1  0  0  0  0
 32 14  1  0  0  0  0
 33 18  1  0  0  0  0
 37 21  1  0  0  0  0
 39 22  1  0  0  0  0
 40 22  1  0  0  0  0
 42 26  1  0  0  0  0
 45 27  1  0  0  0  0
M  END
>  <Pose>
1

>  <Score>
-5.80

$$$$
