
 OpenBabel03202209423D

 45 48  0  0  0  0  0  0  0  0999 V2000
  -43.6300  -65.0330   52.5460 Cl  0  0  0  0  0  0  0  0  0  0  0  0
  -42.8950  -66.4770   53.2080 C   0  0  0  0  0  0  0  0  0  0  0  0
  -41.6230  -66.7950   52.8230 C   0  0  0  0  0  0  0  0  0  0  0  0
  -40.9840  -67.9070   53.2980 C   0  0  0  0  0  0  0  0  0  0  0  0
  -41.6560  -68.7090   54.1820 C   0  0  0  0  0  0  0  0  0  0  0  0
  -42.9640  -68.3770   54.5740 C   0  0  0  0  0  0  0  0  0  0  0  0
  -43.6150  -67.2690   54.1070 C   0  0  0  0  0  0  0  0  0  0  0  0
  -44.9090  -66.8570   54.4480 N   0  0  0  0  0  0  0  0  0  0  0  0
  -46.0370  -67.0030   53.6380 C   0  0  0  0  0  0  0  0  0  0  0  0
  -46.5650  -68.1000   53.4040 O   0  0  0  0  0  0  0  0  0  0  0  0
  -46.6720  -65.8140   53.0050 C   0  0  0  0  0  0  0  0  0  0  0  0
  -46.5920  -65.6780   51.7180 N   0  0  0  0  0  0  0  0  0  0  0  0
  -47.1570  -64.5960   51.0470 N   0  0  0  0  0  0  0  0  0  0  0  0
  -47.8410  -63.6130   51.7910 C   0  0  0  0  0  0  0  0  0  0  0  0
  -48.4180  -62.6870   51.1250 O   0  0  0  0  0  0  0  0  0  0  0  0
  -47.9040  -63.6290   53.2670 C   0  0  0  0  0  0  0  0  0  0  0  0
  -47.3550  -64.8380   53.7740 N   0  0  0  0  0  0  0  0  0  0  0  0
  -47.0430  -64.4750   49.6080 C   0  0  0  0  0  0  0  0  0  0  0  0
  -47.9190  -65.1080   48.7610 C   0  0  0  0  0  0  0  0  0  0  0  0
  -47.7910  -64.9720   47.3750 C   0  0  0  0  0  0  0  0  0  0  0  0
  -46.7830  -64.2030   46.8300 C   0  0  0  0  0  0  0  0  0  0  0  0
  -45.9120  -63.5760   47.6910 C   0  0  0  0  0  0  0  0  0  0  0  0
  -46.0440  -63.7120   49.0410 C   0  0  0  0  0  0  0  0  0  0  0  0
  -46.6040  -64.0230   45.3580 C   0  0  0  0  0  0  0  0  0  0  0  0
  -41.0800  -69.8590   54.7120 O   0  0  0  0  0  0  0  0  0  0  0  0
  -39.6630  -70.0900   54.6810 C   0  0  0  0  0  0  0  0  0  0  0  0
  -39.0690  -69.4320   53.4800 C   0  0  0  0  0  0  0  0  0  0  0  0
  -38.0420  -69.9370   52.9700 O   0  0  0  0  0  0  0  0  0  0  0  0
  -39.6480  -68.2580   52.9190 N   0  0  0  0  0  0  0  0  0  0  0  0
  -41.0480  -66.1780   52.1150 H   0  0  0  0  0  0  0  0  0  0  0  0
  -43.4600  -69.0360   55.2740 H   0  0  0  0  0  0  0  0  0  0  0  0
  -45.0400  -66.3950   55.4030 H   0  0  0  0  0  0  0  0  0  0  0  0
  -47.2530  -62.7920   53.6560 H   0  0  0  0  0  0  0  0  0  0  0  0
  -48.9360  -63.4310   53.6240 H   0  0  0  0  0  0  0  0  0  0  0  0
  -47.4520  -65.0410   54.8030 H   0  0  0  0  0  0  0  0  0  0  0  0
  -48.7120  -65.7120   49.1850 H   0  0  0  0  0  0  0  0  0  0  0  0
  -48.4750  -65.4650   46.7230 H   0  0  0  0  0  0  0  0  0  0  0  0
  -45.1110  -62.9650   47.2480 H   0  0  0  0  0  0  0  0  0  0  0  0
  -45.3360  -63.1990   49.6880 H   0  0  0  0  0  0  0  0  0  0  0  0
  -45.5530  -64.1580   45.0490 H   0  0  0  0  0  0  0  0  0  0  0  0
  -47.2340  -64.7000   44.7730 H   0  0  0  0  0  0  0  0  0  0  0  0
  -46.9050  -62.9770   45.0920 H   0  0  0  0  0  0  0  0  0  0  0  0
  -39.2570  -69.5540   55.5790 H   0  0  0  0  0  0  0  0  0  0  0  0
  -39.4450  -71.1640   54.7260 H   0  0  0  0  0  0  0  0  0  0  0  0
  -39.1150  -67.6690   52.2500 H   0  0  0  0  0  0  0  0  0  0  0  0
  1  2  1  0  0  0  0
  2  7  1  0  0  0  0
  3  2  2  0  0  0  0
  3  4  1  0  0  0  0
  4  5  2  0  0  0  0
  5  6  1  0  0  0  0
  5 25  1  0  0  0  0
  6 31  1  0  0  0  0
  7  8  1  0  0  0  0
  7  6  2  0  0  0  0
  8 32  1  0  0  0  0
  9  8  1  0  0  0  0
 10  9  2  0  0  0  0
 11  9  1  0  0  0  0
 11 17  1  0  0  0  0
 12 11  2  0  0  0  0
 13 12  1  0  0  0  0
 13 14  1  0  0  0  0
 14 16  1  0  0  0  0
 15 14  2  0  0  0  0
 16 34  1  0  0  0  0
 16 33  1  0  0  0  0
 16 17  1  0  0  0  0
 17 35  1  0  0  0  0
 18 13  1  0  0  0  0
 19 36  1  0  0  0  0
 19 18  2  0  0  0  0
 20 19  1  0  0  0  0
 21 20  2  0  0  0  0
 21 22  1  0  0  0  0
 22 23  2  0  0  0  0
 23 18  1  0  0  0  0
 23 39  1  0  0  0  0
 24 21  1  0  0  0  0
 26 25  1  0  0  0  0
 26 44  1  0  0  0  0
 26 43  1  0  0  0  0
 27 26  1  0  0  0  0
 28 27  2  0  0  0  0
 29  4  1  0  0  0  0
 29 27  1  0  0  0  0
 30  3  1  0  0  0  0
 37 20  1  0  0  0  0
 38 22  1  0  0  0  0
 40 24  1  0  0  0  0
 41 24  1  0  0  0  0
 42 24  1  0  0  0  0
 45 29  1  0  0  0  0
M  END
>  <Pose>
1

>  <Score>
-6.71

$$$$
