
 OpenBabel03202209423D

 41 44  0  0  1  0  0  0  0  0999 V2000
  -40.4340  -66.6880   50.1070 S   0  0  0  0  0  0  0  0  0  0  0  0
  -41.2780  -67.8770   49.7050 O   0  0  0  0  0  0  0  0  0  0  0  0
  -41.0060  -65.4950   49.3990 O   0  0  0  0  0  0  0  0  0  0  0  0
  -40.4940  -66.4990   51.7630 N   0  0  0  0  0  0  0  0  0  0  0  0
  -40.2970  -67.6070   52.5860 C   0  0  0  0  0  0  0  0  0  0  0  0
  -41.1490  -67.5980   53.8330 C   0  0  0  0  0  0  0  0  0  0  0  0
  -42.4220  -66.8560   53.6750 C   0  0  2  0  0  0  0  0  0  0  0  0
  -42.3900  -65.7240   52.8970 C   0  0  0  0  0  0  0  0  0  0  0  0
  -43.4910  -64.9900   52.6990 N   0  0  0  0  0  0  0  0  0  0  0  0
  -44.6710  -65.3760   53.2850 C   0  0  1  0  0  0  0  0  0  0  0  0
  -44.6830  -66.4900   54.0460 N   0  0  0  0  0  0  0  0  0  0  0  0
  -45.9320  -66.6440   54.4940 N   0  0  0  0  0  0  0  0  0  0  0  0
  -46.7070  -65.6670   54.0410 C   0  0  0  0  0  0  0  0  0  0  0  0
  -45.9320  -64.8190   53.2520 C   0  0  0  0  0  0  0  0  0  0  0  0
  -43.6130  -67.2610   54.2770 C   0  0  0  0  0  0  0  0  0  0  0  0
  -43.6250  -68.2970   54.9850 O   0  0  0  0  0  0  0  0  0  0  0  0
  -41.1120  -65.3350   52.2780 C   0  0  0  0  0  0  0  0  0  0  0  0
  -38.8320  -66.9720   49.4650 C   0  0  0  0  0  0  0  0  0  0  0  0
  -37.8010  -67.4980   50.2250 C   0  0  0  0  0  0  0  0  0  0  0  0
  -36.5500  -67.7020   49.6640 C   0  0  0  0  0  0  0  0  0  0  0  0
  -36.2740  -67.3980   48.3500 C   0  0  0  0  0  0  0  0  0  0  0  0
  -37.3000  -66.8740   47.5930 C   0  0  0  0  0  0  0  0  0  0  0  0
  -38.5430  -66.6710   48.1500 C   0  0  0  0  0  0  0  0  0  0  0  0
  -34.9990  -67.6130   47.8020 O   0  0  0  0  0  0  0  0  0  0  0  0
  -34.8210  -67.5550   46.4000 C   0  0  0  0  0  0  0  0  0  0  0  0
  -35.2560  -68.3690   50.6400 Cl  0  0  0  0  0  0  0  0  0  0  0  0
  -40.4000  -68.5800   52.0370 H   0  0  0  0  0  0  0  0  0  0  0  0
  -39.2270  -67.5920   52.9550 H   0  0  0  0  0  0  0  0  0  0  0  0
  -41.3080  -68.6210   54.2320 H   0  0  0  0  0  0  0  0  0  0  0  0
  -40.5960  -67.0620   54.6610 H   0  0  0  0  0  0  0  0  0  0  0  0
  -46.2660  -67.4190   55.1120 H   0  0  0  0  0  0  0  0  0  0  0  0
  -47.7510  -65.5190   54.2270 H   0  0  0  0  0  0  0  0  0  0  0  0
  -46.2780  -63.9450   52.7530 H   0  0  0  0  0  0  0  0  0  0  0  0
  -41.2200  -64.5950   51.4770 H   0  0  0  0  0  0  0  0  0  0  0  0
  -40.4630  -64.9450   53.1160 H   0  0  0  0  0  0  0  0  0  0  0  0
  -38.0280  -67.7350   51.2570 H   0  0  0  0  0  0  0  0  0  0  0  0
  -37.0930  -66.6260   46.5430 H   0  0  0  0  0  0  0  0  0  0  0  0
  -39.3390  -66.2560   47.5340 H   0  0  0  0  0  0  0  0  0  0  0  0
  -35.2710  -66.5740   46.0710 H   0  0  0  0  0  0  0  0  0  0  0  0
  -33.7370  -67.4550   46.1570 H   0  0  0  0  0  0  0  0  0  0  0  0
  -35.2870  -68.4070   45.8820 H   0  0  0  0  0  0  0  0  0  0  0  0
  1  4  1  0  0  0  0
  2  1  2  0  0  0  0
  3  1  2  0  0  0  0
  4 17  1  0  0  0  0
  4  5  1  0  0  0  0
  5 28  1  0  0  0  0
  5  6  1  0  0  0  0
  6 29  1  0  0  0  0
  6 30  1  0  0  0  0
  7  8  1  1  0  0  0
  7  6  1  0  0  0  0
  7 15  1  0  0  0  0
  9  8  2  0  0  0  0
 10  9  1  1  0  0  0
 10 11  1  0  0  0  0
 11 15  1  0  0  0  0
 11 12  1  0  0  0  0
 12 31  1  0  0  0  0
 13 32  1  0  0  0  0
 13 12  1  0  0  0  0
 14 10  1  0  0  0  0
 14 13  2  0  0  0  0
 15 16  2  0  0  0  0
 17  8  1  0  0  0  0
 17 35  1  0  0  0  0
 18  1  1  0  0  0  0
 18 19  1  0  0  0  0
 19 36  1  0  0  0  0
 20 19  2  0  0  0  0
 20 26  1  0  0  0  0
 21 20  1  0  0  0  0
 22 23  1  0  0  0  0
 22 21  2  0  0  0  0
 23 18  2  0  0  0  0
 24 21  1  0  0  0  0
 25 24  1  0  0  0  0
 27  5  1  0  0  0  0
 33 14  1  0  0  0  0
 34 17  1  0  0  0  0
 37 22  1  0  0  0  0
 38 23  1  0  0  0  0
 39 25  1  0  0  0  0
 40 25  1  0  0  0  0
 41 25  1  0  0  0  0
M  END
>  <Pose>
1

>  <Score>
-6.79

$$$$
