
 OpenBabel03202209423D

 47 50  0  0  1  0  0  0  0  0999 V2000
  -47.3100  -64.2200   46.9830 Cl  0  0  0  0  0  0  0  0  0  0  0  0
  -47.1720  -64.2190   48.7230 C   0  0  0  0  0  0  0  0  0  0  0  0
  -46.4200  -63.2830   49.4210 C   0  0  0  0  0  0  0  0  0  0  0  0
  -46.3250  -63.2990   50.7810 C   0  0  0  0  0  0  0  0  0  0  0  0
  -46.9830  -64.2630   51.5210 C   0  0  0  0  0  0  0  0  0  0  0  0
  -47.7280  -65.1910   50.8380 C   0  0  0  0  0  0  0  0  0  0  0  0
  -47.8230  -65.1730   49.4570 C   0  0  0  0  0  0  0  0  0  0  0  0
  -46.8780  -64.2390   52.9660 C   0  0  2  0  0  0  0  0  0  0  0  0
  -46.3600  -65.2680   53.7190 N   0  0  0  0  0  4  0  0  0  0  0  0
  -47.3710  -66.3050   53.6840 C   0  0  0  0  0  0  0  0  0  0  0  0
  -47.3780  -67.5900   53.5380 C   0  0  0  0  0  0  0  0  0  0  0  0
  -48.6000  -68.4140   53.5460 C   0  0  0  0  0  0  0  0  0  0  0  0
  -49.8780  -67.6720   53.7150 C   0  0  0  0  0  0  0  0  0  0  0  0
  -49.7370  -66.3290   54.3490 C   0  0  0  0  0  0  0  0  0  0  0  0
  -48.5860  -65.5990   53.8620 N   0  0  0  0  0  0  0  0  0  0  0  0
  -48.3470  -64.2110   53.4790 C   0  0  0  0  0  0  0  0  0  0  0  0
  -45.0710  -65.7610   53.5930 C   0  0  0  0  0  0  0  0  0  0  0  0
  -44.2190  -65.5670   52.5590 C   0  0  0  0  0  0  0  0  0  0  0  0
  -42.9410  -66.1210   52.5820 C   0  0  0  0  0  0  0  0  0  0  0  0
  -42.4800  -66.8840   53.6420 C   0  0  0  0  0  0  0  0  0  0  0  0
  -43.3690  -67.0640   54.6810 C   0  0  0  0  0  0  0  0  0  0  0  0
  -44.6320  -66.5330   54.6870 C   0  0  0  0  0  0  0  0  0  0  0  0
  -41.2010  -67.4170   53.6250 O   0  0  0  0  0  0  0  0  0  0  0  0
  -40.8540  -68.4050   54.5620 C   0  0  0  0  0  0  0  0  0  0  0  0
  -46.3840  -62.9720   53.3880 O   0  0  0  0  0  0  0  0  0  0  0  0
  -45.9080  -62.5290   48.8090 H   0  0  0  0  0  0  0  0  0  0  0  0
  -45.7100  -62.5220   51.2470 H   0  0  0  0  0  0  0  0  0  0  0  0
  -48.2920  -65.9780   51.3130 H   0  0  0  0  0  0  0  0  0  0  0  0
  -48.4220  -65.9190   48.9170 H   0  0  0  0  0  0  0  0  0  0  0  0
  -46.4340  -64.9490   54.7540 H   0  0  0  0  0  0  0  0  0  0  0  0
  -46.4560  -68.1400   53.3850 H   0  0  0  0  0  0  0  0  0  0  0  0
  -48.5020  -69.2820   54.2450 H   0  0  0  0  0  0  0  0  0  0  0  0
  -48.6240  -68.9100   52.5280 H   0  0  0  0  0  0  0  0  0  0  0  0
  -50.5450  -68.3070   54.3670 H   0  0  0  0  0  0  0  0  0  0  0  0
  -50.4120  -67.5160   52.7370 H   0  0  0  0  0  0  0  0  0  0  0  0
  -49.6790  -66.4560   55.4680 H   0  0  0  0  0  0  0  0  0  0  0  0
  -50.6340  -65.7070   54.1660 H   0  0  0  0  0  0  0  0  0  0  0  0
  -48.3940  -63.6110   54.4100 H   0  0  0  0  0  0  0  0  0  0  0  0
  -49.0330  -63.8640   52.7030 H   0  0  0  0  0  0  0  0  0  0  0  0
  -44.5470  -64.9730   51.7220 H   0  0  0  0  0  0  0  0  0  0  0  0
  -42.3060  -65.9260   51.7180 H   0  0  0  0  0  0  0  0  0  0  0  0
  -42.9840  -67.6690   55.5100 H   0  0  0  0  0  0  0  0  0  0  0  0
  -45.2810  -66.7060   55.5560 H   0  0  0  0  0  0  0  0  0  0  0  0
  -40.8050  -67.9790   55.5840 H   0  0  0  0  0  0  0  0  0  0  0  0
  -39.9190  -68.9330   54.2780 H   0  0  0  0  0  0  0  0  0  0  0  0
  -41.6260  -69.2260   54.6120 H   0  0  0  0  0  0  0  0  0  0  0  0
  -45.4330  -62.9520   53.1060 H   0  0  0  0  0  0  0  0  0  0  0  0
  1  2  1  0  0  0  0
  2  3  2  0  0  0  0
  2  7  1  0  0  0  0
  3  4  1  0  0  0  0
  4 27  1  0  0  0  0
  4  5  2  0  0  0  0
  5  8  1  0  0  0  0
  6 28  1  0  0  0  0
  6  5  1  0  0  0  0
  7  6  2  0  0  0  0
  8 25  1  1  0  0  0
  8 16  1  0  0  0  0
  8  9  1  0  0  0  0
  9 30  1  0  0  0  0
 10  9  1  0  0  0  0
 10 15  1  0  0  0  0
 11 12  1  0  0  0  0
 11 10  2  0  0  0  0
 12 13  1  0  0  0  0
 12 32  1  0  0  0  0
 13 14  1  0  0  0  0
 13 34  1  0  0  0  0
 14 36  1  0  0  0  0
 15 14  1  0  0  0  0
 16 15  1  0  0  0  0
 16 38  1  0  0  0  0
 17  9  1  0  0  0  0
 17 22  1  0  0  0  0
 18 19  1  0  0  0  0
 18 17  2  0  0  0  0
 19 20  2  0  0  0  0
 20 21  1  0  0  0  0
 21 22  2  0  0  0  0
 21 42  1  0  0  0  0
 22 43  1  0  0  0  0
 23 20  1  0  0  0  0
 23 24  1  0  0  0  0
 24 46  1  0  0  0  0
 24 44  1  0  0  0  0
 26  3  1  0  0  0  0
 29  7  1  0  0  0  0
 31 11  1  0  0  0  0
 33 12  1  0  0  0  0
 35 13  1  0  0  0  0
 37 14  1  0  0  0  0
 39 16  1  0  0  0  0
 40 18  1  0  0  0  0
 41 19  1  0  0  0  0
 45 24  1  0  0  0  0
 47 25  1  0  0  0  0
M  END
>  <Pose>
1

>  <Score>
-4.89

$$$$
