
 OpenBabel03202209423D

 56 59  0  0  1  0  0  0  0  0999 V2000
  -43.3920  -64.5680   52.2460 Cl  0  0  0  0  0  0  0  0  0  0  0  0
  -43.2360  -66.0460   53.1710 C   0  0  0  0  0  0  0  0  0  0  0  0
  -44.3130  -66.4080   53.9750 C   0  0  0  0  0  0  0  0  0  0  0  0
  -44.1560  -67.5770   54.6880 C   0  0  0  0  0  0  0  0  0  0  0  0
  -43.0230  -68.2930   54.5870 N   0  0  0  0  0  0  0  0  0  0  0  0
  -41.9900  -67.9670   53.8300 N   0  0  0  0  0  0  0  0  0  0  0  0
  -42.1010  -66.8310   53.1150 C   0  0  0  0  0  0  0  0  0  0  0  0
  -41.1270  -66.4990   52.3830 O   0  0  0  0  0  0  0  0  0  0  0  0
  -40.8100  -68.7800   53.7740 C   0  0  0  0  0  0  0  0  0  0  0  0
  -40.2340  -69.2410   54.9360 C   0  0  0  0  0  0  0  0  0  0  0  0
  -39.0830  -70.0350   54.8940 C   0  0  0  0  0  0  0  0  0  0  0  0
  -38.4940  -70.3780   53.6980 C   0  0  0  0  0  0  0  0  0  0  0  0
  -39.0640  -69.9220   52.5300 C   0  0  0  0  0  0  0  0  0  0  0  0
  -40.2080  -69.1320   52.5850 C   0  0  0  0  0  0  0  0  0  0  0  0
  -45.4880  -65.6170   54.0560 N   0  0  0  0  0  0  0  0  0  0  0  0
  -46.7960  -66.1300   53.7240 C   0  0  0  0  0  0  0  0  0  0  0  0
  -47.5320  -65.1400   52.8770 C   0  0  0  0  0  0  0  0  0  0  0  0
  -46.5810  -64.1400   52.4600 N   0  0  0  0  0  0  0  0  0  0  0  0
  -46.2160  -63.3570   53.5850 C   0  0  0  0  0  0  0  0  0  0  0  0
  -45.3630  -64.2480   54.4920 C   0  0  0  0  0  0  0  0  0  0  0  0
  -46.8510  -63.4890   51.2410 C   0  0  0  0  0  0  0  0  0  0  0  0
  -45.6750  -63.2490   50.3980 C   0  0  0  0  0  0  0  0  0  0  0  0
  -44.9050  -62.2990   50.7670 O   0  0  0  0  0  0  0  0  0  0  0  0
  -45.3200  -63.9680   49.2300 N   0  0  0  0  0  0  0  0  0  0  0  0
  -44.7100  -63.3760   48.0670 C   0  0  0  0  0  0  0  0  0  0  0  0
  -43.3370  -62.8880   48.4160 C   0  0  1  0  0  0  0  0  0  0  0  0
  -42.4180  -63.8540   48.1060 O   0  0  0  0  0  0  0  0  0  0  0  0
  -41.4800  -63.3750   47.2330 C   0  0  0  0  0  0  0  0  0  0  0  0
  -41.4420  -61.8930   47.5390 C   0  0  0  0  0  0  0  0  0  0  0  0
  -42.9590  -61.6470   47.6200 C   0  0  0  0  0  0  0  0  0  0  0  0
  -44.9840  -67.8830   55.3260 H   0  0  0  0  0  0  0  0  0  0  0  0
  -40.6990  -68.9700   55.8890 H   0  0  0  0  0  0  0  0  0  0  0  0
  -38.6270  -70.3990   55.8000 H   0  0  0  0  0  0  0  0  0  0  0  0
  -37.5940  -70.9980   53.6250 H   0  0  0  0  0  0  0  0  0  0  0  0
  -38.5980  -70.1930   51.5900 H   0  0  0  0  0  0  0  0  0  0  0  0
  -40.6640  -68.7690   51.6720 H   0  0  0  0  0  0  0  0  0  0  0  0
  -47.3690  -66.4580   54.6150 H   0  0  0  0  0  0  0  0  0  0  0  0
  -46.7070  -67.0670   53.0970 H   0  0  0  0  0  0  0  0  0  0  0  0
  -48.2720  -64.5970   53.5400 H   0  0  0  0  0  0  0  0  0  0  0  0
  -48.0230  -65.5620   51.9980 H   0  0  0  0  0  0  0  0  0  0  0  0
  -45.7270  -62.4040   53.3510 H   0  0  0  0  0  0  0  0  0  0  0  0
  -47.1450  -63.1260   54.1600 H   0  0  0  0  0  0  0  0  0  0  0  0
  -45.6390  -64.1210   55.5680 H   0  0  0  0  0  0  0  0  0  0  0  0
  -44.3170  -63.8790   54.3510 H   0  0  0  0  0  0  0  0  0  0  0  0
  -47.4070  -62.5190   51.3840 H   0  0  0  0  0  0  0  0  0  0  0  0
  -47.5600  -64.1520   50.6590 H   0  0  0  0  0  0  0  0  0  0  0  0
  -45.5080  -64.9910   49.2210 H   0  0  0  0  0  0  0  0  0  0  0  0
  -45.3170  -62.5100   47.6890 H   0  0  0  0  0  0  0  0  0  0  0  0
  -44.6560  -64.1320   47.2710 H   0  0  0  0  0  0  0  0  0  0  0  0
  -43.2570  -62.6110   49.4780 H   0  0  0  0  0  0  0  0  0  0  0  0
  -41.8640  -63.4790   46.2000 H   0  0  0  0  0  0  0  0  0  0  0  0
  -40.4980  -63.8590   47.3770 H   0  0  0  0  0  0  0  0  0  0  0  0
  -40.9590  -61.2920   46.7730 H   0  0  0  0  0  0  0  0  0  0  0  0
  -41.0440  -61.7540   48.5650 H   0  0  0  0  0  0  0  0  0  0  0  0
  -43.3180  -61.7290   46.5680 H   0  0  0  0  0  0  0  0  0  0  0  0
  -43.1940  -60.7080   48.1100 H   0  0  0  0  0  0  0  0  0  0  0  0
  1  2  1  0  0  0  0
  2  3  2  0  0  0  0
  3 15  1  0  0  0  0
  3  4  1  0  0  0  0
  4 31  1  0  0  0  0
  5  4  2  0  0  0  0
  6  5  1  0  0  0  0
  7  2  1  0  0  0  0
  7  6  1  0  0  0  0
  8  7  2  0  0  0  0
  9  6  1  0  0  0  0
  9 10  1  0  0  0  0
 10 32  1  0  0  0  0
 11 10  2  0  0  0  0
 11 33  1  0  0  0  0
 12 11  1  0  0  0  0
 13 14  1  0  0  0  0
 13 12  2  0  0  0  0
 14  9  2  0  0  0  0
 15 20  1  0  0  0  0
 16 15  1  0  0  0  0
 16 37  1  0  0  0  0
 17 39  1  0  0  0  0
 17 16  1  0  0  0  0
 18 17  1  0  0  0  0
 18 19  1  0  0  0  0
 19 42  1  0  0  0  0
 19 20  1  0  0  0  0
 20 43  1  0  0  0  0
 21 45  1  0  0  0  0
 21 18  1  0  0  0  0
 22 23  2  0  0  0  0
 22 21  1  0  0  0  0
 24 22  1  0  0  0  0
 25 26  1  0  0  0  0
 25 24  1  0  0  0  0
 26 50  1  1  0  0  0
 27 26  1  0  0  0  0
 28 52  1  0  0  0  0
 28 29  1  0  0  0  0
 28 27  1  0  0  0  0
 29 30  1  0  0  0  0
 29 54  1  0  0  0  0
 30 56  1  0  0  0  0
 30 26  1  0  0  0  0
 34 12  1  0  0  0  0
 35 13  1  0  0  0  0
 36 14  1  0  0  0  0
 38 16  1  0  0  0  0
 40 17  1  0  0  0  0
 41 19  1  0  0  0  0
 44 20  1  0  0  0  0
 46 21  1  0  0  0  0
 47 24  1  0  0  0  0
 48 25  1  0  0  0  0
 49 25  1  0  0  0  0
 51 28  1  0  0  0  0
 53 29  1  0  0  0  0
 55 30  1  0  0  0  0
M  END
>  <Pose>
1

>  <Score>
-6.65

$$$$
