
 OpenBabel03202209423D

 56 59  0  0  0  0  0  0  0  0999 V2000
  -40.1380  -64.0690   48.7810 S   0  0  0  0  0  0  0  0  0  0  0  0
  -40.9130  -62.8730   49.2430 O   0  0  0  0  0  0  0  0  0  0  0  0
  -40.6840  -64.4920   47.4490 O   0  0  0  0  0  0  0  0  0  0  0  0
  -40.2840  -65.3190   49.9400 N   0  0  0  0  0  0  0  0  0  0  0  0
  -40.0550  -64.9190   51.2810 C   0  0  0  0  0  0  0  0  0  0  0  0
  -41.2780  -64.3950   51.9870 C   0  0  0  0  0  0  0  0  0  0  0  0
  -42.4690  -65.1450   51.6480 N   0  0  0  0  0  0  0  0  0  0  0  0
  -42.2580  -66.3890   50.9320 C   0  0  0  0  0  0  0  0  0  0  0  0
  -41.3810  -66.1940   49.7200 C   0  0  0  0  0  0  0  0  0  0  0  0
  -43.7280  -64.6540   52.0130 C   0  0  0  0  0  0  0  0  0  0  0  0
  -43.8330  -63.9490   53.0440 O   0  0  0  0  0  0  0  0  0  0  0  0
  -44.9530  -64.9380   51.2220 C   0  0  0  0  0  0  0  0  0  0  0  0
  -46.1290  -64.9940   52.0460 N   0  0  0  0  0  0  0  0  0  0  0  0
  -46.3790  -65.9960   53.0210 C   0  0  0  0  0  0  0  0  0  0  0  0
  -45.5930  -66.9670   53.2830 O   0  0  0  0  0  0  0  0  0  0  0  0
  -47.6230  -65.7890   53.6770 N   0  0  0  0  0  0  0  0  0  0  0  0
  -48.3110  -64.7390   52.9480 C   0  0  0  0  0  0  0  0  0  0  0  0
  -48.8430  -63.6700   53.8580 C   0  0  0  0  0  0  0  0  0  0  0  0
  -50.1890  -63.9850   54.4400 C   0  0  0  0  0  0  0  0  0  0  0  0
  -51.2030  -64.4150   53.4210 C   0  0  0  0  0  0  0  0  0  0  0  0
  -50.6150  -64.5290   52.0320 C   0  0  0  0  0  0  0  0  0  0  0  0
  -49.3850  -65.4050   52.1220 C   0  0  0  0  0  0  0  0  0  0  0  0
  -47.2570  -64.1320   52.0970 C   0  0  0  0  0  0  0  0  0  0  0  0
  -47.3150  -63.0310   51.4990 O   0  0  0  0  0  0  0  0  0  0  0  0
  -48.0940  -66.5100   54.8590 C   0  0  0  0  0  0  0  0  0  0  0  0
  -38.4440  -63.6240   48.5130 C   0  0  0  0  0  0  0  0  0  0  0  0
  -37.0430  -64.3640   49.1240 S   0  0  0  0  0  0  0  0  0  0  0  0
  -35.8680  -63.3590   48.4150 C   0  0  0  0  0  0  0  0  0  0  0  0
  -36.6110  -62.4540   47.7060 C   0  0  0  0  0  0  0  0  0  0  0  0
  -37.9560  -62.5930   47.7580 C   0  0  0  0  0  0  0  0  0  0  0  0
  -34.0970  -63.4340   48.5410 Cl  0  0  0  0  0  0  0  0  0  0  0  0
  -39.3130  -64.0810   51.2700 H   0  0  0  0  0  0  0  0  0  0  0  0
  -39.6320  -65.7600   51.8630 H   0  0  0  0  0  0  0  0  0  0  0  0
  -41.4250  -63.3060   51.8310 H   0  0  0  0  0  0  0  0  0  0  0  0
  -41.1070  -64.5520   53.0840 H   0  0  0  0  0  0  0  0  0  0  0  0
  -43.2330  -66.7940   50.5750 H   0  0  0  0  0  0  0  0  0  0  0  0
  -41.8080  -67.1540   51.5800 H   0  0  0  0  0  0  0  0  0  0  0  0
  -41.9880  -65.9280   48.8110 H   0  0  0  0  0  0  0  0  0  0  0  0
  -40.9610  -67.2130   49.4780 H   0  0  0  0  0  0  0  0  0  0  0  0
  -44.8630  -65.8910   50.6880 H   0  0  0  0  0  0  0  0  0  0  0  0
  -45.0140  -64.1440   50.4460 H   0  0  0  0  0  0  0  0  0  0  0  0
  -48.1450  -63.4940   54.6980 H   0  0  0  0  0  0  0  0  0  0  0  0
  -48.9220  -62.7280   53.2620 H   0  0  0  0  0  0  0  0  0  0  0  0
  -50.5520  -63.0470   54.9360 H   0  0  0  0  0  0  0  0  0  0  0  0
  -50.0780  -64.7350   55.2470 H   0  0  0  0  0  0  0  0  0  0  0  0
  -51.6430  -65.3770   53.7570 H   0  0  0  0  0  0  0  0  0  0  0  0
  -52.0420  -63.6670   53.3490 H   0  0  0  0  0  0  0  0  0  0  0  0
  -51.3560  -64.9990   51.3740 H   0  0  0  0  0  0  0  0  0  0  0  0
  -50.3140  -63.5320   51.6940 H   0  0  0  0  0  0  0  0  0  0  0  0
  -49.0490  -65.6400   51.0930 H   0  0  0  0  0  0  0  0  0  0  0  0
  -49.6800  -66.3670   52.5910 H   0  0  0  0  0  0  0  0  0  0  0  0
  -49.1310  -66.8760   54.7210 H   0  0  0  0  0  0  0  0  0  0  0  0
  -47.4270  -67.3570   55.0450 H   0  0  0  0  0  0  0  0  0  0  0  0
  -47.9850  -65.8140   55.7160 H   0  0  0  0  0  0  0  0  0  0  0  0
  -36.1100  -61.6430   47.1170 H   0  0  0  0  0  0  0  0  0  0  0  0
  -38.6260  -61.8840   47.1990 H   0  0  0  0  0  0  0  0  0  0  0  0
  1  2  2  0  0  0  0
  1  4  1  0  0  0  0
  3  1  2  0  0  0  0
  4  5  1  0  0  0  0
  5 33  1  0  0  0  0
  5  6  1  0  0  0  0
  6 35  1  0  0  0  0
  7  6  1  0  0  0  0
  7 10  1  0  0  0  0
  8 37  1  0  0  0  0
  8  7  1  0  0  0  0
  9  4  1  0  0  0  0
  9  8  1  0  0  0  0
 10 11  2  0  0  0  0
 12 10  1  0  0  0  0
 12 13  1  0  0  0  0
 13 23  1  0  0  0  0
 13 14  1  0  0  0  0
 14 15  2  0  0  0  0
 14 16  1  0  0  0  0
 16 25  1  0  0  0  0
 17 16  1  0  0  0  0
 17 18  1  0  0  0  0
 18 19  1  0  0  0  0
 18 42  1  0  0  0  0
 19 44  1  0  0  0  0
 19 45  1  0  0  0  0
 20 46  1  0  0  0  0
 20 19  1  0  0  0  0
 21 22  1  0  0  0  0
 21 20  1  0  0  0  0
 22 51  1  0  0  0  0
 22 17  1  0  0  0  0
 23 17  1  0  0  0  0
 24 23  2  0  0  0  0
 25 53  1  0  0  0  0
 25 54  1  0  0  0  0
 26  1  1  0  0  0  0
 26 27  1  0  0  0  0
 28 31  1  0  0  0  0
 28 27  1  0  0  0  0
 29 30  1  0  0  0  0
 29 28  2  0  0  0  0
 30 26  2  0  0  0  0
 32  5  1  0  0  0  0
 34  6  1  0  0  0  0
 36  8  1  0  0  0  0
 38  9  1  0  0  0  0
 39  9  1  0  0  0  0
 40 12  1  0  0  0  0
 41 12  1  0  0  0  0
 43 18  1  0  0  0  0
 47 20  1  0  0  0  0
 48 21  1  0  0  0  0
 49 21  1  0  0  0  0
 50 22  1  0  0  0  0
 52 25  1  0  0  0  0
 55 29  1  0  0  0  0
 56 30  1  0  0  0  0
M  END
>  <Pose>
1

>  <Score>
-5.63

$$$$
