
 OpenBabel03202209423D

 38 41  0  0  0  0  0  0  0  0999 V2000
  -51.6170  -64.1390   55.7060 Cl  0  0  0  0  0  0  0  0  0  0  0  0
  -50.2340  -64.6110   54.7400 C   0  0  0  0  0  0  0  0  0  0  0  0
  -49.5540  -63.7090   53.9330 C   0  0  0  0  0  0  0  0  0  0  0  0
  -48.4770  -64.0430   53.1590 C   0  0  0  0  0  0  0  0  0  0  0  0
  -48.0210  -65.3300   53.1610 C   0  0  0  0  0  0  0  0  0  0  0  0
  -48.6810  -66.2590   53.9630 C   0  0  0  0  0  0  0  0  0  0  0  0
  -49.7680  -65.9020   54.7370 C   0  0  0  0  0  0  0  0  0  0  0  0
  -46.8770  -65.8380   52.3850 C   0  0  0  0  0  0  0  0  0  0  0  0
  -46.4560  -67.1640   52.9280 C   0  0  0  0  0  0  0  0  0  0  0  0
  -45.6210  -66.9820   54.2080 C   0  0  0  0  0  0  0  0  0  0  0  0
  -44.4210  -66.2910   53.7150 N   0  0  0  0  0  0  0  0  0  0  0  0
  -44.6560  -64.9680   53.2290 C   0  0  0  0  0  0  0  0  0  0  0  0
  -45.7540  -64.8860   52.2100 C   0  0  0  0  0  0  0  0  0  0  0  0
  -43.1780  -66.9680   53.7590 C   0  0  0  0  0  0  0  0  0  0  0  0
  -42.9590  -67.8900   54.7120 N   0  0  0  0  0  0  0  0  0  0  0  0
  -41.8520  -68.5940   54.8500 N   0  0  0  0  0  0  0  0  0  0  0  0
  -41.4320  -69.5390   55.6950 N   0  0  0  0  0  0  0  0  0  0  0  0
  -40.2130  -69.9240   55.3890 N   0  0  0  0  0  0  0  0  0  0  0  0
  -39.8370  -69.2370   54.3460 N   0  0  0  0  0  0  0  0  0  0  0  0
  -40.8470  -68.4020   53.9980 C   0  0  0  0  0  0  0  0  0  0  0  0
  -40.9990  -67.4670   52.9890 C   0  0  0  0  0  0  0  0  0  0  0  0
  -42.1640  -66.7400   52.8600 C   0  0  0  0  0  0  0  0  0  0  0  0
  -47.4090  -66.1040   51.0970 O   0  0  0  0  0  0  0  0  0  0  0  0
  -49.8960  -62.6890   53.9080 H   0  0  0  0  0  0  0  0  0  0  0  0
  -47.9450  -63.3370   52.5350 H   0  0  0  0  0  0  0  0  0  0  0  0
  -48.3910  -67.2920   54.0250 H   0  0  0  0  0  0  0  0  0  0  0  0
  -50.2870  -66.6530   55.3650 H   0  0  0  0  0  0  0  0  0  0  0  0
  -47.3270  -67.7920   53.2050 H   0  0  0  0  0  0  0  0  0  0  0  0
  -45.8320  -67.7490   52.2310 H   0  0  0  0  0  0  0  0  0  0  0  0
  -45.3740  -67.9600   54.6420 H   0  0  0  0  0  0  0  0  0  0  0  0
  -46.1000  -66.3000   54.9240 H   0  0  0  0  0  0  0  0  0  0  0  0
  -44.9880  -64.3520   54.1190 H   0  0  0  0  0  0  0  0  0  0  0  0
  -43.7440  -64.4850   52.8300 H   0  0  0  0  0  0  0  0  0  0  0  0
  -45.2560  -65.1350   51.2220 H   0  0  0  0  0  0  0  0  0  0  0  0
  -46.0820  -63.8440   52.0930 H   0  0  0  0  0  0  0  0  0  0  0  0
  -40.1650  -67.3400   52.3200 H   0  0  0  0  0  0  0  0  0  0  0  0
  -42.2820  -66.0130   52.0760 H   0  0  0  0  0  0  0  0  0  0  0  0
  -46.6230  -66.2810   50.4940 H   0  0  0  0  0  0  0  0  0  0  0  0
  2  1  1  0  0  0  0
  3  2  2  0  0  0  0
  4  5  2  0  0  0  0
  4  3  1  0  0  0  0
  5  6  1  0  0  0  0
  6 26  1  0  0  0  0
  6  7  2  0  0  0  0
  7  2  1  0  0  0  0
  7 27  1  0  0  0  0
  8  9  1  0  0  0  0
  8  5  1  0  0  0  0
  9 28  1  0  0  0  0
  9 10  1  0  0  0  0
 10 30  1  0  0  0  0
 10 31  1  0  0  0  0
 11 14  1  0  0  0  0
 11 10  1  0  0  0  0
 12 11  1  0  0  0  0
 12 32  1  0  0  0  0
 13  8  1  0  0  0  0
 13 12  1  0  0  0  0
 14 15  2  0  0  0  0
 15 16  1  0  0  0  0
 16 17  1  0  0  0  0
 18 17  2  0  0  0  0
 19 18  1  0  0  0  0
 20 19  2  0  0  0  0
 20 16  1  0  0  0  0
 21 20  1  0  0  0  0
 22 21  2  0  0  0  0
 22 14  1  0  0  0  0
 23  8  1  0  0  0  0
 24  3  1  0  0  0  0
 25  4  1  0  0  0  0
 29  9  1  0  0  0  0
 33 12  1  0  0  0  0
 34 13  1  0  0  0  0
 35 13  1  0  0  0  0
 36 21  1  0  0  0  0
 37 22  1  0  0  0  0
 38 23  1  0  0  0  0
M  END
>  <Pose>
1

>  <Score>
-5.37

$$$$
