
 OpenBabel03202209423D

 53 56  0  0  1  0  0  0  0  0999 V2000
  -41.6230  -68.3010   54.2370 S   0  0  0  0  0  0  0  0  0  0  0  0
  -41.0820  -67.6390   55.5070 O   0  0  0  0  0  0  0  0  0  0  0  0
  -42.0740  -69.6890   54.7070 O   0  0  0  0  0  0  0  0  0  0  0  0
  -42.9630  -67.3870   53.7500 N   0  0  0  0  0  0  0  0  0  0  0  0
  -43.6640  -66.6890   54.7680 C   0  0  0  0  0  0  0  0  0  0  0  0
  -44.8230  -65.8730   54.2440 C   0  0  1  0  0  0  0  0  0  0  0  0
  -44.3610  -64.9300   53.1880 C   0  0  0  0  0  0  0  0  0  0  0  0
  -43.5270  -65.6330   52.1320 C   0  0  0  0  0  0  0  0  0  0  0  0
  -42.4310  -66.3840   52.8040 C   0  0  0  0  0  0  0  0  0  0  0  0
  -46.0140  -66.6730   53.8910 C   0  0  0  0  0  0  0  0  0  0  0  0
  -45.8940  -67.9400   54.0770 O   0  0  0  0  0  0  0  0  0  0  0  0
  -47.2250  -66.2130   53.3930 N   0  0  0  0  0  0  0  0  0  0  0  0
  -48.4690  -66.5390   54.0170 C   0  0  0  0  0  0  0  0  0  0  0  0
  -49.4770  -65.4250   53.9730 C   0  0  0  0  0  0  0  0  0  0  0  0
  -49.3100  -64.5210   52.9710 O   0  0  0  0  0  0  0  0  0  0  0  0
  -48.0170  -64.1260   52.6990 C   0  0  0  0  0  0  0  0  0  0  0  0
  -47.3000  -65.3940   52.2080 C   0  0  0  0  0  0  0  0  0  0  0  0
  -40.3550  -68.5130   53.1050 C   0  0  0  0  0  0  0  0  0  0  0  0
  -39.3980  -69.4900   53.2360 C   0  0  0  0  0  0  0  0  0  0  0  0
  -38.4350  -69.6530   52.2510 C   0  0  0  0  0  0  0  0  0  0  0  0
  -38.4100  -68.8390   51.1150 C   0  0  0  0  0  0  0  0  0  0  0  0
  -39.3620  -67.8540   50.9730 C   0  0  0  0  0  0  0  0  0  0  0  0
  -40.3080  -67.7090   51.9600 C   0  0  0  0  0  0  0  0  0  0  0  0
  -39.3590  -66.9900   49.8000 C   0  0  0  0  0  0  0  0  0  0  0  0
  -40.2790  -66.9790   48.8210 N   0  0  0  0  0  0  0  0  0  0  0  0
  -39.9660  -66.0820   47.9270 O   0  0  0  0  0  0  0  0  0  0  0  0
  -38.8560  -65.4930   48.2860 C   0  0  0  0  0  0  0  0  0  0  0  0
  -38.4670  -66.0490   49.4490 N   0  0  0  0  0  0  0  0  0  0  0  0
  -38.1360  -64.3990   47.5480 C   0  0  0  0  0  0  0  0  0  0  0  0
  -39.2600  -70.5210   54.6440 Cl  0  0  0  0  0  0  0  0  0  0  0  0
  -44.0580  -67.3850   55.5600 H   0  0  0  0  0  0  0  0  0  0  0  0
  -42.9750  -65.9930   55.2770 H   0  0  0  0  0  0  0  0  0  0  0  0
  -45.1290  -65.2240   55.1220 H   0  0  0  0  0  0  0  0  0  0  0  0
  -43.6870  -64.1850   53.6670 H   0  0  0  0  0  0  0  0  0  0  0  0
  -45.2040  -64.4080   52.7060 H   0  0  0  0  0  0  0  0  0  0  0  0
  -44.1770  -66.3470   51.5970 H   0  0  0  0  0  0  0  0  0  0  0  0
  -43.0900  -64.8520   51.5010 H   0  0  0  0  0  0  0  0  0  0  0  0
  -41.8050  -65.6750   53.4160 H   0  0  0  0  0  0  0  0  0  0  0  0
  -41.8070  -66.8780   52.0390 H   0  0  0  0  0  0  0  0  0  0  0  0
  -48.3610  -66.8520   55.0780 H   0  0  0  0  0  0  0  0  0  0  0  0
  -48.8800  -67.4400   53.4800 H   0  0  0  0  0  0  0  0  0  0  0  0
  -49.5250  -64.8730   54.9580 H   0  0  0  0  0  0  0  0  0  0  0  0
  -50.4800  -65.8940   53.8580 H   0  0  0  0  0  0  0  0  0  0  0  0
  -47.5460  -63.8210   53.6710 H   0  0  0  0  0  0  0  0  0  0  0  0
  -48.0240  -63.3370   51.9530 H   0  0  0  0  0  0  0  0  0  0  0  0
  -46.3750  -65.2030   51.6860 H   0  0  0  0  0  0  0  0  0  0  0  0
  -48.0560  -65.9250   51.5440 H   0  0  0  0  0  0  0  0  0  0  0  0
  -37.6920  -70.4250   52.3670 H   0  0  0  0  0  0  0  0  0  0  0  0
  -37.6560  -68.9730   50.3530 H   0  0  0  0  0  0  0  0  0  0  0  0
  -41.0420  -66.9300   51.8220 H   0  0  0  0  0  0  0  0  0  0  0  0
  -38.7490  -64.1060   46.6810 H   0  0  0  0  0  0  0  0  0  0  0  0
  -37.9650  -63.5840   48.2740 H   0  0  0  0  0  0  0  0  0  0  0  0
  -37.1520  -64.8270   47.2480 H   0  0  0  0  0  0  0  0  0  0  0  0
  1  3  2  0  0  0  0
  1  2  2  0  0  0  0
  4  1  1  0  0  0  0
  4  5  1  0  0  0  0
  5 32  1  0  0  0  0
  5 31  1  0  0  0  0
  6  5  1  0  0  0  0
  6 33  1  1  0  0  0
  7 34  1  0  0  0  0
  7  6  1  0  0  0  0
  8  9  1  0  0  0  0
  8  7  1  0  0  0  0
  9 38  1  0  0  0  0
  9  4  1  0  0  0  0
 10 11  2  0  0  0  0
 10  6  1  0  0  0  0
 12 10  1  0  0  0  0
 12 13  1  0  0  0  0
 13 40  1  0  0  0  0
 14 13  1  0  0  0  0
 14 42  1  0  0  0  0
 15 14  1  0  0  0  0
 16 15  1  0  0  0  0
 16 44  1  0  0  0  0
 17 16  1  0  0  0  0
 17 12  1  0  0  0  0
 18 19  1  0  0  0  0
 18  1  1  0  0  0  0
 19 30  1  0  0  0  0
 20 48  1  0  0  0  0
 20 19  2  0  0  0  0
 21 20  1  0  0  0  0
 22 21  2  0  0  0  0
 22 23  1  0  0  0  0
 23 18  2  0  0  0  0
 24 22  1  0  0  0  0
 25 24  2  0  0  0  0
 26 27  1  0  0  0  0
 26 25  1  0  0  0  0
 27 28  2  0  0  0  0
 28 24  1  0  0  0  0
 29 52  1  0  0  0  0
 29 27  1  0  0  0  0
 35  7  1  0  0  0  0
 36  8  1  0  0  0  0
 37  8  1  0  0  0  0
 39  9  1  0  0  0  0
 41 13  1  0  0  0  0
 43 14  1  0  0  0  0
 45 16  1  0  0  0  0
 46 17  1  0  0  0  0
 47 17  1  0  0  0  0
 49 21  1  0  0  0  0
 50 23  1  0  0  0  0
 51 29  1  0  0  0  0
 53 29  1  0  0  0  0
M  END
>  <Pose>
1

>  <Score>
-6.51

$$$$
