
 OpenBabel03202209423D

 67 70  0  0  1  0  0  0  0  0999 V2000
  -41.9480  -68.1100   54.3120 S   0  0  0  0  0  0  0  0  0  0  0  0
  -42.6000  -69.4910   54.3110 O   0  0  0  0  0  0  0  0  0  0  0  0
  -41.1520  -68.0950   55.6120 O   0  0  0  0  0  0  0  0  0  0  0  0
  -43.1420  -66.9590   54.4140 N   0  0  0  0  0  0  0  0  0  0  0  0
  -44.4940  -67.3500   54.4870 C   0  0  0  0  0  0  0  0  0  0  0  0
  -45.3500  -66.7850   53.3730 C   0  0  2  0  0  0  0  0  0  0  0  0
  -44.8610  -65.5000   52.8240 C   0  0  0  0  0  0  0  0  0  0  0  0
  -43.8690  -64.7510   53.6370 C   0  0  0  0  0  0  0  0  0  0  0  0
  -42.8560  -65.5930   54.3690 C   0  0  0  0  0  0  0  0  0  0  0  0
  -46.7640  -66.6510   53.8080 C   0  0  0  0  0  0  0  0  0  0  0  0
  -47.3670  -65.5850   53.5290 O   0  0  0  0  0  0  0  0  0  0  0  0
  -47.4140  -67.7220   54.5270 N   0  0  0  0  0  0  0  0  0  0  0  0
  -48.3870  -68.4800   53.8290 C   0  0  0  0  0  0  0  0  0  0  0  0
  -49.7890  -68.0030   53.8080 C   0  0  0  0  0  0  0  0  0  0  0  0
  -50.8190  -68.8980   53.4320 N   0  0  0  0  0  0  0  0  0  0  0  0
  -50.8990  -70.1240   54.0810 C   0  0  0  0  0  0  0  0  0  0  0  0
  -50.6370  -71.3460   53.2480 C   0  0  0  0  0  0  0  0  0  0  0  0
  -51.1840  -71.2520   51.9770 O   0  0  0  0  0  0  0  0  0  0  0  0
  -50.5360  -70.1900   51.3460 C   0  0  0  0  0  0  0  0  0  0  0  0
  -51.0310  -68.9220   52.0030 C   0  0  0  0  0  0  0  0  0  0  0  0
  -40.8400  -67.9710   52.9980 C   0  0  0  0  0  0  0  0  0  0  0  0
  -41.0160  -66.9860   52.0380 C   0  0  0  0  0  0  0  0  0  0  0  0
  -40.1550  -66.8240   50.9790 C   0  0  0  0  0  0  0  0  0  0  0  0
  -39.0580  -67.6860   50.8640 C   0  0  0  0  0  0  0  0  0  0  0  0
  -38.8950  -68.6460   51.8080 C   0  0  0  0  0  0  0  0  0  0  0  0
  -39.7630  -68.8080   52.8740 C   0  0  0  0  0  0  0  0  0  0  0  0
  -39.4300  -70.2140   54.1540 B   0  0  0  0  0  0  0  0  0  0  0  0
  -38.2570  -67.3460   49.6570 C   0  0  0  0  0  0  0  0  0  0  0  0
  -39.2710  -66.5900   48.8220 C   0  0  0  0  0  0  0  0  0  0  0  0
  -40.0590  -65.9370   49.8740 N   0  0  0  0  0  0  0  0  0  0  0  0
  -40.5930  -64.6570   49.7460 C   0  0  0  0  0  0  0  0  0  0  0  0
  -41.8540  -64.5080   49.5960 O   0  0  0  0  0  0  0  0  0  0  0  0
  -39.7960  -63.4320   49.7700 C   0  0  0  0  0  0  0  0  0  0  0  0
  -38.6270  -63.4900   48.7900 C   0  0  0  0  0  0  0  0  0  0  0  0
  -44.9290  -66.9440   55.4460 H   0  0  0  0  0  0  0  0  0  0  0  0
  -44.5630  -68.4470   54.5640 H   0  0  0  0  0  0  0  0  0  0  0  0
  -45.3210  -67.5760   52.5650 H   0  0  0  0  0  0  0  0  0  0  0  0
  -45.7430  -64.8030   52.6820 H   0  0  0  0  0  0  0  0  0  0  0  0
  -44.4110  -65.6680   51.8130 H   0  0  0  0  0  0  0  0  0  0  0  0
  -43.2760  -64.0920   52.9480 H   0  0  0  0  0  0  0  0  0  0  0  0
  -44.3990  -64.0260   54.3080 H   0  0  0  0  0  0  0  0  0  0  0  0
  -41.8120  -65.4120   54.0550 H   0  0  0  0  0  0  0  0  0  0  0  0
  -42.8750  -65.2060   55.4380 H   0  0  0  0  0  0  0  0  0  0  0  0
  -47.1160  -67.8390   55.4990 H   0  0  0  0  0  0  0  0  0  0  0  0
  -48.4060  -69.4980   54.3140 H   0  0  0  0  0  0  0  0  0  0  0  0
  -47.9800  -68.6160   52.7740 H   0  0  0  0  0  0  0  0  0  0  0  0
  -50.0470  -67.5520   54.8320 H   0  0  0  0  0  0  0  0  0  0  0  0
  -49.8250  -67.0590   53.1620 H   0  0  0  0  0  0  0  0  0  0  0  0
  -52.0150  -70.2490   54.3740 H   0  0  0  0  0  0  0  0  0  0  0  0
  -50.4130  -70.1350   55.0660 H   0  0  0  0  0  0  0  0  0  0  0  0
  -49.5490  -71.4720   53.1230 H   0  0  0  0  0  0  0  0  0  0  0  0
  -51.0260  -72.2680   53.7230 H   0  0  0  0  0  0  0  0  0  0  0  0
  -49.4520  -70.3120   51.3530 H   0  0  0  0  0  0  0  0  0  0  0  0
  -50.8420  -70.1200   50.2680 H   0  0  0  0  0  0  0  0  0  0  0  0
  -52.1530  -68.9260   51.8660 H   0  0  0  0  0  0  0  0  0  0  0  0
  -50.6850  -68.0060   51.5030 H   0  0  0  0  0  0  0  0  0  0  0  0
  -41.8450  -66.2940   52.0780 H   0  0  0  0  0  0  0  0  0  0  0  0
  -38.0460  -69.3370   51.7460 H   0  0  0  0  0  0  0  0  0  0  0  0
  -37.3690  -66.7480   49.8720 H   0  0  0  0  0  0  0  0  0  0  0  0
  -37.9790  -68.2660   49.1150 H   0  0  0  0  0  0  0  0  0  0  0  0
  -38.7910  -65.8460   48.1560 H   0  0  0  0  0  0  0  0  0  0  0  0
  -39.8560  -67.2720   48.2040 H   0  0  0  0  0  0  0  0  0  0  0  0
  -40.4920  -62.6090   49.4110 H   0  0  0  0  0  0  0  0  0  0  0  0
  -39.4030  -63.1390   50.7470 H   0  0  0  0  0  0  0  0  0  0  0  0
  -38.5420  -62.5240   48.2700 H   0  0  0  0  0  0  0  0  0  0  0  0
  -38.8160  -64.3330   48.0900 H   0  0  0  0  0  0  0  0  0  0  0  0
  -37.7080  -63.7190   49.3640 H   0  0  0  0  0  0  0  0  0  0  0  0
  1  4  1  0  0  0  0
  1  3  2  0  0  0  0
  2  1  2  0  0  0  0
  4  5  1  0  0  0  0
  5 36  1  0  0  0  0
  5 35  1  0  0  0  0
  6 37  1  6  0  0  0
  6 10  1  0  0  0  0
  6  5  1  0  0  0  0
  7  6  1  0  0  0  0
  7  8  1  0  0  0  0
  8 41  1  0  0  0  0
  8  9  1  0  0  0  0
  9  4  1  0  0  0  0
  9 43  1  0  0  0  0
 10 12  1  0  0  0  0
 11 10  2  0  0  0  0
 12 44  1  0  0  0  0
 13 45  1  0  0  0  0
 13 12  1  0  0  0  0
 14 13  1  0  0  0  0
 14 47  1  0  0  0  0
 15 14  1  0  0  0  0
 15 16  1  0  0  0  0
 16 49  1  0  0  0  0
 16 50  1  0  0  0  0
 17 52  1  0  0  0  0
 17 16  1  0  0  0  0
 18 17  1  0  0  0  0
 19 53  1  0  0  0  0
 19 18  1  0  0  0  0
 19 20  1  0  0  0  0
 20 15  1  0  0  0  0
 21  1  1  0  0  0  0
 22 57  1  0  0  0  0
 22 21  2  0  0  0  0
 23 22  1  0  0  0  0
 24 23  2  0  0  0  0
 24 25  1  0  0  0  0
 25 26  2  0  0  0  0
 26 21  1  0  0  0  0
 26 27  1  0  0  0  0
 28 59  1  0  0  0  0
 28 24  1  0  0  0  0
 29 28  1  0  0  0  0
 29 30  1  0  0  0  0
 30 23  1  0  0  0  0
 31 33  1  0  0  0  0
 31 30  1  0  0  0  0
 32 31  2  0  0  0  0
 33 64  1  0  0  0  0
 34 67  1  0  0  0  0
 34 33  1  0  0  0  0
 38  7  1  0  0  0  0
 39  7  1  0  0  0  0
 40  8  1  0  0  0  0
 42  9  1  0  0  0  0
 46 13  1  0  0  0  0
 48 14  1  0  0  0  0
 51 17  1  0  0  0  0
 54 19  1  0  0  0  0
 55 20  1  0  0  0  0
 56 20  1  0  0  0  0
 58 25  1  0  0  0  0
 60 28  1  0  0  0  0
 61 29  1  0  0  0  0
 62 29  1  0  0  0  0
 63 33  1  0  0  0  0
 65 34  1  0  0  0  0
 66 34  1  0  0  0  0
M  END
>  <Pose>
1

>  <Score>
-7.93

$$$$
