
 OpenBabel03202209423D

 49 52  0  0  1  0  0  0  0  0999 V2000
  -38.2760  -63.5380   47.5490 Cl  0  0  0  0  0  0  0  0  0  0  0  0
  -39.9340  -63.6060   48.1430 C   0  0  0  0  0  0  0  0  0  0  0  0
  -40.9510  -62.9990   47.4560 C   0  0  0  0  0  0  0  0  0  0  0  0
  -42.2480  -63.0600   47.9330 C   0  0  0  0  0  0  0  0  0  0  0  0
  -42.5750  -63.7210   49.0970 C   0  0  0  0  0  0  0  0  0  0  0  0
  -41.5420  -64.3280   49.7780 C   0  0  0  0  0  0  0  0  0  0  0  0
  -40.2240  -64.2710   49.3030 C   0  0  0  0  0  0  0  0  0  0  0  0
  -43.9120  -63.7860   49.5840 N   0  0  0  0  0  0  0  0  0  0  0  0
  -44.7970  -64.9430   49.6360 C   0  0  0  0  0  0  0  0  0  0  0  0
  -45.7690  -64.6850   50.7540 C   0  0  2  0  0  0  0  0  0  0  0  0
  -45.7150  -63.2240   51.0540 C   0  0  0  0  0  0  0  0  0  0  0  0
  -44.6800  -62.6950   50.1360 C   0  0  0  0  0  0  0  0  0  0  0  0
  -44.4210  -61.4900   49.8130 O   0  0  0  0  0  0  0  0  0  0  0  0
  -45.6360  -65.5790   51.9110 C   0  0  0  0  0  0  0  0  0  0  0  0
  -46.4460  -66.5780   51.9680 O   0  0  0  0  0  0  0  0  0  0  0  0
  -44.7230  -65.4640   52.9640 N   0  0  0  0  0  0  0  0  0  0  0  0
  -43.4770  -64.7370   52.7790 C   0  0  0  0  0  0  0  0  0  0  0  0
  -42.2830  -65.6330   53.0920 C   0  0  0  0  0  0  0  0  0  0  0  0
  -42.6330  -66.5210   54.1610 N   0  0  0  0  0  0  0  0  0  0  0  0
  -43.6470  -66.1150   55.0870 C   0  0  0  0  0  0  0  0  0  0  0  0
  -44.9510  -66.0400   54.2690 C   0  0  0  0  0  0  0  0  0  0  0  0
  -42.0010  -67.7750   54.3000 C   0  0  0  0  0  0  0  0  0  0  0  0
  -41.0660  -68.3110   53.4680 N   0  0  0  0  0  0  0  0  0  0  0  0
  -40.7030  -69.5120   53.9390 C   0  0  0  0  0  0  0  0  0  0  0  0
  -41.4150  -69.7560   55.0890 C   0  0  0  0  0  0  0  0  0  0  0  0
  -42.1790  -68.6930   55.2700 N   0  0  0  0  0  0  0  0  0  0  0  0
  -40.5440  -67.6750   52.2520 C   0  0  0  0  0  0  0  0  0  0  0  0
  -40.6950  -62.4770   46.5380 H   0  0  0  0  0  0  0  0  0  0  0  0
  -43.0090  -62.5600   47.3460 H   0  0  0  0  0  0  0  0  0  0  0  0
  -41.7420  -64.8480   50.6810 H   0  0  0  0  0  0  0  0  0  0  0  0
  -39.4210  -64.7510   49.8450 H   0  0  0  0  0  0  0  0  0  0  0  0
  -44.2040  -65.8490   49.7480 H   0  0  0  0  0  0  0  0  0  0  0  0
  -45.3020  -64.9850   48.6320 H   0  0  0  0  0  0  0  0  0  0  0  0
  -46.7900  -64.8500   50.2880 H   0  0  0  0  0  0  0  0  0  0  0  0
  -46.6600  -62.6680   50.7680 H   0  0  0  0  0  0  0  0  0  0  0  0
  -45.5450  -62.9950   52.1140 H   0  0  0  0  0  0  0  0  0  0  0  0
  -43.4800  -63.8970   53.5120 H   0  0  0  0  0  0  0  0  0  0  0  0
  -43.3920  -64.2840   51.7810 H   0  0  0  0  0  0  0  0  0  0  0  0
  -41.4700  -64.9720   53.4770 H   0  0  0  0  0  0  0  0  0  0  0  0
  -41.9830  -66.1610   52.1610 H   0  0  0  0  0  0  0  0  0  0  0  0
  -43.8350  -66.8700   55.8830 H   0  0  0  0  0  0  0  0  0  0  0  0
  -43.4120  -65.1140   55.4980 H   0  0  0  0  0  0  0  0  0  0  0  0
  -45.6730  -65.4700   54.8870 H   0  0  0  0  0  0  0  0  0  0  0  0
  -45.2200  -67.0970   54.1240 H   0  0  0  0  0  0  0  0  0  0  0  0
  -39.9760  -70.1780   53.4900 H   0  0  0  0  0  0  0  0  0  0  0  0
  -41.3730  -70.6390   55.7370 H   0  0  0  0  0  0  0  0  0  0  0  0
  -40.8110  -68.3130   51.3720 H   0  0  0  0  0  0  0  0  0  0  0  0
  -41.0210  -66.6910   52.1360 H   0  0  0  0  0  0  0  0  0  0  0  0
  -39.4540  -67.6380   52.2980 H   0  0  0  0  0  0  0  0  0  0  0  0
  1  2  1  0  0  0  0
  2  7  1  0  0  0  0
  3  4  1  0  0  0  0
  3  2  2  0  0  0  0
  4  5  2  0  0  0  0
  5  8  1  0  0  0  0
  5  6  1  0  0  0  0
  6 30  1  0  0  0  0
  7  6  2  0  0  0  0
  7 31  1  0  0  0  0
  8  9  1  0  0  0  0
  8 12  1  0  0  0  0
  9 32  1  0  0  0  0
  9 10  1  0  0  0  0
 10 34  1  6  0  0  0
 10 11  1  0  0  0  0
 10 14  1  0  0  0  0
 11 36  1  0  0  0  0
 12 11  1  0  0  0  0
 13 12  2  0  0  0  0
 14 15  2  0  0  0  0
 14 16  1  0  0  0  0
 16 21  1  0  0  0  0
 17 16  1  0  0  0  0
 17 18  1  0  0  0  0
 17 37  1  0  0  0  0
 18 39  1  0  0  0  0
 18 19  1  0  0  0  0
 19 22  1  0  0  0  0
 19 20  1  0  0  0  0
 20 42  1  0  0  0  0
 20 41  1  0  0  0  0
 21 43  1  0  0  0  0
 21 20  1  0  0  0  0
 22 26  2  0  0  0  0
 23 24  1  0  0  0  0
 23 22  1  0  0  0  0
 24 25  2  0  0  0  0
 25 26  1  0  0  0  0
 25 46  1  0  0  0  0
 27 49  1  0  0  0  0
 27 23  1  0  0  0  0
 28  3  1  0  0  0  0
 29  4  1  0  0  0  0
 33  9  1  0  0  0  0
 35 11  1  0  0  0  0
 38 17  1  0  0  0  0
 40 18  1  0  0  0  0
 44 21  1  0  0  0  0
 45 24  1  0  0  0  0
 47 27  1  0  0  0  0
 48 27  1  0  0  0  0
M  END
>  <Pose>
1

>  <Score>
-5.09

$$$$
