
 OpenBabel03202209423D

 45 48  0  0  1  0  0  0  0  0999 V2000
  -39.4980  -70.3430   54.8790 Cl  0  0  0  0  0  0  0  0  0  0  0  0
  -40.5250  -69.0970   54.1970 C   0  0  0  0  0  0  0  0  0  0  0  0
  -41.4220  -68.3930   55.0010 C   0  0  0  0  0  0  0  0  0  0  0  0
  -42.2380  -67.4220   54.4840 C   0  0  0  0  0  0  0  0  0  0  0  0
  -42.2300  -67.0720   53.1330 C   0  0  0  0  0  0  0  0  0  0  0  0
  -41.3360  -67.7760   52.3440 C   0  0  0  0  0  0  0  0  0  0  0  0
  -40.5160  -68.7510   52.8600 C   0  0  0  0  0  0  0  0  0  0  0  0
  -43.0870  -66.0700   52.6220 N   0  0  0  0  0  0  0  0  0  0  0  0
  -42.4780  -64.8470   52.1840 C   0  0  0  0  0  0  0  0  0  0  0  0
  -41.2200  -64.7400   52.2380 O   0  0  0  0  0  0  0  0  0  0  0  0
  -43.3490  -63.8320   51.7140 N   0  0  0  0  0  0  0  0  0  0  0  0
  -44.6040  -63.9180   51.6600 C   0  0  0  0  0  0  0  0  0  0  0  0
  -45.4210  -65.1040   52.0900 C   0  0  1  0  0  0  0  0  0  0  0  0
  -46.2110  -64.6110   53.2700 C   0  0  0  0  0  0  0  0  0  0  0  0
  -47.4160  -65.2810   53.5720 N   0  0  0  0  0  4  0  0  0  0  0  0
  -48.2140  -65.6600   52.4670 C   0  0  0  0  0  0  0  0  0  0  0  0
  -47.6600  -65.7670   51.2320 C   0  0  0  0  0  0  0  0  0  0  0  0
  -48.4770  -66.1440   50.1690 C   0  0  0  0  0  0  0  0  0  0  0  0
  -49.8160  -66.3990   50.3860 C   0  0  0  0  0  0  0  0  0  0  0  0
  -50.3800  -66.2890   51.6480 C   0  0  0  0  0  0  0  0  0  0  0  0
  -49.5510  -65.9110   52.7030 C   0  0  0  0  0  0  0  0  0  0  0  0
  -50.7230  -66.7960   49.2620 C   0  0  0  0  0  0  0  0  0  0  0  0
  -46.2360  -65.5140   50.9240 C   0  0  0  0  0  0  0  0  0  0  0  0
  -47.2960  -66.3980   54.4960 C   0  0  0  0  0  0  0  0  0  0  0  0
  -44.4970  -66.1730   52.5420 C   0  0  0  0  0  0  0  0  0  0  0  0
  -44.9550  -67.3160   52.9030 O   0  0  0  0  0  0  0  0  0  0  0  0
  -45.3670  -62.8440   51.1660 O   0  0  0  0  0  0  0  0  0  0  0  0
  -41.4310  -68.6670   56.0650 H   0  0  0  0  0  0  0  0  0  0  0  0
  -42.9450  -66.8690   55.1310 H   0  0  0  0  0  0  0  0  0  0  0  0
  -41.3350  -67.4980   51.3000 H   0  0  0  0  0  0  0  0  0  0  0  0
  -39.8260  -69.2800   52.1900 H   0  0  0  0  0  0  0  0  0  0  0  0
  -46.4000  -63.5040   53.1910 H   0  0  0  0  0  0  0  0  0  0  0  0
  -45.5250  -64.7140   54.1590 H   0  0  0  0  0  0  0  0  0  0  0  0
  -48.0270  -64.5820   54.1040 H   0  0  0  0  0  0  0  0  0  0  0  0
  -48.0870  -66.2410   49.1610 H   0  0  0  0  0  0  0  0  0  0  0  0
  -51.4440  -66.4850   51.8450 H   0  0  0  0  0  0  0  0  0  0  0  0
  -50.0040  -65.8260   53.6890 H   0  0  0  0  0  0  0  0  0  0  0  0
  -50.2850  -66.5560   48.2690 H   0  0  0  0  0  0  0  0  0  0  0  0
  -51.7230  -66.3110   49.4170 H   0  0  0  0  0  0  0  0  0  0  0  0
  -50.8900  -67.8810   49.2980 H   0  0  0  0  0  0  0  0  0  0  0  0
  -46.2590  -64.7180   50.1180 H   0  0  0  0  0  0  0  0  0  0  0  0
  -45.8320  -66.4150   50.4290 H   0  0  0  0  0  0  0  0  0  0  0  0
  -46.3410  -66.3960   55.0630 H   0  0  0  0  0  0  0  0  0  0  0  0
  -47.4970  -67.3540   53.9550 H   0  0  0  0  0  0  0  0  0  0  0  0
  -48.1040  -66.3580   55.2900 H   0  0  0  0  0  0  0  0  0  0  0  0
  2  1  1  0  0  0  0
  2  3  1  0  0  0  0
  3 28  1  0  0  0  0
  4  3  2  0  0  0  0
  4 29  1  0  0  0  0
  5  4  1  0  0  0  0
  6  7  1  0  0  0  0
  6  5  2  0  0  0  0
  7  2  2  0  0  0  0
  8  5  1  0  0  0  0
  9 10  2  0  0  0  0
  9  8  1  0  0  0  0
 11  9  1  0  0  0  0
 12 11  1  0  0  0  0
 13 12  1  6  0  0  0
 13 25  1  0  0  0  0
 13 14  1  0  0  0  0
 14 15  1  0  0  0  0
 14 33  1  0  0  0  0
 15 34  1  0  0  0  0
 15 24  1  0  0  0  0
 16 21  1  0  0  0  0
 16 15  1  0  0  0  0
 17 16  2  0  0  0  0
 18 19  2  0  0  0  0
 18 17  1  0  0  0  0
 19 20  1  0  0  0  0
 20 36  1  0  0  0  0
 20 21  2  0  0  0  0
 21 37  1  0  0  0  0
 22 40  1  0  0  0  0
 22 39  1  0  0  0  0
 22 19  1  0  0  0  0
 23 17  1  0  0  0  0
 23 13  1  0  0  0  0
 24 43  1  0  0  0  0
 24 45  1  0  0  0  0
 25  8  1  0  0  0  0
 25 26  2  0  0  0  0
 27 12  2  0  0  0  0
 30  6  1  0  0  0  0
 31  7  1  0  0  0  0
 32 14  1  0  0  0  0
 35 18  1  0  0  0  0
 38 22  1  0  0  0  0
 41 23  1  0  0  0  0
 42 23  1  0  0  0  0
 44 24  1  0  0  0  0
M  END
>  <Pose>
1

>  <Score>
-5.45

$$$$
