
 OpenBabel03202209423D

 51 54  0  0  1  0  0  0  0  0999 V2000
  -48.8250  -67.8820   55.4500 Cl  0  0  0  0  0  0  0  0  0  0  0  0
  -47.7150  -67.0820   54.3300 C   0  0  0  0  0  0  0  0  0  0  0  0
  -47.9630  -65.8090   53.8810 C   0  0  0  0  0  0  0  0  0  0  0  0
  -47.0850  -65.2000   53.0070 C   0  0  0  0  0  0  0  0  0  0  0  0
  -45.9530  -65.8300   52.5610 C   0  0  0  0  0  0  0  0  0  0  0  0
  -45.7070  -67.0990   53.0070 C   0  0  0  0  0  0  0  0  0  0  0  0
  -46.5860  -67.7330   53.8950 C   0  0  0  0  0  0  0  0  0  0  0  0
  -45.0710  -65.1770   51.6580 N   0  0  0  0  0  0  0  0  0  0  0  0
  -45.4400  -65.0160   50.2960 C   0  0  0  0  0  0  0  0  0  0  0  0
  -46.5800  -65.4800   49.9430 O   0  0  0  0  0  0  0  0  0  0  0  0
  -44.5860  -64.3760   49.3920 N   0  0  0  0  0  0  0  0  0  0  0  0
  -43.3330  -63.8730   49.8130 C   0  0  0  0  0  0  0  0  0  0  0  0
  -42.7170  -63.0420   49.1190 O   0  0  0  0  0  0  0  0  0  0  0  0
  -42.7440  -64.3370   51.0890 C   0  0  1  0  0  0  0  0  0  0  0  0
  -43.8100  -64.6670   52.0650 C   0  0  0  0  0  0  0  0  0  0  0  0
  -43.5860  -64.4890   53.2750 O   0  0  0  0  0  0  0  0  0  0  0  0
  -41.9230  -65.5780   50.8650 C   0  0  0  0  0  0  0  0  0  0  0  0
  -40.6450  -65.7610   51.1310 C   0  0  0  0  0  0  0  0  0  0  0  0
  -40.2400  -67.1380   50.7530 C   0  0  2  0  0  0  0  0  0  0  0  0
  -41.2800  -67.5360   49.8460 N   0  0  0  0  0  0  0  0  0  0  0  0
  -42.3850  -66.8020   50.3060 N   0  0  0  0  0  0  0  0  0  0  0  0
  -40.1440  -67.9460   51.9640 C   0  0  0  0  0  0  0  0  0  0  0  0
  -41.1210  -67.8070   52.9260 C   0  0  0  0  0  0  0  0  0  0  0  0
  -41.1210  -68.5270   54.1030 C   0  0  0  0  0  0  0  0  0  0  0  0
  -40.0740  -69.4340   54.3120 C   0  0  0  0  0  0  0  0  0  0  0  0
  -39.0730  -69.6070   53.3810 C   0  0  0  0  0  0  0  0  0  0  0  0
  -39.1400  -68.8520   52.2270 C   0  0  0  0  0  0  0  0  0  0  0  0
  -38.0770  -70.5010   53.6340 O   0  0  0  0  0  0  0  0  0  0  0  0
  -37.1460  -70.9980   52.7160 C   0  0  0  0  0  0  0  0  0  0  0  0
  -40.0300  -70.1760   55.4710 O   0  0  0  0  0  0  0  0  0  0  0  0
  -42.1010  -68.3940   55.0780 O   0  0  0  0  0  0  0  0  0  0  0  0
  -43.2960  -67.7430   54.6970 C   0  0  0  0  0  0  0  0  0  0  0  0
  -48.8520  -65.3140   54.2320 H   0  0  0  0  0  0  0  0  0  0  0  0
  -47.3030  -64.1970   52.6690 H   0  0  0  0  0  0  0  0  0  0  0  0
  -44.8240  -67.6100   52.6680 H   0  0  0  0  0  0  0  0  0  0  0  0
  -46.3860  -68.7310   54.2430 H   0  0  0  0  0  0  0  0  0  0  0  0
  -44.9130  -64.2810   48.3870 H   0  0  0  0  0  0  0  0  0  0  0  0
  -42.0700  -63.5390   51.4580 H   0  0  0  0  0  0  0  0  0  0  0  0
  -40.0090  -64.9820   51.5680 H   0  0  0  0  0  0  0  0  0  0  0  0
  -39.2580  -67.0710   50.2290 H   0  0  0  0  0  0  0  0  0  0  0  0
  -41.4420  -68.5390   49.7800 H   0  0  0  0  0  0  0  0  0  0  0  0
  -43.3730  -67.1190   50.2390 H   0  0  0  0  0  0  0  0  0  0  0  0
  -41.9480  -67.1130   52.7980 H   0  0  0  0  0  0  0  0  0  0  0  0
  -38.3780  -68.9580   51.4770 H   0  0  0  0  0  0  0  0  0  0  0  0
  -37.5970  -71.2460   51.7300 H   0  0  0  0  0  0  0  0  0  0  0  0
  -36.6000  -71.8770   53.0470 H   0  0  0  0  0  0  0  0  0  0  0  0
  -36.4040  -70.1940   52.5090 H   0  0  0  0  0  0  0  0  0  0  0  0
  -40.8540  -70.6700   55.7840 H   0  0  0  0  0  0  0  0  0  0  0  0
  -43.9440  -67.5620   55.5710 H   0  0  0  0  0  0  0  0  0  0  0  0
  -43.8190  -68.2560   53.8790 H   0  0  0  0  0  0  0  0  0  0  0  0
  -43.0160  -66.7270   54.3110 H   0  0  0  0  0  0  0  0  0  0  0  0
  2  1  1  0  0  0  0
  3 33  1  0  0  0  0
  3  2  2  0  0  0  0
  4  3  1  0  0  0  0
  5  4  2  0  0  0  0
  5  6  1  0  0  0  0
  6  7  2  0  0  0  0
  7 36  1  0  0  0  0
  7  2  1  0  0  0  0
  8 15  1  0  0  0  0
  8  5  1  0  0  0  0
  9  8  1  0  0  0  0
 10  9  2  0  0  0  0
 11 12  1  0  0  0  0
 11  9  1  0  0  0  0
 12 14  1  0  0  0  0
 13 12  2  0  0  0  0
 14 38  1  1  0  0  0
 14 15  1  0  0  0  0
 15 16  2  0  0  0  0
 17 14  1  0  0  0  0
 17 18  2  0  0  0  0
 18 39  1  0  0  0  0
 19 40  1  6  0  0  0
 19 18  1  0  0  0  0
 19 22  1  0  0  0  0
 20 21  1  0  0  0  0
 20 19  1  0  0  0  0
 21 17  1  0  0  0  0
 22 27  2  0  0  0  0
 22 23  1  0  0  0  0
 23 24  2  0  0  0  0
 24 25  1  0  0  0  0
 24 31  1  0  0  0  0
 25 30  1  0  0  0  0
 26 28  1  0  0  0  0
 26 25  2  0  0  0  0
 27 26  1  0  0  0  0
 29 46  1  0  0  0  0
 29 28  1  0  0  0  0
 30 48  1  0  0  0  0
 32 31  1  0  0  0  0
 32 49  1  0  0  0  0
 34  4  1  0  0  0  0
 35  6  1  0  0  0  0
 37 11  1  0  0  0  0
 41 20  1  0  0  0  0
 42 21  1  0  0  0  0
 43 23  1  0  0  0  0
 44 27  1  0  0  0  0
 45 29  1  0  0  0  0
 47 29  1  0  0  0  0
 50 32  1  0  0  0  0
 51 32  1  0  0  0  0
M  END
>  <Pose>
1

>  <Score>
-6.93

$$$$
