
 OpenBabel03202209423D

 41 44  0  0  1  0  0  0  0  0999 V2000
  -38.8830  -70.7010   54.5930 Cl  0  0  0  0  0  0  0  0  0  0  0  0
  -40.0490  -69.4840   54.1040 C   0  0  0  0  0  0  0  0  0  0  0  0
  -41.3590  -69.5360   54.5300 C   0  0  0  0  0  0  0  0  0  0  0  0
  -42.2800  -68.5710   54.1390 C   0  0  0  0  0  0  0  0  0  0  0  0
  -41.9200  -67.5290   53.3140 C   0  0  0  0  0  0  0  0  0  0  0  0
  -40.6100  -67.4790   52.8900 C   0  0  0  0  0  0  0  0  0  0  0  0
  -39.6930  -68.4380   53.2790 C   0  0  0  0  0  0  0  0  0  0  0  0
  -42.8670  -66.5150   52.8980 N   0  0  0  0  0  0  0  0  0  0  0  0
  -43.0090  -66.1750   51.5310 C   0  0  0  0  0  0  0  0  0  0  0  0
  -42.3150  -66.7560   50.6600 O   0  0  0  0  0  0  0  0  0  0  0  0
  -43.9580  -65.1590   51.1640 N   0  0  0  0  0  0  0  0  0  0  0  0
  -44.7430  -64.5010   52.1480 C   0  0  0  0  0  0  0  0  0  0  0  0
  -45.3020  -63.4110   51.8660 O   0  0  0  0  0  0  0  0  0  0  0  0
  -44.8890  -65.1070   53.4810 C   0  0  2  0  0  0  0  0  0  0  0  0
  -43.6650  -65.8380   53.8530 C   0  0  0  0  0  0  0  0  0  0  0  0
  -43.2980  -65.8740   55.0780 O   0  0  0  0  0  0  0  0  0  0  0  0
  -46.0730  -66.0290   53.5230 C   0  0  0  0  0  0  0  0  0  0  0  0
  -46.9010  -66.3320   52.5580 C   0  0  0  0  0  0  0  0  0  0  0  0
  -47.9100  -67.2760   53.0630 C   0  0  1  0  0  0  0  0  0  0  0  0
  -47.3570  -67.7440   54.3030 N   0  0  0  0  0  0  0  0  0  0  0  0
  -46.4600  -66.7360   54.6890 N   0  0  0  0  0  0  0  0  0  0  0  0
  -49.1480  -66.4950   53.3170 C   0  0  0  0  0  0  0  0  0  0  0  0
  -49.0890  -65.3100   54.0110 C   0  0  0  0  0  0  0  0  0  0  0  0
  -50.2200  -64.5900   54.2480 N   0  0  0  0  0  0  0  0  0  0  0  0
  -51.4310  -64.9880   53.8260 C   0  0  0  0  0  0  0  0  0  0  0  0
  -51.5260  -66.1710   53.1290 C   0  0  0  0  0  0  0  0  0  0  0  0
  -50.3710  -66.9250   52.8760 C   0  0  0  0  0  0  0  0  0  0  0  0
  -41.6600  -70.3450   55.1770 H   0  0  0  0  0  0  0  0  0  0  0  0
  -43.3080  -68.5960   54.4650 H   0  0  0  0  0  0  0  0  0  0  0  0
  -40.3090  -66.6560   52.2330 H   0  0  0  0  0  0  0  0  0  0  0  0
  -38.6520  -68.4090   52.9470 H   0  0  0  0  0  0  0  0  0  0  0  0
  -44.0950  -64.8770   50.1690 H   0  0  0  0  0  0  0  0  0  0  0  0
  -45.0900  -64.3500   54.2720 H   0  0  0  0  0  0  0  0  0  0  0  0
  -46.8290  -65.9360   51.5530 H   0  0  0  0  0  0  0  0  0  0  0  0
  -48.1070  -68.1120   52.3490 H   0  0  0  0  0  0  0  0  0  0  0  0
  -46.8920  -68.6520   54.2100 H   0  0  0  0  0  0  0  0  0  0  0  0
  -46.1760  -66.5950   55.6860 H   0  0  0  0  0  0  0  0  0  0  0  0
  -48.1130  -64.9640   54.3650 H   0  0  0  0  0  0  0  0  0  0  0  0
  -52.3330  -64.3910   54.0280 H   0  0  0  0  0  0  0  0  0  0  0  0
  -52.4940  -66.5010   52.7850 H   0  0  0  0  0  0  0  0  0  0  0  0
  -50.4560  -67.8360   52.3380 H   0  0  0  0  0  0  0  0  0  0  0  0
  2  3  1  0  0  0  0
  2  1  1  0  0  0  0
  3 28  1  0  0  0  0
  4 29  1  0  0  0  0
  4  3  2  0  0  0  0
  5  4  1  0  0  0  0
  6  7  1  0  0  0  0
  6  5  2  0  0  0  0
  7  2  2  0  0  0  0
  8  5  1  0  0  0  0
  8 15  1  0  0  0  0
  9  8  1  0  0  0  0
 10  9  2  0  0  0  0
 11  9  1  0  0  0  0
 11 12  1  0  0  0  0
 12 14  1  0  0  0  0
 13 12  2  0  0  0  0
 14 17  1  0  0  0  0
 14 15  1  0  0  0  0
 14 33  1  1  0  0  0
 15 16  2  0  0  0  0
 17 21  1  0  0  0  0
 18 19  1  0  0  0  0
 18 17  2  0  0  0  0
 19 35  1  6  0  0  0
 19 22  1  0  0  0  0
 19 20  1  0  0  0  0
 20 21  1  0  0  0  0
 21 37  1  0  0  0  0
 22 23  1  0  0  0  0
 23 24  2  0  0  0  0
 23 38  1  0  0  0  0
 25 39  1  0  0  0  0
 25 24  1  0  0  0  0
 26 25  2  0  0  0  0
 27 26  1  0  0  0  0
 27 22  2  0  0  0  0
 30  6  1  0  0  0  0
 31  7  1  0  0  0  0
 32 11  1  0  0  0  0
 34 18  1  0  0  0  0
 36 20  1  0  0  0  0
 40 26  1  0  0  0  0
 41 27  1  0  0  0  0
M  END
>  <Pose>
1

>  <Score>
-6.29

$$$$
