
 OpenBabel03202209423D

 52 55  0  0  1  0  0  0  0  0999 V2000
  -38.8670  -70.0940   52.8000 Cl  0  0  0  0  0  0  0  0  0  0  0  0
  -40.1720  -69.0650   53.3330 C   0  0  0  0  0  0  0  0  0  0  0  0
  -40.8530  -69.2400   54.5120 C   0  0  0  0  0  0  0  0  0  0  0  0
  -41.8730  -68.4010   54.8850 C   0  0  0  0  0  0  0  0  0  0  0  0
  -42.2650  -67.3260   54.0780 C   0  0  0  0  0  0  0  0  0  0  0  0
  -41.5890  -67.1510   52.9070 C   0  0  0  0  0  0  0  0  0  0  0  0
  -40.5670  -67.9980   52.5420 C   0  0  0  0  0  0  0  0  0  0  0  0
  -43.3440  -66.4750   54.5310 C   0  0  0  0  0  0  0  0  0  0  0  0
  -43.0610  -65.4120   55.1780 O   0  0  0  0  0  0  0  0  0  0  0  0
  -44.7750  -66.7570   54.2900 C   0  0  0  0  0  0  0  0  0  0  0  0
  -45.1920  -66.0170   53.0950 N   0  0  0  0  0  0  0  0  0  0  0  0
  -46.3560  -65.9450   52.4750 C   0  0  2  0  0  0  0  0  0  0  0  0
  -46.2830  -65.1220   51.3940 N   0  0  0  0  0  0  0  0  0  0  0  0
  -45.0550  -64.6570   51.3280 C   0  0  0  0  0  0  0  0  0  0  0  0
  -44.3590  -65.2320   52.4130 C   0  0  0  0  0  0  0  0  0  0  0  0
  -44.4240  -63.7560   50.3590 C   0  0  0  0  0  0  0  0  0  0  0  0
  -43.2300  -63.9490   49.7440 C   0  0  0  0  0  0  0  0  0  0  0  0
  -42.6520  -63.0160   48.8830 C   0  0  0  0  0  0  0  0  0  0  0  0
  -43.2870  -61.8350   48.6150 C   0  0  0  0  0  0  0  0  0  0  0  0
  -44.4990  -61.6100   49.2200 C   0  0  0  0  0  0  0  0  0  0  0  0
  -45.0560  -62.5410   50.0690 C   0  0  0  0  0  0  0  0  0  0  0  0
  -42.7270  -60.8780   47.7510 O   0  0  0  0  0  0  0  0  0  0  0  0
  -42.3960  -59.5810   48.1700 C   0  0  0  0  0  0  0  0  0  0  0  0
  -47.3770  -64.8850   50.4960 C   0  0  0  0  0  0  0  0  0  0  0  0
  -48.4070  -63.9620   51.1440 C   0  0  0  0  0  0  0  0  0  0  0  0
  -48.4100  -64.3590   52.6240 C   0  0  0  0  0  0  0  0  0  0  0  0
  -48.8160  -65.8040   52.7150 C   0  0  0  0  0  0  0  0  0  0  0  0
  -47.5710  -66.6740   52.9530 C   0  0  0  0  0  0  0  0  0  0  0  0
  -40.5770  -70.0620   55.1620 H   0  0  0  0  0  0  0  0  0  0  0  0
  -42.3930  -68.5750   55.8360 H   0  0  0  0  0  0  0  0  0  0  0  0
  -41.8370  -66.3480   52.2410 H   0  0  0  0  0  0  0  0  0  0  0  0
  -40.0520  -67.8220   51.5960 H   0  0  0  0  0  0  0  0  0  0  0  0
  -44.8300  -67.8600   54.0610 H   0  0  0  0  0  0  0  0  0  0  0  0
  -45.4120  -66.5360   55.1470 H   0  0  0  0  0  0  0  0  0  0  0  0
  -43.3070  -65.0390   52.6320 H   0  0  0  0  0  0  0  0  0  0  0  0
  -42.7030  -64.8560   49.8730 H   0  0  0  0  0  0  0  0  0  0  0  0
  -41.6910  -63.2120   48.4130 H   0  0  0  0  0  0  0  0  0  0  0  0
  -44.9970  -60.6770   49.0050 H   0  0  0  0  0  0  0  0  0  0  0  0
  -46.0080  -62.3530   50.5430 H   0  0  0  0  0  0  0  0  0  0  0  0
  -41.4430  -59.6160   48.7420 H   0  0  0  0  0  0  0  0  0  0  0  0
  -42.3440  -58.8700   47.3100 H   0  0  0  0  0  0  0  0  0  0  0  0
  -43.1670  -59.1370   48.8660 H   0  0  0  0  0  0  0  0  0  0  0  0
  -47.1610  -64.7170   49.4640 H   0  0  0  0  0  0  0  0  0  0  0  0
  -47.9630  -65.8900   50.4650 H   0  0  0  0  0  0  0  0  0  0  0  0
  -48.1120  -62.9190   50.9990 H   0  0  0  0  0  0  0  0  0  0  0  0
  -49.4200  -64.1280   50.7770 H   0  0  0  0  0  0  0  0  0  0  0  0
  -47.3600  -64.2510   53.0120 H   0  0  0  0  0  0  0  0  0  0  0  0
  -49.0220  -63.6790   53.2330 H   0  0  0  0  0  0  0  0  0  0  0  0
  -49.5020  -65.8870   53.5880 H   0  0  0  0  0  0  0  0  0  0  0  0
  -49.4080  -66.1570   51.8500 H   0  0  0  0  0  0  0  0  0  0  0  0
  -47.6330  -67.5950   52.3180 H   0  0  0  0  0  0  0  0  0  0  0  0
  -47.4930  -67.0020   54.0020 H   0  0  0  0  0  0  0  0  0  0  0  0
  1  2  1  0  0  0  0
  2  3  1  0  0  0  0
  3  4  2  0  0  0  0
  3 29  1  0  0  0  0
  4 30  1  0  0  0  0
  5  8  1  0  0  0  0
  5  4  1  0  0  0  0
  6  5  2  0  0  0  0
  7  6  1  0  0  0  0
  7  2  2  0  0  0  0
  8  9  2  0  0  0  0
 10  8  1  0  0  0  0
 10 34  1  0  0  0  0
 11 10  1  0  0  0  0
 12 13  1  1  0  0  0
 12 28  1  0  0  0  0
 12 11  1  0  0  0  0
 14 13  1  0  0  0  0
 14 15  2  0  0  0  0
 15 35  1  0  0  0  0
 15 11  1  0  0  0  0
 16 14  1  0  0  0  0
 17 36  1  0  0  0  0
 17 16  2  0  0  0  0
 18 17  1  0  0  0  0
 19 18  2  0  0  0  0
 19 20  1  0  0  0  0
 20 21  2  0  0  0  0
 21 16  1  0  0  0  0
 21 39  1  0  0  0  0
 22 23  1  0  0  0  0
 22 19  1  0  0  0  0
 23 40  1  0  0  0  0
 23 42  1  0  0  0  0
 24 25  1  0  0  0  0
 24 13  1  0  0  0  0
 25 26  1  0  0  0  0
 26 27  1  0  0  0  0
 26 47  1  0  0  0  0
 26 48  1  0  0  0  0
 27 28  1  0  0  0  0
 27 49  1  0  0  0  0
 28 52  1  0  0  0  0
 31  6  1  0  0  0  0
 32  7  1  0  0  0  0
 33 10  1  0  0  0  0
 37 18  1  0  0  0  0
 38 20  1  0  0  0  0
 41 23  1  0  0  0  0
 43 24  1  0  0  0  0
 44 24  1  0  0  0  0
 45 25  1  0  0  0  0
 46 25  1  0  0  0  0
 50 27  1  0  0  0  0
 51 28  1  0  0  0  0
M  END
>  <Pose>
1

>  <Score>
-5.45

$$$$
