
 OpenBabel03202209423D

 58 61  0  0  1  0  0  0  0  0999 V2000
  -35.4140  -61.1600   44.9860 Cl  0  0  0  0  0  0  0  0  0  0  0  0
  -36.4250  -62.2920   45.9150 C   0  0  0  0  0  0  0  0  0  0  0  0
  -35.9800  -63.5650   46.1860 C   0  0  0  0  0  0  0  0  0  0  0  0
  -36.7930  -64.4520   46.9060 C   0  0  0  0  0  0  0  0  0  0  0  0
  -38.0490  -64.0830   47.3660 C   0  0  0  0  0  0  0  0  0  0  0  0
  -38.4630  -62.8200   47.0880 C   0  0  0  0  0  0  0  0  0  0  0  0
  -37.6780  -61.9240   46.3730 C   0  0  0  0  0  0  0  0  0  0  0  0
  -38.8160  -65.1260   48.0840 C   0  0  1  0  0  0  0  0  0  0  0  0
  -38.0030  -66.2620   48.5440 C   0  0  0  0  0  0  0  0  0  0  0  0
  -38.3870  -66.9080   49.8520 C   0  0  0  0  0  0  0  0  0  0  0  0
  -39.6070  -66.4520   50.4330 N   0  0  0  0  0  0  0  0  0  0  0  0
  -39.7530  -64.9830   50.4490 C   0  0  0  0  0  0  0  0  0  0  0  0
  -39.5920  -64.3800   49.1410 C   0  0  0  0  0  0  0  0  0  0  0  0
  -40.5100  -67.2160   51.2110 C   0  0  0  0  0  0  0  0  0  0  0  0
  -41.1050  -68.1780   50.7320 O   0  0  0  0  0  0  0  0  0  0  0  0
  -40.7550  -66.8570   52.6700 C   0  0  1  0  0  0  0  0  0  0  0  0
  -41.2230  -68.0240   53.3800 N   0  0  0  0  0  0  0  0  0  0  0  0
  -42.3920  -68.0870   54.1370 C   0  0  0  0  0  0  0  0  0  0  0  0
  -42.2940  -69.1220   55.0450 O   0  0  0  0  0  0  0  0  0  0  0  0
  -43.6010  -67.4220   54.2750 C   0  0  0  0  0  0  0  0  0  0  0  0
  -44.4790  -66.5800   53.8170 C   0  0  0  0  0  0  0  0  0  0  0  0
  -45.7070  -66.3370   54.5870 N   0  0  0  0  0  0  0  0  0  0  0  0
  -46.6520  -65.3960   54.2290 N   0  0  0  0  0  0  0  0  0  0  0  0
  -46.5120  -64.6020   53.1020 C   0  0  0  0  0  0  0  0  0  0  0  0
  -47.3490  -63.7390   52.7350 O   0  0  0  0  0  0  0  0  0  0  0  0
  -45.3040  -64.7750   52.2600 C   0  0  0  0  0  0  0  0  0  0  0  0
  -44.3870  -65.7200   52.6540 C   0  0  0  0  0  0  0  0  0  0  0  0
  -43.2180  -65.7760   51.8870 C   0  0  0  0  0  0  0  0  0  0  0  0
  -43.0280  -64.9340   50.8010 C   0  0  0  0  0  0  0  0  0  0  0  0
  -43.9750  -64.0120   50.4390 C   0  0  0  0  0  0  0  0  0  0  0  0
  -45.1300  -63.9340   51.1870 C   0  0  0  0  0  0  0  0  0  0  0  0
  -39.9090  -65.8720   53.2770 C   0  0  0  0  0  0  0  0  0  0  0  0
  -39.7650  -65.6440   47.1520 O   0  0  0  0  0  0  0  0  0  0  0  0
  -34.9930  -63.8650   45.8360 H   0  0  0  0  0  0  0  0  0  0  0  0
  -36.3950  -65.4350   47.1050 H   0  0  0  0  0  0  0  0  0  0  0  0
  -39.4240  -62.4420   47.4160 H   0  0  0  0  0  0  0  0  0  0  0  0
  -37.9960  -60.9270   46.1440 H   0  0  0  0  0  0  0  0  0  0  0  0
  -36.9000  -66.0580   48.5960 H   0  0  0  0  0  0  0  0  0  0  0  0
  -38.0900  -67.0840   47.7630 H   0  0  0  0  0  0  0  0  0  0  0  0
  -37.5880  -66.5820   50.6220 H   0  0  0  0  0  0  0  0  0  0  0  0
  -38.2660  -68.0070   49.8690 H   0  0  0  0  0  0  0  0  0  0  0  0
  -38.8160  -64.6810   51.0800 H   0  0  0  0  0  0  0  0  0  0  0  0
  -40.6150  -64.6420   51.0070 H   0  0  0  0  0  0  0  0  0  0  0  0
  -40.5740  -64.0880   48.7200 H   0  0  0  0  0  0  0  0  0  0  0  0
  -39.0980  -63.3540   49.3150 H   0  0  0  0  0  0  0  0  0  0  0  0
  -41.8080  -66.2890   52.5320 H   0  0  0  0  0  0  0  0  0  0  0  0
  -40.5090  -68.8230   53.3000 H   0  0  0  0  0  0  0  0  0  0  0  0
  -44.0890  -67.7950   55.3230 H   0  0  0  0  0  0  0  0  0  0  0  0
  -45.8270  -66.9330   55.4500 H   0  0  0  0  0  0  0  0  0  0  0  0
  -47.5120  -65.2750   54.8310 H   0  0  0  0  0  0  0  0  0  0  0  0
  -42.4660  -66.4310   52.1730 H   0  0  0  0  0  0  0  0  0  0  0  0
  -42.0970  -65.0110   50.2110 H   0  0  0  0  0  0  0  0  0  0  0  0
  -43.7650  -63.3840   49.5920 H   0  0  0  0  0  0  0  0  0  0  0  0
  -45.9070  -63.2210   50.9470 H   0  0  0  0  0  0  0  0  0  0  0  0
  -39.3020  -66.1990   54.1520 H   0  0  0  0  0  0  0  0  0  0  0  0
  -40.4860  -64.9720   53.6900 H   0  0  0  0  0  0  0  0  0  0  0  0
  -39.2370  -65.3610   52.5280 H   0  0  0  0  0  0  0  0  0  0  0  0
  -39.4590  -66.4790   46.7600 H   0  0  0  0  0  0  0  0  0  0  0  0
  1  2  1  0  0  0  0
  2  3  2  0  0  0  0
  2  7  1  0  0  0  0
  3  4  1  0  0  0  0
  4 35  1  0  0  0  0
  4  5  2  0  0  0  0
  5  8  1  0  0  0  0
  6  5  1  0  0  0  0
  6 36  1  0  0  0  0
  7  6  2  0  0  0  0
  8 33  1  6  0  0  0
  8  9  1  0  0  0  0
  8 13  1  0  0  0  0
  9 38  1  0  0  0  0
  9 10  1  0  0  0  0
 10 41  1  0  0  0  0
 10 11  1  0  0  0  0
 10 40  1  0  0  0  0
 11 12  1  0  0  0  0
 11 14  1  0  0  0  0
 12 43  1  0  0  0  0
 12 42  1  0  0  0  0
 13 45  1  0  0  0  0
 13 12  1  0  0  0  0
 14 16  1  0  0  0  0
 15 14  2  0  0  0  0
 16 46  1  6  0  0  0
 16 32  1  0  0  0  0
 16 17  1  0  0  0  0
 17 18  1  0  0  0  0
 18 20  1  0  0  0  0
 18 19  2  0  0  0  0
 20 48  1  0  0  0  0
 21 20  2  0  0  0  0
 21 22  1  0  0  0  0
 22 49  1  0  0  0  0
 23 22  1  0  0  0  0
 23 50  1  0  0  0  0
 24 23  1  0  0  0  0
 25 24  2  0  0  0  0
 26 27  1  0  0  0  0
 26 24  1  0  0  0  0
 27 21  1  0  0  0  0
 28 51  1  0  0  0  0
 28 27  2  0  0  0  0
 29 28  1  0  0  0  0
 30 29  2  0  0  0  0
 30 31  1  0  0  0  0
 31 26  2  0  0  0  0
 32 56  1  0  0  0  0
 32 55  1  0  0  0  0
 34  3  1  0  0  0  0
 37  7  1  0  0  0  0
 39  9  1  0  0  0  0
 44 13  1  0  0  0  0
 47 17  1  0  0  0  0
 52 29  1  0  0  0  0
 53 30  1  0  0  0  0
 54 31  1  0  0  0  0
 57 32  1  0  0  0  0
 58 33  1  0  0  0  0
M  END
>  <Pose>
1

>  <Score>
-6.39

$$$$
