
 OpenBabel03202209423D

 58 61  0  0  0  0  0  0  0  0999 V2000
  -46.3280  -66.6660   54.2470 Cl  0  0  0  0  0  0  0  0  0  0  0  0
  -46.7140  -66.1020   52.6400 C   0  0  0  0  0  0  0  0  0  0  0  0
  -45.7110  -65.5100   51.9030 C   0  0  0  0  0  0  0  0  0  0  0  0
  -46.1040  -65.1040   50.6200 C   0  0  0  0  0  0  0  0  0  0  0  0
  -47.3610  -65.2910   50.1760 N   0  0  0  0  0  0  0  0  0  0  0  0
  -48.3240  -65.8550   50.8750 N   0  0  0  0  0  0  0  0  0  0  0  0
  -47.9970  -66.2600   52.1080 C   0  0  0  0  0  0  0  0  0  0  0  0
  -48.8590  -66.8080   52.8400 O   0  0  0  0  0  0  0  0  0  0  0  0
  -49.6290  -66.0130   50.3260 C   0  0  0  0  0  0  0  0  0  0  0  0
  -49.8910  -66.8980   49.2920 C   0  0  0  0  0  0  0  0  0  0  0  0
  -51.1490  -67.0630   48.7490 C   0  0  0  0  0  0  0  0  0  0  0  0
  -52.1850  -66.3120   49.2650 C   0  0  0  0  0  0  0  0  0  0  0  0
  -51.9580  -65.4190   50.2960 C   0  0  0  0  0  0  0  0  0  0  0  0
  -50.6710  -65.2740   50.8260 C   0  0  0  0  0  0  0  0  0  0  0  0
  -44.4090  -65.2900   52.3890 N   0  0  0  0  0  0  0  0  0  0  0  0
  -44.2080  -64.5920   53.6550 C   0  0  0  0  0  0  0  0  0  0  0  0
  -43.4340  -65.4290   54.6480 C   0  0  0  0  0  0  0  0  0  0  0  0
  -42.7630  -66.4770   53.9170 N   0  0  0  0  0  0  0  0  0  0  0  0
  -42.1120  -66.0700   52.6850 C   0  0  0  0  0  0  0  0  0  0  0  0
  -43.2210  -65.7800   51.6750 C   0  0  0  0  0  0  0  0  0  0  0  0
  -42.7130  -67.8240   54.3290 C   0  0  0  0  0  0  0  0  0  0  0  0
  -43.6230  -68.2700   55.0620 O   0  0  0  0  0  0  0  0  0  0  0  0
  -41.6270  -68.7560   53.9380 C   0  0  0  0  0  0  0  0  0  0  0  0
  -40.7740  -68.1580   52.8440 C   0  0  0  0  0  0  0  0  0  0  0  0
  -39.8230  -69.1540   52.2490 C   0  0  0  0  0  0  0  0  0  0  0  0
  -38.7940  -68.5620   51.4240 N   0  0  0  0  0  0  0  0  0  0  0  0
  -37.4090  -68.8530   51.4790 C   0  0  0  0  0  0  0  0  0  0  0  0
  -36.8380  -69.6820   52.2640 O   0  0  0  0  0  0  0  0  0  0  0  0
  -36.6870  -68.0980   50.5300 N   0  0  0  0  0  0  0  0  0  0  0  0
  -37.6210  -67.2550   49.8170 C   0  0  0  0  0  0  0  0  0  0  0  0
  -38.9450  -67.5790   50.3940 C   0  0  0  0  0  0  0  0  0  0  0  0
  -40.0350  -67.0770   50.0450 O   0  0  0  0  0  0  0  0  0  0  0  0
  -35.2580  -68.1460   50.2980 C   0  0  0  0  0  0  0  0  0  0  0  0
  -45.3470  -64.6290   50.0230 H   0  0  0  0  0  0  0  0  0  0  0  0
  -49.0680  -67.4790   48.8990 H   0  0  0  0  0  0  0  0  0  0  0  0
  -51.3360  -67.7710   47.9290 H   0  0  0  0  0  0  0  0  0  0  0  0
  -53.1680  -66.4480   48.8350 H   0  0  0  0  0  0  0  0  0  0  0  0
  -52.7930  -64.8520   50.6720 H   0  0  0  0  0  0  0  0  0  0  0  0
  -50.4790  -64.5810   51.6330 H   0  0  0  0  0  0  0  0  0  0  0  0
  -43.5770  -63.6880   53.3630 H   0  0  0  0  0  0  0  0  0  0  0  0
  -45.1230  -64.2740   54.1600 H   0  0  0  0  0  0  0  0  0  0  0  0
  -44.0980  -65.8640   55.4210 H   0  0  0  0  0  0  0  0  0  0  0  0
  -42.6940  -64.7560   55.1690 H   0  0  0  0  0  0  0  0  0  0  0  0
  -41.5660  -65.1240   52.8740 H   0  0  0  0  0  0  0  0  0  0  0  0
  -41.3960  -66.8230   52.3070 H   0  0  0  0  0  0  0  0  0  0  0  0
  -43.4770  -66.7710   51.2760 H   0  0  0  0  0  0  0  0  0  0  0  0
  -42.8890  -65.0140   51.0010 H   0  0  0  0  0  0  0  0  0  0  0  0
  -40.9730  -68.9990   54.8000 H   0  0  0  0  0  0  0  0  0  0  0  0
  -42.0460  -69.7350   53.5980 H   0  0  0  0  0  0  0  0  0  0  0  0
  -40.1710  -67.3200   53.2390 H   0  0  0  0  0  0  0  0  0  0  0  0
  -41.4210  -67.7340   52.0380 H   0  0  0  0  0  0  0  0  0  0  0  0
  -40.3800  -69.9000   51.6230 H   0  0  0  0  0  0  0  0  0  0  0  0
  -39.2970  -69.7560   53.0180 H   0  0  0  0  0  0  0  0  0  0  0  0
  -37.6100  -67.4740   48.7160 H   0  0  0  0  0  0  0  0  0  0  0  0
  -37.3870  -66.1770   49.9100 H   0  0  0  0  0  0  0  0  0  0  0  0
  -35.0400  -69.0400   49.6680 H   0  0  0  0  0  0  0  0  0  0  0  0
  -34.7440  -68.3580   51.2790 H   0  0  0  0  0  0  0  0  0  0  0  0
  -34.9030  -67.2150   49.8360 H   0  0  0  0  0  0  0  0  0  0  0  0
  2  1  1  0  0  0  0
  3 15  1  0  0  0  0
  3  2  2  0  0  0  0
  4  3  1  0  0  0  0
  5  4  2  0  0  0  0
  5  6  1  0  0  0  0
  6  7  1  0  0  0  0
  7  2  1  0  0  0  0
  7  8  2  0  0  0  0
  9 14  1  0  0  0  0
  9  6  1  0  0  0  0
 10  9  2  0  0  0  0
 11 12  2  0  0  0  0
 11 10  1  0  0  0  0
 12 13  1  0  0  0  0
 13 38  1  0  0  0  0
 13 14  2  0  0  0  0
 14 39  1  0  0  0  0
 15 16  1  0  0  0  0
 16 41  1  0  0  0  0
 16 17  1  0  0  0  0
 17 43  1  0  0  0  0
 17 42  1  0  0  0  0
 18 21  1  0  0  0  0
 18 17  1  0  0  0  0
 19 44  1  0  0  0  0
 19 18  1  0  0  0  0
 20 15  1  0  0  0  0
 20 19  1  0  0  0  0
 21 22  2  0  0  0  0
 23 21  1  0  0  0  0
 23 48  1  0  0  0  0
 24 50  1  0  0  0  0
 24 23  1  0  0  0  0
 25 24  1  0  0  0  0
 25 53  1  0  0  0  0
 26 27  1  0  0  0  0
 26 25  1  0  0  0  0
 27 28  2  0  0  0  0
 29 27  1  0  0  0  0
 30 55  1  0  0  0  0
 30 31  1  0  0  0  0
 30 29  1  0  0  0  0
 31 26  1  0  0  0  0
 32 31  2  0  0  0  0
 33 29  1  0  0  0  0
 33 57  1  0  0  0  0
 34  4  1  0  0  0  0
 35 10  1  0  0  0  0
 36 11  1  0  0  0  0
 37 12  1  0  0  0  0
 40 16  1  0  0  0  0
 45 19  1  0  0  0  0
 46 20  1  0  0  0  0
 47 20  1  0  0  0  0
 49 23  1  0  0  0  0
 51 24  1  0  0  0  0
 52 25  1  0  0  0  0
 54 30  1  0  0  0  0
 56 33  1  0  0  0  0
 58 33  1  0  0  0  0
M  END
>  <Pose>
1

>  <Score>
-5.84

$$$$
