
 OpenBabel03202209423D

 53 56  0  0  0  0  0  0  0  0999 V2000
  -38.6480  -65.5070   48.8120 Cl  0  0  0  0  0  0  0  0  0  0  0  0
  -40.1340  -65.7090   49.7340 C   0  0  0  0  0  0  0  0  0  0  0  0
  -40.8330  -64.5530   50.0730 C   0  0  0  0  0  0  0  0  0  0  0  0
  -41.9970  -64.6940   50.7940 C   0  0  0  0  0  0  0  0  0  0  0  0
  -42.4450  -65.9560   51.1630 C   0  0  0  0  0  0  0  0  0  0  0  0
  -41.7420  -67.1040   50.8210 C   0  0  0  0  0  0  0  0  0  0  0  0
  -40.5720  -66.9610   50.0970 C   0  0  0  0  0  0  0  0  0  0  0  0
  -43.6040  -66.1790   51.8870 O   0  0  0  0  0  0  0  0  0  0  0  0
  -44.2520  -65.3610   52.8210 C   0  0  0  0  0  0  0  0  0  0  0  0
  -44.7190  -64.0420   52.3210 C   0  0  0  0  0  0  0  0  0  0  0  0
  -44.0530  -63.5170   51.1740 N   0  0  0  0  0  0  0  0  0  0  0  0
  -42.5970  -63.3590   51.0570 C   0  0  0  0  0  0  0  0  0  0  0  0
  -44.8300  -63.1030   50.0570 C   0  0  0  0  0  0  0  0  0  0  0  0
  -46.0750  -63.1450   50.1870 O   0  0  0  0  0  0  0  0  0  0  0  0
  -44.2310  -62.6430   48.8140 C   0  0  0  0  0  0  0  0  0  0  0  0
  -44.5350  -63.3820   47.5760 C   0  0  0  0  0  0  0  0  0  0  0  0
  -45.8930  -63.3380   47.0100 C   0  0  0  0  0  0  0  0  0  0  0  0
  -46.4680  -64.4960   46.4350 N   0  0  0  0  0  0  0  0  0  0  0  0
  -47.4430  -65.3230   47.0450 C   0  0  0  0  0  0  0  0  0  0  0  0
  -47.9850  -65.1970   48.1830 O   0  0  0  0  0  0  0  0  0  0  0  0
  -47.7330  -66.3680   46.1330 N   0  0  0  0  0  0  0  0  0  0  0  0
  -47.2270  -65.9930   44.8140 C   0  0  0  0  0  0  0  0  0  0  0  0
  -46.1620  -65.0280   45.1610 C   0  0  0  0  0  0  0  0  0  0  0  0
  -45.1530  -64.7450   44.4190 O   0  0  0  0  0  0  0  0  0  0  0  0
  -45.4640  -66.1360   53.3710 C   0  0  0  0  0  0  0  0  0  0  0  0
  -44.9480  -67.4860   53.7920 C   0  0  0  0  0  0  0  0  0  0  0  0
  -43.5710  -67.5820   53.7020 O   0  0  0  0  0  0  0  0  0  0  0  0
  -42.9170  -66.6100   54.4390 C   0  0  0  0  0  0  0  0  0  0  0  0
  -43.3440  -65.2110   54.0510 C   0  0  0  0  0  0  0  0  0  0  0  0
  -40.4480  -63.5970   49.7660 H   0  0  0  0  0  0  0  0  0  0  0  0
  -42.1130  -68.0530   51.1210 H   0  0  0  0  0  0  0  0  0  0  0  0
  -39.9980  -67.8470   49.8130 H   0  0  0  0  0  0  0  0  0  0  0  0
  -44.5530  -63.2940   53.1530 H   0  0  0  0  0  0  0  0  0  0  0  0
  -45.8400  -64.0430   52.1940 H   0  0  0  0  0  0  0  0  0  0  0  0
  -42.3020  -62.5990   50.3370 H   0  0  0  0  0  0  0  0  0  0  0  0
  -42.1740  -63.0270   52.0440 H   0  0  0  0  0  0  0  0  0  0  0  0
  -43.1190  -62.5350   48.8750 H   0  0  0  0  0  0  0  0  0  0  0  0
  -44.5780  -61.5770   48.6540 H   0  0  0  0  0  0  0  0  0  0  0  0
  -44.3190  -64.4810   47.7970 H   0  0  0  0  0  0  0  0  0  0  0  0
  -43.7420  -63.1680   46.7830 H   0  0  0  0  0  0  0  0  0  0  0  0
  -46.5610  -62.9140   47.8380 H   0  0  0  0  0  0  0  0  0  0  0  0
  -45.9970  -62.5160   46.2230 H   0  0  0  0  0  0  0  0  0  0  0  0
  -48.2200  -67.2650   46.3270 H   0  0  0  0  0  0  0  0  0  0  0  0
  -47.9990  -65.4530   44.2370 H   0  0  0  0  0  0  0  0  0  0  0  0
  -46.8210  -66.8730   44.2750 H   0  0  0  0  0  0  0  0  0  0  0  0
  -46.2720  -66.1820   52.6370 H   0  0  0  0  0  0  0  0  0  0  0  0
  -45.7890  -65.5670   54.2680 H   0  0  0  0  0  0  0  0  0  0  0  0
  -45.2750  -67.7650   54.8220 H   0  0  0  0  0  0  0  0  0  0  0  0
  -45.3880  -68.2410   53.1090 H   0  0  0  0  0  0  0  0  0  0  0  0
  -42.9850  -66.7710   55.5380 H   0  0  0  0  0  0  0  0  0  0  0  0
  -41.8210  -66.7050   54.1920 H   0  0  0  0  0  0  0  0  0  0  0  0
  -43.9840  -64.8290   54.8870 H   0  0  0  0  0  0  0  0  0  0  0  0
  -42.5030  -64.5430   53.8700 H   0  0  0  0  0  0  0  0  0  0  0  0
  1  2  1  0  0  0  0
  2  3  2  0  0  0  0
  2  7  1  0  0  0  0
  3  4  1  0  0  0  0
  4 12  1  0  0  0  0
  4  5  2  0  0  0  0
  5  8  1  0  0  0  0
  6 31  1  0  0  0  0
  6  5  1  0  0  0  0
  7  6  2  0  0  0  0
  8  9  1  0  0  0  0
  9 25  1  0  0  0  0
  9 29  1  0  0  0  0
 10  9  1  0  0  0  0
 10 33  1  0  0  0  0
 11 10  1  0  0  0  0
 12 11  1  0  0  0  0
 12 36  1  0  0  0  0
 13 14  2  0  0  0  0
 13 11  1  0  0  0  0
 15 37  1  0  0  0  0
 15 13  1  0  0  0  0
 16 39  1  0  0  0  0
 16 15  1  0  0  0  0
 17 16  1  0  0  0  0
 17 41  1  0  0  0  0
 18 17  1  0  0  0  0
 18 19  1  0  0  0  0
 19 20  2  0  0  0  0
 21 43  1  0  0  0  0
 21 19  1  0  0  0  0
 22 23  1  0  0  0  0
 22 21  1  0  0  0  0
 23 18  1  0  0  0  0
 24 23  2  0  0  0  0
 25 26  1  0  0  0  0
 25 47  1  0  0  0  0
 26 48  1  0  0  0  0
 27 26  1  0  0  0  0
 27 28  1  0  0  0  0
 28 50  1  0  0  0  0
 29 28  1  0  0  0  0
 29 52  1  0  0  0  0
 30  3  1  0  0  0  0
 32  7  1  0  0  0  0
 34 10  1  0  0  0  0
 35 12  1  0  0  0  0
 38 15  1  0  0  0  0
 40 16  1  0  0  0  0
 42 17  1  0  0  0  0
 44 22  1  0  0  0  0
 45 22  1  0  0  0  0
 46 25  1  0  0  0  0
 49 26  1  0  0  0  0
 51 28  1  0  0  0  0
 53 29  1  0  0  0  0
M  END
>  <Pose>
1

>  <Score>
-5.40

$$$$
