
 OpenBabel03202209423D

 55 58  0  0  1  0  0  0  0  0999 V2000
  -39.3180  -65.4930   48.2780 B   0  0  0  0  0  0  0  0  0  0  0  0
  -40.4150  -65.5220   49.8440 C   0  0  0  0  0  0  0  0  0  0  0  0
  -40.1460  -64.6190   50.8310 C   0  0  0  0  0  0  0  0  0  0  0  0
  -40.9070  -64.6110   51.9620 C   0  0  0  0  0  0  0  0  0  0  0  0
  -41.9610  -65.4750   52.1890 C   0  0  0  0  0  0  0  0  0  0  0  0
  -42.2120  -66.3770   51.1770 C   0  0  0  0  0  0  0  0  0  0  0  0
  -41.4520  -66.4100   50.0090 C   0  0  0  0  0  0  0  0  0  0  0  0
  -42.7050  -65.3840   53.4340 C   0  0  2  0  0  0  0  0  0  0  0  0
  -42.4790  -66.4530   54.3600 N   0  0  0  0  0  0  0  0  0  0  0  0
  -43.6320  -67.2730   54.4700 C   0  0  0  0  0  0  0  0  0  0  0  0
  -43.7900  -68.3890   55.0210 O   0  0  0  0  0  0  0  0  0  0  0  0
  -44.7520  -66.5880   53.7850 C   0  0  0  0  0  0  0  0  0  0  0  0
  -45.9330  -67.0030   53.6700 O   0  0  0  0  0  0  0  0  0  0  0  0
  -44.1860  -65.3500   53.2840 C   0  0  0  0  0  0  0  0  0  0  0  0
  -44.9310  -64.3710   52.7570 C   0  0  0  0  0  0  0  0  0  0  0  0
  -44.1970  -63.2690   52.3000 O   0  0  0  0  0  0  0  0  0  0  0  0
  -46.3860  -64.4280   52.6630 C   0  0  0  0  0  0  0  0  0  0  0  0
  -47.3010  -63.9450   53.4310 O   0  0  0  0  0  0  0  0  0  0  0  0
  -48.5180  -64.1900   53.0460 C   0  0  0  0  0  0  0  0  0  0  0  0
  -48.4470  -64.9300   51.8750 C   0  0  0  0  0  0  0  0  0  0  0  0
  -47.0750  -65.0680   51.6520 C   0  0  0  0  0  0  0  0  0  0  0  0
  -49.6040  -65.3280   51.2490 C   0  0  0  0  0  0  0  0  0  0  0  0
  -50.8350  -65.0030   51.7690 C   0  0  0  0  0  0  0  0  0  0  0  0
  -50.9160  -64.2620   52.9410 C   0  0  0  0  0  0  0  0  0  0  0  0
  -49.7660  -63.8720   53.5520 C   0  0  0  0  0  0  0  0  0  0  0  0
  -49.8110  -63.1360   54.7170 O   0  0  0  0  0  0  0  0  0  0  0  0
  -50.6300  -61.9910   54.9160 C   0  0  0  0  0  0  0  0  0  0  0  0
  -41.2660  -66.6940   55.0940 C   0  0  0  0  0  0  0  0  0  0  0  0
  -40.2180  -67.3720   54.2310 C   0  0  0  0  0  0  0  0  0  0  0  0
  -40.2330  -68.7910   54.3230 N   0  0  0  0  0  4  0  0  0  0  0  0
  -40.8470  -69.3350   55.4950 C   0  0  0  0  0  0  0  0  0  0  0  0
  -40.8030  -69.3860   53.1220 C   0  0  0  0  0  0  0  0  0  0  0  0
  -39.3260  -63.8970   50.7310 H   0  0  0  0  0  0  0  0  0  0  0  0
  -40.6500  -63.8670   52.7290 H   0  0  0  0  0  0  0  0  0  0  0  0
  -43.0100  -67.0660   51.2990 H   0  0  0  0  0  0  0  0  0  0  0  0
  -41.6700  -67.1190   49.2410 H   0  0  0  0  0  0  0  0  0  0  0  0
  -42.3480  -64.4580   53.9820 H   0  0  0  0  0  0  0  0  0  0  0  0
  -46.6700  -65.6020   50.8050 H   0  0  0  0  0  0  0  0  0  0  0  0
  -49.5560  -65.9040   50.3400 H   0  0  0  0  0  0  0  0  0  0  0  0
  -51.7630  -65.2970   51.3120 H   0  0  0  0  0  0  0  0  0  0  0  0
  -51.9140  -64.0170   53.3310 H   0  0  0  0  0  0  0  0  0  0  0  0
  -50.8510  -61.9240   56.0160 H   0  0  0  0  0  0  0  0  0  0  0  0
  -50.0510  -61.1220   54.5760 H   0  0  0  0  0  0  0  0  0  0  0  0
  -51.5920  -62.0400   54.4020 H   0  0  0  0  0  0  0  0  0  0  0  0
  -41.4440  -67.2750   56.0210 H   0  0  0  0  0  0  0  0  0  0  0  0
  -40.8300  -65.7270   55.4230 H   0  0  0  0  0  0  0  0  0  0  0  0
  -39.2120  -66.9570   54.5040 H   0  0  0  0  0  0  0  0  0  0  0  0
  -40.3400  -67.0930   53.1530 H   0  0  0  0  0  0  0  0  0  0  0  0
  -39.2200  -69.1150   54.3450 H   0  0  0  0  0  0  0  0  0  0  0  0
  -40.2150  -69.1090   56.3810 H   0  0  0  0  0  0  0  0  0  0  0  0
  -41.9000  -69.0590   55.6320 H   0  0  0  0  0  0  0  0  0  0  0  0
  -40.8250  -70.4500   55.3760 H   0  0  0  0  0  0  0  0  0  0  0  0
  -41.8980  -69.3900   53.1980 H   0  0  0  0  0  0  0  0  0  0  0  0
  -40.5480  -68.7750   52.2340 H   0  0  0  0  0  0  0  0  0  0  0  0
  -40.3990  -70.4100   53.0220 H   0  0  0  0  0  0  0  0  0  0  0  0
  1  2  1  0  0  0  0
  2  7  2  0  0  0  0
  2  3  1  0  0  0  0
  3  4  2  0  0  0  0
  4  5  1  0  0  0  0
  4 34  1  0  0  0  0
  5  8  1  0  0  0  0
  6 35  1  0  0  0  0
  6  5  2  0  0  0  0
  7  6  1  0  0  0  0
  8 37  1  1  0  0  0
  8  9  1  0  0  0  0
  9 10  1  0  0  0  0
  9 28  1  0  0  0  0
 10 11  2  0  0  0  0
 12 10  1  0  0  0  0
 13 12  2  0  0  0  0
 14  8  1  0  0  0  0
 14 12  1  0  0  0  0
 15 14  2  0  0  0  0
 16 15  1  0  0  0  0
 17 15  1  0  0  0  0
 17 18  1  0  0  0  0
 19 18  1  0  0  0  0
 19 25  1  0  0  0  0
 20 19  2  0  0  0  0
 21 20  1  0  0  0  0
 21 17  2  0  0  0  0
 22 23  2  0  0  0  0
 22 20  1  0  0  0  0
 23 24  1  0  0  0  0
 24 41  1  0  0  0  0
 24 25  2  0  0  0  0
 25 26  1  0  0  0  0
 26 27  1  0  0  0  0
 27 42  1  0  0  0  0
 28 46  1  0  0  0  0
 28 45  1  0  0  0  0
 29 30  1  0  0  0  0
 29 47  1  0  0  0  0
 29 28  1  0  0  0  0
 30 49  1  0  0  0  0
 30 31  1  0  0  0  0
 31 51  1  0  0  0  0
 31 50  1  0  0  0  0
 32 53  1  0  0  0  0
 32 30  1  0  0  0  0
 33  3  1  0  0  0  0
 36  7  1  0  0  0  0
 38 21  1  0  0  0  0
 39 22  1  0  0  0  0
 40 23  1  0  0  0  0
 43 27  1  0  0  0  0
 44 27  1  0  0  0  0
 48 29  1  0  0  0  0
 52 31  1  0  0  0  0
 54 32  1  0  0  0  0
 55 32  1  0  0  0  0
M  END
>  <Pose>
1

>  <Score>
-5.82

$$$$
