
 OpenBabel03202209423D

 53 56  0  0  1  0  0  0  0  0999 V2000
  -40.4540  -62.9990   46.6800 S   0  0  0  0  0  0  0  0  0  0  0  0
  -39.2430  -62.1560   46.3260 O   0  0  0  0  0  0  0  0  0  0  0  0
  -41.0310  -63.4530   45.3550 O   0  0  0  0  0  0  0  0  0  0  0  0
  -39.9730  -64.2390   47.6700 N   0  0  0  0  0  0  0  0  0  0  0  0
  -40.4470  -65.5380   47.5190 C   0  0  0  0  0  0  0  0  0  0  0  0
  -39.9790  -66.3820   48.7120 C   0  0  0  0  0  0  0  0  0  0  0  0
  -40.0900  -65.5920   49.9400 N   0  0  0  0  0  0  0  0  0  0  0  0
  -39.3550  -64.3430   49.9650 C   0  0  0  0  0  0  0  0  0  0  0  0
  -38.8710  -64.1010   48.5270 C   0  0  0  0  0  0  0  0  0  0  0  0
  -40.8980  -66.0500   51.0180 C   0  0  0  0  0  0  0  0  0  0  0  0
  -40.3720  -66.8320   51.8440 O   0  0  0  0  0  0  0  0  0  0  0  0
  -42.2900  -65.6180   51.1450 C   0  0  0  0  0  0  0  0  0  0  0  0
  -42.6980  -65.2450   52.5630 C   0  0  2  0  0  0  0  0  0  0  0  0
  -42.9240  -66.3820   53.4150 N   0  0  0  0  0  0  0  0  0  0  0  0
  -44.1020  -66.9260   53.9940 C   0  0  0  0  0  0  0  0  0  0  0  0
  -44.0210  -67.6710   55.0060 O   0  0  0  0  0  0  0  0  0  0  0  0
  -45.4950  -66.7180   53.5410 C   0  0  0  0  0  0  0  0  0  0  0  0
  -45.9860  -65.6300   52.8120 C   0  0  0  0  0  0  0  0  0  0  0  0
  -47.3060  -65.5940   52.4630 C   0  0  0  0  0  0  0  0  0  0  0  0
  -48.2020  -66.6100   52.8020 C   0  0  0  0  0  0  0  0  0  0  0  0
  -47.6820  -67.6820   53.5280 C   0  0  0  0  0  0  0  0  0  0  0  0
  -46.3530  -67.7300   53.8880 C   0  0  0  0  0  0  0  0  0  0  0  0
  -45.2290  -64.5110   52.3760 N   0  0  0  0  0  0  0  0  0  0  0  0
  -43.8220  -64.2860   52.5110 C   0  0  0  0  0  0  0  0  0  0  0  0
  -43.5350  -63.0390   52.5970 O   0  0  0  0  0  0  0  0  0  0  0  0
  -41.6230  -61.9010   47.4220 C   0  0  0  0  0  0  0  0  0  0  0  0
  -42.9030  -62.3060   47.7210 C   0  0  0  0  0  0  0  0  0  0  0  0
  -43.7800  -61.4110   48.2950 C   0  0  0  0  0  0  0  0  0  0  0  0
  -43.4420  -60.1040   48.5940 C   0  0  0  0  0  0  0  0  0  0  0  0
  -42.1480  -59.6980   48.2910 C   0  0  0  0  0  0  0  0  0  0  0  0
  -41.2760  -60.5950   47.7170 C   0  0  0  0  0  0  0  0  0  0  0  0
  -44.5380  -58.9740   49.3170 Cl  0  0  0  0  0  0  0  0  0  0  0  0
  -40.0770  -66.0720   46.5930 H   0  0  0  0  0  0  0  0  0  0  0  0
  -41.5570  -65.6510   47.5300 H   0  0  0  0  0  0  0  0  0  0  0  0
  -38.9200  -66.6660   48.6010 H   0  0  0  0  0  0  0  0  0  0  0  0
  -40.5610  -67.3180   48.7930 H   0  0  0  0  0  0  0  0  0  0  0  0
  -40.0270  -63.4810   50.1820 H   0  0  0  0  0  0  0  0  0  0  0  0
  -38.4890  -64.3920   50.6220 H   0  0  0  0  0  0  0  0  0  0  0  0
  -38.0700  -64.8750   48.3360 H   0  0  0  0  0  0  0  0  0  0  0  0
  -38.3580  -63.1100   48.4640 H   0  0  0  0  0  0  0  0  0  0  0  0
  -42.4580  -64.6650   50.5480 H   0  0  0  0  0  0  0  0  0  0  0  0
  -43.0020  -66.3500   50.7180 H   0  0  0  0  0  0  0  0  0  0  0  0
  -41.8100  -64.6850   52.9910 H   0  0  0  0  0  0  0  0  0  0  0  0
  -42.0700  -66.9600   53.6910 H   0  0  0  0  0  0  0  0  0  0  0  0
  -47.6790  -64.7570   51.9060 H   0  0  0  0  0  0  0  0  0  0  0  0
  -49.2350  -66.5720   52.5220 H   0  0  0  0  0  0  0  0  0  0  0  0
  -48.3800  -68.4650   53.7860 H   0  0  0  0  0  0  0  0  0  0  0  0
  -45.9500  -68.5550   54.4480 H   0  0  0  0  0  0  0  0  0  0  0  0
  -45.7670  -63.7830   51.9060 H   0  0  0  0  0  0  0  0  0  0  0  0
  -43.2450  -63.3010   47.5240 H   0  0  0  0  0  0  0  0  0  0  0  0
  -44.8070  -61.7300   48.5400 H   0  0  0  0  0  0  0  0  0  0  0  0
  -41.8750  -58.6830   48.5160 H   0  0  0  0  0  0  0  0  0  0  0  0
  -40.2840  -60.2450   47.4950 H   0  0  0  0  0  0  0  0  0  0  0  0
  1 26  1  0  0  0  0
  1  4  1  0  0  0  0
  2  1  2  0  0  0  0
  3  1  2  0  0  0  0
  4  9  1  0  0  0  0
  5 34  1  0  0  0  0
  5  4  1  0  0  0  0
  5  6  1  0  0  0  0
  6 36  1  0  0  0  0
  6  7  1  0  0  0  0
  7  8  1  0  0  0  0
  7 10  1  0  0  0  0
  8 37  1  0  0  0  0
  8 38  1  0  0  0  0
  9  8  1  0  0  0  0
 10 12  1  0  0  0  0
 10 11  2  0  0  0  0
 12 13  1  0  0  0  0
 13 43  1  1  0  0  0
 13 14  1  0  0  0  0
 14 44  1  0  0  0  0
 14 15  1  0  0  0  0
 15 16  2  0  0  0  0
 17 22  1  0  0  0  0
 17 15  1  0  0  0  0
 18 17  2  0  0  0  0
 19 20  2  0  0  0  0
 19 18  1  0  0  0  0
 20 21  1  0  0  0  0
 21 47  1  0  0  0  0
 21 22  2  0  0  0  0
 22 48  1  0  0  0  0
 23 24  1  0  0  0  0
 23 18  1  0  0  0  0
 24 13  1  0  0  0  0
 24 25  2  0  0  0  0
 26 31  2  0  0  0  0
 26 27  1  0  0  0  0
 27 28  2  0  0  0  0
 28 51  1  0  0  0  0
 28 29  1  0  0  0  0
 29 32  1  0  0  0  0
 30 52  1  0  0  0  0
 30 29  2  0  0  0  0
 31 30  1  0  0  0  0
 33  5  1  0  0  0  0
 35  6  1  0  0  0  0
 39  9  1  0  0  0  0
 40  9  1  0  0  0  0
 41 12  1  0  0  0  0
 42 12  1  0  0  0  0
 45 19  1  0  0  0  0
 46 20  1  0  0  0  0
 49 23  1  0  0  0  0
 50 27  1  0  0  0  0
 53 31  1  0  0  0  0
M  END
>  <Pose>
1

>  <Score>
-6.50

$$$$
