
 OpenBabel03202209423D

 62 65  0  0  1  0  0  0  0  0999 V2000
  -50.5980  -69.3910   52.0230 S   0  0  0  0  0  0  0  0  0  0  0  0
  -49.6800  -70.0070   50.9880 O   0  0  0  0  0  0  0  0  0  0  0  0
  -51.2320  -70.5620   52.7630 O   0  0  0  0  0  0  0  0  0  0  0  0
  -49.7800  -68.4310   53.1620 N   0  0  0  0  0  0  0  0  0  0  0  0
  -49.6290  -67.0640   52.7910 C   0  0  0  0  0  0  0  0  0  0  0  0
  -48.2590  -66.8780   52.1690 C   0  0  0  0  0  0  0  0  0  0  0  0
  -47.2870  -67.0250   53.2240 N   0  0  0  0  0  0  0  0  0  0  0  0
  -47.6450  -67.9230   54.2580 C   0  0  0  0  0  0  0  0  0  0  0  0
  -48.5650  -68.9890   53.6620 C   0  0  0  0  0  0  0  0  0  0  0  0
  -46.6040  -65.8340   53.5890 C   0  0  0  0  0  0  0  0  0  0  0  0
  -45.8410  -65.3320   52.4150 C   0  0  1  0  0  0  0  0  0  0  0  0
  -46.3680  -64.0450   51.8750 C   0  0  0  0  0  0  0  0  0  0  0  0
  -47.4430  -63.5360   52.2720 O   0  0  0  0  0  0  0  0  0  0  0  0
  -45.5580  -63.4720   50.8990 O   0  0  0  0  0  0  0  0  0  0  0  0
  -44.1910  -63.6380   50.8150 C   0  0  0  0  0  0  0  0  0  0  0  0
  -43.5920  -64.4110   51.7470 C   0  0  0  0  0  0  0  0  0  0  0  0
  -44.4120  -65.0160   52.7750 C   0  0  0  0  0  0  0  0  0  0  0  0
  -43.9800  -65.2690   53.9120 O   0  0  0  0  0  0  0  0  0  0  0  0
  -42.1380  -64.6230   51.7360 C   0  0  0  0  0  0  0  0  0  0  0  0
  -41.6420  -65.3550   50.6450 N   0  0  0  0  0  0  0  0  0  0  0  0
  -40.8430  -66.4890   50.8380 C   0  0  0  0  0  0  0  0  0  0  0  0
  -40.0090  -66.7820   49.5700 C   0  0  0  0  0  0  0  0  0  0  0  0
  -39.4250  -65.5150   49.2110 N   0  0  0  0  0  0  0  0  0  0  0  0
  -40.3790  -64.5360   48.7090 C   0  0  0  0  0  0  0  0  0  0  0  0
  -41.7370  -64.7890   49.3490 C   0  0  0  0  0  0  0  0  0  0  0  0
  -38.0500  -65.2430   49.3470 C   0  0  0  0  0  0  0  0  0  0  0  0
  -37.0930  -66.2120   49.5420 C   0  0  0  0  0  0  0  0  0  0  0  0
  -35.7610  -65.8900   49.6650 C   0  0  0  0  0  0  0  0  0  0  0  0
  -35.3110  -64.5920   49.6000 C   0  0  0  0  0  0  0  0  0  0  0  0
  -36.2410  -63.6040   49.4070 C   0  0  0  0  0  0  0  0  0  0  0  0
  -37.5850  -63.9250   49.2830 C   0  0  0  0  0  0  0  0  0  0  0  0
  -34.5970  -67.1630   49.9110 Cl  0  0  0  0  0  0  0  0  0  0  0  0
  -51.8860  -68.5520   51.1820 C   0  0  0  0  0  0  0  0  0  0  0  0
  -49.5920  -66.4760   53.7560 H   0  0  0  0  0  0  0  0  0  0  0  0
  -50.4500  -66.6570   52.2090 H   0  0  0  0  0  0  0  0  0  0  0  0
  -48.0960  -67.7020   51.4450 H   0  0  0  0  0  0  0  0  0  0  0  0
  -48.1690  -65.9320   51.6320 H   0  0  0  0  0  0  0  0  0  0  0  0
  -48.0780  -67.4590   55.1610 H   0  0  0  0  0  0  0  0  0  0  0  0
  -46.7210  -68.4670   54.5940 H   0  0  0  0  0  0  0  0  0  0  0  0
  -47.9740  -69.4840   52.8480 H   0  0  0  0  0  0  0  0  0  0  0  0
  -48.7640  -69.7940   54.4080 H   0  0  0  0  0  0  0  0  0  0  0  0
  -47.3150  -65.0260   53.8940 H   0  0  0  0  0  0  0  0  0  0  0  0
  -45.9590  -66.0750   54.4650 H   0  0  0  0  0  0  0  0  0  0  0  0
  -45.8410  -66.0690   51.6110 H   0  0  0  0  0  0  0  0  0  0  0  0
  -43.5700  -63.1930   50.0570 H   0  0  0  0  0  0  0  0  0  0  0  0
  -41.8660  -65.0620   52.7400 H   0  0  0  0  0  0  0  0  0  0  0  0
  -41.6520  -63.6010   51.7180 H   0  0  0  0  0  0  0  0  0  0  0  0
  -41.3890  -67.4250   51.0360 H   0  0  0  0  0  0  0  0  0  0  0  0
  -40.0340  -66.2710   51.5930 H   0  0  0  0  0  0  0  0  0  0  0  0
  -39.3220  -67.6090   49.7010 H   0  0  0  0  0  0  0  0  0  0  0  0
  -40.7670  -67.1070   48.8220 H   0  0  0  0  0  0  0  0  0  0  0  0
  -40.0940  -63.5070   48.9370 H   0  0  0  0  0  0  0  0  0  0  0  0
  -40.5090  -64.7420   47.6270 H   0  0  0  0  0  0  0  0  0  0  0  0
  -42.2550  -63.8130   49.4100 H   0  0  0  0  0  0  0  0  0  0  0  0
  -42.3670  -65.4330   48.7020 H   0  0  0  0  0  0  0  0  0  0  0  0
  -37.4360  -67.2550   49.5980 H   0  0  0  0  0  0  0  0  0  0  0  0
  -34.2440  -64.3510   49.7000 H   0  0  0  0  0  0  0  0  0  0  0  0
  -35.9470  -62.5520   49.3460 H   0  0  0  0  0  0  0  0  0  0  0  0
  -38.3330  -63.1530   49.1260 H   0  0  0  0  0  0  0  0  0  0  0  0
  -51.5750  -68.0850   50.2270 H   0  0  0  0  0  0  0  0  0  0  0  0
  -52.7130  -69.2680   50.9030 H   0  0  0  0  0  0  0  0  0  0  0  0
  -52.3770  -67.7580   51.7800 H   0  0  0  0  0  0  0  0  0  0  0  0
  1  3  2  0  0  0  0
  1  4  1  0  0  0  0
  2  1  2  0  0  0  0
  4  9  1  0  0  0  0
  5  4  1  0  0  0  0
  5 34  1  0  0  0  0
  6  5  1  0  0  0  0
  6  7  1  0  0  0  0
  7 10  1  0  0  0  0
  7  8  1  0  0  0  0
  8 39  1  0  0  0  0
  8 38  1  0  0  0  0
  9  8  1  0  0  0  0
  9 41  1  0  0  0  0
 10 42  1  0  0  0  0
 10 43  1  0  0  0  0
 11 44  1  6  0  0  0
 11 17  1  0  0  0  0
 11 10  1  0  0  0  0
 12 13  2  0  0  0  0
 12 11  1  0  0  0  0
 14 12  1  0  0  0  0
 15 14  1  0  0  0  0
 15 16  2  0  0  0  0
 16 17  1  0  0  0  0
 17 18  2  0  0  0  0
 19 16  1  0  0  0  0
 19 46  1  0  0  0  0
 20 21  1  0  0  0  0
 20 19  1  0  0  0  0
 21 48  1  0  0  0  0
 21 49  1  0  0  0  0
 22 50  1  0  0  0  0
 22 21  1  0  0  0  0
 23 26  1  0  0  0  0
 23 22  1  0  0  0  0
 24 52  1  0  0  0  0
 24 23  1  0  0  0  0
 24 25  1  0  0  0  0
 25 54  1  0  0  0  0
 25 20  1  0  0  0  0
 26 27  1  0  0  0  0
 27 56  1  0  0  0  0
 27 28  2  0  0  0  0
 28 32  1  0  0  0  0
 29 28  1  0  0  0  0
 29 57  1  0  0  0  0
 30 29  2  0  0  0  0
 31 26  2  0  0  0  0
 31 30  1  0  0  0  0
 33 62  1  0  0  0  0
 33  1  1  0  0  0  0
 35  5  1  0  0  0  0
 36  6  1  0  0  0  0
 37  6  1  0  0  0  0
 40  9  1  0  0  0  0
 45 15  1  0  0  0  0
 47 19  1  0  0  0  0
 51 22  1  0  0  0  0
 53 24  1  0  0  0  0
 55 25  1  0  0  0  0
 58 30  1  0  0  0  0
 59 31  1  0  0  0  0
 60 33  1  0  0  0  0
 61 33  1  0  0  0  0
M  END
>  <Pose>
1

>  <Score>
-5.71

$$$$
