2


 38 41  0  0  0  0  0  0  0  0999 V2000
   21.3290   10.8032   32.2628 C   0  0  0  0  0  0  0  0  0  0  0  0
   20.3489   11.1119   33.1820 N   0  0  0  0  0  0  0  0  0  0  0  0
   20.0510   12.3630   33.0368 N   0  0  0  0  0  0  0  0  0  0  0  0
   20.8115   12.8958   32.0411 N   0  0  0  0  0  0  0  0  0  0  0  0
   21.6119   11.9558   31.5419 C   0  0  0  0  0  0  0  0  0  0  0  0
   20.6631   14.2774   31.7044 C   0  0  0  0  0  0  0  0  0  0  0  0
   21.5530   15.2384   31.4911 N   0  0  0  0  0  0  0  0  0  0  0  0
   20.9026   16.3115   31.1818 O   0  0  0  0  0  0  0  0  0  0  0  0
   19.6216   16.1141   31.1786 N   0  0  0  0  0  0  0  0  0  0  0  0
   19.3963   14.8474   31.4999 C   0  0  0  0  0  0  0  0  0  0  0  0
   18.1653   14.1545   31.6281 N   0  0  0  0  0  0  0  0  0  0  0  0
   17.5070   14.1270   30.8220 H   0  0  0  0  0  0  0  0  0  0  0  0
   17.8807   13.6572   32.5205 H   0  0  0  0  0  0  0  0  0  0  0  0
   21.4027    8.3420   31.4914 N   0  0  0  0  0  0  0  0  0  0  0  0
   21.8922    9.4798   32.1428 C   0  0  0  0  0  0  0  0  0  0  0  0
   23.0442    9.3334   32.7393 O   0  0  0  0  0  0  0  0  0  0  0  0
   20.5387    8.2862   30.9781 H   0  0  0  0  0  0  0  0  0  0  0  0
   22.9519    6.8173   30.5722 C   0  0  0  0  0  0  0  0  0  0  0  0
   22.2206    7.1618   31.5646 N   0  0  0  0  0  0  0  0  0  0  0  0
   26.7938    3.9892   28.1889 Br  0  0  0  0  0  0  0  0  0  0  0  0
   25.5291    4.2726   29.6057 C   0  0  0  0  0  0  0  0  0  0  0  0
   25.4550    3.3358   30.6187 C   0  0  0  0  0  0  0  0  0  0  0  0
   24.5413    3.5586   31.6257 C   0  0  0  0  0  0  0  0  0  0  0  0
   23.7340    4.6837   31.6084 C   0  0  0  0  0  0  0  0  0  0  0  0
   23.8044    5.6215   30.5988 C   0  0  0  0  0  0  0  0  0  0  0  0
   24.7212    5.3915   29.5943 C   0  0  0  0  0  0  0  0  0  0  0  0
   24.7905    6.3496   28.5664 O   0  0  0  0  0  0  0  0  0  0  0  0
   24.4419    2.2600   33.0259 Br  0  0  0  0  0  0  0  0  0  0  0  0
   26.2847    2.2131   30.6039 O   0  0  0  0  0  0  0  0  0  0  0  0
   25.4484    6.2199   27.8134 H   0  0  0  0  0  0  0  0  0  0  0  0
   22.5933   12.0588   30.4625 C   0  0  0  0  0  0  0  0  0  0  0  0
   23.7627   12.8325   30.6478 N   0  0  0  0  0  0  0  0  0  0  0  0
   24.3367   13.3199   29.4022 C   0  0  0  0  0  0  0  0  0  0  0  0
   24.5275   12.2226   28.4336 C   0  0  0  0  0  0  0  0  0  0  0  0
   24.8269   10.9908   28.8503 O   0  0  0  0  0  0  0  0  0  0  0  0
   24.9009   10.7300   30.1801 C   0  0  0  0  0  0  0  0  0  0  0  0
   24.8294   11.8807   31.0994 C   0  0  0  0  0  0  0  0  0  0  0  0
   23.6620   13.5517   31.3489 H   0  0  0  0  0  0  0  0  0  0  0  0
 20 21  1  0  0  0
 21 22  2  0  0  0
 21 26  1  0  0  0
 22 23  1  0  0  0
 22 29  1  0  0  0
 23 24  2  0  0  0
 23 28  1  0  0  0
 24 25  1  0  0  0
 25 26  2  0  0  0
 25 18  1  0  0  0
 26 27  1  0  0  0
 18 19  2  0  0  0
 19 14  1  0  0  0
 14 15  1  0  0  0
 15 16  2  0  0  0
 15  1  1  0  0  0
  1  2  1  0  0  0
  1  5  2  0  0  0
  2  3  2  0  0  0
  3  4  1  0  0  0
  4  5  1  0  0  0
  4  6  1  0  0  0
  5 31  1  0  0  0
 31 32  1  0  0  0
 32 33  1  0  0  0
 32 37  1  0  0  0
 33 34  1  0  0  0
 34 35  1  0  0  0
 35 36  1  0  0  0
 36 37  1  0  0  0
  6  7  2  0  0  0
  6 10  1  0  0  0
  7  8  1  0  0  0
  8  9  1  0  0  0
  9 10  2  0  0  0
 10 11  1  0  0  0
 27 30  1  0  0  0
 14 17  1  0  0  0
 32 38  1  0  0  0
 11 12  1  0  0  0
 11 13  1  0  0  0
M  CHG 1  29  -1
M  CHG 1  32   1
M  END
> <minimizedAffinity>
-9.01568

$$$$
3


 38 41  0  0  0  0  0  0  0  0999 V2000
   21.5017   10.8758   32.1052 C   0  0  0  0  0  0  0  0  0  0  0  0
   20.6130   10.9896   33.1449 N   0  0  0  0  0  0  0  0  0  0  0  0
   20.0758   12.1779   33.1274 N   0  0  0  0  0  0  0  0  0  0  0  0
   20.5421   12.9040   32.1260 N   0  0  0  0  0  0  0  0  0  0  0  0
   21.4258   12.1250   31.4797 C   0  0  0  0  0  0  0  0  0  0  0  0
   20.1163   14.2242   31.8385 C   0  0  0  0  0  0  0  0  0  0  0  0
   18.9147   14.6627   31.4065 N   0  0  0  0  0  0  0  0  0  0  0  0
   18.9387   15.9626   31.2761 O   0  0  0  0  0  0  0  0  0  0  0  0
   20.1155   16.4322   31.6034 N   0  0  0  0  0  0  0  0  0  0  0  0
   20.8723   15.3804   31.9583 C   0  0  0  0  0  0  0  0  0  0  0  0
   22.2161   15.4752   32.3800 N   0  0  0  0  0  0  0  0  0  0  0  0
   22.4218   15.8936   33.3053 H   0  0  0  0  0  0  0  0  0  0  0  0
   23.0080   15.1426   31.8008 H   0  0  0  0  0  0  0  0  0  0  0  0
   22.3047    8.9193   30.6579 N   0  0  0  0  0  0  0  0  0  0  0  0
   22.2944    9.6981   31.8071 C   0  0  0  0  0  0  0  0  0  0  0  0
   23.0930    9.3399   32.7526 O   0  0  0  0  0  0  0  0  0  0  0  0
   21.7262    9.0527   29.7947 H   0  0  0  0  0  0  0  0  0  0  0  0
   22.7468    6.6256   30.9014 C   0  0  0  0  0  0  0  0  0  0  0  0
   23.2018    7.7977   30.6345 N   0  0  0  0  0  0  0  0  0  0  0  0
   26.4183    3.6969   28.4340 Br  0  0  0  0  0  0  0  0  0  0  0  0
   25.2321    4.0071   29.8782 C   0  0  0  0  0  0  0  0  0  0  0  0
   25.1541    3.1093   30.9024 C   0  0  0  0  0  0  0  0  0  0  0  0
   24.2720    3.3643   31.9492 C   0  0  0  0  0  0  0  0  0  0  0  0
   23.4955    4.5186   31.9285 C   0  0  0  0  0  0  0  0  0  0  0  0
   23.5677    5.4245   30.9043 C   0  0  0  0  0  0  0  0  0  0  0  0
   24.4442    5.1592   29.8758 C   0  0  0  0  0  0  0  0  0  0  0  0
   24.5092    6.0834   28.8445 O   0  0  0  0  0  0  0  0  0  0  0  0
   24.1401    2.1372   33.3880 Br  0  0  0  0  0  0  0  0  0  0  0  0
   25.9194    1.9529   30.9425 O   0  0  0  0  0  0  0  0  0  0  0  0
   25.1380    5.9338   28.0653 H   0  0  0  0  0  0  0  0  0  0  0  0
   25.8426    1.3054   31.7097 H   0  0  0  0  0  0  0  0  0  0  0  0
   22.1874   12.4694   30.2754 C   0  0  0  0  0  0  0  0  0  0  0  0
   23.4191   13.2199   30.5342 N   0  0  0  0  0  0  0  0  0  0  0  0
   24.2511   13.1879   29.3153 C   0  0  0  0  0  0  0  0  0  0  0  0
   24.3204   11.7973   28.7880 C   0  0  0  0  0  0  0  0  0  0  0  0
   24.7483   10.9484   29.7790 O   0  0  0  0  0  0  0  0  0  0  0  0
   25.1946   11.5786   30.9108 C   0  0  0  0  0  0  0  0  0  0  0  0
   24.1913   12.4903   31.5678 C   0  0  0  0  0  0  0  0  0  0  0  0
 20 21  1  0  0  0
 21 22  2  0  0  0
 21 26  1  0  0  0
 22 23  1  0  0  0
 22 29  1  0  0  0
 23 24  2  0  0  0
 23 28  1  0  0  0
 24 25  1  0  0  0
 25 26  2  0  0  0
 25 18  1  0  0  0
 26 27  1  0  0  0
 18 19  2  0  0  0
 19 14  1  0  0  0
 14 15  1  0  0  0
 15 16  2  0  0  0
 15  1  1  0  0  0
  1  2  1  0  0  0
  1  5  2  0  0  0
  2  3  2  0  0  0
  3  4  1  0  0  0
  4  5  1  0  0  0
  4  6  1  0  0  0
  5 32  1  0  0  0
 32 33  1  0  0  0
 33 34  1  0  0  0
 33 38  1  0  0  0
 34 35  1  0  0  0
 35 36  1  0  0  0
 36 37  1  0  0  0
 37 38  1  0  0  0
  6  7  2  0  0  0
  6 10  1  0  0  0
  7  8  1  0  0  0
  8  9  1  0  0  0
  9 10  2  0  0  0
 10 11  1  0  0  0
 27 30  1  0  0  0
 14 17  1  0  0  0
 11 12  1  0  0  0
 11 13  1  0  0  0
 29 31  1  0  0  0
M  END
> <minimizedAffinity>
-9.22757

$$$$
4


 34 37  0  0  0  0  0  0  0  0999 V2000
   22.7583   10.4985   30.5168 C   0  0  0  0  0  0  0  0  0  0  0  0
   22.5950   11.8046   30.7151 N   0  0  0  0  0  0  0  0  0  0  0  0
   21.7188   12.3056   31.6328 C   0  0  0  0  0  0  0  0  0  0  0  0
   21.0250   11.4095   32.3308 N   0  0  0  0  0  0  0  0  0  0  0  0
   21.1293   10.0682   32.1941 C   0  0  0  0  0  0  0  0  0  0  0  0
   22.0287    9.6520   31.2531 N   0  0  0  0  0  0  0  0  0  0  0  0
   20.3740    9.1577   32.9554 N   0  0  0  0  0  0  0  0  0  0  0  0
   20.6559    7.7569   32.9129 C   0  0  0  0  0  0  0  0  0  0  0  0
   19.3344    7.0390   32.6251 C   0  0  0  0  0  0  0  0  0  0  0  0
   18.3001    7.9253   32.4155 O   0  0  0  0  0  0  0  0  0  0  0  0
   18.0751    8.7930   33.4551 C   0  0  0  0  0  0  0  0  0  0  0  0
   19.3078    9.6259   33.7864 C   0  0  0  0  0  0  0  0  0  0  0  0
   21.5609   13.6942   31.8276 N   0  0  0  0  0  0  0  0  0  0  0  0
   20.2775   14.2364   32.1765 C   0  0  0  0  0  0  0  0  0  0  0  0
   20.0344   15.4368   31.2753 C   0  0  0  0  0  0  0  0  0  0  0  0
   21.1409   16.2747   31.2151 O   0  0  0  0  0  0  0  0  0  0  0  0
   22.2614   15.6680   30.6947 C   0  0  0  0  0  0  0  0  0  0  0  0
   22.6881   14.5700   31.6771 C   0  0  0  0  0  0  0  0  0  0  0  0
   23.6825   10.0160   29.5500 N   0  0  0  0  0  0  0  0  0  0  0  0
   24.2053   10.6137   28.9015 H   0  0  0  0  0  0  0  0  0  0  0  0
   24.7029    8.0011   30.2357 C   0  0  0  0  0  0  0  0  0  0  0  0
   23.9152    8.6299   29.4564 N   0  0  0  0  0  0  0  0  0  0  0  0
   26.9493    3.8404   27.6765 Br  0  0  0  0  0  0  0  0  0  0  0  0
   25.9307    4.6363   29.0837 C   0  0  0  0  0  0  0  0  0  0  0  0
   25.4262    3.8014   30.0614 C   0  0  0  0  0  0  0  0  0  0  0  0
   24.6909    4.3701   31.0783 C   0  0  0  0  0  0  0  0  0  0  0  0
   24.4613    5.7335   31.1279 C   0  0  0  0  0  0  0  0  0  0  0  0
   24.9595    6.5724   30.1594 C   0  0  0  0  0  0  0  0  0  0  0  0
   25.6954    6.0014   29.1419 C   0  0  0  0  0  0  0  0  0  0  0  0
   26.2044    6.8212   28.1628 O   0  0  0  0  0  0  0  0  0  0  0  0
   23.9847    3.2233   32.4398 Br  0  0  0  0  0  0  0  0  0  0  0  0
   25.6670    2.4308   29.9951 O   0  0  0  0  0  0  0  0  0  0  0  0
   26.7554    6.4349   27.3906 H   0  0  0  0  0  0  0  0  0  0  0  0
   25.2968    1.8273   30.7103 H   0  0  0  0  0  0  0  0  0  0  0  0
 23 24  1  0  0  0
 24 25  2  0  0  0
 24 29  1  0  0  0
 25 26  1  0  0  0
 25 32  1  0  0  0
 26 27  2  0  0  0
 26 31  1  0  0  0
 27 28  1  0  0  0
 28 29  2  0  0  0
 28 21  1  0  0  0
 29 30  1  0  0  0
 21 22  2  0  0  0
 22 19  1  0  0  0
 19  1  1  0  0  0
  1  2  2  0  0  0
  1  6  1  0  0  0
  2  3  1  0  0  0
  3  4  2  0  0  0
  3 13  1  0  0  0
  4  5  1  0  0  0
  5  6  2  0  0  0
  5  7  1  0  0  0
  7  8  1  0  0  0
  7 12  1  0  0  0
  8  9  1  0  0  0
  9 10  1  0  0  0
 10 11  1  0  0  0
 11 12  1  0  0  0
 13 14  1  0  0  0
 13 18  1  0  0  0
 14 15  1  0  0  0
 15 16  1  0  0  0
 16 17  1  0  0  0
 17 18  1  0  0  0
 30 33  1  0  0  0
 19 20  1  0  0  0
 32 34  1  0  0  0
M  END
> <minimizedAffinity>
-9.60108

$$$$
5


 38 41  0  0  0  0  0  0  0  0999 V2000
   23.9185   15.1370   28.9291 N   0  0  0  0  0  0  0  0  0  0  0  0
   23.2754   16.2920   28.6119 C   0  0  0  0  0  0  0  0  0  0  0  0
   23.7511   16.7671   27.4189 C   0  0  0  0  0  0  0  0  0  0  0  0
   24.6632   15.8971   27.0367 N   0  0  0  0  0  0  0  0  0  0  0  0
   24.7906   14.8829   27.9353 C   0  0  0  0  0  0  0  0  0  0  0  0
   23.3030   17.9068   26.8077 N   0  0  0  0  0  0  0  0  0  0  0  0
   22.3327   18.5810   27.4371 C   0  0  0  0  0  0  0  0  0  0  0  0
   21.9217   19.6330   26.8708 O   0  0  0  0  0  0  0  0  0  0  0  0
   21.8281   18.1536   28.6105 N   0  0  0  0  0  0  0  0  0  0  0  0
   22.2585   17.0381   29.2215 C   0  0  0  0  0  0  0  0  0  0  0  0
   21.7217   16.6204   30.4175 O   0  0  0  0  0  0  0  0  0  0  0  0
   23.8905   18.3223   25.5415 C   0  0  0  0  0  0  0  0  0  0  0  0
   25.6371   13.7450   27.6900 N   0  0  0  0  0  0  0  0  0  0  0  0
   25.4713   12.4274   28.1702 C   0  0  0  0  0  0  0  0  0  0  0  0
   26.5954   11.5543   27.5480 C   0  0  0  0  0  0  0  0  0  0  0  0
   27.8270   12.1244   28.0591 N   0  0  0  0  0  0  0  0  0  0  0  0
   28.0404   13.2950   27.1869 C   0  0  0  0  0  0  0  0  0  0  0  0
   26.7851   13.9691   26.8013 C   0  0  0  0  0  0  0  0  0  0  0  0
   27.7438   12.5079   29.0245 H   0  0  0  0  0  0  0  0  0  0  0  0
   28.9395   11.2058   27.9218 C   0  0  0  0  0  0  0  0  0  0  0  0
   29.5360   10.9553   29.2893 C   0  0  0  0  0  0  0  0  0  0  0  0
   29.6110   12.1686   29.9846 O   0  0  0  0  0  0  0  0  0  0  0  0
   30.5552   12.3821   30.2215 H   0  0  0  0  0  0  0  0  0  0  0  0
   23.6937   14.3547   30.0919 C   0  0  0  0  0  0  0  0  0  0  0  0
   22.6326   13.3651   30.1772 C   0  0  0  0  0  0  0  0  0  0  0  0
   21.8257   13.1419   29.0473 O   0  0  0  0  0  0  0  0  0  0  0  0
   22.3306   12.7619   28.3061 H   0  0  0  0  0  0  0  0  0  0  0  0
   21.7752   13.1277   31.3467 C   0  0  0  0  0  0  0  0  0  0  0  0
   22.1801   11.9444   32.0315 O   0  0  0  0  0  0  0  0  0  0  0  0
   23.4005    9.5672   30.6838 Br  0  0  0  0  0  0  0  0  0  0  0  0
   21.8015    9.6184   31.7344 C   0  0  0  0  0  0  0  0  0  0  0  0
   21.4176   10.8558   32.2740 C   0  0  0  0  0  0  0  0  0  0  0  0
   20.2813   10.8759   33.0165 C   0  0  0  0  0  0  0  0  0  0  0  0
   19.5171    9.7248   33.2448 C   0  0  0  0  0  0  0  0  0  0  0  0
   19.9147    8.5234   32.7053 C   0  0  0  0  0  0  0  0  0  0  0  0
   21.0652    8.4812   31.9472 C   0  0  0  0  0  0  0  0  0  0  0  0
   18.9566    6.8947   32.9467 Br  0  0  0  0  0  0  0  0  0  0  0  0
   19.6485   12.4774   33.7780 Br  0  0  0  0  0  0  0  0  0  0  0  0
 30 31  1  0  0  0
 31 32  2  0  0  0
 31 36  1  0  0  0
 32 33  1  0  0  0
 32 29  1  0  0  0
 33 34  2  0  0  0
 33 38  1  0  0  0
 34 35  1  0  0  0
 35 36  2  0  0  0
 35 37  1  0  0  0
 29 28  1  0  0  0
 28 25  1  0  0  0
 25 26  1  0  0  0
 25 24  1  0  0  0
 24  1  1  0  0  0
  1  2  1  0  0  0
  1  5  1  0  0  0
  2  3  2  0  0  0
  2 10  1  0  0  0
  3  4  1  0  0  0
  3  6  1  0  0  0
  4  5  2  0  0  0
  5 13  1  0  0  0
 13 14  1  0  0  0
 13 18  1  0  0  0
 14 15  1  0  0  0
 15 16  1  0  0  0
 16 17  1  0  0  0
 16 20  1  0  0  0
 17 18  1  0  0  0
 20 21  1  0  0  0
 21 22  1  0  0  0
  6  7  1  0  0  0
  6 12  1  0  0  0
  7  8  2  0  0  0
  7  9  1  0  0  0
  9 10  2  0  0  0
 10 11  1  0  0  0
 26 27  1  0  0  0
 16 19  1  0  0  0
 22 23  1  0  0  0
M  CHG 1  11  -1
M  CHG 1  16   1
M  END
> <minimizedAffinity>
-9.38393

$$$$
6


 34 37  0  0  0  0  0  0  0  0999 V2000
   22.1293   12.9890   31.5709 N   0  0  0  0  0  0  0  0  0  0  0  0
   21.4866   11.8909   32.0497 C   0  0  0  0  0  0  0  0  0  0  0  0
   20.4541   12.2689   32.8623 C   0  0  0  0  0  0  0  0  0  0  0  0
   20.4807   13.6109   32.8683 N   0  0  0  0  0  0  0  0  0  0  0  0
   21.5072   14.0559   32.0770 C   0  0  0  0  0  0  0  0  0  0  0  0
   19.6781   11.2902   33.4476 C   0  0  0  0  0  0  0  0  0  0  0  0
   19.9148    9.9418   33.2359 C   0  0  0  0  0  0  0  0  0  0  0  0
   20.9671    9.5898   32.4090 C   0  0  0  0  0  0  0  0  0  0  0  0
   21.7450   10.5674   31.8218 C   0  0  0  0  0  0  0  0  0  0  0  0
   21.8142   15.4648   31.8632 C   0  0  0  0  0  0  0  0  0  0  0  0
   21.3368   16.2238   30.8685 N   0  0  0  0  0  0  0  0  0  0  0  0
   21.8269   17.4444   30.9907 O   0  0  0  0  0  0  0  0  0  0  0  0
   22.6051   17.5131   32.0245 N   0  0  0  0  0  0  0  0  0  0  0  0
   22.6275   16.2925   32.6035 C   0  0  0  0  0  0  0  0  0  0  0  0
   23.3531   15.9248   33.7623 N   0  0  0  0  0  0  0  0  0  0  0  0
   22.8584   16.1577   34.6339 H   0  0  0  0  0  0  0  0  0  0  0  0
   24.2332   16.5097   33.7531 H   0  0  0  0  0  0  0  0  0  0  0  0
   23.6586   14.9168   33.7484 H   0  0  0  0  0  0  0  0  0  0  0  0
   23.2555   13.0254   30.6911 C   0  0  0  0  0  0  0  0  0  0  0  0
   23.9206   10.8323   29.6507 N   0  0  0  0  0  0  0  0  0  0  0  0
   24.0670   11.8341   30.6414 C   0  0  0  0  0  0  0  0  0  0  0  0
   24.9563   11.6471   31.5047 O   0  0  0  0  0  0  0  0  0  0  0  0
   23.1833   10.9774   28.9281 H   0  0  0  0  0  0  0  0  0  0  0  0
   24.2652    8.5232   29.9251 C   0  0  0  0  0  0  0  0  0  0  0  0
   24.6846    9.6796   29.5782 N   0  0  0  0  0  0  0  0  0  0  0  0
   25.3512    3.5743   31.3370 Br  0  0  0  0  0  0  0  0  0  0  0  0
   25.7401    5.1611   30.3722 C   0  0  0  0  0  0  0  0  0  0  0  0
   24.8883    6.2388   30.4921 C   0  0  0  0  0  0  0  0  0  0  0  0
   25.1537    7.3839   29.8063 C   0  0  0  0  0  0  0  0  0  0  0  0
   26.2759    7.4953   28.9776 C   0  0  0  0  0  0  0  0  0  0  0  0
   27.1079    6.4069   28.8769 C   0  0  0  0  0  0  0  0  0  0  0  0
   26.8581    5.2427   29.5602 C   0  0  0  0  0  0  0  0  0  0  0  0
   28.6564    6.5046   27.7577 Br  0  0  0  0  0  0  0  0  0  0  0  0
   23.7741    6.1456   31.3071 O   0  0  0  0  0  0  0  0  0  0  0  0
 26 27  1  0  0  0
 27 28  2  0  0  0
 27 32  1  0  0  0
 28 29  1  0  0  0
 28 34  1  0  0  0
 29 30  2  0  0  0
 29 24  1  0  0  0
 30 31  1  0  0  0
 31 32  2  0  0  0
 31 33  1  0  0  0
 24 25  2  0  0  0
 25 20  1  0  0  0
 20 21  1  0  0  0
 21 22  2  0  0  0
 21 19  1  0  0  0
 19  1  1  0  0  0
  1  2  1  0  0  0
  1  5  1  0  0  0
  2  3  2  0  0  0
  2  9  1  0  0  0
  3  4  1  0  0  0
  3  6  1  0  0  0
  4  5  2  0  0  0
  5 10  1  0  0  0
 10 11  2  0  0  0
 10 14  1  0  0  0
 11 12  1  0  0  0
 12 13  1  0  0  0
 13 14  2  0  0  0
 14 15  1  0  0  0
  6  7  2  0  0  0
  7  8  1  0  0  0
  8  9  2  0  0  0
 20 23  1  0  0  0
 15 16  1  0  0  0
 15 17  1  0  0  0
 15 18  1  0  0  0
M  CHG 1  15   1
M  CHG 1  34  -1
M  END
> <minimizedAffinity>
-9.96809

$$$$
11


 36 39  0  0  0  0  0  0  0  0999 V2000
   23.5381   12.7095   31.5240 C   0  0  0  0  0  0  0  0  0  0  0  0
   22.2514   13.0187   31.9943 N   0  0  0  0  0  0  0  0  0  0  0  0
   21.3976   11.9987   32.3857 C   0  0  0  0  0  0  0  0  0  0  0  0
   20.2411   12.5732   32.7607 C   0  0  0  0  0  0  0  0  0  0  0  0
   20.3873   13.8790   32.6006 N   0  0  0  0  0  0  0  0  0  0  0  0
   21.6543   14.1738   32.1181 C   0  0  0  0  0  0  0  0  0  0  0  0
   19.1526   11.8422   33.2106 C   0  0  0  0  0  0  0  0  0  0  0  0
   19.3097   10.4779   33.2591 C   0  0  0  0  0  0  0  0  0  0  0  0
   20.4763    9.8364   32.8893 C   0  0  0  0  0  0  0  0  0  0  0  0
   21.5384   10.6208   32.4434 C   0  0  0  0  0  0  0  0  0  0  0  0
   21.9399   15.5773   31.8809 C   0  0  0  0  0  0  0  0  0  0  0  0
   21.4092   16.2721   30.7959 N   0  0  0  0  0  0  0  0  0  0  0  0
   21.7830   17.4869   30.8179 O   0  0  0  0  0  0  0  0  0  0  0  0
   22.5313   17.7045   31.8238 N   0  0  0  0  0  0  0  0  0  0  0  0
   22.6538   16.5237   32.5214 C   0  0  0  0  0  0  0  0  0  0  0  0
   23.4066   16.4357   33.7113 N   0  0  0  0  0  0  0  0  0  0  0  0
   23.6599   17.4465   34.0265 H   0  0  0  0  0  0  0  0  0  0  0  0
   24.3226   16.0123   33.5192 H   0  0  0  0  0  0  0  0  0  0  0  0
   22.8462   16.0982   34.4897 H   0  0  0  0  0  0  0  0  0  0  0  0
   23.3308   11.2194   29.6630 N   0  0  0  0  0  0  0  0  0  0  0  0
   23.5665   12.5139   29.9922 C   0  0  0  0  0  0  0  0  0  0  0  0
   23.7960   13.5575   29.3843 O   0  0  0  0  0  0  0  0  0  0  0  0
   23.4318   11.5923   28.3112 H   0  0  0  0  0  0  0  0  0  0  0  0
   22.9354    8.8946   29.1530 C   0  0  0  0  0  0  0  0  0  0  0  0
   23.1161   10.0434   29.3604 N   0  0  0  0  0  0  0  0  0  0  0  0
   25.9130    4.7993   30.7821 Br  0  0  0  0  0  0  0  0  0  0  0  0
   24.2920    5.7866   30.7599 C   0  0  0  0  0  0  0  0  0  0  0  0
   23.1968    5.3395   31.4655 C   0  0  0  0  0  0  0  0  0  0  0  0
   21.9920    6.0814   31.4164 C   0  0  0  0  0  0  0  0  0  0  0  0
   21.9815    7.2162   30.6584 C   0  0  0  0  0  0  0  0  0  0  0  0
   23.0703    7.7069   29.9233 C   0  0  0  0  0  0  0  0  0  0  0  0
   24.2143    6.9447   30.0111 C   0  0  0  0  0  0  0  0  0  0  0  0
   23.2005    4.2030   32.2210 O   0  0  0  0  0  0  0  0  0  0  0  0
   20.9087    5.6077   32.1323 O   0  0  0  0  0  0  0  0  0  0  0  0
   20.1468    6.4089   32.9690 C   0  0  0  0  0  0  0  0  0  0  0  0
   18.8116    6.8446   32.4349 C   0  0  0  0  0  0  0  0  0  0  0  0
 26 27  1  0  0  0
 27 28  2  0  0  0
 27 32  1  0  0  0
 28 29  1  0  0  0
 28 33  1  0  0  0
 29 30  2  0  0  0
 29 34  1  0  0  0
 30 31  1  0  0  0
 31 32  2  0  0  0
 31 24  1  0  0  0
 24 25  2  0  0  0
 25 20  1  0  0  0
 20 21  1  0  0  0
 21 22  2  0  0  0
 21  1  1  0  0  0
  1  2  1  0  0  0
  2  3  1  0  0  0
  2  6  1  0  0  0
  3  4  2  0  0  0
  3 10  1  0  0  0
  4  5  1  0  0  0
  4  7  1  0  0  0
  5  6  2  0  0  0
  6 11  1  0  0  0
 11 12  2  0  0  0
 11 15  1  0  0  0
 12 13  1  0  0  0
 13 14  1  0  0  0
 14 15  2  0  0  0
 15 16  1  0  0  0
  7  8  2  0  0  0
  8  9  1  0  0  0
  9 10  2  0  0  0
 34 35  1  0  0  0
 35 36  1  0  0  0
 20 23  1  0  0  0
 16 17  1  0  0  0
 16 18  1  0  0  0
 16 19  1  0  0  0
M  CHG 1  16   1
M  CHG 1  33  -1
M  END
> <minimizedAffinity>
-9.96024

$$$$
17


 38 41  0  0  0  0  0  0  0  0999 V2000
   24.4371   13.4383   28.8105 C   0  0  0  0  0  0  0  0  0  0  0  0
   25.3492   13.9538   27.9761 N   0  0  0  0  0  0  0  0  0  0  0  0
   25.0063   15.1760   27.6511 N   0  0  0  0  0  0  0  0  0  0  0  0
   23.8553   15.5225   28.2553 N   0  0  0  0  0  0  0  0  0  0  0  0
   23.4849   14.4616   28.9782 C   0  0  0  0  0  0  0  0  0  0  0  0
   23.2260   16.7949   28.0692 C   0  0  0  0  0  0  0  0  0  0  0  0
   22.4988   17.5127   28.9399 N   0  0  0  0  0  0  0  0  0  0  0  0
   22.1141   18.6264   28.3635 O   0  0  0  0  0  0  0  0  0  0  0  0
   22.5591   18.6813   27.1310 N   0  0  0  0  0  0  0  0  0  0  0  0
   23.2566   17.5502   26.9219 C   0  0  0  0  0  0  0  0  0  0  0  0
   23.9009   17.2451   25.6950 N   0  0  0  0  0  0  0  0  0  0  0  0
   23.4324   16.7764   24.8928 H   0  0  0  0  0  0  0  0  0  0  0  0
   24.9130   17.4904   25.5432 H   0  0  0  0  0  0  0  0  0  0  0  0
   23.7079   11.0388   28.8369 N   0  0  0  0  0  0  0  0  0  0  0  0
   24.4037   12.1181   29.4260 C   0  0  0  0  0  0  0  0  0  0  0  0
   25.0058   11.9364   30.5024 O   0  0  0  0  0  0  0  0  0  0  0  0
   23.2008   11.2104   27.9212 H   0  0  0  0  0  0  0  0  0  0  0  0
   22.5607    9.1587   29.6926 C   0  0  0  0  0  0  0  0  0  0  0  0
   23.6366    9.7725   29.3627 N   0  0  0  0  0  0  0  0  0  0  0  0
   25.1762    4.6043   29.8681 Br  0  0  0  0  0  0  0  0  0  0  0  0
   23.7113    5.7112   30.3784 C   0  0  0  0  0  0  0  0  0  0  0  0
   22.7154    5.2539   31.2339 C   0  0  0  0  0  0  0  0  0  0  0  0
   21.6547    6.0477   31.6062 C   0  0  0  0  0  0  0  0  0  0  0  0
   21.6082    7.3243   31.0991 C   0  0  0  0  0  0  0  0  0  0  0  0
   22.5832    7.8135   30.2440 C   0  0  0  0  0  0  0  0  0  0  0  0
   23.6273    6.9847   29.8978 C   0  0  0  0  0  0  0  0  0  0  0  0
   22.8150    3.9517   31.7152 O   0  0  0  0  0  0  0  0  0  0  0  0
   22.1045    3.5907   32.3405 H   0  0  0  0  0  0  0  0  0  0  0  0
   20.7067    5.5289   32.4553 O   0  0  0  0  0  0  0  0  0  0  0  0
   19.8918    6.2359   33.3318 C   0  0  0  0  0  0  0  0  0  0  0  0
   18.6717    6.8395   32.7145 C   0  0  0  0  0  0  0  0  0  0  0  0
   22.2928   14.2815   29.8087 C   0  0  0  0  0  0  0  0  0  0  0  0
   22.4940   14.2075   31.2336 N   0  0  0  0  0  0  0  0  0  0  0  0
   21.9283   15.4598   31.7513 C   0  0  0  0  0  0  0  0  0  0  0  0
   20.4866   15.6477   31.4917 C   0  0  0  0  0  0  0  0  0  0  0  0
   19.8095   14.4381   31.4871 O   0  0  0  0  0  0  0  0  0  0  0  0
   20.4227   13.5945   32.3879 C   0  0  0  0  0  0  0  0  0  0  0  0
   21.7167   13.0920   31.7782 C   0  0  0  0  0  0  0  0  0  0  0  0
 20 21  1  0  0  0
 21 22  2  0  0  0
 21 26  1  0  0  0
 22 23  1  0  0  0
 22 27  1  0  0  0
 23 24  2  0  0  0
 23 29  1  0  0  0
 24 25  1  0  0  0
 25 26  2  0  0  0
 25 18  1  0  0  0
 18 19  2  0  0  0
 19 14  1  0  0  0
 14 15  1  0  0  0
 15 16  2  0  0  0
 15  1  1  0  0  0
  1  2  1  0  0  0
  1  5  2  0  0  0
  2  3  2  0  0  0
  3  4  1  0  0  0
  4  5  1  0  0  0
  4  6  1  0  0  0
  5 32  1  0  0  0
 32 33  1  0  0  0
 33 34  1  0  0  0
 33 38  1  0  0  0
 34 35  1  0  0  0
 35 36  1  0  0  0
 36 37  1  0  0  0
 37 38  1  0  0  0
  6  7  2  0  0  0
  6 10  1  0  0  0
  7  8  1  0  0  0
  8  9  1  0  0  0
  9 10  2  0  0  0
 10 11  1  0  0  0
 29 30  1  0  0  0
 30 31  1  0  0  0
 14 17  1  0  0  0
 11 12  1  0  0  0
 11 13  1  0  0  0
 27 28  1  0  0  0
M  END
> <minimizedAffinity>
-9.78716

$$$$
18


 37 40  0  0  0  0  0  0  0  0999 V2000
   24.4052   12.8617   29.3192 C   0  0  0  0  0  0  0  0  0  0  0  0
   24.9282   13.3881   28.2684 N   0  0  0  0  0  0  0  0  0  0  0  0
   24.3683   14.5606   28.0237 N   0  0  0  0  0  0  0  0  0  0  0  0
   23.4462   14.7927   28.9469 N   0  0  0  0  0  0  0  0  0  0  0  0
   23.3545   13.7951   29.8147 C   0  0  0  0  0  0  0  0  0  0  0  0
   22.9796   16.1433   29.1851 C   0  0  0  0  0  0  0  0  0  0  0  0
   22.5018   16.7491   30.1904 N   0  0  0  0  0  0  0  0  0  0  0  0
   22.1577   18.0070   29.9116 O   0  0  0  0  0  0  0  0  0  0  0  0
   22.4383   18.1911   28.6724 N   0  0  0  0  0  0  0  0  0  0  0  0
   22.9558   17.0939   28.1187 C   0  0  0  0  0  0  0  0  0  0  0  0
   23.3667   16.8997   26.7895 N   0  0  0  0  0  0  0  0  0  0  0  0
   22.8609   16.2842   26.1278 H   0  0  0  0  0  0  0  0  0  0  0  0
   24.2285   17.3958   26.3801 H   0  0  0  0  0  0  0  0  0  0  0  0
   24.2526   11.9059   31.6332 N   0  0  0  0  0  0  0  0  0  0  0  0
   24.8171   11.8848   30.3022 C   0  0  0  0  0  0  0  0  0  0  0  0
   25.5923   10.9878   29.9731 O   0  0  0  0  0  0  0  0  0  0  0  0
   23.8284   12.4227   32.2815 H   0  0  0  0  0  0  0  0  0  0  0  0
   23.1675   10.0377   31.9281 C   0  0  0  0  0  0  0  0  0  0  0  0
   24.4532   10.3951   32.1070 N   0  0  0  0  0  0  0  0  0  0  0  0
   18.3661    8.9283   33.5633 Br  0  0  0  0  0  0  0  0  0  0  0  0
   20.0487    8.4301   32.7589 C   0  0  0  0  0  0  0  0  0  0  0  0
   20.2180    7.1321   32.3259 C   0  0  0  0  0  0  0  0  0  0  0  0
   21.3920    6.7569   31.7338 C   0  0  0  0  0  0  0  0  0  0  0  0
   22.3769    7.7077   31.5961 C   0  0  0  0  0  0  0  0  0  0  0  0
   22.2590    9.0209   32.0144 C   0  0  0  0  0  0  0  0  0  0  0  0
   20.9950    9.3529   32.6278 C   0  0  0  0  0  0  0  0  0  0  0  0
   19.1840    6.2073   32.4974 O   0  0  0  0  0  0  0  0  0  0  0  0
   18.3235    6.5232   32.9931 H   0  0  0  0  0  0  0  0  0  0  0  0
   21.5957    5.4532   31.2658 O   0  0  0  0  0  0  0  0  0  0  0  0
   22.9478    4.9879   31.0792 C   0  0  0  0  0  0  0  0  0  0  0  0
   22.6586   13.5819   31.0509 C   0  0  0  0  0  0  0  0  0  0  0  0
   21.3731   12.8821   31.0047 N   0  0  0  0  0  0  0  0  0  0  0  0
   20.3438   13.6726   30.4122 C   0  0  0  0  0  0  0  0  0  0  0  0
   19.9226   14.8678   31.2183 C   0  0  0  0  0  0  0  0  0  0  0  0
   19.1693   14.4527   32.3034 O   0  0  0  0  0  0  0  0  0  0  0  0
   19.4765   13.1296   32.6406 C   0  0  0  0  0  0  0  0  0  0  0  0
   20.9399   12.8955   32.4690 C   0  0  0  0  0  0  0  0  0  0  0  0
 20 21  1  0  0  0
 21 22  2  0  0  0
 21 26  1  0  0  0
 22 23  1  0  0  0
 22 27  1  0  0  0
 23 24  2  0  0  0
 23 29  1  0  0  0
 24 25  1  0  0  0
 25 26  2  0  0  0
 25 18  1  0  0  0
 18 19  2  0  0  0
 19 14  1  0  0  0
 14 15  1  0  0  0
 15 16  2  0  0  0
 15  1  1  0  0  0
  1  2  1  0  0  0
  1  5  2  0  0  0
  2  3  2  0  0  0
  3  4  1  0  0  0
  4  5  1  0  0  0
  4  6  1  0  0  0
  5 31  1  0  0  0
 31 32  1  0  0  0
 32 33  1  0  0  0
 32 37  1  0  0  0
 33 34  1  0  0  0
 34 35  1  0  0  0
 35 36  1  0  0  0
 36 37  1  0  0  0
  6  7  2  0  0  0
  6 10  1  0  0  0
  7  8  1  0  0  0
  8  9  1  0  0  0
  9 10  2  0  0  0
 10 11  1  0  0  0
 29 30  1  0  0  0
 14 17  1  0  0  0
 11 12  1  0  0  0
 11 13  1  0  0  0
 27 28  1  0  0  0
M  END
> <minimizedAffinity>
-9.97758

$$$$
20


 34 37  0  0  0  0  0  0  0  0999 V2000
   23.6809    9.2730   31.8487 C   0  0  0  0  0  0  0  0  0  0  0  0
   22.4677    9.2802   32.3673 N   0  0  0  0  0  0  0  0  0  0  0  0
   21.6389    8.2060   32.2293 C   0  0  0  0  0  0  0  0  0  0  0  0
   22.1441    7.1566   31.5386 N   0  0  0  0  0  0  0  0  0  0  0  0
   23.3705    7.0929   30.9868 C   0  0  0  0  0  0  0  0  0  0  0  0
   24.1377    8.1932   31.1577 N   0  0  0  0  0  0  0  0  0  0  0  0
   23.8715    5.9316   30.4251 N   0  0  0  0  0  0  0  0  0  0  0  0
   23.7265    4.5888   30.8359 C   0  0  0  0  0  0  0  0  0  0  0  0
   25.1332    4.0755   31.1569 C   0  0  0  0  0  0  0  0  0  0  0  0
   25.9155    4.2767   30.0414 O   0  0  0  0  0  0  0  0  0  0  0  0
   26.0675    5.5865   29.6482 C   0  0  0  0  0  0  0  0  0  0  0  0
   24.6850    6.1325   29.1888 C   0  0  0  0  0  0  0  0  0  0  0  0
   20.3657    8.1395   32.8427 N   0  0  0  0  0  0  0  0  0  0  0  0
   19.6324    6.8636   32.8554 C   0  0  0  0  0  0  0  0  0  0  0  0
   18.1899    7.2307   32.4214 C   0  0  0  0  0  0  0  0  0  0  0  0
   17.7023    7.9763   33.4564 O   0  0  0  0  0  0  0  0  0  0  0  0
   18.2776    9.2106   33.5717 C   0  0  0  0  0  0  0  0  0  0  0  0
   19.7612    9.2803   33.4154 C   0  0  0  0  0  0  0  0  0  0  0  0
   24.7147   10.2969   32.1273 N   0  0  0  0  0  0  0  0  0  0  0  0
   25.4810    9.9900   32.6939 H   0  0  0  0  0  0  0  0  0  0  0  0
   24.1395   12.4195   31.0034 C   0  0  0  0  0  0  0  0  0  0  0  0
   24.4006   11.4221   31.5369 N   0  0  0  0  0  0  0  0  0  0  0  0
   22.1834   17.2032   29.8395 Br  0  0  0  0  0  0  0  0  0  0  0  0
   22.0519   15.4936   30.7006 C   0  0  0  0  0  0  0  0  0  0  0  0
   21.0057   15.2445   31.5453 C   0  0  0  0  0  0  0  0  0  0  0  0
   20.9214   14.0081   32.1823 C   0  0  0  0  0  0  0  0  0  0  0  0
   21.8939   13.0428   31.9620 C   0  0  0  0  0  0  0  0  0  0  0  0
   22.9476   13.2834   31.1288 C   0  0  0  0  0  0  0  0  0  0  0  0
   23.0003   14.5126   30.5107 C   0  0  0  0  0  0  0  0  0  0  0  0
   20.0672   16.2361   31.7363 O   0  0  0  0  0  0  0  0  0  0  0  0
   20.1086   17.1317   31.3130 H   0  0  0  0  0  0  0  0  0  0  0  0
   19.8460   13.8429   32.9979 O   0  0  0  0  0  0  0  0  0  0  0  0
   18.9046   12.8295   33.0254 C   0  0  0  0  0  0  0  0  0  0  0  0
   17.5069   13.3110   32.6648 C   0  0  0  0  0  0  0  0  0  0  0  0
 23 24  1  0  0  0
 24 25  2  0  0  0
 24 29  1  0  0  0
 25 26  1  0  0  0
 25 30  1  0  0  0
 26 27  2  0  0  0
 26 32  1  0  0  0
 27 28  1  0  0  0
 28 29  2  0  0  0
 28 21  1  0  0  0
 21 22  2  0  0  0
 22 19  1  0  0  0
 19  1  1  0  0  0
  1  2  2  0  0  0
  1  6  1  0  0  0
  2  3  1  0  0  0
  3  4  2  0  0  0
  3 13  1  0  0  0
  4  5  1  0  0  0
  5  6  2  0  0  0
  5  7  1  0  0  0
  7  8  1  0  0  0
  7 12  1  0  0  0
  8  9  1  0  0  0
  9 10  1  0  0  0
 10 11  1  0  0  0
 11 12  1  0  0  0
 13 14  1  0  0  0
 13 18  1  0  0  0
 14 15  1  0  0  0
 15 16  1  0  0  0
 16 17  1  0  0  0
 17 18  1  0  0  0
 32 33  1  0  0  0
 33 34  1  0  0  0
 19 20  1  0  0  0
 30 31  1  0  0  0
M  END
> <minimizedAffinity>
-9.12732

$$$$
23


 37 40  0  0  0  0  0  0  0  0999 V2000
   22.7648    9.7748   29.8459 C   0  0  0  0  0  0  0  0  0  0  0  0
   23.6236   10.9325   29.9811 N   0  0  0  0  0  0  0  0  0  0  0  0
   24.9353   10.5661   30.3003 C   0  0  0  0  0  0  0  0  0  0  0  0
   25.8596   11.3365   30.6000 O   0  0  0  0  0  0  0  0  0  0  0  0
   25.0199    9.1075   30.2187 C   0  0  0  0  0  0  0  0  0  0  0  0
   26.0805    8.4750   30.4572 O   0  0  0  0  0  0  0  0  0  0  0  0
   23.7177    8.6050   29.8363 C   0  0  0  0  0  0  0  0  0  0  0  0
   23.4360    7.3556   29.5831 C   0  0  0  0  0  0  0  0  0  0  0  0
   22.1311    6.9930   29.2900 O   0  0  0  0  0  0  0  0  0  0  0  0
   24.4459    6.3258   29.5895 C   0  0  0  0  0  0  0  0  0  0  0  0
   24.4371    5.5031   30.7234 C   0  0  0  0  0  0  0  0  0  0  0  0
   25.3192    4.4586   30.8487 C   0  0  0  0  0  0  0  0  0  0  0  0
   26.2337    4.2041   29.8533 C   0  0  0  0  0  0  0  0  0  0  0  0
   26.2236    5.0298   28.7447 C   0  0  0  0  0  0  0  0  0  0  0  0
   25.3450    6.0817   28.6006 C   0  0  0  0  0  0  0  0  0  0  0  0
   27.0041    3.0880   30.2414 O   0  0  0  0  0  0  0  0  0  0  0  0
   26.8326    2.8880   31.6409 C   0  0  0  0  0  0  0  0  0  0  0  0
   25.4797    3.4764   31.9690 C   0  0  0  0  0  0  0  0  0  0  0  0
   27.8693    3.6397   32.4543 C   0  0  0  0  0  0  0  0  0  0  0  0
   19.9647   12.2179   33.7015 Br  0  0  0  0  0  0  0  0  0  0  0  0
   20.6256   10.6902   32.7935 C   0  0  0  0  0  0  0  0  0  0  0  0
   20.2863    9.4175   33.2742 C   0  0  0  0  0  0  0  0  0  0  0  0
   20.7708    8.2980   32.6100 C   0  0  0  0  0  0  0  0  0  0  0  0
   21.5550    8.4770   31.5199 C   0  0  0  0  0  0  0  0  0  0  0  0
   21.8894    9.7357   31.0463 C   0  0  0  0  0  0  0  0  0  0  0  0
   21.4258   10.8610   31.6817 C   0  0  0  0  0  0  0  0  0  0  0  0
   19.4906    9.2508   34.3794 O   0  0  0  0  0  0  0  0  0  0  0  0
   19.2640    8.3433   34.7040 H   0  0  0  0  0  0  0  0  0  0  0  0
   20.4353    7.0274   33.0849 O   0  0  0  0  0  0  0  0  0  0  0  0
   20.6993    5.8475   32.3759 C   0  0  0  0  0  0  0  0  0  0  0  0
   23.1112   12.2750   29.7996 C   0  0  0  0  0  0  0  0  0  0  0  0
   23.6782   13.3197   30.6645 C   0  0  0  0  0  0  0  0  0  0  0  0
   22.7403   14.2106   31.3912 C   0  0  0  0  0  0  0  0  0  0  0  0
   21.8102   14.9127   30.5415 N   0  0  0  0  0  0  0  0  0  0  0  0
   22.2220   16.3207   30.4442 C   0  0  0  0  0  0  0  0  0  0  0  0
   20.5204   14.8929   31.2075 C   0  0  0  0  0  0  0  0  0  0  0  0
   21.6819   14.5108   29.6088 H   0  0  0  0  0  0  0  0  0  0  0  0
 20 21  1  0  0  0
 21 22  2  0  0  0
 21 26  1  0  0  0
 22 23  1  0  0  0
 22 27  1  0  0  0
 23 24  2  0  0  0
 23 29  1  0  0  0
 24 25  1  0  0  0
 25 26  2  0  0  0
 25  1  1  0  0  0
  1  2  1  0  0  0
  1  7  1  0  0  0
  2  3  1  0  0  0
  2 31  1  0  0  0
  3  4  2  0  0  0
  3  5  1  0  0  0
  5  6  2  0  0  0
  5  7  1  0  0  0
  7  8  2  0  0  0
  8  9  1  0  0  0
  8 10  1  0  0  0
 10 11  2  0  0  0
 10 15  1  0  0  0
 11 12  1  0  0  0
 12 13  2  0  0  0
 12 18  1  0  0  0
 13 14  1  0  0  0
 13 16  1  0  0  0
 14 15  2  0  0  0
 16 17  1  0  0  0
 17 18  1  0  0  0
 17 19  1  0  0  0
 31 32  1  0  0  0
 32 33  1  0  0  0
 33 34  1  0  0  0
 34 35  1  0  0  0
 34 36  1  0  0  0
 29 30  1  0  0  0
 34 37  1  0  0  0
 27 28  1  0  0  0
M  CHG 1   9  -1
M  CHG 1  34   1
M  END
> <minimizedAffinity>
-8.49451

$$$$
26


 29 32  0  0  0  0  0  0  0  0999 V2000
   23.2807   10.4243   32.0134 C   0  0  0  0  0  0  0  0  0  0  0  0
   24.0891    9.6676   31.1506 N   0  0  0  0  0  0  0  0  0  0  0  0
   23.7704    8.3130   30.9036 C   0  0  0  0  0  0  0  0  0  0  0  0
   22.8868    7.6583   31.9308 C   0  0  0  0  0  0  0  0  0  0  0  0
   21.7478    8.5245   32.3170 C   0  0  0  0  0  0  0  0  0  0  0  0
   20.4539    8.2477   32.6672 C   0  0  0  0  0  0  0  0  0  0  0  0
   19.8790    9.4815   32.9171 C   0  0  0  0  0  0  0  0  0  0  0  0
   20.8096   10.4529   32.7193 N   0  0  0  0  0  0  0  0  0  0  0  0
   21.9578    9.8692   32.3512 C   0  0  0  0  0  0  0  0  0  0  0  0
   18.5535    9.4842   33.2959 C   0  0  0  0  0  0  0  0  0  0  0  0
   17.8327    8.3156   33.4202 C   0  0  0  0  0  0  0  0  0  0  0  0
   18.4075    7.0863   33.1705 C   0  0  0  0  0  0  0  0  0  0  0  0
   19.7389    7.0653   32.7895 C   0  0  0  0  0  0  0  0  0  0  0  0
   24.2242   10.1476   30.2148 H   0  0  0  0  0  0  0  0  0  0  0  0
   25.0861    9.6915   31.5397 H   0  0  0  0  0  0  0  0  0  0  0  0
   20.5742   11.4598   32.8572 H   0  0  0  0  0  0  0  0  0  0  0  0
   24.7875   13.8990   28.2659 Br  0  0  0  0  0  0  0  0  0  0  0  0
   23.6817   13.3798   29.7222 C   0  0  0  0  0  0  0  0  0  0  0  0
   22.7008   14.2283   30.1763 C   0  0  0  0  0  0  0  0  0  0  0  0
   21.9135   13.8250   31.2341 C   0  0  0  0  0  0  0  0  0  0  0  0
   22.0506   12.6114   31.8724 C   0  0  0  0  0  0  0  0  0  0  0  0
   23.0363   11.7652   31.4110 C   0  0  0  0  0  0  0  0  0  0  0  0
   23.8370   12.1431   30.3558 C   0  0  0  0  0  0  0  0  0  0  0  0
   20.5601   15.0188   31.8473 Br  0  0  0  0  0  0  0  0  0  0  0  0
   22.4968   15.4878   29.5774 O   0  0  0  0  0  0  0  0  0  0  0  0
   23.0965   15.7434   28.8054 H   0  0  0  0  0  0  0  0  0  0  0  0
   23.1305    8.1036   29.5757 C   0  0  0  0  0  0  0  0  0  0  0  0
   22.9738    6.9130   29.1376 O   0  0  0  0  0  0  0  0  0  0  0  0
   22.7170    9.1970   28.8322 O   0  0  0  0  0  0  0  0  0  0  0  0
 17 18  1  0  0  0
 18 19  2  0  0  0
 18 23  1  0  0  0
 19 20  1  0  0  0
 19 25  1  0  0  0
 20 21  2  0  0  0
 20 24  1  0  0  0
 21 22  1  0  0  0
 22 23  2  0  0  0
 22  1  1  0  0  0
  1  2  1  0  0  0
  1  9  1  0  0  0
  2  3  1  0  0  0
  3  4  1  0  0  0
  3 27  1  0  0  0
  4  5  1  0  0  0
  5  6  1  0  0  0
  5  9  2  0  0  0
  6  7  2  0  0  0
  6 13  1  0  0  0
  7  8  1  0  0  0
  7 10  1  0  0  0
  8  9  1  0  0  0
 10 11  2  0  0  0
 11 12  1  0  0  0
 12 13  2  0  0  0
 27 28  2  0  0  0
 27 29  1  0  0  0
  2 14  1  0  0  0
  2 15  1  0  0  0
  8 16  1  0  0  0
 25 26  1  0  0  0
M  CHG 1   2   1
M  END
> <minimizedAffinity>
-9.82783

$$$$
31


 24 27  0  0  0  0  0  0  0  0999 V2000
   21.8319    5.0727   31.3279 Br  0  0  0  0  0  0  0  0  0  0  0  0
   21.1588    6.8088   31.7997 C   0  0  0  0  0  0  0  0  0  0  0  0
   21.9252    7.9133   31.6836 C   0  0  0  0  0  0  0  0  0  0  0  0
   21.4355    9.1867   32.0969 C   0  0  0  0  0  0  0  0  0  0  0  0
   20.1873    9.2423   32.6131 C   0  0  0  0  0  0  0  0  0  0  0  0
   19.4233    8.0981   32.7344 C   0  0  0  0  0  0  0  0  0  0  0  0
   19.8901    6.8840   32.3331 C   0  0  0  0  0  0  0  0  0  0  0  0
   22.5058   10.1860   32.2826 C   0  0  0  0  0  0  0  0  0  0  0  0
   22.5757   11.3458   31.4922 N   0  0  0  0  0  0  0  0  0  0  0  0
   22.2157   11.3525   30.1645 C   0  0  0  0  0  0  0  0  0  0  0  0
   22.2433   12.6964   29.5919 N   0  0  0  0  0  0  0  0  0  0  0  0
   23.5931   13.2117   29.7515 C   0  0  0  0  0  0  0  0  0  0  0  0
   24.0268   13.1888   31.1331 N   0  0  0  0  0  0  0  0  0  0  0  0
   23.9458   11.9158   31.7320 C   0  0  0  0  0  0  0  0  0  0  0  0
   23.2202   14.1386   31.8711 C   0  0  0  0  0  0  0  0  0  0  0  0
   21.7895   13.6865   31.7192 C   0  0  0  0  0  0  0  0  0  0  0  0
   21.6949   12.3034   32.2482 C   0  0  0  0  0  0  0  0  0  0  0  0
   21.3581   13.6210   30.2565 C   0  0  0  0  0  0  0  0  0  0  0  0
   23.1735    7.8501   31.1755 O   0  0  0  0  0  0  0  0  0  0  0  0
   23.4676    7.8833   29.7643 C   0  0  0  0  0  0  0  0  0  0  0  0
   24.5385    7.0150   29.2828 C   0  0  0  0  0  0  0  0  0  0  0  0
   24.4261    5.8209   29.0448 O   0  0  0  0  0  0  0  0  0  0  0  0
   25.7841    7.6063   29.0435 O   0  0  0  0  0  0  0  0  0  0  0  0
   26.9282    6.8707   28.7006 C   0  0  0  0  0  0  0  0  0  0  0  0
  1  2  1  0  0  0
  2  3  2  0  0  0
  2  7  1  0  0  0
  3  4  1  0  0  0
  3 19  1  0  0  0
  4  5  2  0  0  0
  4  8  1  0  0  0
  5  6  1  0  0  0
  6  7  2  0  0  0
  8  9  1  0  0  0
  9 10  1  0  0  0
  9 14  1  0  0  0
  9 17  1  0  0  0
 10 11  1  0  0  0
 11 12  1  0  0  0
 11 18  1  0  0  0
 12 13  1  0  0  0
 13 14  1  0  0  0
 13 15  1  0  0  0
 15 16  1  0  0  0
 16 17  1  0  0  0
 16 18  1  0  0  0
 19 20  1  0  0  0
 20 21  1  0  0  0
 21 22  2  0  0  0
 21 23  1  0  0  0
 23 24  1  0  0  0
M  CHG 1   9   1
M  END
> <minimizedAffinity>
-7.23828

$$$$
33


 33 36  0  0  0  0  0  0  0  0999 V2000
   24.0785   11.2798   29.4032 C   0  0  0  0  0  0  0  0  0  0  0  0
   24.9803   11.8496   28.6197 N   0  0  0  0  0  0  0  0  0  0  0  0
   25.0397   13.1688   28.3674 C   0  0  0  0  0  0  0  0  0  0  0  0
   24.1073   13.9421   28.9651 N   0  0  0  0  0  0  0  0  0  0  0  0
   23.1555   13.4158   29.7815 C   0  0  0  0  0  0  0  0  0  0  0  0
   23.1589   12.0755   29.9892 N   0  0  0  0  0  0  0  0  0  0  0  0
   22.1789   14.2325   30.3860 N   0  0  0  0  0  0  0  0  0  0  0  0
   20.9456   13.6815   30.8862 C   0  0  0  0  0  0  0  0  0  0  0  0
   20.8467   14.1645   32.3406 C   0  0  0  0  0  0  0  0  0  0  0  0
   20.9902   15.5368   32.3680 O   0  0  0  0  0  0  0  0  0  0  0  0
   22.3004   15.8974   32.0560 C   0  0  0  0  0  0  0  0  0  0  0  0
   22.4121   15.6463   30.5368 C   0  0  0  0  0  0  0  0  0  0  0  0
   26.0364   13.7415   27.5046 N   0  0  0  0  0  0  0  0  0  0  0  0
   27.0725   12.9369   26.9226 C   0  0  0  0  0  0  0  0  0  0  0  0
   27.8858   13.5670   25.8601 C   0  0  0  0  0  0  0  0  0  0  0  0
   27.7962   14.9511   25.8085 O   0  0  0  0  0  0  0  0  0  0  0  0
   26.4800   15.3913   25.8361 C   0  0  0  0  0  0  0  0  0  0  0  0
   25.9701   15.1479   27.2354 C   0  0  0  0  0  0  0  0  0  0  0  0
   24.0742    9.8693   29.5856 N   0  0  0  0  0  0  0  0  0  0  0  0
   24.9034    9.3244   29.3214 H   0  0  0  0  0  0  0  0  0  0  0  0
   22.7664    9.0434   31.3716 C   0  0  0  0  0  0  0  0  0  0  0  0
   22.9634    9.2316   30.1120 N   0  0  0  0  0  0  0  0  0  0  0  0
   17.9407    9.2308   33.7098 Br  0  0  0  0  0  0  0  0  0  0  0  0
   19.3966    8.3097   32.9055 C   0  0  0  0  0  0  0  0  0  0  0  0
   19.3127    6.9316   32.7849 C   0  0  0  0  0  0  0  0  0  0  0  0
   20.3854    6.2842   32.2022 C   0  0  0  0  0  0  0  0  0  0  0  0
   21.4826    6.9803   31.7653 C   0  0  0  0  0  0  0  0  0  0  0  0
   21.5884    8.3665   31.8739 C   0  0  0  0  0  0  0  0  0  0  0  0
   20.5102    8.9947   32.4576 C   0  0  0  0  0  0  0  0  0  0  0  0
   22.5658    6.3182   31.1776 O   0  0  0  0  0  0  0  0  0  0  0  0
   18.2030    6.2141   33.2262 O   0  0  0  0  0  0  0  0  0  0  0  0
   22.5188    5.3079   31.0856 H   0  0  0  0  0  0  0  0  0  0  0  0
   17.3936    6.6397   33.6522 H   0  0  0  0  0  0  0  0  0  0  0  0
 23 24  1  0  0  0
 24 25  2  0  0  0
 24 29  1  0  0  0
 25 26  1  0  0  0
 25 31  1  0  0  0
 26 27  2  0  0  0
 27 28  1  0  0  0
 27 30  1  0  0  0
 28 29  2  0  0  0
 28 21  1  0  0  0
 21 22  2  0  0  0
 22 19  1  0  0  0
 19  1  1  0  0  0
  1  2  2  0  0  0
  1  6  1  0  0  0
  2  3  1  0  0  0
  3  4  2  0  0  0
  3 13  1  0  0  0
  4  5  1  0  0  0
  5  6  2  0  0  0
  5  7  1  0  0  0
  7  8  1  0  0  0
  7 12  1  0  0  0
  8  9  1  0  0  0
  9 10  1  0  0  0
 10 11  1  0  0  0
 11 12  1  0  0  0
 13 14  1  0  0  0
 13 18  1  0  0  0
 14 15  1  0  0  0
 15 16  1  0  0  0
 16 17  1  0  0  0
 17 18  1  0  0  0
 19 20  1  0  0  0
 30 32  1  0  0  0
 31 33  1  0  0  0
M  END
> <minimizedAffinity>
-8.99713

$$$$
35


 33 36  0  0  0  0  0  0  0  0999 V2000
   23.8710   11.8484   31.3630 C   0  0  0  0  0  0  0  0  0  0  0  0
   22.7518   12.4010   31.8401 N   0  0  0  0  0  0  0  0  0  0  0  0
   22.1292   13.4344   31.2129 C   0  0  0  0  0  0  0  0  0  0  0  0
   22.6590   13.9143   30.0767 N   0  0  0  0  0  0  0  0  0  0  0  0
   23.7816   13.3813   29.5717 C   0  0  0  0  0  0  0  0  0  0  0  0
   24.3787   12.3439   30.2304 N   0  0  0  0  0  0  0  0  0  0  0  0
   24.3526   13.8870   28.3652 N   0  0  0  0  0  0  0  0  0  0  0  0
   25.4152   13.2249   27.6473 C   0  0  0  0  0  0  0  0  0  0  0  0
   26.4866   14.2137   27.2401 C   0  0  0  0  0  0  0  0  0  0  0  0
   26.2093   15.5037   27.6667 O   0  0  0  0  0  0  0  0  0  0  0  0
   24.9633   15.8995   27.1429 C   0  0  0  0  0  0  0  0  0  0  0  0
   23.8479   15.1342   27.8272 C   0  0  0  0  0  0  0  0  0  0  0  0
   20.9560   13.9461   31.8037 N   0  0  0  0  0  0  0  0  0  0  0  0
   20.4096   15.1874   31.3255 C   0  0  0  0  0  0  0  0  0  0  0  0
   18.9631   14.8616   30.9212 C   0  0  0  0  0  0  0  0  0  0  0  0
   18.3323   14.4547   32.0972 O   0  0  0  0  0  0  0  0  0  0  0  0
   18.8038   13.2255   32.5456 C   0  0  0  0  0  0  0  0  0  0  0  0
   20.2808   13.2661   32.8821 C   0  0  0  0  0  0  0  0  0  0  0  0
   24.4625   10.7734   32.0577 N   0  0  0  0  0  0  0  0  0  0  0  0
   25.4505   10.8769   32.3696 H   0  0  0  0  0  0  0  0  0  0  0  0
   22.9286    9.0820   31.4677 C   0  0  0  0  0  0  0  0  0  0  0  0
   23.7482    9.5754   32.3367 N   0  0  0  0  0  0  0  0  0  0  0  0
   20.2788    9.5434   32.9266 Br  0  0  0  0  0  0  0  0  0  0  0  0
   20.9434    7.8718   32.2953 C   0  0  0  0  0  0  0  0  0  0  0  0
   20.2147    6.7112   32.4822 C   0  0  0  0  0  0  0  0  0  0  0  0
   20.7205    5.5084   32.0134 C   0  0  0  0  0  0  0  0  0  0  0  0
   21.9387    5.4856   31.3722 C   0  0  0  0  0  0  0  0  0  0  0  0
   22.6394    6.6703   31.2043 C   0  0  0  0  0  0  0  0  0  0  0  0
   22.1616    7.8758   31.6581 C   0  0  0  0  0  0  0  0  0  0  0  0
   22.4076    4.2619   30.9208 O   0  0  0  0  0  0  0  0  0  0  0  0
   18.9920    6.7392   33.1272 O   0  0  0  0  0  0  0  0  0  0  0  0
   22.2178    3.8834   30.0028 H   0  0  0  0  0  0  0  0  0  0  0  0
   18.6457    7.6301   33.4584 H   0  0  0  0  0  0  0  0  0  0  0  0
 23 24  1  0  0  0
 24 25  2  0  0  0
 24 29  1  0  0  0
 25 26  1  0  0  0
 25 31  1  0  0  0
 26 27  2  0  0  0
 27 28  1  0  0  0
 27 30  1  0  0  0
 28 29  2  0  0  0
 29 21  1  0  0  0
 21 22  2  0  0  0
 22 19  1  0  0  0
 19  1  1  0  0  0
  1  2  2  0  0  0
  1  6  1  0  0  0
  2  3  1  0  0  0
  3  4  2  0  0  0
  3 13  1  0  0  0
  4  5  1  0  0  0
  5  6  2  0  0  0
  5  7  1  0  0  0
  7  8  1  0  0  0
  7 12  1  0  0  0
  8  9  1  0  0  0
  9 10  1  0  0  0
 10 11  1  0  0  0
 11 12  1  0  0  0
 13 14  1  0  0  0
 13 18  1  0  0  0
 14 15  1  0  0  0
 15 16  1  0  0  0
 16 17  1  0  0  0
 17 18  1  0  0  0
 19 20  1  0  0  0
 30 32  1  0  0  0
 31 33  1  0  0  0
M  END
> <minimizedAffinity>
-9.35601

$$$$
37


 27 30  0  0  0  0  0  0  0  0999 V2000
   23.0776   10.2886   31.2398 N   0  0  0  0  0  0  0  0  0  0  0  0
   22.9792   11.1375   30.0760 C   0  0  0  0  0  0  0  0  0  0  0  0
   23.9230   12.2648   30.4333 C   0  0  0  0  0  0  0  0  0  0  0  0
   25.1154   11.4910   30.9675 C   0  0  0  0  0  0  0  0  0  0  0  0
   24.3982   10.4345   31.7298 C   0  0  0  0  0  0  0  0  0  0  0  0
   24.9008    9.7775   32.6660 O   0  0  0  0  0  0  0  0  0  0  0  0
   18.4518    6.8963   33.3900 Br  0  0  0  0  0  0  0  0  0  0  0  0
   19.8861    7.9623   32.7270 C   0  0  0  0  0  0  0  0  0  0  0  0
   20.8978    7.3393   32.0059 C   0  0  0  0  0  0  0  0  0  0  0  0
   21.9150    8.1260   31.5390 C   0  0  0  0  0  0  0  0  0  0  0  0
   22.0116    9.4871   31.7309 C   0  0  0  0  0  0  0  0  0  0  0  0
   20.9747   10.0743   32.4606 C   0  0  0  0  0  0  0  0  0  0  0  0
   19.9257    9.3230   32.9529 C   0  0  0  0  0  0  0  0  0  0  0  0
   20.8266    5.8700   31.7808 C   0  0  0  0  0  0  0  0  0  0  0  0
   24.2802   13.0866   29.2582 C   0  0  0  0  0  0  0  0  0  0  0  0
   25.1183   12.6868   28.4148 O   0  0  0  0  0  0  0  0  0  0  0  0
   23.6616   14.3427   29.0888 N   0  0  0  0  0  0  0  0  0  0  0  0
   22.9698   14.6814   29.7808 H   0  0  0  0  0  0  0  0  0  0  0  0
   23.9780   15.1764   27.9550 C   0  0  0  0  0  0  0  0  0  0  0  0
   23.3547   16.5233   28.0859 C   0  0  0  0  0  0  0  0  0  0  0  0
   23.3507   17.5294   27.1758 N   0  0  0  0  0  0  0  0  0  0  0  0
   22.6791   18.5804   27.6752 C   0  0  0  0  0  0  0  0  0  0  0  0
   22.2731   18.1911   28.9105 N   0  0  0  0  0  0  0  0  0  0  0  0
   22.6765   16.9617   29.1586 N   0  0  0  0  0  0  0  0  0  0  0  0
   22.6551   19.7138   26.6932 C   0  0  0  0  0  0  0  0  0  0  0  0
   23.7300   19.3064   25.7103 C   0  0  0  0  0  0  0  0  0  0  0  0
   23.8534   17.8028   25.8415 C   0  0  0  0  0  0  0  0  0  0  0  0
  7  8  1  0  0  0
  8  9  2  0  0  0
  8 13  1  0  0  0
  9 10  1  0  0  0
  9 14  1  0  0  0
 10 11  2  0  0  0
 11 12  1  0  0  0
 11  1  1  0  0  0
 12 13  2  0  0  0
  1  2  1  0  0  0
  1  5  1  0  0  0
  2  3  1  0  0  0
  3  4  1  0  0  0
  3 15  1  0  0  0
  4  5  1  0  0  0
  5  6  2  0  0  0
 15 16  2  0  0  0
 15 17  1  0  0  0
 17 19  1  0  0  0
 19 20  1  0  0  0
 20 21  1  0  0  0
 20 24  2  0  0  0
 21 22  1  0  0  0
 21 27  1  0  0  0
 22 23  2  0  0  0
 22 25  1  0  0  0
 23 24  1  0  0  0
 25 26  1  0  0  0
 26 27  1  0  0  0
 17 18  1  0  0  0
M  END
> <minimizedAffinity>
-9.87353

$$$$
39


 21 23  0  0  0  0  0  0  0  0999 V2000
   22.1758   11.3996   32.1621 N   0  0  0  0  0  0  0  0  0  0  0  0
   22.5267   12.0055   30.9547 C   0  0  0  0  0  0  0  0  0  0  0  0
   22.1722   11.5319   29.8658 O   0  0  0  0  0  0  0  0  0  0  0  0
   22.5272   11.8816   33.0427 H   0  0  0  0  0  0  0  0  0  0  0  0
   19.5571   12.0562   33.4841 Br  0  0  0  0  0  0  0  0  0  0  0  0
   20.1501   10.2997   32.9763 C   0  0  0  0  0  0  0  0  0  0  0  0
   21.4131   10.2275   32.3708 C   0  0  0  0  0  0  0  0  0  0  0  0
   21.8135    8.9564   32.0178 C   0  0  0  0  0  0  0  0  0  0  0  0
   21.0082    7.8394   32.2526 C   0  0  0  0  0  0  0  0  0  0  0  0
   19.7741    7.9351   32.8478 C   0  0  0  0  0  0  0  0  0  0  0  0
   19.3639    9.1970   33.2052 C   0  0  0  0  0  0  0  0  0  0  0  0
   18.9272    6.7281   33.0917 C   0  0  0  0  0  0  0  0  0  0  0  0
   23.3384   13.2380   30.9833 C   0  0  0  0  0  0  0  0  0  0  0  0
   22.6120   14.4620   31.0820 N   0  0  0  0  0  0  0  0  0  0  0  0
   22.7919   14.9745   32.4493 C   0  0  0  0  0  0  0  0  0  0  0  0
   22.5645   16.4649   32.3988 C   0  0  0  0  0  0  0  0  0  0  0  0
   21.4513   16.6707   31.4729 N   0  0  0  0  0  0  0  0  0  0  0  0
   22.0379   16.6063   30.1376 C   0  0  0  0  0  0  0  0  0  0  0  0
   23.0561   15.4749   30.1282 C   0  0  0  0  0  0  0  0  0  0  0  0
   20.5297   15.5506   31.5798 C   0  0  0  0  0  0  0  0  0  0  0  0
   21.1795   14.3258   30.9150 C   0  0  0  0  0  0  0  0  0  0  0  0
  5  6  1  0  0  0
  6  7  2  0  0  0
  6 11  1  0  0  0
  7  8  1  0  0  0
  7  1  1  0  0  0
  8  9  2  0  0  0
  9 10  1  0  0  0
 10 11  2  0  0  0
 10 12  1  0  0  0
  1  2  1  0  0  0
  2  3  2  0  0  0
  2 13  1  0  0  0
 13 14  1  0  0  0
 14 15  1  0  0  0
 14 19  1  0  0  0
 14 21  1  0  0  0
 15 16  1  0  0  0
 16 17  1  0  0  0
 17 18  1  0  0  0
 17 20  1  0  0  0
 18 19  1  0  0  0
 20 21  1  0  0  0
  1  4  1  0  0  0
M  CHG 1  14   1
M  END
> <minimizedAffinity>
-7.51974

$$$$
56


 24 27  0  0  0  0  0  0  0  0999 V2000
   23.0674   10.2365   31.6416 C   0  0  0  0  0  0  0  0  0  0  0  0
   24.1678   10.9657   31.1878 C   0  0  0  0  0  0  0  0  0  0  0  0
   24.8056   11.2929   29.8834 C   0  0  0  0  0  0  0  0  0  0  0  0
   24.1093   12.5963   29.7411 N   0  0  0  0  0  0  0  0  0  0  0  0
   22.8895   12.4405   30.1510 C   0  0  0  0  0  0  0  0  0  0  0  0
   22.7479   11.0760   30.5521 C   0  0  0  0  0  0  0  0  0  0  0  0
   21.8747   13.4688   30.1881 N   0  0  0  0  0  0  0  0  0  0  0  0
   26.1664   11.5256   30.1112 O   0  0  0  0  0  0  0  0  0  0  0  0
   26.8659   10.7597   29.1989 C   0  0  0  0  0  0  0  0  0  0  0  0
   25.8563   10.5910   28.0761 C   0  0  0  0  0  0  0  0  0  0  0  0
   24.6781   10.4532   28.8513 O   0  0  0  0  0  0  0  0  0  0  0  0
   21.8222   14.1974   29.4510 H   0  0  0  0  0  0  0  0  0  0  0  0
   21.1778   13.4974   30.9553 H   0  0  0  0  0  0  0  0  0  0  0  0
   20.3399    8.6783   32.1905 Br  0  0  0  0  0  0  0  0  0  0  0  0
   22.0453    7.9545   31.7307 C   0  0  0  0  0  0  0  0  0  0  0  0
   23.1371    8.7574   31.5168 C   0  0  0  0  0  0  0  0  0  0  0  0
   24.3483    8.2011   31.1804 C   0  0  0  0  0  0  0  0  0  0  0  0
   24.5044    6.8279   31.0493 C   0  0  0  0  0  0  0  0  0  0  0  0
   23.4241    6.0051   31.2587 C   0  0  0  0  0  0  0  0  0  0  0  0
   22.1952    6.5804   31.6008 C   0  0  0  0  0  0  0  0  0  0  0  0
   22.4854   10.2725   29.3203 C   0  0  0  0  0  0  0  0  0  0  0  0
   22.2531    9.6299   28.3541 N   0  0  0  0  0  0  0  0  0  0  0  0
   24.5309   12.0920   32.1204 C   0  0  0  0  0  0  0  0  0  0  0  0
   24.8354   12.9762   32.8422 N   0  0  0  0  0  0  0  0  0  0  0  0
 14 15  1  0  0  0
 15 16  2  0  0  0
 15 20  1  0  0  0
 16 17  1  0  0  0
 16  1  1  0  0  0
 17 18  2  0  0  0
 18 19  1  0  0  0
 19 20  2  0  0  0
  1  2  1  0  0  0
  1  6  1  0  0  0
  2  3  1  0  0  0
  2  6  1  0  0  0
  2 23  1  0  0  0
  3  4  1  0  0  0
  3  8  1  0  0  0
  3 11  1  0  0  0
  4  5  2  0  0  0
  5  6  1  0  0  0
  5  7  1  0  0  0
  6 21  1  0  0  0
 21 22  3  0  0  0
  8  9  1  0  0  0
  9 10  1  0  0  0
 10 11  1  0  0  0
 23 24  3  0  0  0
  7 12  1  0  0  0
  7 13  1  0  0  0
M  END
> <minimizedAffinity>
-5.25520

$$$$
64


 22 25  0  0  0  0  0  0  0  0999 V2000
   23.0446   11.4778   30.8258 N   0  0  0  0  0  0  0  0  0  0  0  0
   22.8771   10.4030   29.9155 C   0  0  0  0  0  0  0  0  0  0  0  0
   21.8880   10.2590   29.1754 O   0  0  0  0  0  0  0  0  0  0  0  0
   24.0332    9.4787   29.9630 C   0  0  0  0  0  0  0  0  0  0  0  0
   23.6803    8.1193   30.4579 C   0  0  0  0  0  0  0  0  0  0  0  0
   24.5940    7.8551   31.5124 O   0  0  0  0  0  0  0  0  0  0  0  0
   24.3447    9.0498   32.2366 C   0  0  0  0  0  0  0  0  0  0  0  0
   24.8343   10.0243   31.1586 C   0  0  0  0  0  0  0  0  0  0  0  0
   24.3512   11.3916   31.4029 C   0  0  0  0  0  0  0  0  0  0  0  0
   24.9367   12.3256   31.9930 O   0  0  0  0  0  0  0  0  0  0  0  0
   22.8691    9.0145   32.3179 C   0  0  0  0  0  0  0  0  0  0  0  0
   22.4509    8.2679   31.2962 C   0  0  0  0  0  0  0  0  0  0  0  0
   23.4377   14.0936   29.2341 Br  0  0  0  0  0  0  0  0  0  0  0  0
   22.1211   13.7542   30.5996 C   0  0  0  0  0  0  0  0  0  0  0  0
   22.1302   12.5057   31.1788 C   0  0  0  0  0  0  0  0  0  0  0  0
   21.1714   12.2891   32.1627 C   0  0  0  0  0  0  0  0  0  0  0  0
   20.2645   13.2613   32.5382 C   0  0  0  0  0  0  0  0  0  0  0  0
   20.2842   14.5118   31.9311 C   0  0  0  0  0  0  0  0  0  0  0  0
   21.2246   14.7349   30.9610 C   0  0  0  0  0  0  0  0  0  0  0  0
   23.6114    7.0309   29.4716 C   0  0  0  0  0  0  0  0  0  0  0  0
   24.8996    6.8443   28.9361 O   0  0  0  0  0  0  0  0  0  0  0  0
   25.1011    7.5863   28.2940 H   0  0  0  0  0  0  0  0  0  0  0  0
 13 14  1  0  0  0
 14 15  2  0  0  0
 14 19  1  0  0  0
 15 16  1  0  0  0
 15  1  1  0  0  0
 16 17  2  0  0  0
 17 18  1  0  0  0
 18 19  2  0  0  0
  1  2  1  0  0  0
  1  9  1  0  0  0
  2  3  2  0  0  0
  2  4  1  0  0  0
  4  5  1  0  0  0
  4  8  1  0  0  0
  5  6  1  0  0  0
  5 12  1  0  0  0
  5 20  1  0  0  0
  6  7  1  0  0  0
  7  8  1  0  0  0
  7 11  1  0  0  0
  8  9  1  0  0  0
  9 10  2  0  0  0
 11 12  2  0  0  0
 20 21  1  0  0  0
 21 22  1  0  0  0
M  END
> <minimizedAffinity>
-7.18739

$$$$
67


 22 25  0  0  0  0  0  0  0  0999 V2000
   22.2904    9.8147   31.9684 N   0  0  0  0  0  0  0  0  0  0  0  0
   21.5884   11.1117   31.9251 C   0  0  0  0  0  0  0  0  0  0  0  0
   22.5795   11.9599   31.2756 C   0  0  0  0  0  0  0  0  0  0  0  0
   22.5868   11.9356   29.8707 O   0  0  0  0  0  0  0  0  0  0  0  0
   23.7747   12.6993   29.7193 C   0  0  0  0  0  0  0  0  0  0  0  0
   24.7321   11.7134   30.4027 C   0  0  0  0  0  0  0  0  0  0  0  0
   23.9764   11.4481   31.6673 C   0  0  0  0  0  0  0  0  0  0  0  0
   23.6920   10.0577   31.9822 C   0  0  0  0  0  0  0  0  0  0  0  0
   24.5430    9.1797   32.2342 O   0  0  0  0  0  0  0  0  0  0  0  0
   23.4609   13.8671   30.5942 C   0  0  0  0  0  0  0  0  0  0  0  0
   22.5893   13.3995   31.5157 C   0  0  0  0  0  0  0  0  0  0  0  0
   19.5964    9.5850   33.6140 Br  0  0  0  0  0  0  0  0  0  0  0  0
   20.5264    8.2499   32.6623 C   0  0  0  0  0  0  0  0  0  0  0  0
   21.7047    8.5222   31.9889 C   0  0  0  0  0  0  0  0  0  0  0  0
   22.2796    7.4427   31.3298 C   0  0  0  0  0  0  0  0  0  0  0  0
   21.7413    6.1805   31.3290 C   0  0  0  0  0  0  0  0  0  0  0  0
   20.5832    5.9339   31.9956 C   0  0  0  0  0  0  0  0  0  0  0  0
   19.9773    6.9656   32.6616 C   0  0  0  0  0  0  0  0  0  0  0  0
   24.7204   10.4993   29.5263 C   0  0  0  0  0  0  0  0  0  0  0  0
   23.7077   10.1119   28.9260 O   0  0  0  0  0  0  0  0  0  0  0  0
   25.8983    9.7768   29.3827 O   0  0  0  0  0  0  0  0  0  0  0  0
   27.1193   10.4945   29.1672 C   0  0  0  0  0  0  0  0  0  0  0  0
 12 13  1  0  0  0
 13 14  2  0  0  0
 13 18  1  0  0  0
 14 15  1  0  0  0
 14  1  1  0  0  0
 15 16  2  0  0  0
 16 17  1  0  0  0
 17 18  2  0  0  0
  1  2  1  0  0  0
  1  8  1  0  0  0
  2  3  1  0  0  0
  3  4  1  0  0  0
  3  7  1  0  0  0
  3 11  1  0  0  0
  4  5  1  0  0  0
  5  6  1  0  0  0
  5 10  1  0  0  0
  6  7  1  0  0  0
  6 19  1  0  0  0
  7  8  1  0  0  0
  8  9  2  0  0  0
 19 20  2  0  0  0
 19 21  1  0  0  0
 21 22  1  0  0  0
 10 11  2  0  0  0
M  END
> <minimizedAffinity>
-8.20042

$$$$
81


 22 25  0  0  0  0  0  0  0  0999 V2000
   24.1617   11.6110   31.2583 C   0  0  0  0  0  0  0  0  0  0  0  0
   24.5738   11.8213   29.9950 N   0  0  0  0  0  0  0  0  0  0  0  0
   24.1810   13.0326   29.5961 N   0  0  0  0  0  0  0  0  0  0  0  0
   23.5061   13.6254   30.6019 C   0  0  0  0  0  0  0  0  0  0  0  0
   23.5084   12.7326   31.6091 N   0  0  0  0  0  0  0  0  0  0  0  0
   22.9995   14.8971   30.4161 C   0  0  0  0  0  0  0  0  0  0  0  0
   23.1592   15.5896   29.2328 C   0  0  0  0  0  0  0  0  0  0  0  0
   22.5715   16.7996   29.3209 N   0  0  0  0  0  0  0  0  0  0  0  0
   22.0454   16.8904   30.5270 N   0  0  0  0  0  0  0  0  0  0  0  0
   22.2830   15.7465   31.2342 C   0  0  0  0  0  0  0  0  0  0  0  0
   22.5039   17.8402   28.3079 C   0  0  0  0  0  0  0  0  0  0  0  0
   23.8378   14.9625   28.2550 N   0  0  0  0  0  0  0  0  0  0  0  0
   24.3338   13.7108   28.4448 C   0  0  0  0  0  0  0  0  0  0  0  0
   24.3856   10.3827   32.0969 C   0  0  0  0  0  0  0  0  0  0  0  0
   21.6479    5.9127   30.9686 Br  0  0  0  0  0  0  0  0  0  0  0  0
   22.1448    7.6583   31.5271 C   0  0  0  0  0  0  0  0  0  0  0  0
   23.3992    8.2088   31.4772 C   0  0  0  0  0  0  0  0  0  0  0  0
   23.2894    9.4505   31.9698 N   0  0  0  0  0  0  0  0  0  0  0  0
   22.0363    9.6766   32.3126 N   0  0  0  0  0  0  0  0  0  0  0  0
   21.2826    8.5836   32.0544 C   0  0  0  0  0  0  0  0  0  0  0  0
   19.8032    8.4371   32.3039 C   0  0  0  0  0  0  0  0  0  0  0  0
   24.6254    7.5180   30.9638 C   0  0  0  0  0  0  0  0  0  0  0  0
 15 16  1  0  0  0
 16 17  2  0  0  0
 16 20  1  0  0  0
 17 18  1  0  0  0
 17 22  1  0  0  0
 18 19  1  0  0  0
 18 14  1  0  0  0
 19 20  2  0  0  0
 20 21  1  0  0  0
 14  1  1  0  0  0
  1  2  2  0  0  0
  1  5  1  0  0  0
  2  3  1  0  0  0
  3  4  1  0  0  0
  3 13  1  0  0  0
  4  5  2  0  0  0
  4  6  1  0  0  0
  6  7  2  0  0  0
  6 10  1  0  0  0
  7  8  1  0  0  0
  7 12  1  0  0  0
  8  9  1  0  0  0
  8 11  1  0  0  0
  9 10  2  0  0  0
 12 13  2  0  0  0
M  END
> <minimizedAffinity>
-7.78865

$$$$
85


 26 29  0  0  0  0  0  0  0  0999 V2000
   22.9952   10.4089   31.5877 C   0  0  0  0  0  0  0  0  0  0  0  0
   21.8038   10.9159   32.1450 C   0  0  0  0  0  0  0  0  0  0  0  0
   20.7696   10.2780   32.7570 N   0  0  0  0  0  0  0  0  0  0  0  0
   19.9075   11.1877   33.0963 O   0  0  0  0  0  0  0  0  0  0  0  0
   20.3215   12.3642   32.7419 N   0  0  0  0  0  0  0  0  0  0  0  0
   21.5117   12.2544   32.1376 C   0  0  0  0  0  0  0  0  0  0  0  0
   22.3603   13.1930   31.5866 C   0  0  0  0  0  0  0  0  0  0  0  0
   23.5271   12.6921   31.0409 C   0  0  0  0  0  0  0  0  0  0  0  0
   23.8344   11.3329   31.0431 C   0  0  0  0  0  0  0  0  0  0  0  0
   22.0740   14.5701   31.5706 N   0  0  0  0  0  0  0  0  0  0  0  0
   22.3352   15.3195   30.3447 C   0  0  0  0  0  0  0  0  0  0  0  0
   22.1429   16.7974   30.5456 C   0  0  0  0  0  0  0  0  0  0  0  0
   22.5767   17.2996   31.7277 O   0  0  0  0  0  0  0  0  0  0  0  0
   22.5444   16.4960   32.8297 C   0  0  0  0  0  0  0  0  0  0  0  0
   21.5405   15.3811   32.6230 C   0  0  0  0  0  0  0  0  0  0  0  0
   23.0054    8.1154   30.5993 C   0  0  0  0  0  0  0  0  0  0  0  0
   22.6320    8.5531   29.4477 O   0  0  0  0  0  0  0  0  0  0  0  0
   23.1902    9.0062   31.6530 N   0  0  0  0  0  0  0  0  0  0  0  0
   23.5164    8.5679   32.5663 H   0  0  0  0  0  0  0  0  0  0  0  0
   20.7269    5.9349   32.1419 Br  0  0  0  0  0  0  0  0  0  0  0  0
   22.4234    5.7205   31.2918 C   0  0  0  0  0  0  0  0  0  0  0  0
   23.2137    6.6563   30.7086 C   0  0  0  0  0  0  0  0  0  0  0  0
   24.3339    6.0277   30.2121 N   0  0  0  0  0  0  0  0  0  0  0  0
   24.2081    4.7582   30.4956 N   0  0  0  0  0  0  0  0  0  0  0  0
   23.0835    4.4839   31.1467 C   0  0  0  0  0  0  0  0  0  0  0  0
   25.4293    6.6526   29.5180 C   0  0  0  0  0  0  0  0  0  0  0  0
 20 21  1  0  0  0
 21 22  2  0  0  0
 21 25  1  0  0  0
 22 23  1  0  0  0
 22 16  1  0  0  0
 23 24  1  0  0  0
 23 26  1  0  0  0
 24 25  2  0  0  0
 16 17  2  0  0  0
 16 18  1  0  0  0
 18  1  1  0  0  0
  1  2  1  0  0  0
  1  9  2  0  0  0
  2  3  2  0  0  0
  2  6  1  0  0  0
  3  4  1  0  0  0
  4  5  1  0  0  0
  5  6  2  0  0  0
  6  7  1  0  0  0
  7  8  2  0  0  0
  7 10  1  0  0  0
  8  9  1  0  0  0
 10 11  1  0  0  0
 10 15  1  0  0  0
 11 12  1  0  0  0
 12 13  1  0  0  0
 13 14  1  0  0  0
 14 15  1  0  0  0
 18 19  1  0  0  0
M  END
> <minimizedAffinity>
-8.34712

$$$$
95


 26 29  0  0  0  0  0  0  0  0999 V2000
   22.7726    9.7743   29.8174 C   0  0  0  0  0  0  0  0  0  0  0  0
   22.7544    9.6658   28.5487 O   0  0  0  0  0  0  0  0  0  0  0  0
   22.7515    8.7380   30.7199 N   0  0  0  0  0  0  0  0  0  0  0  0
   22.7003    7.8352   29.7020 H   0  0  0  0  0  0  0  0  0  0  0  0
   20.4062   13.8372   32.4019 Br  0  0  0  0  0  0  0  0  0  0  0  0
   21.8591   13.0576   31.4721 C   0  0  0  0  0  0  0  0  0  0  0  0
   21.7591   11.7373   31.0171 C   0  0  0  0  0  0  0  0  0  0  0  0
   22.8215   11.1897   30.3445 C   0  0  0  0  0  0  0  0  0  0  0  0
   23.9634   11.9114   30.1180 C   0  0  0  0  0  0  0  0  0  0  0  0
   24.0682   13.2374   30.5715 C   0  0  0  0  0  0  0  0  0  0  0  0
   22.9996   13.7895   31.2486 C   0  0  0  0  0  0  0  0  0  0  0  0
   25.0231   11.2789   29.4233 N   0  0  0  0  0  0  0  0  0  0  0  0
   25.3268   11.5302   28.1644 N   0  0  0  0  0  0  0  0  0  0  0  0
   26.3523   10.8026   27.7763 N   0  0  0  0  0  0  0  0  0  0  0  0
   26.7359   10.0544   28.7979 N   0  0  0  0  0  0  0  0  0  0  0  0
   25.9129   10.3522   29.8084 C   0  0  0  0  0  0  0  0  0  0  0  0
   22.7304    7.7073   31.6166 C   0  0  0  0  0  0  0  0  0  0  0  0
   21.3385    7.1725   31.9107 C   0  0  0  0  0  0  0  0  0  0  0  0
   20.3369    7.8851   32.4709 N   0  0  0  0  0  0  0  0  0  0  0  0
   19.2411    7.1251   32.5938 C   0  0  0  0  0  0  0  0  0  0  0  0
   19.5743    5.9227   32.0990 N   0  0  0  0  0  0  0  0  0  0  0  0
   20.8490    5.9488   31.6833 N   0  0  0  0  0  0  0  0  0  0  0  0
   18.0670    7.6499   33.1501 C   0  0  0  0  0  0  0  0  0  0  0  0
   18.0272    8.9488   33.5750 C   0  0  0  0  0  0  0  0  0  0  0  0
   19.1572    9.7321   33.4478 C   0  0  0  0  0  0  0  0  0  0  0  0
   20.3032    9.1807   32.8933 C   0  0  0  0  0  0  0  0  0  0  0  0
  5  6  1  0  0  0
  6  7  2  0  0  0
  6 11  1  0  0  0
  7  8  1  0  0  0
  8  9  2  0  0  0
  8  1  1  0  0  0
  9 10  1  0  0  0
  9 12  1  0  0  0
 10 11  2  0  0  0
 12 13  1  0  0  0
 12 16  1  0  0  0
 13 14  2  0  0  0
 14 15  1  0  0  0
 15 16  2  0  0  0
  1  2  2  0  0  0
  1  3  1  0  0  0
  3 17  1  0  0  0
 17 18  1  0  0  0
 18 19  1  0  0  0
 18 22  2  0  0  0
 19 20  1  0  0  0
 19 26  1  0  0  0
 20 21  2  0  0  0
 20 23  1  0  0  0
 21 22  1  0  0  0
 23 24  2  0  0  0
 24 25  1  0  0  0
 25 26  2  0  0  0
  3  4  1  0  0  0
M  END
> <minimizedAffinity>
-8.72125

$$$$
106


 29 32  0  0  0  0  0  0  0  0999 V2000
   21.5760    5.2072   32.0831 C   0  0  0  0  0  0  0  0  0  0  0  0
   21.1226    6.4090   32.3097 C   0  0  0  0  0  0  0  0  0  0  0  0
   21.8444    7.5734   32.0983 O   0  0  0  0  0  0  0  0  0  0  0  0
   21.1129    8.6995   32.4265 C   0  0  0  0  0  0  0  0  0  0  0  0
   19.8608    8.3482   32.8773 C   0  0  0  0  0  0  0  0  0  0  0  0
   18.9640    9.3230   33.2609 C   0  0  0  0  0  0  0  0  0  0  0  0
   19.3338   10.6494   33.1900 C   0  0  0  0  0  0  0  0  0  0  0  0
   20.6216   10.9823   32.7256 C   0  0  0  0  0  0  0  0  0  0  0  0
   21.5225   10.0377   32.3403 C   0  0  0  0  0  0  0  0  0  0  0  0
   20.8569   12.3663   32.7093 O   0  0  0  0  0  0  0  0  0  0  0  0
   19.8307    6.8831   32.8154 C   0  0  0  0  0  0  0  0  0  0  0  0
   18.8718    6.1471   33.1369 O   0  0  0  0  0  0  0  0  0  0  0  0
   25.4857    5.9586   28.4482 Br  0  0  0  0  0  0  0  0  0  0  0  0
   24.6844    5.1484   29.9746 C   0  0  0  0  0  0  0  0  0  0  0  0
   23.4537    5.4655   30.4730 C   0  0  0  0  0  0  0  0  0  0  0  0
   22.8951    4.8641   31.5794 C   0  0  0  0  0  0  0  0  0  0  0  0
   23.6531    3.8731   32.2106 C   0  0  0  0  0  0  0  0  0  0  0  0
   24.8924    3.5148   31.7563 C   0  0  0  0  0  0  0  0  0  0  0  0
   25.4043    4.1570   30.6350 C   0  0  0  0  0  0  0  0  0  0  0  0
   23.1138    3.2507   33.3196 O   0  0  0  0  0  0  0  0  0  0  0  0
   23.7970    2.1954   33.9434 C   0  0  0  0  0  0  0  0  0  0  0  0
   22.8404   10.3191   31.8411 C   0  0  0  0  0  0  0  0  0  0  0  0
   23.1900   10.1788   30.4871 N   0  0  0  0  0  0  0  0  0  0  0  0
   23.3957   11.4035   29.7627 C   0  0  0  0  0  0  0  0  0  0  0  0
   24.7651   12.0081   29.9506 C   0  0  0  0  0  0  0  0  0  0  0  0
   25.5430   11.3407   30.8867 O   0  0  0  0  0  0  0  0  0  0  0  0
   25.6628   10.0313   30.4337 C   0  0  0  0  0  0  0  0  0  0  0  0
   24.3638    9.3073   30.2972 C   0  0  0  0  0  0  0  0  0  0  0  0
   22.4412    9.6495   29.9947 H   0  0  0  0  0  0  0  0  0  0  0  0
 13 14  1  0  0  0
 14 15  2  0  0  0
 14 19  1  0  0  0
 15 16  1  0  0  0
 16 17  2  0  0  0
 16  1  1  0  0  0
 17 18  1  0  0  0
 17 20  1  0  0  0
 18 19  2  0  0  0
 20 21  1  0  0  0
  1  2  2  0  0  0
  2  3  1  0  0  0
  2 11  1  0  0  0
  3  4  1  0  0  0
  4  5  2  0  0  0
  4  9  1  0  0  0
  5  6  1  0  0  0
  5 11  1  0  0  0
  6  7  2  0  0  0
  7  8  1  0  0  0
  8  9  2  0  0  0
  8 10  1  0  0  0
  9 22  1  0  0  0
 22 23  1  0  0  0
 23 24  1  0  0  0
 23 28  1  0  0  0
 24 25  1  0  0  0
 25 26  1  0  0  0
 26 27  1  0  0  0
 27 28  1  0  0  0
 11 12  2  0  0  0
 23 29  1  0  0  0
M  CHG 1  10  -1
M  CHG 1  23   1
M  END
> <minimizedAffinity>
-9.27097

$$$$
107


 31 34  0  0  0  0  0  0  0  0999 V2000
   24.0948   11.1894   29.4914 C   0  0  0  0  0  0  0  0  0  0  0  0
   23.2111   12.0396   30.0574 N   0  0  0  0  0  0  0  0  0  0  0  0
   23.2257   13.3499   29.7873 C   0  0  0  0  0  0  0  0  0  0  0  0
   24.1479   13.8158   28.9307 N   0  0  0  0  0  0  0  0  0  0  0  0
   25.0670   13.0178   28.3242 C   0  0  0  0  0  0  0  0  0  0  0  0
   24.9926   11.6970   28.6466 N   0  0  0  0  0  0  0  0  0  0  0  0
   22.2968   14.2445   30.3836 N   0  0  0  0  0  0  0  0  0  0  0  0
   22.5366   15.6682   30.4678 C   0  0  0  0  0  0  0  0  0  0  0  0
   22.1252   16.2170   31.8256 C   0  0  0  0  0  0  0  0  0  0  0  0
   20.8765   15.7094   32.2017 O   0  0  0  0  0  0  0  0  0  0  0  0
   20.8979   14.3403   32.3193 C   0  0  0  0  0  0  0  0  0  0  0  0
   21.0568   13.7469   30.9361 C   0  0  0  0  0  0  0  0  0  0  0  0
   26.0310   13.5123   27.4273 N   0  0  0  0  0  0  0  0  0  0  0  0
   26.9509   12.6372   26.7639 C   0  0  0  0  0  0  0  0  0  0  0  0
   28.3536   13.1791   27.0307 C   0  0  0  0  0  0  0  0  0  0  0  0
   28.3708   14.4917   26.5919 O   0  0  0  0  0  0  0  0  0  0  0  0
   27.5729   15.3210   27.3443 C   0  0  0  0  0  0  0  0  0  0  0  0
   26.1089   14.9190   27.1629 C   0  0  0  0  0  0  0  0  0  0  0  0
   24.1071    9.7918   29.7557 N   0  0  0  0  0  0  0  0  0  0  0  0
   24.9889    9.2236   29.6342 H   0  0  0  0  0  0  0  0  0  0  0  0
   22.7855    8.7145   31.3909 C   0  0  0  0  0  0  0  0  0  0  0  0
   22.9762    9.0949   30.1842 N   0  0  0  0  0  0  0  0  0  0  0  0
   17.9087    8.8318   33.5519 Br  0  0  0  0  0  0  0  0  0  0  0  0
   19.4026    7.9349   32.7795 C   0  0  0  0  0  0  0  0  0  0  0  0
   20.5195    8.6328   32.3768 C   0  0  0  0  0  0  0  0  0  0  0  0
   21.5969    7.9866   31.8208 C   0  0  0  0  0  0  0  0  0  0  0  0
   21.5292    6.6179   31.6772 C   0  0  0  0  0  0  0  0  0  0  0  0
   20.4020    5.8979   32.0808 C   0  0  0  0  0  0  0  0  0  0  0  0
   19.3187    6.5551   32.6413 C   0  0  0  0  0  0  0  0  0  0  0  0
   22.6324    5.9896   31.1113 O   0  0  0  0  0  0  0  0  0  0  0  0
   22.9079    4.6151   31.2487 C   0  0  0  0  0  0  0  0  0  0  0  0
 23 24  1  0  0  0
 24 25  2  0  0  0
 24 29  1  0  0  0
 25 26  1  0  0  0
 26 27  2  0  0  0
 26 21  1  0  0  0
 27 28  1  0  0  0
 27 30  1  0  0  0
 28 29  2  0  0  0
 30 31  1  0  0  0
 21 22  2  0  0  0
 22 19  1  0  0  0
 19  1  1  0  0  0
  1  2  2  0  0  0
  1  6  1  0  0  0
  2  3  1  0  0  0
  3  4  2  0  0  0
  3  7  1  0  0  0
  4  5  1  0  0  0
  5  6  2  0  0  0
  5 13  1  0  0  0
 13 14  1  0  0  0
 13 18  1  0  0  0
 14 15  1  0  0  0
 15 16  1  0  0  0
 16 17  1  0  0  0
 17 18  1  0  0  0
  7  8  1  0  0  0
  7 12  1  0  0  0
  8  9  1  0  0  0
  9 10  1  0  0  0
 10 11  1  0  0  0
 11 12  1  0  0  0
 19 20  1  0  0  0
M  END
> <minimizedAffinity>
-8.60334

$$$$
111


 29 32  0  0  0  0  0  0  0  0999 V2000
   21.3783    9.5038   32.0795 C   0  0  0  0  0  0  0  0  0  0  0  0
   21.7724   10.6756   31.6304 N   0  0  0  0  0  0  0  0  0  0  0  0
   21.1402   11.6863   32.3067 C   0  0  0  0  0  0  0  0  0  0  0  0
   20.3199   11.0906   33.2020 N   0  0  0  0  0  0  0  0  0  0  0  0
   20.4472    9.8131   33.0805 N   0  0  0  0  0  0  0  0  0  0  0  0
   21.5507   12.8671   31.8385 N   0  0  0  0  0  0  0  0  0  0  0  0
   22.4385   12.6156   30.8629 C   0  0  0  0  0  0  0  0  0  0  0  0
   22.5929   11.2424   30.7094 C   0  0  0  0  0  0  0  0  0  0  0  0
   23.3903   10.7112   29.8025 N   0  0  0  0  0  0  0  0  0  0  0  0
   24.0829   11.5826   29.0040 C   0  0  0  0  0  0  0  0  0  0  0  0
   24.8717   11.1854   28.1094 O   0  0  0  0  0  0  0  0  0  0  0  0
   23.9615   12.9212   29.1272 N   0  0  0  0  0  0  0  0  0  0  0  0
   23.1563   13.4584   30.0359 C   0  0  0  0  0  0  0  0  0  0  0  0
   22.9997   14.6950   30.1995 O   0  0  0  0  0  0  0  0  0  0  0  0
   23.5913    9.3318   29.4759 C   0  0  0  0  0  0  0  0  0  0  0  0
   24.4963   13.5706   28.5130 H   0  0  0  0  0  0  0  0  0  0  0  0
   24.7059    5.4673   30.9414 Br  0  0  0  0  0  0  0  0  0  0  0  0
   22.9654    6.1471   31.3236 C   0  0  0  0  0  0  0  0  0  0  0  0
   22.7966    7.4809   31.5572 C   0  0  0  0  0  0  0  0  0  0  0  0
   21.6224    8.1098   31.8409 C   0  0  0  0  0  0  0  0  0  0  0  0
   20.5199    7.2252   31.8786 C   0  0  0  0  0  0  0  0  0  0  0  0
   20.6426    5.8757   31.6492 C   0  0  0  0  0  0  0  0  0  0  0  0
   21.8813    5.3213   31.3665 C   0  0  0  0  0  0  0  0  0  0  0  0
   19.2649    7.7385   32.1566 O   0  0  0  0  0  0  0  0  0  0  0  0
   18.2399    7.0244   32.7742 C   0  0  0  0  0  0  0  0  0  0  0  0
   21.1405   14.1696   32.2745 C   0  0  0  0  0  0  0  0  0  0  0  0
   19.6700   14.3636   31.9686 C   0  0  0  0  0  0  0  0  0  0  0  0
   19.5143   15.5891   31.3515 O   0  0  0  0  0  0  0  0  0  0  0  0
   18.3384   15.6364   30.5828 C   0  0  0  0  0  0  0  0  0  0  0  0
 17 18  1  0  0  0
 18 19  2  0  0  0
 18 23  1  0  0  0
 19 20  1  0  0  0
 20 21  2  0  0  0
 20  1  1  0  0  0
 21 22  1  0  0  0
 21 24  1  0  0  0
 22 23  2  0  0  0
 24 25  1  0  0  0
  1  2  1  0  0  0
  1  5  2  0  0  0
  2  3  1  0  0  0
  2  8  1  0  0  0
  3  4  2  0  0  0
  3  6  1  0  0  0
  4  5  1  0  0  0
  6  7  1  0  0  0
  6 26  1  0  0  0
  7  8  2  0  0  0
  7 13  1  0  0  0
  8  9  1  0  0  0
  9 10  1  0  0  0
  9 15  1  0  0  0
 10 11  2  0  0  0
 10 12  1  0  0  0
 12 13  1  0  0  0
 13 14  2  0  0  0
 26 27  1  0  0  0
 27 28  1  0  0  0
 28 29  1  0  0  0
 12 16  1  0  0  0
M  END
> <minimizedAffinity>
-8.79977

$$$$
127


 29 32  0  0  0  0  0  0  0  0999 V2000
   24.3281    9.8987   30.9252 N   0  0  0  0  0  0  0  0  0  0  0  0
   24.5348   10.8000   31.9971 C   0  0  0  0  0  0  0  0  0  0  0  0
   24.4341   12.2396   31.6662 C   0  0  0  0  0  0  0  0  0  0  0  0
   23.2128   12.5295   30.9858 N   0  0  0  0  0  0  0  0  0  0  0  0
   22.5315   11.4590   30.3162 C   0  0  0  0  0  0  0  0  0  0  0  0
   23.4349   10.3203   29.9031 C   0  0  0  0  0  0  0  0  0  0  0  0
   22.6682   13.8396   30.9278 C   0  0  0  0  0  0  0  0  0  0  0  0
   23.0036   14.6104   29.8951 C   0  0  0  0  0  0  0  0  0  0  0  0
   23.8248   14.4558   28.7513 N   0  0  0  0  0  0  0  0  0  0  0  0
   23.7307   15.6849   28.0595 N   0  0  0  0  0  0  0  0  0  0  0  0
   22.8731   16.5516   28.7768 C   0  0  0  0  0  0  0  0  0  0  0  0
   22.4133   15.9668   29.8723 C   0  0  0  0  0  0  0  0  0  0  0  0
   21.5411   16.3801   30.9185 N   0  0  0  0  0  0  0  0  0  0  0  0
   21.2481   15.5949   31.8952 C   0  0  0  0  0  0  0  0  0  0  0  0
   21.7796   14.2931   31.9699 N   0  0  0  0  0  0  0  0  0  0  0  0
   22.4982   17.9414   28.4031 C   0  0  0  0  0  0  0  0  0  0  0  0
   24.5907   13.2915   28.3780 C   0  0  0  0  0  0  0  0  0  0  0  0
   24.2419   15.8530   27.1679 H   0  0  0  0  0  0  0  0  0  0  0  0
   21.5742   13.6267   32.7340 H   0  0  0  0  0  0  0  0  0  0  0  0
   24.3150    8.5251   31.2447 C   0  0  0  0  0  0  0  0  0  0  0  0
   23.2382    7.7696   30.6022 C   0  0  0  0  0  0  0  0  0  0  0  0
   23.3725    7.4129   29.4034 O   0  0  0  0  0  0  0  0  0  0  0  0
   19.1052    9.5666   33.4672 Br  0  0  0  0  0  0  0  0  0  0  0  0
   20.1439    8.1813   32.6784 C   0  0  0  0  0  0  0  0  0  0  0  0
   21.2900    8.4481   31.9403 C   0  0  0  0  0  0  0  0  0  0  0  0
   22.0390    7.4521   31.3706 C   0  0  0  0  0  0  0  0  0  0  0  0
   21.6445    6.1444   31.5342 C   0  0  0  0  0  0  0  0  0  0  0  0
   20.5133    5.8744   32.2621 C   0  0  0  0  0  0  0  0  0  0  0  0
   19.7447    6.8733   32.8455 C   0  0  0  0  0  0  0  0  0  0  0  0
 23 24  1  0  0  0
 24 25  2  0  0  0
 24 29  1  0  0  0
 25 26  1  0  0  0
 26 27  2  0  0  0
 26 21  1  0  0  0
 27 28  1  0  0  0
 28 29  2  0  0  0
 21 22  2  0  0  0
 21 20  1  0  0  0
 20  1  1  0  0  0
  1  2  1  0  0  0
  1  6  1  0  0  0
  2  3  1  0  0  0
  3  4  1  0  0  0
  4  5  1  0  0  0
  4  7  1  0  0  0
  5  6  1  0  0  0
  7  8  2  0  0  0
  7 15  1  0  0  0
  8  9  1  0  0  0
  8 12  1  0  0  0
  9 10  1  0  0  0
  9 17  1  0  0  0
 10 11  1  0  0  0
 11 12  2  0  0  0
 11 16  1  0  0  0
 12 13  1  0  0  0
 13 14  2  0  0  0
 14 15  1  0  0  0
 10 18  1  0  0  0
 15 19  1  0  0  0
M  END
> <minimizedAffinity>
-9.43867

$$$$
129


 31 34  0  0  0  0  0  0  0  0999 V2000
   23.3149    6.5990   30.0853 C   0  0  0  0  0  0  0  0  0  0  0  0
   22.9052    7.2412   29.0681 O   0  0  0  0  0  0  0  0  0  0  0  0
   24.6363    6.0679   30.1212 N   0  0  0  0  0  0  0  0  0  0  0  0
   25.0939    5.1956   31.1726 C   0  0  0  0  0  0  0  0  0  0  0  0
   25.3363    3.8596   30.4302 C   0  0  0  0  0  0  0  0  0  0  0  0
   26.5976    4.0866   29.6409 C   0  0  0  0  0  0  0  0  0  0  0  0
   26.6653    3.0117   28.6524 N   0  0  0  0  0  0  0  0  0  0  0  0
   26.6334    1.7188   29.2267 C   0  0  0  0  0  0  0  0  0  0  0  0
   27.8324    1.4287   30.1110 C   0  0  0  0  0  0  0  0  0  0  0  0
   28.3030    2.6386   30.8110 C   0  0  0  0  0  0  0  0  0  0  0  0
   29.2856    2.7676   31.7182 N   0  0  0  0  0  0  0  0  0  0  0  0
   29.3459    4.0728   32.0627 C   0  0  0  0  0  0  0  0  0  0  0  0
   28.3934    4.7382   31.3613 N   0  0  0  0  0  0  0  0  0  0  0  0
   27.7256    3.8713   30.5753 C   0  0  0  0  0  0  0  0  0  0  0  0
   26.6740    5.3852   28.9185 C   0  0  0  0  0  0  0  0  0  0  0  0
   25.5681    6.3694   29.0943 C   0  0  0  0  0  0  0  0  0  0  0  0
   27.4650    3.1419   27.9814 H   0  0  0  0  0  0  0  0  0  0  0  0
   28.2934    5.7642   31.4964 H   0  0  0  0  0  0  0  0  0  0  0  0
   22.3670    6.4304   31.1771 C   0  0  0  0  0  0  0  0  0  0  0  0
   21.4526    5.2512   30.8856 C   0  0  0  0  0  0  0  0  0  0  0  0
   22.3283    8.7857   31.9942 C   0  0  0  0  0  0  0  0  0  0  0  0
   23.5119    9.0579   32.0963 O   0  0  0  0  0  0  0  0  0  0  0  0
   21.7013    7.6208   31.5623 N   0  0  0  0  0  0  0  0  0  0  0  0
   20.6425    7.6093   31.4547 H   0  0  0  0  0  0  0  0  0  0  0  0
   21.3053   14.0055   32.0066 Br  0  0  0  0  0  0  0  0  0  0  0  0
   20.8600   12.1903   32.4742 C   0  0  0  0  0  0  0  0  0  0  0  0
   21.6892   11.1661   32.0825 C   0  0  0  0  0  0  0  0  0  0  0  0
   21.3606    9.8685   32.4108 C   0  0  0  0  0  0  0  0  0  0  0  0
   20.2329    9.5966   33.1171 C   0  0  0  0  0  0  0  0  0  0  0  0
   19.4226   10.6300   33.5000 C   0  0  0  0  0  0  0  0  0  0  0  0
   19.7044   11.9627   33.1922 C   0  0  0  0  0  0  0  0  0  0  0  0
 25 26  1  0  0  0
 26 27  2  0  0  0
 26 31  1  0  0  0
 27 28  1  0  0  0
 28 29  2  0  0  0
 28 21  1  0  0  0
 29 30  1  0  0  0
 30 31  2  0  0  0
 21 22  2  0  0  0
 21 23  1  0  0  0
 23 19  1  0  0  0
 19 20  1  0  0  0
 19  1  1  0  0  0
  1  2  2  0  0  0
  1  3  1  0  0  0
  3  4  1  0  0  0
  3 16  1  0  0  0
  4  5  1  0  0  0
  5  6  1  0  0  0
  6  7  1  0  0  0
  6 14  1  0  0  0
  6 15  1  0  0  0
  7  8  1  0  0  0
  8  9  1  0  0  0
  9 10  1  0  0  0
 10 11  1  0  0  0
 10 14  2  0  0  0
 11 12  2  0  0  0
 12 13  1  0  0  0
 13 14  1  0  0  0
 15 16  1  0  0  0
 23 24  1  0  0  0
  7 17  1  0  0  0
 13 18  1  0  0  0
M  END
> <minimizedAffinity>
-8.32589

$$$$
130


 30 33  0  0  0  0  0  0  0  0999 V2000
   23.4790    9.6459   30.0669 C   0  0  0  0  0  0  0  0  0  0  0  0
   22.3998    9.2114   29.5298 O   0  0  0  0  0  0  0  0  0  0  0  0
   23.4501   10.5627   31.1263 N   0  0  0  0  0  0  0  0  0  0  0  0
   24.6316   11.0715   31.7460 C   0  0  0  0  0  0  0  0  0  0  0  0
   24.4951   12.5078   32.1651 C   0  0  0  0  0  0  0  0  0  0  0  0
   23.4184   13.2826   31.4373 C   0  0  0  0  0  0  0  0  0  0  0  0
   23.2916   14.5097   32.2117 N   0  0  0  0  0  0  0  0  0  0  0  0
   22.4949   15.5272   31.6406 C   0  0  0  0  0  0  0  0  0  0  0  0
   22.2017   15.4481   30.1873 C   0  0  0  0  0  0  0  0  0  0  0  0
   23.2761   14.7187   29.4444 C   0  0  0  0  0  0  0  0  0  0  0  0
   23.8011   14.9017   28.2336 N   0  0  0  0  0  0  0  0  0  0  0  0
   24.7398   13.9427   28.0911 C   0  0  0  0  0  0  0  0  0  0  0  0
   24.7954   13.1732   29.2001 N   0  0  0  0  0  0  0  0  0  0  0  0
   23.8662   13.6536   30.0762 C   0  0  0  0  0  0  0  0  0  0  0  0
   22.0938   12.5673   31.3656 C   0  0  0  0  0  0  0  0  0  0  0  0
   22.1937   11.0808   31.6557 C   0  0  0  0  0  0  0  0  0  0  0  0
   22.9022   14.1823   33.1422 H   0  0  0  0  0  0  0  0  0  0  0  0
   25.4292   12.3696   29.3460 H   0  0  0  0  0  0  0  0  0  0  0  0
   24.7443    9.0907   29.4645 C   0  0  0  0  0  0  0  0  0  0  0  0
   24.6562    6.3897   29.2780 C   0  0  0  0  0  0  0  0  0  0  0  0
   25.1688    5.6334   28.3796 O   0  0  0  0  0  0  0  0  0  0  0  0
   24.6990    7.7087   29.3691 N   0  0  0  0  0  0  0  0  0  0  0  0
   25.4322    7.7794   28.1979 H   0  0  0  0  0  0  0  0  0  0  0  0
   20.3697    5.9660   32.4317 Br  0  0  0  0  0  0  0  0  0  0  0  0
   22.0473    5.3546   31.8213 C   0  0  0  0  0  0  0  0  0  0  0  0
   22.7018    6.0472   30.8143 C   0  0  0  0  0  0  0  0  0  0  0  0
   23.9182    5.6266   30.3459 C   0  0  0  0  0  0  0  0  0  0  0  0
   24.5442    4.5202   30.8363 C   0  0  0  0  0  0  0  0  0  0  0  0
   23.8912    3.8163   31.8529 C   0  0  0  0  0  0  0  0  0  0  0  0
   22.6638    4.2378   32.3289 C   0  0  0  0  0  0  0  0  0  0  0  0
 24 25  1  0  0  0
 25 26  2  0  0  0
 25 30  1  0  0  0
 26 27  1  0  0  0
 27 28  2  0  0  0
 27 20  1  0  0  0
 28 29  1  0  0  0
 29 30  2  0  0  0
 20 21  2  0  0  0
 20 22  1  0  0  0
 22 19  1  0  0  0
 19  1  1  0  0  0
  1  2  2  0  0  0
  1  3  1  0  0  0
  3  4  1  0  0  0
  3 16  1  0  0  0
  4  5  1  0  0  0
  5  6  1  0  0  0
  6  7  1  0  0  0
  6 14  1  0  0  0
  6 15  1  0  0  0
  7  8  1  0  0  0
  8  9  1  0  0  0
  9 10  1  0  0  0
 10 11  1  0  0  0
 10 14  2  0  0  0
 11 12  2  0  0  0
 12 13  1  0  0  0
 13 14  1  0  0  0
 15 16  1  0  0  0
 22 23  1  0  0  0
  7 17  1  0  0  0
 13 18  1  0  0  0
M  END
> <minimizedAffinity>
-8.40053

$$$$
131


 30 33  0  0  0  0  0  0  0  0999 V2000
   24.7402    7.8823   29.8548 C   0  0  0  0  0  0  0  0  0  0  0  0
   25.7825    8.2421   29.2541 O   0  0  0  0  0  0  0  0  0  0  0  0
   24.1622    8.7409   30.8027 N   0  0  0  0  0  0  0  0  0  0  0  0
   22.9668    8.3974   31.5321 C   0  0  0  0  0  0  0  0  0  0  0  0
   21.9001    9.3873   31.1172 C   0  0  0  0  0  0  0  0  0  0  0  0
   22.4337   10.7941   31.2458 C   0  0  0  0  0  0  0  0  0  0  0  0
   22.4462   11.3900   29.9267 N   0  0  0  0  0  0  0  0  0  0  0  0
   22.8067   12.7642   29.8935 C   0  0  0  0  0  0  0  0  0  0  0  0
   22.2842   13.6280   30.9823 C   0  0  0  0  0  0  0  0  0  0  0  0
   21.3611   12.9517   31.9177 C   0  0  0  0  0  0  0  0  0  0  0  0
   20.3788   13.4207   32.7468 N   0  0  0  0  0  0  0  0  0  0  0  0
   19.8634   12.3548   33.3712 C   0  0  0  0  0  0  0  0  0  0  0  0
   20.4970   11.2476   32.9514 N   0  0  0  0  0  0  0  0  0  0  0  0
   21.4438   11.5829   32.0393 C   0  0  0  0  0  0  0  0  0  0  0  0
   23.7837   10.8874   31.8806 C   0  0  0  0  0  0  0  0  0  0  0  0
   24.7615   10.0206   31.0812 C   0  0  0  0  0  0  0  0  0  0  0  0
   23.1341   10.8575   29.3317 H   0  0  0  0  0  0  0  0  0  0  0  0
   20.1148   14.4448   32.8413 H   0  0  0  0  0  0  0  0  0  0  0  0
   24.1885    6.5463   29.5063 C   0  0  0  0  0  0  0  0  0  0  0  0
   23.8403    4.6907   31.1477 C   0  0  0  0  0  0  0  0  0  0  0  0
   22.6024    4.8865   31.0417 O   0  0  0  0  0  0  0  0  0  0  0  0
   24.6980    5.5133   30.3825 N   0  0  0  0  0  0  0  0  0  0  0  0
   25.7246    5.3705   30.4535 H   0  0  0  0  0  0  0  0  0  0  0  0
   27.7975    1.4492   32.6340 Br  0  0  0  0  0  0  0  0  0  0  0  0
   26.0358    2.1201   32.8149 C   0  0  0  0  0  0  0  0  0  0  0  0
   25.6001    3.1131   31.9562 C   0  0  0  0  0  0  0  0  0  0  0  0
   24.3268    3.6454   32.0365 C   0  0  0  0  0  0  0  0  0  0  0  0
   23.4783    3.1503   33.0163 C   0  0  0  0  0  0  0  0  0  0  0  0
   23.9178    2.1634   33.8666 C   0  0  0  0  0  0  0  0  0  0  0  0
   25.1825    1.6222   33.8010 C   0  0  0  0  0  0  0  0  0  0  0  0
 24 25  1  0  0  0
 25 26  2  0  0  0
 25 30  1  0  0  0
 26 27  1  0  0  0
 27 28  2  0  0  0
 27 20  1  0  0  0
 28 29  1  0  0  0
 29 30  2  0  0  0
 20 21  2  0  0  0
 20 22  1  0  0  0
 22 19  1  0  0  0
 19  1  1  0  0  0
  1  2  2  0  0  0
  1  3  1  0  0  0
  3  4  1  0  0  0
  3 16  1  0  0  0
  4  5  1  0  0  0
  5  6  1  0  0  0
  6  7  1  0  0  0
  6 14  1  0  0  0
  6 15  1  0  0  0
  7  8  1  0  0  0
  8  9  1  0  0  0
  9 10  1  0  0  0
 10 11  1  0  0  0
 10 14  2  0  0  0
 11 12  1  0  0  0
 12 13  2  0  0  0
 13 14  1  0  0  0
 15 16  1  0  0  0
 22 23  1  0  0  0
  7 17  1  0  0  0
 11 18  1  0  0  0
M  END
> <minimizedAffinity>
-8.89877

$$$$
136


 30 33  0  0  0  0  0  0  0  0999 V2000
   23.6082    6.8332   30.6372 C   0  0  0  0  0  0  0  0  0  0  0  0
   24.4142    8.0120   31.1479 C   0  0  0  0  0  0  0  0  0  0  0  0
   23.4009    9.0253   31.3687 N   0  0  0  0  0  0  0  0  0  0  0  0
   22.0707    8.4692   31.2262 C   0  0  0  0  0  0  0  0  0  0  0  0
   22.3359    6.9707   31.4245 C   0  0  0  0  0  0  0  0  0  0  0  0
   21.2218    9.0141   32.2844 C   0  0  0  0  0  0  0  0  0  0  0  0
   20.5689    8.2762   33.0369 O   0  0  0  0  0  0  0  0  0  0  0  0
   21.1640   10.4243   32.4277 N   0  0  0  0  0  0  0  0  0  0  0  0
   22.2864   11.2294   32.0015 C   0  0  0  0  0  0  0  0  0  0  0  0
   23.4866   10.4215   31.6887 C   0  0  0  0  0  0  0  0  0  0  0  0
   24.6233   10.9629   31.7005 O   0  0  0  0  0  0  0  0  0  0  0  0
   20.3357   10.9146   32.8345 H   0  0  0  0  0  0  0  0  0  0  0  0
   24.9204    4.9512   29.7896 C   0  0  0  0  0  0  0  0  0  0  0  0
   24.8702    5.5059   28.6306 O   0  0  0  0  0  0  0  0  0  0  0  0
   24.2900    5.5756   30.8848 N   0  0  0  0  0  0  0  0  0  0  0  0
   24.3220    5.1341   31.8139 H   0  0  0  0  0  0  0  0  0  0  0  0
   27.4610    0.9660   27.3564 Br  0  0  0  0  0  0  0  0  0  0  0  0
   26.7947    1.8552   28.9142 C   0  0  0  0  0  0  0  0  0  0  0  0
   26.1200    3.0386   28.7952 C   0  0  0  0  0  0  0  0  0  0  0  0
   25.6323    3.6913   29.9209 C   0  0  0  0  0  0  0  0  0  0  0  0
   25.8481    3.1200   31.1358 C   0  0  0  0  0  0  0  0  0  0  0  0
   26.5336    1.9203   31.2458 C   0  0  0  0  0  0  0  0  0  0  0  0
   27.0135    1.2769   30.1317 C   0  0  0  0  0  0  0  0  0  0  0  0
   21.9281   12.1753   30.8751 C   0  0  0  0  0  0  0  0  0  0  0  0
   21.7940   13.5747   31.3120 C   0  0  0  0  0  0  0  0  0  0  0  0
   22.8701   14.2193   31.8951 C   0  0  0  0  0  0  0  0  0  0  0  0
   22.7528   15.5270   32.3061 C   0  0  0  0  0  0  0  0  0  0  0  0
   21.5845   16.2515   32.1642 C   0  0  0  0  0  0  0  0  0  0  0  0
   20.5101   15.6119   31.5836 C   0  0  0  0  0  0  0  0  0  0  0  0
   20.6095   14.2992   31.1648 C   0  0  0  0  0  0  0  0  0  0  0  0
 17 18  1  0  0  0
 18 19  2  0  0  0
 18 23  1  0  0  0
 19 20  1  0  0  0
 20 21  2  0  0  0
 20 13  1  0  0  0
 21 22  1  0  0  0
 22 23  2  0  0  0
 13 14  2  0  0  0
 13 15  1  0  0  0
 15  1  1  0  0  0
  1  2  1  0  0  0
  1  5  1  0  0  0
  2  3  1  0  0  0
  3  4  1  0  0  0
  3 10  1  0  0  0
  4  5  1  0  0  0
  4  6  1  0  0  0
  6  7  2  0  0  0
  6  8  1  0  0  0
  8  9  1  0  0  0
  9 10  1  0  0  0
  9 24  1  0  0  0
 10 11  2  0  0  0
 24 25  1  0  0  0
 25 26  2  0  0  0
 25 30  1  0  0  0
 26 27  1  0  0  0
 27 28  2  0  0  0
 28 29  1  0  0  0
 29 30  2  0  0  0
 15 16  1  0  0  0
  8 12  1  0  0  0
M  END
> <minimizedAffinity>
-8.33437

$$$$
137


 25 28  0  0  0  0  0  0  0  0999 V2000
   23.1805   11.3803   31.5526 C   0  0  0  0  0  0  0  0  0  0  0  0
   22.9665   11.8535   30.0675 C   0  0  0  0  0  0  0  0  0  0  0  0
   24.2896   11.9345   29.5494 N   0  0  0  0  0  0  0  0  0  0  0  0
   25.1738   11.1175   30.3677 C   0  0  0  0  0  0  0  0  0  0  0  0
   24.2699   10.3172   31.2127 C   0  0  0  0  0  0  0  0  0  0  0  0
   26.1274   10.3892   29.5158 C   0  0  0  0  0  0  0  0  0  0  0  0
   26.4165    9.2114   29.7905 O   0  0  0  0  0  0  0  0  0  0  0  0
   26.7112   11.0219   28.3954 N   0  0  0  0  0  0  0  0  0  0  0  0
   25.9610   12.0205   27.6665 C   0  0  0  0  0  0  0  0  0  0  0  0
   26.9888   13.0116   27.1590 C   0  0  0  0  0  0  0  0  0  0  0  0
   28.3046   12.4339   27.5473 C   0  0  0  0  0  0  0  0  0  0  0  0
   27.9959   10.9377   27.7084 C   0  0  0  0  0  0  0  0  0  0  0  0
   24.8837   12.6156   28.4502 C   0  0  0  0  0  0  0  0  0  0  0  0
   24.4487   13.7832   28.1546 O   0  0  0  0  0  0  0  0  0  0  0  0
   20.9110   10.5165   32.7352 C   0  0  0  0  0  0  0  0  0  0  0  0
   20.0872   11.1443   33.4695 O   0  0  0  0  0  0  0  0  0  0  0  0
   22.0647   10.9529   32.1322 N   0  0  0  0  0  0  0  0  0  0  0  0
   21.8523   12.2007   32.6755 H   0  0  0  0  0  0  0  0  0  0  0  0
   22.2162    5.5011   31.2720 Br  0  0  0  0  0  0  0  0  0  0  0  0
   20.9968    6.8181   31.8972 C   0  0  0  0  0  0  0  0  0  0  0  0
   21.3565    8.1314   32.0755 C   0  0  0  0  0  0  0  0  0  0  0  0
   20.4804    9.0783   32.5474 C   0  0  0  0  0  0  0  0  0  0  0  0
   19.1968    8.7053   32.8535 C   0  0  0  0  0  0  0  0  0  0  0  0
   18.7909    7.3869   32.6883 C   0  0  0  0  0  0  0  0  0  0  0  0
   19.6874    6.4697   32.2160 C   0  0  0  0  0  0  0  0  0  0  0  0
 19 20  1  0  0  0
 20 21  2  0  0  0
 20 25  1  0  0  0
 21 22  1  0  0  0
 22 23  2  0  0  0
 22 15  1  0  0  0
 23 24  1  0  0  0
 24 25  2  0  0  0
 15 16  2  0  0  0
 15 17  1  0  0  0
 17  1  1  0  0  0
  1  2  1  0  0  0
  1  5  1  0  0  0
  2  3  1  0  0  0
  3  4  1  0  0  0
  3 13  1  0  0  0
  4  5  1  0  0  0
  4  6  1  0  0  0
  6  7  2  0  0  0
  6  8  1  0  0  0
  8  9  1  0  0  0
  8 12  1  0  0  0
  9 10  1  0  0  0
  9 13  1  0  0  0
 10 11  1  0  0  0
 11 12  1  0  0  0
 13 14  2  0  0  0
 17 18  1  0  0  0
M  END
> <minimizedAffinity>
-8.74488

$$$$
138


 25 28  0  0  0  0  0  0  0  0999 V2000
   23.3051    6.2457   30.4243 C   0  0  0  0  0  0  0  0  0  0  0  0
   24.2507    5.5473   31.3437 C   0  0  0  0  0  0  0  0  0  0  0  0
   25.3194    5.0978   30.4347 N   0  0  0  0  0  0  0  0  0  0  0  0
   25.1727    5.7728   29.1535 C   0  0  0  0  0  0  0  0  0  0  0  0
   24.2913    6.9410   29.4738 C   0  0  0  0  0  0  0  0  0  0  0  0
   26.5059    6.1347   28.6803 C   0  0  0  0  0  0  0  0  0  0  0  0
   26.7002    7.1867   28.0597 O   0  0  0  0  0  0  0  0  0  0  0  0
   27.6112    5.2575   28.9379 N   0  0  0  0  0  0  0  0  0  0  0  0
   27.2773    3.9428   29.4292 C   0  0  0  0  0  0  0  0  0  0  0  0
   28.5007    3.1853   29.7449 C   0  0  0  0  0  0  0  0  0  0  0  0
   29.5672    3.9676   29.0042 C   0  0  0  0  0  0  0  0  0  0  0  0
   29.0346    5.3493   28.8295 C   0  0  0  0  0  0  0  0  0  0  0  0
   26.3877    4.1736   30.6197 C   0  0  0  0  0  0  0  0  0  0  0  0
   26.5775    3.5864   31.7084 O   0  0  0  0  0  0  0  0  0  0  0  0
   21.1854    6.6943   31.5742 C   0  0  0  0  0  0  0  0  0  0  0  0
   20.8886    5.4517   31.4848 O   0  0  0  0  0  0  0  0  0  0  0  0
   22.4123    7.1518   31.0458 N   0  0  0  0  0  0  0  0  0  0  0  0
   22.6494    8.1576   31.1204 H   0  0  0  0  0  0  0  0  0  0  0  0
   19.8148   11.4722   33.5589 Br  0  0  0  0  0  0  0  0  0  0  0  0
   19.4812    9.6446   33.1562 C   0  0  0  0  0  0  0  0  0  0  0  0
   20.4080    8.8478   32.5346 C   0  0  0  0  0  0  0  0  0  0  0  0
   20.1935    7.5265   32.2326 C   0  0  0  0  0  0  0  0  0  0  0  0
   18.9739    6.9991   32.5834 C   0  0  0  0  0  0  0  0  0  0  0  0
   17.9974    7.7795   33.2204 C   0  0  0  0  0  0  0  0  0  0  0  0
   18.2605    9.1098   33.5058 C   0  0  0  0  0  0  0  0  0  0  0  0
 19 20  1  0  0  0
 20 21  2  0  0  0
 20 25  1  0  0  0
 21 22  1  0  0  0
 22 23  2  0  0  0
 22 15  1  0  0  0
 23 24  1  0  0  0
 24 25  2  0  0  0
 15 16  2  0  0  0
 15 17  1  0  0  0
 17  1  1  0  0  0
  1  2  1  0  0  0
  1  5  1  0  0  0
  2  3  1  0  0  0
  3  4  1  0  0  0
  3 13  1  0  0  0
  4  5  1  0  0  0
  4  6  1  0  0  0
  6  7  2  0  0  0
  6  8  1  0  0  0
  8  9  1  0  0  0
  8 12  1  0  0  0
  9 10  1  0  0  0
  9 13  1  0  0  0
 10 11  1  0  0  0
 11 12  1  0  0  0
 13 14  2  0  0  0
 17 18  1  0  0  0
M  END
> <minimizedAffinity>
-8.34975

$$$$
141


 23 26  0  0  0  0  0  0  0  0999 V2000
   22.2547   12.3059   31.0674 N   0  0  0  0  0  0  0  0  0  0  0  0
   23.4815   12.8971   31.5373 C   0  0  0  0  0  0  0  0  0  0  0  0
   24.5052   12.3059   32.0057 O   0  0  0  0  0  0  0  0  0  0  0  0
   23.3791   14.3367   31.3930 C   0  0  0  0  0  0  0  0  0  0  0  0
   22.2426   14.5892   30.3827 C   0  0  0  0  0  0  0  0  0  0  0  0
   21.4946   15.7749   30.8988 C   0  0  0  0  0  0  0  0  0  0  0  0
   22.5157   16.3966   31.8724 C   0  0  0  0  0  0  0  0  0  0  0  0
   22.7730   15.0544   32.5905 C   0  0  0  0  0  0  0  0  0  0  0  0
   21.3597   14.6275   32.7992 C   0  0  0  0  0  0  0  0  0  0  0  0
   20.5412   15.2610   31.9486 C   0  0  0  0  0  0  0  0  0  0  0  0
   21.4160   13.3470   30.6495 C   0  0  0  0  0  0  0  0  0  0  0  0
   20.1734   13.2920   30.5100 O   0  0  0  0  0  0  0  0  0  0  0  0
   21.3375   10.1966   32.0546 C   0  0  0  0  0  0  0  0  0  0  0  0
   20.7807   10.7808   33.0006 O   0  0  0  0  0  0  0  0  0  0  0  0
   22.0675   10.9098   31.0881 N   0  0  0  0  0  0  0  0  0  0  0  0
   22.5068   10.3117   30.3183 H   0  0  0  0  0  0  0  0  0  0  0  0
   23.5297    5.6992   30.4127 Br  0  0  0  0  0  0  0  0  0  0  0  0
   22.1275    6.6470   31.2843 C   0  0  0  0  0  0  0  0  0  0  0  0
   22.2081    8.0151   31.3651 C   0  0  0  0  0  0  0  0  0  0  0  0
   21.2063    8.7546   31.9889 C   0  0  0  0  0  0  0  0  0  0  0  0
   20.1467    8.0841   32.5163 C   0  0  0  0  0  0  0  0  0  0  0  0
   20.0713    6.7114   32.4322 C   0  0  0  0  0  0  0  0  0  0  0  0
   21.0460    5.9600   31.8226 C   0  0  0  0  0  0  0  0  0  0  0  0
 17 18  1  0  0  0
 18 19  2  0  0  0
 18 23  1  0  0  0
 19 20  1  0  0  0
 20 21  2  0  0  0
 20 13  1  0  0  0
 21 22  1  0  0  0
 22 23  2  0  0  0
 13 14  2  0  0  0
 13 15  1  0  0  0
 15  1  1  0  0  0
  1  2  1  0  0  0
  1 11  1  0  0  0
  2  3  2  0  0  0
  2  4  1  0  0  0
  4  5  1  0  0  0
  4  8  1  0  0  0
  5  6  1  0  0  0
  5 11  1  0  0  0
  6  7  1  0  0  0
  6 10  1  0  0  0
  7  8  1  0  0  0
  8  9  1  0  0  0
  9 10  2  0  0  0
 11 12  2  0  0  0
 15 16  1  0  0  0
M  END
> <minimizedAffinity>
-8.18411

$$$$
152


 27 30  0  0  0  0  0  0  0  0999 V2000
   21.3339    5.5131   31.7370 C   0  0  0  0  0  0  0  0  0  0  0  0
   20.9545    6.7389   32.1159 C   0  0  0  0  0  0  0  0  0  0  0  0
   21.5980    7.8779   31.8627 O   0  0  0  0  0  0  0  0  0  0  0  0
   20.8717    8.9718   32.3979 C   0  0  0  0  0  0  0  0  0  0  0  0
   19.7383    8.5490   33.0061 C   0  0  0  0  0  0  0  0  0  0  0  0
   18.8724    9.5114   33.5195 C   0  0  0  0  0  0  0  0  0  0  0  0
   19.1768   10.8336   33.4291 C   0  0  0  0  0  0  0  0  0  0  0  0
   20.3556   11.2311   32.8306 C   0  0  0  0  0  0  0  0  0  0  0  0
   21.2534   10.3381   32.2965 C   0  0  0  0  0  0  0  0  0  0  0  0
   20.6297   12.5995   32.7713 O   0  0  0  0  0  0  0  0  0  0  0  0
   19.7363    7.0736   32.8655 C   0  0  0  0  0  0  0  0  0  0  0  0
   18.8781    6.2838   33.3003 O   0  0  0  0  0  0  0  0  0  0  0  0
   26.1646    3.3204   31.6991 Br  0  0  0  0  0  0  0  0  0  0  0  0
   24.8912    4.5255   30.9449 C   0  0  0  0  0  0  0  0  0  0  0  0
   23.5764    4.4719   31.4267 C   0  0  0  0  0  0  0  0  0  0  0  0
   22.5795    5.3325   30.9433 C   0  0  0  0  0  0  0  0  0  0  0  0
   22.9445    6.2207   29.9725 C   0  0  0  0  0  0  0  0  0  0  0  0
   24.2616    6.2959   29.4702 C   0  0  0  0  0  0  0  0  0  0  0  0
   25.2406    5.4092   29.9905 C   0  0  0  0  0  0  0  0  0  0  0  0
   22.6729   10.5225   32.0722 C   0  0  0  0  0  0  0  0  0  0  0  0
   23.5754   11.4502   31.6970 N   0  0  0  0  0  0  0  0  0  0  0  0
   24.9323   11.2538   31.4290 C   0  0  0  0  0  0  0  0  0  0  0  0
   25.2524   11.0525   29.9315 C   0  0  0  0  0  0  0  0  0  0  0  0
   25.0026   12.1658   29.1653 O   0  0  0  0  0  0  0  0  0  0  0  0
   23.8296   12.7864   29.6097 C   0  0  0  0  0  0  0  0  0  0  0  0
   22.9615   11.9058   30.3423 C   0  0  0  0  0  0  0  0  0  0  0  0
   23.4612   12.3381   32.3168 H   0  0  0  0  0  0  0  0  0  0  0  0
 13 14  1  0  0  0
 14 15  2  0  0  0
 14 19  1  0  0  0
 15 16  1  0  0  0
 16 17  2  0  0  0
 16  1  1  0  0  0
 17 18  1  0  0  0
 18 19  2  0  0  0
  1  2  2  0  0  0
  2  3  1  0  0  0
  2 11  1  0  0  0
  3  4  1  0  0  0
  4  5  2  0  0  0
  4  9  1  0  0  0
  5  6  1  0  0  0
  5 11  1  0  0  0
  6  7  2  0  0  0
  7  8  1  0  0  0
  8  9  2  0  0  0
  8 10  1  0  0  0
  9 20  1  0  0  0
 20 21  1  0  0  0
 21 22  1  0  0  0
 21 26  1  0  0  0
 22 23  1  0  0  0
 23 24  1  0  0  0
 24 25  1  0  0  0
 25 26  1  0  0  0
 11 12  2  0  0  0
 21 27  1  0  0  0
M  CHG 1  10  -1
M  CHG 1  21   1
M  END
> <minimizedAffinity>
-9.87019

$$$$
153


 34 37  0  0  0  0  0  0  0  0999 V2000
   24.9022   13.4013   28.3196 C   0  0  0  0  0  0  0  0  0  0  0  0
   25.7661   14.0581   27.6240 N   0  0  0  0  0  0  0  0  0  0  0  0
   25.4168   15.3390   27.5579 N   0  0  0  0  0  0  0  0  0  0  0  0
   24.2560   15.5084   28.2439 N   0  0  0  0  0  0  0  0  0  0  0  0
   23.9136   14.3705   28.7507 C   0  0  0  0  0  0  0  0  0  0  0  0
   23.4655   16.6841   27.9105 C   0  0  0  0  0  0  0  0  0  0  0  0
   22.7124   17.2054   29.0259 N   0  0  0  0  0  0  0  0  0  0  0  0
   22.0480   18.2063   28.6896 O   0  0  0  0  0  0  0  0  0  0  0  0
   22.2505   18.4484   27.4307 N   0  0  0  0  0  0  0  0  0  0  0  0
   23.1430   17.4873   26.9572 C   0  0  0  0  0  0  0  0  0  0  0  0
   23.5423   17.5231   25.6058 N   0  0  0  0  0  0  0  0  0  0  0  0
   23.9692   18.4743   25.3240 H   0  0  0  0  0  0  0  0  0  0  0  0
   23.5030   16.8421   24.8725 H   0  0  0  0  0  0  0  0  0  0  0  0
   23.6406   11.5724   29.3187 N   0  0  0  0  0  0  0  0  0  0  0  0
   24.7148   11.9081   28.5464 C   0  0  0  0  0  0  0  0  0  0  0  0
   25.5420   11.1476   27.9975 O   0  0  0  0  0  0  0  0  0  0  0  0
   23.0753   12.6451   29.4821 H   0  0  0  0  0  0  0  0  0  0  0  0
   23.1175    9.9547   30.9466 C   0  0  0  0  0  0  0  0  0  0  0  0
   22.8384   10.7391   29.9436 N   0  0  0  0  0  0  0  0  0  0  0  0
   18.4198    8.9685   33.4947 Br  0  0  0  0  0  0  0  0  0  0  0  0
   20.0516    8.4836   32.6119 C   0  0  0  0  0  0  0  0  0  0  0  0
   20.9788    9.4444   32.2105 C   0  0  0  0  0  0  0  0  0  0  0  0
   22.1232    9.0450   31.5479 C   0  0  0  0  0  0  0  0  0  0  0  0
   22.3027    7.6929   31.3175 C   0  0  0  0  0  0  0  0  0  0  0  0
   21.3703    6.7868   31.7311 C   0  0  0  0  0  0  0  0  0  0  0  0
   20.2112    7.1218   32.3807 C   0  0  0  0  0  0  0  0  0  0  0  0
   22.8438   13.8907   29.6195 C   0  0  0  0  0  0  0  0  0  0  0  0
   22.6641   14.3275   30.9281 N   0  0  0  0  0  0  0  0  0  0  0  0
   22.5584   15.5144   31.5463 C   0  0  0  0  0  0  0  0  0  0  0  0
   21.0869   15.6977   32.0082 C   0  0  0  0  0  0  0  0  0  0  0  0
   20.2765   14.8992   31.1598 N   0  0  0  0  0  0  0  0  0  0  0  0
   20.4673   13.5057   31.4282 C   0  0  0  0  0  0  0  0  0  0  0  0
   21.9546   13.2916   31.7368 C   0  0  0  0  0  0  0  0  0  0  0  0
   18.9708   15.3096   30.8574 C   0  0  0  0  0  0  0  0  0  0  0  0
 20 21  1  0  0  0
 21 22  2  0  0  0
 21 26  1  0  0  0
 22 23  1  0  0  0
 23 24  2  0  0  0
 23 18  1  0  0  0
 24 25  1  0  0  0
 25 26  2  0  0  0
 18 19  2  0  0  0
 19 14  1  0  0  0
 14 15  1  0  0  0
 15 16  2  0  0  0
 15  1  1  0  0  0
  1  2  1  0  0  0
  1  5  2  0  0  0
  2  3  2  0  0  0
  3  4  1  0  0  0
  4  5  1  0  0  0
  4  6  1  0  0  0
  5 27  1  0  0  0
 27 28  1  0  0  0
 28 29  1  0  0  0
 28 33  1  0  0  0
 29 30  1  0  0  0
 30 31  1  0  0  0
 31 32  1  0  0  0
 31 34  1  0  0  0
 32 33  1  0  0  0
  6  7  2  0  0  0
  6 10  1  0  0  0
  7  8  1  0  0  0
  8  9  1  0  0  0
  9 10  2  0  0  0
 10 11  1  0  0  0
 14 17  1  0  0  0
 11 12  1  0  0  0
 11 13  1  0  0  0
M  END
> <minimizedAffinity>
-10.17764

$$$$
156


 29 32  0  0  0  0  0  0  0  0999 V2000
   22.5541   10.1679   30.5084 C   0  0  0  0  0  0  0  0  0  0  0  0
   22.5124   11.4850   30.7337 N   0  0  0  0  0  0  0  0  0  0  0  0
   21.7029   12.0531   31.6706 C   0  0  0  0  0  0  0  0  0  0  0  0
   20.9308   11.1948   32.3713 N   0  0  0  0  0  0  0  0  0  0  0  0
   20.9279    9.8630   32.1912 C   0  0  0  0  0  0  0  0  0  0  0  0
   21.7647    9.3827   31.2385 N   0  0  0  0  0  0  0  0  0  0  0  0
   20.1142    8.9916   32.9343 N   0  0  0  0  0  0  0  0  0  0  0  0
   18.9102    9.4368   33.5829 C   0  0  0  0  0  0  0  0  0  0  0  0
   17.9024    8.2897   33.4279 C   0  0  0  0  0  0  0  0  0  0  0  0
   18.1977    7.5372   32.2939 O   0  0  0  0  0  0  0  0  0  0  0  0
   19.3540    6.8053   32.3906 C   0  0  0  0  0  0  0  0  0  0  0  0
   20.4745    7.6086   33.0658 C   0  0  0  0  0  0  0  0  0  0  0  0
   21.6759   13.4475   31.8902 N   0  0  0  0  0  0  0  0  0  0  0  0
   22.8444   14.2503   31.6588 C   0  0  0  0  0  0  0  0  0  0  0  0
   22.4316   15.3694   30.7091 C   0  0  0  0  0  0  0  0  0  0  0  0
   21.4264   16.0809   31.3591 O   0  0  0  0  0  0  0  0  0  0  0  0
   20.2632   15.3446   31.4927 C   0  0  0  0  0  0  0  0  0  0  0  0
   20.4824   14.1028   32.3508 C   0  0  0  0  0  0  0  0  0  0  0  0
   23.4244    9.6408   29.5140 N   0  0  0  0  0  0  0  0  0  0  0  0
   23.8559   10.2686   28.8044 H   0  0  0  0  0  0  0  0  0  0  0  0
   24.8151    7.7534   29.8563 C   0  0  0  0  0  0  0  0  0  0  0  0
   23.7242    8.2770   29.4558 N   0  0  0  0  0  0  0  0  0  0  0  0
   24.7607    2.9957   32.3090 Br  0  0  0  0  0  0  0  0  0  0  0  0
   25.1195    4.1237   30.8033 C   0  0  0  0  0  0  0  0  0  0  0  0
   24.8598    5.4721   30.8432 C   0  0  0  0  0  0  0  0  0  0  0  0
   25.1012    6.3265   29.7815 C   0  0  0  0  0  0  0  0  0  0  0  0
   25.6311    5.7572   28.6437 C   0  0  0  0  0  0  0  0  0  0  0  0
   25.9085    4.3947   28.5640 C   0  0  0  0  0  0  0  0  0  0  0  0
   25.6492    3.5844   29.6492 C   0  0  0  0  0  0  0  0  0  0  0  0
 23 24  1  0  0  0
 24 25  2  0  0  0
 24 29  1  0  0  0
 25 26  1  0  0  0
 26 27  2  0  0  0
 26 21  1  0  0  0
 27 28  1  0  0  0
 28 29  2  0  0  0
 21 22  2  0  0  0
 22 19  1  0  0  0
 19  1  1  0  0  0
  1  2  2  0  0  0
  1  6  1  0  0  0
  2  3  1  0  0  0
  3  4  2  0  0  0
  3 13  1  0  0  0
  4  5  1  0  0  0
  5  6  2  0  0  0
  5  7  1  0  0  0
  7  8  1  0  0  0
  7 12  1  0  0  0
  8  9  1  0  0  0
  9 10  1  0  0  0
 10 11  1  0  0  0
 11 12  1  0  0  0
 13 14  1  0  0  0
 13 18  1  0  0  0
 14 15  1  0  0  0
 15 16  1  0  0  0
 16 17  1  0  0  0
 17 18  1  0  0  0
 19 20  1  0  0  0
M  END
> <minimizedAffinity>
-8.67718

$$$$
167


 35 38  0  0  0  0  0  0  0  0999 V2000
   25.9217    2.7638   30.6462 C   0  0  0  0  0  0  0  0  0  0  0  0
   25.9690    1.7823   31.6644 N   0  0  0  0  0  0  0  0  0  0  0  0
   25.0528    2.1165   32.6939 C   0  0  0  0  0  0  0  0  0  0  0  0
   24.9260    1.4855   33.7891 O   0  0  0  0  0  0  0  0  0  0  0  0
   24.2976    3.2784   32.2782 C   0  0  0  0  0  0  0  0  0  0  0  0
   23.4111    3.7903   33.0141 O   0  0  0  0  0  0  0  0  0  0  0  0
   24.7750    3.6553   30.9617 C   0  0  0  0  0  0  0  0  0  0  0  0
   24.2878    4.6435   30.2461 C   0  0  0  0  0  0  0  0  0  0  0  0
   24.8711    4.9466   29.0374 O   0  0  0  0  0  0  0  0  0  0  0  0
   29.6120    4.6857   27.3255 Br  0  0  0  0  0  0  0  0  0  0  0  0
   28.8941    4.4045   29.0720 C   0  0  0  0  0  0  0  0  0  0  0  0
   27.7405    3.7247   29.3179 C   0  0  0  0  0  0  0  0  0  0  0  0
   27.1873    3.5005   30.5670 C   0  0  0  0  0  0  0  0  0  0  0  0
   27.8698    4.0136   31.6667 C   0  0  0  0  0  0  0  0  0  0  0  0
   29.0451    4.7080   31.4536 C   0  0  0  0  0  0  0  0  0  0  0  0
   29.5718    4.9160   30.1907 C   0  0  0  0  0  0  0  0  0  0  0  0
   23.1525    5.4072   30.7005 C   0  0  0  0  0  0  0  0  0  0  0  0
   23.2195    6.7560   31.0921 C   0  0  0  0  0  0  0  0  0  0  0  0
   21.9925    7.1779   31.4214 N   0  0  0  0  0  0  0  0  0  0  0  0
   21.1736    6.1561   31.2523 N   0  0  0  0  0  0  0  0  0  0  0  0
   21.8323    5.0716   30.8174 C   0  0  0  0  0  0  0  0  0  0  0  0
   24.4813    7.5514   31.1177 C   0  0  0  0  0  0  0  0  0  0  0  0
   21.6175    8.4768   31.8574 C   0  0  0  0  0  0  0  0  0  0  0  0
   20.5435    8.6052   32.7279 C   0  0  0  0  0  0  0  0  0  0  0  0
   20.1308    9.8352   33.2004 C   0  0  0  0  0  0  0  0  0  0  0  0
   20.7842   11.0074   32.8178 C   0  0  0  0  0  0  0  0  0  0  0  0
   21.8543   10.8795   31.9504 C   0  0  0  0  0  0  0  0  0  0  0  0
   22.2444    9.6465   31.4952 C   0  0  0  0  0  0  0  0  0  0  0  0
   26.8146    0.5556   31.6849 C   0  0  0  0  0  0  0  0  0  0  0  0
   26.5217   -0.2807   30.4660 C   0  0  0  0  0  0  0  0  0  0  0  0
   25.7509   -1.5267   30.7682 C   0  0  0  0  0  0  0  0  0  0  0  0
   24.3416   -1.4618   30.5645 N   0  0  0  0  0  0  0  0  0  0  0  0
   23.7806   -2.4395   29.6911 C   0  0  0  0  0  0  0  0  0  0  0  0
   23.6383   -1.5614   31.8536 C   0  0  0  0  0  0  0  0  0  0  0  0
   24.0791   -0.4963   30.1999 H   0  0  0  0  0  0  0  0  0  0  0  0
 10 11  1  0  0  0
 11 12  2  0  0  0
 11 16  1  0  0  0
 12 13  1  0  0  0
 13 14  2  0  0  0
 13  1  1  0  0  0
 14 15  1  0  0  0
 15 16  2  0  0  0
  1  2  1  0  0  0
  1  7  1  0  0  0
  2  3  1  0  0  0
  2 29  1  0  0  0
  3  4  2  0  0  0
  3  5  1  0  0  0
  5  6  2  0  0  0
  5  7  1  0  0  0
  7  8  2  0  0  0
  8  9  1  0  0  0
  8 17  1  0  0  0
 17 18  2  0  0  0
 17 21  1  0  0  0
 18 19  1  0  0  0
 18 22  1  0  0  0
 19 20  1  0  0  0
 19 23  1  0  0  0
 20 21  2  0  0  0
 23 24  2  0  0  0
 23 28  1  0  0  0
 24 25  1  0  0  0
 25 26  2  0  0  0
 26 27  1  0  0  0
 27 28  2  0  0  0
 29 30  1  0  0  0
 30 31  1  0  0  0
 31 32  1  0  0  0
 32 33  1  0  0  0
 32 34  1  0  0  0
 32 35  1  0  0  0
M  CHG 1   9  -1
M  CHG 1  32   1
M  END
> <minimizedAffinity>
-7.46494

$$$$
169


 37 40  0  0  0  0  0  0  0  0999 V2000
   22.4398   11.0310   32.2206 C   0  0  0  0  0  0  0  0  0  0  0  0
   22.0473   12.1410   31.3741 N   0  0  0  0  0  0  0  0  0  0  0  0
   21.8369   11.5977   30.0790 C   0  0  0  0  0  0  0  0  0  0  0  0
   21.1024   12.0516   29.1737 O   0  0  0  0  0  0  0  0  0  0  0  0
   22.6582   10.3699   29.9917 C   0  0  0  0  0  0  0  0  0  0  0  0
   22.7638    9.5952   29.0159 O   0  0  0  0  0  0  0  0  0  0  0  0
   23.3244   10.2550   31.2821 C   0  0  0  0  0  0  0  0  0  0  0  0
   24.4500    9.6492   31.5059 C   0  0  0  0  0  0  0  0  0  0  0  0
   24.9790    9.6941   32.8128 O   0  0  0  0  0  0  0  0  0  0  0  0
   25.2290    8.9122   30.5212 C   0  0  0  0  0  0  0  0  0  0  0  0
   26.2414    9.2510   29.6881 C   0  0  0  0  0  0  0  0  0  0  0  0
   26.6279    8.1432   29.0219 N   0  0  0  0  0  0  0  0  0  0  0  0
   25.9011    7.0794   29.3859 C   0  0  0  0  0  0  0  0  0  0  0  0
   25.0148    7.5328   30.3263 C   0  0  0  0  0  0  0  0  0  0  0  0
   23.9928    6.6959   31.0244 C   0  0  0  0  0  0  0  0  0  0  0  0
   26.8345   10.6121   29.4638 C   0  0  0  0  0  0  0  0  0  0  0  0
   27.4076    8.1275   28.3021 H   0  0  0  0  0  0  0  0  0  0  0  0
   26.0280    5.6986   28.8781 C   0  0  0  0  0  0  0  0  0  0  0  0
   25.2908    5.3234   27.9545 O   0  0  0  0  0  0  0  0  0  0  0  0
   26.9553    4.8297   29.4210 O   0  0  0  0  0  0  0  0  0  0  0  0
   26.8500    4.2794   30.7139 C   0  0  0  0  0  0  0  0  0  0  0  0
   20.0347    6.2530   32.3532 Br  0  0  0  0  0  0  0  0  0  0  0  0
   20.0437    8.1367   32.6519 C   0  0  0  0  0  0  0  0  0  0  0  0
   21.1710    8.8720   32.3533 C   0  0  0  0  0  0  0  0  0  0  0  0
   21.2272   10.2452   32.5527 C   0  0  0  0  0  0  0  0  0  0  0  0
   20.0779   10.8239   33.0697 C   0  0  0  0  0  0  0  0  0  0  0  0
   18.9456   10.0974   33.3710 C   0  0  0  0  0  0  0  0  0  0  0  0
   18.9142    8.7357   33.1650 C   0  0  0  0  0  0  0  0  0  0  0  0
   21.8974   13.5459   31.7623 C   0  0  0  0  0  0  0  0  0  0  0  0
   23.2032   14.2950   31.6141 C   0  0  0  0  0  0  0  0  0  0  0  0
   23.2155   15.2311   30.5378 N   0  0  0  0  0  0  0  0  0  0  0  0
   21.9473   15.9245   30.3447 C   0  0  0  0  0  0  0  0  0  0  0  0
   22.2252   17.1574   29.5280 C   0  0  0  0  0  0  0  0  0  0  0  0
   23.3807   16.9770   28.8096 O   0  0  0  0  0  0  0  0  0  0  0  0
   23.5004   15.7293   28.2231 C   0  0  0  0  0  0  0  0  0  0  0  0
   23.5086   14.6030   29.2555 C   0  0  0  0  0  0  0  0  0  0  0  0
   23.9753   15.9187   30.6894 H   0  0  0  0  0  0  0  0  0  0  0  0
 22 23  1  0  0  0
 23 24  2  0  0  0
 23 28  1  0  0  0
 24 25  1  0  0  0
 25 26  2  0  0  0
 25  1  1  0  0  0
 26 27  1  0  0  0
 27 28  2  0  0  0
  1  2  1  0  0  0
  1  7  1  0  0  0
  2  3  1  0  0  0
  2 29  1  0  0  0
  3  4  2  0  0  0
  3  5  1  0  0  0
  5  6  2  0  0  0
  5  7  1  0  0  0
  7  8  2  0  0  0
  8  9  1  0  0  0
  8 10  1  0  0  0
 10 11  2  0  0  0
 10 14  1  0  0  0
 11 12  1  0  0  0
 11 16  1  0  0  0
 12 13  1  0  0  0
 13 14  2  0  0  0
 13 18  1  0  0  0
 14 15  1  0  0  0
 18 19  2  0  0  0
 18 20  1  0  0  0
 20 21  1  0  0  0
 29 30  1  0  0  0
 30 31  1  0  0  0
 31 32  1  0  0  0
 31 36  1  0  0  0
 32 33  1  0  0  0
 33 34  1  0  0  0
 34 35  1  0  0  0
 35 36  1  0  0  0
 12 17  1  0  0  0
 31 37  1  0  0  0
M  CHG 1   9  -1
M  CHG 1  31   1
M  END
> <minimizedAffinity>
-8.31831

$$$$
170


 35 38  0  0  0  0  0  0  0  0999 V2000
   22.2492    9.6713   30.3979 C   0  0  0  0  0  0  0  0  0  0  0  0
   23.0267   10.8948   30.4063 N   0  0  0  0  0  0  0  0  0  0  0  0
   24.2321   10.7168   31.1178 C   0  0  0  0  0  0  0  0  0  0  0  0
   25.0268   11.5522   31.6204 O   0  0  0  0  0  0  0  0  0  0  0  0
   24.4409    9.2488   31.1915 C   0  0  0  0  0  0  0  0  0  0  0  0
   25.4212    8.7189   31.7517 O   0  0  0  0  0  0  0  0  0  0  0  0
   23.3228    8.6238   30.5087 C   0  0  0  0  0  0  0  0  0  0  0  0
   23.2956    7.4026   30.0405 C   0  0  0  0  0  0  0  0  0  0  0  0
   22.1607    6.9629   29.3372 O   0  0  0  0  0  0  0  0  0  0  0  0
   18.3904    6.9483   32.9283 Br  0  0  0  0  0  0  0  0  0  0  0  0
   19.5460    8.4495   32.7281 C   0  0  0  0  0  0  0  0  0  0  0  0
   20.4466    8.5092   31.6706 C   0  0  0  0  0  0  0  0  0  0  0  0
   21.2871    9.5875   31.5110 C   0  0  0  0  0  0  0  0  0  0  0  0
   21.2253   10.6173   32.4230 C   0  0  0  0  0  0  0  0  0  0  0  0
   20.3326   10.5637   33.4749 C   0  0  0  0  0  0  0  0  0  0  0  0
   19.4864    9.4886   33.6430 C   0  0  0  0  0  0  0  0  0  0  0  0
   24.3860    6.4827   30.2238 C   0  0  0  0  0  0  0  0  0  0  0  0
   25.4140    6.5244   29.2704 C   0  0  0  0  0  0  0  0  0  0  0  0
   26.4695    5.6585   29.3428 C   0  0  0  0  0  0  0  0  0  0  0  0
   26.5725    4.7082   30.3510 C   0  0  0  0  0  0  0  0  0  0  0  0
   25.5643    4.6852   31.2637 C   0  0  0  0  0  0  0  0  0  0  0  0
   24.4912    5.5509   31.2052 C   0  0  0  0  0  0  0  0  0  0  0  0
   27.5586    5.7166   28.3159 C   0  0  0  0  0  0  0  0  0  0  0  0
   27.6698    3.8715   30.3541 O   0  0  0  0  0  0  0  0  0  0  0  0
   28.7102    4.0381   31.3055 C   0  0  0  0  0  0  0  0  0  0  0  0
   22.6459   12.1630   29.7641 C   0  0  0  0  0  0  0  0  0  0  0  0
   22.5477   13.2498   30.7986 C   0  0  0  0  0  0  0  0  0  0  0  0
   21.1757   13.7888   31.0207 C   0  0  0  0  0  0  0  0  0  0  0  0
   21.0816   15.2236   30.8605 N   0  0  0  0  0  0  0  0  0  0  0  0
   21.0727   15.9086   32.1378 C   0  0  0  0  0  0  0  0  0  0  0  0
   22.2956   16.7722   32.2906 C   0  0  0  0  0  0  0  0  0  0  0  0
   22.2683   17.7382   31.2641 O   0  0  0  0  0  0  0  0  0  0  0  0
   22.3785   17.1284   30.0166 C   0  0  0  0  0  0  0  0  0  0  0  0
   22.2329   15.6409   30.0545 C   0  0  0  0  0  0  0  0  0  0  0  0
   20.2471   15.5254   30.3152 H   0  0  0  0  0  0  0  0  0  0  0  0
 10 11  1  0  0  0
 11 12  2  0  0  0
 11 16  1  0  0  0
 12 13  1  0  0  0
 13 14  2  0  0  0
 13  1  1  0  0  0
 14 15  1  0  0  0
 15 16  2  0  0  0
  1  2  1  0  0  0
  1  7  1  0  0  0
  2  3  1  0  0  0
  2 26  1  0  0  0
  3  4  2  0  0  0
  3  5  1  0  0  0
  5  6  2  0  0  0
  5  7  1  0  0  0
  7  8  2  0  0  0
  8  9  1  0  0  0
  8 17  1  0  0  0
 17 18  2  0  0  0
 17 22  1  0  0  0
 18 19  1  0  0  0
 19 20  2  0  0  0
 19 23  1  0  0  0
 20 21  1  0  0  0
 20 24  1  0  0  0
 21 22  2  0  0  0
 24 25  1  0  0  0
 26 27  1  0  0  0
 27 28  1  0  0  0
 28 29  1  0  0  0
 29 30  1  0  0  0
 29 34  1  0  0  0
 30 31  1  0  0  0
 31 32  1  0  0  0
 32 33  1  0  0  0
 33 34  1  0  0  0
 29 35  1  0  0  0
M  CHG 1   9  -1
M  CHG 1  29   1
M  END
> <minimizedAffinity>
-8.36383

$$$$
175


 32 35  0  0  0  0  0  0  0  0999 V2000
   22.3851   10.7543   32.1739 C   0  0  0  0  0  0  0  0  0  0  0  0
   21.7364   11.9056   31.6209 N   0  0  0  0  0  0  0  0  0  0  0  0
   21.8761   11.8037   30.2121 C   0  0  0  0  0  0  0  0  0  0  0  0
   21.1816   12.4100   29.3589 O   0  0  0  0  0  0  0  0  0  0  0  0
   22.9790   10.8648   29.8981 C   0  0  0  0  0  0  0  0  0  0  0  0
   23.3950   10.5263   28.7773 O   0  0  0  0  0  0  0  0  0  0  0  0
   23.4739   10.4210   31.1874 C   0  0  0  0  0  0  0  0  0  0  0  0
   24.6433    9.8879   31.4657 C   0  0  0  0  0  0  0  0  0  0  0  0
   24.9673    9.5880   32.7717 O   0  0  0  0  0  0  0  0  0  0  0  0
   21.3862    5.5226   31.3395 Br  0  0  0  0  0  0  0  0  0  0  0  0
   20.9179    7.2488   32.0095 C   0  0  0  0  0  0  0  0  0  0  0  0
   21.7748    8.3346   31.8619 C   0  0  0  0  0  0  0  0  0  0  0  0
   21.4655    9.5931   32.3341 C   0  0  0  0  0  0  0  0  0  0  0  0
   20.2417    9.7280   32.9747 C   0  0  0  0  0  0  0  0  0  0  0  0
   19.3783    8.6650   33.1323 C   0  0  0  0  0  0  0  0  0  0  0  0
   19.7300    7.4321   32.6449 C   0  0  0  0  0  0  0  0  0  0  0  0
   25.6073    9.5968   30.4356 C   0  0  0  0  0  0  0  0  0  0  0  0
   26.5001   10.4706   29.8863 C   0  0  0  0  0  0  0  0  0  0  0  0
   27.4005   10.0420   28.9287 C   0  0  0  0  0  0  0  0  0  0  0  0
   27.4631    8.7457   28.4705 C   0  0  0  0  0  0  0  0  0  0  0  0
   26.5598    7.8640   29.0258 C   0  0  0  0  0  0  0  0  0  0  0  0
   25.6572    8.2695   29.9777 C   0  0  0  0  0  0  0  0  0  0  0  0
   28.4432    8.3097   27.4369 C   0  0  0  0  0  0  0  0  0  0  0  0
   21.0468   12.9979   32.3359 C   0  0  0  0  0  0  0  0  0  0  0  0
   21.0200   14.1862   31.4160 C   0  0  0  0  0  0  0  0  0  0  0  0
   22.2717   14.8192   31.2075 N   0  0  0  0  0  0  0  0  0  0  0  0
   22.2511   16.0101   30.4093 C   0  0  0  0  0  0  0  0  0  0  0  0
   22.0807   17.2805   31.1964 C   0  0  0  0  0  0  0  0  0  0  0  0
   22.8126   17.3141   32.3625 O   0  0  0  0  0  0  0  0  0  0  0  0
   22.5307   16.2504   33.1873 C   0  0  0  0  0  0  0  0  0  0  0  0
   22.9414   14.9911   32.4720 C   0  0  0  0  0  0  0  0  0  0  0  0
   22.8783   14.1200   30.6825 H   0  0  0  0  0  0  0  0  0  0  0  0
 10 11  1  0  0  0
 11 12  2  0  0  0
 11 16  1  0  0  0
 12 13  1  0  0  0
 13 14  2  0  0  0
 13  1  1  0  0  0
 14 15  1  0  0  0
 15 16  2  0  0  0
  1  2  1  0  0  0
  1  7  1  0  0  0
  2  3  1  0  0  0
  2 24  1  0  0  0
  3  4  2  0  0  0
  3  5  1  0  0  0
  5  6  2  0  0  0
  5  7  1  0  0  0
  7  8  2  0  0  0
  8  9  1  0  0  0
  8 17  1  0  0  0
 17 18  2  0  0  0
 17 22  1  0  0  0
 18 19  1  0  0  0
 19 20  2  0  0  0
 20 21  1  0  0  0
 20 23  1  0  0  0
 21 22  2  0  0  0
 24 25  1  0  0  0
 25 26  1  0  0  0
 26 27  1  0  0  0
 26 31  1  0  0  0
 27 28  1  0  0  0
 28 29  1  0  0  0
 29 30  1  0  0  0
 30 31  1  0  0  0
 26 32  1  0  0  0
M  CHG 1   9  -1
M  CHG 1  26   1
M  END
> <minimizedAffinity>
-8.74423

$$$$
176


 33 36  0  0  0  0  0  0  0  0999 V2000
   22.2270    9.2757   30.2999 C   0  0  0  0  0  0  0  0  0  0  0  0
   23.0003   10.5016   30.1868 N   0  0  0  0  0  0  0  0  0  0  0  0
   24.2267   10.2925   30.9172 C   0  0  0  0  0  0  0  0  0  0  0  0
   24.9850   11.2089   31.3195 O   0  0  0  0  0  0  0  0  0  0  0  0
   24.3858    8.8625   31.0772 C   0  0  0  0  0  0  0  0  0  0  0  0
   25.3249    8.2372   31.6621 O   0  0  0  0  0  0  0  0  0  0  0  0
   23.2474    8.2194   30.4352 C   0  0  0  0  0  0  0  0  0  0  0  0
   23.1781    6.9395   30.0995 C   0  0  0  0  0  0  0  0  0  0  0  0
   21.9403    6.5571   29.5410 O   0  0  0  0  0  0  0  0  0  0  0  0
   18.1866    7.0113   33.0100 Br  0  0  0  0  0  0  0  0  0  0  0  0
   19.4787    8.3748   32.7238 C   0  0  0  0  0  0  0  0  0  0  0  0
   20.3665    8.3539   31.6569 C   0  0  0  0  0  0  0  0  0  0  0  0
   21.3020    9.3438   31.4591 C   0  0  0  0  0  0  0  0  0  0  0  0
   21.3440   10.3719   32.3527 C   0  0  0  0  0  0  0  0  0  0  0  0
   20.4519   10.4048   33.4334 C   0  0  0  0  0  0  0  0  0  0  0  0
   19.5173    9.4137   33.6296 C   0  0  0  0  0  0  0  0  0  0  0  0
   24.2543    5.9770   30.2675 C   0  0  0  0  0  0  0  0  0  0  0  0
   24.3885    5.1094   31.3253 C   0  0  0  0  0  0  0  0  0  0  0  0
   25.4158    4.1916   31.4142 C   0  0  0  0  0  0  0  0  0  0  0  0
   26.3686    4.1095   30.4243 C   0  0  0  0  0  0  0  0  0  0  0  0
   26.2503    4.9737   29.3540 C   0  0  0  0  0  0  0  0  0  0  0  0
   25.2185    5.8883   29.2739 C   0  0  0  0  0  0  0  0  0  0  0  0
   27.6925    2.9431   30.5148 Cl  0  0  0  0  0  0  0  0  0  0  0  0
   22.5632   11.7076   29.5610 C   0  0  0  0  0  0  0  0  0  0  0  0
   22.9980   13.0043   30.1094 C   0  0  0  0  0  0  0  0  0  0  0  0
   22.3121   13.5824   31.2905 C   0  0  0  0  0  0  0  0  0  0  0  0
   21.6266   14.8207   31.1349 N   0  0  0  0  0  0  0  0  0  0  0  0
   21.4310   15.4637   32.4095 C   0  0  0  0  0  0  0  0  0  0  0  0
   22.5334   16.4396   32.7639 C   0  0  0  0  0  0  0  0  0  0  0  0
   22.5272   17.5140   31.8714 O   0  0  0  0  0  0  0  0  0  0  0  0
   21.9615   17.1429   30.6503 C   0  0  0  0  0  0  0  0  0  0  0  0
   22.4652   15.7628   30.3307 C   0  0  0  0  0  0  0  0  0  0  0  0
   20.7761   14.7397   30.5835 H   0  0  0  0  0  0  0  0  0  0  0  0
 10 11  1  0  0  0
 11 12  2  0  0  0
 11 16  1  0  0  0
 12 13  1  0  0  0
 13 14  2  0  0  0
 13  1  1  0  0  0
 14 15  1  0  0  0
 15 16  2  0  0  0
  1  2  1  0  0  0
  1  7  1  0  0  0
  2  3  1  0  0  0
  2 24  1  0  0  0
  3  4  2  0  0  0
  3  5  1  0  0  0
  5  6  2  0  0  0
  5  7  1  0  0  0
  7  8  2  0  0  0
  8  9  1  0  0  0
  8 17  1  0  0  0
 17 18  2  0  0  0
 17 22  1  0  0  0
 18 19  1  0  0  0
 19 20  2  0  0  0
 20 21  1  0  0  0
 20 23  1  0  0  0
 21 22  2  0  0  0
 24 25  1  0  0  0
 25 26  1  0  0  0
 26 27  1  0  0  0
 27 28  1  0  0  0
 27 32  1  0  0  0
 28 29  1  0  0  0
 29 30  1  0  0  0
 30 31  1  0  0  0
 31 32  1  0  0  0
 27 33  1  0  0  0
M  CHG 1   9  -1
M  CHG 1  27   1
M  END
> <minimizedAffinity>
-8.06168

$$$$
182


 36 40  0  0  0  0  0  0  0  0999 V2000
   25.6270    8.1479   30.0456 C   0  0  0  0  0  0  0  0  0  0  0  0
   25.4578    9.4911   29.6127 N   0  0  0  0  0  0  0  0  0  0  0  0
   26.8341    9.9750   29.4680 C   0  0  0  0  0  0  0  0  0  0  0  0
   27.2129   11.1521   29.5772 O   0  0  0  0  0  0  0  0  0  0  0  0
   27.6564    8.7908   29.1701 C   0  0  0  0  0  0  0  0  0  0  0  0
   28.8904    8.7381   28.9648 O   0  0  0  0  0  0  0  0  0  0  0  0
   26.7253    7.6651   29.1576 C   0  0  0  0  0  0  0  0  0  0  0  0
   26.8470    6.5518   28.4819 C   0  0  0  0  0  0  0  0  0  0  0  0
   25.7850    5.6259   28.5735 O   0  0  0  0  0  0  0  0  0  0  0  0
   28.0125    6.2405   27.6680 C   0  0  0  0  0  0  0  0  0  0  0  0
   28.4270    6.7103   26.4827 N   0  0  0  0  0  0  0  0  0  0  0  0
   29.5461    6.0800   26.1155 C   0  0  0  0  0  0  0  0  0  0  0  0
   29.8471    5.1884   27.0961 N   0  0  0  0  0  0  0  0  0  0  0  0
   28.9296    5.2563   28.0696 C   0  0  0  0  0  0  0  0  0  0  0  0
   28.8885    4.4506   29.3227 C   0  0  0  0  0  0  0  0  0  0  0  0
   30.2018    6.3856   24.9250 C   0  0  0  0  0  0  0  0  0  0  0  0
   29.6472    7.3745   24.1361 C   0  0  0  0  0  0  0  0  0  0  0  0
   28.4890    8.0084   24.5460 C   0  0  0  0  0  0  0  0  0  0  0  0
   27.8591    7.6888   25.7241 C   0  0  0  0  0  0  0  0  0  0  0  0
   31.4403    5.6515   24.5672 C   0  0  0  0  0  0  0  0  0  0  0  0
   23.8451    3.7242   32.3748 Br  0  0  0  0  0  0  0  0  0  0  0  0
   23.6035    5.2510   31.2431 C   0  0  0  0  0  0  0  0  0  0  0  0
   24.6246    6.1410   31.0354 C   0  0  0  0  0  0  0  0  0  0  0  0
   24.5007    7.2798   30.2143 C   0  0  0  0  0  0  0  0  0  0  0  0
   23.2538    7.4056   29.6427 C   0  0  0  0  0  0  0  0  0  0  0  0
   22.2127    6.5237   29.8380 C   0  0  0  0  0  0  0  0  0  0  0  0
   22.3823    5.4254   30.6498 C   0  0  0  0  0  0  0  0  0  0  0  0
   24.3106   10.3502   29.3771 C   0  0  0  0  0  0  0  0  0  0  0  0
   23.8581   11.1428   30.5544 C   0  0  0  0  0  0  0  0  0  0  0  0
   24.5229   12.4266   30.6607 N   0  0  0  0  0  0  0  0  0  0  0  0
   24.3545   13.2113   29.4579 C   0  0  0  0  0  0  0  0  0  0  0  0
   22.9144   13.7278   29.3782 C   0  0  0  0  0  0  0  0  0  0  0  0
   22.7694   14.6141   30.4512 O   0  0  0  0  0  0  0  0  0  0  0  0
   22.7541   13.8087   31.6086 C   0  0  0  0  0  0  0  0  0  0  0  0
   24.0945   13.1519   31.8404 C   0  0  0  0  0  0  0  0  0  0  0  0
   25.5545   12.2666   30.7684 H   0  0  0  0  0  0  0  0  0  0  0  0
 21 22  1  0  0  0
 22 23  2  0  0  0
 22 27  1  0  0  0
 23 24  1  0  0  0
 24 25  2  0  0  0
 24  1  1  0  0  0
 25 26  1  0  0  0
 26 27  2  0  0  0
  1  2  1  0  0  0
  1  7  1  0  0  0
  2  3  1  0  0  0
  2 28  1  0  0  0
  3  4  2  0  0  0
  3  5  1  0  0  0
  5  6  2  0  0  0
  5  7  1  0  0  0
  7  8  2  0  0  0
  8  9  1  0  0  0
  8 10  1  0  0  0
 10 11  1  0  0  0
 10 14  2  0  0  0
 11 12  1  0  0  0
 11 19  1  0  0  0
 12 13  2  0  0  0
 12 16  1  0  0  0
 13 14  1  0  0  0
 14 15  1  0  0  0
 16 17  2  0  0  0
 16 20  1  0  0  0
 17 18  1  0  0  0
 18 19  2  0  0  0
 28 29  1  0  0  0
 29 30  1  0  0  0
 30 31  1  0  0  0
 30 35  1  0  0  0
 31 32  1  0  0  0
 32 33  1  0  0  0
 33 34  1  0  0  0
 34 35  1  0  0  0
 30 36  1  0  0  0
M  CHG 1   9  -1
M  CHG 1  30   1
M  END
> <minimizedAffinity>
-7.11589

$$$$
184


 33 36  0  0  0  0  0  0  0  0999 V2000
   22.0805    8.0653   30.8568 C   0  0  0  0  0  0  0  0  0  0  0  0
   21.2331    7.7722   31.9963 N   0  0  0  0  0  0  0  0  0  0  0  0
   20.7912    6.4229   31.7958 C   0  0  0  0  0  0  0  0  0  0  0  0
   19.7592    5.8882   32.2387 O   0  0  0  0  0  0  0  0  0  0  0  0
   21.7910    5.7690   30.9601 C   0  0  0  0  0  0  0  0  0  0  0  0
   21.8430    4.5845   30.5131 O   0  0  0  0  0  0  0  0  0  0  0  0
   22.8114    6.7705   30.6896 C   0  0  0  0  0  0  0  0  0  0  0  0
   24.0588    6.5293   30.3373 C   0  0  0  0  0  0  0  0  0  0  0  0
   24.8489    7.6548   30.0638 O   0  0  0  0  0  0  0  0  0  0  0  0
   24.6582    5.2082   30.2227 C   0  0  0  0  0  0  0  0  0  0  0  0
   25.3417    4.7070   29.1834 N   0  0  0  0  0  0  0  0  0  0  0  0
   25.7876    3.4539   29.4569 C   0  0  0  0  0  0  0  0  0  0  0  0
   25.3486    3.1925   30.7194 N   0  0  0  0  0  0  0  0  0  0  0  0
   24.6699    4.2139   31.2129 C   0  0  0  0  0  0  0  0  0  0  0  0
   24.0056    4.4058   32.5212 C   0  0  0  0  0  0  0  0  0  0  0  0
   26.5129    2.6980   28.5495 C   0  0  0  0  0  0  0  0  0  0  0  0
   26.8075    3.2174   27.3059 C   0  0  0  0  0  0  0  0  0  0  0  0
   26.3458    4.4999   27.0334 C   0  0  0  0  0  0  0  0  0  0  0  0
   25.6363    5.2133   27.9492 C   0  0  0  0  0  0  0  0  0  0  0  0
   24.3786   12.5679   29.1176 Br  0  0  0  0  0  0  0  0  0  0  0  0
   24.1213   11.1999   30.4104 C   0  0  0  0  0  0  0  0  0  0  0  0
   23.2128   10.1737   30.1488 C   0  0  0  0  0  0  0  0  0  0  0  0
   23.0091    9.1853   31.0520 C   0  0  0  0  0  0  0  0  0  0  0  0
   23.7335    9.2268   32.2482 C   0  0  0  0  0  0  0  0  0  0  0  0
   24.6203   10.2309   32.4998 C   0  0  0  0  0  0  0  0  0  0  0  0
   24.8429   11.2456   31.5946 C   0  0  0  0  0  0  0  0  0  0  0  0
   20.8746    8.6480   33.1144 C   0  0  0  0  0  0  0  0  0  0  0  0
   20.0274    9.8010   32.7186 C   0  0  0  0  0  0  0  0  0  0  0  0
   19.6889   10.8092   33.7377 C   0  0  0  0  0  0  0  0  0  0  0  0
   19.9919   12.1616   33.4235 N   0  0  0  0  0  0  0  0  0  0  0  0
   18.8017   12.8466   32.9797 C   0  0  0  0  0  0  0  0  0  0  0  0
   20.9237   12.1976   32.2805 C   0  0  0  0  0  0  0  0  0  0  0  0
   20.4999   12.6771   34.1750 H   0  0  0  0  0  0  0  0  0  0  0  0
 20 21  1  0  0  0
 21 22  2  0  0  0
 21 26  1  0  0  0
 22 23  1  0  0  0
 23 24  2  0  0  0
 23  1  1  0  0  0
 24 25  1  0  0  0
 25 26  2  0  0  0
  1  2  1  0  0  0
  1  7  1  0  0  0
  2  3  1  0  0  0
  2 27  1  0  0  0
  3  4  2  0  0  0
  3  5  1  0  0  0
  5  6  2  0  0  0
  5  7  1  0  0  0
  7  8  2  0  0  0
  8  9  1  0  0  0
  8 10  1  0  0  0
 10 11  1  0  0  0
 10 14  2  0  0  0
 11 12  1  0  0  0
 11 19  1  0  0  0
 12 13  2  0  0  0
 12 16  1  0  0  0
 13 14  1  0  0  0
 14 15  1  0  0  0
 16 17  2  0  0  0
 17 18  1  0  0  0
 18 19  2  0  0  0
 27 28  1  0  0  0
 28 29  1  0  0  0
 29 30  1  0  0  0
 30 31  1  0  0  0
 30 32  1  0  0  0
 30 33  1  0  0  0
M  CHG 1   9  -1
M  CHG 1  30   1
M  END
> <minimizedAffinity>
-8.44670

$$$$
188


 31 34  0  0  0  0  0  0  0  0999 V2000
   22.5374   11.0120   32.1401 C   0  0  0  0  0  0  0  0  0  0  0  0
   22.1601   12.1080   31.2601 N   0  0  0  0  0  0  0  0  0  0  0  0
   21.9102   11.4442   29.9985 C   0  0  0  0  0  0  0  0  0  0  0  0
   21.1753   11.8538   29.0745 O   0  0  0  0  0  0  0  0  0  0  0  0
   22.6615   10.1964   29.9696 C   0  0  0  0  0  0  0  0  0  0  0  0
   22.7472    9.3022   29.0891 O   0  0  0  0  0  0  0  0  0  0  0  0
   23.3712   10.1282   31.2464 C   0  0  0  0  0  0  0  0  0  0  0  0
   24.4415    9.4590   31.5651 C   0  0  0  0  0  0  0  0  0  0  0  0
   24.9037    9.5422   32.8960 O   0  0  0  0  0  0  0  0  0  0  0  0
   20.3408    6.1197   32.4652 Br  0  0  0  0  0  0  0  0  0  0  0  0
   20.2831    8.0215   32.7066 C   0  0  0  0  0  0  0  0  0  0  0  0
   21.3582    8.8272   32.3647 C   0  0  0  0  0  0  0  0  0  0  0  0
   21.3494   10.1950   32.5271 C   0  0  0  0  0  0  0  0  0  0  0  0
   20.2077   10.7655   33.0563 C   0  0  0  0  0  0  0  0  0  0  0  0
   19.1154    9.9684   33.4068 C   0  0  0  0  0  0  0  0  0  0  0  0
   19.1458    8.5971   33.2352 C   0  0  0  0  0  0  0  0  0  0  0  0
   25.1358    8.6555   30.5758 C   0  0  0  0  0  0  0  0  0  0  0  0
   26.0722    9.1259   29.7957 O   0  0  0  0  0  0  0  0  0  0  0  0
   26.5307    8.2021   28.9966 C   0  0  0  0  0  0  0  0  0  0  0  0
   25.8616    7.0452   29.2580 C   0  0  0  0  0  0  0  0  0  0  0  0
   24.9519    7.3325   30.2823 C   0  0  0  0  0  0  0  0  0  0  0  0
   22.0224   13.5200   31.4999 C   0  0  0  0  0  0  0  0  0  0  0  0
   22.9130   14.3781   30.6313 C   0  0  0  0  0  0  0  0  0  0  0  0
   24.0201   13.5602   30.0950 C   0  0  0  0  0  0  0  0  0  0  0  0
   24.0304   13.4071   28.6577 N   0  0  0  0  0  0  0  0  0  0  0  0
   24.1328   14.6711   27.9669 C   0  0  0  0  0  0  0  0  0  0  0  0
   25.5118   15.0548   27.5638 C   0  0  0  0  0  0  0  0  0  0  0  0
   26.2895   14.0346   27.0581 O   0  0  0  0  0  0  0  0  0  0  0  0
   26.2977   12.8940   27.8498 C   0  0  0  0  0  0  0  0  0  0  0  0
   24.9051   12.4041   28.1525 C   0  0  0  0  0  0  0  0  0  0  0  0
   23.0423   13.0662   28.4316 H   0  0  0  0  0  0  0  0  0  0  0  0
 10 11  1  0  0  0
 11 12  2  0  0  0
 11 16  1  0  0  0
 12 13  1  0  0  0
 13 14  2  0  0  0
 13  1  1  0  0  0
 14 15  1  0  0  0
 15 16  2  0  0  0
  1  2  1  0  0  0
  1  7  1  0  0  0
  2  3  1  0  0  0
  2 22  1  0  0  0
  3  4  2  0  0  0
  3  5  1  0  0  0
  5  6  2  0  0  0
  5  7  1  0  0  0
  7  8  2  0  0  0
  8  9  1  0  0  0
  8 17  1  0  0  0
 17 18  1  0  0  0
 17 21  2  0  0  0
 18 19  1  0  0  0
 19 20  2  0  0  0
 20 21  1  0  0  0
 22 23  1  0  0  0
 23 24  1  0  0  0
 24 25  1  0  0  0
 25 26  1  0  0  0
 25 30  1  0  0  0
 26 27  1  0  0  0
 27 28  1  0  0  0
 28 29  1  0  0  0
 29 30  1  0  0  0
 25 31  1  0  0  0
M  CHG 1   9  -1
M  CHG 1  25   1
M  END
> <minimizedAffinity>
-7.52856

$$$$
191


 34 37  0  0  0  0  0  0  0  0999 V2000
   22.4813   11.1358   32.1731 C   0  0  0  0  0  0  0  0  0  0  0  0
   22.1112   12.2966   31.3891 N   0  0  0  0  0  0  0  0  0  0  0  0
   22.0487   11.8397   30.0205 C   0  0  0  0  0  0  0  0  0  0  0  0
   21.3997   12.3895   29.0981 O   0  0  0  0  0  0  0  0  0  0  0  0
   22.8804   10.6349   29.9419 C   0  0  0  0  0  0  0  0  0  0  0  0
   23.1129    9.9090   28.9414 O   0  0  0  0  0  0  0  0  0  0  0  0
   23.4307   10.3854   31.2692 C   0  0  0  0  0  0  0  0  0  0  0  0
   24.4930    9.6634   31.5825 C   0  0  0  0  0  0  0  0  0  0  0  0
   24.8477    9.5271   32.9009 O   0  0  0  0  0  0  0  0  0  0  0  0
   25.3066    9.0035   30.5443 C   0  0  0  0  0  0  0  0  0  0  0  0
   25.1177    7.7956   30.0868 O   0  0  0  0  0  0  0  0  0  0  0  0
   25.9664    7.4470   29.1784 C   0  0  0  0  0  0  0  0  0  0  0  0
   26.8135    8.5135   28.9977 C   0  0  0  0  0  0  0  0  0  0  0  0
   26.3938    9.4998   29.8653 C   0  0  0  0  0  0  0  0  0  0  0  0
   27.8243    8.3927   28.0693 C   0  0  0  0  0  0  0  0  0  0  0  0
   27.9983    7.2397   27.3306 C   0  0  0  0  0  0  0  0  0  0  0  0
   27.1121    6.1797   27.5469 C   0  0  0  0  0  0  0  0  0  0  0  0
   26.0941    6.2637   28.4627 C   0  0  0  0  0  0  0  0  0  0  0  0
   25.2455    5.2014   28.6429 O   0  0  0  0  0  0  0  0  0  0  0  0
   25.2802    4.2707   29.6770 C   0  0  0  0  0  0  0  0  0  0  0  0
   20.4082    6.1892   32.3010 Br  0  0  0  0  0  0  0  0  0  0  0  0
   20.2975    8.0805   32.6434 C   0  0  0  0  0  0  0  0  0  0  0  0
   21.3387    8.9022   32.3223 C   0  0  0  0  0  0  0  0  0  0  0  0
   21.3250   10.2810   32.5441 C   0  0  0  0  0  0  0  0  0  0  0  0
   20.1733   10.7700   33.1199 C   0  0  0  0  0  0  0  0  0  0  0  0
   19.1046    9.9414   33.4523 C   0  0  0  0  0  0  0  0  0  0  0  0
   19.1722    8.5986   33.2127 C   0  0  0  0  0  0  0  0  0  0  0  0
   21.8315   13.6370   31.8429 C   0  0  0  0  0  0  0  0  0  0  0  0
   22.8839   14.6123   31.3740 C   0  0  0  0  0  0  0  0  0  0  0  0
   22.4237   15.6033   30.3671 C   0  0  0  0  0  0  0  0  0  0  0  0
   22.9195   15.3955   29.0425 N   0  0  0  0  0  0  0  0  0  0  0  0
   24.0700   14.4877   29.0567 C   0  0  0  0  0  0  0  0  0  0  0  0
   23.2812   16.6138   28.3859 C   0  0  0  0  0  0  0  0  0  0  0  0
   22.2151   14.9041   28.4205 H   0  0  0  0  0  0  0  0  0  0  0  0
 21 22  1  0  0  0
 22 23  2  0  0  0
 22 27  1  0  0  0
 23 24  1  0  0  0
 24 25  2  0  0  0
 24  1  1  0  0  0
 25 26  1  0  0  0
 26 27  2  0  0  0
  1  2  1  0  0  0
  1  7  1  0  0  0
  2  3  1  0  0  0
  2 28  1  0  0  0
  3  4  2  0  0  0
  3  5  1  0  0  0
  5  6  2  0  0  0
  5  7  1  0  0  0
  7  8  2  0  0  0
  8  9  1  0  0  0
  8 10  1  0  0  0
 10 11  1  0  0  0
 10 14  2  0  0  0
 11 12  1  0  0  0
 12 13  2  0  0  0
 12 18  1  0  0  0
 13 14  1  0  0  0
 13 15  1  0  0  0
 15 16  2  0  0  0
 16 17  1  0  0  0
 17 18  2  0  0  0
 18 19  1  0  0  0
 19 20  1  0  0  0
 28 29  1  0  0  0
 29 30  1  0  0  0
 30 31  1  0  0  0
 31 32  1  0  0  0
 31 33  1  0  0  0
 31 34  1  0  0  0
M  CHG 1   9  -1
M  CHG 1  31   1
M  END
> <minimizedAffinity>
-8.12513

$$$$
199


 25 28  0  0  0  0  0  0  0  0999 V2000
   24.4854    9.9619   30.5862 C   0  0  0  0  0  0  0  0  0  0  0  0
   23.3483    9.2497   29.9011 C   0  0  0  0  0  0  0  0  0  0  0  0
   23.0099    8.5357   31.1412 N   0  0  0  0  0  0  0  0  0  0  0  0
   24.3436    8.8699   31.6057 C   0  0  0  0  0  0  0  0  0  0  0  0
   21.8513    7.8474   31.5947 C   0  0  0  0  0  0  0  0  0  0  0  0
   21.6992    6.5069   31.4361 N   0  0  0  0  0  0  0  0  0  0  0  0
   20.5768    5.8695   31.8812 C   0  0  0  0  0  0  0  0  0  0  0  0
   19.5927    6.5416   32.4865 N   0  0  0  0  0  0  0  0  0  0  0  0
   19.6759    7.8597   32.6751 C   0  0  0  0  0  0  0  0  0  0  0  0
   18.8375    8.7482   33.2449 N   0  0  0  0  0  0  0  0  0  0  0  0
   19.4254    9.9216   33.1578 N   0  0  0  0  0  0  0  0  0  0  0  0
   20.6118    9.8074   32.5501 N   0  0  0  0  0  0  0  0  0  0  0  0
   20.8111    8.5020   32.2242 C   0  0  0  0  0  0  0  0  0  0  0  0
   17.5316    8.4957   33.8486 C   0  0  0  0  0  0  0  0  0  0  0  0
   22.8413   11.8369   30.8500 N   0  0  0  0  0  0  0  0  0  0  0  0
   24.1301   11.3350   31.0882 C   0  0  0  0  0  0  0  0  0  0  0  0
   25.0387   11.9266   31.6891 O   0  0  0  0  0  0  0  0  0  0  0  0
   22.1346   11.2162   30.3084 H   0  0  0  0  0  0  0  0  0  0  0  0
   18.7091   15.1326   30.8947 Br  0  0  0  0  0  0  0  0  0  0  0  0
   20.5097   14.6776   31.3211 C   0  0  0  0  0  0  0  0  0  0  0  0
   21.0493   13.4653   30.9601 C   0  0  0  0  0  0  0  0  0  0  0  0
   22.3706   13.0999   31.2584 C   0  0  0  0  0  0  0  0  0  0  0  0
   23.1122   14.0241   31.9393 C   0  0  0  0  0  0  0  0  0  0  0  0
   22.5554   15.2532   32.3010 C   0  0  0  0  0  0  0  0  0  0  0  0
   21.2724   15.5813   31.9993 C   0  0  0  0  0  0  0  0  0  0  0  0
 19 20  1  0  0  0
 20 21  2  0  0  0
 20 25  1  0  0  0
 21 22  1  0  0  0
 22 23  2  0  0  0
 22 15  1  0  0  0
 23 24  1  0  0  0
 24 25  2  0  0  0
 15 16  1  0  0  0
 16 17  2  0  0  0
 16  1  1  0  0  0
  1  2  1  0  0  0
  1  4  1  0  0  0
  2  3  1  0  0  0
  3  4  1  0  0  0
  3  5  1  0  0  0
  5  6  2  0  0  0
  5 13  1  0  0  0
  6  7  1  0  0  0
  7  8  2  0  0  0
  8  9  1  0  0  0
  9 10  1  0  0  0
  9 13  2  0  0  0
 10 11  1  0  0  0
 10 14  1  0  0  0
 11 12  2  0  0  0
 12 13  1  0  0  0
 15 18  1  0  0  0
M  END
> <minimizedAffinity>
-8.83529

$$$$
200


 21 24  0  0  0  0  0  0  0  0999 V2000
   20.4433   11.7295   32.8571 C   0  0  0  0  0  0  0  0  0  0  0  0
   21.6746   11.6903   32.3595 N   0  0  0  0  0  0  0  0  0  0  0  0
   22.2087   12.6105   31.5391 C   0  0  0  0  0  0  0  0  0  0  0  0
   23.3880   12.7955   30.9206 N   0  0  0  0  0  0  0  0  0  0  0  0
   23.3857   13.8845   30.2182 O   0  0  0  0  0  0  0  0  0  0  0  0
   22.2299   14.4309   30.3552 N   0  0  0  0  0  0  0  0  0  0  0  0
   21.4399   13.7022   31.1607 C   0  0  0  0  0  0  0  0  0  0  0  0
   20.1888   13.7853   31.6372 N   0  0  0  0  0  0  0  0  0  0  0  0
   19.2696   14.7229   31.4211 N   0  0  0  0  0  0  0  0  0  0  0  0
   18.1750   14.3698   32.1120 N   0  0  0  0  0  0  0  0  0  0  0  0
   18.4376   13.2230   32.7419 N   0  0  0  0  0  0  0  0  0  0  0  0
   19.6867   12.8476   32.4555 C   0  0  0  0  0  0  0  0  0  0  0  0
   19.8395   10.7861   33.7213 N   0  0  0  0  0  0  0  0  0  0  0  0
   19.6614   11.0430   34.7341 H   0  0  0  0  0  0  0  0  0  0  0  0
   21.0171    5.9101   31.8224 Br  0  0  0  0  0  0  0  0  0  0  0  0
   19.8119    7.2283   32.4899 C   0  0  0  0  0  0  0  0  0  0  0  0
   20.2451    8.4926   32.8544 C   0  0  0  0  0  0  0  0  0  0  0  0
   19.4406    9.4880   33.3396 C   0  0  0  0  0  0  0  0  0  0  0  0
   18.0804    9.1291   33.4504 C   0  0  0  0  0  0  0  0  0  0  0  0
   17.6164    7.8856   33.0986 C   0  0  0  0  0  0  0  0  0  0  0  0
   18.4803    6.9283   32.6156 C   0  0  0  0  0  0  0  0  0  0  0  0
 15 16  1  0  0  0
 16 17  2  0  0  0
 16 21  1  0  0  0
 17 18  1  0  0  0
 18 19  2  0  0  0
 18 13  1  0  0  0
 19 20  1  0  0  0
 20 21  2  0  0  0
 13  1  1  0  0  0
  1  2  2  0  0  0
  1 12  1  0  0  0
  2  3  1  0  0  0
  3  4  2  0  0  0
  3  7  1  0  0  0
  4  5  1  0  0  0
  5  6  1  0  0  0
  6  7  2  0  0  0
  7  8  1  0  0  0
  8  9  1  0  0  0
  8 12  1  0  0  0
  9 10  2  0  0  0
 10 11  1  0  0  0
 11 12  2  0  0  0
 13 14  1  0  0  0
M  END
> <minimizedAffinity>
-8.58657

$$$$
201


 25 28  0  0  0  0  0  0  0  0999 V2000
   24.3383   13.0610   29.1198 C   0  0  0  0  0  0  0  0  0  0  0  0
   25.2130   12.6717   28.3068 O   0  0  0  0  0  0  0  0  0  0  0  0
   23.7575   14.3326   28.9382 N   0  0  0  0  0  0  0  0  0  0  0  0
   23.0319   14.6392   29.6243 H   0  0  0  0  0  0  0  0  0  0  0  0
   22.7796   10.9349   31.6066 N   0  0  0  0  0  0  0  0  0  0  0  0
   24.0411   10.8557   31.9378 N   0  0  0  0  0  0  0  0  0  0  0  0
   24.7850   11.5857   31.1227 N   0  0  0  0  0  0  0  0  0  0  0  0
   23.9684   12.1705   30.2129 C   0  0  0  0  0  0  0  0  0  0  0  0
   22.7006   11.7444   30.5376 C   0  0  0  0  0  0  0  0  0  0  0  0
   20.0042    6.5104   32.7576 Br  0  0  0  0  0  0  0  0  0  0  0  0
   20.2994    8.3933   32.7920 C   0  0  0  0  0  0  0  0  0  0  0  0
   21.4284    8.9541   32.1860 C   0  0  0  0  0  0  0  0  0  0  0  0
   21.6387   10.3113   32.2118 C   0  0  0  0  0  0  0  0  0  0  0  0
   20.7057   11.0981   32.8513 C   0  0  0  0  0  0  0  0  0  0  0  0
   19.5721   10.5495   33.4610 C   0  0  0  0  0  0  0  0  0  0  0  0
   19.3714    9.1884   33.4285 C   0  0  0  0  0  0  0  0  0  0  0  0
   24.0980   15.2425   27.8681 C   0  0  0  0  0  0  0  0  0  0  0  0
   23.4028   16.5655   28.0399 C   0  0  0  0  0  0  0  0  0  0  0  0
   23.3323   17.5955   27.1629 N   0  0  0  0  0  0  0  0  0  0  0  0
   22.6168   18.5898   27.6989 C   0  0  0  0  0  0  0  0  0  0  0  0
   22.2442   18.1592   28.9280 N   0  0  0  0  0  0  0  0  0  0  0  0
   22.7152   16.9451   29.1320 N   0  0  0  0  0  0  0  0  0  0  0  0
   22.5163   19.7580   26.7503 C   0  0  0  0  0  0  0  0  0  0  0  0
   23.6511   19.4496   25.7966 C   0  0  0  0  0  0  0  0  0  0  0  0
   23.7996   17.9403   25.8311 C   0  0  0  0  0  0  0  0  0  0  0  0
 10 11  1  0  0  0
 11 12  2  0  0  0
 11 16  1  0  0  0
 12 13  1  0  0  0
 13 14  2  0  0  0
 13  5  1  0  0  0
 14 15  1  0  0  0
 15 16  2  0  0  0
  5  6  1  0  0  0
  5  9  1  0  0  0
  6  7  2  0  0  0
  7  8  1  0  0  0
  8  9  2  0  0  0
  8  1  1  0  0  0
  1  2  2  0  0  0
  1  3  1  0  0  0
  3 17  1  0  0  0
 17 18  1  0  0  0
 18 19  1  0  0  0
 18 22  2  0  0  0
 19 20  1  0  0  0
 19 25  1  0  0  0
 20 21  2  0  0  0
 20 23  1  0  0  0
 21 22  1  0  0  0
 23 24  1  0  0  0
 24 25  1  0  0  0
  3  4  1  0  0  0
M  END
> <minimizedAffinity>
-9.37192

$$$$
205


 25 28  0  0  0  0  0  0  0  0999 V2000
   22.4633    6.9467   31.6300 N   0  0  0  0  0  0  0  0  0  0  0  0
   21.0717    6.8171   31.9843 C   0  0  0  0  0  0  0  0  0  0  0  0
   20.3292    5.8806   31.5746 O   0  0  0  0  0  0  0  0  0  0  0  0
   20.6963    7.9196   32.8674 C   0  0  0  0  0  0  0  0  0  0  0  0
   19.4405    8.4450   32.7426 O   0  0  0  0  0  0  0  0  0  0  0  0
   19.6566    9.7918   33.0255 N   0  0  0  0  0  0  0  0  0  0  0  0
   20.8775   10.1719   32.4372 C   0  0  0  0  0  0  0  0  0  0  0  0
   21.5619    9.0262   32.3119 C   0  0  0  0  0  0  0  0  0  0  0  0
   22.7586    8.3386   31.8409 C   0  0  0  0  0  0  0  0  0  0  0  0
   23.8692    8.8766   31.6485 O   0  0  0  0  0  0  0  0  0  0  0  0
   19.0322   10.4015   33.5682 H   0  0  0  0  0  0  0  0  0  0  0  0
   26.0504    5.5048   27.9559 Br  0  0  0  0  0  0  0  0  0  0  0  0
   25.0199    5.2190   29.5349 C   0  0  0  0  0  0  0  0  0  0  0  0
   24.1322    6.1466   30.0184 C   0  0  0  0  0  0  0  0  0  0  0  0
   23.3655    5.9628   31.1671 C   0  0  0  0  0  0  0  0  0  0  0  0
   23.5519    4.7533   31.8184 C   0  0  0  0  0  0  0  0  0  0  0  0
   24.4388    3.8175   31.3434 C   0  0  0  0  0  0  0  0  0  0  0  0
   25.1958    4.0190   30.1930 C   0  0  0  0  0  0  0  0  0  0  0  0
   21.3553   11.4991   32.0816 C   0  0  0  0  0  0  0  0  0  0  0  0
   20.7363   12.6939   32.4609 C   0  0  0  0  0  0  0  0  0  0  0  0
   21.4486   13.6987   31.9911 N   0  0  0  0  0  0  0  0  0  0  0  0
   22.4912   13.2022   31.3297 N   0  0  0  0  0  0  0  0  0  0  0  0
   22.4568   11.8810   31.3683 C   0  0  0  0  0  0  0  0  0  0  0  0
   21.1629   15.1239   32.1473 C   0  0  0  0  0  0  0  0  0  0  0  0
   19.4784   12.8191   33.2341 C   0  0  0  0  0  0  0  0  0  0  0  0
 12 13  1  0  0  0
 13 14  2  0  0  0
 13 18  1  0  0  0
 14 15  1  0  0  0
 15 16  2  0  0  0
 15  1  1  0  0  0
 16 17  1  0  0  0
 17 18  2  0  0  0
  1  2  1  0  0  0
  1  9  1  0  0  0
  2  3  2  0  0  0
  2  4  1  0  0  0
  4  5  1  0  0  0
  4  8  1  0  0  0
  5  6  1  0  0  0
  6  7  1  0  0  0
  7  8  2  0  0  0
  7 19  1  0  0  0
  8  9  1  0  0  0
  9 10  2  0  0  0
 19 20  2  0  0  0
 19 23  1  0  0  0
 20 21  1  0  0  0
 20 25  1  0  0  0
 21 22  1  0  0  0
 21 24  1  0  0  0
 22 23  2  0  0  0
  6 11  1  0  0  0
M  END
> <minimizedAffinity>
-8.75390

$$$$
211


 22 25  0  0  0  0  0  0  0  0999 V2000
   22.9998   10.5787   31.7751 N   0  0  0  0  0  0  0  0  0  0  0  0
   24.4016   10.4185   31.9391 C   0  0  0  0  0  0  0  0  0  0  0  0
   24.9533    9.5970   32.7608 O   0  0  0  0  0  0  0  0  0  0  0  0
   25.0977   11.3350   31.0245 C   0  0  0  0  0  0  0  0  0  0  0  0
   25.3923   10.5992   29.7540 C   0  0  0  0  0  0  0  0  0  0  0  0
   24.0775   10.4871   29.2336 O   0  0  0  0  0  0  0  0  0  0  0  0
   23.8305   11.8821   29.1349 C   0  0  0  0  0  0  0  0  0  0  0  0
   24.0260   12.2920   30.5829 C   0  0  0  0  0  0  0  0  0  0  0  0
   22.7966   11.8986   31.3001 C   0  0  0  0  0  0  0  0  0  0  0  0
   21.7711   12.6133   31.4505 O   0  0  0  0  0  0  0  0  0  0  0  0
   24.9934   12.2878   28.3131 C   0  0  0  0  0  0  0  0  0  0  0  0
   25.9833   11.4574   28.6915 C   0  0  0  0  0  0  0  0  0  0  0  0
   21.4884    5.5328   31.1909 Br  0  0  0  0  0  0  0  0  0  0  0  0
   21.1815    7.3017   31.8412 C   0  0  0  0  0  0  0  0  0  0  0  0
   22.1028    8.2744   31.6181 C   0  0  0  0  0  0  0  0  0  0  0  0
   21.9806    9.5882   32.0439 C   0  0  0  0  0  0  0  0  0  0  0  0
   20.8341    9.8968   32.7396 C   0  0  0  0  0  0  0  0  0  0  0  0
   19.8668    8.9194   32.9868 C   0  0  0  0  0  0  0  0  0  0  0  0
   20.0353    7.6252   32.5408 C   0  0  0  0  0  0  0  0  0  0  0  0
   26.0710    9.2926   29.9175 C   0  0  0  0  0  0  0  0  0  0  0  0
   25.2825    8.3020   29.3297 O   0  0  0  0  0  0  0  0  0  0  0  0
   25.1854    7.5315   29.9434 H   0  0  0  0  0  0  0  0  0  0  0  0
 13 14  1  0  0  0
 14 15  2  0  0  0
 14 19  1  0  0  0
 15 16  1  0  0  0
 16 17  2  0  0  0
 16  1  1  0  0  0
 17 18  1  0  0  0
 18 19  2  0  0  0
  1  2  1  0  0  0
  1  9  1  0  0  0
  2  3  2  0  0  0
  2  4  1  0  0  0
  4  5  1  0  0  0
  4  8  1  0  0  0
  5  6  1  0  0  0
  5 12  1  0  0  0
  5 20  1  0  0  0
  6  7  1  0  0  0
  7  8  1  0  0  0
  7 11  1  0  0  0
  8  9  1  0  0  0
  9 10  2  0  0  0
 11 12  2  0  0  0
 20 21  1  0  0  0
 21 22  1  0  0  0
M  END
> <minimizedAffinity>
-8.03616

$$$$
213


 25 28  0  0  0  0  0  0  0  0999 V2000
   22.3132    9.5363   31.3417 N   0  0  0  0  0  0  0  0  0  0  0  0
   23.3749    9.9387   30.4488 C   0  0  0  0  0  0  0  0  0  0  0  0
   23.8015    9.3429   29.4535 O   0  0  0  0  0  0  0  0  0  0  0  0
   23.8994   11.2470   30.9371 C   0  0  0  0  0  0  0  0  0  0  0  0
   24.2869   12.1156   29.9332 O   0  0  0  0  0  0  0  0  0  0  0  0
   24.0265   13.3368   30.5088 N   0  0  0  0  0  0  0  0  0  0  0  0
   22.7315   13.1761   31.1152 C   0  0  0  0  0  0  0  0  0  0  0  0
   22.6110   11.9008   31.3948 C   0  0  0  0  0  0  0  0  0  0  0  0
   21.8425   10.7700   31.9289 C   0  0  0  0  0  0  0  0  0  0  0  0
   20.9364   10.9121   32.7568 O   0  0  0  0  0  0  0  0  0  0  0  0
   24.6022   14.1855   30.5197 H   0  0  0  0  0  0  0  0  0  0  0  0
   23.4974    4.3851   31.2344 Br  0  0  0  0  0  0  0  0  0  0  0  0
   22.3016    5.8322   31.5458 C   0  0  0  0  0  0  0  0  0  0  0  0
   22.7181    7.1517   31.3425 C   0  0  0  0  0  0  0  0  0  0  0  0
   21.8685    8.2124   31.5608 C   0  0  0  0  0  0  0  0  0  0  0  0
   20.5949    7.9284   31.9870 C   0  0  0  0  0  0  0  0  0  0  0  0
   20.1734    6.6069   32.1923 C   0  0  0  0  0  0  0  0  0  0  0  0
   21.0259    5.5462   31.9729 C   0  0  0  0  0  0  0  0  0  0  0  0
   21.7316   14.1766   31.3736 C   0  0  0  0  0  0  0  0  0  0  0  0
   20.4586   14.1258   30.8096 C   0  0  0  0  0  0  0  0  0  0  0  0
   19.7357   15.1768   31.2367 N   0  0  0  0  0  0  0  0  0  0  0  0
   20.5336   15.8588   32.0403 N   0  0  0  0  0  0  0  0  0  0  0  0
   21.7389   15.3062   32.1591 C   0  0  0  0  0  0  0  0  0  0  0  0
   22.9013   15.7823   32.9828 C   0  0  0  0  0  0  0  0  0  0  0  0
   18.3442   15.4908   30.8733 C   0  0  0  0  0  0  0  0  0  0  0  0
 12 13  1  0  0  0
 13 14  2  0  0  0
 13 18  1  0  0  0
 14 15  1  0  0  0
 15 16  2  0  0  0
 15  1  1  0  0  0
 16 17  1  0  0  0
 17 18  2  0  0  0
  1  2  1  0  0  0
  1  9  1  0  0  0
  2  3  2  0  0  0
  2  4  1  0  0  0
  4  5  1  0  0  0
  4  8  1  0  0  0
  5  6  1  0  0  0
  6  7  1  0  0  0
  7  8  2  0  0  0
  7 19  1  0  0  0
  8  9  1  0  0  0
  9 10  2  0  0  0
 19 20  2  0  0  0
 19 23  1  0  0  0
 20 21  1  0  0  0
 21 22  1  0  0  0
 21 25  1  0  0  0
 22 23  2  0  0  0
 23 24  1  0  0  0
  6 11  1  0  0  0
M  END
> <minimizedAffinity>
-9.68465

$$$$
216


 28 31  0  0  0  0  0  0  0  0999 V2000
   25.0306    7.9079   30.0736 C   0  0  0  0  0  0  0  0  0  0  0  0
   25.4647    7.2421   29.1005 O   0  0  0  0  0  0  0  0  0  0  0  0
   25.5304    9.1916   30.3786 N   0  0  0  0  0  0  0  0  0  0  0  0
   25.0502    9.9922   31.4962 C   0  0  0  0  0  0  0  0  0  0  0  0
   25.2377   11.4663   31.1604 C   0  0  0  0  0  0  0  0  0  0  0  0
   25.2118   11.7250   29.7342 N   0  0  0  0  0  0  0  0  0  0  0  0
   26.3676   11.1568   29.1346 C   0  0  0  0  0  0  0  0  0  0  0  0
   26.5863    9.7313   29.5126 C   0  0  0  0  0  0  0  0  0  0  0  0
   21.8419    6.8228   31.3192 N   0  0  0  0  0  0  0  0  0  0  0  0
   22.5781    7.5731   30.3128 C   0  0  0  0  0  0  0  0  0  0  0  0
   23.9863    7.3251   30.8925 C   0  0  0  0  0  0  0  0  0  0  0  0
   23.9402    5.7936   30.8494 C   0  0  0  0  0  0  0  0  0  0  0  0
   22.5763    5.6077   31.4181 C   0  0  0  0  0  0  0  0  0  0  0  0
   22.1395    4.5419   31.9099 O   0  0  0  0  0  0  0  0  0  0  0  0
   19.5027   10.9441   33.5687 Br  0  0  0  0  0  0  0  0  0  0  0  0
   19.5054    9.1259   33.0573 C   0  0  0  0  0  0  0  0  0  0  0  0
   20.6110    8.6088   32.3915 C   0  0  0  0  0  0  0  0  0  0  0  0
   20.6863    7.2893   31.9859 C   0  0  0  0  0  0  0  0  0  0  0  0
   19.5919    6.5073   32.2833 C   0  0  0  0  0  0  0  0  0  0  0  0
   18.4641    6.9536   32.9406 C   0  0  0  0  0  0  0  0  0  0  0  0
   18.4331    8.2764   33.3257 C   0  0  0  0  0  0  0  0  0  0  0  0
   23.9559   11.4168   29.1485 C   0  0  0  0  0  0  0  0  0  0  0  0
   22.7744   11.6996   30.0410 C   0  0  0  0  0  0  0  0  0  0  0  0
   22.5868   13.0902   30.3404 N   0  0  0  0  0  0  0  0  0  0  0  0
   22.9823   14.1524   29.6366 C   0  0  0  0  0  0  0  0  0  0  0  0
   22.6097   15.2817   30.2765 N   0  0  0  0  0  0  0  0  0  0  0  0
   21.9703   14.9335   31.3992 C   0  0  0  0  0  0  0  0  0  0  0  0
   21.9619   13.5585   31.4296 C   0  0  0  0  0  0  0  0  0  0  0  0
 15 16  1  0  0  0
 16 17  2  0  0  0
 16 21  1  0  0  0
 17 18  1  0  0  0
 18 19  2  0  0  0
 18  9  1  0  0  0
 19 20  1  0  0  0
 20 21  2  0  0  0
  9 10  1  0  0  0
  9 13  1  0  0  0
 10 11  1  0  0  0
 11 12  1  0  0  0
 11  1  1  0  0  0
 12 13  1  0  0  0
 13 14  2  0  0  0
  1  2  2  0  0  0
  1  3  1  0  0  0
  3  4  1  0  0  0
  3  8  1  0  0  0
  4  5  1  0  0  0
  5  6  1  0  0  0
  6  7  1  0  0  0
  6 22  1  0  0  0
  7  8  1  0  0  0
 22 23  1  0  0  0
 23 24  1  0  0  0
 24 25  1  0  0  0
 24 28  1  0  0  0
 25 26  2  0  0  0
 26 27  1  0  0  0
 27 28  2  0  0  0
M  END
> <minimizedAffinity>
-8.38871

$$$$
219


 27 30  0  0  0  0  0  0  0  0999 V2000
   23.4548    7.0334   30.7369 N   0  0  0  0  0  0  0  0  0  0  0  0
   24.4935    7.3950   29.8355 C   0  0  0  0  0  0  0  0  0  0  0  0
   24.4962    6.7526   28.7279 O   0  0  0  0  0  0  0  0  0  0  0  0
   23.4014    7.5278   31.6521 H   0  0  0  0  0  0  0  0  0  0  0  0
   25.5225    8.4228   30.0952 C   0  0  0  0  0  0  0  0  0  0  0  0
   25.0042    9.7288   30.3984 N   0  0  0  0  0  0  0  0  0  0  0  0
   24.5970   10.0980   31.7267 C   0  0  0  0  0  0  0  0  0  0  0  0
   24.3437    9.3369   32.6938 O   0  0  0  0  0  0  0  0  0  0  0  0
   24.5196   11.5579   31.7764 C   0  0  0  0  0  0  0  0  0  0  0  0
   24.9161   12.0757   30.3793 C   0  0  0  0  0  0  0  0  0  0  0  0
   23.8532   13.0356   29.9758 C   0  0  0  0  0  0  0  0  0  0  0  0
   23.3824   13.5418   31.3556 C   0  0  0  0  0  0  0  0  0  0  0  0
   23.1271   12.1163   31.8845 C   0  0  0  0  0  0  0  0  0  0  0  0
   22.3208   11.5914   30.7309 C   0  0  0  0  0  0  0  0  0  0  0  0
   22.6493   12.2436   29.6206 C   0  0  0  0  0  0  0  0  0  0  0  0
   24.8114   10.8572   29.5349 C   0  0  0  0  0  0  0  0  0  0  0  0
   24.5967   10.7925   28.3121 O   0  0  0  0  0  0  0  0  0  0  0  0
   22.4861    6.0230   30.4371 C   0  0  0  0  0  0  0  0  0  0  0  0
   21.7408    5.5986   31.7123 C   0  0  0  0  0  0  0  0  0  0  0  0
   20.8422    6.4624   32.0568 O   0  0  0  0  0  0  0  0  0  0  0  0
   19.8497   11.3654   33.4874 Br  0  0  0  0  0  0  0  0  0  0  0  0
   19.3701    9.5435   33.1764 C   0  0  0  0  0  0  0  0  0  0  0  0
   20.2740    8.6232   32.7211 C   0  0  0  0  0  0  0  0  0  0  0  0
   19.9480    7.2756   32.4834 C   0  0  0  0  0  0  0  0  0  0  0  0
   18.6063    6.9380   32.7527 C   0  0  0  0  0  0  0  0  0  0  0  0
   17.6967    7.8595   33.2102 C   0  0  0  0  0  0  0  0  0  0  0  0
   18.0772    9.1693   33.4240 C   0  0  0  0  0  0  0  0  0  0  0  0
 21 22  1  0  0  0
 22 23  2  0  0  0
 22 27  1  0  0  0
 23 24  1  0  0  0
 24 25  2  0  0  0
 24 20  1  0  0  0
 25 26  1  0  0  0
 26 27  2  0  0  0
 20 19  1  0  0  0
 19 18  1  0  0  0
 18  1  1  0  0  0
  1  2  1  0  0  0
  2  3  2  0  0  0
  2  5  1  0  0  0
  5  6  1  0  0  0
  6  7  1  0  0  0
  6 16  1  0  0  0
  7  8  2  0  0  0
  7  9  1  0  0  0
  9 10  1  0  0  0
  9 13  1  0  0  0
 10 11  1  0  0  0
 10 16  1  0  0  0
 11 12  1  0  0  0
 11 15  1  0  0  0
 12 13  1  0  0  0
 13 14  1  0  0  0
 14 15  2  0  0  0
 16 17  2  0  0  0
  1  4  1  0  0  0
M  END
> <minimizedAffinity>
-8.05720

$$$$
226


 30 33  0  0  0  0  0  0  0  0999 V2000
   24.9249    7.0236   30.3204 N   0  0  0  0  0  0  0  0  0  0  0  0
   25.7111    6.1115   29.7248 C   0  0  0  0  0  0  0  0  0  0  0  0
   26.4981    6.7266   28.7700 C   0  0  0  0  0  0  0  0  0  0  0  0
   26.1566    8.0199   28.8204 N   0  0  0  0  0  0  0  0  0  0  0  0
   25.2070    8.2290   29.7495 C   0  0  0  0  0  0  0  0  0  0  0  0
   27.3703    6.0031   28.0448 N   0  0  0  0  0  0  0  0  0  0  0  0
   27.4879    4.6774   28.2361 C   0  0  0  0  0  0  0  0  0  0  0  0
   28.2888    3.9648   27.5815 O   0  0  0  0  0  0  0  0  0  0  0  0
   26.7190    4.0587   29.1741 N   0  0  0  0  0  0  0  0  0  0  0  0
   25.8329    4.7384   29.9237 C   0  0  0  0  0  0  0  0  0  0  0  0
   25.1299    4.1229   30.7897 O   0  0  0  0  0  0  0  0  0  0  0  0
   28.2084    6.6179   27.0360 C   0  0  0  0  0  0  0  0  0  0  0  0
   26.8423    3.0261   29.2921 H   0  0  0  0  0  0  0  0  0  0  0  0
   24.5796    9.4422   30.1219 N   0  0  0  0  0  0  0  0  0  0  0  0
   23.4293    9.8781   29.3983 C   0  0  0  0  0  0  0  0  0  0  0  0
   22.5995   10.9389   30.0198 C   0  0  0  0  0  0  0  0  0  0  0  0
   23.2739   11.7927   30.9526 N   0  0  0  0  0  0  0  0  0  0  0  0
   23.9575   10.9521   31.9160 C   0  0  0  0  0  0  0  0  0  0  0  0
   25.0957   10.2107   31.2126 C   0  0  0  0  0  0  0  0  0  0  0  0
   24.1429   12.7517   30.3325 C   0  0  0  0  0  0  0  0  0  0  0  0
   23.9696    6.7981   31.3681 C   0  0  0  0  0  0  0  0  0  0  0  0
   22.5953    6.5013   30.8565 C   0  0  0  0  0  0  0  0  0  0  0  0
   22.4338    5.8285   29.8254 O   0  0  0  0  0  0  0  0  0  0  0  0
   17.5743    8.5804   33.8236 Br  0  0  0  0  0  0  0  0  0  0  0  0
   19.1297    7.9719   32.9142 C   0  0  0  0  0  0  0  0  0  0  0  0
   19.2304    6.6482   32.5113 C   0  0  0  0  0  0  0  0  0  0  0  0
   20.3503    6.1755   31.8475 C   0  0  0  0  0  0  0  0  0  0  0  0
   21.4133    6.9958   31.5592 C   0  0  0  0  0  0  0  0  0  0  0  0
   21.3008    8.3134   31.9660 C   0  0  0  0  0  0  0  0  0  0  0  0
   20.1940    8.7969   32.6256 C   0  0  0  0  0  0  0  0  0  0  0  0
 24 25  1  0  0  0
 25 26  2  0  0  0
 25 30  1  0  0  0
 26 27  1  0  0  0
 27 28  2  0  0  0
 28 29  1  0  0  0
 28 22  1  0  0  0
 29 30  2  0  0  0
 22 23  2  0  0  0
 22 21  1  0  0  0
 21  1  1  0  0  0
  1  2  1  0  0  0
  1  5  1  0  0  0
  2  3  2  0  0  0
  2 10  1  0  0  0
  3  4  1  0  0  0
  3  6  1  0  0  0
  4  5  2  0  0  0
  5 14  1  0  0  0
 14 15  1  0  0  0
 14 19  1  0  0  0
 15 16  1  0  0  0
 16 17  1  0  0  0
 17 18  1  0  0  0
 17 20  1  0  0  0
 18 19  1  0  0  0
  6  7  1  0  0  0
  6 12  1  0  0  0
  7  8  2  0  0  0
  7  9  1  0  0  0
  9 10  1  0  0  0
 10 11  2  0  0  0
  9 13  1  0  0  0
M  END
> <minimizedAffinity>
-8.29766

$$$$
231


 34 37  0  0  0  0  0  0  0  0999 V2000
   26.6532    5.0288   29.6384 C   0  0  0  0  0  0  0  0  0  0  0  0
   27.9545    5.6911   29.2568 C   0  0  0  0  0  0  0  0  0  0  0  0
   28.9322    4.7610   29.7733 N   0  0  0  0  0  0  0  0  0  0  0  0
   28.3651    3.4629   29.6282 C   0  0  0  0  0  0  0  0  0  0  0  0
   28.9656    2.3630   29.8329 O   0  0  0  0  0  0  0  0  0  0  0  0
   26.9622    3.6188   29.1978 C   0  0  0  0  0  0  0  0  0  0  0  0
   26.2511    2.7793   28.6231 O   0  0  0  0  0  0  0  0  0  0  0  0
   28.0909    5.9795   27.8375 C   0  0  0  0  0  0  0  0  0  0  0  0
   27.8368    7.2534   27.3095 C   0  0  0  0  0  0  0  0  0  0  0  0
   27.9723    7.5205   25.9629 C   0  0  0  0  0  0  0  0  0  0  0  0
   28.3684    6.5358   25.0769 C   0  0  0  0  0  0  0  0  0  0  0  0
   28.6245    5.2760   25.5749 C   0  0  0  0  0  0  0  0  0  0  0  0
   28.4830    5.0231   26.9303 C   0  0  0  0  0  0  0  0  0  0  0  0
   28.5122    6.7778   23.7165 O   0  0  0  0  0  0  0  0  0  0  0  0
   27.7225    8.7753   25.4354 O   0  0  0  0  0  0  0  0  0  0  0  0
   28.1627    9.9704   26.0281 C   0  0  0  0  0  0  0  0  0  0  0  0
   25.4730    5.5626   28.9841 C   0  0  0  0  0  0  0  0  0  0  0  0
   25.1740    5.2320   27.8180 O   0  0  0  0  0  0  0  0  0  0  0  0
   21.7642    9.4498   31.9436 Br  0  0  0  0  0  0  0  0  0  0  0  0
   22.9291    8.2644   31.0276 C   0  0  0  0  0  0  0  0  0  0  0  0
   22.5272    6.9666   30.8212 C   0  0  0  0  0  0  0  0  0  0  0  0
   23.3589    6.0998   30.1613 C   0  0  0  0  0  0  0  0  0  0  0  0
   24.6136    6.4984   29.6860 C   0  0  0  0  0  0  0  0  0  0  0  0
   24.9567    7.8135   29.9255 C   0  0  0  0  0  0  0  0  0  0  0  0
   24.1448    8.7159   30.5874 C   0  0  0  0  0  0  0  0  0  0  0  0
   30.2357    5.0066   30.3380 C   0  0  0  0  0  0  0  0  0  0  0  0
   30.8014    6.3469   29.9788 C   0  0  0  0  0  0  0  0  0  0  0  0
   30.4237    7.4143   30.8220 N   0  0  0  0  0  0  0  0  0  0  0  0
   30.3107    8.6244   30.0010 C   0  0  0  0  0  0  0  0  0  0  0  0
   31.6370    9.1246   29.5323 C   0  0  0  0  0  0  0  0  0  0  0  0
   32.7196    8.5813   30.1797 O   0  0  0  0  0  0  0  0  0  0  0  0
   32.5080    8.5126   31.5346 C   0  0  0  0  0  0  0  0  0  0  0  0
   31.2903    7.7107   31.9068 C   0  0  0  0  0  0  0  0  0  0  0  0
   29.4512    7.2665   31.2115 H   0  0  0  0  0  0  0  0  0  0  0  0
 19 20  1  0  0  0
 20 21  2  0  0  0
 20 25  1  0  0  0
 21 22  1  0  0  0
 22 23  2  0  0  0
 23 24  1  0  0  0
 23 17  1  0  0  0
 24 25  2  0  0  0
 17 18  2  0  0  0
 17  1  1  0  0  0
  1  2  1  0  0  0
  1  6  1  0  0  0
  2  3  1  0  0  0
  2  8  1  0  0  0
  3  4  1  0  0  0
  3 26  1  0  0  0
  4  5  2  0  0  0
  4  6  1  0  0  0
  6  7  2  0  0  0
 26 27  1  0  0  0
 27 28  1  0  0  0
 28 29  1  0  0  0
 28 33  1  0  0  0
 29 30  1  0  0  0
 30 31  1  0  0  0
 31 32  1  0  0  0
 32 33  1  0  0  0
  8  9  2  0  0  0
  8 13  1  0  0  0
  9 10  1  0  0  0
 10 11  2  0  0  0
 10 15  1  0  0  0
 11 12  1  0  0  0
 11 14  1  0  0  0
 12 13  2  0  0  0
 15 16  1  0  0  0
 28 34  1  0  0  0
M  CHG 1  14  -1
M  CHG 1  28   1
M  END
> <minimizedAffinity>
-6.21602

$$$$
235


 25 28  0  0  0  0  0  0  0  0999 V2000
   24.4551    5.9552   29.2450 C   0  0  0  0  0  0  0  0  0  0  0  0
   25.6991    6.4180   28.6500 N   0  0  0  0  0  0  0  0  0  0  0  0
   26.5482    7.4961   28.7925 N   0  0  0  0  0  0  0  0  0  0  0  0
   27.6801    7.5960   28.1896 C   0  0  0  0  0  0  0  0  0  0  0  0
   28.1103    6.5434   27.2983 C   0  0  0  0  0  0  0  0  0  0  0  0
   27.3448    5.4976   27.0891 C   0  0  0  0  0  0  0  0  0  0  0  0
   26.0457    5.3482   27.7178 C   0  0  0  0  0  0  0  0  0  0  0  0
   25.8613    4.1466   28.5754 C   0  0  0  0  0  0  0  0  0  0  0  0
   24.8511    4.5536   29.6543 C   0  0  0  0  0  0  0  0  0  0  0  0
   25.6241    4.5161   30.8938 C   0  0  0  0  0  0  0  0  0  0  0  0
   25.2729    5.0275   31.9929 O   0  0  0  0  0  0  0  0  0  0  0  0
   26.8301    3.8150   30.6607 N   0  0  0  0  0  0  0  0  0  0  0  0
   27.0831    3.7150   29.2652 C   0  0  0  0  0  0  0  0  0  0  0  0
   28.1453    3.3318   28.7178 O   0  0  0  0  0  0  0  0  0  0  0  0
   24.0609    6.7943   30.3849 C   0  0  0  0  0  0  0  0  0  0  0  0
   24.9642    7.5484   30.8731 O   0  0  0  0  0  0  0  0  0  0  0  0
   18.4640    7.0417   32.9795 Br  0  0  0  0  0  0  0  0  0  0  0  0
   20.1961    6.9833   32.1788 C   0  0  0  0  0  0  0  0  0  0  0  0
   20.7116    5.8079   31.6777 C   0  0  0  0  0  0  0  0  0  0  0  0
   21.9540    5.7162   31.0923 C   0  0  0  0  0  0  0  0  0  0  0  0
   22.7463    6.8299   30.9851 C   0  0  0  0  0  0  0  0  0  0  0  0
   22.2384    8.0183   31.4855 C   0  0  0  0  0  0  0  0  0  0  0  0
   20.9952    8.1003   32.0691 C   0  0  0  0  0  0  0  0  0  0  0  0
   27.6981    3.2677   31.6770 C   0  0  0  0  0  0  0  0  0  0  0  0
   27.1478    2.0403   32.3373 C   0  0  0  0  0  0  0  0  0  0  0  0
 17 18  1  0  0  0
 18 19  2  0  0  0
 18 23  1  0  0  0
 19 20  1  0  0  0
 20 21  2  0  0  0
 21 22  1  0  0  0
 21 15  1  0  0  0
 22 23  2  0  0  0
 15 16  2  0  0  0
 15  1  1  0  0  0
  1  2  1  0  0  0
  1  9  1  0  0  0
  2  3  1  0  0  0
  2  7  1  0  0  0
  3  4  2  0  0  0
  4  5  1  0  0  0
  5  6  2  0  0  0
  6  7  1  0  0  0
  7  8  1  0  0  0
  8  9  1  0  0  0
  8 13  1  0  0  0
  9 10  1  0  0  0
 10 11  2  0  0  0
 10 12  1  0  0  0
 12 13  1  0  0  0
 12 24  1  0  0  0
 13 14  2  0  0  0
 24 25  1  0  0  0
M  END
> <minimizedAffinity>
-6.93862

$$$$
243


 30 33  0  0  0  0  0  0  0  0999 V2000
   26.7540    2.4713   30.2439 C   0  0  0  0  0  0  0  0  0  0  0  0
   25.7503    2.6542   31.3560 C   0  0  0  0  0  0  0  0  0  0  0  0
   25.1684    3.9546   31.1012 N   0  0  0  0  0  0  0  0  0  0  0  0
   26.0316    4.7204   30.2176 C   0  0  0  0  0  0  0  0  0  0  0  0
   27.1575    3.8462   29.7886 C   0  0  0  0  0  0  0  0  0  0  0  0
   25.1737    5.1721   29.0987 C   0  0  0  0  0  0  0  0  0  0  0  0
   25.5643    5.0101   27.9212 O   0  0  0  0  0  0  0  0  0  0  0  0
   23.9316    5.7756   29.4115 N   0  0  0  0  0  0  0  0  0  0  0  0
   23.2742    5.6417   30.6910 C   0  0  0  0  0  0  0  0  0  0  0  0
   23.9807    4.6183   31.5134 C   0  0  0  0  0  0  0  0  0  0  0  0
   23.5123    4.2957   32.6638 O   0  0  0  0  0  0  0  0  0  0  0  0
   23.4882    6.3475   28.6451 H   0  0  0  0  0  0  0  0  0  0  0  0
   26.4843    0.4219   28.8935 C   0  0  0  0  0  0  0  0  0  0  0  0
   27.2429   -0.2247   29.6925 O   0  0  0  0  0  0  0  0  0  0  0  0
   26.2002    1.7723   29.1129 N   0  0  0  0  0  0  0  0  0  0  0  0
   25.5858    2.2925   28.4646 H   0  0  0  0  0  0  0  0  0  0  0  0
   24.1937   -2.8250   24.1294 Br  0  0  0  0  0  0  0  0  0  0  0  0
   24.9224   -1.8240   25.5708 C   0  0  0  0  0  0  0  0  0  0  0  0
   26.1650   -1.2254   25.5249 C   0  0  0  0  0  0  0  0  0  0  0  0
   26.6654   -0.5048   26.5901 C   0  0  0  0  0  0  0  0  0  0  0  0
   25.9505   -0.3453   27.7590 C   0  0  0  0  0  0  0  0  0  0  0  0
   24.7119   -0.9423   27.8048 C   0  0  0  0  0  0  0  0  0  0  0  0
   24.2038   -1.6619   26.7499 C   0  0  0  0  0  0  0  0  0  0  0  0
   23.1681    6.9731   31.3946 C   0  0  0  0  0  0  0  0  0  0  0  0
   21.7658    7.2597   31.8093 C   0  0  0  0  0  0  0  0  0  0  0  0
   20.8163    6.2380   31.8504 C   0  0  0  0  0  0  0  0  0  0  0  0
   19.5357    6.5606   32.2416 C   0  0  0  0  0  0  0  0  0  0  0  0
   19.1548    7.8438   32.5933 C   0  0  0  0  0  0  0  0  0  0  0  0
   20.1253    8.8167   32.5373 C   0  0  0  0  0  0  0  0  0  0  0  0
   21.4218    8.5544   32.1532 C   0  0  0  0  0  0  0  0  0  0  0  0
 17 18  1  0  0  0
 18 19  2  0  0  0
 18 23  1  0  0  0
 19 20  1  0  0  0
 20 21  2  0  0  0
 21 22  1  0  0  0
 21 13  1  0  0  0
 22 23  2  0  0  0
 13 14  2  0  0  0
 13 15  1  0  0  0
 15  1  1  0  0  0
  1  2  1  0  0  0
  1  5  1  0  0  0
  2  3  1  0  0  0
  3  4  1  0  0  0
  3 10  1  0  0  0
  4  5  1  0  0  0
  4  6  1  0  0  0
  6  7  2  0  0  0
  6  8  1  0  0  0
  8  9  1  0  0  0
  9 10  1  0  0  0
  9 24  1  0  0  0
 10 11  2  0  0  0
 24 25  1  0  0  0
 25 26  2  0  0  0
 25 30  1  0  0  0
 26 27  1  0  0  0
 27 28  2  0  0  0
 28 29  1  0  0  0
 29 30  2  0  0  0
 15 16  1  0  0  0
  8 12  1  0  0  0
M  END
> <minimizedAffinity>
-7.52907

$$$$
244


 25 28  0  0  0  0  0  0  0  0999 V2000
   24.5788    6.5954   30.2486 C   0  0  0  0  0  0  0  0  0  0  0  0
   24.8648    8.0145   30.6816 C   0  0  0  0  0  0  0  0  0  0  0  0
   23.5597    8.4981   31.0957 N   0  0  0  0  0  0  0  0  0  0  0  0
   22.5340    7.7558   30.3895 C   0  0  0  0  0  0  0  0  0  0  0  0
   23.1922    6.6370   29.6546 C   0  0  0  0  0  0  0  0  0  0  0  0
   21.5665    7.2900   31.4153 C   0  0  0  0  0  0  0  0  0  0  0  0
   21.1134    6.1226   31.4622 O   0  0  0  0  0  0  0  0  0  0  0  0
   21.1126    8.1911   32.4082 N   0  0  0  0  0  0  0  0  0  0  0  0
   21.8988    9.3261   32.8453 C   0  0  0  0  0  0  0  0  0  0  0  0
   20.8944   10.4280   32.7261 C   0  0  0  0  0  0  0  0  0  0  0  0
   19.6306    9.7482   33.2663 C   0  0  0  0  0  0  0  0  0  0  0  0
   19.8966    8.2427   33.1708 C   0  0  0  0  0  0  0  0  0  0  0  0
   23.1078    9.4974   32.0010 C   0  0  0  0  0  0  0  0  0  0  0  0
   23.7857   10.5790   32.0750 O   0  0  0  0  0  0  0  0  0  0  0  0
   24.8698    4.3006   31.0836 C   0  0  0  0  0  0  0  0  0  0  0  0
   25.1365    3.9252   29.9230 O   0  0  0  0  0  0  0  0  0  0  0  0
   24.5718    5.6651   31.3294 N   0  0  0  0  0  0  0  0  0  0  0  0
   24.3413    6.0237   32.2901 H   0  0  0  0  0  0  0  0  0  0  0  0
   24.6834    0.1927   35.7041 Br  0  0  0  0  0  0  0  0  0  0  0  0
   24.7979    1.4356   34.2741 C   0  0  0  0  0  0  0  0  0  0  0  0
   23.7129    2.2423   33.9771 C   0  0  0  0  0  0  0  0  0  0  0  0
   23.7429    3.1600   32.9502 C   0  0  0  0  0  0  0  0  0  0  0  0
   24.8721    3.3075   32.1756 C   0  0  0  0  0  0  0  0  0  0  0  0
   25.9435    2.5167   32.4627 C   0  0  0  0  0  0  0  0  0  0  0  0
   25.9311    1.5831   33.4964 C   0  0  0  0  0  0  0  0  0  0  0  0
 19 20  1  0  0  0
 20 21  2  0  0  0
 20 25  1  0  0  0
 21 22  1  0  0  0
 22 23  2  0  0  0
 23 24  1  0  0  0
 23 15  1  0  0  0
 24 25  2  0  0  0
 15 16  2  0  0  0
 15 17  1  0  0  0
 17  1  1  0  0  0
  1  2  1  0  0  0
  1  5  1  0  0  0
  2  3  1  0  0  0
  3  4  1  0  0  0
  3 13  1  0  0  0
  4  5  1  0  0  0
  4  6  1  0  0  0
  6  7  2  0  0  0
  6  8  1  0  0  0
  8  9  1  0  0  0
  8 12  1  0  0  0
  9 10  1  0  0  0
  9 13  1  0  0  0
 10 11  1  0  0  0
 11 12  1  0  0  0
 13 14  2  0  0  0
 17 18  1  0  0  0
M  END
> <minimizedAffinity>
-7.99702

$$$$
247


 23 26  0  0  0  0  0  0  0  0999 V2000
   23.5642    7.1858   30.8145 N   0  0  0  0  0  0  0  0  0  0  0  0
   22.3585    7.8963   31.0715 C   0  0  0  0  0  0  0  0  0  0  0  0
   21.5084    7.4803   31.9306 O   0  0  0  0  0  0  0  0  0  0  0  0
   22.2782    9.1139   30.2234 C   0  0  0  0  0  0  0  0  0  0  0  0
   23.6433    9.1265   29.5626 C   0  0  0  0  0  0  0  0  0  0  0  0
   24.3688   10.1282   30.4351 C   0  0  0  0  0  0  0  0  0  0  0  0
   23.3033   11.2430   30.3794 C   0  0  0  0  0  0  0  0  0  0  0  0
   22.2398   10.3612   31.0606 C   0  0  0  0  0  0  0  0  0  0  0  0
   23.0155   10.0425   32.3115 C   0  0  0  0  0  0  0  0  0  0  0  0
   24.2416    9.7775   31.8770 C   0  0  0  0  0  0  0  0  0  0  0  0
   24.1955    7.7663   29.6911 C   0  0  0  0  0  0  0  0  0  0  0  0
   25.0524    7.2529   28.9398 O   0  0  0  0  0  0  0  0  0  0  0  0
   23.5446    4.7914   31.4143 C   0  0  0  0  0  0  0  0  0  0  0  0
   22.5153    4.5670   30.6981 O   0  0  0  0  0  0  0  0  0  0  0  0
   24.1150    6.0784   31.5106 N   0  0  0  0  0  0  0  0  0  0  0  0
   24.9577    6.2299   32.0937 H   0  0  0  0  0  0  0  0  0  0  0  0
   25.8398    0.0809   34.6221 Br  0  0  0  0  0  0  0  0  0  0  0  0
   25.1453    1.5420   33.6024 C   0  0  0  0  0  0  0  0  0  0  0  0
   23.9479    2.0983   33.9462 C   0  0  0  0  0  0  0  0  0  0  0  0
   23.4331    3.1549   33.2237 C   0  0  0  0  0  0  0  0  0  0  0  0
   24.1178    3.6777   32.1310 C   0  0  0  0  0  0  0  0  0  0  0  0
   25.3237    3.1042   31.7992 C   0  0  0  0  0  0  0  0  0  0  0  0
   25.8444    2.0540   32.5098 C   0  0  0  0  0  0  0  0  0  0  0  0
 17 18  1  0  0  0
 18 19  2  0  0  0
 18 23  1  0  0  0
 19 20  1  0  0  0
 20 21  2  0  0  0
 21 22  1  0  0  0
 21 13  1  0  0  0
 22 23  2  0  0  0
 13 14  2  0  0  0
 13 15  1  0  0  0
 15  1  1  0  0  0
  1  2  1  0  0  0
  1 11  1  0  0  0
  2  3  2  0  0  0
  2  4  1  0  0  0
  4  5  1  0  0  0
  4  8  1  0  0  0
  5  6  1  0  0  0
  5 11  1  0  0  0
  6  7  1  0  0  0
  6 10  1  0  0  0
  7  8  1  0  0  0
  8  9  1  0  0  0
  9 10  2  0  0  0
 11 12  2  0  0  0
 15 16  1  0  0  0
M  END
> <minimizedAffinity>
-7.72689

$$$$
257


 31 34  0  0  0  0  0  0  0  0999 V2000
   25.9733    7.3787   29.4543 C   0  0  0  0  0  0  0  0  0  0  0  0
   25.2875    6.6177   30.2678 C   0  0  0  0  0  0  0  0  0  0  0  0
   24.1741    7.0050   31.1920 C   0  0  0  0  0  0  0  0  0  0  0  0
   23.2892    5.8547   31.0508 N   0  0  0  0  0  0  0  0  0  0  0  0
   24.1810    4.7232   31.0008 C   0  0  0  0  0  0  0  0  0  0  0  0
   23.8689    3.5679   31.3326 O   0  0  0  0  0  0  0  0  0  0  0  0
   25.4810    5.1941   30.4984 C   0  0  0  0  0  0  0  0  0  0  0  0
   26.5289    4.5219   30.3113 O   0  0  0  0  0  0  0  0  0  0  0  0
   25.6712    8.7536   29.4010 O   0  0  0  0  0  0  0  0  0  0  0  0
   30.5188    5.0650   25.9450 Br  0  0  0  0  0  0  0  0  0  0  0  0
   29.1338    5.7780   27.0422 C   0  0  0  0  0  0  0  0  0  0  0  0
   29.3773    6.5570   28.1529 C   0  0  0  0  0  0  0  0  0  0  0  0
   28.3628    7.0641   28.9353 C   0  0  0  0  0  0  0  0  0  0  0  0
   27.0210    6.8041   28.6283 C   0  0  0  0  0  0  0  0  0  0  0  0
   26.7949    6.0236   27.5147 C   0  0  0  0  0  0  0  0  0  0  0  0
   27.8197    5.5096   26.7229 C   0  0  0  0  0  0  0  0  0  0  0  0
   23.5460    8.2764   30.7557 C   0  0  0  0  0  0  0  0  0  0  0  0
   23.6997    9.3550   31.5404 N   0  0  0  0  0  0  0  0  0  0  0  0
   23.1905   10.5536   31.2456 C   0  0  0  0  0  0  0  0  0  0  0  0
   22.4729   10.6826   30.0794 C   0  0  0  0  0  0  0  0  0  0  0  0
   22.2904    9.6047   29.2456 C   0  0  0  0  0  0  0  0  0  0  0  0
   22.8347    8.3954   29.5942 C   0  0  0  0  0  0  0  0  0  0  0  0
   21.8565    5.8644   30.9902 C   0  0  0  0  0  0  0  0  0  0  0  0
   21.2268    5.9680   32.3706 C   0  0  0  0  0  0  0  0  0  0  0  0
   19.7692    6.3888   32.1835 C   0  0  0  0  0  0  0  0  0  0  0  0
   19.5227    7.7140   32.7181 N   0  0  0  0  0  0  0  0  0  0  0  0
   18.3439    8.2214   33.1482 C   0  0  0  0  0  0  0  0  0  0  0  0
   18.5403    9.4826   33.5684 N   0  0  0  0  0  0  0  0  0  0  0  0
   19.8325    9.8100   33.4197 C   0  0  0  0  0  0  0  0  0  0  0  0
   20.4310    8.6870   32.8850 C   0  0  0  0  0  0  0  0  0  0  0  0
   17.8045   10.1352   33.9602 H   0  0  0  0  0  0  0  0  0  0  0  0
 10 11  1  0  0  0
 11 12  2  0  0  0
 11 16  1  0  0  0
 12 13  1  0  0  0
 13 14  2  0  0  0
 14 15  1  0  0  0
 14  1  1  0  0  0
 15 16  2  0  0  0
  1  2  2  0  0  0
  1  9  1  0  0  0
  2  3  1  0  0  0
  2  7  1  0  0  0
  3  4  1  0  0  0
  3 17  1  0  0  0
  4  5  1  0  0  0
  4 23  1  0  0  0
  5  6  2  0  0  0
  5  7  1  0  0  0
  7  8  2  0  0  0
 23 24  1  0  0  0
 24 25  1  0  0  0
 25 26  1  0  0  0
 26 27  1  0  0  0
 26 30  1  0  0  0
 27 28  2  0  0  0
 28 29  1  0  0  0
 29 30  2  0  0  0
 17 18  2  0  0  0
 17 22  1  0  0  0
 18 19  1  0  0  0
 19 20  2  0  0  0
 20 21  1  0  0  0
 21 22  2  0  0  0
 28 31  1  0  0  0
M  CHG 1   9  -1
M  END
> <minimizedAffinity>
-7.27048

$$$$
263


 34 37  0  0  0  0  0  0  0  0999 V2000
   25.6816    7.1670   29.5571 C   0  0  0  0  0  0  0  0  0  0  0  0
   24.8369    6.5428   30.3347 C   0  0  0  0  0  0  0  0  0  0  0  0
   23.7631    7.1593   31.1931 C   0  0  0  0  0  0  0  0  0  0  0  0
   22.7364    6.1749   31.1916 N   0  0  0  0  0  0  0  0  0  0  0  0
   23.3821    4.8875   31.0409 C   0  0  0  0  0  0  0  0  0  0  0  0
   22.9090    3.7598   31.3207 O   0  0  0  0  0  0  0  0  0  0  0  0
   24.7166    5.1117   30.4958 C   0  0  0  0  0  0  0  0  0  0  0  0
   25.5679    4.1977   30.2290 O   0  0  0  0  0  0  0  0  0  0  0  0
   25.6030    8.5756   29.4835 O   0  0  0  0  0  0  0  0  0  0  0  0
   30.1359    4.1001   26.7042 Br  0  0  0  0  0  0  0  0  0  0  0  0
   28.6935    5.0549   27.5449 C   0  0  0  0  0  0  0  0  0  0  0  0
   28.9814    5.7802   28.6789 C   0  0  0  0  0  0  0  0  0  0  0  0
   27.9736    6.4673   29.2944 C   0  0  0  0  0  0  0  0  0  0  0  0
   26.6757    6.4380   28.7869 C   0  0  0  0  0  0  0  0  0  0  0  0
   26.4039    5.7195   27.6694 C   0  0  0  0  0  0  0  0  0  0  0  0
   27.4118    5.0212   27.0381 C   0  0  0  0  0  0  0  0  0  0  0  0
   23.4248    8.5028   30.7410 C   0  0  0  0  0  0  0  0  0  0  0  0
   23.7872    9.6720   31.3539 C   0  0  0  0  0  0  0  0  0  0  0  0
   23.4356   10.9005   30.8580 C   0  0  0  0  0  0  0  0  0  0  0  0
   22.6942   10.9766   29.7103 C   0  0  0  0  0  0  0  0  0  0  0  0
   22.2954    9.8229   29.0422 C   0  0  0  0  0  0  0  0  0  0  0  0
   22.6644    8.6106   29.5654 C   0  0  0  0  0  0  0  0  0  0  0  0
   23.8439   12.0635   31.5406 N   0  0  0  0  0  0  0  0  0  0  0  0
   24.9537   12.1438   32.1269 O   0  0  0  0  0  0  0  0  0  0  0  0
   22.9927   13.1446   31.5616 O   0  0  0  0  0  0  0  0  0  0  0  0
   21.2953    6.2323   31.3514 C   0  0  0  0  0  0  0  0  0  0  0  0
   20.7898    5.9719   32.7336 C   0  0  0  0  0  0  0  0  0  0  0  0
   19.9644    7.0533   33.2465 N   0  0  0  0  0  0  0  0  0  0  0  0
   18.6323    7.0251   32.6340 C   0  0  0  0  0  0  0  0  0  0  0  0
   17.8338    8.1046   33.3773 C   0  0  0  0  0  0  0  0  0  0  0  0
   18.3925    9.3521   33.2438 O   0  0  0  0  0  0  0  0  0  0  0  0
   19.7363    9.4119   33.5786 C   0  0  0  0  0  0  0  0  0  0  0  0
   20.5393    8.3290   32.9012 C   0  0  0  0  0  0  0  0  0  0  0  0
   19.8055    7.0208   34.2568 H   0  0  0  0  0  0  0  0  0  0  0  0
 10 11  1  0  0  0
 11 12  2  0  0  0
 11 16  1  0  0  0
 12 13  1  0  0  0
 13 14  2  0  0  0
 14 15  1  0  0  0
 14  1  1  0  0  0
 15 16  2  0  0  0
  1  2  2  0  0  0
  1  9  1  0  0  0
  2  3  1  0  0  0
  2  7  1  0  0  0
  3  4  1  0  0  0
  3 17  1  0  0  0
  4  5  1  0  0  0
  4 26  1  0  0  0
  5  6  2  0  0  0
  5  7  1  0  0  0
  7  8  2  0  0  0
 26 27  1  0  0  0
 27 28  1  0  0  0
 28 29  1  0  0  0
 28 33  1  0  0  0
 29 30  1  0  0  0
 30 31  1  0  0  0
 31 32  1  0  0  0
 32 33  1  0  0  0
 17 18  2  0  0  0
 17 22  1  0  0  0
 18 19  1  0  0  0
 19 20  2  0  0  0
 19 23  1  0  0  0
 20 21  1  0  0  0
 21 22  2  0  0  0
 23 24  2  0  0  0
 23 25  1  0  0  0
 28 34  1  0  0  0
M  CHG 1   9  -1
M  CHG 1  25  -1
M  CHG 1  28   1
M  END
> <minimizedAffinity>
-7.97273

$$$$
265


 35 38  0  0  0  0  0  0  0  0999 V2000
   26.4194    5.3845   27.7339 C   0  0  0  0  0  0  0  0  0  0  0  0
   26.0306    6.3816   28.4976 C   0  0  0  0  0  0  0  0  0  0  0  0
   24.7231    6.4659   29.2431 C   0  0  0  0  0  0  0  0  0  0  0  0
   24.7032    7.7465   29.8604 N   0  0  0  0  0  0  0  0  0  0  0  0
   25.9598    8.4318   29.6783 C   0  0  0  0  0  0  0  0  0  0  0  0
   26.3172    9.5280   30.1313 O   0  0  0  0  0  0  0  0  0  0  0  0
   26.7960    7.5641   28.8178 C   0  0  0  0  0  0  0  0  0  0  0  0
   27.9818    7.8373   28.4429 O   0  0  0  0  0  0  0  0  0  0  0  0
   25.5109    4.3058   27.6265 O   0  0  0  0  0  0  0  0  0  0  0  0
   31.7738    5.4653   24.5980 Br  0  0  0  0  0  0  0  0  0  0  0  0
   30.1408    5.4122   25.5929 C   0  0  0  0  0  0  0  0  0  0  0  0
   28.9959    5.9619   25.0571 C   0  0  0  0  0  0  0  0  0  0  0  0
   27.8095    5.9306   25.7581 C   0  0  0  0  0  0  0  0  0  0  0  0
   27.6922    5.3527   27.0290 C   0  0  0  0  0  0  0  0  0  0  0  0
   28.8444    4.8103   27.5473 C   0  0  0  0  0  0  0  0  0  0  0  0
   30.0525    4.8390   26.8389 C   0  0  0  0  0  0  0  0  0  0  0  0
   24.7997    5.3683   30.2557 C   0  0  0  0  0  0  0  0  0  0  0  0
   23.6366    4.8517   30.7329 C   0  0  0  0  0  0  0  0  0  0  0  0
   23.6484    3.8412   31.6723 C   0  0  0  0  0  0  0  0  0  0  0  0
   24.8404    3.3499   32.1313 C   0  0  0  0  0  0  0  0  0  0  0  0
   26.0121    3.8716   31.6478 C   0  0  0  0  0  0  0  0  0  0  0  0
   26.0068    4.8863   30.7045 C   0  0  0  0  0  0  0  0  0  0  0  0
   24.8662    2.2796   33.1311 C   0  0  0  0  0  0  0  0  0  0  0  0
   25.9706    1.8774   33.5780 O   0  0  0  0  0  0  0  0  0  0  0  0
   23.7352    1.6804   33.6141 O   0  0  0  0  0  0  0  0  0  0  0  0
   23.2638    0.4371   33.1447 C   0  0  0  0  0  0  0  0  0  0  0  0
   23.6297    8.3584   30.5963 C   0  0  0  0  0  0  0  0  0  0  0  0
   22.6164    9.0726   29.7698 C   0  0  0  0  0  0  0  0  0  0  0  0
   22.3107   10.4076   30.1897 N   0  0  0  0  0  0  0  0  0  0  0  0
   23.3385   11.3765   29.8690 C   0  0  0  0  0  0  0  0  0  0  0  0
   22.7792   12.7453   30.1982 C   0  0  0  0  0  0  0  0  0  0  0  0
   22.6545   12.7794   31.6077 O   0  0  0  0  0  0  0  0  0  0  0  0
   21.6233   11.8882   31.9173 C   0  0  0  0  0  0  0  0  0  0  0  0
   22.1369   10.4820   31.6539 C   0  0  0  0  0  0  0  0  0  0  0  0
   21.3742   10.7305   29.8277 H   0  0  0  0  0  0  0  0  0  0  0  0
 10 11  1  0  0  0
 11 12  2  0  0  0
 11 16  1  0  0  0
 12 13  1  0  0  0
 13 14  2  0  0  0
 14 15  1  0  0  0
 14  1  1  0  0  0
 15 16  2  0  0  0
  1  2  2  0  0  0
  1  9  1  0  0  0
  2  3  1  0  0  0
  2  7  1  0  0  0
  3  4  1  0  0  0
  3 17  1  0  0  0
  4  5  1  0  0  0
  4 27  1  0  0  0
  5  6  2  0  0  0
  5  7  1  0  0  0
  7  8  2  0  0  0
 27 28  1  0  0  0
 28 29  1  0  0  0
 29 30  1  0  0  0
 29 34  1  0  0  0
 30 31  1  0  0  0
 31 32  1  0  0  0
 32 33  1  0  0  0
 33 34  1  0  0  0
 17 18  2  0  0  0
 17 22  1  0  0  0
 18 19  1  0  0  0
 19 20  2  0  0  0
 20 21  1  0  0  0
 20 23  1  0  0  0
 21 22  2  0  0  0
 23 24  2  0  0  0
 23 25  1  0  0  0
 25 26  1  0  0  0
 29 35  1  0  0  0
M  CHG 1   9  -1
M  CHG 1  29   1
M  END
> <minimizedAffinity>
-7.17713

$$$$
274


 31 34  0  0  0  0  0  0  0  0999 V2000
   24.6557    9.8071   31.3801 C   0  0  0  0  0  0  0  0  0  0  0  0
   23.4340   10.2610   31.1772 C   0  0  0  0  0  0  0  0  0  0  0  0
   22.3037   10.4301   32.1348 C   0  0  0  0  0  0  0  0  0  0  0  0
   21.6185   11.6294   31.6246 N   0  0  0  0  0  0  0  0  0  0  0  0
   21.7439   11.5471   30.2182 C   0  0  0  0  0  0  0  0  0  0  0  0
   21.0018   12.1167   29.4078 O   0  0  0  0  0  0  0  0  0  0  0  0
   22.8789   10.6896   29.8958 C   0  0  0  0  0  0  0  0  0  0  0  0
   23.3477   10.3387   28.7841 O   0  0  0  0  0  0  0  0  0  0  0  0
   24.9877    9.4036   32.6885 O   0  0  0  0  0  0  0  0  0  0  0  0
   29.0892    9.3135   27.0923 Br  0  0  0  0  0  0  0  0  0  0  0  0
   27.7087    9.4646   28.4148 C   0  0  0  0  0  0  0  0  0  0  0  0
   27.0254    8.3574   28.8624 C   0  0  0  0  0  0  0  0  0  0  0  0
   26.0278    8.4747   29.8182 C   0  0  0  0  0  0  0  0  0  0  0  0
   25.6807    9.6935   30.3570 C   0  0  0  0  0  0  0  0  0  0  0  0
   26.3664   10.7990   29.9088 C   0  0  0  0  0  0  0  0  0  0  0  0
   27.3731   10.6877   28.9450 C   0  0  0  0  0  0  0  0  0  0  0  0
   21.4208    9.2659   32.2341 C   0  0  0  0  0  0  0  0  0  0  0  0
   20.1362    9.3830   32.7785 C   0  0  0  0  0  0  0  0  0  0  0  0
   19.2682    8.3417   32.8978 C   0  0  0  0  0  0  0  0  0  0  0  0
   19.6421    7.0818   32.4684 C   0  0  0  0  0  0  0  0  0  0  0  0
   20.8898    6.9360   31.9329 C   0  0  0  0  0  0  0  0  0  0  0  0
   21.7804    8.0066   31.8108 C   0  0  0  0  0  0  0  0  0  0  0  0
   21.0013   12.5786   32.4771 C   0  0  0  0  0  0  0  0  0  0  0  0
   21.0547   14.0041   32.1092 C   0  0  0  0  0  0  0  0  0  0  0  0
   22.3507   14.6098   32.0933 N   0  0  0  0  0  0  0  0  0  0  0  0
   22.5681   15.6402   33.0471 C   0  0  0  0  0  0  0  0  0  0  0  0
   22.5705   16.9749   32.3342 C   0  0  0  0  0  0  0  0  0  0  0  0
   21.5966   17.0461   31.3420 O   0  0  0  0  0  0  0  0  0  0  0  0
   21.8551   16.1946   30.2841 C   0  0  0  0  0  0  0  0  0  0  0  0
   22.7439   15.0767   30.7818 C   0  0  0  0  0  0  0  0  0  0  0  0
   23.0257   13.8178   32.3266 H   0  0  0  0  0  0  0  0  0  0  0  0
 10 11  1  0  0  0
 11 12  2  0  0  0
 11 16  1  0  0  0
 12 13  1  0  0  0
 13 14  2  0  0  0
 14 15  1  0  0  0
 14  1  1  0  0  0
 15 16  2  0  0  0
  1  2  2  0  0  0
  1  9  1  0  0  0
  2  3  1  0  0  0
  2  7  1  0  0  0
  3  4  1  0  0  0
  3 17  1  0  0  0
  4  5  1  0  0  0
  4 23  1  0  0  0
  5  6  2  0  0  0
  5  7  1  0  0  0
  7  8  2  0  0  0
 23 24  1  0  0  0
 24 25  1  0  0  0
 25 26  1  0  0  0
 25 30  1  0  0  0
 26 27  1  0  0  0
 27 28  1  0  0  0
 28 29  1  0  0  0
 29 30  1  0  0  0
 17 18  2  0  0  0
 17 22  1  0  0  0
 18 19  1  0  0  0
 19 20  2  0  0  0
 20 21  1  0  0  0
 21 22  2  0  0  0
 25 31  1  0  0  0
M  CHG 1   9  -1
M  CHG 1  25   1
M  END
> <minimizedAffinity>
-7.60743

$$$$
278


 30 33  0  0  0  0  0  0  0  0999 V2000
   23.7278    8.8614   31.6418 N   0  0  0  0  0  0  0  0  0  0  0  0
   22.4370    8.6979   32.0176 C   0  0  0  0  0  0  0  0  0  0  0  0
   22.0647    7.4361   31.5823 C   0  0  0  0  0  0  0  0  0  0  0  0
   20.7751    7.0030   31.8280 C   0  0  0  0  0  0  0  0  0  0  0  0
   19.8426    7.8013   32.5018 C   0  0  0  0  0  0  0  0  0  0  0  0
   20.2626    9.0574   32.9179 C   0  0  0  0  0  0  0  0  0  0  0  0
   21.5371    9.5128   32.6869 C   0  0  0  0  0  0  0  0  0  0  0  0
   23.1153    6.8325   30.9502 N   0  0  0  0  0  0  0  0  0  0  0  0
   24.1238    7.7431   31.0050 C   0  0  0  0  0  0  0  0  0  0  0  0
   25.2941    7.5322   30.5026 N   0  0  0  0  0  0  0  0  0  0  0  0
   26.0330    8.2934   30.5859 H   0  0  0  0  0  0  0  0  0  0  0  0
   25.6050    6.6912   30.0113 H   0  0  0  0  0  0  0  0  0  0  0  0
   24.4573   10.0621   31.9288 C   0  0  0  0  0  0  0  0  0  0  0  0
   24.5471   10.9985   30.7621 C   0  0  0  0  0  0  0  0  0  0  0  0
   25.7925   11.5701   30.5879 O   0  0  0  0  0  0  0  0  0  0  0  0
   26.1002   12.0841   31.3597 H   0  0  0  0  0  0  0  0  0  0  0  0
   20.5248   15.6140   31.3845 Br  0  0  0  0  0  0  0  0  0  0  0  0
   21.7767   14.1786   31.1893 C   0  0  0  0  0  0  0  0  0  0  0  0
   21.4375   13.0898   30.4187 C   0  0  0  0  0  0  0  0  0  0  0  0
   22.3376   12.0665   30.2834 C   0  0  0  0  0  0  0  0  0  0  0  0
   23.5575   12.1307   30.9094 C   0  0  0  0  0  0  0  0  0  0  0  0
   23.8609   13.2334   31.6712 C   0  0  0  0  0  0  0  0  0  0  0  0
   22.9837   14.2935   31.8383 C   0  0  0  0  0  0  0  0  0  0  0  0
   23.0673    5.5133   30.3950 C   0  0  0  0  0  0  0  0  0  0  0  0
   23.7227    4.4722   31.2594 C   0  0  0  0  0  0  0  0  0  0  0  0
   24.9803    4.0084   30.9133 C   0  0  0  0  0  0  0  0  0  0  0  0
   25.6481    3.0549   31.6570 C   0  0  0  0  0  0  0  0  0  0  0  0
   25.0173    2.5682   32.7749 C   0  0  0  0  0  0  0  0  0  0  0  0
   23.7726    3.0091   33.1396 C   0  0  0  0  0  0  0  0  0  0  0  0
   23.1374    3.9554   32.3811 C   0  0  0  0  0  0  0  0  0  0  0  0
 17 18  1  0  0  0
 18 19  2  0  0  0
 18 23  1  0  0  0
 19 20  1  0  0  0
 20 21  2  0  0  0
 21 22  1  0  0  0
 21 14  1  0  0  0
 22 23  2  0  0  0
 14 15  1  0  0  0
 14 13  1  0  0  0
 13  1  1  0  0  0
  1  2  1  0  0  0
  1  9  1  0  0  0
  2  3  1  0  0  0
  2  7  2  0  0  0
  3  4  2  0  0  0
  3  8  1  0  0  0
  4  5  1  0  0  0
  5  6  2  0  0  0
  6  7  1  0  0  0
  8  9  1  0  0  0
  8 24  1  0  0  0
  9 10  2  0  0  0
 24 25  1  0  0  0
 25 26  2  0  0  0
 25 30  1  0  0  0
 26 27  1  0  0  0
 27 28  2  0  0  0
 28 29  1  0  0  0
 29 30  2  0  0  0
 15 16  1  0  0  0
 10 11  1  0  0  0
 10 12  1  0  0  0
M  END
> <minimizedAffinity>
-9.38409

$$$$
289


 31 34  0  0  0  0  0  0  0  0999 V2000
   23.2818    8.6506   30.4529 C   0  0  0  0  0  0  0  0  0  0  0  0
   23.1818    7.3183   30.3136 N   0  0  0  0  0  0  0  0  0  0  0  0
   22.1756    6.8625   31.0964 C   0  0  0  0  0  0  0  0  0  0  0  0
   21.6146    7.9328   31.7582 C   0  0  0  0  0  0  0  0  0  0  0  0
   22.3020    9.0006   31.3528 N   0  0  0  0  0  0  0  0  0  0  0  0
   20.5855    7.7260   32.6006 N   0  0  0  0  0  0  0  0  0  0  0  0
   20.0844    6.5027   32.8184 C   0  0  0  0  0  0  0  0  0  0  0  0
   19.1090    6.3472   33.6210 O   0  0  0  0  0  0  0  0  0  0  0  0
   20.6171    5.4454   32.1822 N   0  0  0  0  0  0  0  0  0  0  0  0
   21.6430    5.6159   31.3371 C   0  0  0  0  0  0  0  0  0  0  0  0
   22.1382    4.6265   30.7435 O   0  0  0  0  0  0  0  0  0  0  0  0
   20.0104    8.8900   33.2834 C   0  0  0  0  0  0  0  0  0  0  0  0
   20.2254    4.4735   32.3504 H   0  0  0  0  0  0  0  0  0  0  0  0
   24.6509   11.8721   30.4699 N   0  0  0  0  0  0  0  0  0  0  0  0
   25.7904   11.0632   30.5785 C   0  0  0  0  0  0  0  0  0  0  0  0
   25.5435    9.6364   30.0992 C   0  0  0  0  0  0  0  0  0  0  0  0
   24.1591    9.5303   29.7949 N   0  0  0  0  0  0  0  0  0  0  0  0
   23.6601   10.4044   28.7609 C   0  0  0  0  0  0  0  0  0  0  0  0
   23.8221   11.8160   29.3369 C   0  0  0  0  0  0  0  0  0  0  0  0
   24.0775   12.3204   31.6953 C   0  0  0  0  0  0  0  0  0  0  0  0
   18.7307   15.3365   30.9971 Br  0  0  0  0  0  0  0  0  0  0  0  0
   20.3845   14.3849   31.2264 C   0  0  0  0  0  0  0  0  0  0  0  0
   21.5923   15.0015   30.9711 C   0  0  0  0  0  0  0  0  0  0  0  0
   22.7865   14.3174   31.1333 C   0  0  0  0  0  0  0  0  0  0  0  0
   22.7816   13.0102   31.5510 C   0  0  0  0  0  0  0  0  0  0  0  0
   21.5834   12.3793   31.8121 C   0  0  0  0  0  0  0  0  0  0  0  0
   20.4023   13.0741   31.6460 C   0  0  0  0  0  0  0  0  0  0  0  0
   23.9996    6.4369   29.5242 C   0  0  0  0  0  0  0  0  0  0  0  0
   25.2036    5.9374   30.2904 C   0  0  0  0  0  0  0  0  0  0  0  0
   25.4760    4.5984   30.0963 O   0  0  0  0  0  0  0  0  0  0  0  0
   25.6040    4.0408   31.3896 C   0  0  0  0  0  0  0  0  0  0  0  0
 21 22  1  0  0  0
 22 23  2  0  0  0
 22 27  1  0  0  0
 23 24  1  0  0  0
 24 25  2  0  0  0
 25 26  1  0  0  0
 25 20  1  0  0  0
 26 27  2  0  0  0
 20 14  1  0  0  0
 14 15  1  0  0  0
 14 19  1  0  0  0
 15 16  1  0  0  0
 16 17  1  0  0  0
 17 18  1  0  0  0
 17  1  1  0  0  0
 18 19  1  0  0  0
  1  2  1  0  0  0
  1  5  2  0  0  0
  2  3  1  0  0  0
  2 28  1  0  0  0
  3  4  2  0  0  0
  3 10  1  0  0  0
  4  5  1  0  0  0
  4  6  1  0  0  0
  6  7  1  0  0  0
  6 12  1  0  0  0
  7  8  2  0  0  0
  7  9  1  0  0  0
  9 10  1  0  0  0
 10 11  2  0  0  0
 28 29  1  0  0  0
 29 30  1  0  0  0
 30 31  1  0  0  0
  9 13  1  0  0  0
M  END
> <minimizedAffinity>
-7.97279

$$$$
293


 27 30  0  0  0  0  0  0  0  0999 V2000
   21.0959    5.4106   31.8987 C   0  0  0  0  0  0  0  0  0  0  0  0
   20.6941    6.6475   32.2141 C   0  0  0  0  0  0  0  0  0  0  0  0
   21.4945    7.7697   32.0748 O   0  0  0  0  0  0  0  0  0  0  0  0
   20.8314    8.9256   32.4741 C   0  0  0  0  0  0  0  0  0  0  0  0
   19.5809    8.5738   32.8837 C   0  0  0  0  0  0  0  0  0  0  0  0
   18.7050    9.5392   33.3350 C   0  0  0  0  0  0  0  0  0  0  0  0
   19.1455   10.8369   33.3505 C   0  0  0  0  0  0  0  0  0  0  0  0
   20.4311   11.2013   32.9294 C   0  0  0  0  0  0  0  0  0  0  0  0
   21.3173   10.2554   32.4784 C   0  0  0  0  0  0  0  0  0  0  0  0
   20.8014   12.5461   32.9770 O   0  0  0  0  0  0  0  0  0  0  0  0
   19.4404    7.1182   32.7381 C   0  0  0  0  0  0  0  0  0  0  0  0
   18.4459    6.3958   33.0030 O   0  0  0  0  0  0  0  0  0  0  0  0
   26.8476    4.4483   29.7780 Br  0  0  0  0  0  0  0  0  0  0  0  0
   25.0640    4.7561   30.4260 C   0  0  0  0  0  0  0  0  0  0  0  0
   24.5802    4.0787   31.5219 C   0  0  0  0  0  0  0  0  0  0  0  0
   23.2973    4.2973   31.9866 C   0  0  0  0  0  0  0  0  0  0  0  0
   22.4433    5.2019   31.3782 C   0  0  0  0  0  0  0  0  0  0  0  0
   22.9318    5.8781   30.2829 C   0  0  0  0  0  0  0  0  0  0  0  0
   24.2278    5.6614   29.8074 C   0  0  0  0  0  0  0  0  0  0  0  0
   22.6895   10.4827   32.0093 C   0  0  0  0  0  0  0  0  0  0  0  0
   23.2301    9.5938   31.0554 N   0  0  0  0  0  0  0  0  0  0  0  0
   23.1153   10.0971   29.7024 C   0  0  0  0  0  0  0  0  0  0  0  0
   24.3075   10.9822   29.3887 C   0  0  0  0  0  0  0  0  0  0  0  0
   25.3885   10.1602   29.1102 O   0  0  0  0  0  0  0  0  0  0  0  0
   25.2916    9.0315   29.9311 C   0  0  0  0  0  0  0  0  0  0  0  0
   24.6766    9.4122   31.2683 C   0  0  0  0  0  0  0  0  0  0  0  0
   22.8358    8.6351   31.1426 H   0  0  0  0  0  0  0  0  0  0  0  0
 13 14  1  0  0  0
 14 15  2  0  0  0
 14 19  1  0  0  0
 15 16  1  0  0  0
 16 17  2  0  0  0
 17 18  1  0  0  0
 17  1  1  0  0  0
 18 19  2  0  0  0
  1  2  2  0  0  0
  2  3  1  0  0  0
  2 11  1  0  0  0
  3  4  1  0  0  0
  4  5  2  0  0  0
  4  9  1  0  0  0
  5  6  1  0  0  0
  5 11  1  0  0  0
  6  7  2  0  0  0
  7  8  1  0  0  0
  8  9  2  0  0  0
  8 10  1  0  0  0
  9 20  1  0  0  0
 20 21  1  0  0  0
 21 22  1  0  0  0
 21 26  1  0  0  0
 22 23  1  0  0  0
 23 24  1  0  0  0
 24 25  1  0  0  0
 25 26  1  0  0  0
 11 12  2  0  0  0
 21 27  1  0  0  0
M  CHG 1  10  -1
M  CHG 1  21   1
M  END
> <minimizedAffinity>
-9.94694

$$$$
294


 35 38  0  0  0  0  0  0  0  0999 V2000
   26.0634   14.7769   26.9229 N   0  0  0  0  0  0  0  0  0  0  0  0
   25.0814   15.2127   27.7695 N   0  0  0  0  0  0  0  0  0  0  0  0
   24.5110   16.3051   27.2430 C   0  0  0  0  0  0  0  0  0  0  0  0
   25.1452   16.5220   26.0921 N   0  0  0  0  0  0  0  0  0  0  0  0
   26.1251   15.5646   25.8822 C   0  0  0  0  0  0  0  0  0  0  0  0
   23.4235   17.0971   27.8048 C   0  0  0  0  0  0  0  0  0  0  0  0
   22.8418   16.9394   28.9976 N   0  0  0  0  0  0  0  0  0  0  0  0
   21.8963   17.8513   29.1433 O   0  0  0  0  0  0  0  0  0  0  0  0
   21.8313   18.6098   28.0862 N   0  0  0  0  0  0  0  0  0  0  0  0
   22.7862   18.1599   27.2159 C   0  0  0  0  0  0  0  0  0  0  0  0
   23.0250   18.7359   25.9418 N   0  0  0  0  0  0  0  0  0  0  0  0
   22.7504   19.7418   25.7609 H   0  0  0  0  0  0  0  0  0  0  0  0
   23.4625   18.2274   25.1498 H   0  0  0  0  0  0  0  0  0  0  0  0
   26.9683   15.5650   24.7045 C   0  0  0  0  0  0  0  0  0  0  0  0
   26.4556   15.3217   23.4333 N   0  0  0  0  0  0  0  0  0  0  0  0
   27.3924   15.3940   22.5713 O   0  0  0  0  0  0  0  0  0  0  0  0
   28.4968   15.6658   23.1467 N   0  0  0  0  0  0  0  0  0  0  0  0
   28.2686   15.7804   24.4903 C   0  0  0  0  0  0  0  0  0  0  0  0
   29.3165   16.0898   25.3656 N   0  0  0  0  0  0  0  0  0  0  0  0
   29.8909   15.3142   25.7699 H   0  0  0  0  0  0  0  0  0  0  0  0
   29.5828   17.0564   25.6463 H   0  0  0  0  0  0  0  0  0  0  0  0
   26.8236   13.5888   27.2580 C   0  0  0  0  0  0  0  0  0  0  0  0
   25.3028   12.6009   29.0160 N   0  0  0  0  0  0  0  0  0  0  0  0
   25.9386   12.5028   27.7547 C   0  0  0  0  0  0  0  0  0  0  0  0
   25.7484   11.4848   27.0522 O   0  0  0  0  0  0  0  0  0  0  0  0
   25.4445   13.4552   29.6363 H   0  0  0  0  0  0  0  0  0  0  0  0
   24.1333   11.3643   30.6524 C   0  0  0  0  0  0  0  0  0  0  0  0
   24.4878   11.5768   29.4462 N   0  0  0  0  0  0  0  0  0  0  0  0
   20.4719    6.6648   32.3186 Br  0  0  0  0  0  0  0  0  0  0  0  0
   21.6072    8.1080   31.7971 C   0  0  0  0  0  0  0  0  0  0  0  0
   21.4888    9.3580   32.3865 C   0  0  0  0  0  0  0  0  0  0  0  0
   22.3003   10.4181   32.0235 C   0  0  0  0  0  0  0  0  0  0  0  0
   23.2659   10.2614   31.0516 C   0  0  0  0  0  0  0  0  0  0  0  0
   23.3761    9.0155   30.4721 C   0  0  0  0  0  0  0  0  0  0  0  0
   22.5731    7.9505   30.8255 C   0  0  0  0  0  0  0  0  0  0  0  0
 29 30  1  0  0  0
 30 31  2  0  0  0
 30 35  1  0  0  0
 31 32  1  0  0  0
 32 33  2  0  0  0
 33 34  1  0  0  0
 33 27  1  0  0  0
 34 35  2  0  0  0
 27 28  2  0  0  0
 28 23  1  0  0  0
 23 24  1  0  0  0
 24 25  2  0  0  0
 24 22  1  0  0  0
 22  1  1  0  0  0
  1  2  1  0  0  0
  1  5  1  0  0  0
  2  3  2  0  0  0
  3  4  1  0  0  0
  3  6  1  0  0  0
  4  5  2  0  0  0
  5 14  1  0  0  0
 14 15  2  0  0  0
 14 18  1  0  0  0
 15 16  1  0  0  0
 16 17  1  0  0  0
 17 18  2  0  0  0
 18 19  1  0  0  0
  6  7  2  0  0  0
  6 10  1  0  0  0
  7  8  1  0  0  0
  8  9  1  0  0  0
  9 10  2  0  0  0
 10 11  1  0  0  0
 23 26  1  0  0  0
 19 20  1  0  0  0
 19 21  1  0  0  0
 11 12  1  0  0  0
 11 13  1  0  0  0
M  END
> <minimizedAffinity>
-9.49947

$$$$
302


 29 33  0  0  0  0  0  0  0  0999 V2000
   23.1566    6.4942   30.7295 C   0  0  0  0  0  0  0  0  0  0  0  0
   23.2296    7.8072   31.0304 N   0  0  0  0  0  0  0  0  0  0  0  0
   22.0824    8.2117   31.6300 C   0  0  0  0  0  0  0  0  0  0  0  0
   21.2588    7.1532   31.7205 N   0  0  0  0  0  0  0  0  0  0  0  0
   21.9099    6.1021   31.1714 C   0  0  0  0  0  0  0  0  0  0  0  0
   20.1400    7.6035   32.3203 C   0  0  0  0  0  0  0  0  0  0  0  0
   20.2621    8.9462   32.6070 C   0  0  0  0  0  0  0  0  0  0  0  0
   19.2478    9.6654   33.2287 C   0  0  0  0  0  0  0  0  0  0  0  0
   18.0783    9.0291   33.5760 C   0  0  0  0  0  0  0  0  0  0  0  0
   17.9653    7.6867   33.2857 C   0  0  0  0  0  0  0  0  0  0  0  0
   18.9542    6.9497   32.6700 C   0  0  0  0  0  0  0  0  0  0  0  0
   21.4965    9.2978   32.1590 N   0  0  0  0  0  0  0  0  0  0  0  0
   24.0343    8.4380   30.8394 H   0  0  0  0  0  0  0  0  0  0  0  0
   27.5105    3.1133   27.9569 Br  0  0  0  0  0  0  0  0  0  0  0  0
   26.1717    4.1560   28.8067 C   0  0  0  0  0  0  0  0  0  0  0  0
   25.5147    3.6739   29.9221 C   0  0  0  0  0  0  0  0  0  0  0  0
   24.5332    4.4417   30.5440 C   0  0  0  0  0  0  0  0  0  0  0  0
   24.1857    5.6896   30.0787 C   0  0  0  0  0  0  0  0  0  0  0  0
   24.8459    6.1626   28.9671 C   0  0  0  0  0  0  0  0  0  0  0  0
   25.8328    5.4059   28.3300 C   0  0  0  0  0  0  0  0  0  0  0  0
   22.0108   10.6466   32.2769 C   0  0  0  0  0  0  0  0  0  0  0  0
   22.1780   11.3018   30.9233 C   0  0  0  0  0  0  0  0  0  0  0  0
   21.7227   12.6620   30.9675 N   0  0  0  0  0  0  0  0  0  0  0  0
   22.8495   13.5709   30.9879 C   0  0  0  0  0  0  0  0  0  0  0  0
   22.6908   14.6732   32.0066 C   0  0  0  0  0  0  0  0  0  0  0  0
   21.4470   15.2811   31.8225 O   0  0  0  0  0  0  0  0  0  0  0  0
   20.4047   14.3881   31.9513 C   0  0  0  0  0  0  0  0  0  0  0  0
   20.8876   12.9681   32.0902 C   0  0  0  0  0  0  0  0  0  0  0  0
   21.1741   12.8934   30.1011 H   0  0  0  0  0  0  0  0  0  0  0  0
 14 15  1  0  0  0
 15 16  2  0  0  0
 15 20  1  0  0  0
 16 17  1  0  0  0
 17 18  2  0  0  0
 18 19  1  0  0  0
 18  1  1  0  0  0
 19 20  2  0  0  0
  1  2  1  0  0  0
  1  5  2  0  0  0
  2  3  2  0  0  0
  3  4  1  0  0  0
  3 12  1  0  0  0
  4  5  1  0  0  0
  4  6  1  0  0  0
  6  7  2  0  0  0
  6 11  1  0  0  0
  7  8  1  0  0  0
  7 12  1  0  0  0
  8  9  2  0  0  0
  9 10  1  0  0  0
 10 11  2  0  0  0
 12 21  1  0  0  0
 21 22  1  0  0  0
 22 23  1  0  0  0
 23 24  1  0  0  0
 23 28  1  0  0  0
 24 25  1  0  0  0
 25 26  1  0  0  0
 26 27  1  0  0  0
 27 28  1  0  0  0
  2 13  1  0  0  0
 23 29  1  0  0  0
M  CHG 1  23   1
M  END
> <minimizedAffinity>
-9.31096

$$$$
305


 27 30  0  0  0  0  0  0  0  0999 V2000
   23.0978   10.3011   30.4627 C   0  0  0  0  0  0  0  0  0  0  0  0
   22.4591    9.2274   30.9091 N   0  0  0  0  0  0  0  0  0  0  0  0
   22.9916    8.0984   30.3797 C   0  0  0  0  0  0  0  0  0  0  0  0
   24.0017    8.4969   29.5842 N   0  0  0  0  0  0  0  0  0  0  0  0
   24.0857    9.7866   29.6189 N   0  0  0  0  0  0  0  0  0  0  0  0
   22.3686    6.9976   30.8171 N   0  0  0  0  0  0  0  0  0  0  0  0
   21.4211    7.4378   31.6519 C   0  0  0  0  0  0  0  0  0  0  0  0
   21.4521    8.8364   31.7387 C   0  0  0  0  0  0  0  0  0  0  0  0
   20.6260    9.4907   32.5390 N   0  0  0  0  0  0  0  0  0  0  0  0
   19.7339    8.7508   33.2670 C   0  0  0  0  0  0  0  0  0  0  0  0
   18.9306    9.3322   34.0340 O   0  0  0  0  0  0  0  0  0  0  0  0
   19.6735    7.4152   33.1996 N   0  0  0  0  0  0  0  0  0  0  0  0
   20.5087    6.7317   32.3997 C   0  0  0  0  0  0  0  0  0  0  0  0
   20.4829    5.4763   32.3111 O   0  0  0  0  0  0  0  0  0  0  0  0
   20.6286   10.9029   32.8208 C   0  0  0  0  0  0  0  0  0  0  0  0
   18.9940    6.8529   33.7515 H   0  0  0  0  0  0  0  0  0  0  0  0
   22.1068   16.2685   31.4397 Br  0  0  0  0  0  0  0  0  0  0  0  0
   22.4769   14.4383   31.1236 C   0  0  0  0  0  0  0  0  0  0  0  0
   21.6515   13.7072   30.2952 C   0  0  0  0  0  0  0  0  0  0  0  0
   21.9154   12.3927   30.0667 C   0  0  0  0  0  0  0  0  0  0  0  0
   23.0053   11.7371   30.6433 C   0  0  0  0  0  0  0  0  0  0  0  0
   23.7835   12.5199   31.4569 C   0  0  0  0  0  0  0  0  0  0  0  0
   23.5669   13.8483   31.7240 C   0  0  0  0  0  0  0  0  0  0  0  0
   22.6527    5.6257   30.4616 C   0  0  0  0  0  0  0  0  0  0  0  0
   23.8459    5.0657   31.2053 C   0  0  0  0  0  0  0  0  0  0  0  0
   23.4767    4.0772   32.1094 O   0  0  0  0  0  0  0  0  0  0  0  0
   24.5606    3.2097   32.2431 C   0  0  0  0  0  0  0  0  0  0  0  0
 17 18  1  0  0  0
 18 19  2  0  0  0
 18 23  1  0  0  0
 19 20  1  0  0  0
 20 21  2  0  0  0
 21 22  1  0  0  0
 21  1  1  0  0  0
 22 23  2  0  0  0
  1  2  1  0  0  0
  1  5  2  0  0  0
  2  3  1  0  0  0
  2  8  1  0  0  0
  3  4  2  0  0  0
  3  6  1  0  0  0
  4  5  1  0  0  0
  6  7  1  0  0  0
  6 24  1  0  0  0
  7  8  2  0  0  0
  7 13  1  0  0  0
  8  9  1  0  0  0
  9 10  1  0  0  0
  9 15  1  0  0  0
 10 11  2  0  0  0
 10 12  1  0  0  0
 12 13  1  0  0  0
 13 14  2  0  0  0
 24 25  1  0  0  0
 25 26  1  0  0  0
 26 27  1  0  0  0
 12 16  1  0  0  0
M  END
> <minimizedAffinity>
-8.47257

$$$$
309


 33 36  0  0  0  0  0  0  0  0999 V2000
   22.9039    7.0865   31.1772 C   0  0  0  0  0  0  0  0  0  0  0  0
   23.0311    8.3924   31.5852 C   0  0  0  0  0  0  0  0  0  0  0  0
   22.0529    9.0593   32.1672 O   0  0  0  0  0  0  0  0  0  0  0  0
   20.8882    8.5084   32.3956 C   0  0  0  0  0  0  0  0  0  0  0  0
   20.7005    7.2268   32.0171 C   0  0  0  0  0  0  0  0  0  0  0  0
   19.4862    6.6185   32.2468 C   0  0  0  0  0  0  0  0  0  0  0  0
   18.4971    7.3437   32.8601 C   0  0  0  0  0  0  0  0  0  0  0  0
   18.7039    8.6805   33.2511 C   0  0  0  0  0  0  0  0  0  0  0  0
   19.8962    9.3036   33.0335 C   0  0  0  0  0  0  0  0  0  0  0  0
   17.5956    9.2504   33.8550 O   0  0  0  0  0  0  0  0  0  0  0  0
   21.6745    6.4645   31.4020 C   0  0  0  0  0  0  0  0  0  0  0  0
   21.5002    5.2914   31.0563 O   0  0  0  0  0  0  0  0  0  0  0  0
   27.6724    4.1618   28.6013 Br  0  0  0  0  0  0  0  0  0  0  0  0
   26.1925    5.0550   29.4196 C   0  0  0  0  0  0  0  0  0  0  0  0
   25.3985    5.8480   28.6442 C   0  0  0  0  0  0  0  0  0  0  0  0
   24.3307    6.4995   29.2221 C   0  0  0  0  0  0  0  0  0  0  0  0
   24.0106    6.3940   30.5731 C   0  0  0  0  0  0  0  0  0  0  0  0
   24.8233    5.5908   31.3295 C   0  0  0  0  0  0  0  0  0  0  0  0
   25.9175    4.9162   30.7636 C   0  0  0  0  0  0  0  0  0  0  0  0
   24.3178    9.0680   31.3559 C   0  0  0  0  0  0  0  0  0  0  0  0
   25.0757    9.2407   32.3432 O   0  0  0  0  0  0  0  0  0  0  0  0
   24.7305    9.5137   30.1385 O   0  0  0  0  0  0  0  0  0  0  0  0
   24.0157   10.5207   29.4640 C   0  0  0  0  0  0  0  0  0  0  0  0
   24.7340   11.8309   29.6337 C   0  0  0  0  0  0  0  0  0  0  0  0
   20.2499   10.6646   33.3556 C   0  0  0  0  0  0  0  0  0  0  0  0
   20.1986   11.7192   32.4275 N   0  0  0  0  0  0  0  0  0  0  0  0
   21.4599   11.9807   31.8306 C   0  0  0  0  0  0  0  0  0  0  0  0
   21.7585   13.3438   31.3446 C   0  0  0  0  0  0  0  0  0  0  0  0
   20.9359   14.3326   31.8943 N   0  0  0  0  0  0  0  0  0  0  0  0
   19.5631   14.0883   31.9863 C   0  0  0  0  0  0  0  0  0  0  0  0
   19.2911   12.7829   32.6649 C   0  0  0  0  0  0  0  0  0  0  0  0
   21.4815   15.5407   32.3515 C   0  0  0  0  0  0  0  0  0  0  0  0
   19.6717   11.2018   31.5620 H   0  0  0  0  0  0  0  0  0  0  0  0
 13 14  1  0  0  0
 14 15  2  0  0  0
 14 19  1  0  0  0
 15 16  1  0  0  0
 16 17  2  0  0  0
 17 18  1  0  0  0
 17  1  1  0  0  0
 18 19  2  0  0  0
  1  2  2  0  0  0
  1 11  1  0  0  0
  2  3  1  0  0  0
  2 20  1  0  0  0
  3  4  1  0  0  0
  4  5  2  0  0  0
  4  9  1  0  0  0
  5  6  1  0  0  0
  5 11  1  0  0  0
  6  7  2  0  0  0
  7  8  1  0  0  0
  8  9  2  0  0  0
  8 10  1  0  0  0
  9 25  1  0  0  0
 25 26  1  0  0  0
 26 27  1  0  0  0
 26 31  1  0  0  0
 27 28  1  0  0  0
 28 29  1  0  0  0
 29 30  1  0  0  0
 29 32  1  0  0  0
 30 31  1  0  0  0
 11 12  2  0  0  0
 20 21  2  0  0  0
 20 22  1  0  0  0
 22 23  1  0  0  0
 23 24  1  0  0  0
 26 33  1  0  0  0
M  CHG 1  10  -1
M  CHG 1  26   1
M  END
> <minimizedAffinity>
-9.16229

$$$$
320


 32 36  0  0  0  0  0  0  0  0999 V2000
   23.1677    6.6764   30.8895 C   0  0  0  0  0  0  0  0  0  0  0  0
   21.8540    6.2671   31.1722 C   0  0  0  0  0  0  0  0  0  0  0  0
   21.2606    7.2850   31.7825 N   0  0  0  0  0  0  0  0  0  0  0  0
   20.0467    7.5992   32.3301 C   0  0  0  0  0  0  0  0  0  0  0  0
   20.1841    8.8797   32.8035 C   0  0  0  0  0  0  0  0  0  0  0  0
   21.4208    9.2698   32.5351 N   0  0  0  0  0  0  0  0  0  0  0  0
   22.1074    8.2807   31.8945 C   0  0  0  0  0  0  0  0  0  0  0  0
   23.3063    7.9270   31.3436 N   0  0  0  0  0  0  0  0  0  0  0  0
   19.1272    9.5389   33.4381 C   0  0  0  0  0  0  0  0  0  0  0  0
   17.9180    8.8962   33.5937 C   0  0  0  0  0  0  0  0  0  0  0  0
   17.8059    7.6125   33.1097 C   0  0  0  0  0  0  0  0  0  0  0  0
   18.8522    6.9499   32.4786 C   0  0  0  0  0  0  0  0  0  0  0  0
   21.7871   10.2034   32.8012 H   0  0  0  0  0  0  0  0  0  0  0  0
   27.3408    3.2290   27.9118 Br  0  0  0  0  0  0  0  0  0  0  0  0
   26.0356    4.2884   28.8517 C   0  0  0  0  0  0  0  0  0  0  0  0
   25.6446    5.5095   28.3949 C   0  0  0  0  0  0  0  0  0  0  0  0
   24.7188    6.2564   29.0649 C   0  0  0  0  0  0  0  0  0  0  0  0
   24.1319    5.8192   30.2352 C   0  0  0  0  0  0  0  0  0  0  0  0
   24.5196    4.6051   30.6909 C   0  0  0  0  0  0  0  0  0  0  0  0
   25.4786    3.8183   30.0078 C   0  0  0  0  0  0  0  0  0  0  0  0
   24.4193    8.8262   31.3438 C   0  0  0  0  0  0  0  0  0  0  0  0
   24.4817    9.8306   30.2650 C   0  0  0  0  0  0  0  0  0  0  0  0
   24.0667   11.2267   30.5597 C   0  0  0  0  0  0  0  0  0  0  0  0
   22.7810   11.5442   29.9785 N   0  0  0  0  0  0  0  0  0  0  0  0
   22.7248   11.5263   28.9634 H   0  0  0  0  0  0  0  0  0  0  0  0
   22.1281   10.7328   30.2820 H   0  0  0  0  0  0  0  0  0  0  0  0
   22.1821   12.7203   30.5368 C   0  0  0  0  0  0  0  0  0  0  0  0
   21.3515   12.4885   31.7673 C   0  0  0  0  0  0  0  0  0  0  0  0
   20.4391   13.7165   31.9030 C   0  0  0  0  0  0  0  0  0  0  0  0
   21.2925   14.9215   32.0980 C   0  0  0  0  0  0  0  0  0  0  0  0
   22.3630   15.0876   31.0445 C   0  0  0  0  0  0  0  0  0  0  0  0
   23.1876   13.8027   30.9080 C   0  0  0  0  0  0  0  0  0  0  0  0
 14 15  1  0  0  0
 15 16  2  0  0  0
 15 20  1  0  0  0
 16 17  1  0  0  0
 17 18  2  0  0  0
 18 19  1  0  0  0
 18  1  1  0  0  0
 19 20  2  0  0  0
  1  2  2  0  0  0
  1  8  1  0  0  0
  2  3  1  0  0  0
  3  4  1  0  0  0
  3  7  1  0  0  0
  4  5  2  0  0  0
  4 12  1  0  0  0
  5  6  1  0  0  0
  5  9  1  0  0  0
  6  7  2  0  0  0
  7  8  1  0  0  0
  8 21  1  0  0  0
 21 22  1  0  0  0
 22 23  1  0  0  0
 23 24  1  0  0  0
 24 27  1  0  0  0
 27 28  1  0  0  0
 27 32  1  0  0  0
 28 29  1  0  0  0
 29 30  1  0  0  0
 30 31  1  0  0  0
 31 32  1  0  0  0
  9 10  2  0  0  0
 10 11  1  0  0  0
 11 12  2  0  0  0
  6 13  1  0  0  0
 24 25  1  0  0  0
 24 26  1  0  0  0
M  CHG 1  24   1
M  END
> <minimizedAffinity>
-9.52670

$$$$
324


 34 38  0  0  0  0  0  0  0  0999 V2000
   23.2660    6.7213   30.9443 C   0  0  0  0  0  0  0  0  0  0  0  0
   21.9242    6.3648   31.1771 C   0  0  0  0  0  0  0  0  0  0  0  0
   21.2779    7.3413   31.8231 N   0  0  0  0  0  0  0  0  0  0  0  0
   20.0828    7.7052   32.3496 C   0  0  0  0  0  0  0  0  0  0  0  0
   20.2641    8.9593   32.8796 C   0  0  0  0  0  0  0  0  0  0  0  0
   21.5583    9.3239   32.6625 N   0  0  0  0  0  0  0  0  0  0  0  0
   22.1649    8.3143   32.0106 C   0  0  0  0  0  0  0  0  0  0  0  0
   23.3818    7.9401   31.4757 N   0  0  0  0  0  0  0  0  0  0  0  0
   19.1860    9.5691   33.4861 C   0  0  0  0  0  0  0  0  0  0  0  0
   17.9459    8.9485   33.5688 C   0  0  0  0  0  0  0  0  0  0  0  0
   17.7667    7.6954   33.0396 C   0  0  0  0  0  0  0  0  0  0  0  0
   18.8619    7.0778   32.4240 C   0  0  0  0  0  0  0  0  0  0  0  0
   21.9743   10.2331   32.9615 H   0  0  0  0  0  0  0  0  0  0  0  0
   27.2880    3.1175   27.8514 Br  0  0  0  0  0  0  0  0  0  0  0  0
   26.0591    4.2239   28.8231 C   0  0  0  0  0  0  0  0  0  0  0  0
   25.5599    3.8253   30.0365 C   0  0  0  0  0  0  0  0  0  0  0  0
   24.6596    4.6368   30.7466 C   0  0  0  0  0  0  0  0  0  0  0  0
   24.2330    5.8419   30.2886 C   0  0  0  0  0  0  0  0  0  0  0  0
   24.7545    6.2283   29.0531 C   0  0  0  0  0  0  0  0  0  0  0  0
   25.6433    5.4349   28.3452 C   0  0  0  0  0  0  0  0  0  0  0  0
   24.5569    8.7831   31.5427 C   0  0  0  0  0  0  0  0  0  0  0  0
   24.7936    9.6069   30.2991 C   0  0  0  0  0  0  0  0  0  0  0  0
   24.6250   11.0793   30.5787 C   0  0  0  0  0  0  0  0  0  0  0  0
   23.6569   11.7452   29.7517 N   0  0  0  0  0  0  0  0  0  0  0  0
   24.1474   13.1035   29.5803 C   0  0  0  0  0  0  0  0  0  0  0  0
   23.1236   14.1608   29.7582 C   0  0  0  0  0  0  0  0  0  0  0  0
   22.2519   14.0120   30.8914 N   0  0  0  0  0  0  0  0  0  0  0  0
   22.1712   12.6533   31.3848 C   0  0  0  0  0  0  0  0  0  0  0  0
   22.3070   11.7100   30.2073 C   0  0  0  0  0  0  0  0  0  0  0  0
   21.2692   14.2182   30.5265 H   0  0  0  0  0  0  0  0  0  0  0  0
   22.4975   15.0004   31.8927 C   0  0  0  0  0  0  0  0  0  0  0  0
   21.7850   16.2984   31.7208 C   0  0  0  0  0  0  0  0  0  0  0  0
   22.5107   17.4009   32.1685 O   0  0  0  0  0  0  0  0  0  0  0  0
   23.4267   17.3463   31.8457 H   0  0  0  0  0  0  0  0  0  0  0  0
 14 15  1  0  0  0
 15 16  2  0  0  0
 15 20  1  0  0  0
 16 17  1  0  0  0
 17 18  2  0  0  0
 18 19  1  0  0  0
 18  1  1  0  0  0
 19 20  2  0  0  0
  1  2  2  0  0  0
  1  8  1  0  0  0
  2  3  1  0  0  0
  3  4  1  0  0  0
  3  7  1  0  0  0
  4  5  2  0  0  0
  4 12  1  0  0  0
  5  6  1  0  0  0
  5  9  1  0  0  0
  6  7  2  0  0  0
  7  8  1  0  0  0
  8 21  1  0  0  0
 21 22  1  0  0  0
 22 23  1  0  0  0
 23 24  1  0  0  0
 24 25  1  0  0  0
 24 29  1  0  0  0
 25 26  1  0  0  0
 26 27  1  0  0  0
 27 28  1  0  0  0
 27 31  1  0  0  0
 28 29  1  0  0  0
 31 32  1  0  0  0
 32 33  1  0  0  0
  9 10  2  0  0  0
 10 11  1  0  0  0
 11 12  2  0  0  0
  6 13  1  0  0  0
 27 30  1  0  0  0
 33 34  1  0  0  0
M  CHG 1  27   1
M  END
> <minimizedAffinity>
-9.71067

$$$$
346


 35 38  0  0  0  0  0  0  0  0999 V2000
   23.7840    5.9198   29.8081 C   0  0  0  0  0  0  0  0  0  0  0  0
   23.0271    5.1223   30.7341 N   0  0  0  0  0  0  0  0  0  0  0  0
   23.8060    4.0588   31.2470 C   0  0  0  0  0  0  0  0  0  0  0  0
   23.4570    3.1514   32.0640 O   0  0  0  0  0  0  0  0  0  0  0  0
   25.1689    4.1424   30.6757 C   0  0  0  0  0  0  0  0  0  0  0  0
   26.1045    3.3487   30.9229 O   0  0  0  0  0  0  0  0  0  0  0  0
   25.1509    5.3015   29.8086 C   0  0  0  0  0  0  0  0  0  0  0  0
   26.1945    5.6836   29.1064 C   0  0  0  0  0  0  0  0  0  0  0  0
   26.0349    6.7903   28.2461 O   0  0  0  0  0  0  0  0  0  0  0  0
   23.9146   11.9440   31.2599 Br  0  0  0  0  0  0  0  0  0  0  0  0
   23.8898   10.0712   30.8326 C   0  0  0  0  0  0  0  0  0  0  0  0
   23.1443    9.6278   29.7631 C   0  0  0  0  0  0  0  0  0  0  0  0
   23.1107    8.2700   29.4298 C   0  0  0  0  0  0  0  0  0  0  0  0
   23.8198    7.3415   30.1609 C   0  0  0  0  0  0  0  0  0  0  0  0
   24.5522    7.8250   31.2213 C   0  0  0  0  0  0  0  0  0  0  0  0
   24.5962    9.1560   31.5628 C   0  0  0  0  0  0  0  0  0  0  0  0
   27.5043    5.0837   29.1334 C   0  0  0  0  0  0  0  0  0  0  0  0
   28.4907    5.3326   30.0221 C   0  0  0  0  0  0  0  0  0  0  0  0
   29.6920    4.6588   29.9537 C   0  0  0  0  0  0  0  0  0  0  0  0
   29.9686    3.7044   28.9984 C   0  0  0  0  0  0  0  0  0  0  0  0
   28.9449    3.4691   28.1019 C   0  0  0  0  0  0  0  0  0  0  0  0
   27.7429    4.1200   28.1413 C   0  0  0  0  0  0  0  0  0  0  0  0
   30.7557    4.9700   30.9647 C   0  0  0  0  0  0  0  0  0  0  0  0
   31.1814    3.0293   28.9352 O   0  0  0  0  0  0  0  0  0  0  0  0
   31.2022    1.6122   28.8438 C   0  0  0  0  0  0  0  0  0  0  0  0
   21.6415    5.3896   31.0751 C   0  0  0  0  0  0  0  0  0  0  0  0
   21.4570    5.8744   32.4868 C   0  0  0  0  0  0  0  0  0  0  0  0
   20.0365    6.2646   32.7591 C   0  0  0  0  0  0  0  0  0  0  0  0
   19.8845    7.6482   33.1036 N   0  0  0  0  0  0  0  0  0  0  0  0
   18.5727    8.1772   32.7912 C   0  0  0  0  0  0  0  0  0  0  0  0
   18.4919    9.5648   33.4361 C   0  0  0  0  0  0  0  0  0  0  0  0
   19.7407    9.9730   33.8802 O   0  0  0  0  0  0  0  0  0  0  0  0
   20.6852    9.8819   32.8340 C   0  0  0  0  0  0  0  0  0  0  0  0
   20.9366    8.4158   32.5002 C   0  0  0  0  0  0  0  0  0  0  0  0
   19.9943    7.7452   34.1571 H   0  0  0  0  0  0  0  0  0  0  0  0
 10 11  1  0  0  0
 11 12  2  0  0  0
 11 16  1  0  0  0
 12 13  1  0  0  0
 13 14  2  0  0  0
 14 15  1  0  0  0
 14  1  1  0  0  0
 15 16  2  0  0  0
  1  2  1  0  0  0
  1  7  1  0  0  0
  2  3  1  0  0  0
  2 26  1  0  0  0
  3  4  2  0  0  0
  3  5  1  0  0  0
  5  6  2  0  0  0
  5  7  1  0  0  0
  7  8  2  0  0  0
  8  9  1  0  0  0
  8 17  1  0  0  0
 17 18  2  0  0  0
 17 22  1  0  0  0
 18 19  1  0  0  0
 19 20  2  0  0  0
 19 23  1  0  0  0
 20 21  1  0  0  0
 20 24  1  0  0  0
 21 22  2  0  0  0
 24 25  1  0  0  0
 26 27  1  0  0  0
 27 28  1  0  0  0
 28 29  1  0  0  0
 29 30  1  0  0  0
 29 34  1  0  0  0
 30 31  1  0  0  0
 31 32  1  0  0  0
 32 33  1  0  0  0
 33 34  1  0  0  0
 29 35  1  0  0  0
M  CHG 1   9  -1
M  CHG 1  29   1
M  END
> <minimizedAffinity>
-7.24106

$$$$
347


 34 37  0  0  0  0  0  0  0  0999 V2000
   24.1230   11.2755   29.4832 C   0  0  0  0  0  0  0  0  0  0  0  0
   24.1211   12.3355   30.4706 N   0  0  0  0  0  0  0  0  0  0  0  0
   24.4517   11.7227   31.7186 C   0  0  0  0  0  0  0  0  0  0  0  0
   24.9826   12.2768   32.7129 O   0  0  0  0  0  0  0  0  0  0  0  0
   24.0451   10.3269   31.5963 C   0  0  0  0  0  0  0  0  0  0  0  0
   24.1339    9.3941   32.4334 O   0  0  0  0  0  0  0  0  0  0  0  0
   23.4794   10.1542   30.2622 C   0  0  0  0  0  0  0  0  0  0  0  0
   22.6511    9.2180   29.8690 C   0  0  0  0  0  0  0  0  0  0  0  0
   22.2947    9.2396   28.5089 O   0  0  0  0  0  0  0  0  0  0  0  0
   29.8459    9.8491   27.6858 Br  0  0  0  0  0  0  0  0  0  0  0  0
   28.0767   10.2822   28.2531 C   0  0  0  0  0  0  0  0  0  0  0  0
   27.4784   11.4413   27.8180 C   0  0  0  0  0  0  0  0  0  0  0  0
   26.1821   11.7608   28.2306 C   0  0  0  0  0  0  0  0  0  0  0  0
   25.4782   10.9355   29.0726 C   0  0  0  0  0  0  0  0  0  0  0  0
   26.1031    9.7826   29.4918 C   0  0  0  0  0  0  0  0  0  0  0  0
   27.3853    9.4502   29.0932 C   0  0  0  0  0  0  0  0  0  0  0  0
   22.1042    8.2010   30.7613 C   0  0  0  0  0  0  0  0  0  0  0  0
   22.5253    6.8910   30.7898 C   0  0  0  0  0  0  0  0  0  0  0  0
   21.9974    5.9165   31.6178 C   0  0  0  0  0  0  0  0  0  0  0  0
   20.9897    6.2650   32.4706 C   0  0  0  0  0  0  0  0  0  0  0  0
   20.5323    7.5797   32.4770 C   0  0  0  0  0  0  0  0  0  0  0  0
   21.0826    8.5242   31.6367 C   0  0  0  0  0  0  0  0  0  0  0  0
   22.5408    4.6561   31.5129 O   0  0  0  0  0  0  0  0  0  0  0  0
   23.8236    4.3131   31.1157 C   0  0  0  0  0  0  0  0  0  0  0  0
   23.8384   13.7650   30.2559 C   0  0  0  0  0  0  0  0  0  0  0  0
   22.4205   13.9488   29.6944 C   0  0  0  0  0  0  0  0  0  0  0  0
   21.4375   13.2719   30.6063 C   0  0  0  0  0  0  0  0  0  0  0  0
   21.1648   14.1364   31.7292 N   0  0  0  0  0  0  0  0  0  0  0  0
   20.4555   13.5028   32.7959 C   0  0  0  0  0  0  0  0  0  0  0  0
   19.0235   13.2401   32.4756 C   0  0  0  0  0  0  0  0  0  0  0  0
   18.3776   14.4065   32.1041 O   0  0  0  0  0  0  0  0  0  0  0  0
   19.0048   14.8904   30.9555 C   0  0  0  0  0  0  0  0  0  0  0  0
   20.4090   15.3138   31.3408 C   0  0  0  0  0  0  0  0  0  0  0  0
   22.0785   14.4873   32.0993 H   0  0  0  0  0  0  0  0  0  0  0  0
 10 11  1  0  0  0
 11 12  2  0  0  0
 11 16  1  0  0  0
 12 13  1  0  0  0
 13 14  2  0  0  0
 14 15  1  0  0  0
 14  1  1  0  0  0
 15 16  2  0  0  0
  1  2  1  0  0  0
  1  7  1  0  0  0
  2  3  1  0  0  0
  2 25  1  0  0  0
  3  4  2  0  0  0
  3  5  1  0  0  0
  5  6  2  0  0  0
  5  7  1  0  0  0
  7  8  2  0  0  0
  8  9  1  0  0  0
  8 17  1  0  0  0
 17 18  2  0  0  0
 17 22  1  0  0  0
 18 19  1  0  0  0
 19 20  2  0  0  0
 19 23  1  0  0  0
 20 21  1  0  0  0
 21 22  2  0  0  0
 23 24  1  0  0  0
 25 26  1  0  0  0
 26 27  1  0  0  0
 27 28  1  0  0  0
 28 29  1  0  0  0
 28 33  1  0  0  0
 29 30  1  0  0  0
 30 31  1  0  0  0
 31 32  1  0  0  0
 32 33  1  0  0  0
 28 34  1  0  0  0
M  CHG 1   9  -1
M  CHG 1  28   1
M  END
> <minimizedAffinity>
-7.78825

$$$$
349


 32 35  0  0  0  0  0  0  0  0999 V2000
   23.8979    6.8533   31.2352 C   0  0  0  0  0  0  0  0  0  0  0  0
   22.9255    5.8474   31.2365 N   0  0  0  0  0  0  0  0  0  0  0  0
   23.6928    4.6272   31.5618 C   0  0  0  0  0  0  0  0  0  0  0  0
   23.2767    3.6076   32.1781 O   0  0  0  0  0  0  0  0  0  0  0  0
   25.0269    4.8782   31.0072 C   0  0  0  0  0  0  0  0  0  0  0  0
   26.0405    4.1151   31.0226 O   0  0  0  0  0  0  0  0  0  0  0  0
   24.9616    6.2234   30.4040 C   0  0  0  0  0  0  0  0  0  0  0  0
   25.6416    6.6771   29.3756 C   0  0  0  0  0  0  0  0  0  0  0  0
   25.4074    7.9565   28.8860 O   0  0  0  0  0  0  0  0  0  0  0  0
   23.3541   12.9731   31.2390 Br  0  0  0  0  0  0  0  0  0  0  0  0
   23.5139   11.0646   31.2262 C   0  0  0  0  0  0  0  0  0  0  0  0
   24.4798   10.4134   31.9621 C   0  0  0  0  0  0  0  0  0  0  0  0
   24.5758    9.0515   31.9373 C   0  0  0  0  0  0  0  0  0  0  0  0
   23.7115    8.2518   31.1742 C   0  0  0  0  0  0  0  0  0  0  0  0
   22.7666    8.8950   30.4559 C   0  0  0  0  0  0  0  0  0  0  0  0
   22.6643   10.2866   30.4773 C   0  0  0  0  0  0  0  0  0  0  0  0
   26.6684    5.9009   28.6983 C   0  0  0  0  0  0  0  0  0  0  0  0
   26.4643    4.9968   27.7035 C   0  0  0  0  0  0  0  0  0  0  0  0
   27.5402    4.3536   27.1075 C   0  0  0  0  0  0  0  0  0  0  0  0
   28.8269    4.6218   27.5155 C   0  0  0  0  0  0  0  0  0  0  0  0
   29.0756    5.5290   28.5185 C   0  0  0  0  0  0  0  0  0  0  0  0
   27.9841    6.1598   29.0992 C   0  0  0  0  0  0  0  0  0  0  0  0
   30.0091    3.9497   26.8981 C   0  0  0  0  0  0  0  0  0  0  0  0
   21.4871    5.7218   31.0545 C   0  0  0  0  0  0  0  0  0  0  0  0
   20.6880    5.9367   32.3131 C   0  0  0  0  0  0  0  0  0  0  0  0
   19.9183    7.1372   32.3111 N   0  0  0  0  0  0  0  0  0  0  0  0
   20.5248    8.1236   33.1852 C   0  0  0  0  0  0  0  0  0  0  0  0
   19.7095    9.3882   33.1232 C   0  0  0  0  0  0  0  0  0  0  0  0
   18.4890    9.1017   33.7561 O   0  0  0  0  0  0  0  0  0  0  0  0
   17.8412    8.1485   33.0054 C   0  0  0  0  0  0  0  0  0  0  0  0
   18.6031    6.8513   32.9186 C   0  0  0  0  0  0  0  0  0  0  0  0
   19.7632    7.5216   31.3680 H   0  0  0  0  0  0  0  0  0  0  0  0
 10 11  1  0  0  0
 11 12  2  0  0  0
 11 16  1  0  0  0
 12 13  1  0  0  0
 13 14  2  0  0  0
 14 15  1  0  0  0
 14  1  1  0  0  0
 15 16  2  0  0  0
  1  2  1  0  0  0
  1  7  1  0  0  0
  2  3  1  0  0  0
  2 24  1  0  0  0
  3  4  2  0  0  0
  3  5  1  0  0  0
  5  6  2  0  0  0
  5  7  1  0  0  0
  7  8  2  0  0  0
  8  9  1  0  0  0
  8 17  1  0  0  0
 17 18  2  0  0  0
 17 22  1  0  0  0
 18 19  1  0  0  0
 19 20  2  0  0  0
 20 21  1  0  0  0
 20 23  1  0  0  0
 21 22  2  0  0  0
 24 25  1  0  0  0
 25 26  1  0  0  0
 26 27  1  0  0  0
 26 31  1  0  0  0
 27 28  1  0  0  0
 28 29  1  0  0  0
 29 30  1  0  0  0
 30 31  1  0  0  0
 26 32  1  0  0  0
M  CHG 1   9  -1
M  CHG 1  26   1
M  END
> <minimizedAffinity>
-8.64845

$$$$
351


 32 35  0  0  0  0  0  0  0  0999 V2000
   23.7843    6.8779   31.3566 C   0  0  0  0  0  0  0  0  0  0  0  0
   22.7627    5.9005   31.4541 N   0  0  0  0  0  0  0  0  0  0  0  0
   23.4976    4.6738   31.7463 C   0  0  0  0  0  0  0  0  0  0  0  0
   23.0611    3.6820   32.3918 O   0  0  0  0  0  0  0  0  0  0  0  0
   24.8161    4.8456   31.1388 C   0  0  0  0  0  0  0  0  0  0  0  0
   25.7825    4.0396   31.1299 O   0  0  0  0  0  0  0  0  0  0  0  0
   24.7999    6.1726   30.5195 C   0  0  0  0  0  0  0  0  0  0  0  0
   25.4850    6.5811   29.4666 C   0  0  0  0  0  0  0  0  0  0  0  0
   25.3029    7.8610   28.9667 O   0  0  0  0  0  0  0  0  0  0  0  0
   22.7546   12.8178   30.2098 Br  0  0  0  0  0  0  0  0  0  0  0  0
   23.0494   10.9643   30.5171 C   0  0  0  0  0  0  0  0  0  0  0  0
   22.5755    9.9781   29.6826 C   0  0  0  0  0  0  0  0  0  0  0  0
   22.8139    8.6203   29.9421 C   0  0  0  0  0  0  0  0  0  0  0  0
   23.5283    8.2308   31.0393 C   0  0  0  0  0  0  0  0  0  0  0  0
   23.9908    9.2410   31.8572 C   0  0  0  0  0  0  0  0  0  0  0  0
   23.7670   10.5774   31.6173 C   0  0  0  0  0  0  0  0  0  0  0  0
   26.4615    5.7553   28.7701 C   0  0  0  0  0  0  0  0  0  0  0  0
   27.7906    5.9706   29.1591 C   0  0  0  0  0  0  0  0  0  0  0  0
   28.8319    5.2454   28.6282 C   0  0  0  0  0  0  0  0  0  0  0  0
   28.5389    4.2730   27.6784 C   0  0  0  0  0  0  0  0  0  0  0  0
   27.2301    4.0667   27.3014 C   0  0  0  0  0  0  0  0  0  0  0  0
   26.1932    4.7991   27.8404 C   0  0  0  0  0  0  0  0  0  0  0  0
   29.8709    3.3577   27.0096 Cl  0  0  0  0  0  0  0  0  0  0  0  0
   21.3001    5.9476   31.3729 C   0  0  0  0  0  0  0  0  0  0  0  0
   20.6524    6.8350   32.3906 C   0  0  0  0  0  0  0  0  0  0  0  0
   19.8799    7.9014   31.7937 N   0  0  0  0  0  0  0  0  0  0  0  0
   20.1511    9.1844   32.3790 C   0  0  0  0  0  0  0  0  0  0  0  0
   19.6348    9.3363   33.7799 C   0  0  0  0  0  0  0  0  0  0  0  0
   18.2839    9.0001   33.8820 O   0  0  0  0  0  0  0  0  0  0  0  0
   18.1853    7.6559   33.4923 C   0  0  0  0  0  0  0  0  0  0  0  0
   18.4744    7.6074   32.0073 C   0  0  0  0  0  0  0  0  0  0  0  0
   20.0238    7.9734   30.7679 H   0  0  0  0  0  0  0  0  0  0  0  0
 10 11  1  0  0  0
 11 12  2  0  0  0
 11 16  1  0  0  0
 12 13  1  0  0  0
 13 14  2  0  0  0
 14 15  1  0  0  0
 14  1  1  0  0  0
 15 16  2  0  0  0
  1  2  1  0  0  0
  1  7  1  0  0  0
  2  3  1  0  0  0
  2 24  1  0  0  0
  3  4  2  0  0  0
  3  5  1  0  0  0
  5  6  2  0  0  0
  5  7  1  0  0  0
  7  8  2  0  0  0
  8  9  1  0  0  0
  8 17  1  0  0  0
 17 18  2  0  0  0
 17 22  1  0  0  0
 18 19  1  0  0  0
 19 20  2  0  0  0
 20 21  1  0  0  0
 20 23  1  0  0  0
 21 22  2  0  0  0
 24 25  1  0  0  0
 25 26  1  0  0  0
 26 27  1  0  0  0
 26 31  1  0  0  0
 27 28  1  0  0  0
 28 29  1  0  0  0
 29 30  1  0  0  0
 30 31  1  0  0  0
 26 32  1  0  0  0
M  CHG 1   9  -1
M  CHG 1  26   1
M  END
> <minimizedAffinity>
-7.89906

$$$$
354


 32 35  0  0  0  0  0  0  0  0999 V2000
   21.7629   11.0763   31.3549 C   0  0  0  0  0  0  0  0  0  0  0  0
   21.0802   10.4961   32.4667 N   0  0  0  0  0  0  0  0  0  0  0  0
   20.1418   11.5069   32.9177 C   0  0  0  0  0  0  0  0  0  0  0  0
   19.1231   11.2729   33.6187 O   0  0  0  0  0  0  0  0  0  0  0  0
   20.5961   12.7907   32.4186 C   0  0  0  0  0  0  0  0  0  0  0  0
   20.0583   13.9261   32.5938 O   0  0  0  0  0  0  0  0  0  0  0  0
   21.8066   12.5296   31.6667 C   0  0  0  0  0  0  0  0  0  0  0  0
   22.7415   13.4148   31.3705 C   0  0  0  0  0  0  0  0  0  0  0  0
   23.8652   12.9209   30.6643 O   0  0  0  0  0  0  0  0  0  0  0  0
   27.0608    8.6577   29.2845 Br  0  0  0  0  0  0  0  0  0  0  0  0
   25.4440    9.4116   29.9645 C   0  0  0  0  0  0  0  0  0  0  0  0
   25.2690    9.6902   31.3026 C   0  0  0  0  0  0  0  0  0  0  0  0
   24.0923   10.2359   31.7789 C   0  0  0  0  0  0  0  0  0  0  0  0
   23.0476   10.5270   30.9690 C   0  0  0  0  0  0  0  0  0  0  0  0
   23.2379   10.2388   29.6071 C   0  0  0  0  0  0  0  0  0  0  0  0
   24.4007    9.6964   29.1106 C   0  0  0  0  0  0  0  0  0  0  0  0
   22.6780   14.8217   31.7118 C   0  0  0  0  0  0  0  0  0  0  0  0
   22.2252   15.6804   30.7024 C   0  0  0  0  0  0  0  0  0  0  0  0
   22.0746   17.0366   30.9026 C   0  0  0  0  0  0  0  0  0  0  0  0
   22.3697   17.5666   32.1034 N   0  0  0  0  0  0  0  0  0  0  0  0
   22.8077   16.7629   33.0945 C   0  0  0  0  0  0  0  0  0  0  0  0
   22.9635   15.3912   32.9046 C   0  0  0  0  0  0  0  0  0  0  0  0
   21.1449    9.1643   33.0715 C   0  0  0  0  0  0  0  0  0  0  0  0
   20.2522    8.1431   32.4527 C   0  0  0  0  0  0  0  0  0  0  0  0
   20.8689    6.7533   32.4856 C   0  0  0  0  0  0  0  0  0  0  0  0
   21.5219    6.4395   31.2361 N   0  0  0  0  0  0  0  0  0  0  0  0
   22.8735    6.9479   31.1728 C   0  0  0  0  0  0  0  0  0  0  0  0
   23.5699    6.2005   30.0330 C   0  0  0  0  0  0  0  0  0  0  0  0
   23.8736    4.9124   30.4724 O   0  0  0  0  0  0  0  0  0  0  0  0
   22.8403    4.3744   31.2384 C   0  0  0  0  0  0  0  0  0  0  0  0
   21.5156    5.0418   30.9312 C   0  0  0  0  0  0  0  0  0  0  0  0
   20.9784    6.9306   30.4863 H   0  0  0  0  0  0  0  0  0  0  0  0
 10 11  1  0  0  0
 11 12  2  0  0  0
 11 16  1  0  0  0
 12 13  1  0  0  0
 13 14  2  0  0  0
 14 15  1  0  0  0
 14  1  1  0  0  0
 15 16  2  0  0  0
  1  2  1  0  0  0
  1  7  1  0  0  0
  2  3  1  0  0  0
  2 23  1  0  0  0
  3  4  2  0  0  0
  3  5  1  0  0  0
  5  6  2  0  0  0
  5  7  1  0  0  0
  7  8  2  0  0  0
  8  9  1  0  0  0
  8 17  1  0  0  0
 17 18  2  0  0  0
 17 22  1  0  0  0
 18 19  1  0  0  0
 19 20  2  0  0  0
 20 21  1  0  0  0
 21 22  2  0  0  0
 23 24  1  0  0  0
 24 25  1  0  0  0
 25 26  1  0  0  0
 26 27  1  0  0  0
 26 31  1  0  0  0
 27 28  1  0  0  0
 28 29  1  0  0  0
 29 30  1  0  0  0
 30 31  1  0  0  0
 26 32  1  0  0  0
M  CHG 1   9  -1
M  CHG 1  26   1
M  END
> <minimizedAffinity>
-8.29849

$$$$
361


 33 36  0  0  0  0  0  0  0  0999 V2000
   24.2084   11.9548   31.0794 C   0  0  0  0  0  0  0  0  0  0  0  0
   23.0851   12.9051   30.9816 N   0  0  0  0  0  0  0  0  0  0  0  0
   22.1712   12.2838   30.0846 C   0  0  0  0  0  0  0  0  0  0  0  0
   21.3225   12.9102   29.3868 O   0  0  0  0  0  0  0  0  0  0  0  0
   22.3853   10.8409   30.1191 C   0  0  0  0  0  0  0  0  0  0  0  0
   21.7650    9.9739   29.4697 O   0  0  0  0  0  0  0  0  0  0  0  0
   23.4642   10.6419   31.0689 C   0  0  0  0  0  0  0  0  0  0  0  0
   23.7220    9.5819   31.7917 C   0  0  0  0  0  0  0  0  0  0  0  0
   24.7729    9.5724   32.6979 O   0  0  0  0  0  0  0  0  0  0  0  0
   22.9319    8.3705   31.6802 C   0  0  0  0  0  0  0  0  0  0  0  0
   21.6980    8.0620   32.1292 N   0  0  0  0  0  0  0  0  0  0  0  0
   21.3811    6.7959   31.8215 C   0  0  0  0  0  0  0  0  0  0  0  0
   22.4466    6.2945   31.1603 N   0  0  0  0  0  0  0  0  0  0  0  0
   23.4009    7.1979   31.0492 C   0  0  0  0  0  0  0  0  0  0  0  0
   24.7461    7.0909   30.3983 C   0  0  0  0  0  0  0  0  0  0  0  0
   20.1548    6.2169   32.1499 C   0  0  0  0  0  0  0  0  0  0  0  0
   19.2043    6.9527   32.8190 C   0  0  0  0  0  0  0  0  0  0  0  0
   19.5456    8.2501   33.1243 C   0  0  0  0  0  0  0  0  0  0  0  0
   20.7627    8.7934   32.7883 C   0  0  0  0  0  0  0  0  0  0  0  0
   27.6507   12.0627   25.8985 Br  0  0  0  0  0  0  0  0  0  0  0  0
   26.5893   12.0334   27.5000 C   0  0  0  0  0  0  0  0  0  0  0  0
   26.7753   11.0484   28.4528 C   0  0  0  0  0  0  0  0  0  0  0  0
   25.9977   11.0403   29.6095 C   0  0  0  0  0  0  0  0  0  0  0  0
   25.0330   11.9893   29.8509 C   0  0  0  0  0  0  0  0  0  0  0  0
   24.8643   12.9616   28.8892 C   0  0  0  0  0  0  0  0  0  0  0  0
   25.6254   12.9792   27.7441 C   0  0  0  0  0  0  0  0  0  0  0  0
   22.9822   14.1768   31.6477 C   0  0  0  0  0  0  0  0  0  0  0  0
   21.7145   14.5492   32.3100 C   0  0  0  0  0  0  0  0  0  0  0  0
   20.6833   15.3201   31.5857 C   0  0  0  0  0  0  0  0  0  0  0  0
   19.5891   14.6020   31.0054 N   0  0  0  0  0  0  0  0  0  0  0  0
   19.0900   13.6676   32.0542 C   0  0  0  0  0  0  0  0  0  0  0  0
   18.4763   15.5002   30.7749 C   0  0  0  0  0  0  0  0  0  0  0  0
   19.7849   14.0627   30.1624 H   0  0  0  0  0  0  0  0  0  0  0  0
 20 21  1  0  0  0
 21 22  2  0  0  0
 21 26  1  0  0  0
 22 23  1  0  0  0
 23 24  2  0  0  0
 24 25  1  0  0  0
 24  1  1  0  0  0
 25 26  2  0  0  0
  1  2  1  0  0  0
  1  7  1  0  0  0
  2  3  1  0  0  0
  2 27  1  0  0  0
  3  4  2  0  0  0
  3  5  1  0  0  0
  5  6  2  0  0  0
  5  7  1  0  0  0
  7  8  2  0  0  0
  8  9  1  0  0  0
  8 10  1  0  0  0
 10 11  1  0  0  0
 10 14  2  0  0  0
 11 12  1  0  0  0
 11 19  1  0  0  0
 12 13  2  0  0  0
 12 16  1  0  0  0
 13 14  1  0  0  0
 14 15  1  0  0  0
 16 17  2  0  0  0
 17 18  1  0  0  0
 18 19  2  0  0  0
 27 28  1  0  0  0
 28 29  1  0  0  0
 29 30  1  0  0  0
 30 31  1  0  0  0
 30 32  1  0  0  0
 30 33  1  0  0  0
M  CHG 1   9  -1
M  CHG 1  30   1
M  END
> <minimizedAffinity>
-8.66895

$$$$
362


 36 40  0  0  0  0  0  0  0  0999 V2000
   25.6220    9.7313   30.0762 C   0  0  0  0  0  0  0  0  0  0  0  0
   25.9042   10.8048   29.2189 N   0  0  0  0  0  0  0  0  0  0  0  0
   27.3365   10.6783   29.0084 C   0  0  0  0  0  0  0  0  0  0  0  0
   28.1724   11.5979   28.7099 O   0  0  0  0  0  0  0  0  0  0  0  0
   27.6870    9.2752   29.1981 C   0  0  0  0  0  0  0  0  0  0  0  0
   28.8098    8.6803   29.1233 O   0  0  0  0  0  0  0  0  0  0  0  0
   26.4244    8.6124   29.5185 C   0  0  0  0  0  0  0  0  0  0  0  0
   26.1089    7.3381   29.3832 C   0  0  0  0  0  0  0  0  0  0  0  0
   24.8648    6.8834   29.7981 O   0  0  0  0  0  0  0  0  0  0  0  0
   27.0175    6.3602   28.8047 C   0  0  0  0  0  0  0  0  0  0  0  0
   27.6009    6.3894   27.5946 N   0  0  0  0  0  0  0  0  0  0  0  0
   28.4090    5.3144   27.4427 C   0  0  0  0  0  0  0  0  0  0  0  0
   28.3197    4.6110   28.5829 N   0  0  0  0  0  0  0  0  0  0  0  0
   27.4882    5.2068   29.4345 C   0  0  0  0  0  0  0  0  0  0  0  0
   27.0792    4.8024   30.8060 C   0  0  0  0  0  0  0  0  0  0  0  0
   29.1269    5.0856   26.2883 C   0  0  0  0  0  0  0  0  0  0  0  0
   29.0494    5.9529   25.2244 C   0  0  0  0  0  0  0  0  0  0  0  0
   28.2299    7.0511   25.3612 C   0  0  0  0  0  0  0  0  0  0  0  0
   27.5436    7.2317   26.5217 C   0  0  0  0  0  0  0  0  0  0  0  0
   19.9955    8.3249   32.0871 Br  0  0  0  0  0  0  0  0  0  0  0  0
   21.7381    8.7566   31.4415 C   0  0  0  0  0  0  0  0  0  0  0  0
   22.0002    8.9333   30.0956 C   0  0  0  0  0  0  0  0  0  0  0  0
   23.2594    9.2454   29.6283 C   0  0  0  0  0  0  0  0  0  0  0  0
   24.2995    9.3915   30.5009 C   0  0  0  0  0  0  0  0  0  0  0  0
   24.0454    9.2180   31.8318 C   0  0  0  0  0  0  0  0  0  0  0  0
   22.7962    8.9062   32.3172 C   0  0  0  0  0  0  0  0  0  0  0  0
   25.2389   11.8976   28.5868 C   0  0  0  0  0  0  0  0  0  0  0  0
   24.5927   12.9665   29.3165 C   0  0  0  0  0  0  0  0  0  0  0  0
   23.1435   12.7839   29.7021 C   0  0  0  0  0  0  0  0  0  0  0  0
   22.9760   12.7772   31.1522 N   0  0  0  0  0  0  0  0  0  0  0  0
   21.6671   12.3873   31.5864 C   0  0  0  0  0  0  0  0  0  0  0  0
   20.6774   13.5106   31.6845 C   0  0  0  0  0  0  0  0  0  0  0  0
   21.0830   14.6596   31.0595 O   0  0  0  0  0  0  0  0  0  0  0  0
   22.3255   15.1161   31.4145 C   0  0  0  0  0  0  0  0  0  0  0  0
   23.3066   14.0392   31.7415 C   0  0  0  0  0  0  0  0  0  0  0  0
   23.6452   12.0550   31.5184 H   0  0  0  0  0  0  0  0  0  0  0  0
 20 21  1  0  0  0
 21 22  2  0  0  0
 21 26  1  0  0  0
 22 23  1  0  0  0
 23 24  2  0  0  0
 24 25  1  0  0  0
 24  1  1  0  0  0
 25 26  2  0  0  0
  1  2  1  0  0  0
  1  7  1  0  0  0
  2  3  1  0  0  0
  2 27  1  0  0  0
  3  4  2  0  0  0
  3  5  1  0  0  0
  5  6  2  0  0  0
  5  7  1  0  0  0
  7  8  2  0  0  0
  8  9  1  0  0  0
  8 10  1  0  0  0
 10 11  1  0  0  0
 10 14  2  0  0  0
 11 12  1  0  0  0
 11 19  1  0  0  0
 12 13  2  0  0  0
 12 16  1  0  0  0
 13 14  1  0  0  0
 14 15  1  0  0  0
 16 17  2  0  0  0
 17 18  1  0  0  0
 18 19  2  0  0  0
 27 28  1  0  0  0
 28 29  1  0  0  0
 29 30  1  0  0  0
 30 31  1  0  0  0
 30 35  1  0  0  0
 31 32  1  0  0  0
 32 33  1  0  0  0
 33 34  1  0  0  0
 34 35  1  0  0  0
 30 36  1  0  0  0
M  CHG 1   9  -1
M  CHG 1  30   1
M  END
> <minimizedAffinity>
-7.15127

$$$$
364


 32 35  0  0  0  0  0  0  0  0999 V2000
   22.4428   11.0307   31.9570 C   0  0  0  0  0  0  0  0  0  0  0  0
   21.8507    9.7236   32.0329 N   0  0  0  0  0  0  0  0  0  0  0  0
   22.0679    9.0854   30.7866 C   0  0  0  0  0  0  0  0  0  0  0  0
   21.5242    8.0095   30.4060 O   0  0  0  0  0  0  0  0  0  0  0  0
   23.0249    9.8719   30.0044 C   0  0  0  0  0  0  0  0  0  0  0  0
   23.4649    9.6213   28.8551 O   0  0  0  0  0  0  0  0  0  0  0  0
   23.3854   11.0192   30.8178 C   0  0  0  0  0  0  0  0  0  0  0  0
   24.3985   11.8395   30.5902 C   0  0  0  0  0  0  0  0  0  0  0  0
   24.6316   12.8521   31.5414 O   0  0  0  0  0  0  0  0  0  0  0  0
   25.2873   11.8057   29.4555 C   0  0  0  0  0  0  0  0  0  0  0  0
   26.3002   11.0017   29.1099 N   0  0  0  0  0  0  0  0  0  0  0  0
   26.8617   11.4053   27.9570 C   0  0  0  0  0  0  0  0  0  0  0  0
   26.1886   12.4962   27.5543 N   0  0  0  0  0  0  0  0  0  0  0  0
   25.2272   12.7678   28.4383 C   0  0  0  0  0  0  0  0  0  0  0  0
   24.2662   13.9022   28.3403 C   0  0  0  0  0  0  0  0  0  0  0  0
   27.9256   10.7480   27.3488 C   0  0  0  0  0  0  0  0  0  0  0  0
   28.4276    9.6298   27.9554 C   0  0  0  0  0  0  0  0  0  0  0  0
   27.8512    9.2110   29.1406 C   0  0  0  0  0  0  0  0  0  0  0  0
   26.7999    9.8966   29.7037 C   0  0  0  0  0  0  0  0  0  0  0  0
   18.2053   15.5344   31.2993 Br  0  0  0  0  0  0  0  0  0  0  0  0
   19.4906   14.1406   31.5383 C   0  0  0  0  0  0  0  0  0  0  0  0
   20.4265   13.9340   30.5655 C   0  0  0  0  0  0  0  0  0  0  0  0
   21.3570   12.9338   30.7243 C   0  0  0  0  0  0  0  0  0  0  0  0
   21.4203   12.1028   31.8199 C   0  0  0  0  0  0  0  0  0  0  0  0
   20.4505   12.3409   32.7951 C   0  0  0  0  0  0  0  0  0  0  0  0
   19.5125   13.3360   32.6525 C   0  0  0  0  0  0  0  0  0  0  0  0
   21.1438    9.1397   33.1941 C   0  0  0  0  0  0  0  0  0  0  0  0
   19.6680    9.0055   32.8855 C   0  0  0  0  0  0  0  0  0  0  0  0
   19.2943    7.7005   32.4656 N   0  0  0  0  0  0  0  0  0  0  0  0
   20.0766    6.7415   33.2461 C   0  0  0  0  0  0  0  0  0  0  0  0
   17.9069    7.3859   32.6116 C   0  0  0  0  0  0  0  0  0  0  0  0
   19.5491    7.5216   31.4535 H   0  0  0  0  0  0  0  0  0  0  0  0
 20 21  1  0  0  0
 21 22  2  0  0  0
 21 26  1  0  0  0
 22 23  1  0  0  0
 23 24  2  0  0  0
 24 25  1  0  0  0
 24  1  1  0  0  0
 25 26  2  0  0  0
  1  2  1  0  0  0
  1  7  1  0  0  0
  2  3  1  0  0  0
  2 27  1  0  0  0
  3  4  2  0  0  0
  3  5  1  0  0  0
  5  6  2  0  0  0
  5  7  1  0  0  0
  7  8  2  0  0  0
  8  9  1  0  0  0
  8 10  1  0  0  0
 10 11  1  0  0  0
 10 14  2  0  0  0
 11 12  1  0  0  0
 11 19  1  0  0  0
 12 13  2  0  0  0
 12 16  1  0  0  0
 13 14  1  0  0  0
 14 15  1  0  0  0
 16 17  2  0  0  0
 17 18  1  0  0  0
 18 19  2  0  0  0
 27 28  1  0  0  0
 28 29  1  0  0  0
 29 30  1  0  0  0
 29 31  1  0  0  0
 29 32  1  0  0  0
M  CHG 1   9  -1
M  CHG 1  29   1
M  END
> <minimizedAffinity>
-7.82403

$$$$
381


 29 32  0  0  0  0  0  0  0  0999 V2000
   23.1408   11.2932   30.5628 N   0  0  0  0  0  0  0  0  0  0  0  0
   22.2162   10.6556   31.2747 N   0  0  0  0  0  0  0  0  0  0  0  0
   21.3076   11.3287   32.0370 C   0  0  0  0  0  0  0  0  0  0  0  0
   21.3463   12.6696   32.0730 N   0  0  0  0  0  0  0  0  0  0  0  0
   20.3198   13.1823   32.9537 C   0  0  0  0  0  0  0  0  0  0  0  0
   19.5783   11.9968   33.4962 C   0  0  0  0  0  0  0  0  0  0  0  0
   20.2218   10.8758   32.8370 N   0  0  0  0  0  0  0  0  0  0  0  0
   22.2542   13.3674   31.3775 C   0  0  0  0  0  0  0  0  0  0  0  0
   22.2884   14.6204   31.4127 O   0  0  0  0  0  0  0  0  0  0  0  0
   23.1488   12.6366   30.6215 C   0  0  0  0  0  0  0  0  0  0  0  0
   24.0205   13.2470   29.9526 O   0  0  0  0  0  0  0  0  0  0  0  0
   19.7877    9.5395   33.0018 C   0  0  0  0  0  0  0  0  0  0  0  0
   20.6215    8.4550   32.9465 C   0  0  0  0  0  0  0  0  0  0  0  0
   20.1632    7.1580   33.0959 C   0  0  0  0  0  0  0  0  0  0  0  0
   18.8172    6.9305   33.3102 C   0  0  0  0  0  0  0  0  0  0  0  0
   17.9724    7.9937   33.3695 C   0  0  0  0  0  0  0  0  0  0  0  0
   18.4372    9.2827   33.2184 C   0  0  0  0  0  0  0  0  0  0  0  0
   24.1069   10.5821   29.7092 C   0  0  0  0  0  0  0  0  0  0  0  0
   23.8038    8.0302   29.8149 N   0  0  0  0  0  0  0  0  0  0  0  0
   24.3697    9.2415   30.2302 C   0  0  0  0  0  0  0  0  0  0  0  0
   25.2386    9.2301   31.1904 O   0  0  0  0  0  0  0  0  0  0  0  0
   23.0908    8.0877   29.0336 H   0  0  0  0  0  0  0  0  0  0  0  0
   24.7460    2.4996   32.3709 Br  0  0  0  0  0  0  0  0  0  0  0  0
   24.4879    4.2083   31.5558 C   0  0  0  0  0  0  0  0  0  0  0  0
   25.4826    4.8308   30.8489 C   0  0  0  0  0  0  0  0  0  0  0  0
   25.2816    6.0861   30.2582 C   0  0  0  0  0  0  0  0  0  0  0  0
   24.0944    6.7693   30.3429 C   0  0  0  0  0  0  0  0  0  0  0  0
   23.0939    6.1002   31.0750 C   0  0  0  0  0  0  0  0  0  0  0  0
   23.2834    4.8764   31.6548 C   0  0  0  0  0  0  0  0  0  0  0  0
 23 24  1  0  0  0
 24 25  2  0  0  0
 24 29  1  0  0  0
 25 26  1  0  0  0
 26 27  2  0  0  0
 27 28  1  0  0  0
 27 19  1  0  0  0
 28 29  2  0  0  0
 19 20  1  0  0  0
 20 21  2  0  0  0
 20 18  1  0  0  0
 18  1  1  0  0  0
  1  2  1  0  0  0
  1 10  1  0  0  0
  2  3  2  0  0  0
  3  4  1  0  0  0
  3  7  1  0  0  0
  4  5  1  0  0  0
  4  8  1  0  0  0
  5  6  1  0  0  0
  6  7  1  0  0  0
  7 12  1  0  0  0
 12 13  2  0  0  0
 12 17  1  0  0  0
 13 14  1  0  0  0
 14 15  2  0  0  0
 15 16  1  0  0  0
 16 17  2  0  0  0
  8  9  2  0  0  0
  8 10  1  0  0  0
 10 11  2  0  0  0
 19 22  1  0  0  0
M  END
> <minimizedAffinity>
-9.29479

$$$$
382


 31 34  0  0  0  0  0  0  0  0999 V2000
   25.4388    6.5501   29.8304 N   0  0  0  0  0  0  0  0  0  0  0  0
   26.2884    7.5658   29.6750 N   0  0  0  0  0  0  0  0  0  0  0  0
   25.7460    8.6650   30.1458 N   0  0  0  0  0  0  0  0  0  0  0  0
   24.5141    8.3649   30.6223 C   0  0  0  0  0  0  0  0  0  0  0  0
   24.3402    7.0533   30.4195 C   0  0  0  0  0  0  0  0  0  0  0  0
   23.0806    6.7890   30.9150 C   0  0  0  0  0  0  0  0  0  0  0  0
   22.5687    5.6301   30.8932 O   0  0  0  0  0  0  0  0  0  0  0  0
   22.4917    7.8895   31.4079 N   0  0  0  0  0  0  0  0  0  0  0  0
   23.3962    8.8930   31.2242 C   0  0  0  0  0  0  0  0  0  0  0  0
   23.1753   10.0844   31.5739 O   0  0  0  0  0  0  0  0  0  0  0  0
   27.2290    7.4583   29.2418 H   0  0  0  0  0  0  0  0  0  0  0  0
   26.1500    9.6341   30.1750 H   0  0  0  0  0  0  0  0  0  0  0  0
   21.1950    8.0260   32.0073 C   0  0  0  0  0  0  0  0  0  0  0  0
   20.8038    9.2134   32.5877 C   0  0  0  0  0  0  0  0  0  0  0  0
   19.5540    9.3562   33.1567 C   0  0  0  0  0  0  0  0  0  0  0  0
   18.6350    8.3228   33.1766 C   0  0  0  0  0  0  0  0  0  0  0  0
   19.0237    7.1337   32.5966 C   0  0  0  0  0  0  0  0  0  0  0  0
   20.2787    6.9961   32.0263 C   0  0  0  0  0  0  0  0  0  0  0  0
   17.2945    8.5119   33.7940 C   0  0  0  0  0  0  0  0  0  0  0  0
   25.7074    5.1861   29.4203 C   0  0  0  0  0  0  0  0  0  0  0  0
   24.7881    3.4975   31.0639 N   0  0  0  0  0  0  0  0  0  0  0  0
   25.8456    4.3258   30.6653 C   0  0  0  0  0  0  0  0  0  0  0  0
   26.9081    4.3746   31.3196 O   0  0  0  0  0  0  0  0  0  0  0  0
   23.8956    3.4942   30.4756 H   0  0  0  0  0  0  0  0  0  0  0  0
   24.5834   -0.0138   36.1067 Br  0  0  0  0  0  0  0  0  0  0  0  0
   24.6868    1.0334   34.5241 C   0  0  0  0  0  0  0  0  0  0  0  0
   25.6185    0.8030   33.5441 C   0  0  0  0  0  0  0  0  0  0  0  0
   25.6528    1.5984   32.4068 C   0  0  0  0  0  0  0  0  0  0  0  0
   24.7801    2.6427   32.1897 C   0  0  0  0  0  0  0  0  0  0  0  0
   23.8382    2.8488   33.2156 C   0  0  0  0  0  0  0  0  0  0  0  0
   23.8032    2.0721   34.3293 C   0  0  0  0  0  0  0  0  0  0  0  0
 25 26  1  0  0  0
 26 27  2  0  0  0
 26 31  1  0  0  0
 27 28  1  0  0  0
 28 29  2  0  0  0
 29 30  1  0  0  0
 29 21  1  0  0  0
 30 31  2  0  0  0
 21 22  1  0  0  0
 22 23  2  0  0  0
 22 20  1  0  0  0
 20  1  1  0  0  0
  1  2  1  0  0  0
  1  5  1  0  0  0
  2  3  1  0  0  0
  3  4  1  0  0  0
  4  5  2  0  0  0
  4  9  1  0  0  0
  5  6  1  0  0  0
  6  7  2  0  0  0
  6  8  1  0  0  0
  8  9  1  0  0  0
  8 13  1  0  0  0
  9 10  2  0  0  0
 13 14  2  0  0  0
 13 18  1  0  0  0
 14 15  1  0  0  0
 15 16  2  0  0  0
 16 17  1  0  0  0
 16 19  1  0  0  0
 17 18  2  0  0  0
 21 24  1  0  0  0
  2 11  1  0  0  0
  3 12  1  0  0  0
M  END
> <minimizedAffinity>
-9.34231

$$$$
385


 32 35  0  0  0  0  0  0  0  0999 V2000
   23.0548   13.4759   30.6971 C   0  0  0  0  0  0  0  0  0  0  0  0
   22.6377   14.0164   32.0325 C   0  0  0  0  0  0  0  0  0  0  0  0
   21.8692   15.2662   31.9726 C   0  0  0  0  0  0  0  0  0  0  0  0
   21.0151   15.4779   32.8760 O   0  0  0  0  0  0  0  0  0  0  0  0
   22.0927   16.1916   30.9238 N   0  0  0  0  0  0  0  0  0  0  0  0
   22.7947   15.7913   29.7662 C   0  0  0  0  0  0  0  0  0  0  0  0
   23.0108   16.7066   28.7708 N   0  0  0  0  0  0  0  0  0  0  0  0
   23.6781   16.4005   27.6563 C   0  0  0  0  0  0  0  0  0  0  0  0
   24.1400   15.1497   27.5320 N   0  0  0  0  0  0  0  0  0  0  0  0
   23.9507   14.1987   28.4928 C   0  0  0  0  0  0  0  0  0  0  0  0
   23.2646   14.4899   29.6552 C   0  0  0  0  0  0  0  0  0  0  0  0
   24.4508   12.8785   28.3081 N   0  0  0  0  0  0  0  0  0  0  0  0
   21.7447   17.1924   30.9795 H   0  0  0  0  0  0  0  0  0  0  0  0
   24.5461   12.2016   29.0711 H   0  0  0  0  0  0  0  0  0  0  0  0
   24.7433   12.5850   27.3412 H   0  0  0  0  0  0  0  0  0  0  0  0
   23.8914   17.3838   26.6175 N   0  0  0  0  0  0  0  0  0  0  0  0
   23.1810   18.6094   26.7306 C   0  0  0  0  0  0  0  0  0  0  0  0
   23.7540   19.7335   25.9166 C   0  0  0  0  0  0  0  0  0  0  0  0
   24.9343   19.3769   25.2737 O   0  0  0  0  0  0  0  0  0  0  0  0
   24.7974   18.1948   24.5587 C   0  0  0  0  0  0  0  0  0  0  0  0
   24.8095   17.0567   25.5463 C   0  0  0  0  0  0  0  0  0  0  0  0
   22.1724   11.1723   30.4249 N   0  0  0  0  0  0  0  0  0  0  0  0
   21.9506   12.4704   30.3053 C   0  0  0  0  0  0  0  0  0  0  0  0
   20.9076   13.1150   29.8894 O   0  0  0  0  0  0  0  0  0  0  0  0
   20.9973   10.9090   29.7882 H   0  0  0  0  0  0  0  0  0  0  0  0
   22.6567    5.1363   31.1711 Br  0  0  0  0  0  0  0  0  0  0  0  0
   22.5505    7.0375   30.9282 C   0  0  0  0  0  0  0  0  0  0  0  0
   21.7315    7.8066   31.7167 C   0  0  0  0  0  0  0  0  0  0  0  0
   21.6450    9.1414   31.5532 C   0  0  0  0  0  0  0  0  0  0  0  0
   22.4007    9.8247   30.5481 C   0  0  0  0  0  0  0  0  0  0  0  0
   23.2093    9.0161   29.7799 C   0  0  0  0  0  0  0  0  0  0  0  0
   23.2971    7.6565   29.9496 C   0  0  0  0  0  0  0  0  0  0  0  0
 26 27  1  0  0  0
 27 28  2  0  0  0
 27 32  1  0  0  0
 28 29  1  0  0  0
 29 30  2  0  0  0
 30 31  1  0  0  0
 30 22  1  0  0  0
 31 32  2  0  0  0
 22 23  1  0  0  0
 23 24  2  0  0  0
 23  1  1  0  0  0
  1  2  1  0  0  0
  1 11  1  0  0  0
  2  3  1  0  0  0
  3  4  2  0  0  0
  3  5  1  0  0  0
  5  6  1  0  0  0
  6  7  2  0  0  0
  6 11  1  0  0  0
  7  8  1  0  0  0
  8  9  2  0  0  0
  8 16  1  0  0  0
  9 10  1  0  0  0
 10 11  2  0  0  0
 10 12  1  0  0  0
 16 17  1  0  0  0
 16 21  1  0  0  0
 17 18  1  0  0  0
 18 19  1  0  0  0
 19 20  1  0  0  0
 20 21  1  0  0  0
 22 25  1  0  0  0
  5 13  1  0  0  0
 12 14  1  0  0  0
 12 15  1  0  0  0
M  END
> <minimizedAffinity>
-9.28613

$$$$
386


 36 39  0  0  0  0  0  0  0  0999 V2000
   21.4125    6.3492   31.8976 C   0  0  0  0  0  0  0  0  0  0  0  0
   19.9118    6.5508   31.9935 C   0  0  0  0  0  0  0  0  0  0  0  0
   19.6639    7.7130   32.8994 C   0  0  0  0  0  0  0  0  0  0  0  0
   18.8572    7.6346   33.8085 O   0  0  0  0  0  0  0  0  0  0  0  0
   20.4023    8.8764   32.6395 N   0  0  0  0  0  0  0  0  0  0  0  0
   21.6117    8.8189   31.9097 C   0  0  0  0  0  0  0  0  0  0  0  0
   22.2800    9.9392   31.5687 N   0  0  0  0  0  0  0  0  0  0  0  0
   23.3737    9.9841   30.8073 C   0  0  0  0  0  0  0  0  0  0  0  0
   23.8131    8.7786   30.3613 N   0  0  0  0  0  0  0  0  0  0  0  0
   23.1929    7.6100   30.6667 C   0  0  0  0  0  0  0  0  0  0  0  0
   22.0790    7.5654   31.4480 C   0  0  0  0  0  0  0  0  0  0  0  0
   23.7085    6.4182   30.1641 O   0  0  0  0  0  0  0  0  0  0  0  0
   20.0968    9.8332   32.9641 H   0  0  0  0  0  0  0  0  0  0  0  0
   23.5919    6.1417   29.1915 H   0  0  0  0  0  0  0  0  0  0  0  0
   24.0854   11.1688   30.5060 N   0  0  0  0  0  0  0  0  0  0  0  0
   24.1795   11.8108   29.2207 C   0  0  0  0  0  0  0  0  0  0  0  0
   24.1355   13.3207   29.4358 C   0  0  0  0  0  0  0  0  0  0  0  0
   23.3464   13.6974   30.6551 C   0  0  0  0  0  0  0  0  0  0  0  0
   23.9236   13.0967   31.8882 C   0  0  0  0  0  0  0  0  0  0  0  0
   24.7998   11.8593   31.5858 C   0  0  0  0  0  0  0  0  0  0  0  0
   21.9016   13.4094   30.4920 C   0  0  0  0  0  0  0  0  0  0  0  0
   21.1560   13.6104   31.4724 O   0  0  0  0  0  0  0  0  0  0  0  0
   21.3269   12.9186   29.2984 N   0  0  0  0  0  0  0  0  0  0  0  0
   21.6590   13.2032   28.3587 H   0  0  0  0  0  0  0  0  0  0  0  0
   20.5378   12.2424   29.3659 H   0  0  0  0  0  0  0  0  0  0  0  0
   22.7672    4.2660   31.8896 N   0  0  0  0  0  0  0  0  0  0  0  0
   21.8139    5.0347   31.3283 C   0  0  0  0  0  0  0  0  0  0  0  0
   21.1068    4.7867   30.2590 O   0  0  0  0  0  0  0  0  0  0  0  0
   22.4989    3.2780   31.0138 H   0  0  0  0  0  0  0  0  0  0  0  0
   27.3029    0.8211   33.8989 Br  0  0  0  0  0  0  0  0  0  0  0  0
   25.8460    1.8891   33.3337 C   0  0  0  0  0  0  0  0  0  0  0  0
   26.0052    2.7648   32.2740 C   0  0  0  0  0  0  0  0  0  0  0  0
   25.0127    3.5620   31.8104 C   0  0  0  0  0  0  0  0  0  0  0  0
   23.7391    3.4821   32.4602 C   0  0  0  0  0  0  0  0  0  0  0  0
   23.6140    2.6026   33.5090 C   0  0  0  0  0  0  0  0  0  0  0  0
   24.6375    1.8013   33.9634 C   0  0  0  0  0  0  0  0  0  0  0  0
 30 31  1  0  0  0
 31 32  2  0  0  0
 31 36  1  0  0  0
 32 33  1  0  0  0
 33 34  2  0  0  0
 34 35  1  0  0  0
 34 26  1  0  0  0
 35 36  2  0  0  0
 26 27  1  0  0  0
 27 28  2  0  0  0
 27  1  1  0  0  0
  1  2  1  0  0  0
  1 11  1  0  0  0
  2  3  1  0  0  0
  3  4  2  0  0  0
  3  5  1  0  0  0
  5  6  1  0  0  0
  6  7  2  0  0  0
  6 11  1  0  0  0
  7  8  1  0  0  0
  8  9  2  0  0  0
  8 15  1  0  0  0
  9 10  1  0  0  0
 10 11  2  0  0  0
 10 12  1  0  0  0
 15 16  1  0  0  0
 15 20  1  0  0  0
 16 17  1  0  0  0
 17 18  1  0  0  0
 18 19  1  0  0  0
 18 21  1  0  0  0
 19 20  1  0  0  0
 21 22  2  0  0  0
 21 23  1  0  0  0
 26 29  1  0  0  0
  5 13  1  0  0  0
 12 14  1  0  0  0
 23 24  1  0  0  0
 23 25  1  0  0  0
M  END
> <minimizedAffinity>
-9.42793

$$$$
393


 27 30  0  0  0  0  0  0  0  0999 V2000
   25.0838    7.9116   29.7499 N   0  0  0  0  0  0  0  0  0  0  0  0
   26.2037    8.1338   29.1077 N   0  0  0  0  0  0  0  0  0  0  0  0
   26.8066    6.9945   28.7138 C   0  0  0  0  0  0  0  0  0  0  0  0
   25.9999    5.9768   29.1434 C   0  0  0  0  0  0  0  0  0  0  0  0
   24.9341    6.5711   29.7854 C   0  0  0  0  0  0  0  0  0  0  0  0
   26.2567    4.5563   28.9397 C   0  0  0  0  0  0  0  0  0  0  0  0
   25.8426    4.0612   27.8641 O   0  0  0  0  0  0  0  0  0  0  0  0
   26.9318    3.7443   29.8767 N   0  0  0  0  0  0  0  0  0  0  0  0
   27.1343    2.3474   29.5766 C   0  0  0  0  0  0  0  0  0  0  0  0
   28.6056    2.1216   29.3950 C   0  0  0  0  0  0  0  0  0  0  0  0
   29.4057    3.1611   30.0323 N   0  0  0  0  0  0  0  0  0  0  0  0
   28.9146    3.9552   31.1067 C   0  0  0  0  0  0  0  0  0  0  0  0
   29.7128    4.4128   31.9607 O   0  0  0  0  0  0  0  0  0  0  0  0
   27.4533    4.1965   31.1464 C   0  0  0  0  0  0  0  0  0  0  0  0
   30.3917    3.3151   29.6635 H   0  0  0  0  0  0  0  0  0  0  0  0
   21.3516   12.2364   32.0571 Br  0  0  0  0  0  0  0  0  0  0  0  0
   22.5112   10.8936   31.3433 C   0  0  0  0  0  0  0  0  0  0  0  0
   22.4071   10.5089   30.0231 C   0  0  0  0  0  0  0  0  0  0  0  0
   23.2525    9.5385   29.5246 C   0  0  0  0  0  0  0  0  0  0  0  0
   24.2196    8.9147   30.2903 C   0  0  0  0  0  0  0  0  0  0  0  0
   24.3128    9.3118   31.6117 C   0  0  0  0  0  0  0  0  0  0  0  0
   23.4745   10.2815   32.1242 C   0  0  0  0  0  0  0  0  0  0  0  0
   23.8226    5.8855   30.4051 N   0  0  0  0  0  0  0  0  0  0  0  0
   22.5375    5.9509   30.0906 C   0  0  0  0  0  0  0  0  0  0  0  0
   21.7954    5.1451   30.9229 C   0  0  0  0  0  0  0  0  0  0  0  0
   22.7046    4.5722   31.7799 C   0  0  0  0  0  0  0  0  0  0  0  0
   23.9540    5.0429   31.4425 C   0  0  0  0  0  0  0  0  0  0  0  0
 16 17  1  0  0  0
 17 18  2  0  0  0
 17 22  1  0  0  0
 18 19  1  0  0  0
 19 20  2  0  0  0
 20 21  1  0  0  0
 20  1  1  0  0  0
 21 22  2  0  0  0
  1  2  1  0  0  0
  1  5  1  0  0  0
  2  3  2  0  0  0
  3  4  1  0  0  0
  4  5  2  0  0  0
  4  6  1  0  0  0
  5 23  1  0  0  0
 23 24  1  0  0  0
 23 27  1  0  0  0
 24 25  2  0  0  0
 25 26  1  0  0  0
 26 27  2  0  0  0
  6  7  2  0  0  0
  6  8  1  0  0  0
  8  9  1  0  0  0
  8 14  1  0  0  0
  9 10  1  0  0  0
 10 11  1  0  0  0
 11 12  1  0  0  0
 12 13  2  0  0  0
 12 14  1  0  0  0
 11 15  1  0  0  0
M  END
> <minimizedAffinity>
-7.04971

$$$$
395


 28 31  0  0  0  0  0  0  0  0999 V2000
   20.6073    9.9754   32.6523 N   0  0  0  0  0  0  0  0  0  0  0  0
   19.6632    9.5623   33.4802 N   0  0  0  0  0  0  0  0  0  0  0  0
   19.5498    8.2450   33.4652 N   0  0  0  0  0  0  0  0  0  0  0  0
   20.4576    7.7410   32.5868 C   0  0  0  0  0  0  0  0  0  0  0  0
   21.1058    8.8589   32.0929 C   0  0  0  0  0  0  0  0  0  0  0  0
   22.0703    8.6517   31.1890 N   0  0  0  0  0  0  0  0  0  0  0  0
   22.3843    7.4075   30.7885 C   0  0  0  0  0  0  0  0  0  0  0  0
   21.7550    6.3095   31.2663 N   0  0  0  0  0  0  0  0  0  0  0  0
   20.7832    6.4716   32.1722 C   0  0  0  0  0  0  0  0  0  0  0  0
   20.1990    5.4585   32.6158 O   0  0  0  0  0  0  0  0  0  0  0  0
   22.3575   15.7819   31.5498 Br  0  0  0  0  0  0  0  0  0  0  0  0
   21.8260   13.9726   31.8849 C   0  0  0  0  0  0  0  0  0  0  0  0
   20.6711   13.6843   32.5809 C   0  0  0  0  0  0  0  0  0  0  0  0
   20.2703   12.3806   32.8331 C   0  0  0  0  0  0  0  0  0  0  0  0
   21.0263   11.3166   32.3883 C   0  0  0  0  0  0  0  0  0  0  0  0
   22.1811   11.6131   31.6921 C   0  0  0  0  0  0  0  0  0  0  0  0
   22.5821   12.9086   31.4400 C   0  0  0  0  0  0  0  0  0  0  0  0
   22.1636    5.0079   30.7719 C   0  0  0  0  0  0  0  0  0  0  0  0
   23.3187    4.4825   31.5856 C   0  0  0  0  0  0  0  0  0  0  0  0
   23.1970    4.2952   32.8256 O   0  0  0  0  0  0  0  0  0  0  0  0
   24.5612    4.1895   30.9758 N   0  0  0  0  0  0  0  0  0  0  0  0
   25.6746    3.6869   31.7449 C   0  0  0  0  0  0  0  0  0  0  0  0
   26.9032    4.4621   31.3007 C   0  0  0  0  0  0  0  0  0  0  0  0
   27.1269    4.4086   29.9492 O   0  0  0  0  0  0  0  0  0  0  0  0
   26.1120    3.8444   29.2162 C   0  0  0  0  0  0  0  0  0  0  0  0
   24.7412    4.3923   29.5571 C   0  0  0  0  0  0  0  0  0  0  0  0
   26.3309    3.9196   27.7338 C   0  0  0  0  0  0  0  0  0  0  0  0
   28.0994    3.7883   31.9812 C   0  0  0  0  0  0  0  0  0  0  0  0
 11 12  1  0  0  0
 12 13  2  0  0  0
 12 17  1  0  0  0
 13 14  1  0  0  0
 14 15  2  0  0  0
 15 16  1  0  0  0
 15  1  1  0  0  0
 16 17  2  0  0  0
  1  2  1  0  0  0
  1  5  1  0  0  0
  2  3  2  0  0  0
  3  4  1  0  0  0
  4  5  2  0  0  0
  4  9  1  0  0  0
  5  6  1  0  0  0
  6  7  2  0  0  0
  7  8  1  0  0  0
  8  9  1  0  0  0
  8 18  1  0  0  0
  9 10  2  0  0  0
 18 19  1  0  0  0
 19 20  2  0  0  0
 19 21  1  0  0  0
 21 22  1  0  0  0
 21 26  1  0  0  0
 22 23  1  0  0  0
 23 24  1  0  0  0
 23 28  1  0  0  0
 24 25  1  0  0  0
 25 26  1  0  0  0
 25 27  1  0  0  0
M  END
> <minimizedAffinity>
-8.79607

$$$$
399


 28 31  0  0  0  0  0  0  0  0999 V2000
   25.9226   14.5667   27.3836 N   0  0  0  0  0  0  0  0  0  0  0  0
   25.7606   13.1829   27.6744 C   0  0  0  0  0  0  0  0  0  0  0  0
   26.5533   12.2806   27.3295 O   0  0  0  0  0  0  0  0  0  0  0  0
   24.5290   12.9391   28.4399 C   0  0  0  0  0  0  0  0  0  0  0  0
   23.6818   14.1524   28.0740 C   0  0  0  0  0  0  0  0  0  0  0  0
   24.7164   15.2091   27.8401 C   0  0  0  0  0  0  0  0  0  0  0  0
   24.4637   16.4117   28.0404 O   0  0  0  0  0  0  0  0  0  0  0  0
   30.6806   17.4580   24.7303 Br  0  0  0  0  0  0  0  0  0  0  0  0
   29.2072   16.5593   25.5601 C   0  0  0  0  0  0  0  0  0  0  0  0
   29.2768   16.1033   26.8479 C   0  0  0  0  0  0  0  0  0  0  0  0
   28.1971   15.4470   27.4479 C   0  0  0  0  0  0  0  0  0  0  0  0
   27.0291   15.2354   26.7742 C   0  0  0  0  0  0  0  0  0  0  0  0
   26.9549   15.6882   25.4885 C   0  0  0  0  0  0  0  0  0  0  0  0
   28.0323   16.3469   24.8763 C   0  0  0  0  0  0  0  0  0  0  0  0
   24.6996   12.8600   29.8730 N   0  0  0  0  0  0  0  0  0  0  0  0
   23.6359   13.5196   30.5917 C   0  0  0  0  0  0  0  0  0  0  0  0
   22.5479   12.5924   31.0857 C   0  0  0  0  0  0  0  0  0  0  0  0
   23.0979   11.3655   31.6032 N   0  0  0  0  0  0  0  0  0  0  0  0
   24.5326   11.3767   31.7670 C   0  0  0  0  0  0  0  0  0  0  0  0
   25.0699   11.5719   30.3366 C   0  0  0  0  0  0  0  0  0  0  0  0
   25.5525   13.4899   30.0570 H   0  0  0  0  0  0  0  0  0  0  0  0
   22.3334   10.2355   31.9113 C   0  0  0  0  0  0  0  0  0  0  0  0
   22.6487    8.9370   31.5653 C   0  0  0  0  0  0  0  0  0  0  0  0
   21.8418    7.8542   31.8753 C   0  0  0  0  0  0  0  0  0  0  0  0
   20.6689    8.0448   32.5553 C   0  0  0  0  0  0  0  0  0  0  0  0
   20.3040    9.3235   32.9255 C   0  0  0  0  0  0  0  0  0  0  0  0
   21.1268   10.3884   32.6048 C   0  0  0  0  0  0  0  0  0  0  0  0
   19.8114    6.9989   32.8985 O   0  0  0  0  0  0  0  0  0  0  0  0
  8  9  1  0  0  0
  9 10  2  0  0  0
  9 14  1  0  0  0
 10 11  1  0  0  0
 11 12  2  0  0  0
 12 13  1  0  0  0
 12  1  1  0  0  0
 13 14  2  0  0  0
  1  2  1  0  0  0
  1  6  1  0  0  0
  2  3  2  0  0  0
  2  4  1  0  0  0
  4  5  1  0  0  0
  4 15  1  0  0  0
  5  6  1  0  0  0
  6  7  2  0  0  0
 15 16  1  0  0  0
 15 20  1  0  0  0
 16 17  1  0  0  0
 17 18  1  0  0  0
 18 19  1  0  0  0
 18 22  1  0  0  0
 19 20  1  0  0  0
 22 23  2  0  0  0
 22 27  1  0  0  0
 23 24  1  0  0  0
 24 25  2  0  0  0
 25 26  1  0  0  0
 25 28  1  0  0  0
 26 27  2  0  0  0
 15 21  1  0  0  0
M  CHG 1  15   1
M  CHG 1  28  -1
M  END
> <minimizedAffinity>
-8.24146

$$$$
400


 31 34  0  0  0  0  0  0  0  0999 V2000
   24.6346   10.1056   29.5912 N   0  0  0  0  0  0  0  0  0  0  0  0
   23.2399    9.9512   29.4856 C   0  0  0  0  0  0  0  0  0  0  0  0
   22.9069    8.4546   29.5512 C   0  0  0  0  0  0  0  0  0  0  0  0
   23.2087    7.8870   30.9203 C   0  0  0  0  0  0  0  0  0  0  0  0
   24.4792    8.4471   31.4192 C   0  0  0  0  0  0  0  0  0  0  0  0
   25.2890    9.0849   30.3185 C   0  0  0  0  0  0  0  0  0  0  0  0
   23.7076   13.2175   29.9287 N   0  0  0  0  0  0  0  0  0  0  0  0
   24.4107   12.2051   30.6569 C   0  0  0  0  0  0  0  0  0  0  0  0
   24.4007   12.0050   31.8957 O   0  0  0  0  0  0  0  0  0  0  0  0
   25.1821   11.3984   29.6761 C   0  0  0  0  0  0  0  0  0  0  0  0
   25.1639   12.1664   28.3734 C   0  0  0  0  0  0  0  0  0  0  0  0
   24.4757   13.4297   28.7509 C   0  0  0  0  0  0  0  0  0  0  0  0
   24.5485   14.5463   28.1264 O   0  0  0  0  0  0  0  0  0  0  0  0
   18.4477   15.9621   31.6143 Br  0  0  0  0  0  0  0  0  0  0  0  0
   20.0765   15.1078   31.0909 C   0  0  0  0  0  0  0  0  0  0  0  0
   20.1409   13.7616   30.8155 C   0  0  0  0  0  0  0  0  0  0  0  0
   21.3377   13.1433   30.4331 C   0  0  0  0  0  0  0  0  0  0  0  0
   22.4949   13.8667   30.3194 C   0  0  0  0  0  0  0  0  0  0  0  0
   22.4195   15.2131   30.5983 C   0  0  0  0  0  0  0  0  0  0  0  0
   21.2407   15.8359   30.9769 C   0  0  0  0  0  0  0  0  0  0  0  0
   22.0763    8.0600   31.7325 N   0  0  0  0  0  0  0  0  0  0  0  0
   21.3912    6.9248   32.1895 C   0  0  0  0  0  0  0  0  0  0  0  0
   19.9235    7.0880   31.7572 C   0  0  0  0  0  0  0  0  0  0  0  0
   19.4000    8.2836   32.5269 C   0  0  0  0  0  0  0  0  0  0  0  0
   20.4788    9.1373   33.1055 C   0  0  0  0  0  0  0  0  0  0  0  0
   21.6744    9.3120   32.1571 C   0  0  0  0  0  0  0  0  0  0  0  0
   23.3964    6.4081   30.7057 C   0  0  0  0  0  0  0  0  0  0  0  0
   22.6871    5.8000   29.8486 O   0  0  0  0  0  0  0  0  0  0  0  0
   24.3437    5.6415   31.4250 N   0  0  0  0  0  0  0  0  0  0  0  0
   24.0239    4.8793   32.0347 H   0  0  0  0  0  0  0  0  0  0  0  0
   25.3600    5.8365   31.3447 H   0  0  0  0  0  0  0  0  0  0  0  0
 14 15  1  0  0  0
 15 16  2  0  0  0
 15 20  1  0  0  0
 16 17  1  0  0  0
 17 18  2  0  0  0
 18 19  1  0  0  0
 18  7  1  0  0  0
 19 20  2  0  0  0
  7  8  1  0  0  0
  7 12  1  0  0  0
  8  9  2  0  0  0
  8 10  1  0  0  0
 10 11  1  0  0  0
 10  1  1  0  0  0
 11 12  1  0  0  0
 12 13  2  0  0  0
  1  2  1  0  0  0
  1  6  1  0  0  0
  2  3  1  0  0  0
  3  4  1  0  0  0
  4  5  1  0  0  0
  4 21  1  0  0  0
  4 27  1  0  0  0
  5  6  1  0  0  0
 21 22  1  0  0  0
 21 26  1  0  0  0
 22 23  1  0  0  0
 23 24  1  0  0  0
 24 25  1  0  0  0
 25 26  1  0  0  0
 27 28  2  0  0  0
 27 29  1  0  0  0
 29 30  1  0  0  0
 29 31  1  0  0  0
M  END
> <minimizedAffinity>
-8.33175

$$$$
408


 31 34  0  0  0  0  0  0  0  0999 V2000
   26.0491   14.4067   27.2909 N   0  0  0  0  0  0  0  0  0  0  0  0
   26.0498   13.1534   27.7755 C   0  0  0  0  0  0  0  0  0  0  0  0
   26.9995   12.3301   27.5980 O   0  0  0  0  0  0  0  0  0  0  0  0
   24.8792   12.8917   28.4878 C   0  0  0  0  0  0  0  0  0  0  0  0
   24.1690   14.0142   28.4252 C   0  0  0  0  0  0  0  0  0  0  0  0
   23.0480   13.7398   29.1164 N   0  0  0  0  0  0  0  0  0  0  0  0
   23.0838   12.5004   29.5774 N   0  0  0  0  0  0  0  0  0  0  0  0
   24.2171   11.9655   29.1926 N   0  0  0  0  0  0  0  0  0  0  0  0
   24.8769   14.9470   27.6942 C   0  0  0  0  0  0  0  0  0  0  0  0
   24.5282   16.1172   27.4236 O   0  0  0  0  0  0  0  0  0  0  0  0
   22.2896   14.4588   29.2345 H   0  0  0  0  0  0  0  0  0  0  0  0
   22.3116   12.0793   30.1434 H   0  0  0  0  0  0  0  0  0  0  0  0
   30.4894   17.1517   24.0125 Br  0  0  0  0  0  0  0  0  0  0  0  0
   29.1015   16.2948   25.0252 C   0  0  0  0  0  0  0  0  0  0  0  0
   29.1555   16.2398   26.4014 C   0  0  0  0  0  0  0  0  0  0  0  0
   28.1578   15.6234   27.1325 C   0  0  0  0  0  0  0  0  0  0  0  0
   27.0659   15.0364   26.5160 C   0  0  0  0  0  0  0  0  0  0  0  0
   27.0315   15.1025   25.1377 C   0  0  0  0  0  0  0  0  0  0  0  0
   28.0200   15.7144   24.4016 C   0  0  0  0  0  0  0  0  0  0  0  0
   24.6894   10.6312   29.4622 C   0  0  0  0  0  0  0  0  0  0  0  0
   23.5615    9.6907   29.7726 C   0  0  0  0  0  0  0  0  0  0  0  0
   22.7376    9.5435   28.8386 O   0  0  0  0  0  0  0  0  0  0  0  0
   23.4439    9.0365   31.0015 N   0  0  0  0  0  0  0  0  0  0  0  0
   24.2274    9.2644   31.7015 H   0  0  0  0  0  0  0  0  0  0  0  0
   22.4391    8.1448   31.3950 C   0  0  0  0  0  0  0  0  0  0  0  0
   21.3520    8.6769   32.1075 C   0  0  0  0  0  0  0  0  0  0  0  0
   20.3442    7.8390   32.5127 C   0  0  0  0  0  0  0  0  0  0  0  0
   20.3451    6.4851   32.2513 C   0  0  0  0  0  0  0  0  0  0  0  0
   21.3974    5.9612   31.5607 C   0  0  0  0  0  0  0  0  0  0  0  0
   22.4168    6.7939   31.1487 C   0  0  0  0  0  0  0  0  0  0  0  0
   21.2725   10.1152   32.4283 C   0  0  0  0  0  0  0  0  0  0  0  0
 13 14  1  0  0  0
 14 15  2  0  0  0
 14 19  1  0  0  0
 15 16  1  0  0  0
 16 17  2  0  0  0
 17 18  1  0  0  0
 17  1  1  0  0  0
 18 19  2  0  0  0
  1  2  1  0  0  0
  1  9  1  0  0  0
  2  3  2  0  0  0
  2  4  1  0  0  0
  4  5  2  0  0  0
  4  8  1  0  0  0
  5  6  1  0  0  0
  5  9  1  0  0  0
  6  7  1  0  0  0
  7  8  1  0  0  0
  8 20  1  0  0  0
 20 21  1  0  0  0
 21 22  2  0  0  0
 21 23  1  0  0  0
 23 25  1  0  0  0
 25 26  2  0  0  0
 25 30  1  0  0  0
 26 27  1  0  0  0
 26 31  1  0  0  0
 27 28  2  0  0  0
 28 29  1  0  0  0
 29 30  2  0  0  0
  9 10  2  0  0  0
  6 11  1  0  0  0
  7 12  1  0  0  0
 23 24  1  0  0  0
M  END
> <minimizedAffinity>
-8.89347

$$$$
411


 34 37  0  0  0  0  0  0  0  0999 V2000
   24.1469    7.7828   30.3197 N   0  0  0  0  0  0  0  0  0  0  0  0
   23.2732    8.0355   31.3078 C   0  0  0  0  0  0  0  0  0  0  0  0
   23.3413    9.0689   32.0214 O   0  0  0  0  0  0  0  0  0  0  0  0
   22.3297    7.0271   31.4116 C   0  0  0  0  0  0  0  0  0  0  0  0
   22.6367    6.1459   30.4684 C   0  0  0  0  0  0  0  0  0  0  0  0
   21.7225    5.1688   30.5697 N   0  0  0  0  0  0  0  0  0  0  0  0
   20.8800    5.4463   31.5486 N   0  0  0  0  0  0  0  0  0  0  0  0
   21.2360    6.5858   32.0788 N   0  0  0  0  0  0  0  0  0  0  0  0
   23.7506    6.6019   29.7950 C   0  0  0  0  0  0  0  0  0  0  0  0
   24.3218    6.0040   28.8235 O   0  0  0  0  0  0  0  0  0  0  0  0
   21.6554    4.3109   29.9869 H   0  0  0  0  0  0  0  0  0  0  0  0
   20.0501    4.8638   31.8689 H   0  0  0  0  0  0  0  0  0  0  0  0
   28.9113   11.1816   28.3951 Br  0  0  0  0  0  0  0  0  0  0  0  0
   27.4385   10.1121   28.9906 C   0  0  0  0  0  0  0  0  0  0  0  0
   27.5098    8.7330   28.9975 C   0  0  0  0  0  0  0  0  0  0  0  0
   26.4366    7.9606   29.4319 C   0  0  0  0  0  0  0  0  0  0  0  0
   25.2637    8.5404   29.8688 C   0  0  0  0  0  0  0  0  0  0  0  0
   25.1982    9.9164   29.8593 C   0  0  0  0  0  0  0  0  0  0  0  0
   26.2614   10.6840   29.4301 C   0  0  0  0  0  0  0  0  0  0  0  0
   20.6085    7.2821   33.1765 C   0  0  0  0  0  0  0  0  0  0  0  0
   20.1780    8.6536   32.7111 C   0  0  0  0  0  0  0  0  0  0  0  0
   19.1970    8.7566   31.9416 O   0  0  0  0  0  0  0  0  0  0  0  0
   20.8741    9.7930   33.1404 N   0  0  0  0  0  0  0  0  0  0  0  0
   21.7033    9.6290   33.7991 H   0  0  0  0  0  0  0  0  0  0  0  0
   20.5755   11.1244   32.7888 C   0  0  0  0  0  0  0  0  0  0  0  0
   21.3510   11.9451   32.0094 C   0  0  0  0  0  0  0  0  0  0  0  0
   21.0100   13.2490   31.7154 C   0  0  0  0  0  0  0  0  0  0  0  0
   19.8311   13.7431   32.2329 C   0  0  0  0  0  0  0  0  0  0  0  0
   19.0188   12.9467   33.0239 C   0  0  0  0  0  0  0  0  0  0  0  0
   19.3778   11.6565   33.3037 C   0  0  0  0  0  0  0  0  0  0  0  0
   19.4678   15.0565   31.9478 O   0  0  0  0  0  0  0  0  0  0  0  0
   18.5032   15.3028   30.9440 C   0  0  0  0  0  0  0  0  0  0  0  0
   21.8180   14.0588   30.9205 O   0  0  0  0  0  0  0  0  0  0  0  0
   23.2034   13.7076   30.8099 C   0  0  0  0  0  0  0  0  0  0  0  0
 13 14  1  0  0  0
 14 15  2  0  0  0
 14 19  1  0  0  0
 15 16  1  0  0  0
 16 17  2  0  0  0
 17 18  1  0  0  0
 17  1  1  0  0  0
 18 19  2  0  0  0
  1  2  1  0  0  0
  1  9  1  0  0  0
  2  3  2  0  0  0
  2  4  1  0  0  0
  4  5  2  0  0  0
  4  8  1  0  0  0
  5  6  1  0  0  0
  5  9  1  0  0  0
  6  7  1  0  0  0
  7  8  1  0  0  0
  8 20  1  0  0  0
 20 21  1  0  0  0
 21 22  2  0  0  0
 21 23  1  0  0  0
 23 25  1  0  0  0
 25 26  2  0  0  0
 25 30  1  0  0  0
 26 27  1  0  0  0
 27 28  2  0  0  0
 27 33  1  0  0  0
 28 29  1  0  0  0
 28 31  1  0  0  0
 29 30  2  0  0  0
 31 32  1  0  0  0
 33 34  1  0  0  0
  9 10  2  0  0  0
  6 11  1  0  0  0
  7 12  1  0  0  0
 23 24  1  0  0  0
M  END
> <minimizedAffinity>
-8.77627

$$$$
412


 34 37  0  0  0  0  0  0  0  0999 V2000
   26.0661   14.4832   27.2492 N   0  0  0  0  0  0  0  0  0  0  0  0
   25.9535   13.2534   27.7573 C   0  0  0  0  0  0  0  0  0  0  0  0
   26.8377   12.3424   27.6262 O   0  0  0  0  0  0  0  0  0  0  0  0
   24.7789   13.0495   28.4434 C   0  0  0  0  0  0  0  0  0  0  0  0
   24.1361   14.2294   28.3486 C   0  0  0  0  0  0  0  0  0  0  0  0
   22.9717   14.0560   29.0195 N   0  0  0  0  0  0  0  0  0  0  0  0
   22.9053   12.8286   29.5037 N   0  0  0  0  0  0  0  0  0  0  0  0
   24.0125   12.2068   29.1533 N   0  0  0  0  0  0  0  0  0  0  0  0
   24.9076   15.1087   27.6251 C   0  0  0  0  0  0  0  0  0  0  0  0
   24.6569   16.2998   27.3209 O   0  0  0  0  0  0  0  0  0  0  0  0
   22.2456   14.8031   29.1214 H   0  0  0  0  0  0  0  0  0  0  0  0
   22.0821   12.4737   30.0604 H   0  0  0  0  0  0  0  0  0  0  0  0
   30.6275   16.9967   23.9436 Br  0  0  0  0  0  0  0  0  0  0  0  0
   29.2035   16.2152   24.9825 C   0  0  0  0  0  0  0  0  0  0  0  0
   29.2726   16.1595   26.3538 C   0  0  0  0  0  0  0  0  0  0  0  0
   28.2359   15.5875   27.1078 C   0  0  0  0  0  0  0  0  0  0  0  0
   27.1254   15.0695   26.4876 C   0  0  0  0  0  0  0  0  0  0  0  0
   27.0790   15.1383   25.1116 C   0  0  0  0  0  0  0  0  0  0  0  0
   28.0898   15.6954   24.3641 C   0  0  0  0  0  0  0  0  0  0  0  0
   24.3279   10.8487   29.4900 C   0  0  0  0  0  0  0  0  0  0  0  0
   23.1806   10.0747   29.9577 C   0  0  0  0  0  0  0  0  0  0  0  0
   22.2129    9.7679   29.2022 O   0  0  0  0  0  0  0  0  0  0  0  0
   23.1596    9.6642   31.3095 N   0  0  0  0  0  0  0  0  0  0  0  0
   23.9615    9.9169   31.9656 H   0  0  0  0  0  0  0  0  0  0  0  0
   22.0538    8.9121   31.7810 C   0  0  0  0  0  0  0  0  0  0  0  0
   22.0726    7.5643   31.5200 C   0  0  0  0  0  0  0  0  0  0  0  0
   21.0035    6.7564   31.9257 C   0  0  0  0  0  0  0  0  0  0  0  0
   19.9383    7.3143   32.5817 C   0  0  0  0  0  0  0  0  0  0  0  0
   19.9044    8.6804   32.8528 C   0  0  0  0  0  0  0  0  0  0  0  0
   20.9793    9.4521   32.4395 C   0  0  0  0  0  0  0  0  0  0  0  0
   18.7979    9.1720   33.5127 O   0  0  0  0  0  0  0  0  0  0  0  0
   17.5737    8.5316   33.6952 C   0  0  0  0  0  0  0  0  0  0  0  0
   21.1298    5.4234   31.6159 O   0  0  0  0  0  0  0  0  0  0  0  0
   22.2784    4.8390   31.1210 C   0  0  0  0  0  0  0  0  0  0  0  0
 13 14  1  0  0  0
 14 15  2  0  0  0
 14 19  1  0  0  0
 15 16  1  0  0  0
 16 17  2  0  0  0
 17 18  1  0  0  0
 17  1  1  0  0  0
 18 19  2  0  0  0
  1  2  1  0  0  0
  1  9  1  0  0  0
  2  3  2  0  0  0
  2  4  1  0  0  0
  4  5  2  0  0  0
  4  8  1  0  0  0
  5  6  1  0  0  0
  5  9  1  0  0  0
  6  7  1  0  0  0
  7  8  1  0  0  0
  8 20  1  0  0  0
 20 21  1  0  0  0
 21 22  2  0  0  0
 21 23  1  0  0  0
 23 25  1  0  0  0
 25 26  2  0  0  0
 25 30  1  0  0  0
 26 27  1  0  0  0
 27 28  2  0  0  0
 27 33  1  0  0  0
 28 29  1  0  0  0
 29 30  2  0  0  0
 29 31  1  0  0  0
 31 32  1  0  0  0
 33 34  1  0  0  0
  9 10  2  0  0  0
  6 11  1  0  0  0
  7 12  1  0  0  0
 23 24  1  0  0  0
M  END
> <minimizedAffinity>
-8.76416

$$$$
414


 35 38  0  0  0  0  0  0  0  0999 V2000
   21.0698    9.8770   32.2936 N   0  0  0  0  0  0  0  0  0  0  0  0
   21.6850    8.9353   31.5342 C   0  0  0  0  0  0  0  0  0  0  0  0
   22.5557    9.1501   30.6344 O   0  0  0  0  0  0  0  0  0  0  0  0
   21.2197    7.6799   31.8856 C   0  0  0  0  0  0  0  0  0  0  0  0
   20.3301    7.8863   32.8536 C   0  0  0  0  0  0  0  0  0  0  0  0
   19.8578    6.6695   33.2164 N   0  0  0  0  0  0  0  0  0  0  0  0
   20.4727    5.7632   32.4623 N   0  0  0  0  0  0  0  0  0  0  0  0
   21.3158    6.3470   31.6326 N   0  0  0  0  0  0  0  0  0  0  0  0
   20.2279    9.2323   33.1136 C   0  0  0  0  0  0  0  0  0  0  0  0
   19.4899    9.7843   33.9593 O   0  0  0  0  0  0  0  0  0  0  0  0
   19.1453    6.4922   33.9530 H   0  0  0  0  0  0  0  0  0  0  0  0
   20.3068    4.7434   32.5229 H   0  0  0  0  0  0  0  0  0  0  0  0
   22.0870   15.9053   31.8524 Br  0  0  0  0  0  0  0  0  0  0  0  0
   21.7509   14.0395   32.0009 C   0  0  0  0  0  0  0  0  0  0  0  0
   20.6432   13.5210   32.6379 C   0  0  0  0  0  0  0  0  0  0  0  0
   20.4312   12.1808   32.7283 C   0  0  0  0  0  0  0  0  0  0  0  0
   21.3256   11.2748   32.1795 C   0  0  0  0  0  0  0  0  0  0  0  0
   22.4316   11.7769   31.5429 C   0  0  0  0  0  0  0  0  0  0  0  0
   22.6314   13.1285   31.4607 C   0  0  0  0  0  0  0  0  0  0  0  0
   22.1938    5.7478   30.6345 C   0  0  0  0  0  0  0  0  0  0  0  0
   23.3238    5.0353   31.3368 C   0  0  0  0  0  0  0  0  0  0  0  0
   24.3800    5.7146   31.3615 O   0  0  0  0  0  0  0  0  0  0  0  0
   23.1205    3.7630   31.8678 N   0  0  0  0  0  0  0  0  0  0  0  0
   22.1386    3.3604   31.7373 H   0  0  0  0  0  0  0  0  0  0  0  0
   24.0647    2.9583   32.5527 C   0  0  0  0  0  0  0  0  0  0  0  0
   25.3511    2.7159   32.1335 C   0  0  0  0  0  0  0  0  0  0  0  0
   26.2269    1.9054   32.8693 C   0  0  0  0  0  0  0  0  0  0  0  0
   25.8359    1.3157   34.0475 C   0  0  0  0  0  0  0  0  0  0  0  0
   24.5524    1.5518   34.4761 C   0  0  0  0  0  0  0  0  0  0  0  0
   23.6909    2.3506   33.7492 C   0  0  0  0  0  0  0  0  0  0  0  0
   26.7815    0.4800   34.7799 C   0  0  0  0  0  0  0  0  0  0  0  0
   26.6891   -0.7670   34.6559 O   0  0  0  0  0  0  0  0  0  0  0  0
   27.7661    0.9611   35.5967 O   0  0  0  0  0  0  0  0  0  0  0  0
   27.6023    1.8766   36.6413 C   0  0  0  0  0  0  0  0  0  0  0  0
   26.8715    1.1290   37.7655 C   0  0  0  0  0  0  0  0  0  0  0  0
 13 14  1  0  0  0
 14 15  2  0  0  0
 14 19  1  0  0  0
 15 16  1  0  0  0
 16 17  2  0  0  0
 17 18  1  0  0  0
 17  1  1  0  0  0
 18 19  2  0  0  0
  1  2  1  0  0  0
  1  9  1  0  0  0
  2  3  2  0  0  0
  2  4  1  0  0  0
  4  5  2  0  0  0
  4  8  1  0  0  0
  5  6  1  0  0  0
  5  9  1  0  0  0
  6  7  1  0  0  0
  7  8  1  0  0  0
  8 20  1  0  0  0
 20 21  1  0  0  0
 21 22  2  0  0  0
 21 23  1  0  0  0
 23 25  1  0  0  0
 25 26  2  0  0  0
 25 30  1  0  0  0
 26 27  1  0  0  0
 27 28  2  0  0  0
 28 29  1  0  0  0
 28 31  1  0  0  0
 29 30  2  0  0  0
 31 32  2  0  0  0
 31 33  1  0  0  0
 33 34  1  0  0  0
 34 35  1  0  0  0
  9 10  2  0  0  0
  6 11  1  0  0  0
  7 12  1  0  0  0
 23 24  1  0  0  0
M  END
> <minimizedAffinity>
-9.14367

$$$$
416


 33 36  0  0  0  0  0  0  0  0999 V2000
   21.1521    9.9407   32.2155 N   0  0  0  0  0  0  0  0  0  0  0  0
   21.7290    8.9207   31.5205 C   0  0  0  0  0  0  0  0  0  0  0  0
   22.6122    9.0864   30.6455 O   0  0  0  0  0  0  0  0  0  0  0  0
   21.2111    7.7046   31.9104 C   0  0  0  0  0  0  0  0  0  0  0  0
   20.3139    7.9767   32.8467 C   0  0  0  0  0  0  0  0  0  0  0  0
   19.7887    6.8045   33.2470 N   0  0  0  0  0  0  0  0  0  0  0  0
   20.3695    5.8365   32.5528 N   0  0  0  0  0  0  0  0  0  0  0  0
   21.2513    6.3560   31.7196 N   0  0  0  0  0  0  0  0  0  0  0  0
   20.2772    9.3398   33.0345 C   0  0  0  0  0  0  0  0  0  0  0  0
   19.5386    9.9741   33.8520 O   0  0  0  0  0  0  0  0  0  0  0  0
   19.0629    6.6467   33.9672 H   0  0  0  0  0  0  0  0  0  0  0  0
   20.1515    4.8032   32.6602 H   0  0  0  0  0  0  0  0  0  0  0  0
   22.1411   16.0148   31.7961 Br  0  0  0  0  0  0  0  0  0  0  0  0
   21.8581   14.1309   31.9089 C   0  0  0  0  0  0  0  0  0  0  0  0
   22.7790   13.2201   31.4353 C   0  0  0  0  0  0  0  0  0  0  0  0
   22.5590   11.8541   31.5280 C   0  0  0  0  0  0  0  0  0  0  0  0
   21.4136   11.3361   32.0964 C   0  0  0  0  0  0  0  0  0  0  0  0
   20.4873   12.2468   32.5718 C   0  0  0  0  0  0  0  0  0  0  0  0
   20.7051   13.6061   32.4794 C   0  0  0  0  0  0  0  0  0  0  0  0
   22.0907    5.6738   30.7786 C   0  0  0  0  0  0  0  0  0  0  0  0
   23.2556    4.9587   31.4217 C   0  0  0  0  0  0  0  0  0  0  0  0
   24.3415    5.5779   31.4128 O   0  0  0  0  0  0  0  0  0  0  0  0
   23.1205    3.6935   31.9897 N   0  0  0  0  0  0  0  0  0  0  0  0
   22.1316    3.2647   31.9253 H   0  0  0  0  0  0  0  0  0  0  0  0
   24.0716    2.8835   32.6332 C   0  0  0  0  0  0  0  0  0  0  0  0
   23.7523    2.2511   33.8349 C   0  0  0  0  0  0  0  0  0  0  0  0
   24.6537    1.4680   34.5045 C   0  0  0  0  0  0  0  0  0  0  0  0
   25.9390    1.2797   33.9941 C   0  0  0  0  0  0  0  0  0  0  0  0
   26.2220    1.9145   32.8092 C   0  0  0  0  0  0  0  0  0  0  0  0
   25.3200    2.7008   32.1313 C   0  0  0  0  0  0  0  0  0  0  0  0
   26.8141    0.4884   34.7014 O   0  0  0  0  0  0  0  0  0  0  0  0
   27.1950    0.6467   36.0295 C   0  0  0  0  0  0  0  0  0  0  0  0
   27.9356    1.9087   36.3124 C   0  0  0  0  0  0  0  0  0  0  0  0
 13 14  1  0  0  0
 14 15  2  0  0  0
 14 19  1  0  0  0
 15 16  1  0  0  0
 16 17  2  0  0  0
 17 18  1  0  0  0
 17  1  1  0  0  0
 18 19  2  0  0  0
  1  2  1  0  0  0
  1  9  1  0  0  0
  2  3  2  0  0  0
  2  4  1  0  0  0
  4  5  2  0  0  0
  4  8  1  0  0  0
  5  6  1  0  0  0
  5  9  1  0  0  0
  6  7  1  0  0  0
  7  8  1  0  0  0
  8 20  1  0  0  0
 20 21  1  0  0  0
 21 22  2  0  0  0
 21 23  1  0  0  0
 23 25  1  0  0  0
 25 26  2  0  0  0
 25 30  1  0  0  0
 26 27  1  0  0  0
 27 28  2  0  0  0
 28 29  1  0  0  0
 28 31  1  0  0  0
 29 30  2  0  0  0
 31 32  1  0  0  0
 32 33  1  0  0  0
  9 10  2  0  0  0
  6 11  1  0  0  0
  7 12  1  0  0  0
 23 24  1  0  0  0
M  END
> <minimizedAffinity>
-9.12262

$$$$
421


 28 31  0  0  0  0  0  0  0  0999 V2000
   21.8814    8.7138   31.9015 N   0  0  0  0  0  0  0  0  0  0  0  0
   21.9477   10.0440   31.6728 C   0  0  0  0  0  0  0  0  0  0  0  0
   22.7536   10.6593   30.9037 O   0  0  0  0  0  0  0  0  0  0  0  0
   20.9890   10.7174   32.4073 C   0  0  0  0  0  0  0  0  0  0  0  0
   20.3407    9.7672   33.0847 C   0  0  0  0  0  0  0  0  0  0  0  0
   19.3998   10.4242   33.8051 N   0  0  0  0  0  0  0  0  0  0  0  0
   19.5022   11.7179   33.5503 N   0  0  0  0  0  0  0  0  0  0  0  0
   20.4803   11.9307   32.6858 N   0  0  0  0  0  0  0  0  0  0  0  0
   20.8811    8.5359   32.7812 C   0  0  0  0  0  0  0  0  0  0  0  0
   20.5393    7.4091   33.2189 O   0  0  0  0  0  0  0  0  0  0  0  0
   18.7139    9.9561   34.4531 H   0  0  0  0  0  0  0  0  0  0  0  0
   18.9176   12.4969   33.9509 H   0  0  0  0  0  0  0  0  0  0  0  0
   25.6039    4.4940   29.3858 Br  0  0  0  0  0  0  0  0  0  0  0  0
   24.4282    5.7900   30.1629 C   0  0  0  0  0  0  0  0  0  0  0  0
   23.0676    5.5764   30.2449 C   0  0  0  0  0  0  0  0  0  0  0  0
   22.2247    6.5283   30.8122 C   0  0  0  0  0  0  0  0  0  0  0  0
   22.7221    7.7140   31.3109 C   0  0  0  0  0  0  0  0  0  0  0  0
   24.0843    7.9139   31.2220 C   0  0  0  0  0  0  0  0  0  0  0  0
   24.9289    6.9753   30.6599 C   0  0  0  0  0  0  0  0  0  0  0  0
   20.9021   13.1955   32.1609 C   0  0  0  0  0  0  0  0  0  0  0  0
   22.2408   13.5150   32.0628 C   0  0  0  0  0  0  0  0  0  0  0  0
   22.6803   14.7321   31.5577 C   0  0  0  0  0  0  0  0  0  0  0  0
   21.7667   15.6728   31.1322 C   0  0  0  0  0  0  0  0  0  0  0  0
   20.4286   15.3564   31.2291 C   0  0  0  0  0  0  0  0  0  0  0  0
   19.9934   14.1407   31.7331 C   0  0  0  0  0  0  0  0  0  0  0  0
   22.1866   16.9303   30.6097 N   0  0  0  0  0  0  0  0  0  0  0  0
   22.6129   17.0563   29.4464 O   0  0  0  0  0  0  0  0  0  0  0  0
   22.1234   18.0329   31.4012 O   0  0  0  0  0  0  0  0  0  0  0  0
 13 14  1  0  0  0
 14 15  2  0  0  0
 14 19  1  0  0  0
 15 16  1  0  0  0
 16 17  2  0  0  0
 17 18  1  0  0  0
 17  1  1  0  0  0
 18 19  2  0  0  0
  1  2  1  0  0  0
  1  9  1  0  0  0
  2  3  2  0  0  0
  2  4  1  0  0  0
  4  5  2  0  0  0
  4  8  1  0  0  0
  5  6  1  0  0  0
  5  9  1  0  0  0
  6  7  1  0  0  0
  7  8  1  0  0  0
  8 20  1  0  0  0
 20 21  2  0  0  0
 20 25  1  0  0  0
 21 22  1  0  0  0
 22 23  2  0  0  0
 23 24  1  0  0  0
 23 26  1  0  0  0
 24 25  2  0  0  0
 26 27  2  0  0  0
 26 28  1  0  0  0
  9 10  2  0  0  0
  6 11  1  0  0  0
  7 12  1  0  0  0
M  CHG 1  28  -1
M  END
> <minimizedAffinity>
-9.40042

$$$$
425


 24 28  0  0  0  0  0  0  0  0999 V2000
   25.4663   10.2457   30.1998 N   0  0  0  0  0  0  0  0  0  0  0  0
   25.4815    8.8312   30.0877 C   0  0  0  0  0  0  0  0  0  0  0  0
   26.2019    8.1963   29.2804 O   0  0  0  0  0  0  0  0  0  0  0  0
   24.5220    8.2552   31.0677 C   0  0  0  0  0  0  0  0  0  0  0  0
   23.1773    7.9999   30.4601 C   0  0  0  0  0  0  0  0  0  0  0  0
   22.3458    8.2115   31.5824 O   0  0  0  0  0  0  0  0  0  0  0  0
   22.7231    9.5568   31.8225 C   0  0  0  0  0  0  0  0  0  0  0  0
   24.1938    9.4121   32.0126 C   0  0  0  0  0  0  0  0  0  0  0  0
   24.9049   10.5980   31.4639 C   0  0  0  0  0  0  0  0  0  0  0  0
   24.9835   11.6936   32.0259 O   0  0  0  0  0  0  0  0  0  0  0  0
   22.4761   10.1220   30.4704 C   0  0  0  0  0  0  0  0  0  0  0  0
   22.8252    9.1581   29.6236 C   0  0  0  0  0  0  0  0  0  0  0  0
   27.5001   13.9532   25.8135 Br  0  0  0  0  0  0  0  0  0  0  0  0
   26.8758   12.7940   27.1790 C   0  0  0  0  0  0  0  0  0  0  0  0
   27.7445   11.9015   27.7589 C   0  0  0  0  0  0  0  0  0  0  0  0
   27.2643   11.0727   28.7488 C   0  0  0  0  0  0  0  0  0  0  0  0
   25.9526   11.1122   29.1670 C   0  0  0  0  0  0  0  0  0  0  0  0
   25.0738   12.0140   28.5825 C   0  0  0  0  0  0  0  0  0  0  0  0
   25.5646   12.8532   27.5801 C   0  0  0  0  0  0  0  0  0  0  0  0
   22.9951    6.6751   29.8543 C   0  0  0  0  0  0  0  0  0  0  0  0
   21.8599    6.0281   30.2596 O   0  0  0  0  0  0  0  0  0  0  0  0
   22.2167    4.9595   31.0435 C   0  0  0  0  0  0  0  0  0  0  0  0
   23.7087    4.9612   31.1066 C   0  0  0  0  0  0  0  0  0  0  0  0
   24.0741    5.8444   30.0969 O   0  0  0  0  0  0  0  0  0  0  0  0
 13 14  1  0  0  0
 14 15  2  0  0  0
 14 19  1  0  0  0
 15 16  1  0  0  0
 16 17  2  0  0  0
 17 18  1  0  0  0
 17  1  1  0  0  0
 18 19  2  0  0  0
  1  2  1  0  0  0
  1  9  1  0  0  0
  2  3  2  0  0  0
  2  4  1  0  0  0
  4  5  1  0  0  0
  4  8  1  0  0  0
  5  6  1  0  0  0
  5 12  1  0  0  0
  5 20  1  0  0  0
  6  7  1  0  0  0
  7  8  1  0  0  0
  7 11  1  0  0  0
  8  9  1  0  0  0
  9 10  2  0  0  0
 11 12  2  0  0  0
 20 21  1  0  0  0
 20 24  1  0  0  0
 21 22  1  0  0  0
 22 23  1  0  0  0
 23 24  1  0  0  0
M  END
> <minimizedAffinity>
-7.64825

$$$$
426


 29 32  0  0  0  0  0  0  0  0999 V2000
   20.9619    9.6663   32.3205 N   0  0  0  0  0  0  0  0  0  0  0  0
   19.9068    8.8009   32.7826 C   0  0  0  0  0  0  0  0  0  0  0  0
   18.6809    9.0967   32.8643 O   0  0  0  0  0  0  0  0  0  0  0  0
   20.5370    7.5090   33.1386 C   0  0  0  0  0  0  0  0  0  0  0  0
   19.7089    6.3471   32.8821 N   0  0  0  0  0  0  0  0  0  0  0  0
   20.7327    5.4400   32.4674 N   0  0  0  0  0  0  0  0  0  0  0  0
   21.6544    6.1451   31.6358 C   0  0  0  0  0  0  0  0  0  0  0  0
   21.5541    7.4114   32.0243 C   0  0  0  0  0  0  0  0  0  0  0  0
   21.9917    8.7904   31.8465 C   0  0  0  0  0  0  0  0  0  0  0  0
   23.1164    9.0671   31.3447 O   0  0  0  0  0  0  0  0  0  0  0  0
   19.1823    6.5765   31.9926 H   0  0  0  0  0  0  0  0  0  0  0  0
   20.8035    4.4355   32.7207 H   0  0  0  0  0  0  0  0  0  0  0  0
   21.3187   15.7929   32.1420 Br  0  0  0  0  0  0  0  0  0  0  0  0
   21.1904   13.8709   32.2143 C   0  0  0  0  0  0  0  0  0  0  0  0
   22.0198   13.1072   31.4335 C   0  0  0  0  0  0  0  0  0  0  0  0
   21.9145   11.7550   31.4970 C   0  0  0  0  0  0  0  0  0  0  0  0
   21.0029   11.0783   32.3166 C   0  0  0  0  0  0  0  0  0  0  0  0
   20.1868   11.8626   33.0862 C   0  0  0  0  0  0  0  0  0  0  0  0
   20.2768   13.2411   33.0373 C   0  0  0  0  0  0  0  0  0  0  0  0
   22.5237    5.6102   30.5936 C   0  0  0  0  0  0  0  0  0  0  0  0
   22.7384    6.2347   29.5284 O   0  0  0  0  0  0  0  0  0  0  0  0
   23.1602    4.3843   30.7203 O   0  0  0  0  0  0  0  0  0  0  0  0
   24.5344    4.2889   31.0691 C   0  0  0  0  0  0  0  0  0  0  0  0
   24.6972    3.2786   32.1676 C   0  0  0  0  0  0  0  0  0  0  0  0
   23.6767    3.0763   33.0952 C   0  0  0  0  0  0  0  0  0  0  0  0
   23.7825    2.1623   34.1085 C   0  0  0  0  0  0  0  0  0  0  0  0
   24.9487    1.4097   34.2185 C   0  0  0  0  0  0  0  0  0  0  0  0
   25.9549    1.6134   33.3000 C   0  0  0  0  0  0  0  0  0  0  0  0
   25.8356    2.5480   32.2688 C   0  0  0  0  0  0  0  0  0  0  0  0
 13 14  1  0  0  0
 14 15  2  0  0  0
 14 19  1  0  0  0
 15 16  1  0  0  0
 16 17  2  0  0  0
 17 18  1  0  0  0
 17  1  1  0  0  0
 18 19  2  0  0  0
  1  2  1  0  0  0
  1  9  1  0  0  0
  2  3  2  0  0  0
  2  4  1  0  0  0
  4  5  1  0  0  0
  4  8  1  0  0  0
  5  6  1  0  0  0
  6  7  1  0  0  0
  7  8  2  0  0  0
  7 20  1  0  0  0
  8  9  1  0  0  0
  9 10  2  0  0  0
 20 21  2  0  0  0
 20 22  1  0  0  0
 22 23  1  0  0  0
 23 24  1  0  0  0
 24 25  2  0  0  0
 24 29  1  0  0  0
 25 26  1  0  0  0
 26 27  2  0  0  0
 27 28  1  0  0  0
 28 29  2  0  0  0
  5 11  1  0  0  0
  6 12  1  0  0  0
M  END
> <minimizedAffinity>
-9.37401

$$$$
428


 28 31  0  0  0  0  0  0  0  0999 V2000
   25.9193    9.1186   29.5613 N   0  0  0  0  0  0  0  0  0  0  0  0
   26.8013   10.2566   29.5654 C   0  0  0  0  0  0  0  0  0  0  0  0
   26.4338   11.3254   30.1269 O   0  0  0  0  0  0  0  0  0  0  0  0
   28.0496   10.1045   28.9289 N   0  0  0  0  0  0  0  0  0  0  0  0
   28.4401    9.0407   28.3597 C   0  0  0  0  0  0  0  0  0  0  0  0
   27.6730    7.7748   28.2556 C   0  0  0  0  0  0  0  0  0  0  0  0
   27.5820    7.4031   26.8158 C   0  0  0  0  0  0  0  0  0  0  0  0
   27.4665    6.0232   26.5109 N   0  0  0  0  0  0  0  0  0  0  0  0
   27.2031    5.1698   27.6013 C   0  0  0  0  0  0  0  0  0  0  0  0
   27.7139    5.4637   28.8717 C   0  0  0  0  0  0  0  0  0  0  0  0
   27.4478    4.6244   29.9166 C   0  0  0  0  0  0  0  0  0  0  0  0
   26.6918    3.4799   29.8031 C   0  0  0  0  0  0  0  0  0  0  0  0
   26.1905    3.1950   28.5503 C   0  0  0  0  0  0  0  0  0  0  0  0
   26.4438    4.0279   27.4685 C   0  0  0  0  0  0  0  0  0  0  0  0
   26.4232    2.5949   30.9607 C   0  0  0  0  0  0  0  0  0  0  0  0
   28.5233    6.7075   28.9506 C   0  0  0  0  0  0  0  0  0  0  0  0
   28.6147    5.5247   25.7352 C   0  0  0  0  0  0  0  0  0  0  0  0
   26.3612    7.9264   28.9205 C   0  0  0  0  0  0  0  0  0  0  0  0
   25.5323    6.9576   28.9512 O   0  0  0  0  0  0  0  0  0  0  0  0
   29.7180    9.0278   27.7607 O   0  0  0  0  0  0  0  0  0  0  0  0
   26.6445    5.9120   25.8447 H   0  0  0  0  0  0  0  0  0  0  0  0
   20.5721    9.3871   32.5116 Br  0  0  0  0  0  0  0  0  0  0  0  0
   22.2193    9.3112   31.5531 C   0  0  0  0  0  0  0  0  0  0  0  0
   23.3810    9.0859   32.2415 C   0  0  0  0  0  0  0  0  0  0  0  0
   24.5847    9.0297   31.5495 C   0  0  0  0  0  0  0  0  0  0  0  0
   24.6456    9.1943   30.1841 C   0  0  0  0  0  0  0  0  0  0  0  0
   23.4651    9.4200   29.5114 C   0  0  0  0  0  0  0  0  0  0  0  0
   22.2526    9.4802   30.1782 C   0  0  0  0  0  0  0  0  0  0  0  0
 22 23  1  0  0  0
 23 24  2  0  0  0
 23 28  1  0  0  0
 24 25  1  0  0  0
 25 26  2  0  0  0
 26 27  1  0  0  0
 26  1  1  0  0  0
 27 28  2  0  0  0
  1  2  1  0  0  0
  1 18  1  0  0  0
  2  3  2  0  0  0
  2  4  1  0  0  0
  4  5  2  0  0  0
  5  6  1  0  0  0
  5 20  1  0  0  0
  6  7  1  0  0  0
  6 16  1  0  0  0
  6 18  1  0  0  0
  7  8  1  0  0  0
  8  9  1  0  0  0
  8 17  1  0  0  0
  9 10  2  0  0  0
  9 14  1  0  0  0
 10 11  1  0  0  0
 10 16  1  0  0  0
 11 12  2  0  0  0
 12 13  1  0  0  0
 12 15  1  0  0  0
 13 14  2  0  0  0
 18 19  2  0  0  0
  8 21  1  0  0  0
M  CHG 1   8   1
M  CHG 1  20  -1
M  END
> <minimizedAffinity>
-7.24996

$$$$
429


 36 39  0  0  0  0  0  0  0  0999 V2000
   21.4895   10.7443   32.0102 N   0  0  0  0  0  0  0  0  0  0  0  0
   20.5570   10.2933   32.9944 C   0  0  0  0  0  0  0  0  0  0  0  0
   20.6355    9.0780   33.3628 O   0  0  0  0  0  0  0  0  0  0  0  0
   19.5959   11.1932   33.5165 N   0  0  0  0  0  0  0  0  0  0  0  0
   19.4896   12.5566   33.1188 C   0  0  0  0  0  0  0  0  0  0  0  0
   18.6219   13.3358   33.6030 O   0  0  0  0  0  0  0  0  0  0  0  0
   20.4362   13.0561   32.1056 C   0  0  0  0  0  0  0  0  0  0  0  0
   20.3872   14.3135   31.6934 C   0  0  0  0  0  0  0  0  0  0  0  0
   21.4134   12.1052   31.5881 C   0  0  0  0  0  0  0  0  0  0  0  0
   22.2419   12.4856   30.7214 O   0  0  0  0  0  0  0  0  0  0  0  0
   18.9321   10.8229   34.2357 H   0  0  0  0  0  0  0  0  0  0  0  0
   25.5560    6.8151   29.6528 Br  0  0  0  0  0  0  0  0  0  0  0  0
   24.2942    8.0460   30.3994 C   0  0  0  0  0  0  0  0  0  0  0  0
   23.0455    8.2163   29.8255 C   0  0  0  0  0  0  0  0  0  0  0  0
   22.1410    9.1064   30.3715 C   0  0  0  0  0  0  0  0  0  0  0  0
   22.4372    9.8536   31.4939 C   0  0  0  0  0  0  0  0  0  0  0  0
   23.6767    9.6957   32.0772 C   0  0  0  0  0  0  0  0  0  0  0  0
   24.5677    8.8016   31.5188 C   0  0  0  0  0  0  0  0  0  0  0  0
   21.3130   14.7652   30.7152 N   0  0  0  0  0  0  0  0  0  0  0  0
   21.7240   14.0118   30.0998 H   0  0  0  0  0  0  0  0  0  0  0  0
   21.6982   16.0820   30.5248 N   0  0  0  0  0  0  0  0  0  0  0  0
   21.4920   16.7295   31.3406 H   0  0  0  0  0  0  0  0  0  0  0  0
   22.3218   16.5795   29.3470 C   0  0  0  0  0  0  0  0  0  0  0  0
   23.3062   15.9684   28.6799 N   0  0  0  0  0  0  0  0  0  0  0  0
   23.6564   16.7111   27.6169 C   0  0  0  0  0  0  0  0  0  0  0  0
   22.8506   17.8416   27.6219 C   0  0  0  0  0  0  0  0  0  0  0  0
   22.0636   17.7100   28.6884 N   0  0  0  0  0  0  0  0  0  0  0  0
   22.9600   18.7907   26.6751 N   0  0  0  0  0  0  0  0  0  0  0  0
   23.8670   18.6369   25.7102 C   0  0  0  0  0  0  0  0  0  0  0  0
   24.0021   19.5087   24.7977 O   0  0  0  0  0  0  0  0  0  0  0  0
   24.6880   17.5544   25.6451 N   0  0  0  0  0  0  0  0  0  0  0  0
   24.5702   16.6054   26.6030 C   0  0  0  0  0  0  0  0  0  0  0  0
   25.3225   15.6109   26.5474 O   0  0  0  0  0  0  0  0  0  0  0  0
   25.6511   17.4333   24.5806 C   0  0  0  0  0  0  0  0  0  0  0  0
   22.0941   19.9302   26.7468 C   0  0  0  0  0  0  0  0  0  0  0  0
   23.9694   14.6924   28.9713 C   0  0  0  0  0  0  0  0  0  0  0  0
 12 13  1  0  0  0
 13 14  2  0  0  0
 13 18  1  0  0  0
 14 15  1  0  0  0
 15 16  2  0  0  0
 16 17  1  0  0  0
 16  1  1  0  0  0
 17 18  2  0  0  0
  1  2  1  0  0  0
  1  9  1  0  0  0
  2  3  2  0  0  0
  2  4  1  0  0  0
  4  5  1  0  0  0
  5  6  2  0  0  0
  5  7  1  0  0  0
  7  8  2  0  0  0
  7  9  1  0  0  0
  8 19  1  0  0  0
 19 21  1  0  0  0
 21 23  1  0  0  0
 23 24  1  0  0  0
 23 27  2  0  0  0
 24 25  1  0  0  0
 24 36  1  0  0  0
 25 26  2  0  0  0
 25 32  1  0  0  0
 26 27  1  0  0  0
 26 28  1  0  0  0
 28 29  1  0  0  0
 28 35  1  0  0  0
 29 30  2  0  0  0
 29 31  1  0  0  0
 31 32  1  0  0  0
 31 34  1  0  0  0
 32 33  2  0  0  0
  9 10  2  0  0  0
  4 11  1  0  0  0
 19 20  1  0  0  0
 21 22  1  0  0  0
M  END
> <minimizedAffinity>
-10.34493

$$$$
436


 29 32  0  0  0  0  0  0  0  0999 V2000
   23.8712   11.5536   29.7319 N   0  0  0  0  0  0  0  0  0  0  0  0
   23.1533   12.8124   29.7533 C   0  0  0  0  0  0  0  0  0  0  0  0
   21.8067   12.7123   30.4312 C   0  0  0  0  0  0  0  0  0  0  0  0
   22.0163   11.8979   31.7171 C   0  0  0  0  0  0  0  0  0  0  0  0
   22.2748   10.5547   31.2680 N   0  0  0  0  0  0  0  0  0  0  0  0
   23.2066   10.4201   30.2760 C   0  0  0  0  0  0  0  0  0  0  0  0
   23.3236    9.1158   29.9774 N   0  0  0  0  0  0  0  0  0  0  0  0
   22.4621    8.4544   30.7906 C   0  0  0  0  0  0  0  0  0  0  0  0
   21.7966    9.3543   31.6087 C   0  0  0  0  0  0  0  0  0  0  0  0
   20.8627    8.9153   32.5263 C   0  0  0  0  0  0  0  0  0  0  0  0
   20.2721    9.7763   33.2612 O   0  0  0  0  0  0  0  0  0  0  0  0
   20.6015    7.5996   32.6232 N   0  0  0  0  0  0  0  0  0  0  0  0
   21.2612    6.7487   31.8181 C   0  0  0  0  0  0  0  0  0  0  0  0
   20.9861    5.5246   31.9419 O   0  0  0  0  0  0  0  0  0  0  0  0
   22.1660    7.1497   30.9253 N   0  0  0  0  0  0  0  0  0  0  0  0
   22.8613    6.2001   30.0691 C   0  0  0  0  0  0  0  0  0  0  0  0
   29.3561   11.5717   27.0831 Br  0  0  0  0  0  0  0  0  0  0  0  0
   27.6808   11.5319   27.9479 C   0  0  0  0  0  0  0  0  0  0  0  0
   27.4802   10.8580   29.1343 C   0  0  0  0  0  0  0  0  0  0  0  0
   26.2301   10.8434   29.7552 C   0  0  0  0  0  0  0  0  0  0  0  0
   25.1722   11.5111   29.1818 C   0  0  0  0  0  0  0  0  0  0  0  0
   25.4095   12.1722   27.9986 C   0  0  0  0  0  0  0  0  0  0  0  0
   26.6236   12.2036   27.3674 C   0  0  0  0  0  0  0  0  0  0  0  0
   19.6216    7.1277   33.5861 C   0  0  0  0  0  0  0  0  0  0  0  0
   18.2553    7.5208   33.1079 C   0  0  0  0  0  0  0  0  0  0  0  0
   17.8436    7.1524   31.9830 O   0  0  0  0  0  0  0  0  0  0  0  0
   17.3964    8.3119   33.9043 N   0  0  0  0  0  0  0  0  0  0  0  0
   16.3609    8.1721   33.9291 H   0  0  0  0  0  0  0  0  0  0  0  0
   17.7708    9.0823   34.5117 H   0  0  0  0  0  0  0  0  0  0  0  0
 17 18  1  0  0  0
 18 19  2  0  0  0
 18 23  1  0  0  0
 19 20  1  0  0  0
 20 21  2  0  0  0
 21 22  1  0  0  0
 21  1  1  0  0  0
 22 23  2  0  0  0
  1  2  1  0  0  0
  1  6  1  0  0  0
  2  3  1  0  0  0
  3  4  1  0  0  0
  4  5  1  0  0  0
  5  6  1  0  0  0
  5  9  1  0  0  0
  6  7  2  0  0  0
  7  8  1  0  0  0
  8  9  2  0  0  0
  8 15  1  0  0  0
  9 10  1  0  0  0
 10 11  2  0  0  0
 10 12  1  0  0  0
 12 13  1  0  0  0
 12 24  1  0  0  0
 13 14  2  0  0  0
 13 15  1  0  0  0
 15 16  1  0  0  0
 24 25  1  0  0  0
 25 26  2  0  0  0
 25 27  1  0  0  0
 27 28  1  0  0  0
 27 29  1  0  0  0
M  END
> <minimizedAffinity>
-8.10640

$$$$
439


 28 32  0  0  0  0  0  0  0  0999 V2000
   23.1433    6.3592   30.9025 N   0  0  0  0  0  0  0  0  0  0  0  0
   21.9177    5.9942   31.2634 N   0  0  0  0  0  0  0  0  0  0  0  0
   21.2650    7.0281   31.8258 C   0  0  0  0  0  0  0  0  0  0  0  0
   20.0244    7.0118   32.2966 C   0  0  0  0  0  0  0  0  0  0  0  0
   22.1030    8.1242   31.8327 C   0  0  0  0  0  0  0  0  0  0  0  0
   21.8635    9.3543   32.2955 C   0  0  0  0  0  0  0  0  0  0  0  0
   23.2695    7.6586   31.2448 C   0  0  0  0  0  0  0  0  0  0  0  0
   24.2898    8.3624   31.0657 O   0  0  0  0  0  0  0  0  0  0  0  0
   21.5196    5.0433   31.1305 H   0  0  0  0  0  0  0  0  0  0  0  0
   27.4597    2.8743   28.2587 Br  0  0  0  0  0  0  0  0  0  0  0  0
   26.1074    3.9478   29.1058 C   0  0  0  0  0  0  0  0  0  0  0  0
   25.5453    3.5888   30.2942 C   0  0  0  0  0  0  0  0  0  0  0  0
   24.5687    4.3930   30.8764 C   0  0  0  0  0  0  0  0  0  0  0  0
   24.1432    5.5615   30.2793 C   0  0  0  0  0  0  0  0  0  0  0  0
   24.7333    5.8923   29.0786 C   0  0  0  0  0  0  0  0  0  0  0  0
   25.7002    5.1158   28.4822 C   0  0  0  0  0  0  0  0  0  0  0  0
   22.9024   10.3201   32.1871 N   0  0  0  0  0  0  0  0  0  0  0  0
   23.8330   10.0705   32.5524 H   0  0  0  0  0  0  0  0  0  0  0  0
   22.6897   11.6083   31.5928 C   0  0  0  0  0  0  0  0  0  0  0  0
   21.5649   12.3266   32.2677 C   0  0  0  0  0  0  0  0  0  0  0  0
   21.4461   13.6632   31.7022 N   0  0  0  0  0  0  0  0  0  0  0  0
   22.7063   14.3573   31.9373 C   0  0  0  0  0  0  0  0  0  0  0  0
   23.8015   13.7269   31.2415 N   0  0  0  0  0  0  0  0  0  0  0  0
   23.4761   13.6111   29.8232 C   0  0  0  0  0  0  0  0  0  0  0  0
   22.2496   12.8755   29.6136 N   0  0  0  0  0  0  0  0  0  0  0  0
   21.1713   13.5564   30.2920 C   0  0  0  0  0  0  0  0  0  0  0  0
   22.3792   11.5289   30.1164 C   0  0  0  0  0  0  0  0  0  0  0  0
   23.9934   12.3962   31.7560 C   0  0  0  0  0  0  0  0  0  0  0  0
 10 11  1  0  0  0
 11 12  2  0  0  0
 11 16  1  0  0  0
 12 13  1  0  0  0
 13 14  2  0  0  0
 14 15  1  0  0  0
 14  1  1  0  0  0
 15 16  2  0  0  0
  1  2  1  0  0  0
  1  7  1  0  0  0
  2  3  1  0  0  0
  3  4  2  0  0  0
  3  5  1  0  0  0
  5  6  2  0  0  0
  5  7  1  0  0  0
  6 17  1  0  0  0
 17 19  1  0  0  0
 19 20  1  0  0  0
 19 27  1  0  0  0
 19 28  1  0  0  0
 20 21  1  0  0  0
 21 22  1  0  0  0
 21 26  1  0  0  0
 22 23  1  0  0  0
 23 24  1  0  0  0
 23 28  1  0  0  0
 24 25  1  0  0  0
 25 26  1  0  0  0
 25 27  1  0  0  0
  7  8  2  0  0  0
  2  9  1  0  0  0
 17 18  1  0  0  0
M  END
> <minimizedAffinity>
-7.72851

$$$$
441


 36 39  0  0  0  0  0  0  0  0999 V2000
   22.7590   16.9515   28.5929 C   0  0  0  0  0  0  0  0  0  0  0  0
   23.6616   16.5512   27.6782 N   0  0  0  0  0  0  0  0  0  0  0  0
   23.9245   17.3237   26.6369 C   0  0  0  0  0  0  0  0  0  0  0  0
   24.7666   17.1461   25.6105 N   0  0  0  0  0  0  0  0  0  0  0  0
   24.6343   18.2466   24.8353 C   0  0  0  0  0  0  0  0  0  0  0  0
   23.7361   19.0802   25.3685 N   0  0  0  0  0  0  0  0  0  0  0  0
   23.2624   18.5494   26.4975 C   0  0  0  0  0  0  0  0  0  0  0  0
   22.3342   18.9672   27.4329 C   0  0  0  0  0  0  0  0  0  0  0  0
   22.1105   18.1463   28.4626 N   0  0  0  0  0  0  0  0  0  0  0  0
   21.7078   20.1905   27.2445 O   0  0  0  0  0  0  0  0  0  0  0  0
   22.3141   20.9553   26.9273 H   0  0  0  0  0  0  0  0  0  0  0  0
   25.6480   16.0869   25.2999 C   0  0  0  0  0  0  0  0  0  0  0  0
   26.5103   15.7949   26.3650 O   0  0  0  0  0  0  0  0  0  0  0  0
   27.6748   16.4696   26.0083 C   0  0  0  0  0  0  0  0  0  0  0  0
   27.8586   15.9603   24.5865 C   0  0  0  0  0  0  0  0  0  0  0  0
   26.4420   16.1946   24.0675 C   0  0  0  0  0  0  0  0  0  0  0  0
   26.1040   15.1953   23.1276 O   0  0  0  0  0  0  0  0  0  0  0  0
   28.8154   16.6348   23.8814 O   0  0  0  0  0  0  0  0  0  0  0  0
   26.5848   15.4417   22.2981 H   0  0  0  0  0  0  0  0  0  0  0  0
   29.5493   17.0108   24.4649 H   0  0  0  0  0  0  0  0  0  0  0  0
   28.8371   16.1182   26.8911 C   0  0  0  0  0  0  0  0  0  0  0  0
   28.4960   15.9054   28.1991 O   0  0  0  0  0  0  0  0  0  0  0  0
   28.2858   14.9426   28.3172 H   0  0  0  0  0  0  0  0  0  0  0  0
   22.1639   16.6903   30.9948 C   0  0  0  0  0  0  0  0  0  0  0  0
   22.1832   17.9218   31.1670 O   0  0  0  0  0  0  0  0  0  0  0  0
   22.4458   16.1449   29.7261 N   0  0  0  0  0  0  0  0  0  0  0  0
   22.4297   15.0947   29.5788 H   0  0  0  0  0  0  0  0  0  0  0  0
   21.8470   15.7934   32.1215 C   0  0  0  0  0  0  0  0  0  0  0  0
   20.6971   15.0266   31.9093 O   0  0  0  0  0  0  0  0  0  0  0  0
   20.8401    9.0403   32.9896 Br  0  0  0  0  0  0  0  0  0  0  0  0
   20.7886   10.9301   32.6542 C   0  0  0  0  0  0  0  0  0  0  0  0
   21.7003   11.4946   31.7895 C   0  0  0  0  0  0  0  0  0  0  0  0
   21.6622   12.8703   31.5462 C   0  0  0  0  0  0  0  0  0  0  0  0
   20.7267   13.6717   32.1563 C   0  0  0  0  0  0  0  0  0  0  0  0
   19.8264   13.0899   33.0142 C   0  0  0  0  0  0  0  0  0  0  0  0
   19.8513   11.7376   33.2644 C   0  0  0  0  0  0  0  0  0  0  0  0
 30 31  1  0  0  0
 31 32  2  0  0  0
 31 36  1  0  0  0
 32 33  1  0  0  0
 33 34  2  0  0  0
 34 35  1  0  0  0
 34 29  1  0  0  0
 35 36  2  0  0  0
 29 28  1  0  0  0
 28 24  1  0  0  0
 24 25  2  0  0  0
 24 26  1  0  0  0
 26  1  1  0  0  0
  1  2  2  0  0  0
  1  9  1  0  0  0
  2  3  1  0  0  0
  3  4  1  0  0  0
  3  7  2  0  0  0
  4  5  1  0  0  0
  4 12  1  0  0  0
  5  6  2  0  0  0
  6  7  1  0  0  0
  7  8  1  0  0  0
  8  9  2  0  0  0
  8 10  1  0  0  0
 12 13  1  0  0  0
 12 16  1  0  0  0
 13 14  1  0  0  0
 14 15  1  0  0  0
 14 21  1  0  0  0
 15 16  1  0  0  0
 15 18  1  0  0  0
 16 17  1  0  0  0
 21 22  1  0  0  0
 26 27  1  0  0  0
 10 11  1  0  0  0
 17 19  1  0  0  0
 18 20  1  0  0  0
 22 23  1  0  0  0
M  END
> <minimizedAffinity>
-10.01989

$$$$
444


 33 36  0  0  0  0  0  0  0  0999 V2000
   22.7206   14.1814   30.6173 N   0  0  0  0  0  0  0  0  0  0  0  0
   22.7322   15.3717   29.9742 C   0  0  0  0  0  0  0  0  0  0  0  0
   23.5030   15.2450   28.8411 C   0  0  0  0  0  0  0  0  0  0  0  0
   23.9254   13.9977   28.8454 N   0  0  0  0  0  0  0  0  0  0  0  0
   23.4663   13.3007   29.9318 C   0  0  0  0  0  0  0  0  0  0  0  0
   23.7304   16.2589   27.9559 N   0  0  0  0  0  0  0  0  0  0  0  0
   23.1659   17.4389   28.2171 C   0  0  0  0  0  0  0  0  0  0  0  0
   23.3642   18.3866   27.4096 O   0  0  0  0  0  0  0  0  0  0  0  0
   22.4115   17.5927   29.3134 N   0  0  0  0  0  0  0  0  0  0  0  0
   22.1680   16.6070   30.2084 C   0  0  0  0  0  0  0  0  0  0  0  0
   21.4663   16.7789   31.2156 O   0  0  0  0  0  0  0  0  0  0  0  0
   24.5587   16.0227   26.7728 C   0  0  0  0  0  0  0  0  0  0  0  0
   21.9879   18.5284   29.4834 H   0  0  0  0  0  0  0  0  0  0  0  0
   23.8340   11.9378   30.2191 N   0  0  0  0  0  0  0  0  0  0  0  0
   24.6137   11.7896   31.4679 C   0  0  0  0  0  0  0  0  0  0  0  0
   24.7460   10.4019   31.9498 C   0  0  0  0  0  0  0  0  0  0  0  0
   24.8408    9.4310   30.8885 N   0  0  0  0  0  0  0  0  0  0  0  0
   23.6012    9.4952   30.1811 C   0  0  0  0  0  0  0  0  0  0  0  0
   23.4494   10.8194   29.4332 C   0  0  0  0  0  0  0  0  0  0  0  0
   26.0116    9.5972   30.0922 C   0  0  0  0  0  0  0  0  0  0  0  0
   21.9791   13.8726   31.8207 C   0  0  0  0  0  0  0  0  0  0  0  0
   20.5729   13.3929   31.6087 C   0  0  0  0  0  0  0  0  0  0  0  0
   19.8339   14.2640   30.7957 O   0  0  0  0  0  0  0  0  0  0  0  0
   19.0770   13.7461   30.3699 H   0  0  0  0  0  0  0  0  0  0  0  0
   19.7589   13.1242   32.8345 C   0  0  0  0  0  0  0  0  0  0  0  0
   19.7058   11.8661   33.2183 O   0  0  0  0  0  0  0  0  0  0  0  0
   20.3937    5.9505   32.5587 Br  0  0  0  0  0  0  0  0  0  0  0  0
   20.1704    7.8254   32.7684 C   0  0  0  0  0  0  0  0  0  0  0  0
   18.9493    8.3078   33.1556 C   0  0  0  0  0  0  0  0  0  0  0  0
   18.7827    9.6669   33.3089 C   0  0  0  0  0  0  0  0  0  0  0  0
   19.8063   10.5658   33.0860 C   0  0  0  0  0  0  0  0  0  0  0  0
   21.0542   10.0365   32.6862 C   0  0  0  0  0  0  0  0  0  0  0  0
   21.2132    8.6993   32.5369 C   0  0  0  0  0  0  0  0  0  0  0  0
 27 28  1  0  0  0
 28 29  2  0  0  0
 28 33  1  0  0  0
 29 30  1  0  0  0
 30 31  2  0  0  0
 31 32  1  0  0  0
 31 26  1  0  0  0
 32 33  2  0  0  0
 26 25  1  0  0  0
 25 22  1  0  0  0
 22 23  1  0  0  0
 22 21  1  0  0  0
 21  1  1  0  0  0
  1  2  1  0  0  0
  1  5  1  0  0  0
  2  3  2  0  0  0
  2 10  1  0  0  0
  3  4  1  0  0  0
  3  6  1  0  0  0
  4  5  2  0  0  0
  5 14  1  0  0  0
 14 15  1  0  0  0
 14 19  1  0  0  0
 15 16  1  0  0  0
 16 17  1  0  0  0
 17 18  1  0  0  0
 17 20  1  0  0  0
 18 19  1  0  0  0
  6  7  1  0  0  0
  6 12  1  0  0  0
  7  8  2  0  0  0
  7  9  1  0  0  0
  9 10  1  0  0  0
 10 11  2  0  0  0
 23 24  1  0  0  0
  9 13  1  0  0  0
M  END
> <minimizedAffinity>
-9.04826

$$$$
454


 21 25  0  0  0  0  0  0  0  0999 V2000
   23.1472    8.2853   30.7747 C   0  0  0  0  0  0  0  0  0  0  0  0
   23.2363    5.1433   30.9635 Br  0  0  0  0  0  0  0  0  0  0  0  0
   21.8715    6.3434   31.5614 C   0  0  0  0  0  0  0  0  0  0  0  0
   20.6966    5.8517   32.0990 C   0  0  0  0  0  0  0  0  0  0  0  0
   19.7003    6.7045   32.5293 C   0  0  0  0  0  0  0  0  0  0  0  0
   19.7760    8.0754   32.4584 C   0  0  0  0  0  0  0  0  0  0  0  0
   20.9403    8.5554   31.9240 C   0  0  0  0  0  0  0  0  0  0  0  0
   21.9828    7.7416   31.4746 C   0  0  0  0  0  0  0  0  0  0  0  0
   18.5748    8.5313   32.9769 O   0  0  0  0  0  0  0  0  0  0  0  0
   17.5753    7.4999   32.7465 C   0  0  0  0  0  0  0  0  0  0  0  0
   18.4338    6.3743   33.1016 O   0  0  0  0  0  0  0  0  0  0  0  0
   23.4938    9.6371   30.9182 N   0  0  0  0  0  0  0  0  0  0  0  0
   23.3503   10.1162   29.4963 C   0  0  0  0  0  0  0  0  0  0  0  0
   23.9144   11.3735   29.2416 N   0  0  0  0  0  0  0  0  0  0  0  0
   25.3146   11.3049   29.6220 C   0  0  0  0  0  0  0  0  0  0  0  0
   25.3597   11.0914   31.0474 N   0  0  0  0  0  0  0  0  0  0  0  0
   24.8662    9.7983   31.3954 C   0  0  0  0  0  0  0  0  0  0  0  0
   24.6118   12.0928   31.8165 C   0  0  0  0  0  0  0  0  0  0  0  0
   23.2144   11.9613   31.4374 N   0  0  0  0  0  0  0  0  0  0  0  0
   22.7218   10.5851   31.6595 C   0  0  0  0  0  0  0  0  0  0  0  0
   23.1484   12.3336   30.0445 C   0  0  0  0  0  0  0  0  0  0  0  0
  2  3  1  0  0  0
  3  4  2  0  0  0
  3  8  1  0  0  0
  4  5  1  0  0  0
  5  6  2  0  0  0
  5 11  1  0  0  0
  6  7  1  0  0  0
  6  9  1  0  0  0
  7  8  2  0  0  0
  8  1  1  0  0  0
  1 12  1  0  0  0
 12 13  1  0  0  0
 12 17  1  0  0  0
 12 20  1  0  0  0
 13 14  1  0  0  0
 14 15  1  0  0  0
 14 21  1  0  0  0
 15 16  1  0  0  0
 16 17  1  0  0  0
 16 18  1  0  0  0
 18 19  1  0  0  0
 19 20  1  0  0  0
 19 21  1  0  0  0
  9 10  1  0  0  0
 10 11  1  0  0  0
M  CHG 1  12   1
M  END
> <minimizedAffinity>
-8.34959

$$$$
455


 26 29  0  0  0  0  0  0  0  0999 V2000
   23.8665    9.4492   30.9827 N   0  0  0  0  0  0  0  0  0  0  0  0
   24.7156   10.0817   32.0257 C   0  0  0  0  0  0  0  0  0  0  0  0
   24.5634   11.5720   31.7398 C   0  0  0  0  0  0  0  0  0  0  0  0
   23.9399   11.8590   30.5004 N   0  0  0  0  0  0  0  0  0  0  0  0
   24.5033   11.1201   29.4008 C   0  0  0  0  0  0  0  0  0  0  0  0
   24.6521    9.6725   29.7675 C   0  0  0  0  0  0  0  0  0  0  0  0
   23.7447    8.0310   31.2582 C   0  0  0  0  0  0  0  0  0  0  0  0
   23.0260    5.0926   30.7749 Br  0  0  0  0  0  0  0  0  0  0  0  0
   21.8562    6.4040   31.5233 C   0  0  0  0  0  0  0  0  0  0  0  0
   20.5796    6.0619   31.9063 C   0  0  0  0  0  0  0  0  0  0  0  0
   19.7273    6.9928   32.4462 C   0  0  0  0  0  0  0  0  0  0  0  0
   20.1854    8.2713   32.5927 C   0  0  0  0  0  0  0  0  0  0  0  0
   21.4792    8.6143   32.2036 C   0  0  0  0  0  0  0  0  0  0  0  0
   22.3548    7.6981   31.6588 C   0  0  0  0  0  0  0  0  0  0  0  0
   19.3406    9.2261   33.1362 O   0  0  0  0  0  0  0  0  0  0  0  0
   17.9598    9.0358   33.3061 C   0  0  0  0  0  0  0  0  0  0  0  0
   17.6324    7.5983   33.5547 C   0  0  0  0  0  0  0  0  0  0  0  0
   18.4330    6.6872   32.8458 O   0  0  0  0  0  0  0  0  0  0  0  0
   22.5355   12.0197   30.4827 C   0  0  0  0  0  0  0  0  0  0  0  0
   21.9855   12.9999   31.4006 C   0  0  0  0  0  0  0  0  0  0  0  0
   21.0755   12.6958   32.2003 O   0  0  0  0  0  0  0  0  0  0  0  0
   22.4655   14.3299   31.4180 N   0  0  0  0  0  0  0  0  0  0  0  0
   23.2374   14.6650   30.7723 H   0  0  0  0  0  0  0  0  0  0  0  0
   21.9370   15.3413   32.3253 C   0  0  0  0  0  0  0  0  0  0  0  0
   22.2432   16.7658   32.1185 C   0  0  0  0  0  0  0  0  0  0  0  0
   22.9866   16.0310   33.1927 C   0  0  0  0  0  0  0  0  0  0  0  0
  8  9  1  0  0  0
  9 10  2  0  0  0
  9 14  1  0  0  0
 10 11  1  0  0  0
 11 12  2  0  0  0
 11 18  1  0  0  0
 12 13  1  0  0  0
 12 15  1  0  0  0
 13 14  2  0  0  0
 14  7  1  0  0  0
  7  1  1  0  0  0
  1  2  1  0  0  0
  1  6  1  0  0  0
  2  3  1  0  0  0
  3  4  1  0  0  0
  4  5  1  0  0  0
  4 19  1  0  0  0
  5  6  1  0  0  0
 19 20  1  0  0  0
 20 21  2  0  0  0
 20 22  1  0  0  0
 22 24  1  0  0  0
 24 25  1  0  0  0
 24 26  1  0  0  0
 25 26  1  0  0  0
 15 16  1  0  0  0
 16 17  1  0  0  0
 17 18  1  0  0  0
 22 23  1  0  0  0
M  END
> <minimizedAffinity>
-8.39890

$$$$
459


 29 32  0  0  0  0  0  0  0  0999 V2000
   21.1280   11.6950   32.5004 C   0  0  0  0  0  0  0  0  0  0  0  0
   20.4037   12.8546   32.8088 C   0  0  0  0  0  0  0  0  0  0  0  0
   20.6632   14.0746   32.2273 C   0  0  0  0  0  0  0  0  0  0  0  0
   21.6713   14.2057   31.2973 C   0  0  0  0  0  0  0  0  0  0  0  0
   22.3952   13.0754   30.9826 C   0  0  0  0  0  0  0  0  0  0  0  0
   22.1336   11.8369   31.5706 C   0  0  0  0  0  0  0  0  0  0  0  0
   21.9595   15.4978   30.6700 C   0  0  0  0  0  0  0  0  0  0  0  0
   22.4643   15.7470   29.4504 N   0  0  0  0  0  0  0  0  0  0  0  0
   22.5618   17.0707   29.2896 N   0  0  0  0  0  0  0  0  0  0  0  0
   22.1259   17.6591   30.3939 N   0  0  0  0  0  0  0  0  0  0  0  0
   21.7613   16.7018   31.2299 N   0  0  0  0  0  0  0  0  0  0  0  0
   23.0505   17.7996   28.1378 C   0  0  0  0  0  0  0  0  0  0  0  0
   23.4958   16.8574   27.0878 C   0  0  0  0  0  0  0  0  0  0  0  0
   22.9689   16.8963   25.9644 O   0  0  0  0  0  0  0  0  0  0  0  0
   24.5150   15.9265   27.3825 N   0  0  0  0  0  0  0  0  0  0  0  0
   24.6653   15.5320   28.3525 H   0  0  0  0  0  0  0  0  0  0  0  0
   25.1565   15.6009   26.6285 H   0  0  0  0  0  0  0  0  0  0  0  0
   20.8272   10.4939   33.1184 O   0  0  0  0  0  0  0  0  0  0  0  0
   19.9354    9.5522   32.6016 C   0  0  0  0  0  0  0  0  0  0  0  0
   18.0312    7.1924   32.9280 Br  0  0  0  0  0  0  0  0  0  0  0  0
   19.8301    7.0813   32.2798 C   0  0  0  0  0  0  0  0  0  0  0  0
   20.3829    5.8863   31.8919 C   0  0  0  0  0  0  0  0  0  0  0  0
   21.6810    5.8254   31.4273 C   0  0  0  0  0  0  0  0  0  0  0  0
   22.4229    6.9854   31.3555 C   0  0  0  0  0  0  0  0  0  0  0  0
   21.8534    8.1946   31.7509 C   0  0  0  0  0  0  0  0  0  0  0  0
   20.5612    8.2751   32.2177 C   0  0  0  0  0  0  0  0  0  0  0  0
   23.6658    6.6382   30.8644 O   0  0  0  0  0  0  0  0  0  0  0  0
   23.6389    5.3243   30.3348 C   0  0  0  0  0  0  0  0  0  0  0  0
   22.4992    4.7892   30.9722 O   0  0  0  0  0  0  0  0  0  0  0  0
 20 21  1  0  0  0
 21 22  2  0  0  0
 21 26  1  0  0  0
 22 23  1  0  0  0
 23 24  2  0  0  0
 23 29  1  0  0  0
 24 25  1  0  0  0
 24 27  1  0  0  0
 25 26  2  0  0  0
 26 19  1  0  0  0
 19 18  1  0  0  0
 18  1  1  0  0  0
  1  2  2  0  0  0
  1  6  1  0  0  0
  2  3  1  0  0  0
  3  4  2  0  0  0
  4  5  1  0  0  0
  4  7  1  0  0  0
  5  6  2  0  0  0
  7  8  2  0  0  0
  7 11  1  0  0  0
  8  9  1  0  0  0
  9 10  1  0  0  0
  9 12  1  0  0  0
 10 11  2  0  0  0
 12 13  1  0  0  0
 13 14  2  0  0  0
 13 15  1  0  0  0
 27 28  1  0  0  0
 28 29  1  0  0  0
 15 16  1  0  0  0
 15 17  1  0  0  0
M  END
> <minimizedAffinity>
-9.43643

$$$$
467


 28 31  0  0  0  0  0  0  0  0999 V2000
   24.1737   10.2297   29.5149 N   0  0  0  0  0  0  0  0  0  0  0  0
   25.0166    9.7080   29.1913 H   0  0  0  0  0  0  0  0  0  0  0  0
   24.1340   11.6297   29.3367 C   0  0  0  0  0  0  0  0  0  0  0  0
   23.3096   12.3128   30.1479 N   0  0  0  0  0  0  0  0  0  0  0  0
   23.1944   13.6677   30.1075 C   0  0  0  0  0  0  0  0  0  0  0  0
   23.9539   14.2890   29.2066 N   0  0  0  0  0  0  0  0  0  0  0  0
   24.7897   13.6719   28.3751 C   0  0  0  0  0  0  0  0  0  0  0  0
   24.8671   12.3100   28.4565 N   0  0  0  0  0  0  0  0  0  0  0  0
   22.3052   14.2991   30.9798 N   0  0  0  0  0  0  0  0  0  0  0  0
   22.1751   15.7364   31.0100 C   0  0  0  0  0  0  0  0  0  0  0  0
   20.9010   16.1544   31.7137 C   0  0  0  0  0  0  0  0  0  0  0  0
   19.8406   15.3234   31.5579 O   0  0  0  0  0  0  0  0  0  0  0  0
   20.0456   13.9790   31.5375 C   0  0  0  0  0  0  0  0  0  0  0  0
   21.4678   13.5400   31.8732 C   0  0  0  0  0  0  0  0  0  0  0  0
   25.5663   14.3471   27.4490 O   0  0  0  0  0  0  0  0  0  0  0  0
   26.7907   13.8159   27.0180 C   0  0  0  0  0  0  0  0  0  0  0  0
   23.2133    8.5200   30.8673 C   0  0  0  0  0  0  0  0  0  0  0  0
   23.1420    9.5221   30.0993 N   0  0  0  0  0  0  0  0  0  0  0  0
   23.2923    5.4228   30.7725 Br  0  0  0  0  0  0  0  0  0  0  0  0
   21.8905    6.5113   31.4359 C   0  0  0  0  0  0  0  0  0  0  0  0
   20.7443    5.9323   31.9475 C   0  0  0  0  0  0  0  0  0  0  0  0
   19.6854    6.6935   32.4459 C   0  0  0  0  0  0  0  0  0  0  0  0
   19.8146    8.0799   32.4154 C   0  0  0  0  0  0  0  0  0  0  0  0
   20.9677    8.6351   31.9002 C   0  0  0  0  0  0  0  0  0  0  0  0
   22.0279    7.8813   31.4012 C   0  0  0  0  0  0  0  0  0  0  0  0
   18.6555    8.5918   32.9531 O   0  0  0  0  0  0  0  0  0  0  0  0
   17.6998    7.5715   33.1651 C   0  0  0  0  0  0  0  0  0  0  0  0
   18.4511    6.3974   33.0013 O   0  0  0  0  0  0  0  0  0  0  0  0
 19 20  1  0  0  0
 20 21  2  0  0  0
 20 25  1  0  0  0
 21 22  1  0  0  0
 22 23  2  0  0  0
 22 28  1  0  0  0
 23 24  1  0  0  0
 23 26  1  0  0  0
 24 25  2  0  0  0
 25 17  1  0  0  0
 17 18  2  0  0  0
 18  1  1  0  0  0
  1  3  1  0  0  0
  3  4  2  0  0  0
  3  8  1  0  0  0
  4  5  1  0  0  0
  5  6  2  0  0  0
  5  9  1  0  0  0
  6  7  1  0  0  0
  7  8  2  0  0  0
  7 15  1  0  0  0
 15 16  1  0  0  0
  9 10  1  0  0  0
  9 14  1  0  0  0
 10 11  1  0  0  0
 11 12  1  0  0  0
 12 13  1  0  0  0
 13 14  1  0  0  0
 26 27  1  0  0  0
 27 28  1  0  0  0
  1  2  1  0  0  0
M  END
> <minimizedAffinity>
-8.63164

$$$$
469


 32 36  0  0  0  0  0  0  0  0999 V2000
   19.8915   12.8157   33.0774 C   0  0  0  0  0  0  0  0  0  0  0  0
   20.6106   13.7511   32.2439 N   0  0  0  0  0  0  0  0  0  0  0  0
   21.5694   14.5225   32.8795 C   0  0  0  0  0  0  0  0  0  0  0  0
   21.8912   15.8819   32.3905 C   0  0  0  0  0  0  0  0  0  0  0  0
   21.4285   16.0121   31.0387 N   0  0  0  0  0  0  0  0  0  0  0  0
   20.0308   15.7072   30.8635 C   0  0  0  0  0  0  0  0  0  0  0  0
   19.8746   14.2348   31.1414 C   0  0  0  0  0  0  0  0  0  0  0  0
   22.1946   16.3931   29.9247 C   0  0  0  0  0  0  0  0  0  0  0  0
   22.1029   17.6064   29.3236 N   0  0  0  0  0  0  0  0  0  0  0  0
   22.8518   17.9429   28.2582 C   0  0  0  0  0  0  0  0  0  0  0  0
   23.7393   17.0799   27.7329 N   0  0  0  0  0  0  0  0  0  0  0  0
   23.8982   15.8514   28.2656 C   0  0  0  0  0  0  0  0  0  0  0  0
   24.6973   14.7994   27.9522 N   0  0  0  0  0  0  0  0  0  0  0  0
   24.4188   13.8514   28.8286 N   0  0  0  0  0  0  0  0  0  0  0  0
   23.4783   14.2360   29.6943 C   0  0  0  0  0  0  0  0  0  0  0  0
   23.1272   15.5226   29.3517 C   0  0  0  0  0  0  0  0  0  0  0  0
   25.6646   14.7565   26.8542 C   0  0  0  0  0  0  0  0  0  0  0  0
   21.5444   11.2291   32.0810 N   0  0  0  0  0  0  0  0  0  0  0  0
   20.4568   11.4183   32.9585 C   0  0  0  0  0  0  0  0  0  0  0  0
   19.9171   10.5359   33.6464 O   0  0  0  0  0  0  0  0  0  0  0  0
   21.9032   12.0868   31.5549 H   0  0  0  0  0  0  0  0  0  0  0  0
   24.5017   11.6748   31.8269 Br  0  0  0  0  0  0  0  0  0  0  0  0
   23.5939   10.0134   31.6938 C   0  0  0  0  0  0  0  0  0  0  0  0
   24.2671    8.8382   31.4575 C   0  0  0  0  0  0  0  0  0  0  0  0
   23.6272    7.6425   31.3608 C   0  0  0  0  0  0  0  0  0  0  0  0
   22.2574    7.5945   31.5014 C   0  0  0  0  0  0  0  0  0  0  0  0
   21.5510    8.7781   31.7420 C   0  0  0  0  0  0  0  0  0  0  0  0
   22.1994    9.9970   31.8411 C   0  0  0  0  0  0  0  0  0  0  0  0
   21.6335    6.3772   31.4004 O   0  0  0  0  0  0  0  0  0  0  0  0
   22.1612    5.2727   30.7070 C   0  0  0  0  0  0  0  0  0  0  0  0
   23.5983    5.4425   30.3305 C   0  0  0  0  0  0  0  0  0  0  0  0
   24.2662    6.4331   31.1230 O   0  0  0  0  0  0  0  0  0  0  0  0
 22 23  1  0  0  0
 23 24  2  0  0  0
 23 28  1  0  0  0
 24 25  1  0  0  0
 25 26  2  0  0  0
 25 32  1  0  0  0
 26 27  1  0  0  0
 26 29  1  0  0  0
 27 28  2  0  0  0
 28 18  1  0  0  0
 18 19  1  0  0  0
 19 20  2  0  0  0
 19  1  1  0  0  0
  1  2  1  0  0  0
  2  3  1  0  0  0
  2  7  1  0  0  0
  3  4  1  0  0  0
  4  5  1  0  0  0
  5  6  1  0  0  0
  5  8  1  0  0  0
  6  7  1  0  0  0
  8  9  2  0  0  0
  8 16  1  0  0  0
  9 10  1  0  0  0
 10 11  2  0  0  0
 11 12  1  0  0  0
 12 13  1  0  0  0
 12 16  2  0  0  0
 13 14  1  0  0  0
 13 17  1  0  0  0
 14 15  2  0  0  0
 15 16  1  0  0  0
 29 30  1  0  0  0
 30 31  1  0  0  0
 31 32  1  0  0  0
 18 21  1  0  0  0
M  END
> <minimizedAffinity>
-9.10781

$$$$
471


 27 30  0  0  0  0  0  0  0  0999 V2000
   23.9499    9.3870   30.0422 C   0  0  0  0  0  0  0  0  0  0  0  0
   24.4679    8.9856   28.9601 O   0  0  0  0  0  0  0  0  0  0  0  0
   24.3168   10.6458   30.5586 N   0  0  0  0  0  0  0  0  0  0  0  0
   25.2755   11.4425   29.8362 C   0  0  0  0  0  0  0  0  0  0  0  0
   24.7638   12.8310   29.5159 C   0  0  0  0  0  0  0  0  0  0  0  0
   23.8688   13.2266   30.5385 N   0  0  0  0  0  0  0  0  0  0  0  0
   24.2088   12.7006   31.8017 C   0  0  0  0  0  0  0  0  0  0  0  0
   23.7998   11.2163   31.7790 C   0  0  0  0  0  0  0  0  0  0  0  0
   17.3237    8.5777   33.7909 Br  0  0  0  0  0  0  0  0  0  0  0  0
   18.9140    7.8445   33.0352 C   0  0  0  0  0  0  0  0  0  0  0  0
   19.8328    8.6662   32.4048 C   0  0  0  0  0  0  0  0  0  0  0  0
   20.9982    8.1617   31.8460 C   0  0  0  0  0  0  0  0  0  0  0  0
   21.1851    6.7975   31.9572 C   0  0  0  0  0  0  0  0  0  0  0  0
   20.2906    5.9590   32.5759 C   0  0  0  0  0  0  0  0  0  0  0  0
   19.1447    6.4846   33.1214 C   0  0  0  0  0  0  0  0  0  0  0  0
   22.3450    6.2890   31.4013 C   0  0  0  0  0  0  0  0  0  0  0  0
   22.5788    5.0372   31.4683 O   0  0  0  0  0  0  0  0  0  0  0  0
   23.2246    7.1541   30.7856 C   0  0  0  0  0  0  0  0  0  0  0  0
   22.9826    8.5059   30.7084 C   0  0  0  0  0  0  0  0  0  0  0  0
   21.8704    8.9367   31.2490 O   0  0  0  0  0  0  0  0  0  0  0  0
   22.5035   13.3051   30.2051 C   0  0  0  0  0  0  0  0  0  0  0  0
   21.7564   14.3856   30.8429 C   0  0  0  0  0  0  0  0  0  0  0  0
   21.8831   15.6926   30.5612 N   0  0  0  0  0  0  0  0  0  0  0  0
   21.0660   16.3281   31.3230 O   0  0  0  0  0  0  0  0  0  0  0  0
   20.4003   15.5089   32.0982 N   0  0  0  0  0  0  0  0  0  0  0  0
   20.8123   14.2519   31.8234 C   0  0  0  0  0  0  0  0  0  0  0  0
   20.3320   12.9900   32.4621 C   0  0  0  0  0  0  0  0  0  0  0  0
  9 10  1  0  0  0
 10 11  2  0  0  0
 10 15  1  0  0  0
 11 12  1  0  0  0
 12 13  2  0  0  0
 12 20  1  0  0  0
 13 14  1  0  0  0
 13 16  1  0  0  0
 14 15  2  0  0  0
 16 17  2  0  0  0
 16 18  1  0  0  0
 18 19  2  0  0  0
 19 20  1  0  0  0
 19  1  1  0  0  0
  1  2  2  0  0  0
  1  3  1  0  0  0
  3  4  1  0  0  0
  3  8  1  0  0  0
  4  5  1  0  0  0
  5  6  1  0  0  0
  6  7  1  0  0  0
  6 21  1  0  0  0
  7  8  1  0  0  0
 21 22  1  0  0  0
 22 23  2  0  0  0
 22 26  1  0  0  0
 23 24  1  0  0  0
 24 25  1  0  0  0
 25 26  2  0  0  0
 26 27  1  0  0  0
M  END
> <minimizedAffinity>
-9.53153

$$$$
473


 29 32  0  0  0  0  0  0  0  0999 V2000
   23.8739    4.1155   31.9824 C   0  0  0  0  0  0  0  0  0  0  0  0
   25.0810    3.2583   32.0146 C   0  0  0  0  0  0  0  0  0  0  0  0
   26.2060    3.6227   31.5839 O   0  0  0  0  0  0  0  0  0  0  0  0
   25.0167    1.9258   32.5599 N   0  0  0  0  0  0  0  0  0  0  0  0
   26.1892    1.0823   32.5975 C   0  0  0  0  0  0  0  0  0  0  0  0
   26.3607    0.3574   33.8904 C   0  0  0  0  0  0  0  0  0  0  0  0
   25.3247    0.6187   34.8611 N   0  0  0  0  0  0  0  0  0  0  0  0
   23.9672    0.9645   34.5348 C   0  0  0  0  0  0  0  0  0  0  0  0
   23.7871    1.3694   33.0921 C   0  0  0  0  0  0  0  0  0  0  0  0
   25.6729    0.5262   36.2461 C   0  0  0  0  0  0  0  0  0  0  0  0
   26.9189    0.8441   36.6907 N   0  0  0  0  0  0  0  0  0  0  0  0
   27.2828    0.7718   37.9701 C   0  0  0  0  0  0  0  0  0  0  0  0
   26.3516    0.3508   38.9077 C   0  0  0  0  0  0  0  0  0  0  0  0
   25.1012    0.0266   38.4987 N   0  0  0  0  0  0  0  0  0  0  0  0
   24.7714    0.1123   37.1999 C   0  0  0  0  0  0  0  0  0  0  0  0
   24.0610    5.4223   31.2649 C   0  0  0  0  0  0  0  0  0  0  0  0
   22.8042    5.8017   30.5738 C   0  0  0  0  0  0  0  0  0  0  0  0
   19.8857   12.4930   33.5316 Br  0  0  0  0  0  0  0  0  0  0  0  0
   20.1080   10.6472   33.1036 C   0  0  0  0  0  0  0  0  0  0  0  0
   21.1843   10.2655   32.3284 C   0  0  0  0  0  0  0  0  0  0  0  0
   21.3916    8.9408   31.9908 C   0  0  0  0  0  0  0  0  0  0  0  0
   20.4822    8.0107   32.4553 C   0  0  0  0  0  0  0  0  0  0  0  0
   19.4097    8.4037   33.2296 C   0  0  0  0  0  0  0  0  0  0  0  0
   19.1966    9.7238   33.5715 C   0  0  0  0  0  0  0  0  0  0  0  0
   20.9145    6.7115   31.9709 C   0  0  0  0  0  0  0  0  0  0  0  0
   20.2992    5.6243   32.2159 O   0  0  0  0  0  0  0  0  0  0  0  0
   22.0991    6.8929   31.2095 N   0  0  0  0  0  0  0  0  0  0  0  0
   22.4263    8.2600   31.1974 C   0  0  0  0  0  0  0  0  0  0  0  0
   23.4041    8.8215   30.6315 O   0  0  0  0  0  0  0  0  0  0  0  0
 18 19  1  0  0  0
 19 20  2  0  0  0
 19 24  1  0  0  0
 20 21  1  0  0  0
 21 22  2  0  0  0
 21 28  1  0  0  0
 22 23  1  0  0  0
 22 25  1  0  0  0
 23 24  2  0  0  0
 25 26  2  0  0  0
 25 27  1  0  0  0
 27 28  1  0  0  0
 27 17  1  0  0  0
 28 29  2  0  0  0
 17 16  1  0  0  0
 16  1  1  0  0  0
  1  2  1  0  0  0
  2  3  2  0  0  0
  2  4  1  0  0  0
  4  5  1  0  0  0
  4  9  1  0  0  0
  5  6  1  0  0  0
  6  7  1  0  0  0
  7  8  1  0  0  0
  7 10  1  0  0  0
  8  9  1  0  0  0
 10 11  2  0  0  0
 10 15  1  0  0  0
 11 12  1  0  0  0
 12 13  2  0  0  0
 13 14  1  0  0  0
 14 15  2  0  0  0
M  END
> <minimizedAffinity>
-8.57761

$$$$
483


 31 34  0  0  0  0  0  0  0  0999 V2000
   23.2338   10.8452   29.6265 N   0  0  0  0  0  0  0  0  0  0  0  0
   24.1138   11.6782   30.3605 C   0  0  0  0  0  0  0  0  0  0  0  0
   25.1841   11.1981   30.7986 O   0  0  0  0  0  0  0  0  0  0  0  0
   22.3402   11.2398   29.2699 H   0  0  0  0  0  0  0  0  0  0  0  0
   19.6818   11.0656   33.6373 Br  0  0  0  0  0  0  0  0  0  0  0  0
   20.4893    9.5703   32.7858 C   0  0  0  0  0  0  0  0  0  0  0  0
   21.4071    9.7252   31.7401 C   0  0  0  0  0  0  0  0  0  0  0  0
   21.9958    8.6442   31.1191 C   0  0  0  0  0  0  0  0  0  0  0  0
   21.6670    7.3516   31.5448 C   0  0  0  0  0  0  0  0  0  0  0  0
   20.7568    7.2108   32.5819 C   0  0  0  0  0  0  0  0  0  0  0  0
   20.1799    8.3012   33.1886 C   0  0  0  0  0  0  0  0  0  0  0  0
   22.3764    6.3813   30.7827 N   0  0  0  0  0  0  0  0  0  0  0  0
   23.1745    7.0929   29.8495 C   0  0  0  0  0  0  0  0  0  0  0  0
   23.9686    6.6607   28.9695 O   0  0  0  0  0  0  0  0  0  0  0  0
   22.9597    8.5446   30.0329 C   0  0  0  0  0  0  0  0  0  0  0  0
   23.5118    9.5007   29.3681 N   0  0  0  0  0  0  0  0  0  0  0  0
   22.3504    4.9351   30.8729 C   0  0  0  0  0  0  0  0  0  0  0  0
   23.6384    4.4304   31.3220 C   0  0  0  0  0  0  0  0  0  0  0  0
   24.7002    4.0174   31.7095 C   0  0  0  0  0  0  0  0  0  0  0  0
   23.7746   13.0735   30.6013 C   0  0  0  0  0  0  0  0  0  0  0  0
   23.9385   13.9092   29.4274 N   0  0  0  0  0  0  0  0  0  0  0  0
   24.5948   13.6112   28.3193 N   0  0  0  0  0  0  0  0  0  0  0  0
   24.5314   14.6167   27.4619 N   0  0  0  0  0  0  0  0  0  0  0  0
   23.8125   15.6003   28.0290 C   0  0  0  0  0  0  0  0  0  0  0  0
   23.4639   15.1319   29.2344 N   0  0  0  0  0  0  0  0  0  0  0  0
   23.5061   16.8882   27.4147 C   0  0  0  0  0  0  0  0  0  0  0  0
   24.0401   17.2122   26.1860 C   0  0  0  0  0  0  0  0  0  0  0  0
   23.7489   18.4438   25.5949 C   0  0  0  0  0  0  0  0  0  0  0  0
   22.9303   19.3639   26.2095 C   0  0  0  0  0  0  0  0  0  0  0  0
   22.3924   19.0406   27.4429 C   0  0  0  0  0  0  0  0  0  0  0  0
   22.6872   17.8145   28.0233 C   0  0  0  0  0  0  0  0  0  0  0  0
  5  6  1  0  0  0
  6  7  2  0  0  0
  6 11  1  0  0  0
  7  8  1  0  0  0
  8  9  2  0  0  0
  8 15  1  0  0  0
  9 10  1  0  0  0
  9 12  1  0  0  0
 10 11  2  0  0  0
 12 13  1  0  0  0
 12 17  1  0  0  0
 13 14  2  0  0  0
 13 15  1  0  0  0
 15 16  2  0  0  0
 16  1  1  0  0  0
  1  2  1  0  0  0
  2  3  2  0  0  0
  2 20  1  0  0  0
 20 21  1  0  0  0
 21 22  1  0  0  0
 21 25  1  0  0  0
 22 23  2  0  0  0
 23 24  1  0  0  0
 24 25  2  0  0  0
 24 26  1  0  0  0
 26 27  2  0  0  0
 26 31  1  0  0  0
 27 28  1  0  0  0
 28 29  2  0  0  0
 29 30  1  0  0  0
 30 31  2  0  0  0
 17 18  1  0  0  0
 18 19  3  0  0  0
  1  4  1  0  0  0
M  END
> <minimizedAffinity>
-9.73411

$$$$
484


 35 38  0  0  0  0  0  0  0  0999 V2000
   19.4716    6.7143   32.9880 Br  0  0  0  0  0  0  0  0  0  0  0  0
   20.3931    8.3338   32.5703 C   0  0  0  0  0  0  0  0  0  0  0  0
   21.4424    8.3626   31.6398 C   0  0  0  0  0  0  0  0  0  0  0  0
   22.0222    9.5776   31.4136 C   0  0  0  0  0  0  0  0  0  0  0  0
   21.6417   10.7464   32.0393 C   0  0  0  0  0  0  0  0  0  0  0  0
   20.6156   10.7139   32.9559 C   0  0  0  0  0  0  0  0  0  0  0  0
   19.9899    9.4847   33.2112 C   0  0  0  0  0  0  0  0  0  0  0  0
   22.4193   11.8566   31.6099 N   0  0  0  0  0  0  0  0  0  0  0  0
   23.3676   11.3321   30.6441 C   0  0  0  0  0  0  0  0  0  0  0  0
   24.2161   12.0105   30.0290 O   0  0  0  0  0  0  0  0  0  0  0  0
   23.1107    9.9122   30.5493 C   0  0  0  0  0  0  0  0  0  0  0  0
   23.7971    9.0188   29.9479 N   0  0  0  0  0  0  0  0  0  0  0  0
   23.9729    7.8826   29.7504 N   0  0  0  0  0  0  0  0  0  0  0  0
   24.1944    6.5108   29.4926 C   0  0  0  0  0  0  0  0  0  0  0  0
   24.7269    5.9245   28.5770 O   0  0  0  0  0  0  0  0  0  0  0  0
   24.4857    8.1134   28.4806 H   0  0  0  0  0  0  0  0  0  0  0  0
   23.5956    5.6744   30.6463 C   0  0  0  0  0  0  0  0  0  0  0  0
   24.3572    4.4481   30.6172 O   0  0  0  0  0  0  0  0  0  0  0  0
   24.4775    3.8003   31.8798 N   0  0  0  0  0  0  0  0  0  0  0  0
   25.0952    2.6911   32.0028 C   0  0  0  0  0  0  0  0  0  0  0  0
   25.1897    2.0458   33.2921 C   0  0  0  0  0  0  0  0  0  0  0  0
   24.1637    1.8613   34.1570 C   0  0  0  0  0  0  0  0  0  0  0  0
   24.4872    1.2709   35.4056 C   0  0  0  0  0  0  0  0  0  0  0  0
   25.6886    0.8669   35.8135 C   0  0  0  0  0  0  0  0  0  0  0  0
   26.6788    1.0684   34.9130 C   0  0  0  0  0  0  0  0  0  0  0  0
   26.5737    1.6192   33.6928 C   0  0  0  0  0  0  0  0  0  0  0  0
   25.8630    0.2906   37.0767 O   0  0  0  0  0  0  0  0  0  0  0  0
   26.6684    0.9293   38.0608 C   0  0  0  0  0  0  0  0  0  0  0  0
   22.3568   13.2734   31.9291 C   0  0  0  0  0  0  0  0  0  0  0  0
   21.6563   13.9886   30.9801 N   0  0  0  0  0  0  0  0  0  0  0  0
   20.2663   13.9551   31.1919 C   0  0  0  0  0  0  0  0  0  0  0  0
   19.6855   15.3598   31.0128 C   0  0  0  0  0  0  0  0  0  0  0  0
   20.4999   16.1567   31.8633 O   0  0  0  0  0  0  0  0  0  0  0  0
   21.7379   16.3692   31.2423 C   0  0  0  0  0  0  0  0  0  0  0  0
   22.2475   15.1726   30.5008 C   0  0  0  0  0  0  0  0  0  0  0  0
  1  2  1  0  0  0
  2  3  2  0  0  0
  2  7  1  0  0  0
  3  4  1  0  0  0
  4  5  2  0  0  0
  4 11  1  0  0  0
  5  6  1  0  0  0
  5  8  1  0  0  0
  6  7  2  0  0  0
  8  9  1  0  0  0
  8 29  1  0  0  0
  9 10  2  0  0  0
  9 11  1  0  0  0
 11 12  2  0  0  0
 12 13  1  0  0  0
 13 14  1  0  0  0
 14 15  2  0  0  0
 14 17  1  0  0  0
 17 18  1  0  0  0
 18 19  1  0  0  0
 19 20  2  0  0  0
 20 21  1  0  0  0
 21 22  2  0  0  0
 21 26  1  0  0  0
 22 23  1  0  0  0
 23 24  2  0  0  0
 24 25  1  0  0  0
 24 27  1  0  0  0
 25 26  2  0  0  0
 27 28  1  0  0  0
 29 30  1  0  0  0
 30 31  1  0  0  0
 30 35  1  0  0  0
 31 32  1  0  0  0
 32 33  1  0  0  0
 33 34  1  0  0  0
 34 35  1  0  0  0
 13 16  1  0  0  0
M  END
> <minimizedAffinity>
-9.00245

$$$$
485


 34 37  0  0  0  0  0  0  0  0999 V2000
   17.7874    8.6609   33.5678 Br  0  0  0  0  0  0  0  0  0  0  0  0
   19.5905    9.1477   33.1130 C   0  0  0  0  0  0  0  0  0  0  0  0
   19.8841   10.3649   32.5428 C   0  0  0  0  0  0  0  0  0  0  0  0
   21.1712   10.7612   32.1958 C   0  0  0  0  0  0  0  0  0  0  0  0
   22.2228    9.8733   32.4408 C   0  0  0  0  0  0  0  0  0  0  0  0
   21.9288    8.6525   33.0130 C   0  0  0  0  0  0  0  0  0  0  0  0
   20.6320    8.2766   33.3523 C   0  0  0  0  0  0  0  0  0  0  0  0
   23.4643   10.4566   32.0210 N   0  0  0  0  0  0  0  0  0  0  0  0
   23.1551   11.7432   31.5022 C   0  0  0  0  0  0  0  0  0  0  0  0
   23.9859   12.5553   31.0378 O   0  0  0  0  0  0  0  0  0  0  0  0
   21.7248   11.9625   31.5992 C   0  0  0  0  0  0  0  0  0  0  0  0
   21.0697   13.0059   31.2331 N   0  0  0  0  0  0  0  0  0  0  0  0
   21.6722   14.1227   30.6660 N   0  0  0  0  0  0  0  0  0  0  0  0
   21.3507   15.4107   31.1423 C   0  0  0  0  0  0  0  0  0  0  0  0
   20.5114   15.5830   32.0928 O   0  0  0  0  0  0  0  0  0  0  0  0
   22.3498   14.0011   29.9006 H   0  0  0  0  0  0  0  0  0  0  0  0
   21.9465   16.6557   30.5960 C   0  0  0  0  0  0  0  0  0  0  0  0
   22.9266   16.3386   29.6085 O   0  0  0  0  0  0  0  0  0  0  0  0
   22.9844   17.0699   28.4341 C   0  0  0  0  0  0  0  0  0  0  0  0
   23.5871   16.5361   27.3149 C   0  0  0  0  0  0  0  0  0  0  0  0
   23.6414   17.2768   26.1383 C   0  0  0  0  0  0  0  0  0  0  0  0
   23.0967   18.5454   26.0823 C   0  0  0  0  0  0  0  0  0  0  0  0
   22.5044   19.0598   27.1975 C   0  0  0  0  0  0  0  0  0  0  0  0
   22.4509   18.3216   28.3683 C   0  0  0  0  0  0  0  0  0  0  0  0
   24.1377   15.2798   27.3373 O   0  0  0  0  0  0  0  0  0  0  0  0
   25.5257   15.1098   27.4756 C   0  0  0  0  0  0  0  0  0  0  0  0
   24.7631    9.8138   32.1300 C   0  0  0  0  0  0  0  0  0  0  0  0
   25.1485    9.0487   30.9992 N   0  0  0  0  0  0  0  0  0  0  0  0
   24.1956    8.0993   30.5357 C   0  0  0  0  0  0  0  0  0  0  0  0
   24.7335    7.2716   29.3648 C   0  0  0  0  0  0  0  0  0  0  0  0
   26.1478    7.5058   29.3063 N   0  0  0  0  0  0  0  0  0  0  0  0
   26.4794    8.8505   28.9502 C   0  0  0  0  0  0  0  0  0  0  0  0
   25.8260    9.7734   29.9631 C   0  0  0  0  0  0  0  0  0  0  0  0
   26.8748    6.5015   28.5846 C   0  0  0  0  0  0  0  0  0  0  0  0
  1  2  1  0  0  0
  2  3  2  0  0  0
  2  7  1  0  0  0
  3  4  1  0  0  0
  4  5  2  0  0  0
  4 11  1  0  0  0
  5  6  1  0  0  0
  5  8  1  0  0  0
  6  7  2  0  0  0
  8  9  1  0  0  0
  8 27  1  0  0  0
  9 10  2  0  0  0
  9 11  1  0  0  0
 11 12  2  0  0  0
 12 13  1  0  0  0
 13 14  1  0  0  0
 14 15  2  0  0  0
 14 17  1  0  0  0
 17 18  1  0  0  0
 18 19  1  0  0  0
 19 20  2  0  0  0
 19 24  1  0  0  0
 20 21  1  0  0  0
 20 25  1  0  0  0
 21 22  2  0  0  0
 22 23  1  0  0  0
 23 24  2  0  0  0
 25 26  1  0  0  0
 27 28  1  0  0  0
 28 29  1  0  0  0
 28 33  1  0  0  0
 29 30  1  0  0  0
 30 31  1  0  0  0
 31 32  1  0  0  0
 31 34  1  0  0  0
 32 33  1  0  0  0
 13 16  1  0  0  0
M  END
> <minimizedAffinity>
-8.78697

$$$$
500


 32 35  0  0  0  0  0  0  0  0999 V2000
   27.6081   11.0802   28.0607 Br  0  0  0  0  0  0  0  0  0  0  0  0
   28.3286   12.4438   26.9081 C   0  0  0  0  0  0  0  0  0  0  0  0
   27.9678   12.5920   25.6005 C   0  0  0  0  0  0  0  0  0  0  0  0
   28.5277   13.5576   24.8042 C   0  0  0  0  0  0  0  0  0  0  0  0
   29.4654   14.3723   25.3730 C   0  0  0  0  0  0  0  0  0  0  0  0
   29.8516   14.2434   26.7134 C   0  0  0  0  0  0  0  0  0  0  0  0
   29.2822   13.2669   27.5046 C   0  0  0  0  0  0  0  0  0  0  0  0
   29.9868   15.2908   24.4325 N   0  0  0  0  0  0  0  0  0  0  0  0
   29.3535   15.0454   23.2162 C   0  0  0  0  0  0  0  0  0  0  0  0
   29.6036   15.6794   22.1577 O   0  0  0  0  0  0  0  0  0  0  0  0
   28.3536   13.9280   23.3886 C   0  0  0  0  0  0  0  0  0  0  0  0
   27.0747   14.5119   23.0153 C   0  0  0  0  0  0  0  0  0  0  0  0
   26.4192   14.0726   21.9058 C   0  0  0  0  0  0  0  0  0  0  0  0
   25.2744   14.8059   21.8151 N   0  0  0  0  0  0  0  0  0  0  0  0
   25.2222   15.6528   22.8104 N   0  0  0  0  0  0  0  0  0  0  0  0
   26.3107   15.5318   23.6049 C   0  0  0  0  0  0  0  0  0  0  0  0
   26.9215   13.0505   21.0757 O   0  0  0  0  0  0  0  0  0  0  0  0
   28.1358   12.4990   21.4359 C   0  0  0  0  0  0  0  0  0  0  0  0
   28.8084   12.8815   22.4845 C   0  0  0  0  0  0  0  0  0  0  0  0
   28.6546   11.4494   20.5843 N   0  0  0  0  0  0  0  0  0  0  0  0
   31.0111   16.3224   24.6940 C   0  0  0  0  0  0  0  0  0  0  0  0
   24.4542   16.3571   23.0111 H   0  0  0  0  0  0  0  0  0  0  0  0
   28.0697   10.9048   19.9271 H   0  0  0  0  0  0  0  0  0  0  0  0
   29.6642   11.2412   20.6424 H   0  0  0  0  0  0  0  0  0  0  0  0
   30.0925   12.2380   22.7784 C   0  0  0  0  0  0  0  0  0  0  0  0
   31.1056   11.7509   22.9998 N   0  0  0  0  0  0  0  0  0  0  0  0
   26.5613   16.3255   24.8348 C   0  0  0  0  0  0  0  0  0  0  0  0
   25.5857   17.4284   24.9759 C   0  0  0  0  0  0  0  0  0  0  0  0
   25.8070   18.6361   24.7039 O   0  0  0  0  0  0  0  0  0  0  0  0
   24.3313   17.1055   25.4436 O   0  0  0  0  0  0  0  0  0  0  0  0
   23.3966   17.9933   25.9968 C   0  0  0  0  0  0  0  0  0  0  0  0
   23.1735   17.6562   27.4523 C   0  0  0  0  0  0  0  0  0  0  0  0
  1  2  1  0  0  0
  2  3  2  0  0  0
  2  7  1  0  0  0
  3  4  1  0  0  0
  4  5  2  0  0  0
  4 11  1  0  0  0
  5  6  1  0  0  0
  5  8  1  0  0  0
  6  7  2  0  0  0
  8  9  1  0  0  0
  8 21  1  0  0  0
  9 10  2  0  0  0
  9 11  1  0  0  0
 11 12  1  0  0  0
 11 19  1  0  0  0
 12 13  1  0  0  0
 12 16  2  0  0  0
 13 14  2  0  0  0
 13 17  1  0  0  0
 14 15  1  0  0  0
 15 16  1  0  0  0
 16 27  1  0  0  0
 27 28  1  0  0  0
 28 29  2  0  0  0
 28 30  1  0  0  0
 30 31  1  0  0  0
 31 32  1  0  0  0
 17 18  1  0  0  0
 18 19  2  0  0  0
 18 20  1  0  0  0
 19 25  1  0  0  0
 25 26  3  0  0  0
 15 22  1  0  0  0
 20 23  1  0  0  0
 20 24  1  0  0  0
M  END
> <minimizedAffinity>
-6.02391

$$$$
502


 27 30  0  0  0  0  0  0  0  0999 V2000
   28.0910   10.2428   26.6648 Br  0  0  0  0  0  0  0  0  0  0  0  0
   28.7988   11.5836   25.4750 C   0  0  0  0  0  0  0  0  0  0  0  0
   27.9667   12.3923   24.7467 C   0  0  0  0  0  0  0  0  0  0  0  0
   28.4964   13.3454   23.9023 C   0  0  0  0  0  0  0  0  0  0  0  0
   29.8595   13.4421   23.8284 C   0  0  0  0  0  0  0  0  0  0  0  0
   30.7142   12.6095   24.5788 C   0  0  0  0  0  0  0  0  0  0  0  0
   30.1710   11.6688   25.4126 C   0  0  0  0  0  0  0  0  0  0  0  0
   30.2522   14.4661   22.9194 N   0  0  0  0  0  0  0  0  0  0  0  0
   29.0899   15.0438   22.3933 C   0  0  0  0  0  0  0  0  0  0  0  0
   29.0625   15.9903   21.5486 O   0  0  0  0  0  0  0  0  0  0  0  0
   27.8950   14.3547   22.9964 C   0  0  0  0  0  0  0  0  0  0  0  0
   27.1528   15.3906   23.7056 C   0  0  0  0  0  0  0  0  0  0  0  0
   25.8919   15.7372   23.3310 C   0  0  0  0  0  0  0  0  0  0  0  0
   25.4875   16.7212   24.1874 N   0  0  0  0  0  0  0  0  0  0  0  0
   26.4390   16.9863   25.0577 N   0  0  0  0  0  0  0  0  0  0  0  0
   27.4785   16.1954   24.8010 C   0  0  0  0  0  0  0  0  0  0  0  0
   28.7981   16.1096   25.5016 C   0  0  0  0  0  0  0  0  0  0  0  0
   25.2275   15.1341   22.2576 O   0  0  0  0  0  0  0  0  0  0  0  0
   25.9390   14.1470   21.5833 C   0  0  0  0  0  0  0  0  0  0  0  0
   27.1517   13.7711   21.8954 C   0  0  0  0  0  0  0  0  0  0  0  0
   25.2992   13.4832   20.4569 N   0  0  0  0  0  0  0  0  0  0  0  0
   31.6295   14.8571   22.5828 C   0  0  0  0  0  0  0  0  0  0  0  0
   26.4332   17.6901   25.8405 H   0  0  0  0  0  0  0  0  0  0  0  0
   25.4437   13.9498   19.5393 H   0  0  0  0  0  0  0  0  0  0  0  0
   24.7502   12.6305   20.5452 H   0  0  0  0  0  0  0  0  0  0  0  0
   27.7517   12.7081   21.0704 C   0  0  0  0  0  0  0  0  0  0  0  0
   28.2249   11.8506   20.4341 N   0  0  0  0  0  0  0  0  0  0  0  0
  1  2  1  0  0  0
  2  3  2  0  0  0
  2  7  1  0  0  0
  3  4  1  0  0  0
  4  5  2  0  0  0
  4 11  1  0  0  0
  5  6  1  0  0  0
  5  8  1  0  0  0
  6  7  2  0  0  0
  8  9  1  0  0  0
  8 22  1  0  0  0
  9 10  2  0  0  0
  9 11  1  0  0  0
 11 12  1  0  0  0
 11 20  1  0  0  0
 12 13  1  0  0  0
 12 16  2  0  0  0
 13 14  2  0  0  0
 13 18  1  0  0  0
 14 15  1  0  0  0
 15 16  1  0  0  0
 16 17  1  0  0  0
 18 19  1  0  0  0
 19 20  2  0  0  0
 19 21  1  0  0  0
 20 26  1  0  0  0
 26 27  3  0  0  0
 15 23  1  0  0  0
 21 24  1  0  0  0
 21 25  1  0  0  0
M  END
> <minimizedAffinity>
-5.62457

$$$$
504


 29 32  0  0  0  0  0  0  0  0999 V2000
   31.2485   19.0540   26.4353 Br  0  0  0  0  0  0  0  0  0  0  0  0
   30.4286   17.8102   25.2562 C   0  0  0  0  0  0  0  0  0  0  0  0
   29.6234   16.7845   25.6903 C   0  0  0  0  0  0  0  0  0  0  0  0
   29.0584   15.9126   24.7605 C   0  0  0  0  0  0  0  0  0  0  0  0
   29.2598   16.0194   23.4254 C   0  0  0  0  0  0  0  0  0  0  0  0
   30.0781   17.0630   22.9843 C   0  0  0  0  0  0  0  0  0  0  0  0
   30.6448   17.9334   23.8882 C   0  0  0  0  0  0  0  0  0  0  0  0
   28.5766   15.0156   22.6996 N   0  0  0  0  0  0  0  0  0  0  0  0
   27.8920   14.2111   23.6310 C   0  0  0  0  0  0  0  0  0  0  0  0
   27.1703   13.2113   23.3619 O   0  0  0  0  0  0  0  0  0  0  0  0
   28.1593   14.7376   24.9988 C   0  0  0  0  0  0  0  0  0  0  0  0
   28.8713   13.7219   25.8146 C   0  0  0  0  0  0  0  0  0  0  0  0
   28.4562   13.3480   26.9705 C   0  0  0  0  0  0  0  0  0  0  0  0
   27.2521   13.8848   27.5853 N   0  0  0  0  0  0  0  0  0  0  0  0
   26.5654   14.8526   26.8195 C   0  0  0  0  0  0  0  0  0  0  0  0
   26.9689   15.2466   25.6431 C   0  0  0  0  0  0  0  0  0  0  0  0
   25.3536   15.4247   27.3844 N   0  0  0  0  0  0  0  0  0  0  0  0
   29.4001   12.3213   27.5108 C   0  0  0  0  0  0  0  0  0  0  0  0
   30.3698   12.1692   26.5415 O   0  0  0  0  0  0  0  0  0  0  0  0
   30.1298   12.9813   25.4751 C   0  0  0  0  0  0  0  0  0  0  0  0
   30.7822   13.1297   24.3982 O   0  0  0  0  0  0  0  0  0  0  0  0
   28.6497   11.0407   27.8223 C   0  0  0  0  0  0  0  0  0  0  0  0
   30.0727   12.8243   28.7749 C   0  0  0  0  0  0  0  0  0  0  0  0
   28.5593   14.8128   21.2428 C   0  0  0  0  0  0  0  0  0  0  0  0
   26.9632   13.5479   28.5196 H   0  0  0  0  0  0  0  0  0  0  0  0
   24.4549   15.1637   26.9300 H   0  0  0  0  0  0  0  0  0  0  0  0
   25.3841   16.0595   28.1942 H   0  0  0  0  0  0  0  0  0  0  0  0
   26.1563   16.2529   24.9702 C   0  0  0  0  0  0  0  0  0  0  0  0
   25.4940   17.0471   24.4484 N   0  0  0  0  0  0  0  0  0  0  0  0
  1  2  1  0  0  0
  2  3  2  0  0  0
  2  7  1  0  0  0
  3  4  1  0  0  0
  4  5  2  0  0  0
  4 11  1  0  0  0
  5  6  1  0  0  0
  5  8  1  0  0  0
  6  7  2  0  0  0
  8  9  1  0  0  0
  8 24  1  0  0  0
  9 10  2  0  0  0
  9 11  1  0  0  0
 11 12  1  0  0  0
 11 16  1  0  0  0
 12 13  2  0  0  0
 12 20  1  0  0  0
 13 14  1  0  0  0
 13 18  1  0  0  0
 14 15  1  0  0  0
 15 16  2  0  0  0
 15 17  1  0  0  0
 16 28  1  0  0  0
 28 29  3  0  0  0
 18 19  1  0  0  0
 18 22  1  0  0  0
 18 23  1  0  0  0
 19 20  1  0  0  0
 20 21  2  0  0  0
 14 25  1  0  0  0
 17 26  1  0  0  0
 17 27  1  0  0  0
M  END
> <minimizedAffinity>
-6.09418

$$$$
505


 30 33  0  0  0  0  0  0  0  0999 V2000
   29.7286    3.9849   33.2760 Br  0  0  0  0  0  0  0  0  0  0  0  0
   28.7817    3.5310   31.6887 C   0  0  0  0  0  0  0  0  0  0  0  0
   28.1615    4.5185   30.9547 C   0  0  0  0  0  0  0  0  0  0  0  0
   27.4596    4.2112   29.7847 C   0  0  0  0  0  0  0  0  0  0  0  0
   27.4129    2.9096   29.4012 C   0  0  0  0  0  0  0  0  0  0  0  0
   28.0477    1.8997   30.1539 C   0  0  0  0  0  0  0  0  0  0  0  0
   28.7366    2.2106   31.3033 C   0  0  0  0  0  0  0  0  0  0  0  0
   26.6587    2.8103   28.2000 N   0  0  0  0  0  0  0  0  0  0  0  0
   26.2148    4.0869   27.8110 C   0  0  0  0  0  0  0  0  0  0  0  0
   25.5249    4.3858   26.8042 O   0  0  0  0  0  0  0  0  0  0  0  0
   26.7106    5.0697   28.8197 C   0  0  0  0  0  0  0  0  0  0  0  0
   25.5929    5.7556   29.4775 C   0  0  0  0  0  0  0  0  0  0  0  0
   25.5019    7.1093   29.5006 C   0  0  0  0  0  0  0  0  0  0  0  0
   26.4852    7.8915   28.8869 O   0  0  0  0  0  0  0  0  0  0  0  0
   27.5572    7.2949   28.2537 C   0  0  0  0  0  0  0  0  0  0  0  0
   27.6681    6.0014   28.2172 C   0  0  0  0  0  0  0  0  0  0  0  0
   28.5281    8.1628   27.6459 N   0  0  0  0  0  0  0  0  0  0  0  0
   24.4192    7.7193   30.1401 C   0  0  0  0  0  0  0  0  0  0  0  0
   24.3470    8.9657   30.1534 O   0  0  0  0  0  0  0  0  0  0  0  0
   23.4599    6.9366   30.7384 C   0  0  0  0  0  0  0  0  0  0  0  0
   23.6047    5.5664   30.6841 C   0  0  0  0  0  0  0  0  0  0  0  0
   24.6254    5.0594   30.0796 O   0  0  0  0  0  0  0  0  0  0  0  0
   26.4112    1.5301   27.5087 C   0  0  0  0  0  0  0  0  0  0  0  0
   29.5142    8.0116   27.8501 H   0  0  0  0  0  0  0  0  0  0  0  0
   28.1967    8.9035   27.0294 H   0  0  0  0  0  0  0  0  0  0  0  0
   22.5612    4.6835   31.3354 C   0  0  0  0  0  0  0  0  0  0  0  0
   21.3804    4.7531   30.5962 O   0  0  0  0  0  0  0  0  0  0  0  0
   21.3376    5.6420   30.1313 H   0  0  0  0  0  0  0  0  0  0  0  0
   28.8410    5.4529   27.5213 C   0  0  0  0  0  0  0  0  0  0  0  0
   29.7504    5.0354   26.9772 N   0  0  0  0  0  0  0  0  0  0  0  0
  1  2  1  0  0  0
  2  3  2  0  0  0
  2  7  1  0  0  0
  3  4  1  0  0  0
  4  5  2  0  0  0
  4 11  1  0  0  0
  5  6  1  0  0  0
  5  8  1  0  0  0
  6  7  2  0  0  0
  8  9  1  0  0  0
  8 23  1  0  0  0
  9 10  2  0  0  0
  9 11  1  0  0  0
 11 12  1  0  0  0
 11 16  1  0  0  0
 12 13  2  0  0  0
 12 22  1  0  0  0
 13 14  1  0  0  0
 13 18  1  0  0  0
 14 15  1  0  0  0
 15 16  2  0  0  0
 15 17  1  0  0  0
 16 29  1  0  0  0
 29 30  3  0  0  0
 18 19  2  0  0  0
 18 20  1  0  0  0
 20 21  2  0  0  0
 21 22  1  0  0  0
 21 26  1  0  0  0
 26 27  1  0  0  0
 17 24  1  0  0  0
 17 25  1  0  0  0
 27 28  1  0  0  0
M  END
> <minimizedAffinity>
-6.43174

$$$$
513


 33 36  0  0  0  0  0  0  0  0999 V2000
   23.2543   11.4033   30.0540 N   0  0  0  0  0  0  0  0  0  0  0  0
   22.6486   12.6235   30.4575 C   0  0  0  0  0  0  0  0  0  0  0  0
   21.4084   12.6722   30.4430 O   0  0  0  0  0  0  0  0  0  0  0  0
   24.2968   11.3691   30.0539 H   0  0  0  0  0  0  0  0  0  0  0  0
   22.5414   10.2842   29.6649 N   0  0  0  0  0  0  0  0  0  0  0  0
   21.4967   10.3534   29.5231 H   0  0  0  0  0  0  0  0  0  0  0  0
   18.7495    9.3667   33.4887 Br  0  0  0  0  0  0  0  0  0  0  0  0
   19.9494    8.1211   32.6680 C   0  0  0  0  0  0  0  0  0  0  0  0
   20.8589    8.5461   31.6999 C   0  0  0  0  0  0  0  0  0  0  0  0
   21.7436    7.6964   31.0724 C   0  0  0  0  0  0  0  0  0  0  0  0
   21.7024    6.3729   31.4423 C   0  0  0  0  0  0  0  0  0  0  0  0
   20.8014    5.9101   32.4124 C   0  0  0  0  0  0  0  0  0  0  0  0
   19.9398    6.7934   33.0099 C   0  0  0  0  0  0  0  0  0  0  0  0
   22.6830    5.6846   30.6785 N   0  0  0  0  0  0  0  0  0  0  0  0
   23.3548    6.5820   29.8138 C   0  0  0  0  0  0  0  0  0  0  0  0
   24.2766    6.3420   28.9969 O   0  0  0  0  0  0  0  0  0  0  0  0
   22.7658    7.9113   30.0426 C   0  0  0  0  0  0  0  0  0  0  0  0
   23.1117    9.0253   29.4345 C   0  0  0  0  0  0  0  0  0  0  0  0
   22.8919    4.6604   30.7367 H   0  0  0  0  0  0  0  0  0  0  0  0
   23.4219   13.8093   30.8884 C   0  0  0  0  0  0  0  0  0  0  0  0
   22.9013   14.9939   30.3865 N   0  0  0  0  0  0  0  0  0  0  0  0
   23.1650   15.6882   29.2807 C   0  0  0  0  0  0  0  0  0  0  0  0
   22.4000   16.8468   29.2846 C   0  0  0  0  0  0  0  0  0  0  0  0
   21.6735   16.8259   30.4180 N   0  0  0  0  0  0  0  0  0  0  0  0
   21.9686   15.7265   31.0734 C   0  0  0  0  0  0  0  0  0  0  0  0
   22.4874   17.7359   28.2320 C   0  0  0  0  0  0  0  0  0  0  0  0
   21.7839   18.7783   28.2654 O   0  0  0  0  0  0  0  0  0  0  0  0
   23.3168   17.4346   27.2442 N   0  0  0  0  0  0  0  0  0  0  0  0
   24.0512   16.3080   27.2496 C   0  0  0  0  0  0  0  0  0  0  0  0
   24.8233   16.0605   26.2933 O   0  0  0  0  0  0  0  0  0  0  0  0
   24.0019   15.3984   28.2634 N   0  0  0  0  0  0  0  0  0  0  0  0
   24.7714   14.1878   28.2221 C   0  0  0  0  0  0  0  0  0  0  0  0
   23.4503   18.3499   26.0986 C   0  0  0  0  0  0  0  0  0  0  0  0
  7  8  1  0  0  0
  8  9  2  0  0  0
  8 13  1  0  0  0
  9 10  1  0  0  0
 10 11  2  0  0  0
 10 17  1  0  0  0
 11 12  1  0  0  0
 11 14  1  0  0  0
 12 13  2  0  0  0
 14 15  1  0  0  0
 15 16  2  0  0  0
 15 17  1  0  0  0
 17 18  2  0  0  0
 18  5  1  0  0  0
  5  1  1  0  0  0
  1  2  1  0  0  0
  2  3  2  0  0  0
  2 20  1  0  0  0
 20 21  1  0  0  0
 21 22  1  0  0  0
 21 25  1  0  0  0
 22 23  2  0  0  0
 22 31  1  0  0  0
 23 24  1  0  0  0
 23 26  1  0  0  0
 24 25  2  0  0  0
 26 27  2  0  0  0
 26 28  1  0  0  0
 28 29  1  0  0  0
 28 33  1  0  0  0
 29 30  2  0  0  0
 29 31  1  0  0  0
 31 32  1  0  0  0
 14 19  1  0  0  0
  5  6  1  0  0  0
  1  4  1  0  0  0
M  END
> <minimizedAffinity>
-10.44507

$$$$
526


 31 34  0  0  0  0  0  0  0  0999 V2000
   21.5703   12.3390   32.2881 N   0  0  0  0  0  0  0  0  0  0  0  0
   21.9261   13.1155   31.1697 C   0  0  0  0  0  0  0  0  0  0  0  0
   22.1648   12.5102   30.0649 O   0  0  0  0  0  0  0  0  0  0  0  0
   21.3828   12.8218   33.2086 H   0  0  0  0  0  0  0  0  0  0  0  0
   23.1510    5.5362   30.6278 Br  0  0  0  0  0  0  0  0  0  0  0  0
   21.8025    6.5508   31.4963 C   0  0  0  0  0  0  0  0  0  0  0  0
   21.8781    7.9099   31.6081 C   0  0  0  0  0  0  0  0  0  0  0  0
   20.8943    8.6351   32.2444 C   0  0  0  0  0  0  0  0  0  0  0  0
   19.7985    8.0484   32.7934 C   0  0  0  0  0  0  0  0  0  0  0  0
   19.7128    6.6568   32.6832 C   0  0  0  0  0  0  0  0  0  0  0  0
   20.6896    5.9300   32.0506 C   0  0  0  0  0  0  0  0  0  0  0  0
   18.9376    8.9958   33.3875 N   0  0  0  0  0  0  0  0  0  0  0  0
   19.4988   10.3012   33.2274 C   0  0  0  0  0  0  0  0  0  0  0  0
   19.0897   11.4064   33.5891 O   0  0  0  0  0  0  0  0  0  0  0  0
   20.7750   10.0788   32.4845 C   0  0  0  0  0  0  0  0  0  0  0  0
   21.4723   10.9971   32.1856 N   0  0  0  0  0  0  0  0  0  0  0  0
   18.0304    8.8151   33.8803 H   0  0  0  0  0  0  0  0  0  0  0  0
   22.0540   14.5742   31.1009 C   0  0  0  0  0  0  0  0  0  0  0  0
   22.5837   15.1092   29.8788 N   0  0  0  0  0  0  0  0  0  0  0  0
   22.4194   16.4793   29.5298 C   0  0  0  0  0  0  0  0  0  0  0  0
   21.7629   17.1980   30.3798 O   0  0  0  0  0  0  0  0  0  0  0  0
   23.0879   14.5233   29.1958 H   0  0  0  0  0  0  0  0  0  0  0  0
   22.9034   17.1187   28.3449 C   0  0  0  0  0  0  0  0  0  0  0  0
   23.8578   16.5991   27.4831 C   0  0  0  0  0  0  0  0  0  0  0  0
   24.2668   17.2538   26.3717 C   0  0  0  0  0  0  0  0  0  0  0  0
   23.7455   18.4879   26.0386 C   0  0  0  0  0  0  0  0  0  0  0  0
   22.8101   19.0382   26.8570 C   0  0  0  0  0  0  0  0  0  0  0  0
   22.3712   18.3731   28.0117 C   0  0  0  0  0  0  0  0  0  0  0  0
   24.3447   18.9162   24.8427 O   0  0  0  0  0  0  0  0  0  0  0  0
   24.5968   17.6614   24.1656 C   0  0  0  0  0  0  0  0  0  0  0  0
   25.2070   16.9692   25.3127 O   0  0  0  0  0  0  0  0  0  0  0  0
  5  6  1  0  0  0
  6  7  2  0  0  0
  6 11  1  0  0  0
  7  8  1  0  0  0
  8  9  2  0  0  0
  8 15  1  0  0  0
  9 10  1  0  0  0
  9 12  1  0  0  0
 10 11  2  0  0  0
 12 13  1  0  0  0
 13 14  2  0  0  0
 13 15  1  0  0  0
 15 16  2  0  0  0
 16  1  1  0  0  0
  1  2  1  0  0  0
  2  3  2  0  0  0
  2 18  1  0  0  0
 18 19  1  0  0  0
 19 20  1  0  0  0
 20 21  2  0  0  0
 20 23  1  0  0  0
 23 24  2  0  0  0
 23 28  1  0  0  0
 24 25  1  0  0  0
 25 26  2  0  0  0
 25 31  1  0  0  0
 26 27  1  0  0  0
 26 29  1  0  0  0
 27 28  2  0  0  0
 29 30  1  0  0  0
 30 31  1  0  0  0
 12 17  1  0  0  0
  1  4  1  0  0  0
 19 22  1  0  0  0
M  END
> <minimizedAffinity>
-9.44364

$$$$
550


 30 35  0  0  0  0  0  0  0  0999 V2000
   18.4740   15.2474   30.8051 Br  0  0  0  0  0  0  0  0  0  0  0  0
   20.2648   14.8050   31.2899 C   0  0  0  0  0  0  0  0  0  0  0  0
   20.7901   13.5330   31.0952 C   0  0  0  0  0  0  0  0  0  0  0  0
   22.0765   13.2222   31.4457 C   0  0  0  0  0  0  0  0  0  0  0  0
   22.8434   14.2323   32.0067 C   0  0  0  0  0  0  0  0  0  0  0  0
   22.3286   15.4965   32.2031 C   0  0  0  0  0  0  0  0  0  0  0  0
   21.0343   15.7967   31.8476 C   0  0  0  0  0  0  0  0  0  0  0  0
   24.1535   13.7455   32.3086 N   0  0  0  0  0  0  0  0  0  0  0  0
   24.2289   12.3874   31.9313 C   0  0  0  0  0  0  0  0  0  0  0  0
   25.2393   11.6813   32.0603 O   0  0  0  0  0  0  0  0  0  0  0  0
   22.9068   12.0222   31.3795 C   0  0  0  0  0  0  0  0  0  0  0  0
   22.4371   10.8899   32.1199 N   0  0  0  0  0  0  0  0  0  0  0  0
   23.2207    9.7732   31.5953 C   0  0  0  0  0  0  0  0  0  0  0  0
   23.4781   10.0788   30.1564 C   0  0  0  0  0  0  0  0  0  0  0  0
   22.9975   11.4769   29.9760 C   0  0  0  0  0  0  0  0  0  0  0  0
   24.0205   12.1257   29.1624 C   0  0  0  0  0  0  0  0  0  0  0  0
   23.9496   13.2667   28.6534 O   0  0  0  0  0  0  0  0  0  0  0  0
   25.1253   11.2666   29.0295 N   0  0  0  0  0  0  0  0  0  0  0  0
   24.9393   10.0869   29.8270 C   0  0  0  0  0  0  0  0  0  0  0  0
   25.7885    9.2342   30.1880 O   0  0  0  0  0  0  0  0  0  0  0  0
   22.3014    8.5629   31.6670 C   0  0  0  0  0  0  0  0  0  0  0  0
   21.0102    9.0559   32.2861 C   0  0  0  0  0  0  0  0  0  0  0  0
   21.0559   10.5330   31.8716 C   0  0  0  0  0  0  0  0  0  0  0  0
   24.9266   14.3284   32.7459 H   0  0  0  0  0  0  0  0  0  0  0  0
   26.2829   11.5019   28.2253 C   0  0  0  0  0  0  0  0  0  0  0  0
   27.4542   10.6419   28.5316 C   0  0  0  0  0  0  0  0  0  0  0  0
   28.3801   11.2350   29.3823 O   0  0  0  0  0  0  0  0  0  0  0  0
   29.4691   10.3754   29.3320 C   0  0  0  0  0  0  0  0  0  0  0  0
   29.5867    9.8514   27.9351 C   0  0  0  0  0  0  0  0  0  0  0  0
   28.2022   10.1272   27.3496 C   0  0  0  0  0  0  0  0  0  0  0  0
  1  2  1  0  0  0
  2  3  2  0  0  0
  2  7  1  0  0  0
  3  4  1  0  0  0
  4  5  2  0  0  0
  4 11  1  0  0  0
  5  6  1  0  0  0
  5  8  1  0  0  0
  6  7  2  0  0  0
  8  9  1  0  0  0
  9 10  2  0  0  0
  9 11  1  0  0  0
 11 12  1  0  0  0
 11 15  1  0  0  0
 12 13  1  0  0  0
 12 23  1  0  0  0
 13 14  1  0  0  0
 13 21  1  0  0  0
 14 15  1  0  0  0
 14 19  1  0  0  0
 15 16  1  0  0  0
 16 17  2  0  0  0
 16 18  1  0  0  0
 18 19  1  0  0  0
 18 25  1  0  0  0
 19 20  2  0  0  0
 25 26  1  0  0  0
 26 27  1  0  0  0
 26 30  1  0  0  0
 27 28  1  0  0  0
 28 29  1  0  0  0
 29 30  1  0  0  0
 21 22  1  0  0  0
 22 23  1  0  0  0
  8 24  1  0  0  0
M  END
> <minimizedAffinity>
-8.10674

$$$$
556


 30 33  0  0  0  0  0  0  0  0999 V2000
   32.0221   18.2111   21.9168 Br  0  0  0  0  0  0  0  0  0  0  0  0
   31.4259   16.6709   22.8704 C   0  0  0  0  0  0  0  0  0  0  0  0
   30.0747   16.4256   22.8833 C   0  0  0  0  0  0  0  0  0  0  0  0
   29.5886   15.3073   23.5690 C   0  0  0  0  0  0  0  0  0  0  0  0
   30.4631   14.4897   24.2077 C   0  0  0  0  0  0  0  0  0  0  0  0
   31.8518   14.7227   24.2068 C   0  0  0  0  0  0  0  0  0  0  0  0
   32.3004   15.8289   23.5248 C   0  0  0  0  0  0  0  0  0  0  0  0
   29.7807   13.4248   24.8436 N   0  0  0  0  0  0  0  0  0  0  0  0
   28.4174   13.5874   24.5906 C   0  0  0  0  0  0  0  0  0  0  0  0
   27.4531   12.8320   25.0004 O   0  0  0  0  0  0  0  0  0  0  0  0
   28.2354   14.8052   23.7455 C   0  0  0  0  0  0  0  0  0  0  0  0
   27.5401   14.3689   22.5629 C   0  0  0  0  0  0  0  0  0  0  0  0
   26.2788   14.7582   22.3077 C   0  0  0  0  0  0  0  0  0  0  0  0
   25.9139   14.1747   21.1184 N   0  0  0  0  0  0  0  0  0  0  0  0
   26.9257   13.4588   20.6772 N   0  0  0  0  0  0  0  0  0  0  0  0
   27.9628   13.5290   21.5124 C   0  0  0  0  0  0  0  0  0  0  0  0
   29.2980   12.8746   21.3955 C   0  0  0  0  0  0  0  0  0  0  0  0
   25.5444   15.6073   23.1558 O   0  0  0  0  0  0  0  0  0  0  0  0
   26.1979   16.0398   24.3028 C   0  0  0  0  0  0  0  0  0  0  0  0
   27.4141   15.6960   24.6009 C   0  0  0  0  0  0  0  0  0  0  0  0
   25.5092   16.9147   25.2243 N   0  0  0  0  0  0  0  0  0  0  0  0
   30.1929   12.6329   25.4148 H   0  0  0  0  0  0  0  0  0  0  0  0
   24.9869   14.2825   20.6477 H   0  0  0  0  0  0  0  0  0  0  0  0
   25.0915   16.5002   26.0605 H   0  0  0  0  0  0  0  0  0  0  0  0
   25.4581   17.9134   25.0209 H   0  0  0  0  0  0  0  0  0  0  0  0
   28.0239   16.2172   25.8585 C   0  0  0  0  0  0  0  0  0  0  0  0
   27.8057   15.5930   26.9123 O   0  0  0  0  0  0  0  0  0  0  0  0
   28.8066   17.3384   25.9036 O   0  0  0  0  0  0  0  0  0  0  0  0
   30.0828   17.4043   26.4935 C   0  0  0  0  0  0  0  0  0  0  0  0
   30.7514   18.6861   25.9857 C   0  0  0  0  0  0  0  0  0  0  0  0
  1  2  1  0  0  0
  2  3  2  0  0  0
  2  7  1  0  0  0
  3  4  1  0  0  0
  4  5  2  0  0  0
  4 11  1  0  0  0
  5  6  1  0  0  0
  5  8  1  0  0  0
  6  7  2  0  0  0
  8  9  1  0  0  0
  9 10  2  0  0  0
  9 11  1  0  0  0
 11 12  1  0  0  0
 11 20  1  0  0  0
 12 13  2  0  0  0
 12 16  1  0  0  0
 13 14  1  0  0  0
 13 18  1  0  0  0
 14 15  1  0  0  0
 15 16  2  0  0  0
 16 17  1  0  0  0
 18 19  1  0  0  0
 19 20  2  0  0  0
 19 21  1  0  0  0
 20 26  1  0  0  0
 26 27  2  0  0  0
 26 28  1  0  0  0
 28 29  1  0  0  0
 29 30  1  0  0  0
  8 22  1  0  0  0
 14 23  1  0  0  0
 21 24  1  0  0  0
 21 25  1  0  0  0
M  END
> <minimizedAffinity>
-5.60908

$$$$
558


 29 32  0  0  0  0  0  0  0  0999 V2000
   31.4706   18.9063   26.8061 Br  0  0  0  0  0  0  0  0  0  0  0  0
   30.5789   17.8895   25.4727 C   0  0  0  0  0  0  0  0  0  0  0  0
   29.6573   16.8881   25.7945 C   0  0  0  0  0  0  0  0  0  0  0  0
   29.0180   16.1598   24.8266 C   0  0  0  0  0  0  0  0  0  0  0  0
   29.2859   16.4133   23.5133 C   0  0  0  0  0  0  0  0  0  0  0  0
   30.2021   17.4064   23.1399 C   0  0  0  0  0  0  0  0  0  0  0  0
   30.8272   18.1216   24.1329 C   0  0  0  0  0  0  0  0  0  0  0  0
   28.5305   15.5604   22.6700 N   0  0  0  0  0  0  0  0  0  0  0  0
   27.7523   14.7324   23.4977 C   0  0  0  0  0  0  0  0  0  0  0  0
   26.9417   13.8331   23.1515 O   0  0  0  0  0  0  0  0  0  0  0  0
   28.0251   15.0737   24.9110 C   0  0  0  0  0  0  0  0  0  0  0  0
   28.6007   13.8796   25.6108 C   0  0  0  0  0  0  0  0  0  0  0  0
   28.1159   13.3278   26.6919 C   0  0  0  0  0  0  0  0  0  0  0  0
   26.9508   13.8900   27.2651 N   0  0  0  0  0  0  0  0  0  0  0  0
   26.3346   15.0223   26.6723 C   0  0  0  0  0  0  0  0  0  0  0  0
   26.8183   15.5778   25.5886 C   0  0  0  0  0  0  0  0  0  0  0  0
   25.1382   15.5824   27.2792 N   0  0  0  0  0  0  0  0  0  0  0  0
   28.9756   12.1762   27.0593 C   0  0  0  0  0  0  0  0  0  0  0  0
   30.0005   12.1049   26.1020 O   0  0  0  0  0  0  0  0  0  0  0  0
   29.8020   13.1317   25.1999 C   0  0  0  0  0  0  0  0  0  0  0  0
   30.5455   13.3760   24.1882 O   0  0  0  0  0  0  0  0  0  0  0  0
   28.1980   10.8624   26.9534 C   0  0  0  0  0  0  0  0  0  0  0  0
   29.5342   12.3366   28.4662 C   0  0  0  0  0  0  0  0  0  0  0  0
   28.5616   15.5636   21.6025 H   0  0  0  0  0  0  0  0  0  0  0  0
   26.5158   13.4883   28.1355 H   0  0  0  0  0  0  0  0  0  0  0  0
   24.8422   16.5637   27.1512 H   0  0  0  0  0  0  0  0  0  0  0  0
   24.5611   14.9582   27.8658 H   0  0  0  0  0  0  0  0  0  0  0  0
   26.1215   16.7452   25.0396 C   0  0  0  0  0  0  0  0  0  0  0  0
   25.5700   17.6730   24.6248 N   0  0  0  0  0  0  0  0  0  0  0  0
  1  2  1  0  0  0
  2  3  2  0  0  0
  2  7  1  0  0  0
  3  4  1  0  0  0
  4  5  2  0  0  0
  4 11  1  0  0  0
  5  6  1  0  0  0
  5  8  1  0  0  0
  6  7  2  0  0  0
  8  9  1  0  0  0
  9 10  2  0  0  0
  9 11  1  0  0  0
 11 12  1  0  0  0
 11 16  1  0  0  0
 12 13  2  0  0  0
 12 20  1  0  0  0
 13 14  1  0  0  0
 13 18  1  0  0  0
 14 15  1  0  0  0
 15 16  2  0  0  0
 15 17  1  0  0  0
 16 28  1  0  0  0
 28 29  3  0  0  0
 18 19  1  0  0  0
 18 22  1  0  0  0
 18 23  1  0  0  0
 19 20  1  0  0  0
 20 21  2  0  0  0
  8 24  1  0  0  0
 14 25  1  0  0  0
 17 26  1  0  0  0
 17 27  1  0  0  0
M  END
> <minimizedAffinity>
-6.04989

$$$$
559


 32 35  0  0  0  0  0  0  0  0999 V2000
   28.7232    2.1012   32.9467 Br  0  0  0  0  0  0  0  0  0  0  0  0
   26.8757    2.5381   32.6624 C   0  0  0  0  0  0  0  0  0  0  0  0
   26.4945    3.6174   31.8869 C   0  0  0  0  0  0  0  0  0  0  0  0
   25.1693    3.9396   31.6772 C   0  0  0  0  0  0  0  0  0  0  0  0
   24.2367    3.1249   32.2853 C   0  0  0  0  0  0  0  0  0  0  0  0
   24.6163    2.0382   33.0667 C   0  0  0  0  0  0  0  0  0  0  0  0
   25.9311    1.7418   33.2573 C   0  0  0  0  0  0  0  0  0  0  0  0
   22.9227    3.6095   31.9661 N   0  0  0  0  0  0  0  0  0  0  0  0
   23.0394    4.7548   31.1400 C   0  0  0  0  0  0  0  0  0  0  0  0
   22.0642    5.4089   30.7030 O   0  0  0  0  0  0  0  0  0  0  0  0
   24.4783    5.0036   30.9131 C   0  0  0  0  0  0  0  0  0  0  0  0
   24.8501    6.3237   31.3453 N   0  0  0  0  0  0  0  0  0  0  0  0
   24.4416    7.1767   30.2488 C   0  0  0  0  0  0  0  0  0  0  0  0
   24.8628    6.4071   29.0253 C   0  0  0  0  0  0  0  0  0  0  0  0
   24.7559    4.9630   29.4527 C   0  0  0  0  0  0  0  0  0  0  0  0
   26.0324    4.3468   29.0644 C   0  0  0  0  0  0  0  0  0  0  0  0
   26.3277    3.1264   29.1222 O   0  0  0  0  0  0  0  0  0  0  0  0
   26.9411    5.3659   28.5883 N   0  0  0  0  0  0  0  0  0  0  0  0
   26.2819    6.6195   28.6670 C   0  0  0  0  0  0  0  0  0  0  0  0
   26.8422    7.7223   28.4604 O   0  0  0  0  0  0  0  0  0  0  0  0
   22.0496    3.1559   32.3127 H   0  0  0  0  0  0  0  0  0  0  0  0
   25.8781    6.3716   31.4320 H   0  0  0  0  0  0  0  0  0  0  0  0
   28.2868    5.1664   28.1111 C   0  0  0  0  0  0  0  0  0  0  0  0
   28.6528    6.1502   27.0262 C   0  0  0  0  0  0  0  0  0  0  0  0
   29.2557    5.3152   29.2880 C   0  0  0  0  0  0  0  0  0  0  0  0
   28.4527    3.7790   27.5312 C   0  0  0  0  0  0  0  0  0  0  0  0
   25.0905    8.5294   30.3657 C   0  0  0  0  0  0  0  0  0  0  0  0
   24.4089    9.3574   31.3741 C   0  0  0  0  0  0  0  0  0  0  0  0
   23.4039    8.8812   31.9695 O   0  0  0  0  0  0  0  0  0  0  0  0
   24.7997   10.6713   31.7371 N   0  0  0  0  0  0  0  0  0  0  0  0
   25.0260   11.4296   31.0774 H   0  0  0  0  0  0  0  0  0  0  0  0
   24.8618   10.8810   32.7680 H   0  0  0  0  0  0  0  0  0  0  0  0
  1  2  1  0  0  0
  2  3  2  0  0  0
  2  7  1  0  0  0
  3  4  1  0  0  0
  4  5  2  0  0  0
  4 11  1  0  0  0
  5  6  1  0  0  0
  5  8  1  0  0  0
  6  7  2  0  0  0
  8  9  1  0  0  0
  9 10  2  0  0  0
  9 11  1  0  0  0
 11 12  1  0  0  0
 11 15  1  0  0  0
 12 13  1  0  0  0
 13 14  1  0  0  0
 13 27  1  0  0  0
 14 15  1  0  0  0
 14 19  1  0  0  0
 15 16  1  0  0  0
 16 17  2  0  0  0
 16 18  1  0  0  0
 18 19  1  0  0  0
 18 23  1  0  0  0
 19 20  2  0  0  0
 23 24  1  0  0  0
 23 25  1  0  0  0
 23 26  1  0  0  0
 27 28  1  0  0  0
 28 29  2  0  0  0
 28 30  1  0  0  0
  8 21  1  0  0  0
 12 22  1  0  0  0
 30 31  1  0  0  0
 30 32  1  0  0  0
M  END
> <minimizedAffinity>
-7.21905

$$$$
566


 30 33  0  0  0  0  0  0  0  0999 V2000
   27.3811    1.5017   33.6896 Br  0  0  0  0  0  0  0  0  0  0  0  0
   25.7952    2.3559   33.0603 C   0  0  0  0  0  0  0  0  0  0  0  0
   25.8521    3.2885   32.0557 C   0  0  0  0  0  0  0  0  0  0  0  0
   24.6894    3.9248   31.5842 C   0  0  0  0  0  0  0  0  0  0  0  0
   23.4617    3.6360   32.1109 C   0  0  0  0  0  0  0  0  0  0  0  0
   23.4039    2.6824   33.1374 C   0  0  0  0  0  0  0  0  0  0  0  0
   24.5530    2.0725   33.5838 C   0  0  0  0  0  0  0  0  0  0  0  0
   22.4448    4.3992   31.4774 N   0  0  0  0  0  0  0  0  0  0  0  0
   23.0715    5.2086   30.5023 C   0  0  0  0  0  0  0  0  0  0  0  0
   22.4117    6.0115   29.7626 O   0  0  0  0  0  0  0  0  0  0  0  0
   24.5000    4.9455   30.5302 C   0  0  0  0  0  0  0  0  0  0  0  0
   25.0352    4.5144   29.2534 N   0  0  0  0  0  0  0  0  0  0  0  0
   25.4193    5.7292   28.5576 C   0  0  0  0  0  0  0  0  0  0  0  0
   26.0459    6.5349   29.6590 C   0  0  0  0  0  0  0  0  0  0  0  0
   25.2394    6.2218   30.8731 C   0  0  0  0  0  0  0  0  0  0  0  0
   24.3422    7.3720   31.0651 C   0  0  0  0  0  0  0  0  0  0  0  0
   23.2930    7.4543   31.7842 O   0  0  0  0  0  0  0  0  0  0  0  0
   24.8107    8.4733   30.2972 N   0  0  0  0  0  0  0  0  0  0  0  0
   25.8562    7.9902   29.4777 C   0  0  0  0  0  0  0  0  0  0  0  0
   26.5632    8.6775   28.6798 O   0  0  0  0  0  0  0  0  0  0  0  0
   21.4257    4.3324   31.7298 H   0  0  0  0  0  0  0  0  0  0  0  0
   24.3695    3.9321   28.7141 H   0  0  0  0  0  0  0  0  0  0  0  0
   26.3722    5.3862   27.4562 C   0  0  0  0  0  0  0  0  0  0  0  0
   25.6580    4.6874   26.4749 O   0  0  0  0  0  0  0  0  0  0  0  0
   27.4472    4.4596   27.9684 C   0  0  0  0  0  0  0  0  0  0  0  0
   26.1724    3.9027   26.1543 H   0  0  0  0  0  0  0  0  0  0  0  0
   24.3167    9.8355   30.3404 C   0  0  0  0  0  0  0  0  0  0  0  0
   24.8698   10.6073   31.4945 C   0  0  0  0  0  0  0  0  0  0  0  0
   24.2190   11.9955   31.4514 C   0  0  0  0  0  0  0  0  0  0  0  0
   22.7396   11.8748   31.2096 C   0  0  0  0  0  0  0  0  0  0  0  0
  1  2  1  0  0  0
  2  3  2  0  0  0
  2  7  1  0  0  0
  3  4  1  0  0  0
  4  5  2  0  0  0
  4 11  1  0  0  0
  5  6  1  0  0  0
  5  8  1  0  0  0
  6  7  2  0  0  0
  8  9  1  0  0  0
  9 10  2  0  0  0
  9 11  1  0  0  0
 11 12  1  0  0  0
 11 15  1  0  0  0
 12 13  1  0  0  0
 13 14  1  0  0  0
 13 23  1  0  0  0
 14 15  1  0  0  0
 14 19  1  0  0  0
 15 16  1  0  0  0
 16 17  2  0  0  0
 16 18  1  0  0  0
 18 19  1  0  0  0
 18 27  1  0  0  0
 19 20  2  0  0  0
 27 28  1  0  0  0
 28 29  1  0  0  0
 29 30  1  0  0  0
 23 24  1  0  0  0
 23 25  1  0  0  0
  8 21  1  0  0  0
 12 22  1  0  0  0
 24 26  1  0  0  0
M  END
> <minimizedAffinity>
-7.11652

$$$$
571


 34 38  0  0  0  0  0  0  0  0999 V2000
   30.8350    5.7935   31.9026 Br  0  0  0  0  0  0  0  0  0  0  0  0
   30.3378    6.1745   30.0989 C   0  0  0  0  0  0  0  0  0  0  0  0
   29.3575    5.4709   29.4353 C   0  0  0  0  0  0  0  0  0  0  0  0
   29.0005    5.7506   28.1075 C   0  0  0  0  0  0  0  0  0  0  0  0
   29.6712    6.7698   27.4766 C   0  0  0  0  0  0  0  0  0  0  0  0
   30.6594    7.4839   28.1392 C   0  0  0  0  0  0  0  0  0  0  0  0
   31.0020    7.1994   29.4426 C   0  0  0  0  0  0  0  0  0  0  0  0
   29.2181    6.9268   26.1459 N   0  0  0  0  0  0  0  0  0  0  0  0
   28.2143    5.9615   25.9237 C   0  0  0  0  0  0  0  0  0  0  0  0
   27.6125    5.8485   24.8190 O   0  0  0  0  0  0  0  0  0  0  0  0
   28.0390    5.1783   27.1647 C   0  0  0  0  0  0  0  0  0  0  0  0
   28.3253    3.7613   26.9201 N   0  0  0  0  0  0  0  0  0  0  0  0
   27.4475    3.0297   27.8057 C   0  0  0  0  0  0  0  0  0  0  0  0
   26.2701    3.8762   28.0901 C   0  0  0  0  0  0  0  0  0  0  0  0
   26.6077    5.2517   27.5446 C   0  0  0  0  0  0  0  0  0  0  0  0
   26.2257    6.1925   28.5909 C   0  0  0  0  0  0  0  0  0  0  0  0
   26.4493    7.4285   28.6020 O   0  0  0  0  0  0  0  0  0  0  0  0
   25.5331    5.5011   29.6524 N   0  0  0  0  0  0  0  0  0  0  0  0
   25.9780    4.1355   29.5139 C   0  0  0  0  0  0  0  0  0  0  0  0
   26.0881    3.3295   30.4500 O   0  0  0  0  0  0  0  0  0  0  0  0
   29.5696    7.6395   25.4487 H   0  0  0  0  0  0  0  0  0  0  0  0
   29.3292    3.5364   27.1066 H   0  0  0  0  0  0  0  0  0  0  0  0
   27.1039    1.6857   27.2084 C   0  0  0  0  0  0  0  0  0  0  0  0
   28.2534    1.0561   26.7711 O   0  0  0  0  0  0  0  0  0  0  0  0
   26.2975    0.8267   28.1521 C   0  0  0  0  0  0  0  0  0  0  0  0
   28.0857    0.1493   26.4515 H   0  0  0  0  0  0  0  0  0  0  0  0
   24.5992    6.0092   30.6057 C   0  0  0  0  0  0  0  0  0  0  0  0
   23.1827    5.5346   30.4603 C   0  0  0  0  0  0  0  0  0  0  0  0
   22.1796    6.3408   31.1773 C   0  0  0  0  0  0  0  0  0  0  0  0
   21.0614    5.7157   31.7155 C   0  0  0  0  0  0  0  0  0  0  0  0
   20.1450    6.4417   32.3993 C   0  0  0  0  0  0  0  0  0  0  0  0
   20.2674    7.7874   32.5926 C   0  0  0  0  0  0  0  0  0  0  0  0
   21.3872    8.4009   32.0522 C   0  0  0  0  0  0  0  0  0  0  0  0
   22.3243    7.6912   31.3580 C   0  0  0  0  0  0  0  0  0  0  0  0
  1  2  1  0  0  0
  2  3  2  0  0  0
  2  7  1  0  0  0
  3  4  1  0  0  0
  4  5  2  0  0  0
  4 11  1  0  0  0
  5  6  1  0  0  0
  5  8  1  0  0  0
  6  7  2  0  0  0
  8  9  1  0  0  0
  9 10  2  0  0  0
  9 11  1  0  0  0
 11 12  1  0  0  0
 11 15  1  0  0  0
 12 13  1  0  0  0
 13 14  1  0  0  0
 13 23  1  0  0  0
 14 15  1  0  0  0
 14 19  1  0  0  0
 15 16  1  0  0  0
 16 17  2  0  0  0
 16 18  1  0  0  0
 18 19  1  0  0  0
 18 27  1  0  0  0
 19 20  2  0  0  0
 27 28  1  0  0  0
 28 29  1  0  0  0
 29 30  2  0  0  0
 29 34  1  0  0  0
 30 31  1  0  0  0
 31 32  2  0  0  0
 32 33  1  0  0  0
 33 34  2  0  0  0
 23 24  1  0  0  0
 23 25  1  0  0  0
  8 21  1  0  0  0
 12 22  1  0  0  0
 24 26  1  0  0  0
M  END
> <minimizedAffinity>
-7.93070

$$$$
578


 27 30  0  0  0  0  0  0  0  0999 V2000
   20.8271    8.2032   32.1479 Br  0  0  0  0  0  0  0  0  0  0  0  0
   20.8986   10.1071   32.2800 C   0  0  0  0  0  0  0  0  0  0  0  0
   21.7407   10.8638   31.5045 C   0  0  0  0  0  0  0  0  0  0  0  0
   21.8206   12.2660   31.5746 C   0  0  0  0  0  0  0  0  0  0  0  0
   21.0018   12.8818   32.4729 C   0  0  0  0  0  0  0  0  0  0  0  0
   20.1320   12.1218   33.2775 C   0  0  0  0  0  0  0  0  0  0  0  0
   20.0779   10.7507   33.1852 C   0  0  0  0  0  0  0  0  0  0  0  0
   21.1774   14.2912   32.4315 N   0  0  0  0  0  0  0  0  0  0  0  0
   22.1561   14.5619   31.4552 C   0  0  0  0  0  0  0  0  0  0  0  0
   22.5759   15.7299   31.1205 O   0  0  0  0  0  0  0  0  0  0  0  0
   22.6044   13.2749   30.8935 C   0  0  0  0  0  0  0  0  0  0  0  0
   22.2062   13.3604   29.4769 N   0  0  0  0  0  0  0  0  0  0  0  0
   23.3607   13.6864   28.6992 C   0  0  0  0  0  0  0  0  0  0  0  0
   24.4976   13.1272   29.4723 C   0  0  0  0  0  0  0  0  0  0  0  0
   24.0787   13.1078   30.9174 C   0  0  0  0  0  0  0  0  0  0  0  0
   24.6219   11.8645   31.4148 C   0  0  0  0  0  0  0  0  0  0  0  0
   24.7398   11.5600   32.6382 O   0  0  0  0  0  0  0  0  0  0  0  0
   24.9988   11.0481   30.3148 N   0  0  0  0  0  0  0  0  0  0  0  0
   24.6495   11.6865   29.0951 C   0  0  0  0  0  0  0  0  0  0  0  0
   24.5179   11.1115   27.9965 O   0  0  0  0  0  0  0  0  0  0  0  0
   23.5186   15.1559   28.3862 C   0  0  0  0  0  0  0  0  0  0  0  0
   20.6754   15.0210   33.0176 H   0  0  0  0  0  0  0  0  0  0  0  0
   21.7597   12.4710   29.1621 H   0  0  0  0  0  0  0  0  0  0  0  0
   25.6455    9.7531   30.4784 C   0  0  0  0  0  0  0  0  0  0  0  0
   24.6832    8.6982   30.9338 C   0  0  0  0  0  0  0  0  0  0  0  0
   23.7702    8.2158   29.8389 C   0  0  0  0  0  0  0  0  0  0  0  0
   23.7999    6.6842   29.8928 C   0  0  0  0  0  0  0  0  0  0  0  0
  1  2  1  0  0  0
  2  3  2  0  0  0
  2  7  1  0  0  0
  3  4  1  0  0  0
  4  5  2  0  0  0
  4 11  1  0  0  0
  5  6  1  0  0  0
  5  8  1  0  0  0
  6  7  2  0  0  0
  8  9  1  0  0  0
  9 10  2  0  0  0
  9 11  1  0  0  0
 11 12  1  0  0  0
 11 15  1  0  0  0
 12 13  1  0  0  0
 13 14  1  0  0  0
 13 21  1  0  0  0
 14 15  1  0  0  0
 14 19  1  0  0  0
 15 16  1  0  0  0
 16 17  2  0  0  0
 16 18  1  0  0  0
 18 19  1  0  0  0
 18 24  1  0  0  0
 19 20  2  0  0  0
 24 25  1  0  0  0
 25 26  1  0  0  0
 26 27  1  0  0  0
  8 22  1  0  0  0
 12 23  1  0  0  0
M  END
> <minimizedAffinity>
-8.21816

$$$$
579


 32 35  0  0  0  0  0  0  0  0999 V2000
   22.7170   15.4938   33.1081 Br  0  0  0  0  0  0  0  0  0  0  0  0
   22.9047   14.2223   31.6989 C   0  0  0  0  0  0  0  0  0  0  0  0
   22.6903   12.8735   31.8754 C   0  0  0  0  0  0  0  0  0  0  0  0
   22.8286   11.9490   30.8408 C   0  0  0  0  0  0  0  0  0  0  0  0
   23.1938   12.3899   29.5934 C   0  0  0  0  0  0  0  0  0  0  0  0
   23.4170   13.7415   29.3850 C   0  0  0  0  0  0  0  0  0  0  0  0
   23.2704   14.6483   30.4414 C   0  0  0  0  0  0  0  0  0  0  0  0
   23.2721   11.2869   28.6855 N   0  0  0  0  0  0  0  0  0  0  0  0
   22.9421   10.1048   29.3948 C   0  0  0  0  0  0  0  0  0  0  0  0
   22.9119    8.9762   28.8672 O   0  0  0  0  0  0  0  0  0  0  0  0
   22.6641   10.4682   30.7751 C   0  0  0  0  0  0  0  0  0  0  0  0
   21.2778   10.0926   31.0507 N   0  0  0  0  0  0  0  0  0  0  0  0
   21.2707    9.5960   32.3942 C   0  0  0  0  0  0  0  0  0  0  0  0
   22.5627    8.8737   32.5143 C   0  0  0  0  0  0  0  0  0  0  0  0
   23.5242    9.7982   31.8046 C   0  0  0  0  0  0  0  0  0  0  0  0
   24.5665    8.9210   31.2894 C   0  0  0  0  0  0  0  0  0  0  0  0
   25.7026    9.2768   30.9094 O   0  0  0  0  0  0  0  0  0  0  0  0
   24.0594    7.5922   31.2956 N   0  0  0  0  0  0  0  0  0  0  0  0
   22.6716    7.6352   31.7045 C   0  0  0  0  0  0  0  0  0  0  0  0
   21.8504    6.7617   31.3815 O   0  0  0  0  0  0  0  0  0  0  0  0
   23.5356   11.3717   27.6643 H   0  0  0  0  0  0  0  0  0  0  0  0
   20.9797    9.3121   30.4182 H   0  0  0  0  0  0  0  0  0  0  0  0
   24.8277    6.4311   30.9508 C   0  0  0  0  0  0  0  0  0  0  0  0
   24.6955    5.9732   29.5366 C   0  0  0  0  0  0  0  0  0  0  0  0
   25.4211    6.7415   28.6412 O   0  0  0  0  0  0  0  0  0  0  0  0
   26.7929    6.5619   28.8026 C   0  0  0  0  0  0  0  0  0  0  0  0
   20.0577    8.8006   32.7359 C   0  0  0  0  0  0  0  0  0  0  0  0
   19.0208    9.6828   33.2828 C   0  0  0  0  0  0  0  0  0  0  0  0
   17.9479    9.1853   33.7279 O   0  0  0  0  0  0  0  0  0  0  0  0
   19.2073   11.0964   33.3202 N   0  0  0  0  0  0  0  0  0  0  0  0
   18.7577   11.6653   34.0660 H   0  0  0  0  0  0  0  0  0  0  0  0
   19.7971   11.5541   32.5955 H   0  0  0  0  0  0  0  0  0  0  0  0
  1  2  1  0  0  0
  2  3  2  0  0  0
  2  7  1  0  0  0
  3  4  1  0  0  0
  4  5  2  0  0  0
  4 11  1  0  0  0
  5  6  1  0  0  0
  5  8  1  0  0  0
  6  7  2  0  0  0
  8  9  1  0  0  0
  9 10  2  0  0  0
  9 11  1  0  0  0
 11 12  1  0  0  0
 11 15  1  0  0  0
 12 13  1  0  0  0
 13 14  1  0  0  0
 13 27  1  0  0  0
 14 15  1  0  0  0
 14 19  1  0  0  0
 15 16  1  0  0  0
 16 17  2  0  0  0
 16 18  1  0  0  0
 18 19  1  0  0  0
 18 23  1  0  0  0
 19 20  2  0  0  0
 23 24  1  0  0  0
 24 25  1  0  0  0
 25 26  1  0  0  0
 27 28  1  0  0  0
 28 29  2  0  0  0
 28 30  1  0  0  0
  8 21  1  0  0  0
 12 22  1  0  0  0
 30 31  1  0  0  0
 30 32  1  0  0  0
M  END
> <minimizedAffinity>
-7.00525

$$$$
588


 24 27  0  0  0  0  0  0  0  0999 V2000
   26.6539    2.4662   31.0822 Br  0  0  0  0  0  0  0  0  0  0  0  0
   25.1165    3.5702   31.3026 C   0  0  0  0  0  0  0  0  0  0  0  0
   24.9620    4.6397   30.4694 C   0  0  0  0  0  0  0  0  0  0  0  0
   23.8544    5.4591   30.6073 C   0  0  0  0  0  0  0  0  0  0  0  0
   22.9050    5.1956   31.5871 C   0  0  0  0  0  0  0  0  0  0  0  0
   23.0470    4.1178   32.4371 C   0  0  0  0  0  0  0  0  0  0  0  0
   24.1637    3.3315   32.2634 C   0  0  0  0  0  0  0  0  0  0  0  0
   21.7383    5.9588   31.8200 N   0  0  0  0  0  0  0  0  0  0  0  0
   20.6784    5.4274   32.4406 N   0  0  0  0  0  0  0  0  0  0  0  0
   19.7837    6.3763   32.4981 N   0  0  0  0  0  0  0  0  0  0  0  0
   20.2454    7.4820   31.9366 N   0  0  0  0  0  0  0  0  0  0  0  0
   21.5098    7.2197   31.4956 C   0  0  0  0  0  0  0  0  0  0  0  0
   22.3372    8.2665   30.8016 C   0  0  0  0  0  0  0  0  0  0  0  0
   23.0445    7.6926   29.6597 N   0  0  0  0  0  0  0  0  0  0  0  0
   23.8818    6.5430   29.6177 C   0  0  0  0  0  0  0  0  0  0  0  0
   24.7064    6.4432   28.6666 O   0  0  0  0  0  0  0  0  0  0  0  0
   23.3970    8.6798   31.7868 C   0  0  0  0  0  0  0  0  0  0  0  0
   23.9414   10.0188   31.4104 C   0  0  0  0  0  0  0  0  0  0  0  0
   22.9114   10.9170   31.5035 O   0  0  0  0  0  0  0  0  0  0  0  0
   21.8937   10.7456   30.6045 C   0  0  0  0  0  0  0  0  0  0  0  0
   21.4544    9.3692   30.3448 C   0  0  0  0  0  0  0  0  0  0  0  0
   24.9954   10.4441   32.4406 C   0  0  0  0  0  0  0  0  0  0  0  0
   24.6316   10.0318   30.0728 C   0  0  0  0  0  0  0  0  0  0  0  0
   22.9314    8.1872   28.7235 H   0  0  0  0  0  0  0  0  0  0  0  0
  1  2  1  0  0  0
  2  3  2  0  0  0
  2  7  1  0  0  0
  3  4  1  0  0  0
  4  5  2  0  0  0
  4 15  1  0  0  0
  5  6  1  0  0  0
  5  8  1  0  0  0
  6  7  2  0  0  0
  8  9  1  0  0  0
  8 12  1  0  0  0
  9 10  2  0  0  0
 10 11  1  0  0  0
 11 12  2  0  0  0
 12 13  1  0  0  0
 13 14  1  0  0  0
 13 17  1  0  0  0
 13 21  1  0  0  0
 14 15  1  0  0  0
 15 16  2  0  0  0
 17 18  1  0  0  0
 18 19  1  0  0  0
 18 22  1  0  0  0
 18 23  1  0  0  0
 19 20  1  0  0  0
 20 21  1  0  0  0
 14 24  1  0  0  0
M  END
> <minimizedAffinity>
-7.88516

$$$$
591


 23 26  0  0  0  0  0  0  0  0999 V2000
   23.6724    1.5917   33.3678 Br  0  0  0  0  0  0  0  0  0  0  0  0
   24.0623    3.1879   32.3744 C   0  0  0  0  0  0  0  0  0  0  0  0
   23.1055    4.1692   32.2267 C   0  0  0  0  0  0  0  0  0  0  0  0
   23.3911    5.3143   31.5125 C   0  0  0  0  0  0  0  0  0  0  0  0
   24.6184    5.5393   30.9188 C   0  0  0  0  0  0  0  0  0  0  0  0
   25.5727    4.5373   31.0772 C   0  0  0  0  0  0  0  0  0  0  0  0
   25.2950    3.3903   31.7909 C   0  0  0  0  0  0  0  0  0  0  0  0
   25.0692    6.6398   30.1634 N   0  0  0  0  0  0  0  0  0  0  0  0
   26.1726    6.6215   29.4334 N   0  0  0  0  0  0  0  0  0  0  0  0
   26.2975    7.8090   28.8620 N   0  0  0  0  0  0  0  0  0  0  0  0
   25.2865    8.5595   29.2293 N   0  0  0  0  0  0  0  0  0  0  0  0
   24.4819    7.8496   30.0587 C   0  0  0  0  0  0  0  0  0  0  0  0
   23.2723    8.4529   30.6212 C   0  0  0  0  0  0  0  0  0  0  0  0
   22.2043    7.5686   30.9366 N   0  0  0  0  0  0  0  0  0  0  0  0
   22.2657    6.2493   31.4540 C   0  0  0  0  0  0  0  0  0  0  0  0
   21.2226    5.7493   31.9542 O   0  0  0  0  0  0  0  0  0  0  0  0
   23.5795    9.2361   31.9071 C   0  0  0  0  0  0  0  0  0  0  0  0
   22.6509   10.4213   31.9851 C   0  0  0  0  0  0  0  0  0  0  0  0
   23.1558   11.4287   31.0799 N   0  0  0  0  0  0  0  0  0  0  0  0
   23.4394   10.8180   29.8083 C   0  0  0  0  0  0  0  0  0  0  0  0
   22.7568    9.4850   29.6244 C   0  0  0  0  0  0  0  0  0  0  0  0
   24.3569   12.0035   31.6839 C   0  0  0  0  0  0  0  0  0  0  0  0
   21.2494    7.9441   30.7637 H   0  0  0  0  0  0  0  0  0  0  0  0
  1  2  1  0  0  0
  2  3  2  0  0  0
  2  7  1  0  0  0
  3  4  1  0  0  0
  4  5  2  0  0  0
  4 15  1  0  0  0
  5  6  1  0  0  0
  5  8  1  0  0  0
  6  7  2  0  0  0
  8  9  1  0  0  0
  8 12  1  0  0  0
  9 10  2  0  0  0
 10 11  1  0  0  0
 11 12  2  0  0  0
 12 13  1  0  0  0
 13 14  1  0  0  0
 13 17  1  0  0  0
 13 21  1  0  0  0
 14 15  1  0  0  0
 15 16  2  0  0  0
 17 18  1  0  0  0
 18 19  1  0  0  0
 19 20  1  0  0  0
 19 22  1  0  0  0
 20 21  1  0  0  0
 14 23  1  0  0  0
M  END
> <minimizedAffinity>
-8.56101

$$$$
592


 27 30  0  0  0  0  0  0  0  0999 V2000
   28.0095   10.5807   27.8320 Br  0  0  0  0  0  0  0  0  0  0  0  0
   26.4582   11.5697   28.3036 C   0  0  0  0  0  0  0  0  0  0  0  0
   25.6550   11.1025   29.3066 C   0  0  0  0  0  0  0  0  0  0  0  0
   24.5125   11.8313   29.6528 C   0  0  0  0  0  0  0  0  0  0  0  0
   24.2389   12.9778   28.9835 C   0  0  0  0  0  0  0  0  0  0  0  0
   25.0698   13.4565   27.9494 C   0  0  0  0  0  0  0  0  0  0  0  0
   26.1906   12.7374   27.6117 C   0  0  0  0  0  0  0  0  0  0  0  0
   23.1219   13.7346   29.2885 O   0  0  0  0  0  0  0  0  0  0  0  0
   22.2850   13.2994   30.2932 C   0  0  0  0  0  0  0  0  0  0  0  0
   22.4850   12.2024   30.9838 C   0  0  0  0  0  0  0  0  0  0  0  0
   23.6330   11.3412   30.7348 C   0  0  0  0  0  0  0  0  0  0  0  0
   23.2540    9.9234   30.5242 C   0  0  0  0  0  0  0  0  0  0  0  0
   23.7988    9.1737   31.5294 C   0  0  0  0  0  0  0  0  0  0  0  0
   23.4473    7.8687   31.3326 N   0  0  0  0  0  0  0  0  0  0  0  0
   22.7105    7.8411   30.2364 N   0  0  0  0  0  0  0  0  0  0  0  0
   22.5668    9.0651   29.7124 C   0  0  0  0  0  0  0  0  0  0  0  0
   21.7889    9.3634   28.4718 C   0  0  0  0  0  0  0  0  0  0  0  0
   24.5325    9.9797   32.4261 N   0  0  0  0  0  0  0  0  0  0  0  0
   24.4498   11.3045   31.9672 C   0  0  0  0  0  0  0  0  0  0  0  0
   24.9718   12.3245   32.4913 O   0  0  0  0  0  0  0  0  0  0  0  0
   21.1288   14.0962   30.5980 N   0  0  0  0  0  0  0  0  0  0  0  0
   22.3103    6.9388   29.8647 H   0  0  0  0  0  0  0  0  0  0  0  0
   25.0520    9.6206   33.2947 H   0  0  0  0  0  0  0  0  0  0  0  0
   20.7240   14.7165   29.8638 H   0  0  0  0  0  0  0  0  0  0  0  0
   20.6703   14.0805   31.5365 H   0  0  0  0  0  0  0  0  0  0  0  0
   21.5617   11.8124   32.0226 C   0  0  0  0  0  0  0  0  0  0  0  0
   20.8190   11.4819   32.8472 N   0  0  0  0  0  0  0  0  0  0  0  0
  1  2  1  0  0  0
  2  3  2  0  0  0
  2  7  1  0  0  0
  3  4  1  0  0  0
  4  5  2  0  0  0
  4 11  1  0  0  0
  5  6  1  0  0  0
  5  8  1  0  0  0
  6  7  2  0  0  0
  8  9  1  0  0  0
  9 10  2  0  0  0
  9 21  1  0  0  0
 10 11  1  0  0  0
 10 26  1  0  0  0
 11 12  1  0  0  0
 11 19  1  0  0  0
 12 13  1  0  0  0
 12 16  2  0  0  0
 13 14  2  0  0  0
 13 18  1  0  0  0
 14 15  1  0  0  0
 15 16  1  0  0  0
 16 17  1  0  0  0
 18 19  1  0  0  0
 19 20  2  0  0  0
 26 27  3  0  0  0
 15 22  1  0  0  0
 18 23  1  0  0  0
 21 24  1  0  0  0
 21 25  1  0  0  0
M  END
> <minimizedAffinity>
-6.11669

$$$$
596


 29 32  0  0  0  0  0  0  0  0999 V2000
   23.3740    9.8620   30.7048 C   0  0  0  0  0  0  0  0  0  0  0  0
   24.5000    9.5002   29.9828 C   0  0  0  0  0  0  0  0  0  0  0  0
   24.7887    8.1702   29.7619 C   0  0  0  0  0  0  0  0  0  0  0  0
   25.8402    7.9175   29.0932 O   0  0  0  0  0  0  0  0  0  0  0  0
   24.0131    7.2369   30.2217 O   0  0  0  0  0  0  0  0  0  0  0  0
   22.9596    7.5024   30.8934 C   0  0  0  0  0  0  0  0  0  0  0  0
   22.5901    8.8335   31.1662 C   0  0  0  0  0  0  0  0  0  0  0  0
   21.4526    9.0867   31.8759 C   0  0  0  0  0  0  0  0  0  0  0  0
   20.6962    7.9931   32.3114 C   0  0  0  0  0  0  0  0  0  0  0  0
   21.0881    6.6993   32.0307 C   0  0  0  0  0  0  0  0  0  0  0  0
   22.2278    6.4078   31.3153 C   0  0  0  0  0  0  0  0  0  0  0  0
   20.2566    5.6690   32.5210 O   0  0  0  0  0  0  0  0  0  0  0  0
   18.3748   15.7818   30.9454 Br  0  0  0  0  0  0  0  0  0  0  0  0
   20.0825   15.0140   31.2352 C   0  0  0  0  0  0  0  0  0  0  0  0
   20.3447   13.6938   30.9174 C   0  0  0  0  0  0  0  0  0  0  0  0
   21.5777   13.0951   31.1006 C   0  0  0  0  0  0  0  0  0  0  0  0
   22.5919   13.8681   31.6283 C   0  0  0  0  0  0  0  0  0  0  0  0
   22.3888   15.1976   31.9669 C   0  0  0  0  0  0  0  0  0  0  0  0
   21.1466   15.7543   31.7701 C   0  0  0  0  0  0  0  0  0  0  0  0
   23.7918   13.3151   31.8158 O   0  0  0  0  0  0  0  0  0  0  0  0
   24.0557   12.0894   31.5287 C   0  0  0  0  0  0  0  0  0  0  0  0
   25.1955   11.5561   31.7021 O   0  0  0  0  0  0  0  0  0  0  0  0
   23.0858   11.2646   30.9999 C   0  0  0  0  0  0  0  0  0  0  0  0
   21.8287   11.7830   30.7865 C   0  0  0  0  0  0  0  0  0  0  0  0
   22.6226    5.0350   31.1497 C   0  0  0  0  0  0  0  0  0  0  0  0
   23.7770    4.4709   31.7200 N   0  0  0  0  0  0  0  0  0  0  0  0
   23.5971    3.4945   32.7585 C   0  0  0  0  0  0  0  0  0  0  0  0
   24.7593    4.0374   30.6934 C   0  0  0  0  0  0  0  0  0  0  0  0
   24.2913    5.2567   32.2140 H   0  0  0  0  0  0  0  0  0  0  0  0
 13 14  1  0  0  0
 14 15  2  0  0  0
 14 19  1  0  0  0
 15 16  1  0  0  0
 16 17  2  0  0  0
 16 24  1  0  0  0
 17 18  1  0  0  0
 17 20  1  0  0  0
 18 19  2  0  0  0
 20 21  1  0  0  0
 21 22  2  0  0  0
 21 23  1  0  0  0
 23 24  2  0  0  0
 23  1  1  0  0  0
  1  2  2  0  0  0
  1  7  1  0  0  0
  2  3  1  0  0  0
  3  4  2  0  0  0
  3  5  1  0  0  0
  5  6  1  0  0  0
  6  7  2  0  0  0
  6 11  1  0  0  0
  7  8  1  0  0  0
  8  9  2  0  0  0
  9 10  1  0  0  0
 10 11  2  0  0  0
 10 12  1  0  0  0
 11 25  1  0  0  0
 25 26  1  0  0  0
 26 27  1  0  0  0
 26 28  1  0  0  0
 26 29  1  0  0  0
M  CHG 1  12  -1
M  CHG 1  26   1
M  END
> <minimizedAffinity>
-10.08020

$$$$
610


 32 35  0  0  0  0  0  0  0  0999 V2000
   19.7917    7.1918   33.1522 Br  0  0  0  0  0  0  0  0  0  0  0  0
   21.1968    6.7113   31.9539 C   0  0  0  0  0  0  0  0  0  0  0  0
   22.1148    7.6624   31.5173 C   0  0  0  0  0  0  0  0  0  0  0  0
   23.1379    7.3137   30.6462 C   0  0  0  0  0  0  0  0  0  0  0  0
   23.2525    6.0134   30.2038 C   0  0  0  0  0  0  0  0  0  0  0  0
   24.2543    5.6699   29.3554 N   0  0  0  0  0  0  0  0  0  0  0  0
   25.1559    6.5692   28.9226 C   0  0  0  0  0  0  0  0  0  0  0  0
   25.0287    7.8268   29.3626 N   0  0  0  0  0  0  0  0  0  0  0  0
   24.0612    8.2378   30.2027 C   0  0  0  0  0  0  0  0  0  0  0  0
   22.3240    5.0831   30.6527 C   0  0  0  0  0  0  0  0  0  0  0  0
   21.3015    5.4075   31.5174 C   0  0  0  0  0  0  0  0  0  0  0  0
   26.2019    6.1684   28.0286 N   0  0  0  0  0  0  0  0  0  0  0  0
   25.9172    4.8663   27.4897 C   0  0  0  0  0  0  0  0  0  0  0  0
   26.1442    3.7415   28.4417 C   0  0  0  0  0  0  0  0  0  0  0  0
   26.8966    4.1456   29.6087 N   0  0  0  0  0  0  0  0  0  0  0  0
   27.9582    5.1052   29.3977 C   0  0  0  0  0  0  0  0  0  0  0  0
   27.5089    6.2881   28.5973 C   0  0  0  0  0  0  0  0  0  0  0  0
   26.5560    3.5880   30.8645 C   0  0  0  0  0  0  0  0  0  0  0  0
   25.6227    2.7622   30.9694 O   0  0  0  0  0  0  0  0  0  0  0  0
   26.1183    6.8414   27.2089 H   0  0  0  0  0  0  0  0  0  0  0  0
   27.3648    4.0377   32.0345 C   0  0  0  0  0  0  0  0  0  0  0  0
   27.9479    2.8753   32.7798 C   0  0  0  0  0  0  0  0  0  0  0  0
   28.9550    3.2692   33.7768 C   0  0  0  0  0  0  0  0  0  0  0  0
   28.9149    2.8424   34.9494 O   0  0  0  0  0  0  0  0  0  0  0  0
   29.9695    4.1293   33.4098 O   0  0  0  0  0  0  0  0  0  0  0  0
   24.0121    9.6293   30.6217 C   0  0  0  0  0  0  0  0  0  0  0  0
   23.0979   10.5031   30.0495 C   0  0  0  0  0  0  0  0  0  0  0  0
   23.0126   11.8252   30.4302 C   0  0  0  0  0  0  0  0  0  0  0  0
   23.8407   12.3384   31.4070 C   0  0  0  0  0  0  0  0  0  0  0  0
   24.7552   11.4624   31.9789 C   0  0  0  0  0  0  0  0  0  0  0  0
   24.8340   10.1427   31.5920 C   0  0  0  0  0  0  0  0  0  0  0  0
   22.0252    9.8750   28.7962 Cl  0  0  0  0  0  0  0  0  0  0  0  0
  1  2  1  0  0  0
  2  3  2  0  0  0
  2 11  1  0  0  0
  3  4  1  0  0  0
  4  5  2  0  0  0
  4  9  1  0  0  0
  5  6  1  0  0  0
  5 10  1  0  0  0
  6  7  2  0  0  0
  7  8  1  0  0  0
  7 12  1  0  0  0
  8  9  2  0  0  0
  9 26  1  0  0  0
 26 27  2  0  0  0
 26 31  1  0  0  0
 27 28  1  0  0  0
 27 32  1  0  0  0
 28 29  2  0  0  0
 29 30  1  0  0  0
 30 31  2  0  0  0
 12 13  1  0  0  0
 12 17  1  0  0  0
 13 14  1  0  0  0
 14 15  1  0  0  0
 15 16  1  0  0  0
 15 18  1  0  0  0
 16 17  1  0  0  0
 18 19  2  0  0  0
 18 21  1  0  0  0
 21 22  1  0  0  0
 22 23  1  0  0  0
 23 24  2  0  0  0
 23 25  1  0  0  0
 10 11  2  0  0  0
 12 20  1  0  0  0
M  CHG 1  12   1
M  END
> <minimizedAffinity>
-8.23331

$$$$
611


 33 36  0  0  0  0  0  0  0  0999 V2000
   18.6983    9.1314   33.3441 Br  0  0  0  0  0  0  0  0  0  0  0  0
   20.0867    8.0238   32.6363 C   0  0  0  0  0  0  0  0  0  0  0  0
   21.2586    8.5525   32.1251 C   0  0  0  0  0  0  0  0  0  0  0  0
   22.2770    7.7817   31.6082 C   0  0  0  0  0  0  0  0  0  0  0  0
   22.1498    6.4050   31.5859 C   0  0  0  0  0  0  0  0  0  0  0  0
   23.1368    5.6283   31.0743 N   0  0  0  0  0  0  0  0  0  0  0  0
   24.2715    6.1433   30.5716 C   0  0  0  0  0  0  0  0  0  0  0  0
   24.3973    7.4825   30.5937 N   0  0  0  0  0  0  0  0  0  0  0  0
   23.4418    8.3016   31.0927 C   0  0  0  0  0  0  0  0  0  0  0  0
   20.9869    5.8692   32.0936 C   0  0  0  0  0  0  0  0  0  0  0  0
   19.9629    6.6519   32.6132 C   0  0  0  0  0  0  0  0  0  0  0  0
   25.2864    5.2969   30.0434 N   0  0  0  0  0  0  0  0  0  0  0  0
   25.2070    5.2297   28.6012 C   0  0  0  0  0  0  0  0  0  0  0  0
   26.5148    4.7276   28.0763 C   0  0  0  0  0  0  0  0  0  0  0  0
   27.2610    4.1450   29.1729 N   0  0  0  0  0  0  0  0  0  0  0  0
   26.5360    3.2756   30.0821 C   0  0  0  0  0  0  0  0  0  0  0  0
   25.2395    3.9491   30.5480 C   0  0  0  0  0  0  0  0  0  0  0  0
   28.6276    4.4435   29.3027 C   0  0  0  0  0  0  0  0  0  0  0  0
   29.2517    3.9297   30.2638 O   0  0  0  0  0  0  0  0  0  0  0  0
   26.2024    5.7077   30.3202 H   0  0  0  0  0  0  0  0  0  0  0  0
   29.3337    5.3220   28.3677 C   0  0  0  0  0  0  0  0  0  0  0  0
   29.5639    6.6633   29.0019 C   0  0  0  0  0  0  0  0  0  0  0  0
   29.3913    7.8060   28.0258 C   0  0  0  0  0  0  0  0  0  0  0  0
   27.9885    8.0086   27.6128 C   0  0  0  0  0  0  0  0  0  0  0  0
   27.7350    7.9572   26.3862 O   0  0  0  0  0  0  0  0  0  0  0  0
   27.0099    8.2446   28.5666 O   0  0  0  0  0  0  0  0  0  0  0  0
   23.6290    9.7445   31.0895 C   0  0  0  0  0  0  0  0  0  0  0  0
   23.0514   10.5556   30.1249 C   0  0  0  0  0  0  0  0  0  0  0  0
   23.2378   11.9263   30.0996 C   0  0  0  0  0  0  0  0  0  0  0  0
   24.0437   12.4865   31.0978 C   0  0  0  0  0  0  0  0  0  0  0  0
   24.6332   11.7082   32.0719 C   0  0  0  0  0  0  0  0  0  0  0  0
   24.4230   10.3662   32.0568 C   0  0  0  0  0  0  0  0  0  0  0  0
   22.0450    9.8265   28.8838 Cl  0  0  0  0  0  0  0  0  0  0  0  0
  1  2  1  0  0  0
  2  3  2  0  0  0
  2 11  1  0  0  0
  3  4  1  0  0  0
  4  5  2  0  0  0
  4  9  1  0  0  0
  5  6  1  0  0  0
  5 10  1  0  0  0
  6  7  2  0  0  0
  7  8  1  0  0  0
  7 12  1  0  0  0
  8  9  2  0  0  0
  9 27  1  0  0  0
 27 28  2  0  0  0
 27 32  1  0  0  0
 28 29  1  0  0  0
 28 33  1  0  0  0
 29 30  2  0  0  0
 30 31  1  0  0  0
 31 32  2  0  0  0
 12 13  1  0  0  0
 12 17  1  0  0  0
 13 14  1  0  0  0
 14 15  1  0  0  0
 15 16  1  0  0  0
 15 18  1  0  0  0
 16 17  1  0  0  0
 18 19  2  0  0  0
 18 21  1  0  0  0
 21 22  1  0  0  0
 22 23  1  0  0  0
 23 24  1  0  0  0
 24 25  2  0  0  0
 24 26  1  0  0  0
 10 11  2  0  0  0
 12 20  1  0  0  0
M  CHG 1  12   1
M  END
> <minimizedAffinity>
-8.13368

$$$$
616


 28 31  0  0  0  0  0  0  0  0999 V2000
   23.0058    7.2254   31.1360 C   0  0  0  0  0  0  0  0  0  0  0  0
   21.8258    6.7832   31.4106 O   0  0  0  0  0  0  0  0  0  0  0  0
   23.3089    8.4917   31.6373 N   0  0  0  0  0  0  0  0  0  0  0  0
   24.5424    9.2088   31.4582 C   0  0  0  0  0  0  0  0  0  0  0  0
   24.5005   10.6016   32.1004 C   0  0  0  0  0  0  0  0  0  0  0  0
   23.2673   11.2597   31.6974 N   0  0  0  0  0  0  0  0  0  0  0  0
   22.0089   10.5122   31.7017 C   0  0  0  0  0  0  0  0  0  0  0  0
   22.2953    9.2102   32.4550 C   0  0  0  0  0  0  0  0  0  0  0  0
   23.2579   12.6135   31.2956 C   0  0  0  0  0  0  0  0  0  0  0  0
   24.3562   13.2193   31.2988 O   0  0  0  0  0  0  0  0  0  0  0  0
   27.5356    1.3916   28.4286 Br  0  0  0  0  0  0  0  0  0  0  0  0
   26.5885    3.0516   28.5957 C   0  0  0  0  0  0  0  0  0  0  0  0
   25.8249    3.3422   29.6966 C   0  0  0  0  0  0  0  0  0  0  0  0
   25.1375    4.5537   29.8104 C   0  0  0  0  0  0  0  0  0  0  0  0
   25.2210    5.4789   28.8064 C   0  0  0  0  0  0  0  0  0  0  0  0
   24.4651    6.5651   29.1571 N   0  0  0  0  0  0  0  0  0  0  0  0
   23.8898    6.3879   30.3494 C   0  0  0  0  0  0  0  0  0  0  0  0
   24.3237    5.1024   30.7605 C   0  0  0  0  0  0  0  0  0  0  0  0
   25.9891    5.1939   27.6933 C   0  0  0  0  0  0  0  0  0  0  0  0
   26.6678    3.9882   27.5888 C   0  0  0  0  0  0  0  0  0  0  0  0
   24.3959    7.3838   28.5353 H   0  0  0  0  0  0  0  0  0  0  0  0
   22.0028   13.2333   30.9013 C   0  0  0  0  0  0  0  0  0  0  0  0
   21.2049   13.7479   31.9920 N   0  0  0  0  0  0  0  0  0  0  0  0
   19.8563   14.0369   31.4992 C   0  0  0  0  0  0  0  0  0  0  0  0
   19.7090   15.4777   31.1520 C   0  0  0  0  0  0  0  0  0  0  0  0
   20.8941   15.9805   30.6204 O   0  0  0  0  0  0  0  0  0  0  0  0
   21.8902   16.0670   31.5958 C   0  0  0  0  0  0  0  0  0  0  0  0
   21.7742   14.9397   32.5960 C   0  0  0  0  0  0  0  0  0  0  0  0
 11 12  1  0  0  0
 12 13  2  0  0  0
 12 20  1  0  0  0
 13 14  1  0  0  0
 14 15  2  0  0  0
 14 18  1  0  0  0
 15 16  1  0  0  0
 15 19  1  0  0  0
 16 17  1  0  0  0
 17 18  2  0  0  0
 17  1  1  0  0  0
  1  2  2  0  0  0
  1  3  1  0  0  0
  3  4  1  0  0  0
  3  8  1  0  0  0
  4  5  1  0  0  0
  5  6  1  0  0  0
  6  7  1  0  0  0
  6  9  1  0  0  0
  7  8  1  0  0  0
  9 10  2  0  0  0
  9 22  1  0  0  0
 22 23  1  0  0  0
 23 24  1  0  0  0
 23 28  1  0  0  0
 24 25  1  0  0  0
 25 26  1  0  0  0
 26 27  1  0  0  0
 27 28  1  0  0  0
 19 20  2  0  0  0
 16 21  1  0  0  0
M  END
> <minimizedAffinity>
-8.34414

$$$$
617


 25 28  0  0  0  0  0  0  0  0999 V2000
   19.7414   12.3255   33.5543 Br  0  0  0  0  0  0  0  0  0  0  0  0
   19.9291   10.4898   33.0926 C   0  0  0  0  0  0  0  0  0  0  0  0
   21.0792   10.0118   32.4994 C   0  0  0  0  0  0  0  0  0  0  0  0
   21.2310    8.6833   32.1583 C   0  0  0  0  0  0  0  0  0  0  0  0
   20.1862    7.8194   32.4268 C   0  0  0  0  0  0  0  0  0  0  0  0
   20.5982    6.6126   31.9987 N   0  0  0  0  0  0  0  0  0  0  0  0
   21.8487    6.6812   31.4775 C   0  0  0  0  0  0  0  0  0  0  0  0
   22.2679    7.9912   31.5706 C   0  0  0  0  0  0  0  0  0  0  0  0
   23.4945    8.3064   31.1099 N   0  0  0  0  0  0  0  0  0  0  0  0
   24.3127    7.3845   30.5678 C   0  0  0  0  0  0  0  0  0  0  0  0
   23.9320    6.1042   30.4650 N   0  0  0  0  0  0  0  0  0  0  0  0
   22.7144    5.7695   30.9169 C   0  0  0  0  0  0  0  0  0  0  0  0
   22.3402    4.5733   30.8284 O   0  0  0  0  0  0  0  0  0  0  0  0
   19.0389    8.3115   33.0209 C   0  0  0  0  0  0  0  0  0  0  0  0
   18.8780    9.6386   33.3649 C   0  0  0  0  0  0  0  0  0  0  0  0
   20.0534    5.7319   32.0486 H   0  0  0  0  0  0  0  0  0  0  0  0
   24.8213    5.0911   29.8709 C   0  0  0  0  0  0  0  0  0  0  0  0
   26.0130    5.7348   29.2740 C   0  0  0  0  0  0  0  0  0  0  0  0
   26.2026    5.5622   27.8798 N   0  0  0  0  0  0  0  0  0  0  0  0
   25.9972    4.2420   27.3935 C   0  0  0  0  0  0  0  0  0  0  0  0
   27.2650    3.4482   27.2584 C   0  0  0  0  0  0  0  0  0  0  0  0
   28.3808    4.2545   26.8119 N   0  0  0  0  0  0  0  0  0  0  0  0
   27.9259    5.5043   26.2262 C   0  0  0  0  0  0  0  0  0  0  0  0
   27.2940    6.2951   27.3453 C   0  0  0  0  0  0  0  0  0  0  0  0
   29.0737    4.4305   27.5748 H   0  0  0  0  0  0  0  0  0  0  0  0
  1  2  1  0  0  0
  2  3  2  0  0  0
  2 15  1  0  0  0
  3  4  1  0  0  0
  4  5  2  0  0  0
  4  8  1  0  0  0
  5  6  1  0  0  0
  5 14  1  0  0  0
  6  7  1  0  0  0
  7  8  2  0  0  0
  7 12  1  0  0  0
  8  9  1  0  0  0
  9 10  2  0  0  0
 10 11  1  0  0  0
 11 12  1  0  0  0
 11 17  1  0  0  0
 12 13  2  0  0  0
 17 18  1  0  0  0
 18 19  1  0  0  0
 19 20  1  0  0  0
 19 24  1  0  0  0
 20 21  1  0  0  0
 21 22  1  0  0  0
 22 23  1  0  0  0
 23 24  1  0  0  0
 14 15  2  0  0  0
  6 16  1  0  0  0
 22 25  1  0  0  0
M  END
> <minimizedAffinity>
-8.24389

$$$$
624


 22 25  0  0  0  0  0  0  0  0999 V2000
   22.4096    5.0879   30.9228 Br  0  0  0  0  0  0  0  0  0  0  0  0
   21.8013    6.8005   31.4920 C   0  0  0  0  0  0  0  0  0  0  0  0
   20.6567    6.8811   32.2569 C   0  0  0  0  0  0  0  0  0  0  0  0
   20.1836    8.1260   32.6908 C   0  0  0  0  0  0  0  0  0  0  0  0
   20.8814    9.2357   32.3380 C   0  0  0  0  0  0  0  0  0  0  0  0
   22.0289    9.2054   31.5761 C   0  0  0  0  0  0  0  0  0  0  0  0
   22.4722    7.9759   31.1626 C   0  0  0  0  0  0  0  0  0  0  0  0
   22.6324   10.4017   31.2931 C   0  0  0  0  0  0  0  0  0  0  0  0
   23.6680   10.3885   30.6078 O   0  0  0  0  0  0  0  0  0  0  0  0
   22.1346   11.6162   31.7409 C   0  0  0  0  0  0  0  0  0  0  0  0
   20.9837   11.5770   32.4982 C   0  0  0  0  0  0  0  0  0  0  0  0
   20.3713   10.3840   32.7864 N   0  0  0  0  0  0  0  0  0  0  0  0
   19.1817   10.0597   33.5415 C   0  0  0  0  0  0  0  0  0  0  0  0
   19.0299    8.5635   33.4954 C   0  0  0  0  0  0  0  0  0  0  0  0
   22.7906   12.8821   31.4315 C   0  0  0  0  0  0  0  0  0  0  0  0
   24.0173   13.0040   31.6521 O   0  0  0  0  0  0  0  0  0  0  0  0
   22.0476   13.9788   30.8816 N   0  0  0  0  0  0  0  0  0  0  0  0
   22.6735   15.2450   30.5664 C   0  0  0  0  0  0  0  0  0  0  0  0
   21.8559   16.3164   31.2990 C   0  0  0  0  0  0  0  0  0  0  0  0
   20.5290   16.1809   30.9684 O   0  0  0  0  0  0  0  0  0  0  0  0
   19.9579   14.9999   31.3934 C   0  0  0  0  0  0  0  0  0  0  0  0
   20.6271   13.8616   30.6184 C   0  0  0  0  0  0  0  0  0  0  0  0
  1  2  1  0  0  0
  2  3  2  0  0  0
  2  7  1  0  0  0
  3  4  1  0  0  0
  4  5  2  0  0  0
  4 14  1  0  0  0
  5  6  1  0  0  0
  5 12  1  0  0  0
  6  7  2  0  0  0
  6  8  1  0  0  0
  8  9  2  0  0  0
  8 10  1  0  0  0
 10 11  2  0  0  0
 10 15  1  0  0  0
 11 12  1  0  0  0
 12 13  1  0  0  0
 13 14  1  0  0  0
 15 16  2  0  0  0
 15 17  1  0  0  0
 17 18  1  0  0  0
 17 22  1  0  0  0
 18 19  1  0  0  0
 19 20  1  0  0  0
 20 21  1  0  0  0
 21 22  1  0  0  0
M  END
> <minimizedAffinity>
-9.08002

$$$$
625


 31 34  0  0  0  0  0  0  0  0999 V2000
   16.2587   13.7415   33.1597 Br  0  0  0  0  0  0  0  0  0  0  0  0
   18.0324   13.4544   32.5917 C   0  0  0  0  0  0  0  0  0  0  0  0
   18.7546   12.3512   33.0164 C   0  0  0  0  0  0  0  0  0  0  0  0
   20.0455   12.1293   32.6333 C   0  0  0  0  0  0  0  0  0  0  0  0
   20.8821   11.0818   32.9007 N   0  0  0  0  0  0  0  0  0  0  0  0
   22.0225   11.3013   32.2233 C   0  0  0  0  0  0  0  0  0  0  0  0
   21.9206   12.5374   31.5296 C   0  0  0  0  0  0  0  0  0  0  0  0
   20.6631   13.0057   31.8125 C   0  0  0  0  0  0  0  0  0  0  0  0
   19.9555   14.1257   31.3683 C   0  0  0  0  0  0  0  0  0  0  0  0
   18.6423   14.3629   31.7474 C   0  0  0  0  0  0  0  0  0  0  0  0
   17.9005   15.4750   31.3104 O   0  0  0  0  0  0  0  0  0  0  0  0
   16.9256   15.5805   31.6262 H   0  0  0  0  0  0  0  0  0  0  0  0
   22.9804   13.2681   30.8220 C   0  0  0  0  0  0  0  0  0  0  0  0
   23.6987   14.0468   31.5046 O   0  0  0  0  0  0  0  0  0  0  0  0
   23.2624   13.1679   29.5005 O   0  0  0  0  0  0  0  0  0  0  0  0
   24.4601   13.1281   28.8118 C   0  0  0  0  0  0  0  0  0  0  0  0
   25.0773   11.7401   28.6923 C   0  0  0  0  0  0  0  0  0  0  0  0
   20.5987   10.1413   34.0022 C   0  0  0  0  0  0  0  0  0  0  0  0
   19.9637    8.9054   33.3249 C   0  0  0  0  0  0  0  0  0  0  0  0
   20.8305    7.8975   33.0167 C   0  0  0  0  0  0  0  0  0  0  0  0
   20.3240    6.7362   32.4098 C   0  0  0  0  0  0  0  0  0  0  0  0
   19.0021    6.5712   32.1219 C   0  0  0  0  0  0  0  0  0  0  0  0
   18.1553    7.6274   32.4597 C   0  0  0  0  0  0  0  0  0  0  0  0
   18.6478    8.7926   33.0605 C   0  0  0  0  0  0  0  0  0  0  0  0
   23.2033   10.4492   32.0845 C   0  0  0  0  0  0  0  0  0  0  0  0
   23.2975    9.5744   30.9573 N   0  0  0  0  0  0  0  0  0  0  0  0
   22.3582    9.1791   30.0641 C   0  0  0  0  0  0  0  0  0  0  0  0
   22.6895    7.7264   29.6442 C   0  0  0  0  0  0  0  0  0  0  0  0
   24.1948    7.7140   29.8984 C   0  0  0  0  0  0  0  0  0  0  0  0
   24.2066    8.4487   31.2319 C   0  0  0  0  0  0  0  0  0  0  0  0
   24.0701   10.2014   30.3230 H   0  0  0  0  0  0  0  0  0  0  0  0
  1  2  1  0  0  0
  2  3  2  0  0  0
  2 10  1  0  0  0
  3  4  1  0  0  0
  4  5  1  0  0  0
  4  8  2  0  0  0
  5  6  1  0  0  0
  5 18  1  0  0  0
  6  7  2  0  0  0
  6 25  1  0  0  0
  7  8  1  0  0  0
  7 13  1  0  0  0
  8  9  1  0  0  0
  9 10  2  0  0  0
 10 11  1  0  0  0
 13 14  2  0  0  0
 13 15  1  0  0  0
 15 16  1  0  0  0
 16 17  1  0  0  0
 25 26  1  0  0  0
 26 27  1  0  0  0
 26 30  1  0  0  0
 27 28  1  0  0  0
 28 29  1  0  0  0
 29 30  1  0  0  0
 18 19  1  0  0  0
 19 20  2  0  0  0
 19 24  1  0  0  0
 20 21  1  0  0  0
 21 22  2  0  0  0
 22 23  1  0  0  0
 23 24  2  0  0  0
 11 12  1  0  0  0
 26 31  1  0  0  0
M  CHG 1  26   1
M  END
> <minimizedAffinity>
-7.72052

$$$$
626


 32 35  0  0  0  0  0  0  0  0999 V2000
   23.0558    9.5922   31.3036 N   0  0  0  0  0  0  0  0  0  0  0  0
   23.1372    8.9407   30.0662 C   0  0  0  0  0  0  0  0  0  0  0  0
   22.4486    9.3418   29.0936 O   0  0  0  0  0  0  0  0  0  0  0  0
   23.6901    9.1918   32.0606 H   0  0  0  0  0  0  0  0  0  0  0  0
   20.7812    8.7367   33.0534 Br  0  0  0  0  0  0  0  0  0  0  0  0
   21.1527   10.5216   32.4570 C   0  0  0  0  0  0  0  0  0  0  0  0
   20.3173   11.5414   32.8518 C   0  0  0  0  0  0  0  0  0  0  0  0
   20.5462   12.8305   32.4372 C   0  0  0  0  0  0  0  0  0  0  0  0
   19.9561   14.0260   32.6249 N   0  0  0  0  0  0  0  0  0  0  0  0
   20.6251   14.9889   31.9632 C   0  0  0  0  0  0  0  0  0  0  0  0
   21.6470   14.3568   31.3600 N   0  0  0  0  0  0  0  0  0  0  0  0
   21.6284   13.0351   31.6292 C   0  0  0  0  0  0  0  0  0  0  0  0
   22.4830   11.9996   31.2245 C   0  0  0  0  0  0  0  0  0  0  0  0
   22.2559   10.7069   31.6388 C   0  0  0  0  0  0  0  0  0  0  0  0
   20.3077   16.3609   31.9236 O   0  0  0  0  0  0  0  0  0  0  0  0
   22.3759   14.8233   30.7516 H   0  0  0  0  0  0  0  0  0  0  0  0
   20.7785   16.9379   32.6332 H   0  0  0  0  0  0  0  0  0  0  0  0
   23.9984    7.7821   29.8062 C   0  0  0  0  0  0  0  0  0  0  0  0
   23.8000    6.6191   30.5752 N   0  0  0  0  0  0  0  0  0  0  0  0
   22.5878    5.9021   30.4099 C   0  0  0  0  0  0  0  0  0  0  0  0
   22.2996    4.9745   31.5907 C   0  0  0  0  0  0  0  0  0  0  0  0
   23.4167    4.1507   31.7767 N   0  0  0  0  0  0  0  0  0  0  0  0
   24.5772    4.3961   31.0134 C   0  0  0  0  0  0  0  0  0  0  0  0
   24.9613    5.8322   30.8187 C   0  0  0  0  0  0  0  0  0  0  0  0
   23.5008    3.4713   32.9893 C   0  0  0  0  0  0  0  0  0  0  0  0
   24.0357    2.1094   32.9962 C   0  0  0  0  0  0  0  0  0  0  0  0
   25.2895    2.0147   33.2935 O   0  0  0  0  0  0  0  0  0  0  0  0
   23.3651    0.9216   32.7264 N   0  0  0  0  0  0  0  0  0  0  0  0
   22.3520    0.9307   32.4904 H   0  0  0  0  0  0  0  0  0  0  0  0
   24.0083   -0.3884   32.7650 C   0  0  0  0  0  0  0  0  0  0  0  0
   23.3519   -1.5342   33.4143 C   0  0  0  0  0  0  0  0  0  0  0  0
   23.4219   -1.4832   31.8996 C   0  0  0  0  0  0  0  0  0  0  0  0
  5  6  1  0  0  0
  6  7  2  0  0  0
  6 14  1  0  0  0
  7  8  1  0  0  0
  8  9  1  0  0  0
  8 12  2  0  0  0
  9 10  2  0  0  0
 10 11  1  0  0  0
 10 15  1  0  0  0
 11 12  1  0  0  0
 12 13  1  0  0  0
 13 14  2  0  0  0
 14  1  1  0  0  0
  1  2  1  0  0  0
  2  3  2  0  0  0
  2 18  1  0  0  0
 18 19  1  0  0  0
 19 20  1  0  0  0
 19 24  1  0  0  0
 20 21  1  0  0  0
 21 22  1  0  0  0
 22 23  1  0  0  0
 22 25  1  0  0  0
 23 24  1  0  0  0
 25 26  1  0  0  0
 26 27  2  0  0  0
 26 28  1  0  0  0
 28 30  1  0  0  0
 30 31  1  0  0  0
 30 32  1  0  0  0
 31 32  1  0  0  0
 11 16  1  0  0  0
  1  4  1  0  0  0
 28 29  1  0  0  0
 15 17  1  0  0  0
M  END
> <minimizedAffinity>
-8.40626

$$$$
631


 29 32  0  0  0  0  0  0  0  0999 V2000
   20.5295    7.9819   32.0927 N   0  0  0  0  0  0  0  0  0  0  0  0
   21.0946    9.3491   32.0697 C   0  0  0  0  0  0  0  0  0  0  0  0
   20.4504   10.0040   33.2811 C   0  0  0  0  0  0  0  0  0  0  0  0
   19.0904    9.3409   33.3361 C   0  0  0  0  0  0  0  0  0  0  0  0
   19.1721    8.1091   32.5098 C   0  0  0  0  0  0  0  0  0  0  0  0
   18.2513    7.3314   32.2249 O   0  0  0  0  0  0  0  0  0  0  0  0
   26.3952    6.1598   28.5886 Br  0  0  0  0  0  0  0  0  0  0  0  0
   24.7832    6.4164   29.5907 C   0  0  0  0  0  0  0  0  0  0  0  0
   24.1249    5.3371   30.1768 C   0  0  0  0  0  0  0  0  0  0  0  0
   22.9725    5.6025   30.8797 C   0  0  0  0  0  0  0  0  0  0  0  0
   22.1110    4.8177   31.5506 N   0  0  0  0  0  0  0  0  0  0  0  0
   21.1370    5.5619   32.0665 N   0  0  0  0  0  0  0  0  0  0  0  0
   21.3082    6.8571   31.7648 C   0  0  0  0  0  0  0  0  0  0  0  0
   22.4914    6.8775   31.0006 C   0  0  0  0  0  0  0  0  0  0  0  0
   23.1293    7.9431   30.4306 C   0  0  0  0  0  0  0  0  0  0  0  0
   24.2810    7.7034   29.7230 C   0  0  0  0  0  0  0  0  0  0  0  0
   20.3608    5.1570   32.6251 H   0  0  0  0  0  0  0  0  0  0  0  0
   20.4164   11.4436   32.9773 C   0  0  0  0  0  0  0  0  0  0  0  0
   19.6153   12.2112   33.5593 O   0  0  0  0  0  0  0  0  0  0  0  0
   21.3219   11.9436   32.0026 N   0  0  0  0  0  0  0  0  0  0  0  0
   21.9628   11.2704   31.5390 H   0  0  0  0  0  0  0  0  0  0  0  0
   21.3611   13.3458   31.6501 C   0  0  0  0  0  0  0  0  0  0  0  0
   22.7575   13.9264   31.7213 C   0  0  0  0  0  0  0  0  0  0  0  0
   23.7241   13.0551   31.0248 C   0  0  0  0  0  0  0  0  0  0  0  0
   24.3687   12.0346   31.6128 N   0  0  0  0  0  0  0  0  0  0  0  0
   25.1698   11.4315   30.7338 C   0  0  0  0  0  0  0  0  0  0  0  0
   25.0394   12.0806   29.5453 N   0  0  0  0  0  0  0  0  0  0  0  0
   24.1567   13.0661   29.7347 C   0  0  0  0  0  0  0  0  0  0  0  0
   25.5700   11.7962   28.6908 H   0  0  0  0  0  0  0  0  0  0  0  0
  7  8  1  0  0  0
  8  9  2  0  0  0
  8 16  1  0  0  0
  9 10  1  0  0  0
 10 11  2  0  0  0
 10 14  1  0  0  0
 11 12  1  0  0  0
 12 13  1  0  0  0
 13 14  2  0  0  0
 13  1  1  0  0  0
 14 15  1  0  0  0
 15 16  2  0  0  0
  1  2  1  0  0  0
  1  5  1  0  0  0
  2  3  1  0  0  0
  3  4  1  0  0  0
  3 18  1  0  0  0
  4  5  1  0  0  0
  5  6  2  0  0  0
 18 19  2  0  0  0
 18 20  1  0  0  0
 20 22  1  0  0  0
 22 23  1  0  0  0
 23 24  1  0  0  0
 24 25  1  0  0  0
 24 28  2  0  0  0
 25 26  2  0  0  0
 26 27  1  0  0  0
 27 28  1  0  0  0
 12 17  1  0  0  0
 20 21  1  0  0  0
 27 29  1  0  0  0
M  END
> <minimizedAffinity>
-8.78555

$$$$
648


 32 35  0  0  0  0  0  0  0  0999 V2000
   27.7039    1.7167   36.3735 C   0  0  0  0  0  0  0  0  0  0  0  0
   27.9161    2.9216   36.7621 O   0  0  0  0  0  0  0  0  0  0  0  0
   28.1005    1.3792   35.1067 N   0  0  0  0  0  0  0  0  0  0  0  0
   27.9370    0.0991   34.4908 C   0  0  0  0  0  0  0  0  0  0  0  0
   26.8813    0.2031   33.4394 C   0  0  0  0  0  0  0  0  0  0  0  0
   26.7906    1.5543   32.9053 N   0  0  0  0  0  0  0  0  0  0  0  0
   27.8524    2.5015   32.9825 C   0  0  0  0  0  0  0  0  0  0  0  0
   28.7470    2.3594   34.2101 C   0  0  0  0  0  0  0  0  0  0  0  0
   25.5048    1.8647   32.3463 C   0  0  0  0  0  0  0  0  0  0  0  0
   24.5807    0.9561   32.4670 O   0  0  0  0  0  0  0  0  0  0  0  0
   29.5645   -0.3908   38.2649 Br  0  0  0  0  0  0  0  0  0  0  0  0
   27.6697   -0.0669   38.1928 C   0  0  0  0  0  0  0  0  0  0  0  0
   26.6997   -0.6744   38.9428 C   0  0  0  0  0  0  0  0  0  0  0  0
   25.5276   -0.1506   38.5695 N   0  0  0  0  0  0  0  0  0  0  0  0
   25.7364    0.7390   37.6357 N   0  0  0  0  0  0  0  0  0  0  0  0
   27.0631    0.8568   37.3356 C   0  0  0  0  0  0  0  0  0  0  0  0
   24.2687   -0.5790   39.1670 C   0  0  0  0  0  0  0  0  0  0  0  0
   23.7236    0.4125   40.1599 C   0  0  0  0  0  0  0  0  0  0  0  0
   25.1760    3.0778   31.6824 C   0  0  0  0  0  0  0  0  0  0  0  0
   25.6110    3.3816   30.3987 N   0  0  0  0  0  0  0  0  0  0  0  0
   25.2162    4.5685   30.0719 N   0  0  0  0  0  0  0  0  0  0  0  0
   24.5210    5.1351   31.0538 C   0  0  0  0  0  0  0  0  0  0  0  0
   24.4988    4.1747   32.0854 C   0  0  0  0  0  0  0  0  0  0  0  0
   26.3841    2.5095   29.5465 C   0  0  0  0  0  0  0  0  0  0  0  0
   23.8806    6.4370   31.1038 C   0  0  0  0  0  0  0  0  0  0  0  0
   24.6604    7.4552   31.0884 O   0  0  0  0  0  0  0  0  0  0  0  0
   22.5143    6.6615   31.1678 N   0  0  0  0  0  0  0  0  0  0  0  0
   22.0441    8.0503   31.1876 C   0  0  0  0  0  0  0  0  0  0  0  0
   21.1386    8.1613   32.3963 C   0  0  0  0  0  0  0  0  0  0  0  0
   20.0278    7.3487   32.1047 O   0  0  0  0  0  0  0  0  0  0  0  0
   20.3838    6.0303   32.1712 C   0  0  0  0  0  0  0  0  0  0  0  0
   21.5206    5.6361   31.2373 C   0  0  0  0  0  0  0  0  0  0  0  0
 11 12  1  0  0  0
 12 13  2  0  0  0
 12 16  1  0  0  0
 13 14  1  0  0  0
 14 15  1  0  0  0
 14 17  1  0  0  0
 15 16  2  0  0  0
 16  1  1  0  0  0
  1  2  2  0  0  0
  1  3  1  0  0  0
  3  4  1  0  0  0
  3  8  1  0  0  0
  4  5  1  0  0  0
  5  6  1  0  0  0
  6  7  1  0  0  0
  6  9  1  0  0  0
  7  8  1  0  0  0
  9 10  2  0  0  0
  9 19  1  0  0  0
 19 20  1  0  0  0
 19 23  2  0  0  0
 20 21  1  0  0  0
 20 24  1  0  0  0
 21 22  2  0  0  0
 22 23  1  0  0  0
 22 25  1  0  0  0
 25 26  2  0  0  0
 25 27  1  0  0  0
 27 28  1  0  0  0
 27 32  1  0  0  0
 28 29  1  0  0  0
 29 30  1  0  0  0
 30 31  1  0  0  0
 31 32  1  0  0  0
 17 18  1  0  0  0
M  END
> <minimizedAffinity>
-7.16530

$$$$
653


 29 32  0  0  0  0  0  0  0  0999 V2000
   22.0582   10.8283   31.9165 C   0  0  0  0  0  0  0  0  0  0  0  0
   21.0147   10.3136   32.6428 C   0  0  0  0  0  0  0  0  0  0  0  0
   19.9771   11.1179   33.0776 C   0  0  0  0  0  0  0  0  0  0  0  0
   19.9598   12.4657   32.7951 C   0  0  0  0  0  0  0  0  0  0  0  0
   21.0254   13.0077   32.0513 C   0  0  0  0  0  0  0  0  0  0  0  0
   22.0523   12.2103   31.6202 C   0  0  0  0  0  0  0  0  0  0  0  0
   23.1501   12.7844   30.8386 C   0  0  0  0  0  0  0  0  0  0  0  0
   23.3737   14.2406   30.9397 C   0  0  0  0  0  0  0  0  0  0  0  0
   22.1516   15.0155   31.1130 N   0  0  0  0  0  0  0  0  0  0  0  0
   21.0481   14.4457   31.8039 C   0  0  0  0  0  0  0  0  0  0  0  0
   20.1063   15.2015   32.1910 O   0  0  0  0  0  0  0  0  0  0  0  0
   22.1473   16.3558   30.5732 C   0  0  0  0  0  0  0  0  0  0  0  0
   19.1055   10.2966   33.7655 O   0  0  0  0  0  0  0  0  0  0  0  0
   19.4779    8.9495   33.6204 C   0  0  0  0  0  0  0  0  0  0  0  0
   20.7899    8.9829   33.0648 O   0  0  0  0  0  0  0  0  0  0  0  0
   18.9385   13.3006   33.2115 O   0  0  0  0  0  0  0  0  0  0  0  0
   17.5985   13.0623   32.8340 C   0  0  0  0  0  0  0  0  0  0  0  0
   23.2026   10.0029   31.4753 C   0  0  0  0  0  0  0  0  0  0  0  0
   23.4349    7.9027   30.0333 C   0  0  0  0  0  0  0  0  0  0  0  0
   24.5130    8.2636   29.4604 O   0  0  0  0  0  0  0  0  0  0  0  0
   22.8127    8.6990   30.9701 N   0  0  0  0  0  0  0  0  0  0  0  0
   21.9125    8.3340   31.4161 H   0  0  0  0  0  0  0  0  0  0  0  0
   22.8676    6.5819   29.6500 C   0  0  0  0  0  0  0  0  0  0  0  0
   23.8020    2.6716   33.3089 Br  0  0  0  0  0  0  0  0  0  0  0  0
   23.9782    3.9950   31.9440 C   0  0  0  0  0  0  0  0  0  0  0  0
   22.9890    4.7855   31.4058 C   0  0  0  0  0  0  0  0  0  0  0  0
   23.5420    5.5718   30.4880 N   0  0  0  0  0  0  0  0  0  0  0  0
   24.8412    5.2871   30.4477 N   0  0  0  0  0  0  0  0  0  0  0  0
   25.1618    4.3239   31.3245 C   0  0  0  0  0  0  0  0  0  0  0  0
 24 25  1  0  0  0
 25 26  2  0  0  0
 25 29  1  0  0  0
 26 27  1  0  0  0
 27 28  1  0  0  0
 27 23  1  0  0  0
 28 29  2  0  0  0
 23 19  1  0  0  0
 19 20  2  0  0  0
 19 21  1  0  0  0
 21 18  1  0  0  0
 18  1  1  0  0  0
  1  2  2  0  0  0
  1  6  1  0  0  0
  2  3  1  0  0  0
  2 15  1  0  0  0
  3  4  2  0  0  0
  3 13  1  0  0  0
  4  5  1  0  0  0
  4 16  1  0  0  0
  5  6  2  0  0  0
  5 10  1  0  0  0
  6  7  1  0  0  0
  7  8  1  0  0  0
  8  9  1  0  0  0
  9 10  1  0  0  0
  9 12  1  0  0  0
 10 11  2  0  0  0
 16 17  1  0  0  0
 13 14  1  0  0  0
 14 15  1  0  0  0
 21 22  1  0  0  0
M  END
> <minimizedAffinity>
-8.74154

$$$$
662


 25 29  0  0  0  0  0  0  0  0999 V2000
   23.3696   13.3160   30.5214 C   0  0  0  0  0  0  0  0  0  0  0  0
   22.6553   14.2955   31.0983 N   0  0  0  0  0  0  0  0  0  0  0  0
   22.6622   15.3839   30.3288 N   0  0  0  0  0  0  0  0  0  0  0  0
   23.4039   15.0954   29.2212 C   0  0  0  0  0  0  0  0  0  0  0  0
   23.8249   13.8239   29.3645 N   0  0  0  0  0  0  0  0  0  0  0  0
   23.5597   16.0752   28.2637 C   0  0  0  0  0  0  0  0  0  0  0  0
   22.9946   17.3325   28.3840 C   0  0  0  0  0  0  0  0  0  0  0  0
   23.3170   18.0657   27.3051 N   0  0  0  0  0  0  0  0  0  0  0  0
   24.0622   17.3015   26.5228 N   0  0  0  0  0  0  0  0  0  0  0  0
   24.2332   16.0807   27.0717 C   0  0  0  0  0  0  0  0  0  0  0  0
   22.2734   17.5704   29.4910 N   0  0  0  0  0  0  0  0  0  0  0  0
   22.1236   16.6131   30.4210 C   0  0  0  0  0  0  0  0  0  0  0  0
   23.0463   19.0504   27.0962 H   0  0  0  0  0  0  0  0  0  0  0  0
   23.3135    9.8643   31.6051 N   0  0  0  0  0  0  0  0  0  0  0  0
   22.7732   10.9117   31.0071 N   0  0  0  0  0  0  0  0  0  0  0  0
   23.5930   11.9753   31.0598 C   0  0  0  0  0  0  0  0  0  0  0  0
   24.7120   11.5425   31.7393 C   0  0  0  0  0  0  0  0  0  0  0  0
   24.5241   10.2063   32.0779 C   0  0  0  0  0  0  0  0  0  0  0  0
   22.6894    8.5444   31.7289 C   0  0  0  0  0  0  0  0  0  0  0  0
   17.5286    7.4219   32.8047 Br  0  0  0  0  0  0  0  0  0  0  0  0
   19.2371    8.2315   32.7537 C   0  0  0  0  0  0  0  0  0  0  0  0
   20.3386    7.7887   32.0498 C   0  0  0  0  0  0  0  0  0  0  0  0
   21.3524    8.6402   32.2768 N   0  0  0  0  0  0  0  0  0  0  0  0
   20.9258    9.5890   33.0908 N   0  0  0  0  0  0  0  0  0  0  0  0
   19.6283    9.3775   33.4091 C   0  0  0  0  0  0  0  0  0  0  0  0
 20 21  1  0  0  0
 21 22  2  0  0  0
 21 25  1  0  0  0
 22 23  1  0  0  0
 23 24  1  0  0  0
 23 19  1  0  0  0
 24 25  2  0  0  0
 19 14  1  0  0  0
 14 15  1  0  0  0
 14 18  1  0  0  0
 15 16  2  0  0  0
 16 17  1  0  0  0
 16  1  1  0  0  0
 17 18  2  0  0  0
  1  2  2  0  0  0
  1  5  1  0  0  0
  2  3  1  0  0  0
  3  4  1  0  0  0
  3 12  1  0  0  0
  4  5  2  0  0  0
  4  6  1  0  0  0
  6  7  2  0  0  0
  6 10  1  0  0  0
  7  8  1  0  0  0
  7 11  1  0  0  0
  8  9  1  0  0  0
  9 10  2  0  0  0
 11 12  2  0  0  0
  8 13  1  0  0  0
M  END
> <minimizedAffinity>
-8.46781

$$$$
663


 28 31  0  0  0  0  0  0  0  0999 V2000
   26.3536    4.3481   30.3162 C   0  0  0  0  0  0  0  0  0  0  0  0
   27.2359    4.3431   31.2642 O   0  0  0  0  0  0  0  0  0  0  0  0
   26.7446    3.7516   29.1295 N   0  0  0  0  0  0  0  0  0  0  0  0
   26.0349    3.5218   27.9001 C   0  0  0  0  0  0  0  0  0  0  0  0
   26.4694    4.6003   26.9266 C   0  0  0  0  0  0  0  0  0  0  0  0
   27.9455    4.8992   27.0942 C   0  0  0  0  0  0  0  0  0  0  0  0
   28.4898    5.1192   25.7721 N   0  0  0  0  0  0  0  0  0  0  0  0
   28.2707    6.4798   25.4312 C   0  0  0  0  0  0  0  0  0  0  0  0
   28.2652    7.0075   24.2717 O   0  0  0  0  0  0  0  0  0  0  0  0
   28.0500    7.1816   26.6649 N   0  0  0  0  0  0  0  0  0  0  0  0
   28.1418    6.2141   27.7324 C   0  0  0  0  0  0  0  0  0  0  0  0
   28.3484    6.5056   28.9300 O   0  0  0  0  0  0  0  0  0  0  0  0
   28.7087    3.7894   27.7422 C   0  0  0  0  0  0  0  0  0  0  0  0
   28.1644    3.2878   29.0367 C   0  0  0  0  0  0  0  0  0  0  0  0
   28.9627    4.4364   25.1487 H   0  0  0  0  0  0  0  0  0  0  0  0
   27.8555    8.1950   26.8189 H   0  0  0  0  0  0  0  0  0  0  0  0
   22.5996    6.0792   31.5043 C   0  0  0  0  0  0  0  0  0  0  0  0
   22.8730    4.7388   31.6262 C   0  0  0  0  0  0  0  0  0  0  0  0
   24.0698    4.2045   31.2299 C   0  0  0  0  0  0  0  0  0  0  0  0
   25.1042    4.9825   30.6700 C   0  0  0  0  0  0  0  0  0  0  0  0
   24.8187    6.3227   30.5548 C   0  0  0  0  0  0  0  0  0  0  0  0
   23.5870    6.8578   30.9640 C   0  0  0  0  0  0  0  0  0  0  0  0
   18.7706    9.4525   33.3505 Br  0  0  0  0  0  0  0  0  0  0  0  0
   19.7248    7.9243   32.6716 C   0  0  0  0  0  0  0  0  0  0  0  0
   21.0674    7.8414   32.3741 C   0  0  0  0  0  0  0  0  0  0  0  0
   21.3494    6.6056   31.9239 N   0  0  0  0  0  0  0  0  0  0  0  0
   20.2178    5.9336   31.9392 N   0  0  0  0  0  0  0  0  0  0  0  0
   19.2083    6.6812   32.3806 C   0  0  0  0  0  0  0  0  0  0  0  0
 23 24  1  0  0  0
 24 25  2  0  0  0
 24 28  1  0  0  0
 25 26  1  0  0  0
 26 27  1  0  0  0
 26 17  1  0  0  0
 27 28  2  0  0  0
 17 18  2  0  0  0
 17 22  1  0  0  0
 18 19  1  0  0  0
 19 20  2  0  0  0
 20 21  1  0  0  0
 20  1  1  0  0  0
 21 22  2  0  0  0
  1  2  2  0  0  0
  1  3  1  0  0  0
  3  4  1  0  0  0
  3 14  1  0  0  0
  4  5  1  0  0  0
  5  6  1  0  0  0
  6  7  1  0  0  0
  6 11  1  0  0  0
  6 13  1  0  0  0
  7  8  1  0  0  0
  8  9  2  0  0  0
  8 10  1  0  0  0
 10 11  1  0  0  0
 11 12  2  0  0  0
 13 14  1  0  0  0
  7 15  1  0  0  0
 10 16  1  0  0  0
M  END
> <minimizedAffinity>
-7.86150

$$$$
666


 28 31  0  0  0  0  0  0  0  0999 V2000
   22.7831   11.5637   30.0693 C   0  0  0  0  0  0  0  0  0  0  0  0
   22.1907   12.0651   31.1126 C   0  0  0  0  0  0  0  0  0  0  0  0
   21.5800   10.9423   31.8263 C   0  0  0  0  0  0  0  0  0  0  0  0
   20.9127   11.0650   32.9004 O   0  0  0  0  0  0  0  0  0  0  0  0
   21.8362    9.7020   31.1515 N   0  0  0  0  0  0  0  0  0  0  0  0
   22.6117   10.0916   30.0186 C   0  0  0  0  0  0  0  0  0  0  0  0
   23.0683    9.3199   29.1344 O   0  0  0  0  0  0  0  0  0  0  0  0
   21.4036    8.4049   31.5294 C   0  0  0  0  0  0  0  0  0  0  0  0
   22.1578    7.2741   31.3471 C   0  0  0  0  0  0  0  0  0  0  0  0
   21.7019    6.0019   31.7512 C   0  0  0  0  0  0  0  0  0  0  0  0
   20.4701    5.8602   32.3483 C   0  0  0  0  0  0  0  0  0  0  0  0
   19.7121    6.9882   32.5331 C   0  0  0  0  0  0  0  0  0  0  0  0
   20.1789    8.2390   32.1268 C   0  0  0  0  0  0  0  0  0  0  0  0
   22.1265   13.4296   31.5322 N   0  0  0  0  0  0  0  0  0  0  0  0
   21.0269   14.1603   31.2735 C   0  0  0  0  0  0  0  0  0  0  0  0
   20.9346   15.5073   31.6649 C   0  0  0  0  0  0  0  0  0  0  0  0
   21.9897   16.1049   32.3285 C   0  0  0  0  0  0  0  0  0  0  0  0
   23.1049   15.3355   32.5823 C   0  0  0  0  0  0  0  0  0  0  0  0
   23.1544   14.0254   32.1845 C   0  0  0  0  0  0  0  0  0  0  0  0
   23.5181   12.2272   29.0586 N   0  0  0  0  0  0  0  0  0  0  0  0
   23.0987   12.9840   28.5191 H   0  0  0  0  0  0  0  0  0  0  0  0
   29.2397   10.3826   27.8941 Br  0  0  0  0  0  0  0  0  0  0  0  0
   27.4585   10.9683   28.2664 C   0  0  0  0  0  0  0  0  0  0  0  0
   26.6509   11.5015   27.2969 C   0  0  0  0  0  0  0  0  0  0  0  0
   25.4049   11.8977   27.5799 N   0  0  0  0  0  0  0  0  0  0  0  0
   24.8472   11.8088   28.8171 C   0  0  0  0  0  0  0  0  0  0  0  0
   25.6812   11.2649   29.8016 C   0  0  0  0  0  0  0  0  0  0  0  0
   26.9591   10.8494   29.5428 C   0  0  0  0  0  0  0  0  0  0  0  0
 22 23  1  0  0  0
 23 24  2  0  0  0
 23 28  1  0  0  0
 24 25  1  0  0  0
 25 26  2  0  0  0
 26 27  1  0  0  0
 26 20  1  0  0  0
 27 28  2  0  0  0
 20  1  1  0  0  0
  1  2  2  0  0  0
  1  6  1  0  0  0
  2  3  1  0  0  0
  2 14  1  0  0  0
  3  4  2  0  0  0
  3  5  1  0  0  0
  5  6  1  0  0  0
  5  8  1  0  0  0
  6  7  2  0  0  0
  8  9  2  0  0  0
  8 13  1  0  0  0
  9 10  1  0  0  0
 10 11  2  0  0  0
 11 12  1  0  0  0
 12 13  2  0  0  0
 14 15  2  0  0  0
 14 19  1  0  0  0
 15 16  1  0  0  0
 16 17  2  0  0  0
 17 18  1  0  0  0
 18 19  2  0  0  0
 20 21  1  0  0  0
M  END
> <minimizedAffinity>
-8.76067

$$$$
670


 23 26  0  0  0  0  0  0  0  0999 V2000
   22.8156   11.3397   31.6590 C   0  0  0  0  0  0  0  0  0  0  0  0
   21.5604   10.9251   32.2280 N   0  0  0  0  0  0  0  0  0  0  0  0
   21.2148    9.5743   32.2646 N   0  0  0  0  0  0  0  0  0  0  0  0
   19.9876    9.1171   32.8161 C   0  0  0  0  0  0  0  0  0  0  0  0
   19.7100    7.8275   32.8256 C   0  0  0  0  0  0  0  0  0  0  0  0
   19.9520    6.3937   32.5693 C   0  0  0  0  0  0  0  0  0  0  0  0
   18.7014    6.7648   33.2129 C   0  0  0  0  0  0  0  0  0  0  0  0
   19.0373   10.0620   33.3691 C   0  0  0  0  0  0  0  0  0  0  0  0
   19.3440   11.3490   33.3447 C   0  0  0  0  0  0  0  0  0  0  0  0
   20.6174   11.8346   32.7746 C   0  0  0  0  0  0  0  0  0  0  0  0
   20.8852   13.0653   32.7636 O   0  0  0  0  0  0  0  0  0  0  0  0
   21.9160    8.8891   31.8575 H   0  0  0  0  0  0  0  0  0  0  0  0
   25.0244    9.3309   30.1093 N   0  0  0  0  0  0  0  0  0  0  0  0
   24.2853   10.5057   29.7470 C   0  0  0  0  0  0  0  0  0  0  0  0
   23.4005   10.1706   30.9314 C   0  0  0  0  0  0  0  0  0  0  0  0
   24.7375    9.6765   31.4725 C   0  0  0  0  0  0  0  0  0  0  0  0
   27.9755    4.8967   27.1525 Br  0  0  0  0  0  0  0  0  0  0  0  0
   27.0381    6.2804   28.0832 C   0  0  0  0  0  0  0  0  0  0  0  0
   27.6049    7.5250   28.2398 C   0  0  0  0  0  0  0  0  0  0  0  0
   26.9379    8.4702   28.8883 N   0  0  0  0  0  0  0  0  0  0  0  0
   25.7092    8.3189   29.4281 C   0  0  0  0  0  0  0  0  0  0  0  0
   25.1531    7.0813   29.2700 N   0  0  0  0  0  0  0  0  0  0  0  0
   25.7839    6.0863   28.6212 C   0  0  0  0  0  0  0  0  0  0  0  0
 17 18  1  0  0  0
 18 19  2  0  0  0
 18 23  1  0  0  0
 19 20  1  0  0  0
 20 21  2  0  0  0
 21 22  1  0  0  0
 21 13  1  0  0  0
 22 23  2  0  0  0
 13 14  1  0  0  0
 13 16  1  0  0  0
 14 15  1  0  0  0
 15 16  1  0  0  0
 15  1  1  0  0  0
  1  2  1  0  0  0
  2  3  1  0  0  0
  2 10  1  0  0  0
  3  4  1  0  0  0
  4  5  2  0  0  0
  4  8  1  0  0  0
  5  6  1  0  0  0
  5  7  1  0  0  0
  6  7  1  0  0  0
  8  9  2  0  0  0
  9 10  1  0  0  0
 10 11  2  0  0  0
  3 12  1  0  0  0
M  END
> <minimizedAffinity>
-7.73358

$$$$
677


 29 32  0  0  0  0  0  0  0  0999 V2000
   22.5346   13.0369   30.3489 C   0  0  0  0  0  0  0  0  0  0  0  0
   21.6401   13.1800   31.4684 C   0  0  0  0  0  0  0  0  0  0  0  0
   21.1556   14.3946   31.7897 C   0  0  0  0  0  0  0  0  0  0  0  0
   21.5074   15.5372   31.0480 C   0  0  0  0  0  0  0  0  0  0  0  0
   22.3612   15.4192   29.9783 C   0  0  0  0  0  0  0  0  0  0  0  0
   22.8748   14.1582   29.6357 C   0  0  0  0  0  0  0  0  0  0  0  0
   23.8723   14.0268   28.5426 C   0  0  0  0  0  0  0  0  0  0  0  0
   24.5484   15.3421   28.1704 C   0  0  0  0  0  0  0  0  0  0  0  0
   23.5914   16.4148   28.0336 N   0  0  0  0  0  0  0  0  0  0  0  0
   22.7230   16.5753   29.1640 C   0  0  0  0  0  0  0  0  0  0  0  0
   22.3139   17.7326   29.3914 O   0  0  0  0  0  0  0  0  0  0  0  0
   23.5163   17.2533   26.8566 C   0  0  0  0  0  0  0  0  0  0  0  0
   20.9804   16.7138   31.4317 O   0  0  0  0  0  0  0  0  0  0  0  0
   20.3239   14.2258   32.9074 O   0  0  0  0  0  0  0  0  0  0  0  0
   20.0916   12.8510   33.1294 C   0  0  0  0  0  0  0  0  0  0  0  0
   21.1210   12.2471   32.3712 O   0  0  0  0  0  0  0  0  0  0  0  0
   21.0799   17.6038   31.0814 H   0  0  0  0  0  0  0  0  0  0  0  0
   22.9294   11.6568   30.1628 C   0  0  0  0  0  0  0  0  0  0  0  0
   22.6079    9.5276   31.2930 C   0  0  0  0  0  0  0  0  0  0  0  0
   23.6966    9.7307   31.8560 O   0  0  0  0  0  0  0  0  0  0  0  0
   22.1072   10.5419   30.3427 N   0  0  0  0  0  0  0  0  0  0  0  0
   21.1816   10.2817   29.9722 H   0  0  0  0  0  0  0  0  0  0  0  0
   18.1840    7.1168   33.0396 Br  0  0  0  0  0  0  0  0  0  0  0  0
   19.9455    7.1243   32.3016 C   0  0  0  0  0  0  0  0  0  0  0  0
   20.5672    5.9582   31.9854 C   0  0  0  0  0  0  0  0  0  0  0  0
   21.7956    5.9481   31.4700 N   0  0  0  0  0  0  0  0  0  0  0  0
   22.4363    7.1065   31.2567 C   0  0  0  0  0  0  0  0  0  0  0  0
   21.8486    8.3293   31.5611 C   0  0  0  0  0  0  0  0  0  0  0  0
   20.5798    8.3483   32.0935 C   0  0  0  0  0  0  0  0  0  0  0  0
 23 24  1  0  0  0
 24 25  2  0  0  0
 24 29  1  0  0  0
 25 26  1  0  0  0
 26 27  2  0  0  0
 27 28  1  0  0  0
 28 29  2  0  0  0
 28 19  1  0  0  0
 19 20  2  0  0  0
 19 21  1  0  0  0
 21 18  1  0  0  0
 18  1  1  0  0  0
  1  2  2  0  0  0
  1  6  1  0  0  0
  2  3  1  0  0  0
  2 16  1  0  0  0
  3  4  2  0  0  0
  3 14  1  0  0  0
  4  5  1  0  0  0
  4 13  1  0  0  0
  5  6  2  0  0  0
  5 10  1  0  0  0
  6  7  1  0  0  0
  7  8  1  0  0  0
  8  9  1  0  0  0
  9 10  1  0  0  0
  9 12  1  0  0  0
 10 11  2  0  0  0
 14 15  1  0  0  0
 15 16  1  0  0  0
 21 22  1  0  0  0
 13 17  1  0  0  0
M  END
> <minimizedAffinity>
-9.60123

$$$$
680


 24 27  0  0  0  0  0  0  0  0999 V2000
   22.5489   16.5418   29.8749 C   0  0  0  0  0  0  0  0  0  0  0  0
   22.3501   17.2877   30.9033 O   0  0  0  0  0  0  0  0  0  0  0  0
   22.5411   15.1488   30.0760 N   0  0  0  0  0  0  0  0  0  0  0  0
   22.7177   13.9398   29.3336 C   0  0  0  0  0  0  0  0  0  0  0  0
   23.1853   13.2849   30.6459 C   0  0  0  0  0  0  0  0  0  0  0  0
   22.2915   14.2966   31.2566 C   0  0  0  0  0  0  0  0  0  0  0  0
   22.7841   11.9076   30.7281 N   0  0  0  0  0  0  0  0  0  0  0  0
   21.9151   11.2860   31.6935 C   0  0  0  0  0  0  0  0  0  0  0  0
   21.0350   11.8779   32.3420 O   0  0  0  0  0  0  0  0  0  0  0  0
   22.3125    9.8359   31.7168 C   0  0  0  0  0  0  0  0  0  0  0  0
   22.5696    9.6084   30.2459 C   0  0  0  0  0  0  0  0  0  0  0  0
   23.4509    8.4106   30.0244 C   0  0  0  0  0  0  0  0  0  0  0  0
   24.7475    8.6085   30.7261 C   0  0  0  0  0  0  0  0  0  0  0  0
   24.7265    9.2197   31.8928 C   0  0  0  0  0  0  0  0  0  0  0  0
   23.5279    9.7302   32.5731 C   0  0  0  0  0  0  0  0  0  0  0  0
   23.1934   10.8802   29.8323 C   0  0  0  0  0  0  0  0  0  0  0  0
   23.9563   10.9819   28.8402 O   0  0  0  0  0  0  0  0  0  0  0  0
   21.2116   20.4934   26.4443 Br  0  0  0  0  0  0  0  0  0  0  0  0
   22.2477   19.0008   27.0120 C   0  0  0  0  0  0  0  0  0  0  0  0
   23.2744   18.5547   26.2146 C   0  0  0  0  0  0  0  0  0  0  0  0
   24.0242   17.4926   26.6049 N   0  0  0  0  0  0  0  0  0  0  0  0
   23.7813   16.8626   27.7595 C   0  0  0  0  0  0  0  0  0  0  0  0
   22.7559   17.2487   28.6331 C   0  0  0  0  0  0  0  0  0  0  0  0
   22.0201   18.3293   28.2029 C   0  0  0  0  0  0  0  0  0  0  0  0
 18 19  1  0  0  0
 19 20  2  0  0  0
 19 24  1  0  0  0
 20 21  1  0  0  0
 21 22  2  0  0  0
 22 23  1  0  0  0
 23 24  2  0  0  0
 23  1  1  0  0  0
  1  2  2  0  0  0
  1  3  1  0  0  0
  3  4  1  0  0  0
  3  6  1  0  0  0
  4  5  1  0  0  0
  5  6  1  0  0  0
  5  7  1  0  0  0
  7  8  1  0  0  0
  7 16  1  0  0  0
  8  9  2  0  0  0
  8 10  1  0  0  0
 10 11  1  0  0  0
 10 15  1  0  0  0
 11 12  1  0  0  0
 11 16  1  0  0  0
 12 13  1  0  0  0
 13 14  2  0  0  0
 14 15  1  0  0  0
 16 17  2  0  0  0
M  END
> <minimizedAffinity>
-8.11889

$$$$
681


 25 28  0  0  0  0  0  0  0  0999 V2000
   22.4369   16.4488   30.0666 C   0  0  0  0  0  0  0  0  0  0  0  0
   22.1422   17.3382   30.9242 O   0  0  0  0  0  0  0  0  0  0  0  0
   22.3278   15.1018   30.4336 N   0  0  0  0  0  0  0  0  0  0  0  0
   22.5075   13.7806   29.8930 C   0  0  0  0  0  0  0  0  0  0  0  0
   21.8826   13.1256   31.1155 C   0  0  0  0  0  0  0  0  0  0  0  0
   21.9450   14.4939   31.7234 C   0  0  0  0  0  0  0  0  0  0  0  0
   22.2066   20.3241   26.4319 Br  0  0  0  0  0  0  0  0  0  0  0  0
   22.8118   18.6055   27.0448 C   0  0  0  0  0  0  0  0  0  0  0  0
   23.6202   17.8610   26.2168 C   0  0  0  0  0  0  0  0  0  0  0  0
   24.0284   16.6688   26.6656 N   0  0  0  0  0  0  0  0  0  0  0  0
   23.6710   16.1882   27.8922 C   0  0  0  0  0  0  0  0  0  0  0  0
   22.8690   16.8834   28.7617 C   0  0  0  0  0  0  0  0  0  0  0  0
   22.4453   18.1361   28.2804 C   0  0  0  0  0  0  0  0  0  0  0  0
   22.6277   12.1341   31.7505 O   0  0  0  0  0  0  0  0  0  0  0  0
   22.3520   10.7821   31.7479 C   0  0  0  0  0  0  0  0  0  0  0  0
   23.1429    9.9481   31.0778 C   0  0  0  0  0  0  0  0  0  0  0  0
   22.9050    8.5109   31.0372 C   0  0  0  0  0  0  0  0  0  0  0  0
   23.7119    7.7112   30.3623 C   0  0  0  0  0  0  0  0  0  0  0  0
   21.7795    8.0116   31.7459 N   0  0  0  0  0  0  0  0  0  0  0  0
   20.9431    8.9355   32.4593 C   0  0  0  0  0  0  0  0  0  0  0  0
   21.2163   10.2479   32.4576 N   0  0  0  0  0  0  0  0  0  0  0  0
   20.2907   10.8810   33.1858 N   0  0  0  0  0  0  0  0  0  0  0  0
   19.4422    9.9506   33.6372 C   0  0  0  0  0  0  0  0  0  0  0  0
   19.8404    8.7545   33.1927 N   0  0  0  0  0  0  0  0  0  0  0  0
   21.6010    6.9934   31.7244 H   0  0  0  0  0  0  0  0  0  0  0  0
  7  8  1  0  0  0
  8  9  2  0  0  0
  8 13  1  0  0  0
  9 10  1  0  0  0
 10 11  2  0  0  0
 11 12  1  0  0  0
 12 13  2  0  0  0
 12  1  1  0  0  0
  1  2  2  0  0  0
  1  3  1  0  0  0
  3  4  1  0  0  0
  3  6  1  0  0  0
  4  5  1  0  0  0
  5  6  1  0  0  0
  5 14  1  0  0  0
 14 15  1  0  0  0
 15 16  2  0  0  0
 15 21  1  0  0  0
 16 17  1  0  0  0
 17 18  2  0  0  0
 17 19  1  0  0  0
 19 20  1  0  0  0
 20 21  1  0  0  0
 20 24  2  0  0  0
 21 22  1  0  0  0
 22 23  2  0  0  0
 23 24  1  0  0  0
 19 25  1  0  0  0
M  END
> <minimizedAffinity>
-8.90469

$$$$
683


 20 22  0  0  0  0  0  0  0  0999 V2000
   23.3021    9.8401   31.7564 N   0  0  0  0  0  0  0  0  0  0  0  0
   23.8501    9.7037   30.4169 C   0  0  0  0  0  0  0  0  0  0  0  0
   23.0377    8.7557   29.5640 C   0  0  0  0  0  0  0  0  0  0  0  0
   23.5587    7.3379   29.7210 C   0  0  0  0  0  0  0  0  0  0  0  0
   23.1418    6.7567   31.0531 C   0  0  0  0  0  0  0  0  0  0  0  0
   22.0974    7.6031   31.6515 C   0  0  0  0  0  0  0  0  0  0  0  0
   22.1883    8.9415   31.9493 C   0  0  0  0  0  0  0  0  0  0  0  0
   21.1404    9.5651   32.4936 N   0  0  0  0  0  0  0  0  0  0  0  0
   19.9958    8.9313   32.7637 C   0  0  0  0  0  0  0  0  0  0  0  0
   19.8829    7.5954   32.4753 C   0  0  0  0  0  0  0  0  0  0  0  0
   20.9498    6.9249   31.9124 C   0  0  0  0  0  0  0  0  0  0  0  0
   20.8098    5.5255   31.6189 N   0  0  0  0  0  0  0  0  0  0  0  0
   18.7138    6.8855   32.7358 C   0  0  0  0  0  0  0  0  0  0  0  0
   17.6615    7.5653   33.2965 C   0  0  0  0  0  0  0  0  0  0  0  0
   17.7756    8.9031   33.5848 C   0  0  0  0  0  0  0  0  0  0  0  0
   18.9510    9.6043   33.3195 C   0  0  0  0  0  0  0  0  0  0  0  0
   22.7922   11.2004   31.8894 C   0  0  0  0  0  0  0  0  0  0  0  0
   24.0424    9.6614   32.4730 H   0  0  0  0  0  0  0  0  0  0  0  0
   20.8366    5.2026   30.6390 H   0  0  0  0  0  0  0  0  0  0  0  0
   20.6790    4.8243   32.3837 H   0  0  0  0  0  0  0  0  0  0  0  0
  1  2  1  0  0  0
  1  7  1  0  0  0
  1 17  1  0  0  0
  2  3  1  0  0  0
  3  4  1  0  0  0
  4  5  1  0  0  0
  5  6  1  0  0  0
  6  7  2  0  0  0
  6 11  1  0  0  0
  7  8  1  0  0  0
  8  9  2  0  0  0
  9 10  1  0  0  0
  9 16  1  0  0  0
 10 11  2  0  0  0
 10 13  1  0  0  0
 11 12  1  0  0  0
 13 14  2  0  0  0
 14 15  1  0  0  0
 15 16  2  0  0  0
  1 18  1  0  0  0
 12 19  1  0  0  0
 12 20  1  0  0  0
M  CHG 1   1   1
M  END
> <minimizedAffinity>
-8.70761

$$$$
684


 19 21  0  0  0  0  0  0  0  0999 V2000
   23.8304    8.4655   30.9329 N   0  0  0  0  0  0  0  0  0  0  0  0
   24.7326    9.2440   31.8015 C   0  0  0  0  0  0  0  0  0  0  0  0
   24.5361   10.6961   31.5129 C   0  0  0  0  0  0  0  0  0  0  0  0
   23.1128   11.0759   31.8212 C   0  0  0  0  0  0  0  0  0  0  0  0
   22.1926    9.9355   31.9635 C   0  0  0  0  0  0  0  0  0  0  0  0
   22.5357    8.6733   31.5331 C   0  0  0  0  0  0  0  0  0  0  0  0
   21.6561    7.6864   31.6905 N   0  0  0  0  0  0  0  0  0  0  0  0
   20.4389    7.8521   32.2508 C   0  0  0  0  0  0  0  0  0  0  0  0
   20.0614    9.1026   32.6930 C   0  0  0  0  0  0  0  0  0  0  0  0
   20.9394   10.1542   32.5513 C   0  0  0  0  0  0  0  0  0  0  0  0
   20.5463   11.4428   33.0088 N   0  0  0  0  0  0  0  0  0  0  0  0
   18.8033    9.2775   33.2728 C   0  0  0  0  0  0  0  0  0  0  0  0
   17.9110    8.2395   33.4243 C   0  0  0  0  0  0  0  0  0  0  0  0
   18.2940    6.9905   32.9792 C   0  0  0  0  0  0  0  0  0  0  0  0
   19.5434    6.8157   32.4034 C   0  0  0  0  0  0  0  0  0  0  0  0
   24.2537    7.0854   31.0547 C   0  0  0  0  0  0  0  0  0  0  0  0
   23.8701    8.8137   29.9606 H   0  0  0  0  0  0  0  0  0  0  0  0
   20.4686   11.5734   34.0415 H   0  0  0  0  0  0  0  0  0  0  0  0
   20.3351   12.2464   32.4001 H   0  0  0  0  0  0  0  0  0  0  0  0
  1  2  1  0  0  0
  1  6  1  0  0  0
  1 16  1  0  0  0
  2  3  1  0  0  0
  3  4  1  0  0  0
  4  5  1  0  0  0
  5  6  2  0  0  0
  5 10  1  0  0  0
  6  7  1  0  0  0
  7  8  2  0  0  0
  8  9  1  0  0  0
  8 15  1  0  0  0
  9 10  2  0  0  0
  9 12  1  0  0  0
 10 11  1  0  0  0
 12 13  2  0  0  0
 13 14  1  0  0  0
 14 15  2  0  0  0
  1 17  1  0  0  0
 11 18  1  0  0  0
 11 19  1  0  0  0
M  CHG 1   1   1
M  END
> <minimizedAffinity>
-8.25118

$$$$
692


 29 32  0  0  0  0  0  0  0  0999 V2000
   22.6756   10.6167   31.6007 Br  0  0  0  0  0  0  0  0  0  0  0  0
   21.8749    8.8968   31.7020 C   0  0  0  0  0  0  0  0  0  0  0  0
   22.6093    7.7828   31.3430 C   0  0  0  0  0  0  0  0  0  0  0  0
   22.0781    6.4852   31.3930 C   0  0  0  0  0  0  0  0  0  0  0  0
   20.7831    6.3101   31.8131 C   0  0  0  0  0  0  0  0  0  0  0  0
   20.0433    7.4199   32.1737 C   0  0  0  0  0  0  0  0  0  0  0  0
   20.5644    8.6942   32.1245 C   0  0  0  0  0  0  0  0  0  0  0  0
   18.2449    7.2135   32.7612 Br  0  0  0  0  0  0  0  0  0  0  0  0
   22.8883    5.3420   30.9905 C   0  0  0  0  0  0  0  0  0  0  0  0
   22.2499    4.3126   30.6379 O   0  0  0  0  0  0  0  0  0  0  0  0
   24.3464    5.3759   30.9915 C   0  0  0  0  0  0  0  0  0  0  0  0
   24.8072    6.8238   31.3076 C   0  0  0  0  0  0  0  0  0  0  0  0
   23.9213    7.8019   30.9025 O   0  0  0  0  0  0  0  0  0  0  0  0
   25.0469    4.5599   31.9780 C   0  0  0  0  0  0  0  0  0  0  0  0
   24.7906    3.2320   32.2934 N   0  0  0  0  0  0  0  0  0  0  0  0
   23.9197    2.8895   33.3739 C   0  0  0  0  0  0  0  0  0  0  0  0
   23.3825    1.4699   33.0578 C   0  0  0  0  0  0  0  0  0  0  0  0
   24.5503    0.5404   33.3146 C   0  0  0  0  0  0  0  0  0  0  0  0
   25.8656    1.2866   33.3454 C   0  0  0  0  0  0  0  0  0  0  0  0
   25.9410    2.3406   32.2616 C   0  0  0  0  0  0  0  0  0  0  0  0
   24.2210    2.8783   31.4388 H   0  0  0  0  0  0  0  0  0  0  0  0
   24.8214    5.0143   29.5928 C   0  0  0  0  0  0  0  0  0  0  0  0
   26.1569    5.4816   29.3136 N   0  0  0  0  0  0  0  0  0  0  0  0
   26.2378    5.7757   27.8900 C   0  0  0  0  0  0  0  0  0  0  0  0
   25.8036    4.5742   27.1181 C   0  0  0  0  0  0  0  0  0  0  0  0
   26.5102    3.3139   27.4592 C   0  0  0  0  0  0  0  0  0  0  0  0
   26.8856    3.1560   28.8922 C   0  0  0  0  0  0  0  0  0  0  0  0
   27.1938    4.4901   29.5345 C   0  0  0  0  0  0  0  0  0  0  0  0
   26.4054    6.3010   29.8958 H   0  0  0  0  0  0  0  0  0  0  0  0
  1  2  1  0  0  0
  2  3  2  0  0  0
  2  7  1  0  0  0
  3  4  1  0  0  0
  3 13  1  0  0  0
  4  5  2  0  0  0
  4  9  1  0  0  0
  5  6  1  0  0  0
  6  7  2  0  0  0
  6  8  1  0  0  0
  9 10  2  0  0  0
  9 11  1  0  0  0
 11 12  1  0  0  0
 11 14  1  0  0  0
 11 22  1  0  0  0
 12 13  1  0  0  0
 14 15  1  0  0  0
 15 16  1  0  0  0
 15 20  1  0  0  0
 16 17  1  0  0  0
 17 18  1  0  0  0
 18 19  1  0  0  0
 19 20  1  0  0  0
 22 23  1  0  0  0
 23 24  1  0  0  0
 23 28  1  0  0  0
 24 25  1  0  0  0
 25 26  1  0  0  0
 26 27  1  0  0  0
 27 28  1  0  0  0
 15 21  1  0  0  0
 23 29  1  0  0  0
M  CHG 1  15   1
M  CHG 1  23   1
M  END
> <minimizedAffinity>
-7.15207

$$$$
693


 33 36  0  0  0  0  0  0  0  0999 V2000
   25.5395   10.3619   30.4890 N   0  0  0  0  0  0  0  0  0  0  0  0
   26.5310   10.3407   29.4831 C   0  0  0  0  0  0  0  0  0  0  0  0
   26.7339   11.3471   28.7726 O   0  0  0  0  0  0  0  0  0  0  0  0
   25.3164    9.5609   31.1174 H   0  0  0  0  0  0  0  0  0  0  0  0
   18.9054   12.4758   33.1482 Br  0  0  0  0  0  0  0  0  0  0  0  0
   20.5279   13.0946   32.3431 C   0  0  0  0  0  0  0  0  0  0  0  0
   21.5490   12.2279   32.0109 C   0  0  0  0  0  0  0  0  0  0  0  0
   22.7259   12.6636   31.4262 C   0  0  0  0  0  0  0  0  0  0  0  0
   22.8303   14.0171   31.1903 C   0  0  0  0  0  0  0  0  0  0  0  0
   21.8342   14.9125   31.5086 C   0  0  0  0  0  0  0  0  0  0  0  0
   20.6623   14.4603   32.0927 C   0  0  0  0  0  0  0  0  0  0  0  0
   22.0427   16.7792   31.1537 Br  0  0  0  0  0  0  0  0  0  0  0  0
   23.6298   11.5506   31.1771 C   0  0  0  0  0  0  0  0  0  0  0  0
   24.7996   11.5362   30.6572 N   0  0  0  0  0  0  0  0  0  0  0  0
   22.9265   10.3551   31.6550 C   0  0  0  0  0  0  0  0  0  0  0  0
   23.4053    9.1907   31.6024 O   0  0  0  0  0  0  0  0  0  0  0  0
   21.6835   10.8171   32.1451 N   0  0  0  0  0  0  0  0  0  0  0  0
   20.9566   10.2055   32.5536 H   0  0  0  0  0  0  0  0  0  0  0  0
   27.3769    9.1342   29.2180 C   0  0  0  0  0  0  0  0  0  0  0  0
   26.5976    7.9271   29.1891 N   0  0  0  0  0  0  0  0  0  0  0  0
   26.8700    6.8534   28.2984 C   0  0  0  0  0  0  0  0  0  0  0  0
   27.8313    6.9683   27.5071 O   0  0  0  0  0  0  0  0  0  0  0  0
   25.7855    7.7889   29.8354 H   0  0  0  0  0  0  0  0  0  0  0  0
   26.0675    5.5944   28.2548 C   0  0  0  0  0  0  0  0  0  0  0  0
   24.7415    5.8071   28.6390 O   0  0  0  0  0  0  0  0  0  0  0  0
   24.1723    5.3471   29.8244 C   0  0  0  0  0  0  0  0  0  0  0  0
   24.8231    4.3307   30.4724 C   0  0  0  0  0  0  0  0  0  0  0  0
   24.2751    3.8493   31.6615 C   0  0  0  0  0  0  0  0  0  0  0  0
   23.1136    4.3561   32.1985 C   0  0  0  0  0  0  0  0  0  0  0  0
   22.4854    5.3802   31.5167 C   0  0  0  0  0  0  0  0  0  0  0  0
   23.0212    5.8590   30.3442 C   0  0  0  0  0  0  0  0  0  0  0  0
   25.9777    3.8199   29.9470 O   0  0  0  0  0  0  0  0  0  0  0  0
   26.7343    4.4666   28.9612 C   0  0  0  0  0  0  0  0  0  0  0  0
  5  6  1  0  0  0
  6  7  2  0  0  0
  6 11  1  0  0  0
  7  8  1  0  0  0
  7 17  1  0  0  0
  8  9  2  0  0  0
  8 13  1  0  0  0
  9 10  1  0  0  0
 10 11  2  0  0  0
 10 12  1  0  0  0
 13 14  2  0  0  0
 13 15  1  0  0  0
 14  1  1  0  0  0
  1  2  1  0  0  0
  2  3  2  0  0  0
  2 19  1  0  0  0
 19 20  1  0  0  0
 20 21  1  0  0  0
 21 22  2  0  0  0
 21 24  1  0  0  0
 24 25  1  0  0  0
 24 33  1  0  0  0
 25 26  1  0  0  0
 26 27  2  0  0  0
 26 31  1  0  0  0
 27 28  1  0  0  0
 27 32  1  0  0  0
 28 29  2  0  0  0
 29 30  1  0  0  0
 30 31  2  0  0  0
 32 33  1  0  0  0
 15 16  2  0  0  0
 15 17  1  0  0  0
  1  4  1  0  0  0
 20 23  1  0  0  0
 17 18  1  0  0  0
M  END
> <minimizedAffinity>
-9.05863

$$$$
695


 22 25  0  0  0  0  0  0  0  0999 V2000
   22.6074   10.6382   31.8169 C   0  0  0  0  0  0  0  0  0  0  0  0
   21.7424    5.3791   31.2537 Br  0  0  0  0  0  0  0  0  0  0  0  0
   21.2256    7.1326   31.8437 C   0  0  0  0  0  0  0  0  0  0  0  0
   20.0068    7.2570   32.4766 C   0  0  0  0  0  0  0  0  0  0  0  0
   19.6370    8.5102   32.8989 C   0  0  0  0  0  0  0  0  0  0  0  0
   20.4762    9.6053   32.6853 C   0  0  0  0  0  0  0  0  0  0  0  0
   21.6936    9.4919   32.0550 C   0  0  0  0  0  0  0  0  0  0  0  0
   22.0596    8.2115   31.6293 C   0  0  0  0  0  0  0  0  0  0  0  0
   18.3844    8.3681   33.4988 O   0  0  0  0  0  0  0  0  0  0  0  0
   17.7969    7.1681   32.9724 C   0  0  0  0  0  0  0  0  0  0  0  0
   18.9804    6.3709   32.8241 O   0  0  0  0  0  0  0  0  0  0  0  0
   22.2917   11.2471   30.5480 N   0  0  0  0  0  0  0  0  0  0  0  0
   21.9958   10.6882   29.7301 H   0  0  0  0  0  0  0  0  0  0  0  0
   22.3972   12.6784   30.4314 C   0  0  0  0  0  0  0  0  0  0  0  0
   23.3492   13.2426   29.6758 N   0  0  0  0  0  0  0  0  0  0  0  0
   23.4405   14.5804   29.5724 C   0  0  0  0  0  0  0  0  0  0  0  0
   22.5550   15.4193   30.2423 C   0  0  0  0  0  0  0  0  0  0  0  0
   21.6107   14.8508   30.9915 N   0  0  0  0  0  0  0  0  0  0  0  0
   21.5158   13.5003   31.0982 C   0  0  0  0  0  0  0  0  0  0  0  0
   20.4819   13.2267   31.9104 N   0  0  0  0  0  0  0  0  0  0  0  0
   19.9227   14.3535   32.3185 N   0  0  0  0  0  0  0  0  0  0  0  0
   20.6179   15.3441   31.7534 C   0  0  0  0  0  0  0  0  0  0  0  0
  2  3  1  0  0  0
  3  4  2  0  0  0
  3  8  1  0  0  0
  4  5  1  0  0  0
  4 11  1  0  0  0
  5  6  2  0  0  0
  5  9  1  0  0  0
  6  7  1  0  0  0
  7  8  2  0  0  0
  7  1  1  0  0  0
  1 12  1  0  0  0
 12 14  1  0  0  0
 14 15  2  0  0  0
 14 19  1  0  0  0
 15 16  1  0  0  0
 16 17  2  0  0  0
 17 18  1  0  0  0
 18 19  1  0  0  0
 18 22  1  0  0  0
 19 20  2  0  0  0
 20 21  1  0  0  0
 21 22  2  0  0  0
  9 10  1  0  0  0
 10 11  1  0  0  0
 12 13  1  0  0  0
M  END
> <minimizedAffinity>
-8.09929

$$$$
696


 28 31  0  0  0  0  0  0  0  0999 V2000
   25.3923   12.2485   27.7097 Br  0  0  0  0  0  0  0  0  0  0  0  0
   24.5079   12.1445   29.3861 C   0  0  0  0  0  0  0  0  0  0  0  0
   24.3252   10.8915   29.9865 C   0  0  0  0  0  0  0  0  0  0  0  0
   23.7061   10.7558   31.1914 C   0  0  0  0  0  0  0  0  0  0  0  0
   23.2463   11.8937   31.8311 C   0  0  0  0  0  0  0  0  0  0  0  0
   23.4229   13.1409   31.2425 C   0  0  0  0  0  0  0  0  0  0  0  0
   24.0499   13.2749   30.0256 C   0  0  0  0  0  0  0  0  0  0  0  0
   22.9424   14.3903   31.8988 C   0  0  0  0  0  0  0  0  0  0  0  0
   23.5614    9.4188   31.8291 C   0  0  0  0  0  0  0  0  0  0  0  0
   23.4349    8.2537   30.9149 C   0  0  0  0  0  0  0  0  0  0  0  0
   23.8019    8.6428   29.4626 C   0  0  0  0  0  0  0  0  0  0  0  0
   24.7480    9.6982   29.4182 O   0  0  0  0  0  0  0  0  0  0  0  0
   24.7075    9.3582   32.6707 O   0  0  0  0  0  0  0  0  0  0  0  0
   24.5689    9.8598   33.4923 H   0  0  0  0  0  0  0  0  0  0  0  0
   22.0063    7.7630   30.7749 C   0  0  0  0  0  0  0  0  0  0  0  0
   21.2801    7.6576   32.0222 N   0  0  0  0  0  0  0  0  0  0  0  0
   20.6470    6.3414   32.1088 C   0  0  0  0  0  0  0  0  0  0  0  0
   19.4934    6.4549   33.0351 C   0  0  0  0  0  0  0  0  0  0  0  0
   19.3657    7.9205   33.2795 C   0  0  0  0  0  0  0  0  0  0  0  0
   20.0949    8.4981   32.0594 C   0  0  0  0  0  0  0  0  0  0  0  0
   21.8221    7.8734   32.8711 H   0  0  0  0  0  0  0  0  0  0  0  0
   24.3930    7.1704   31.2369 C   0  0  0  0  0  0  0  0  0  0  0  0
   24.4648    5.8877   30.7598 N   0  0  0  0  0  0  0  0  0  0  0  0
   25.8336    5.5986   30.2756 C   0  0  0  0  0  0  0  0  0  0  0  0
   26.0914    4.1708   30.5642 C   0  0  0  0  0  0  0  0  0  0  0  0
   25.1949    3.7944   31.6808 C   0  0  0  0  0  0  0  0  0  0  0  0
   24.0679    4.8208   31.5823 C   0  0  0  0  0  0  0  0  0  0  0  0
   23.9308    5.7903   29.7878 H   0  0  0  0  0  0  0  0  0  0  0  0
  1  2  1  0  0  0
  2  3  2  0  0  0
  2  7  1  0  0  0
  3  4  1  0  0  0
  3 12  1  0  0  0
  4  5  2  0  0  0
  4  9  1  0  0  0
  5  6  1  0  0  0
  6  7  2  0  0  0
  6  8  1  0  0  0
  9 10  1  0  0  0
  9 13  1  0  0  0
 10 11  1  0  0  0
 10 15  1  0  0  0
 10 22  1  0  0  0
 11 12  1  0  0  0
 15 16  1  0  0  0
 16 17  1  0  0  0
 16 20  1  0  0  0
 17 18  1  0  0  0
 18 19  1  0  0  0
 19 20  1  0  0  0
 22 23  1  0  0  0
 23 24  1  0  0  0
 23 27  1  0  0  0
 24 25  1  0  0  0
 25 26  1  0  0  0
 26 27  1  0  0  0
 16 21  1  0  0  0
 23 28  1  0  0  0
 13 14  1  0  0  0
M  CHG 1  16   1
M  CHG 1  23   1
M  END
> <minimizedAffinity>
-7.00301

$$$$
699


 32 35  0  0  0  0  0  0  0  0999 V2000
   25.1984    8.0443   29.5618 C   0  0  0  0  0  0  0  0  0  0  0  0
   26.1164    7.2227   30.1627 O   0  0  0  0  0  0  0  0  0  0  0  0
   25.8000    6.7640   30.9619 H   0  0  0  0  0  0  0  0  0  0  0  0
   23.7719    7.6368   29.8313 C   0  0  0  0  0  0  0  0  0  0  0  0
   23.5437    7.3737   31.2023 O   0  0  0  0  0  0  0  0  0  0  0  0
   21.2403    5.3911   30.9647 Br  0  0  0  0  0  0  0  0  0  0  0  0
   21.1990    7.1167   31.7651 C   0  0  0  0  0  0  0  0  0  0  0  0
   20.0207    7.5776   32.3181 C   0  0  0  0  0  0  0  0  0  0  0  0
   19.9618    8.8242   32.9054 C   0  0  0  0  0  0  0  0  0  0  0  0
   21.1214    9.5721   32.9109 C   0  0  0  0  0  0  0  0  0  0  0  0
   22.2957    9.1036   32.3561 C   0  0  0  0  0  0  0  0  0  0  0  0
   22.3647    7.8577   31.7660 C   0  0  0  0  0  0  0  0  0  0  0  0
   18.7797    9.2861   33.4598 C   0  0  0  0  0  0  0  0  0  0  0  0
   17.6196    8.5389   33.4554 C   0  0  0  0  0  0  0  0  0  0  0  0
   17.6777    7.2910   32.8670 C   0  0  0  0  0  0  0  0  0  0  0  0
   18.8560    6.8300   32.3140 C   0  0  0  0  0  0  0  0  0  0  0  0
   25.4133    9.4790   29.8993 C   0  0  0  0  0  0  0  0  0  0  0  0
   24.2817   10.1048   30.5465 N   0  0  0  0  0  0  0  0  0  0  0  0
   23.4755   10.7044   29.4981 C   0  0  0  0  0  0  0  0  0  0  0  0
   22.3795   11.6170   30.0672 C   0  0  0  0  0  0  0  0  0  0  0  0
   22.9886   12.6205   30.8646 N   0  0  0  0  0  0  0  0  0  0  0  0
   24.4558   12.5017   30.9955 C   0  0  0  0  0  0  0  0  0  0  0  0
   24.7761   11.1211   31.4636 C   0  0  0  0  0  0  0  0  0  0  0  0
   22.3135   13.6671   31.5027 C   0  0  0  0  0  0  0  0  0  0  0  0
   23.1173   14.4659   32.1860 O   0  0  0  0  0  0  0  0  0  0  0  0
   23.6749    9.4386   31.0693 H   0  0  0  0  0  0  0  0  0  0  0  0
   20.9344   14.0304   31.5556 C   0  0  0  0  0  0  0  0  0  0  0  0
   20.3402   15.0834   30.9207 C   0  0  0  0  0  0  0  0  0  0  0  0
   18.9881   15.3826   31.0152 C   0  0  0  0  0  0  0  0  0  0  0  0
   18.1702   14.6076   31.7731 C   0  0  0  0  0  0  0  0  0  0  0  0
   18.7401   13.5351   32.4279 C   0  0  0  0  0  0  0  0  0  0  0  0
   20.0768   13.2398   32.3352 C   0  0  0  0  0  0  0  0  0  0  0  0
  6  7  1  0  0  0
  7  8  2  0  0  0
  7 12  1  0  0  0
  8  9  1  0  0  0
  8 16  1  0  0  0
  9 10  2  0  0  0
  9 13  1  0  0  0
 10 11  1  0  0  0
 11 12  2  0  0  0
 12  5  1  0  0  0
  5  4  1  0  0  0
  4  1  1  0  0  0
  1  2  1  0  0  0
  1 17  1  0  0  0
 17 18  1  0  0  0
 18 19  1  0  0  0
 18 23  1  0  0  0
 19 20  1  0  0  0
 20 21  1  0  0  0
 21 22  1  0  0  0
 21 24  1  0  0  0
 22 23  1  0  0  0
 24 25  2  0  0  0
 24 27  1  0  0  0
 27 28  2  0  0  0
 27 32  1  0  0  0
 28 29  1  0  0  0
 29 30  2  0  0  0
 30 31  1  0  0  0
 31 32  2  0  0  0
 13 14  2  0  0  0
 14 15  1  0  0  0
 15 16  2  0  0  0
  2  3  1  0  0  0
 18 26  1  0  0  0
M  CHG 1  18   1
M  END
> <minimizedAffinity>
-9.84189

$$$$
706


 30 33  0  0  0  0  0  0  0  0999 V2000
   21.9351    8.8308   30.8896 C   0  0  0  0  0  0  0  0  0  0  0  0
   20.0357    6.5854   32.3946 Br  0  0  0  0  0  0  0  0  0  0  0  0
   21.7643    6.4913   31.5440 C   0  0  0  0  0  0  0  0  0  0  0  0
   22.4352    7.4992   30.9558 N   0  0  0  0  0  0  0  0  0  0  0  0
   23.6035    7.0406   30.4795 C   0  0  0  0  0  0  0  0  0  0  0  0
   23.6685    5.6939   30.7799 C   0  0  0  0  0  0  0  0  0  0  0  0
   22.5338    5.3952   31.4260 N   0  0  0  0  0  0  0  0  0  0  0  0
   24.7609    4.9981   30.4043 N   0  0  0  0  0  0  0  0  0  0  0  0
   25.7974    5.5633   29.7466 C   0  0  0  0  0  0  0  0  0  0  0  0
   26.8058    4.8730   29.4118 O   0  0  0  0  0  0  0  0  0  0  0  0
   25.7677    6.8727   29.4387 N   0  0  0  0  0  0  0  0  0  0  0  0
   24.6834    7.5757   29.8088 C   0  0  0  0  0  0  0  0  0  0  0  0
   24.6465    8.7915   29.5299 O   0  0  0  0  0  0  0  0  0  0  0  0
   26.8925    7.4565   28.7336 C   0  0  0  0  0  0  0  0  0  0  0  0
   24.8197    3.5862   30.7226 C   0  0  0  0  0  0  0  0  0  0  0  0
   22.4005    9.7855   31.9276 C   0  0  0  0  0  0  0  0  0  0  0  0
   21.7348   11.0420   32.0116 N   0  0  0  0  0  0  0  0  0  0  0  0
   22.1087   12.1758   31.3679 C   0  0  0  0  0  0  0  0  0  0  0  0
   21.2405   13.1895   31.6906 C   0  0  0  0  0  0  0  0  0  0  0  0
   20.3508   12.6355   32.5311 N   0  0  0  0  0  0  0  0  0  0  0  0
   20.6469   11.3430   32.7262 C   0  0  0  0  0  0  0  0  0  0  0  0
   19.7055   10.0818   33.8396 Br  0  0  0  0  0  0  0  0  0  0  0  0
   21.3540   14.4523   31.1992 N   0  0  0  0  0  0  0  0  0  0  0  0
   22.3786   14.6849   30.3593 C   0  0  0  0  0  0  0  0  0  0  0  0
   22.4951   15.8523   29.8964 O   0  0  0  0  0  0  0  0  0  0  0  0
   23.2594   13.7316   30.0081 N   0  0  0  0  0  0  0  0  0  0  0  0
   23.1401   12.4974   30.4948 C   0  0  0  0  0  0  0  0  0  0  0  0
   23.9309   11.5593   30.2063 O   0  0  0  0  0  0  0  0  0  0  0  0
   24.3453   14.0338   29.0998 C   0  0  0  0  0  0  0  0  0  0  0  0
   20.4129   15.5032   31.5631 C   0  0  0  0  0  0  0  0  0  0  0  0
  2  3  1  0  0  0
  3  4  1  0  0  0
  3  7  2  0  0  0
  4  5  1  0  0  0
  4  1  1  0  0  0
  5  6  2  0  0  0
  5 12  1  0  0  0
  6  7  1  0  0  0
  6  8  1  0  0  0
  8  9  1  0  0  0
  8 15  1  0  0  0
  9 10  2  0  0  0
  9 11  1  0  0  0
 11 12  1  0  0  0
 11 14  1  0  0  0
 12 13  2  0  0  0
  1 16  1  0  0  0
 16 17  1  0  0  0
 17 18  1  0  0  0
 17 21  1  0  0  0
 18 19  2  0  0  0
 18 27  1  0  0  0
 19 20  1  0  0  0
 19 23  1  0  0  0
 20 21  2  0  0  0
 21 22  1  0  0  0
 23 24  1  0  0  0
 23 30  1  0  0  0
 24 25  2  0  0  0
 24 26  1  0  0  0
 26 27  1  0  0  0
 26 29  1  0  0  0
 27 28  2  0  0  0
M  END
> <minimizedAffinity>
-8.82133

$$$$
708


 31 34  0  0  0  0  0  0  0  0999 V2000
   22.8776   11.9720   30.7073 C   0  0  0  0  0  0  0  0  0  0  0  0
   24.0798   12.8660   30.6210 C   0  0  0  0  0  0  0  0  0  0  0  0
   25.7621   12.0662   27.9532 Br  0  0  0  0  0  0  0  0  0  0  0  0
   24.7032   13.6057   28.3195 C   0  0  0  0  0  0  0  0  0  0  0  0
   24.0457   13.7889   29.5051 N   0  0  0  0  0  0  0  0  0  0  0  0
   23.4235   14.9770   29.3708 C   0  0  0  0  0  0  0  0  0  0  0  0
   23.6804   15.5320   28.1275 C   0  0  0  0  0  0  0  0  0  0  0  0
   24.4835   14.6451   27.5012 N   0  0  0  0  0  0  0  0  0  0  0  0
   23.1973   16.7161   27.7137 N   0  0  0  0  0  0  0  0  0  0  0  0
   22.4189   17.3846   28.5834 C   0  0  0  0  0  0  0  0  0  0  0  0
   21.9345   18.5142   28.2371 O   0  0  0  0  0  0  0  0  0  0  0  0
   22.1446   16.8831   29.8017 N   0  0  0  0  0  0  0  0  0  0  0  0
   22.6326   15.6834   30.2240 C   0  0  0  0  0  0  0  0  0  0  0  0
   22.3702   15.2331   31.3583 O   0  0  0  0  0  0  0  0  0  0  0  0
   23.4698   17.2877   26.4123 C   0  0  0  0  0  0  0  0  0  0  0  0
   21.5432   17.3881   30.4869 H   0  0  0  0  0  0  0  0  0  0  0  0
   22.6646   11.3371   32.0515 C   0  0  0  0  0  0  0  0  0  0  0  0
   22.4128    9.9112   31.8955 N   0  0  0  0  0  0  0  0  0  0  0  0
   21.3057    9.2117   32.2338 C   0  0  0  0  0  0  0  0  0  0  0  0
   21.4671    7.8823   31.9198 C   0  0  0  0  0  0  0  0  0  0  0  0
   22.6975    7.7845   31.3825 N   0  0  0  0  0  0  0  0  0  0  0  0
   23.2610    9.0117   31.3719 C   0  0  0  0  0  0  0  0  0  0  0  0
   24.9982    9.4663   30.7217 Br  0  0  0  0  0  0  0  0  0  0  0  0
   20.5287    6.9435   32.1430 N   0  0  0  0  0  0  0  0  0  0  0  0
   19.3725    7.3672   32.7102 C   0  0  0  0  0  0  0  0  0  0  0  0
   18.4848    6.4854   32.9211 O   0  0  0  0  0  0  0  0  0  0  0  0
   19.1732    8.6622   33.0337 N   0  0  0  0  0  0  0  0  0  0  0  0
   20.1207    9.5945   32.8051 C   0  0  0  0  0  0  0  0  0  0  0  0
   19.9667   10.8060   33.0940 O   0  0  0  0  0  0  0  0  0  0  0  0
   20.7449    5.5418   31.7929 C   0  0  0  0  0  0  0  0  0  0  0  0
   18.2662    8.9286   33.4655 H   0  0  0  0  0  0  0  0  0  0  0  0
  3  4  1  0  0  0
  4  5  1  0  0  0
  4  8  2  0  0  0
  5  6  1  0  0  0
  5  2  1  0  0  0
  6  7  2  0  0  0
  6 13  1  0  0  0
  7  8  1  0  0  0
  7  9  1  0  0  0
  9 10  1  0  0  0
  9 15  1  0  0  0
 10 11  2  0  0  0
 10 12  1  0  0  0
 12 13  1  0  0  0
 13 14  2  0  0  0
  2  1  1  0  0  0
  1 17  1  0  0  0
 17 18  1  0  0  0
 18 19  1  0  0  0
 18 22  1  0  0  0
 19 20  2  0  0  0
 19 28  1  0  0  0
 20 21  1  0  0  0
 20 24  1  0  0  0
 21 22  2  0  0  0
 22 23  1  0  0  0
 24 25  1  0  0  0
 24 30  1  0  0  0
 25 26  2  0  0  0
 25 27  1  0  0  0
 27 28  1  0  0  0
 28 29  2  0  0  0
 12 16  1  0  0  0
 27 31  1  0  0  0
M  END
> <minimizedAffinity>
-9.24795

$$$$
709


 30 33  0  0  0  0  0  0  0  0999 V2000
   22.0142    9.6494   30.8021 C   0  0  0  0  0  0  0  0  0  0  0  0
   19.8791    8.4487   32.9291 Br  0  0  0  0  0  0  0  0  0  0  0  0
   21.3222    7.6095   32.0020 C   0  0  0  0  0  0  0  0  0  0  0  0
   22.1222    8.2692   31.1313 N   0  0  0  0  0  0  0  0  0  0  0  0
   23.0167    7.3591   30.6804 C   0  0  0  0  0  0  0  0  0  0  0  0
   22.7771    6.1213   31.2705 C   0  0  0  0  0  0  0  0  0  0  0  0
   21.7155    6.3287   32.0820 N   0  0  0  0  0  0  0  0  0  0  0  0
   23.5440    5.0543   30.9831 N   0  0  0  0  0  0  0  0  0  0  0  0
   24.5657    5.1605   30.1155 C   0  0  0  0  0  0  0  0  0  0  0  0
   25.2957    4.1566   29.8376 O   0  0  0  0  0  0  0  0  0  0  0  0
   24.8451    6.3323   29.5167 N   0  0  0  0  0  0  0  0  0  0  0  0
   24.0733    7.4124   29.8032 C   0  0  0  0  0  0  0  0  0  0  0  0
   24.3061    8.5331   29.2621 O   0  0  0  0  0  0  0  0  0  0  0  0
   23.3007    3.7662   31.5912 C   0  0  0  0  0  0  0  0  0  0  0  0
   25.6324    6.4369   28.8412 H   0  0  0  0  0  0  0  0  0  0  0  0
   22.7512   10.6110   31.6645 C   0  0  0  0  0  0  0  0  0  0  0  0
   22.8382   11.9648   31.2443 N   0  0  0  0  0  0  0  0  0  0  0  0
   21.9490   12.9497   31.4532 C   0  0  0  0  0  0  0  0  0  0  0  0
   22.4164   14.1089   30.8699 C   0  0  0  0  0  0  0  0  0  0  0  0
   23.5997   13.7656   30.3215 N   0  0  0  0  0  0  0  0  0  0  0  0
   23.8803   12.4844   30.5305 C   0  0  0  0  0  0  0  0  0  0  0  0
   25.4422   11.5151   29.9531 Br  0  0  0  0  0  0  0  0  0  0  0  0
   21.7063   15.2336   30.9486 N   0  0  0  0  0  0  0  0  0  0  0  0
   20.5356   15.2535   31.5907 C   0  0  0  0  0  0  0  0  0  0  0  0
   19.8326   16.3142   31.6811 O   0  0  0  0  0  0  0  0  0  0  0  0
   20.0123   14.1664   32.1849 N   0  0  0  0  0  0  0  0  0  0  0  0
   20.7289   13.0379   32.1051 C   0  0  0  0  0  0  0  0  0  0  0  0
   20.2516   12.0219   32.6576 O   0  0  0  0  0  0  0  0  0  0  0  0
   22.1829   16.4544   30.3413 C   0  0  0  0  0  0  0  0  0  0  0  0
   19.0871   14.2164   32.6832 H   0  0  0  0  0  0  0  0  0  0  0  0
  2  3  1  0  0  0
  3  4  1  0  0  0
  3  7  2  0  0  0
  4  5  1  0  0  0
  4  1  1  0  0  0
  5  6  2  0  0  0
  5 12  1  0  0  0
  6  7  1  0  0  0
  6  8  1  0  0  0
  8  9  1  0  0  0
  8 14  1  0  0  0
  9 10  2  0  0  0
  9 11  1  0  0  0
 11 12  1  0  0  0
 12 13  2  0  0  0
  1 16  1  0  0  0
 16 17  1  0  0  0
 17 18  1  0  0  0
 17 21  1  0  0  0
 18 19  2  0  0  0
 18 27  1  0  0  0
 19 20  1  0  0  0
 19 23  1  0  0  0
 20 21  2  0  0  0
 21 22  1  0  0  0
 23 24  1  0  0  0
 23 29  1  0  0  0
 24 25  2  0  0  0
 24 26  1  0  0  0
 26 27  1  0  0  0
 27 28  2  0  0  0
 11 15  1  0  0  0
 26 30  1  0  0  0
M  END
> <minimizedAffinity>
-8.88233

$$$$
716


 31 35  0  0  0  0  0  0  0  0999 V2000
   22.2741    9.6242   31.6460 C   0  0  0  0  0  0  0  0  0  0  0  0
   22.5729    8.2332   31.1343 C   0  0  0  0  0  0  0  0  0  0  0  0
   23.7916    8.2743   30.2595 C   0  0  0  0  0  0  0  0  0  0  0  0
   24.9639    8.6456   31.1783 C   0  0  0  0  0  0  0  0  0  0  0  0
   24.6755    9.9830   31.8118 C   0  0  0  0  0  0  0  0  0  0  0  0
   23.3903    9.9956   32.5982 C   0  0  0  0  0  0  0  0  0  0  0  0
   24.6331   11.0214   30.7364 C   0  0  0  0  0  0  0  0  0  0  0  0
   23.5120   10.6788   29.7808 C   0  0  0  0  0  0  0  0  0  0  0  0
   22.2361   10.6463   30.5531 C   0  0  0  0  0  0  0  0  0  0  0  0
   23.7437    9.3080   29.1842 C   0  0  0  0  0  0  0  0  0  0  0  0
   17.4410    7.9518   33.4368 Br  0  0  0  0  0  0  0  0  0  0  0  0
   19.0078    8.9961   33.0734 C   0  0  0  0  0  0  0  0  0  0  0  0
   20.0878    8.6367   32.3559 N   0  0  0  0  0  0  0  0  0  0  0  0
   20.9763    9.6217   32.3194 N   0  0  0  0  0  0  0  0  0  0  0  0
   20.4322   10.6222   33.0359 C   0  0  0  0  0  0  0  0  0  0  0  0
   19.2286   10.2589   33.5043 N   0  0  0  0  0  0  0  0  0  0  0  0
   24.0665    6.9559   29.6494 C   0  0  0  0  0  0  0  0  0  0  0  0
   23.0959    6.1810   29.4554 O   0  0  0  0  0  0  0  0  0  0  0  0
   25.3922    6.5755   29.2924 N   0  0  0  0  0  0  0  0  0  0  0  0
   26.1381    7.2699   29.4850 H   0  0  0  0  0  0  0  0  0  0  0  0
   25.7516    5.3342   28.7041 C   0  0  0  0  0  0  0  0  0  0  0  0
   25.7851    4.1428   29.3718 C   0  0  0  0  0  0  0  0  0  0  0  0
   26.1709    3.1971   28.4825 N   0  0  0  0  0  0  0  0  0  0  0  0
   26.3699    3.7699   27.3147 N   0  0  0  0  0  0  0  0  0  0  0  0
   26.1263    5.0818   27.4004 C   0  0  0  0  0  0  0  0  0  0  0  0
   26.3517    1.7758   28.7198 C   0  0  0  0  0  0  0  0  0  0  0  0
   25.4905    3.8149   30.7521 C   0  0  0  0  0  0  0  0  0  0  0  0
   26.4086    3.6540   31.5944 O   0  0  0  0  0  0  0  0  0  0  0  0
   24.1703    3.6525   31.2530 N   0  0  0  0  0  0  0  0  0  0  0  0
   23.7450    4.4597   31.7949 H   0  0  0  0  0  0  0  0  0  0  0  0
   23.5865    2.8028   31.1321 H   0  0  0  0  0  0  0  0  0  0  0  0
 11 12  1  0  0  0
 12 13  2  0  0  0
 12 16  1  0  0  0
 13 14  1  0  0  0
 14 15  1  0  0  0
 14  1  1  0  0  0
 15 16  2  0  0  0
  1  2  1  0  0  0
  1  6  1  0  0  0
  1  9  1  0  0  0
  2  3  1  0  0  0
  3  4  1  0  0  0
  3 10  1  0  0  0
  3 17  1  0  0  0
  4  5  1  0  0  0
  5  6  1  0  0  0
  5  7  1  0  0  0
  7  8  1  0  0  0
  8  9  1  0  0  0
  8 10  1  0  0  0
 17 18  2  0  0  0
 17 19  1  0  0  0
 19 21  1  0  0  0
 21 22  2  0  0  0
 21 25  1  0  0  0
 22 23  1  0  0  0
 22 27  1  0  0  0
 23 24  1  0  0  0
 23 26  1  0  0  0
 24 25  2  0  0  0
 27 28  2  0  0  0
 27 29  1  0  0  0
 19 20  1  0  0  0
 29 30  1  0  0  0
 29 31  1  0  0  0
M  END
> <minimizedAffinity>
-8.19204

$$$$
723


 23 26  0  0  0  0  0  0  0  0999 V2000
   24.1800    9.3834   29.6235 N   0  0  0  0  0  0  0  0  0  0  0  0
   25.3883    8.6813   29.9230 C   0  0  0  0  0  0  0  0  0  0  0  0
   25.3855    7.2779   29.4523 C   0  0  0  0  0  0  0  0  0  0  0  0
   24.2005    6.7726   28.9913 O   0  0  0  0  0  0  0  0  0  0  0  0
   23.0983    7.2352   29.7015 C   0  0  0  0  0  0  0  0  0  0  0  0
   22.9171    8.7134   29.5716 C   0  0  0  0  0  0  0  0  0  0  0  0
   22.4316   10.0075   32.2776 Br  0  0  0  0  0  0  0  0  0  0  0  0
   22.7401   11.6135   31.3035 C   0  0  0  0  0  0  0  0  0  0  0  0
   22.3123   12.8567   31.6173 N   0  0  0  0  0  0  0  0  0  0  0  0
   22.7293   13.7432   30.7430 N   0  0  0  0  0  0  0  0  0  0  0  0
   23.4483   13.0621   29.8324 C   0  0  0  0  0  0  0  0  0  0  0  0
   24.1119   13.4628   28.7431 N   0  0  0  0  0  0  0  0  0  0  0  0
   24.7897   12.5923   27.9735 C   0  0  0  0  0  0  0  0  0  0  0  0
   24.8184   11.2833   28.2800 N   0  0  0  0  0  0  0  0  0  0  0  0
   24.1627   10.7980   29.3791 C   0  0  0  0  0  0  0  0  0  0  0  0
   23.4813   11.6983   30.1493 C   0  0  0  0  0  0  0  0  0  0  0  0
   22.4565   15.1680   30.7719 C   0  0  0  0  0  0  0  0  0  0  0  0
   26.5841    9.4457   29.5025 C   0  0  0  0  0  0  0  0  0  0  0  0
   27.3442    9.1890   28.4371 N   0  0  0  0  0  0  0  0  0  0  0  0
   28.3285   10.1329   28.4310 C   0  0  0  0  0  0  0  0  0  0  0  0
   28.1118   10.9176   29.5018 N   0  0  0  0  0  0  0  0  0  0  0  0
   27.0577   10.4834   30.1292 O   0  0  0  0  0  0  0  0  0  0  0  0
   29.4255   10.2783   27.4469 C   0  0  0  0  0  0  0  0  0  0  0  0
  7  8  1  0  0  0
  8  9  2  0  0  0
  8 16  1  0  0  0
  9 10  1  0  0  0
 10 11  1  0  0  0
 10 17  1  0  0  0
 11 12  1  0  0  0
 11 16  2  0  0  0
 12 13  2  0  0  0
 13 14  1  0  0  0
 14 15  2  0  0  0
 15 16  1  0  0  0
 15  1  1  0  0  0
  1  2  1  0  0  0
  1  6  1  0  0  0
  2  3  1  0  0  0
  2 18  1  0  0  0
  3  4  1  0  0  0
  4  5  1  0  0  0
  5  6  1  0  0  0
 18 19  2  0  0  0
 18 22  1  0  0  0
 19 20  1  0  0  0
 20 21  2  0  0  0
 20 23  1  0  0  0
 21 22  1  0  0  0
M  END
> <minimizedAffinity>
-6.81437

$$$$
727


 21 24  0  0  0  0  0  0  0  0999 V2000
   21.2404   15.9968   31.4761 Br  0  0  0  0  0  0  0  0  0  0  0  0
   22.2031   16.4841   29.9077 C   0  0  0  0  0  0  0  0  0  0  0  0
   22.1514   17.6956   29.2803 N   0  0  0  0  0  0  0  0  0  0  0  0
   22.9625   17.6700   28.2497 N   0  0  0  0  0  0  0  0  0  0  0  0
   23.5592   16.4697   28.1665 C   0  0  0  0  0  0  0  0  0  0  0  0
   24.4615   15.9362   27.3275 N   0  0  0  0  0  0  0  0  0  0  0  0
   24.9112   14.6931   27.4764 C   0  0  0  0  0  0  0  0  0  0  0  0
   24.4624   13.9450   28.4799 N   0  0  0  0  0  0  0  0  0  0  0  0
   23.5393   14.3914   29.3949 C   0  0  0  0  0  0  0  0  0  0  0  0
   23.0886   15.6767   29.2264 C   0  0  0  0  0  0  0  0  0  0  0  0
   23.2346   18.7447   27.2838 C   0  0  0  0  0  0  0  0  0  0  0  0
   23.0686   13.5550   30.4070 N   0  0  0  0  0  0  0  0  0  0  0  0
   21.7869   12.8936   30.2993 C   0  0  0  0  0  0  0  0  0  0  0  0
   22.0658   11.3961   30.0525 C   0  0  0  0  0  0  0  0  0  0  0  0
   23.2442   10.9826   30.8447 C   0  0  0  0  0  0  0  0  0  0  0  0
   23.7189    9.7249   30.9984 N   0  0  0  0  0  0  0  0  0  0  0  0
   24.7999    9.7890   31.7940 C   0  0  0  0  0  0  0  0  0  0  0  0
   25.0318   11.0495   32.1550 N   0  0  0  0  0  0  0  0  0  0  0  0
   24.0679   11.7923   31.5677 C   0  0  0  0  0  0  0  0  0  0  0  0
   23.8122   13.2529   31.6034 C   0  0  0  0  0  0  0  0  0  0  0  0
   23.2038    8.5025   30.4368 C   0  0  0  0  0  0  0  0  0  0  0  0
  1  2  1  0  0  0
  2  3  2  0  0  0
  2 10  1  0  0  0
  3  4  1  0  0  0
  4  5  1  0  0  0
  4 11  1  0  0  0
  5  6  1  0  0  0
  5 10  2  0  0  0
  6  7  2  0  0  0
  7  8  1  0  0  0
  8  9  2  0  0  0
  9 10  1  0  0  0
  9 12  1  0  0  0
 12 13  1  0  0  0
 12 20  1  0  0  0
 13 14  1  0  0  0
 14 15  1  0  0  0
 15 16  1  0  0  0
 15 19  2  0  0  0
 16 17  1  0  0  0
 16 21  1  0  0  0
 17 18  2  0  0  0
 18 19  1  0  0  0
 19 20  1  0  0  0
M  END
> <minimizedAffinity>
-7.13208

$$$$
729


 27 30  0  0  0  0  0  0  0  0999 V2000
   23.6487   10.7307   30.4598 N   0  0  0  0  0  0  0  0  0  0  0  0
   23.2845    9.8943   29.3516 C   0  0  0  0  0  0  0  0  0  0  0  0
   22.5652    8.6965   29.9779 C   0  0  0  0  0  0  0  0  0  0  0  0
   22.9068    8.5662   31.3989 N   0  0  0  0  0  0  0  0  0  0  0  0
   24.3458    8.7763   31.5767 C   0  0  0  0  0  0  0  0  0  0  0  0
   24.6953   10.2301   31.3175 C   0  0  0  0  0  0  0  0  0  0  0  0
   25.4399   12.1374   28.2160 Br  0  0  0  0  0  0  0  0  0  0  0  0
   24.2043   13.3677   28.9609 C   0  0  0  0  0  0  0  0  0  0  0  0
   24.0266   14.6650   28.6532 N   0  0  0  0  0  0  0  0  0  0  0  0
   23.0934   15.2136   29.3835 N   0  0  0  0  0  0  0  0  0  0  0  0
   22.6204   14.2639   30.2130 C   0  0  0  0  0  0  0  0  0  0  0  0
   21.6774   14.2669   31.1709 N   0  0  0  0  0  0  0  0  0  0  0  0
   21.3807   13.1797   31.8884 C   0  0  0  0  0  0  0  0  0  0  0  0
   22.0358   12.0495   31.6516 N   0  0  0  0  0  0  0  0  0  0  0  0
   23.0016   11.9462   30.7081 C   0  0  0  0  0  0  0  0  0  0  0  0
   23.3084   13.0799   29.9644 C   0  0  0  0  0  0  0  0  0  0  0  0
   22.5902   16.5800   29.3776 C   0  0  0  0  0  0  0  0  0  0  0  0
   22.5973    7.1945   31.7711 C   0  0  0  0  0  0  0  0  0  0  0  0
   23.2384    6.2820   30.6899 C   0  0  0  0  0  0  0  0  0  0  0  0
   21.1428    6.9585   31.7773 C   0  0  0  0  0  0  0  0  0  0  0  0
   20.8140    5.7513   31.4206 O   0  0  0  0  0  0  0  0  0  0  0  0
   20.1088    7.8500   32.1049 N   0  0  0  0  0  0  0  0  0  0  0  0
   20.2036    9.2261   32.4883 C   0  0  0  0  0  0  0  0  0  0  0  0
   19.3434    9.6038   33.6762 C   0  0  0  0  0  0  0  0  0  0  0  0
   18.0401    8.8859   33.7483 C   0  0  0  0  0  0  0  0  0  0  0  0
   18.1769    7.4099   33.4409 C   0  0  0  0  0  0  0  0  0  0  0  0
   18.7269    7.3218   32.0410 C   0  0  0  0  0  0  0  0  0  0  0  0
  7  8  1  0  0  0
  8  9  2  0  0  0
  8 16  1  0  0  0
  9 10  1  0  0  0
 10 11  1  0  0  0
 10 17  1  0  0  0
 11 12  1  0  0  0
 11 16  2  0  0  0
 12 13  2  0  0  0
 13 14  1  0  0  0
 14 15  2  0  0  0
 15 16  1  0  0  0
 15  1  1  0  0  0
  1  2  1  0  0  0
  1  6  1  0  0  0
  2  3  1  0  0  0
  3  4  1  0  0  0
  4  5  1  0  0  0
  4 18  1  0  0  0
  5  6  1  0  0  0
 18 19  1  0  0  0
 18 20  1  0  0  0
 20 21  2  0  0  0
 20 22  1  0  0  0
 22 23  1  0  0  0
 22 27  1  0  0  0
 23 24  1  0  0  0
 24 25  1  0  0  0
 25 26  1  0  0  0
 26 27  1  0  0  0
M  END
> <minimizedAffinity>
-8.31276

$$$$
737


 21 24  0  0  0  0  0  0  0  0999 V2000
   23.5656    4.9447   31.2052 C   0  0  0  0  0  0  0  0  0  0  0  0
   23.6657    3.9912   32.1033 C   0  0  0  0  0  0  0  0  0  0  0  0
   24.6865    2.9368   32.0021 C   0  0  0  0  0  0  0  0  0  0  0  0
   24.7986    1.9718   32.8974 C   0  0  0  0  0  0  0  0  0  0  0  0
   25.5439    3.0286   30.8745 N   0  0  0  0  0  0  0  0  0  0  0  0
   25.4193    4.0776   29.9047 C   0  0  0  0  0  0  0  0  0  0  0  0
   24.4397    5.0013   30.0957 N   0  0  0  0  0  0  0  0  0  0  0  0
   24.5404    5.8514   29.0674 N   0  0  0  0  0  0  0  0  0  0  0  0
   25.5389    5.4982   28.2449 C   0  0  0  0  0  0  0  0  0  0  0  0
   26.0807    4.3902   28.7768 N   0  0  0  0  0  0  0  0  0  0  0  0
   26.2887    2.3108   30.7456 H   0  0  0  0  0  0  0  0  0  0  0  0
   19.6715   10.2862   33.2581 Br  0  0  0  0  0  0  0  0  0  0  0  0
   19.7291    8.4196   32.8240 C   0  0  0  0  0  0  0  0  0  0  0  0
   20.6536    7.7622   32.1147 N   0  0  0  0  0  0  0  0  0  0  0  0
   20.3259    6.4735   32.0422 C   0  0  0  0  0  0  0  0  0  0  0  0
   19.1621    6.3189   32.7265 N   0  0  0  0  0  0  0  0  0  0  0  0
   18.7729    7.5076   33.2205 C   0  0  0  0  0  0  0  0  0  0  0  0
   21.1912    5.5080   31.3017 C   0  0  0  0  0  0  0  0  0  0  0  0
   22.5693    5.9292   31.3518 N   0  0  0  0  0  0  0  0  0  0  0  0
   22.9878    7.2985   31.5402 C   0  0  0  0  0  0  0  0  0  0  0  0
   21.8524    8.2777   31.4843 C   0  0  0  0  0  0  0  0  0  0  0  0
 12 13  1  0  0  0
 13 14  1  0  0  0
 13 17  2  0  0  0
 14 15  1  0  0  0
 14 21  1  0  0  0
 15 16  2  0  0  0
 15 18  1  0  0  0
 16 17  1  0  0  0
 18 19  1  0  0  0
 19 20  1  0  0  0
 19  1  1  0  0  0
 20 21  1  0  0  0
  1  2  2  0  0  0
  1  7  1  0  0  0
  2  3  1  0  0  0
  3  4  2  0  0  0
  3  5  1  0  0  0
  5  6  1  0  0  0
  6  7  1  0  0  0
  6 10  2  0  0  0
  7  8  1  0  0  0
  8  9  2  0  0  0
  9 10  1  0  0  0
  5 11  1  0  0  0
M  END
> <minimizedAffinity>
-7.58337

$$$$
743


 30 33  0  0  0  0  0  0  0  0999 V2000
   23.2925   12.9520   31.3680 C   0  0  0  0  0  0  0  0  0  0  0  0
   23.9504   13.6882   32.1765 O   0  0  0  0  0  0  0  0  0  0  0  0
   23.7386   11.6360   31.0709 N   0  0  0  0  0  0  0  0  0  0  0  0
   24.9368   11.1363   31.6866 C   0  0  0  0  0  0  0  0  0  0  0  0
   24.9146    9.6636   31.9601 C   0  0  0  0  0  0  0  0  0  0  0  0
   23.9750    8.9019   31.0721 C   0  0  0  0  0  0  0  0  0  0  0  0
   24.4365    7.5615   30.8743 N   0  0  0  0  0  0  0  0  0  0  0  0
   23.6233    6.7798   30.0062 C   0  0  0  0  0  0  0  0  0  0  0  0
   22.1514    6.9028   30.2236 C   0  0  0  0  0  0  0  0  0  0  0  0
   21.7996    7.8385   31.3222 C   0  0  0  0  0  0  0  0  0  0  0  0
   20.7017    7.9532   32.0708 N   0  0  0  0  0  0  0  0  0  0  0  0
   20.8615    8.9606   32.9402 C   0  0  0  0  0  0  0  0  0  0  0  0
   22.0719    9.5043   32.7547 N   0  0  0  0  0  0  0  0  0  0  0  0
   22.6539    8.8198   31.7618 C   0  0  0  0  0  0  0  0  0  0  0  0
   23.7596    9.6549   29.7691 C   0  0  0  0  0  0  0  0  0  0  0  0
   22.9256   10.8646   30.1358 C   0  0  0  0  0  0  0  0  0  0  0  0
   25.4019    7.6062   30.4804 H   0  0  0  0  0  0  0  0  0  0  0  0
   22.4957   10.3264   33.2934 H   0  0  0  0  0  0  0  0  0  0  0  0
   22.0782   13.5405   30.7812 C   0  0  0  0  0  0  0  0  0  0  0  0
   22.0870   15.0380   30.7880 C   0  0  0  0  0  0  0  0  0  0  0  0
   22.4851   17.0147   29.3107 C   0  0  0  0  0  0  0  0  0  0  0  0
   22.1290   17.7682   30.2645 O   0  0  0  0  0  0  0  0  0  0  0  0
   22.4773   15.6119   29.5381 N   0  0  0  0  0  0  0  0  0  0  0  0
   22.7683   14.9919   28.7585 H   0  0  0  0  0  0  0  0  0  0  0  0
   25.0461   17.7147   24.6647 Br  0  0  0  0  0  0  0  0  0  0  0  0
   23.8851   17.9326   26.1838 C   0  0  0  0  0  0  0  0  0  0  0  0
   23.7515   17.1669   27.2249 O   0  0  0  0  0  0  0  0  0  0  0  0
   22.8753   17.6163   28.0605 C   0  0  0  0  0  0  0  0  0  0  0  0
   22.3573   18.8092   27.5417 C   0  0  0  0  0  0  0  0  0  0  0  0
   23.0169   18.9885   26.3442 C   0  0  0  0  0  0  0  0  0  0  0  0
 25 26  1  0  0  0
 26 27  1  0  0  0
 26 30  2  0  0  0
 27 28  1  0  0  0
 28 29  2  0  0  0
 28 21  1  0  0  0
 29 30  1  0  0  0
 21 22  2  0  0  0
 21 23  1  0  0  0
 23 20  1  0  0  0
 20 19  1  0  0  0
 19  1  1  0  0  0
  1  2  2  0  0  0
  1  3  1  0  0  0
  3  4  1  0  0  0
  3 16  1  0  0  0
  4  5  1  0  0  0
  5  6  1  0  0  0
  6  7  1  0  0  0
  6 14  1  0  0  0
  6 15  1  0  0  0
  7  8  1  0  0  0
  8  9  1  0  0  0
  9 10  1  0  0  0
 10 11  1  0  0  0
 10 14  2  0  0  0
 11 12  2  0  0  0
 12 13  1  0  0  0
 13 14  1  0  0  0
 15 16  1  0  0  0
 23 24  1  0  0  0
  7 17  1  0  0  0
 13 18  1  0  0  0
M  END
> <minimizedAffinity>
-8.81842

$$$$
746


 30 33  0  0  0  0  0  0  0  0999 V2000
   22.0825    8.3816   32.1344 C   0  0  0  0  0  0  0  0  0  0  0  0
   21.2800    8.8965   32.9890 O   0  0  0  0  0  0  0  0  0  0  0  0
   23.2849    9.0596   31.9041 N   0  0  0  0  0  0  0  0  0  0  0  0
   24.2862    8.5892   30.9691 C   0  0  0  0  0  0  0  0  0  0  0  0
   24.4417    9.6267   29.9005 C   0  0  0  0  0  0  0  0  0  0  0  0
   24.6920   10.9882   30.4669 C   0  0  0  0  0  0  0  0  0  0  0  0
   25.9340   11.4959   29.9108 N   0  0  0  0  0  0  0  0  0  0  0  0
   25.7415   11.6809   28.4843 C   0  0  0  0  0  0  0  0  0  0  0  0
   25.0263   13.0271   28.3227 C   0  0  0  0  0  0  0  0  0  0  0  0
   23.7791   12.9167   29.1166 C   0  0  0  0  0  0  0  0  0  0  0  0
   22.6479   13.6440   29.0408 N   0  0  0  0  0  0  0  0  0  0  0  0
   21.8029   13.1643   29.9667 C   0  0  0  0  0  0  0  0  0  0  0  0
   22.4137   12.1499   30.6050 N   0  0  0  0  0  0  0  0  0  0  0  0
   23.6455   11.9684   30.1007 C   0  0  0  0  0  0  0  0  0  0  0  0
   24.8398   10.8949   31.9855 C   0  0  0  0  0  0  0  0  0  0  0  0
   23.6191   10.2900   32.5983 C   0  0  0  0  0  0  0  0  0  0  0  0
   26.7142   10.7880   30.0096 H   0  0  0  0  0  0  0  0  0  0  0  0
   22.4137   14.4442   28.4006 H   0  0  0  0  0  0  0  0  0  0  0  0
   21.6308    7.1309   31.5012 C   0  0  0  0  0  0  0  0  0  0  0  0
   20.1850    6.8256   31.6545 C   0  0  0  0  0  0  0  0  0  0  0  0
   23.2239    5.2311   31.0852 C   0  0  0  0  0  0  0  0  0  0  0  0
   23.3120    5.5452   29.8806 O   0  0  0  0  0  0  0  0  0  0  0  0
   22.4006    5.9847   31.9409 N   0  0  0  0  0  0  0  0  0  0  0  0
   22.3342    5.7141   32.9434 H   0  0  0  0  0  0  0  0  0  0  0  0
   24.3216    0.9777   34.1388 Br  0  0  0  0  0  0  0  0  0  0  0  0
   24.4590    2.3590   32.8048 C   0  0  0  0  0  0  0  0  0  0  0  0
   23.5720    3.2939   32.5816 O   0  0  0  0  0  0  0  0  0  0  0  0
   23.9717    4.0900   31.5891 C   0  0  0  0  0  0  0  0  0  0  0  0
   25.1934    3.6133   31.1684 C   0  0  0  0  0  0  0  0  0  0  0  0
   25.5187    2.5168   31.9259 C   0  0  0  0  0  0  0  0  0  0  0  0
 25 26  1  0  0  0
 26 27  1  0  0  0
 26 30  2  0  0  0
 27 28  1  0  0  0
 28 29  2  0  0  0
 28 21  1  0  0  0
 29 30  1  0  0  0
 21 22  2  0  0  0
 21 23  1  0  0  0
 23 19  1  0  0  0
 19 20  1  0  0  0
 19  1  1  0  0  0
  1  2  2  0  0  0
  1  3  1  0  0  0
  3  4  1  0  0  0
  3 16  1  0  0  0
  4  5  1  0  0  0
  5  6  1  0  0  0
  6  7  1  0  0  0
  6 14  1  0  0  0
  6 15  1  0  0  0
  7  8  1  0  0  0
  8  9  1  0  0  0
  9 10  1  0  0  0
 10 11  1  0  0  0
 10 14  2  0  0  0
 11 12  1  0  0  0
 12 13  2  0  0  0
 13 14  1  0  0  0
 15 16  1  0  0  0
 23 24  1  0  0  0
  7 17  1  0  0  0
 11 18  1  0  0  0
M  END
> <minimizedAffinity>
-7.30081

$$$$
754


 27 30  0  0  0  0  0  0  0  0999 V2000
   22.9967   13.3413   29.8829 C   0  0  0  0  0  0  0  0  0  0  0  0
   22.9981   13.5951   28.6699 O   0  0  0  0  0  0  0  0  0  0  0  0
   24.0657   12.6050   30.4499 N   0  0  0  0  0  0  0  0  0  0  0  0
   25.1560   12.1548   29.6090 C   0  0  0  0  0  0  0  0  0  0  0  0
   25.2910   10.6515   29.6063 C   0  0  0  0  0  0  0  0  0  0  0  0
   24.8034   10.1881   30.9160 N   0  0  0  0  0  0  0  0  0  0  0  0
   25.0847   11.0349   32.0242 C   0  0  0  0  0  0  0  0  0  0  0  0
   24.1586   12.2536   31.8541 C   0  0  0  0  0  0  0  0  0  0  0  0
   24.1093    8.9542   30.9388 C   0  0  0  0  0  0  0  0  0  0  0  0
   22.9378    8.8083   31.6180 N   0  0  0  0  0  0  0  0  0  0  0  0
   22.2708    7.6442   31.6499 C   0  0  0  0  0  0  0  0  0  0  0  0
   22.7563    6.5669   30.9957 N   0  0  0  0  0  0  0  0  0  0  0  0
   23.9048    6.6170   30.2986 C   0  0  0  0  0  0  0  0  0  0  0  0
   24.5757    7.8490   30.2878 C   0  0  0  0  0  0  0  0  0  0  0  0
   24.4578    5.4433   29.5703 C   0  0  0  0  0  0  0  0  0  0  0  0
   21.0543    7.5439   32.3708 N   0  0  0  0  0  0  0  0  0  0  0  0
   20.6188    8.5303   33.3294 C   0  0  0  0  0  0  0  0  0  0  0  0
   19.2266    8.9832   33.0051 C   0  0  0  0  0  0  0  0  0  0  0  0
   18.6106    8.1990   32.0315 O   0  0  0  0  0  0  0  0  0  0  0  0
   18.7606    6.8458   32.3215 C   0  0  0  0  0  0  0  0  0  0  0  0
   20.1929    6.4030   32.1471 C   0  0  0  0  0  0  0  0  0  0  0  0
   18.4328   13.3431   32.7486 Br  0  0  0  0  0  0  0  0  0  0  0  0
   20.0623   13.8725   31.8519 C   0  0  0  0  0  0  0  0  0  0  0  0
   20.8677   13.1395   31.1717 O   0  0  0  0  0  0  0  0  0  0  0  0
   21.8706   13.8198   30.7046 C   0  0  0  0  0  0  0  0  0  0  0  0
   21.7041   15.1216   31.1185 C   0  0  0  0  0  0  0  0  0  0  0  0
   20.5471   15.1573   31.8539 C   0  0  0  0  0  0  0  0  0  0  0  0
 22 23  1  0  0  0
 23 24  1  0  0  0
 23 27  2  0  0  0
 24 25  1  0  0  0
 25 26  2  0  0  0
 25  1  1  0  0  0
 26 27  1  0  0  0
  1  2  2  0  0  0
  1  3  1  0  0  0
  3  4  1  0  0  0
  3  8  1  0  0  0
  4  5  1  0  0  0
  5  6  1  0  0  0
  6  7  1  0  0  0
  6  9  1  0  0  0
  7  8  1  0  0  0
  9 10  2  0  0  0
  9 14  1  0  0  0
 10 11  1  0  0  0
 11 12  2  0  0  0
 11 16  1  0  0  0
 12 13  1  0  0  0
 13 14  2  0  0  0
 13 15  1  0  0  0
 16 17  1  0  0  0
 16 21  1  0  0  0
 17 18  1  0  0  0
 18 19  1  0  0  0
 19 20  1  0  0  0
 20 21  1  0  0  0
M  END
> <minimizedAffinity>
-7.66611

$$$$
755


 28 31  0  0  0  0  0  0  0  0999 V2000
   23.4150   12.8830   31.4935 C   0  0  0  0  0  0  0  0  0  0  0  0
   24.3468   13.4750   32.0584 O   0  0  0  0  0  0  0  0  0  0  0  0
   23.6471   11.6960   30.7499 N   0  0  0  0  0  0  0  0  0  0  0  0
   22.5437   11.0054   30.0873 C   0  0  0  0  0  0  0  0  0  0  0  0
   23.0535    9.7304   29.4188 C   0  0  0  0  0  0  0  0  0  0  0  0
   23.8264    9.0059   30.4085 N   0  0  0  0  0  0  0  0  0  0  0  0
   24.9473    9.6629   31.0235 C   0  0  0  0  0  0  0  0  0  0  0  0
   24.9659   11.1120   30.6092 C   0  0  0  0  0  0  0  0  0  0  0  0
   23.4943    7.6614   30.7781 C   0  0  0  0  0  0  0  0  0  0  0  0
   22.2534    7.3210   31.1535 N   0  0  0  0  0  0  0  0  0  0  0  0
   21.9733    6.0580   31.4943 C   0  0  0  0  0  0  0  0  0  0  0  0
   22.9133    5.0928   31.4753 N   0  0  0  0  0  0  0  0  0  0  0  0
   24.1778    5.3674   31.1086 C   0  0  0  0  0  0  0  0  0  0  0  0
   24.4460    6.6744   30.7605 C   0  0  0  0  0  0  0  0  0  0  0  0
   20.5959    5.6910   31.9076 C   0  0  0  0  0  0  0  0  0  0  0  0
   25.2007    4.3881   31.0720 N   0  0  0  0  0  0  0  0  0  0  0  0
   25.2331    3.3261   32.0565 C   0  0  0  0  0  0  0  0  0  0  0  0
   26.2288    2.2933   31.5714 C   0  0  0  0  0  0  0  0  0  0  0  0
   27.5262    2.9072   31.4840 N   0  0  0  0  0  0  0  0  0  0  0  0
   27.5532    4.1713   30.8179 C   0  0  0  0  0  0  0  0  0  0  0  0
   26.2527    4.3868   30.0737 C   0  0  0  0  0  0  0  0  0  0  0  0
   28.1647    2.8968   32.7756 C   0  0  0  0  0  0  0  0  0  0  0  0
   18.2325   13.1361   32.8653 Br  0  0  0  0  0  0  0  0  0  0  0  0
   19.9333   13.5821   32.1171 C   0  0  0  0  0  0  0  0  0  0  0  0
   21.0224   12.8613   32.2045 O   0  0  0  0  0  0  0  0  0  0  0  0
   22.0379   13.4191   31.5936 C   0  0  0  0  0  0  0  0  0  0  0  0
   21.5701   14.5983   31.0653 C   0  0  0  0  0  0  0  0  0  0  0  0
   20.2426   14.7113   31.3897 C   0  0  0  0  0  0  0  0  0  0  0  0
 23 24  1  0  0  0
 24 25  1  0  0  0
 24 28  2  0  0  0
 25 26  1  0  0  0
 26 27  2  0  0  0
 26  1  1  0  0  0
 27 28  1  0  0  0
  1  2  2  0  0  0
  1  3  1  0  0  0
  3  4  1  0  0  0
  3  8  1  0  0  0
  4  5  1  0  0  0
  5  6  1  0  0  0
  6  7  1  0  0  0
  6  9  1  0  0  0
  7  8  1  0  0  0
  9 10  2  0  0  0
  9 14  1  0  0  0
 10 11  1  0  0  0
 11 12  2  0  0  0
 11 15  1  0  0  0
 12 13  1  0  0  0
 13 14  2  0  0  0
 13 16  1  0  0  0
 16 17  1  0  0  0
 16 21  1  0  0  0
 17 18  1  0  0  0
 18 19  1  0  0  0
 19 20  1  0  0  0
 19 22  1  0  0  0
 20 21  1  0  0  0
M  END
> <minimizedAffinity>
-8.20688

$$$$
767


 32 35  0  0  0  0  0  0  0  0999 V2000
   26.2442    8.1098   29.4064 C   0  0  0  0  0  0  0  0  0  0  0  0
   25.4024   10.4375   29.6552 C   0  0  0  0  0  0  0  0  0  0  0  0
   25.8081   10.6882   28.4699 O   0  0  0  0  0  0  0  0  0  0  0  0
   25.6076    9.1276   30.1712 N   0  0  0  0  0  0  0  0  0  0  0  0
   25.2804    8.9166   31.1323 H   0  0  0  0  0  0  0  0  0  0  0  0
   23.4188   13.0820   31.1740 C   0  0  0  0  0  0  0  0  0  0  0  0
   24.3917   12.8149   32.0741 N   0  0  0  0  0  0  0  0  0  0  0  0
   25.1622   11.8702   31.6154 O   0  0  0  0  0  0  0  0  0  0  0  0
   24.7508   11.4824   30.4352 C   0  0  0  0  0  0  0  0  0  0  0  0
   23.6754   12.2317   30.1649 N   0  0  0  0  0  0  0  0  0  0  0  0
   18.5490   15.3055   30.8589 Br  0  0  0  0  0  0  0  0  0  0  0  0
   20.3940   14.9952   31.1715 C   0  0  0  0  0  0  0  0  0  0  0  0
   21.0914   13.9242   30.9433 O   0  0  0  0  0  0  0  0  0  0  0  0
   22.3473   14.0646   31.2839 C   0  0  0  0  0  0  0  0  0  0  0  0
   22.4780   15.3485   31.7807 C   0  0  0  0  0  0  0  0  0  0  0  0
   21.2371   15.9644   31.7188 C   0  0  0  0  0  0  0  0  0  0  0  0
   25.3996    6.8613   29.2660 C   0  0  0  0  0  0  0  0  0  0  0  0
   24.0082    7.1230   29.6061 N   0  0  0  0  0  0  0  0  0  0  0  0
   23.4730    6.5546   30.7746 C   0  0  0  0  0  0  0  0  0  0  0  0
   24.2873    5.8351   31.4562 O   0  0  0  0  0  0  0  0  0  0  0  0
   23.4057    7.7193   29.0104 H   0  0  0  0  0  0  0  0  0  0  0  0
   22.1343    6.6840   31.2912 C   0  0  0  0  0  0  0  0  0  0  0  0
   21.7629    7.8892   31.8856 C   0  0  0  0  0  0  0  0  0  0  0  0
   20.4909    8.0428   32.3771 C   0  0  0  0  0  0  0  0  0  0  0  0
   19.5930    7.0249   32.2877 C   0  0  0  0  0  0  0  0  0  0  0  0
   18.2992    7.1863   32.7897 C   0  0  0  0  0  0  0  0  0  0  0  0
   17.8948    8.3586   33.3808 C   0  0  0  0  0  0  0  0  0  0  0  0
   18.8050    9.3807   33.4686 C   0  0  0  0  0  0  0  0  0  0  0  0
   20.0841    9.2375   32.9787 C   0  0  0  0  0  0  0  0  0  0  0  0
   19.9697    5.9120   31.7270 O   0  0  0  0  0  0  0  0  0  0  0  0
   21.1830    5.6968   31.2314 C   0  0  0  0  0  0  0  0  0  0  0  0
   21.4166    4.5775   30.7181 O   0  0  0  0  0  0  0  0  0  0  0  0
 11 12  1  0  0  0
 12 13  1  0  0  0
 12 16  2  0  0  0
 13 14  1  0  0  0
 14 15  2  0  0  0
 14  6  1  0  0  0
 15 16  1  0  0  0
  6  7  2  0  0  0
  6 10  1  0  0  0
  7  8  1  0  0  0
  8  9  1  0  0  0
  9 10  2  0  0  0
  9  2  1  0  0  0
  2  3  2  0  0  0
  2  4  1  0  0  0
  4  1  1  0  0  0
  1 17  1  0  0  0
 17 18  1  0  0  0
 18 19  1  0  0  0
 19 20  2  0  0  0
 19 22  1  0  0  0
 22 23  2  0  0  0
 22 31  1  0  0  0
 23 24  1  0  0  0
 24 25  2  0  0  0
 24 29  1  0  0  0
 25 26  1  0  0  0
 25 30  1  0  0  0
 26 27  2  0  0  0
 27 28  1  0  0  0
 28 29  2  0  0  0
 30 31  1  0  0  0
 31 32  2  0  0  0
  4  5  1  0  0  0
 18 21  1  0  0  0
M  END
> <minimizedAffinity>
-10.07117

$$$$
769


 26 29  0  0  0  0  0  0  0  0999 V2000
   22.5280   16.3560   29.9659 C   0  0  0  0  0  0  0  0  0  0  0  0
   21.9809   17.2325   30.7869 O   0  0  0  0  0  0  0  0  0  0  0  0
   22.6726   15.0727   30.4717 N   0  0  0  0  0  0  0  0  0  0  0  0
   22.2136   14.7921   31.8560 C   0  0  0  0  0  0  0  0  0  0  0  0
   21.2228   13.6530   31.8158 C   0  0  0  0  0  0  0  0  0  0  0  0
   21.8226   12.5227   31.2254 N   0  0  0  0  0  0  0  0  0  0  0  0
   23.1618   12.7741   30.8150 C   0  0  0  0  0  0  0  0  0  0  0  0
   23.2220   13.9511   29.8118 C   0  0  0  0  0  0  0  0  0  0  0  0
   22.2448   20.3500   26.4035 Br  0  0  0  0  0  0  0  0  0  0  0  0
   22.8071   18.6617   27.0224 C   0  0  0  0  0  0  0  0  0  0  0  0
   22.4290   18.1780   28.2785 C   0  0  0  0  0  0  0  0  0  0  0  0
   22.8634   16.9448   28.6835 C   0  0  0  0  0  0  0  0  0  0  0  0
   23.6752   16.2359   27.7931 C   0  0  0  0  0  0  0  0  0  0  0  0
   23.9987   16.7259   26.6392 O   0  0  0  0  0  0  0  0  0  0  0  0
   23.6084   17.8801   26.2265 C   0  0  0  0  0  0  0  0  0  0  0  0
   23.9773   18.2700   25.0883 O   0  0  0  0  0  0  0  0  0  0  0  0
   21.6909   11.2917   31.9377 C   0  0  0  0  0  0  0  0  0  0  0  0
   22.5578   10.1925   31.4765 C   0  0  0  0  0  0  0  0  0  0  0  0
   22.2080    9.2666   30.5488 C   0  0  0  0  0  0  0  0  0  0  0  0
   23.0854    8.2752   30.1855 C   0  0  0  0  0  0  0  0  0  0  0  0
   24.3234    8.2214   30.7662 C   0  0  0  0  0  0  0  0  0  0  0  0
   24.7010    9.1501   31.7099 C   0  0  0  0  0  0  0  0  0  0  0  0
   23.8142   10.1193   32.0498 C   0  0  0  0  0  0  0  0  0  0  0  0
   25.0302    7.1479   30.2513 O   0  0  0  0  0  0  0  0  0  0  0  0
   24.0735    6.3162   29.6104 C   0  0  0  0  0  0  0  0  0  0  0  0
   23.0207    7.2026   29.2824 O   0  0  0  0  0  0  0  0  0  0  0  0
  9 10  1  0  0  0
 10 11  2  0  0  0
 10 15  1  0  0  0
 11 12  1  0  0  0
 12 13  2  0  0  0
 12  1  1  0  0  0
 13 14  1  0  0  0
 14 15  1  0  0  0
 15 16  2  0  0  0
  1  2  2  0  0  0
  1  3  1  0  0  0
  3  4  1  0  0  0
  3  8  1  0  0  0
  4  5  1  0  0  0
  5  6  1  0  0  0
  6  7  1  0  0  0
  6 17  1  0  0  0
  7  8  1  0  0  0
 17 18  1  0  0  0
 18 19  2  0  0  0
 18 23  1  0  0  0
 19 20  1  0  0  0
 20 21  2  0  0  0
 20 26  1  0  0  0
 21 22  1  0  0  0
 21 24  1  0  0  0
 22 23  2  0  0  0
 24 25  1  0  0  0
 25 26  1  0  0  0
M  END
> <minimizedAffinity>
-9.56586

$$$$
776


 38 41  0  0  0  0  0  0  0  0999 V2000
   24.4115   11.6270   31.5824 C   0  0  0  0  0  0  0  0  0  0  0  0
   24.8355   11.4278   30.1216 C   0  0  0  0  0  0  0  0  0  0  0  0
   24.1154   10.2502   29.5600 C   0  0  0  0  0  0  0  0  0  0  0  0
   24.5348    9.0168   30.3279 C   0  0  0  0  0  0  0  0  0  0  0  0
   25.0909    9.3179   31.5571 O   0  0  0  0  0  0  0  0  0  0  0  0
   24.3977   10.2958   32.2572 C   0  0  0  0  0  0  0  0  0  0  0  0
   23.3628    8.1071   30.3987 C   0  0  0  0  0  0  0  0  0  0  0  0
   23.7850    6.8313   31.1438 C   0  0  0  0  0  0  0  0  0  0  0  0
   24.7295    6.1449   30.3259 N   0  0  0  0  0  0  0  0  0  0  0  0
   25.2009    6.9232   29.1314 C   0  0  0  0  0  0  0  0  0  0  0  0
   25.5972    8.3114   29.5121 C   0  0  0  0  0  0  0  0  0  0  0  0
   25.2294    4.8748   30.5377 C   0  0  0  0  0  0  0  0  0  0  0  0
   26.0787    4.4456   29.6274 O   0  0  0  0  0  0  0  0  0  0  0  0
   26.1986   11.1228   30.1473 O   0  0  0  0  0  0  0  0  0  0  0  0
   24.6624   12.6842   29.3309 C   0  0  0  0  0  0  0  0  0  0  0  0
   26.6359   11.3855   30.9958 H   0  0  0  0  0  0  0  0  0  0  0  0
   22.0743   16.3448   31.5385 Br  0  0  0  0  0  0  0  0  0  0  0  0
   21.9991   14.4518   31.7179 C   0  0  0  0  0  0  0  0  0  0  0  0
   23.1642   13.7380   31.5946 C   0  0  0  0  0  0  0  0  0  0  0  0
   23.2165   12.3984   31.7047 N   0  0  0  0  0  0  0  0  0  0  0  0
   22.0152   11.7934   31.9505 C   0  0  0  0  0  0  0  0  0  0  0  0
   21.9817   10.5337   32.0671 O   0  0  0  0  0  0  0  0  0  0  0  0
   20.8737   12.4519   32.0740 N   0  0  0  0  0  0  0  0  0  0  0  0
   20.8215   13.7902   31.9644 C   0  0  0  0  0  0  0  0  0  0  0  0
   19.7601   14.4513   32.0765 O   0  0  0  0  0  0  0  0  0  0  0  0
   19.9730   11.9638   32.2614 H   0  0  0  0  0  0  0  0  0  0  0  0
   24.9853    3.9403   31.5785 C   0  0  0  0  0  0  0  0  0  0  0  0
   26.0261    3.1199   32.0502 C   0  0  0  0  0  0  0  0  0  0  0  0
   25.9234    2.2038   33.0481 C   0  0  0  0  0  0  0  0  0  0  0  0
   24.6573    2.0764   33.6561 C   0  0  0  0  0  0  0  0  0  0  0  0
   23.6404    2.8548   33.2199 C   0  0  0  0  0  0  0  0  0  0  0  0
   23.7792    3.7935   32.1833 C   0  0  0  0  0  0  0  0  0  0  0  0
   26.9561    1.4231   33.4745 O   0  0  0  0  0  0  0  0  0  0  0  0
   27.7285    1.4600   34.5970 C   0  0  0  0  0  0  0  0  0  0  0  0
   28.7026    2.5879   34.5978 C   0  0  0  0  0  0  0  0  0  0  0  0
   28.9787    2.9952   35.9762 N   0  0  0  0  0  0  0  0  0  0  0  0
   29.6803    2.3903   36.4273 H   0  0  0  0  0  0  0  0  0  0  0  0
   28.1273    3.1609   36.5216 H   0  0  0  0  0  0  0  0  0  0  0  0
 17 18  1  0  0  0
 18 19  2  0  0  0
 18 24  1  0  0  0
 19 20  1  0  0  0
 20 21  1  0  0  0
 20  1  1  0  0  0
 21 22  2  0  0  0
 21 23  1  0  0  0
 23 24  1  0  0  0
 24 25  2  0  0  0
  1  2  1  0  0  0
  1  6  1  0  0  0
  2  3  1  0  0  0
  2 14  1  0  0  0
  2 15  1  0  0  0
  3  4  1  0  0  0
  4  5  1  0  0  0
  4  7  1  0  0  0
  4 11  1  0  0  0
  5  6  1  0  0  0
  7  8  1  0  0  0
  8  9  1  0  0  0
  9 10  1  0  0  0
  9 12  1  0  0  0
 10 11  1  0  0  0
 12 13  2  0  0  0
 12 27  1  0  0  0
 27 28  2  0  0  0
 27 32  1  0  0  0
 28 29  1  0  0  0
 29 30  2  0  0  0
 29 33  1  0  0  0
 30 31  1  0  0  0
 31 32  2  0  0  0
 33 34  1  0  0  0
 34 35  1  0  0  0
 35 36  1  0  0  0
 23 26  1  0  0  0
 36 37  1  0  0  0
 36 38  1  0  0  0
 14 16  1  0  0  0
M  END
> <minimizedAffinity>
-9.19710

$$$$
783


 39 42  0  0  0  0  0  0  0  0999 V2000
   25.1064   -0.2511   33.7862 C   0  0  0  0  0  0  0  0  0  0  0  0
   24.6717    1.0129   33.1594 C   0  0  0  0  0  0  0  0  0  0  0  0
   25.5903    1.5008   32.0327 C   0  0  0  0  0  0  0  0  0  0  0  0
   27.0157    1.6002   32.5159 C   0  0  0  0  0  0  0  0  0  0  0  0
   27.2389    0.8045   33.6237 O   0  0  0  0  0  0  0  0  0  0  0  0
   26.5952   -0.3942   33.6271 C   0  0  0  0  0  0  0  0  0  0  0  0
   27.2950    3.0629   32.8112 C   0  0  0  0  0  0  0  0  0  0  0  0
   27.9602    3.7207   31.6322 C   0  0  0  0  0  0  0  0  0  0  0  0
   27.3492    3.2297   30.4235 N   0  0  0  0  0  0  0  0  0  0  0  0
   27.6073    1.8330   30.1061 C   0  0  0  0  0  0  0  0  0  0  0  0
   27.9201    1.1244   31.4041 C   0  0  0  0  0  0  0  0  0  0  0  0
   26.5787    4.0657   29.6116 C   0  0  0  0  0  0  0  0  0  0  0  0
   26.0836    3.5113   28.5636 O   0  0  0  0  0  0  0  0  0  0  0  0
   23.4454    0.7471   32.4974 O   0  0  0  0  0  0  0  0  0  0  0  0
   24.3867    2.1377   34.1007 C   0  0  0  0  0  0  0  0  0  0  0  0
   23.4945   -0.0757   31.9573 H   0  0  0  0  0  0  0  0  0  0  0  0
   26.2905    0.6031   38.8413 Br  0  0  0  0  0  0  0  0  0  0  0  0
   25.1429   -0.0807   37.4606 C   0  0  0  0  0  0  0  0  0  0  0  0
   25.4908    0.0594   36.1370 C   0  0  0  0  0  0  0  0  0  0  0  0
   24.7076   -0.4078   35.1705 N   0  0  0  0  0  0  0  0  0  0  0  0
   23.5654   -1.0240   35.4634 C   0  0  0  0  0  0  0  0  0  0  0  0
   22.7873   -1.4859   34.5647 O   0  0  0  0  0  0  0  0  0  0  0  0
   23.2085   -1.1693   36.7488 N   0  0  0  0  0  0  0  0  0  0  0  0
   23.9594   -0.7177   37.7703 C   0  0  0  0  0  0  0  0  0  0  0  0
   23.5950   -0.8706   38.9732 O   0  0  0  0  0  0  0  0  0  0  0  0
   22.2942   -1.6622   36.9827 H   0  0  0  0  0  0  0  0  0  0  0  0
   26.2570    5.4792   29.7782 C   0  0  0  0  0  0  0  0  0  0  0  0
   27.3536    6.3452   29.3428 N   0  0  0  0  0  0  0  0  0  0  0  0
   28.2784    5.9393   29.6031 H   0  0  0  0  0  0  0  0  0  0  0  0
   27.2789    7.2578   29.8569 H   0  0  0  0  0  0  0  0  0  0  0  0
   25.0320    5.9553   29.0300 C   0  0  0  0  0  0  0  0  0  0  0  0
   23.8757    5.8019   29.9892 C   0  0  0  0  0  0  0  0  0  0  0  0
   23.7399    4.6565   30.7289 C   0  0  0  0  0  0  0  0  0  0  0  0
   22.6592    4.5564   31.6006 C   0  0  0  0  0  0  0  0  0  0  0  0
   21.7384    5.5704   31.7333 C   0  0  0  0  0  0  0  0  0  0  0  0
   21.9096    6.7088   30.9711 C   0  0  0  0  0  0  0  0  0  0  0  0
   22.9699    6.8371   30.0971 C   0  0  0  0  0  0  0  0  0  0  0  0
   20.6855    5.4161   32.6148 O   0  0  0  0  0  0  0  0  0  0  0  0
   19.7851    5.0090   32.3624 H   0  0  0  0  0  0  0  0  0  0  0  0
 17 18  1  0  0  0
 18 19  2  0  0  0
 18 24  1  0  0  0
 19 20  1  0  0  0
 20 21  1  0  0  0
 20  1  1  0  0  0
 21 22  2  0  0  0
 21 23  1  0  0  0
 23 24  1  0  0  0
 24 25  2  0  0  0
  1  2  1  0  0  0
  1  6  1  0  0  0
  2  3  1  0  0  0
  2 14  1  0  0  0
  2 15  1  0  0  0
  3  4  1  0  0  0
  4  5  1  0  0  0
  4  7  1  0  0  0
  4 11  1  0  0  0
  5  6  1  0  0  0
  7  8  1  0  0  0
  8  9  1  0  0  0
  9 10  1  0  0  0
  9 12  1  0  0  0
 10 11  1  0  0  0
 12 13  2  0  0  0
 12 27  1  0  0  0
 27 28  1  0  0  0
 27 31  1  0  0  0
 31 32  1  0  0  0
 32 33  2  0  0  0
 32 37  1  0  0  0
 33 34  1  0  0  0
 34 35  2  0  0  0
 35 36  1  0  0  0
 35 38  1  0  0  0
 36 37  2  0  0  0
 23 26  1  0  0  0
 28 29  1  0  0  0
 28 30  1  0  0  0
 38 39  1  0  0  0
 14 16  1  0  0  0
M  END
> <minimizedAffinity>
-7.69390

$$$$
784


 39 42  0  0  0  0  0  0  0  0999 V2000
   27.4333    7.1177   27.9877 C   0  0  0  0  0  0  0  0  0  0  0  0
   28.5731    7.9508   28.5966 C   0  0  0  0  0  0  0  0  0  0  0  0
   28.8352    9.0398   27.5470 C   0  0  0  0  0  0  0  0  0  0  0  0
   29.0509    8.4282   26.1906 C   0  0  0  0  0  0  0  0  0  0  0  0
   29.1360    7.0628   26.3190 O   0  0  0  0  0  0  0  0  0  0  0  0
   27.9829    6.4460   26.7972 C   0  0  0  0  0  0  0  0  0  0  0  0
   30.4165    8.9106   25.7203 C   0  0  0  0  0  0  0  0  0  0  0  0
   30.2815   10.2640   25.0693 C   0  0  0  0  0  0  0  0  0  0  0  0
   29.0534   10.9333   25.5298 N   0  0  0  0  0  0  0  0  0  0  0  0
   27.8280   10.3300   25.0965 C   0  0  0  0  0  0  0  0  0  0  0  0
   28.0526    8.8214   25.1607 C   0  0  0  0  0  0  0  0  0  0  0  0
   29.0780   12.0527   26.3610 C   0  0  0  0  0  0  0  0  0  0  0  0
   30.1954   12.5232   26.8076 O   0  0  0  0  0  0  0  0  0  0  0  0
   28.2004    8.5569   29.7764 O   0  0  0  0  0  0  0  0  0  0  0  0
   29.7854    7.1121   28.8505 C   0  0  0  0  0  0  0  0  0  0  0  0
   29.0089    8.7269   30.3235 H   0  0  0  0  0  0  0  0  0  0  0  0
   26.8923    2.7896   30.9506 Br  0  0  0  0  0  0  0  0  0  0  0  0
   26.3130    4.4959   30.3677 C   0  0  0  0  0  0  0  0  0  0  0  0
   27.0708    5.1690   29.4094 C   0  0  0  0  0  0  0  0  0  0  0  0
   26.7258    6.3739   28.9494 N   0  0  0  0  0  0  0  0  0  0  0  0
   25.5838    6.9166   29.4698 C   0  0  0  0  0  0  0  0  0  0  0  0
   25.2148    8.0531   29.0674 O   0  0  0  0  0  0  0  0  0  0  0  0
   24.8334    6.2917   30.3927 N   0  0  0  0  0  0  0  0  0  0  0  0
   25.1685    5.0782   30.8656 C   0  0  0  0  0  0  0  0  0  0  0  0
   24.4574    4.4851   31.7406 O   0  0  0  0  0  0  0  0  0  0  0  0
   23.9665    6.7798   30.7425 H   0  0  0  0  0  0  0  0  0  0  0  0
   27.8793   12.7614   26.7814 C   0  0  0  0  0  0  0  0  0  0  0  0
   27.4043   12.2682   28.0514 N   0  0  0  0  0  0  0  0  0  0  0  0
   26.1872   11.6683   28.3513 C   0  0  0  0  0  0  0  0  0  0  0  0
   25.2604   11.4607   27.5411 O   0  0  0  0  0  0  0  0  0  0  0  0
   25.8834   11.1979   29.7618 C   0  0  0  0  0  0  0  0  0  0  0  0
   28.0935   12.3926   28.8559 H   0  0  0  0  0  0  0  0  0  0  0  0
   28.1325   14.2968   26.9050 C   0  0  0  0  0  0  0  0  0  0  0  0
   27.3217   15.0209   25.9101 C   0  0  0  0  0  0  0  0  0  0  0  0
   26.4779   16.0274   26.0744 N   0  0  0  0  0  0  0  0  0  0  0  0
   25.9264   16.4138   24.8912 C   0  0  0  0  0  0  0  0  0  0  0  0
   26.4546   15.6078   23.9509 N   0  0  0  0  0  0  0  0  0  0  0  0
   27.3072   14.7511   24.5519 C   0  0  0  0  0  0  0  0  0  0  0  0
   26.2095   15.6749   22.9333 H   0  0  0  0  0  0  0  0  0  0  0  0
 17 18  1  0  0  0
 18 19  2  0  0  0
 18 24  1  0  0  0
 19 20  1  0  0  0
 20 21  1  0  0  0
 20  1  1  0  0  0
 21 22  2  0  0  0
 21 23  1  0  0  0
 23 24  1  0  0  0
 24 25  2  0  0  0
  1  2  1  0  0  0
  1  6  1  0  0  0
  2  3  1  0  0  0
  2 14  1  0  0  0
  2 15  1  0  0  0
  3  4  1  0  0  0
  4  5  1  0  0  0
  4  7  1  0  0  0
  4 11  1  0  0  0
  5  6  1  0  0  0
  7  8  1  0  0  0
  8  9  1  0  0  0
  9 10  1  0  0  0
  9 12  1  0  0  0
 10 11  1  0  0  0
 12 13  2  0  0  0
 12 27  1  0  0  0
 27 28  1  0  0  0
 27 33  1  0  0  0
 28 29  1  0  0  0
 29 30  2  0  0  0
 29 31  1  0  0  0
 33 34  1  0  0  0
 34 35  1  0  0  0
 34 38  2  0  0  0
 35 36  2  0  0  0
 36 37  1  0  0  0
 37 38  1  0  0  0
 23 26  1  0  0  0
 28 32  1  0  0  0
 37 39  1  0  0  0
 14 16  1  0  0  0
M  END
> <minimizedAffinity>
-6.86422

$$$$
786


 25 28  0  0  0  0  0  0  0  0999 V2000
   27.5427    8.4340   29.3913 N   0  0  0  0  0  0  0  0  0  0  0  0
   28.0644    7.9659   28.1752 C   0  0  0  0  0  0  0  0  0  0  0  0
   27.7489    8.5245   27.1040 O   0  0  0  0  0  0  0  0  0  0  0  0
   27.8118    7.9619   30.2755 H   0  0  0  0  0  0  0  0  0  0  0  0
   28.9870    6.8157   28.1487 C   0  0  0  0  0  0  0  0  0  0  0  0
   28.5422    5.7579   29.1270 C   0  0  0  0  0  0  0  0  0  0  0  0
   27.2155    5.3368   28.7195 N   0  0  0  0  0  0  0  0  0  0  0  0
   26.9052    5.2570   27.4152 C   0  0  0  0  0  0  0  0  0  0  0  0
   25.6234    4.8452   27.3431 N   0  0  0  0  0  0  0  0  0  0  0  0
   25.1537    4.6746   28.5435 N   0  0  0  0  0  0  0  0  0  0  0  0
   26.1317    4.9759   29.4072 C   0  0  0  0  0  0  0  0  0  0  0  0
   25.9513    4.8952   30.8899 C   0  0  0  0  0  0  0  0  0  0  0  0
   27.8280    5.5711   26.3136 C   0  0  0  0  0  0  0  0  0  0  0  0
   29.0687    6.2674   26.7477 C   0  0  0  0  0  0  0  0  0  0  0  0
   26.6404    9.5640   29.3947 C   0  0  0  0  0  0  0  0  0  0  0  0
   20.0358    6.4786   32.2650 Br  0  0  0  0  0  0  0  0  0  0  0  0
   21.5048    7.6537   31.9052 C   0  0  0  0  0  0  0  0  0  0  0  0
   22.5051    7.3241   31.0175 C   0  0  0  0  0  0  0  0  0  0  0  0
   23.5515    8.1583   30.7585 N   0  0  0  0  0  0  0  0  0  0  0  0
   23.6047    9.3427   31.3942 C   0  0  0  0  0  0  0  0  0  0  0  0
   24.7091    9.9933   30.9896 N   0  0  0  0  0  0  0  0  0  0  0  0
   25.3726    9.2373   30.0953 C   0  0  0  0  0  0  0  0  0  0  0  0
   24.6313    8.0825   29.9587 C   0  0  0  0  0  0  0  0  0  0  0  0
   22.6091    9.7056   32.2969 C   0  0  0  0  0  0  0  0  0  0  0  0
   21.5552    8.8665   32.5591 C   0  0  0  0  0  0  0  0  0  0  0  0
 16 17  1  0  0  0
 17 18  2  0  0  0
 17 25  1  0  0  0
 18 19  1  0  0  0
 19 20  1  0  0  0
 19 23  1  0  0  0
 20 21  2  0  0  0
 20 24  1  0  0  0
 21 22  1  0  0  0
 22 23  2  0  0  0
 22 15  1  0  0  0
 15  1  1  0  0  0
  1  2  1  0  0  0
  2  3  2  0  0  0
  2  5  1  0  0  0
  5  6  1  0  0  0
  5 14  1  0  0  0
  6  7  1  0  0  0
  7  8  1  0  0  0
  7 11  1  0  0  0
  8  9  2  0  0  0
  8 13  1  0  0  0
  9 10  1  0  0  0
 10 11  2  0  0  0
 11 12  1  0  0  0
 13 14  1  0  0  0
 24 25  2  0  0  0
  1  4  1  0  0  0
M  END
> <minimizedAffinity>
-7.14636

$$$$
789


 21 24  0  0  0  0  0  0  0  0999 V2000
   20.5243   10.8724   32.6887 C   0  0  0  0  0  0  0  0  0  0  0  0
   19.4413   10.9056   33.3331 O   0  0  0  0  0  0  0  0  0  0  0  0
   21.1559   12.1039   32.3799 N   0  0  0  0  0  0  0  0  0  0  0  0
   20.5736   13.3263   32.7979 C   0  0  0  0  0  0  0  0  0  0  0  0
   20.9174   14.4828   31.9357 C   0  0  0  0  0  0  0  0  0  0  0  0
   21.7975   14.2072   30.8364 N   0  0  0  0  0  0  0  0  0  0  0  0
   22.9348   13.4083   31.2534 C   0  0  0  0  0  0  0  0  0  0  0  0
   22.3867   12.0475   31.6389 C   0  0  0  0  0  0  0  0  0  0  0  0
   22.1366   15.5064   30.3406 C   0  0  0  0  0  0  0  0  0  0  0  0
   22.2598   16.3826   31.5621 C   0  0  0  0  0  0  0  0  0  0  0  0
   21.6659   15.5685   32.6899 C   0  0  0  0  0  0  0  0  0  0  0  0
   24.7502    4.7228   30.3726 Br  0  0  0  0  0  0  0  0  0  0  0  0
   23.2932    5.8199   30.9776 C   0  0  0  0  0  0  0  0  0  0  0  0
   23.4495    7.1717   31.1908 C   0  0  0  0  0  0  0  0  0  0  0  0
   22.4292    7.9602   31.6183 N   0  0  0  0  0  0  0  0  0  0  0  0
   22.3205    9.2507   31.8924 N   0  0  0  0  0  0  0  0  0  0  0  0
   21.0819    9.5720   32.2910 C   0  0  0  0  0  0  0  0  0  0  0  0
   20.3894    8.3617   32.2490 C   0  0  0  0  0  0  0  0  0  0  0  0
   21.2424    7.3617   31.8277 C   0  0  0  0  0  0  0  0  0  0  0  0
   21.0764    6.0289   31.6195 N   0  0  0  0  0  0  0  0  0  0  0  0
   22.0686    5.2302   31.1980 C   0  0  0  0  0  0  0  0  0  0  0  0
 12 13  1  0  0  0
 13 14  2  0  0  0
 13 21  1  0  0  0
 14 15  1  0  0  0
 15 16  1  0  0  0
 15 19  1  0  0  0
 16 17  2  0  0  0
 17 18  1  0  0  0
 17  1  1  0  0  0
 18 19  2  0  0  0
 19 20  1  0  0  0
 20 21  2  0  0  0
  1  2  2  0  0  0
  1  3  1  0  0  0
  3  4  1  0  0  0
  3  8  1  0  0  0
  4  5  1  0  0  0
  5  6  1  0  0  0
  5 11  1  0  0  0
  6  7  1  0  0  0
  6  9  1  0  0  0
  7  8  1  0  0  0
  9 10  1  0  0  0
 10 11  1  0  0  0
M  END
> <minimizedAffinity>
-7.79070

$$$$
790


 25 28  0  0  0  0  0  0  0  0999 V2000
   24.5108   12.2847   29.3181 C   0  0  0  0  0  0  0  0  0  0  0  0
   24.7385   12.0880   28.0899 O   0  0  0  0  0  0  0  0  0  0  0  0
   24.9745   11.3728   30.3008 N   0  0  0  0  0  0  0  0  0  0  0  0
   24.6656   11.6781   31.7062 C   0  0  0  0  0  0  0  0  0  0  0  0
   24.6709   10.3108   32.3900 C   0  0  0  0  0  0  0  0  0  0  0  0
   24.0716    9.4044   31.4562 N   0  0  0  0  0  0  0  0  0  0  0  0
   25.0514    8.8988   30.4505 C   0  0  0  0  0  0  0  0  0  0  0  0
   25.7269   10.1777   29.9482 C   0  0  0  0  0  0  0  0  0  0  0  0
   22.7481    9.0060   31.3657 C   0  0  0  0  0  0  0  0  0  0  0  0
   22.4566    8.1311   30.4488 O   0  0  0  0  0  0  0  0  0  0  0  0
   22.8996   18.7841   27.1594 Br  0  0  0  0  0  0  0  0  0  0  0  0
   23.2265   17.0608   27.9005 C   0  0  0  0  0  0  0  0  0  0  0  0
   22.6815   16.7000   29.0924 C   0  0  0  0  0  0  0  0  0  0  0  0
   22.9057   15.5004   29.6140 N   0  0  0  0  0  0  0  0  0  0  0  0
   22.4874   14.9325   30.7465 N   0  0  0  0  0  0  0  0  0  0  0  0
   23.0022   13.6934   30.8070 C   0  0  0  0  0  0  0  0  0  0  0  0
   23.7674   13.4638   29.6873 C   0  0  0  0  0  0  0  0  0  0  0  0
   23.6870   14.6361   28.9437 C   0  0  0  0  0  0  0  0  0  0  0  0
   24.2328   14.9771   27.7658 N   0  0  0  0  0  0  0  0  0  0  0  0
   24.0209   16.1778   27.2221 C   0  0  0  0  0  0  0  0  0  0  0  0
   21.5966    9.4197   32.1500 C   0  0  0  0  0  0  0  0  0  0  0  0
   21.3043   10.6912   32.4577 O   0  0  0  0  0  0  0  0  0  0  0  0
   20.2305   10.7831   33.1647 C   0  0  0  0  0  0  0  0  0  0  0  0
   19.7181    9.5287   33.3821 C   0  0  0  0  0  0  0  0  0  0  0  0
   20.5973    8.6779   32.7320 C   0  0  0  0  0  0  0  0  0  0  0  0
 11 12  1  0  0  0
 12 13  2  0  0  0
 12 20  1  0  0  0
 13 14  1  0  0  0
 14 15  1  0  0  0
 14 18  1  0  0  0
 15 16  2  0  0  0
 16 17  1  0  0  0
 17 18  2  0  0  0
 17  1  1  0  0  0
 18 19  1  0  0  0
 19 20  2  0  0  0
  1  2  2  0  0  0
  1  3  1  0  0  0
  3  4  1  0  0  0
  3  8  1  0  0  0
  4  5  1  0  0  0
  5  6  1  0  0  0
  6  7  1  0  0  0
  6  9  1  0  0  0
  7  8  1  0  0  0
  9 10  2  0  0  0
  9 21  1  0  0  0
 21 22  1  0  0  0
 21 25  2  0  0  0
 22 23  1  0  0  0
 23 24  2  0  0  0
 24 25  1  0  0  0
M  END
> <minimizedAffinity>
-8.55717

$$$$
797


 28 31  0  0  0  0  0  0  0  0999 V2000
   23.5739   11.7552   29.9384 O   0  0  0  0  0  0  0  0  0  0  0  0
   23.4487   10.3980   30.1490 C   0  0  0  0  0  0  0  0  0  0  0  0
   23.3162    9.6323   29.1729 O   0  0  0  0  0  0  0  0  0  0  0  0
   23.4769    9.8890   31.5394 C   0  0  0  0  0  0  0  0  0  0  0  0
   22.2022    9.3496   31.9173 N   0  0  0  0  0  0  0  0  0  0  0  0
   21.1336   10.0652   32.4964 C   0  0  0  0  0  0  0  0  0  0  0  0
   21.0611   11.2842   32.7998 O   0  0  0  0  0  0  0  0  0  0  0  0
   20.0161    9.1233   32.7226 C   0  0  0  0  0  0  0  0  0  0  0  0
   20.4196    7.8904   32.2865 C   0  0  0  0  0  0  0  0  0  0  0  0
   19.6005    6.8008   32.3618 C   0  0  0  0  0  0  0  0  0  0  0  0
   18.3429    6.9606   32.8908 C   0  0  0  0  0  0  0  0  0  0  0  0
   17.9346    8.2051   33.3305 C   0  0  0  0  0  0  0  0  0  0  0  0
   18.7537    9.3109   33.2592 C   0  0  0  0  0  0  0  0  0  0  0  0
   21.7878    8.0102   31.7775 C   0  0  0  0  0  0  0  0  0  0  0  0
   22.4590    7.0464   31.2969 O   0  0  0  0  0  0  0  0  0  0  0  0
   23.3723   12.7525   30.9052 C   0  0  0  0  0  0  0  0  0  0  0  0
   22.6154   19.9076   26.6327 Br  0  0  0  0  0  0  0  0  0  0  0  0
   22.9364   18.1722   27.3837 C   0  0  0  0  0  0  0  0  0  0  0  0
   22.4708   17.8279   28.6337 C   0  0  0  0  0  0  0  0  0  0  0  0
   22.6771   16.6175   29.1961 N   0  0  0  0  0  0  0  0  0  0  0  0
   23.3643   15.6540   28.5570 C   0  0  0  0  0  0  0  0  0  0  0  0
   23.5791   14.4440   29.1017 N   0  0  0  0  0  0  0  0  0  0  0  0
   23.1232   14.0996   30.3296 C   0  0  0  0  0  0  0  0  0  0  0  0
   22.4164   15.0728   31.0038 C   0  0  0  0  0  0  0  0  0  0  0  0
   22.2034   16.3202   30.4240 C   0  0  0  0  0  0  0  0  0  0  0  0
   21.5686   17.2032   31.0217 O   0  0  0  0  0  0  0  0  0  0  0  0
   23.8490   15.9741   27.2863 C   0  0  0  0  0  0  0  0  0  0  0  0
   23.6449   17.2054   26.7029 C   0  0  0  0  0  0  0  0  0  0  0  0
 17 18  1  0  0  0
 18 19  2  0  0  0
 18 28  1  0  0  0
 19 20  1  0  0  0
 20 21  1  0  0  0
 20 25  1  0  0  0
 21 22  2  0  0  0
 21 27  1  0  0  0
 22 23  1  0  0  0
 23 24  2  0  0  0
 23 16  1  0  0  0
 24 25  1  0  0  0
 25 26  2  0  0  0
 16  1  1  0  0  0
  1  2  1  0  0  0
  2  3  2  0  0  0
  2  4  1  0  0  0
  4  5  1  0  0  0
  5  6  1  0  0  0
  5 14  1  0  0  0
  6  7  2  0  0  0
  6  8  1  0  0  0
  8  9  2  0  0  0
  8 13  1  0  0  0
  9 10  1  0  0  0
  9 14  1  0  0  0
 10 11  2  0  0  0
 11 12  1  0  0  0
 12 13  2  0  0  0
 14 15  2  0  0  0
 27 28  2  0  0  0
M  END
> <minimizedAffinity>
-9.87692

$$$$
800


 29 32  0  0  0  0  0  0  0  0999 V2000
   25.6126   10.2422   29.4344 C   0  0  0  0  0  0  0  0  0  0  0  0
   26.5534   10.2115   28.5995 O   0  0  0  0  0  0  0  0  0  0  0  0
   24.7032    9.2117   29.4275 O   0  0  0  0  0  0  0  0  0  0  0  0
   24.7509    8.1365   30.3464 C   0  0  0  0  0  0  0  0  0  0  0  0
   17.2634    8.2080   33.8423 Br  0  0  0  0  0  0  0  0  0  0  0  0
   19.0052    8.4744   33.1046 C   0  0  0  0  0  0  0  0  0  0  0  0
   19.6535    7.4084   32.5192 C   0  0  0  0  0  0  0  0  0  0  0  0
   20.8789    7.5921   31.9997 N   0  0  0  0  0  0  0  0  0  0  0  0
   21.4918    8.7931   32.0340 C   0  0  0  0  0  0  0  0  0  0  0  0
   22.7277    8.9563   31.5039 N   0  0  0  0  0  0  0  0  0  0  0  0
   23.3972    7.9448   30.9241 C   0  0  0  0  0  0  0  0  0  0  0  0
   22.7875    6.7127   30.8789 C   0  0  0  0  0  0  0  0  0  0  0  0
   21.5116    6.5442   31.4264 C   0  0  0  0  0  0  0  0  0  0  0  0
   20.9524    5.4357   31.3910 O   0  0  0  0  0  0  0  0  0  0  0  0
   20.8476    9.8654   32.6193 C   0  0  0  0  0  0  0  0  0  0  0  0
   19.5917    9.7292   33.1669 C   0  0  0  0  0  0  0  0  0  0  0  0
   25.5658   11.4003   30.3648 C   0  0  0  0  0  0  0  0  0  0  0  0
   24.4721   12.2838   30.0885 N   0  0  0  0  0  0  0  0  0  0  0  0
   24.2683   13.0351   28.8927 C   0  0  0  0  0  0  0  0  0  0  0  0
   25.0394   13.0256   27.8901 O   0  0  0  0  0  0  0  0  0  0  0  0
   23.0635   13.7780   29.0383 N   0  0  0  0  0  0  0  0  0  0  0  0
   22.5828   13.6253   30.3882 C   0  0  0  0  0  0  0  0  0  0  0  0
   22.7355   14.8776   31.2101 C   0  0  0  0  0  0  0  0  0  0  0  0
   21.7728   14.6681   32.3365 C   0  0  0  0  0  0  0  0  0  0  0  0
   20.8469   13.5513   31.9522 C   0  0  0  0  0  0  0  0  0  0  0  0
   21.1224   13.3392   30.4794 C   0  0  0  0  0  0  0  0  0  0  0  0
   23.3906   12.5609   30.9809 C   0  0  0  0  0  0  0  0  0  0  0  0
   23.2160   11.9626   32.0681 O   0  0  0  0  0  0  0  0  0  0  0  0
   22.6304   14.3279   28.2765 H   0  0  0  0  0  0  0  0  0  0  0  0
  5  6  1  0  0  0
  6  7  2  0  0  0
  6 16  1  0  0  0
  7  8  1  0  0  0
  8  9  1  0  0  0
  8 13  1  0  0  0
  9 10  2  0  0  0
  9 15  1  0  0  0
 10 11  1  0  0  0
 11 12  2  0  0  0
 11  4  1  0  0  0
 12 13  1  0  0  0
 13 14  2  0  0  0
  4  3  1  0  0  0
  3  1  1  0  0  0
  1  2  2  0  0  0
  1 17  1  0  0  0
 17 18  1  0  0  0
 18 19  1  0  0  0
 18 27  1  0  0  0
 19 20  2  0  0  0
 19 21  1  0  0  0
 21 22  1  0  0  0
 22 23  1  0  0  0
 22 26  1  0  0  0
 22 27  1  0  0  0
 23 24  1  0  0  0
 24 25  1  0  0  0
 25 26  1  0  0  0
 27 28  2  0  0  0
 15 16  2  0  0  0
 21 29  1  0  0  0
M  END
> <minimizedAffinity>
-8.71727

$$$$
803


 31 34  0  0  0  0  0  0  0  0999 V2000
   26.2775    8.3056   29.2281 Br  0  0  0  0  0  0  0  0  0  0  0  0
   24.8746    9.2689   30.0727 C   0  0  0  0  0  0  0  0  0  0  0  0
   24.7360   10.6102   29.9864 C   0  0  0  0  0  0  0  0  0  0  0  0
   23.7048   11.2833   30.5049 N   0  0  0  0  0  0  0  0  0  0  0  0
   22.7576   10.5970   31.1431 C   0  0  0  0  0  0  0  0  0  0  0  0
   21.7003   11.2630   31.6869 N   0  0  0  0  0  0  0  0  0  0  0  0
   21.5597   12.5794   31.6162 C   0  0  0  0  0  0  0  0  0  0  0  0
   22.5244   13.3110   30.9616 C   0  0  0  0  0  0  0  0  0  0  0  0
   22.4379   14.6853   30.8608 C   0  0  0  0  0  0  0  0  0  0  0  0
   21.3769   15.4058   31.4106 C   0  0  0  0  0  0  0  0  0  0  0  0
   20.4170   14.6632   32.0634 C   0  0  0  0  0  0  0  0  0  0  0  0
   20.4996   13.2854   32.1667 C   0  0  0  0  0  0  0  0  0  0  0  0
   23.5937   12.6132   30.4131 C   0  0  0  0  0  0  0  0  0  0  0  0
   24.4783   13.2662   29.8163 O   0  0  0  0  0  0  0  0  0  0  0  0
   22.8734    9.2525   31.2444 N   0  0  0  0  0  0  0  0  0  0  0  0
   23.8642    8.5164   30.7597 C   0  0  0  0  0  0  0  0  0  0  0  0
   22.0498    8.8222   31.7778 H   0  0  0  0  0  0  0  0  0  0  0  0
   24.0998    7.1868   30.9121 N   0  0  0  0  0  0  0  0  0  0  0  0
   22.8276    6.9643   31.3600 H   0  0  0  0  0  0  0  0  0  0  0  0
   24.3314    5.8765   31.0624 C   0  0  0  0  0  0  0  0  0  0  0  0
   23.2872    5.0330   31.4634 C   0  0  0  0  0  0  0  0  0  0  0  0
   23.5359    3.7574   31.8515 C   0  0  0  0  0  0  0  0  0  0  0  0
   24.8190    3.2671   31.8529 C   0  0  0  0  0  0  0  0  0  0  0  0
   25.8883    4.0428   31.4637 C   0  0  0  0  0  0  0  0  0  0  0  0
   25.6108    5.3331   31.0772 C   0  0  0  0  0  0  0  0  0  0  0  0
   21.8797    5.4326   31.3414 C   0  0  0  0  0  0  0  0  0  0  0  0
   21.1728    4.8269   30.4967 O   0  0  0  0  0  0  0  0  0  0  0  0
   21.2682    6.4148   32.0652 O   0  0  0  0  0  0  0  0  0  0  0  0
   19.9072    6.3529   32.4461 C   0  0  0  0  0  0  0  0  0  0  0  0
   19.2765    7.7472   32.3864 C   0  0  0  0  0  0  0  0  0  0  0  0
   17.7938    7.6177   32.6418 C   0  0  0  0  0  0  0  0  0  0  0  0
  1  2  1  0  0  0
  2  3  2  0  0  0
  2 16  1  0  0  0
  3  4  1  0  0  0
  4  5  1  0  0  0
  4 13  1  0  0  0
  5  6  2  0  0  0
  5 15  1  0  0  0
  6  7  1  0  0  0
  7  8  2  0  0  0
  7 12  1  0  0  0
  8  9  1  0  0  0
  8 13  1  0  0  0
  9 10  2  0  0  0
 10 11  1  0  0  0
 11 12  2  0  0  0
 13 14  2  0  0  0
 15 16  2  0  0  0
 16 18  1  0  0  0
 18 20  1  0  0  0
 20 21  2  0  0  0
 20 25  1  0  0  0
 21 22  1  0  0  0
 21 26  1  0  0  0
 22 23  2  0  0  0
 23 24  1  0  0  0
 24 25  2  0  0  0
 26 27  2  0  0  0
 26 28  1  0  0  0
 28 29  1  0  0  0
 29 30  1  0  0  0
 30 31  1  0  0  0
 15 17  1  0  0  0
 18 19  1  0  0  0
M  END
> <minimizedAffinity>
-8.77827

$$$$
814


 31 34  0  0  0  0  0  0  0  0999 V2000
   21.3744    6.8990   31.7653 N   0  0  0  0  0  0  0  0  0  0  0  0
   22.2296    7.8728   31.5512 N   0  0  0  0  0  0  0  0  0  0  0  0
   21.8712    8.9730   32.2295 C   0  0  0  0  0  0  0  0  0  0  0  0
   20.7457    8.6725   32.8938 N   0  0  0  0  0  0  0  0  0  0  0  0
   20.4417    7.3746   32.5973 C   0  0  0  0  0  0  0  0  0  0  0  0
   19.2940    6.6229   33.1020 C   0  0  0  0  0  0  0  0  0  0  0  0
   17.9704    7.2649   32.7596 C   0  0  0  0  0  0  0  0  0  0  0  0
   17.7232    8.5179   33.5703 C   0  0  0  0  0  0  0  0  0  0  0  0
   18.5980    9.6641   33.1663 C   0  0  0  0  0  0  0  0  0  0  0  0
   19.9957    9.5604   33.7600 C   0  0  0  0  0  0  0  0  0  0  0  0
   21.4229    5.5770   31.2158 C   0  0  0  0  0  0  0  0  0  0  0  0
   22.7858    5.2272   30.7348 C   0  0  0  0  0  0  0  0  0  0  0  0
   23.1932    5.7866   29.6823 O   0  0  0  0  0  0  0  0  0  0  0  0
   26.4118    1.1966   33.6876 Br  0  0  0  0  0  0  0  0  0  0  0  0
   25.2751    2.4513   32.7727 C   0  0  0  0  0  0  0  0  0  0  0  0
   25.7579    3.1465   31.6773 C   0  0  0  0  0  0  0  0  0  0  0  0
   24.9411    4.0555   31.0116 C   0  0  0  0  0  0  0  0  0  0  0  0
   23.6469    4.2857   31.4171 C   0  0  0  0  0  0  0  0  0  0  0  0
   23.1993    3.5777   32.5101 C   0  0  0  0  0  0  0  0  0  0  0  0
   23.9834    2.6751   33.1858 C   0  0  0  0  0  0  0  0  0  0  0  0
   22.5538   10.2738   32.2636 C   0  0  0  0  0  0  0  0  0  0  0  0
   22.2896   11.0646   31.1009 N   0  0  0  0  0  0  0  0  0  0  0  0
   22.2934   10.6287   30.1672 H   0  0  0  0  0  0  0  0  0  0  0  0
   22.0143   12.4609   31.1586 C   0  0  0  0  0  0  0  0  0  0  0  0
   22.7236   13.3813   30.4208 C   0  0  0  0  0  0  0  0  0  0  0  0
   22.4461   14.7226   30.4809 C   0  0  0  0  0  0  0  0  0  0  0  0
   21.4459   15.1660   31.2879 C   0  0  0  0  0  0  0  0  0  0  0  0
   20.7341   14.2480   32.0283 C   0  0  0  0  0  0  0  0  0  0  0  0
   21.0039   12.8962   31.9752 C   0  0  0  0  0  0  0  0  0  0  0  0
   21.1459   16.5049   31.3689 O   0  0  0  0  0  0  0  0  0  0  0  0
   22.1238   17.4980   31.5545 C   0  0  0  0  0  0  0  0  0  0  0  0
 14 15  1  0  0  0
 15 16  2  0  0  0
 15 20  1  0  0  0
 16 17  1  0  0  0
 17 18  2  0  0  0
 18 19  1  0  0  0
 18 12  1  0  0  0
 19 20  2  0  0  0
 12 13  2  0  0  0
 12 11  1  0  0  0
 11  1  1  0  0  0
  1  2  1  0  0  0
  1  5  2  0  0  0
  2  3  2  0  0  0
  3  4  1  0  0  0
  3 21  1  0  0  0
  4  5  1  0  0  0
  4 10  1  0  0  0
  5  6  1  0  0  0
  6  7  1  0  0  0
  7  8  1  0  0  0
  8  9  1  0  0  0
  9 10  1  0  0  0
 21 22  1  0  0  0
 22 24  1  0  0  0
 24 25  2  0  0  0
 24 29  1  0  0  0
 25 26  1  0  0  0
 26 27  2  0  0  0
 27 28  1  0  0  0
 27 30  1  0  0  0
 28 29  2  0  0  0
 30 31  1  0  0  0
 22 23  1  0  0  0
M  END
> <minimizedAffinity>
-9.31174

$$$$
827


 29 32  0  0  0  0  0  0  0  0999 V2000
   24.3906   11.9687   31.8078 C   0  0  0  0  0  0  0  0  0  0  0  0
   23.1961   11.1357   31.9277 N   0  0  0  0  0  0  0  0  0  0  0  0
   22.0751   11.9295   31.9192 C   0  0  0  0  0  0  0  0  0  0  0  0
   20.8542   11.6618   32.3105 C   0  0  0  0  0  0  0  0  0  0  0  0
   19.5772   12.4320   32.3409 C   0  0  0  0  0  0  0  0  0  0  0  0
   19.7259   13.8797   31.9937 C   0  0  0  0  0  0  0  0  0  0  0  0
   20.3457   14.0648   30.6287 C   0  0  0  0  0  0  0  0  0  0  0  0
   21.8385   14.2912   30.7655 C   0  0  0  0  0  0  0  0  0  0  0  0
   22.4882   13.2483   31.4918 N   0  0  0  0  0  0  0  0  0  0  0  0
   23.8592   13.4269   31.9881 C   0  0  0  0  0  0  0  0  0  0  0  0
   25.2979   11.7508   32.7708 O   0  0  0  0  0  0  0  0  0  0  0  0
   23.2798   10.8961   33.0388 H   0  0  0  0  0  0  0  0  0  0  0  0
   26.2076   12.0694   32.6777 H   0  0  0  0  0  0  0  0  0  0  0  0
   26.5321   11.9330   26.0296 Br  0  0  0  0  0  0  0  0  0  0  0  0
   25.8823   11.9414   27.8081 C   0  0  0  0  0  0  0  0  0  0  0  0
   24.8830   12.8281   28.1623 C   0  0  0  0  0  0  0  0  0  0  0  0
   24.3910   12.8450   29.4503 C   0  0  0  0  0  0  0  0  0  0  0  0
   24.8845   11.9826   30.4015 C   0  0  0  0  0  0  0  0  0  0  0  0
   25.8697   11.1100   30.0493 C   0  0  0  0  0  0  0  0  0  0  0  0
   26.3844   11.0756   28.7464 C   0  0  0  0  0  0  0  0  0  0  0  0
   23.2745    9.8838   31.3774 C   0  0  0  0  0  0  0  0  0  0  0  0
   24.0285    8.8528   31.8511 C   0  0  0  0  0  0  0  0  0  0  0  0
   24.2054    7.6485   31.1488 C   0  0  0  0  0  0  0  0  0  0  0  0
   23.6124    7.4549   29.9291 C   0  0  0  0  0  0  0  0  0  0  0  0
   22.8407    8.4992   29.4407 C   0  0  0  0  0  0  0  0  0  0  0  0
   22.6711    9.6793   30.1322 C   0  0  0  0  0  0  0  0  0  0  0  0
   23.7838    6.2795   29.2168 O   0  0  0  0  0  0  0  0  0  0  0  0
   24.8172    5.3497   29.4221 C   0  0  0  0  0  0  0  0  0  0  0  0
   25.7718    5.5209   28.2248 C   0  0  0  0  0  0  0  0  0  0  0  0
 14 15  1  0  0  0
 15 16  2  0  0  0
 15 20  1  0  0  0
 16 17  1  0  0  0
 17 18  2  0  0  0
 18 19  1  0  0  0
 18  1  1  0  0  0
 19 20  2  0  0  0
  1  2  1  0  0  0
  1 10  1  0  0  0
  1 11  1  0  0  0
  2  3  1  0  0  0
  2 21  1  0  0  0
  3  4  2  0  0  0
  3  9  1  0  0  0
  4  5  1  0  0  0
  5  6  1  0  0  0
  6  7  1  0  0  0
  7  8  1  0  0  0
  8  9  1  0  0  0
  9 10  1  0  0  0
 21 22  2  0  0  0
 21 26  1  0  0  0
 22 23  1  0  0  0
 23 24  2  0  0  0
 24 25  1  0  0  0
 24 27  1  0  0  0
 25 26  2  0  0  0
 27 28  1  0  0  0
 28 29  1  0  0  0
  2 12  1  0  0  0
 11 13  1  0  0  0
M  CHG 1   2   1
M  END
> <minimizedAffinity>
-6.65576

$$$$
833


 28 31  0  0  0  0  0  0  0  0999 V2000
   25.7964    5.3087   28.6145 C   0  0  0  0  0  0  0  0  0  0  0  0
   25.8134    4.8814   30.0067 N   0  0  0  0  0  0  0  0  0  0  0  0
   27.0326    4.4522   30.6825 C   0  0  0  0  0  0  0  0  0  0  0  0
   26.7770    3.7775   31.9799 C   0  0  0  0  0  0  0  0  0  0  0  0
   25.7727    2.6570   31.9041 C   0  0  0  0  0  0  0  0  0  0  0  0
   24.4448    3.2569   32.3272 C   0  0  0  0  0  0  0  0  0  0  0  0
   23.9171    4.2750   31.4670 C   0  0  0  0  0  0  0  0  0  0  0  0
   24.5025    4.9751   30.4683 C   0  0  0  0  0  0  0  0  0  0  0  0
   23.7822    5.9544   29.7566 N   0  0  0  0  0  0  0  0  0  0  0  0
   24.6403    6.2462   28.6454 C   0  0  0  0  0  0  0  0  0  0  0  0
   25.5960    4.1919   27.8455 O   0  0  0  0  0  0  0  0  0  0  0  0
   22.8577    5.6305   29.3896 H   0  0  0  0  0  0  0  0  0  0  0  0
   26.3139    3.5273   27.9057 H   0  0  0  0  0  0  0  0  0  0  0  0
   31.0508    8.0146   27.0104 Br  0  0  0  0  0  0  0  0  0  0  0  0
   29.4130    7.1644   27.5208 C   0  0  0  0  0  0  0  0  0  0  0  0
   28.4745    7.8785   28.2292 C   0  0  0  0  0  0  0  0  0  0  0  0
   27.2714    7.2867   28.6161 C   0  0  0  0  0  0  0  0  0  0  0  0
   27.0761    5.9511   28.2535 C   0  0  0  0  0  0  0  0  0  0  0  0
   27.9974    5.2363   27.5554 C   0  0  0  0  0  0  0  0  0  0  0  0
   29.1849    5.8414   27.1805 C   0  0  0  0  0  0  0  0  0  0  0  0
   23.6412    7.0650   30.6428 C   0  0  0  0  0  0  0  0  0  0  0  0
   22.4306    7.3294   31.2610 C   0  0  0  0  0  0  0  0  0  0  0  0
   22.3766    8.4762   32.0426 C   0  0  0  0  0  0  0  0  0  0  0  0
   23.4393    9.3409   32.2277 C   0  0  0  0  0  0  0  0  0  0  0  0
   24.6524    9.0295   31.5777 C   0  0  0  0  0  0  0  0  0  0  0  0
   24.6919    7.9127   30.8238 C   0  0  0  0  0  0  0  0  0  0  0  0
   21.3773    6.4844   31.0887 O   0  0  0  0  0  0  0  0  0  0  0  0
   20.6469    5.9854   32.1786 C   0  0  0  0  0  0  0  0  0  0  0  0
 14 15  1  0  0  0
 15 16  2  0  0  0
 15 20  1  0  0  0
 16 17  1  0  0  0
 17 18  2  0  0  0
 18 19  1  0  0  0
 18  1  1  0  0  0
 19 20  2  0  0  0
  1  2  1  0  0  0
  1 10  1  0  0  0
  1 11  1  0  0  0
  2  3  1  0  0  0
  2  8  1  0  0  0
  3  4  1  0  0  0
  4  5  1  0  0  0
  5  6  1  0  0  0
  6  7  1  0  0  0
  7  8  2  0  0  0
  8  9  1  0  0  0
  9 10  1  0  0  0
  9 21  1  0  0  0
 21 22  2  0  0  0
 21 26  1  0  0  0
 22 23  1  0  0  0
 22 27  1  0  0  0
 23 24  2  0  0  0
 24 25  1  0  0  0
 25 26  2  0  0  0
 27 28  1  0  0  0
  9 12  1  0  0  0
 11 13  1  0  0  0
M  CHG 1   9   1
M  END
> <minimizedAffinity>
-6.62035

$$$$
834


 28 31  0  0  0  0  0  0  0  0999 V2000
   23.6472    8.0415   30.3656 C   0  0  0  0  0  0  0  0  0  0  0  0
   23.1764    6.6961   30.4433 N   0  0  0  0  0  0  0  0  0  0  0  0
   21.9414    6.1659   29.9538 C   0  0  0  0  0  0  0  0  0  0  0  0
   21.1768    5.2751   30.8544 C   0  0  0  0  0  0  0  0  0  0  0  0
   21.7788    4.9646   32.1770 C   0  0  0  0  0  0  0  0  0  0  0  0
   22.9673    4.0096   32.0612 C   0  0  0  0  0  0  0  0  0  0  0  0
   24.1702    4.8573   31.7926 C   0  0  0  0  0  0  0  0  0  0  0  0
   24.2550    5.9878   31.1117 C   0  0  0  0  0  0  0  0  0  0  0  0
   25.4596    6.7230   30.9344 N   0  0  0  0  0  0  0  0  0  0  0  0
   24.9781    8.0589   31.1250 C   0  0  0  0  0  0  0  0  0  0  0  0
   23.8470    8.4633   29.0367 O   0  0  0  0  0  0  0  0  0  0  0  0
   26.1307    6.4251   31.6865 H   0  0  0  0  0  0  0  0  0  0  0  0
   24.7039    8.9612   29.0529 H   0  0  0  0  0  0  0  0  0  0  0  0
   20.4603   12.8053   32.6575 Br  0  0  0  0  0  0  0  0  0  0  0  0
   21.4250   11.2973   31.9832 C   0  0  0  0  0  0  0  0  0  0  0  0
   21.3370   10.0644   32.5939 C   0  0  0  0  0  0  0  0  0  0  0  0
   22.0486    8.9825   32.0907 C   0  0  0  0  0  0  0  0  0  0  0  0
   22.8447    9.0855   30.9990 C   0  0  0  0  0  0  0  0  0  0  0  0
   22.9392   10.3452   30.3705 C   0  0  0  0  0  0  0  0  0  0  0  0
   22.2319   11.4056   30.8756 C   0  0  0  0  0  0  0  0  0  0  0  0
   25.9599    6.4829   29.6446 C   0  0  0  0  0  0  0  0  0  0  0  0
   25.5441    5.3582   28.9086 C   0  0  0  0  0  0  0  0  0  0  0  0
   26.0160    5.0941   27.6512 C   0  0  0  0  0  0  0  0  0  0  0  0
   26.9291    5.9321   27.0475 C   0  0  0  0  0  0  0  0  0  0  0  0
   27.3493    7.0352   27.7446 C   0  0  0  0  0  0  0  0  0  0  0  0
   26.8736    7.3003   29.0125 C   0  0  0  0  0  0  0  0  0  0  0  0
   27.4083    5.6524   25.7534 O   0  0  0  0  0  0  0  0  0  0  0  0
   28.0705    6.6484   25.0199 C   0  0  0  0  0  0  0  0  0  0  0  0
 14 15  1  0  0  0
 15 16  2  0  0  0
 15 20  1  0  0  0
 16 17  1  0  0  0
 17 18  2  0  0  0
 18 19  1  0  0  0
 18  1  1  0  0  0
 19 20  2  0  0  0
  1  2  1  0  0  0
  1 10  1  0  0  0
  1 11  1  0  0  0
  2  3  1  0  0  0
  2  8  1  0  0  0
  3  4  1  0  0  0
  4  5  1  0  0  0
  5  6  1  0  0  0
  6  7  1  0  0  0
  7  8  2  0  0  0
  8  9  1  0  0  0
  9 10  1  0  0  0
  9 21  1  0  0  0
 21 22  2  0  0  0
 21 26  1  0  0  0
 22 23  1  0  0  0
 23 24  2  0  0  0
 24 25  1  0  0  0
 24 27  1  0  0  0
 25 26  2  0  0  0
 27 28  1  0  0  0
  9 12  1  0  0  0
 11 13  1  0  0  0
M  CHG 1   9   1
M  END
> <minimizedAffinity>
-7.31408

$$$$
835


 27 30  0  0  0  0  0  0  0  0999 V2000
   24.5830    8.0671   30.3922 C   0  0  0  0  0  0  0  0  0  0  0  0
   25.6670    7.8435   29.4598 N   0  0  0  0  0  0  0  0  0  0  0  0
   26.8332    8.5558   28.9820 C   0  0  0  0  0  0  0  0  0  0  0  0
   27.9941    7.6258   28.6946 C   0  0  0  0  0  0  0  0  0  0  0  0
   27.5504    6.6220   27.6843 C   0  0  0  0  0  0  0  0  0  0  0  0
   26.2834    5.9719   28.0813 C   0  0  0  0  0  0  0  0  0  0  0  0
   25.4115    6.5523   28.9111 C   0  0  0  0  0  0  0  0  0  0  0  0
   24.1662    6.0523   29.3440 N   0  0  0  0  0  0  0  0  0  0  0  0
   23.4647    7.2802   29.7717 C   0  0  0  0  0  0  0  0  0  0  0  0
   24.8382    7.5339   31.6514 O   0  0  0  0  0  0  0  0  0  0  0  0
   23.5703    5.7344   28.5106 H   0  0  0  0  0  0  0  0  0  0  0  0
   23.9623    7.4202   32.0933 H   0  0  0  0  0  0  0  0  0  0  0  0
   23.0150   14.0411   30.9686 Br  0  0  0  0  0  0  0  0  0  0  0  0
   23.5154   12.1939   30.8101 C   0  0  0  0  0  0  0  0  0  0  0  0
   22.8795   11.4023   29.8804 C   0  0  0  0  0  0  0  0  0  0  0  0
   23.2551   10.0639   29.7695 C   0  0  0  0  0  0  0  0  0  0  0  0
   24.2384    9.5004   30.5540 C   0  0  0  0  0  0  0  0  0  0  0  0
   24.8622   10.3162   31.4790 C   0  0  0  0  0  0  0  0  0  0  0  0
   24.5017   11.6449   31.6007 C   0  0  0  0  0  0  0  0  0  0  0  0
   24.1806    5.1018   30.3592 C   0  0  0  0  0  0  0  0  0  0  0  0
   23.0597    4.7014   31.0428 C   0  0  0  0  0  0  0  0  0  0  0  0
   23.1502    3.7548   32.0658 C   0  0  0  0  0  0  0  0  0  0  0  0
   24.3578    3.2043   32.4102 C   0  0  0  0  0  0  0  0  0  0  0  0
   25.4883    3.5986   31.7281 C   0  0  0  0  0  0  0  0  0  0  0  0
   25.3925    4.5286   30.7237 C   0  0  0  0  0  0  0  0  0  0  0  0
   21.8043    5.2016   30.7611 O   0  0  0  0  0  0  0  0  0  0  0  0
   20.9666    5.6591   31.7701 C   0  0  0  0  0  0  0  0  0  0  0  0
 13 14  1  0  0  0
 14 15  2  0  0  0
 14 19  1  0  0  0
 15 16  1  0  0  0
 16 17  2  0  0  0
 17 18  1  0  0  0
 17  1  1  0  0  0
 18 19  2  0  0  0
  1  2  1  0  0  0
  1  9  1  0  0  0
  1 10  1  0  0  0
  2  3  1  0  0  0
  2  7  1  0  0  0
  3  4  1  0  0  0
  4  5  1  0  0  0
  5  6  1  0  0  0
  6  7  2  0  0  0
  7  8  1  0  0  0
  8  9  1  0  0  0
  8 20  1  0  0  0
 20 21  2  0  0  0
 20 25  1  0  0  0
 21 22  1  0  0  0
 21 26  1  0  0  0
 22 23  2  0  0  0
 23 24  1  0  0  0
 24 25  2  0  0  0
 26 27  1  0  0  0
  8 11  1  0  0  0
 10 12  1  0  0  0
M  CHG 1   8   1
M  END
> <minimizedAffinity>
-7.83754

$$$$
836


 27 30  0  0  0  0  0  0  0  0999 V2000
   24.9750   10.6788   30.6446 C   0  0  0  0  0  0  0  0  0  0  0  0
   23.6449   10.1456   30.4844 N   0  0  0  0  0  0  0  0  0  0  0  0
   22.9193    9.4505   29.4299 C   0  0  0  0  0  0  0  0  0  0  0  0
   21.8713    8.5201   29.9028 C   0  0  0  0  0  0  0  0  0  0  0  0
   21.7846    8.3350   31.3971 C   0  0  0  0  0  0  0  0  0  0  0  0
   22.0754    9.5534   32.1471 C   0  0  0  0  0  0  0  0  0  0  0  0
   22.9691   10.4177   31.7029 C   0  0  0  0  0  0  0  0  0  0  0  0
   23.4501   11.6614   32.2028 N   0  0  0  0  0  0  0  0  0  0  0  0
   24.7669   11.7807   31.6577 C   0  0  0  0  0  0  0  0  0  0  0  0
   25.7709    9.6460   31.1815 O   0  0  0  0  0  0  0  0  0  0  0  0
   23.4917   11.5678   33.2537 H   0  0  0  0  0  0  0  0  0  0  0  0
   25.4325    8.8090   30.7789 H   0  0  0  0  0  0  0  0  0  0  0  0
   27.7531   12.5546   25.4207 Br  0  0  0  0  0  0  0  0  0  0  0  0
   26.8908   11.9833   27.0242 C   0  0  0  0  0  0  0  0  0  0  0  0
   27.3840   10.9377   27.7814 C   0  0  0  0  0  0  0  0  0  0  0  0
   26.7487   10.5395   28.9395 C   0  0  0  0  0  0  0  0  0  0  0  0
   25.6028   11.1450   29.4102 C   0  0  0  0  0  0  0  0  0  0  0  0
   25.1144   12.1947   28.6416 C   0  0  0  0  0  0  0  0  0  0  0  0
   25.7456   12.6000   27.4798 C   0  0  0  0  0  0  0  0  0  0  0  0
   22.5605   12.6672   31.8501 C   0  0  0  0  0  0  0  0  0  0  0  0
   23.0085   13.8296   31.2676 C   0  0  0  0  0  0  0  0  0  0  0  0
   22.1067   14.8461   30.9123 C   0  0  0  0  0  0  0  0  0  0  0  0
   20.7631   14.7209   31.1291 C   0  0  0  0  0  0  0  0  0  0  0  0
   20.3079   13.5301   31.7252 C   0  0  0  0  0  0  0  0  0  0  0  0
   21.2190   12.5506   32.0626 C   0  0  0  0  0  0  0  0  0  0  0  0
   19.8136   15.6872   30.8022 O   0  0  0  0  0  0  0  0  0  0  0  0
   18.4361   15.5060   30.7465 C   0  0  0  0  0  0  0  0  0  0  0  0
 13 14  1  0  0  0
 14 15  2  0  0  0
 14 19  1  0  0  0
 15 16  1  0  0  0
 16 17  2  0  0  0
 17 18  1  0  0  0
 17  1  1  0  0  0
 18 19  2  0  0  0
  1  2  1  0  0  0
  1  9  1  0  0  0
  1 10  1  0  0  0
  2  3  1  0  0  0
  2  7  1  0  0  0
  3  4  1  0  0  0
  4  5  1  0  0  0
  5  6  1  0  0  0
  6  7  2  0  0  0
  7  8  1  0  0  0
  8  9  1  0  0  0
  8 20  1  0  0  0
 20 21  2  0  0  0
 20 25  1  0  0  0
 21 22  1  0  0  0
 22 23  2  0  0  0
 23 24  1  0  0  0
 23 26  1  0  0  0
 24 25  2  0  0  0
 26 27  1  0  0  0
  8 11  1  0  0  0
 10 12  1  0  0  0
M  CHG 1   8   1
M  END
> <minimizedAffinity>
-6.72503

$$$$
847


 31 34  0  0  0  0  0  0  0  0999 V2000
   24.2425    6.6144   30.0148 C   0  0  0  0  0  0  0  0  0  0  0  0
   24.4917    5.4207   30.5778 N   0  0  0  0  0  0  0  0  0  0  0  0
   23.3335    4.9424   31.0688 C   0  0  0  0  0  0  0  0  0  0  0  0
   22.3448    5.8596   30.8042 N   0  0  0  0  0  0  0  0  0  0  0  0
   22.9347    6.8555   30.1661 N   0  0  0  0  0  0  0  0  0  0  0  0
   22.9902    3.7037   31.7739 C   0  0  0  0  0  0  0  0  0  0  0  0
   24.0691    3.1649   32.6747 C   0  0  0  0  0  0  0  0  0  0  0  0
   25.3291    2.8077   31.9561 C   0  0  0  0  0  0  0  0  0  0  0  0
   26.1461    4.0734   31.8359 C   0  0  0  0  0  0  0  0  0  0  0  0
   25.7990    4.8510   30.5906 C   0  0  0  0  0  0  0  0  0  0  0  0
   25.1760    7.5654   29.3296 C   0  0  0  0  0  0  0  0  0  0  0  0
   25.6654    8.6016   30.2161 N   0  0  0  0  0  0  0  0  0  0  0  0
   26.5759    8.4964   30.7155 H   0  0  0  0  0  0  0  0  0  0  0  0
   22.5959   13.7577   31.2922 Br  0  0  0  0  0  0  0  0  0  0  0  0
   23.5558   12.1518   30.9574 C   0  0  0  0  0  0  0  0  0  0  0  0
   23.3969   11.4801   29.7494 C   0  0  0  0  0  0  0  0  0  0  0  0
   24.0876   10.3226   29.5089 C   0  0  0  0  0  0  0  0  0  0  0  0
   24.9436    9.8150   30.4617 C   0  0  0  0  0  0  0  0  0  0  0  0
   25.0892   10.4933   31.6532 C   0  0  0  0  0  0  0  0  0  0  0  0
   24.4105   11.6584   31.9269 C   0  0  0  0  0  0  0  0  0  0  0  0
   20.9662    5.7796   31.0823 C   0  0  0  0  0  0  0  0  0  0  0  0
   20.4472    6.5154   32.2050 C   0  0  0  0  0  0  0  0  0  0  0  0
   19.9499    5.7182   33.1516 O   0  0  0  0  0  0  0  0  0  0  0  0
   20.3450    7.9086   32.5353 C   0  0  0  0  0  0  0  0  0  0  0  0
   19.1803    8.4151   33.1523 C   0  0  0  0  0  0  0  0  0  0  0  0
   19.0274    9.7354   33.4836 C   0  0  0  0  0  0  0  0  0  0  0  0
   20.0214   10.6452   33.2249 C   0  0  0  0  0  0  0  0  0  0  0  0
   21.1673   10.1963   32.6280 C   0  0  0  0  0  0  0  0  0  0  0  0
   21.3106    8.8370   32.2927 C   0  0  0  0  0  0  0  0  0  0  0  0
   19.8647   11.9881   33.5631 O   0  0  0  0  0  0  0  0  0  0  0  0
   18.9048   12.8142   32.9515 C   0  0  0  0  0  0  0  0  0  0  0  0
 14 15  1  0  0  0
 15 16  2  0  0  0
 15 20  1  0  0  0
 16 17  1  0  0  0
 17 18  2  0  0  0
 18 19  1  0  0  0
 18 12  1  0  0  0
 19 20  2  0  0  0
 12 11  1  0  0  0
 11  1  1  0  0  0
  1  2  1  0  0  0
  1  5  2  0  0  0
  2  3  1  0  0  0
  2 10  1  0  0  0
  3  4  2  0  0  0
  3  6  1  0  0  0
  4  5  1  0  0  0
  4 21  1  0  0  0
 21 22  1  0  0  0
 22 23  2  0  0  0
 22 24  1  0  0  0
 24 25  2  0  0  0
 24 29  1  0  0  0
 25 26  1  0  0  0
 26 27  2  0  0  0
 27 28  1  0  0  0
 27 30  1  0  0  0
 28 29  2  0  0  0
 30 31  1  0  0  0
  6  7  1  0  0  0
  7  8  1  0  0  0
  8  9  1  0  0  0
  9 10  1  0  0  0
 12 13  1  0  0  0
M  END
> <minimizedAffinity>
-8.57124

$$$$
850


 29 32  0  0  0  0  0  0  0  0999 V2000
   22.8236   11.5127   30.0985 N   0  0  0  0  0  0  0  0  0  0  0  0
   22.7383   11.8615   31.4854 C   0  0  0  0  0  0  0  0  0  0  0  0
   24.0185   11.2040   31.9993 C   0  0  0  0  0  0  0  0  0  0  0  0
   24.0628    9.9399   31.2477 N   0  0  0  0  0  0  0  0  0  0  0  0
   24.8585    8.8522   31.6956 C   0  0  0  0  0  0  0  0  0  0  0  0
   24.7581    7.6095   30.8629 C   0  0  0  0  0  0  0  0  0  0  0  0
   23.3088    7.2723   30.6436 C   0  0  0  0  0  0  0  0  0  0  0  0
   22.9882    7.7885   29.2332 C   0  0  0  0  0  0  0  0  0  0  0  0
   22.7125    9.2368   29.3152 C   0  0  0  0  0  0  0  0  0  0  0  0
   23.1813   10.1416   30.1441 C   0  0  0  0  0  0  0  0  0  0  0  0
   22.5904   13.1755   31.7973 O   0  0  0  0  0  0  0  0  0  0  0  0
   21.8538   11.6719   29.6811 H   0  0  0  0  0  0  0  0  0  0  0  0
   22.7382   13.3726   32.7404 H   0  0  0  0  0  0  0  0  0  0  0  0
   26.5892   14.9276   26.6754 Br  0  0  0  0  0  0  0  0  0  0  0  0
   25.4043   13.8479   27.7264 C   0  0  0  0  0  0  0  0  0  0  0  0
   24.2839   14.3834   28.3211 C   0  0  0  0  0  0  0  0  0  0  0  0
   23.4434   13.5929   29.0911 C   0  0  0  0  0  0  0  0  0  0  0  0
   23.6842   12.2364   29.3006 C   0  0  0  0  0  0  0  0  0  0  0  0
   24.8045   11.7562   28.6897 C   0  0  0  0  0  0  0  0  0  0  0  0
   25.6656   12.5257   27.9119 C   0  0  0  0  0  0  0  0  0  0  0  0
   21.6299   11.1394   32.1738 C   0  0  0  0  0  0  0  0  0  0  0  0
   21.6116    9.8033   32.4415 C   0  0  0  0  0  0  0  0  0  0  0  0
   20.5323    9.1821   33.1044 C   0  0  0  0  0  0  0  0  0  0  0  0
   19.4419    9.9123   33.5114 C   0  0  0  0  0  0  0  0  0  0  0  0
   19.4489   11.2603   33.2462 C   0  0  0  0  0  0  0  0  0  0  0  0
   20.5034   11.8624   32.5985 C   0  0  0  0  0  0  0  0  0  0  0  0
   18.3638    9.3043   34.1761 O   0  0  0  0  0  0  0  0  0  0  0  0
   17.3402    8.6444   33.4699 C   0  0  0  0  0  0  0  0  0  0  0  0
   17.8330    7.4343   32.7409 C   0  0  0  0  0  0  0  0  0  0  0  0
 14 15  1  0  0  0
 15 16  2  0  0  0
 15 20  1  0  0  0
 16 17  1  0  0  0
 17 18  2  0  0  0
 18 19  1  0  0  0
 18  1  1  0  0  0
 19 20  2  0  0  0
  1  2  1  0  0  0
  1 10  1  0  0  0
  2  3  1  0  0  0
  2 11  1  0  0  0
  2 21  1  0  0  0
  3  4  1  0  0  0
  4  5  1  0  0  0
  4 10  1  0  0  0
  5  6  1  0  0  0
  6  7  1  0  0  0
  7  8  1  0  0  0
  8  9  1  0  0  0
  9 10  2  0  0  0
 21 22  2  0  0  0
 21 26  1  0  0  0
 22 23  1  0  0  0
 23 24  2  0  0  0
 24 25  1  0  0  0
 24 27  1  0  0  0
 25 26  2  0  0  0
 27 28  1  0  0  0
 28 29  1  0  0  0
  1 12  1  0  0  0
 11 13  1  0  0  0
M  CHG 1   1   1
M  END
> <minimizedAffinity>
-8.06946

$$$$
860


 29 32  0  0  0  0  0  0  0  0999 V2000
   23.0377    9.4826   32.0204 Br  0  0  0  0  0  0  0  0  0  0  0  0
   23.7087    8.0632   30.9233 C   0  0  0  0  0  0  0  0  0  0  0  0
   24.8669    8.2054   30.1846 C   0  0  0  0  0  0  0  0  0  0  0  0
   25.3453    7.1821   29.3974 C   0  0  0  0  0  0  0  0  0  0  0  0
   24.6122    6.0139   29.3820 C   0  0  0  0  0  0  0  0  0  0  0  0
   23.4539    5.8658   30.1180 C   0  0  0  0  0  0  0  0  0  0  0  0
   22.9787    6.8929   30.9050 C   0  0  0  0  0  0  0  0  0  0  0  0
   21.7265    6.7221   31.6962 C   0  0  0  0  0  0  0  0  0  0  0  0
   25.1163    4.9933   28.5780 O   0  0  0  0  0  0  0  0  0  0  0  0
   26.0814    5.1786   27.5976 C   0  0  0  0  0  0  0  0  0  0  0  0
   27.0867    6.2444   27.8760 C   0  0  0  0  0  0  0  0  0  0  0  0
   26.5818    7.4144   28.6440 C   0  0  0  0  0  0  0  0  0  0  0  0
   27.5487    7.8604   29.5776 O   0  0  0  0  0  0  0  0  0  0  0  0
   27.2269    7.8018   30.5007 H   0  0  0  0  0  0  0  0  0  0  0  0
   27.4945    6.7494   26.5606 N   0  0  0  0  0  0  0  0  0  0  0  0
   28.2243    5.7997   25.7933 C   0  0  0  0  0  0  0  0  0  0  0  0
   28.2380    6.3327   24.3522 C   0  0  0  0  0  0  0  0  0  0  0  0
   28.9506    7.5191   24.3843 O   0  0  0  0  0  0  0  0  0  0  0  0
   28.3759    8.4841   25.2032 C   0  0  0  0  0  0  0  0  0  0  0  0
   28.2396    7.9683   26.6433 C   0  0  0  0  0  0  0  0  0  0  0  0
   26.6021    6.9590   26.0586 H   0  0  0  0  0  0  0  0  0  0  0  0
   28.3413    5.7079   28.5343 C   0  0  0  0  0  0  0  0  0  0  0  0
   28.2037    4.3794   29.0469 N   0  0  0  0  0  0  0  0  0  0  0  0
   29.2795    3.5005   28.6259 C   0  0  0  0  0  0  0  0  0  0  0  0
   29.8011    2.6543   29.7774 C   0  0  0  0  0  0  0  0  0  0  0  0
   30.3655    3.4224   30.7823 O   0  0  0  0  0  0  0  0  0  0  0  0
   29.7008    4.6365   30.9259 C   0  0  0  0  0  0  0  0  0  0  0  0
   28.2613    4.3988   30.5180 C   0  0  0  0  0  0  0  0  0  0  0  0
   27.3187    3.9038   28.8144 H   0  0  0  0  0  0  0  0  0  0  0  0
  1  2  1  0  0  0
  2  3  2  0  0  0
  2  7  1  0  0  0
  3  4  1  0  0  0
  4  5  2  0  0  0
  4 12  1  0  0  0
  5  6  1  0  0  0
  5  9  1  0  0  0
  6  7  2  0  0  0
  7  8  1  0  0  0
  9 10  1  0  0  0
 10 11  1  0  0  0
 11 12  1  0  0  0
 11 15  1  0  0  0
 11 22  1  0  0  0
 12 13  1  0  0  0
 15 16  1  0  0  0
 15 20  1  0  0  0
 16 17  1  0  0  0
 17 18  1  0  0  0
 18 19  1  0  0  0
 19 20  1  0  0  0
 22 23  1  0  0  0
 23 24  1  0  0  0
 23 28  1  0  0  0
 24 25  1  0  0  0
 25 26  1  0  0  0
 26 27  1  0  0  0
 27 28  1  0  0  0
 13 14  1  0  0  0
 15 21  1  0  0  0
 23 29  1  0  0  0
M  CHG 1  15   1
M  CHG 1  23   1
M  END
> <minimizedAffinity>
-6.48817

$$$$
861


 32 35  0  0  0  0  0  0  0  0999 V2000
   25.9165    6.5609   29.1102 Br  0  0  0  0  0  0  0  0  0  0  0  0
   24.8206    5.5820   30.3406 C   0  0  0  0  0  0  0  0  0  0  0  0
   25.3514    4.5210   31.0348 C   0  0  0  0  0  0  0  0  0  0  0  0
   24.5829    3.7773   31.9458 C   0  0  0  0  0  0  0  0  0  0  0  0
   23.2715    4.1682   32.1052 C   0  0  0  0  0  0  0  0  0  0  0  0
   22.7143    5.2272   31.4213 C   0  0  0  0  0  0  0  0  0  0  0  0
   23.4876    5.9409   30.5346 C   0  0  0  0  0  0  0  0  0  0  0  0
   22.9799    7.0970   29.7515 C   0  0  0  0  0  0  0  0  0  0  0  0
   20.8942    5.7460   31.6632 Br  0  0  0  0  0  0  0  0  0  0  0  0
   25.1821    2.6650   32.6536 C   0  0  0  0  0  0  0  0  0  0  0  0
   24.5464    2.0713   33.5311 O   0  0  0  0  0  0  0  0  0  0  0  0
   26.5553    2.2479   32.3188 C   0  0  0  0  0  0  0  0  0  0  0  0
   27.3171    3.4941   31.9242 C   0  0  0  0  0  0  0  0  0  0  0  0
   26.6813    4.1569   30.8470 O   0  0  0  0  0  0  0  0  0  0  0  0
   27.2450    1.5045   33.4222 C   0  0  0  0  0  0  0  0  0  0  0  0
   28.5581    1.9246   33.7275 N   0  0  0  0  0  0  0  0  0  0  0  0
   28.6094    2.4402   35.0635 C   0  0  0  0  0  0  0  0  0  0  0  0
   28.4765    1.4242   36.1408 C   0  0  0  0  0  0  0  0  0  0  0  0
   28.5262    0.0044   35.7275 C   0  0  0  0  0  0  0  0  0  0  0  0
   29.1971   -0.2917   34.4433 C   0  0  0  0  0  0  0  0  0  0  0  0
   29.5752    0.9140   33.6342 C   0  0  0  0  0  0  0  0  0  0  0  0
   27.1298    1.6587   36.8349 C   0  0  0  0  0  0  0  0  0  0  0  0
   28.8450    2.7046   33.0835 H   0  0  0  0  0  0  0  0  0  0  0  0
   26.4354    1.3640   31.0944 C   0  0  0  0  0  0  0  0  0  0  0  0
   27.4403    1.5550   30.1050 N   0  0  0  0  0  0  0  0  0  0  0  0
   26.8540    1.4863   28.7678 C   0  0  0  0  0  0  0  0  0  0  0  0
   27.0852    0.1602   28.1043 C   0  0  0  0  0  0  0  0  0  0  0  0
   26.8879   -0.9509   29.1104 C   0  0  0  0  0  0  0  0  0  0  0  0
   27.9832   -0.8478   30.1259 C   0  0  0  0  0  0  0  0  0  0  0  0
   28.4994    0.5698   30.1360 C   0  0  0  0  0  0  0  0  0  0  0  0
   25.9824   -0.0119   27.0509 C   0  0  0  0  0  0  0  0  0  0  0  0
   27.8594    2.4849   30.1894 H   0  0  0  0  0  0  0  0  0  0  0  0
  1  2  1  0  0  0
  2  3  2  0  0  0
  2  7  1  0  0  0
  3  4  1  0  0  0
  3 14  1  0  0  0
  4  5  2  0  0  0
  4 10  1  0  0  0
  5  6  1  0  0  0
  6  7  2  0  0  0
  6  9  1  0  0  0
  7  8  1  0  0  0
 10 11  2  0  0  0
 10 12  1  0  0  0
 12 13  1  0  0  0
 12 15  1  0  0  0
 12 24  1  0  0  0
 13 14  1  0  0  0
 15 16  1  0  0  0
 16 17  1  0  0  0
 16 21  1  0  0  0
 17 18  1  0  0  0
 18 19  1  0  0  0
 18 22  1  0  0  0
 19 20  1  0  0  0
 20 21  1  0  0  0
 24 25  1  0  0  0
 25 26  1  0  0  0
 25 30  1  0  0  0
 26 27  1  0  0  0
 27 28  1  0  0  0
 27 31  1  0  0  0
 28 29  1  0  0  0
 29 30  1  0  0  0
 16 23  1  0  0  0
 25 32  1  0  0  0
M  CHG 1  16   1
M  CHG 1  25   1
M  END
> <minimizedAffinity>
-6.11909

$$$$
862


 30 33  0  0  0  0  0  0  0  0999 V2000
   27.6131    4.7329   27.1867 Br  0  0  0  0  0  0  0  0  0  0  0  0
   27.4305    6.3872   28.0769 C   0  0  0  0  0  0  0  0  0  0  0  0
   26.2098    6.6887   28.6293 C   0  0  0  0  0  0  0  0  0  0  0  0
   25.9537    7.8875   29.3163 C   0  0  0  0  0  0  0  0  0  0  0  0
   26.9908    8.8199   29.4428 C   0  0  0  0  0  0  0  0  0  0  0  0
   28.2090    8.5043   28.8838 C   0  0  0  0  0  0  0  0  0  0  0  0
   28.4397    7.3178   28.2116 C   0  0  0  0  0  0  0  0  0  0  0  0
   29.7810    7.0029   27.6111 C   0  0  0  0  0  0  0  0  0  0  0  0
   29.6201    9.7734   29.0584 Br  0  0  0  0  0  0  0  0  0  0  0  0
   24.6413    8.1548   29.8729 C   0  0  0  0  0  0  0  0  0  0  0  0
   24.2837    9.3588   29.9044 O   0  0  0  0  0  0  0  0  0  0  0  0
   23.8582    6.9970   30.3445 C   0  0  0  0  0  0  0  0  0  0  0  0
   23.8370    6.1278   29.0074 C   0  0  0  0  0  0  0  0  0  0  0  0
   25.1158    5.8452   28.5646 O   0  0  0  0  0  0  0  0  0  0  0  0
   22.4667    7.2298   30.6764 C   0  0  0  0  0  0  0  0  0  0  0  0
   21.7943    6.9474   31.8548 N   0  0  0  0  0  0  0  0  0  0  0  0
   20.7408    6.0130   31.9346 C   0  0  0  0  0  0  0  0  0  0  0  0
   19.7378    6.3126   33.0411 C   0  0  0  0  0  0  0  0  0  0  0  0
   18.9890    7.5816   32.7850 C   0  0  0  0  0  0  0  0  0  0  0  0
   19.9109    8.5405   32.0965 C   0  0  0  0  0  0  0  0  0  0  0  0
   21.3235    8.2150   32.4562 C   0  0  0  0  0  0  0  0  0  0  0  0
   22.4996    6.6413   32.6481 H   0  0  0  0  0  0  0  0  0  0  0  0
   24.6369    6.2340   31.3469 C   0  0  0  0  0  0  0  0  0  0  0  0
   24.6264    4.8314   31.3546 N   0  0  0  0  0  0  0  0  0  0  0  0
   26.0121    4.3623   31.4897 C   0  0  0  0  0  0  0  0  0  0  0  0
   26.1410    2.8785   31.2145 C   0  0  0  0  0  0  0  0  0  0  0  0
   25.3544    2.1814   32.3359 C   0  0  0  0  0  0  0  0  0  0  0  0
   23.9372    2.6763   32.1598 C   0  0  0  0  0  0  0  0  0  0  0  0
   23.9336    4.1855   32.4572 C   0  0  0  0  0  0  0  0  0  0  0  0
   24.2846    4.3332   30.5074 H   0  0  0  0  0  0  0  0  0  0  0  0
  1  2  1  0  0  0
  2  3  2  0  0  0
  2  7  1  0  0  0
  3  4  1  0  0  0
  3 14  1  0  0  0
  4  5  2  0  0  0
  4 10  1  0  0  0
  5  6  1  0  0  0
  6  7  2  0  0  0
  6  9  1  0  0  0
  7  8  1  0  0  0
 10 11  2  0  0  0
 10 12  1  0  0  0
 12 13  1  0  0  0
 12 15  1  0  0  0
 12 23  1  0  0  0
 13 14  1  0  0  0
 15 16  1  0  0  0
 16 17  1  0  0  0
 16 21  1  0  0  0
 17 18  1  0  0  0
 18 19  1  0  0  0
 19 20  1  0  0  0
 20 21  1  0  0  0
 23 24  1  0  0  0
 24 25  1  0  0  0
 24 29  1  0  0  0
 25 26  1  0  0  0
 26 27  1  0  0  0
 27 28  1  0  0  0
 28 29  1  0  0  0
 16 22  1  0  0  0
 24 30  1  0  0  0
M  CHG 1  16   1
M  CHG 1  24   1
M  END
> <minimizedAffinity>
-6.07032

$$$$
865


 30 33  0  0  0  0  0  0  0  0999 V2000
   23.1287   10.4182   31.7445 C   0  0  0  0  0  0  0  0  0  0  0  0
   22.2568    9.4791   32.1727 N   0  0  0  0  0  0  0  0  0  0  0  0
   20.9905    9.7738   32.5583 C   0  0  0  0  0  0  0  0  0  0  0  0
   20.6341   11.0584   32.4978 N   0  0  0  0  0  0  0  0  0  0  0  0
   21.4473   12.0452   32.0828 C   0  0  0  0  0  0  0  0  0  0  0  0
   22.6901   11.6886   31.7132 N   0  0  0  0  0  0  0  0  0  0  0  0
   20.9972   13.3928   32.0452 N   0  0  0  0  0  0  0  0  0  0  0  0
   21.9704   14.4526   31.8629 C   0  0  0  0  0  0  0  0  0  0  0  0
   21.2692   15.7919   31.8984 C   0  0  0  0  0  0  0  0  0  0  0  0
   20.1666   15.8735   31.0965 O   0  0  0  0  0  0  0  0  0  0  0  0
   19.3354   14.7860   31.0775 C   0  0  0  0  0  0  0  0  0  0  0  0
   19.6243   13.7798   32.1788 C   0  0  0  0  0  0  0  0  0  0  0  0
   20.1133    8.7444   33.0006 N   0  0  0  0  0  0  0  0  0  0  0  0
   20.4950    7.3584   33.1402 C   0  0  0  0  0  0  0  0  0  0  0  0
   19.4576    6.6064   32.3084 C   0  0  0  0  0  0  0  0  0  0  0  0
   18.2557    6.7134   32.9044 O   0  0  0  0  0  0  0  0  0  0  0  0
   17.8242    7.9008   33.3478 C   0  0  0  0  0  0  0  0  0  0  0  0
   18.7452    9.0557   33.3433 C   0  0  0  0  0  0  0  0  0  0  0  0
   24.4347   10.0396   31.3572 N   0  0  0  0  0  0  0  0  0  0  0  0
   25.1493   10.7706   31.2065 H   0  0  0  0  0  0  0  0  0  0  0  0
   24.3638    7.9969   30.1798 C   0  0  0  0  0  0  0  0  0  0  0  0
   24.7616    8.7028   31.1771 N   0  0  0  0  0  0  0  0  0  0  0  0
   25.8342    2.5710   29.7498 F   0  0  0  0  0  0  0  0  0  0  0  0
   25.4849    3.8841   29.8387 C   0  0  0  0  0  0  0  0  0  0  0  0
   25.7668    4.7811   28.8292 C   0  0  0  0  0  0  0  0  0  0  0  0
   25.4045    6.1073   28.9404 C   0  0  0  0  0  0  0  0  0  0  0  0
   24.7487    6.5970   30.0576 C   0  0  0  0  0  0  0  0  0  0  0  0
   24.4710    5.6932   31.0613 C   0  0  0  0  0  0  0  0  0  0  0  0
   24.8342    4.3578   30.9541 C   0  0  0  0  0  0  0  0  0  0  0  0
   26.6706    4.1330   27.2764 Br  0  0  0  0  0  0  0  0  0  0  0  0
 23 24  1  0  0  0
 24 25  2  0  0  0
 24 29  1  0  0  0
 25 26  1  0  0  0
 25 30  1  0  0  0
 26 27  2  0  0  0
 27 28  1  0  0  0
 27 21  1  0  0  0
 28 29  2  0  0  0
 21 22  2  0  0  0
 22 19  1  0  0  0
 19  1  1  0  0  0
  1  2  2  0  0  0
  1  6  1  0  0  0
  2  3  1  0  0  0
  3  4  2  0  0  0
  3 13  1  0  0  0
  4  5  1  0  0  0
  5  6  2  0  0  0
  5  7  1  0  0  0
  7  8  1  0  0  0
  7 12  1  0  0  0
  8  9  1  0  0  0
  9 10  1  0  0  0
 10 11  1  0  0  0
 11 12  1  0  0  0
 13 14  1  0  0  0
 13 18  1  0  0  0
 14 15  1  0  0  0
 15 16  1  0  0  0
 16 17  1  0  0  0
 17 18  1  0  0  0
 19 20  1  0  0  0
M  END
> <minimizedAffinity>
-8.86195

$$$$
872


 32 35  0  0  0  0  0  0  0  0999 V2000
   24.0267   11.9612   29.1971 N   0  0  0  0  0  0  0  0  0  0  0  0
   22.8894   12.4918   29.6090 N   0  0  0  0  0  0  0  0  0  0  0  0
   22.8998   13.7440   29.1864 N   0  0  0  0  0  0  0  0  0  0  0  0
   24.0335   14.0189   28.5093 C   0  0  0  0  0  0  0  0  0  0  0  0
   24.7417   12.8777   28.5228 C   0  0  0  0  0  0  0  0  0  0  0  0
   25.8921   13.1748   27.8302 C   0  0  0  0  0  0  0  0  0  0  0  0
   26.8300   12.3604   27.6177 O   0  0  0  0  0  0  0  0  0  0  0  0
   25.9027   14.4529   27.4006 N   0  0  0  0  0  0  0  0  0  0  0  0
   24.7442   14.9866   27.8212 C   0  0  0  0  0  0  0  0  0  0  0  0
   24.3749   16.1727   27.6171 O   0  0  0  0  0  0  0  0  0  0  0  0
   22.1168   12.0228   30.1639 H   0  0  0  0  0  0  0  0  0  0  0  0
   22.1063   14.4113   29.3750 H   0  0  0  0  0  0  0  0  0  0  0  0
   26.9586   15.0759   26.6485 C   0  0  0  0  0  0  0  0  0  0  0  0
   26.8284   15.2848   25.2894 C   0  0  0  0  0  0  0  0  0  0  0  0
   27.8144   15.8778   24.5284 C   0  0  0  0  0  0  0  0  0  0  0  0
   28.9670   16.2666   25.1829 C   0  0  0  0  0  0  0  0  0  0  0  0
   29.1534   16.0829   26.5431 C   0  0  0  0  0  0  0  0  0  0  0  0
   28.1278   15.4830   27.2455 C   0  0  0  0  0  0  0  0  0  0  0  0
   30.3262   17.0902   24.1031 Br  0  0  0  0  0  0  0  0  0  0  0  0
   24.4019   10.5879   29.4538 C   0  0  0  0  0  0  0  0  0  0  0  0
   23.1588    9.2595   31.1826 N   0  0  0  0  0  0  0  0  0  0  0  0
   23.1778    9.8183   29.9076 C   0  0  0  0  0  0  0  0  0  0  0  0
   22.2482    9.7296   29.0992 O   0  0  0  0  0  0  0  0  0  0  0  0
   24.0425    9.4208   31.7770 H   0  0  0  0  0  0  0  0  0  0  0  0
   21.3671   10.5215   32.7647 F   0  0  0  0  0  0  0  0  0  0  0  0
   21.1710    9.1915   32.5479 C   0  0  0  0  0  0  0  0  0  0  0  0
   22.0946    8.5239   31.7268 C   0  0  0  0  0  0  0  0  0  0  0  0
   21.9024    7.1956   31.5068 C   0  0  0  0  0  0  0  0  0  0  0  0
   20.8262    6.4719   32.0635 C   0  0  0  0  0  0  0  0  0  0  0  0
   19.9435    7.1622   32.8619 C   0  0  0  0  0  0  0  0  0  0  0  0
   20.1170    8.5097   33.0991 C   0  0  0  0  0  0  0  0  0  0  0  0
   18.8905    6.5261   33.4253 F   0  0  0  0  0  0  0  0  0  0  0  0
 25 26  1  0  0  0
 26 27  2  0  0  0
 26 31  1  0  0  0
 27 28  1  0  0  0
 27 21  1  0  0  0
 28 29  2  0  0  0
 29 30  1  0  0  0
 30 31  2  0  0  0
 30 32  1  0  0  0
 21 22  1  0  0  0
 22 23  2  0  0  0
 22 20  1  0  0  0
 20  1  1  0  0  0
  1  2  1  0  0  0
  1  5  1  0  0  0
  2  3  1  0  0  0
  3  4  1  0  0  0
  4  5  2  0  0  0
  4  9  1  0  0  0
  5  6  1  0  0  0
  6  7  2  0  0  0
  6  8  1  0  0  0
  8  9  1  0  0  0
  8 13  1  0  0  0
  9 10  2  0  0  0
 13 14  2  0  0  0
 13 18  1  0  0  0
 14 15  1  0  0  0
 15 16  2  0  0  0
 16 17  1  0  0  0
 16 19  1  0  0  0
 17 18  2  0  0  0
 21 24  1  0  0  0
  2 11  1  0  0  0
  3 12  1  0  0  0
M  END
> <minimizedAffinity>
-8.97054

$$$$
873


 32 35  0  0  0  0  0  0  0  0999 V2000
   22.6625   11.2234   32.2493 C   0  0  0  0  0  0  0  0  0  0  0  0
   22.6483   12.3302   31.3058 N   0  0  0  0  0  0  0  0  0  0  0  0
   22.1621   11.6827   30.1111 C   0  0  0  0  0  0  0  0  0  0  0  0
   21.4678   12.1699   29.1803 O   0  0  0  0  0  0  0  0  0  0  0  0
   22.6173   10.2636   30.1204 C   0  0  0  0  0  0  0  0  0  0  0  0
   22.4545    9.3363   29.3292 O   0  0  0  0  0  0  0  0  0  0  0  0
   23.3803   10.1951   31.4012 C   0  0  0  0  0  0  0  0  0  0  0  0
   24.3998    9.4172   31.6714 C   0  0  0  0  0  0  0  0  0  0  0  0
   24.9939    9.4810   32.9481 O   0  0  0  0  0  0  0  0  0  0  0  0
   20.4400   12.7794   33.2307 F   0  0  0  0  0  0  0  0  0  0  0  0
   20.3059   11.4722   33.0680 C   0  0  0  0  0  0  0  0  0  0  0  0
   21.3343   10.6871   32.5884 C   0  0  0  0  0  0  0  0  0  0  0  0
   21.0436    9.3502   32.4754 C   0  0  0  0  0  0  0  0  0  0  0  0
   19.8228    8.7814   32.8036 C   0  0  0  0  0  0  0  0  0  0  0  0
   18.8296    9.5911   33.2749 C   0  0  0  0  0  0  0  0  0  0  0  0
   19.0673   10.9200   33.4069 C   0  0  0  0  0  0  0  0  0  0  0  0
   24.9413    8.4891   30.6898 C   0  0  0  0  0  0  0  0  0  0  0  0
   24.4587    7.1992   30.6524 C   0  0  0  0  0  0  0  0  0  0  0  0
   24.9482    6.2571   29.7630 C   0  0  0  0  0  0  0  0  0  0  0  0
   25.9480    6.6031   28.8799 C   0  0  0  0  0  0  0  0  0  0  0  0
   26.4401    7.8721   28.8996 C   0  0  0  0  0  0  0  0  0  0  0  0
   25.9356    8.8196   29.8074 C   0  0  0  0  0  0  0  0  0  0  0  0
   26.6488    5.3126   27.6301 Br  0  0  0  0  0  0  0  0  0  0  0  0
   22.9798   13.6881   31.3779 C   0  0  0  0  0  0  0  0  0  0  0  0
   21.9633   14.7309   31.0793 C   0  0  0  0  0  0  0  0  0  0  0  0
   22.2180   15.4764   29.8792 N   0  0  0  0  0  0  0  0  0  0  0  0
   23.5156   15.0976   29.3590 C   0  0  0  0  0  0  0  0  0  0  0  0
   23.7777   15.7731   28.0250 C   0  0  0  0  0  0  0  0  0  0  0  0
   23.7292   17.1434   28.1962 O   0  0  0  0  0  0  0  0  0  0  0  0
   22.5041   17.5262   28.7344 C   0  0  0  0  0  0  0  0  0  0  0  0
   22.3359   16.9260   30.1373 C   0  0  0  0  0  0  0  0  0  0  0  0
   21.4547   15.4241   29.1738 H   0  0  0  0  0  0  0  0  0  0  0  0
 10 11  1  0  0  0
 11 12  2  0  0  0
 11 16  1  0  0  0
 12 13  1  0  0  0
 12  1  1  0  0  0
 13 14  2  0  0  0
 14 15  1  0  0  0
 15 16  2  0  0  0
  1  2  1  0  0  0
  1  7  1  0  0  0
  2  3  1  0  0  0
  2 24  1  0  0  0
  3  4  2  0  0  0
  3  5  1  0  0  0
  5  6  2  0  0  0
  5  7  1  0  0  0
  7  8  2  0  0  0
  8  9  1  0  0  0
  8 17  1  0  0  0
 17 18  2  0  0  0
 17 22  1  0  0  0
 18 19  1  0  0  0
 19 20  2  0  0  0
 20 21  1  0  0  0
 20 23  1  0  0  0
 21 22  2  0  0  0
 24 25  1  0  0  0
 25 26  1  0  0  0
 26 27  1  0  0  0
 26 31  1  0  0  0
 27 28  1  0  0  0
 28 29  1  0  0  0
 29 30  1  0  0  0
 30 31  1  0  0  0
 26 32  1  0  0  0
M  CHG 1   9  -1
M  CHG 1  26   1
M  END
> <minimizedAffinity>
-8.56676

$$$$
874


 31 34  0  0  0  0  0  0  0  0999 V2000
   24.1754   11.9812   29.1725 N   0  0  0  0  0  0  0  0  0  0  0  0
   23.0470   12.5392   29.5537 N   0  0  0  0  0  0  0  0  0  0  0  0
   22.9839   13.7906   29.1231 N   0  0  0  0  0  0  0  0  0  0  0  0
   24.1168   14.0548   28.4360 C   0  0  0  0  0  0  0  0  0  0  0  0
   24.8299   12.9479   28.4744 C   0  0  0  0  0  0  0  0  0  0  0  0
   25.9932   13.2166   27.7706 C   0  0  0  0  0  0  0  0  0  0  0  0
   26.9155   12.3915   27.5954 O   0  0  0  0  0  0  0  0  0  0  0  0
   25.9923   14.4781   27.3037 N   0  0  0  0  0  0  0  0  0  0  0  0
   24.8237   15.0013   27.7178 C   0  0  0  0  0  0  0  0  0  0  0  0
   24.4247   16.1651   27.4946 O   0  0  0  0  0  0  0  0  0  0  0  0
   22.3164   12.0349   30.1195 H   0  0  0  0  0  0  0  0  0  0  0  0
   22.1940   14.4617   29.2853 H   0  0  0  0  0  0  0  0  0  0  0  0
   27.0201   15.1052   26.5366 C   0  0  0  0  0  0  0  0  0  0  0  0
   28.1527   15.6154   27.1404 C   0  0  0  0  0  0  0  0  0  0  0  0
   29.1566   16.2242   26.4135 C   0  0  0  0  0  0  0  0  0  0  0  0
   29.0662   16.3493   25.0428 C   0  0  0  0  0  0  0  0  0  0  0  0
   27.9434   15.8474   24.4187 C   0  0  0  0  0  0  0  0  0  0  0  0
   26.9512   15.2421   25.1638 C   0  0  0  0  0  0  0  0  0  0  0  0
   30.4407   17.1877   24.0105 Br  0  0  0  0  0  0  0  0  0  0  0  0
   24.6534   10.6342   29.4231 C   0  0  0  0  0  0  0  0  0  0  0  0
   23.4078    9.1357   31.0095 N   0  0  0  0  0  0  0  0  0  0  0  0
   23.5028    9.7513   29.7653 C   0  0  0  0  0  0  0  0  0  0  0  0
   22.6451    9.6025   28.8798 O   0  0  0  0  0  0  0  0  0  0  0  0
   24.2117    9.3424   31.6900 H   0  0  0  0  0  0  0  0  0  0  0  0
   21.3984   10.1253   32.6013 F   0  0  0  0  0  0  0  0  0  0  0  0
   21.3613    8.7958   32.2968 C   0  0  0  0  0  0  0  0  0  0  0  0
   22.3795    8.2726   31.4841 C   0  0  0  0  0  0  0  0  0  0  0  0
   22.2988    6.9321   31.2060 C   0  0  0  0  0  0  0  0  0  0  0  0
   21.2636    6.1618   31.7101 C   0  0  0  0  0  0  0  0  0  0  0  0
   20.2762    6.6749   32.4990 C   0  0  0  0  0  0  0  0  0  0  0  0
   20.3431    8.0183   32.7867 C   0  0  0  0  0  0  0  0  0  0  0  0
 25 26  1  0  0  0
 26 27  2  0  0  0
 26 31  1  0  0  0
 27 28  1  0  0  0
 27 21  1  0  0  0
 28 29  2  0  0  0
 29 30  1  0  0  0
 30 31  2  0  0  0
 21 22  1  0  0  0
 22 23  2  0  0  0
 22 20  1  0  0  0
 20  1  1  0  0  0
  1  2  1  0  0  0
  1  5  1  0  0  0
  2  3  1  0  0  0
  3  4  1  0  0  0
  4  5  2  0  0  0
  4  9  1  0  0  0
  5  6  1  0  0  0
  6  7  2  0  0  0
  6  8  1  0  0  0
  8  9  1  0  0  0
  8 13  1  0  0  0
  9 10  2  0  0  0
 13 14  2  0  0  0
 13 18  1  0  0  0
 14 15  1  0  0  0
 15 16  2  0  0  0
 16 17  1  0  0  0
 16 19  1  0  0  0
 17 18  2  0  0  0
 21 24  1  0  0  0
  2 11  1  0  0  0
  3 12  1  0  0  0
M  END
> <minimizedAffinity>
-8.68773

$$$$
886


 31 34  0  0  0  0  0  0  0  0999 V2000
   22.0371    7.9523   31.6774 N   0  0  0  0  0  0  0  0  0  0  0  0
   22.6549    6.8605   31.1956 C   0  0  0  0  0  0  0  0  0  0  0  0
   22.0879    5.7342   31.1840 O   0  0  0  0  0  0  0  0  0  0  0  0
   23.9300    7.1396   30.7411 C   0  0  0  0  0  0  0  0  0  0  0  0
   24.0899    8.4427   30.9553 C   0  0  0  0  0  0  0  0  0  0  0  0
   25.3173    8.7573   30.5314 N   0  0  0  0  0  0  0  0  0  0  0  0
   25.8927    7.6632   30.0686 N   0  0  0  0  0  0  0  0  0  0  0  0
   25.0583    6.6347   30.1832 N   0  0  0  0  0  0  0  0  0  0  0  0
   22.9428    8.9517   31.5258 C   0  0  0  0  0  0  0  0  0  0  0  0
   22.6901   10.1384   31.8802 O   0  0  0  0  0  0  0  0  0  0  0  0
   25.7216    9.7331   30.5767 H   0  0  0  0  0  0  0  0  0  0  0  0
   26.8414    7.5945   29.6744 H   0  0  0  0  0  0  0  0  0  0  0  0
   16.9377    8.5460   33.9201 F   0  0  0  0  0  0  0  0  0  0  0  0
   18.1809    8.3961   33.3736 C   0  0  0  0  0  0  0  0  0  0  0  0
   18.4723    7.2791   32.6431 C   0  0  0  0  0  0  0  0  0  0  0  0
   19.7399    7.1169   32.0788 C   0  0  0  0  0  0  0  0  0  0  0  0
   20.7291    8.0613   32.2357 C   0  0  0  0  0  0  0  0  0  0  0  0
   20.4010    9.1824   32.9824 C   0  0  0  0  0  0  0  0  0  0  0  0
   19.1552    9.3527   33.5429 C   0  0  0  0  0  0  0  0  0  0  0  0
   25.2514    5.2633   29.8101 C   0  0  0  0  0  0  0  0  0  0  0  0
   25.5216    4.3376   30.9153 C   0  0  0  0  0  0  0  0  0  0  0  0
   26.6640    4.3417   31.3985 O   0  0  0  0  0  0  0  0  0  0  0  0
   24.5196    3.4902   31.3970 N   0  0  0  0  0  0  0  0  0  0  0  0
   23.5441    3.5430   30.9275 H   0  0  0  0  0  0  0  0  0  0  0  0
   24.5804    2.5379   32.4410 C   0  0  0  0  0  0  0  0  0  0  0  0
   25.4291    1.4578   32.3951 C   0  0  0  0  0  0  0  0  0  0  0  0
   25.5162    0.4960   33.4062 C   0  0  0  0  0  0  0  0  0  0  0  0
   24.6941    0.6719   34.4903 C   0  0  0  0  0  0  0  0  0  0  0  0
   23.8374    1.7420   34.5614 C   0  0  0  0  0  0  0  0  0  0  0  0
   23.7711    2.6711   33.5559 C   0  0  0  0  0  0  0  0  0  0  0  0
   24.7623   -0.6158   35.9236 Br  0  0  0  0  0  0  0  0  0  0  0  0
 13 14  1  0  0  0
 14 15  2  0  0  0
 14 19  1  0  0  0
 15 16  1  0  0  0
 16 17  2  0  0  0
 17 18  1  0  0  0
 17  1  1  0  0  0
 18 19  2  0  0  0
  1  2  1  0  0  0
  1  9  1  0  0  0
  2  3  2  0  0  0
  2  4  1  0  0  0
  4  5  2  0  0  0
  4  8  1  0  0  0
  5  6  1  0  0  0
  5  9  1  0  0  0
  6  7  1  0  0  0
  7  8  1  0  0  0
  8 20  1  0  0  0
 20 21  1  0  0  0
 21 22  2  0  0  0
 21 23  1  0  0  0
 23 25  1  0  0  0
 25 26  2  0  0  0
 25 30  1  0  0  0
 26 27  1  0  0  0
 27 28  2  0  0  0
 28 29  1  0  0  0
 28 31  1  0  0  0
 29 30  2  0  0  0
  9 10  2  0  0  0
  6 11  1  0  0  0
  7 12  1  0  0  0
 23 24  1  0  0  0
M  END
> <minimizedAffinity>
-9.22816

$$$$
892


 27 30  0  0  0  0  0  0  0  0999 V2000
   25.7130    4.5637   28.6397 C   0  0  0  0  0  0  0  0  0  0  0  0
   25.5725    3.3182   29.3598 N   0  0  0  0  0  0  0  0  0  0  0  0
   26.2941    3.1231   30.5805 C   0  0  0  0  0  0  0  0  0  0  0  0
   26.0270    2.1172   31.9733 S   0  0  0  0  0  0  0  0  0  0  0  0
   27.3879    2.5516   32.8946 C   0  0  0  0  0  0  0  0  0  0  0  0
   28.0081    3.4582   32.1069 C   0  0  0  0  0  0  0  0  0  0  0  0
   27.4545    3.7567   30.9198 C   0  0  0  0  0  0  0  0  0  0  0  0
   27.8920    4.6956   29.8477 C   0  0  0  0  0  0  0  0  0  0  0  0
   28.9408    5.3720   29.9668 O   0  0  0  0  0  0  0  0  0  0  0  0
   27.1376    4.8496   28.6637 N   0  0  0  0  0  0  0  0  0  0  0  0
   29.2923    4.0305   32.6951 C   0  0  0  0  0  0  0  0  0  0  0  0
   29.8118    3.0662   33.7110 C   0  0  0  0  0  0  0  0  0  0  0  0
   28.7805    3.0020   34.7587 N   0  0  0  0  0  0  0  0  0  0  0  0
   27.8083    2.0685   34.2301 C   0  0  0  0  0  0  0  0  0  0  0  0
   29.3373    2.5675   36.0177 C   0  0  0  0  0  0  0  0  0  0  0  0
   24.9641    2.5348   29.0340 H   0  0  0  0  0  0  0  0  0  0  0  0
   27.5924    5.1754   27.7729 H   0  0  0  0  0  0  0  0  0  0  0  0
   28.3150    3.9315   34.8272 H   0  0  0  0  0  0  0  0  0  0  0  0
   25.1026    9.8743   30.1871 I   0  0  0  0  0  0  0  0  0  0  0  0
   24.5562    7.8431   30.1926 C   0  0  0  0  0  0  0  0  0  0  0  0
   25.2860    6.9231   29.4384 C   0  0  0  0  0  0  0  0  0  0  0  0
   24.9635    5.5873   29.4142 C   0  0  0  0  0  0  0  0  0  0  0  0
   23.8594    5.2082   30.1911 C   0  0  0  0  0  0  0  0  0  0  0  0
   23.1478    6.1187   30.9280 C   0  0  0  0  0  0  0  0  0  0  0  0
   23.4880    7.4511   30.9384 C   0  0  0  0  0  0  0  0  0  0  0  0
   21.6537    5.5655   31.9703 Br  0  0  0  0  0  0  0  0  0  0  0  0
   26.3575    7.3730   28.6992 O   0  0  0  0  0  0  0  0  0  0  0  0
 19 20  1  0  0  0
 20 21  2  0  0  0
 20 25  1  0  0  0
 21 22  1  0  0  0
 21 27  1  0  0  0
 22 23  2  0  0  0
 22  1  1  0  0  0
 23 24  1  0  0  0
 24 25  2  0  0  0
 24 26  1  0  0  0
  1  2  1  0  0  0
  1 10  1  0  0  0
  2  3  1  0  0  0
  3  4  1  0  0  0
  3  7  2  0  0  0
  4  5  1  0  0  0
  5  6  2  0  0  0
  5 14  1  0  0  0
  6  7  1  0  0  0
  6 11  1  0  0  0
  7  8  1  0  0  0
  8  9  2  0  0  0
  8 10  1  0  0  0
 11 12  1  0  0  0
 12 13  1  0  0  0
 13 14  1  0  0  0
 13 15  1  0  0  0
  2 16  1  0  0  0
 10 17  1  0  0  0
 13 18  1  0  0  0
M  CHG 1  13   1
M  CHG 1  27  -1
M  END
> <minimizedAffinity>
-6.44410

$$$$
895


 28 31  0  0  0  0  0  0  0  0999 V2000
   21.9015    5.5869   30.9230 C   0  0  0  0  0  0  0  0  0  0  0  0
   22.4423    4.7562   31.9991 N   0  0  0  0  0  0  0  0  0  0  0  0
   23.6632    3.9974   31.8135 C   0  0  0  0  0  0  0  0  0  0  0  0
   24.3932    2.7235   32.7072 S   0  0  0  0  0  0  0  0  0  0  0  0
   25.7705    2.4794   31.7486 C   0  0  0  0  0  0  0  0  0  0  0  0
   25.6303    3.4023   30.7471 C   0  0  0  0  0  0  0  0  0  0  0  0
   24.5325    4.1881   30.7879 C   0  0  0  0  0  0  0  0  0  0  0  0
   24.1509    5.2600   29.8238 C   0  0  0  0  0  0  0  0  0  0  0  0
   24.8754    5.5390   28.8211 O   0  0  0  0  0  0  0  0  0  0  0  0
   22.9583    5.9801   30.0320 N   0  0  0  0  0  0  0  0  0  0  0  0
   26.7895    3.3458   29.7583 C   0  0  0  0  0  0  0  0  0  0  0  0
   28.0906    3.3829   30.5155 C   0  0  0  0  0  0  0  0  0  0  0  0
   28.1239    2.5316   31.6573 N   0  0  0  0  0  0  0  0  0  0  0  0
   26.9985    1.6041   31.6990 C   0  0  0  0  0  0  0  0  0  0  0  0
   27.9648    3.3890   32.8423 C   0  0  0  0  0  0  0  0  0  0  0  0
   21.9748    4.6839   32.9212 H   0  0  0  0  0  0  0  0  0  0  0  0
   22.8112    6.8785   29.5020 H   0  0  0  0  0  0  0  0  0  0  0  0
   29.0251    1.9960   31.7623 H   0  0  0  0  0  0  0  0  0  0  0  0
   17.7870    8.3016   33.4880 I   0  0  0  0  0  0  0  0  0  0  0  0
   19.7330    8.1264   32.6935 C   0  0  0  0  0  0  0  0  0  0  0  0
   20.6023    9.1955   32.7724 C   0  0  0  0  0  0  0  0  0  0  0  0
   21.8913    9.0944   32.2513 C   0  0  0  0  0  0  0  0  0  0  0  0
   22.2466    7.9135   31.6725 C   0  0  0  0  0  0  0  0  0  0  0  0
   21.3925    6.8220   31.5800 C   0  0  0  0  0  0  0  0  0  0  0  0
   20.1320    6.9407   32.0969 C   0  0  0  0  0  0  0  0  0  0  0  0
   20.2043   10.3779   33.3675 O   0  0  0  0  0  0  0  0  0  0  0  0
   22.7216   10.2019   32.3588 O   0  0  0  0  0  0  0  0  0  0  0  0
   24.0969   10.0464   32.0628 C   0  0  0  0  0  0  0  0  0  0  0  0
 19 20  1  0  0  0
 20 21  2  0  0  0
 20 25  1  0  0  0
 21 22  1  0  0  0
 21 26  1  0  0  0
 22 23  2  0  0  0
 22 27  1  0  0  0
 23 24  1  0  0  0
 24 25  2  0  0  0
 24  1  1  0  0  0
  1  2  1  0  0  0
  1 10  1  0  0  0
  2  3  1  0  0  0
  3  4  1  0  0  0
  3  7  2  0  0  0
  4  5  1  0  0  0
  5  6  2  0  0  0
  5 14  1  0  0  0
  6  7  1  0  0  0
  6 11  1  0  0  0
  7  8  1  0  0  0
  8  9  2  0  0  0
  8 10  1  0  0  0
 11 12  1  0  0  0
 12 13  1  0  0  0
 13 14  1  0  0  0
 13 15  1  0  0  0
 27 28  1  0  0  0
  2 16  1  0  0  0
 10 17  1  0  0  0
 13 18  1  0  0  0
M  CHG 1  13   1
M  CHG 1  26  -1
M  END
> <minimizedAffinity>
-8.19110

$$$$
906


 27 30  0  0  0  0  0  0  0  0999 V2000
   20.7480   12.3260   32.3106 C   0  0  0  0  0  0  0  0  0  0  0  0
   19.5315   12.8560   32.3586 N   0  0  0  0  0  0  0  0  0  0  0  0
   19.1755   14.0513   31.8591 C   0  0  0  0  0  0  0  0  0  0  0  0
   18.0752   14.8082   31.7680 N   0  0  0  0  0  0  0  0  0  0  0  0
   18.3403   15.9230   31.1504 O   0  0  0  0  0  0  0  0  0  0  0  0
   19.5992   15.9468   30.8168 N   0  0  0  0  0  0  0  0  0  0  0  0
   20.1720   14.8066   31.2314 C   0  0  0  0  0  0  0  0  0  0  0  0
   21.4010   14.3293   31.1552 N   0  0  0  0  0  0  0  0  0  0  0  0
   21.7063   13.1346   31.6680 C   0  0  0  0  0  0  0  0  0  0  0  0
   22.9944   12.9427   31.4336 N   0  0  0  0  0  0  0  0  0  0  0  0
   23.4920   14.0066   30.7795 N   0  0  0  0  0  0  0  0  0  0  0  0
   22.5061   14.8962   30.5928 C   0  0  0  0  0  0  0  0  0  0  0  0
   21.1334   11.0740   32.8317 N   0  0  0  0  0  0  0  0  0  0  0  0
   22.0957   11.0153   33.3201 H   0  0  0  0  0  0  0  0  0  0  0  0
   22.9616    8.8960   31.3925 I   0  0  0  0  0  0  0  0  0  0  0  0
   21.0182    8.7313   32.2021 C   0  0  0  0  0  0  0  0  0  0  0  0
   20.4171    9.8604   32.8016 C   0  0  0  0  0  0  0  0  0  0  0  0
   19.1624    9.7729   33.3337 C   0  0  0  0  0  0  0  0  0  0  0  0
   18.5096    8.5398   33.2581 C   0  0  0  0  0  0  0  0  0  0  0  0
   19.0665    7.4309   32.6854 C   0  0  0  0  0  0  0  0  0  0  0  0
   20.3475    7.5346   32.1481 C   0  0  0  0  0  0  0  0  0  0  0  0
   22.5457   16.2222   29.9205 C   0  0  0  0  0  0  0  0  0  0  0  0
   23.3171   16.2121   28.6547 C   0  0  0  0  0  0  0  0  0  0  0  0
   23.6401   15.1622   28.0609 O   0  0  0  0  0  0  0  0  0  0  0  0
   23.6980   17.4068   28.1095 O   0  0  0  0  0  0  0  0  0  0  0  0
   23.3456   17.8610   26.8519 C   0  0  0  0  0  0  0  0  0  0  0  0
   22.6888   19.1869   26.7911 C   0  0  0  0  0  0  0  0  0  0  0  0
 15 16  1  0  0  0
 16 17  2  0  0  0
 16 21  1  0  0  0
 17 18  1  0  0  0
 17 13  1  0  0  0
 18 19  2  0  0  0
 19 20  1  0  0  0
 20 21  2  0  0  0
 13  1  1  0  0  0
  1  2  2  0  0  0
  1  9  1  0  0  0
  2  3  1  0  0  0
  3  4  2  0  0  0
  3  7  1  0  0  0
  4  5  1  0  0  0
  5  6  1  0  0  0
  6  7  2  0  0  0
  7  8  1  0  0  0
  8  9  1  0  0  0
  8 12  1  0  0  0
  9 10  2  0  0  0
 10 11  1  0  0  0
 11 12  2  0  0  0
 12 22  1  0  0  0
 22 23  1  0  0  0
 23 24  2  0  0  0
 23 25  1  0  0  0
 25 26  1  0  0  0
 26 27  1  0  0  0
 13 14  1  0  0  0
M  END
> <minimizedAffinity>
-8.70648

$$$$
908


 25 28  0  0  0  0  0  0  0  0999 V2000
   22.5282   12.7520   31.7986 N   0  0  0  0  0  0  0  0  0  0  0  0
   21.5527   11.8606   32.0484 C   0  0  0  0  0  0  0  0  0  0  0  0
   20.3256   12.1427   32.1964 O   0  0  0  0  0  0  0  0  0  0  0  0
   22.0511   10.5763   32.1268 C   0  0  0  0  0  0  0  0  0  0  0  0
   23.3532   10.6889   31.9203 C   0  0  0  0  0  0  0  0  0  0  0  0
   23.8276    9.4232   31.9988 N   0  0  0  0  0  0  0  0  0  0  0  0
   22.8464    8.5744   32.2442 N   0  0  0  0  0  0  0  0  0  0  0  0
   21.7391    9.2657   32.3273 N   0  0  0  0  0  0  0  0  0  0  0  0
   23.6576   12.0254   31.7165 C   0  0  0  0  0  0  0  0  0  0  0  0
   24.8297   12.4706   31.4904 O   0  0  0  0  0  0  0  0  0  0  0  0
   24.8223    9.1354   31.8852 H   0  0  0  0  0  0  0  0  0  0  0  0
   22.9350    7.5437   32.3536 H   0  0  0  0  0  0  0  0  0  0  0  0
   23.2899   13.5514   28.8280 I   0  0  0  0  0  0  0  0  0  0  0  0
   22.7060   14.7871   30.4442 C   0  0  0  0  0  0  0  0  0  0  0  0
   22.4277   14.1686   31.6459 C   0  0  0  0  0  0  0  0  0  0  0  0
   22.0482   14.9910   32.6869 C   0  0  0  0  0  0  0  0  0  0  0  0
   21.9557   16.3628   32.5255 C   0  0  0  0  0  0  0  0  0  0  0  0
   22.2359   16.9698   31.3196 C   0  0  0  0  0  0  0  0  0  0  0  0
   22.6159   16.1541   30.2741 C   0  0  0  0  0  0  0  0  0  0  0  0
   20.4219    8.7943   32.5778 C   0  0  0  0  0  0  0  0  0  0  0  0
   19.5272    9.4987   33.3526 C   0  0  0  0  0  0  0  0  0  0  0  0
   18.2498    9.0119   33.5777 C   0  0  0  0  0  0  0  0  0  0  0  0
   17.8213    7.8145   33.0430 C   0  0  0  0  0  0  0  0  0  0  0  0
   18.7156    7.1084   32.2669 C   0  0  0  0  0  0  0  0  0  0  0  0
   19.9842    7.5829   32.0386 C   0  0  0  0  0  0  0  0  0  0  0  0
 13 14  1  0  0  0
 14 15  2  0  0  0
 14 19  1  0  0  0
 15 16  1  0  0  0
 15  1  1  0  0  0
 16 17  2  0  0  0
 17 18  1  0  0  0
 18 19  2  0  0  0
  1  2  1  0  0  0
  1  9  1  0  0  0
  2  3  2  0  0  0
  2  4  1  0  0  0
  4  5  2  0  0  0
  4  8  1  0  0  0
  5  6  1  0  0  0
  5  9  1  0  0  0
  6  7  1  0  0  0
  7  8  1  0  0  0
  8 20  1  0  0  0
 20 21  2  0  0  0
 20 25  1  0  0  0
 21 22  1  0  0  0
 22 23  2  0  0  0
 23 24  1  0  0  0
 24 25  2  0  0  0
  9 10  2  0  0  0
  6 11  1  0  0  0
  7 12  1  0  0  0
M  END
> <minimizedAffinity>
-7.78364

$$$$
910


 26 29  0  0  0  0  0  0  0  0999 V2000
   21.4584    9.9813   32.2431 C   0  0  0  0  0  0  0  0  0  0  0  0
   20.7090    8.7860   32.3409 C   0  0  0  0  0  0  0  0  0  0  0  0
   19.5323    8.5313   32.9011 N   0  0  0  0  0  0  0  0  0  0  0  0
   19.2647    7.2721   32.7335 O   0  0  0  0  0  0  0  0  0  0  0  0
   20.2140    6.6937   32.0907 N   0  0  0  0  0  0  0  0  0  0  0  0
   21.1501    7.6132   31.8217 C   0  0  0  0  0  0  0  0  0  0  0  0
   22.3643    7.5652   31.1738 C   0  0  0  0  0  0  0  0  0  0  0  0
   23.1164    8.7061   31.0628 C   0  0  0  0  0  0  0  0  0  0  0  0
   22.6792    9.9070   31.5867 C   0  0  0  0  0  0  0  0  0  0  0  0
   22.7880    6.3317   30.6572 N   0  0  0  0  0  0  0  0  0  0  0  0
   22.1438    5.0645   31.0053 C   0  0  0  0  0  0  0  0  0  0  0  0
   23.2256    4.2663   31.7040 C   0  0  0  0  0  0  0  0  0  0  0  0
   24.4463    4.9185   31.7664 O   0  0  0  0  0  0  0  0  0  0  0  0
   24.9351    5.3707   30.5591 C   0  0  0  0  0  0  0  0  0  0  0  0
   23.8820    6.0982   29.7419 C   0  0  0  0  0  0  0  0  0  0  0  0
   20.2307   12.1852   33.2380 C   0  0  0  0  0  0  0  0  0  0  0  0
   19.9818   12.3718   34.4987 O   0  0  0  0  0  0  0  0  0  0  0  0
   20.8337   11.1025   32.7493 N   0  0  0  0  0  0  0  0  0  0  0  0
   20.7648   10.4949   33.9657 H   0  0  0  0  0  0  0  0  0  0  0  0
   22.6570   14.0938   31.5218 I   0  0  0  0  0  0  0  0  0  0  0  0
   20.5381   14.1863   31.6987 C   0  0  0  0  0  0  0  0  0  0  0  0
   19.7412   13.3475   32.4474 C   0  0  0  0  0  0  0  0  0  0  0  0
   18.4775   13.7445   32.2780 N   0  0  0  0  0  0  0  0  0  0  0  0
   18.4756   14.7900   31.4600 N   0  0  0  0  0  0  0  0  0  0  0  0
   19.7147   15.0947   31.0807 C   0  0  0  0  0  0  0  0  0  0  0  0
   17.2449   13.1459   32.8232 C   0  0  0  0  0  0  0  0  0  0  0  0
 20 21  1  0  0  0
 21 22  2  0  0  0
 21 25  1  0  0  0
 22 23  1  0  0  0
 22 16  1  0  0  0
 23 24  1  0  0  0
 23 26  1  0  0  0
 24 25  2  0  0  0
 16 17  2  0  0  0
 16 18  1  0  0  0
 18  1  1  0  0  0
  1  2  1  0  0  0
  1  9  2  0  0  0
  2  3  2  0  0  0
  2  6  1  0  0  0
  3  4  1  0  0  0
  4  5  1  0  0  0
  5  6  2  0  0  0
  6  7  1  0  0  0
  7  8  2  0  0  0
  7 10  1  0  0  0
  8  9  1  0  0  0
 10 11  1  0  0  0
 10 15  1  0  0  0
 11 12  1  0  0  0
 12 13  1  0  0  0
 13 14  1  0  0  0
 14 15  1  0  0  0
 18 19  1  0  0  0
M  END
> <minimizedAffinity>
-8.50919

$$$$
920


 24 27  0  0  0  0  0  0  0  0999 V2000
   21.5750    7.7984   31.7911 N   0  0  0  0  0  0  0  0  0  0  0  0
   21.0217    8.8507   32.3086 C   0  0  0  0  0  0  0  0  0  0  0  0
   19.7420    9.3192   33.4842 S   0  0  0  0  0  0  0  0  0  0  0  0
   20.0064   11.0631   33.2606 C   0  0  0  0  0  0  0  0  0  0  0  0
   20.9700   11.2372   32.3838 C   0  0  0  0  0  0  0  0  0  0  0  0
   21.5457   10.0599   31.8465 N   0  0  0  0  0  0  0  0  0  0  0  0
   22.6135    9.7025   30.8776 C   0  0  0  0  0  0  0  0  0  0  0  0
   22.5570    8.2154   30.8285 C   0  0  0  0  0  0  0  0  0  0  0  0
   21.3541   12.6377   32.0383 C   0  0  0  0  0  0  0  0  0  0  0  0
   20.5961   13.7171   32.4095 C   0  0  0  0  0  0  0  0  0  0  0  0
   20.9675   15.0378   32.0894 C   0  0  0  0  0  0  0  0  0  0  0  0
   22.1229   15.2792   31.3828 C   0  0  0  0  0  0  0  0  0  0  0  0
   22.8859   14.2017   31.0084 C   0  0  0  0  0  0  0  0  0  0  0  0
   22.5116   12.9030   31.3291 C   0  0  0  0  0  0  0  0  0  0  0  0
   21.2360    6.4580   32.0913 C   0  0  0  0  0  0  0  0  0  0  0  0
   21.8492    5.3485   31.4106 C   0  0  0  0  0  0  0  0  0  0  0  0
   21.1178    4.8918   30.4290 O   0  0  0  0  0  0  0  0  0  0  0  0
   27.2331    2.1108   32.2811 I   0  0  0  0  0  0  0  0  0  0  0  0
   25.4898    3.2038   31.9645 C   0  0  0  0  0  0  0  0  0  0  0  0
   25.3596    4.2051   31.0216 C   0  0  0  0  0  0  0  0  0  0  0  0
   24.1973    4.9048   30.8379 C   0  0  0  0  0  0  0  0  0  0  0  0
   23.0910    4.6459   31.5882 C   0  0  0  0  0  0  0  0  0  0  0  0
   23.2030    3.6388   32.5451 C   0  0  0  0  0  0  0  0  0  0  0  0
   24.3520    2.9446   32.7292 C   0  0  0  0  0  0  0  0  0  0  0  0
 18 19  1  0  0  0
 19 20  2  0  0  0
 19 24  1  0  0  0
 20 21  1  0  0  0
 21 22  2  0  0  0
 22 23  1  0  0  0
 22 16  1  0  0  0
 23 24  2  0  0  0
 16 17  2  0  0  0
 16 15  1  0  0  0
 15  1  1  0  0  0
  1  2  2  0  0  0
  1  8  1  0  0  0
  2  3  1  0  0  0
  2  6  1  0  0  0
  3  4  1  0  0  0
  4  5  2  0  0  0
  5  6  1  0  0  0
  5  9  1  0  0  0
  6  7  1  0  0  0
  7  8  1  0  0  0
  9 10  2  0  0  0
  9 14  1  0  0  0
 10 11  1  0  0  0
 11 12  2  0  0  0
 12 13  1  0  0  0
 13 14  2  0  0  0
M  END
> <minimizedAffinity>
-8.34640

$$$$
924


 29 32  0  0  0  0  0  0  0  0999 V2000
   23.4467    9.4130   31.3864 C   0  0  0  0  0  0  0  0  0  0  0  0
   22.4379    8.6999   31.9151 N   0  0  0  0  0  0  0  0  0  0  0  0
   21.3141    9.2939   32.3358 C   0  0  0  0  0  0  0  0  0  0  0  0
   21.2494   10.6290   32.2038 N   0  0  0  0  0  0  0  0  0  0  0  0
   22.2402   11.3781   31.6795 C   0  0  0  0  0  0  0  0  0  0  0  0
   23.3528   10.7426   31.2675 N   0  0  0  0  0  0  0  0  0  0  0  0
   22.0908   12.7874   31.5771 N   0  0  0  0  0  0  0  0  0  0  0  0
   23.2598   13.6200   31.4138 C   0  0  0  0  0  0  0  0  0  0  0  0
   22.9528   14.9083   32.1903 C   0  0  0  0  0  0  0  0  0  0  0  0
   21.9184   15.5381   31.5489 O   0  0  0  0  0  0  0  0  0  0  0  0
   20.7346   14.8576   31.4897 C   0  0  0  0  0  0  0  0  0  0  0  0
   20.7998   13.3805   31.6353 C   0  0  0  0  0  0  0  0  0  0  0  0
   20.2295    8.5571   32.9011 N   0  0  0  0  0  0  0  0  0  0  0  0
   19.9956    7.1710   32.6302 C   0  0  0  0  0  0  0  0  0  0  0  0
   18.6544    6.7957   33.2639 C   0  0  0  0  0  0  0  0  0  0  0  0
   17.6607    7.6993   32.9259 O   0  0  0  0  0  0  0  0  0  0  0  0
   17.8752    8.9607   33.4241 C   0  0  0  0  0  0  0  0  0  0  0  0
   19.3092    9.2364   33.7984 C   0  0  0  0  0  0  0  0  0  0  0  0
   24.6518    8.7481   30.9380 N   0  0  0  0  0  0  0  0  0  0  0  0
   25.4755    8.6810   31.5751 H   0  0  0  0  0  0  0  0  0  0  0  0
   24.5537    7.0257   29.3979 C   0  0  0  0  0  0  0  0  0  0  0  0
   24.7030    8.2437   29.6810 N   0  0  0  0  0  0  0  0  0  0  0  0
   23.9637    2.0957   33.3559 I   0  0  0  0  0  0  0  0  0  0  0  0
   24.0649    3.7301   32.0539 C   0  0  0  0  0  0  0  0  0  0  0  0
   22.9613    4.4033   31.6292 C   0  0  0  0  0  0  0  0  0  0  0  0
   23.0981    5.4917   30.7547 C   0  0  0  0  0  0  0  0  0  0  0  0
   24.3042    5.9285   30.2916 C   0  0  0  0  0  0  0  0  0  0  0  0
   25.4247    5.2164   30.7453 C   0  0  0  0  0  0  0  0  0  0  0  0
   25.2962    4.1498   31.6018 C   0  0  0  0  0  0  0  0  0  0  0  0
 23 24  1  0  0  0
 24 25  2  0  0  0
 24 29  1  0  0  0
 25 26  1  0  0  0
 26 27  2  0  0  0
 27 28  1  0  0  0
 27 21  1  0  0  0
 28 29  2  0  0  0
 21 22  2  0  0  0
 22 19  1  0  0  0
 19  1  1  0  0  0
  1  2  2  0  0  0
  1  6  1  0  0  0
  2  3  1  0  0  0
  3  4  2  0  0  0
  3 13  1  0  0  0
  4  5  1  0  0  0
  5  6  2  0  0  0
  5  7  1  0  0  0
  7  8  1  0  0  0
  7 12  1  0  0  0
  8  9  1  0  0  0
  9 10  1  0  0  0
 10 11  1  0  0  0
 11 12  1  0  0  0
 13 14  1  0  0  0
 13 18  1  0  0  0
 14 15  1  0  0  0
 15 16  1  0  0  0
 16 17  1  0  0  0
 17 18  1  0  0  0
 19 20  1  0  0  0
M  END
> <minimizedAffinity>
-8.80597

$$$$
935


 34 38  0  0  0  0  0  0  0  0999 V2000
   25.0095   11.6571   28.9441 N   0  0  0  0  0  0  0  0  0  0  0  0
   26.0479   11.0233   28.3719 C   0  0  0  0  0  0  0  0  0  0  0  0
   26.9445   11.6675   27.5476 C   0  0  0  0  0  0  0  0  0  0  0  0
   26.7154   13.0138   27.3411 C   0  0  0  0  0  0  0  0  0  0  0  0
   27.4470   13.7479   26.6104 O   0  0  0  0  0  0  0  0  0  0  0  0
   25.6615   13.6708   27.9180 N   0  0  0  0  0  0  0  0  0  0  0  0
   24.8324   12.9672   28.7083 C   0  0  0  0  0  0  0  0  0  0  0  0
   23.8511   13.5270   29.2597 O   0  0  0  0  0  0  0  0  0  0  0  0
   26.2426    9.6863   28.6044 O   0  0  0  0  0  0  0  0  0  0  0  0
   25.4931   14.6816   27.7594 H   0  0  0  0  0  0  0  0  0  0  0  0
   28.0772   11.0504   26.8824 C   0  0  0  0  0  0  0  0  0  0  0  0
   29.2376   11.8564   26.6732 N   0  0  0  0  0  0  0  0  0  0  0  0
   29.8922   12.2890   27.8775 C   0  0  0  0  0  0  0  0  0  0  0  0
   29.3678   11.6064   29.1233 C   0  0  0  0  0  0  0  0  0  0  0  0
   29.2250   10.1313   28.8334 C   0  0  0  0  0  0  0  0  0  0  0  0
   28.5725    9.8573   27.6581 C   0  0  0  0  0  0  0  0  0  0  0  0
   28.3970    8.5586   27.2445 C   0  0  0  0  0  0  0  0  0  0  0  0
   28.9029    7.5572   28.0612 C   0  0  0  0  0  0  0  0  0  0  0  0
   29.5603    7.8160   29.2461 C   0  0  0  0  0  0  0  0  0  0  0  0
   29.7168    9.1480   29.6273 C   0  0  0  0  0  0  0  0  0  0  0  0
   29.9345    6.6082   29.8139 O   0  0  0  0  0  0  0  0  0  0  0  0
   29.1957    5.5487   29.1845 C   0  0  0  0  0  0  0  0  0  0  0  0
   28.8993    6.1589   27.9423 O   0  0  0  0  0  0  0  0  0  0  0  0
   30.2164   10.9561   26.0090 C   0  0  0  0  0  0  0  0  0  0  0  0
   29.1558   12.6127   25.9737 H   0  0  0  0  0  0  0  0  0  0  0  0
   27.7475    8.2953   26.0721 O   0  0  0  0  0  0  0  0  0  0  0  0
   28.3032    7.8057   24.8935 C   0  0  0  0  0  0  0  0  0  0  0  0
   20.9458    8.6050   32.7216 I   0  0  0  0  0  0  0  0  0  0  0  0
   22.3035    9.6228   31.4864 C   0  0  0  0  0  0  0  0  0  0  0  0
   22.1357    9.6051   30.1058 C   0  0  0  0  0  0  0  0  0  0  0  0
   23.0136   10.2642   29.2957 C   0  0  0  0  0  0  0  0  0  0  0  0
   24.0978   10.9725   29.7889 C   0  0  0  0  0  0  0  0  0  0  0  0
   24.2712   10.9937   31.1688 C   0  0  0  0  0  0  0  0  0  0  0  0
   23.3786   10.3243   31.9793 C   0  0  0  0  0  0  0  0  0  0  0  0
 28 29  1  0  0  0
 29 30  2  0  0  0
 29 34  1  0  0  0
 30 31  1  0  0  0
 31 32  2  0  0  0
 32 33  1  0  0  0
 32  1  1  0  0  0
 33 34  2  0  0  0
  1  2  1  0  0  0
  1  7  1  0  0  0
  2  3  2  0  0  0
  2  9  1  0  0  0
  3  4  1  0  0  0
  3 11  1  0  0  0
  4  5  2  0  0  0
  4  6  1  0  0  0
  6  7  1  0  0  0
  7  8  2  0  0  0
 11 12  1  0  0  0
 11 16  1  0  0  0
 12 13  1  0  0  0
 12 24  1  0  0  0
 13 14  1  0  0  0
 14 15  1  0  0  0
 15 16  2  0  0  0
 15 20  1  0  0  0
 16 17  1  0  0  0
 17 18  2  0  0  0
 17 26  1  0  0  0
 18 19  1  0  0  0
 18 23  1  0  0  0
 19 20  2  0  0  0
 19 21  1  0  0  0
 21 22  1  0  0  0
 22 23  1  0  0  0
 26 27  1  0  0  0
  6 10  1  0  0  0
 12 25  1  0  0  0
M  CHG 1   9  -1
M  CHG 1  12   1
M  END
> <minimizedAffinity>
-7.09411

$$$$
937


 26 29  0  0  0  0  0  0  0  0999 V2000
   23.8346    5.1845   30.8494 N   0  0  0  0  0  0  0  0  0  0  0  0
   24.6590    6.1942   30.2914 C   0  0  0  0  0  0  0  0  0  0  0  0
   25.8926    6.0544   30.0867 O   0  0  0  0  0  0  0  0  0  0  0  0
   23.8400    7.4029   29.9972 C   0  0  0  0  0  0  0  0  0  0  0  0
   22.4778    6.7866   29.7276 C   0  0  0  0  0  0  0  0  0  0  0  0
   22.5018    5.5018   30.4543 C   0  0  0  0  0  0  0  0  0  0  0  0
   21.5059    4.7628   30.7073 O   0  0  0  0  0  0  0  0  0  0  0  0
   25.4756    0.2242   34.4835 I   0  0  0  0  0  0  0  0  0  0  0  0
   24.9233    1.8725   33.2830 C   0  0  0  0  0  0  0  0  0  0  0  0
   23.8004    2.6282   33.5471 C   0  0  0  0  0  0  0  0  0  0  0  0
   23.4628    3.6999   32.7452 C   0  0  0  0  0  0  0  0  0  0  0  0
   24.2276    4.0568   31.6544 C   0  0  0  0  0  0  0  0  0  0  0  0
   25.3423    3.2911   31.4086 C   0  0  0  0  0  0  0  0  0  0  0  0
   25.6995    2.2149   32.1972 C   0  0  0  0  0  0  0  0  0  0  0  0
   23.8689    8.2426   31.1229 N   0  0  0  0  0  0  0  0  0  0  0  0
   24.9189    9.1355   31.3343 C   0  0  0  0  0  0  0  0  0  0  0  0
   24.3616   10.2919   32.2052 C   0  0  0  0  0  0  0  0  0  0  0  0
   23.1203   10.7507   31.5996 N   0  0  0  0  0  0  0  0  0  0  0  0
   22.0630    9.7769   31.4874 C   0  0  0  0  0  0  0  0  0  0  0  0
   22.6639    8.4158   31.8281 C   0  0  0  0  0  0  0  0  0  0  0  0
   22.9746   12.0771   31.1447 C   0  0  0  0  0  0  0  0  0  0  0  0
   21.9845   12.8737   31.6316 N   0  0  0  0  0  0  0  0  0  0  0  0
   21.8028   14.1357   31.2489 C   0  0  0  0  0  0  0  0  0  0  0  0
   22.6456   14.7066   30.3047 C   0  0  0  0  0  0  0  0  0  0  0  0
   23.6503   13.8918   29.8131 C   0  0  0  0  0  0  0  0  0  0  0  0
   23.7974   12.6261   30.2272 N   0  0  0  0  0  0  0  0  0  0  0  0
  8  9  1  0  0  0
  9 10  2  0  0  0
  9 14  1  0  0  0
 10 11  1  0  0  0
 11 12  2  0  0  0
 12 13  1  0  0  0
 12  1  1  0  0  0
 13 14  2  0  0  0
  1  2  1  0  0  0
  1  6  1  0  0  0
  2  3  2  0  0  0
  2  4  1  0  0  0
  4  5  1  0  0  0
  4 15  1  0  0  0
  5  6  1  0  0  0
  6  7  2  0  0  0
 15 16  1  0  0  0
 15 20  1  0  0  0
 16 17  1  0  0  0
 17 18  1  0  0  0
 18 19  1  0  0  0
 18 21  1  0  0  0
 19 20  1  0  0  0
 21 22  2  0  0  0
 21 26  1  0  0  0
 22 23  1  0  0  0
 23 24  2  0  0  0
 24 25  1  0  0  0
 25 26  2  0  0  0
M  END
> <minimizedAffinity>
-7.84932

$$$$
950


 26 29  0  0  0  0  0  0  0  0999 V2000
   23.1159   10.6304   30.3465 C   0  0  0  0  0  0  0  0  0  0  0  0
   23.7072   11.7559   29.7643 C   0  0  0  0  0  0  0  0  0  0  0  0
   24.5966   11.8776   28.7636 N   0  0  0  0  0  0  0  0  0  0  0  0
   24.8438   13.1417   28.5840 O   0  0  0  0  0  0  0  0  0  0  0  0
   24.1587   13.8581   29.4205 N   0  0  0  0  0  0  0  0  0  0  0  0
   23.4255   13.0284   30.1874 C   0  0  0  0  0  0  0  0  0  0  0  0
   22.5329   13.2260   31.2187 C   0  0  0  0  0  0  0  0  0  0  0  0
   21.9580   12.1147   31.7822 C   0  0  0  0  0  0  0  0  0  0  0  0
   22.2402   10.8101   31.3575 C   0  0  0  0  0  0  0  0  0  0  0  0
   22.2545   14.5501   31.6424 N   0  0  0  0  0  0  0  0  0  0  0  0
   22.9661   15.1317   32.7620 C   0  0  0  0  0  0  0  0  0  0  0  0
   22.5336   16.5464   32.9297 C   0  0  0  0  0  0  0  0  0  0  0  0
   22.5451   17.2864   31.7635 O   0  0  0  0  0  0  0  0  0  0  0  0
   21.7954   16.7801   30.7495 C   0  0  0  0  0  0  0  0  0  0  0  0
   21.2642   15.3909   30.9994 C   0  0  0  0  0  0  0  0  0  0  0  0
   24.5528    8.5758   30.2221 C   0  0  0  0  0  0  0  0  0  0  0  0
   25.3368    8.9811   31.1487 O   0  0  0  0  0  0  0  0  0  0  0  0
   23.4816    9.3661   29.8286 N   0  0  0  0  0  0  0  0  0  0  0  0
   22.8884    8.9595   29.0381 H   0  0  0  0  0  0  0  0  0  0  0  0
   22.6995    5.4798   30.9664 I   0  0  0  0  0  0  0  0  0  0  0  0
   24.3208    6.0386   29.7817 C   0  0  0  0  0  0  0  0  0  0  0  0
   25.0425    5.1578   28.9759 C   0  0  0  0  0  0  0  0  0  0  0  0
   26.0175    5.8404   28.3737 N   0  0  0  0  0  0  0  0  0  0  0  0
   25.9286    7.0806   28.7676 N   0  0  0  0  0  0  0  0  0  0  0  0
   24.8854    7.2597   29.6467 C   0  0  0  0  0  0  0  0  0  0  0  0
   26.9947    5.2615   27.4415 C   0  0  0  0  0  0  0  0  0  0  0  0
 20 21  1  0  0  0
 21 22  2  0  0  0
 21 25  1  0  0  0
 22 23  1  0  0  0
 23 24  1  0  0  0
 23 26  1  0  0  0
 24 25  2  0  0  0
 25 16  1  0  0  0
 16 17  2  0  0  0
 16 18  1  0  0  0
 18  1  1  0  0  0
  1  2  1  0  0  0
  1  9  2  0  0  0
  2  3  2  0  0  0
  2  6  1  0  0  0
  3  4  1  0  0  0
  4  5  1  0  0  0
  5  6  2  0  0  0
  6  7  1  0  0  0
  7  8  2  0  0  0
  7 10  1  0  0  0
  8  9  1  0  0  0
 10 11  1  0  0  0
 10 15  1  0  0  0
 11 12  1  0  0  0
 12 13  1  0  0  0
 13 14  1  0  0  0
 14 15  1  0  0  0
 18 19  1  0  0  0
M  END
> <minimizedAffinity>
-7.95484

$$$$
956


 30 33  0  0  0  0  0  0  0  0999 V2000
   22.7349    5.2376   31.0441 I   0  0  0  0  0  0  0  0  0  0  0  0
   24.3510    6.1991   30.0913 C   0  0  0  0  0  0  0  0  0  0  0  0
   24.7104    7.5070   30.2312 C   0  0  0  0  0  0  0  0  0  0  0  0
   25.8265    7.6527   29.4064 C   0  0  0  0  0  0  0  0  0  0  0  0
   26.1414    6.5106   28.7941 N   0  0  0  0  0  0  0  0  0  0  0  0
   25.2436    5.6164   29.2072 C   0  0  0  0  0  0  0  0  0  0  0  0
   26.4024    8.8652   29.3475 N   0  0  0  0  0  0  0  0  0  0  0  0
   25.9195    9.8976   30.0562 C   0  0  0  0  0  0  0  0  0  0  0  0
   24.8503    9.7543   30.8450 N   0  0  0  0  0  0  0  0  0  0  0  0
   24.2023    8.5542   30.9644 C   0  0  0  0  0  0  0  0  0  0  0  0
   27.2092    6.2484   27.8763 C   0  0  0  0  0  0  0  0  0  0  0  0
   27.3800    7.2418   26.9196 O   0  0  0  0  0  0  0  0  0  0  0  0
   28.3572    6.6951   26.0926 C   0  0  0  0  0  0  0  0  0  0  0  0
   28.0378    5.2257   25.9449 C   0  0  0  0  0  0  0  0  0  0  0  0
   26.9249    5.0381   26.9830 C   0  0  0  0  0  0  0  0  0  0  0  0
   29.0988    4.4217   26.3636 O   0  0  0  0  0  0  0  0  0  0  0  0
   29.7812    4.4775   25.6253 H   0  0  0  0  0  0  0  0  0  0  0  0
   28.2495    7.3017   24.6864 C   0  0  0  0  0  0  0  0  0  0  0  0
   28.2221    6.2616   23.7480 O   0  0  0  0  0  0  0  0  0  0  0  0
   27.2715    6.0240   23.5063 H   0  0  0  0  0  0  0  0  0  0  0  0
   23.0681    8.4600   31.8200 N   0  0  0  0  0  0  0  0  0  0  0  0
   21.8240    8.9832   31.3636 C   0  0  0  0  0  0  0  0  0  0  0  0
   21.8029    9.5023   30.2185 O   0  0  0  0  0  0  0  0  0  0  0  0
   23.0581    8.0425   32.7547 H   0  0  0  0  0  0  0  0  0  0  0  0
   20.6041    8.9544   32.1228 C   0  0  0  0  0  0  0  0  0  0  0  0
   19.7442    7.8939   32.0453 C   0  0  0  0  0  0  0  0  0  0  0  0
   18.5568    7.8491   32.7793 C   0  0  0  0  0  0  0  0  0  0  0  0
   18.2376    8.8903   33.6001 C   0  0  0  0  0  0  0  0  0  0  0  0
   19.0804    9.9670   33.6980 C   0  0  0  0  0  0  0  0  0  0  0  0
   20.2653    9.9911   32.9535 C   0  0  0  0  0  0  0  0  0  0  0  0
  1  2  1  0  0  0
  2  3  1  0  0  0
  2  6  2  0  0  0
  3  4  2  0  0  0
  3 10  1  0  0  0
  4  5  1  0  0  0
  4  7  1  0  0  0
  5  6  1  0  0  0
  5 11  1  0  0  0
 11 12  1  0  0  0
 11 15  1  0  0  0
 12 13  1  0  0  0
 13 14  1  0  0  0
 13 18  1  0  0  0
 14 15  1  0  0  0
 14 16  1  0  0  0
 18 19  1  0  0  0
  7  8  2  0  0  0
  8  9  1  0  0  0
  9 10  2  0  0  0
 10 21  1  0  0  0
 21 22  1  0  0  0
 22 23  2  0  0  0
 22 25  1  0  0  0
 25 26  2  0  0  0
 25 30  1  0  0  0
 26 27  1  0  0  0
 27 28  2  0  0  0
 28 29  1  0  0  0
 29 30  2  0  0  0
 16 17  1  0  0  0
 19 20  1  0  0  0
 21 24  1  0  0  0
M  END
> <minimizedAffinity>
-9.07623

$$$$
961


 29 33  0  0  0  0  0  0  0  0999 V2000
   21.0940   10.8688   32.3626 C   0  0  0  0  0  0  0  0  0  0  0  0
   20.1303   10.9606   33.2472 N   0  0  0  0  0  0  0  0  0  0  0  0
   19.5558   12.1738   33.5072 C   0  0  0  0  0  0  0  0  0  0  0  0
   19.9209   13.3319   32.8924 C   0  0  0  0  0  0  0  0  0  0  0  0
   20.9286   13.2745   31.9543 C   0  0  0  0  0  0  0  0  0  0  0  0
   21.5502   14.2054   31.1508 N   0  0  0  0  0  0  0  0  0  0  0  0
   22.4750   13.6066   30.4197 C   0  0  0  0  0  0  0  0  0  0  0  0
   22.4320   12.2912   30.7663 N   0  0  0  0  0  0  0  0  0  0  0  0
   21.4997   12.0619   31.6990 C   0  0  0  0  0  0  0  0  0  0  0  0
   21.1384   15.5799   31.1869 C   0  0  0  0  0  0  0  0  0  0  0  0
   19.5899    9.8135   33.9149 C   0  0  0  0  0  0  0  0  0  0  0  0
   23.3758   14.1755   29.4102 C   0  0  0  0  0  0  0  0  0  0  0  0
   23.2657   15.4149   28.8729 C   0  0  0  0  0  0  0  0  0  0  0  0
   24.1751   15.8425   27.8872 C   0  0  0  0  0  0  0  0  0  0  0  0
   25.1818   15.0061   27.4622 C   0  0  0  0  0  0  0  0  0  0  0  0
   25.3173   13.7322   27.9974 C   0  0  0  0  0  0  0  0  0  0  0  0
   24.4205   13.3607   28.9439 C   0  0  0  0  0  0  0  0  0  0  0  0
   21.8431    8.8721   31.0497 C   0  0  0  0  0  0  0  0  0  0  0  0
   21.8745    9.6875   32.0438 C   0  0  0  0  0  0  0  0  0  0  0  0
   20.8553    6.0102   32.1752 Br  0  0  0  0  0  0  0  0  0  0  0  0
   22.3415    6.4171   31.0538 C   0  0  0  0  0  0  0  0  0  0  0  0
   23.1502    5.3341   30.6271 C   0  0  0  0  0  0  0  0  0  0  0  0
   24.2616    5.5532   29.8592 C   0  0  0  0  0  0  0  0  0  0  0  0
   24.5768    6.8485   29.5120 C   0  0  0  0  0  0  0  0  0  0  0  0
   23.7845    7.8930   29.9318 C   0  0  0  0  0  0  0  0  0  0  0  0
   22.6259    7.7013   30.7259 C   0  0  0  0  0  0  0  0  0  0  0  0
   25.7467    6.7944   28.7364 O   0  0  0  0  0  0  0  0  0  0  0  0
   25.8089    5.4833   28.2139 C   0  0  0  0  0  0  0  0  0  0  0  0
   25.2422    4.7354   29.2890 O   0  0  0  0  0  0  0  0  0  0  0  0
 20 21  1  0  0  0
 21 22  2  0  0  0
 21 26  1  0  0  0
 22 23  1  0  0  0
 23 24  2  0  0  0
 23 29  1  0  0  0
 24 25  1  0  0  0
 24 27  1  0  0  0
 25 26  2  0  0  0
 26 18  1  0  0  0
 18 19  2  0  0  0
 19  1  1  0  0  0
  1  2  2  0  0  0
  1  9  1  0  0  0
  2  3  1  0  0  0
  2 11  1  0  0  0
  3  4  2  0  0  0
  4  5  1  0  0  0
  5  6  1  0  0  0
  5  9  2  0  0  0
  6  7  1  0  0  0
  6 10  1  0  0  0
  7  8  2  0  0  0
  7 12  1  0  0  0
  8  9  1  0  0  0
 12 13  2  0  0  0
 12 17  1  0  0  0
 13 14  1  0  0  0
 14 15  2  0  0  0
 15 16  1  0  0  0
 16 17  2  0  0  0
 27 28  1  0  0  0
 28 29  1  0  0  0
M  END
> <minimizedAffinity>
-9.80885

$$$$
969


 31 34  0  0  0  0  0  0  0  0999 V2000
   23.9366    6.3033   30.4191 Br  0  0  0  0  0  0  0  0  0  0  0  0
   24.8893    7.9359   30.2182 C   0  0  0  0  0  0  0  0  0  0  0  0
   26.0022    8.0747   29.3936 C   0  0  0  0  0  0  0  0  0  0  0  0
   26.6631    9.2871   29.2825 C   0  0  0  0  0  0  0  0  0  0  0  0
   26.2215   10.3832   29.9952 C   0  0  0  0  0  0  0  0  0  0  0  0
   25.1294   10.2555   30.8073 C   0  0  0  0  0  0  0  0  0  0  0  0
   24.4796    9.0517   30.9125 C   0  0  0  0  0  0  0  0  0  0  0  0
   23.3629    8.9983   31.7668 O   0  0  0  0  0  0  0  0  0  0  0  0
   24.5667   11.8194   31.7686 Br  0  0  0  0  0  0  0  0  0  0  0  0
   27.7669    9.4512   28.4738 C   0  0  0  0  0  0  0  0  0  0  0  0
   28.2012    8.3513   27.7641 C   0  0  0  0  0  0  0  0  0  0  0  0
   27.4417    7.1080   27.9434 C   0  0  0  0  0  0  0  0  0  0  0  0
   27.8943    6.0038   27.2196 C   0  0  0  0  0  0  0  0  0  0  0  0
   28.9907    6.1066   26.3953 C   0  0  0  0  0  0  0  0  0  0  0  0
   29.3612    5.0853   25.7625 O   0  0  0  0  0  0  0  0  0  0  0  0
   29.6898    7.3000   26.2473 C   0  0  0  0  0  0  0  0  0  0  0  0
   29.3018    8.4192   26.9246 C   0  0  0  0  0  0  0  0  0  0  0  0
   31.2023    7.3540   25.0798 Br  0  0  0  0  0  0  0  0  0  0  0  0
   26.9484    4.3415   27.4070 Br  0  0  0  0  0  0  0  0  0  0  0  0
   26.3962    7.0176   28.7310 O   0  0  0  0  0  0  0  0  0  0  0  0
   28.4685   10.7313   28.3642 C   0  0  0  0  0  0  0  0  0  0  0  0
   29.5777   10.9960   29.1464 C   0  0  0  0  0  0  0  0  0  0  0  0
   30.2521   12.1958   29.0658 C   0  0  0  0  0  0  0  0  0  0  0  0
   29.7989   13.1488   28.1771 C   0  0  0  0  0  0  0  0  0  0  0  0
   28.7114   12.9294   27.3882 C   0  0  0  0  0  0  0  0  0  0  0  0
   28.0493   11.7251   27.4827 C   0  0  0  0  0  0  0  0  0  0  0  0
   28.2040   14.1972   26.2836 Cl  0  0  0  0  0  0  0  0  0  0  0  0
   30.1398    9.7586   30.2761 Cl  0  0  0  0  0  0  0  0  0  0  0  0
   26.8924   11.4864   26.6539 C   0  0  0  0  0  0  0  0  0  0  0  0
   26.9765   10.9460   25.5170 O   0  0  0  0  0  0  0  0  0  0  0  0
   25.6227   11.8537   27.0937 O   0  0  0  0  0  0  0  0  0  0  0  0
  1  2  1  0  0  0
  2  3  2  0  0  0
  2  7  1  0  0  0
  3  4  1  0  0  0
  3 20  1  0  0  0
  4  5  2  0  0  0
  4 10  1  0  0  0
  5  6  1  0  0  0
  6  7  2  0  0  0
  6  9  1  0  0  0
  7  8  1  0  0  0
 10 11  2  0  0  0
 10 21  1  0  0  0
 11 12  1  0  0  0
 11 17  1  0  0  0
 12 13  2  0  0  0
 12 20  1  0  0  0
 13 14  1  0  0  0
 13 19  1  0  0  0
 14 15  2  0  0  0
 14 16  1  0  0  0
 16 17  2  0  0  0
 16 18  1  0  0  0
 21 22  2  0  0  0
 21 26  1  0  0  0
 22 23  1  0  0  0
 22 28  1  0  0  0
 23 24  2  0  0  0
 24 25  1  0  0  0
 25 26  2  0  0  0
 25 27  1  0  0  0
 26 29  1  0  0  0
 29 30  2  0  0  0
 29 31  1  0  0  0
M  CHG 1   8  -1
M  END
> <minimizedAffinity>
-6.20031

$$$$
971


 29 33  0  0  0  0  0  0  0  0999 V2000
   23.9734   16.2111   27.7714 Br  0  0  0  0  0  0  0  0  0  0  0  0
   23.4810   14.9179   29.0839 C   0  0  0  0  0  0  0  0  0  0  0  0
   24.1480   13.6826   29.1838 C   0  0  0  0  0  0  0  0  0  0  0  0
   23.8263   12.7322   30.1070 C   0  0  0  0  0  0  0  0  0  0  0  0
   22.7812   13.0169   30.9885 C   0  0  0  0  0  0  0  0  0  0  0  0
   22.1348   14.2133   30.8914 C   0  0  0  0  0  0  0  0  0  0  0  0
   22.4560   15.1794   29.9600 C   0  0  0  0  0  0  0  0  0  0  0  0
   21.7459   16.3911   29.9187 O   0  0  0  0  0  0  0  0  0  0  0  0
   20.7061   14.6104   32.0920 Br  0  0  0  0  0  0  0  0  0  0  0  0
   24.5360   11.4624   30.1863 C   0  0  0  0  0  0  0  0  0  0  0  0
   25.1671   11.4278   31.4648 O   0  0  0  0  0  0  0  0  0  0  0  0
   24.7257   10.3822   32.2286 C   0  0  0  0  0  0  0  0  0  0  0  0
   25.1108   10.1141   33.3895 O   0  0  0  0  0  0  0  0  0  0  0  0
   23.7491    9.6814   31.4176 C   0  0  0  0  0  0  0  0  0  0  0  0
   23.6082   10.2952   30.1939 C   0  0  0  0  0  0  0  0  0  0  0  0
   22.7292    9.7641   29.3084 C   0  0  0  0  0  0  0  0  0  0  0  0
   22.0052    8.6397   29.6457 C   0  0  0  0  0  0  0  0  0  0  0  0
   22.1429    8.0222   30.8707 C   0  0  0  0  0  0  0  0  0  0  0  0
   23.0278    8.5462   31.7757 C   0  0  0  0  0  0  0  0  0  0  0  0
   25.5990   11.3195   29.1971 C   0  0  0  0  0  0  0  0  0  0  0  0
   25.8748   12.3096   28.2954 C   0  0  0  0  0  0  0  0  0  0  0  0
   26.9061   12.1539   27.3466 C   0  0  0  0  0  0  0  0  0  0  0  0
   27.6326   10.9862   27.3438 C   0  0  0  0  0  0  0  0  0  0  0  0
   27.3591    9.9771   28.2557 C   0  0  0  0  0  0  0  0  0  0  0  0
   26.3574   10.1349   29.1720 C   0  0  0  0  0  0  0  0  0  0  0  0
   28.3569    8.3540   28.2639 Br  0  0  0  0  0  0  0  0  0  0  0  0
   28.6442   10.8462   26.4059 O   0  0  0  0  0  0  0  0  0  0  0  0
   27.2617   13.5618   26.1012 Br  0  0  0  0  0  0  0  0  0  0  0  0
   25.1752   13.5074   28.2531 O   0  0  0  0  0  0  0  0  0  0  0  0
  1  2  1  0  0  0
  2  3  2  0  0  0
  2  7  1  0  0  0
  3  4  1  0  0  0
  3 29  1  0  0  0
  4  5  2  0  0  0
  4 10  1  0  0  0
  5  6  1  0  0  0
  6  7  2  0  0  0
  6  9  1  0  0  0
  7  8  1  0  0  0
 10 11  1  0  0  0
 10 15  1  0  0  0
 10 20  1  0  0  0
 11 12  1  0  0  0
 12 13  2  0  0  0
 12 14  1  0  0  0
 14 15  2  0  0  0
 14 19  1  0  0  0
 15 16  1  0  0  0
 16 17  2  0  0  0
 17 18  1  0  0  0
 18 19  2  0  0  0
 20 21  2  0  0  0
 20 25  1  0  0  0
 21 22  1  0  0  0
 21 29  1  0  0  0
 22 23  2  0  0  0
 22 28  1  0  0  0
 23 24  1  0  0  0
 23 27  1  0  0  0
 24 25  2  0  0  0
 24 26  1  0  0  0
M  CHG 1   8  -1
M  CHG 1  27  -1
M  END
> <minimizedAffinity>
-7.83686

$$$$
978


 33 37  0  0  0  0  0  0  0  0999 V2000
   27.7501    4.4923   27.2934 I   0  0  0  0  0  0  0  0  0  0  0  0
   28.3990    6.4210   26.7290 C   0  0  0  0  0  0  0  0  0  0  0  0
   27.8367    7.5019   27.4004 C   0  0  0  0  0  0  0  0  0  0  0  0
   28.2342    8.7534   27.0595 C   0  0  0  0  0  0  0  0  0  0  0  0
   29.1886    8.9128   26.0515 C   0  0  0  0  0  0  0  0  0  0  0  0
   29.7510    7.8486   25.3813 C   0  0  0  0  0  0  0  0  0  0  0  0
   29.3417    6.5785   25.7342 C   0  0  0  0  0  0  0  0  0  0  0  0
   29.8944    5.4921   25.0720 O   0  0  0  0  0  0  0  0  0  0  0  0
   31.1959    8.1441   23.8586 I   0  0  0  0  0  0  0  0  0  0  0  0
   27.7125    9.9491   27.6948 C   0  0  0  0  0  0  0  0  0  0  0  0
   27.0801   10.8150   26.7408 O   0  0  0  0  0  0  0  0  0  0  0  0
   27.6477   12.0616   26.7181 C   0  0  0  0  0  0  0  0  0  0  0  0
   27.3545   13.0692   26.0122 O   0  0  0  0  0  0  0  0  0  0  0  0
   28.7175   12.0400   27.7052 C   0  0  0  0  0  0  0  0  0  0  0  0
   28.7580   10.8052   28.2784 C   0  0  0  0  0  0  0  0  0  0  0  0
   29.7008   10.5168   29.2652 C   0  0  0  0  0  0  0  0  0  0  0  0
   30.6079   11.4672   29.6820 C   0  0  0  0  0  0  0  0  0  0  0  0
   30.5644   12.7287   29.0943 C   0  0  0  0  0  0  0  0  0  0  0  0
   29.6384   13.0159   28.1239 C   0  0  0  0  0  0  0  0  0  0  0  0
   29.5977   14.5816   27.4062 Cl  0  0  0  0  0  0  0  0  0  0  0  0
   31.6822   13.9740   29.5766 Cl  0  0  0  0  0  0  0  0  0  0  0  0
   31.7752   11.0714   30.9220 Cl  0  0  0  0  0  0  0  0  0  0  0  0
   29.6960    8.9267   29.9523 Cl  0  0  0  0  0  0  0  0  0  0  0  0
   26.7081    9.6302   28.7455 C   0  0  0  0  0  0  0  0  0  0  0  0
   26.3346    8.3687   29.0602 C   0  0  0  0  0  0  0  0  0  0  0  0
   25.3823    8.2115   30.0652 C   0  0  0  0  0  0  0  0  0  0  0  0
   24.8202    9.2743   30.7356 C   0  0  0  0  0  0  0  0  0  0  0  0
   25.2257   10.5472   30.3878 C   0  0  0  0  0  0  0  0  0  0  0  0
   26.1596   10.7391   29.4029 C   0  0  0  0  0  0  0  0  0  0  0  0
   24.3837   12.1944   31.3952 I   0  0  0  0  0  0  0  0  0  0  0  0
   23.8838    9.1199   31.7248 O   0  0  0  0  0  0  0  0  0  0  0  0
   24.7946    6.2591   30.5630 I   0  0  0  0  0  0  0  0  0  0  0  0
   26.8781    7.2769   28.4080 O   0  0  0  0  0  0  0  0  0  0  0  0
  1  2  1  0  0  0
  2  3  2  0  0  0
  2  7  1  0  0  0
  3  4  1  0  0  0
  3 33  1  0  0  0
  4  5  2  0  0  0
  4 10  1  0  0  0
  5  6  1  0  0  0
  6  7  2  0  0  0
  6  9  1  0  0  0
  7  8  1  0  0  0
 10 11  1  0  0  0
 10 15  1  0  0  0
 10 24  1  0  0  0
 11 12  1  0  0  0
 12 13  2  0  0  0
 12 14  1  0  0  0
 14 15  2  0  0  0
 14 19  1  0  0  0
 15 16  1  0  0  0
 16 17  2  0  0  0
 16 23  1  0  0  0
 17 18  1  0  0  0
 17 22  1  0  0  0
 18 19  2  0  0  0
 18 21  1  0  0  0
 19 20  1  0  0  0
 24 25  2  0  0  0
 24 29  1  0  0  0
 25 26  1  0  0  0
 25 33  1  0  0  0
 26 27  2  0  0  0
 26 32  1  0  0  0
 27 28  1  0  0  0
 27 31  1  0  0  0
 28 29  2  0  0  0
 28 30  1  0  0  0
M  CHG 1   8  -1
M  CHG 1  31  -1
M  END
> <minimizedAffinity>
-6.30451

$$$$
979


 29 33  0  0  0  0  0  0  0  0999 V2000
   23.2973    6.9956   30.0373 I   0  0  0  0  0  0  0  0  0  0  0  0
   24.3792    8.8174   30.0125 C   0  0  0  0  0  0  0  0  0  0  0  0
   25.6705    8.7648   29.4606 C   0  0  0  0  0  0  0  0  0  0  0  0
   26.3851    9.9204   29.4328 C   0  0  0  0  0  0  0  0  0  0  0  0
   25.8113   11.0962   29.9488 C   0  0  0  0  0  0  0  0  0  0  0  0
   24.5515   11.1453   30.4862 C   0  0  0  0  0  0  0  0  0  0  0  0
   23.8274    9.9739   30.5134 C   0  0  0  0  0  0  0  0  0  0  0  0
   22.5485    9.9872   31.0509 O   0  0  0  0  0  0  0  0  0  0  0  0
   23.7475   12.9536   31.2455 I   0  0  0  0  0  0  0  0  0  0  0  0
   27.7428    9.9683   28.8771 C   0  0  0  0  0  0  0  0  0  0  0  0
   28.6639   10.5355   29.7888 O   0  0  0  0  0  0  0  0  0  0  0  0
   29.2522   11.6720   29.2993 C   0  0  0  0  0  0  0  0  0  0  0  0
   30.1090   12.4168   29.8454 O   0  0  0  0  0  0  0  0  0  0  0  0
   28.7021   11.9001   27.9704 C   0  0  0  0  0  0  0  0  0  0  0  0
   27.8144   10.9061   27.7139 C   0  0  0  0  0  0  0  0  0  0  0  0
   27.1496   10.9117   26.4819 C   0  0  0  0  0  0  0  0  0  0  0  0
   27.3992   11.9060   25.5644 C   0  0  0  0  0  0  0  0  0  0  0  0
   28.2997   12.9174   25.8233 C   0  0  0  0  0  0  0  0  0  0  0  0
   28.9587   12.9218   27.0289 C   0  0  0  0  0  0  0  0  0  0  0  0
   28.2129    8.6658   28.3752 C   0  0  0  0  0  0  0  0  0  0  0  0
   27.4519    7.5491   28.4307 C   0  0  0  0  0  0  0  0  0  0  0  0
   27.9619    6.3521   27.9383 C   0  0  0  0  0  0  0  0  0  0  0  0
   29.2170    6.2967   27.4011 C   0  0  0  0  0  0  0  0  0  0  0  0
   30.0178    7.4126   27.3276 C   0  0  0  0  0  0  0  0  0  0  0  0
   29.4952    8.5771   27.8191 C   0  0  0  0  0  0  0  0  0  0  0  0
   31.9594    7.3205   26.4950 I   0  0  0  0  0  0  0  0  0  0  0  0
   29.7008    5.0885   26.9155 O   0  0  0  0  0  0  0  0  0  0  0  0
   26.7584    4.6019   28.0300 I   0  0  0  0  0  0  0  0  0  0  0  0
   26.1565    7.5492   28.9731 O   0  0  0  0  0  0  0  0  0  0  0  0
  1  2  1  0  0  0
  2  3  2  0  0  0
  2  7  1  0  0  0
  3  4  1  0  0  0
  3 29  1  0  0  0
  4  5  2  0  0  0
  4 10  1  0  0  0
  5  6  1  0  0  0
  6  7  2  0  0  0
  6  9  1  0  0  0
  7  8  1  0  0  0
 10 11  1  0  0  0
 10 15  1  0  0  0
 10 20  1  0  0  0
 11 12  1  0  0  0
 12 13  2  0  0  0
 12 14  1  0  0  0
 14 15  2  0  0  0
 14 19  1  0  0  0
 15 16  1  0  0  0
 16 17  2  0  0  0
 17 18  1  0  0  0
 18 19  2  0  0  0
 20 21  2  0  0  0
 20 25  1  0  0  0
 21 22  1  0  0  0
 21 29  1  0  0  0
 22 23  2  0  0  0
 22 28  1  0  0  0
 23 24  1  0  0  0
 23 27  1  0  0  0
 24 25  2  0  0  0
 24 26  1  0  0  0
M  CHG 1   8  -1
M  CHG 1  27  -1
M  END
> <minimizedAffinity>
-6.89202

$$$$
980


 27 30  0  0  0  0  0  0  0  0999 V2000
   20.1937    7.2648   32.4784 I   0  0  0  0  0  0  0  0  0  0  0  0
   20.2420    9.3542   32.7460 C   0  0  0  0  0  0  0  0  0  0  0  0
   21.2462   10.1466   32.2264 C   0  0  0  0  0  0  0  0  0  0  0  0
   21.2819   11.5137   32.3995 C   0  0  0  0  0  0  0  0  0  0  0  0
   20.2586   12.0918   33.1277 C   0  0  0  0  0  0  0  0  0  0  0  0
   19.2459   11.3037   33.6537 C   0  0  0  0  0  0  0  0  0  0  0  0
   19.2184    9.9263   33.4749 C   0  0  0  0  0  0  0  0  0  0  0  0
   18.1773    9.1828   34.0248 O   0  0  0  0  0  0  0  0  0  0  0  0
   22.2760   12.3224   31.8873 C   0  0  0  0  0  0  0  0  0  0  0  0
   23.2725   11.6717   31.1659 C   0  0  0  0  0  0  0  0  0  0  0  0
   23.1993   10.2223   31.0049 C   0  0  0  0  0  0  0  0  0  0  0  0
   24.2150    9.6356   30.2796 C   0  0  0  0  0  0  0  0  0  0  0  0
   25.2538   10.3534   29.7266 C   0  0  0  0  0  0  0  0  0  0  0  0
   26.1780    9.7961   29.0636 O   0  0  0  0  0  0  0  0  0  0  0  0
   25.3241   11.7244   29.8787 C   0  0  0  0  0  0  0  0  0  0  0  0
   24.3215   12.3424   30.5994 C   0  0  0  0  0  0  0  0  0  0  0  0
   24.1959    7.5534   29.9935 I   0  0  0  0  0  0  0  0  0  0  0  0
   22.1995    9.5673   31.5421 O   0  0  0  0  0  0  0  0  0  0  0  0
   22.3173   13.7694   32.0685 C   0  0  0  0  0  0  0  0  0  0  0  0
   21.4324   14.5538   31.3350 C   0  0  0  0  0  0  0  0  0  0  0  0
   21.4336   15.9168   31.4721 C   0  0  0  0  0  0  0  0  0  0  0  0
   22.3196   16.5126   32.3424 C   0  0  0  0  0  0  0  0  0  0  0  0
   23.2051   15.7588   33.0804 C   0  0  0  0  0  0  0  0  0  0  0  0
   23.1861   14.3904   32.9270 C   0  0  0  0  0  0  0  0  0  0  0  0
   20.4891   13.9331   30.4096 C   0  0  0  0  0  0  0  0  0  0  0  0
   20.8489   13.1963   29.4648 O   0  0  0  0  0  0  0  0  0  0  0  0
   19.1245   14.1446   30.5465 O   0  0  0  0  0  0  0  0  0  0  0  0
  1  2  1  0  0  0
  2  3  2  0  0  0
  2  7  1  0  0  0
  3  4  1  0  0  0
  3 18  1  0  0  0
  4  5  2  0  0  0
  4  9  1  0  0  0
  5  6  1  0  0  0
  6  7  2  0  0  0
  7  8  1  0  0  0
  9 10  2  0  0  0
  9 19  1  0  0  0
 10 11  1  0  0  0
 10 16  1  0  0  0
 11 12  2  0  0  0
 11 18  1  0  0  0
 12 13  1  0  0  0
 12 17  1  0  0  0
 13 14  2  0  0  0
 13 15  1  0  0  0
 15 16  2  0  0  0
 19 20  2  0  0  0
 19 24  1  0  0  0
 20 21  1  0  0  0
 20 25  1  0  0  0
 21 22  2  0  0  0
 22 23  1  0  0  0
 23 24  2  0  0  0
 25 26  2  0  0  0
 25 27  1  0  0  0
M  CHG 1   8  -1
M  END
> <minimizedAffinity>
-8.18597

$$$$
983


 34 37  0  0  0  0  0  0  0  0999 V2000
   22.6078    9.6196   30.2612 C   0  0  0  0  0  0  0  0  0  0  0  0
   21.6239    9.3573   31.2241 C   0  0  0  0  0  0  0  0  0  0  0  0
   21.4254   10.5626   31.8603 C   0  0  0  0  0  0  0  0  0  0  0  0
   22.2379   11.4753   31.3095 N   0  0  0  0  0  0  0  0  0  0  0  0
   22.9936   10.9331   30.3063 C   0  0  0  0  0  0  0  0  0  0  0  0
   20.4881   10.6256   32.8882 C   0  0  0  0  0  0  0  0  0  0  0  0
   19.7939    9.4995   33.2360 C   0  0  0  0  0  0  0  0  0  0  0  0
   19.9921    8.2733   32.5935 C   0  0  0  0  0  0  0  0  0  0  0  0
   20.9340    8.2143   31.5619 C   0  0  0  0  0  0  0  0  0  0  0  0
   18.9963    6.7459   33.1237 Br  0  0  0  0  0  0  0  0  0  0  0  0
   20.1939   12.2694   33.7814 Br  0  0  0  0  0  0  0  0  0  0  0  0
   22.3016   12.4922   31.5994 H   0  0  0  0  0  0  0  0  0  0  0  0
   23.9456   11.6654   29.4793 C   0  0  0  0  0  0  0  0  0  0  0  0
   25.1230   11.1272   29.0592 N   0  0  0  0  0  0  0  0  0  0  0  0
   25.8173   12.0138   28.3288 C   0  0  0  0  0  0  0  0  0  0  0  0
   25.0982   13.1861   28.2482 C   0  0  0  0  0  0  0  0  0  0  0  0
   23.9339   12.9305   28.9815 C   0  0  0  0  0  0  0  0  0  0  0  0
   25.5601   14.2870   27.5563 C   0  0  0  0  0  0  0  0  0  0  0  0
   26.7857   14.2468   26.9100 C   0  0  0  0  0  0  0  0  0  0  0  0
   27.5210   13.0744   26.9813 C   0  0  0  0  0  0  0  0  0  0  0  0
   27.0423   11.9839   27.6774 C   0  0  0  0  0  0  0  0  0  0  0  0
   28.1055   10.4023   27.7356 Br  0  0  0  0  0  0  0  0  0  0  0  0
   27.4481   15.7640   25.9437 Br  0  0  0  0  0  0  0  0  0  0  0  0
   25.4693   10.1628   29.2579 H   0  0  0  0  0  0  0  0  0  0  0  0
   22.9416   13.8796   29.1471 O   0  0  0  0  0  0  0  0  0  0  0  0
   22.6490   14.6429   30.6435 S   0  0  0  0  0  0  0  0  0  0  0  0
   23.6453   14.2008   31.6755 O   0  0  0  0  0  0  0  0  0  0  0  0
   21.2807   14.3210   31.1741 O   0  0  0  0  0  0  0  0  0  0  0  0
   22.6922   16.3270   30.4352 O   0  0  0  0  0  0  0  0  0  0  0  0
   23.0946    8.6424   29.4002 O   0  0  0  0  0  0  0  0  0  0  0  0
   24.3939    7.6247   29.8567 S   0  0  0  0  0  0  0  0  0  0  0  0
   25.6540    8.3041   29.3962 O   0  0  0  0  0  0  0  0  0  0  0  0
   24.4458    7.4563   31.3552 O   0  0  0  0  0  0  0  0  0  0  0  0
   24.2986    6.1347   29.0840 O   0  0  0  0  0  0  0  0  0  0  0  0
 31 32  2  0  0  0
 31 33  2  0  0  0
 31 34  1  0  0  0
 31 30  1  0  0  0
 30  1  1  0  0  0
  1  2  1  0  0  0
  1  5  2  0  0  0
  2  3  2  0  0  0
  2  9  1  0  0  0
  3  4  1  0  0  0
  3  6  1  0  0  0
  4  5  1  0  0  0
  5 13  1  0  0  0
 13 14  1  0  0  0
 13 17  2  0  0  0
 14 15  1  0  0  0
 15 16  2  0  0  0
 15 21  1  0  0  0
 16 17  1  0  0  0
 16 18  1  0  0  0
 17 25  1  0  0  0
 25 26  1  0  0  0
 26 27  2  0  0  0
 26 28  2  0  0  0
 26 29  1  0  0  0
 18 19  2  0  0  0
 19 20  1  0  0  0
 19 23  1  0  0  0
 20 21  2  0  0  0
 21 22  1  0  0  0
  6  7  2  0  0  0
  6 11  1  0  0  0
  7  8  1  0  0  0
  8  9  2  0  0  0
  8 10  1  0  0  0
  4 12  1  0  0  0
 14 24  1  0  0  0
M  END
> <minimizedAffinity>
-8.87785

$$$$
985


 28 31  0  0  0  0  0  0  0  0999 V2000
   22.4639    9.5282   31.5238 N   0  0  0  0  0  0  0  0  0  0  0  0
   21.4611    8.6961   31.8292 C   0  0  0  0  0  0  0  0  0  0  0  0
   20.1903    8.9260   32.2595 N   0  0  0  0  0  0  0  0  0  0  0  0
   19.3198    7.9534   32.5155 C   0  0  0  0  0  0  0  0  0  0  0  0
   19.7132    6.6786   32.3421 N   0  0  0  0  0  0  0  0  0  0  0  0
   20.9582    6.3800   31.9173 C   0  0  0  0  0  0  0  0  0  0  0  0
   21.8626    7.3869   31.6512 C   0  0  0  0  0  0  0  0  0  0  0  0
   23.1345    7.4463   31.2301 N   0  0  0  0  0  0  0  0  0  0  0  0
   23.4958    8.7487   31.1544 C   0  0  0  0  0  0  0  0  0  0  0  0
   25.2076    9.4131   30.6079 Br  0  0  0  0  0  0  0  0  0  0  0  0
   21.3693    5.0628   31.7357 O   0  0  0  0  0  0  0  0  0  0  0  0
   17.9995    8.2449   32.9651 N   0  0  0  0  0  0  0  0  0  0  0  0
   20.7045    4.4487   31.2418 H   0  0  0  0  0  0  0  0  0  0  0  0
   17.8297    8.1713   33.9913 H   0  0  0  0  0  0  0  0  0  0  0  0
   17.2279    8.5203   32.3071 H   0  0  0  0  0  0  0  0  0  0  0  0
   21.7305   15.1526   31.6051 P   0  0  0  0  0  0  0  0  0  0  0  0
   22.8287   15.3447   32.6277 O   0  0  0  0  0  0  0  0  0  0  0  0
   22.1815   13.9969   30.4331 O   0  0  0  0  0  0  0  0  0  0  0  0
   21.3833   12.8784   30.6603 C   0  0  0  0  0  0  0  0  0  0  0  0
   21.2937   12.7304   32.1841 C   0  0  0  0  0  0  0  0  0  0  0  0
   21.2330   11.3663   32.3277 O   0  0  0  0  0  0  0  0  0  0  0  0
   22.3581   10.9639   31.6086 C   0  0  0  0  0  0  0  0  0  0  0  0
   22.0665   11.5921   30.2470 C   0  0  0  0  0  0  0  0  0  0  0  0
   23.2018   11.7927   29.5029 O   0  0  0  0  0  0  0  0  0  0  0  0
   20.0998   13.4743   32.6513 C   0  0  0  0  0  0  0  0  0  0  0  0
   20.2468   14.8170   32.2870 O   0  0  0  0  0  0  0  0  0  0  0  0
   21.6062   16.6374   30.7632 O   0  0  0  0  0  0  0  0  0  0  0  0
   23.0442   11.4974   28.5506 H   0  0  0  0  0  0  0  0  0  0  0  0
 16 17  2  0  0  0
 16 18  1  0  0  0
 16 26  1  0  0  0
 16 27  1  0  0  0
 18 19  1  0  0  0
 19 20  1  0  0  0
 19 23  1  0  0  0
 20 21  1  0  0  0
 20 25  1  0  0  0
 21 22  1  0  0  0
 22 23  1  0  0  0
 22  1  1  0  0  0
 23 24  1  0  0  0
  1  2  1  0  0  0
  1  9  1  0  0  0
  2  3  2  0  0  0
  2  7  1  0  0  0
  3  4  1  0  0  0
  4  5  2  0  0  0
  4 12  1  0  0  0
  5  6  1  0  0  0
  6  7  2  0  0  0
  6 11  1  0  0  0
  7  8  1  0  0  0
  8  9  2  0  0  0
  9 10  1  0  0  0
 25 26  1  0  0  0
 24 28  1  0  0  0
 11 13  1  0  0  0
 12 14  1  0  0  0
 12 15  1  0  0  0
M  END
> <minimizedAffinity>
-9.46118

$$$$
991


 34 39  0  0  0  0  0  0  0  0999 V2000
   26.3254    5.3469   29.8221 N   0  0  0  0  0  0  0  0  0  0  0  0
   25.2166    6.0572   30.1486 C   0  0  0  0  0  0  0  0  0  0  0  0
   25.2336    7.2928   29.5372 C   0  0  0  0  0  0  0  0  0  0  0  0
   26.3814    7.3198   28.8281 N   0  0  0  0  0  0  0  0  0  0  0  0
   27.0294    6.1504   29.0055 C   0  0  0  0  0  0  0  0  0  0  0  0
   28.7049    5.6315   28.2427 Br  0  0  0  0  0  0  0  0  0  0  0  0
   24.1877    8.1696   29.7452 C   0  0  0  0  0  0  0  0  0  0  0  0
   24.1924    9.2929   29.1951 O   0  0  0  0  0  0  0  0  0  0  0  0
   23.1336    7.8598   30.5341 N   0  0  0  0  0  0  0  0  0  0  0  0
   23.1375    6.6492   31.1210 C   0  0  0  0  0  0  0  0  0  0  0  0
   22.0019    6.5881   31.8389 N   0  0  0  0  0  0  0  0  0  0  0  0
   21.2789    7.7169   31.7271 C   0  0  0  0  0  0  0  0  0  0  0  0
   22.0061    8.5356   30.8887 C   0  0  0  0  0  0  0  0  0  0  0  0
   24.1611    5.7696   30.9284 N   0  0  0  0  0  0  0  0  0  0  0  0
   24.1592    4.8303   31.3861 H   0  0  0  0  0  0  0  0  0  0  0  0
   27.0147    0.6502   33.1771 P   0  0  0  0  0  0  0  0  0  0  0  0
   27.6768    0.0503   34.6664 S   0  0  0  0  0  0  0  0  0  0  0  0
   27.9545    1.9771   32.6848 O   0  0  0  0  0  0  0  0  0  0  0  0
   27.0630    2.9896   32.3426 C   0  0  0  0  0  0  0  0  0  0  0  0
   25.9527    2.3174   31.5314 C   0  0  0  0  0  0  0  0  0  0  0  0
   25.5583    3.2808   30.6446 O   0  0  0  0  0  0  0  0  0  0  0  0
   26.6869    4.0004   30.2580 C   0  0  0  0  0  0  0  0  0  0  0  0
   27.6457    3.9971   31.3978 C   0  0  0  0  0  0  0  0  0  0  0  0
   28.9245    3.6007   30.9850 O   0  0  0  0  0  0  0  0  0  0  0  0
   24.8850    1.9209   32.5229 C   0  0  0  0  0  0  0  0  0  0  0  0
   25.4200    1.1069   33.4955 O   0  0  0  0  0  0  0  0  0  0  0  0
   26.9744   -0.5543   31.9927 O   0  0  0  0  0  0  0  0  0  0  0  0
   28.9512    2.6581   30.7227 H   0  0  0  0  0  0  0  0  0  0  0  0
   19.9893    8.0206   32.3614 C   0  0  0  0  0  0  0  0  0  0  0  0
   19.8127    9.2034   33.0432 C   0  0  0  0  0  0  0  0  0  0  0  0
   18.6050    9.5191   33.6528 C   0  0  0  0  0  0  0  0  0  0  0  0
   17.5658    8.6210   33.5674 C   0  0  0  0  0  0  0  0  0  0  0  0
   17.7026    7.4188   32.8909 C   0  0  0  0  0  0  0  0  0  0  0  0
   18.9224    7.1586   32.3050 C   0  0  0  0  0  0  0  0  0  0  0  0
 16 17  2  0  0  0
 16 18  1  0  0  0
 16 26  1  0  0  0
 16 27  1  0  0  0
 18 19  1  0  0  0
 19 20  1  0  0  0
 19 23  1  0  0  0
 20 21  1  0  0  0
 20 25  1  0  0  0
 21 22  1  0  0  0
 22 23  1  0  0  0
 22  1  1  0  0  0
 23 24  1  0  0  0
  1  2  1  0  0  0
  1  5  1  0  0  0
  2  3  2  0  0  0
  2 14  1  0  0  0
  3  4  1  0  0  0
  3  7  1  0  0  0
  4  5  2  0  0  0
  5  6  1  0  0  0
  7  8  2  0  0  0
  7  9  1  0  0  0
  9 10  1  0  0  0
  9 13  1  0  0  0
 10 11  2  0  0  0
 10 14  1  0  0  0
 11 12  1  0  0  0
 12 13  2  0  0  0
 12 29  1  0  0  0
 29 30  2  0  0  0
 29 34  1  0  0  0
 30 31  1  0  0  0
 31 32  2  0  0  0
 32 33  1  0  0  0
 33 34  2  0  0  0
 25 26  1  0  0  0
 24 28  1  0  0  0
 14 15  1  0  0  0
M  END
> <minimizedAffinity>
-9.47904

$$$$
993


 26 29  0  0  0  0  0  0  0  0999 V2000
   24.7642   11.8965   29.3800 P   0  0  0  0  0  0  0  0  0  0  0  0
   23.5012   13.1005   29.3389 S   0  0  0  0  0  0  0  0  0  0  0  0
   24.1097   10.3644   29.0062 O   0  0  0  0  0  0  0  0  0  0  0  0
   23.3687    9.9733   30.0940 C   0  0  0  0  0  0  0  0  0  0  0  0
   24.3060    9.8345   31.3011 C   0  0  0  0  0  0  0  0  0  0  0  0
   23.4834    9.1172   32.1679 O   0  0  0  0  0  0  0  0  0  0  0  0
   22.9681    8.0830   31.4234 C   0  0  0  0  0  0  0  0  0  0  0  0
   22.8694    8.5443   29.9913 C   0  0  0  0  0  0  0  0  0  0  0  0
   23.8366    7.8361   29.2651 O   0  0  0  0  0  0  0  0  0  0  0  0
   24.7002   11.1741   31.8403 C   0  0  0  0  0  0  0  0  0  0  0  0
   25.4730   11.8174   30.8905 O   0  0  0  0  0  0  0  0  0  0  0  0
   25.8864   12.2822   28.2054 O   0  0  0  0  0  0  0  0  0  0  0  0
   23.4755    7.3936   28.4751 H   0  0  0  0  0  0  0  0  0  0  0  0
   21.6371    7.6906   31.8463 N   0  0  0  0  0  0  0  0  0  0  0  0
   20.7364    8.5374   32.4056 C   0  0  0  0  0  0  0  0  0  0  0  0
   20.7969    9.8598   32.7077 N   0  0  0  0  0  0  0  0  0  0  0  0
   19.7505   10.4939   33.2718 C   0  0  0  0  0  0  0  0  0  0  0  0
   18.6149    9.8057   33.5453 N   0  0  0  0  0  0  0  0  0  0  0  0
   18.5161    8.4950   33.2613 C   0  0  0  0  0  0  0  0  0  0  0  0
   19.5826    7.8325   32.6818 C   0  0  0  0  0  0  0  0  0  0  0  0
   19.7853    6.5615   32.2898 N   0  0  0  0  0  0  0  0  0  0  0  0
   21.0367    6.4902   31.7847 C   0  0  0  0  0  0  0  0  0  0  0  0
   21.9081    4.9389   31.0630 Br  0  0  0  0  0  0  0  0  0  0  0  0
   17.3101    7.7826   33.5558 N   0  0  0  0  0  0  0  0  0  0  0  0
   16.4139    8.3332   33.6573 H   0  0  0  0  0  0  0  0  0  0  0  0
   17.2851    6.7505   33.6723 H   0  0  0  0  0  0  0  0  0  0  0  0
  1  2  2  0  0  0
  1  3  1  0  0  0
  1 11  1  0  0  0
  1 12  1  0  0  0
  3  4  1  0  0  0
  4  5  1  0  0  0
  4  8  1  0  0  0
  5  6  1  0  0  0
  5 10  1  0  0  0
  6  7  1  0  0  0
  7  8  1  0  0  0
  7 14  1  0  0  0
  8  9  1  0  0  0
 14 15  1  0  0  0
 14 22  1  0  0  0
 15 16  2  0  0  0
 15 20  1  0  0  0
 16 17  1  0  0  0
 17 18  2  0  0  0
 18 19  1  0  0  0
 19 20  2  0  0  0
 19 24  1  0  0  0
 20 21  1  0  0  0
 21 22  2  0  0  0
 22 23  1  0  0  0
 10 11  1  0  0  0
  9 13  1  0  0  0
 24 25  1  0  0  0
 24 26  1  0  0  0
M  END
> <minimizedAffinity>
-8.98052

$$$$
999


 35 38  0  0  0  0  0  0  0  0999 V2000
   27.8233    9.1878   28.2663 N   0  0  0  0  0  0  0  0  0  0  0  0
   27.2875   10.4524   27.9190 C   0  0  0  0  0  0  0  0  0  0  0  0
   27.7095   11.0120   26.8720 O   0  0  0  0  0  0  0  0  0  0  0  0
   27.4560    8.7407   29.1440 H   0  0  0  0  0  0  0  0  0  0  0  0
   29.8635    7.0124   29.5542 S   0  0  0  0  0  0  0  0  0  0  0  0
   29.4203    7.3210   27.8463 C   0  0  0  0  0  0  0  0  0  0  0  0
   28.1373    6.7418   27.6037 N   0  0  0  0  0  0  0  0  0  0  0  0
   27.4381    5.7394   28.3470 C   0  0  0  0  0  0  0  0  0  0  0  0
   28.0706    5.0377   29.2339 C   0  0  0  0  0  0  0  0  0  0  0  0
   29.5622    5.2072   29.5568 C   0  0  0  0  0  0  0  0  0  0  0  0
   28.1031    7.6254   26.4966 C   0  0  0  0  0  0  0  0  0  0  0  0
   27.7427    7.7516   25.3207 O   0  0  0  0  0  0  0  0  0  0  0  0
   28.8138    8.5937   27.4280 C   0  0  0  0  0  0  0  0  0  0  0  0
   25.9911    5.5805   28.0194 C   0  0  0  0  0  0  0  0  0  0  0  0
   25.5000    4.7416   27.2951 O   0  0  0  0  0  0  0  0  0  0  0  0
   25.0704    6.4785   28.5913 O   0  0  0  0  0  0  0  0  0  0  0  0
   27.5017    4.0036   30.0598 C   0  0  0  0  0  0  0  0  0  0  0  0
   26.9232    4.2405   31.2616 O   0  0  0  0  0  0  0  0  0  0  0  0
   25.6995    3.6832   31.6516 C   0  0  0  0  0  0  0  0  0  0  0  0
   25.7393    2.5939   32.2532 O   0  0  0  0  0  0  0  0  0  0  0  0
   24.4613    4.4267   31.3192 C   0  0  0  0  0  0  0  0  0  0  0  0
   26.2676   11.1177   28.7357 C   0  0  0  0  0  0  0  0  0  0  0  0
   25.9846   10.9596   29.9907 O   0  0  0  0  0  0  0  0  0  0  0  0
   25.0142   11.7221   30.3786 C   0  0  0  0  0  0  0  0  0  0  0  0
   24.6026   12.4682   29.2683 C   0  0  0  0  0  0  0  0  0  0  0  0
   25.4087   12.0706   28.2359 C   0  0  0  0  0  0  0  0  0  0  0  0
   24.4010   11.8294   31.7528 C   0  0  0  0  0  0  0  0  0  0  0  0
   23.0178   11.5925   31.7023 O   0  0  0  0  0  0  0  0  0  0  0  0
   22.4026   10.3822   31.8481 C   0  0  0  0  0  0  0  0  0  0  0  0
   21.1779   10.1902   32.4816 C   0  0  0  0  0  0  0  0  0  0  0  0
   20.6470    8.9229   32.5705 C   0  0  0  0  0  0  0  0  0  0  0  0
   21.2656    7.8053   32.0608 C   0  0  0  0  0  0  0  0  0  0  0  0
   22.4838    7.9871   31.4288 C   0  0  0  0  0  0  0  0  0  0  0  0
   23.0249    9.2626   31.3350 C   0  0  0  0  0  0  0  0  0  0  0  0
   20.4808    6.0735   32.2137 Br  0  0  0  0  0  0  0  0  0  0  0  0
  5  6  1  0  0  0
  5 10  1  0  0  0
  6  7  1  0  0  0
  6 13  1  0  0  0
  7  8  1  0  0  0
  7 11  1  0  0  0
  8  9  2  0  0  0
  8 14  1  0  0  0
  9 10  1  0  0  0
  9 17  1  0  0  0
 17 18  1  0  0  0
 18 19  1  0  0  0
 19 20  2  0  0  0
 19 21  1  0  0  0
 14 15  2  0  0  0
 14 16  1  0  0  0
 11 12  2  0  0  0
 11 13  1  0  0  0
 13  1  1  0  0  0
  1  2  1  0  0  0
  2  3  2  0  0  0
  2 22  1  0  0  0
 22 23  1  0  0  0
 22 26  2  0  0  0
 23 24  1  0  0  0
 24 25  2  0  0  0
 24 27  1  0  0  0
 25 26  1  0  0  0
 27 28  1  0  0  0
 28 29  1  0  0  0
 29 30  2  0  0  0
 29 34  1  0  0  0
 30 31  1  0  0  0
 31 32  2  0  0  0
 32 33  1  0  0  0
 32 35  1  0  0  0
 33 34  2  0  0  0
  1  4  1  0  0  0
M  END
> <minimizedAffinity>
-7.40394

$$$$
1001


 26 29  0  0  0  0  0  0  0  0999 V2000
   24.9529   11.6783   29.3914 P   0  0  0  0  0  0  0  0  0  0  0  0
   24.8969   12.6867   28.2422 O   0  0  0  0  0  0  0  0  0  0  0  0
   24.1342   10.3000   28.8941 O   0  0  0  0  0  0  0  0  0  0  0  0
   23.2624    9.8493   29.8512 C   0  0  0  0  0  0  0  0  0  0  0  0
   23.9054   10.1584   31.2102 C   0  0  0  0  0  0  0  0  0  0  0  0
   23.4310    9.2216   32.0790 O   0  0  0  0  0  0  0  0  0  0  0  0
   23.0623    8.0951   31.3971 C   0  0  0  0  0  0  0  0  0  0  0  0
   23.1559    8.3498   29.9327 C   0  0  0  0  0  0  0  0  0  0  0  0
   24.2483    7.7565   29.3316 O   0  0  0  0  0  0  0  0  0  0  0  0
   23.5396   11.5722   31.5298 C   0  0  0  0  0  0  0  0  0  0  0  0
   24.2803   12.4107   30.7317 O   0  0  0  0  0  0  0  0  0  0  0  0
   26.6118   11.3276   29.6178 O   0  0  0  0  0  0  0  0  0  0  0  0
   24.1314    7.5836   28.3834 H   0  0  0  0  0  0  0  0  0  0  0  0
   21.7148    7.7396   31.8223 N   0  0  0  0  0  0  0  0  0  0  0  0
   20.8132    8.5797   32.3827 C   0  0  0  0  0  0  0  0  0  0  0  0
   20.8959    9.8866   32.6848 N   0  0  0  0  0  0  0  0  0  0  0  0
   19.8422   10.5015   33.2461 C   0  0  0  0  0  0  0  0  0  0  0  0
   18.7184    9.8060   33.4993 N   0  0  0  0  0  0  0  0  0  0  0  0
   18.5641    8.5020   33.2246 C   0  0  0  0  0  0  0  0  0  0  0  0
   19.6601    7.8694   32.6429 C   0  0  0  0  0  0  0  0  0  0  0  0
   19.8553    6.6145   32.2473 N   0  0  0  0  0  0  0  0  0  0  0  0
   21.1039    6.5462   31.7516 C   0  0  0  0  0  0  0  0  0  0  0  0
   21.9706    4.9863   31.0201 Br  0  0  0  0  0  0  0  0  0  0  0  0
   17.3832    7.7577   33.4868 N   0  0  0  0  0  0  0  0  0  0  0  0
   17.2782    7.3178   34.4489 H   0  0  0  0  0  0  0  0  0  0  0  0
   16.6239    7.6163   32.8141 H   0  0  0  0  0  0  0  0  0  0  0  0
  1  2  2  0  0  0
  1  3  1  0  0  0
  1 11  1  0  0  0
  1 12  1  0  0  0
  3  4  1  0  0  0
  4  5  1  0  0  0
  4  8  1  0  0  0
  5  6  1  0  0  0
  5 10  1  0  0  0
  6  7  1  0  0  0
  7  8  1  0  0  0
  7 14  1  0  0  0
  8  9  1  0  0  0
 14 15  1  0  0  0
 14 22  1  0  0  0
 15 16  2  0  0  0
 15 20  1  0  0  0
 16 17  1  0  0  0
 17 18  2  0  0  0
 18 19  1  0  0  0
 19 20  2  0  0  0
 19 24  1  0  0  0
 20 21  1  0  0  0
 21 22  2  0  0  0
 22 23  1  0  0  0
 10 11  1  0  0  0
  9 13  1  0  0  0
 24 25  1  0  0  0
 24 26  1  0  0  0
M  END
> <minimizedAffinity>
-9.22462

$$$$
1008


 29 32  0  0  0  0  0  0  0  0999 V2000
   23.4715    6.8220   29.8388 C   0  0  0  0  0  0  0  0  0  0  0  0
   22.3514    6.3146   29.5855 O   0  0  0  0  0  0  0  0  0  0  0  0
   23.5589    8.1826   30.2583 N   0  0  0  0  0  0  0  0  0  0  0  0
   22.3654    8.9897   30.3932 C   0  0  0  0  0  0  0  0  0  0  0  0
   22.3900    9.8821   31.5948 C   0  0  0  0  0  0  0  0  0  0  0  0
   23.5008    9.3617   32.5109 C   0  0  0  0  0  0  0  0  0  0  0  0
   24.7956    9.6505   31.7828 C   0  0  0  0  0  0  0  0  0  0  0  0
   24.8347    8.7805   30.5530 C   0  0  0  0  0  0  0  0  0  0  0  0
   21.0806    9.9297   32.3207 C   0  0  0  0  0  0  0  0  0  0  0  0
   20.2153    8.8967   32.4951 N   0  0  0  0  0  0  0  0  0  0  0  0
   19.1487    9.2992   33.1917 C   0  0  0  0  0  0  0  0  0  0  0  0
   19.3751   10.6225   33.4490 N   0  0  0  0  0  0  0  0  0  0  0  0
   20.5283   10.9922   32.9271 N   0  0  0  0  0  0  0  0  0  0  0  0
   18.1656    8.1979   33.4096 C   0  0  0  0  0  0  0  0  0  0  0  0
   18.9664    6.9906   33.0313 C   0  0  0  0  0  0  0  0  0  0  0  0
   20.0951    7.4904   32.1548 C   0  0  0  0  0  0  0  0  0  0  0  0
   26.7660    5.5368   28.6027 C   0  0  0  0  0  0  0  0  0  0  0  0
   25.6289    6.2984   28.7428 C   0  0  0  0  0  0  0  0  0  0  0  0
   24.6635    6.0092   29.7019 C   0  0  0  0  0  0  0  0  0  0  0  0
   24.8803    4.9222   30.5197 C   0  0  0  0  0  0  0  0  0  0  0  0
   26.0303    4.1449   30.3835 C   0  0  0  0  0  0  0  0  0  0  0  0
   26.9751    4.4461   29.4282 C   0  0  0  0  0  0  0  0  0  0  0  0
   23.6116    4.4630   31.8495 Br  0  0  0  0  0  0  0  0  0  0  0  0
   27.9341    5.9516   27.3835 S   0  0  0  0  0  0  0  0  0  0  0  0
   29.2899    6.1095   28.0402 O   0  0  0  0  0  0  0  0  0  0  0  0
   27.5731    7.2578   26.7196 O   0  0  0  0  0  0  0  0  0  0  0  0
   28.0734    4.6852   26.2356 N   0  0  0  0  0  0  0  0  0  0  0  0
   27.6438    4.9453   25.3151 H   0  0  0  0  0  0  0  0  0  0  0  0
   27.6280    3.8088   26.6056 H   0  0  0  0  0  0  0  0  0  0  0  0
 24 25  2  0  0  0
 24 26  2  0  0  0
 24 27  1  0  0  0
 24 17  1  0  0  0
 17 18  2  0  0  0
 17 22  1  0  0  0
 18 19  1  0  0  0
 19 20  2  0  0  0
 19  1  1  0  0  0
 20 21  1  0  0  0
 20 23  1  0  0  0
 21 22  2  0  0  0
  1  2  2  0  0  0
  1  3  1  0  0  0
  3  4  1  0  0  0
  3  8  1  0  0  0
  4  5  1  0  0  0
  5  6  1  0  0  0
  5  9  1  0  0  0
  6  7  1  0  0  0
  7  8  1  0  0  0
  9 10  1  0  0  0
  9 13  2  0  0  0
 10 11  1  0  0  0
 10 16  1  0  0  0
 11 12  2  0  0  0
 11 14  1  0  0  0
 12 13  1  0  0  0
 14 15  1  0  0  0
 15 16  1  0  0  0
 27 28  1  0  0  0
 27 29  1  0  0  0
M  END
> <minimizedAffinity>
-8.99550

$$$$
1011


 29 32  0  0  0  0  0  0  0  0999 V2000
   24.1908    9.2129   30.2932 C   0  0  0  0  0  0  0  0  0  0  0  0
   22.9484    8.9926   30.8960 C   0  0  0  0  0  0  0  0  0  0  0  0
   22.5504    7.7173   31.2327 C   0  0  0  0  0  0  0  0  0  0  0  0
   23.3417    6.6072   30.9975 C   0  0  0  0  0  0  0  0  0  0  0  0
   24.5582    6.8121   30.4093 C   0  0  0  0  0  0  0  0  0  0  0  0
   24.9692    8.1042   30.0647 C   0  0  0  0  0  0  0  0  0  0  0  0
   26.6731    8.3813   29.2300 Br  0  0  0  0  0  0  0  0  0  0  0  0
   22.6257    5.3859   31.4612 C   0  0  0  0  0  0  0  0  0  0  0  0
   21.1640    5.8799   31.5067 C   0  0  0  0  0  0  0  0  0  0  0  0
   21.3302    7.2808   31.8591 N   0  0  0  0  0  0  0  0  0  0  0  0
   20.5125    8.1157   32.6556 C   0  0  0  0  0  0  0  0  0  0  0  0
   20.7917    9.3131   32.8953 O   0  0  0  0  0  0  0  0  0  0  0  0
   19.2702    7.5512   33.2343 C   0  0  0  0  0  0  0  0  0  0  0  0
   18.1262    7.4866   32.3071 C   0  0  0  0  0  0  0  0  0  0  0  0
   18.0974    8.4255   33.4881 C   0  0  0  0  0  0  0  0  0  0  0  0
   24.6712   10.8375   29.8829 S   0  0  0  0  0  0  0  0  0  0  0  0
   26.0991   11.0894   30.3533 O   0  0  0  0  0  0  0  0  0  0  0  0
   24.6780   11.0640   28.4091 O   0  0  0  0  0  0  0  0  0  0  0  0
   23.6963   11.9878   30.7152 N   0  0  0  0  0  0  0  0  0  0  0  0
   23.0795   11.4709   31.3720 H   0  0  0  0  0  0  0  0  0  0  0  0
   22.9187   12.8171   29.8167 C   0  0  0  0  0  0  0  0  0  0  0  0
   21.5139   12.8744   30.3981 C   0  0  0  0  0  0  0  0  0  0  0  0
   21.5462   13.2956   31.8431 C   0  0  0  0  0  0  0  0  0  0  0  0
   21.9850   14.6383   31.9201 N   0  0  0  0  0  0  0  0  0  0  0  0
   21.0045   15.6406   31.7001 C   0  0  0  0  0  0  0  0  0  0  0  0
   21.7130   16.9289   31.3167 C   0  0  0  0  0  0  0  0  0  0  0  0
   22.8312   17.1445   32.0972 O   0  0  0  0  0  0  0  0  0  0  0  0
   22.8369   16.4072   33.2752 C   0  0  0  0  0  0  0  0  0  0  0  0
   22.9855   14.9357   32.8776 C   0  0  0  0  0  0  0  0  0  0  0  0
 16 17  2  0  0  0
 16 18  2  0  0  0
 16 19  1  0  0  0
 16  1  1  0  0  0
 19 21  1  0  0  0
 21 22  1  0  0  0
 22 23  1  0  0  0
 23 24  1  0  0  0
 24 25  1  0  0  0
 24 29  1  0  0  0
 25 26  1  0  0  0
 26 27  1  0  0  0
 27 28  1  0  0  0
 28 29  1  0  0  0
  1  2  2  0  0  0
  1  6  1  0  0  0
  2  3  1  0  0  0
  3  4  2  0  0  0
  3 10  1  0  0  0
  4  5  1  0  0  0
  4  8  1  0  0  0
  5  6  2  0  0  0
  6  7  1  0  0  0
  8  9  1  0  0  0
  9 10  1  0  0  0
 10 11  1  0  0  0
 11 12  2  0  0  0
 11 13  1  0  0  0
 13 14  1  0  0  0
 13 15  1  0  0  0
 14 15  1  0  0  0
 19 20  1  0  0  0
M  END
> <minimizedAffinity>
-8.39087

$$$$
1027


 32 35  0  0  0  0  0  0  0  0999 V2000
   25.3300   11.1480   30.0819 S   0  0  0  0  0  0  0  0  0  0  0  0
   26.8330   11.1428   29.8013 O   0  0  0  0  0  0  0  0  0  0  0  0
   25.2341   11.0214   31.5845 O   0  0  0  0  0  0  0  0  0  0  0  0
   24.7434   12.7050   29.5645 C   0  0  0  0  0  0  0  0  0  0  0  0
   23.7661   13.3381   30.3430 C   0  0  0  0  0  0  0  0  0  0  0  0
   23.1761   14.5357   30.0081 C   0  0  0  0  0  0  0  0  0  0  0  0
   23.5420   15.1804   28.8464 C   0  0  0  0  0  0  0  0  0  0  0  0
   24.4999   14.5754   28.0711 C   0  0  0  0  0  0  0  0  0  0  0  0
   25.0996   13.3536   28.4183 C   0  0  0  0  0  0  0  0  0  0  0  0
   26.4994   12.6590   27.3066 Br  0  0  0  0  0  0  0  0  0  0  0  0
   22.7856   16.4471   28.6925 C   0  0  0  0  0  0  0  0  0  0  0  0
   22.2798   16.6789   30.1171 C   0  0  0  0  0  0  0  0  0  0  0  0
   22.1779   15.3270   30.6562 N   0  0  0  0  0  0  0  0  0  0  0  0
   21.2445   14.9204   31.6258 C   0  0  0  0  0  0  0  0  0  0  0  0
   20.4428   15.7949   32.1067 O   0  0  0  0  0  0  0  0  0  0  0  0
   21.0902   13.5455   32.1587 C   0  0  0  0  0  0  0  0  0  0  0  0
   24.6718    9.7999   29.3343 N   0  0  0  0  0  0  0  0  0  0  0  0
   23.3266    9.7475   28.9800 C   0  0  0  0  0  0  0  0  0  0  0  0
   22.4043    9.2839   30.0405 C   0  0  0  0  0  0  0  0  0  0  0  0
   21.2027    9.6443   30.0553 O   0  0  0  0  0  0  0  0  0  0  0  0
   22.9587    8.4176   31.0243 N   0  0  0  0  0  0  0  0  0  0  0  0
   24.2338    7.8666   30.7390 C   0  0  0  0  0  0  0  0  0  0  0  0
   24.5381    6.7624   31.2714 O   0  0  0  0  0  0  0  0  0  0  0  0
   25.1988    8.5436   29.8477 C   0  0  0  0  0  0  0  0  0  0  0  0
   22.2307    8.1286   32.2414 C   0  0  0  0  0  0  0  0  0  0  0  0
   21.0781    7.2002   32.0724 C   0  0  0  0  0  0  0  0  0  0  0  0
   19.7890    7.6847   32.5618 C   0  0  0  0  0  0  0  0  0  0  0  0
   18.6411    6.9515   32.4432 C   0  0  0  0  0  0  0  0  0  0  0  0
   17.4672    7.4649   32.9184 C   0  0  0  0  0  0  0  0  0  0  0  0
   17.4016    8.7159   33.5220 C   0  0  0  0  0  0  0  0  0  0  0  0
   18.5633    9.4301   33.6291 C   0  0  0  0  0  0  0  0  0  0  0  0
   19.7605    8.9440   33.1624 C   0  0  0  0  0  0  0  0  0  0  0  0
  1  2  2  0  0  0
  1  3  2  0  0  0
  1 17  1  0  0  0
  1  4  1  0  0  0
 17 18  1  0  0  0
 17 24  1  0  0  0
 18 19  1  0  0  0
 19 20  2  0  0  0
 19 21  1  0  0  0
 21 22  1  0  0  0
 21 25  1  0  0  0
 22 23  2  0  0  0
 22 24  1  0  0  0
 25 26  1  0  0  0
 26 27  1  0  0  0
 27 28  2  0  0  0
 27 32  1  0  0  0
 28 29  1  0  0  0
 29 30  2  0  0  0
 30 31  1  0  0  0
 31 32  2  0  0  0
  4  5  2  0  0  0
  4  9  1  0  0  0
  5  6  1  0  0  0
  6  7  2  0  0  0
  6 13  1  0  0  0
  7  8  1  0  0  0
  7 11  1  0  0  0
  8  9  2  0  0  0
  9 10  1  0  0  0
 11 12  1  0  0  0
 12 13  1  0  0  0
 13 14  1  0  0  0
 14 15  2  0  0  0
 14 16  1  0  0  0
M  END
> <minimizedAffinity>
-9.18402

$$$$
1028


 25 28  0  0  0  0  0  0  0  0999 V2000
   24.9759    7.7257   29.1867 N   0  0  0  0  0  0  0  0  0  0  0  0
   23.9494    8.1605   30.0651 C   0  0  0  0  0  0  0  0  0  0  0  0
   24.9145    8.9596   30.8506 C   0  0  0  0  0  0  0  0  0  0  0  0
   25.8959    8.6292   29.7810 C   0  0  0  0  0  0  0  0  0  0  0  0
   24.6492   10.3819   30.9482 N   0  0  0  0  0  0  0  0  0  0  0  0
   24.9612   11.2029   31.9170 N   0  0  0  0  0  0  0  0  0  0  0  0
   24.5397   12.4424   31.6314 N   0  0  0  0  0  0  0  0  0  0  0  0
   23.9319   12.4239   30.4324 C   0  0  0  0  0  0  0  0  0  0  0  0
   24.0104   11.1036   30.0125 C   0  0  0  0  0  0  0  0  0  0  0  0
   23.3026   13.5733   29.6996 C   0  0  0  0  0  0  0  0  0  0  0  0
   22.2398   14.1024   30.5346 N   0  0  0  0  0  0  0  0  0  0  0  0
   21.2103   13.3313   31.1642 C   0  0  0  0  0  0  0  0  0  0  0  0
   20.4032   14.3024   31.9776 C   0  0  0  0  0  0  0  0  0  0  0  0
   21.1320   15.6065   32.0167 C   0  0  0  0  0  0  0  0  0  0  0  0
   22.0712   15.4814   30.8484 C   0  0  0  0  0  0  0  0  0  0  0  0
   22.5919   16.4590   30.2814 O   0  0  0  0  0  0  0  0  0  0  0  0
   25.4459    6.1042   29.1905 S   0  0  0  0  0  0  0  0  0  0  0  0
   26.9233    6.0261   29.4489 O   0  0  0  0  0  0  0  0  0  0  0  0
   25.2106    5.4407   27.8544 O   0  0  0  0  0  0  0  0  0  0  0  0
   24.6598    5.1432   30.4410 C   0  0  0  0  0  0  0  0  0  0  0  0
   25.3611    3.9397   31.4405 S   0  0  0  0  0  0  0  0  0  0  0  0
   23.9840    3.5023   32.3510 C   0  0  0  0  0  0  0  0  0  0  0  0
   23.0104    4.3199   31.8384 C   0  0  0  0  0  0  0  0  0  0  0  0
   23.3632    5.1577   30.8616 C   0  0  0  0  0  0  0  0  0  0  0  0
   23.8078    2.1934   33.7535 Br  0  0  0  0  0  0  0  0  0  0  0  0
 17 18  2  0  0  0
 17 19  2  0  0  0
 17  1  1  0  0  0
 17 20  1  0  0  0
  1  2  1  0  0  0
  1  4  1  0  0  0
  2  3  1  0  0  0
  3  4  1  0  0  0
  3  5  1  0  0  0
  5  6  1  0  0  0
  5  9  1  0  0  0
  6  7  2  0  0  0
  7  8  1  0  0  0
  8  9  2  0  0  0
  8 10  1  0  0  0
 10 11  1  0  0  0
 11 12  1  0  0  0
 11 15  1  0  0  0
 12 13  1  0  0  0
 13 14  1  0  0  0
 14 15  1  0  0  0
 15 16  2  0  0  0
 20 21  1  0  0  0
 20 24  2  0  0  0
 21 22  1  0  0  0
 22 23  2  0  0  0
 22 25  1  0  0  0
 23 24  1  0  0  0
M  END
> <minimizedAffinity>
-7.68195

$$$$
1037


 31 34  0  0  0  0  0  0  0  0999 V2000
   24.1685   10.8359   29.7170 N   0  0  0  0  0  0  0  0  0  0  0  0
   25.5179   10.3960   29.6137 C   0  0  0  0  0  0  0  0  0  0  0  0
   25.8108    8.9820   29.8111 C   0  0  0  0  0  0  0  0  0  0  0  0
   24.7088    8.0402   29.7861 N   0  0  0  0  0  0  0  0  0  0  0  0
   23.3546    8.4976   29.8460 C   0  0  0  0  0  0  0  0  0  0  0  0
   23.2006    9.9004   29.2711 C   0  0  0  0  0  0  0  0  0  0  0  0
   25.0124    6.6821   29.6770 C   0  0  0  0  0  0  0  0  0  0  0  0
   26.3386    6.5060   29.4951 O   0  0  0  0  0  0  0  0  0  0  0  0
   23.7632   11.6895   31.1234 S   0  0  0  0  0  0  0  0  0  0  0  0
   24.9566   11.7339   32.0376 O   0  0  0  0  0  0  0  0  0  0  0  0
   22.6715   10.9621   31.8895 O   0  0  0  0  0  0  0  0  0  0  0  0
   23.2989   13.3555   30.8480 C   0  0  0  0  0  0  0  0  0  0  0  0
   23.6009   13.9718   29.6345 C   0  0  0  0  0  0  0  0  0  0  0  0
   23.2742   15.2828   29.3631 C   0  0  0  0  0  0  0  0  0  0  0  0
   22.6224   16.0548   30.2983 C   0  0  0  0  0  0  0  0  0  0  0  0
   22.3209   15.4523   31.5000 C   0  0  0  0  0  0  0  0  0  0  0  0
   22.6476   14.1306   31.7812 C   0  0  0  0  0  0  0  0  0  0  0  0
   22.2867   17.3970   30.0308 O   0  0  0  0  0  0  0  0  0  0  0  0
   22.1052   17.8230   28.6689 C   0  0  0  0  0  0  0  0  0  0  0  0
   23.2522   17.2590   27.9114 C   0  0  0  0  0  0  0  0  0  0  0  0
   23.9221   17.9399   27.1019 O   0  0  0  0  0  0  0  0  0  0  0  0
   23.6066   15.9019   28.1088 N   0  0  0  0  0  0  0  0  0  0  0  0
   24.0932   15.3163   27.4149 H   0  0  0  0  0  0  0  0  0  0  0  0
   24.2367    5.4765   29.7171 C   0  0  0  0  0  0  0  0  0  0  0  0
   24.3128    4.5562   30.8492 C   0  0  0  0  0  0  0  0  0  0  0  0
   23.2752    4.4289   31.7398 C   0  0  0  0  0  0  0  0  0  0  0  0
   23.3579    3.5421   32.8128 C   0  0  0  0  0  0  0  0  0  0  0  0
   24.4840    2.7905   32.9772 C   0  0  0  0  0  0  0  0  0  0  0  0
   25.5412    2.9131   32.0737 C   0  0  0  0  0  0  0  0  0  0  0  0
   25.4576    3.7787   31.0299 C   0  0  0  0  0  0  0  0  0  0  0  0
   21.6852    5.4799   31.5329 Br  0  0  0  0  0  0  0  0  0  0  0  0
  9 10  2  0  0  0
  9 11  2  0  0  0
  9  1  1  0  0  0
  9 12  1  0  0  0
  1  2  1  0  0  0
  1  6  1  0  0  0
  2  3  1  0  0  0
  3  4  1  0  0  0
  4  5  1  0  0  0
  4  7  1  0  0  0
  5  6  1  0  0  0
  7  8  2  0  0  0
  7 24  1  0  0  0
 24 25  1  0  0  0
 25 26  2  0  0  0
 25 30  1  0  0  0
 26 27  1  0  0  0
 26 31  1  0  0  0
 27 28  2  0  0  0
 28 29  1  0  0  0
 29 30  2  0  0  0
 12 13  2  0  0  0
 12 17  1  0  0  0
 13 14  1  0  0  0
 14 15  2  0  0  0
 14 22  1  0  0  0
 15 16  1  0  0  0
 15 18  1  0  0  0
 16 17  2  0  0  0
 18 19  1  0  0  0
 19 20  1  0  0  0
 20 21  2  0  0  0
 20 22  1  0  0  0
 22 23  1  0  0  0
M  END
> <minimizedAffinity>
-9.34348

$$$$
1040


 34 38  0  0  0  0  0  0  0  0999 V2000
   23.9916   12.2770   30.4439 S   0  0  0  0  0  0  0  0  0  0  0  0
   25.1989   11.8664   29.6927 O   0  0  0  0  0  0  0  0  0  0  0  0
   24.4288   12.2894   31.9132 O   0  0  0  0  0  0  0  0  0  0  0  0
   23.4375   13.8891   30.1160 C   0  0  0  0  0  0  0  0  0  0  0  0
   23.9165   14.6356   29.0305 C   0  0  0  0  0  0  0  0  0  0  0  0
   23.4731   15.9182   28.7777 C   0  0  0  0  0  0  0  0  0  0  0  0
   22.5330   16.5204   29.5890 C   0  0  0  0  0  0  0  0  0  0  0  0
   22.0623   15.7985   30.6508 C   0  0  0  0  0  0  0  0  0  0  0  0
   22.5176   14.5068   30.8936 C   0  0  0  0  0  0  0  0  0  0  0  0
   21.9277   13.8610   32.0782 C   0  0  0  0  0  0  0  0  0  0  0  0
   20.4210   14.0003   32.0753 C   0  0  0  0  0  0  0  0  0  0  0  0
   20.0307   15.3078   31.7060 N   0  0  0  0  0  0  0  0  0  0  0  0
   21.0514   16.3022   31.6086 C   0  0  0  0  0  0  0  0  0  0  0  0
   18.9693   15.4216   30.7687 C   0  0  0  0  0  0  0  0  0  0  0  0
   24.1302   16.3693   27.6540 O   0  0  0  0  0  0  0  0  0  0  0  0
   25.0886   15.4215   27.2769 C   0  0  0  0  0  0  0  0  0  0  0  0
   24.8543   14.2682   28.0704 O   0  0  0  0  0  0  0  0  0  0  0  0
   22.0756   17.8304   29.3371 O   0  0  0  0  0  0  0  0  0  0  0  0
   22.3986   18.4384   28.0784 C   0  0  0  0  0  0  0  0  0  0  0  0
   22.7138   11.1260   30.3856 N   0  0  0  0  0  0  0  0  0  0  0  0
   22.4124   10.5245   31.6385 C   0  0  0  0  0  0  0  0  0  0  0  0
   23.2396    9.2841   31.9507 C   0  0  0  0  0  0  0  0  0  0  0  0
   23.1580    8.3871   30.8473 N   0  0  0  0  0  0  0  0  0  0  0  0
   23.6815    9.0014   29.5847 C   0  0  0  0  0  0  0  0  0  0  0  0
   22.8312   10.1962   29.3142 C   0  0  0  0  0  0  0  0  0  0  0  0
   22.6928    7.0912   30.7485 C   0  0  0  0  0  0  0  0  0  0  0  0
   22.7699    6.5654   29.5421 O   0  0  0  0  0  0  0  0  0  0  0  0
   22.1359    6.2054   31.7291 C   0  0  0  0  0  0  0  0  0  0  0  0
   20.8737    6.4934   32.3064 N   0  0  0  0  0  0  0  0  0  0  0  0
   20.0228    5.6412   32.8754 N   0  0  0  0  0  0  0  0  0  0  0  0
   18.9462    6.2832   33.3457 C   0  0  0  0  0  0  0  0  0  0  0  0
   19.1395    7.6106   33.0515 C   0  0  0  0  0  0  0  0  0  0  0  0
   20.3339    7.7367   32.4078 C   0  0  0  0  0  0  0  0  0  0  0  0
   17.9337    9.0494   33.4729 Br  0  0  0  0  0  0  0  0  0  0  0  0
  1  2  2  0  0  0
  1  3  2  0  0  0
  1 20  1  0  0  0
  1  4  1  0  0  0
 20 21  1  0  0  0
 20 25  1  0  0  0
 21 22  1  0  0  0
 22 23  1  0  0  0
 23 24  1  0  0  0
 23 26  1  0  0  0
 24 25  1  0  0  0
 26 27  2  0  0  0
 26 28  1  0  0  0
 28 29  1  0  0  0
 29 30  1  0  0  0
 29 33  1  0  0  0
 30 31  2  0  0  0
 31 32  1  0  0  0
 32 33  2  0  0  0
 32 34  1  0  0  0
  4  5  2  0  0  0
  4  9  1  0  0  0
  5  6  1  0  0  0
  5 17  1  0  0  0
  6  7  2  0  0  0
  6 15  1  0  0  0
  7  8  1  0  0  0
  7 18  1  0  0  0
  8  9  2  0  0  0
  8 13  1  0  0  0
  9 10  1  0  0  0
 10 11  1  0  0  0
 11 12  1  0  0  0
 12 13  1  0  0  0
 12 14  1  0  0  0
 18 19  1  0  0  0
 15 16  1  0  0  0
 16 17  1  0  0  0
M  END
> <minimizedAffinity>
-9.73327

$$$$
1042


 31 34  0  0  0  0  0  0  0  0999 V2000
   23.9072   11.7518   30.8754 N   0  0  0  0  0  0  0  0  0  0  0  0
   24.6720   11.0792   31.8144 C   0  0  0  0  0  0  0  0  0  0  0  0
   25.4143    9.9216   31.0922 C   0  0  0  0  0  0  0  0  0  0  0  0
   24.4717    9.1367   30.3448 N   0  0  0  0  0  0  0  0  0  0  0  0
   23.7050    9.8285   29.3341 C   0  0  0  0  0  0  0  0  0  0  0  0
   23.9761   11.3066   29.5108 C   0  0  0  0  0  0  0  0  0  0  0  0
   24.2674    7.7585   30.5475 C   0  0  0  0  0  0  0  0  0  0  0  0
   24.9350    7.1651   31.4247 O   0  0  0  0  0  0  0  0  0  0  0  0
   23.1853   13.2179   31.1466 S   0  0  0  0  0  0  0  0  0  0  0  0
   24.0151   13.9747   32.1925 O   0  0  0  0  0  0  0  0  0  0  0  0
   23.2648   14.1331   29.9208 O   0  0  0  0  0  0  0  0  0  0  0  0
   21.5581   13.2338   31.7523 C   0  0  0  0  0  0  0  0  0  0  0  0
   20.7280   14.3204   31.8228 C   0  0  0  0  0  0  0  0  0  0  0  0
   19.4463   14.2371   32.3784 C   0  0  0  0  0  0  0  0  0  0  0  0
   18.9581   13.0709   32.8773 C   0  0  0  0  0  0  0  0  0  0  0  0
   19.7626   11.9648   32.8195 C   0  0  0  0  0  0  0  0  0  0  0  0
   21.0224   12.0422   32.2755 C   0  0  0  0  0  0  0  0  0  0  0  0
   21.3004   15.9727   31.0866 Br  0  0  0  0  0  0  0  0  0  0  0  0
   23.2905    7.0138   29.7516 C   0  0  0  0  0  0  0  0  0  0  0  0
   22.1562    6.6086   30.5776 N   0  0  0  0  0  0  0  0  0  0  0  0
   21.8271    5.3376   31.0991 C   0  0  0  0  0  0  0  0  0  0  0  0
   22.5091    4.2753   30.9230 O   0  0  0  0  0  0  0  0  0  0  0  0
   20.6197    5.4785   31.8375 N   0  0  0  0  0  0  0  0  0  0  0  0
   20.4838    6.8747   32.1605 C   0  0  0  0  0  0  0  0  0  0  0  0
   21.0967    7.2538   33.4690 C   0  0  0  0  0  0  0  0  0  0  0  0
   20.4660    8.6295   33.7191 C   0  0  0  0  0  0  0  0  0  0  0  0
   19.0623    8.4823   33.1995 C   0  0  0  0  0  0  0  0  0  0  0  0
   19.0377    7.2901   32.3009 C   0  0  0  0  0  0  0  0  0  0  0  0
   21.1352    7.5337   31.0034 C   0  0  0  0  0  0  0  0  0  0  0  0
   20.8516    8.6497   30.5132 O   0  0  0  0  0  0  0  0  0  0  0  0
   20.0007    4.6602   32.0615 H   0  0  0  0  0  0  0  0  0  0  0  0
  9 10  2  0  0  0
  9 11  2  0  0  0
  9  1  1  0  0  0
  9 12  1  0  0  0
  1  2  1  0  0  0
  1  6  1  0  0  0
  2  3  1  0  0  0
  3  4  1  0  0  0
  4  5  1  0  0  0
  4  7  1  0  0  0
  5  6  1  0  0  0
  7  8  2  0  0  0
  7 19  1  0  0  0
 19 20  1  0  0  0
 20 21  1  0  0  0
 20 29  1  0  0  0
 21 22  2  0  0  0
 21 23  1  0  0  0
 23 24  1  0  0  0
 24 25  1  0  0  0
 24 28  1  0  0  0
 24 29  1  0  0  0
 25 26  1  0  0  0
 26 27  1  0  0  0
 27 28  1  0  0  0
 29 30  2  0  0  0
 12 13  2  0  0  0
 12 17  1  0  0  0
 13 14  1  0  0  0
 13 18  1  0  0  0
 14 15  2  0  0  0
 15 16  1  0  0  0
 16 17  2  0  0  0
 23 31  1  0  0  0
M  END
> <minimizedAffinity>
-7.60248

$$$$
1043


 31 34  0  0  0  0  0  0  0  0999 V2000
   23.9505    8.3632   30.0709 N   0  0  0  0  0  0  0  0  0  0  0  0
   23.0929    9.3507   29.4508 C   0  0  0  0  0  0  0  0  0  0  0  0
   23.5041   10.7499   29.8361 C   0  0  0  0  0  0  0  0  0  0  0  0
   24.9504   10.8639   29.5551 N   0  0  0  0  0  0  0  0  0  0  0  0
   25.7777    9.8918   30.1992 C   0  0  0  0  0  0  0  0  0  0  0  0
   24.8431    8.9575   31.0029 C   0  0  0  0  0  0  0  0  0  0  0  0
   25.4351   11.8683   28.7051 C   0  0  0  0  0  0  0  0  0  0  0  0
   24.5049   12.6547   28.2020 O   0  0  0  0  0  0  0  0  0  0  0  0
   23.0966    7.0106   30.6666 S   0  0  0  0  0  0  0  0  0  0  0  0
   24.0490    6.2466   31.5687 O   0  0  0  0  0  0  0  0  0  0  0  0
   22.7805    6.0790   29.5235 O   0  0  0  0  0  0  0  0  0  0  0  0
   21.6340    7.4413   31.5194 C   0  0  0  0  0  0  0  0  0  0  0  0
   21.4260    8.7067   32.0300 C   0  0  0  0  0  0  0  0  0  0  0  0
   20.2586    9.0395   32.7074 C   0  0  0  0  0  0  0  0  0  0  0  0
   19.2666    8.1114   32.8914 C   0  0  0  0  0  0  0  0  0  0  0  0
   19.4613    6.8434   32.3858 C   0  0  0  0  0  0  0  0  0  0  0  0
   20.6282    6.5181   31.7105 C   0  0  0  0  0  0  0  0  0  0  0  0
   17.6458    8.5647   33.8282 Br  0  0  0  0  0  0  0  0  0  0  0  0
   26.7606   12.2206   28.2633 C   0  0  0  0  0  0  0  0  0  0  0  0
   26.9698   12.7582   26.9559 N   0  0  0  0  0  0  0  0  0  0  0  0
   27.1592   12.0244   25.7191 C   0  0  0  0  0  0  0  0  0  0  0  0
   27.1403   10.7631   25.6656 O   0  0  0  0  0  0  0  0  0  0  0  0
   27.3516   12.9699   24.6797 N   0  0  0  0  0  0  0  0  0  0  0  0
   27.7147   14.2039   25.2898 C   0  0  0  0  0  0  0  0  0  0  0  0
   29.2073   14.4116   25.3821 C   0  0  0  0  0  0  0  0  0  0  0  0
   29.2849   15.8829   25.7424 C   0  0  0  0  0  0  0  0  0  0  0  0
   28.0514   16.5225   25.1523 C   0  0  0  0  0  0  0  0  0  0  0  0
   27.2856   15.4114   24.4745 C   0  0  0  0  0  0  0  0  0  0  0  0
   27.0594   14.1525   26.5957 C   0  0  0  0  0  0  0  0  0  0  0  0
   26.6423   15.1082   27.2985 O   0  0  0  0  0  0  0  0  0  0  0  0
   27.2287   12.7234   23.6591 H   0  0  0  0  0  0  0  0  0  0  0  0
  9 10  2  0  0  0
  9 11  2  0  0  0
  9  1  1  0  0  0
  9 12  1  0  0  0
  1  2  1  0  0  0
  1  6  1  0  0  0
  2  3  1  0  0  0
  3  4  1  0  0  0
  4  5  1  0  0  0
  4  7  1  0  0  0
  5  6  1  0  0  0
  7  8  2  0  0  0
  7 19  1  0  0  0
 19 20  1  0  0  0
 20 21  1  0  0  0
 20 29  1  0  0  0
 21 22  2  0  0  0
 21 23  1  0  0  0
 23 24  1  0  0  0
 24 25  1  0  0  0
 24 28  1  0  0  0
 24 29  1  0  0  0
 25 26  1  0  0  0
 26 27  1  0  0  0
 27 28  1  0  0  0
 29 30  2  0  0  0
 12 13  2  0  0  0
 12 17  1  0  0  0
 13 14  1  0  0  0
 14 15  2  0  0  0
 15 16  1  0  0  0
 15 18  1  0  0  0
 16 17  2  0  0  0
 23 31  1  0  0  0
M  END
> <minimizedAffinity>
-8.20624

$$$$
1044


 30 33  0  0  0  0  0  0  0  0999 V2000
   23.1929    8.7390   30.1559 S   0  0  0  0  0  0  0  0  0  0  0  0
   22.2898    8.7671   28.9853 O   0  0  0  0  0  0  0  0  0  0  0  0
   24.5371    9.2865   29.6919 O   0  0  0  0  0  0  0  0  0  0  0  0
   23.5137    7.0914   30.6847 C   0  0  0  0  0  0  0  0  0  0  0  0
   24.7987    6.5934   30.7495 C   0  0  0  0  0  0  0  0  0  0  0  0
   25.0828    5.3070   31.1604 C   0  0  0  0  0  0  0  0  0  0  0  0
   24.0643    4.4526   31.5295 C   0  0  0  0  0  0  0  0  0  0  0  0
   22.7716    4.9500   31.4664 C   0  0  0  0  0  0  0  0  0  0  0  0
   22.4949    6.2370   31.0548 C   0  0  0  0  0  0  0  0  0  0  0  0
   24.3194    3.1481   31.9485 O   0  0  0  0  0  0  0  0  0  0  0  0
   25.5668    2.4968   31.8021 C   0  0  0  0  0  0  0  0  0  0  0  0
   26.6865    3.4602   31.6520 C   0  0  0  0  0  0  0  0  0  0  0  0
   27.8434    3.0431   31.9122 O   0  0  0  0  0  0  0  0  0  0  0  0
   26.4053    4.7891   31.2271 N   0  0  0  0  0  0  0  0  0  0  0  0
   27.1859    5.4219   30.9516 H   0  0  0  0  0  0  0  0  0  0  0  0
   22.6801    9.6833   31.4615 N   0  0  0  0  0  0  0  0  0  0  0  0
   21.3843    9.4810   31.9392 C   0  0  0  0  0  0  0  0  0  0  0  0
   20.7403   10.6207   32.6458 C   0  0  0  0  0  0  0  0  0  0  0  0
   21.2242   11.9103   32.2662 N   0  0  0  0  0  0  0  0  0  0  0  0
   22.2553   12.0037   31.2556 C   0  0  0  0  0  0  0  0  0  0  0  0
   23.2883   10.9404   31.6226 C   0  0  0  0  0  0  0  0  0  0  0  0
   20.7325   13.1059   32.8430 C   0  0  0  0  0  0  0  0  0  0  0  0
   19.8254   13.0731   33.7352 O   0  0  0  0  0  0  0  0  0  0  0  0
   21.2146   14.4290   32.4685 C   0  0  0  0  0  0  0  0  0  0  0  0
   20.5418   15.2338   31.5678 C   0  0  0  0  0  0  0  0  0  0  0  0
   20.9869   16.4845   31.2072 C   0  0  0  0  0  0  0  0  0  0  0  0
   22.1624   16.9461   31.7789 C   0  0  0  0  0  0  0  0  0  0  0  0
   22.8731   16.1896   32.6808 C   0  0  0  0  0  0  0  0  0  0  0  0
   22.3856   14.9436   33.0083 C   0  0  0  0  0  0  0  0  0  0  0  0
   18.9300   14.5327   30.8209 Br  0  0  0  0  0  0  0  0  0  0  0  0
  1  2  2  0  0  0
  1  3  2  0  0  0
  1 16  1  0  0  0
  1  4  1  0  0  0
 16 17  1  0  0  0
 16 21  1  0  0  0
 17 18  1  0  0  0
 18 19  1  0  0  0
 19 20  1  0  0  0
 19 22  1  0  0  0
 20 21  1  0  0  0
 22 23  2  0  0  0
 22 24  1  0  0  0
 24 25  2  0  0  0
 24 29  1  0  0  0
 25 26  1  0  0  0
 25 30  1  0  0  0
 26 27  2  0  0  0
 27 28  1  0  0  0
 28 29  2  0  0  0
  4  5  2  0  0  0
  4  9  1  0  0  0
  5  6  1  0  0  0
  6  7  2  0  0  0
  6 14  1  0  0  0
  7  8  1  0  0  0
  7 10  1  0  0  0
  8  9  2  0  0  0
 10 11  1  0  0  0
 11 12  1  0  0  0
 12 13  2  0  0  0
 12 14  1  0  0  0
 14 15  1  0  0  0
M  END
> <minimizedAffinity>
-8.46105

$$$$
1051


 27 30  0  0  0  0  0  0  0  0999 V2000
   22.6975   10.4334   31.9833 N   0  0  0  0  0  0  0  0  0  0  0  0
   23.9833    9.8794   32.1973 C   0  0  0  0  0  0  0  0  0  0  0  0
   24.3218    8.6546   31.4184 C   0  0  0  0  0  0  0  0  0  0  0  0
   23.2034    7.7808   31.1847 N   0  0  0  0  0  0  0  0  0  0  0  0
   21.9362    8.1901   31.7479 C   0  0  0  0  0  0  0  0  0  0  0  0
   21.7542    9.6229   31.2910 C   0  0  0  0  0  0  0  0  0  0  0  0
   23.2714    6.5773   30.4585 C   0  0  0  0  0  0  0  0  0  0  0  0
   22.2431    5.8817   30.3075 O   0  0  0  0  0  0  0  0  0  0  0  0
   24.5339    6.1316   29.8783 C   0  0  0  0  0  0  0  0  0  0  0  0
   25.0476    6.5417   28.7231 N   0  0  0  0  0  0  0  0  0  0  0  0
   26.2135    5.9344   28.4910 N   0  0  0  0  0  0  0  0  0  0  0  0
   26.4931    5.0947   29.5140 C   0  0  0  0  0  0  0  0  0  0  0  0
   25.4174    5.2215   30.4003 C   0  0  0  0  0  0  0  0  0  0  0  0
   27.6232    4.3445   29.5386 N   0  0  0  0  0  0  0  0  0  0  0  0
   28.5087    4.4353   28.5044 C   0  0  0  0  0  0  0  0  0  0  0  0
   28.2525    5.2827   27.4484 C   0  0  0  0  0  0  0  0  0  0  0  0
   27.0913    6.0224   27.4695 C   0  0  0  0  0  0  0  0  0  0  0  0
   29.5025    5.4085   25.9917 Br  0  0  0  0  0  0  0  0  0  0  0  0
   22.7183   11.9936   31.2551 S   0  0  0  0  0  0  0  0  0  0  0  0
   22.8867   11.8696   29.7751 O   0  0  0  0  0  0  0  0  0  0  0  0
   23.9365   12.7147   31.8162 O   0  0  0  0  0  0  0  0  0  0  0  0
   21.2591   12.8915   31.5901 C   0  0  0  0  0  0  0  0  0  0  0  0
   20.6616   13.8414   30.7935 C   0  0  0  0  0  0  0  0  0  0  0  0
   19.5621   14.3025   31.3910 N   0  0  0  0  0  0  0  0  0  0  0  0
   19.4245   13.6843   32.5479 N   0  0  0  0  0  0  0  0  0  0  0  0
   20.4442   12.8047   32.7187 C   0  0  0  0  0  0  0  0  0  0  0  0
   18.6526   15.3011   30.8952 C   0  0  0  0  0  0  0  0  0  0  0  0
 19 20  2  0  0  0
 19 21  2  0  0  0
 19  1  1  0  0  0
 19 22  1  0  0  0
  1  2  1  0  0  0
  1  6  1  0  0  0
  2  3  1  0  0  0
  3  4  1  0  0  0
  4  5  1  0  0  0
  4  7  1  0  0  0
  5  6  1  0  0  0
  7  8  2  0  0  0
  7  9  1  0  0  0
  9 10  2  0  0  0
  9 13  1  0  0  0
 10 11  1  0  0  0
 11 12  1  0  0  0
 11 17  1  0  0  0
 12 13  2  0  0  0
 12 14  1  0  0  0
 14 15  2  0  0  0
 15 16  1  0  0  0
 16 17  2  0  0  0
 16 18  1  0  0  0
 22 23  2  0  0  0
 22 26  1  0  0  0
 23 24  1  0  0  0
 24 25  1  0  0  0
 24 27  1  0  0  0
 25 26  2  0  0  0
M  END
> <minimizedAffinity>
-7.81667

$$$$
1056


 30 33  0  0  0  0  0  0  0  0999 V2000
   24.1627   10.7471   31.2975 N   0  0  0  0  0  0  0  0  0  0  0  0
   24.8636   10.5264   30.0905 C   0  0  0  0  0  0  0  0  0  0  0  0
   24.6546    9.2354   29.4136 C   0  0  0  0  0  0  0  0  0  0  0  0
   24.5619    8.1481   30.3416 N   0  0  0  0  0  0  0  0  0  0  0  0
   24.7414    8.4016   31.7423 C   0  0  0  0  0  0  0  0  0  0  0  0
   24.0909    9.6654   32.2114 C   0  0  0  0  0  0  0  0  0  0  0  0
   24.2972    6.8384   29.8940 C   0  0  0  0  0  0  0  0  0  0  0  0
   24.1423    6.6365   28.6681 O   0  0  0  0  0  0  0  0  0  0  0  0
   24.1897    5.6864   30.7801 C   0  0  0  0  0  0  0  0  0  0  0  0
   22.9810    5.3938   31.3849 C   0  0  0  0  0  0  0  0  0  0  0  0
   22.8802    4.3330   32.2007 N   0  0  0  0  0  0  0  0  0  0  0  0
   23.9254    3.5192   32.4641 C   0  0  0  0  0  0  0  0  0  0  0  0
   25.1147    3.7753   31.8925 N   0  0  0  0  0  0  0  0  0  0  0  0
   26.1723    2.9569   32.1555 C   0  0  0  0  0  0  0  0  0  0  0  0
   26.0603    1.8683   32.9959 C   0  0  0  0  0  0  0  0  0  0  0  0
   24.8445    1.5853   33.5963 C   0  0  0  0  0  0  0  0  0  0  0  0
   23.7920    2.4266   33.3141 C   0  0  0  0  0  0  0  0  0  0  0  0
   27.1881    0.9551   33.3064 C   0  0  0  0  0  0  0  0  0  0  0  0
   25.2456    4.8435   31.0619 C   0  0  0  0  0  0  0  0  0  0  0  0
   26.3434    5.0784   30.5347 O   0  0  0  0  0  0  0  0  0  0  0  0
   22.8003   11.7457   31.2074 S   0  0  0  0  0  0  0  0  0  0  0  0
   23.1113   13.1017   31.7377 O   0  0  0  0  0  0  0  0  0  0  0  0
   22.4001   11.8791   29.7586 O   0  0  0  0  0  0  0  0  0  0  0  0
   21.4707   11.0258   32.0750 C   0  0  0  0  0  0  0  0  0  0  0  0
   21.2528    9.6657   32.0063 C   0  0  0  0  0  0  0  0  0  0  0  0
   20.1744    9.1578   32.7234 C   0  0  0  0  0  0  0  0  0  0  0  0
   19.3523    9.9587   33.4721 C   0  0  0  0  0  0  0  0  0  0  0  0
   19.5808   11.3258   33.5344 C   0  0  0  0  0  0  0  0  0  0  0  0
   20.6603   11.8573   32.8206 C   0  0  0  0  0  0  0  0  0  0  0  0
   19.8207    7.2902   32.6690 Br  0  0  0  0  0  0  0  0  0  0  0  0
 21 22  2  0  0  0
 21 23  2  0  0  0
 21  1  1  0  0  0
 21 24  1  0  0  0
  1  2  1  0  0  0
  1  6  1  0  0  0
  2  3  1  0  0  0
  3  4  1  0  0  0
  4  5  1  0  0  0
  4  7  1  0  0  0
  5  6  1  0  0  0
  7  8  2  0  0  0
  7  9  1  0  0  0
  9 10  2  0  0  0
  9 19  1  0  0  0
 10 11  1  0  0  0
 11 12  2  0  0  0
 12 13  1  0  0  0
 12 17  1  0  0  0
 13 14  1  0  0  0
 13 19  1  0  0  0
 14 15  2  0  0  0
 15 16  1  0  0  0
 15 18  1  0  0  0
 16 17  2  0  0  0
 19 20  2  0  0  0
 24 25  2  0  0  0
 24 29  1  0  0  0
 25 26  1  0  0  0
 26 27  2  0  0  0
 26 30  1  0  0  0
 27 28  1  0  0  0
 28 29  2  0  0  0
M  END
> <minimizedAffinity>
-8.71633

$$$$
1061


 30 34  0  0  0  0  0  0  0  0999 V2000
   24.4489    7.4503   29.2373 N   0  0  0  0  0  0  0  0  0  0  0  0
   23.0316    7.3561   29.4694 C   0  0  0  0  0  0  0  0  0  0  0  0
   22.5544    8.4103   30.4417 C   0  0  0  0  0  0  0  0  0  0  0  0
   23.3406    8.3346   31.6987 N   0  0  0  0  0  0  0  0  0  0  0  0
   24.7199    8.6666   31.3718 C   0  0  0  0  0  0  0  0  0  0  0  0
   25.0145    8.5946   29.8836 C   0  0  0  0  0  0  0  0  0  0  0  0
   25.3188    6.0147   29.2825 S   0  0  0  0  0  0  0  0  0  0  0  0
   25.2273    5.3683   27.9061 O   0  0  0  0  0  0  0  0  0  0  0  0
   26.7990    6.3746   29.4175 O   0  0  0  0  0  0  0  0  0  0  0  0
   24.9479    4.9034   30.5382 C   0  0  0  0  0  0  0  0  0  0  0  0
   25.9166    4.0794   31.0576 C   0  0  0  0  0  0  0  0  0  0  0  0
   25.5832    3.2040   32.0757 C   0  0  0  0  0  0  0  0  0  0  0  0
   24.3046    3.1222   32.5963 C   0  0  0  0  0  0  0  0  0  0  0  0
   23.3356    3.9515   32.0718 C   0  0  0  0  0  0  0  0  0  0  0  0
   23.6715    4.8311   31.0487 C   0  0  0  0  0  0  0  0  0  0  0  0
   23.8429    1.9148   33.9979 Br  0  0  0  0  0  0  0  0  0  0  0  0
   22.7733    9.3812   32.5214 C   0  0  0  0  0  0  0  0  0  0  0  0
   21.5659   10.0617   32.0335 C   0  0  0  0  0  0  0  0  0  0  0  0
   21.5963   11.4617   31.7775 N   0  0  0  0  0  0  0  0  0  0  0  0
   22.3484   12.2181   30.8355 C   0  0  0  0  0  0  0  0  0  0  0  0
   23.4358   11.8775   30.3474 O   0  0  0  0  0  0  0  0  0  0  0  0
   21.6181   13.4738   30.5387 C   0  0  0  0  0  0  0  0  0  0  0  0
   20.8844   13.6928   31.8817 C   0  0  0  0  0  0  0  0  0  0  0  0
   21.7037   14.6779   32.6269 C   0  0  0  0  0  0  0  0  0  0  0  0
   23.0907   14.4955   31.9878 C   0  0  0  0  0  0  0  0  0  0  0  0
   22.5536   14.6292   30.5520 C   0  0  0  0  0  0  0  0  0  0  0  0
   21.7152   15.8618   30.7298 C   0  0  0  0  0  0  0  0  0  0  0  0
   21.4029   16.0301   32.0148 C   0  0  0  0  0  0  0  0  0  0  0  0
   20.7371   12.3787   32.4907 C   0  0  0  0  0  0  0  0  0  0  0  0
   19.9858   12.1227   33.4648 O   0  0  0  0  0  0  0  0  0  0  0  0
  7  8  2  0  0  0
  7  9  2  0  0  0
  7  1  1  0  0  0
  7 10  1  0  0  0
  1  2  1  0  0  0
  1  6  1  0  0  0
  2  3  1  0  0  0
  3  4  1  0  0  0
  4  5  1  0  0  0
  4 17  1  0  0  0
  5  6  1  0  0  0
 17 18  1  0  0  0
 18 19  1  0  0  0
 19 20  1  0  0  0
 19 29  1  0  0  0
 20 21  2  0  0  0
 20 22  1  0  0  0
 22 23  1  0  0  0
 22 26  1  0  0  0
 23 24  1  0  0  0
 23 29  1  0  0  0
 24 25  1  0  0  0
 24 28  1  0  0  0
 25 26  1  0  0  0
 26 27  1  0  0  0
 27 28  2  0  0  0
 29 30  2  0  0  0
 10 11  2  0  0  0
 10 15  1  0  0  0
 11 12  1  0  0  0
 12 13  2  0  0  0
 13 14  1  0  0  0
 13 16  1  0  0  0
 14 15  2  0  0  0
M  END
> <minimizedAffinity>
-8.99126

$$$$
1073


 28 31  0  0  0  0  0  0  0  0999 V2000
   23.6479    9.1599   30.6899 N   0  0  0  0  0  0  0  0  0  0  0  0
   23.6628    9.8542   29.4669 C   0  0  0  0  0  0  0  0  0  0  0  0
   24.0763   11.2937   29.6016 C   0  0  0  0  0  0  0  0  0  0  0  0
   23.9349   11.8243   30.9101 N   0  0  0  0  0  0  0  0  0  0  0  0
   24.6609   11.0586   31.8592 C   0  0  0  0  0  0  0  0  0  0  0  0
   24.5234    9.5888   31.7127 C   0  0  0  0  0  0  0  0  0  0  0  0
   23.1586    7.5725   30.7079 S   0  0  0  0  0  0  0  0  0  0  0  0
   22.9657    7.0112   29.3395 O   0  0  0  0  0  0  0  0  0  0  0  0
   24.1481    6.7246   31.4404 O   0  0  0  0  0  0  0  0  0  0  0  0
   21.5982    7.4541   31.5480 C   0  0  0  0  0  0  0  0  0  0  0  0
   20.5744    8.7023   32.0955 S   0  0  0  0  0  0  0  0  0  0  0  0
   19.3279    7.7562   32.7684 C   0  0  0  0  0  0  0  0  0  0  0  0
   19.7525    6.4695   32.5447 C   0  0  0  0  0  0  0  0  0  0  0  0
   20.9275    6.3216   31.9131 C   0  0  0  0  0  0  0  0  0  0  0  0
   17.7152    8.3217   33.6340 Br  0  0  0  0  0  0  0  0  0  0  0  0
   22.5924   12.1566   31.2103 C   0  0  0  0  0  0  0  0  0  0  0  0
   22.2315   13.5314   31.1322 N   0  0  0  0  0  0  0  0  0  0  0  0
   22.6767   14.2897   30.1517 N   0  0  0  0  0  0  0  0  0  0  0  0
   22.3900   15.5929   30.0080 C   0  0  0  0  0  0  0  0  0  0  0  0
   21.5734   16.1553   30.9604 C   0  0  0  0  0  0  0  0  0  0  0  0
   21.0752   15.4152   32.0114 C   0  0  0  0  0  0  0  0  0  0  0  0
   21.4339   14.0747   32.0653 C   0  0  0  0  0  0  0  0  0  0  0  0
   20.9684   13.3902   33.0420 O   0  0  0  0  0  0  0  0  0  0  0  0
   22.8905   16.3917   28.9296 N   0  0  0  0  0  0  0  0  0  0  0  0
   23.8028   16.0706   28.0066 C   0  0  0  0  0  0  0  0  0  0  0  0
   23.9706   17.1232   27.1849 N   0  0  0  0  0  0  0  0  0  0  0  0
   23.1652   18.1255   27.5791 C   0  0  0  0  0  0  0  0  0  0  0  0
   22.4893   17.6485   28.6820 C   0  0  0  0  0  0  0  0  0  0  0  0
  7  8  2  0  0  0
  7  9  2  0  0  0
  7  1  1  0  0  0
  7 10  1  0  0  0
  1  2  1  0  0  0
  1  6  1  0  0  0
  2  3  1  0  0  0
  3  4  1  0  0  0
  4  5  1  0  0  0
  4 16  1  0  0  0
  5  6  1  0  0  0
 16 17  1  0  0  0
 17 18  1  0  0  0
 17 22  1  0  0  0
 18 19  2  0  0  0
 19 20  1  0  0  0
 19 24  1  0  0  0
 20 21  2  0  0  0
 21 22  1  0  0  0
 22 23  2  0  0  0
 24 25  1  0  0  0
 24 28  1  0  0  0
 25 26  2  0  0  0
 26 27  1  0  0  0
 27 28  2  0  0  0
 10 11  1  0  0  0
 10 14  2  0  0  0
 11 12  1  0  0  0
 12 13  2  0  0  0
 12 15  1  0  0  0
 13 14  1  0  0  0
M  END
> <minimizedAffinity>
-8.72639

$$$$
1076


 29 32  0  0  0  0  0  0  0  0999 V2000
   23.7248   11.3360   30.6609 N   0  0  0  0  0  0  0  0  0  0  0  0
   23.3631   10.9106   29.3457 C   0  0  0  0  0  0  0  0  0  0  0  0
   23.4254    9.3735   29.3695 C   0  0  0  0  0  0  0  0  0  0  0  0
   24.3969    8.9090   30.2613 N   0  0  0  0  0  0  0  0  0  0  0  0
   25.5510    9.7476   30.4384 C   0  0  0  0  0  0  0  0  0  0  0  0
   25.1899   11.1874   30.7263 C   0  0  0  0  0  0  0  0  0  0  0  0
   23.3839   12.9826   30.9797 S   0  0  0  0  0  0  0  0  0  0  0  0
   23.6950   13.8636   29.7984 O   0  0  0  0  0  0  0  0  0  0  0  0
   24.3067   13.4232   32.0923 O   0  0  0  0  0  0  0  0  0  0  0  0
   21.7649   13.2744   31.4869 C   0  0  0  0  0  0  0  0  0  0  0  0
   20.8931   14.1593   30.9246 C   0  0  0  0  0  0  0  0  0  0  0  0
   19.6040   14.3184   31.4124 C   0  0  0  0  0  0  0  0  0  0  0  0
   19.1528   13.5953   32.4763 C   0  0  0  0  0  0  0  0  0  0  0  0
   20.0166   12.6873   33.0689 C   0  0  0  0  0  0  0  0  0  0  0  0
   21.2894   12.5393   32.5781 C   0  0  0  0  0  0  0  0  0  0  0  0
   18.3930   15.5722   30.6037 Br  0  0  0  0  0  0  0  0  0  0  0  0
   24.0521    8.1136   31.3638 C   0  0  0  0  0  0  0  0  0  0  0  0
   22.6802    8.0420   31.7510 N   0  0  0  0  0  0  0  0  0  0  0  0
   22.0535    9.1197   32.4271 N   0  0  0  0  0  0  0  0  0  0  0  0
   20.7051    8.7100   32.6389 C   0  0  0  0  0  0  0  0  0  0  0  0
   19.8066    9.4716   33.2512 C   0  0  0  0  0  0  0  0  0  0  0  0
   18.3769    9.3062   33.5977 C   0  0  0  0  0  0  0  0  0  0  0  0
   18.0274    7.8471   33.7682 C   0  0  0  0  0  0  0  0  0  0  0  0
   18.0315    7.2472   32.3735 C   0  0  0  0  0  0  0  0  0  0  0  0
   19.3267    6.5594   32.0675 C   0  0  0  0  0  0  0  0  0  0  0  0
   20.4757    7.4113   32.1153 N   0  0  0  0  0  0  0  0  0  0  0  0
   21.7252    7.0078   31.5635 C   0  0  0  0  0  0  0  0  0  0  0  0
   21.9089    5.8977   31.0053 O   0  0  0  0  0  0  0  0  0  0  0  0
   22.4904   10.0278   32.7126 H   0  0  0  0  0  0  0  0  0  0  0  0
  7  8  2  0  0  0
  7  9  2  0  0  0
  7  1  1  0  0  0
  7 10  1  0  0  0
  1  2  1  0  0  0
  1  6  1  0  0  0
  2  3  1  0  0  0
  3  4  1  0  0  0
  4  5  1  0  0  0
  4 17  1  0  0  0
  5  6  1  0  0  0
 17 18  1  0  0  0
 18 19  1  0  0  0
 18 27  1  0  0  0
 19 20  1  0  0  0
 20 21  2  0  0  0
 20 26  1  0  0  0
 21 22  1  0  0  0
 22 23  1  0  0  0
 23 24  1  0  0  0
 24 25  1  0  0  0
 25 26  1  0  0  0
 26 27  1  0  0  0
 27 28  2  0  0  0
 10 11  2  0  0  0
 10 15  1  0  0  0
 11 12  1  0  0  0
 12 13  2  0  0  0
 12 16  1  0  0  0
 13 14  1  0  0  0
 14 15  2  0  0  0
 19 29  1  0  0  0
M  END
> <minimizedAffinity>
-9.22152

$$$$
1081


 27 30  0  0  0  0  0  0  0  0999 V2000
   24.2823    9.7825   29.8245 N   0  0  0  0  0  0  0  0  0  0  0  0
   23.0102    9.5541   29.2540 C   0  0  0  0  0  0  0  0  0  0  0  0
   21.8335    9.6302   30.1683 C   0  0  0  0  0  0  0  0  0  0  0  0
   22.1589    9.9384   31.5387 N   0  0  0  0  0  0  0  0  0  0  0  0
   23.3736    9.4412   32.0990 C   0  0  0  0  0  0  0  0  0  0  0  0
   24.5144    9.3423   31.1476 C   0  0  0  0  0  0  0  0  0  0  0  0
   21.2196   10.7340   32.2762 C   0  0  0  0  0  0  0  0  0  0  0  0
   20.1215   10.2765   32.9015 N   0  0  0  0  0  0  0  0  0  0  0  0
   19.5438   11.3584   33.4367 N   0  0  0  0  0  0  0  0  0  0  0  0
   20.2539   12.4281   33.1534 N   0  0  0  0  0  0  0  0  0  0  0  0
   21.3014   12.0822   32.4351 N   0  0  0  0  0  0  0  0  0  0  0  0
   19.6829    8.9278   32.9814 C   0  0  0  0  0  0  0  0  0  0  0  0
   20.5646    7.9027   33.2374 C   0  0  0  0  0  0  0  0  0  0  0  0
   20.1027    6.5893   33.3104 C   0  0  0  0  0  0  0  0  0  0  0  0
   18.7705    6.2875   33.1309 C   0  0  0  0  0  0  0  0  0  0  0  0
   17.8731    7.3309   32.8701 C   0  0  0  0  0  0  0  0  0  0  0  0
   18.3536    8.6396   32.8005 C   0  0  0  0  0  0  0  0  0  0  0  0
   25.0792   11.2196   29.3859 S   0  0  0  0  0  0  0  0  0  0  0  0
   25.2866   11.4006   27.9349 O   0  0  0  0  0  0  0  0  0  0  0  0
   26.4657   11.1913   30.0178 O   0  0  0  0  0  0  0  0  0  0  0  0
   24.2425   12.5902   30.0612 C   0  0  0  0  0  0  0  0  0  0  0  0
   24.2402   12.8772   31.4029 C   0  0  0  0  0  0  0  0  0  0  0  0
   23.5682   13.9797   31.9301 C   0  0  0  0  0  0  0  0  0  0  0  0
   22.8763   14.8138   31.0460 C   0  0  0  0  0  0  0  0  0  0  0  0
   22.8712   14.5351   29.6974 C   0  0  0  0  0  0  0  0  0  0  0  0
   23.5426   13.4443   29.2203 C   0  0  0  0  0  0  0  0  0  0  0  0
   21.9343   16.3461   31.6995 Br  0  0  0  0  0  0  0  0  0  0  0  0
 18 19  2  0  0  0
 18 20  2  0  0  0
 18  1  1  0  0  0
 18 21  1  0  0  0
  1  2  1  0  0  0
  1  6  1  0  0  0
  2  3  1  0  0  0
  3  4  1  0  0  0
  4  5  1  0  0  0
  4  7  1  0  0  0
  5  6  1  0  0  0
  7  8  1  0  0  0
  7 11  2  0  0  0
  8  9  1  0  0  0
  8 12  1  0  0  0
  9 10  2  0  0  0
 10 11  1  0  0  0
 12 13  2  0  0  0
 12 17  1  0  0  0
 13 14  1  0  0  0
 14 15  2  0  0  0
 15 16  1  0  0  0
 16 17  2  0  0  0
 21 22  2  0  0  0
 21 26  1  0  0  0
 22 23  1  0  0  0
 23 24  2  0  0  0
 24 25  1  0  0  0
 24 27  1  0  0  0
 25 26  2  0  0  0
M  END
> <minimizedAffinity>
-8.65207

$$$$
1084


 29 32  0  0  0  0  0  0  0  0999 V2000
   24.2850    8.0127   30.3397 N   0  0  0  0  0  0  0  0  0  0  0  0
   23.1919    8.2548   29.4590 C   0  0  0  0  0  0  0  0  0  0  0  0
   22.8563    9.7225   29.3041 C   0  0  0  0  0  0  0  0  0  0  0  0
   23.2788   10.3911   30.5001 N   0  0  0  0  0  0  0  0  0  0  0  0
   24.6735   10.3915   30.8305 C   0  0  0  0  0  0  0  0  0  0  0  0
   25.2601    9.0765   30.3826 C   0  0  0  0  0  0  0  0  0  0  0  0
   22.3356   11.0299   31.3223 C   0  0  0  0  0  0  0  0  0  0  0  0
   22.2828   12.3646   31.4646 N   0  0  0  0  0  0  0  0  0  0  0  0
   21.4226   13.0229   32.2210 C   0  0  0  0  0  0  0  0  0  0  0  0
   20.4921   12.2805   32.9284 C   0  0  0  0  0  0  0  0  0  0  0  0
   20.5053   10.9085   32.8147 C   0  0  0  0  0  0  0  0  0  0  0  0
   21.4177   10.3189   32.0212 N   0  0  0  0  0  0  0  0  0  0  0  0
   19.5227   10.0751   33.5588 C   0  0  0  0  0  0  0  0  0  0  0  0
   21.4724   14.4363   32.2862 N   0  0  0  0  0  0  0  0  0  0  0  0
   22.4490   15.1685   33.0660 C   0  0  0  0  0  0  0  0  0  0  0  0
   22.5465   16.5559   32.4334 C   0  0  0  0  0  0  0  0  0  0  0  0
   22.5458   16.3731   31.0489 O   0  0  0  0  0  0  0  0  0  0  0  0
   21.3075   16.0492   30.5432 C   0  0  0  0  0  0  0  0  0  0  0  0
   20.5039   15.2056   31.5392 C   0  0  0  0  0  0  0  0  0  0  0  0
   25.1081    6.5914   29.7981 S   0  0  0  0  0  0  0  0  0  0  0  0
   24.5910    6.2574   28.4084 O   0  0  0  0  0  0  0  0  0  0  0  0
   26.5757    6.8870   29.6868 O   0  0  0  0  0  0  0  0  0  0  0  0
   24.8003    5.2363   30.8458 C   0  0  0  0  0  0  0  0  0  0  0  0
   23.5178    5.0607   31.3475 C   0  0  0  0  0  0  0  0  0  0  0  0
   23.2007    4.0117   32.1819 C   0  0  0  0  0  0  0  0  0  0  0  0
   24.1717    3.1074   32.5369 C   0  0  0  0  0  0  0  0  0  0  0  0
   25.4609    3.2479   32.0586 C   0  0  0  0  0  0  0  0  0  0  0  0
   25.7488    4.3186   31.2165 C   0  0  0  0  0  0  0  0  0  0  0  0
   23.7160    1.6617   33.6919 Br  0  0  0  0  0  0  0  0  0  0  0  0
 20 21  2  0  0  0
 20 22  2  0  0  0
 20  1  1  0  0  0
 20 23  1  0  0  0
  1  2  1  0  0  0
  1  6  1  0  0  0
  2  3  1  0  0  0
  3  4  1  0  0  0
  4  5  1  0  0  0
  4  7  1  0  0  0
  5  6  1  0  0  0
  7  8  2  0  0  0
  7 12  1  0  0  0
  8  9  1  0  0  0
  9 10  2  0  0  0
  9 14  1  0  0  0
 10 11  1  0  0  0
 11 12  2  0  0  0
 11 13  1  0  0  0
 14 15  1  0  0  0
 14 19  1  0  0  0
 15 16  1  0  0  0
 16 17  1  0  0  0
 17 18  1  0  0  0
 18 19  1  0  0  0
 23 24  2  0  0  0
 23 28  1  0  0  0
 24 25  1  0  0  0
 25 26  2  0  0  0
 26 27  1  0  0  0
 26 29  1  0  0  0
 27 28  2  0  0  0
M  END
> <minimizedAffinity>
-8.43134

$$$$
1089


 25 28  0  0  0  0  0  0  0  0999 V2000
   24.4204   10.1010   30.2335 N   0  0  0  0  0  0  0  0  0  0  0  0
   25.1255   11.3115   30.4057 C   0  0  0  0  0  0  0  0  0  0  0  0
   24.2826   12.5548   30.5449 C   0  0  0  0  0  0  0  0  0  0  0  0
   22.8847   12.3015   30.3910 N   0  0  0  0  0  0  0  0  0  0  0  0
   22.3542   11.2177   29.5829 C   0  0  0  0  0  0  0  0  0  0  0  0
   23.4030   10.1937   29.2611 C   0  0  0  0  0  0  0  0  0  0  0  0
   21.9368   13.1295   31.0512 C   0  0  0  0  0  0  0  0  0  0  0  0
   21.0756   12.5770   31.9564 N   0  0  0  0  0  0  0  0  0  0  0  0
   20.1841   13.3369   32.5933 C   0  0  0  0  0  0  0  0  0  0  0  0
   20.0918   14.6489   32.3822 N   0  0  0  0  0  0  0  0  0  0  0  0
   20.9220   15.2070   31.5039 C   0  0  0  0  0  0  0  0  0  0  0  0
   21.0556   16.4715   31.0936 N   0  0  0  0  0  0  0  0  0  0  0  0
   22.0563   16.5213   30.1702 C   0  0  0  0  0  0  0  0  0  0  0  0
   22.5599   15.2998   29.9915 N   0  0  0  0  0  0  0  0  0  0  0  0
   21.8796   14.4746   30.8001 C   0  0  0  0  0  0  0  0  0  0  0  0
   23.3308   15.0607   29.3408 H   0  0  0  0  0  0  0  0  0  0  0  0
   24.1996    9.0880   31.5440 S   0  0  0  0  0  0  0  0  0  0  0  0
   24.8442    9.7294   32.7678 O   0  0  0  0  0  0  0  0  0  0  0  0
   24.8406    7.7579   31.3828 O   0  0  0  0  0  0  0  0  0  0  0  0
   22.5144    8.8203   31.9994 C   0  0  0  0  0  0  0  0  0  0  0  0
   21.4961    7.4998   31.6479 S   0  0  0  0  0  0  0  0  0  0  0  0
   20.0791    8.0204   32.4344 C   0  0  0  0  0  0  0  0  0  0  0  0
   20.4478    9.2348   32.9610 C   0  0  0  0  0  0  0  0  0  0  0  0
   21.7022    9.6397   32.7329 C   0  0  0  0  0  0  0  0  0  0  0  0
   18.3843    7.1509   32.5681 Br  0  0  0  0  0  0  0  0  0  0  0  0
 17 18  2  0  0  0
 17 19  2  0  0  0
 17  1  1  0  0  0
 17 20  1  0  0  0
  1  2  1  0  0  0
  1  6  1  0  0  0
  2  3  1  0  0  0
  3  4  1  0  0  0
  4  5  1  0  0  0
  4  7  1  0  0  0
  5  6  1  0  0  0
  7  8  2  0  0  0
  7 15  1  0  0  0
  8  9  1  0  0  0
  9 10  2  0  0  0
 10 11  1  0  0  0
 11 12  1  0  0  0
 11 15  2  0  0  0
 12 13  2  0  0  0
 13 14  1  0  0  0
 14 15  1  0  0  0
 20 21  1  0  0  0
 20 24  2  0  0  0
 21 22  1  0  0  0
 22 23  2  0  0  0
 22 25  1  0  0  0
 23 24  1  0  0  0
 14 16  1  0  0  0
M  END
> <minimizedAffinity>
-8.42386

$$$$
1100


 26 29  0  0  0  0  0  0  0  0999 V2000
   23.4873   10.1838   30.5631 N   0  0  0  0  0  0  0  0  0  0  0  0
   23.8204   10.8346   31.7857 C   0  0  0  0  0  0  0  0  0  0  0  0
   24.4113   12.2132   31.5787 C   0  0  0  0  0  0  0  0  0  0  0  0
   23.7639   12.7875   30.4270 N   0  0  0  0  0  0  0  0  0  0  0  0
   24.0385   12.1463   29.1662 C   0  0  0  0  0  0  0  0  0  0  0  0
   24.1116   10.6774   29.3822 C   0  0  0  0  0  0  0  0  0  0  0  0
   22.9066   13.9099   30.4952 C   0  0  0  0  0  0  0  0  0  0  0  0
   23.1603   15.0394   29.8338 C   0  0  0  0  0  0  0  0  0  0  0  0
   22.3054   16.2118   29.8773 C   0  0  0  0  0  0  0  0  0  0  0  0
   22.6076   17.3071   29.2000 C   0  0  0  0  0  0  0  0  0  0  0  0
   21.1331   16.1656   30.6626 N   0  0  0  0  0  0  0  0  0  0  0  0
   20.8915   14.9341   31.3596 C   0  0  0  0  0  0  0  0  0  0  0  0
   21.7147   13.8769   31.2865 N   0  0  0  0  0  0  0  0  0  0  0  0
   21.2238   12.8889   32.0391 N   0  0  0  0  0  0  0  0  0  0  0  0
   20.0763   13.2968   32.6087 C   0  0  0  0  0  0  0  0  0  0  0  0
   19.8825   14.5568   32.1838 N   0  0  0  0  0  0  0  0  0  0  0  0
   20.4630   16.9406   30.7597 H   0  0  0  0  0  0  0  0  0  0  0  0
   23.6334    8.5003   30.7315 S   0  0  0  0  0  0  0  0  0  0  0  0
   24.8289    8.0961   31.5548 O   0  0  0  0  0  0  0  0  0  0  0  0
   23.8602    7.9134   29.3460 O   0  0  0  0  0  0  0  0  0  0  0  0
   22.1613    7.7508   31.3465 C   0  0  0  0  0  0  0  0  0  0  0  0
   20.8059    8.5510   31.9840 S   0  0  0  0  0  0  0  0  0  0  0  0
   19.8336    7.2031   32.3504 C   0  0  0  0  0  0  0  0  0  0  0  0
   20.6061    6.1428   31.9583 C   0  0  0  0  0  0  0  0  0  0  0  0
   21.8211    6.4317   31.4341 C   0  0  0  0  0  0  0  0  0  0  0  0
   18.0677    7.1377   33.1284 Br  0  0  0  0  0  0  0  0  0  0  0  0
 18 19  2  0  0  0
 18 20  2  0  0  0
 18  1  1  0  0  0
 18 21  1  0  0  0
  1  2  1  0  0  0
  1  6  1  0  0  0
  2  3  1  0  0  0
  3  4  1  0  0  0
  4  5  1  0  0  0
  4  7  1  0  0  0
  5  6  1  0  0  0
  7  8  2  0  0  0
  7 13  1  0  0  0
  8  9  1  0  0  0
  9 10  2  0  0  0
  9 11  1  0  0  0
 11 12  1  0  0  0
 12 13  1  0  0  0
 12 16  2  0  0  0
 13 14  1  0  0  0
 14 15  2  0  0  0
 15 16  1  0  0  0
 21 22  1  0  0  0
 21 25  2  0  0  0
 22 23  1  0  0  0
 23 24  2  0  0  0
 23 26  1  0  0  0
 24 25  1  0  0  0
 11 17  1  0  0  0
M  END
> <minimizedAffinity>
-8.32706

$$$$
1101


 26 29  0  0  0  0  0  0  0  0999 V2000
   24.9544    8.6216   30.8252 N   0  0  0  0  0  0  0  0  0  0  0  0
   25.0937    9.4673   29.7006 C   0  0  0  0  0  0  0  0  0  0  0  0
   24.0559   10.5213   29.5390 C   0  0  0  0  0  0  0  0  0  0  0  0
   23.7217   11.1499   30.8269 N   0  0  0  0  0  0  0  0  0  0  0  0
   24.5971   10.7851   31.9202 C   0  0  0  0  0  0  0  0  0  0  0  0
   24.5356    9.2739   32.0349 C   0  0  0  0  0  0  0  0  0  0  0  0
   22.6240   12.0340   30.9398 C   0  0  0  0  0  0  0  0  0  0  0  0
   21.7283   11.8559   31.9871 C   0  0  0  0  0  0  0  0  0  0  0  0
   20.6504   12.7331   32.0879 C   0  0  0  0  0  0  0  0  0  0  0  0
   20.4699   13.7174   31.2170 N   0  0  0  0  0  0  0  0  0  0  0  0
   19.3589   14.3791   31.5792 C   0  0  0  0  0  0  0  0  0  0  0  0
   18.8726   13.7776   32.6820 N   0  0  0  0  0  0  0  0  0  0  0  0
   19.6623   12.7661   32.9987 N   0  0  0  0  0  0  0  0  0  0  0  0
   18.7630   15.5683   30.8888 C   0  0  0  0  0  0  0  0  0  0  0  0
   21.3025   13.8961   30.2301 N   0  0  0  0  0  0  0  0  0  0  0  0
   22.3705   13.0685   30.0856 C   0  0  0  0  0  0  0  0  0  0  0  0
   24.1559    7.1454   30.5439 S   0  0  0  0  0  0  0  0  0  0  0  0
   24.9446    6.0579   31.2632 O   0  0  0  0  0  0  0  0  0  0  0  0
   24.1910    6.7890   29.0875 O   0  0  0  0  0  0  0  0  0  0  0  0
   22.5407    7.0959   31.1971 C   0  0  0  0  0  0  0  0  0  0  0  0
   21.9051    5.8957   31.4849 C   0  0  0  0  0  0  0  0  0  0  0  0
   20.6286    5.8580   32.0007 C   0  0  0  0  0  0  0  0  0  0  0  0
   19.9700    7.0544   32.2351 C   0  0  0  0  0  0  0  0  0  0  0  0
   20.5601    8.2741   31.9663 C   0  0  0  0  0  0  0  0  0  0  0  0
   21.8357    8.2671   31.4517 C   0  0  0  0  0  0  0  0  0  0  0  0
   18.1952    6.9838   32.9530 Br  0  0  0  0  0  0  0  0  0  0  0  0
 17 18  2  0  0  0
 17 19  2  0  0  0
 17  1  1  0  0  0
 17 20  1  0  0  0
  1  2  1  0  0  0
  1  6  1  0  0  0
  2  3  1  0  0  0
  3  4  1  0  0  0
  4  5  1  0  0  0
  4  7  1  0  0  0
  5  6  1  0  0  0
  7  8  2  0  0  0
  7 16  1  0  0  0
  8  9  1  0  0  0
  9 10  1  0  0  0
  9 13  2  0  0  0
 10 11  1  0  0  0
 10 15  1  0  0  0
 11 12  2  0  0  0
 11 14  1  0  0  0
 12 13  1  0  0  0
 15 16  2  0  0  0
 20 21  2  0  0  0
 20 25  1  0  0  0
 21 22  1  0  0  0
 22 23  2  0  0  0
 23 24  1  0  0  0
 23 26  1  0  0  0
 24 25  2  0  0  0
M  END
> <minimizedAffinity>
-9.19825

$$$$
1105


 33 36  0  0  0  0  0  0  0  0999 V2000
   27.2855    7.6869   27.6603 N   0  0  0  0  0  0  0  0  0  0  0  0
   27.8185    7.4722   26.3572 C   0  0  0  0  0  0  0  0  0  0  0  0
   29.0239    8.3195   26.0186 C   0  0  0  0  0  0  0  0  0  0  0  0
   29.9816    8.3263   27.1271 N   0  0  0  0  0  0  0  0  0  0  0  0
   29.3599    8.5649   28.4104 C   0  0  0  0  0  0  0  0  0  0  0  0
   29.9970    8.5644   29.4666 O   0  0  0  0  0  0  0  0  0  0  0  0
   27.8832    8.8053   28.2917 C   0  0  0  0  0  0  0  0  0  0  0  0
   30.9873    8.1823   27.0414 H   0  0  0  0  0  0  0  0  0  0  0  0
   27.2999    6.2346   28.5423 S   0  0  0  0  0  0  0  0  0  0  0  0
   28.4311    6.1174   29.5137 O   0  0  0  0  0  0  0  0  0  0  0  0
   27.4215    5.0378   27.6068 O   0  0  0  0  0  0  0  0  0  0  0  0
   25.7993    5.9943   29.4196 C   0  0  0  0  0  0  0  0  0  0  0  0
   24.6042    6.5857   29.0291 C   0  0  0  0  0  0  0  0  0  0  0  0
   23.4251    6.4163   29.6985 C   0  0  0  0  0  0  0  0  0  0  0  0
   23.3776    5.6274   30.8182 C   0  0  0  0  0  0  0  0  0  0  0  0
   24.5628    5.0139   31.2418 C   0  0  0  0  0  0  0  0  0  0  0  0
   25.7309    5.2071   30.5447 C   0  0  0  0  0  0  0  0  0  0  0  0
   21.7666    5.3519   31.7920 Br  0  0  0  0  0  0  0  0  0  0  0  0
   27.2769    9.2925   29.5476 C   0  0  0  0  0  0  0  0  0  0  0  0
   26.0415   10.0524   29.2405 C   0  0  0  0  0  0  0  0  0  0  0  0
   26.0357   10.7083   28.1649 O   0  0  0  0  0  0  0  0  0  0  0  0
   24.9127   10.0453   30.1159 N   0  0  0  0  0  0  0  0  0  0  0  0
   24.9320    9.2931   31.3406 C   0  0  0  0  0  0  0  0  0  0  0  0
   24.0888    9.8763   32.4315 C   0  0  0  0  0  0  0  0  0  0  0  0
   22.9139   10.5849   31.9543 N   0  0  0  0  0  0  0  0  0  0  0  0
   23.1878   11.5803   30.9289 C   0  0  0  0  0  0  0  0  0  0  0  0
   23.7457   10.8062   29.7535 C   0  0  0  0  0  0  0  0  0  0  0  0
   21.6039   10.3884   32.4112 C   0  0  0  0  0  0  0  0  0  0  0  0
   20.8535   11.4749   32.8027 C   0  0  0  0  0  0  0  0  0  0  0  0
   19.5626   11.2759   33.2675 C   0  0  0  0  0  0  0  0  0  0  0  0
   18.9896   10.0316   33.3582 C   0  0  0  0  0  0  0  0  0  0  0  0
   19.7431    8.9495   32.9655 C   0  0  0  0  0  0  0  0  0  0  0  0
   21.0356    9.1409   32.4995 C   0  0  0  0  0  0  0  0  0  0  0  0
  9 10  2  0  0  0
  9 11  2  0  0  0
  9  1  1  0  0  0
  9 12  1  0  0  0
  1  2  1  0  0  0
  1  7  1  0  0  0
  2  3  1  0  0  0
  3  4  1  0  0  0
  4  5  1  0  0  0
  5  6  2  0  0  0
  5  7  1  0  0  0
  7 19  1  0  0  0
 19 20  1  0  0  0
 20 21  2  0  0  0
 20 22  1  0  0  0
 22 23  1  0  0  0
 22 27  1  0  0  0
 23 24  1  0  0  0
 24 25  1  0  0  0
 25 26  1  0  0  0
 25 28  1  0  0  0
 26 27  1  0  0  0
 28 29  2  0  0  0
 28 33  1  0  0  0
 29 30  1  0  0  0
 30 31  2  0  0  0
 31 32  1  0  0  0
 32 33  2  0  0  0
 12 13  2  0  0  0
 12 17  1  0  0  0
 13 14  1  0  0  0
 14 15  2  0  0  0
 15 16  1  0  0  0
 15 18  1  0  0  0
 16 17  2  0  0  0
  4  8  1  0  0  0
M  END
> <minimizedAffinity>
-8.19611

$$$$
1112


 32 35  0  0  0  0  0  0  0  0999 V2000
   25.2445   11.5368   28.9122 C   0  0  0  0  0  0  0  0  0  0  0  0
   22.9745   14.6965   30.7341 C   0  0  0  0  0  0  0  0  0  0  0  0
   23.1605   14.6720   29.3821 C   0  0  0  0  0  0  0  0  0  0  0  0
   23.8904   13.6598   28.7661 C   0  0  0  0  0  0  0  0  0  0  0  0
   24.4507   12.6491   29.4887 C   0  0  0  0  0  0  0  0  0  0  0  0
   24.2662   12.6663   30.8602 C   0  0  0  0  0  0  0  0  0  0  0  0
   23.5401   13.6726   31.4705 C   0  0  0  0  0  0  0  0  0  0  0  0
   22.0590   15.9583   31.5454 S   0  0  0  0  0  0  0  0  0  0  0  0
   22.9243   16.7644   32.4519 O   0  0  0  0  0  0  0  0  0  0  0  0
   21.5621   16.8880   30.4569 O   0  0  0  0  0  0  0  0  0  0  0  0
   20.6882   15.3456   32.3597 N   0  0  0  0  0  0  0  0  0  0  0  0
   20.6471   13.9074   32.4002 C   0  0  0  0  0  0  0  0  0  0  0  0
   19.1959   13.5211   32.7007 C   0  0  0  0  0  0  0  0  0  0  0  0
   18.4056   13.7099   31.5877 O   0  0  0  0  0  0  0  0  0  0  0  0
   18.9949   14.6912   30.7708 C   0  0  0  0  0  0  0  0  0  0  0  0
   19.4788   15.7970   31.6969 C   0  0  0  0  0  0  0  0  0  0  0  0
   25.5402   10.5421   29.8672 O   0  0  0  0  0  0  0  0  0  0  0  0
   24.8187    9.3881   30.0530 C   0  0  0  0  0  0  0  0  0  0  0  0
   24.2791    8.8419   29.0708 O   0  0  0  0  0  0  0  0  0  0  0  0
   24.6757    8.7965   31.3808 C   0  0  0  0  0  0  0  0  0  0  0  0
   23.3419    8.3649   31.6795 N   0  0  0  0  0  0  0  0  0  0  0  0
   22.3378    9.2386   32.2115 C   0  0  0  0  0  0  0  0  0  0  0  0
   22.4906   10.4648   32.4780 O   0  0  0  0  0  0  0  0  0  0  0  0
   21.1023    8.4869   32.3977 C   0  0  0  0  0  0  0  0  0  0  0  0
   21.3132    7.1920   32.0024 C   0  0  0  0  0  0  0  0  0  0  0  0
   20.2951    6.2607   32.0766 C   0  0  0  0  0  0  0  0  0  0  0  0
   19.0447    6.6111   32.5493 C   0  0  0  0  0  0  0  0  0  0  0  0
   18.8184    7.9107   32.9512 C   0  0  0  0  0  0  0  0  0  0  0  0
   19.8525    8.8199   32.8673 C   0  0  0  0  0  0  0  0  0  0  0  0
   17.1107    8.4418   33.6115 Br  0  0  0  0  0  0  0  0  0  0  0  0
   22.7123    7.1016   31.5495 C   0  0  0  0  0  0  0  0  0  0  0  0
   23.2868    6.0804   31.1115 O   0  0  0  0  0  0  0  0  0  0  0  0
  8  9  2  0  0  0
  8 10  2  0  0  0
  8 11  1  0  0  0
  8  2  1  0  0  0
 11 12  1  0  0  0
 11 16  1  0  0  0
 12 13  1  0  0  0
 13 14  1  0  0  0
 14 15  1  0  0  0
 15 16  1  0  0  0
  2  3  2  0  0  0
  2  7  1  0  0  0
  3  4  1  0  0  0
  4  5  2  0  0  0
  5  6  1  0  0  0
  5  1  1  0  0  0
  6  7  2  0  0  0
  1 17  1  0  0  0
 17 18  1  0  0  0
 18 19  2  0  0  0
 18 20  1  0  0  0
 20 21  1  0  0  0
 21 22  1  0  0  0
 21 31  1  0  0  0
 22 23  2  0  0  0
 22 24  1  0  0  0
 24 25  2  0  0  0
 24 29  1  0  0  0
 25 26  1  0  0  0
 25 31  1  0  0  0
 26 27  2  0  0  0
 27 28  1  0  0  0
 28 29  2  0  0  0
 28 30  1  0  0  0
 31 32  2  0  0  0
M  END
> <minimizedAffinity>
-8.84252

$$$$
1113


 28 31  0  0  0  0  0  0  0  0999 V2000
   23.2666   13.6525   31.2442 C   0  0  0  0  0  0  0  0  0  0  0  0
   24.2390   13.0349   31.9358 N   0  0  0  0  0  0  0  0  0  0  0  0
   24.6623   11.9557   31.2295 C   0  0  0  0  0  0  0  0  0  0  0  0
   23.9651   11.8757   30.0833 N   0  0  0  0  0  0  0  0  0  0  0  0
   23.1184   12.8947   30.0779 C   0  0  0  0  0  0  0  0  0  0  0  0
   22.3742   15.0882   31.6907 S   0  0  0  0  0  0  0  0  0  0  0  0
   23.0732   15.7144   32.8907 O   0  0  0  0  0  0  0  0  0  0  0  0
   22.4925   16.1184   30.5852 O   0  0  0  0  0  0  0  0  0  0  0  0
   20.7726   14.8126   32.0980 N   0  0  0  0  0  0  0  0  0  0  0  0
   19.7804   15.5878   31.4786 C   0  0  0  0  0  0  0  0  0  0  0  0
   18.6304   14.7352   31.0303 C   0  0  0  0  0  0  0  0  0  0  0  0
   18.1484   14.0641   32.1406 O   0  0  0  0  0  0  0  0  0  0  0  0
   19.0524   13.1326   32.6354 C   0  0  0  0  0  0  0  0  0  0  0  0
   20.4335   13.6427   32.7849 C   0  0  0  0  0  0  0  0  0  0  0  0
   24.1450   10.8507   29.0755 C   0  0  0  0  0  0  0  0  0  0  0  0
   24.1664    9.4944   29.6729 C   0  0  0  0  0  0  0  0  0  0  0  0
   25.2876    8.7679   29.9224 N   0  0  0  0  0  0  0  0  0  0  0  0
   24.9261    7.6361   30.4461 O   0  0  0  0  0  0  0  0  0  0  0  0
   23.6247    7.5579   30.5634 C   0  0  0  0  0  0  0  0  0  0  0  0
   23.1483    8.7314   30.0748 N   0  0  0  0  0  0  0  0  0  0  0  0
   22.8085    6.4331   31.1125 C   0  0  0  0  0  0  0  0  0  0  0  0
   21.5958    7.0420   31.7267 C   0  0  0  0  0  0  0  0  0  0  0  0
   20.4515    6.2671   31.8332 C   0  0  0  0  0  0  0  0  0  0  0  0
   19.2913    6.7441   32.3840 C   0  0  0  0  0  0  0  0  0  0  0  0
   19.2749    8.0333   32.8424 C   0  0  0  0  0  0  0  0  0  0  0  0
   20.3713    8.8344   32.7601 C   0  0  0  0  0  0  0  0  0  0  0  0
   21.5369    8.3234   32.1956 C   0  0  0  0  0  0  0  0  0  0  0  0
   17.6773    8.7329   33.6155 Br  0  0  0  0  0  0  0  0  0  0  0  0
  6  7  2  0  0  0
  6  8  2  0  0  0
  6  9  1  0  0  0
  6  1  1  0  0  0
  9 10  1  0  0  0
  9 14  1  0  0  0
 10 11  1  0  0  0
 11 12  1  0  0  0
 12 13  1  0  0  0
 13 14  1  0  0  0
  1  2  1  0  0  0
  1  5  2  0  0  0
  2  3  2  0  0  0
  3  4  1  0  0  0
  4  5  1  0  0  0
  4 15  1  0  0  0
 15 16  1  0  0  0
 16 17  2  0  0  0
 16 20  1  0  0  0
 17 18  1  0  0  0
 18 19  1  0  0  0
 19 20  2  0  0  0
 19 21  1  0  0  0
 21 22  1  0  0  0
 22 23  2  0  0  0
 22 27  1  0  0  0
 23 24  1  0  0  0
 24 25  2  0  0  0
 25 26  1  0  0  0
 25 28  1  0  0  0
 26 27  2  0  0  0
M  END
> <minimizedAffinity>
-8.98548

$$$$
1114


 27 30  0  0  0  0  0  0  0  0999 V2000
   23.1284   14.3445   31.3025 C   0  0  0  0  0  0  0  0  0  0  0  0
   23.9992   13.7415   32.1306 N   0  0  0  0  0  0  0  0  0  0  0  0
   24.4648   12.6320   31.5275 C   0  0  0  0  0  0  0  0  0  0  0  0
   23.9124   12.4932   30.3134 N   0  0  0  0  0  0  0  0  0  0  0  0
   23.0901   13.5453   30.1727 C   0  0  0  0  0  0  0  0  0  0  0  0
   22.2278   15.8375   31.5960 S   0  0  0  0  0  0  0  0  0  0  0  0
   22.8612   16.5122   32.7832 O   0  0  0  0  0  0  0  0  0  0  0  0
   22.3482   16.7701   30.4341 O   0  0  0  0  0  0  0  0  0  0  0  0
   20.5918   15.5073   31.9682 N   0  0  0  0  0  0  0  0  0  0  0  0
   20.3652   14.2348   32.5452 C   0  0  0  0  0  0  0  0  0  0  0  0
   19.0989   13.5413   32.1645 C   0  0  0  0  0  0  0  0  0  0  0  0
   18.1083   14.5384   32.0083 O   0  0  0  0  0  0  0  0  0  0  0  0
   18.4353   15.1635   30.8013 C   0  0  0  0  0  0  0  0  0  0  0  0
   19.6685   15.9713   30.9981 C   0  0  0  0  0  0  0  0  0  0  0  0
   24.1604   11.4285   29.3631 C   0  0  0  0  0  0  0  0  0  0  0  0
   23.5833   10.1338   29.7916 C   0  0  0  0  0  0  0  0  0  0  0  0
   24.0288    8.9271   29.3936 N   0  0  0  0  0  0  0  0  0  0  0  0
   23.2996    8.0109   29.9552 O   0  0  0  0  0  0  0  0  0  0  0  0
   22.3822    8.5451   30.7143 C   0  0  0  0  0  0  0  0  0  0  0  0
   22.5567    9.8728   30.6148 N   0  0  0  0  0  0  0  0  0  0  0  0
   21.3907    7.8040   31.4955 C   0  0  0  0  0  0  0  0  0  0  0  0
   20.3058    8.4257   32.0776 C   0  0  0  0  0  0  0  0  0  0  0  0
   19.3702    7.7067   32.8181 C   0  0  0  0  0  0  0  0  0  0  0  0
   19.4972    6.3470   32.9932 C   0  0  0  0  0  0  0  0  0  0  0  0
   20.5799    5.7228   32.4126 C   0  0  0  0  0  0  0  0  0  0  0  0
   21.5172    6.4465   31.6710 C   0  0  0  0  0  0  0  0  0  0  0  0
   17.8735    8.5885   33.6171 Br  0  0  0  0  0  0  0  0  0  0  0  0
  6  7  2  0  0  0
  6  8  2  0  0  0
  6  9  1  0  0  0
  6  1  1  0  0  0
  9 10  1  0  0  0
  9 14  1  0  0  0
 10 11  1  0  0  0
 11 12  1  0  0  0
 12 13  1  0  0  0
 13 14  1  0  0  0
  1  2  1  0  0  0
  1  5  2  0  0  0
  2  3  2  0  0  0
  3  4  1  0  0  0
  4  5  1  0  0  0
  4 15  1  0  0  0
 15 16  1  0  0  0
 16 17  2  0  0  0
 16 20  1  0  0  0
 17 18  1  0  0  0
 18 19  1  0  0  0
 19 20  2  0  0  0
 19 21  1  0  0  0
 21 22  2  0  0  0
 21 26  1  0  0  0
 22 23  1  0  0  0
 23 24  2  0  0  0
 23 27  1  0  0  0
 24 25  1  0  0  0
 25 26  2  0  0  0
M  END
> <minimizedAffinity>
-9.04371

$$$$
1130


 29 32  0  0  0  0  0  0  0  0999 V2000
   20.2906   11.1784   33.0232 C   0  0  0  0  0  0  0  0  0  0  0  0
   21.4712   11.2863   32.3899 N   0  0  0  0  0  0  0  0  0  0  0  0
   22.1189   10.2604   31.8614 N   0  0  0  0  0  0  0  0  0  0  0  0
   21.6141    9.0102   31.9324 C   0  0  0  0  0  0  0  0  0  0  0  0
   20.4025    8.8745   32.5788 C   0  0  0  0  0  0  0  0  0  0  0  0
   20.1060    7.5606   32.5233 N   0  0  0  0  0  0  0  0  0  0  0  0
   21.0639    6.8743   31.8794 C   0  0  0  0  0  0  0  0  0  0  0  0
   22.0388    7.7681   31.4915 C   0  0  0  0  0  0  0  0  0  0  0  0
   23.1761    7.3828   30.7981 C   0  0  0  0  0  0  0  0  0  0  0  0
   23.3026    6.0367   30.5034 C   0  0  0  0  0  0  0  0  0  0  0  0
   22.3424    5.1206   30.8813 C   0  0  0  0  0  0  0  0  0  0  0  0
   21.2226    5.5248   31.5673 C   0  0  0  0  0  0  0  0  0  0  0  0
   24.8720    5.5049   29.5476 Br  0  0  0  0  0  0  0  0  0  0  0  0
   18.8991    6.9980   33.0964 C   0  0  0  0  0  0  0  0  0  0  0  0
   19.7538    9.9499   33.1166 N   0  0  0  0  0  0  0  0  0  0  0  0
   19.4663   12.6255   33.7192 S   0  0  0  0  0  0  0  0  0  0  0  0
   18.4261   13.3558   32.4265 C   0  0  0  0  0  0  0  0  0  0  0  0
   19.2431   14.3456   31.6669 C   0  0  0  0  0  0  0  0  0  0  0  0
   18.7530   14.9719   30.6739 O   0  0  0  0  0  0  0  0  0  0  0  0
   20.5808   14.6231   32.0166 N   0  0  0  0  0  0  0  0  0  0  0  0
   20.9965   14.1172   32.8278 H   0  0  0  0  0  0  0  0  0  0  0  0
   21.3547   15.5640   31.2951 C   0  0  0  0  0  0  0  0  0  0  0  0
   21.3903   16.8982   31.4465 N   0  0  0  0  0  0  0  0  0  0  0  0
   22.2262   17.4305   30.5980 O   0  0  0  0  0  0  0  0  0  0  0  0
   22.7343   16.4732   29.8989 N   0  0  0  0  0  0  0  0  0  0  0  0
   22.2468   15.2816   30.2666 C   0  0  0  0  0  0  0  0  0  0  0  0
   22.5852   14.0282   29.7123 N   0  0  0  0  0  0  0  0  0  0  0  0
   22.5781   13.1859   30.3174 H   0  0  0  0  0  0  0  0  0  0  0  0
   22.8442   13.9078   28.7121 H   0  0  0  0  0  0  0  0  0  0  0  0
 16 17  1  0  0  0
 16  1  1  0  0  0
 17 18  1  0  0  0
 18 19  2  0  0  0
 18 20  1  0  0  0
 20 22  1  0  0  0
 22 23  2  0  0  0
 22 26  1  0  0  0
 23 24  1  0  0  0
 24 25  1  0  0  0
 25 26  2  0  0  0
 26 27  1  0  0  0
  1  2  2  0  0  0
  1 15  1  0  0  0
  2  3  1  0  0  0
  3  4  2  0  0  0
  4  5  1  0  0  0
  4  8  1  0  0  0
  5  6  1  0  0  0
  5 15  2  0  0  0
  6  7  1  0  0  0
  6 14  1  0  0  0
  7  8  2  0  0  0
  7 12  1  0  0  0
  8  9  1  0  0  0
  9 10  2  0  0  0
 10 11  1  0  0  0
 10 13  1  0  0  0
 11 12  2  0  0  0
 20 21  1  0  0  0
 27 28  1  0  0  0
 27 29  1  0  0  0
M  END
> <minimizedAffinity>
-9.34870

$$$$
1133


 35 38  0  0  0  0  0  0  0  0999 V2000
   23.3208   11.2829   30.8932 C   0  0  0  0  0  0  0  0  0  0  0  0
   23.0364   12.5684   30.6846 N   0  0  0  0  0  0  0  0  0  0  0  0
   23.8086   12.9759   29.6427 C   0  0  0  0  0  0  0  0  0  0  0  0
   24.0644   14.1201   28.9897 N   0  0  0  0  0  0  0  0  0  0  0  0
   24.9527   14.2773   28.0025 C   0  0  0  0  0  0  0  0  0  0  0  0
   25.6747   13.1616   27.6006 N   0  0  0  0  0  0  0  0  0  0  0  0
   25.4931   12.0019   28.1815 C   0  0  0  0  0  0  0  0  0  0  0  0
   24.5770   11.8632   29.2045 C   0  0  0  0  0  0  0  0  0  0  0  0
   24.2376   10.8635   30.0090 N   0  0  0  0  0  0  0  0  0  0  0  0
   26.1728   10.8669   27.8171 O   0  0  0  0  0  0  0  0  0  0  0  0
   25.2477   15.5211   27.3490 N   0  0  0  0  0  0  0  0  0  0  0  0
   25.7368   10.0672   27.3723 H   0  0  0  0  0  0  0  0  0  0  0  0
   25.0068   15.7851   26.3961 H   0  0  0  0  0  0  0  0  0  0  0  0
   25.8191   16.2403   27.9153 H   0  0  0  0  0  0  0  0  0  0  0  0
   22.0992   13.4315   31.3278 C   0  0  0  0  0  0  0  0  0  0  0  0
   20.8252   13.4532   30.7183 O   0  0  0  0  0  0  0  0  0  0  0  0
   20.2404   14.5019   31.4647 C   0  0  0  0  0  0  0  0  0  0  0  0
   21.2644   15.6090   31.1022 C   0  0  0  0  0  0  0  0  0  0  0  0
   22.5254   14.8493   31.5342 C   0  0  0  0  0  0  0  0  0  0  0  0
   22.7165   15.1351   32.9105 O   0  0  0  0  0  0  0  0  0  0  0  0
   21.0636   16.7627   31.8104 O   0  0  0  0  0  0  0  0  0  0  0  0
   23.1540   16.0155   32.9135 H   0  0  0  0  0  0  0  0  0  0  0  0
   21.1879   17.5481   31.2254 H   0  0  0  0  0  0  0  0  0  0  0  0
   18.8711   14.8289   31.0036 C   0  0  0  0  0  0  0  0  0  0  0  0
   18.8982   15.8779   30.0764 O   0  0  0  0  0  0  0  0  0  0  0  0
   19.8373   16.2390   30.0684 H   0  0  0  0  0  0  0  0  0  0  0  0
   22.6682   10.2557   32.2167 S   0  0  0  0  0  0  0  0  0  0  0  0
   21.9877    8.6817   31.5326 C   0  0  0  0  0  0  0  0  0  0  0  0
   20.7043    8.3658   32.2002 C   0  0  0  0  0  0  0  0  0  0  0  0
   20.0991    7.1333   32.1709 C   0  0  0  0  0  0  0  0  0  0  0  0
   18.8639    6.9224   32.6774 C   0  0  0  0  0  0  0  0  0  0  0  0
   18.1355    7.9486   33.2679 C   0  0  0  0  0  0  0  0  0  0  0  0
   18.7222    9.2210   33.3120 C   0  0  0  0  0  0  0  0  0  0  0  0
   19.9840    9.4234   32.7875 C   0  0  0  0  0  0  0  0  0  0  0  0
   21.1667    5.6989   31.4919 Br  0  0  0  0  0  0  0  0  0  0  0  0
 27 28  1  0  0  0
 27  1  1  0  0  0
 28 29  1  0  0  0
 29 30  2  0  0  0
 29 34  1  0  0  0
 30 31  1  0  0  0
 30 35  1  0  0  0
 31 32  2  0  0  0
 32 33  1  0  0  0
 33 34  2  0  0  0
  1  2  1  0  0  0
  1  9  2  0  0  0
  2  3  1  0  0  0
  2 15  1  0  0  0
  3  4  2  0  0  0
  3  8  1  0  0  0
  4  5  1  0  0  0
  5  6  2  0  0  0
  5 11  1  0  0  0
  6  7  1  0  0  0
  7  8  2  0  0  0
  7 10  1  0  0  0
  8  9  1  0  0  0
 15 16  1  0  0  0
 15 19  1  0  0  0
 16 17  1  0  0  0
 17 18  1  0  0  0
 17 24  1  0  0  0
 18 19  1  0  0  0
 18 21  1  0  0  0
 19 20  1  0  0  0
 24 25  1  0  0  0
 10 12  1  0  0  0
 11 13  1  0  0  0
 11 14  1  0  0  0
 20 22  1  0  0  0
 21 23  1  0  0  0
 25 26  1  0  0  0
M  END
> <minimizedAffinity>
-10.21972

$$$$
1143


 33 37  0  0  0  0  0  0  0  0999 V2000
   28.8157    5.5484   28.0372 C   0  0  0  0  0  0  0  0  0  0  0  0
   30.2213    5.1699   28.0868 N   0  0  0  0  0  0  0  0  0  0  0  0
   30.9024    5.9178   29.1296 C   0  0  0  0  0  0  0  0  0  0  0  0
   30.1165    7.0871   29.6628 C   0  0  0  0  0  0  0  0  0  0  0  0
   29.4740    7.7887   28.4947 C   0  0  0  0  0  0  0  0  0  0  0  0
   28.7851    6.9336   27.6016 C   0  0  0  0  0  0  0  0  0  0  0  0
   28.1861    7.4659   26.4937 C   0  0  0  0  0  0  0  0  0  0  0  0
   28.2831    8.8421   26.3005 C   0  0  0  0  0  0  0  0  0  0  0  0
   28.9565    9.6525   27.1837 C   0  0  0  0  0  0  0  0  0  0  0  0
   29.5688    9.1291   28.3074 C   0  0  0  0  0  0  0  0  0  0  0  0
   28.8785   10.9525   26.7285 O   0  0  0  0  0  0  0  0  0  0  0  0
   28.4022   10.9389   25.4053 C   0  0  0  0  0  0  0  0  0  0  0  0
   27.7974    9.6495   25.3081 O   0  0  0  0  0  0  0  0  0  0  0  0
   30.9317    5.3468   26.8673 C   0  0  0  0  0  0  0  0  0  0  0  0
   30.2498    4.1640   28.3551 H   0  0  0  0  0  0  0  0  0  0  0  0
   27.0406    3.6289   31.9221 S   0  0  0  0  0  0  0  0  0  0  0  0
   27.2409    3.7355   30.1502 C   0  0  0  0  0  0  0  0  0  0  0  0
   28.2079    3.1636   29.5299 N   0  0  0  0  0  0  0  0  0  0  0  0
   28.4297    3.2038   28.1301 C   0  0  0  0  0  0  0  0  0  0  0  0
   28.9443    2.2892   27.4812 O   0  0  0  0  0  0  0  0  0  0  0  0
   27.9642    4.5158   27.4616 C   0  0  0  0  0  0  0  0  0  0  0  0
   26.5382    4.5407   27.9083 C   0  0  0  0  0  0  0  0  0  0  0  0
   25.5473    4.6057   27.1786 O   0  0  0  0  0  0  0  0  0  0  0  0
   26.3285    4.4808   29.3114 N   0  0  0  0  0  0  0  0  0  0  0  0
   25.2319    5.1439   29.8703 C   0  0  0  0  0  0  0  0  0  0  0  0
   25.2448    6.5440   29.8534 C   0  0  0  0  0  0  0  0  0  0  0  0
   24.1990    7.2674   30.3848 C   0  0  0  0  0  0  0  0  0  0  0  0
   23.1192    6.5920   30.9450 C   0  0  0  0  0  0  0  0  0  0  0  0
   23.1152    5.1912   30.9567 C   0  0  0  0  0  0  0  0  0  0  0  0
   24.1672    4.4866   30.4216 C   0  0  0  0  0  0  0  0  0  0  0  0
   21.6671    7.5448   31.6833 Br  0  0  0  0  0  0  0  0  0  0  0  0
   27.5051    6.6735   25.5804 O   0  0  0  0  0  0  0  0  0  0  0  0
   28.1727    6.2704   24.3896 C   0  0  0  0  0  0  0  0  0  0  0  0
 16 17  1  0  0  0
 17 18  2  0  0  0
 17 24  1  0  0  0
 18 19  1  0  0  0
 19 20  2  0  0  0
 19 21  1  0  0  0
 21 22  1  0  0  0
 21  1  1  0  0  0
 22 23  2  0  0  0
 22 24  1  0  0  0
 24 25  1  0  0  0
 25 26  2  0  0  0
 25 30  1  0  0  0
 26 27  1  0  0  0
 27 28  2  0  0  0
 28 29  1  0  0  0
 28 31  1  0  0  0
 29 30  2  0  0  0
  1  2  1  0  0  0
  1  6  1  0  0  0
  2  3  1  0  0  0
  2 14  1  0  0  0
  3  4  1  0  0  0
  4  5  1  0  0  0
  5  6  2  0  0  0
  5 10  1  0  0  0
  6  7  1  0  0  0
  7  8  2  0  0  0
  7 32  1  0  0  0
  8  9  1  0  0  0
  8 13  1  0  0  0
  9 10  2  0  0  0
  9 11  1  0  0  0
 11 12  1  0  0  0
 12 13  1  0  0  0
 32 33  1  0  0  0
  2 15  1  0  0  0
M  CHG 1   2   1
M  END
> <minimizedAffinity>
-6.30598

$$$$
1151


 24 27  0  0  0  0  0  0  0  0999 V2000
   26.0798   11.9047   27.7224 S   0  0  0  0  0  0  0  0  0  0  0  0
   26.5298   11.1906   26.4810 O   0  0  0  0  0  0  0  0  0  0  0  0
   26.1326   13.3979   27.5573 O   0  0  0  0  0  0  0  0  0  0  0  0
   24.4403   11.4037   28.2007 C   0  0  0  0  0  0  0  0  0  0  0  0
   24.3558   11.6335   29.6956 C   0  0  0  0  0  0  0  0  0  0  0  0
   25.1969   10.6613   30.3644 N   0  0  0  0  0  0  0  0  0  0  0  0
   26.4614   10.2587   29.7853 C   0  0  0  0  0  0  0  0  0  0  0  0
   27.1286   11.4613   29.1147 C   0  0  0  0  0  0  0  0  0  0  0  0
   24.4901   10.3097   31.5469 C   0  0  0  0  0  0  0  0  0  0  0  0
   24.9696    9.6769   32.5479 O   0  0  0  0  0  0  0  0  0  0  0  0
   23.1444   10.7631   31.4819 N   0  0  0  0  0  0  0  0  0  0  0  0
   23.0071   11.4122   30.2268 C   0  0  0  0  0  0  0  0  0  0  0  0
   21.9286   11.7471   29.6538 O   0  0  0  0  0  0  0  0  0  0  0  0
   22.0967   10.6085   32.4799 C   0  0  0  0  0  0  0  0  0  0  0  0
   21.0384   11.6885   32.3377 C   0  0  0  0  0  0  0  0  0  0  0  0
   20.0607   11.4715   33.4946 C   0  0  0  0  0  0  0  0  0  0  0  0
   19.4165   10.2368   33.2368 O   0  0  0  0  0  0  0  0  0  0  0  0
   20.1218    9.1671   32.6971 C   0  0  0  0  0  0  0  0  0  0  0  0
   21.4260    9.3053   32.3156 C   0  0  0  0  0  0  0  0  0  0  0  0
   22.1199    8.2537   31.7845 C   0  0  0  0  0  0  0  0  0  0  0  0
   21.4787    7.0471   31.6387 C   0  0  0  0  0  0  0  0  0  0  0  0
   20.1686    6.9231   32.0266 C   0  0  0  0  0  0  0  0  0  0  0  0
   19.4393    7.9672   32.5663 C   0  0  0  0  0  0  0  0  0  0  0  0
   17.6242    7.7820   33.0995 Br  0  0  0  0  0  0  0  0  0  0  0  0
  1  2  2  0  0  0
  1  3  2  0  0  0
  1  4  1  0  0  0
  1  8  1  0  0  0
  4  5  1  0  0  0
  5  6  1  0  0  0
  5 12  1  0  0  0
  6  7  1  0  0  0
  6  9  1  0  0  0
  7  8  1  0  0  0
  9 10  2  0  0  0
  9 11  1  0  0  0
 11 12  1  0  0  0
 11 14  1  0  0  0
 12 13  2  0  0  0
 14 15  1  0  0  0
 14 19  1  0  0  0
 15 16  1  0  0  0
 16 17  1  0  0  0
 17 18  1  0  0  0
 18 19  2  0  0  0
 18 23  1  0  0  0
 19 20  1  0  0  0
 20 21  2  0  0  0
 21 22  1  0  0  0
 22 23  2  0  0  0
 23 24  1  0  0  0
M  END
> <minimizedAffinity>
-7.88903

$$$$
1157


 24 27  0  0  0  0  0  0  0  0999 V2000
   24.5199   10.4491   31.2678 C   0  0  0  0  0  0  0  0  0  0  0  0
   24.5863   11.8874   31.7142 C   0  0  0  0  0  0  0  0  0  0  0  0
   23.6974   12.5329   30.7598 N   0  0  0  0  0  0  0  0  0  0  0  0
   24.0810   12.0095   29.4704 C   0  0  0  0  0  0  0  0  0  0  0  0
   24.5739   10.6049   29.7631 C   0  0  0  0  0  0  0  0  0  0  0  0
   22.6725   13.4835   31.0908 C   0  0  0  0  0  0  0  0  0  0  0  0
   22.7761   14.7742   30.7221 N   0  0  0  0  0  0  0  0  0  0  0  0
   21.8011   15.6409   31.0475 C   0  0  0  0  0  0  0  0  0  0  0  0
   20.6887   15.2558   31.7509 C   0  0  0  0  0  0  0  0  0  0  0  0
   20.5696   13.9709   32.1258 N   0  0  0  0  0  0  0  0  0  0  0  0
   21.5529   13.1110   31.7950 C   0  0  0  0  0  0  0  0  0  0  0  0
   21.1583   11.9251   32.2976 N   0  0  0  0  0  0  0  0  0  0  0  0
   19.9919   12.0329   32.9106 N   0  0  0  0  0  0  0  0  0  0  0  0
   19.6038   13.3156   32.8134 C   0  0  0  0  0  0  0  0  0  0  0  0
   23.0489    8.4407   31.5723 C   0  0  0  0  0  0  0  0  0  0  0  0
   23.9617    7.6296   31.2791 O   0  0  0  0  0  0  0  0  0  0  0  0
   23.2378    9.8410   31.5915 N   0  0  0  0  0  0  0  0  0  0  0  0
   22.4224   10.4410   31.8468 H   0  0  0  0  0  0  0  0  0  0  0  0
   21.2110    6.2252   31.7474 S   0  0  0  0  0  0  0  0  0  0  0  0
   21.7367    7.8403   31.9042 C   0  0  0  0  0  0  0  0  0  0  0  0
   20.6343    8.4684   32.4227 C   0  0  0  0  0  0  0  0  0  0  0  0
   19.5467    7.7279   32.6466 C   0  0  0  0  0  0  0  0  0  0  0  0
   19.6216    6.3939   32.3382 C   0  0  0  0  0  0  0  0  0  0  0  0
   17.8927    8.4338   33.3740 Br  0  0  0  0  0  0  0  0  0  0  0  0
 19 20  1  0  0  0
 19 23  1  0  0  0
 20 21  2  0  0  0
 20 15  1  0  0  0
 21 22  1  0  0  0
 22 23  2  0  0  0
 22 24  1  0  0  0
 15 16  2  0  0  0
 15 17  1  0  0  0
 17  1  1  0  0  0
  1  2  1  0  0  0
  1  5  1  0  0  0
  2  3  1  0  0  0
  3  4  1  0  0  0
  3  6  1  0  0  0
  4  5  1  0  0  0
  6  7  2  0  0  0
  6 11  1  0  0  0
  7  8  1  0  0  0
  8  9  2  0  0  0
  9 10  1  0  0  0
 10 11  1  0  0  0
 10 14  1  0  0  0
 11 12  2  0  0  0
 12 13  1  0  0  0
 13 14  2  0  0  0
 17 18  1  0  0  0
M  END
> <minimizedAffinity>
-7.93978

$$$$
1160


 25 28  0  0  0  0  0  0  0  0999 V2000
   22.7141   15.2459   30.7914 C   0  0  0  0  0  0  0  0  0  0  0  0
   22.9367   15.7276   29.5551 N   0  0  0  0  0  0  0  0  0  0  0  0
   22.5191   17.0025   29.4716 C   0  0  0  0  0  0  0  0  0  0  0  0
   22.0340   17.2896   30.6912 N   0  0  0  0  0  0  0  0  0  0  0  0
   22.1605   16.2305   31.4586 O   0  0  0  0  0  0  0  0  0  0  0  0
   22.5684   17.9039   28.3203 C   0  0  0  0  0  0  0  0  0  0  0  0
   23.6552   18.1930   27.5849 N   0  0  0  0  0  0  0  0  0  0  0  0
   23.3352   19.0533   26.6123 N   0  0  0  0  0  0  0  0  0  0  0  0
   22.0158   19.3298   26.7151 C   0  0  0  0  0  0  0  0  0  0  0  0
   21.5677   18.6127   27.7722 N   0  0  0  0  0  0  0  0  0  0  0  0
   24.2392   19.6001   25.6144 C   0  0  0  0  0  0  0  0  0  0  0  0
   25.0628   18.4993   25.0705 C   0  0  0  0  0  0  0  0  0  0  0  0
   26.2221   18.7552   24.6780 O   0  0  0  0  0  0  0  0  0  0  0  0
   24.5371   17.1880   25.0027 N   0  0  0  0  0  0  0  0  0  0  0  0
   25.1099   16.3443   25.2816 H   0  0  0  0  0  0  0  0  0  0  0  0
   23.5646   16.9640   24.6802 H   0  0  0  0  0  0  0  0  0  0  0  0
   22.4601   12.7442   30.4347 C   0  0  0  0  0  0  0  0  0  0  0  0
   23.0296   13.8686   31.3107 C   0  0  0  0  0  0  0  0  0  0  0  0
   23.9038   12.9759   30.5155 C   0  0  0  0  0  0  0  0  0  0  0  0
   20.6995   10.2790   32.8880 S   0  0  0  0  0  0  0  0  0  0  0  0
   21.6091    9.3627   31.7838 C   0  0  0  0  0  0  0  0  0  0  0  0
   22.1790   10.3108   30.9751 C   0  0  0  0  0  0  0  0  0  0  0  0
   21.8866   11.6019   31.2533 C   0  0  0  0  0  0  0  0  0  0  0  0
   21.0546   11.8394   32.3106 C   0  0  0  0  0  0  0  0  0  0  0  0
   21.8191    7.4474   31.6605 Br  0  0  0  0  0  0  0  0  0  0  0  0
 20 21  1  0  0  0
 20 24  1  0  0  0
 21 22  2  0  0  0
 21 25  1  0  0  0
 22 23  1  0  0  0
 23 24  2  0  0  0
 23 17  1  0  0  0
 17 18  1  0  0  0
 17 19  1  0  0  0
 18 19  1  0  0  0
 18  1  1  0  0  0
  1  2  2  0  0  0
  1  5  1  0  0  0
  2  3  1  0  0  0
  3  4  2  0  0  0
  3  6  1  0  0  0
  4  5  1  0  0  0
  6  7  2  0  0  0
  6 10  1  0  0  0
  7  8  1  0  0  0
  8  9  1  0  0  0
  8 11  1  0  0  0
  9 10  2  0  0  0
 11 12  1  0  0  0
 12 13  2  0  0  0
 12 14  1  0  0  0
 14 15  1  0  0  0
 14 16  1  0  0  0
M  END
> <minimizedAffinity>
-8.53527

$$$$
1161


 29 32  0  0  0  0  0  0  0  0999 V2000
   22.6480    8.5654   30.2270 N   0  0  0  0  0  0  0  0  0  0  0  0
   21.7946    8.5972   31.2782 C   0  0  0  0  0  0  0  0  0  0  0  0
   21.7719    9.8487   31.8150 C   0  0  0  0  0  0  0  0  0  0  0  0
   20.9678   10.1302   32.9045 C   0  0  0  0  0  0  0  0  0  0  0  0
   20.1909    9.1279   33.4385 C   0  0  0  0  0  0  0  0  0  0  0  0
   20.1951    7.8599   32.9160 C   0  0  0  0  0  0  0  0  0  0  0  0
   21.0070    7.6127   31.8314 C   0  0  0  0  0  0  0  0  0  0  0  0
   22.6174   10.5899   31.0924 N   0  0  0  0  0  0  0  0  0  0  0  0
   23.1526    9.7975   30.1198 C   0  0  0  0  0  0  0  0  0  0  0  0
   24.0087   10.2758   29.2956 N   0  0  0  0  0  0  0  0  0  0  0  0
   24.4960    9.8076   28.5338 H   0  0  0  0  0  0  0  0  0  0  0  0
   22.9119    7.3956   29.4273 C   0  0  0  0  0  0  0  0  0  0  0  0
   24.2574    6.8320   29.6965 C   0  0  0  0  0  0  0  0  0  0  0  0
   25.2885    7.3552   29.2068 O   0  0  0  0  0  0  0  0  0  0  0  0
   23.3048    4.7449   31.4424 S   0  0  0  0  0  0  0  0  0  0  0  0
   24.3359    3.5747   32.1179 C   0  0  0  0  0  0  0  0  0  0  0  0
   25.5588    3.9224   31.6144 C   0  0  0  0  0  0  0  0  0  0  0  0
   25.6181    4.9824   30.8056 C   0  0  0  0  0  0  0  0  0  0  0  0
   24.4468    5.6459   30.5390 C   0  0  0  0  0  0  0  0  0  0  0  0
   23.8693    2.1405   33.2856 Br  0  0  0  0  0  0  0  0  0  0  0  0
   22.8849   12.0029   31.3219 C   0  0  0  0  0  0  0  0  0  0  0  0
   21.5494   12.7594   31.2558 C   0  0  0  0  0  0  0  0  0  0  0  0
   21.2956   13.5063   32.4539 N   0  0  0  0  0  0  0  0  0  0  0  0
   21.6836   14.9002   32.3741 C   0  0  0  0  0  0  0  0  0  0  0  0
   21.1074   15.5762   31.1623 C   0  0  0  0  0  0  0  0  0  0  0  0
   19.6493   15.3201   30.9790 C   0  0  0  0  0  0  0  0  0  0  0  0
   19.1364   14.0436   31.5426 C   0  0  0  0  0  0  0  0  0  0  0  0
   19.8757   13.4923   32.7094 C   0  0  0  0  0  0  0  0  0  0  0  0
   21.8330   13.1068   33.2536 H   0  0  0  0  0  0  0  0  0  0  0  0
 15 16  1  0  0  0
 15 19  1  0  0  0
 16 17  2  0  0  0
 16 20  1  0  0  0
 17 18  1  0  0  0
 18 19  2  0  0  0
 19 13  1  0  0  0
 13 14  2  0  0  0
 13 12  1  0  0  0
 12  1  1  0  0  0
  1  2  1  0  0  0
  1  9  1  0  0  0
  2  3  1  0  0  0
  2  7  2  0  0  0
  3  4  2  0  0  0
  3  8  1  0  0  0
  4  5  1  0  0  0
  5  6  2  0  0  0
  6  7  1  0  0  0
  8  9  1  0  0  0
  8 21  1  0  0  0
  9 10  2  0  0  0
 21 22  1  0  0  0
 22 23  1  0  0  0
 23 24  1  0  0  0
 23 28  1  0  0  0
 24 25  1  0  0  0
 25 26  1  0  0  0
 26 27  1  0  0  0
 27 28  1  0  0  0
 10 11  1  0  0  0
 23 29  1  0  0  0
M  CHG 1  23   1
M  END
> <minimizedAffinity>
-8.38509

$$$$
1177


 33 36  0  0  0  0  0  0  0  0999 V2000
   27.3686    9.6243   29.1791 C   0  0  0  0  0  0  0  0  0  0  0  0
   26.4642    8.7073   29.4646 C   0  0  0  0  0  0  0  0  0  0  0  0
   25.3140    8.7991   30.4239 C   0  0  0  0  0  0  0  0  0  0  0  0
   24.3063    7.9797   29.8265 N   0  0  0  0  0  0  0  0  0  0  0  0
   25.0503    6.9048   29.1879 C   0  0  0  0  0  0  0  0  0  0  0  0
   24.5346    5.7889   28.9072 O   0  0  0  0  0  0  0  0  0  0  0  0
   26.4143    7.3436   28.9536 C   0  0  0  0  0  0  0  0  0  0  0  0
   27.3641    6.6803   28.4192 O   0  0  0  0  0  0  0  0  0  0  0  0
   27.3036   10.8751   29.8351 O   0  0  0  0  0  0  0  0  0  0  0  0
   28.3045    9.5030   26.5027 S   0  0  0  0  0  0  0  0  0  0  0  0
   29.8762    8.9882   26.0853 C   0  0  0  0  0  0  0  0  0  0  0  0
   30.4099    8.7362   27.2655 N   0  0  0  0  0  0  0  0  0  0  0  0
   29.7114    8.9126   28.3482 C   0  0  0  0  0  0  0  0  0  0  0  0
   28.4258    9.3642   28.2044 C   0  0  0  0  0  0  0  0  0  0  0  0
   30.3189    8.5793   29.7047 C   0  0  0  0  0  0  0  0  0  0  0  0
   30.5008    8.8527   24.7161 C   0  0  0  0  0  0  0  0  0  0  0  0
   24.9641   10.1812   30.7243 C   0  0  0  0  0  0  0  0  0  0  0  0
   24.7513   11.0525   29.6445 C   0  0  0  0  0  0  0  0  0  0  0  0
   24.3938   12.3677   29.7984 C   0  0  0  0  0  0  0  0  0  0  0  0
   24.2290   12.8810   31.0612 C   0  0  0  0  0  0  0  0  0  0  0  0
   24.4292   12.0508   32.1532 C   0  0  0  0  0  0  0  0  0  0  0  0
   24.7881   10.7337   31.9597 C   0  0  0  0  0  0  0  0  0  0  0  0
   24.1106   13.5311   28.3102 Br  0  0  0  0  0  0  0  0  0  0  0  0
   22.8757    8.0591   29.8501 C   0  0  0  0  0  0  0  0  0  0  0  0
   22.2076    7.6130   31.1101 C   0  0  0  0  0  0  0  0  0  0  0  0
   21.3004    8.7211   31.6665 C   0  0  0  0  0  0  0  0  0  0  0  0
   20.9024    8.3532   32.9834 N   0  0  0  0  0  0  0  0  0  0  0  0
   19.9599    9.2136   33.6241 C   0  0  0  0  0  0  0  0  0  0  0  0
   18.5503    9.0539   33.1059 C   0  0  0  0  0  0  0  0  0  0  0  0
   18.6060    8.1057   32.0597 O   0  0  0  0  0  0  0  0  0  0  0  0
   18.9401    6.8923   32.6937 C   0  0  0  0  0  0  0  0  0  0  0  0
   20.4089    6.9900   33.0505 C   0  0  0  0  0  0  0  0  0  0  0  0
   21.7801    8.3640   33.5860 H   0  0  0  0  0  0  0  0  0  0  0  0
 10 11  1  0  0  0
 10 14  1  0  0  0
 11 12  2  0  0  0
 11 16  1  0  0  0
 12 13  1  0  0  0
 13 14  2  0  0  0
 13 15  1  0  0  0
 14  1  1  0  0  0
  1  2  2  0  0  0
  1  9  1  0  0  0
  2  3  1  0  0  0
  2  7  1  0  0  0
  3  4  1  0  0  0
  3 17  1  0  0  0
  4  5  1  0  0  0
  4 24  1  0  0  0
  5  6  2  0  0  0
  5  7  1  0  0  0
  7  8  2  0  0  0
 24 25  1  0  0  0
 25 26  1  0  0  0
 26 27  1  0  0  0
 27 28  1  0  0  0
 27 32  1  0  0  0
 28 29  1  0  0  0
 29 30  1  0  0  0
 30 31  1  0  0  0
 31 32  1  0  0  0
 17 18  2  0  0  0
 17 22  1  0  0  0
 18 19  1  0  0  0
 19 20  2  0  0  0
 19 23  1  0  0  0
 20 21  1  0  0  0
 21 22  2  0  0  0
 27 33  1  0  0  0
M  CHG 1   9  -1
M  CHG 1  27   1
M  END
> <minimizedAffinity>
-7.17078

$$$$
1178


 33 36  0  0  0  0  0  0  0  0999 V2000
   26.7159    7.9448   28.8550 C   0  0  0  0  0  0  0  0  0  0  0  0
   26.0499    6.8511   29.0802 C   0  0  0  0  0  0  0  0  0  0  0  0
   24.5965    6.7810   29.4295 C   0  0  0  0  0  0  0  0  0  0  0  0
   24.5390    5.6399   30.3040 N   0  0  0  0  0  0  0  0  0  0  0  0
   25.5134    4.7205   29.7925 C   0  0  0  0  0  0  0  0  0  0  0  0
   25.5303    3.4908   29.9818 O   0  0  0  0  0  0  0  0  0  0  0  0
   26.4884    5.4634   29.0063 C   0  0  0  0  0  0  0  0  0  0  0  0
   27.5060    5.0759   28.3700 O   0  0  0  0  0  0  0  0  0  0  0  0
   26.0530    9.1817   28.9285 O   0  0  0  0  0  0  0  0  0  0  0  0
   29.5100    7.8345   29.5730 S   0  0  0  0  0  0  0  0  0  0  0  0
   30.7428    7.7366   28.4015 C   0  0  0  0  0  0  0  0  0  0  0  0
   30.0643    7.7551   27.2723 N   0  0  0  0  0  0  0  0  0  0  0  0
   28.7689    7.8349   27.2954 C   0  0  0  0  0  0  0  0  0  0  0  0
   28.1572    7.8975   28.5241 C   0  0  0  0  0  0  0  0  0  0  0  0
   27.9476    7.8144   26.0089 C   0  0  0  0  0  0  0  0  0  0  0  0
   32.2359    7.6493   28.5690 C   0  0  0  0  0  0  0  0  0  0  0  0
   24.1310    8.0516   30.0047 C   0  0  0  0  0  0  0  0  0  0  0  0
   24.5845    8.6420   31.1523 C   0  0  0  0  0  0  0  0  0  0  0  0
   24.1177    9.8334   31.6595 C   0  0  0  0  0  0  0  0  0  0  0  0
   23.1249   10.4914   30.9786 C   0  0  0  0  0  0  0  0  0  0  0  0
   22.6278    9.9505   29.8222 C   0  0  0  0  0  0  0  0  0  0  0  0
   23.1175    8.7578   29.3425 C   0  0  0  0  0  0  0  0  0  0  0  0
   22.4783   12.1510   31.6871 Br  0  0  0  0  0  0  0  0  0  0  0  0
   23.6561    5.4953   31.4226 C   0  0  0  0  0  0  0  0  0  0  0  0
   22.2892    5.0546   31.1009 C   0  0  0  0  0  0  0  0  0  0  0  0
   21.1897    5.9209   31.4388 C   0  0  0  0  0  0  0  0  0  0  0  0
   20.9378    6.6168   32.6097 N   0  0  0  0  0  0  0  0  0  0  0  0
   19.5577    6.2971   33.1327 C   0  0  0  0  0  0  0  0  0  0  0  0
   18.5498    7.0906   32.3689 C   0  0  0  0  0  0  0  0  0  0  0  0
   18.7275    8.4258   32.7135 O   0  0  0  0  0  0  0  0  0  0  0  0
   19.9494    8.8059   32.1140 C   0  0  0  0  0  0  0  0  0  0  0  0
   21.0949    8.0267   32.6984 C   0  0  0  0  0  0  0  0  0  0  0  0
   21.5196    6.2240   33.3888 H   0  0  0  0  0  0  0  0  0  0  0  0
 10 11  1  0  0  0
 10 14  1  0  0  0
 11 12  2  0  0  0
 11 16  1  0  0  0
 12 13  1  0  0  0
 13 14  2  0  0  0
 13 15  1  0  0  0
 14  1  1  0  0  0
  1  2  2  0  0  0
  1  9  1  0  0  0
  2  3  1  0  0  0
  2  7  1  0  0  0
  3  4  1  0  0  0
  3 17  1  0  0  0
  4  5  1  0  0  0
  4 24  1  0  0  0
  5  6  2  0  0  0
  5  7  1  0  0  0
  7  8  2  0  0  0
 24 25  1  0  0  0
 25 26  1  0  0  0
 26 27  1  0  0  0
 27 28  1  0  0  0
 27 32  1  0  0  0
 28 29  1  0  0  0
 29 30  1  0  0  0
 30 31  1  0  0  0
 31 32  1  0  0  0
 17 18  2  0  0  0
 17 22  1  0  0  0
 18 19  1  0  0  0
 19 20  2  0  0  0
 20 21  1  0  0  0
 20 23  1  0  0  0
 21 22  2  0  0  0
 27 33  1  0  0  0
M  CHG 1   9  -1
M  CHG 1  27   1
M  END
> <minimizedAffinity>
-7.10748

$$$$
1180


 32 35  0  0  0  0  0  0  0  0999 V2000
   21.6638   12.6087   31.2999 C   0  0  0  0  0  0  0  0  0  0  0  0
   21.3401   11.6028   32.0848 C   0  0  0  0  0  0  0  0  0  0  0  0
   21.9923   10.2654   32.2265 C   0  0  0  0  0  0  0  0  0  0  0  0
   20.8651    9.4159   32.2180 N   0  0  0  0  0  0  0  0  0  0  0  0
   19.9657   10.0887   33.1838 C   0  0  0  0  0  0  0  0  0  0  0  0
   19.1073    9.5437   33.9280 O   0  0  0  0  0  0  0  0  0  0  0  0
   20.2811   11.5100   33.0892 C   0  0  0  0  0  0  0  0  0  0  0  0
   19.7890   12.5022   33.7102 O   0  0  0  0  0  0  0  0  0  0  0  0
   22.7535   12.5046   30.4539 O   0  0  0  0  0  0  0  0  0  0  0  0
   19.2069   14.0371   30.8153 S   0  0  0  0  0  0  0  0  0  0  0  0
   18.9703   15.6401   31.3337 C   0  0  0  0  0  0  0  0  0  0  0  0
   20.1232   15.9244   31.9059 N   0  0  0  0  0  0  0  0  0  0  0  0
   21.0683   15.0376   31.9462 C   0  0  0  0  0  0  0  0  0  0  0  0
   20.8205   13.8114   31.3760 C   0  0  0  0  0  0  0  0  0  0  0  0
   22.3900   15.3310   32.6410 C   0  0  0  0  0  0  0  0  0  0  0  0
   17.7571   16.5169   31.1791 C   0  0  0  0  0  0  0  0  0  0  0  0
   23.2039   10.0439   31.5162 C   0  0  0  0  0  0  0  0  0  0  0  0
   23.1428    9.6841   30.1667 C   0  0  0  0  0  0  0  0  0  0  0  0
   24.2610    9.4356   29.4143 C   0  0  0  0  0  0  0  0  0  0  0  0
   25.4914    9.5498   30.0263 C   0  0  0  0  0  0  0  0  0  0  0  0
   25.5734    9.9034   31.3571 C   0  0  0  0  0  0  0  0  0  0  0  0
   24.4364   10.1476   32.0924 C   0  0  0  0  0  0  0  0  0  0  0  0
   27.1023    9.2207   29.0485 Br  0  0  0  0  0  0  0  0  0  0  0  0
   20.4126    8.1824   31.6705 C   0  0  0  0  0  0  0  0  0  0  0  0
   20.8694    6.9082   32.2389 C   0  0  0  0  0  0  0  0  0  0  0  0
   22.1115    6.3392   31.9067 N   0  0  0  0  0  0  0  0  0  0  0  0
   22.1825    4.9024   32.0690 C   0  0  0  0  0  0  0  0  0  0  0  0
   23.6320    4.5137   31.7962 C   0  0  0  0  0  0  0  0  0  0  0  0
   24.3083    5.5405   31.1377 O   0  0  0  0  0  0  0  0  0  0  0  0
   23.5154    5.8553   30.0155 C   0  0  0  0  0  0  0  0  0  0  0  0
   22.2255    6.5089   30.4209 C   0  0  0  0  0  0  0  0  0  0  0  0
   22.8971    6.8633   32.3056 H   0  0  0  0  0  0  0  0  0  0  0  0
 10 11  1  0  0  0
 10 14  1  0  0  0
 11 12  2  0  0  0
 11 16  1  0  0  0
 12 13  1  0  0  0
 13 14  2  0  0  0
 13 15  1  0  0  0
 14  1  1  0  0  0
  1  2  2  0  0  0
  1  9  1  0  0  0
  2  3  1  0  0  0
  2  7  1  0  0  0
  3  4  1  0  0  0
  3 17  1  0  0  0
  4  5  1  0  0  0
  4 24  1  0  0  0
  5  6  2  0  0  0
  5  7  1  0  0  0
  7  8  2  0  0  0
 24 25  1  0  0  0
 25 26  1  0  0  0
 26 27  1  0  0  0
 26 31  1  0  0  0
 27 28  1  0  0  0
 28 29  1  0  0  0
 29 30  1  0  0  0
 30 31  1  0  0  0
 17 18  2  0  0  0
 17 22  1  0  0  0
 18 19  1  0  0  0
 19 20  2  0  0  0
 20 21  1  0  0  0
 20 23  1  0  0  0
 21 22  2  0  0  0
 26 32  1  0  0  0
M  CHG 1   9  -1
M  CHG 1  26   1
M  END
> <minimizedAffinity>
-6.89993

$$$$
1192


 27 30  0  0  0  0  0  0  0  0999 V2000
   22.1950   13.4769   29.1820 S   0  0  0  0  0  0  0  0  0  0  0  0
   23.2446   12.2886   29.8432 C   0  0  0  0  0  0  0  0  0  0  0  0
   23.6381   12.8636   31.0214 C   0  0  0  0  0  0  0  0  0  0  0  0
   23.1470   14.0782   31.3129 C   0  0  0  0  0  0  0  0  0  0  0  0
   22.2904   14.6467   30.4091 C   0  0  0  0  0  0  0  0  0  0  0  0
   21.7522   16.0046   30.7541 C   0  0  0  0  0  0  0  0  0  0  0  0
   21.1369   15.9199   32.0768 N   0  0  0  0  0  0  0  0  0  0  0  0
   22.0122   15.3894   33.0756 C   0  0  0  0  0  0  0  0  0  0  0  0
   23.3707   14.9851   32.5138 C   0  0  0  0  0  0  0  0  0  0  0  0
   20.0181   14.9884   31.9321 C   0  0  0  0  0  0  0  0  0  0  0  0
   24.5800   12.0339   31.8230 C   0  0  0  0  0  0  0  0  0  0  0  0
   25.0213   12.4489   32.9351 O   0  0  0  0  0  0  0  0  0  0  0  0
   24.9740   10.7680   31.3178 N   0  0  0  0  0  0  0  0  0  0  0  0
   24.2379   10.0139   30.3459 C   0  0  0  0  0  0  0  0  0  0  0  0
   23.6981   10.9844   29.4067 N   0  0  0  0  0  0  0  0  0  0  0  0
   20.7105   16.8334   32.3319 H   0  0  0  0  0  0  0  0  0  0  0  0
   25.8792   10.3675   31.6963 H   0  0  0  0  0  0  0  0  0  0  0  0
   23.6142   10.7854   28.3891 H   0  0  0  0  0  0  0  0  0  0  0  0
   23.1266    9.2353   30.9450 C   0  0  0  0  0  0  0  0  0  0  0  0
   22.1631    9.8289   31.7344 C   0  0  0  0  0  0  0  0  0  0  0  0
   21.1243    9.1226   32.2975 C   0  0  0  0  0  0  0  0  0  0  0  0
   21.0216    7.7640   32.0793 C   0  0  0  0  0  0  0  0  0  0  0  0
   21.9700    7.1507   31.2963 C   0  0  0  0  0  0  0  0  0  0  0  0
   23.0092    7.8669   30.7341 C   0  0  0  0  0  0  0  0  0  0  0  0
   21.7877    5.2583   31.0184 Br  0  0  0  0  0  0  0  0  0  0  0  0
   19.9771    7.0460   32.6441 O   0  0  0  0  0  0  0  0  0  0  0  0
   19.8062    9.9499   33.3799 Br  0  0  0  0  0  0  0  0  0  0  0  0
  1  2  1  0  0  0
  1  5  1  0  0  0
  2  3  2  0  0  0
  2 15  1  0  0  0
  3  4  1  0  0  0
  3 11  1  0  0  0
  4  5  2  0  0  0
  4  9  1  0  0  0
  5  6  1  0  0  0
  6  7  1  0  0  0
  7  8  1  0  0  0
  7 10  1  0  0  0
  8  9  1  0  0  0
 11 12  2  0  0  0
 11 13  1  0  0  0
 13 14  1  0  0  0
 14 15  1  0  0  0
 14 19  1  0  0  0
 19 20  2  0  0  0
 19 24  1  0  0  0
 20 21  1  0  0  0
 21 22  2  0  0  0
 21 27  1  0  0  0
 22 23  1  0  0  0
 22 26  1  0  0  0
 23 24  2  0  0  0
 23 25  1  0  0  0
  7 16  1  0  0  0
 13 17  1  0  0  0
 15 18  1  0  0  0
M  CHG 1   7   1
M  CHG 1  26  -1
M  END
> <minimizedAffinity>
-7.03993

$$$$
1193


 29 32  0  0  0  0  0  0  0  0999 V2000
   25.8930    1.6993   32.1109 S   0  0  0  0  0  0  0  0  0  0  0  0
   26.2606    2.7004   30.7782 C   0  0  0  0  0  0  0  0  0  0  0  0
   27.3846    3.3606   31.1902 C   0  0  0  0  0  0  0  0  0  0  0  0
   27.8541    3.0652   32.4286 C   0  0  0  0  0  0  0  0  0  0  0  0
   27.1563    2.1317   33.1537 C   0  0  0  0  0  0  0  0  0  0  0  0
   27.5694    1.7226   34.5284 C   0  0  0  0  0  0  0  0  0  0  0  0
   28.9735    1.7655   34.7520 N   0  0  0  0  0  0  0  0  0  0  0  0
   29.7492    2.4706   33.7894 C   0  0  0  0  0  0  0  0  0  0  0  0
   29.0819    3.6433   33.1424 C   0  0  0  0  0  0  0  0  0  0  0  0
   29.2750    2.1996   36.1109 C   0  0  0  0  0  0  0  0  0  0  0  0
   27.9244    4.3156   30.1741 C   0  0  0  0  0  0  0  0  0  0  0  0
   28.9700    4.9926   30.4413 O   0  0  0  0  0  0  0  0  0  0  0  0
   27.2713    4.4605   28.9283 N   0  0  0  0  0  0  0  0  0  0  0  0
   25.8535    4.2042   28.8024 C   0  0  0  0  0  0  0  0  0  0  0  0
   25.6517    2.9228   29.4777 N   0  0  0  0  0  0  0  0  0  0  0  0
   29.3123    0.7535   34.7234 H   0  0  0  0  0  0  0  0  0  0  0  0
   27.8146    4.7553   28.0867 H   0  0  0  0  0  0  0  0  0  0  0  0
   25.0956    2.1398   29.0963 H   0  0  0  0  0  0  0  0  0  0  0  0
   25.1424    5.2819   29.5387 C   0  0  0  0  0  0  0  0  0  0  0  0
   25.5634    6.5913   29.4505 C   0  0  0  0  0  0  0  0  0  0  0  0
   24.9179    7.6049   30.1252 C   0  0  0  0  0  0  0  0  0  0  0  0
   23.8161    7.3054   30.9157 C   0  0  0  0  0  0  0  0  0  0  0  0
   23.3732    6.0048   31.0227 C   0  0  0  0  0  0  0  0  0  0  0  0
   24.0312    5.0272   30.3446 C   0  0  0  0  0  0  0  0  0  0  0  0
   23.1482    8.3131   31.6071 O   0  0  0  0  0  0  0  0  0  0  0  0
   25.4886    9.4199   30.0119 Br  0  0  0  0  0  0  0  0  0  0  0  0
   22.2720    5.7589   31.8218 O   0  0  0  0  0  0  0  0  0  0  0  0
   20.9589    5.6091   31.3826 C   0  0  0  0  0  0  0  0  0  0  0  0
   19.9931    6.3957   32.2417 C   0  0  0  0  0  0  0  0  0  0  0  0
  1  2  1  0  0  0
  1  5  1  0  0  0
  2  3  2  0  0  0
  2 15  1  0  0  0
  3  4  1  0  0  0
  3 11  1  0  0  0
  4  5  2  0  0  0
  4  9  1  0  0  0
  5  6  1  0  0  0
  6  7  1  0  0  0
  7  8  1  0  0  0
  7 10  1  0  0  0
  8  9  1  0  0  0
 11 12  2  0  0  0
 11 13  1  0  0  0
 13 14  1  0  0  0
 14 15  1  0  0  0
 14 19  1  0  0  0
 19 20  2  0  0  0
 19 24  1  0  0  0
 20 21  1  0  0  0
 21 22  2  0  0  0
 21 26  1  0  0  0
 22 23  1  0  0  0
 22 25  1  0  0  0
 23 24  2  0  0  0
 23 27  1  0  0  0
 27 28  1  0  0  0
 28 29  1  0  0  0
  7 16  1  0  0  0
 13 17  1  0  0  0
 15 18  1  0  0  0
M  CHG 1   7   1
M  CHG 1  25  -1
M  END
> <minimizedAffinity>
-6.26760

$$$$
1206


 25 28  0  0  0  0  0  0  0  0999 V2000
   19.7267    9.5946   33.5995 S   0  0  0  0  0  0  0  0  0  0  0  0
   19.2542    7.8804   33.2526 C   0  0  0  0  0  0  0  0  0  0  0  0
   20.6067    7.3213   32.9041 C   0  0  0  0  0  0  0  0  0  0  0  0
   21.4395    8.2871   32.2539 N   0  0  0  0  0  0  0  0  0  0  0  0
   21.1198    9.5724   32.4768 C   0  0  0  0  0  0  0  0  0  0  0  0
   21.9571   10.3609   31.7930 N   0  0  0  0  0  0  0  0  0  0  0  0
   22.8307    9.5792   31.1199 C   0  0  0  0  0  0  0  0  0  0  0  0
   22.5197    8.2701   31.4004 C   0  0  0  0  0  0  0  0  0  0  0  0
   18.3844    7.7877   32.0223 C   0  0  0  0  0  0  0  0  0  0  0  0
   21.9501   11.7833   31.7635 C   0  0  0  0  0  0  0  0  0  0  0  0
   20.8770   12.5169   32.2129 C   0  0  0  0  0  0  0  0  0  0  0  0
   20.8449   13.8955   32.1956 C   0  0  0  0  0  0  0  0  0  0  0  0
   21.9278   14.5928   31.7076 C   0  0  0  0  0  0  0  0  0  0  0  0
   23.0258   13.8885   31.2460 C   0  0  0  0  0  0  0  0  0  0  0  0
   23.0324   12.5088   31.2754 C   0  0  0  0  0  0  0  0  0  0  0  0
   21.9193   16.5057   31.6671 Br  0  0  0  0  0  0  0  0  0  0  0  0
   23.2230    7.1313   30.8594 C   0  0  0  0  0  0  0  0  0  0  0  0
   24.1062    7.3541   29.7887 C   0  0  0  0  0  0  0  0  0  0  0  0
   24.8362    6.3245   29.2534 C   0  0  0  0  0  0  0  0  0  0  0  0
   24.7577    5.0347   29.7147 C   0  0  0  0  0  0  0  0  0  0  0  0
   23.9009    4.7901   30.7624 C   0  0  0  0  0  0  0  0  0  0  0  0
   23.1552    5.8405   31.3108 C   0  0  0  0  0  0  0  0  0  0  0  0
   25.5440    4.0278   29.1073 N   0  0  0  0  0  0  0  0  0  0  0  0
   25.9455    3.0581   29.7603 O   0  0  0  0  0  0  0  0  0  0  0  0
   25.8593    4.1333   27.7871 O   0  0  0  0  0  0  0  0  0  0  0  0
  1  2  1  0  0  0
  1  5  1  0  0  0
  2  3  1  0  0  0
  2  9  1  0  0  0
  3  4  1  0  0  0
  4  5  1  0  0  0
  4  8  1  0  0  0
  5  6  2  0  0  0
  6  7  1  0  0  0
  6 10  1  0  0  0
  7  8  2  0  0  0
  8 17  1  0  0  0
 17 18  2  0  0  0
 17 22  1  0  0  0
 18 19  1  0  0  0
 19 20  2  0  0  0
 20 21  1  0  0  0
 20 23  1  0  0  0
 21 22  2  0  0  0
 23 24  2  0  0  0
 23 25  1  0  0  0
 10 11  2  0  0  0
 10 15  1  0  0  0
 11 12  1  0  0  0
 12 13  2  0  0  0
 13 14  1  0  0  0
 13 16  1  0  0  0
 14 15  2  0  0  0
M  CHG 1  25  -1
M  END
> <minimizedAffinity>
-8.71835

$$$$
1209


 24 27  0  0  0  0  0  0  0  0999 V2000
   19.4472    9.2693   33.2474 S   0  0  0  0  0  0  0  0  0  0  0  0
   17.7294    8.6847   33.2883 C   0  0  0  0  0  0  0  0  0  0  0  0
   17.7450    7.2185   32.8951 C   0  0  0  0  0  0  0  0  0  0  0  0
   18.8660    6.4970   33.6140 C   0  0  0  0  0  0  0  0  0  0  0  0
   20.0652    6.6888   32.8149 N   0  0  0  0  0  0  0  0  0  0  0  0
   20.4395    7.9480   32.5745 C   0  0  0  0  0  0  0  0  0  0  0  0
   21.5862    7.9290   31.8085 N   0  0  0  0  0  0  0  0  0  0  0  0
   21.9226    6.6713   31.5744 C   0  0  0  0  0  0  0  0  0  0  0  0
   20.9530    5.9043   32.2158 C   0  0  0  0  0  0  0  0  0  0  0  0
   22.2306    9.1292   31.3882 C   0  0  0  0  0  0  0  0  0  0  0  0
   23.2398    9.6957   32.1470 C   0  0  0  0  0  0  0  0  0  0  0  0
   23.9036   10.8402   31.7530 C   0  0  0  0  0  0  0  0  0  0  0  0
   23.5337   11.4261   30.5585 C   0  0  0  0  0  0  0  0  0  0  0  0
   22.5269   10.8550   29.8095 C   0  0  0  0  0  0  0  0  0  0  0  0
   21.8516    9.7138   30.1833 C   0  0  0  0  0  0  0  0  0  0  0  0
   24.3994   13.0213   29.9282 Br  0  0  0  0  0  0  0  0  0  0  0  0
   23.0343    6.1040   30.8280 C   0  0  0  0  0  0  0  0  0  0  0  0
   23.5807    4.8790   31.2374 C   0  0  0  0  0  0  0  0  0  0  0  0
   24.6263    4.2970   30.5758 C   0  0  0  0  0  0  0  0  0  0  0  0
   25.2166    4.8618   29.4683 C   0  0  0  0  0  0  0  0  0  0  0  0
   24.6897    6.0599   29.0602 C   0  0  0  0  0  0  0  0  0  0  0  0
   23.6182    6.6750   29.7237 C   0  0  0  0  0  0  0  0  0  0  0  0
   26.2764    4.2401   28.8228 O   0  0  0  0  0  0  0  0  0  0  0  0
   26.3126    4.1742   27.4093 C   0  0  0  0  0  0  0  0  0  0  0  0
  1  2  1  0  0  0
  1  6  1  0  0  0
  2  3  1  0  0  0
  3  4  1  0  0  0
  4  5  1  0  0  0
  5  6  2  0  0  0
  5  9  1  0  0  0
  6  7  1  0  0  0
  7  8  1  0  0  0
  7 10  1  0  0  0
  8  9  2  0  0  0
  8 17  1  0  0  0
 17 18  2  0  0  0
 17 22  1  0  0  0
 18 19  1  0  0  0
 19 20  2  0  0  0
 20 21  1  0  0  0
 20 23  1  0  0  0
 21 22  2  0  0  0
 23 24  1  0  0  0
 10 11  2  0  0  0
 10 15  1  0  0  0
 11 12  1  0  0  0
 12 13  2  0  0  0
 13 14  1  0  0  0
 13 16  1  0  0  0
 14 15  2  0  0  0
M  END
> <minimizedAffinity>
-8.05267

$$$$
1211


 26 29  0  0  0  0  0  0  0  0999 V2000
   22.2037    8.9651   29.6743 S   0  0  0  0  0  0  0  0  0  0  0  0
   22.7929    7.2286   29.7534 C   0  0  0  0  0  0  0  0  0  0  0  0
   23.4603    7.1173   31.1260 C   0  0  0  0  0  0  0  0  0  0  0  0
   24.7048    7.9990   31.1082 C   0  0  0  0  0  0  0  0  0  0  0  0
   24.2813    9.3429   31.4146 N   0  0  0  0  0  0  0  0  0  0  0  0
   23.2166    9.8523   30.8515 C   0  0  0  0  0  0  0  0  0  0  0  0
   23.0525   11.1957   31.3783 N   0  0  0  0  0  0  0  0  0  0  0  0
   24.4293   11.6232   31.5020 C   0  0  0  0  0  0  0  0  0  0  0  0
   24.8397   10.3466   32.3262 C   0  0  0  0  0  0  0  0  0  0  0  0
   24.6380   12.7644   32.2092 O   0  0  0  0  0  0  0  0  0  0  0  0
   25.5621   13.1036   31.9999 H   0  0  0  0  0  0  0  0  0  0  0  0
   21.8431   11.8270   31.7334 C   0  0  0  0  0  0  0  0  0  0  0  0
   20.9931   11.1539   32.6448 C   0  0  0  0  0  0  0  0  0  0  0  0
   19.7621   11.6696   33.0113 C   0  0  0  0  0  0  0  0  0  0  0  0
   19.3143   12.8575   32.5020 C   0  0  0  0  0  0  0  0  0  0  0  0
   20.1191   13.5369   31.6113 C   0  0  0  0  0  0  0  0  0  0  0  0
   21.3714   13.0068   31.2450 C   0  0  0  0  0  0  0  0  0  0  0  0
   17.6151   13.5986   32.9617 Br  0  0  0  0  0  0  0  0  0  0  0  0
   25.0888   11.5504   30.1933 C   0  0  0  0  0  0  0  0  0  0  0  0
   26.2715   10.8631   29.9809 C   0  0  0  0  0  0  0  0  0  0  0  0
   26.8595   10.8673   28.7067 C   0  0  0  0  0  0  0  0  0  0  0  0
   26.3181   11.5206   27.6649 C   0  0  0  0  0  0  0  0  0  0  0  0
   25.1117   12.2285   27.8457 C   0  0  0  0  0  0  0  0  0  0  0  0
   24.5640   12.1999   29.1164 C   0  0  0  0  0  0  0  0  0  0  0  0
   26.8822   11.5511   26.3628 O   0  0  0  0  0  0  0  0  0  0  0  0
   27.9827   10.7265   26.0431 C   0  0  0  0  0  0  0  0  0  0  0  0
  1  2  1  0  0  0
  1  6  1  0  0  0
  2  3  1  0  0  0
  3  4  1  0  0  0
  4  5  1  0  0  0
  5  6  2  0  0  0
  5  9  1  0  0  0
  6  7  1  0  0  0
  7  8  1  0  0  0
  7 12  1  0  0  0
  8  9  1  0  0  0
  8 10  1  0  0  0
  8 19  1  0  0  0
 19 20  2  0  0  0
 19 24  1  0  0  0
 20 21  1  0  0  0
 21 22  2  0  0  0
 22 23  1  0  0  0
 22 25  1  0  0  0
 23 24  2  0  0  0
 25 26  1  0  0  0
 12 13  2  0  0  0
 12 17  1  0  0  0
 13 14  1  0  0  0
 14 15  2  0  0  0
 15 16  1  0  0  0
 15 18  1  0  0  0
 16 17  2  0  0  0
 10 11  1  0  0  0
M  END
> <minimizedAffinity>
-6.48713

$$$$
1217


 28 31  0  0  0  0  0  0  0  0999 V2000
   26.8227    4.1010   31.4625 S   0  0  0  0  0  0  0  0  0  0  0  0
   28.1391    2.9207   31.6276 C   0  0  0  0  0  0  0  0  0  0  0  0
   29.0812    3.0410   30.4466 C   0  0  0  0  0  0  0  0  0  0  0  0
   28.3178    2.7559   29.1653 C   0  0  0  0  0  0  0  0  0  0  0  0
   27.4790    3.8841   28.8299 N   0  0  0  0  0  0  0  0  0  0  0  0
   27.3879    4.6881   27.6547 C   0  0  0  0  0  0  0  0  0  0  0  0
   25.8991    4.9973   27.6728 C   0  0  0  0  0  0  0  0  0  0  0  0
   25.6115    5.1301   29.0832 N   0  0  0  0  0  0  0  0  0  0  0  0
   26.4971    4.4454   29.7191 C   0  0  0  0  0  0  0  0  0  0  0  0
   27.7292    3.9423   26.5312 O   0  0  0  0  0  0  0  0  0  0  0  0
   27.7250    2.9819   26.7462 H   0  0  0  0  0  0  0  0  0  0  0  0
   28.1088    5.9752   27.7025 C   0  0  0  0  0  0  0  0  0  0  0  0
   28.9899    6.3698   28.6592 C   0  0  0  0  0  0  0  0  0  0  0  0
   29.5892    7.6306   28.6248 C   0  0  0  0  0  0  0  0  0  0  0  0
   29.3080    8.5282   27.6161 C   0  0  0  0  0  0  0  0  0  0  0  0
   28.4270    8.1430   26.6530 C   0  0  0  0  0  0  0  0  0  0  0  0
   27.8404    6.9088   26.6869 C   0  0  0  0  0  0  0  0  0  0  0  0
   30.1341   10.2587   27.5859 Br  0  0  0  0  0  0  0  0  0  0  0  0
   24.5798    5.8978   29.6856 C   0  0  0  0  0  0  0  0  0  0  0  0
   24.7897    7.2666   29.7897 C   0  0  0  0  0  0  0  0  0  0  0  0
   23.8309    8.0860   30.3941 C   0  0  0  0  0  0  0  0  0  0  0  0
   22.6677    7.5263   30.8929 C   0  0  0  0  0  0  0  0  0  0  0  0
   22.4273    6.1758   30.8063 C   0  0  0  0  0  0  0  0  0  0  0  0
   23.4313    5.4065   30.1865 C   0  0  0  0  0  0  0  0  0  0  0  0
   21.2856    5.5562   31.2847 O   0  0  0  0  0  0  0  0  0  0  0  0
   20.4827    6.0110   32.3363 C   0  0  0  0  0  0  0  0  0  0  0  0
   25.9509    7.8194   29.2941 O   0  0  0  0  0  0  0  0  0  0  0  0
   26.3902    9.1357   29.5340 C   0  0  0  0  0  0  0  0  0  0  0  0
  1  2  1  0  0  0
  1  9  1  0  0  0
  2  3  1  0  0  0
  3  4  1  0  0  0
  4  5  1  0  0  0
  5  6  1  0  0  0
  5  9  1  0  0  0
  6  7  1  0  0  0
  6 10  1  0  0  0
  6 12  1  0  0  0
  7  8  1  0  0  0
  8  9  2  0  0  0
  8 19  1  0  0  0
 19 20  2  0  0  0
 19 24  1  0  0  0
 20 21  1  0  0  0
 20 27  1  0  0  0
 21 22  2  0  0  0
 22 23  1  0  0  0
 23 24  2  0  0  0
 23 25  1  0  0  0
 25 26  1  0  0  0
 27 28  1  0  0  0
 12 13  2  0  0  0
 12 17  1  0  0  0
 13 14  1  0  0  0
 14 15  2  0  0  0
 15 16  1  0  0  0
 15 18  1  0  0  0
 16 17  2  0  0  0
 10 11  1  0  0  0
M  END
> <minimizedAffinity>
-5.98213

$$$$
1219


 27 30  0  0  0  0  0  0  0  0999 V2000
   24.4025    9.5125   32.0504 S   0  0  0  0  0  0  0  0  0  0  0  0
   25.3961   10.6062   30.9529 C   0  0  0  0  0  0  0  0  0  0  0  0
   25.5927    9.9164   29.6140 C   0  0  0  0  0  0  0  0  0  0  0  0
   25.9877    8.4742   29.7996 C   0  0  0  0  0  0  0  0  0  0  0  0
   24.8276    7.6820   30.0572 N   0  0  0  0  0  0  0  0  0  0  0  0
   24.3115    6.3928   29.6357 C   0  0  0  0  0  0  0  0  0  0  0  0
   22.8079    6.5734   29.7462 C   0  0  0  0  0  0  0  0  0  0  0  0
   22.7150    7.5930   30.8104 N   0  0  0  0  0  0  0  0  0  0  0  0
   23.8300    8.1905   30.9571 C   0  0  0  0  0  0  0  0  0  0  0  0
   24.7063    6.0600   28.3550 O   0  0  0  0  0  0  0  0  0  0  0  0
   24.0228    6.1110   27.6719 H   0  0  0  0  0  0  0  0  0  0  0  0
   21.5284    7.8711   31.5484 C   0  0  0  0  0  0  0  0  0  0  0  0
   21.1415    9.0895   32.0236 C   0  0  0  0  0  0  0  0  0  0  0  0
   19.9588    9.2928   32.7214 C   0  0  0  0  0  0  0  0  0  0  0  0
   19.1157    8.2267   32.9603 C   0  0  0  0  0  0  0  0  0  0  0  0
   19.4781    6.9694   32.4910 C   0  0  0  0  0  0  0  0  0  0  0  0
   20.6671    6.7905   31.7950 C   0  0  0  0  0  0  0  0  0  0  0  0
   17.4680    8.4045   33.9166 Br  0  0  0  0  0  0  0  0  0  0  0  0
   24.7082    5.3119   30.5692 C   0  0  0  0  0  0  0  0  0  0  0  0
   26.0466    5.0404   30.7748 C   0  0  0  0  0  0  0  0  0  0  0  0
   26.3743    4.0153   31.6622 C   0  0  0  0  0  0  0  0  0  0  0  0
   25.4079    3.3034   32.3063 C   0  0  0  0  0  0  0  0  0  0  0  0
   24.0641    3.5651   32.1109 C   0  0  0  0  0  0  0  0  0  0  0  0
   23.7430    4.5955   31.2192 C   0  0  0  0  0  0  0  0  0  0  0  0
   27.7459    3.7292   31.8802 N   0  0  0  0  0  0  0  0  0  0  0  0
   28.1847    3.4363   33.0090 O   0  0  0  0  0  0  0  0  0  0  0  0
   28.6481    3.7629   30.8551 O   0  0  0  0  0  0  0  0  0  0  0  0
  1  2  1  0  0  0
  1  9  1  0  0  0
  2  3  1  0  0  0
  3  4  1  0  0  0
  4  5  1  0  0  0
  5  6  1  0  0  0
  5  9  1  0  0  0
  6  7  1  0  0  0
  6 10  1  0  0  0
  6 19  1  0  0  0
  7  8  1  0  0  0
  8  9  2  0  0  0
  8 12  1  0  0  0
 12 13  2  0  0  0
 12 17  1  0  0  0
 13 14  1  0  0  0
 14 15  2  0  0  0
 15 16  1  0  0  0
 15 18  1  0  0  0
 16 17  2  0  0  0
 19 20  2  0  0  0
 19 24  1  0  0  0
 20 21  1  0  0  0
 21 22  2  0  0  0
 21 25  1  0  0  0
 22 23  1  0  0  0
 23 24  2  0  0  0
 25 26  2  0  0  0
 25 27  1  0  0  0
 10 11  1  0  0  0
M  CHG 1  27  -1
M  END
> <minimizedAffinity>
-8.34025

$$$$
1220


 27 30  0  0  0  0  0  0  0  0999 V2000
   20.2466   11.5558   33.4036 S   0  0  0  0  0  0  0  0  0  0  0  0
   18.7793   12.5658   32.9498 C   0  0  0  0  0  0  0  0  0  0  0  0
   19.1131   13.7713   32.1764 C   0  0  0  0  0  0  0  0  0  0  0  0
   20.5202   14.1919   32.0551 C   0  0  0  0  0  0  0  0  0  0  0  0
   21.4756   13.2313   31.6815 N   0  0  0  0  0  0  0  0  0  0  0  0
   22.7255   13.2837   30.9860 C   0  0  0  0  0  0  0  0  0  0  0  0
   22.7013   11.9533   30.2661 C   0  0  0  0  0  0  0  0  0  0  0  0
   22.0218   11.1109   31.2272 N   0  0  0  0  0  0  0  0  0  0  0  0
   21.3419   11.8214   31.9970 C   0  0  0  0  0  0  0  0  0  0  0  0
   23.7695   13.2113   31.9118 O   0  0  0  0  0  0  0  0  0  0  0  0
   24.4704   12.6425   31.5538 H   0  0  0  0  0  0  0  0  0  0  0  0
   22.1323    9.6841   31.2902 C   0  0  0  0  0  0  0  0  0  0  0  0
   23.3185    9.0936   30.8775 C   0  0  0  0  0  0  0  0  0  0  0  0
   23.4905    7.7113   30.8909 C   0  0  0  0  0  0  0  0  0  0  0  0
   22.4763    6.8827   31.3171 C   0  0  0  0  0  0  0  0  0  0  0  0
   21.2961    7.4526   31.7290 C   0  0  0  0  0  0  0  0  0  0  0  0
   21.1513    8.8454   31.7029 C   0  0  0  0  0  0  0  0  0  0  0  0
   22.7145    4.9737   31.3168 Br  0  0  0  0  0  0  0  0  0  0  0  0
   22.9054   14.4104   30.0510 C   0  0  0  0  0  0  0  0  0  0  0  0
   23.6340   14.1648   28.8910 C   0  0  0  0  0  0  0  0  0  0  0  0
   23.8531   15.1515   27.9559 C   0  0  0  0  0  0  0  0  0  0  0  0
   23.3601   16.4337   28.1218 C   0  0  0  0  0  0  0  0  0  0  0  0
   22.6338   16.6825   29.2707 C   0  0  0  0  0  0  0  0  0  0  0  0
   22.4135   15.6783   30.2193 C   0  0  0  0  0  0  0  0  0  0  0  0
   23.5969   17.4297   27.1445 N   0  0  0  0  0  0  0  0  0  0  0  0
   23.7224   18.6307   27.4090 O   0  0  0  0  0  0  0  0  0  0  0  0
   23.7003   17.0575   25.8285 O   0  0  0  0  0  0  0  0  0  0  0  0
  1  2  1  0  0  0
  1  9  1  0  0  0
  2  3  1  0  0  0
  3  4  1  0  0  0
  4  5  1  0  0  0
  5  6  1  0  0  0
  5  9  1  0  0  0
  6  7  1  0  0  0
  6 10  1  0  0  0
  6 19  1  0  0  0
  7  8  1  0  0  0
  8  9  2  0  0  0
  8 12  1  0  0  0
 12 13  2  0  0  0
 12 17  1  0  0  0
 13 14  1  0  0  0
 14 15  2  0  0  0
 15 16  1  0  0  0
 15 18  1  0  0  0
 16 17  2  0  0  0
 19 20  2  0  0  0
 19 24  1  0  0  0
 20 21  1  0  0  0
 21 22  2  0  0  0
 22 23  1  0  0  0
 22 25  1  0  0  0
 23 24  2  0  0  0
 25 26  2  0  0  0
 25 27  1  0  0  0
 10 11  1  0  0  0
M  CHG 1  27  -1
M  END
> <minimizedAffinity>
-8.95324

$$$$
1222


 24 27  0  0  0  0  0  0  0  0999 V2000
   24.4720    9.2957   32.1560 S   0  0  0  0  0  0  0  0  0  0  0  0
   25.3126   10.6009   31.1520 C   0  0  0  0  0  0  0  0  0  0  0  0
   25.7147   10.0485   29.8091 C   0  0  0  0  0  0  0  0  0  0  0  0
   25.9897    8.5603   29.8175 C   0  0  0  0  0  0  0  0  0  0  0  0
   24.8370    7.7583   29.9504 N   0  0  0  0  0  0  0  0  0  0  0  0
   24.2688    6.4888   29.4643 C   0  0  0  0  0  0  0  0  0  0  0  0
   22.8267    6.9289   29.3796 C   0  0  0  0  0  0  0  0  0  0  0  0
   22.6860    7.6908   30.6116 N   0  0  0  0  0  0  0  0  0  0  0  0
   23.7946    8.2076   30.8599 C   0  0  0  0  0  0  0  0  0  0  0  0
   24.7342    6.1273   28.2374 O   0  0  0  0  0  0  0  0  0  0  0  0
   25.7172    6.1334   28.1248 H   0  0  0  0  0  0  0  0  0  0  0  0
   21.4906    7.7632   31.4182 C   0  0  0  0  0  0  0  0  0  0  0  0
   20.7297    6.7002   31.7904 C   0  0  0  0  0  0  0  0  0  0  0  0
   19.5592    6.8189   32.5294 C   0  0  0  0  0  0  0  0  0  0  0  0
   19.1270    8.0604   32.9148 C   0  0  0  0  0  0  0  0  0  0  0  0
   19.8979    9.1436   32.5394 C   0  0  0  0  0  0  0  0  0  0  0  0
   21.0493    9.0244   31.8119 C   0  0  0  0  0  0  0  0  0  0  0  0
   17.5206    8.3221   33.9330 Br  0  0  0  0  0  0  0  0  0  0  0  0
   24.4042    5.4163   30.5051 C   0  0  0  0  0  0  0  0  0  0  0  0
   23.3162    4.8095   31.1027 C   0  0  0  0  0  0  0  0  0  0  0  0
   23.5298    3.8193   32.0530 C   0  0  0  0  0  0  0  0  0  0  0  0
   24.7995    3.4047   32.4333 C   0  0  0  0  0  0  0  0  0  0  0  0
   25.8818    4.0006   31.8452 C   0  0  0  0  0  0  0  0  0  0  0  0
   25.6709    4.9971   30.8931 C   0  0  0  0  0  0  0  0  0  0  0  0
  1  2  1  0  0  0
  1  9  1  0  0  0
  2  3  1  0  0  0
  3  4  1  0  0  0
  4  5  1  0  0  0
  5  6  1  0  0  0
  5  9  1  0  0  0
  6  7  1  0  0  0
  6 10  1  0  0  0
  6 19  1  0  0  0
  7  8  1  0  0  0
  8  9  2  0  0  0
  8 12  1  0  0  0
 12 13  2  0  0  0
 12 17  1  0  0  0
 13 14  1  0  0  0
 14 15  2  0  0  0
 15 16  1  0  0  0
 15 18  1  0  0  0
 16 17  2  0  0  0
 19 20  2  0  0  0
 19 24  1  0  0  0
 20 21  1  0  0  0
 21 22  2  0  0  0
 22 23  1  0  0  0
 23 24  2  0  0  0
 10 11  1  0  0  0
M  END
> <minimizedAffinity>
-7.80247

$$$$
1224


 26 29  0  0  0  0  0  0  0  0999 V2000
   27.1638    8.5906   29.0052 S   0  0  0  0  0  0  0  0  0  0  0  0
   28.1220    9.2145   27.5642 C   0  0  0  0  0  0  0  0  0  0  0  0
   29.1583    8.1378   27.2775 C   0  0  0  0  0  0  0  0  0  0  0  0
   28.5355    6.8911   26.7326 C   0  0  0  0  0  0  0  0  0  0  0  0
   27.6484    6.2197   27.6318 N   0  0  0  0  0  0  0  0  0  0  0  0
   27.3754    4.8245   27.9895 C   0  0  0  0  0  0  0  0  0  0  0  0
   25.8411    4.9466   28.0489 C   0  0  0  0  0  0  0  0  0  0  0  0
   25.6803    6.2124   28.7406 N   0  0  0  0  0  0  0  0  0  0  0  0
   26.7037    6.9215   28.4851 C   0  0  0  0  0  0  0  0  0  0  0  0
   27.7706    3.9940   26.9675 O   0  0  0  0  0  0  0  0  0  0  0  0
   27.0430    3.7886   26.3337 H   0  0  0  0  0  0  0  0  0  0  0  0
   27.8998    4.4614   29.3179 C   0  0  0  0  0  0  0  0  0  0  0  0
   29.1059    4.8689   29.8434 C   0  0  0  0  0  0  0  0  0  0  0  0
   29.5033    4.4779   31.1113 C   0  0  0  0  0  0  0  0  0  0  0  0
   28.6986    3.6754   31.8676 C   0  0  0  0  0  0  0  0  0  0  0  0
   27.4891    3.2582   31.3569 C   0  0  0  0  0  0  0  0  0  0  0  0
   27.1071    3.6528   30.1000 C   0  0  0  0  0  0  0  0  0  0  0  0
   29.1920    3.0961   33.6324 Br  0  0  0  0  0  0  0  0  0  0  0  0
   24.5231    6.5153   29.5526 C   0  0  0  0  0  0  0  0  0  0  0  0
   23.9143    5.5061   30.2927 C   0  0  0  0  0  0  0  0  0  0  0  0
   22.8085    5.7623   31.0735 C   0  0  0  0  0  0  0  0  0  0  0  0
   22.2434    7.0160   31.1690 C   0  0  0  0  0  0  0  0  0  0  0  0
   22.8379    8.0180   30.4404 C   0  0  0  0  0  0  0  0  0  0  0  0
   23.9645    7.7529   29.6456 C   0  0  0  0  0  0  0  0  0  0  0  0
   21.1280    7.2373   31.9694 O   0  0  0  0  0  0  0  0  0  0  0  0
   20.2772    6.2461   32.4705 C   0  0  0  0  0  0  0  0  0  0  0  0
  1  2  1  0  0  0
  1  9  1  0  0  0
  2  3  1  0  0  0
  3  4  1  0  0  0
  4  5  1  0  0  0
  5  6  1  0  0  0
  5  9  1  0  0  0
  6  7  1  0  0  0
  6 10  1  0  0  0
  6 12  1  0  0  0
  7  8  1  0  0  0
  8  9  2  0  0  0
  8 19  1  0  0  0
 19 20  2  0  0  0
 19 24  1  0  0  0
 20 21  1  0  0  0
 21 22  2  0  0  0
 22 23  1  0  0  0
 22 25  1  0  0  0
 23 24  2  0  0  0
 25 26  1  0  0  0
 12 13  2  0  0  0
 12 17  1  0  0  0
 13 14  1  0  0  0
 14 15  2  0  0  0
 15 16  1  0  0  0
 15 18  1  0  0  0
 16 17  2  0  0  0
 10 11  1  0  0  0
M  END
> <minimizedAffinity>
-6.10245

$$$$
1226


 24 27  0  0  0  0  0  0  0  0999 V2000
   20.7274    8.8707   33.2484 S   0  0  0  0  0  0  0  0  0  0  0  0
   19.1677    7.9530   33.3837 C   0  0  0  0  0  0  0  0  0  0  0  0
   19.0604    7.1056   32.1120 C   0  0  0  0  0  0  0  0  0  0  0  0
   20.1963    6.0705   32.1390 C   0  0  0  0  0  0  0  0  0  0  0  0
   21.4035    6.7195   31.6134 N   0  0  0  0  0  0  0  0  0  0  0  0
   22.4156    6.3040   30.7304 C   0  0  0  0  0  0  0  0  0  0  0  0
   23.1502    7.5854   30.3507 C   0  0  0  0  0  0  0  0  0  0  0  0
   22.6354    8.5675   31.2549 N   0  0  0  0  0  0  0  0  0  0  0  0
   21.7040    8.0647   31.9574 C   0  0  0  0  0  0  0  0  0  0  0  0
   21.8281    5.8396   29.5323 O   0  0  0  0  0  0  0  0  0  0  0  0
   21.3627    4.9940   29.7638 H   0  0  0  0  0  0  0  0  0  0  0  0
   23.3930    5.3151   31.1806 C   0  0  0  0  0  0  0  0  0  0  0  0
   24.7082    5.5128   30.7629 C   0  0  0  0  0  0  0  0  0  0  0  0
   25.7595    4.6911   31.1253 C   0  0  0  0  0  0  0  0  0  0  0  0
   25.5317    3.6131   31.9358 C   0  0  0  0  0  0  0  0  0  0  0  0
   24.2326    3.3995   32.3607 C   0  0  0  0  0  0  0  0  0  0  0  0
   23.1838    4.2358   31.9896 C   0  0  0  0  0  0  0  0  0  0  0  0
   26.9555    2.4346   32.4887 Br  0  0  0  0  0  0  0  0  0  0  0  0
   23.1182    9.9206   31.2706 C   0  0  0  0  0  0  0  0  0  0  0  0
   24.2696   10.2031   31.9315 C   0  0  0  0  0  0  0  0  0  0  0  0
   24.7311   11.5154   31.9057 C   0  0  0  0  0  0  0  0  0  0  0  0
   24.0724   12.5263   31.2427 C   0  0  0  0  0  0  0  0  0  0  0  0
   22.9051   12.1908   30.5876 C   0  0  0  0  0  0  0  0  0  0  0  0
   22.4207   10.9055   30.5923 C   0  0  0  0  0  0  0  0  0  0  0  0
  1  2  1  0  0  0
  1  9  1  0  0  0
  2  3  1  0  0  0
  3  4  1  0  0  0
  4  5  1  0  0  0
  5  6  1  0  0  0
  5  9  1  0  0  0
  6  7  1  0  0  0
  6 10  1  0  0  0
  6 12  1  0  0  0
  7  8  1  0  0  0
  8  9  2  0  0  0
  8 19  1  0  0  0
 19 20  2  0  0  0
 19 24  1  0  0  0
 20 21  1  0  0  0
 21 22  2  0  0  0
 22 23  1  0  0  0
 23 24  2  0  0  0
 12 13  2  0  0  0
 12 17  1  0  0  0
 13 14  1  0  0  0
 14 15  2  0  0  0
 15 16  1  0  0  0
 15 18  1  0  0  0
 16 17  2  0  0  0
 10 11  1  0  0  0
M  END
> <minimizedAffinity>
-8.15622

$$$$
1231


 37 40  0  0  0  0  0  0  0  0999 V2000
   23.7732   14.1146   28.7103 C   0  0  0  0  0  0  0  0  0  0  0  0
   23.9889   15.3711   28.3008 N   0  0  0  0  0  0  0  0  0  0  0  0
   25.1708   15.3428   27.6597 N   0  0  0  0  0  0  0  0  0  0  0  0
   25.6719   14.1604   27.6580 N   0  0  0  0  0  0  0  0  0  0  0  0
   24.8310   13.2862   28.3205 C   0  0  0  0  0  0  0  0  0  0  0  0
   23.2140   16.5620   28.4130 C   0  0  0  0  0  0  0  0  0  0  0  0
   22.6648   17.1032   29.5198 N   0  0  0  0  0  0  0  0  0  0  0  0
   22.0501   18.1977   29.2684 O   0  0  0  0  0  0  0  0  0  0  0  0
   22.1589   18.4356   27.9993 N   0  0  0  0  0  0  0  0  0  0  0  0
   22.8825   17.4411   27.4038 C   0  0  0  0  0  0  0  0  0  0  0  0
   23.2302   17.3573   26.0365 N   0  0  0  0  0  0  0  0  0  0  0  0
   22.9813   18.2749   25.5817 H   0  0  0  0  0  0  0  0  0  0  0  0
   22.7886   16.5729   25.5256 H   0  0  0  0  0  0  0  0  0  0  0  0
   24.2800   17.2698   25.9575 H   0  0  0  0  0  0  0  0  0  0  0  0
   25.0983   11.8806   28.4815 C   0  0  0  0  0  0  0  0  0  0  0  0
   25.7433   11.3007   27.5212 O   0  0  0  0  0  0  0  0  0  0  0  0
   24.7543   11.0479   29.5420 N   0  0  0  0  0  0  0  0  0  0  0  0
   24.2368   11.2815   30.4062 H   0  0  0  0  0  0  0  0  0  0  0  0
   25.1241    9.6583   29.5079 N   0  0  0  0  0  0  0  0  0  0  0  0
   24.3708    8.7492   29.9866 C   0  0  0  0  0  0  0  0  0  0  0  0
   24.7076    7.3323   29.9717 C   0  0  0  0  0  0  0  0  0  0  0  0
   24.1516    6.4465   30.8667 C   0  0  0  0  0  0  0  0  0  0  0  0
   24.4552    5.1010   30.8610 C   0  0  0  0  0  0  0  0  0  0  0  0
   25.3387    4.5836   29.9490 C   0  0  0  0  0  0  0  0  0  0  0  0
   25.9250    5.4579   29.0208 C   0  0  0  0  0  0  0  0  0  0  0  0
   25.6008    6.7973   29.0525 C   0  0  0  0  0  0  0  0  0  0  0  0
   25.6299    3.2279   29.9615 O   0  0  0  0  0  0  0  0  0  0  0  0
   23.6568    3.9099   32.1246 Br  0  0  0  0  0  0  0  0  0  0  0  0
   26.8009    4.8739   28.1357 O   0  0  0  0  0  0  0  0  0  0  0  0
   27.2493    5.4396   26.9291 C   0  0  0  0  0  0  0  0  0  0  0  0
   22.6002   13.6081   29.4398 C   0  0  0  0  0  0  0  0  0  0  0  0
   22.7321   13.4878   31.2111 S   0  0  0  0  0  0  0  0  0  0  0  0
   20.3375   12.2394   32.8090 S   0  0  0  0  0  0  0  0  0  0  0  0
   20.2338   10.4901   33.2968 C   0  0  0  0  0  0  0  0  0  0  0  0
   21.2926    9.9172   32.4102 C   0  0  0  0  0  0  0  0  0  0  0  0
   22.1006   10.8624   31.8267 N   0  0  0  0  0  0  0  0  0  0  0  0
   21.8592   12.0756   31.8754 C   0  0  0  0  0  0  0  0  0  0  0  0
 33 34  1  0  0  0
 33 37  1  0  0  0
 34 35  1  0  0  0
 35 36  1  0  0  0
 36 37  2  0  0  0
 37 32  1  0  0  0
 32 31  1  0  0  0
 31  1  1  0  0  0
  1  2  1  0  0  0
  1  5  2  0  0  0
  2  3  1  0  0  0
  2  6  1  0  0  0
  3  4  2  0  0  0
  4  5  1  0  0  0
  5 15  1  0  0  0
 15 16  2  0  0  0
 15 17  1  0  0  0
 17 19  1  0  0  0
 19 20  2  0  0  0
 20 21  1  0  0  0
 21 22  2  0  0  0
 21 26  1  0  0  0
 22 23  1  0  0  0
 23 24  2  0  0  0
 23 28  1  0  0  0
 24 25  1  0  0  0
 24 27  1  0  0  0
 25 26  2  0  0  0
 25 29  1  0  0  0
 29 30  1  0  0  0
  6  7  2  0  0  0
  6 10  1  0  0  0
  7  8  1  0  0  0
  8  9  1  0  0  0
  9 10  2  0  0  0
 10 11  1  0  0  0
 17 18  1  0  0  0
 11 12  1  0  0  0
 11 13  1  0  0  0
 11 14  1  0  0  0
M  CHG 1  11   1
M  CHG 1  27  -1
M  END
> <minimizedAffinity>
-8.71257

$$$$
1236


 30 34  0  0  0  0  0  0  0  0999 V2000
   29.1997   16.0725   23.9234 C   0  0  0  0  0  0  0  0  0  0  0  0
   26.0128   14.2682   20.6024 S   0  0  0  0  0  0  0  0  0  0  0  0
   26.8342   12.6118   20.4357 C   0  0  0  0  0  0  0  0  0  0  0  0
   28.0871   12.9461   21.2040 C   0  0  0  0  0  0  0  0  0  0  0  0
   27.7653   13.7151   22.3727 N   0  0  0  0  0  0  0  0  0  0  0  0
   26.6447   14.5612   22.2415 C   0  0  0  0  0  0  0  0  0  0  0  0
   26.2715   15.3069   23.1925 N   0  0  0  0  0  0  0  0  0  0  0  0
   26.9675   15.3691   24.4528 C   0  0  0  0  0  0  0  0  0  0  0  0
   26.4252   15.7598   25.5159 O   0  0  0  0  0  0  0  0  0  0  0  0
   28.3939   14.9432   24.4627 C   0  0  0  0  0  0  0  0  0  0  0  0
   28.4823   13.7186   23.6347 C   0  0  0  0  0  0  0  0  0  0  0  0
   29.1278   12.6877   23.9429 O   0  0  0  0  0  0  0  0  0  0  0  0
   30.1666   15.6695   22.8377 C   0  0  0  0  0  0  0  0  0  0  0  0
   31.5616   15.5339   23.2872 C   0  0  0  0  0  0  0  0  0  0  0  0
   31.9194   14.5002   23.9535 O   0  0  0  0  0  0  0  0  0  0  0  0
   32.5318   16.5665   22.9811 N   0  0  0  0  0  0  0  0  0  0  0  0
   33.8491   16.6968   23.5394 C   0  0  0  0  0  0  0  0  0  0  0  0
   34.2593   18.1467   23.6078 C   0  0  0  0  0  0  0  0  0  0  0  0
   33.6050   18.6435   21.9458 S   0  0  0  0  0  0  0  0  0  0  0  0
   32.1909   17.5465   22.0228 C   0  0  0  0  0  0  0  0  0  0  0  0
   31.0687   17.5603   21.4142 N   0  0  0  0  0  0  0  0  0  0  0  0
   30.0579   16.5706   21.6632 C   0  0  0  0  0  0  0  0  0  0  0  0
   29.0949   16.4996   20.8591 O   0  0  0  0  0  0  0  0  0  0  0  0
   29.8741   16.7633   25.0451 C   0  0  0  0  0  0  0  0  0  0  0  0
   30.1904   16.0826   26.2142 C   0  0  0  0  0  0  0  0  0  0  0  0
   30.8218   16.7154   27.2644 C   0  0  0  0  0  0  0  0  0  0  0  0
   31.1564   18.0483   27.1747 C   0  0  0  0  0  0  0  0  0  0  0  0
   30.8451   18.7135   26.0279 C   0  0  0  0  0  0  0  0  0  0  0  0
   30.2133   18.0946   24.9689 C   0  0  0  0  0  0  0  0  0  0  0  0
   31.2604   15.7883   28.8739 Br  0  0  0  0  0  0  0  0  0  0  0  0
  2  3  1  0  0  0
  2  6  1  0  0  0
  3  4  1  0  0  0
  4  5  1  0  0  0
  5  6  1  0  0  0
  5 11  1  0  0  0
  6  7  2  0  0  0
  7  8  1  0  0  0
  8  9  2  0  0  0
  8 10  1  0  0  0
 10 11  1  0  0  0
 10  1  1  0  0  0
 11 12  2  0  0  0
  1 13  1  0  0  0
  1 24  1  0  0  0
 13 14  1  0  0  0
 13 22  1  0  0  0
 14 15  2  0  0  0
 14 16  1  0  0  0
 16 17  1  0  0  0
 16 20  1  0  0  0
 17 18  1  0  0  0
 18 19  1  0  0  0
 19 20  1  0  0  0
 20 21  2  0  0  0
 21 22  1  0  0  0
 22 23  2  0  0  0
 24 25  2  0  0  0
 24 29  1  0  0  0
 25 26  1  0  0  0
 26 27  2  0  0  0
 26 30  1  0  0  0
 27 28  1  0  0  0
 28 29  2  0  0  0
M  END
> <minimizedAffinity>
-5.43410

$$$$
1237


 30 34  0  0  0  0  0  0  0  0999 V2000
   27.8030    5.2365   27.6363 C   0  0  0  0  0  0  0  0  0  0  0  0
   28.6502   10.4155   26.7677 S   0  0  0  0  0  0  0  0  0  0  0  0
   29.5397   10.2019   28.3710 C   0  0  0  0  0  0  0  0  0  0  0  0
   30.3377    8.9828   28.0313 C   0  0  0  0  0  0  0  0  0  0  0  0
   29.6047    8.0846   27.2214 N   0  0  0  0  0  0  0  0  0  0  0  0
   28.6190    8.6453   26.3826 C   0  0  0  0  0  0  0  0  0  0  0  0
   27.8771    7.9604   25.5718 N   0  0  0  0  0  0  0  0  0  0  0  0
   28.0555    6.5227   25.4422 C   0  0  0  0  0  0  0  0  0  0  0  0
   27.6833    6.0807   24.3279 O   0  0  0  0  0  0  0  0  0  0  0  0
   28.6189    5.8295   26.5663 C   0  0  0  0  0  0  0  0  0  0  0  0
   29.7546    6.6490   27.1335 C   0  0  0  0  0  0  0  0  0  0  0  0
   30.8066    6.1094   27.5212 O   0  0  0  0  0  0  0  0  0  0  0  0
   27.8567    5.7293   29.0188 C   0  0  0  0  0  0  0  0  0  0  0  0
   26.5832    6.5386   29.2630 C   0  0  0  0  0  0  0  0  0  0  0  0
   26.4947    7.7083   28.8251 O   0  0  0  0  0  0  0  0  0  0  0  0
   25.4826    5.9542   29.9973 N   0  0  0  0  0  0  0  0  0  0  0  0
   24.1345    6.4047   30.0386 C   0  0  0  0  0  0  0  0  0  0  0  0
   23.1786    5.2599   30.2657 C   0  0  0  0  0  0  0  0  0  0  0  0
   24.2076    4.3439   31.5080 S   0  0  0  0  0  0  0  0  0  0  0  0
   25.7696    4.8132   30.7852 C   0  0  0  0  0  0  0  0  0  0  0  0
   26.9252    4.2855   30.8840 N   0  0  0  0  0  0  0  0  0  0  0  0
   28.0471    4.8673   30.1545 C   0  0  0  0  0  0  0  0  0  0  0  0
   29.1714    4.5652   30.5933 O   0  0  0  0  0  0  0  0  0  0  0  0
   27.7289    3.7280   27.5367 C   0  0  0  0  0  0  0  0  0  0  0  0
   26.5189    3.0768   27.5530 C   0  0  0  0  0  0  0  0  0  0  0  0
   26.4924    1.7080   27.4660 C   0  0  0  0  0  0  0  0  0  0  0  0
   27.6168    0.9514   27.3625 C   0  0  0  0  0  0  0  0  0  0  0  0
   28.8408    1.5730   27.3441 C   0  0  0  0  0  0  0  0  0  0  0  0
   28.8678    2.9651   27.4329 C   0  0  0  0  0  0  0  0  0  0  0  0
   27.5697   -0.9628   27.2413 Br  0  0  0  0  0  0  0  0  0  0  0  0
  2  3  1  0  0  0
  2  6  1  0  0  0
  3  4  1  0  0  0
  4  5  1  0  0  0
  5  6  1  0  0  0
  5 11  1  0  0  0
  6  7  2  0  0  0
  7  8  1  0  0  0
  8  9  2  0  0  0
  8 10  1  0  0  0
 10 11  1  0  0  0
 10  1  1  0  0  0
 11 12  2  0  0  0
  1 13  1  0  0  0
  1 24  1  0  0  0
 13 14  1  0  0  0
 13 22  1  0  0  0
 14 15  2  0  0  0
 14 16  1  0  0  0
 16 17  1  0  0  0
 16 20  1  0  0  0
 17 18  1  0  0  0
 18 19  1  0  0  0
 19 20  1  0  0  0
 20 21  2  0  0  0
 21 22  1  0  0  0
 22 23  2  0  0  0
 24 25  2  0  0  0
 24 29  1  0  0  0
 25 26  1  0  0  0
 26 27  2  0  0  0
 27 28  1  0  0  0
 27 30  1  0  0  0
 28 29  2  0  0  0
M  END
> <minimizedAffinity>
-5.74283

$$$$
1248


 21 24  0  0  0  0  0  0  0  0999 V2000
   24.1503   11.6494   30.8695 S   0  0  0  0  0  0  0  0  0  0  0  0
   23.9155    9.9672   31.1243 C   0  0  0  0  0  0  0  0  0  0  0  0
   22.6261    9.9332   31.4574 N   0  0  0  0  0  0  0  0  0  0  0  0
   22.3732    8.5985   31.6760 C   0  0  0  0  0  0  0  0  0  0  0  0
   23.4868    7.8961   31.4731 N   0  0  0  0  0  0  0  0  0  0  0  0
   24.4640    8.7099   31.1294 N   0  0  0  0  0  0  0  0  0  0  0  0
   21.9689   11.0208   31.4990 N   0  0  0  0  0  0  0  0  0  0  0  0
   22.5444   12.1735   31.2187 C   0  0  0  0  0  0  0  0  0  0  0  0
   21.9884   13.5305   31.2035 C   0  0  0  0  0  0  0  0  0  0  0  0
   22.4600   14.5810   30.5211 N   0  0  0  0  0  0  0  0  0  0  0  0
   21.6820   15.6488   30.7621 N   0  0  0  0  0  0  0  0  0  0  0  0
   20.6976   15.2855   31.6080 C   0  0  0  0  0  0  0  0  0  0  0  0
   20.8952   13.9311   31.8889 C   0  0  0  0  0  0  0  0  0  0  0  0
   19.7849   12.9233   33.0327 Br  0  0  0  0  0  0  0  0  0  0  0  0
   21.8323   16.5981   30.3507 H   0  0  0  0  0  0  0  0  0  0  0  0
   21.0766    8.0137   32.0747 C   0  0  0  0  0  0  0  0  0  0  0  0
   20.0408    8.7957   32.4309 N   0  0  0  0  0  0  0  0  0  0  0  0
   18.8595    8.2484   32.7942 C   0  0  0  0  0  0  0  0  0  0  0  0
   18.7005    6.8901   32.8036 C   0  0  0  0  0  0  0  0  0  0  0  0
   19.7354    6.1279   32.4467 N   0  0  0  0  0  0  0  0  0  0  0  0
   20.9271    6.6482   32.0803 C   0  0  0  0  0  0  0  0  0  0  0  0
  1  2  1  0  0  0
  1  8  1  0  0  0
  2  3  1  0  0  0
  2  6  2  0  0  0
  3  4  1  0  0  0
  3  7  1  0  0  0
  4  5  2  0  0  0
  4 16  1  0  0  0
  5  6  1  0  0  0
 16 17  2  0  0  0
 16 21  1  0  0  0
 17 18  1  0  0  0
 18 19  2  0  0  0
 19 20  1  0  0  0
 20 21  2  0  0  0
  7  8  2  0  0  0
  8  9  1  0  0  0
  9 10  2  0  0  0
  9 13  1  0  0  0
 10 11  1  0  0  0
 11 12  1  0  0  0
 12 13  2  0  0  0
 13 14  1  0  0  0
 11 15  1  0  0  0
M  END
> <minimizedAffinity>
-7.77247

$$$$
1255


 34 38  0  0  0  0  0  0  0  0999 V2000
   25.7028    5.7434   29.3845 C   0  0  0  0  0  0  0  0  0  0  0  0
   28.1725    3.5500   32.7424 S   0  0  0  0  0  0  0  0  0  0  0  0
   26.7433    3.7119   31.6850 C   0  0  0  0  0  0  0  0  0  0  0  0
   25.5460    4.1321   31.9351 N   0  0  0  0  0  0  0  0  0  0  0  0
   24.5625    4.1614   30.8752 C   0  0  0  0  0  0  0  0  0  0  0  0
   23.3477    4.0355   31.0205 O   0  0  0  0  0  0  0  0  0  0  0  0
   25.1023    4.3683   29.4610 C   0  0  0  0  0  0  0  0  0  0  0  0
   26.1340    3.2873   29.3724 C   0  0  0  0  0  0  0  0  0  0  0  0
   26.1509    2.4193   28.4530 O   0  0  0  0  0  0  0  0  0  0  0  0
   27.1539    3.2576   30.4129 N   0  0  0  0  0  0  0  0  0  0  0  0
   28.4518    2.8351   30.3120 N   0  0  0  0  0  0  0  0  0  0  0  0
   29.2484    2.8940   31.4759 C   0  0  0  0  0  0  0  0  0  0  0  0
   30.5224    2.5469   31.6330 C   0  0  0  0  0  0  0  0  0  0  0  0
   28.8909    2.4547   29.4003 H   0  0  0  0  0  0  0  0  0  0  0  0
   26.1945    6.2006   28.0697 C   0  0  0  0  0  0  0  0  0  0  0  0
   26.7928    5.2138   27.1834 C   0  0  0  0  0  0  0  0  0  0  0  0
   26.1208    4.7435   26.2035 O   0  0  0  0  0  0  0  0  0  0  0  0
   28.1511    4.7407   27.3778 N   0  0  0  0  0  0  0  0  0  0  0  0
   28.6964    3.5684   26.9626 N   0  0  0  0  0  0  0  0  0  0  0  0
   30.0604    3.3393   27.2715 C   0  0  0  0  0  0  0  0  0  0  0  0
   30.8234    2.3067   26.9869 C   0  0  0  0  0  0  0  0  0  0  0  0
   30.5735    4.8005   28.1709 S   0  0  0  0  0  0  0  0  0  0  0  0
   28.9948    5.6244   28.0807 C   0  0  0  0  0  0  0  0  0  0  0  0
   28.6220    6.7699   28.5295 N   0  0  0  0  0  0  0  0  0  0  0  0
   27.2755    7.2339   28.3363 C   0  0  0  0  0  0  0  0  0  0  0  0
   26.9325    8.4244   28.3721 O   0  0  0  0  0  0  0  0  0  0  0  0
   28.1734    2.8009   26.4144 H   0  0  0  0  0  0  0  0  0  0  0  0
   24.7947    6.7673   29.9757 C   0  0  0  0  0  0  0  0  0  0  0  0
   25.1725    7.5087   31.0713 C   0  0  0  0  0  0  0  0  0  0  0  0
   24.3382    8.4544   31.6215 C   0  0  0  0  0  0  0  0  0  0  0  0
   23.0959    8.6677   31.0678 C   0  0  0  0  0  0  0  0  0  0  0  0
   22.6730    7.9366   29.9556 C   0  0  0  0  0  0  0  0  0  0  0  0
   23.5390    6.9979   29.4335 C   0  0  0  0  0  0  0  0  0  0  0  0
   21.9134    9.9752   31.8090 Br  0  0  0  0  0  0  0  0  0  0  0  0
  2  3  1  0  0  0
  2 12  1  0  0  0
  3  4  2  0  0  0
  3 10  1  0  0  0
  4  5  1  0  0  0
  5  6  2  0  0  0
  5  7  1  0  0  0
  7  8  1  0  0  0
  7  1  1  0  0  0
  8  9  2  0  0  0
  8 10  1  0  0  0
 10 11  1  0  0  0
 11 12  1  0  0  0
 12 13  2  0  0  0
  1 15  1  0  0  0
  1 28  1  0  0  0
 15 16  1  0  0  0
 15 25  1  0  0  0
 16 17  2  0  0  0
 16 18  1  0  0  0
 18 19  1  0  0  0
 18 23  1  0  0  0
 19 20  1  0  0  0
 20 21  2  0  0  0
 20 22  1  0  0  0
 22 23  1  0  0  0
 23 24  2  0  0  0
 24 25  1  0  0  0
 25 26  2  0  0  0
 28 29  2  0  0  0
 28 33  1  0  0  0
 29 30  1  0  0  0
 30 31  2  0  0  0
 31 32  1  0  0  0
 31 34  1  0  0  0
 32 33  2  0  0  0
 11 14  1  0  0  0
 19 27  1  0  0  0
M  END
> <minimizedAffinity>
-5.98369

$$$$
1256


 30 33  0  0  0  0  0  0  0  0999 V2000
   23.7029   13.9941   29.5103 S   0  0  0  0  0  0  0  0  0  0  0  0
   22.3053   14.2218   30.4737 C   0  0  0  0  0  0  0  0  0  0  0  0
   21.4367   15.2628   30.6671 N   0  0  0  0  0  0  0  0  0  0  0  0
   20.3776   15.1406   31.4840 C   0  0  0  0  0  0  0  0  0  0  0  0
   19.5375   16.0294   31.7188 O   0  0  0  0  0  0  0  0  0  0  0  0
   20.2475   13.9139   32.0913 C   0  0  0  0  0  0  0  0  0  0  0  0
   21.1080   12.8726   31.9046 C   0  0  0  0  0  0  0  0  0  0  0  0
   22.1808   13.0282   31.0619 N   0  0  0  0  0  0  0  0  0  0  0  0
   23.0437   12.1315   30.7777 N   0  0  0  0  0  0  0  0  0  0  0  0
   24.0213   12.3530   29.9454 C   0  0  0  0  0  0  0  0  0  0  0  0
   25.0736   11.4734   29.4837 N   0  0  0  0  0  0  0  0  0  0  0  0
   25.3830   10.2904   30.1909 C   0  0  0  0  0  0  0  0  0  0  0  0
   26.5718    9.6005   29.5641 C   0  0  0  0  0  0  0  0  0  0  0  0
   27.5151   10.5547   29.1742 O   0  0  0  0  0  0  0  0  0  0  0  0
   27.0606   11.2506   28.0475 C   0  0  0  0  0  0  0  0  0  0  0  0
   25.7365   11.9032   28.2994 C   0  0  0  0  0  0  0  0  0  0  0  0
   20.8303   11.6239   32.6119 C   0  0  0  0  0  0  0  0  0  0  0  0
   20.1022   11.6503   33.6710 O   0  0  0  0  0  0  0  0  0  0  0  0
   21.3116   10.3567   32.2242 N   0  0  0  0  0  0  0  0  0  0  0  0
   21.9245   10.2408   31.3950 H   0  0  0  0  0  0  0  0  0  0  0  0
   20.9550    9.1773   33.0041 C   0  0  0  0  0  0  0  0  0  0  0  0
   21.2347    7.9376   32.2384 C   0  0  0  0  0  0  0  0  0  0  0  0
   20.3917    6.8475   32.3875 C   0  0  0  0  0  0  0  0  0  0  0  0
   20.6652    5.6824   31.7156 C   0  0  0  0  0  0  0  0  0  0  0  0
   21.7535    5.5521   30.8933 C   0  0  0  0  0  0  0  0  0  0  0  0
   22.5991    6.6346   30.7385 C   0  0  0  0  0  0  0  0  0  0  0  0
   22.3194    7.8094   31.4174 C   0  0  0  0  0  0  0  0  0  0  0  0
   24.1336    6.5388   29.6073 Br  0  0  0  0  0  0  0  0  0  0  0  0
   19.3018    6.9895   33.2172 O   0  0  0  0  0  0  0  0  0  0  0  0
   18.0108    7.1164   32.6213 C   0  0  0  0  0  0  0  0  0  0  0  0
  1  2  1  0  0  0
  1 10  1  0  0  0
  2  3  2  0  0  0
  2  8  1  0  0  0
  3  4  1  0  0  0
  4  5  2  0  0  0
  4  6  1  0  0  0
  6  7  2  0  0  0
  7  8  1  0  0  0
  7 17  1  0  0  0
  8  9  1  0  0  0
  9 10  2  0  0  0
 10 11  1  0  0  0
 11 12  1  0  0  0
 11 16  1  0  0  0
 12 13  1  0  0  0
 13 14  1  0  0  0
 14 15  1  0  0  0
 15 16  1  0  0  0
 17 18  2  0  0  0
 17 19  1  0  0  0
 19 21  1  0  0  0
 21 22  1  0  0  0
 22 23  2  0  0  0
 22 27  1  0  0  0
 23 24  1  0  0  0
 23 29  1  0  0  0
 24 25  2  0  0  0
 25 26  1  0  0  0
 26 27  2  0  0  0
 26 28  1  0  0  0
 29 30  1  0  0  0
 19 20  1  0  0  0
M  END
> <minimizedAffinity>
-9.18993

$$$$
1265


 24 27  0  0  0  0  0  0  0  0999 V2000
   23.7447    8.7690   31.2537 S   0  0  0  0  0  0  0  0  0  0  0  0
   23.4351    7.0086   31.2064 C   0  0  0  0  0  0  0  0  0  0  0  0
   23.9977    5.8772   30.9316 N   0  0  0  0  0  0  0  0  0  0  0  0
   23.1112    4.7918   31.1253 C   0  0  0  0  0  0  0  0  0  0  0  0
   21.8390    5.4217   31.5895 C   0  0  0  0  0  0  0  0  0  0  0  0
   22.1010    6.8800   31.6332 N   0  0  0  0  0  0  0  0  0  0  0  0
   21.4339    8.0679   31.9544 C   0  0  0  0  0  0  0  0  0  0  0  0
   22.1057    9.1900   31.8283 C   0  0  0  0  0  0  0  0  0  0  0  0
   20.0176    8.1399   32.4422 C   0  0  0  0  0  0  0  0  0  0  0  0
   19.5716    9.1980   33.2019 C   0  0  0  0  0  0  0  0  0  0  0  0
   18.2832    9.3119   33.6787 C   0  0  0  0  0  0  0  0  0  0  0  0
   17.3579    8.3320   33.4018 C   0  0  0  0  0  0  0  0  0  0  0  0
   17.7765    7.2706   32.6501 C   0  0  0  0  0  0  0  0  0  0  0  0
   19.0946    7.1640   32.1682 C   0  0  0  0  0  0  0  0  0  0  0  0
   25.4015    5.8056   30.4883 C   0  0  0  0  0  0  0  0  0  0  0  0
   25.3920    5.2561   29.1177 C   0  0  0  0  0  0  0  0  0  0  0  0
   24.9009    5.8950   28.1653 O   0  0  0  0  0  0  0  0  0  0  0  0
   25.9623    3.9429   28.8541 C   0  0  0  0  0  0  0  0  0  0  0  0
   26.1185    3.0080   29.8792 C   0  0  0  0  0  0  0  0  0  0  0  0
   26.6643    1.7572   29.6584 C   0  0  0  0  0  0  0  0  0  0  0  0
   27.0556    1.4515   28.3819 C   0  0  0  0  0  0  0  0  0  0  0  0
   26.9215    2.3420   27.3326 C   0  0  0  0  0  0  0  0  0  0  0  0
   26.3669    3.5993   27.5812 C   0  0  0  0  0  0  0  0  0  0  0  0
   27.8107   -0.2867   28.0860 Br  0  0  0  0  0  0  0  0  0  0  0  0
  1  2  1  0  0  0
  1  8  1  0  0  0
  2  3  2  0  0  0
  2  6  1  0  0  0
  3  4  1  0  0  0
  3 15  1  0  0  0
  4  5  1  0  0  0
  5  6  1  0  0  0
  6  7  1  0  0  0
  7  8  2  0  0  0
  7  9  1  0  0  0
  9 10  2  0  0  0
  9 14  1  0  0  0
 10 11  1  0  0  0
 11 12  2  0  0  0
 12 13  1  0  0  0
 13 14  2  0  0  0
 15 16  1  0  0  0
 16 17  2  0  0  0
 16 18  1  0  0  0
 18 19  2  0  0  0
 18 23  1  0  0  0
 19 20  1  0  0  0
 20 21  2  0  0  0
 21 22  1  0  0  0
 21 24  1  0  0  0
 22 23  2  0  0  0
M  END
> <minimizedAffinity>
-8.08620

$$$$
1266


 28 31  0  0  0  0  0  0  0  0999 V2000
   20.3803   12.8190   33.0447 C   0  0  0  0  0  0  0  0  0  0  0  0
   19.0640   12.9092   32.4247 N   0  0  0  0  0  0  0  0  0  0  0  0
   18.7515   14.0153   31.6486 C   0  0  0  0  0  0  0  0  0  0  0  0
   19.8654   14.7894   30.9757 C   0  0  0  0  0  0  0  0  0  0  0  0
   21.0902   14.7072   31.6441 N   0  0  0  0  0  0  0  0  0  0  0  0
   21.1275   14.0660   32.9238 C   0  0  0  0  0  0  0  0  0  0  0  0
   22.3360   15.2006   31.1779 C   0  0  0  0  0  0  0  0  0  0  0  0
   23.2717   15.1097   32.0945 O   0  0  0  0  0  0  0  0  0  0  0  0
   18.8104   12.0042   31.9793 H   0  0  0  0  0  0  0  0  0  0  0  0
   22.7648   15.7532   29.9443 C   0  0  0  0  0  0  0  0  0  0  0  0
   23.4282   14.8860   29.0423 C   0  0  0  0  0  0  0  0  0  0  0  0
   23.7460   15.2837   27.8107 N   0  0  0  0  0  0  0  0  0  0  0  0
   23.4576   16.5097   27.3701 C   0  0  0  0  0  0  0  0  0  0  0  0
   22.8168   17.3926   28.1964 C   0  0  0  0  0  0  0  0  0  0  0  0
   22.4679   17.0163   29.4916 C   0  0  0  0  0  0  0  0  0  0  0  0
   22.4711   18.6979   27.7237 N   0  0  0  0  0  0  0  0  0  0  0  0
   22.8098   19.0480   26.3809 C   0  0  0  0  0  0  0  0  0  0  0  0
   22.2252   19.9252   25.7129 O   0  0  0  0  0  0  0  0  0  0  0  0
   23.9420   18.3029   25.7491 C   0  0  0  0  0  0  0  0  0  0  0  0
   23.8026   16.9106   26.0745 O   0  0  0  0  0  0  0  0  0  0  0  0
   21.9826   19.3810   28.3219 H   0  0  0  0  0  0  0  0  0  0  0  0
   19.5473   10.2552   34.1793 Cl  0  0  0  0  0  0  0  0  0  0  0  0
   20.6465   10.3577   32.7884 C   0  0  0  0  0  0  0  0  0  0  0  0
   21.0322   11.6414   32.3705 C   0  0  0  0  0  0  0  0  0  0  0  0
   21.8790   11.7171   31.3036 C   0  0  0  0  0  0  0  0  0  0  0  0
   22.3244   10.5655   30.6788 C   0  0  0  0  0  0  0  0  0  0  0  0
   21.9461    9.2988   31.0890 C   0  0  0  0  0  0  0  0  0  0  0  0
   21.0822    9.2029   32.1751 C   0  0  0  0  0  0  0  0  0  0  0  0
 22 23  1  0  0  0
 23 24  2  0  0  0
 23 28  1  0  0  0
 24 25  1  0  0  0
 24  1  1  0  0  0
 25 26  2  0  0  0
 26 27  1  0  0  0
 27 28  2  0  0  0
  1  2  1  0  0  0
  1  6  1  0  0  0
  2  3  1  0  0  0
  3  4  1  0  0  0
  4  5  1  0  0  0
  5  6  1  0  0  0
  5  7  1  0  0  0
  7  8  2  0  0  0
  7 10  1  0  0  0
 10 11  2  0  0  0
 10 15  1  0  0  0
 11 12  1  0  0  0
 12 13  2  0  0  0
 13 14  1  0  0  0
 13 20  1  0  0  0
 14 15  2  0  0  0
 14 16  1  0  0  0
 16 17  1  0  0  0
 17 18  2  0  0  0
 17 19  1  0  0  0
 19 20  1  0  0  0
  2  9  1  0  0  0
 16 21  1  0  0  0
M  END
> <minimizedAffinity>
-8.81828

$$$$
1271


 35 38  0  0  0  0  0  0  0  0999 V2000
   24.6819   13.2071   28.5937 C   0  0  0  0  0  0  0  0  0  0  0  0
   25.5782   13.7884   27.7856 N   0  0  0  0  0  0  0  0  0  0  0  0
   25.1745   15.0198   27.6049 N   0  0  0  0  0  0  0  0  0  0  0  0
   24.0458   15.2431   28.2732 N   0  0  0  0  0  0  0  0  0  0  0  0
   23.6854   14.1422   28.9142 C   0  0  0  0  0  0  0  0  0  0  0  0
   23.3533   16.4768   28.2513 C   0  0  0  0  0  0  0  0  0  0  0  0
   22.7588   17.0129   29.3536 N   0  0  0  0  0  0  0  0  0  0  0  0
   22.2138   18.1330   28.9977 O   0  0  0  0  0  0  0  0  0  0  0  0
   22.4012   18.3721   27.7499 N   0  0  0  0  0  0  0  0  0  0  0  0
   23.1127   17.3583   27.2391 C   0  0  0  0  0  0  0  0  0  0  0  0
   23.5460   17.2024   25.9139 N   0  0  0  0  0  0  0  0  0  0  0  0
   22.9376   17.1890   25.0660 H   0  0  0  0  0  0  0  0  0  0  0  0
   24.5666   17.0859   25.7329 H   0  0  0  0  0  0  0  0  0  0  0  0
   23.6262   11.0365   29.2975 N   0  0  0  0  0  0  0  0  0  0  0  0
   24.7694   11.8332   29.0530 C   0  0  0  0  0  0  0  0  0  0  0  0
   25.9048   11.3380   29.2366 O   0  0  0  0  0  0  0  0  0  0  0  0
   22.6454   11.4017   29.1648 H   0  0  0  0  0  0  0  0  0  0  0  0
   23.7226    9.7145   29.7321 N   0  0  0  0  0  0  0  0  0  0  0  0
   23.9195    8.8983   29.1287 H   0  0  0  0  0  0  0  0  0  0  0  0
   23.5369    9.4478   31.1388 C   0  0  0  0  0  0  0  0  0  0  0  0
   24.3948    9.9522   31.9896 C   0  0  0  0  0  0  0  0  0  0  0  0
   18.7305    9.2023   33.4074 Br  0  0  0  0  0  0  0  0  0  0  0  0
   20.2401    8.4281   32.5473 C   0  0  0  0  0  0  0  0  0  0  0  0
   21.3142    9.1972   32.1721 C   0  0  0  0  0  0  0  0  0  0  0  0
   22.4174    8.6210   31.5439 C   0  0  0  0  0  0  0  0  0  0  0  0
   22.3696    7.2750   31.3262 C   0  0  0  0  0  0  0  0  0  0  0  0
   21.2814    6.4891   31.7062 C   0  0  0  0  0  0  0  0  0  0  0  0
   20.2102    7.0632   32.3189 C   0  0  0  0  0  0  0  0  0  0  0  0
   22.5472   13.8098   29.7399 C   0  0  0  0  0  0  0  0  0  0  0  0
   22.7884   13.7348   31.1677 N   0  0  0  0  0  0  0  0  0  0  0  0
   22.2781   14.9249   31.8417 C   0  0  0  0  0  0  0  0  0  0  0  0
   20.8713   15.2636   31.4009 C   0  0  0  0  0  0  0  0  0  0  0  0
   19.9522   14.0812   31.6504 C   0  0  0  0  0  0  0  0  0  0  0  0
   20.7009   12.9432   32.2840 C   0  0  0  0  0  0  0  0  0  0  0  0
   22.0300   12.6205   31.7288 C   0  0  0  0  0  0  0  0  0  0  0  0
 22 23  1  0  0  0
 23 24  2  0  0  0
 23 28  1  0  0  0
 24 25  1  0  0  0
 25 26  2  0  0  0
 25 20  1  0  0  0
 26 27  1  0  0  0
 27 28  2  0  0  0
 20 21  2  0  0  0
 20 18  1  0  0  0
 18 14  1  0  0  0
 14 15  1  0  0  0
 15 16  2  0  0  0
 15  1  1  0  0  0
  1  2  1  0  0  0
  1  5  2  0  0  0
  2  3  2  0  0  0
  3  4  1  0  0  0
  4  5  1  0  0  0
  4  6  1  0  0  0
  5 29  1  0  0  0
 29 30  1  0  0  0
 30 31  1  0  0  0
 30 35  1  0  0  0
 31 32  1  0  0  0
 32 33  1  0  0  0
 33 34  1  0  0  0
 34 35  1  0  0  0
  6  7  2  0  0  0
  6 10  1  0  0  0
  7  8  1  0  0  0
  8  9  1  0  0  0
  9 10  2  0  0  0
 10 11  1  0  0  0
 18 19  1  0  0  0
 14 17  1  0  0  0
 11 12  1  0  0  0
 11 13  1  0  0  0
M  END
> <minimizedAffinity>
-10.24841

$$$$
1280


 35 38  0  0  0  0  0  0  0  0999 V2000
   22.4748   11.6300   30.4286 C   0  0  0  0  0  0  0  0  0  0  0  0
   23.6230   12.4946   30.6137 N   0  0  0  0  0  0  0  0  0  0  0  0
   24.4119   11.9187   31.6406 C   0  0  0  0  0  0  0  0  0  0  0  0
   25.1833   12.5358   32.3822 O   0  0  0  0  0  0  0  0  0  0  0  0
   24.1209   10.4746   31.6300 C   0  0  0  0  0  0  0  0  0  0  0  0
   24.6095    9.5884   32.3721 O   0  0  0  0  0  0  0  0  0  0  0  0
   23.1422   10.2922   30.5654 C   0  0  0  0  0  0  0  0  0  0  0  0
   22.9541    9.1758   29.8761 C   0  0  0  0  0  0  0  0  0  0  0  0
   21.9777    9.2495   28.8548 O   0  0  0  0  0  0  0  0  0  0  0  0
   19.0346    9.5692   33.9833 Br  0  0  0  0  0  0  0  0  0  0  0  0
   19.8843   11.0558   33.1111 C   0  0  0  0  0  0  0  0  0  0  0  0
   20.8347   10.8367   32.1072 C   0  0  0  0  0  0  0  0  0  0  0  0
   21.4629   11.8926   31.4624 C   0  0  0  0  0  0  0  0  0  0  0  0
   21.1082   13.1536   31.8557 C   0  0  0  0  0  0  0  0  0  0  0  0
   20.1679   13.3903   32.8500 C   0  0  0  0  0  0  0  0  0  0  0  0
   19.5532   12.3342   33.4792 C   0  0  0  0  0  0  0  0  0  0  0  0
   23.6793    7.9336   30.1186 C   0  0  0  0  0  0  0  0  0  0  0  0
   23.2354    6.9241   30.9197 C   0  0  0  0  0  0  0  0  0  0  0  0
   24.0232    5.7794   31.1385 C   0  0  0  0  0  0  0  0  0  0  0  0
   25.2571    5.6151   30.5695 C   0  0  0  0  0  0  0  0  0  0  0  0
   25.7074    6.6340   29.7576 C   0  0  0  0  0  0  0  0  0  0  0  0
   24.9486    7.7535   29.5373 C   0  0  0  0  0  0  0  0  0  0  0  0
   21.8908    6.9927   31.5383 C   0  0  0  0  0  0  0  0  0  0  0  0
   26.0418    4.4815   30.7819 O   0  0  0  0  0  0  0  0  0  0  0  0
   25.6228    3.4771   31.6694 C   0  0  0  0  0  0  0  0  0  0  0  0
   23.8594   13.7101   29.8634 C   0  0  0  0  0  0  0  0  0  0  0  0
   24.5035   13.4791   28.5327 C   0  0  0  0  0  0  0  0  0  0  0  0
   25.0620   14.6779   27.8659 C   0  0  0  0  0  0  0  0  0  0  0  0
   26.3790   14.5397   27.3542 N   0  0  0  0  0  0  0  0  0  0  0  0
   26.7783   13.1419   27.1214 C   0  0  0  0  0  0  0  0  0  0  0  0
   28.3083   13.1521   27.1437 C   0  0  0  0  0  0  0  0  0  0  0  0
   28.8204   14.4358   27.0874 O   0  0  0  0  0  0  0  0  0  0  0  0
   28.2535   15.1542   26.0343 C   0  0  0  0  0  0  0  0  0  0  0  0
   26.7251   15.2638   26.1856 C   0  0  0  0  0  0  0  0  0  0  0  0
   27.0405   14.8714   28.1209 H   0  0  0  0  0  0  0  0  0  0  0  0
 10 11  1  0  0  0
 11 12  2  0  0  0
 11 16  1  0  0  0
 12 13  1  0  0  0
 13 14  2  0  0  0
 13  1  1  0  0  0
 14 15  1  0  0  0
 15 16  2  0  0  0
  1  2  1  0  0  0
  1  7  1  0  0  0
  2  3  1  0  0  0
  2 26  1  0  0  0
  3  4  2  0  0  0
  3  5  1  0  0  0
  5  6  2  0  0  0
  5  7  1  0  0  0
  7  8  2  0  0  0
  8  9  1  0  0  0
  8 17  1  0  0  0
 17 18  2  0  0  0
 17 22  1  0  0  0
 18 19  1  0  0  0
 18 23  1  0  0  0
 19 20  2  0  0  0
 20 21  1  0  0  0
 20 24  1  0  0  0
 21 22  2  0  0  0
 24 25  1  0  0  0
 26 27  1  0  0  0
 27 28  1  0  0  0
 28 29  1  0  0  0
 29 30  1  0  0  0
 29 34  1  0  0  0
 30 31  1  0  0  0
 31 32  1  0  0  0
 32 33  1  0  0  0
 33 34  1  0  0  0
 29 35  1  0  0  0
M  CHG 1   9  -1
M  CHG 1  29   1
M  END
> <minimizedAffinity>
-8.02202

$$$$
1282


 30 33  0  0  0  0  0  0  0  0999 V2000
   23.6082    6.8332   30.6372 C   0  0  0  0  0  0  0  0  0  0  0  0
   24.4142    8.0120   31.1479 C   0  0  0  0  0  0  0  0  0  0  0  0
   23.4009    9.0253   31.3687 N   0  0  0  0  0  0  0  0  0  0  0  0
   22.0707    8.4692   31.2262 C   0  0  0  0  0  0  0  0  0  0  0  0
   22.3359    6.9707   31.4245 C   0  0  0  0  0  0  0  0  0  0  0  0
   21.2218    9.0141   32.2844 C   0  0  0  0  0  0  0  0  0  0  0  0
   20.5689    8.2762   33.0369 O   0  0  0  0  0  0  0  0  0  0  0  0
   21.1640   10.4243   32.4277 N   0  0  0  0  0  0  0  0  0  0  0  0
   22.2864   11.2294   32.0015 C   0  0  0  0  0  0  0  0  0  0  0  0
   23.4866   10.4215   31.6887 C   0  0  0  0  0  0  0  0  0  0  0  0
   24.6233   10.9629   31.7005 O   0  0  0  0  0  0  0  0  0  0  0  0
   20.3357   10.9146   32.8345 H   0  0  0  0  0  0  0  0  0  0  0  0
   24.9204    4.9512   29.7896 C   0  0  0  0  0  0  0  0  0  0  0  0
   24.8702    5.5059   28.6306 O   0  0  0  0  0  0  0  0  0  0  0  0
   24.2900    5.5756   30.8848 N   0  0  0  0  0  0  0  0  0  0  0  0
   24.3220    5.1341   31.8139 H   0  0  0  0  0  0  0  0  0  0  0  0
   27.4610    0.9660   27.3564 Br  0  0  0  0  0  0  0  0  0  0  0  0
   26.7947    1.8552   28.9142 C   0  0  0  0  0  0  0  0  0  0  0  0
   26.1200    3.0386   28.7952 C   0  0  0  0  0  0  0  0  0  0  0  0
   25.6323    3.6913   29.9209 C   0  0  0  0  0  0  0  0  0  0  0  0
   25.8481    3.1200   31.1358 C   0  0  0  0  0  0  0  0  0  0  0  0
   26.5336    1.9203   31.2458 C   0  0  0  0  0  0  0  0  0  0  0  0
   27.0135    1.2769   30.1317 C   0  0  0  0  0  0  0  0  0  0  0  0
   21.9281   12.1753   30.8751 C   0  0  0  0  0  0  0  0  0  0  0  0
   21.7940   13.5747   31.3120 C   0  0  0  0  0  0  0  0  0  0  0  0
   22.8701   14.2193   31.8951 C   0  0  0  0  0  0  0  0  0  0  0  0
   22.7528   15.5270   32.3061 C   0  0  0  0  0  0  0  0  0  0  0  0
   21.5845   16.2515   32.1642 C   0  0  0  0  0  0  0  0  0  0  0  0
   20.5101   15.6119   31.5836 C   0  0  0  0  0  0  0  0  0  0  0  0
   20.6095   14.2992   31.1648 C   0  0  0  0  0  0  0  0  0  0  0  0
 17 18  1  0  0  0
 18 19  2  0  0  0
 18 23  1  0  0  0
 19 20  1  0  0  0
 20 21  2  0  0  0
 20 13  1  0  0  0
 21 22  1  0  0  0
 22 23  2  0  0  0
 13 14  2  0  0  0
 13 15  1  0  0  0
 15  1  1  0  0  0
  1  2  1  0  0  0
  1  5  1  0  0  0
  2  3  1  0  0  0
  3  4  1  0  0  0
  3 10  1  0  0  0
  4  5  1  0  0  0
  4  6  1  0  0  0
  6  7  2  0  0  0
  6  8  1  0  0  0
  8  9  1  0  0  0
  9 10  1  0  0  0
  9 24  1  0  0  0
 10 11  2  0  0  0
 24 25  1  0  0  0
 25 26  2  0  0  0
 25 30  1  0  0  0
 26 27  1  0  0  0
 27 28  2  0  0  0
 28 29  1  0  0  0
 29 30  2  0  0  0
 15 16  1  0  0  0
  8 12  1  0  0  0
M  END
> <minimizedAffinity>
-8.33437

$$$$
1284


 35 38  0  0  0  0  0  0  0  0999 V2000
   25.9217    2.7638   30.6462 C   0  0  0  0  0  0  0  0  0  0  0  0
   25.9690    1.7823   31.6644 N   0  0  0  0  0  0  0  0  0  0  0  0
   25.0528    2.1165   32.6939 C   0  0  0  0  0  0  0  0  0  0  0  0
   24.9260    1.4855   33.7891 O   0  0  0  0  0  0  0  0  0  0  0  0
   24.2976    3.2784   32.2782 C   0  0  0  0  0  0  0  0  0  0  0  0
   23.4111    3.7903   33.0141 O   0  0  0  0  0  0  0  0  0  0  0  0
   24.7750    3.6553   30.9617 C   0  0  0  0  0  0  0  0  0  0  0  0
   24.2878    4.6435   30.2461 C   0  0  0  0  0  0  0  0  0  0  0  0
   24.8711    4.9466   29.0374 O   0  0  0  0  0  0  0  0  0  0  0  0
   29.6120    4.6857   27.3255 Br  0  0  0  0  0  0  0  0  0  0  0  0
   28.8941    4.4045   29.0720 C   0  0  0  0  0  0  0  0  0  0  0  0
   27.7405    3.7247   29.3179 C   0  0  0  0  0  0  0  0  0  0  0  0
   27.1873    3.5005   30.5670 C   0  0  0  0  0  0  0  0  0  0  0  0
   27.8698    4.0136   31.6667 C   0  0  0  0  0  0  0  0  0  0  0  0
   29.0451    4.7080   31.4536 C   0  0  0  0  0  0  0  0  0  0  0  0
   29.5718    4.9160   30.1907 C   0  0  0  0  0  0  0  0  0  0  0  0
   23.1525    5.4072   30.7005 C   0  0  0  0  0  0  0  0  0  0  0  0
   23.2195    6.7560   31.0921 C   0  0  0  0  0  0  0  0  0  0  0  0
   21.9925    7.1779   31.4214 N   0  0  0  0  0  0  0  0  0  0  0  0
   21.1736    6.1561   31.2523 N   0  0  0  0  0  0  0  0  0  0  0  0
   21.8323    5.0716   30.8174 C   0  0  0  0  0  0  0  0  0  0  0  0
   24.4813    7.5514   31.1177 C   0  0  0  0  0  0  0  0  0  0  0  0
   21.6175    8.4768   31.8574 C   0  0  0  0  0  0  0  0  0  0  0  0
   20.5435    8.6052   32.7279 C   0  0  0  0  0  0  0  0  0  0  0  0
   20.1308    9.8352   33.2004 C   0  0  0  0  0  0  0  0  0  0  0  0
   20.7842   11.0074   32.8178 C   0  0  0  0  0  0  0  0  0  0  0  0
   21.8543   10.8795   31.9504 C   0  0  0  0  0  0  0  0  0  0  0  0
   22.2444    9.6465   31.4952 C   0  0  0  0  0  0  0  0  0  0  0  0
   26.8146    0.5556   31.6849 C   0  0  0  0  0  0  0  0  0  0  0  0
   26.5217   -0.2807   30.4660 C   0  0  0  0  0  0  0  0  0  0  0  0
   25.7509   -1.5267   30.7682 C   0  0  0  0  0  0  0  0  0  0  0  0
   24.3416   -1.4618   30.5645 N   0  0  0  0  0  0  0  0  0  0  0  0
   23.7806   -2.4395   29.6911 C   0  0  0  0  0  0  0  0  0  0  0  0
   23.6383   -1.5614   31.8536 C   0  0  0  0  0  0  0  0  0  0  0  0
   24.0791   -0.4963   30.1999 H   0  0  0  0  0  0  0  0  0  0  0  0
 10 11  1  0  0  0
 11 12  2  0  0  0
 11 16  1  0  0  0
 12 13  1  0  0  0
 13 14  2  0  0  0
 13  1  1  0  0  0
 14 15  1  0  0  0
 15 16  2  0  0  0
  1  2  1  0  0  0
  1  7  1  0  0  0
  2  3  1  0  0  0
  2 29  1  0  0  0
  3  4  2  0  0  0
  3  5  1  0  0  0
  5  6  2  0  0  0
  5  7  1  0  0  0
  7  8  2  0  0  0
  8  9  1  0  0  0
  8 17  1  0  0  0
 17 18  2  0  0  0
 17 21  1  0  0  0
 18 19  1  0  0  0
 18 22  1  0  0  0
 19 20  1  0  0  0
 19 23  1  0  0  0
 20 21  2  0  0  0
 23 24  2  0  0  0
 23 28  1  0  0  0
 24 25  1  0  0  0
 25 26  2  0  0  0
 26 27  1  0  0  0
 27 28  2  0  0  0
 29 30  1  0  0  0
 30 31  1  0  0  0
 31 32  1  0  0  0
 32 33  1  0  0  0
 32 34  1  0  0  0
 32 35  1  0  0  0
M  CHG 1   9  -1
M  CHG 1  32   1
M  END
> <minimizedAffinity>
-7.46494

$$$$
1285


 34 37  0  0  0  0  0  0  0  0999 V2000
   23.2506    8.6842   31.8654 C   0  0  0  0  0  0  0  0  0  0  0  0
   23.3071    7.4544   31.0997 N   0  0  0  0  0  0  0  0  0  0  0  0
   22.8967    7.7539   29.7477 C   0  0  0  0  0  0  0  0  0  0  0  0
   22.4216    6.9787   28.9095 O   0  0  0  0  0  0  0  0  0  0  0  0
   23.1668    9.1796   29.5879 C   0  0  0  0  0  0  0  0  0  0  0  0
   22.9687    9.9107   28.5720 O   0  0  0  0  0  0  0  0  0  0  0  0
   23.7257    9.6760   30.8346 C   0  0  0  0  0  0  0  0  0  0  0  0
   24.4443   10.7679   31.0395 C   0  0  0  0  0  0  0  0  0  0  0  0
   24.8216   11.0660   32.3799 O   0  0  0  0  0  0  0  0  0  0  0  0
   24.8468   11.6280   29.9546 C   0  0  0  0  0  0  0  0  0  0  0  0
   25.8856   11.4771   29.1060 N   0  0  0  0  0  0  0  0  0  0  0  0
   25.8683   12.5030   28.2200 C   0  0  0  0  0  0  0  0  0  0  0  0
   24.8142   13.3193   28.4973 N   0  0  0  0  0  0  0  0  0  0  0  0
   24.1934   12.7702   29.5680 C   0  0  0  0  0  0  0  0  0  0  0  0
   22.9797   13.3441   30.2122 C   0  0  0  0  0  0  0  0  0  0  0  0
   26.7862   12.6808   27.2175 C   0  0  0  0  0  0  0  0  0  0  0  0
   27.7971   11.7520   27.1053 C   0  0  0  0  0  0  0  0  0  0  0  0
   27.8202   10.7068   28.0063 C   0  0  0  0  0  0  0  0  0  0  0  0
   26.8762   10.5766   28.9890 C   0  0  0  0  0  0  0  0  0  0  0  0
   26.7173   13.8289   26.2678 C   0  0  0  0  0  0  0  0  0  0  0  0
   20.0001   12.6663   33.1002 Br  0  0  0  0  0  0  0  0  0  0  0  0
   20.3880   10.8041   32.9228 C   0  0  0  0  0  0  0  0  0  0  0  0
   21.6114   10.4041   32.4832 C   0  0  0  0  0  0  0  0  0  0  0  0
   21.9109    9.0452   32.3479 C   0  0  0  0  0  0  0  0  0  0  0  0
   20.9297    8.1333   32.6720 C   0  0  0  0  0  0  0  0  0  0  0  0
   19.6800    8.5421   33.1208 C   0  0  0  0  0  0  0  0  0  0  0  0
   19.4172    9.8863   33.2436 C   0  0  0  0  0  0  0  0  0  0  0  0
   23.6973    6.1428   31.5885 C   0  0  0  0  0  0  0  0  0  0  0  0
   25.0104    5.6619   31.0738 C   0  0  0  0  0  0  0  0  0  0  0  0
   24.9247    4.7430   29.8811 C   0  0  0  0  0  0  0  0  0  0  0  0
   25.3126    5.4561   28.6869 N   0  0  0  0  0  0  0  0  0  0  0  0
   26.2721    6.4972   29.0058 C   0  0  0  0  0  0  0  0  0  0  0  0
   25.9875    4.5297   27.7993 C   0  0  0  0  0  0  0  0  0  0  0  0
   24.4937    5.8246   28.1564 H   0  0  0  0  0  0  0  0  0  0  0  0
 21 22  1  0  0  0
 22 23  2  0  0  0
 22 27  1  0  0  0
 23 24  1  0  0  0
 24 25  2  0  0  0
 24  1  1  0  0  0
 25 26  1  0  0  0
 26 27  2  0  0  0
  1  2  1  0  0  0
  1  7  1  0  0  0
  2  3  1  0  0  0
  2 28  1  0  0  0
  3  4  2  0  0  0
  3  5  1  0  0  0
  5  6  2  0  0  0
  5  7  1  0  0  0
  7  8  2  0  0  0
  8  9  1  0  0  0
  8 10  1  0  0  0
 10 11  1  0  0  0
 10 14  2  0  0  0
 11 12  1  0  0  0
 11 19  1  0  0  0
 12 13  2  0  0  0
 12 16  1  0  0  0
 13 14  1  0  0  0
 14 15  1  0  0  0
 16 17  2  0  0  0
 16 20  1  0  0  0
 17 18  1  0  0  0
 18 19  2  0  0  0
 28 29  1  0  0  0
 29 30  1  0  0  0
 30 31  1  0  0  0
 31 32  1  0  0  0
 31 33  1  0  0  0
 31 34  1  0  0  0
M  CHG 1   9  -1
M  CHG 1  31   1
M  END
> <minimizedAffinity>
-7.87713

$$$$
1295


 26 29  0  0  0  0  0  0  0  0999 V2000
   22.5429   10.5437   32.0890 C   0  0  0  0  0  0  0  0  0  0  0  0
   21.9129    9.2426   32.0461 C   0  0  0  0  0  0  0  0  0  0  0  0
   22.4981    8.1932   31.3951 C   0  0  0  0  0  0  0  0  0  0  0  0
   23.7691    8.3131   30.7440 N   0  0  0  0  0  0  0  0  0  0  0  0
   24.3857    9.5922   30.8182 C   0  0  0  0  0  0  0  0  0  0  0  0
   23.8497   10.6079   31.4355 C   0  0  0  0  0  0  0  0  0  0  0  0
   24.7832   11.7725   31.3437 C   0  0  0  0  0  0  0  0  0  0  0  0
   24.5263   12.9035   31.8553 O   0  0  0  0  0  0  0  0  0  0  0  0
   25.8583   11.3352   30.6419 O   0  0  0  0  0  0  0  0  0  0  0  0
   25.7176   10.0189   30.2278 C   0  0  0  0  0  0  0  0  0  0  0  0
   21.8629    6.9773   31.3674 N   0  0  0  0  0  0  0  0  0  0  0  0
   20.6806    6.8127   31.9705 C   0  0  0  0  0  0  0  0  0  0  0  0
   20.1135    5.6841   31.9323 O   0  0  0  0  0  0  0  0  0  0  0  0
   20.1134    7.8501   32.6083 N   0  0  0  0  0  0  0  0  0  0  0  0
   20.6627    9.0602   32.6816 C   0  0  0  0  0  0  0  0  0  0  0  0
   20.1403   10.0356   33.2759 O   0  0  0  0  0  0  0  0  0  0  0  0
   18.8193    7.6223   33.2533 C   0  0  0  0  0  0  0  0  0  0  0  0
   22.5371    5.9003   30.6575 C   0  0  0  0  0  0  0  0  0  0  0  0
   24.1775    7.4937   30.2599 H   0  0  0  0  0  0  0  0  0  0  0  0
   18.8950   15.3672   30.8811 Br  0  0  0  0  0  0  0  0  0  0  0  0
   20.0366   13.8572   31.2213 C   0  0  0  0  0  0  0  0  0  0  0  0
   20.6153   13.1626   30.1906 C   0  0  0  0  0  0  0  0  0  0  0  0
   21.4441   12.0632   30.4758 C   0  0  0  0  0  0  0  0  0  0  0  0
   21.6831   11.6769   31.7605 C   0  0  0  0  0  0  0  0  0  0  0  0
   21.0989   12.3793   32.7846 C   0  0  0  0  0  0  0  0  0  0  0  0
   20.2677   13.4798   32.5122 C   0  0  0  0  0  0  0  0  0  0  0  0
 20 21  1  0  0  0
 21 22  2  0  0  0
 21 26  1  0  0  0
 22 23  1  0  0  0
 23 24  2  0  0  0
 24 25  1  0  0  0
 24  1  1  0  0  0
 25 26  2  0  0  0
  1  2  1  0  0  0
  1  6  1  0  0  0
  2  3  2  0  0  0
  2 15  1  0  0  0
  3  4  1  0  0  0
  3 11  1  0  0  0
  4  5  1  0  0  0
  5  6  2  0  0  0
  5 10  1  0  0  0
  6  7  1  0  0  0
  7  8  2  0  0  0
  7  9  1  0  0  0
  9 10  1  0  0  0
 11 12  1  0  0  0
 11 18  1  0  0  0
 12 13  2  0  0  0
 12 14  1  0  0  0
 14 15  1  0  0  0
 14 17  1  0  0  0
 15 16  2  0  0  0
  4 19  1  0  0  0
M  END
> <minimizedAffinity>
-9.10182

$$$$
1299


 36 39  0  0  0  0  0  0  0  0999 V2000
   22.0142   13.1655   31.3098 C   0  0  0  0  0  0  0  0  0  0  0  0
   21.3680   14.2306   31.8834 N   0  0  0  0  0  0  0  0  0  0  0  0
   20.3895   13.7095   32.5936 N   0  0  0  0  0  0  0  0  0  0  0  0
   20.3702   12.4198   32.5141 N   0  0  0  0  0  0  0  0  0  0  0  0
   21.3886   12.0135   31.7042 C   0  0  0  0  0  0  0  0  0  0  0  0
   21.6874   15.5992   31.7395 C   0  0  0  0  0  0  0  0  0  0  0  0
   21.2444   16.5003   30.8280 N   0  0  0  0  0  0  0  0  0  0  0  0
   21.7935   17.6375   31.0634 O   0  0  0  0  0  0  0  0  0  0  0  0
   22.5935   17.5974   32.0809 N   0  0  0  0  0  0  0  0  0  0  0  0
   22.5557   16.3176   32.5405 C   0  0  0  0  0  0  0  0  0  0  0  0
   23.2959   15.8469   33.6542 N   0  0  0  0  0  0  0  0  0  0  0  0
   22.8864   15.0837   34.2243 H   0  0  0  0  0  0  0  0  0  0  0  0
   24.2226   16.2187   33.9324 H   0  0  0  0  0  0  0  0  0  0  0  0
   23.1482   13.5971   29.0474 N   0  0  0  0  0  0  0  0  0  0  0  0
   23.1665   13.3792   30.4432 C   0  0  0  0  0  0  0  0  0  0  0  0
   24.3509   13.3783   30.9538 O   0  0  0  0  0  0  0  0  0  0  0  0
   22.2978   13.6358   28.4431 H   0  0  0  0  0  0  0  0  0  0  0  0
   25.1003   12.7944   27.9731 C   0  0  0  0  0  0  0  0  0  0  0  0
   24.4221   13.7820   28.4124 N   0  0  0  0  0  0  0  0  0  0  0  0
   28.6300   16.1706   25.8026 Br  0  0  0  0  0  0  0  0  0  0  0  0
   28.0482   14.4306   26.3302 C   0  0  0  0  0  0  0  0  0  0  0  0
   28.8836   13.3597   26.0849 C   0  0  0  0  0  0  0  0  0  0  0  0
   28.4581   12.1124   26.4674 C   0  0  0  0  0  0  0  0  0  0  0  0
   27.2311   11.9324   27.0794 C   0  0  0  0  0  0  0  0  0  0  0  0
   26.4053   12.9848   27.3225 C   0  0  0  0  0  0  0  0  0  0  0  0
   26.8253   14.2406   26.9417 C   0  0  0  0  0  0  0  0  0  0  0  0
   29.6169   10.6159   26.1286 Br  0  0  0  0  0  0  0  0  0  0  0  0
   30.1206   13.5009   25.4728 O   0  0  0  0  0  0  0  0  0  0  0  0
   30.4894   14.3848   25.1697 H   0  0  0  0  0  0  0  0  0  0  0  0
   21.7475   10.6503   31.3155 C   0  0  0  0  0  0  0  0  0  0  0  0
   22.1728    9.8088   32.4236 N   0  0  0  0  0  0  0  0  0  0  0  0
   21.2324    8.7110   32.6104 C   0  0  0  0  0  0  0  0  0  0  0  0
   21.6332    7.4925   31.8280 C   0  0  0  0  0  0  0  0  0  0  0  0
   22.4575    7.7589   30.7504 O   0  0  0  0  0  0  0  0  0  0  0  0
   23.6471    8.3915   31.0779 C   0  0  0  0  0  0  0  0  0  0  0  0
   23.5133    9.2995   32.2702 C   0  0  0  0  0  0  0  0  0  0  0  0
 20 21  1  0  0  0
 21 22  2  0  0  0
 21 26  1  0  0  0
 22 23  1  0  0  0
 22 28  1  0  0  0
 23 24  2  0  0  0
 23 27  1  0  0  0
 24 25  1  0  0  0
 25 26  2  0  0  0
 25 18  1  0  0  0
 18 19  2  0  0  0
 19 14  1  0  0  0
 14 15  1  0  0  0
 15 16  2  0  0  0
 15  1  1  0  0  0
  1  2  1  0  0  0
  1  5  2  0  0  0
  2  3  1  0  0  0
  2  6  1  0  0  0
  3  4  2  0  0  0
  4  5  1  0  0  0
  5 30  1  0  0  0
 30 31  1  0  0  0
 31 32  1  0  0  0
 31 36  1  0  0  0
 32 33  1  0  0  0
 33 34  1  0  0  0
 34 35  1  0  0  0
 35 36  1  0  0  0
  6  7  2  0  0  0
  6 10  1  0  0  0
  7  8  1  0  0  0
  8  9  1  0  0  0
  9 10  2  0  0  0
 10 11  1  0  0  0
 14 17  1  0  0  0
 11 12  1  0  0  0
 11 13  1  0  0  0
 28 29  1  0  0  0
M  END
> <minimizedAffinity>
-8.62810

$$$$
1300


 22 25  0  0  0  0  0  0  0  0999 V2000
   22.4308   11.9853   31.2274 N   0  0  0  0  0  0  0  0  0  0  0  0
   23.5724   12.7027   31.6586 C   0  0  0  0  0  0  0  0  0  0  0  0
   24.5952   12.2238   32.1903 O   0  0  0  0  0  0  0  0  0  0  0  0
   23.4043   14.1477   31.3945 C   0  0  0  0  0  0  0  0  0  0  0  0
   22.8822   14.7656   32.6735 C   0  0  0  0  0  0  0  0  0  0  0  0
   21.5417   14.2969   32.6398 O   0  0  0  0  0  0  0  0  0  0  0  0
   21.1923   14.9194   31.4118 C   0  0  0  0  0  0  0  0  0  0  0  0
   22.1782   14.2504   30.4919 C   0  0  0  0  0  0  0  0  0  0  0  0
   21.7547   12.8446   30.3061 C   0  0  0  0  0  0  0  0  0  0  0  0
   20.9035   12.4460   29.4465 O   0  0  0  0  0  0  0  0  0  0  0  0
   21.5698   16.3141   31.7228 C   0  0  0  0  0  0  0  0  0  0  0  0
   22.6512   16.2202   32.4921 C   0  0  0  0  0  0  0  0  0  0  0  0
   23.7355    9.8298   29.5562 Br  0  0  0  0  0  0  0  0  0  0  0  0
   22.4249    9.5627   30.9274 C   0  0  0  0  0  0  0  0  0  0  0  0
   21.9644   10.6891   31.5699 C   0  0  0  0  0  0  0  0  0  0  0  0
   21.0115   10.4864   32.5694 C   0  0  0  0  0  0  0  0  0  0  0  0
   20.5720    9.2202   32.8768 C   0  0  0  0  0  0  0  0  0  0  0  0
   21.0362    8.0871   32.2296 C   0  0  0  0  0  0  0  0  0  0  0  0
   21.9796    8.2804   31.2397 C   0  0  0  0  0  0  0  0  0  0  0  0
   20.5606    6.7903   32.5685 N   0  0  0  0  0  0  0  0  0  0  0  0
   21.2113    5.8048   32.1793 O   0  0  0  0  0  0  0  0  0  0  0  0
   19.4290    6.5509   33.2989 O   0  0  0  0  0  0  0  0  0  0  0  0
 13 14  1  0  0  0
 14 15  2  0  0  0
 14 19  1  0  0  0
 15 16  1  0  0  0
 15  1  1  0  0  0
 16 17  2  0  0  0
 17 18  1  0  0  0
 18 19  2  0  0  0
 18 20  1  0  0  0
 20 21  2  0  0  0
 20 22  1  0  0  0
  1  2  1  0  0  0
  1  9  1  0  0  0
  2  3  2  0  0  0
  2  4  1  0  0  0
  4  5  1  0  0  0
  4  8  1  0  0  0
  5  6  1  0  0  0
  5 12  1  0  0  0
  6  7  1  0  0  0
  7  8  1  0  0  0
  7 11  1  0  0  0
  8  9  1  0  0  0
  9 10  2  0  0  0
 11 12  2  0  0  0
M  CHG 1  22  -1
M  END
> <minimizedAffinity>
-7.50251

$$$$
1301


 24 27  0  0  0  0  0  0  0  0999 V2000
   22.9839   10.9173   32.0035 N   0  0  0  0  0  0  0  0  0  0  0  0
   24.3094   10.4054   32.0799 C   0  0  0  0  0  0  0  0  0  0  0  0
   24.7332    9.5006   32.8311 O   0  0  0  0  0  0  0  0  0  0  0  0
   25.1760   11.1235   31.0967 C   0  0  0  0  0  0  0  0  0  0  0  0
   25.1390   10.4890   29.7466 C   0  0  0  0  0  0  0  0  0  0  0  0
   23.9091   10.9474   29.2117 O   0  0  0  0  0  0  0  0  0  0  0  0
   24.1856   12.3307   29.3552 C   0  0  0  0  0  0  0  0  0  0  0  0
   24.4083   12.4160   30.8296 C   0  0  0  0  0  0  0  0  0  0  0  0
   23.1267   12.2594   31.5574 C   0  0  0  0  0  0  0  0  0  0  0  0
   22.2973   13.1733   31.7478 O   0  0  0  0  0  0  0  0  0  0  0  0
   25.4848   12.3908   28.6200 C   0  0  0  0  0  0  0  0  0  0  0  0
   26.0874   11.2125   28.8584 C   0  0  0  0  0  0  0  0  0  0  0  0
   23.1290   13.1931   28.8093 C   0  0  0  0  0  0  0  0  0  0  0  0
   20.4983    6.2352   32.0251 Br  0  0  0  0  0  0  0  0  0  0  0  0
   20.5592    8.1045   32.3751 C   0  0  0  0  0  0  0  0  0  0  0  0
   19.4511    8.7071   32.9235 C   0  0  0  0  0  0  0  0  0  0  0  0
   19.5230   10.0592   33.1663 C   0  0  0  0  0  0  0  0  0  0  0  0
   20.6842   10.7787   32.8632 C   0  0  0  0  0  0  0  0  0  0  0  0
   21.8040   10.1885   32.3131 C   0  0  0  0  0  0  0  0  0  0  0  0
   21.7159    8.8281   32.0738 C   0  0  0  0  0  0  0  0  0  0  0  0
   18.2120    7.9428   33.2507 C   0  0  0  0  0  0  0  0  0  0  0  0
   25.2752    9.0219   29.7214 C   0  0  0  0  0  0  0  0  0  0  0  0
   24.0930    8.3932   29.3375 O   0  0  0  0  0  0  0  0  0  0  0  0
   23.5391    8.0975   30.1129 H   0  0  0  0  0  0  0  0  0  0  0  0
 14 15  1  0  0  0
 15 16  2  0  0  0
 15 20  1  0  0  0
 16 17  1  0  0  0
 16 21  1  0  0  0
 17 18  2  0  0  0
 18 19  1  0  0  0
 19 20  2  0  0  0
 19  1  1  0  0  0
  1  2  1  0  0  0
  1  9  1  0  0  0
  2  3  2  0  0  0
  2  4  1  0  0  0
  4  5  1  0  0  0
  4  8  1  0  0  0
  5  6  1  0  0  0
  5 12  1  0  0  0
  5 22  1  0  0  0
  6  7  1  0  0  0
  7  8  1  0  0  0
  7 11  1  0  0  0
  7 13  1  0  0  0
  8  9  1  0  0  0
  9 10  2  0  0  0
 11 12  2  0  0  0
 22 23  1  0  0  0
 23 24  1  0  0  0
M  END
> <minimizedAffinity>
-8.03051

$$$$
1310


 32 35  0  0  0  0  0  0  0  0999 V2000
   22.3636   11.6811   30.5208 C   0  0  0  0  0  0  0  0  0  0  0  0
   23.5291   12.5071   30.7503 N   0  0  0  0  0  0  0  0  0  0  0  0
   24.3491   11.8128   31.6736 C   0  0  0  0  0  0  0  0  0  0  0  0
   25.1776   12.2939   32.4861 O   0  0  0  0  0  0  0  0  0  0  0  0
   24.0416   10.3929   31.4983 C   0  0  0  0  0  0  0  0  0  0  0  0
   24.5183    9.4026   32.0982 O   0  0  0  0  0  0  0  0  0  0  0  0
   23.0210   10.3384   30.4396 C   0  0  0  0  0  0  0  0  0  0  0  0
   22.7807    9.3038   29.6669 C   0  0  0  0  0  0  0  0  0  0  0  0
   21.7334    9.4287   28.7453 O   0  0  0  0  0  0  0  0  0  0  0  0
   23.5686    8.0572   29.7403 C   0  0  0  0  0  0  0  0  0  0  0  0
   24.7611    7.8165   29.2827 O   0  0  0  0  0  0  0  0  0  0  0  0
   25.1396    6.5850   29.5405 C   0  0  0  0  0  0  0  0  0  0  0  0
   24.1247    5.9388   30.2274 C   0  0  0  0  0  0  0  0  0  0  0  0
   23.1331    6.8934   30.3457 C   0  0  0  0  0  0  0  0  0  0  0  0
   24.2727    4.6259   30.6189 C   0  0  0  0  0  0  0  0  0  0  0  0
   25.4153    3.9066   30.3514 C   0  0  0  0  0  0  0  0  0  0  0  0
   26.4339    4.5347   29.6689 C   0  0  0  0  0  0  0  0  0  0  0  0
   26.2883    5.8625   29.2709 C   0  0  0  0  0  0  0  0  0  0  0  0
   18.8476    9.3036   33.8644 Br  0  0  0  0  0  0  0  0  0  0  0  0
   19.7241   10.8506   33.1297 C   0  0  0  0  0  0  0  0  0  0  0  0
   20.6866   10.7064   32.1285 C   0  0  0  0  0  0  0  0  0  0  0  0
   21.3419   11.7731   31.5680 C   0  0  0  0  0  0  0  0  0  0  0  0
   20.9884   13.0405   32.0609 C   0  0  0  0  0  0  0  0  0  0  0  0
   20.0427   13.1970   33.0475 C   0  0  0  0  0  0  0  0  0  0  0  0
   19.3999   12.1074   33.5922 C   0  0  0  0  0  0  0  0  0  0  0  0
   23.8933   13.7996   30.1740 C   0  0  0  0  0  0  0  0  0  0  0  0
   23.9507   13.7085   28.6609 C   0  0  0  0  0  0  0  0  0  0  0  0
   25.0620   12.8168   28.1733 C   0  0  0  0  0  0  0  0  0  0  0  0
   26.2111   13.6055   27.8637 N   0  0  0  0  0  0  0  0  0  0  0  0
   27.1631   12.9225   27.0136 C   0  0  0  0  0  0  0  0  0  0  0  0
   25.9383   14.8820   27.2758 C   0  0  0  0  0  0  0  0  0  0  0  0
   26.7210   13.7895   28.7789 H   0  0  0  0  0  0  0  0  0  0  0  0
 19 20  1  0  0  0
 20 21  2  0  0  0
 20 25  1  0  0  0
 21 22  1  0  0  0
 22 23  2  0  0  0
 22  1  1  0  0  0
 23 24  1  0  0  0
 24 25  2  0  0  0
  1  2  1  0  0  0
  1  7  1  0  0  0
  2  3  1  0  0  0
  2 26  1  0  0  0
  3  4  2  0  0  0
  3  5  1  0  0  0
  5  6  2  0  0  0
  5  7  1  0  0  0
  7  8  2  0  0  0
  8  9  1  0  0  0
  8 10  1  0  0  0
 10 11  1  0  0  0
 10 14  2  0  0  0
 11 12  1  0  0  0
 12 13  2  0  0  0
 12 18  1  0  0  0
 13 14  1  0  0  0
 13 15  1  0  0  0
 15 16  2  0  0  0
 16 17  1  0  0  0
 17 18  2  0  0  0
 26 27  1  0  0  0
 27 28  1  0  0  0
 28 29  1  0  0  0
 29 30  1  0  0  0
 29 31  1  0  0  0
 29 32  1  0  0  0
M  CHG 1   9  -1
M  CHG 1  29   1
M  END
> <minimizedAffinity>
-7.81749

$$$$
1314


 32 35  0  0  0  0  0  0  0  0999 V2000
   24.0558   12.5022   29.4320 C   0  0  0  0  0  0  0  0  0  0  0  0
   24.8341   12.8981   28.4716 N   0  0  0  0  0  0  0  0  0  0  0  0
   24.6252   14.1470   28.2337 N   0  0  0  0  0  0  0  0  0  0  0  0
   23.6479   14.6822   29.0622 N   0  0  0  0  0  0  0  0  0  0  0  0
   23.2722   13.6821   29.8282 C   0  0  0  0  0  0  0  0  0  0  0  0
   23.2968   16.0151   28.8538 C   0  0  0  0  0  0  0  0  0  0  0  0
   22.5391   16.7237   29.7861 N   0  0  0  0  0  0  0  0  0  0  0  0
   22.2698   17.8683   29.2972 O   0  0  0  0  0  0  0  0  0  0  0  0
   22.7674   18.0160   28.1348 N   0  0  0  0  0  0  0  0  0  0  0  0
   23.4205   16.8593   27.8291 C   0  0  0  0  0  0  0  0  0  0  0  0
   24.0741   16.7092   26.5631 N   0  0  0  0  0  0  0  0  0  0  0  0
   24.9790   17.1859   26.4432 H   0  0  0  0  0  0  0  0  0  0  0  0
   23.6259   16.2054   25.8005 H   0  0  0  0  0  0  0  0  0  0  0  0
   22.8685   10.2438   29.0421 N   0  0  0  0  0  0  0  0  0  0  0  0
   23.7209   11.2155   29.8894 C   0  0  0  0  0  0  0  0  0  0  0  0
   24.0434   10.7435   30.9738 O   0  0  0  0  0  0  0  0  0  0  0  0
   22.6158   10.6005   28.1244 H   0  0  0  0  0  0  0  0  0  0  0  0
   22.9081    8.1079   30.3118 C   0  0  0  0  0  0  0  0  0  0  0  0
   22.6896    9.2287   29.8201 N   0  0  0  0  0  0  0  0  0  0  0  0
   22.6515    5.1482   30.8933 Br  0  0  0  0  0  0  0  0  0  0  0  0
   21.5528    6.4953   31.6294 C   0  0  0  0  0  0  0  0  0  0  0  0
   21.8491    7.8181   31.4044 C   0  0  0  0  0  0  0  0  0  0  0  0
   21.0897    8.8095   31.8721 C   0  0  0  0  0  0  0  0  0  0  0  0
   19.9148    8.5197   32.6331 C   0  0  0  0  0  0  0  0  0  0  0  0
   19.5818    7.2249   32.8484 C   0  0  0  0  0  0  0  0  0  0  0  0
   20.3929    6.1996   32.3525 C   0  0  0  0  0  0  0  0  0  0  0  0
   22.4448   13.5019   31.0177 C   0  0  0  0  0  0  0  0  0  0  0  0
   21.1603   13.1566   31.1566 N   0  0  0  0  0  0  0  0  0  0  0  0
   21.0030   12.2474   32.2830 C   0  0  0  0  0  0  0  0  0  0  0  0
   19.8323   12.7386   33.0808 C   0  0  0  0  0  0  0  0  0  0  0  0
   19.3617   14.0109   32.3834 C   0  0  0  0  0  0  0  0  0  0  0  0
   19.9722   13.8068   30.9748 C   0  0  0  0  0  0  0  0  0  0  0  0
 20 21  1  0  0  0
 21 22  2  0  0  0
 21 26  1  0  0  0
 22 23  1  0  0  0
 22 18  1  0  0  0
 23 24  2  0  0  0
 24 25  1  0  0  0
 25 26  2  0  0  0
 18 19  2  0  0  0
 19 14  1  0  0  0
 14 15  1  0  0  0
 15 16  2  0  0  0
 15  1  1  0  0  0
  1  2  1  0  0  0
  1  5  2  0  0  0
  2  3  2  0  0  0
  3  4  1  0  0  0
  4  5  1  0  0  0
  4  6  1  0  0  0
  5 27  1  0  0  0
 27 28  1  0  0  0
 28 29  1  0  0  0
 28 32  1  0  0  0
 29 30  1  0  0  0
 30 31  1  0  0  0
 31 32  1  0  0  0
  6  7  2  0  0  0
  6 10  1  0  0  0
  7  8  1  0  0  0
  8  9  1  0  0  0
  9 10  2  0  0  0
 10 11  1  0  0  0
 14 17  1  0  0  0
 11 12  1  0  0  0
 11 13  1  0  0  0
M  END
> <minimizedAffinity>
-9.89549

$$$$
1315


 30 33  0  0  0  0  0  0  0  0999 V2000
   22.6928    9.5299   30.3128 N   0  0  0  0  0  0  0  0  0  0  0  0
   21.7356    9.6014   31.2941 C   0  0  0  0  0  0  0  0  0  0  0  0
   21.8135   10.8586   31.8192 C   0  0  0  0  0  0  0  0  0  0  0  0
   20.9501   11.2238   32.8563 C   0  0  0  0  0  0  0  0  0  0  0  0
   20.0345   10.3090   33.3313 C   0  0  0  0  0  0  0  0  0  0  0  0
   19.9526    9.0394   32.8025 C   0  0  0  0  0  0  0  0  0  0  0  0
   20.8202    8.6855   31.7662 C   0  0  0  0  0  0  0  0  0  0  0  0
   22.7917   11.5205   31.1629 N   0  0  0  0  0  0  0  0  0  0  0  0
   23.3369   10.7253   30.2399 C   0  0  0  0  0  0  0  0  0  0  0  0
   24.2506   11.0765   29.3630 N   0  0  0  0  0  0  0  0  0  0  0  0
   24.7008   11.9876   29.3591 H   0  0  0  0  0  0  0  0  0  0  0  0
   24.5022   10.4053   28.6240 H   0  0  0  0  0  0  0  0  0  0  0  0
   22.9009    8.3766   29.4638 C   0  0  0  0  0  0  0  0  0  0  0  0
   24.0409    7.5414   29.8623 C   0  0  0  0  0  0  0  0  0  0  0  0
   25.2276    8.0115   29.5509 O   0  0  0  0  0  0  0  0  0  0  0  0
   26.7866    3.3447   31.8056 Br  0  0  0  0  0  0  0  0  0  0  0  0
   25.1671    4.3504   31.4695 C   0  0  0  0  0  0  0  0  0  0  0  0
   25.2045    5.5381   30.7973 C   0  0  0  0  0  0  0  0  0  0  0  0
   24.0830    6.2760   30.5484 C   0  0  0  0  0  0  0  0  0  0  0  0
   22.8749    5.7442   31.0256 C   0  0  0  0  0  0  0  0  0  0  0  0
   22.7977    4.5583   31.7021 C   0  0  0  0  0  0  0  0  0  0  0  0
   23.9625    3.8609   31.9211 C   0  0  0  0  0  0  0  0  0  0  0  0
   23.1044   12.9089   31.4541 C   0  0  0  0  0  0  0  0  0  0  0  0
   22.2614   13.9150   30.7854 C   0  0  0  0  0  0  0  0  0  0  0  0
   21.2494   14.5802   31.5242 N   0  0  0  0  0  0  0  0  0  0  0  0
   20.9105   15.8788   30.8876 C   0  0  0  0  0  0  0  0  0  0  0  0
   22.1092   16.7545   30.7242 C   0  0  0  0  0  0  0  0  0  0  0  0
   22.5183   17.1280   32.0054 O   0  0  0  0  0  0  0  0  0  0  0  0
   22.8048   16.0373   32.7879 C   0  0  0  0  0  0  0  0  0  0  0  0
   21.7175   14.9991   32.8560 C   0  0  0  0  0  0  0  0  0  0  0  0
 16 17  1  0  0  0
 17 18  2  0  0  0
 17 22  1  0  0  0
 18 19  1  0  0  0
 19 20  2  0  0  0
 19 14  1  0  0  0
 20 21  1  0  0  0
 21 22  2  0  0  0
 14 15  2  0  0  0
 14 13  1  0  0  0
 13  1  1  0  0  0
  1  2  1  0  0  0
  1  9  1  0  0  0
  2  3  1  0  0  0
  2  7  2  0  0  0
  3  4  2  0  0  0
  3  8  1  0  0  0
  4  5  1  0  0  0
  5  6  2  0  0  0
  6  7  1  0  0  0
  8  9  1  0  0  0
  8 23  1  0  0  0
  9 10  2  0  0  0
 23 24  1  0  0  0
 24 25  1  0  0  0
 25 26  1  0  0  0
 25 30  1  0  0  0
 26 27  1  0  0  0
 27 28  1  0  0  0
 28 29  1  0  0  0
 29 30  1  0  0  0
 10 11  1  0  0  0
 10 12  1  0  0  0
M  END
> <minimizedAffinity>
-8.60431

$$$$
1325


 31 34  0  0  0  0  0  0  0  0999 V2000
   23.9421    7.3183   31.1519 C   0  0  0  0  0  0  0  0  0  0  0  0
   23.1157    6.1618   30.9690 N   0  0  0  0  0  0  0  0  0  0  0  0
   24.0728    5.0615   30.9346 C   0  0  0  0  0  0  0  0  0  0  0  0
   23.8386    3.8706   31.2360 O   0  0  0  0  0  0  0  0  0  0  0  0
   25.3426    5.6015   30.4858 C   0  0  0  0  0  0  0  0  0  0  0  0
   26.4473    5.0055   30.3126 O   0  0  0  0  0  0  0  0  0  0  0  0
   25.1027    7.0307   30.2613 C   0  0  0  0  0  0  0  0  0  0  0  0
   25.8027    7.8139   29.4879 C   0  0  0  0  0  0  0  0  0  0  0  0
   25.4657    9.1720   29.4355 O   0  0  0  0  0  0  0  0  0  0  0  0
   26.9224    7.3011   28.6736 C   0  0  0  0  0  0  0  0  0  0  0  0
   26.8008    6.6345   27.5311 O   0  0  0  0  0  0  0  0  0  0  0  0
   27.9679    6.3075   27.0399 C   0  0  0  0  0  0  0  0  0  0  0  0
   28.9671    6.7619   27.8748 C   0  0  0  0  0  0  0  0  0  0  0  0
   28.2751    7.3859   28.8991 C   0  0  0  0  0  0  0  0  0  0  0  0
   30.2915    6.5396   27.5711 C   0  0  0  0  0  0  0  0  0  0  0  0
   30.6965    5.8635   26.4413 C   0  0  0  0  0  0  0  0  0  0  0  0
   29.6983    5.4043   25.6012 C   0  0  0  0  0  0  0  0  0  0  0  0
   28.3687    5.6188   25.8905 C   0  0  0  0  0  0  0  0  0  0  0  0
   21.6643   13.0609   30.7551 Br  0  0  0  0  0  0  0  0  0  0  0  0
   22.3578   11.2786   30.8686 C   0  0  0  0  0  0  0  0  0  0  0  0
   23.1721   10.8844   31.9010 C   0  0  0  0  0  0  0  0  0  0  0  0
   23.6546    9.6020   31.9595 C   0  0  0  0  0  0  0  0  0  0  0  0
   23.3577    8.6259   30.9908 C   0  0  0  0  0  0  0  0  0  0  0  0
   22.5497    9.0379   29.9771 C   0  0  0  0  0  0  0  0  0  0  0  0
   22.0626   10.3295   29.9176 C   0  0  0  0  0  0  0  0  0  0  0  0
   21.6847    5.9661   30.8985 C   0  0  0  0  0  0  0  0  0  0  0  0
   20.9013    6.1097   32.1346 C   0  0  0  0  0  0  0  0  0  0  0  0
   20.0878    7.2898   32.2686 N   0  0  0  0  0  0  0  0  0  0  0  0
   18.6850    6.9904   32.3200 C   0  0  0  0  0  0  0  0  0  0  0  0
   20.5409    8.2287   33.2549 C   0  0  0  0  0  0  0  0  0  0  0  0
   20.2166    7.7929   31.3242 H   0  0  0  0  0  0  0  0  0  0  0  0
 19 20  1  0  0  0
 20 21  2  0  0  0
 20 25  1  0  0  0
 21 22  1  0  0  0
 22 23  2  0  0  0
 23 24  1  0  0  0
 23  1  1  0  0  0
 24 25  2  0  0  0
  1  2  1  0  0  0
  1  7  1  0  0  0
  2  3  1  0  0  0
  2 26  1  0  0  0
  3  4  2  0  0  0
  3  5  1  0  0  0
  5  6  2  0  0  0
  5  7  1  0  0  0
  7  8  2  0  0  0
  8  9  1  0  0  0
  8 10  1  0  0  0
 10 11  1  0  0  0
 10 14  2  0  0  0
 11 12  1  0  0  0
 12 13  2  0  0  0
 12 18  1  0  0  0
 13 14  1  0  0  0
 13 15  1  0  0  0
 15 16  2  0  0  0
 16 17  1  0  0  0
 17 18  2  0  0  0
 26 27  1  0  0  0
 27 28  1  0  0  0
 28 29  1  0  0  0
 28 30  1  0  0  0
 28 31  1  0  0  0
M  CHG 1   9  -1
M  CHG 1  28   1
M  END
> <minimizedAffinity>
-7.70610

$$$$
1329


 28 31  0  0  0  0  0  0  0  0999 V2000
   21.3012    5.4832   31.8331 C   0  0  0  0  0  0  0  0  0  0  0  0
   20.8527    6.6911   32.1797 C   0  0  0  0  0  0  0  0  0  0  0  0
   21.5097    7.9097   32.0216 O   0  0  0  0  0  0  0  0  0  0  0  0
   20.7381    8.9391   32.4864 C   0  0  0  0  0  0  0  0  0  0  0  0
   19.5312    8.4527   32.9770 C   0  0  0  0  0  0  0  0  0  0  0  0
   18.6166    9.3611   33.4859 C   0  0  0  0  0  0  0  0  0  0  0  0
   18.9085   10.7060   33.4970 C   0  0  0  0  0  0  0  0  0  0  0  0
   20.1319   11.1578   32.9958 C   0  0  0  0  0  0  0  0  0  0  0  0
   21.0546   10.2816   32.4885 C   0  0  0  0  0  0  0  0  0  0  0  0
   20.3307   12.5286   33.0522 O   0  0  0  0  0  0  0  0  0  0  0  0
   19.5635    6.9912   32.7975 C   0  0  0  0  0  0  0  0  0  0  0  0
   18.6391    6.2063   33.1329 O   0  0  0  0  0  0  0  0  0  0  0  0
   26.0063    2.9737   31.7732 Br  0  0  0  0  0  0  0  0  0  0  0  0
   24.7537    4.2506   31.1016 C   0  0  0  0  0  0  0  0  0  0  0  0
   23.5023    4.3912   31.6956 C   0  0  0  0  0  0  0  0  0  0  0  0
   22.6020    5.3165   31.2159 C   0  0  0  0  0  0  0  0  0  0  0  0
   22.9290    6.1119   30.1451 C   0  0  0  0  0  0  0  0  0  0  0  0
   24.1695    5.9609   29.5713 C   0  0  0  0  0  0  0  0  0  0  0  0
   25.0963    5.0470   30.0199 C   0  0  0  0  0  0  0  0  0  0  0  0
   22.3525   10.7971   32.0496 C   0  0  0  0  0  0  0  0  0  0  0  0
   22.4888   11.0692   30.6650 N   0  0  0  0  0  0  0  0  0  0  0  0
   23.6749   10.3827   30.1801 C   0  0  0  0  0  0  0  0  0  0  0  0
   24.4780   11.1358   29.1766 C   0  0  0  0  0  0  0  0  0  0  0  0
   24.7858   12.4783   29.5249 N   0  0  0  0  0  0  0  0  0  0  0  0
   23.9889   12.9439   30.6118 C   0  0  0  0  0  0  0  0  0  0  0  0
   22.5784   12.4919   30.4372 C   0  0  0  0  0  0  0  0  0  0  0  0
   24.6721   13.3275   28.3579 C   0  0  0  0  0  0  0  0  0  0  0  0
   21.6443   10.7566   30.0976 H   0  0  0  0  0  0  0  0  0  0  0  0
 13 14  1  0  0  0
 14 15  2  0  0  0
 14 19  1  0  0  0
 15 16  1  0  0  0
 16 17  2  0  0  0
 16  1  1  0  0  0
 17 18  1  0  0  0
 18 19  2  0  0  0
  1  2  2  0  0  0
  2  3  1  0  0  0
  2 11  1  0  0  0
  3  4  1  0  0  0
  4  5  2  0  0  0
  4  9  1  0  0  0
  5  6  1  0  0  0
  5 11  1  0  0  0
  6  7  2  0  0  0
  7  8  1  0  0  0
  8  9  2  0  0  0
  8 10  1  0  0  0
  9 20  1  0  0  0
 20 21  1  0  0  0
 21 22  1  0  0  0
 21 26  1  0  0  0
 22 23  1  0  0  0
 23 24  1  0  0  0
 24 25  1  0  0  0
 24 27  1  0  0  0
 25 26  1  0  0  0
 11 12  2  0  0  0
 21 28  1  0  0  0
M  CHG 1  10  -1
M  CHG 1  21   1
M  END
> <minimizedAffinity>
-10.13211

$$$$
1337


 32 35  0  0  0  0  0  0  0  0999 V2000
   24.2654    6.3207   29.1592 N   0  0  0  0  0  0  0  0  0  0  0  0
   24.0322    7.3205   30.1360 C   0  0  0  0  0  0  0  0  0  0  0  0
   24.9492    7.5531   30.9692 O   0  0  0  0  0  0  0  0  0  0  0  0
   23.5105    6.1241   28.4684 H   0  0  0  0  0  0  0  0  0  0  0  0
   22.7391    8.0543   30.1537 C   0  0  0  0  0  0  0  0  0  0  0  0
   22.9497    9.3147   29.7368 O   0  0  0  0  0  0  0  0  0  0  0  0
   22.1100   10.2927   30.1681 C   0  0  0  0  0  0  0  0  0  0  0  0
   22.7215   11.5269   29.9042 O   0  0  0  0  0  0  0  0  0  0  0  0
   23.4908   11.8486   30.9955 C   0  0  0  0  0  0  0  0  0  0  0  0
   23.2118   10.9585   32.0134 O   0  0  0  0  0  0  0  0  0  0  0  0
   21.9761   10.3617   31.6712 C   0  0  0  0  0  0  0  0  0  0  0  0
   21.8055    9.0276   32.2889 C   0  0  0  0  0  0  0  0  0  0  0  0
   20.4945    8.8549   32.7889 O   0  0  0  0  0  0  0  0  0  0  0  0
   20.0893    7.5881   32.4529 C   0  0  0  0  0  0  0  0  0  0  0  0
   20.7430    7.3207   31.2783 O   0  0  0  0  0  0  0  0  0  0  0  0
   22.0313    7.8516   31.4407 C   0  0  0  0  0  0  0  0  0  0  0  0
   18.5706    7.6478   32.2482 C   0  0  0  0  0  0  0  0  0  0  0  0
   20.3277    6.5722   33.5391 C   0  0  0  0  0  0  0  0  0  0  0  0
   23.1635   13.2424   31.5328 C   0  0  0  0  0  0  0  0  0  0  0  0
   24.9775   11.8526   30.6792 C   0  0  0  0  0  0  0  0  0  0  0  0
   25.4799    5.5661   29.0703 C   0  0  0  0  0  0  0  0  0  0  0  0
   25.1112    4.3824   31.2844 N   0  0  0  0  0  0  0  0  0  0  0  0
   25.4115    4.3431   29.9111 C   0  0  0  0  0  0  0  0  0  0  0  0
   25.6352    3.2601   29.3345 O   0  0  0  0  0  0  0  0  0  0  0  0
   24.9361    5.3627   31.6811 H   0  0  0  0  0  0  0  0  0  0  0  0
   24.3496   -0.1764   35.3118 Br  0  0  0  0  0  0  0  0  0  0  0  0
   24.6511    1.2293   34.0456 C   0  0  0  0  0  0  0  0  0  0  0  0
   23.6095    2.0751   33.7355 C   0  0  0  0  0  0  0  0  0  0  0  0
   23.8062    3.0901   32.8280 C   0  0  0  0  0  0  0  0  0  0  0  0
   25.0138    3.3284   32.1868 C   0  0  0  0  0  0  0  0  0  0  0  0
   26.0347    2.4666   32.5182 C   0  0  0  0  0  0  0  0  0  0  0  0
   25.8518    1.4256   33.4415 C   0  0  0  0  0  0  0  0  0  0  0  0
 26 27  1  0  0  0
 27 28  2  0  0  0
 27 32  1  0  0  0
 28 29  1  0  0  0
 29 30  2  0  0  0
 30 31  1  0  0  0
 30 22  1  0  0  0
 31 32  2  0  0  0
 22 23  1  0  0  0
 23 24  2  0  0  0
 23 21  1  0  0  0
 21  1  1  0  0  0
  1  2  1  0  0  0
  2  3  2  0  0  0
  2  5  1  0  0  0
  5  6  1  0  0  0
  5 16  1  0  0  0
  6  7  1  0  0  0
  7  8  1  0  0  0
  7 11  1  0  0  0
  8  9  1  0  0  0
  9 10  1  0  0  0
  9 19  1  0  0  0
  9 20  1  0  0  0
 10 11  1  0  0  0
 11 12  1  0  0  0
 12 13  1  0  0  0
 12 16  1  0  0  0
 13 14  1  0  0  0
 14 15  1  0  0  0
 14 17  1  0  0  0
 14 18  1  0  0  0
 15 16  1  0  0  0
 22 25  1  0  0  0
  1  4  1  0  0  0
M  END
> <minimizedAffinity>
-8.43448

$$$$
1341


 28 31  0  0  0  0  0  0  0  0999 V2000
   21.9924   10.3941   31.4352 C   0  0  0  0  0  0  0  0  0  0  0  0
   21.2204    9.4750   32.0609 N   0  0  0  0  0  0  0  0  0  0  0  0
   21.5093    8.2568   31.5584 C   0  0  0  0  0  0  0  0  0  0  0  0
   22.4624    8.3567   30.6069 N   0  0  0  0  0  0  0  0  0  0  0  0
   22.7532    9.6758   30.5391 C   0  0  0  0  0  0  0  0  0  0  0  0
   20.6760    7.2270   32.2297 C   0  0  0  0  0  0  0  0  0  0  0  0
   19.7653    7.9639   33.1500 C   0  0  0  0  0  0  0  0  0  0  0  0
   20.1985    9.3811   33.0796 C   0  0  0  0  0  0  0  0  0  0  0  0
   22.3356   16.3914   32.1643 Cl  0  0  0  0  0  0  0  0  0  0  0  0
   22.2306   14.6484   31.9541 C   0  0  0  0  0  0  0  0  0  0  0  0
   23.2944   13.9166   31.4728 C   0  0  0  0  0  0  0  0  0  0  0  0
   23.2059   12.5460   31.3085 C   0  0  0  0  0  0  0  0  0  0  0  0
   22.0576   11.8433   31.6165 C   0  0  0  0  0  0  0  0  0  0  0  0
   20.9918   12.5727   32.0999 C   0  0  0  0  0  0  0  0  0  0  0  0
   21.0773   13.9601   32.2671 C   0  0  0  0  0  0  0  0  0  0  0  0
   23.0618    7.3003   29.8175 C   0  0  0  0  0  0  0  0  0  0  0  0
   23.8146    6.3688   30.7051 C   0  0  0  0  0  0  0  0  0  0  0  0
   24.7937    6.8117   31.3084 O   0  0  0  0  0  0  0  0  0  0  0  0
   23.3655    5.0502   30.7992 N   0  0  0  0  0  0  0  0  0  0  0  0
   22.5047    4.7181   30.2484 H   0  0  0  0  0  0  0  0  0  0  0  0
   23.9655    4.0466   31.6036 C   0  0  0  0  0  0  0  0  0  0  0  0
   23.2978    3.6187   32.7585 C   0  0  0  0  0  0  0  0  0  0  0  0
   23.8520    2.6738   33.5611 C   0  0  0  0  0  0  0  0  0  0  0  0
   25.0816    2.1092   33.2645 C   0  0  0  0  0  0  0  0  0  0  0  0
   25.7252    2.5334   32.1370 C   0  0  0  0  0  0  0  0  0  0  0  0
   25.1798    3.5061   31.2896 C   0  0  0  0  0  0  0  0  0  0  0  0
   25.6673    1.0771   34.1568 C   0  0  0  0  0  0  0  0  0  0  0  0
   24.7265    0.8917   35.3513 C   0  0  0  0  0  0  0  0  0  0  0  0
  9 10  1  0  0  0
 10 11  2  0  0  0
 10 15  1  0  0  0
 11 12  1  0  0  0
 12 13  2  0  0  0
 13 14  1  0  0  0
 13  1  1  0  0  0
 14 15  2  0  0  0
  1  2  1  0  0  0
  1  5  2  0  0  0
  2  3  1  0  0  0
  2  8  1  0  0  0
  3  4  2  0  0  0
  3  6  1  0  0  0
  4  5  1  0  0  0
  4 16  1  0  0  0
 16 17  1  0  0  0
 17 18  2  0  0  0
 17 19  1  0  0  0
 19 21  1  0  0  0
 21 22  2  0  0  0
 21 26  1  0  0  0
 22 23  1  0  0  0
 23 24  2  0  0  0
 24 25  1  0  0  0
 24 27  1  0  0  0
 25 26  2  0  0  0
 27 28  1  0  0  0
  6  7  1  0  0  0
  7  8  1  0  0  0
 19 20  1  0  0  0
M  END
> <minimizedAffinity>
-8.86645

$$$$
1343


 41 44  0  0  0  0  0  0  0  0999 V2000
   23.7823   14.4483   28.6107 C   0  0  0  0  0  0  0  0  0  0  0  0
   24.0336   15.4136   27.6894 N   0  0  0  0  0  0  0  0  0  0  0  0
   25.2425   15.1683   27.1214 C   0  0  0  0  0  0  0  0  0  0  0  0
   25.9712   15.7781   26.1794 N   0  0  0  0  0  0  0  0  0  0  0  0
   27.1720   15.3129   25.7895 C   0  0  0  0  0  0  0  0  0  0  0  0
   27.6581   14.1933   26.3685 N   0  0  0  0  0  0  0  0  0  0  0  0
   26.9904   13.5359   27.3099 C   0  0  0  0  0  0  0  0  0  0  0  0
   25.7582   14.0179   27.7051 C   0  0  0  0  0  0  0  0  0  0  0  0
   24.8532   13.6262   28.5856 N   0  0  0  0  0  0  0  0  0  0  0  0
   27.4663   12.3745   27.9272 O   0  0  0  0  0  0  0  0  0  0  0  0
   27.9402   15.9798   24.7770 N   0  0  0  0  0  0  0  0  0  0  0  0
   27.2446   11.5014   27.4637 H   0  0  0  0  0  0  0  0  0  0  0  0
   28.8859   16.3502   24.9173 H   0  0  0  0  0  0  0  0  0  0  0  0
   27.4857   16.0831   23.8453 H   0  0  0  0  0  0  0  0  0  0  0  0
   23.1659   16.5057   27.3730 C   0  0  0  0  0  0  0  0  0  0  0  0
   23.4170   17.0871   26.1380 O   0  0  0  0  0  0  0  0  0  0  0  0
   22.9214   18.3593   26.1470 C   0  0  0  0  0  0  0  0  0  0  0  0
   22.5758   18.7587   27.5406 C   0  0  0  0  0  0  0  0  0  0  0  0
   23.2383   17.6508   28.3620 C   0  0  0  0  0  0  0  0  0  0  0  0
   22.5019   17.3882   29.5165 O   0  0  0  0  0  0  0  0  0  0  0  0
   21.1918   18.6076   27.7635 O   0  0  0  0  0  0  0  0  0  0  0  0
   23.1085   17.3296   30.2994 H   0  0  0  0  0  0  0  0  0  0  0  0
   20.8752   19.2050   28.4746 H   0  0  0  0  0  0  0  0  0  0  0  0
   24.0178   19.3037   25.6502 C   0  0  0  0  0  0  0  0  0  0  0  0
   25.1540   18.5695   25.2926 O   0  0  0  0  0  0  0  0  0  0  0  0
   25.0917   17.6318   25.6088 H   0  0  0  0  0  0  0  0  0  0  0  0
   22.6204   14.3445   29.4241 N   0  0  0  0  0  0  0  0  0  0  0  0
   22.0894   15.1969   29.6611 H   0  0  0  0  0  0  0  0  0  0  0  0
   22.1390   12.7432   31.0925 C   0  0  0  0  0  0  0  0  0  0  0  0
   22.2499   13.0605   29.8685 N   0  0  0  0  0  0  0  0  0  0  0  0
   19.9140   12.8343   33.2055 Br  0  0  0  0  0  0  0  0  0  0  0  0
   20.7732   11.2761   32.5356 C   0  0  0  0  0  0  0  0  0  0  0  0
   21.7578   11.4231   31.5825 C   0  0  0  0  0  0  0  0  0  0  0  0
   22.3531   10.2667   31.1261 C   0  0  0  0  0  0  0  0  0  0  0  0
   21.9962    9.0170   31.5873 C   0  0  0  0  0  0  0  0  0  0  0  0
   21.0106    8.8699   32.5405 C   0  0  0  0  0  0  0  0  0  0  0  0
   20.4029   10.0149   33.0098 C   0  0  0  0  0  0  0  0  0  0  0  0
   22.6019    7.8544   31.1207 O   0  0  0  0  0  0  0  0  0  0  0  0
   23.2197    7.7273   29.8794 C   0  0  0  0  0  0  0  0  0  0  0  0
   20.6536    7.6025   33.0028 O   0  0  0  0  0  0  0  0  0  0  0  0
   19.4825    6.9473   32.6194 C   0  0  0  0  0  0  0  0  0  0  0  0
 31 32  1  0  0  0
 32 33  2  0  0  0
 32 37  1  0  0  0
 33 34  1  0  0  0
 33 29  1  0  0  0
 34 35  2  0  0  0
 35 36  1  0  0  0
 35 38  1  0  0  0
 36 37  2  0  0  0
 36 40  1  0  0  0
 40 41  1  0  0  0
 38 39  1  0  0  0
 29 30  2  0  0  0
 30 27  1  0  0  0
 27  1  1  0  0  0
  1  2  1  0  0  0
  1  9  2  0  0  0
  2  3  1  0  0  0
  2 15  1  0  0  0
  3  4  2  0  0  0
  3  8  1  0  0  0
  4  5  1  0  0  0
  5  6  2  0  0  0
  5 11  1  0  0  0
  6  7  1  0  0  0
  7  8  2  0  0  0
  7 10  1  0  0  0
  8  9  1  0  0  0
 15 16  1  0  0  0
 15 19  1  0  0  0
 16 17  1  0  0  0
 17 18  1  0  0  0
 17 24  1  0  0  0
 18 19  1  0  0  0
 18 21  1  0  0  0
 19 20  1  0  0  0
 24 25  1  0  0  0
 27 28  1  0  0  0
 10 12  1  0  0  0
 11 13  1  0  0  0
 11 14  1  0  0  0
 20 22  1  0  0  0
 21 23  1  0  0  0
 25 26  1  0  0  0
M  END
> <minimizedAffinity>
-9.99619

$$$$
1355


 27 30  0  0  0  0  0  0  0  0999 V2000
   25.6860   13.0740   28.0909 N   0  0  0  0  0  0  0  0  0  0  0  0
   26.7337   13.3604   27.1981 C   0  0  0  0  0  0  0  0  0  0  0  0
   27.2403   12.4347   26.5267 O   0  0  0  0  0  0  0  0  0  0  0  0
   25.2685   13.8472   28.6461 H   0  0  0  0  0  0  0  0  0  0  0  0
   27.2334   14.7359   27.0529 C   0  0  0  0  0  0  0  0  0  0  0  0
   28.6889   14.7728   26.6258 C   0  0  0  0  0  0  0  0  0  0  0  0
   29.1259   16.1616   26.2995 C   0  0  0  0  0  0  0  0  0  0  0  0
   28.9759   16.5510   24.8652 C   0  0  0  0  0  0  0  0  0  0  0  0
   27.8335   15.8068   24.1805 C   0  0  0  0  0  0  0  0  0  0  0  0
   26.6404   16.0369   24.9619 N   0  0  0  0  0  0  0  0  0  0  0  0
   25.6283   16.7494   24.5443 N   0  0  0  0  0  0  0  0  0  0  0  0
   24.7119   16.7660   25.4801 N   0  0  0  0  0  0  0  0  0  0  0  0
   25.1649   16.0522   26.4925 N   0  0  0  0  0  0  0  0  0  0  0  0
   26.3864   15.5766   26.1938 C   0  0  0  0  0  0  0  0  0  0  0  0
   25.1780   11.7239   28.2511 C   0  0  0  0  0  0  0  0  0  0  0  0
   23.2400   11.0535   31.2900 C   0  0  0  0  0  0  0  0  0  0  0  0
   24.4188   11.4724   31.7790 N   0  0  0  0  0  0  0  0  0  0  0  0
   25.2303   11.7541   30.7816 O   0  0  0  0  0  0  0  0  0  0  0  0
   24.6262   11.5355   29.6411 C   0  0  0  0  0  0  0  0  0  0  0  0
   23.3861   11.0994   29.9539 N   0  0  0  0  0  0  0  0  0  0  0  0
   21.3580   13.2273   32.1106 Cl  0  0  0  0  0  0  0  0  0  0  0  0
   21.1130   11.5384   32.4833 C   0  0  0  0  0  0  0  0  0  0  0  0
   22.0615   10.6398   32.0437 C   0  0  0  0  0  0  0  0  0  0  0  0
   21.8389    9.3192   32.3529 C   0  0  0  0  0  0  0  0  0  0  0  0
   20.7376    8.8961   33.0617 C   0  0  0  0  0  0  0  0  0  0  0  0
   19.7860    9.8249   33.5005 C   0  0  0  0  0  0  0  0  0  0  0  0
   19.9875   11.1489   33.2025 C   0  0  0  0  0  0  0  0  0  0  0  0
 21 22  1  0  0  0
 22 23  2  0  0  0
 22 27  1  0  0  0
 23 24  1  0  0  0
 23 16  1  0  0  0
 24 25  2  0  0  0
 25 26  1  0  0  0
 26 27  2  0  0  0
 16 17  2  0  0  0
 16 20  1  0  0  0
 17 18  1  0  0  0
 18 19  1  0  0  0
 19 20  2  0  0  0
 19 15  1  0  0  0
 15  1  1  0  0  0
  1  2  1  0  0  0
  2  3  2  0  0  0
  2  5  1  0  0  0
  5  6  1  0  0  0
  5 14  1  0  0  0
  6  7  1  0  0  0
  7  8  1  0  0  0
  8  9  1  0  0  0
  9 10  1  0  0  0
 10 11  1  0  0  0
 10 14  1  0  0  0
 11 12  2  0  0  0
 12 13  1  0  0  0
 13 14  2  0  0  0
  1  4  1  0  0  0
M  END
> <minimizedAffinity>
-8.74863

$$$$
1357


 24 27  0  0  0  0  0  0  0  0999 V2000
   23.0674   10.2365   31.6416 C   0  0  0  0  0  0  0  0  0  0  0  0
   24.1678   10.9657   31.1878 C   0  0  0  0  0  0  0  0  0  0  0  0
   24.8056   11.2929   29.8834 C   0  0  0  0  0  0  0  0  0  0  0  0
   24.1093   12.5963   29.7411 N   0  0  0  0  0  0  0  0  0  0  0  0
   22.8895   12.4405   30.1510 C   0  0  0  0  0  0  0  0  0  0  0  0
   22.7479   11.0760   30.5521 C   0  0  0  0  0  0  0  0  0  0  0  0
   21.8747   13.4688   30.1881 N   0  0  0  0  0  0  0  0  0  0  0  0
   26.1664   11.5256   30.1112 O   0  0  0  0  0  0  0  0  0  0  0  0
   26.8659   10.7597   29.1989 C   0  0  0  0  0  0  0  0  0  0  0  0
   25.8563   10.5910   28.0761 C   0  0  0  0  0  0  0  0  0  0  0  0
   24.6781   10.4532   28.8513 O   0  0  0  0  0  0  0  0  0  0  0  0
   21.8222   14.1974   29.4510 H   0  0  0  0  0  0  0  0  0  0  0  0
   21.1778   13.4974   30.9553 H   0  0  0  0  0  0  0  0  0  0  0  0
   20.3399    8.6783   32.1905 Br  0  0  0  0  0  0  0  0  0  0  0  0
   22.0453    7.9545   31.7307 C   0  0  0  0  0  0  0  0  0  0  0  0
   23.1371    8.7574   31.5168 C   0  0  0  0  0  0  0  0  0  0  0  0
   24.3483    8.2011   31.1804 C   0  0  0  0  0  0  0  0  0  0  0  0
   24.5044    6.8279   31.0493 C   0  0  0  0  0  0  0  0  0  0  0  0
   23.4241    6.0051   31.2587 C   0  0  0  0  0  0  0  0  0  0  0  0
   22.1952    6.5804   31.6008 C   0  0  0  0  0  0  0  0  0  0  0  0
   22.4854   10.2725   29.3203 C   0  0  0  0  0  0  0  0  0  0  0  0
   22.2531    9.6299   28.3541 N   0  0  0  0  0  0  0  0  0  0  0  0
   24.5309   12.0920   32.1204 C   0  0  0  0  0  0  0  0  0  0  0  0
   24.8354   12.9762   32.8422 N   0  0  0  0  0  0  0  0  0  0  0  0
 14 15  1  0  0  0
 15 16  2  0  0  0
 15 20  1  0  0  0
 16 17  1  0  0  0
 16  1  1  0  0  0
 17 18  2  0  0  0
 18 19  1  0  0  0
 19 20  2  0  0  0
  1  2  1  0  0  0
  1  6  1  0  0  0
  2  3  1  0  0  0
  2  6  1  0  0  0
  2 23  1  0  0  0
  3  4  1  0  0  0
  3  8  1  0  0  0
  3 11  1  0  0  0
  4  5  2  0  0  0
  5  6  1  0  0  0
  5  7  1  0  0  0
  6 21  1  0  0  0
 21 22  3  0  0  0
  8  9  1  0  0  0
  9 10  1  0  0  0
 10 11  1  0  0  0
 23 24  3  0  0  0
  7 12  1  0  0  0
  7 13  1  0  0  0
M  END
> <minimizedAffinity>
-5.25520

$$$$
1360


 34 37  0  0  0  0  0  0  0  0999 V2000
   24.3110    6.2812   31.1934 C   0  0  0  0  0  0  0  0  0  0  0  0
   24.8788    5.1222   30.5550 N   0  0  0  0  0  0  0  0  0  0  0  0
   24.9832    5.5841   29.1519 C   0  0  0  0  0  0  0  0  0  0  0  0
   25.6912    4.5858   28.4483 N   0  0  0  0  0  0  0  0  0  0  0  0
   25.8985    3.4872   29.3410 C   0  0  0  0  0  0  0  0  0  0  0  0
   25.4011    3.8337   30.5990 C   0  0  0  0  0  0  0  0  0  0  0  0
   25.4934    2.9156   31.6239 C   0  0  0  0  0  0  0  0  0  0  0  0
   25.0382    3.2504   32.7477 O   0  0  0  0  0  0  0  0  0  0  0  0
   26.0525    1.7218   31.3946 N   0  0  0  0  0  0  0  0  0  0  0  0
   26.5154    1.4206   30.1931 C   0  0  0  0  0  0  0  0  0  0  0  0
   27.0347    0.2847   30.0191 O   0  0  0  0  0  0  0  0  0  0  0  0
   26.4527    2.2887   29.1370 N   0  0  0  0  0  0  0  0  0  0  0  0
   26.9924    1.8358   27.8749 C   0  0  0  0  0  0  0  0  0  0  0  0
   26.1302    0.7756   32.5128 C   0  0  0  0  0  0  0  0  0  0  0  0
   26.1205    4.5972   27.0735 C   0  0  0  0  0  0  0  0  0  0  0  0
   25.4929    6.9597   29.2528 C   0  0  0  0  0  0  0  0  0  0  0  0
   25.3547    7.3144   30.7398 C   0  0  0  0  0  0  0  0  0  0  0  0
   23.0227    6.6311   30.6406 C   0  0  0  0  0  0  0  0  0  0  0  0
   22.9659    6.5326   29.3427 O   0  0  0  0  0  0  0  0  0  0  0  0
   17.8303    8.2464   33.4669 Br  0  0  0  0  0  0  0  0  0  0  0  0
   19.4431    7.7563   32.5783 C   0  0  0  0  0  0  0  0  0  0  0  0
   20.3481    8.7224   32.1654 C   0  0  0  0  0  0  0  0  0  0  0  0
   21.5156    8.3908   31.5237 C   0  0  0  0  0  0  0  0  0  0  0  0
   21.8021    7.0683   31.2810 C   0  0  0  0  0  0  0  0  0  0  0  0
   20.9016    6.0815   31.6902 C   0  0  0  0  0  0  0  0  0  0  0  0
   19.7371    6.4273   32.3310 C   0  0  0  0  0  0  0  0  0  0  0  0
   24.9188    8.6937   30.9329 C   0  0  0  0  0  0  0  0  0  0  0  0
   24.9460    9.2129   32.0979 O   0  0  0  0  0  0  0  0  0  0  0  0
   24.4734    9.4678   29.8956 O   0  0  0  0  0  0  0  0  0  0  0  0
   25.0741   10.7153   29.5399 C   0  0  0  0  0  0  0  0  0  0  0  0
   26.8333    7.2548   28.7643 C   0  0  0  0  0  0  0  0  0  0  0  0
   27.0034    8.1610   27.9072 O   0  0  0  0  0  0  0  0  0  0  0  0
   27.9397    6.5681   29.2146 O   0  0  0  0  0  0  0  0  0  0  0  0
   29.0861    6.4086   28.4080 C   0  0  0  0  0  0  0  0  0  0  0  0
 20 21  1  0  0  0
 21 22  2  0  0  0
 21 26  1  0  0  0
 22 23  1  0  0  0
 23 24  2  0  0  0
 24 25  1  0  0  0
 24 18  1  0  0  0
 25 26  2  0  0  0
 18 19  2  0  0  0
 18  1  1  0  0  0
  1  2  1  0  0  0
  1 17  1  0  0  0
  2  3  1  0  0  0
  2  6  1  0  0  0
  3  4  1  0  0  0
  3 16  1  0  0  0
  4  5  1  0  0  0
  4 15  1  0  0  0
  5  6  2  0  0  0
  5 12  1  0  0  0
  6  7  1  0  0  0
  7  8  2  0  0  0
  7  9  1  0  0  0
  9 10  1  0  0  0
  9 14  1  0  0  0
 10 11  2  0  0  0
 10 12  1  0  0  0
 12 13  1  0  0  0
 16 17  1  0  0  0
 16 31  1  0  0  0
 17 27  1  0  0  0
 27 28  2  0  0  0
 27 29  1  0  0  0
 29 30  1  0  0  0
 31 32  2  0  0  0
 31 33  1  0  0  0
 33 34  1  0  0  0
M  END
> <minimizedAffinity>
-7.96813

$$$$
1372


 31 34  0  0  0  0  0  0  0  0999 V2000
   25.8322    6.2619   28.8891 C   0  0  0  0  0  0  0  0  0  0  0  0
   26.0085    7.4611   29.1875 O   0  0  0  0  0  0  0  0  0  0  0  0
   26.4936    5.7076   27.7876 N   0  0  0  0  0  0  0  0  0  0  0  0
   27.6362    6.1595   27.0683 C   0  0  0  0  0  0  0  0  0  0  0  0
   28.3073    4.8688   26.5735 C   0  0  0  0  0  0  0  0  0  0  0  0
   28.0630    3.7097   27.5081 C   0  0  0  0  0  0  0  0  0  0  0  0
   28.6898    2.5088   27.0272 N   0  0  0  0  0  0  0  0  0  0  0  0
   28.3227    1.4189   27.9422 C   0  0  0  0  0  0  0  0  0  0  0  0
   28.9255    1.6047   29.2997 C   0  0  0  0  0  0  0  0  0  0  0  0
   29.0502    3.0297   29.6812 C   0  0  0  0  0  0  0  0  0  0  0  0
   29.5215    3.5879   30.8003 N   0  0  0  0  0  0  0  0  0  0  0  0
   29.4273    4.9276   30.6837 C   0  0  0  0  0  0  0  0  0  0  0  0
   28.8924    5.1859   29.4825 N   0  0  0  0  0  0  0  0  0  0  0  0
   28.6381    4.0509   28.8144 C   0  0  0  0  0  0  0  0  0  0  0  0
   26.5730    3.3469   27.6167 C   0  0  0  0  0  0  0  0  0  0  0  0
   25.8633    4.5273   27.1067 C   0  0  0  0  0  0  0  0  0  0  0  0
   28.2747    2.2487   26.1009 H   0  0  0  0  0  0  0  0  0  0  0  0
   29.9126    3.1417   31.6591 H   0  0  0  0  0  0  0  0  0  0  0  0
   24.9127    5.4586   29.7522 C   0  0  0  0  0  0  0  0  0  0  0  0
   25.7656    4.9467   30.9422 C   0  0  0  0  0  0  0  0  0  0  0  0
   22.7118    5.5604   30.9227 C   0  0  0  0  0  0  0  0  0  0  0  0
   22.6008    4.3289   30.8809 O   0  0  0  0  0  0  0  0  0  0  0  0
   23.8814    6.2389   30.3914 N   0  0  0  0  0  0  0  0  0  0  0  0
   23.9727    7.2495   30.4751 H   0  0  0  0  0  0  0  0  0  0  0  0
   21.5294   10.5809   32.2053 Br  0  0  0  0  0  0  0  0  0  0  0  0
   21.0627    8.7097   32.1241 C   0  0  0  0  0  0  0  0  0  0  0  0
   21.9465    7.8032   31.5938 C   0  0  0  0  0  0  0  0  0  0  0  0
   21.6705    6.4293   31.4967 C   0  0  0  0  0  0  0  0  0  0  0  0
   20.4675    5.9907   31.9601 C   0  0  0  0  0  0  0  0  0  0  0  0
   19.5629    6.8996   32.4990 C   0  0  0  0  0  0  0  0  0  0  0  0
   19.8503    8.2518   32.5834 C   0  0  0  0  0  0  0  0  0  0  0  0
 25 26  1  0  0  0
 26 27  2  0  0  0
 26 31  1  0  0  0
 27 28  1  0  0  0
 28 29  2  0  0  0
 28 21  1  0  0  0
 29 30  1  0  0  0
 30 31  2  0  0  0
 21 22  2  0  0  0
 21 23  1  0  0  0
 23 19  1  0  0  0
 19 20  1  0  0  0
 19  1  1  0  0  0
  1  2  2  0  0  0
  1  3  1  0  0  0
  3  4  1  0  0  0
  3 16  1  0  0  0
  4  5  1  0  0  0
  5  6  1  0  0  0
  6  7  1  0  0  0
  6 14  1  0  0  0
  6 15  1  0  0  0
  7  8  1  0  0  0
  8  9  1  0  0  0
  9 10  1  0  0  0
 10 11  1  0  0  0
 10 14  2  0  0  0
 11 12  1  0  0  0
 12 13  2  0  0  0
 13 14  1  0  0  0
 15 16  1  0  0  0
 23 24  1  0  0  0
  7 17  1  0  0  0
 11 18  1  0  0  0
M  END
> <minimizedAffinity>
-8.23681

$$$$
1381


 31 34  0  0  0  0  0  0  0  0999 V2000
   23.7882   10.6369   31.2843 C   0  0  0  0  0  0  0  0  0  0  0  0
   24.7311   10.2221   31.9456 O   0  0  0  0  0  0  0  0  0  0  0  0
   22.6697   11.4716   31.6780 C   0  0  0  0  0  0  0  0  0  0  0  0
   22.6923   12.8175   31.4425 N   0  0  0  0  0  0  0  0  0  0  0  0
   21.6860   13.5996   31.7910 N   0  0  0  0  0  0  0  0  0  0  0  0
   20.5916   13.1066   32.3950 C   0  0  0  0  0  0  0  0  0  0  0  0
   19.6260   13.8723   32.7279 O   0  0  0  0  0  0  0  0  0  0  0  0
   20.4906   11.7631   32.6687 C   0  0  0  0  0  0  0  0  0  0  0  0
   21.5680   10.9584   32.2894 C   0  0  0  0  0  0  0  0  0  0  0  0
   21.4238    9.6241   32.5805 C   0  0  0  0  0  0  0  0  0  0  0  0
   20.2868    9.1237   33.2063 C   0  0  0  0  0  0  0  0  0  0  0  0
   19.2445    9.9451   33.5667 C   0  0  0  0  0  0  0  0  0  0  0  0
   19.3658   11.2825   33.2852 C   0  0  0  0  0  0  0  0  0  0  0  0
   21.7221   15.0249   31.5363 C   0  0  0  0  0  0  0  0  0  0  0  0
   22.5500   15.7700   32.5501 C   0  0  0  0  0  0  0  0  0  0  0  0
   22.5291   17.1386   32.3543 O   0  0  0  0  0  0  0  0  0  0  0  0
   21.8570   17.3293   31.6584 H   0  0  0  0  0  0  0  0  0  0  0  0
   23.8686   10.1938   29.9358 O   0  0  0  0  0  0  0  0  0  0  0  0
   22.8811    9.3096   29.4797 C   0  0  0  0  0  0  0  0  0  0  0  0
   26.9703    2.1197   30.0154 Br  0  0  0  0  0  0  0  0  0  0  0  0
   26.2563    3.8917   29.7850 C   0  0  0  0  0  0  0  0  0  0  0  0
   24.9519    4.1773   30.1459 C   0  0  0  0  0  0  0  0  0  0  0  0
   24.4340    5.4207   29.9897 N   0  0  0  0  0  0  0  0  0  0  0  0
   25.1747    6.4112   29.4808 C   0  0  0  0  0  0  0  0  0  0  0  0
   24.6566    7.6410   29.3281 N   0  0  0  0  0  0  0  0  0  0  0  0
   23.3925    7.9381   29.6720 C   0  0  0  0  0  0  0  0  0  0  0  0
   22.6312    6.9227   30.1947 C   0  0  0  0  0  0  0  0  0  0  0  0
   23.1551    5.6325   30.3615 C   0  0  0  0  0  0  0  0  0  0  0  0
   22.4310    4.7259   30.8429 O   0  0  0  0  0  0  0  0  0  0  0  0
   26.4682    6.1475   29.1177 C   0  0  0  0  0  0  0  0  0  0  0  0
   27.0315    4.8962   29.2604 C   0  0  0  0  0  0  0  0  0  0  0  0
 20 21  1  0  0  0
 21 22  2  0  0  0
 21 31  1  0  0  0
 22 23  1  0  0  0
 23 24  1  0  0  0
 23 28  1  0  0  0
 24 25  2  0  0  0
 24 30  1  0  0  0
 25 26  1  0  0  0
 26 27  2  0  0  0
 26 19  1  0  0  0
 27 28  1  0  0  0
 28 29  2  0  0  0
 19 18  1  0  0  0
 18  1  1  0  0  0
  1  2  2  0  0  0
  1  3  1  0  0  0
  3  4  2  0  0  0
  3  9  1  0  0  0
  4  5  1  0  0  0
  5  6  1  0  0  0
  5 14  1  0  0  0
  6  7  2  0  0  0
  6  8  1  0  0  0
  8  9  2  0  0  0
  8 13  1  0  0  0
  9 10  1  0  0  0
 10 11  2  0  0  0
 11 12  1  0  0  0
 12 13  2  0  0  0
 14 15  1  0  0  0
 15 16  1  0  0  0
 30 31  2  0  0  0
 16 17  1  0  0  0
M  END
> <minimizedAffinity>
-9.58781

$$$$
1386


 33 36  0  0  0  0  0  0  0  0999 V2000
   24.8722   10.7156   30.3373 C   0  0  0  0  0  0  0  0  0  0  0  0
   25.9306   11.2164   30.7806 O   0  0  0  0  0  0  0  0  0  0  0  0
   23.7491   11.5833   30.0722 N   0  0  0  0  0  0  0  0  0  0  0  0
   23.8838   12.9919   30.3250 C   0  0  0  0  0  0  0  0  0  0  0  0
   22.9720   13.3278   31.4870 C   0  0  0  0  0  0  0  0  0  0  0  0
   21.7449   12.4918   31.5423 C   0  0  0  0  0  0  0  0  0  0  0  0
   21.3671   11.8201   30.2734 C   0  0  0  0  0  0  0  0  0  0  0  0
   22.4846   11.1281   29.5640 C   0  0  0  0  0  0  0  0  0  0  0  0
   21.7966   11.5152   32.5494 O   0  0  0  0  0  0  0  0  0  0  0  0
   20.5833   13.4141   31.9357 C   0  0  0  0  0  0  0  0  0  0  0  0
   22.7670   11.3250   32.7431 H   0  0  0  0  0  0  0  0  0  0  0  0
   22.7065   14.7452   31.4442 N   0  0  0  0  0  0  0  0  0  0  0  0
   22.3813   15.3400   30.2798 C   0  0  0  0  0  0  0  0  0  0  0  0
   22.1202   16.6891   30.1928 C   0  0  0  0  0  0  0  0  0  0  0  0
   22.1962   17.4460   31.3391 C   0  0  0  0  0  0  0  0  0  0  0  0
   21.9657   18.7004   31.3248 O   0  0  0  0  0  0  0  0  0  0  0  0
   22.5228   16.8270   32.4842 N   0  0  0  0  0  0  0  0  0  0  0  0
   22.7712   15.5178   32.5421 C   0  0  0  0  0  0  0  0  0  0  0  0
   23.0749   14.9832   33.6472 O   0  0  0  0  0  0  0  0  0  0  0  0
   22.5934   17.3746   33.3937 H   0  0  0  0  0  0  0  0  0  0  0  0
   24.7278    9.2788   30.0779 C   0  0  0  0  0  0  0  0  0  0  0  0
   24.4850    8.3913   31.2235 C   0  0  0  0  0  0  0  0  0  0  0  0
   17.2854    8.4873   33.8540 Cl  0  0  0  0  0  0  0  0  0  0  0  0
   18.7763    7.9235   33.0827 C   0  0  0  0  0  0  0  0  0  0  0  0
   19.8582    8.7695   33.0146 C   0  0  0  0  0  0  0  0  0  0  0  0
   21.0426    8.3665   32.4190 C   0  0  0  0  0  0  0  0  0  0  0  0
   22.2260    8.9641   32.2157 N   0  0  0  0  0  0  0  0  0  0  0  0
   23.0701    8.0916   31.5615 C   0  0  0  0  0  0  0  0  0  0  0  0
   22.3627    6.9803   31.3900 N   0  0  0  0  0  0  0  0  0  0  0  0
   21.1016    7.0942   31.8997 C   0  0  0  0  0  0  0  0  0  0  0  0
   20.0220    6.2385   31.9623 C   0  0  0  0  0  0  0  0  0  0  0  0
   18.8524    6.6491   32.5551 C   0  0  0  0  0  0  0  0  0  0  0  0
   22.8058    5.7338   30.7913 C   0  0  0  0  0  0  0  0  0  0  0  0
 23 24  1  0  0  0
 24 25  2  0  0  0
 24 32  1  0  0  0
 25 26  1  0  0  0
 26 27  1  0  0  0
 26 30  2  0  0  0
 27 28  2  0  0  0
 28 29  1  0  0  0
 28 22  1  0  0  0
 29 30  1  0  0  0
 29 33  1  0  0  0
 30 31  1  0  0  0
 31 32  2  0  0  0
 22 21  1  0  0  0
 21  1  1  0  0  0
  1  2  2  0  0  0
  1  3  1  0  0  0
  3  4  1  0  0  0
  3  8  1  0  0  0
  4  5  1  0  0  0
  5  6  1  0  0  0
  5 12  1  0  0  0
  6  7  1  0  0  0
  6  9  1  0  0  0
  6 10  1  0  0  0
  7  8  1  0  0  0
 12 13  1  0  0  0
 12 18  1  0  0  0
 13 14  2  0  0  0
 14 15  1  0  0  0
 15 16  2  0  0  0
 15 17  1  0  0  0
 17 18  1  0  0  0
 18 19  2  0  0  0
  9 11  1  0  0  0
 17 20  1  0  0  0
M  END
> <minimizedAffinity>
-9.25323

$$$$
1388


 30 33  0  0  0  0  0  0  0  0999 V2000
   24.7402    7.8823   29.8548 C   0  0  0  0  0  0  0  0  0  0  0  0
   25.7825    8.2421   29.2541 O   0  0  0  0  0  0  0  0  0  0  0  0
   24.1622    8.7409   30.8027 N   0  0  0  0  0  0  0  0  0  0  0  0
   22.9668    8.3974   31.5321 C   0  0  0  0  0  0  0  0  0  0  0  0
   21.9001    9.3873   31.1172 C   0  0  0  0  0  0  0  0  0  0  0  0
   22.4337   10.7941   31.2458 C   0  0  0  0  0  0  0  0  0  0  0  0
   22.4462   11.3900   29.9267 N   0  0  0  0  0  0  0  0  0  0  0  0
   22.8067   12.7642   29.8935 C   0  0  0  0  0  0  0  0  0  0  0  0
   22.2842   13.6280   30.9823 C   0  0  0  0  0  0  0  0  0  0  0  0
   21.3611   12.9517   31.9177 C   0  0  0  0  0  0  0  0  0  0  0  0
   20.3788   13.4207   32.7468 N   0  0  0  0  0  0  0  0  0  0  0  0
   19.8634   12.3548   33.3712 C   0  0  0  0  0  0  0  0  0  0  0  0
   20.4970   11.2476   32.9514 N   0  0  0  0  0  0  0  0  0  0  0  0
   21.4438   11.5829   32.0393 C   0  0  0  0  0  0  0  0  0  0  0  0
   23.7837   10.8874   31.8806 C   0  0  0  0  0  0  0  0  0  0  0  0
   24.7615   10.0206   31.0812 C   0  0  0  0  0  0  0  0  0  0  0  0
   23.1341   10.8575   29.3317 H   0  0  0  0  0  0  0  0  0  0  0  0
   20.1148   14.4448   32.8413 H   0  0  0  0  0  0  0  0  0  0  0  0
   24.1885    6.5463   29.5063 C   0  0  0  0  0  0  0  0  0  0  0  0
   23.8403    4.6907   31.1477 C   0  0  0  0  0  0  0  0  0  0  0  0
   22.6024    4.8865   31.0417 O   0  0  0  0  0  0  0  0  0  0  0  0
   24.6980    5.5133   30.3825 N   0  0  0  0  0  0  0  0  0  0  0  0
   25.7246    5.3705   30.4535 H   0  0  0  0  0  0  0  0  0  0  0  0
   27.7975    1.4492   32.6340 Br  0  0  0  0  0  0  0  0  0  0  0  0
   26.0358    2.1201   32.8149 C   0  0  0  0  0  0  0  0  0  0  0  0
   25.6001    3.1131   31.9562 C   0  0  0  0  0  0  0  0  0  0  0  0
   24.3268    3.6454   32.0365 C   0  0  0  0  0  0  0  0  0  0  0  0
   23.4783    3.1503   33.0163 C   0  0  0  0  0  0  0  0  0  0  0  0
   23.9178    2.1634   33.8666 C   0  0  0  0  0  0  0  0  0  0  0  0
   25.1825    1.6222   33.8010 C   0  0  0  0  0  0  0  0  0  0  0  0
 24 25  1  0  0  0
 25 26  2  0  0  0
 25 30  1  0  0  0
 26 27  1  0  0  0
 27 28  2  0  0  0
 27 20  1  0  0  0
 28 29  1  0  0  0
 29 30  2  0  0  0
 20 21  2  0  0  0
 20 22  1  0  0  0
 22 19  1  0  0  0
 19  1  1  0  0  0
  1  2  2  0  0  0
  1  3  1  0  0  0
  3  4  1  0  0  0
  3 16  1  0  0  0
  4  5  1  0  0  0
  5  6  1  0  0  0
  6  7  1  0  0  0
  6 14  1  0  0  0
  6 15  1  0  0  0
  7  8  1  0  0  0
  8  9  1  0  0  0
  9 10  1  0  0  0
 10 11  1  0  0  0
 10 14  2  0  0  0
 11 12  1  0  0  0
 12 13  2  0  0  0
 13 14  1  0  0  0
 15 16  1  0  0  0
 22 23  1  0  0  0
  7 17  1  0  0  0
 11 18  1  0  0  0
M  END
> <minimizedAffinity>
-8.89877

$$$$
1404


 26 29  0  0  0  0  0  0  0  0999 V2000
   23.1771   15.8944   33.3008 Br  0  0  0  0  0  0  0  0  0  0  0  0
   22.8429   14.4803   32.0648 C   0  0  0  0  0  0  0  0  0  0  0  0
   23.3306   13.2060   32.2847 C   0  0  0  0  0  0  0  0  0  0  0  0
   23.1162   12.1519   31.4222 C   0  0  0  0  0  0  0  0  0  0  0  0
   22.3597   12.4417   30.2829 C   0  0  0  0  0  0  0  0  0  0  0  0
   21.8750   13.7079   30.0646 C   0  0  0  0  0  0  0  0  0  0  0  0
   22.0976   14.7531   30.9371 C   0  0  0  0  0  0  0  0  0  0  0  0
   21.5471   16.1082   30.6494 C   0  0  0  0  0  0  0  0  0  0  0  0
   22.1632   11.3567   29.4400 O   0  0  0  0  0  0  0  0  0  0  0  0
   22.8361   10.1177   29.5609 C   0  0  0  0  0  0  0  0  0  0  0  0
   22.8985    9.6750   31.0607 C   0  0  0  0  0  0  0  0  0  0  0  0
   23.6465   10.8142   31.6460 C   0  0  0  0  0  0  0  0  0  0  0  0
   24.6934   10.7612   32.3149 O   0  0  0  0  0  0  0  0  0  0  0  0
   23.4197    8.4317   31.2423 N   0  0  0  0  0  0  0  0  0  0  0  0
   24.7767    8.1175   31.1005 C   0  0  0  0  0  0  0  0  0  0  0  0
   25.0188    7.4536   29.7619 C   0  0  0  0  0  0  0  0  0  0  0  0
   24.3454    6.2108   29.8298 O   0  0  0  0  0  0  0  0  0  0  0  0
   22.9840    6.5532   29.7539 C   0  0  0  0  0  0  0  0  0  0  0  0
   22.6179    7.3084   31.0338 C   0  0  0  0  0  0  0  0  0  0  0  0
   21.4746    9.7351   31.4847 C   0  0  0  0  0  0  0  0  0  0  0  0
   21.1817    9.7769   32.8833 N   0  0  0  0  0  0  0  0  0  0  0  0
   20.4331   10.8660   33.3852 C   0  0  0  0  0  0  0  0  0  0  0  0
   18.9467   10.7087   33.0316 C   0  0  0  0  0  0  0  0  0  0  0  0
   18.5096    9.5883   33.7460 O   0  0  0  0  0  0  0  0  0  0  0  0
   19.1135    8.4719   33.1558 C   0  0  0  0  0  0  0  0  0  0  0  0
   20.6060    8.4909   33.2812 C   0  0  0  0  0  0  0  0  0  0  0  0
  1  2  1  0  0  0
  2  3  2  0  0  0
  2  7  1  0  0  0
  3  4  1  0  0  0
  4  5  2  0  0  0
  4 12  1  0  0  0
  5  6  1  0  0  0
  5  9  1  0  0  0
  6  7  2  0  0  0
  7  8  1  0  0  0
  9 10  1  0  0  0
 10 11  1  0  0  0
 11 12  1  0  0  0
 11 14  1  0  0  0
 11 20  1  0  0  0
 12 13  2  0  0  0
 14 15  1  0  0  0
 14 19  1  0  0  0
 15 16  1  0  0  0
 16 17  1  0  0  0
 17 18  1  0  0  0
 18 19  1  0  0  0
 20 21  1  0  0  0
 21 22  1  0  0  0
 21 26  1  0  0  0
 22 23  1  0  0  0
 23 24  1  0  0  0
 24 25  1  0  0  0
 25 26  1  0  0  0
M  END
> <minimizedAffinity>
-6.78242

$$$$
1405


 27 30  0  0  0  0  0  0  0  0999 V2000
   28.0910   10.2428   26.6648 Br  0  0  0  0  0  0  0  0  0  0  0  0
   28.7988   11.5836   25.4750 C   0  0  0  0  0  0  0  0  0  0  0  0
   27.9667   12.3923   24.7467 C   0  0  0  0  0  0  0  0  0  0  0  0
   28.4964   13.3454   23.9023 C   0  0  0  0  0  0  0  0  0  0  0  0
   29.8595   13.4421   23.8284 C   0  0  0  0  0  0  0  0  0  0  0  0
   30.7142   12.6095   24.5788 C   0  0  0  0  0  0  0  0  0  0  0  0
   30.1710   11.6688   25.4126 C   0  0  0  0  0  0  0  0  0  0  0  0
   30.2522   14.4661   22.9194 N   0  0  0  0  0  0  0  0  0  0  0  0
   29.0899   15.0438   22.3933 C   0  0  0  0  0  0  0  0  0  0  0  0
   29.0625   15.9903   21.5486 O   0  0  0  0  0  0  0  0  0  0  0  0
   27.8950   14.3547   22.9964 C   0  0  0  0  0  0  0  0  0  0  0  0
   27.1528   15.3906   23.7056 C   0  0  0  0  0  0  0  0  0  0  0  0
   25.8919   15.7372   23.3310 C   0  0  0  0  0  0  0  0  0  0  0  0
   25.4875   16.7212   24.1874 N   0  0  0  0  0  0  0  0  0  0  0  0
   26.4390   16.9863   25.0577 N   0  0  0  0  0  0  0  0  0  0  0  0
   27.4785   16.1954   24.8010 C   0  0  0  0  0  0  0  0  0  0  0  0
   28.7981   16.1096   25.5016 C   0  0  0  0  0  0  0  0  0  0  0  0
   25.2275   15.1341   22.2576 O   0  0  0  0  0  0  0  0  0  0  0  0
   25.9390   14.1470   21.5833 C   0  0  0  0  0  0  0  0  0  0  0  0
   27.1517   13.7711   21.8954 C   0  0  0  0  0  0  0  0  0  0  0  0
   25.2992   13.4832   20.4569 N   0  0  0  0  0  0  0  0  0  0  0  0
   31.6295   14.8571   22.5828 C   0  0  0  0  0  0  0  0  0  0  0  0
   26.4332   17.6901   25.8405 H   0  0  0  0  0  0  0  0  0  0  0  0
   25.4437   13.9498   19.5393 H   0  0  0  0  0  0  0  0  0  0  0  0
   24.7502   12.6305   20.5452 H   0  0  0  0  0  0  0  0  0  0  0  0
   27.7517   12.7081   21.0704 C   0  0  0  0  0  0  0  0  0  0  0  0
   28.2249   11.8506   20.4341 N   0  0  0  0  0  0  0  0  0  0  0  0
  1  2  1  0  0  0
  2  3  2  0  0  0
  2  7  1  0  0  0
  3  4  1  0  0  0
  4  5  2  0  0  0
  4 11  1  0  0  0
  5  6  1  0  0  0
  5  8  1  0  0  0
  6  7  2  0  0  0
  8  9  1  0  0  0
  8 22  1  0  0  0
  9 10  2  0  0  0
  9 11  1  0  0  0
 11 12  1  0  0  0
 11 20  1  0  0  0
 12 13  1  0  0  0
 12 16  2  0  0  0
 13 14  2  0  0  0
 13 18  1  0  0  0
 14 15  1  0  0  0
 15 16  1  0  0  0
 16 17  1  0  0  0
 18 19  1  0  0  0
 19 20  2  0  0  0
 19 21  1  0  0  0
 20 26  1  0  0  0
 26 27  3  0  0  0
 15 23  1  0  0  0
 21 24  1  0  0  0
 21 25  1  0  0  0
M  END
> <minimizedAffinity>
-5.62457

$$$$
1413


 24 27  0  0  0  0  0  0  0  0999 V2000
   24.3175   10.0512   32.1014 C   0  0  0  0  0  0  0  0  0  0  0  0
   24.0626    5.0035   30.5283 Br  0  0  0  0  0  0  0  0  0  0  0  0
   24.7414    6.7657   30.3838 C   0  0  0  0  0  0  0  0  0  0  0  0
   25.6477    7.0390   29.4167 C   0  0  0  0  0  0  0  0  0  0  0  0
   26.2068    6.2617   28.4684 N   0  0  0  0  0  0  0  0  0  0  0  0
   27.0238    7.0774   27.8089 N   0  0  0  0  0  0  0  0  0  0  0  0
   27.0019    8.2913   28.2845 N   0  0  0  0  0  0  0  0  0  0  0  0
   26.1295    8.3256   29.3254 C   0  0  0  0  0  0  0  0  0  0  0  0
   25.6978    9.3156   30.2018 C   0  0  0  0  0  0  0  0  0  0  0  0
   24.7984    9.0497   31.1641 N   0  0  0  0  0  0  0  0  0  0  0  0
   24.3328    7.7844   31.2435 C   0  0  0  0  0  0  0  0  0  0  0  0
   26.0395    4.8929   28.1566 C   0  0  0  0  0  0  0  0  0  0  0  0
   23.0459   10.6626   31.7267 C   0  0  0  0  0  0  0  0  0  0  0  0
   23.1043   11.6132   30.8885 O   0  0  0  0  0  0  0  0  0  0  0  0
   21.7251   10.2867   32.2218 C   0  0  0  0  0  0  0  0  0  0  0  0
   21.2859    9.0069   32.0307 C   0  0  0  0  0  0  0  0  0  0  0  0
   20.0477    8.6274   32.4793 C   0  0  0  0  0  0  0  0  0  0  0  0
   19.2035    9.5064   33.1329 C   0  0  0  0  0  0  0  0  0  0  0  0
   19.6809   10.8028   33.3105 C   0  0  0  0  0  0  0  0  0  0  0  0
   20.9161   11.1857   32.8651 C   0  0  0  0  0  0  0  0  0  0  0  0
   17.9538    9.1477   33.5937 C   0  0  0  0  0  0  0  0  0  0  0  0
   17.5454    7.8482   33.3830 C   0  0  0  0  0  0  0  0  0  0  0  0
   18.3788    6.9623   32.7321 C   0  0  0  0  0  0  0  0  0  0  0  0
   19.6246    7.3260   32.2755 C   0  0  0  0  0  0  0  0  0  0  0  0
  2  3  1  0  0  0
  3  4  2  0  0  0
  3 11  1  0  0  0
  4  5  1  0  0  0
  4  8  1  0  0  0
  5  6  1  0  0  0
  5 12  1  0  0  0
  6  7  2  0  0  0
  7  8  1  0  0  0
  8  9  2  0  0  0
  9 10  1  0  0  0
 10 11  2  0  0  0
 10  1  1  0  0  0
  1 13  1  0  0  0
 13 14  2  0  0  0
 13 15  1  0  0  0
 15 16  2  0  0  0
 15 20  1  0  0  0
 16 17  1  0  0  0
 17 18  2  0  0  0
 17 24  1  0  0  0
 18 19  1  0  0  0
 18 21  1  0  0  0
 19 20  2  0  0  0
 21 22  2  0  0  0
 22 23  1  0  0  0
 23 24  2  0  0  0
M  END
> <minimizedAffinity>
-9.64589

$$$$
1415


 32 35  0  0  0  0  0  0  0  0999 V2000
   25.9165    6.5609   29.1102 Br  0  0  0  0  0  0  0  0  0  0  0  0
   24.8206    5.5820   30.3406 C   0  0  0  0  0  0  0  0  0  0  0  0
   25.3514    4.5210   31.0348 C   0  0  0  0  0  0  0  0  0  0  0  0
   24.5829    3.7773   31.9458 C   0  0  0  0  0  0  0  0  0  0  0  0
   23.2715    4.1682   32.1052 C   0  0  0  0  0  0  0  0  0  0  0  0
   22.7143    5.2272   31.4213 C   0  0  0  0  0  0  0  0  0  0  0  0
   23.4876    5.9409   30.5346 C   0  0  0  0  0  0  0  0  0  0  0  0
   22.9799    7.0970   29.7515 C   0  0  0  0  0  0  0  0  0  0  0  0
   20.8942    5.7460   31.6632 Br  0  0  0  0  0  0  0  0  0  0  0  0
   25.1821    2.6650   32.6536 C   0  0  0  0  0  0  0  0  0  0  0  0
   24.5464    2.0713   33.5311 O   0  0  0  0  0  0  0  0  0  0  0  0
   26.5553    2.2479   32.3188 C   0  0  0  0  0  0  0  0  0  0  0  0
   27.3171    3.4941   31.9242 C   0  0  0  0  0  0  0  0  0  0  0  0
   26.6813    4.1569   30.8470 O   0  0  0  0  0  0  0  0  0  0  0  0
   27.2450    1.5045   33.4222 C   0  0  0  0  0  0  0  0  0  0  0  0
   28.5581    1.9246   33.7275 N   0  0  0  0  0  0  0  0  0  0  0  0
   28.6094    2.4402   35.0635 C   0  0  0  0  0  0  0  0  0  0  0  0
   28.4765    1.4242   36.1408 C   0  0  0  0  0  0  0  0  0  0  0  0
   28.5262    0.0044   35.7275 C   0  0  0  0  0  0  0  0  0  0  0  0
   29.1971   -0.2917   34.4433 C   0  0  0  0  0  0  0  0  0  0  0  0
   29.5752    0.9140   33.6342 C   0  0  0  0  0  0  0  0  0  0  0  0
   27.1298    1.6587   36.8349 C   0  0  0  0  0  0  0  0  0  0  0  0
   28.8450    2.7046   33.0835 H   0  0  0  0  0  0  0  0  0  0  0  0
   26.4354    1.3640   31.0944 C   0  0  0  0  0  0  0  0  0  0  0  0
   27.4403    1.5550   30.1050 N   0  0  0  0  0  0  0  0  0  0  0  0
   26.8540    1.4863   28.7678 C   0  0  0  0  0  0  0  0  0  0  0  0
   27.0852    0.1602   28.1043 C   0  0  0  0  0  0  0  0  0  0  0  0
   26.8879   -0.9509   29.1104 C   0  0  0  0  0  0  0  0  0  0  0  0
   27.9832   -0.8478   30.1259 C   0  0  0  0  0  0  0  0  0  0  0  0
   28.4994    0.5698   30.1360 C   0  0  0  0  0  0  0  0  0  0  0  0
   25.9824   -0.0119   27.0509 C   0  0  0  0  0  0  0  0  0  0  0  0
   27.8594    2.4849   30.1894 H   0  0  0  0  0  0  0  0  0  0  0  0
  1  2  1  0  0  0
  2  3  2  0  0  0
  2  7  1  0  0  0
  3  4  1  0  0  0
  3 14  1  0  0  0
  4  5  2  0  0  0
  4 10  1  0  0  0
  5  6  1  0  0  0
  6  7  2  0  0  0
  6  9  1  0  0  0
  7  8  1  0  0  0
 10 11  2  0  0  0
 10 12  1  0  0  0
 12 13  1  0  0  0
 12 15  1  0  0  0
 12 24  1  0  0  0
 13 14  1  0  0  0
 15 16  1  0  0  0
 16 17  1  0  0  0
 16 21  1  0  0  0
 17 18  1  0  0  0
 18 19  1  0  0  0
 18 22  1  0  0  0
 19 20  1  0  0  0
 20 21  1  0  0  0
 24 25  1  0  0  0
 25 26  1  0  0  0
 25 30  1  0  0  0
 26 27  1  0  0  0
 27 28  1  0  0  0
 27 31  1  0  0  0
 28 29  1  0  0  0
 29 30  1  0  0  0
 16 23  1  0  0  0
 25 32  1  0  0  0
M  CHG 1  16   1
M  CHG 1  25   1
M  END
> <minimizedAffinity>
-6.11909

$$$$
1428


 37 40  0  0  0  0  0  0  0  0999 V2000
   24.3030   15.1660   27.3114 Cl  0  0  0  0  0  0  0  0  0  0  0  0
   25.1806   13.7133   27.7805 C   0  0  0  0  0  0  0  0  0  0  0  0
   24.6060   12.7310   28.5421 C   0  0  0  0  0  0  0  0  0  0  0  0
   25.3373   11.6152   28.8812 C   0  0  0  0  0  0  0  0  0  0  0  0
   26.6310   11.5278   28.4379 C   0  0  0  0  0  0  0  0  0  0  0  0
   27.2147   12.5319   27.6604 C   0  0  0  0  0  0  0  0  0  0  0  0
   26.4805   13.6332   27.3309 C   0  0  0  0  0  0  0  0  0  0  0  0
   27.2628   10.3206   28.8485 N   0  0  0  0  0  0  0  0  0  0  0  0
   26.3076    9.6140   29.5903 C   0  0  0  0  0  0  0  0  0  0  0  0
   26.5583    8.4696   30.0934 O   0  0  0  0  0  0  0  0  0  0  0  0
   25.0618   10.3896   29.6678 C   0  0  0  0  0  0  0  0  0  0  0  0
   24.0132    9.5967   29.0901 N   0  0  0  0  0  0  0  0  0  0  0  0
   23.1043    9.2058   30.1222 C   0  0  0  0  0  0  0  0  0  0  0  0
   23.7617    9.5034   31.4315 C   0  0  0  0  0  0  0  0  0  0  0  0
   24.6991   10.6218   31.0704 C   0  0  0  0  0  0  0  0  0  0  0  0
   28.2498   10.0136   28.6397 H   0  0  0  0  0  0  0  0  0  0  0  0
   23.5634   10.0907   28.2907 H   0  0  0  0  0  0  0  0  0  0  0  0
   24.1487   11.9624   31.3971 C   0  0  0  0  0  0  0  0  0  0  0  0
   24.8706   12.6924   32.1183 O   0  0  0  0  0  0  0  0  0  0  0  0
   22.9050   12.4231   30.9502 N   0  0  0  0  0  0  0  0  0  0  0  0
   22.3764   11.7310   30.3350 H   0  0  0  0  0  0  0  0  0  0  0  0
   22.2853   13.6498   31.1932 C   0  0  0  0  0  0  0  0  0  0  0  0
   21.1942   13.7007   32.0488 C   0  0  0  0  0  0  0  0  0  0  0  0
   20.5348   14.8786   32.3357 C   0  0  0  0  0  0  0  0  0  0  0  0
   20.9326   16.0685   31.7798 C   0  0  0  0  0  0  0  0  0  0  0  0
   22.0031   16.0499   30.9332 C   0  0  0  0  0  0  0  0  0  0  0  0
   22.6602   14.8541   30.6529 C   0  0  0  0  0  0  0  0  0  0  0  0
   20.7329   12.5421   32.6485 O   0  0  0  0  0  0  0  0  0  0  0  0
   19.4548   12.3941   33.1866 C   0  0  0  0  0  0  0  0  0  0  0  0
   22.4365   17.2281   30.3528 O   0  0  0  0  0  0  0  0  0  0  0  0
   22.2966   17.4963   28.9693 C   0  0  0  0  0  0  0  0  0  0  0  0
   22.7084    7.7434   30.0012 C   0  0  0  0  0  0  0  0  0  0  0  0
   23.8803    6.8619   29.9005 C   0  0  0  0  0  0  0  0  0  0  0  0
   24.3578    6.5777   28.7908 O   0  0  0  0  0  0  0  0  0  0  0  0
   24.4628    6.3381   31.0695 N   0  0  0  0  0  0  0  0  0  0  0  0
   25.4982    6.3984   31.1737 H   0  0  0  0  0  0  0  0  0  0  0  0
   23.9256    5.8878   31.8499 H   0  0  0  0  0  0  0  0  0  0  0  0
  1  2  1  0  0  0
  2  3  2  0  0  0
  2  7  1  0  0  0
  3  4  1  0  0  0
  4  5  2  0  0  0
  4 11  1  0  0  0
  5  6  1  0  0  0
  5  8  1  0  0  0
  6  7  2  0  0  0
  8  9  1  0  0  0
  9 10  2  0  0  0
  9 11  1  0  0  0
 11 12  1  0  0  0
 11 15  1  0  0  0
 12 13  1  0  0  0
 13 14  1  0  0  0
 13 32  1  0  0  0
 14 15  1  0  0  0
 15 18  1  0  0  0
 18 19  2  0  0  0
 18 20  1  0  0  0
 20 22  1  0  0  0
 22 23  2  0  0  0
 22 27  1  0  0  0
 23 24  1  0  0  0
 23 28  1  0  0  0
 24 25  2  0  0  0
 25 26  1  0  0  0
 26 27  2  0  0  0
 26 30  1  0  0  0
 30 31  1  0  0  0
 28 29  1  0  0  0
 32 33  1  0  0  0
 33 34  2  0  0  0
 33 35  1  0  0  0
  8 16  1  0  0  0
 12 17  1  0  0  0
 20 21  1  0  0  0
 35 36  1  0  0  0
 35 37  1  0  0  0
M  END
> <minimizedAffinity>
-7.62032

$$$$
1432


 21 24  0  0  0  0  0  0  0  0999 V2000
   20.5363   10.7714   32.9920 C   0  0  0  0  0  0  0  0  0  0  0  0
   20.1986    9.4740   33.0753 N   0  0  0  0  0  0  0  0  0  0  0  0
   21.0244    8.7219   32.3286 N   0  0  0  0  0  0  0  0  0  0  0  0
   21.9091    9.5585   31.7573 C   0  0  0  0  0  0  0  0  0  0  0  0
   21.6046   10.8041   32.1667 N   0  0  0  0  0  0  0  0  0  0  0  0
   22.8724    9.0095   30.9328 C   0  0  0  0  0  0  0  0  0  0  0  0
   22.9448    7.6511   30.6881 C   0  0  0  0  0  0  0  0  0  0  0  0
   23.9704    7.3807   29.8522 N   0  0  0  0  0  0  0  0  0  0  0  0
   24.5304    8.5442   29.5795 N   0  0  0  0  0  0  0  0  0  0  0  0
   23.9040    9.5565   30.2062 C   0  0  0  0  0  0  0  0  0  0  0  0
   24.3572    6.0571   29.3685 C   0  0  0  0  0  0  0  0  0  0  0  0
   22.0287    6.8752   31.2928 N   0  0  0  0  0  0  0  0  0  0  0  0
   21.0876    7.3972   32.0964 C   0  0  0  0  0  0  0  0  0  0  0  0
   19.8965   11.9429   33.6516 C   0  0  0  0  0  0  0  0  0  0  0  0
   21.6844   16.3364   30.9845 Br  0  0  0  0  0  0  0  0  0  0  0  0
   20.6183   14.9264   31.6969 C   0  0  0  0  0  0  0  0  0  0  0  0
   21.0103   13.9013   32.5544 C   0  0  0  0  0  0  0  0  0  0  0  0
   19.9372   13.1249   32.8060 N   0  0  0  0  0  0  0  0  0  0  0  0
   18.8993   13.6289   32.1377 N   0  0  0  0  0  0  0  0  0  0  0  0
   19.2765   14.7255   31.4520 C   0  0  0  0  0  0  0  0  0  0  0  0
   18.4617   15.6024   30.5783 C   0  0  0  0  0  0  0  0  0  0  0  0
 15 16  1  0  0  0
 16 17  2  0  0  0
 16 20  1  0  0  0
 17 18  1  0  0  0
 18 19  1  0  0  0
 18 14  1  0  0  0
 19 20  2  0  0  0
 20 21  1  0  0  0
 14  1  1  0  0  0
  1  2  2  0  0  0
  1  5  1  0  0  0
  2  3  1  0  0  0
  3  4  1  0  0  0
  3 13  1  0  0  0
  4  5  2  0  0  0
  4  6  1  0  0  0
  6  7  2  0  0  0
  6 10  1  0  0  0
  7  8  1  0  0  0
  7 12  1  0  0  0
  8  9  1  0  0  0
  8 11  1  0  0  0
  9 10  2  0  0  0
 12 13  2  0  0  0
M  END
> <minimizedAffinity>
-7.79012

$$$$
1433


 28 31  0  0  0  0  0  0  0  0999 V2000
   25.7953    6.0834   29.1813 Br  0  0  0  0  0  0  0  0  0  0  0  0
   24.5751    5.2860   30.3943 C   0  0  0  0  0  0  0  0  0  0  0  0
   24.9518    4.1408   31.1031 C   0  0  0  0  0  0  0  0  0  0  0  0
   24.0988    3.5437   31.9984 C   0  0  0  0  0  0  0  0  0  0  0  0
   22.8594    4.1117   32.1719 C   0  0  0  0  0  0  0  0  0  0  0  0
   22.4577    5.2521   31.4784 C   0  0  0  0  0  0  0  0  0  0  0  0
   23.3380    5.8510   30.5726 C   0  0  0  0  0  0  0  0  0  0  0  0
   22.9223    7.0729   29.8300 C   0  0  0  0  0  0  0  0  0  0  0  0
   21.0976    5.8165   31.6856 C   0  0  0  0  0  0  0  0  0  0  0  0
   24.4300    2.3468   32.8241 C   0  0  0  0  0  0  0  0  0  0  0  0
   25.7154    1.6726   32.4543 C   0  0  0  0  0  0  0  0  0  0  0  0
   26.0881    2.0740   31.0390 C   0  0  0  0  0  0  0  0  0  0  0  0
   26.1852    3.5199   30.9612 O   0  0  0  0  0  0  0  0  0  0  0  0
   23.3397    1.4326   32.6854 O   0  0  0  0  0  0  0  0  0  0  0  0
   22.6033    1.7814   33.2457 H   0  0  0  0  0  0  0  0  0  0  0  0
   25.4433    0.2511   32.4526 N   0  0  0  0  0  0  0  0  0  0  0  0
   25.8036   -0.4031   33.6660 C   0  0  0  0  0  0  0  0  0  0  0  0
   25.9175   -1.8986   33.5868 C   0  0  0  0  0  0  0  0  0  0  0  0
   26.4370   -2.3846   32.4176 O   0  0  0  0  0  0  0  0  0  0  0  0
   25.6359   -1.9214   31.3656 C   0  0  0  0  0  0  0  0  0  0  0  0
   25.9688   -0.4081   31.2937 C   0  0  0  0  0  0  0  0  0  0  0  0
   26.8986    2.0351   33.2684 C   0  0  0  0  0  0  0  0  0  0  0  0
   28.1902    2.1339   32.7636 N   0  0  0  0  0  0  0  0  0  0  0  0
   28.9764    3.1125   33.5906 C   0  0  0  0  0  0  0  0  0  0  0  0
   28.9630    2.7352   35.0257 C   0  0  0  0  0  0  0  0  0  0  0  0
   28.8934    1.3901   35.2704 O   0  0  0  0  0  0  0  0  0  0  0  0
   29.3585    0.5757   34.2795 C   0  0  0  0  0  0  0  0  0  0  0  0
   29.0786    0.9915   32.8715 C   0  0  0  0  0  0  0  0  0  0  0  0
  1  2  1  0  0  0
  2  3  2  0  0  0
  2  7  1  0  0  0
  3  4  1  0  0  0
  3 13  1  0  0  0
  4  5  2  0  0  0
  4 10  1  0  0  0
  5  6  1  0  0  0
  6  7  2  0  0  0
  6  9  1  0  0  0
  7  8  1  0  0  0
 10 11  1  0  0  0
 10 14  1  0  0  0
 11 12  1  0  0  0
 11 16  1  0  0  0
 11 22  1  0  0  0
 12 13  1  0  0  0
 16 17  1  0  0  0
 16 21  1  0  0  0
 17 18  1  0  0  0
 18 19  1  0  0  0
 19 20  1  0  0  0
 20 21  1  0  0  0
 22 23  1  0  0  0
 23 24  1  0  0  0
 23 28  1  0  0  0
 24 25  1  0  0  0
 25 26  1  0  0  0
 26 27  1  0  0  0
 27 28  1  0  0  0
 14 15  1  0  0  0
M  END
> <minimizedAffinity>
-5.87810

$$$$
1434


 28 31  0  0  0  0  0  0  0  0999 V2000
   24.2189   10.9919   31.3258 C   0  0  0  0  0  0  0  0  0  0  0  0
   25.5061   11.3158   31.2709 O   0  0  0  0  0  0  0  0  0  0  0  0
   23.4168   11.6801   30.4293 N   0  0  0  0  0  0  0  0  0  0  0  0
   22.0142   11.5680   30.2429 C   0  0  0  0  0  0  0  0  0  0  0  0
   21.3172   12.8192   30.7788 C   0  0  0  0  0  0  0  0  0  0  0  0
   22.2213   14.0257   30.5897 C   0  0  0  0  0  0  0  0  0  0  0  0
   21.3325   15.1403   30.3085 N   0  0  0  0  0  0  0  0  0  0  0  0
   20.9868   15.7156   31.5855 C   0  0  0  0  0  0  0  0  0  0  0  0
   20.0131   16.4758   31.8132 O   0  0  0  0  0  0  0  0  0  0  0  0
   21.9633   15.2538   32.5381 N   0  0  0  0  0  0  0  0  0  0  0  0
   22.8838   14.4142   31.8523 C   0  0  0  0  0  0  0  0  0  0  0  0
   24.0202   14.0930   32.2711 O   0  0  0  0  0  0  0  0  0  0  0  0
   23.1621   13.8679   29.4372 C   0  0  0  0  0  0  0  0  0  0  0  0
   24.0581   12.6765   29.5371 C   0  0  0  0  0  0  0  0  0  0  0  0
   21.0027   15.4696   29.3774 H   0  0  0  0  0  0  0  0  0  0  0  0
   21.9856   15.4936   33.5392 H   0  0  0  0  0  0  0  0  0  0  0  0
   23.9619    9.9805   32.3317 C   0  0  0  0  0  0  0  0  0  0  0  0
   21.6093    5.3792   30.6585 Br  0  0  0  0  0  0  0  0  0  0  0  0
   22.0084    7.0922   31.4070 C   0  0  0  0  0  0  0  0  0  0  0  0
   21.0673    7.8779   32.0242 C   0  0  0  0  0  0  0  0  0  0  0  0
   21.7088    9.0192   32.4306 C   0  0  0  0  0  0  0  0  0  0  0  0
   23.0251    8.9438   32.0721 N   0  0  0  0  0  0  0  0  0  0  0  0
   23.2018    7.7579   31.4431 C   0  0  0  0  0  0  0  0  0  0  0  0
   24.4856    7.2735   30.8872 C   0  0  0  0  0  0  0  0  0  0  0  0
   20.9868   10.0096   33.0971 C   0  0  0  0  0  0  0  0  0  0  0  0
   19.6307    9.8470   33.3494 C   0  0  0  0  0  0  0  0  0  0  0  0
   19.0090    8.7018   32.9360 C   0  0  0  0  0  0  0  0  0  0  0  0
   19.7133    7.7200   32.2778 C   0  0  0  0  0  0  0  0  0  0  0  0
 18 19  1  0  0  0
 19 20  1  0  0  0
 19 23  2  0  0  0
 20 21  2  0  0  0
 20 28  1  0  0  0
 21 22  1  0  0  0
 21 25  1  0  0  0
 22 23  1  0  0  0
 22 17  1  0  0  0
 23 24  1  0  0  0
 17  1  1  0  0  0
  1  2  2  0  0  0
  1  3  1  0  0  0
  3  4  1  0  0  0
  3 14  1  0  0  0
  4  5  1  0  0  0
  5  6  1  0  0  0
  6  7  1  0  0  0
  6 11  1  0  0  0
  6 13  1  0  0  0
  7  8  1  0  0  0
  8  9  2  0  0  0
  8 10  1  0  0  0
 10 11  1  0  0  0
 11 12  2  0  0  0
 13 14  1  0  0  0
 25 26  2  0  0  0
 26 27  1  0  0  0
 27 28  2  0  0  0
  7 15  1  0  0  0
 10 16  1  0  0  0
M  END
> <minimizedAffinity>
-9.89404

$$$$
1435


 32 35  0  0  0  0  0  0  0  0999 V2000
   22.4096   11.8549   30.3163 C   0  0  0  0  0  0  0  0  0  0  0  0
   22.5656   11.4832   31.7846 C   0  0  0  0  0  0  0  0  0  0  0  0
   19.9012   12.8152   33.2943 Br  0  0  0  0  0  0  0  0  0  0  0  0
   20.3310   11.0062   32.8591 C   0  0  0  0  0  0  0  0  0  0  0  0
   21.4791   10.6466   32.2348 N   0  0  0  0  0  0  0  0  0  0  0  0
   21.4004    9.3026   32.1141 C   0  0  0  0  0  0  0  0  0  0  0  0
   20.2232    8.8270   32.6528 C   0  0  0  0  0  0  0  0  0  0  0  0
   19.5748    9.9228   33.1129 N   0  0  0  0  0  0  0  0  0  0  0  0
   19.9024    7.5132   32.6583 N   0  0  0  0  0  0  0  0  0  0  0  0
   20.7787    6.6519   32.1111 C   0  0  0  0  0  0  0  0  0  0  0  0
   20.5485    5.4139   32.0794 O   0  0  0  0  0  0  0  0  0  0  0  0
   21.9503    7.0839   31.5691 N   0  0  0  0  0  0  0  0  0  0  0  0
   22.2763    8.3848   31.5590 C   0  0  0  0  0  0  0  0  0  0  0  0
   23.3399    8.8310   31.0740 O   0  0  0  0  0  0  0  0  0  0  0  0
   18.6597    7.0305   33.2307 C   0  0  0  0  0  0  0  0  0  0  0  0
   22.6069    6.3831   31.1519 H   0  0  0  0  0  0  0  0  0  0  0  0
   22.0973   13.3195   30.1594 C   0  0  0  0  0  0  0  0  0  0  0  0
   23.2807   14.2318   30.2859 C   0  0  0  0  0  0  0  0  0  0  0  0
   22.9863   15.5112   29.7320 N   0  0  0  0  0  0  0  0  0  0  0  0
   23.3204   16.0520   28.5618 C   0  0  0  0  0  0  0  0  0  0  0  0
   22.7539   17.3188   28.4760 C   0  0  0  0  0  0  0  0  0  0  0  0
   22.0912   17.4954   29.6152 N   0  0  0  0  0  0  0  0  0  0  0  0
   22.2187   16.4166   30.3895 C   0  0  0  0  0  0  0  0  0  0  0  0
   21.4305   16.2384   32.1163 Br  0  0  0  0  0  0  0  0  0  0  0  0
   22.9424   18.0810   27.3950 N   0  0  0  0  0  0  0  0  0  0  0  0
   23.6863   17.6444   26.3605 C   0  0  0  0  0  0  0  0  0  0  0  0
   23.8584   18.3671   25.3474 O   0  0  0  0  0  0  0  0  0  0  0  0
   24.2379   16.4289   26.4303 N   0  0  0  0  0  0  0  0  0  0  0  0
   24.0734   15.6319   27.4967 C   0  0  0  0  0  0  0  0  0  0  0  0
   24.5980   14.5017   27.5449 O   0  0  0  0  0  0  0  0  0  0  0  0
   22.3591   19.4133   27.2785 C   0  0  0  0  0  0  0  0  0  0  0  0
   24.8305   16.0471   25.6387 H   0  0  0  0  0  0  0  0  0  0  0  0
  3  4  1  0  0  0
  4  5  1  0  0  0
  4  8  2  0  0  0
  5  6  1  0  0  0
  5  2  1  0  0  0
  6  7  2  0  0  0
  6 13  1  0  0  0
  7  8  1  0  0  0
  7  9  1  0  0  0
  9 10  1  0  0  0
  9 15  1  0  0  0
 10 11  2  0  0  0
 10 12  1  0  0  0
 12 13  1  0  0  0
 13 14  2  0  0  0
  2  1  1  0  0  0
  1 17  1  0  0  0
 17 18  1  0  0  0
 18 19  1  0  0  0
 19 20  1  0  0  0
 19 23  1  0  0  0
 20 21  2  0  0  0
 20 29  1  0  0  0
 21 22  1  0  0  0
 21 25  1  0  0  0
 22 23  2  0  0  0
 23 24  1  0  0  0
 25 26  1  0  0  0
 25 31  1  0  0  0
 26 27  2  0  0  0
 26 28  1  0  0  0
 28 29  1  0  0  0
 29 30  2  0  0  0
 12 16  1  0  0  0
 28 32  1  0  0  0
M  END
> <minimizedAffinity>
-9.54023

$$$$
1436


 33 36  0  0  0  0  0  0  0  0999 V2000
   23.4080   12.4872   30.1116 O   0  0  0  0  0  0  0  0  0  0  0  0
   22.9595   13.7126   29.7448 C   0  0  0  0  0  0  0  0  0  0  0  0
   23.8526   14.7515   29.2058 C   0  0  0  0  0  0  0  0  0  0  0  0
   21.5098   16.4055   31.1483 Br  0  0  0  0  0  0  0  0  0  0  0  0
   22.4257   16.7948   29.5153 C   0  0  0  0  0  0  0  0  0  0  0  0
   23.2963   16.0193   28.8727 N   0  0  0  0  0  0  0  0  0  0  0  0
   23.6355   16.6985   27.7420 C   0  0  0  0  0  0  0  0  0  0  0  0
   22.9425   17.8894   27.7466 C   0  0  0  0  0  0  0  0  0  0  0  0
   22.1974   17.9464   28.8420 N   0  0  0  0  0  0  0  0  0  0  0  0
   23.1087   18.7542   26.7073 N   0  0  0  0  0  0  0  0  0  0  0  0
   23.9349   18.4219   25.7172 C   0  0  0  0  0  0  0  0  0  0  0  0
   24.0690   19.2454   24.7663 O   0  0  0  0  0  0  0  0  0  0  0  0
   24.6145   17.2643   25.7029 N   0  0  0  0  0  0  0  0  0  0  0  0
   24.4913   16.3574   26.7135 C   0  0  0  0  0  0  0  0  0  0  0  0
   25.1296   15.2756   26.6893 O   0  0  0  0  0  0  0  0  0  0  0  0
   22.3990   20.0164   26.6750 C   0  0  0  0  0  0  0  0  0  0  0  0
   25.2576   17.0174   24.9207 H   0  0  0  0  0  0  0  0  0  0  0  0
   22.3602   11.6315   30.4096 C   0  0  0  0  0  0  0  0  0  0  0  0
   22.4889   11.1732   31.8316 C   0  0  0  0  0  0  0  0  0  0  0  0
   21.2342   10.7688   32.3821 N   0  0  0  0  0  0  0  0  0  0  0  0
   20.7801    9.5107   32.4575 C   0  0  0  0  0  0  0  0  0  0  0  0
   19.5504    9.5472   33.0375 C   0  0  0  0  0  0  0  0  0  0  0  0
   19.2858   10.8243   33.3002 N   0  0  0  0  0  0  0  0  0  0  0  0
   20.3033   11.6096   32.9098 C   0  0  0  0  0  0  0  0  0  0  0  0
   20.4878   13.4960   33.0290 Br  0  0  0  0  0  0  0  0  0  0  0  0
   18.8655    8.4079   33.2369 N   0  0  0  0  0  0  0  0  0  0  0  0
   19.4078    7.2521   32.8608 C   0  0  0  0  0  0  0  0  0  0  0  0
   18.7549    6.1922   33.0541 O   0  0  0  0  0  0  0  0  0  0  0  0
   20.6065    7.1949   32.2938 N   0  0  0  0  0  0  0  0  0  0  0  0
   21.3236    8.3003   32.0751 C   0  0  0  0  0  0  0  0  0  0  0  0
   22.4688    8.2026   31.5290 O   0  0  0  0  0  0  0  0  0  0  0  0
   17.5551    8.4269   33.8525 C   0  0  0  0  0  0  0  0  0  0  0  0
   21.0145    6.2792   32.0058 H   0  0  0  0  0  0  0  0  0  0  0  0
  4  5  1  0  0  0
  5  6  1  0  0  0
  5  9  2  0  0  0
  6  7  1  0  0  0
  6  3  1  0  0  0
  7  8  2  0  0  0
  7 14  1  0  0  0
  8  9  1  0  0  0
  8 10  1  0  0  0
 10 11  1  0  0  0
 10 16  1  0  0  0
 11 12  2  0  0  0
 11 13  1  0  0  0
 13 14  1  0  0  0
 14 15  2  0  0  0
  3  2  1  0  0  0
  2  1  1  0  0  0
  1 18  1  0  0  0
 18 19  1  0  0  0
 19 20  1  0  0  0
 20 21  1  0  0  0
 20 24  1  0  0  0
 21 22  2  0  0  0
 21 30  1  0  0  0
 22 23  1  0  0  0
 22 26  1  0  0  0
 23 24  2  0  0  0
 24 25  1  0  0  0
 26 27  1  0  0  0
 26 32  1  0  0  0
 27 28  2  0  0  0
 27 29  1  0  0  0
 29 30  1  0  0  0
 30 31  2  0  0  0
 13 17  1  0  0  0
 29 33  1  0  0  0
M  END
> <minimizedAffinity>
-9.25019

$$$$
1444


 33 36  0  0  0  0  0  0  0  0999 V2000
   24.4600   11.0132   30.8777 N   0  0  0  0  0  0  0  0  0  0  0  0
   23.8060    9.8499   31.1316 C   0  0  0  0  0  0  0  0  0  0  0  0
   24.5281    9.1646   32.0800 O   0  0  0  0  0  0  0  0  0  0  0  0
   25.3880   11.1183   31.5035 H   0  0  0  0  0  0  0  0  0  0  0  0
   23.9327   13.3475   30.2881 N   0  0  0  0  0  0  0  0  0  0  0  0
   24.0535   14.0956   29.1987 N   0  0  0  0  0  0  0  0  0  0  0  0
   24.5493   13.4005   28.1893 C   0  0  0  0  0  0  0  0  0  0  0  0
   24.7615   12.1030   28.6785 C   0  0  0  0  0  0  0  0  0  0  0  0
   24.3689   12.0849   29.9977 C   0  0  0  0  0  0  0  0  0  0  0  0
   23.4325   13.7641   31.5515 C   0  0  0  0  0  0  0  0  0  0  0  0
   22.2384   16.4473   30.6622 Cl  0  0  0  0  0  0  0  0  0  0  0  0
   21.3206   15.0737   31.2351 C   0  0  0  0  0  0  0  0  0  0  0  0
   21.9683   13.9313   31.6026 C   0  0  0  0  0  0  0  0  0  0  0  0
   21.1962   12.8808   32.0462 C   0  0  0  0  0  0  0  0  0  0  0  0
   19.8294   12.9585   32.1237 C   0  0  0  0  0  0  0  0  0  0  0  0
   19.1850   14.1184   31.7493 C   0  0  0  0  0  0  0  0  0  0  0  0
   19.9503   15.1725   31.3048 C   0  0  0  0  0  0  0  0  0  0  0  0
   22.6255    9.0863   30.7615 C   0  0  0  0  0  0  0  0  0  0  0  0
   21.6749    8.5491   31.6369 N   0  0  0  0  0  0  0  0  0  0  0  0
   21.0417    9.3406   32.7253 C   0  0  0  0  0  0  0  0  0  0  0  0
   20.3844    8.3058   33.6144 C   0  0  0  0  0  0  0  0  0  0  0  0
   19.2955    7.6205   32.8319 C   0  0  0  0  0  0  0  0  0  0  0  0
   19.9180    6.7731   31.7426 C   0  0  0  0  0  0  0  0  0  0  0  0
   21.3482    7.1544   31.5571 C   0  0  0  0  0  0  0  0  0  0  0  0
   22.2838    6.2114   31.4246 C   0  0  0  0  0  0  0  0  0  0  0  0
   21.9348    4.8197   31.3343 N   0  0  0  0  0  0  0  0  0  0  0  0
   23.1094    4.0485   31.2671 N   0  0  0  0  0  0  0  0  0  0  0  0
   24.2112    4.9270   31.3125 C   0  0  0  0  0  0  0  0  0  0  0  0
   25.4362    4.6710   31.2787 O   0  0  0  0  0  0  0  0  0  0  0  0
   23.6742    6.2584   31.4111 N   0  0  0  0  0  0  0  0  0  0  0  0
   21.0133    4.3420   31.3092 H   0  0  0  0  0  0  0  0  0  0  0  0
   23.1914    3.0040   31.1943 H   0  0  0  0  0  0  0  0  0  0  0  0
   24.2543    7.1102   31.4857 H   0  0  0  0  0  0  0  0  0  0  0  0
 11 12  1  0  0  0
 12 13  2  0  0  0
 12 17  1  0  0  0
 13 14  1  0  0  0
 13 10  1  0  0  0
 14 15  2  0  0  0
 15 16  1  0  0  0
 16 17  2  0  0  0
 10  5  1  0  0  0
  5  6  1  0  0  0
  5  9  1  0  0  0
  6  7  2  0  0  0
  7  8  1  0  0  0
  8  9  2  0  0  0
  9  1  1  0  0  0
  1  2  1  0  0  0
  2  3  2  0  0  0
  2 18  1  0  0  0
 18 19  1  0  0  0
 19 20  1  0  0  0
 19 24  1  0  0  0
 20 21  1  0  0  0
 21 22  1  0  0  0
 22 23  1  0  0  0
 23 24  1  0  0  0
 24 25  2  0  0  0
 25 26  1  0  0  0
 25 30  1  0  0  0
 26 27  1  0  0  0
 27 28  1  0  0  0
 28 29  2  0  0  0
 28 30  1  0  0  0
  1  4  1  0  0  0
 26 31  1  0  0  0
 27 32  1  0  0  0
 30 33  1  0  0  0
M  END
> <minimizedAffinity>
-8.79244

$$$$
1447


 38 41  0  0  0  0  0  0  0  0999 V2000
   21.5017   10.8758   32.1052 C   0  0  0  0  0  0  0  0  0  0  0  0
   20.6130   10.9896   33.1449 N   0  0  0  0  0  0  0  0  0  0  0  0
   20.0758   12.1779   33.1274 N   0  0  0  0  0  0  0  0  0  0  0  0
   20.5421   12.9040   32.1260 N   0  0  0  0  0  0  0  0  0  0  0  0
   21.4258   12.1250   31.4797 C   0  0  0  0  0  0  0  0  0  0  0  0
   20.1163   14.2242   31.8385 C   0  0  0  0  0  0  0  0  0  0  0  0
   18.9147   14.6627   31.4065 N   0  0  0  0  0  0  0  0  0  0  0  0
   18.9387   15.9626   31.2761 O   0  0  0  0  0  0  0  0  0  0  0  0
   20.1155   16.4322   31.6034 N   0  0  0  0  0  0  0  0  0  0  0  0
   20.8723   15.3804   31.9583 C   0  0  0  0  0  0  0  0  0  0  0  0
   22.2161   15.4752   32.3800 N   0  0  0  0  0  0  0  0  0  0  0  0
   22.4218   15.8936   33.3053 H   0  0  0  0  0  0  0  0  0  0  0  0
   23.0080   15.1426   31.8008 H   0  0  0  0  0  0  0  0  0  0  0  0
   22.3047    8.9193   30.6579 N   0  0  0  0  0  0  0  0  0  0  0  0
   22.2944    9.6981   31.8071 C   0  0  0  0  0  0  0  0  0  0  0  0
   23.0930    9.3399   32.7526 O   0  0  0  0  0  0  0  0  0  0  0  0
   21.7262    9.0527   29.7947 H   0  0  0  0  0  0  0  0  0  0  0  0
   22.7468    6.6256   30.9014 C   0  0  0  0  0  0  0  0  0  0  0  0
   23.2018    7.7977   30.6345 N   0  0  0  0  0  0  0  0  0  0  0  0
   26.4183    3.6969   28.4340 Br  0  0  0  0  0  0  0  0  0  0  0  0
   25.2321    4.0071   29.8782 C   0  0  0  0  0  0  0  0  0  0  0  0
   25.1541    3.1093   30.9024 C   0  0  0  0  0  0  0  0  0  0  0  0
   24.2720    3.3643   31.9492 C   0  0  0  0  0  0  0  0  0  0  0  0
   23.4955    4.5186   31.9285 C   0  0  0  0  0  0  0  0  0  0  0  0
   23.5677    5.4245   30.9043 C   0  0  0  0  0  0  0  0  0  0  0  0
   24.4442    5.1592   29.8758 C   0  0  0  0  0  0  0  0  0  0  0  0
   24.5092    6.0834   28.8445 O   0  0  0  0  0  0  0  0  0  0  0  0
   24.1401    2.1372   33.3880 Br  0  0  0  0  0  0  0  0  0  0  0  0
   25.9194    1.9529   30.9425 O   0  0  0  0  0  0  0  0  0  0  0  0
   25.1380    5.9338   28.0653 H   0  0  0  0  0  0  0  0  0  0  0  0
   25.8426    1.3054   31.7097 H   0  0  0  0  0  0  0  0  0  0  0  0
   22.1874   12.4694   30.2754 C   0  0  0  0  0  0  0  0  0  0  0  0
   23.4191   13.2199   30.5342 N   0  0  0  0  0  0  0  0  0  0  0  0
   24.2511   13.1879   29.3153 C   0  0  0  0  0  0  0  0  0  0  0  0
   24.3204   11.7973   28.7880 C   0  0  0  0  0  0  0  0  0  0  0  0
   24.7483   10.9484   29.7790 O   0  0  0  0  0  0  0  0  0  0  0  0
   25.1946   11.5786   30.9108 C   0  0  0  0  0  0  0  0  0  0  0  0
   24.1913   12.4903   31.5678 C   0  0  0  0  0  0  0  0  0  0  0  0
 20 21  1  0  0  0
 21 22  2  0  0  0
 21 26  1  0  0  0
 22 23  1  0  0  0
 22 29  1  0  0  0
 23 24  2  0  0  0
 23 28  1  0  0  0
 24 25  1  0  0  0
 25 26  2  0  0  0
 25 18  1  0  0  0
 26 27  1  0  0  0
 18 19  2  0  0  0
 19 14  1  0  0  0
 14 15  1  0  0  0
 15 16  2  0  0  0
 15  1  1  0  0  0
  1  2  1  0  0  0
  1  5  2  0  0  0
  2  3  2  0  0  0
  3  4  1  0  0  0
  4  5  1  0  0  0
  4  6  1  0  0  0
  5 32  1  0  0  0
 32 33  1  0  0  0
 33 34  1  0  0  0
 33 38  1  0  0  0
 34 35  1  0  0  0
 35 36  1  0  0  0
 36 37  1  0  0  0
 37 38  1  0  0  0
  6  7  2  0  0  0
  6 10  1  0  0  0
  7  8  1  0  0  0
  8  9  1  0  0  0
  9 10  2  0  0  0
 10 11  1  0  0  0
 27 30  1  0  0  0
 14 17  1  0  0  0
 11 12  1  0  0  0
 11 13  1  0  0  0
 29 31  1  0  0  0
M  END
> <minimizedAffinity>
-9.22757

$$$$
1466


 29 32  0  0  0  0  0  0  0  0999 V2000
   25.8510    9.6608   29.5969 N   0  0  0  0  0  0  0  0  0  0  0  0
   26.0645    8.4676   29.0680 N   0  0  0  0  0  0  0  0  0  0  0  0
   25.1131    7.6200   29.4350 N   0  0  0  0  0  0  0  0  0  0  0  0
   24.2370    8.2542   30.2299 C   0  0  0  0  0  0  0  0  0  0  0  0
   24.7103    9.5417   30.3271 C   0  0  0  0  0  0  0  0  0  0  0  0
   23.0468    7.7054   30.8546 C   0  0  0  0  0  0  0  0  0  0  0  0
   21.9926    8.3882   31.3359 N   0  0  0  0  0  0  0  0  0  0  0  0
   21.0941    7.5243   31.8356 C   0  0  0  0  0  0  0  0  0  0  0  0
   21.6203    6.3034   31.6492 N   0  0  0  0  0  0  0  0  0  0  0  0
   22.7722    6.4455   31.0685 O   0  0  0  0  0  0  0  0  0  0  0  0
   19.7944    7.8498   32.4617 C   0  0  0  0  0  0  0  0  0  0  0  0
   19.6686    8.9880   33.2241 C   0  0  0  0  0  0  0  0  0  0  0  0
   18.4897    9.2948   33.7986 N   0  0  0  0  0  0  0  0  0  0  0  0
   17.3876    8.5288   33.6681 C   0  0  0  0  0  0  0  0  0  0  0  0
   17.5241    7.3886   32.9002 C   0  0  0  0  0  0  0  0  0  0  0  0
   18.7046    7.0394   32.2979 C   0  0  0  0  0  0  0  0  0  0  0  0
   26.6576   10.8776   29.4473 C   0  0  0  0  0  0  0  0  0  0  0  0
   25.7412   11.9146   28.8377 C   0  0  0  0  0  0  0  0  0  0  0  0
   23.8704   13.4103   29.4207 C   0  0  0  0  0  0  0  0  0  0  0  0
   23.8730   13.8221   28.2136 O   0  0  0  0  0  0  0  0  0  0  0  0
   24.8054   12.4225   29.8291 N   0  0  0  0  0  0  0  0  0  0  0  0
   24.8149   12.0768   30.8091 H   0  0  0  0  0  0  0  0  0  0  0  0
   19.9280   12.8301   33.0202 Br  0  0  0  0  0  0  0  0  0  0  0  0
   21.1292   13.8483   31.9396 C   0  0  0  0  0  0  0  0  0  0  0  0
   21.0770   15.2223   32.0125 C   0  0  0  0  0  0  0  0  0  0  0  0
   21.9145   15.9719   31.2584 N   0  0  0  0  0  0  0  0  0  0  0  0
   22.7866   15.3431   30.4487 C   0  0  0  0  0  0  0  0  0  0  0  0
   22.8899   13.9868   30.3288 C   0  0  0  0  0  0  0  0  0  0  0  0
   22.0392   13.2132   31.0941 C   0  0  0  0  0  0  0  0  0  0  0  0
 23 24  1  0  0  0
 24 25  2  0  0  0
 24 29  1  0  0  0
 25 26  1  0  0  0
 26 27  2  0  0  0
 27 28  1  0  0  0
 28 29  2  0  0  0
 28 19  1  0  0  0
 19 20  2  0  0  0
 19 21  1  0  0  0
 21 18  1  0  0  0
 18 17  1  0  0  0
 17  1  1  0  0  0
  1  2  1  0  0  0
  1  5  1  0  0  0
  2  3  2  0  0  0
  3  4  1  0  0  0
  4  5  2  0  0  0
  4  6  1  0  0  0
  6  7  2  0  0  0
  6 10  1  0  0  0
  7  8  1  0  0  0
  8  9  2  0  0  0
  8 11  1  0  0  0
  9 10  1  0  0  0
 11 12  2  0  0  0
 11 16  1  0  0  0
 12 13  1  0  0  0
 13 14  2  0  0  0
 14 15  1  0  0  0
 15 16  2  0  0  0
 21 22  1  0  0  0
M  END
> <minimizedAffinity>
-9.01291

$$$$
1471


 31 34  0  0  0  0  0  0  0  0999 V2000
   23.5565   12.8621   30.8260 C   0  0  0  0  0  0  0  0  0  0  0  0
   24.0361   13.6405   29.8089 C   0  0  0  0  0  0  0  0  0  0  0  0
   23.3877   14.7359   29.3067 N   0  0  0  0  0  0  0  0  0  0  0  0
   22.2175   15.0538   29.8506 C   0  0  0  0  0  0  0  0  0  0  0  0
   21.6561   14.3355   30.8734 C   0  0  0  0  0  0  0  0  0  0  0  0
   22.3574   13.1771   31.3945 C   0  0  0  0  0  0  0  0  0  0  0  0
   21.5798   12.6815   32.3752 N   0  0  0  0  0  0  0  0  0  0  0  0
   20.4874   13.4160   32.5005 N   0  0  0  0  0  0  0  0  0  0  0  0
   20.4921   14.4221   31.6165 C   0  0  0  0  0  0  0  0  0  0  0  0
   19.6283   15.3322   31.4285 O   0  0  0  0  0  0  0  0  0  0  0  0
   19.6892   13.2801   33.1819 H   0  0  0  0  0  0  0  0  0  0  0  0
   22.7324    8.4539   30.8064 N   0  0  0  0  0  0  0  0  0  0  0  0
   24.1213    8.1115   30.9655 C   0  0  0  0  0  0  0  0  0  0  0  0
   25.0231    9.3152   31.0763 C   0  0  0  0  0  0  0  0  0  0  0  0
   24.2877   10.4691   30.6335 N   0  0  0  0  0  0  0  0  0  0  0  0
   23.4893   10.3342   29.4423 C   0  0  0  0  0  0  0  0  0  0  0  0
   22.2873    9.4636   29.8346 C   0  0  0  0  0  0  0  0  0  0  0  0
   24.3114   11.7135   31.3006 C   0  0  0  0  0  0  0  0  0  0  0  0
   24.9979   11.8827   32.3509 O   0  0  0  0  0  0  0  0  0  0  0  0
   22.5527    5.4620   30.5287 Cl  0  0  0  0  0  0  0  0  0  0  0  0
   21.5287    6.4722   31.5541 C   0  0  0  0  0  0  0  0  0  0  0  0
   21.7296    7.8350   31.5774 C   0  0  0  0  0  0  0  0  0  0  0  0
   20.9220    8.5936   32.3803 C   0  0  0  0  0  0  0  0  0  0  0  0
   19.9167    8.0472   33.1634 C   0  0  0  0  0  0  0  0  0  0  0  0
   19.7444    6.6598   33.1111 C   0  0  0  0  0  0  0  0  0  0  0  0
   20.5426    5.8785   32.3130 C   0  0  0  0  0  0  0  0  0  0  0  0
   23.9724   15.4715   28.1961 C   0  0  0  0  0  0  0  0  0  0  0  0
   23.3563   16.7610   27.8813 C   0  0  0  0  0  0  0  0  0  0  0  0
   23.4847   17.4460   26.5937 C   0  0  0  0  0  0  0  0  0  0  0  0
   24.3844   17.0692   25.6706 O   0  0  0  0  0  0  0  0  0  0  0  0
   24.9628   17.9106   24.8112 C   0  0  0  0  0  0  0  0  0  0  0  0
 20 21  1  0  0  0
 21 22  2  0  0  0
 21 26  1  0  0  0
 22 23  1  0  0  0
 22 12  1  0  0  0
 23 24  2  0  0  0
 24 25  1  0  0  0
 25 26  2  0  0  0
 12 13  1  0  0  0
 12 17  1  0  0  0
 13 14  1  0  0  0
 14 15  1  0  0  0
 15 16  1  0  0  0
 15 18  1  0  0  0
 16 17  1  0  0  0
 18 19  2  0  0  0
 18  1  1  0  0  0
  1  2  2  0  0  0
  1  6  1  0  0  0
  2  3  1  0  0  0
  3  4  1  0  0  0
  3 27  1  0  0  0
  4  5  2  0  0  0
  5  6  1  0  0  0
  5  9  1  0  0  0
  6  7  2  0  0  0
  7  8  1  0  0  0
  8  9  1  0  0  0
  9 10  2  0  0  0
 27 28  1  0  0  0
 28 29  1  0  0  0
 29 30  1  0  0  0
 30 31  1  0  0  0
  8 11  1  0  0  0
M  END
> <minimizedAffinity>
-8.94184

$$$$
1477


 35 39  0  0  0  0  0  0  0  0999 V2000
   25.8052    3.5136   30.0147 C   0  0  0  0  0  0  0  0  0  0  0  0
   26.2535    3.3785   28.6989 N   0  0  0  0  0  0  0  0  0  0  0  0
   25.9579    4.6344   28.0159 C   0  0  0  0  0  0  0  0  0  0  0  0
   26.3170    4.9845   26.8635 O   0  0  0  0  0  0  0  0  0  0  0  0
   25.1479    5.4811   28.8780 C   0  0  0  0  0  0  0  0  0  0  0  0
   24.7151    6.6496   28.6019 O   0  0  0  0  0  0  0  0  0  0  0  0
   24.9443    4.7380   30.0929 C   0  0  0  0  0  0  0  0  0  0  0  0
   24.1772    5.1098   31.0968 C   0  0  0  0  0  0  0  0  0  0  0  0
   24.1900    4.2444   32.2160 O   0  0  0  0  0  0  0  0  0  0  0  0
   23.3401    6.2939   31.1470 C   0  0  0  0  0  0  0  0  0  0  0  0
   23.6116    7.5930   31.3467 N   0  0  0  0  0  0  0  0  0  0  0  0
   22.5079    8.3556   31.3591 C   0  0  0  0  0  0  0  0  0  0  0  0
   21.4731    7.5098   31.1576 N   0  0  0  0  0  0  0  0  0  0  0  0
   21.9335    6.2634   31.0255 C   0  0  0  0  0  0  0  0  0  0  0  0
   21.1398    5.0488   30.7925 C   0  0  0  0  0  0  0  0  0  0  0  0
   22.5567    9.7255   31.5333 C   0  0  0  0  0  0  0  0  0  0  0  0
   23.7745   10.3276   31.7018 C   0  0  0  0  0  0  0  0  0  0  0  0
   24.9117    9.5427   31.6883 C   0  0  0  0  0  0  0  0  0  0  0  0
   24.8274    8.1814   31.5118 C   0  0  0  0  0  0  0  0  0  0  0  0
   27.0470    0.7940   34.4207 Br  0  0  0  0  0  0  0  0  0  0  0  0
   27.3229    2.1925   33.1680 C   0  0  0  0  0  0  0  0  0  0  0  0
   26.4717    2.3557   32.0973 C   0  0  0  0  0  0  0  0  0  0  0  0
   26.6735    3.3849   31.1681 C   0  0  0  0  0  0  0  0  0  0  0  0
   27.7635    4.1895   31.4177 C   0  0  0  0  0  0  0  0  0  0  0  0
   28.6297    4.0644   32.4645 C   0  0  0  0  0  0  0  0  0  0  0  0
   28.3989    3.0360   33.3602 C   0  0  0  0  0  0  0  0  0  0  0  0
   26.7973    2.2461   28.0429 C   0  0  0  0  0  0  0  0  0  0  0  0
   25.9567    1.1256   27.6276 C   0  0  0  0  0  0  0  0  0  0  0  0
   25.6711    0.0489   28.5297 N   0  0  0  0  0  0  0  0  0  0  0  0
   25.2344   -1.0808   27.7090 C   0  0  0  0  0  0  0  0  0  0  0  0
   26.3685   -1.9472   27.2641 C   0  0  0  0  0  0  0  0  0  0  0  0
   27.6024   -1.3224   27.5018 O   0  0  0  0  0  0  0  0  0  0  0  0
   27.7099   -1.2341   28.8716 C   0  0  0  0  0  0  0  0  0  0  0  0
   26.7399   -0.2545   29.4202 C   0  0  0  0  0  0  0  0  0  0  0  0
   24.8098    0.2498   29.1199 H   0  0  0  0  0  0  0  0  0  0  0  0
 20 21  1  0  0  0
 21 22  2  0  0  0
 21 26  1  0  0  0
 22 23  1  0  0  0
 23 24  2  0  0  0
 23  1  1  0  0  0
 24 25  1  0  0  0
 25 26  2  0  0  0
  1  2  1  0  0  0
  1  7  1  0  0  0
  2  3  1  0  0  0
  2 27  1  0  0  0
  3  4  2  0  0  0
  3  5  1  0  0  0
  5  6  2  0  0  0
  5  7  1  0  0  0
  7  8  2  0  0  0
  8  9  1  0  0  0
  8 10  1  0  0  0
 10 11  1  0  0  0
 10 14  2  0  0  0
 11 12  1  0  0  0
 11 19  1  0  0  0
 12 13  2  0  0  0
 12 16  1  0  0  0
 13 14  1  0  0  0
 14 15  1  0  0  0
 16 17  2  0  0  0
 17 18  1  0  0  0
 18 19  2  0  0  0
 27 28  1  0  0  0
 28 29  1  0  0  0
 29 30  1  0  0  0
 29 34  1  0  0  0
 30 31  1  0  0  0
 31 32  1  0  0  0
 32 33  1  0  0  0
 33 34  1  0  0  0
 29 35  1  0  0  0
M  CHG 1   9  -1
M  CHG 1  29   1
M  END
> <minimizedAffinity>
-7.02398

$$$$
1486


 31 34  0  0  0  0  0  0  0  0999 V2000
   21.3744    6.8990   31.7653 N   0  0  0  0  0  0  0  0  0  0  0  0
   22.2296    7.8728   31.5512 N   0  0  0  0  0  0  0  0  0  0  0  0
   21.8712    8.9730   32.2295 C   0  0  0  0  0  0  0  0  0  0  0  0
   20.7457    8.6725   32.8938 N   0  0  0  0  0  0  0  0  0  0  0  0
   20.4417    7.3746   32.5973 C   0  0  0  0  0  0  0  0  0  0  0  0
   19.2940    6.6229   33.1020 C   0  0  0  0  0  0  0  0  0  0  0  0
   17.9704    7.2649   32.7596 C   0  0  0  0  0  0  0  0  0  0  0  0
   17.7232    8.5179   33.5703 C   0  0  0  0  0  0  0  0  0  0  0  0
   18.5980    9.6641   33.1663 C   0  0  0  0  0  0  0  0  0  0  0  0
   19.9957    9.5604   33.7600 C   0  0  0  0  0  0  0  0  0  0  0  0
   21.4229    5.5770   31.2158 C   0  0  0  0  0  0  0  0  0  0  0  0
   22.7858    5.2272   30.7348 C   0  0  0  0  0  0  0  0  0  0  0  0
   23.1932    5.7866   29.6823 O   0  0  0  0  0  0  0  0  0  0  0  0
   26.4118    1.1966   33.6876 Br  0  0  0  0  0  0  0  0  0  0  0  0
   25.2751    2.4513   32.7727 C   0  0  0  0  0  0  0  0  0  0  0  0
   25.7579    3.1465   31.6773 C   0  0  0  0  0  0  0  0  0  0  0  0
   24.9411    4.0555   31.0116 C   0  0  0  0  0  0  0  0  0  0  0  0
   23.6469    4.2857   31.4171 C   0  0  0  0  0  0  0  0  0  0  0  0
   23.1993    3.5777   32.5101 C   0  0  0  0  0  0  0  0  0  0  0  0
   23.9834    2.6751   33.1858 C   0  0  0  0  0  0  0  0  0  0  0  0
   22.5538   10.2738   32.2636 C   0  0  0  0  0  0  0  0  0  0  0  0
   22.2896   11.0646   31.1009 N   0  0  0  0  0  0  0  0  0  0  0  0
   22.2934   10.6287   30.1672 H   0  0  0  0  0  0  0  0  0  0  0  0
   22.0143   12.4609   31.1586 C   0  0  0  0  0  0  0  0  0  0  0  0
   22.7236   13.3813   30.4208 C   0  0  0  0  0  0  0  0  0  0  0  0
   22.4461   14.7226   30.4809 C   0  0  0  0  0  0  0  0  0  0  0  0
   21.4459   15.1660   31.2879 C   0  0  0  0  0  0  0  0  0  0  0  0
   20.7341   14.2480   32.0283 C   0  0  0  0  0  0  0  0  0  0  0  0
   21.0039   12.8962   31.9752 C   0  0  0  0  0  0  0  0  0  0  0  0
   21.1459   16.5049   31.3689 O   0  0  0  0  0  0  0  0  0  0  0  0
   22.1238   17.4980   31.5545 C   0  0  0  0  0  0  0  0  0  0  0  0
 14 15  1  0  0  0
 15 16  2  0  0  0
 15 20  1  0  0  0
 16 17  1  0  0  0
 17 18  2  0  0  0
 18 19  1  0  0  0
 18 12  1  0  0  0
 19 20  2  0  0  0
 12 13  2  0  0  0
 12 11  1  0  0  0
 11  1  1  0  0  0
  1  2  1  0  0  0
  1  5  2  0  0  0
  2  3  2  0  0  0
  3  4  1  0  0  0
  3 21  1  0  0  0
  4  5  1  0  0  0
  4 10  1  0  0  0
  5  6  1  0  0  0
  6  7  1  0  0  0
  7  8  1  0  0  0
  8  9  1  0  0  0
  9 10  1  0  0  0
 21 22  1  0  0  0
 22 24  1  0  0  0
 24 25  2  0  0  0
 24 29  1  0  0  0
 25 26  1  0  0  0
 26 27  2  0  0  0
 27 28  1  0  0  0
 27 30  1  0  0  0
 28 29  2  0  0  0
 30 31  1  0  0  0
 22 23  1  0  0  0
M  END
> <minimizedAffinity>
-9.31174

$$$$
1487


 29 32  0  0  0  0  0  0  0  0999 V2000
   28.3768   13.3269   24.4233 N   0  0  0  0  0  0  0  0  0  0  0  0
   27.3465   13.1857   25.4214 C   0  0  0  0  0  0  0  0  0  0  0  0
   27.4268   14.2479   26.4355 C   0  0  0  0  0  0  0  0  0  0  0  0
   28.5729   15.0116   26.0308 N   0  0  0  0  0  0  0  0  0  0  0  0
   29.4545   15.8992   26.7519 C   0  0  0  0  0  0  0  0  0  0  0  0
   29.4940   17.3042   26.2427 C   0  0  0  0  0  0  0  0  0  0  0  0
   28.8142   17.5259   24.9369 C   0  0  0  0  0  0  0  0  0  0  0  0
   29.7189   16.9490   23.8246 C   0  0  0  0  0  0  0  0  0  0  0  0
   29.2645   15.5061   23.6961 C   0  0  0  0  0  0  0  0  0  0  0  0
   28.7933   14.7076   24.6263 C   0  0  0  0  0  0  0  0  0  0  0  0
   27.7534   13.6745   27.6960 O   0  0  0  0  0  0  0  0  0  0  0  0
   29.2106   12.7585   24.5248 H   0  0  0  0  0  0  0  0  0  0  0  0
   27.4796   12.7011   27.6252 H   0  0  0  0  0  0  0  0  0  0  0  0
   24.7106   14.3424   20.8944 Cl  0  0  0  0  0  0  0  0  0  0  0  0
   26.2474   13.6350   21.3697 C   0  0  0  0  0  0  0  0  0  0  0  0
   26.7258   13.7873   22.6685 C   0  0  0  0  0  0  0  0  0  0  0  0
   27.9325   13.2739   23.0755 C   0  0  0  0  0  0  0  0  0  0  0  0
   28.6621   12.5785   22.1038 C   0  0  0  0  0  0  0  0  0  0  0  0
   28.2027   12.4157   20.8016 C   0  0  0  0  0  0  0  0  0  0  0  0
   26.9947   12.9466   20.4357 C   0  0  0  0  0  0  0  0  0  0  0  0
   26.2389   15.0317   26.6730 C   0  0  0  0  0  0  0  0  0  0  0  0
   25.8864   16.1426   25.9066 C   0  0  0  0  0  0  0  0  0  0  0  0
   24.7296   16.8784   26.1240 C   0  0  0  0  0  0  0  0  0  0  0  0
   23.8761   16.4902   27.1568 C   0  0  0  0  0  0  0  0  0  0  0  0
   24.1847   15.4096   27.9316 C   0  0  0  0  0  0  0  0  0  0  0  0
   25.3641   14.6907   27.6800 C   0  0  0  0  0  0  0  0  0  0  0  0
   24.4356   17.9940   25.3074 N   0  0  0  0  0  0  0  0  0  0  0  0
   23.4019   18.6926   25.5479 O   0  0  0  0  0  0  0  0  0  0  0  0
   25.1952   18.3707   24.2638 O   0  0  0  0  0  0  0  0  0  0  0  0
 14 15  1  0  0  0
 15 16  2  0  0  0
 15 20  1  0  0  0
 16 17  1  0  0  0
 17 18  2  0  0  0
 17  1  1  0  0  0
 18 19  1  0  0  0
 19 20  2  0  0  0
  1  2  1  0  0  0
  1 10  1  0  0  0
  2  3  1  0  0  0
  3  4  1  0  0  0
  3 11  1  0  0  0
  3 21  1  0  0  0
  4  5  1  0  0  0
  4 10  1  0  0  0
  5  6  1  0  0  0
  6  7  1  0  0  0
  7  8  1  0  0  0
  8  9  1  0  0  0
  9 10  2  0  0  0
 21 22  2  0  0  0
 21 26  1  0  0  0
 22 23  1  0  0  0
 23 24  2  0  0  0
 23 27  1  0  0  0
 24 25  1  0  0  0
 25 26  2  0  0  0
 27 28  2  0  0  0
 27 29  1  0  0  0
  1 12  1  0  0  0
 11 13  1  0  0  0
M  CHG 1   1   1
M  CHG 1  29  -1
M  END
> <minimizedAffinity>
-6.28460

$$$$
1491


 34 38  0  0  0  0  0  0  0  0999 V2000
   25.1962   11.6212   28.5967 F   0  0  0  0  0  0  0  0  0  0  0  0
   24.4505   12.6137   29.1144 C   0  0  0  0  0  0  0  0  0  0  0  0
   24.4306   13.7718   28.3425 C   0  0  0  0  0  0  0  0  0  0  0  0
   23.7012   14.8681   28.7458 C   0  0  0  0  0  0  0  0  0  0  0  0
   22.9988   14.7795   29.9242 C   0  0  0  0  0  0  0  0  0  0  0  0
   23.0303   13.6126   30.6808 C   0  0  0  0  0  0  0  0  0  0  0  0
   23.7526   12.5167   30.2917 C   0  0  0  0  0  0  0  0  0  0  0  0
   22.2910   15.8644   30.2982 N   0  0  0  0  0  0  0  0  0  0  0  0
   22.2565   16.9947   29.5699 C   0  0  0  0  0  0  0  0  0  0  0  0
   22.9493   17.1153   28.3855 C   0  0  0  0  0  0  0  0  0  0  0  0
   23.6849   16.0323   27.9655 C   0  0  0  0  0  0  0  0  0  0  0  0
   24.3380   16.0749   26.8962 O   0  0  0  0  0  0  0  0  0  0  0  0
   23.7670   11.3681   31.0826 N   0  0  0  0  0  0  0  0  0  0  0  0
   24.8254   10.4314   30.8034 C   0  0  0  0  0  0  0  0  0  0  0  0
   24.8044    9.2903   31.8477 C   0  0  0  0  0  0  0  0  0  0  0  0
   23.5728    8.6304   31.6607 N   0  0  0  0  0  0  0  0  0  0  0  0
   22.4305    9.5275   32.0899 C   0  0  0  0  0  0  0  0  0  0  0  0
   22.5255   10.6675   31.1228 C   0  0  0  0  0  0  0  0  0  0  0  0
   23.2293    7.4260   31.1463 C   0  0  0  0  0  0  0  0  0  0  0  0
   21.9534    7.1303   31.2134 O   0  0  0  0  0  0  0  0  0  0  0  0
   23.9456   11.6983   32.0810 H   0  0  0  0  0  0  0  0  0  0  0  0
   24.0200    6.3962   30.5321 C   0  0  0  0  0  0  0  0  0  0  0  0
   24.8175    6.5852   29.4502 C   0  0  0  0  0  0  0  0  0  0  0  0
   25.6080    5.5719   28.9229 C   0  0  0  0  0  0  0  0  0  0  0  0
   25.5857    4.3327   29.5090 C   0  0  0  0  0  0  0  0  0  0  0  0
   24.7992    4.0882   30.5990 C   0  0  0  0  0  0  0  0  0  0  0  0
   24.0364    5.1023   31.0934 C   0  0  0  0  0  0  0  0  0  0  0  0
   26.6319    5.8659   27.5154 Cl  0  0  0  0  0  0  0  0  0  0  0  0
   22.9014   18.3626   27.5990 C   0  0  0  0  0  0  0  0  0  0  0  0
   23.9221   18.9062   27.1483 O   0  0  0  0  0  0  0  0  0  0  0  0
   21.6702   18.9309   27.3634 O   0  0  0  0  0  0  0  0  0  0  0  0
   21.5480   15.7515   31.5588 C   0  0  0  0  0  0  0  0  0  0  0  0
   20.6515   14.6188   31.8091 C   0  0  0  0  0  0  0  0  0  0  0  0
   19.9970   15.8555   31.3796 C   0  0  0  0  0  0  0  0  0  0  0  0
  1  2  1  0  0  0
  2  3  2  0  0  0
  2  7  1  0  0  0
  3  4  1  0  0  0
  4  5  2  0  0  0
  4 11  1  0  0  0
  5  6  1  0  0  0
  5  8  1  0  0  0
  6  7  2  0  0  0
  7 13  1  0  0  0
 13 14  1  0  0  0
 13 18  1  0  0  0
 14 15  1  0  0  0
 15 16  1  0  0  0
 16 17  1  0  0  0
 16 19  1  0  0  0
 17 18  1  0  0  0
 19 20  2  0  0  0
 19 22  1  0  0  0
 22 23  2  0  0  0
 22 27  1  0  0  0
 23 24  1  0  0  0
 24 25  2  0  0  0
 24 28  1  0  0  0
 25 26  1  0  0  0
 26 27  2  0  0  0
  8  9  1  0  0  0
  8 32  1  0  0  0
  9 10  2  0  0  0
 10 11  1  0  0  0
 10 29  1  0  0  0
 11 12  2  0  0  0
 29 30  2  0  0  0
 29 31  1  0  0  0
 32 33  1  0  0  0
 32 34  1  0  0  0
 33 34  1  0  0  0
 13 21  1  0  0  0
M  CHG 1  13   1
M  END
> <minimizedAffinity>
-10.22627

$$$$
1506


 32 35  0  0  0  0  0  0  0  0999 V2000
   25.8816    8.4867   30.2843 N   0  0  0  0  0  0  0  0  0  0  0  0
   24.9785    9.5490   29.9176 C   0  0  0  0  0  0  0  0  0  0  0  0
   23.9981    9.2885   29.2030 O   0  0  0  0  0  0  0  0  0  0  0  0
   26.6449    8.7670   30.8947 H   0  0  0  0  0  0  0  0  0  0  0  0
   25.1941   10.9422   30.3745 C   0  0  0  0  0  0  0  0  0  0  0  0
   24.5882   11.0816   31.7533 C   0  0  0  0  0  0  0  0  0  0  0  0
   23.0854   11.0497   31.5865 C   0  0  0  0  0  0  0  0  0  0  0  0
   22.7361   12.3089   30.9354 N   0  0  0  0  0  0  0  0  0  0  0  0
   23.6133   12.8783   29.9696 C   0  0  0  0  0  0  0  0  0  0  0  0
   24.6614   11.9670   29.4427 C   0  0  0  0  0  0  0  0  0  0  0  0
   21.5136   12.9166   31.3036 C   0  0  0  0  0  0  0  0  0  0  0  0
   21.0294   14.0156   30.6939 N   0  0  0  0  0  0  0  0  0  0  0  0
   19.8916   14.5957   31.0266 N   0  0  0  0  0  0  0  0  0  0  0  0
   19.2665   15.6656   30.5463 N   0  0  0  0  0  0  0  0  0  0  0  0
   18.1502   15.8732   31.1917 N   0  0  0  0  0  0  0  0  0  0  0  0
   18.0311   14.9345   32.1065 N   0  0  0  0  0  0  0  0  0  0  0  0
   19.1132   14.1335   32.0115 C   0  0  0  0  0  0  0  0  0  0  0  0
   19.5566   13.0055   32.6784 C   0  0  0  0  0  0  0  0  0  0  0  0
   20.7461   12.3972   32.3317 C   0  0  0  0  0  0  0  0  0  0  0  0
   25.5879    7.1957   29.8006 C   0  0  0  0  0  0  0  0  0  0  0  0
   24.7557    6.2473   30.5584 C   0  0  0  0  0  0  0  0  0  0  0  0
   22.2798    6.1334   31.1689 C   0  0  0  0  0  0  0  0  0  0  0  0
   22.0440    5.0078   30.6805 O   0  0  0  0  0  0  0  0  0  0  0  0
   23.5419    6.7061   31.1175 N   0  0  0  0  0  0  0  0  0  0  0  0
   23.5618    7.7047   31.6063 H   0  0  0  0  0  0  0  0  0  0  0  0
   17.5425    8.7738   33.7742 Cl  0  0  0  0  0  0  0  0  0  0  0  0
   18.9323    8.0189   33.0109 C   0  0  0  0  0  0  0  0  0  0  0  0
   18.9334    6.6526   32.7839 C   0  0  0  0  0  0  0  0  0  0  0  0
   20.0254    6.0703   32.1848 C   0  0  0  0  0  0  0  0  0  0  0  0
   21.1236    6.8098   31.8026 C   0  0  0  0  0  0  0  0  0  0  0  0
   21.1001    8.1593   32.0381 C   0  0  0  0  0  0  0  0  0  0  0  0
   20.0076    8.7838   32.6443 C   0  0  0  0  0  0  0  0  0  0  0  0
 26 27  1  0  0  0
 27 28  2  0  0  0
 27 32  1  0  0  0
 28 29  1  0  0  0
 29 30  2  0  0  0
 30 31  1  0  0  0
 30 22  1  0  0  0
 31 32  2  0  0  0
 22 23  2  0  0  0
 22 24  1  0  0  0
 24 21  1  0  0  0
 21 20  1  0  0  0
 20  1  1  0  0  0
  1  2  1  0  0  0
  2  3  2  0  0  0
  2  5  1  0  0  0
  5  6  1  0  0  0
  5 10  1  0  0  0
  6  7  1  0  0  0
  7  8  1  0  0  0
  8  9  1  0  0  0
  8 11  1  0  0  0
  9 10  1  0  0  0
 11 12  2  0  0  0
 11 19  1  0  0  0
 12 13  1  0  0  0
 13 14  1  0  0  0
 13 17  1  0  0  0
 14 15  2  0  0  0
 15 16  1  0  0  0
 16 17  2  0  0  0
 17 18  1  0  0  0
 18 19  2  0  0  0
 24 25  1  0  0  0
  1  4  1  0  0  0
M  END
> <minimizedAffinity>
-9.98144

$$$$
1507


 32 35  0  0  0  0  0  0  0  0999 V2000
   25.5446    7.0539   29.4958 C   0  0  0  0  0  0  0  0  0  0  0  0
   24.8421    6.4734   30.4472 C   0  0  0  0  0  0  0  0  0  0  0  0
   23.7430    7.0318   31.2998 C   0  0  0  0  0  0  0  0  0  0  0  0
   22.8210    5.9553   31.3345 N   0  0  0  0  0  0  0  0  0  0  0  0
   23.6674    4.7852   31.5514 C   0  0  0  0  0  0  0  0  0  0  0  0
   23.3549    3.7044   32.1151 O   0  0  0  0  0  0  0  0  0  0  0  0
   24.9674    5.1172   30.9799 C   0  0  0  0  0  0  0  0  0  0  0  0
   26.0383    4.4263   30.9171 O   0  0  0  0  0  0  0  0  0  0  0  0
   25.3429    8.3743   29.1343 O   0  0  0  0  0  0  0  0  0  0  0  0
   30.0182    3.9665   26.5670 Br  0  0  0  0  0  0  0  0  0  0  0  0
   28.6295    4.9371   27.4763 C   0  0  0  0  0  0  0  0  0  0  0  0
   27.3017    4.7545   27.1657 C   0  0  0  0  0  0  0  0  0  0  0  0
   26.2749    5.4165   27.7784 C   0  0  0  0  0  0  0  0  0  0  0  0
   26.5813    6.3276   28.7722 C   0  0  0  0  0  0  0  0  0  0  0  0
   27.9017    6.5287   29.1029 C   0  0  0  0  0  0  0  0  0  0  0  0
   28.9423    5.8443   28.4678 C   0  0  0  0  0  0  0  0  0  0  0  0
   23.3683    8.3689   30.9813 C   0  0  0  0  0  0  0  0  0  0  0  0
   23.8080    9.3968   31.7799 C   0  0  0  0  0  0  0  0  0  0  0  0
   23.5033   10.7129   31.5285 C   0  0  0  0  0  0  0  0  0  0  0  0
   22.7233   11.0572   30.4341 C   0  0  0  0  0  0  0  0  0  0  0  0
   22.2912   10.0105   29.6440 C   0  0  0  0  0  0  0  0  0  0  0  0
   22.6014    8.6941   29.9032 C   0  0  0  0  0  0  0  0  0  0  0  0
   22.3290   12.7255   30.1026 Cl  0  0  0  0  0  0  0  0  0  0  0  0
   21.3764    5.8509   31.2631 C   0  0  0  0  0  0  0  0  0  0  0  0
   20.5944    6.4151   32.3845 C   0  0  0  0  0  0  0  0  0  0  0  0
   19.8138    7.6060   32.0316 N   0  0  0  0  0  0  0  0  0  0  0  0
   20.3181    8.7477   32.7147 C   0  0  0  0  0  0  0  0  0  0  0  0
   19.4124    9.3867   33.7084 C   0  0  0  0  0  0  0  0  0  0  0  0
   18.0601    9.2309   33.4712 O   0  0  0  0  0  0  0  0  0  0  0  0
   17.8415    7.8348   33.5130 C   0  0  0  0  0  0  0  0  0  0  0  0
   18.4341    7.2914   32.2607 C   0  0  0  0  0  0  0  0  0  0  0  0
   19.9550    7.7112   30.9800 H   0  0  0  0  0  0  0  0  0  0  0  0
 10 11  1  0  0  0
 11 12  2  0  0  0
 11 16  1  0  0  0
 12 13  1  0  0  0
 13 14  2  0  0  0
 14 15  1  0  0  0
 14  1  1  0  0  0
 15 16  2  0  0  0
  1  2  2  0  0  0
  1  9  1  0  0  0
  2  3  1  0  0  0
  2  7  1  0  0  0
  3  4  1  0  0  0
  3 17  1  0  0  0
  4  5  1  0  0  0
  4 24  1  0  0  0
  5  6  2  0  0  0
  5  7  1  0  0  0
  7  8  2  0  0  0
 24 25  1  0  0  0
 25 26  1  0  0  0
 26 27  1  0  0  0
 26 31  1  0  0  0
 27 28  1  0  0  0
 28 29  1  0  0  0
 29 30  1  0  0  0
 30 31  1  0  0  0
 17 18  2  0  0  0
 17 22  1  0  0  0
 18 19  1  0  0  0
 19 20  2  0  0  0
 20 21  1  0  0  0
 20 23  1  0  0  0
 21 22  2  0  0  0
 26 32  1  0  0  0
M  CHG 1   9  -1
M  CHG 1  26   1
M  END
> <minimizedAffinity>
-8.49617

$$$$
1511


 34 37  0  0  0  0  0  0  0  0999 V2000
   24.1469    7.7828   30.3197 N   0  0  0  0  0  0  0  0  0  0  0  0
   23.2732    8.0355   31.3078 C   0  0  0  0  0  0  0  0  0  0  0  0
   23.3413    9.0689   32.0214 O   0  0  0  0  0  0  0  0  0  0  0  0
   22.3297    7.0271   31.4116 C   0  0  0  0  0  0  0  0  0  0  0  0
   22.6367    6.1459   30.4684 C   0  0  0  0  0  0  0  0  0  0  0  0
   21.7225    5.1688   30.5697 N   0  0  0  0  0  0  0  0  0  0  0  0
   20.8800    5.4463   31.5486 N   0  0  0  0  0  0  0  0  0  0  0  0
   21.2360    6.5858   32.0788 N   0  0  0  0  0  0  0  0  0  0  0  0
   23.7506    6.6019   29.7950 C   0  0  0  0  0  0  0  0  0  0  0  0
   24.3218    6.0040   28.8235 O   0  0  0  0  0  0  0  0  0  0  0  0
   21.6554    4.3109   29.9869 H   0  0  0  0  0  0  0  0  0  0  0  0
   20.0501    4.8638   31.8689 H   0  0  0  0  0  0  0  0  0  0  0  0
   28.9113   11.1816   28.3951 Br  0  0  0  0  0  0  0  0  0  0  0  0
   27.4385   10.1121   28.9906 C   0  0  0  0  0  0  0  0  0  0  0  0
   27.5098    8.7330   28.9975 C   0  0  0  0  0  0  0  0  0  0  0  0
   26.4366    7.9606   29.4319 C   0  0  0  0  0  0  0  0  0  0  0  0
   25.2637    8.5404   29.8688 C   0  0  0  0  0  0  0  0  0  0  0  0
   25.1982    9.9164   29.8593 C   0  0  0  0  0  0  0  0  0  0  0  0
   26.2614   10.6840   29.4301 C   0  0  0  0  0  0  0  0  0  0  0  0
   20.6085    7.2821   33.1765 C   0  0  0  0  0  0  0  0  0  0  0  0
   20.1780    8.6536   32.7111 C   0  0  0  0  0  0  0  0  0  0  0  0
   19.1970    8.7566   31.9416 O   0  0  0  0  0  0  0  0  0  0  0  0
   20.8741    9.7930   33.1404 N   0  0  0  0  0  0  0  0  0  0  0  0
   21.7033    9.6290   33.7991 H   0  0  0  0  0  0  0  0  0  0  0  0
   20.5755   11.1244   32.7888 C   0  0  0  0  0  0  0  0  0  0  0  0
   21.3510   11.9451   32.0094 C   0  0  0  0  0  0  0  0  0  0  0  0
   21.0100   13.2490   31.7154 C   0  0  0  0  0  0  0  0  0  0  0  0
   19.8311   13.7431   32.2329 C   0  0  0  0  0  0  0  0  0  0  0  0
   19.0188   12.9467   33.0239 C   0  0  0  0  0  0  0  0  0  0  0  0
   19.3778   11.6565   33.3037 C   0  0  0  0  0  0  0  0  0  0  0  0
   19.4678   15.0565   31.9478 O   0  0  0  0  0  0  0  0  0  0  0  0
   18.5032   15.3028   30.9440 C   0  0  0  0  0  0  0  0  0  0  0  0
   21.8180   14.0588   30.9205 O   0  0  0  0  0  0  0  0  0  0  0  0
   23.2034   13.7076   30.8099 C   0  0  0  0  0  0  0  0  0  0  0  0
 13 14  1  0  0  0
 14 15  2  0  0  0
 14 19  1  0  0  0
 15 16  1  0  0  0
 16 17  2  0  0  0
 17 18  1  0  0  0
 17  1  1  0  0  0
 18 19  2  0  0  0
  1  2  1  0  0  0
  1  9  1  0  0  0
  2  3  2  0  0  0
  2  4  1  0  0  0
  4  5  2  0  0  0
  4  8  1  0  0  0
  5  6  1  0  0  0
  5  9  1  0  0  0
  6  7  1  0  0  0
  7  8  1  0  0  0
  8 20  1  0  0  0
 20 21  1  0  0  0
 21 22  2  0  0  0
 21 23  1  0  0  0
 23 25  1  0  0  0
 25 26  2  0  0  0
 25 30  1  0  0  0
 26 27  1  0  0  0
 27 28  2  0  0  0
 27 33  1  0  0  0
 28 29  1  0  0  0
 28 31  1  0  0  0
 29 30  2  0  0  0
 31 32  1  0  0  0
 33 34  1  0  0  0
  9 10  2  0  0  0
  6 11  1  0  0  0
  7 12  1  0  0  0
 23 24  1  0  0  0
M  END
> <minimizedAffinity>
-8.77627

$$$$
1516


 30 33  0  0  0  0  0  0  0  0999 V2000
   24.2418    8.7878   29.8558 C   0  0  0  0  0  0  0  0  0  0  0  0
   25.5506    8.8530   29.9446 O   0  0  0  0  0  0  0  0  0  0  0  0
   23.5979    9.9954   30.0858 N   0  0  0  0  0  0  0  0  0  0  0  0
   22.1866   10.1858   30.0136 C   0  0  0  0  0  0  0  0  0  0  0  0
   21.9114   11.7071   30.0016 C   0  0  0  0  0  0  0  0  0  0  0  0
   22.2887   12.2196   31.3784 C   0  0  0  0  0  0  0  0  0  0  0  0
   21.4914   11.5834   32.3447 N   0  0  0  0  0  0  0  0  0  0  0  0
   20.2216   12.0773   32.6651 C   0  0  0  0  0  0  0  0  0  0  0  0
   20.0388   13.5483   32.6816 C   0  0  0  0  0  0  0  0  0  0  0  0
   21.1075   14.2890   31.9791 C   0  0  0  0  0  0  0  0  0  0  0  0
   21.2297   15.6216   31.8241 N   0  0  0  0  0  0  0  0  0  0  0  0
   22.3431   15.8574   31.1233 C   0  0  0  0  0  0  0  0  0  0  0  0
   22.9219   14.6691   30.8376 N   0  0  0  0  0  0  0  0  0  0  0  0
   22.1673   13.6851   31.3612 C   0  0  0  0  0  0  0  0  0  0  0  0
   23.7478   11.8084   31.6401 C   0  0  0  0  0  0  0  0  0  0  0  0
   24.3864   11.1901   30.4279 C   0  0  0  0  0  0  0  0  0  0  0  0
   21.7626   10.6701   32.6891 H   0  0  0  0  0  0  0  0  0  0  0  0
   23.7999   14.5457   30.3016 H   0  0  0  0  0  0  0  0  0  0  0  0
   23.7324    7.4569   29.5302 C   0  0  0  0  0  0  0  0  0  0  0  0
   22.3083    6.1283   31.4353 C   0  0  0  0  0  0  0  0  0  0  0  0
   22.5408    4.9826   31.9017 O   0  0  0  0  0  0  0  0  0  0  0  0
   23.0160    6.7894   30.4881 N   0  0  0  0  0  0  0  0  0  0  0  0
   23.8562    5.7105   30.3293 H   0  0  0  0  0  0  0  0  0  0  0  0
   17.4852    8.8282   33.7256 Cl  0  0  0  0  0  0  0  0  0  0  0  0
   18.9092    8.0418   33.0592 C   0  0  0  0  0  0  0  0  0  0  0  0
   18.7589    6.8314   32.4420 C   0  0  0  0  0  0  0  0  0  0  0  0
   19.8893    6.2053   31.9068 C   0  0  0  0  0  0  0  0  0  0  0  0
   21.1057    6.8121   32.0140 C   0  0  0  0  0  0  0  0  0  0  0  0
   21.2596    8.0105   32.6241 C   0  0  0  0  0  0  0  0  0  0  0  0
   20.1262    8.6492   33.1654 C   0  0  0  0  0  0  0  0  0  0  0  0
 24 25  1  0  0  0
 25 26  2  0  0  0
 25 30  1  0  0  0
 26 27  1  0  0  0
 27 28  2  0  0  0
 28 29  1  0  0  0
 28 20  1  0  0  0
 29 30  2  0  0  0
 20 21  2  0  0  0
 20 22  1  0  0  0
 22 19  1  0  0  0
 19  1  1  0  0  0
  1  2  2  0  0  0
  1  3  1  0  0  0
  3  4  1  0  0  0
  3 16  1  0  0  0
  4  5  1  0  0  0
  5  6  1  0  0  0
  6  7  1  0  0  0
  6 14  1  0  0  0
  6 15  1  0  0  0
  7  8  1  0  0  0
  8  9  1  0  0  0
  9 10  1  0  0  0
 10 11  1  0  0  0
 10 14  2  0  0  0
 11 12  2  0  0  0
 12 13  1  0  0  0
 13 14  1  0  0  0
 15 16  1  0  0  0
 22 23  1  0  0  0
  7 17  1  0  0  0
 13 18  1  0  0  0
M  END
> <minimizedAffinity>
-9.40249

$$$$
1518


 31 34  0  0  0  0  0  0  0  0999 V2000
   22.5669   14.6422   31.0236 C   0  0  0  0  0  0  0  0  0  0  0  0
   22.5289   15.6034   30.2172 O   0  0  0  0  0  0  0  0  0  0  0  0
   23.3740   13.5127   30.7521 N   0  0  0  0  0  0  0  0  0  0  0  0
   23.4596   12.3719   31.6414 C   0  0  0  0  0  0  0  0  0  0  0  0
   24.8677   11.8060   31.5326 C   0  0  0  0  0  0  0  0  0  0  0  0
   25.1223   11.2837   30.1190 C   0  0  0  0  0  0  0  0  0  0  0  0
   26.5059   11.5279   29.8312 N   0  0  0  0  0  0  0  0  0  0  0  0
   26.9962   10.6829   28.7634 C   0  0  0  0  0  0  0  0  0  0  0  0
   27.0966    9.2511   29.2849 C   0  0  0  0  0  0  0  0  0  0  0  0
   25.7158    8.8575   29.6886 C   0  0  0  0  0  0  0  0  0  0  0  0
   25.1038    7.6379   29.7642 N   0  0  0  0  0  0  0  0  0  0  0  0
   23.8431    7.8349   30.1883 C   0  0  0  0  0  0  0  0  0  0  0  0
   23.6706    9.1559   30.3742 N   0  0  0  0  0  0  0  0  0  0  0  0
   24.8199    9.8294   30.0725 C   0  0  0  0  0  0  0  0  0  0  0  0
   24.2682   12.0248   29.1124 C   0  0  0  0  0  0  0  0  0  0  0  0
   24.1650   13.4596   29.5382 C   0  0  0  0  0  0  0  0  0  0  0  0
   26.6833   12.5271   29.6084 H   0  0  0  0  0  0  0  0  0  0  0  0
   25.6041    6.7549   29.5165 H   0  0  0  0  0  0  0  0  0  0  0  0
   21.7476   14.7281   32.2532 C   0  0  0  0  0  0  0  0  0  0  0  0
   20.3249   14.3225   32.0315 C   0  0  0  0  0  0  0  0  0  0  0  0
   20.0332   12.0848   33.1344 C   0  0  0  0  0  0  0  0  0  0  0  0
   19.9257   12.6202   34.2668 O   0  0  0  0  0  0  0  0  0  0  0  0
   20.2303   12.8759   32.0022 N   0  0  0  0  0  0  0  0  0  0  0  0
   20.3196   12.4445   31.0512 H   0  0  0  0  0  0  0  0  0  0  0  0
   19.5692    6.1016   32.8877 Cl  0  0  0  0  0  0  0  0  0  0  0  0
   19.6657    7.8494   32.9713 C   0  0  0  0  0  0  0  0  0  0  0  0
   20.8727    8.4639   32.6689 C   0  0  0  0  0  0  0  0  0  0  0  0
   21.0183    9.8421   32.7144 C   0  0  0  0  0  0  0  0  0  0  0  0
   19.9444   10.6284   33.0684 C   0  0  0  0  0  0  0  0  0  0  0  0
   18.7443    9.9845   33.3670 C   0  0  0  0  0  0  0  0  0  0  0  0
   18.5831    8.6266   33.3261 C   0  0  0  0  0  0  0  0  0  0  0  0
 25 26  1  0  0  0
 26 27  2  0  0  0
 26 31  1  0  0  0
 27 28  1  0  0  0
 28 29  2  0  0  0
 29 30  1  0  0  0
 29 21  1  0  0  0
 30 31  2  0  0  0
 21 22  2  0  0  0
 21 23  1  0  0  0
 23 20  1  0  0  0
 20 19  1  0  0  0
 19  1  1  0  0  0
  1  2  2  0  0  0
  1  3  1  0  0  0
  3  4  1  0  0  0
  3 16  1  0  0  0
  4  5  1  0  0  0
  5  6  1  0  0  0
  6  7  1  0  0  0
  6 14  1  0  0  0
  6 15  1  0  0  0
  7  8  1  0  0  0
  8  9  1  0  0  0
  9 10  1  0  0  0
 10 11  1  0  0  0
 10 14  2  0  0  0
 11 12  1  0  0  0
 12 13  2  0  0  0
 13 14  1  0  0  0
 15 16  1  0  0  0
 23 24  1  0  0  0
  7 17  1  0  0  0
 11 18  1  0  0  0
M  END
> <minimizedAffinity>
-9.24762

$$$$
1521


 24 27  0  0  0  0  0  0  0  0999 V2000
   18.3568    6.9982   32.3902 Cl  0  0  0  0  0  0  0  0  0  0  0  0
   19.4285    8.3650   32.6149 C   0  0  0  0  0  0  0  0  0  0  0  0
   20.7509    8.2520   32.2604 C   0  0  0  0  0  0  0  0  0  0  0  0
   21.5067    7.2721   31.7372 N   0  0  0  0  0  0  0  0  0  0  0  0
   22.7831    7.6673   31.5716 C   0  0  0  0  0  0  0  0  0  0  0  0
   22.8263    8.9708   32.0190 C   0  0  0  0  0  0  0  0  0  0  0  0
   21.5735    9.3496   32.4505 C   0  0  0  0  0  0  0  0  0  0  0  0
   21.0445   10.5078   32.9826 C   0  0  0  0  0  0  0  0  0  0  0  0
   19.7274   10.6465   33.3445 C   0  0  0  0  0  0  0  0  0  0  0  0
   18.9049    9.5412   33.1526 C   0  0  0  0  0  0  0  0  0  0  0  0
   24.1500    9.6362   31.9340 C   0  0  0  0  0  0  0  0  0  0  0  0
   24.5850    9.4190   30.5728 N   0  0  0  0  0  0  0  0  0  0  0  0
   24.8722    8.0761   30.2488 C   0  0  0  0  0  0  0  0  0  0  0  0
   24.0580    7.1074   31.0759 C   0  0  0  0  0  0  0  0  0  0  0  0
   21.1844    6.2988   31.4727 H   0  0  0  0  0  0  0  0  0  0  0  0
   25.3909   10.4334   30.0400 C   0  0  0  0  0  0  0  0  0  0  0  0
   24.6637   11.3202   29.0758 C   0  0  0  0  0  0  0  0  0  0  0  0
   24.1682   12.5848   29.6874 C   0  0  0  0  0  0  0  0  0  0  0  0
   24.6714   13.7101   28.9776 N   0  0  0  0  0  0  0  0  0  0  0  0
   25.5425   13.2609   27.9408 C   0  0  0  0  0  0  0  0  0  0  0  0
   25.6334   11.7744   28.0181 C   0  0  0  0  0  0  0  0  0  0  0  0
   23.6468   10.6190   28.4155 O   0  0  0  0  0  0  0  0  0  0  0  0
   23.9273   14.3579   28.6255 H   0  0  0  0  0  0  0  0  0  0  0  0
   22.9861   11.3041   28.1302 H   0  0  0  0  0  0  0  0  0  0  0  0
  1  2  1  0  0  0
  2  3  2  0  0  0
  2 10  1  0  0  0
  3  4  1  0  0  0
  3  7  1  0  0  0
  4  5  1  0  0  0
  5  6  2  0  0  0
  5 14  1  0  0  0
  6  7  1  0  0  0
  6 11  1  0  0  0
  7  8  2  0  0  0
  8  9  1  0  0  0
  9 10  2  0  0  0
 11 12  1  0  0  0
 12 13  1  0  0  0
 12 16  1  0  0  0
 13 14  1  0  0  0
 16 17  1  0  0  0
 17 18  1  0  0  0
 17 21  1  0  0  0
 17 22  1  0  0  0
 18 19  1  0  0  0
 19 20  1  0  0  0
 20 21  1  0  0  0
  4 15  1  0  0  0
 19 23  1  0  0  0
 22 24  1  0  0  0
M  END
> <minimizedAffinity>
-8.40176

$$$$
1523


 25 28  0  0  0  0  0  0  0  0999 V2000
   26.5827   11.9881   27.2914 C   0  0  0  0  0  0  0  0  0  0  0  0
   26.9687   10.7677   27.2464 O   0  0  0  0  0  0  0  0  0  0  0  0
   27.2308   12.9651   26.5347 N   0  0  0  0  0  0  0  0  0  0  0  0
   28.3445   12.5996   25.7033 C   0  0  0  0  0  0  0  0  0  0  0  0
   27.9473   12.7908   24.2657 C   0  0  0  0  0  0  0  0  0  0  0  0
   27.2731   14.0491   24.1195 N   0  0  0  0  0  0  0  0  0  0  0  0
   27.4442   14.9957   25.2390 C   0  0  0  0  0  0  0  0  0  0  0  0
   26.8790   14.3676   26.5053 C   0  0  0  0  0  0  0  0  0  0  0  0
   26.4771   14.4749   23.0561 C   0  0  0  0  0  0  0  0  0  0  0  0
   26.0171   15.6837   23.1664 O   0  0  0  0  0  0  0  0  0  0  0  0
   23.8176   11.9753   29.6918 N   0  0  0  0  0  0  0  0  0  0  0  0
   23.7966   13.2251   29.2167 N   0  0  0  0  0  0  0  0  0  0  0  0
   24.7481   13.3945   28.3261 N   0  0  0  0  0  0  0  0  0  0  0  0
   25.4311   12.2494   28.1854 C   0  0  0  0  0  0  0  0  0  0  0  0
   24.8314   11.3674   29.0533 C   0  0  0  0  0  0  0  0  0  0  0  0
   19.8400   12.7760   33.1013 Br  0  0  0  0  0  0  0  0  0  0  0  0
   21.1418   11.6833   32.2380 C   0  0  0  0  0  0  0  0  0  0  0  0
   22.0037   12.2347   31.2787 C   0  0  0  0  0  0  0  0  0  0  0  0
   22.9381   11.4367   30.6641 C   0  0  0  0  0  0  0  0  0  0  0  0
   23.0055   10.1112   31.0044 C   0  0  0  0  0  0  0  0  0  0  0  0
   22.1496    9.5512   31.9612 C   0  0  0  0  0  0  0  0  0  0  0  0
   21.2189   10.3572   32.5708 C   0  0  0  0  0  0  0  0  0  0  0  0
   26.0770   13.7822   21.8371 C   0  0  0  0  0  0  0  0  0  0  0  0
   24.8050   13.9929   21.1458 C   0  0  0  0  0  0  0  0  0  0  0  0
   26.1226   14.3793   20.4799 C   0  0  0  0  0  0  0  0  0  0  0  0
 16 17  1  0  0  0
 17 18  2  0  0  0
 17 22  1  0  0  0
 18 19  1  0  0  0
 19 20  2  0  0  0
 19 11  1  0  0  0
 20 21  1  0  0  0
 21 22  2  0  0  0
 11 12  1  0  0  0
 11 15  1  0  0  0
 12 13  2  0  0  0
 13 14  1  0  0  0
 14 15  2  0  0  0
 14  1  1  0  0  0
  1  2  2  0  0  0
  1  3  1  0  0  0
  3  4  1  0  0  0
  3  8  1  0  0  0
  4  5  1  0  0  0
  5  6  1  0  0  0
  6  7  1  0  0  0
  6  9  1  0  0  0
  7  8  1  0  0  0
  9 10  2  0  0  0
  9 23  1  0  0  0
 23 24  1  0  0  0
 23 25  1  0  0  0
 24 25  1  0  0  0
M  END
> <minimizedAffinity>
-8.21120

$$$$
1525


 26 29  0  0  0  0  0  0  0  0999 V2000
   23.0015   10.1214   31.3811 N   0  0  0  0  0  0  0  0  0  0  0  0
   22.6496   11.1690   30.4858 C   0  0  0  0  0  0  0  0  0  0  0  0
   21.8855   11.0106   29.5032 O   0  0  0  0  0  0  0  0  0  0  0  0
   23.3358   12.3691   30.9491 C   0  0  0  0  0  0  0  0  0  0  0  0
   24.5853   11.8184   31.6038 C   0  0  0  0  0  0  0  0  0  0  0  0
   24.2327   10.4523   32.0351 C   0  0  0  0  0  0  0  0  0  0  0  0
   24.8730    9.7057   32.8217 O   0  0  0  0  0  0  0  0  0  0  0  0
   18.4792    7.7808   33.0277 Br  0  0  0  0  0  0  0  0  0  0  0  0
   20.2326    7.7742   32.2880 C   0  0  0  0  0  0  0  0  0  0  0  0
   20.9528    8.9532   32.1163 C   0  0  0  0  0  0  0  0  0  0  0  0
   22.2230    8.9406   31.5799 C   0  0  0  0  0  0  0  0  0  0  0  0
   22.7305    7.6954   31.2259 C   0  0  0  0  0  0  0  0  0  0  0  0
   22.0388    6.5260   31.3874 C   0  0  0  0  0  0  0  0  0  0  0  0
   20.7744    6.5608   31.9233 C   0  0  0  0  0  0  0  0  0  0  0  0
   22.6059   13.2288   31.7914 N   0  0  0  0  0  0  0  0  0  0  0  0
   21.2204   13.3472   31.5778 C   0  0  0  0  0  0  0  0  0  0  0  0
   20.9613   14.5971   30.7253 C   0  0  0  0  0  0  0  0  0  0  0  0
   22.1304   15.4614   30.7529 N   0  0  0  0  0  0  0  0  0  0  0  0
   22.9558   15.5995   31.9363 C   0  0  0  0  0  0  0  0  0  0  0  0
   23.2437   14.2350   32.5169 C   0  0  0  0  0  0  0  0  0  0  0  0
   22.5271   16.2025   29.5907 C   0  0  0  0  0  0  0  0  0  0  0  0
   23.3394   15.6563   28.6617 N   0  0  0  0  0  0  0  0  0  0  0  0
   23.6945   16.3520   27.5638 C   0  0  0  0  0  0  0  0  0  0  0  0
   23.2410   17.6480   27.3469 C   0  0  0  0  0  0  0  0  0  0  0  0
   22.4077   18.2012   28.3031 C   0  0  0  0  0  0  0  0  0  0  0  0
   22.0894   17.4563   29.3765 N   0  0  0  0  0  0  0  0  0  0  0  0
  8  9  1  0  0  0
  9 10  2  0  0  0
  9 14  1  0  0  0
 10 11  1  0  0  0
 11 12  2  0  0  0
 11  1  1  0  0  0
 12 13  1  0  0  0
 13 14  2  0  0  0
  1  2  1  0  0  0
  1  6  1  0  0  0
  2  3  2  0  0  0
  2  4  1  0  0  0
  4  5  1  0  0  0
  4 15  1  0  0  0
  5  6  1  0  0  0
  6  7  2  0  0  0
 15 16  1  0  0  0
 15 20  1  0  0  0
 16 17  1  0  0  0
 17 18  1  0  0  0
 18 19  1  0  0  0
 18 21  1  0  0  0
 19 20  1  0  0  0
 21 22  2  0  0  0
 21 26  1  0  0  0
 22 23  1  0  0  0
 23 24  2  0  0  0
 24 25  1  0  0  0
 25 26  2  0  0  0
M  END
> <minimizedAffinity>
-8.22607

$$$$
1531


 27 30  0  0  0  0  0  0  0  0999 V2000
   20.0941   10.2420   33.1555 N   0  0  0  0  0  0  0  0  0  0  0  0
   19.1632    9.2374   33.1179 C   0  0  0  0  0  0  0  0  0  0  0  0
   19.7237    8.2317   32.4417 N   0  0  0  0  0  0  0  0  0  0  0  0
   20.9700    8.5254   32.0349 C   0  0  0  0  0  0  0  0  0  0  0  0
   21.2018    9.8101   32.4929 C   0  0  0  0  0  0  0  0  0  0  0  0
   18.7991    7.1069   32.3476 C   0  0  0  0  0  0  0  0  0  0  0  0
   17.5237    7.5904   32.9735 C   0  0  0  0  0  0  0  0  0  0  0  0
   17.7872    8.9248   33.5741 C   0  0  0  0  0  0  0  0  0  0  0  0
   21.9152    7.7087   31.2748 C   0  0  0  0  0  0  0  0  0  0  0  0
   21.9567    6.3380   31.2958 C   0  0  0  0  0  0  0  0  0  0  0  0
   22.8939    5.6231   30.5363 C   0  0  0  0  0  0  0  0  0  0  0  0
   23.8169    6.2573   29.7348 C   0  0  0  0  0  0  0  0  0  0  0  0
   23.7839    7.6344   29.7076 C   0  0  0  0  0  0  0  0  0  0  0  0
   22.8604    8.3353   30.4551 C   0  0  0  0  0  0  0  0  0  0  0  0
   24.7501    5.5624   28.9781 O   0  0  0  0  0  0  0  0  0  0  0  0
   25.9728    6.1736   28.6072 C   0  0  0  0  0  0  0  0  0  0  0  0
   19.9501   11.4962   33.8130 C   0  0  0  0  0  0  0  0  0  0  0  0
   19.5765   12.6899   33.0913 C   0  0  0  0  0  0  0  0  0  0  0  0
   18.3086   13.0286   33.2225 O   0  0  0  0  0  0  0  0  0  0  0  0
   23.9068   13.3484   30.3824 Cl  0  0  0  0  0  0  0  0  0  0  0  0
   22.3713   13.9421   30.9555 C   0  0  0  0  0  0  0  0  0  0  0  0
   21.9733   15.2063   30.5851 C   0  0  0  0  0  0  0  0  0  0  0  0
   20.7616   15.6606   31.0449 C   0  0  0  0  0  0  0  0  0  0  0  0
   19.9774   14.8351   31.8642 C   0  0  0  0  0  0  0  0  0  0  0  0
   20.3340   13.5797   32.2531 C   0  0  0  0  0  0  0  0  0  0  0  0
   21.5924   13.1660   31.7491 C   0  0  0  0  0  0  0  0  0  0  0  0
   22.9544   16.2310   29.5633 Cl  0  0  0  0  0  0  0  0  0  0  0  0
 20 21  1  0  0  0
 21 22  2  0  0  0
 21 26  1  0  0  0
 22 23  1  0  0  0
 22 27  1  0  0  0
 23 24  2  0  0  0
 24 25  1  0  0  0
 25 26  2  0  0  0
 25 18  1  0  0  0
 18 19  2  0  0  0
 18 17  1  0  0  0
 17  1  1  0  0  0
  1  2  1  0  0  0
  1  5  1  0  0  0
  2  3  2  0  0  0
  2  8  1  0  0  0
  3  4  1  0  0  0
  3  6  1  0  0  0
  4  5  2  0  0  0
  4  9  1  0  0  0
  9 10  2  0  0  0
  9 14  1  0  0  0
 10 11  1  0  0  0
 11 12  2  0  0  0
 12 13  1  0  0  0
 12 15  1  0  0  0
 13 14  2  0  0  0
 15 16  1  0  0  0
  6  7  1  0  0  0
  7  8  1  0  0  0
M  END
> <minimizedAffinity>
-9.58368

$$$$
1533


 28 31  0  0  0  0  0  0  0  0999 V2000
   21.0369    8.4218   32.0704 C   0  0  0  0  0  0  0  0  0  0  0  0
   19.7945    8.0832   32.5020 N   0  0  0  0  0  0  0  0  0  0  0  0
   19.2384    9.1314   33.1187 C   0  0  0  0  0  0  0  0  0  0  0  0
   20.1027   10.1920   33.1064 N   0  0  0  0  0  0  0  0  0  0  0  0
   21.1939    9.7429   32.4644 C   0  0  0  0  0  0  0  0  0  0  0  0
   17.8845    8.7983   33.6152 C   0  0  0  0  0  0  0  0  0  0  0  0
   17.5215    7.6287   32.7428 C   0  0  0  0  0  0  0  0  0  0  0  0
   18.8564    6.9598   32.5103 C   0  0  0  0  0  0  0  0  0  0  0  0
   23.6867    3.9767   31.3516 Cl  0  0  0  0  0  0  0  0  0  0  0  0
   23.3042    5.6376   30.9529 C   0  0  0  0  0  0  0  0  0  0  0  0
   23.9809    6.2337   29.9296 C   0  0  0  0  0  0  0  0  0  0  0  0
   23.7005    7.5382   29.5948 C   0  0  0  0  0  0  0  0  0  0  0  0
   22.7224    8.2289   30.3149 C   0  0  0  0  0  0  0  0  0  0  0  0
   22.0356    7.6333   31.3488 C   0  0  0  0  0  0  0  0  0  0  0  0
   22.3328    6.3387   31.6606 C   0  0  0  0  0  0  0  0  0  0  0  0
   25.2202    5.3798   29.0082 Cl  0  0  0  0  0  0  0  0  0  0  0  0
   19.8939   11.4789   33.7036 C   0  0  0  0  0  0  0  0  0  0  0  0
   19.8449   12.6913   32.9331 C   0  0  0  0  0  0  0  0  0  0  0  0
   18.6643   13.2999   32.9927 O   0  0  0  0  0  0  0  0  0  0  0  0
   20.7938   13.3955   32.1084 C   0  0  0  0  0  0  0  0  0  0  0  0
   21.2088   14.6965   32.4726 C   0  0  0  0  0  0  0  0  0  0  0  0
   22.1062   15.4430   31.7546 C   0  0  0  0  0  0  0  0  0  0  0  0
   22.6185   14.8628   30.6121 C   0  0  0  0  0  0  0  0  0  0  0  0
   22.2303   13.5963   30.2357 C   0  0  0  0  0  0  0  0  0  0  0  0
   21.3152   12.8407   30.9713 C   0  0  0  0  0  0  0  0  0  0  0  0
   22.5080   16.7449   32.1368 N   0  0  0  0  0  0  0  0  0  0  0  0
   23.2147   16.8900   33.1400 O   0  0  0  0  0  0  0  0  0  0  0  0
   22.1372   17.8504   31.4280 O   0  0  0  0  0  0  0  0  0  0  0  0
  9 10  1  0  0  0
 10 11  2  0  0  0
 10 15  1  0  0  0
 11 12  1  0  0  0
 11 16  1  0  0  0
 12 13  2  0  0  0
 13 14  1  0  0  0
 14 15  2  0  0  0
 14  1  1  0  0  0
  1  2  1  0  0  0
  1  5  2  0  0  0
  2  3  2  0  0  0
  2  8  1  0  0  0
  3  4  1  0  0  0
  3  6  1  0  0  0
  4  5  1  0  0  0
  4 17  1  0  0  0
 17 18  1  0  0  0
 18 19  2  0  0  0
 18 20  1  0  0  0
 20 21  2  0  0  0
 20 25  1  0  0  0
 21 22  1  0  0  0
 22 23  2  0  0  0
 22 26  1  0  0  0
 23 24  1  0  0  0
 24 25  2  0  0  0
 26 27  2  0  0  0
 26 28  1  0  0  0
  6  7  1  0  0  0
  7  8  1  0  0  0
M  CHG 1  28  -1
M  END
> <minimizedAffinity>
-10.77691

$$$$
1535


 28 31  0  0  0  0  0  0  0  0999 V2000
   21.0091    8.5002   32.0940 C   0  0  0  0  0  0  0  0  0  0  0  0
   19.8012    8.1505   32.5646 N   0  0  0  0  0  0  0  0  0  0  0  0
   19.2365    9.2071   33.1856 C   0  0  0  0  0  0  0  0  0  0  0  0
   20.0935   10.2407   33.1081 N   0  0  0  0  0  0  0  0  0  0  0  0
   21.2116    9.8463   32.4357 C   0  0  0  0  0  0  0  0  0  0  0  0
   17.9072    8.8304   33.7202 C   0  0  0  0  0  0  0  0  0  0  0  0
   17.5235    7.7705   32.7196 C   0  0  0  0  0  0  0  0  0  0  0  0
   18.8648    7.0222   32.6321 C   0  0  0  0  0  0  0  0  0  0  0  0
   23.5949    4.0610   31.3171 Cl  0  0  0  0  0  0  0  0  0  0  0  0
   23.2844    5.7170   30.9010 C   0  0  0  0  0  0  0  0  0  0  0  0
   23.9781    6.3265   29.8904 C   0  0  0  0  0  0  0  0  0  0  0  0
   23.6901    7.6399   29.6065 C   0  0  0  0  0  0  0  0  0  0  0  0
   22.7337    8.3142   30.3179 C   0  0  0  0  0  0  0  0  0  0  0  0
   22.0056    7.7232   31.3550 C   0  0  0  0  0  0  0  0  0  0  0  0
   22.3049    6.4284   31.6215 C   0  0  0  0  0  0  0  0  0  0  0  0
   25.2020    5.4742   28.9750 Cl  0  0  0  0  0  0  0  0  0  0  0  0
   19.9007   11.5273   33.6685 C   0  0  0  0  0  0  0  0  0  0  0  0
   19.7885   12.7233   32.8842 C   0  0  0  0  0  0  0  0  0  0  0  0
   18.5506   13.1747   32.8537 O   0  0  0  0  0  0  0  0  0  0  0  0
   20.7487   13.5041   32.1405 C   0  0  0  0  0  0  0  0  0  0  0  0
   21.1666   14.7637   32.4745 C   0  0  0  0  0  0  0  0  0  0  0  0
   22.1031   15.4602   31.7050 C   0  0  0  0  0  0  0  0  0  0  0  0
   22.6274   14.8919   30.5889 C   0  0  0  0  0  0  0  0  0  0  0  0
   22.2244   13.6243   30.2291 C   0  0  0  0  0  0  0  0  0  0  0  0
   21.3087   12.9333   30.9750 C   0  0  0  0  0  0  0  0  0  0  0  0
   22.4978   16.7727   32.1088 N   0  0  0  0  0  0  0  0  0  0  0  0
   23.1930   16.9150   33.1296 O   0  0  0  0  0  0  0  0  0  0  0  0
   22.1356   17.8790   31.4095 O   0  0  0  0  0  0  0  0  0  0  0  0
  9 10  1  0  0  0
 10 11  2  0  0  0
 10 15  1  0  0  0
 11 12  1  0  0  0
 11 16  1  0  0  0
 12 13  2  0  0  0
 13 14  1  0  0  0
 14 15  2  0  0  0
 14  1  1  0  0  0
  1  2  1  0  0  0
  1  5  2  0  0  0
  2  3  1  0  0  0
  2  8  1  0  0  0
  3  4  2  0  0  0
  3  6  1  0  0  0
  4  5  1  0  0  0
  4 17  1  0  0  0
 17 18  1  0  0  0
 18 19  2  0  0  0
 18 20  1  0  0  0
 20 21  2  0  0  0
 20 25  1  0  0  0
 21 22  1  0  0  0
 22 23  2  0  0  0
 22 26  1  0  0  0
 23 24  1  0  0  0
 24 25  2  0  0  0
 26 27  2  0  0  0
 26 28  1  0  0  0
  6  7  1  0  0  0
  7  8  1  0  0  0
M  CHG 1  28  -1
M  END
> <minimizedAffinity>
-10.70463

$$$$
1536


 31 34  0  0  0  0  0  0  0  0999 V2000
   23.3580   13.2919   31.0529 S   0  0  0  0  0  0  0  0  0  0  0  0
   24.0144   13.7432   32.3617 O   0  0  0  0  0  0  0  0  0  0  0  0
   22.0338   12.6835   31.5209 O   0  0  0  0  0  0  0  0  0  0  0  0
   23.0603   14.7514   30.1544 C   0  0  0  0  0  0  0  0  0  0  0  0
   23.5653   14.8665   28.8479 C   0  0  0  0  0  0  0  0  0  0  0  0
   23.4152   16.0030   28.0967 C   0  0  0  0  0  0  0  0  0  0  0  0
   22.7537   17.0721   28.6178 C   0  0  0  0  0  0  0  0  0  0  0  0
   22.2377   17.0177   29.8876 C   0  0  0  0  0  0  0  0  0  0  0  0
   22.4030   15.8477   30.6314 C   0  0  0  0  0  0  0  0  0  0  0  0
   21.6556   15.8049   32.2193 Cl  0  0  0  0  0  0  0  0  0  0  0  0
   22.6105   18.2577   27.8167 N   0  0  0  0  0  0  0  0  0  0  0  0
   23.1580   18.2878   26.5100 C   0  0  0  0  0  0  0  0  0  0  0  0
   22.7586   19.1000   25.6499 O   0  0  0  0  0  0  0  0  0  0  0  0
   24.2335   17.3114   26.1948 C   0  0  0  0  0  0  0  0  0  0  0  0
   23.9331   16.0807   26.7974 O   0  0  0  0  0  0  0  0  0  0  0  0
   22.1062   19.0787   28.2063 H   0  0  0  0  0  0  0  0  0  0  0  0
   24.3029   12.1171   30.3753 N   0  0  0  0  0  0  0  0  0  0  0  0
   23.9591   11.3857   29.2442 C   0  0  0  0  0  0  0  0  0  0  0  0
   23.2546   10.0870   29.4718 C   0  0  0  0  0  0  0  0  0  0  0  0
   23.5621    9.5954   30.8845 C   0  0  0  0  0  0  0  0  0  0  0  0
   25.0614    9.8924   31.0500 C   0  0  0  0  0  0  0  0  0  0  0  0
   25.1398   11.3867   31.3196 C   0  0  0  0  0  0  0  0  0  0  0  0
   23.2662    8.1831   31.0537 C   0  0  0  0  0  0  0  0  0  0  0  0
   24.1590    7.3281   30.8151 O   0  0  0  0  0  0  0  0  0  0  0  0
   22.0090    7.7431   31.4801 N   0  0  0  0  0  0  0  0  0  0  0  0
   21.6891    6.3278   31.6987 C   0  0  0  0  0  0  0  0  0  0  0  0
   20.1967    6.2618   31.9456 C   0  0  0  0  0  0  0  0  0  0  0  0
   19.8502    7.0031   33.1429 N   0  0  0  0  0  0  0  0  0  0  0  0
   20.2325    8.3994   33.0295 C   0  0  0  0  0  0  0  0  0  0  0  0
   20.9347    8.6679   31.7098 C   0  0  0  0  0  0  0  0  0  0  0  0
   18.4394    6.8803   33.4400 C   0  0  0  0  0  0  0  0  0  0  0  0
  1  2  2  0  0  0
  1  3  2  0  0  0
  1 17  1  0  0  0
  1  4  1  0  0  0
 17 18  1  0  0  0
 17 22  1  0  0  0
 18 19  1  0  0  0
 19 20  1  0  0  0
 20 21  1  0  0  0
 20 23  1  0  0  0
 21 22  1  0  0  0
 23 24  2  0  0  0
 23 25  1  0  0  0
 25 26  1  0  0  0
 25 30  1  0  0  0
 26 27  1  0  0  0
 27 28  1  0  0  0
 28 29  1  0  0  0
 28 31  1  0  0  0
 29 30  1  0  0  0
  4  5  2  0  0  0
  4  9  1  0  0  0
  5  6  1  0  0  0
  6  7  2  0  0  0
  6 15  1  0  0  0
  7  8  1  0  0  0
  7 11  1  0  0  0
  8  9  2  0  0  0
  9 10  1  0  0  0
 11 12  1  0  0  0
 12 13  2  0  0  0
 12 14  1  0  0  0
 14 15  1  0  0  0
 11 16  1  0  0  0
M  END
> <minimizedAffinity>
-9.19153

$$$$
1539


 34 37  0  0  0  0  0  0  0  0999 V2000
   22.5236   10.6199   31.6617 C   0  0  0  0  0  0  0  0  0  0  0  0
   22.1280   11.3578   30.4552 N   0  0  0  0  0  0  0  0  0  0  0  0
   21.7502   10.3570   29.5206 C   0  0  0  0  0  0  0  0  0  0  0  0
   20.9379   10.4770   28.5889 O   0  0  0  0  0  0  0  0  0  0  0  0
   22.5083    9.1613   29.8748 C   0  0  0  0  0  0  0  0  0  0  0  0
   22.5204    8.0098   29.3471 O   0  0  0  0  0  0  0  0  0  0  0  0
   23.3260    9.5263   31.0410 C   0  0  0  0  0  0  0  0  0  0  0  0
   24.4621    8.9689   31.4121 C   0  0  0  0  0  0  0  0  0  0  0  0
   25.0756    9.4273   32.5812 O   0  0  0  0  0  0  0  0  0  0  0  0
   17.3638    8.4840   34.0493 Cl  0  0  0  0  0  0  0  0  0  0  0  0
   18.8619    9.1011   33.3558 C   0  0  0  0  0  0  0  0  0  0  0  0
   19.1645   10.4503   33.3881 C   0  0  0  0  0  0  0  0  0  0  0  0
   20.3404   10.9173   32.8407 C   0  0  0  0  0  0  0  0  0  0  0  0
   21.2660   10.0893   32.2425 C   0  0  0  0  0  0  0  0  0  0  0  0
   20.9428    8.7268   32.2194 C   0  0  0  0  0  0  0  0  0  0  0  0
   19.7701    8.2578   32.7648 C   0  0  0  0  0  0  0  0  0  0  0  0
   25.1061    7.9037   30.6580 C   0  0  0  0  0  0  0  0  0  0  0  0
   24.8911    6.5647   30.9400 C   0  0  0  0  0  0  0  0  0  0  0  0
   25.5243    5.5588   30.2399 C   0  0  0  0  0  0  0  0  0  0  0  0
   26.4109    5.8577   29.2150 C   0  0  0  0  0  0  0  0  0  0  0  0
   26.6335    7.1843   28.9249 C   0  0  0  0  0  0  0  0  0  0  0  0
   25.9860    8.1952   29.6416 C   0  0  0  0  0  0  0  0  0  0  0  0
   25.2639    4.1418   30.5769 C   0  0  0  0  0  0  0  0  0  0  0  0
   27.0572    4.8542   28.4981 O   0  0  0  0  0  0  0  0  0  0  0  0
   26.7880    4.7130   27.1313 C   0  0  0  0  0  0  0  0  0  0  0  0
   22.1240   12.8094   30.2702 C   0  0  0  0  0  0  0  0  0  0  0  0
   22.8260   13.3979   31.4721 C   0  0  0  0  0  0  0  0  0  0  0  0
   21.9350   14.1375   32.3248 N   0  0  0  0  0  0  0  0  0  0  0  0
   20.6199   14.1838   31.7739 C   0  0  0  0  0  0  0  0  0  0  0  0
   20.2791   15.4076   30.9907 C   0  0  0  0  0  0  0  0  0  0  0  0
   20.8822   16.5606   31.4157 O   0  0  0  0  0  0  0  0  0  0  0  0
   22.2615   16.4483   31.5316 C   0  0  0  0  0  0  0  0  0  0  0  0
   22.5242   15.4184   32.5990 C   0  0  0  0  0  0  0  0  0  0  0  0
   21.8807   13.5828   33.2259 H   0  0  0  0  0  0  0  0  0  0  0  0
 10 11  1  0  0  0
 11 12  2  0  0  0
 11 16  1  0  0  0
 12 13  1  0  0  0
 13 14  2  0  0  0
 14 15  1  0  0  0
 14  1  1  0  0  0
 15 16  2  0  0  0
  1  2  1  0  0  0
  1  7  1  0  0  0
  2  3  1  0  0  0
  2 26  1  0  0  0
  3  4  2  0  0  0
  3  5  1  0  0  0
  5  6  2  0  0  0
  5  7  1  0  0  0
  7  8  2  0  0  0
  8  9  1  0  0  0
  8 17  1  0  0  0
 17 18  2  0  0  0
 17 22  1  0  0  0
 18 19  1  0  0  0
 19 20  2  0  0  0
 19 23  1  0  0  0
 20 21  1  0  0  0
 20 24  1  0  0  0
 21 22  2  0  0  0
 24 25  1  0  0  0
 26 27  1  0  0  0
 27 28  1  0  0  0
 28 29  1  0  0  0
 28 33  1  0  0  0
 29 30  1  0  0  0
 30 31  1  0  0  0
 31 32  1  0  0  0
 32 33  1  0  0  0
 28 34  1  0  0  0
M  CHG 1   9  -1
M  CHG 1  28   1
M  END
> <minimizedAffinity>
-8.00646

$$$$
1548


 24 27  0  0  0  0  0  0  0  0999 V2000
   21.3480   14.0751   32.4153 Cl  0  0  0  0  0  0  0  0  0  0  0  0
   21.0621   12.3417   32.4630 C   0  0  0  0  0  0  0  0  0  0  0  0
   21.7774   11.4587   31.6839 C   0  0  0  0  0  0  0  0  0  0  0  0
   21.5529   10.1124   31.7225 N   0  0  0  0  0  0  0  0  0  0  0  0
   20.6169    9.5802   32.5292 C   0  0  0  0  0  0  0  0  0  0  0  0
   20.3919    8.2430   32.5690 N   0  0  0  0  0  0  0  0  0  0  0  0
   21.0970    7.3837   31.8027 C   0  0  0  0  0  0  0  0  0  0  0  0
   22.0549    7.8894   30.9728 C   0  0  0  0  0  0  0  0  0  0  0  0
   22.8673    6.9809   30.1011 C   0  0  0  0  0  0  0  0  0  0  0  0
   22.8927    5.6940   30.8178 N   0  0  0  0  0  0  0  0  0  0  0  0
   21.5975    5.1021   30.9972 C   0  0  0  0  0  0  0  0  0  0  0  0
   20.7550    5.9434   31.9397 C   0  0  0  0  0  0  0  0  0  0  0  0
   24.1289    5.2069   31.2318 C   0  0  0  0  0  0  0  0  0  0  0  0
   25.1770    5.8916   30.9658 O   0  0  0  0  0  0  0  0  0  0  0  0
   22.2595    9.2625   30.9560 C   0  0  0  0  0  0  0  0  0  0  0  0
   23.1325    9.7337   30.2009 O   0  0  0  0  0  0  0  0  0  0  0  0
   19.8921   10.4617   33.3167 C   0  0  0  0  0  0  0  0  0  0  0  0
   20.0961   11.8250   33.2990 C   0  0  0  0  0  0  0  0  0  0  0  0
   24.3572    3.9541   31.9617 C   0  0  0  0  0  0  0  0  0  0  0  0
   23.5510    3.5402   32.9434 N   0  0  0  0  0  0  0  0  0  0  0  0
   23.7666    2.3981   33.6028 C   0  0  0  0  0  0  0  0  0  0  0  0
   24.8365    1.5790   33.3071 C   0  0  0  0  0  0  0  0  0  0  0  0
   25.6366    2.0108   32.3168 N   0  0  0  0  0  0  0  0  0  0  0  0
   25.4438    3.1458   31.6444 C   0  0  0  0  0  0  0  0  0  0  0  0
  1  2  1  0  0  0
  2  3  2  0  0  0
  2 18  1  0  0  0
  3  4  1  0  0  0
  4  5  1  0  0  0
  4 15  1  0  0  0
  5  6  2  0  0  0
  5 17  1  0  0  0
  6  7  1  0  0  0
  7  8  2  0  0  0
  7 12  1  0  0  0
  8  9  1  0  0  0
  8 15  1  0  0  0
  9 10  1  0  0  0
 10 11  1  0  0  0
 10 13  1  0  0  0
 11 12  1  0  0  0
 13 14  2  0  0  0
 13 19  1  0  0  0
 19 20  2  0  0  0
 19 24  1  0  0  0
 20 21  1  0  0  0
 21 22  2  0  0  0
 22 23  1  0  0  0
 23 24  2  0  0  0
 15 16  2  0  0  0
 17 18  2  0  0  0
M  END
> <minimizedAffinity>
-8.95827

$$$$
1553


 29 32  0  0  0  0  0  0  0  0999 V2000
   23.1746    5.7188   30.1202 C   0  0  0  0  0  0  0  0  0  0  0  0
   24.1442    6.0932   29.1615 N   0  0  0  0  0  0  0  0  0  0  0  0
   25.3049    5.2587   29.0516 C   0  0  0  0  0  0  0  0  0  0  0  0
   25.9534    5.1193   30.4393 C   0  0  0  0  0  0  0  0  0  0  0  0
   24.9376    4.4007   31.2320 C   0  0  0  0  0  0  0  0  0  0  0  0
   25.0532    3.3988   32.1823 C   0  0  0  0  0  0  0  0  0  0  0  0
   23.7723    3.0964   32.5877 C   0  0  0  0  0  0  0  0  0  0  0  0
   22.8978    3.8692   31.9252 N   0  0  0  0  0  0  0  0  0  0  0  0
   23.6154    4.6814   31.0813 C   0  0  0  0  0  0  0  0  0  0  0  0
   23.6146    2.1104   33.5447 C   0  0  0  0  0  0  0  0  0  0  0  0
   24.7294    1.4839   34.0439 C   0  0  0  0  0  0  0  0  0  0  0  0
   26.0086    1.7882   33.6364 C   0  0  0  0  0  0  0  0  0  0  0  0
   26.1823    2.7793   32.6730 C   0  0  0  0  0  0  0  0  0  0  0  0
   23.6679    6.0867   28.2034 H   0  0  0  0  0  0  0  0  0  0  0  0
   24.4965    7.0779   29.2645 H   0  0  0  0  0  0  0  0  0  0  0  0
   21.8479    3.8945   31.9969 H   0  0  0  0  0  0  0  0  0  0  0  0
   19.5377    8.2825   33.1827 Br  0  0  0  0  0  0  0  0  0  0  0  0
   21.2426    8.1586   32.3241 C   0  0  0  0  0  0  0  0  0  0  0  0
   21.5666    7.0291   31.5657 C   0  0  0  0  0  0  0  0  0  0  0  0
   22.7949    6.9288   30.9372 C   0  0  0  0  0  0  0  0  0  0  0  0
   23.6800    7.9770   31.0857 C   0  0  0  0  0  0  0  0  0  0  0  0
   23.3500    9.0955   31.8400 C   0  0  0  0  0  0  0  0  0  0  0  0
   22.1278    9.1925   32.4635 C   0  0  0  0  0  0  0  0  0  0  0  0
   24.6232   10.5304   32.0101 Br  0  0  0  0  0  0  0  0  0  0  0  0
   20.6062    6.0548   31.4916 O   0  0  0  0  0  0  0  0  0  0  0  0
   20.6648    5.2049   31.0010 H   0  0  0  0  0  0  0  0  0  0  0  0
   26.2548    5.8459   28.0851 C   0  0  0  0  0  0  0  0  0  0  0  0
   26.5956    7.0496   28.2199 O   0  0  0  0  0  0  0  0  0  0  0  0
   26.7491    5.0655   27.0531 O   0  0  0  0  0  0  0  0  0  0  0  0
 17 18  1  0  0  0
 18 19  2  0  0  0
 18 23  1  0  0  0
 19 20  1  0  0  0
 19 25  1  0  0  0
 20 21  2  0  0  0
 20  1  1  0  0  0
 21 22  1  0  0  0
 22 23  2  0  0  0
 22 24  1  0  0  0
  1  2  1  0  0  0
  1  9  1  0  0  0
  2  3  1  0  0  0
  3  4  1  0  0  0
  3 27  1  0  0  0
  4  5  1  0  0  0
  5  6  1  0  0  0
  5  9  2  0  0  0
  6  7  2  0  0  0
  6 13  1  0  0  0
  7  8  1  0  0  0
  7 10  1  0  0  0
  8  9  1  0  0  0
 10 11  2  0  0  0
 11 12  1  0  0  0
 12 13  2  0  0  0
 27 28  2  0  0  0
 27 29  1  0  0  0
  2 14  1  0  0  0
  2 15  1  0  0  0
  8 16  1  0  0  0
 25 26  1  0  0  0
M  CHG 1   2   1
M  END
> <minimizedAffinity>
-8.82708

$$$$
1571


 28 31  0  0  0  0  0  0  0  0999 V2000
   21.6354    7.3153   31.9314 O   0  0  0  0  0  0  0  0  0  0  0  0
   21.2059    6.0226   31.7389 C   0  0  0  0  0  0  0  0  0  0  0  0
   20.2946    5.6219   32.5177 O   0  0  0  0  0  0  0  0  0  0  0  0
   21.7667    5.1357   30.6845 C   0  0  0  0  0  0  0  0  0  0  0  0
   23.2279    5.2130   30.6399 N   0  0  0  0  0  0  0  0  0  0  0  0
   24.1572    4.4637   31.4181 C   0  0  0  0  0  0  0  0  0  0  0  0
   23.8900    3.4785   32.1504 O   0  0  0  0  0  0  0  0  0  0  0  0
   25.5008    5.0522   31.2103 C   0  0  0  0  0  0  0  0  0  0  0  0
   25.3656    5.5474   29.7893 C   0  0  0  0  0  0  0  0  0  0  0  0
   25.4517    4.4323   28.7655 C   0  0  0  0  0  0  0  0  0  0  0  0
   25.8332    3.1061   29.3680 C   0  0  0  0  0  0  0  0  0  0  0  0
   26.9993    3.2511   30.3042 C   0  0  0  0  0  0  0  0  0  0  0  0
   26.6252    4.1288   31.4453 C   0  0  0  0  0  0  0  0  0  0  0  0
   23.9811    6.0733   29.8032 C   0  0  0  0  0  0  0  0  0  0  0  0
   23.5316    7.0937   29.1937 O   0  0  0  0  0  0  0  0  0  0  0  0
   20.9537    8.3002   32.6566 C   0  0  0  0  0  0  0  0  0  0  0  0
   22.0364   16.3733   30.9051 Br  0  0  0  0  0  0  0  0  0  0  0  0
   21.5883   14.5899   31.4819 C   0  0  0  0  0  0  0  0  0  0  0  0
   22.2503   13.4956   30.9780 C   0  0  0  0  0  0  0  0  0  0  0  0
   21.9623   12.2432   31.3589 N   0  0  0  0  0  0  0  0  0  0  0  0
   20.9900   12.0002   32.2744 C   0  0  0  0  0  0  0  0  0  0  0  0
   20.6666   10.7726   32.6875 N   0  0  0  0  0  0  0  0  0  0  0  0
   21.2909    9.6751   32.2173 C   0  0  0  0  0  0  0  0  0  0  0  0
   22.2856    9.8826   31.2843 C   0  0  0  0  0  0  0  0  0  0  0  0
   22.6111   11.1572   30.8654 C   0  0  0  0  0  0  0  0  0  0  0  0
   23.5143   11.3913   30.0147 O   0  0  0  0  0  0  0  0  0  0  0  0
   20.2972   13.0846   32.8089 C   0  0  0  0  0  0  0  0  0  0  0  0
   20.6020   14.3680   32.4086 C   0  0  0  0  0  0  0  0  0  0  0  0
 17 18  1  0  0  0
 18 19  2  0  0  0
 18 28  1  0  0  0
 19 20  1  0  0  0
 20 21  1  0  0  0
 20 25  1  0  0  0
 21 22  2  0  0  0
 21 27  1  0  0  0
 22 23  1  0  0  0
 23 24  2  0  0  0
 23 16  1  0  0  0
 24 25  1  0  0  0
 25 26  2  0  0  0
 16  1  1  0  0  0
  1  2  1  0  0  0
  2  3  2  0  0  0
  2  4  1  0  0  0
  4  5  1  0  0  0
  5  6  1  0  0  0
  5 14  1  0  0  0
  6  7  2  0  0  0
  6  8  1  0  0  0
  8  9  1  0  0  0
  8 13  1  0  0  0
  9 10  1  0  0  0
  9 14  1  0  0  0
 10 11  1  0  0  0
 11 12  1  0  0  0
 12 13  1  0  0  0
 14 15  2  0  0  0
 27 28  2  0  0  0
M  END
> <minimizedAffinity>
-8.62203

$$$$
1576


 30 33  0  0  0  0  0  0  0  0999 V2000
   22.3650    8.2411   31.2115 N   0  0  0  0  0  0  0  0  0  0  0  0
   22.5618    8.4928   29.8002 C   0  0  0  0  0  0  0  0  0  0  0  0
   23.8412    9.3081   29.6288 C   0  0  0  0  0  0  0  0  0  0  0  0
   23.9146   10.3164   30.6741 N   0  0  0  0  0  0  0  0  0  0  0  0
   23.8756    9.8840   32.0514 C   0  0  0  0  0  0  0  0  0  0  0  0
   23.5485    8.4099   32.0691 C   0  0  0  0  0  0  0  0  0  0  0  0
   24.0240   11.7018   30.3696 C   0  0  0  0  0  0  0  0  0  0  0  0
   24.0608   12.0462   29.1474 O   0  0  0  0  0  0  0  0  0  0  0  0
   21.8331    5.2800   31.5408 Cl  0  0  0  0  0  0  0  0  0  0  0  0
   20.7797    6.5552   32.0371 C   0  0  0  0  0  0  0  0  0  0  0  0
   21.1653    7.8597   31.8152 C   0  0  0  0  0  0  0  0  0  0  0  0
   20.2695    8.8395   32.2375 C   0  0  0  0  0  0  0  0  0  0  0  0
   19.0715    8.5118   32.8413 C   0  0  0  0  0  0  0  0  0  0  0  0
   18.7307    7.2000   33.0415 C   0  0  0  0  0  0  0  0  0  0  0  0
   19.5833    6.2198   32.6402 C   0  0  0  0  0  0  0  0  0  0  0  0
   24.0984   12.7624   31.3810 C   0  0  0  0  0  0  0  0  0  0  0  0
   23.2234   13.8985   31.0984 N   0  0  0  0  0  0  0  0  0  0  0  0
   23.5154   15.0647   30.5582 N   0  0  0  0  0  0  0  0  0  0  0  0
   22.4545   15.8674   30.4501 C   0  0  0  0  0  0  0  0  0  0  0  0
   21.3819   15.1610   30.9637 C   0  0  0  0  0  0  0  0  0  0  0  0
   21.8876   13.9427   31.3587 C   0  0  0  0  0  0  0  0  0  0  0  0
   21.0922   12.8578   31.9706 C   0  0  0  0  0  0  0  0  0  0  0  0
   22.4304   17.2320   29.8924 C   0  0  0  0  0  0  0  0  0  0  0  0
   21.9833   18.1783   30.5707 O   0  0  0  0  0  0  0  0  0  0  0  0
   22.9224   17.4439   28.5858 N   0  0  0  0  0  0  0  0  0  0  0  0
   23.4514   16.4040   27.7492 C   0  0  0  0  0  0  0  0  0  0  0  0
   23.7228   17.0462   26.3829 C   0  0  0  0  0  0  0  0  0  0  0  0
   22.6033   17.6911   25.9055 O   0  0  0  0  0  0  0  0  0  0  0  0
   22.1709   18.7280   26.6979 C   0  0  0  0  0  0  0  0  0  0  0  0
   22.9053   18.7963   28.0205 C   0  0  0  0  0  0  0  0  0  0  0  0
  9 10  1  0  0  0
 10 11  2  0  0  0
 10 15  1  0  0  0
 11 12  1  0  0  0
 11  1  1  0  0  0
 12 13  2  0  0  0
 13 14  1  0  0  0
 14 15  2  0  0  0
  1  2  1  0  0  0
  1  6  1  0  0  0
  2  3  1  0  0  0
  3  4  1  0  0  0
  4  5  1  0  0  0
  4  7  1  0  0  0
  5  6  1  0  0  0
  7  8  2  0  0  0
  7 16  1  0  0  0
 16 17  1  0  0  0
 17 18  1  0  0  0
 17 21  1  0  0  0
 18 19  2  0  0  0
 19 20  1  0  0  0
 19 23  1  0  0  0
 20 21  2  0  0  0
 21 22  1  0  0  0
 23 24  2  0  0  0
 23 25  1  0  0  0
 25 26  1  0  0  0
 25 30  1  0  0  0
 26 27  1  0  0  0
 27 28  1  0  0  0
 28 29  1  0  0  0
 29 30  1  0  0  0
M  END
> <minimizedAffinity>
-8.51958

$$$$
1581


 27 30  0  0  0  0  0  0  0  0999 V2000
   24.9215   10.8220   30.9839 N   0  0  0  0  0  0  0  0  0  0  0  0
   24.4911   10.6988   29.6540 C   0  0  0  0  0  0  0  0  0  0  0  0
   23.1324   11.2401   29.3555 C   0  0  0  0  0  0  0  0  0  0  0  0
   22.7675   12.3302   30.2486 N   0  0  0  0  0  0  0  0  0  0  0  0
   21.6499   13.0528   30.1905 N   0  0  0  0  0  0  0  0  0  0  0  0
   21.6621   13.9616   31.1699 C   0  0  0  0  0  0  0  0  0  0  0  0
   22.8357   13.7917   31.8604 C   0  0  0  0  0  0  0  0  0  0  0  0
   23.5422   12.7424   31.2642 C   0  0  0  0  0  0  0  0  0  0  0  0
   24.8525   12.1144   31.5668 C   0  0  0  0  0  0  0  0  0  0  0  0
   20.5924   14.9691   31.4519 C   0  0  0  0  0  0  0  0  0  0  0  0
   20.6180   15.9192   30.4178 O   0  0  0  0  0  0  0  0  0  0  0  0
   21.2352   15.6267   29.6862 H   0  0  0  0  0  0  0  0  0  0  0  0
   19.2190   14.3076   31.3727 C   0  0  0  0  0  0  0  0  0  0  0  0
   19.0669   13.3770   32.5667 C   0  0  0  0  0  0  0  0  0  0  0  0
   24.7800    9.7203   31.8412 C   0  0  0  0  0  0  0  0  0  0  0  0
   17.0976    7.3116   32.8027 Cl  0  0  0  0  0  0  0  0  0  0  0  0
   18.6883    8.0549   32.7199 C   0  0  0  0  0  0  0  0  0  0  0  0
   19.6954    7.3443   32.1073 C   0  0  0  0  0  0  0  0  0  0  0  0
   20.9217    7.9212   32.0452 N   0  0  0  0  0  0  0  0  0  0  0  0
   21.1656    9.1391   32.5547 C   0  0  0  0  0  0  0  0  0  0  0  0
   22.3789    9.7189   32.4966 N   0  0  0  0  0  0  0  0  0  0  0  0
   23.4401    9.1225   31.9237 C   0  0  0  0  0  0  0  0  0  0  0  0
   23.1899    7.8669   31.3982 C   0  0  0  0  0  0  0  0  0  0  0  0
   21.9491    7.2744   31.4583 C   0  0  0  0  0  0  0  0  0  0  0  0
   21.7649    6.1199   30.9621 O   0  0  0  0  0  0  0  0  0  0  0  0
   20.1460    9.8661   33.1775 C   0  0  0  0  0  0  0  0  0  0  0  0
   18.8938    9.3091   33.2566 C   0  0  0  0  0  0  0  0  0  0  0  0
 16 17  1  0  0  0
 17 18  2  0  0  0
 17 27  1  0  0  0
 18 19  1  0  0  0
 19 20  1  0  0  0
 19 24  1  0  0  0
 20 21  2  0  0  0
 20 26  1  0  0  0
 21 22  1  0  0  0
 22 23  2  0  0  0
 22 15  1  0  0  0
 23 24  1  0  0  0
 24 25  2  0  0  0
 15  1  1  0  0  0
  1  2  1  0  0  0
  1  9  1  0  0  0
  2  3  1  0  0  0
  3  4  1  0  0  0
  4  5  1  0  0  0
  4  8  1  0  0  0
  5  6  2  0  0  0
  6  7  1  0  0  0
  6 10  1  0  0  0
  7  8  2  0  0  0
  8  9  1  0  0  0
 10 11  1  0  0  0
 10 13  1  0  0  0
 13 14  1  0  0  0
 26 27  2  0  0  0
 11 12  1  0  0  0
M  END
> <minimizedAffinity>
-8.76710

$$$$
1586


 29 32  0  0  0  0  0  0  0  0999 V2000
   23.0682    8.3454   31.4000 C   0  0  0  0  0  0  0  0  0  0  0  0
   23.7415    7.2084   31.3254 O   0  0  0  0  0  0  0  0  0  0  0  0
   23.8023    9.5062   31.1049 N   0  0  0  0  0  0  0  0  0  0  0  0
   23.2836   10.8267   31.1517 C   0  0  0  0  0  0  0  0  0  0  0  0
   24.4440   11.8229   30.9865 C   0  0  0  0  0  0  0  0  0  0  0  0
   25.0499   11.5018   29.7203 N   0  0  0  0  0  0  0  0  0  0  0  0
   25.5967   10.1955   29.5659 C   0  0  0  0  0  0  0  0  0  0  0  0
   25.1957    9.2927   30.7144 C   0  0  0  0  0  0  0  0  0  0  0  0
   25.0952   12.4460   28.6801 C   0  0  0  0  0  0  0  0  0  0  0  0
   25.9318   12.3000   27.7714 O   0  0  0  0  0  0  0  0  0  0  0  0
   24.1468   13.5786   28.7027 C   0  0  0  0  0  0  0  0  0  0  0  0
   24.1743   14.1169   30.0307 N   0  0  0  0  0  0  0  0  0  0  0  0
   24.0143   13.2144   31.1110 C   0  0  0  0  0  0  0  0  0  0  0  0
   23.4987   13.5809   32.2134 O   0  0  0  0  0  0  0  0  0  0  0  0
   24.3052   15.1407   30.2237 H   0  0  0  0  0  0  0  0  0  0  0  0
   17.3790    7.1438   33.0326 Cl  0  0  0  0  0  0  0  0  0  0  0  0
   19.0360    7.5384   32.5512 C   0  0  0  0  0  0  0  0  0  0  0  0
   19.4811    8.8204   32.5669 C   0  0  0  0  0  0  0  0  0  0  0  0
   20.7932    9.0983   32.1814 C   0  0  0  0  0  0  0  0  0  0  0  0
   21.6965    8.1465   31.7773 C   0  0  0  0  0  0  0  0  0  0  0  0
   21.1803    6.8386   31.7797 C   0  0  0  0  0  0  0  0  0  0  0  0
   19.8876    6.5399   32.1559 C   0  0  0  0  0  0  0  0  0  0  0  0
   24.3563   14.5648   27.6181 C   0  0  0  0  0  0  0  0  0  0  0  0
   23.6582   15.8213   27.9351 C   0  0  0  0  0  0  0  0  0  0  0  0
   22.9975   16.1512   29.0474 N   0  0  0  0  0  0  0  0  0  0  0  0
   22.5025   17.4172   28.9177 C   0  0  0  0  0  0  0  0  0  0  0  0
   22.8496   17.8903   27.7188 N   0  0  0  0  0  0  0  0  0  0  0  0
   23.5542   16.9361   27.1018 C   0  0  0  0  0  0  0  0  0  0  0  0
   22.6208   18.8120   27.3372 H   0  0  0  0  0  0  0  0  0  0  0  0
 16 17  1  0  0  0
 17 18  2  0  0  0
 17 22  1  0  0  0
 18 19  1  0  0  0
 19 20  2  0  0  0
 20 21  1  0  0  0
 20  1  1  0  0  0
 21 22  2  0  0  0
  1  2  2  0  0  0
  1  3  1  0  0  0
  3  4  1  0  0  0
  3  8  1  0  0  0
  4  5  1  0  0  0
  5  6  1  0  0  0
  5 13  1  0  0  0
  6  7  1  0  0  0
  6  9  1  0  0  0
  7  8  1  0  0  0
  9 10  2  0  0  0
  9 11  1  0  0  0
 11 12  1  0  0  0
 11 23  1  0  0  0
 12 13  1  0  0  0
 13 14  2  0  0  0
 23 24  1  0  0  0
 24 25  1  0  0  0
 24 28  2  0  0  0
 25 26  2  0  0  0
 26 27  1  0  0  0
 27 28  1  0  0  0
 12 15  1  0  0  0
 27 29  1  0  0  0
M  END
> <minimizedAffinity>
-8.32521

$$$$
1591


 26 29  0  0  0  0  0  0  0  0999 V2000
   23.0676   12.8963   29.8784 Cl  0  0  0  0  0  0  0  0  0  0  0  0
   22.1419   11.9838   31.0491 C   0  0  0  0  0  0  0  0  0  0  0  0
   21.4568   12.6288   32.0396 C   0  0  0  0  0  0  0  0  0  0  0  0
   20.7655   11.7976   32.9252 C   0  0  0  0  0  0  0  0  0  0  0  0
   20.7945   10.4635   32.7813 N   0  0  0  0  0  0  0  0  0  0  0  0
   21.4463    9.8237   31.8365 N   0  0  0  0  0  0  0  0  0  0  0  0
   22.1240   10.5810   30.9639 C   0  0  0  0  0  0  0  0  0  0  0  0
   22.7783   10.0619   30.0239 O   0  0  0  0  0  0  0  0  0  0  0  0
   21.4245    8.4021   31.7553 C   0  0  0  0  0  0  0  0  0  0  0  0
   22.4809    7.6674   31.2546 C   0  0  0  0  0  0  0  0  0  0  0  0
   22.4495    6.2913   31.1814 C   0  0  0  0  0  0  0  0  0  0  0  0
   21.3413    5.5899   31.6124 C   0  0  0  0  0  0  0  0  0  0  0  0
   20.2831    6.3179   32.1140 C   0  0  0  0  0  0  0  0  0  0  0  0
   20.3190    7.6975   32.1858 C   0  0  0  0  0  0  0  0  0  0  0  0
   21.4137   14.0371   32.1702 N   0  0  0  0  0  0  0  0  0  0  0  0
   20.1968   14.8093   31.9815 C   0  0  0  0  0  0  0  0  0  0  0  0
   20.3135   15.7550   30.8142 C   0  0  0  0  0  0  0  0  0  0  0  0
   21.6420   16.3148   30.8632 N   0  0  0  0  0  0  0  0  0  0  0  0
   22.3263   16.3187   32.1301 C   0  0  0  0  0  0  0  0  0  0  0  0
   22.5931   14.8382   32.4793 C   0  0  0  0  0  0  0  0  0  0  0  0
   22.2582   16.8462   29.7048 C   0  0  0  0  0  0  0  0  0  0  0  0
   23.3639   16.3706   29.0632 N   0  0  0  0  0  0  0  0  0  0  0  0
   23.6276   17.1370   28.0239 N   0  0  0  0  0  0  0  0  0  0  0  0
   22.7123   18.0969   27.9853 C   0  0  0  0  0  0  0  0  0  0  0  0
   21.9071   17.9032   28.9966 O   0  0  0  0  0  0  0  0  0  0  0  0
   22.5669   19.2199   27.0032 C   0  0  0  0  0  0  0  0  0  0  0  0
  1  2  1  0  0  0
  2  3  2  0  0  0
  2  7  1  0  0  0
  3  4  1  0  0  0
  3 15  1  0  0  0
  4  5  2  0  0  0
  5  6  1  0  0  0
  6  7  1  0  0  0
  6  9  1  0  0  0
  7  8  2  0  0  0
  9 10  2  0  0  0
  9 14  1  0  0  0
 10 11  1  0  0  0
 11 12  2  0  0  0
 12 13  1  0  0  0
 13 14  2  0  0  0
 15 16  1  0  0  0
 15 20  1  0  0  0
 16 17  1  0  0  0
 17 18  1  0  0  0
 18 19  1  0  0  0
 18 21  1  0  0  0
 19 20  1  0  0  0
 21 22  2  0  0  0
 21 25  1  0  0  0
 22 23  1  0  0  0
 23 24  2  0  0  0
 24 25  1  0  0  0
 24 26  1  0  0  0
M  END
> <minimizedAffinity>
-9.51222

$$$$
1594


 27 30  0  0  0  0  0  0  0  0999 V2000
   21.4039   12.2433   31.9934 C   0  0  0  0  0  0  0  0  0  0  0  0
   20.3148   12.8816   32.2391 O   0  0  0  0  0  0  0  0  0  0  0  0
   22.5221   13.0096   31.7272 N   0  0  0  0  0  0  0  0  0  0  0  0
   23.8252   12.4605   31.4393 C   0  0  0  0  0  0  0  0  0  0  0  0
   24.2088   12.7057   29.9953 C   0  0  0  0  0  0  0  0  0  0  0  0
   23.7124   14.0583   29.5708 C   0  0  0  0  0  0  0  0  0  0  0  0
   22.9267   14.8767   30.3352 C   0  0  0  0  0  0  0  0  0  0  0  0
   22.7147   15.9850   29.5791 N   0  0  0  0  0  0  0  0  0  0  0  0
   23.3194   15.8821   28.4174 N   0  0  0  0  0  0  0  0  0  0  0  0
   23.9574   14.7068   28.3505 C   0  0  0  0  0  0  0  0  0  0  0  0
   24.6534   14.2402   27.3921 O   0  0  0  0  0  0  0  0  0  0  0  0
   22.4764   14.4919   31.7039 C   0  0  0  0  0  0  0  0  0  0  0  0
   22.1363   16.7886   29.9244 H   0  0  0  0  0  0  0  0  0  0  0  0
   22.1530    4.7438   31.0082 Cl  0  0  0  0  0  0  0  0  0  0  0  0
   21.6391    6.3196   31.5811 C   0  0  0  0  0  0  0  0  0  0  0  0
   22.1819    7.4713   31.0583 C   0  0  0  0  0  0  0  0  0  0  0  0
   21.7586    8.6780   31.5271 N   0  0  0  0  0  0  0  0  0  0  0  0
   20.8255    8.7224   32.4842 C   0  0  0  0  0  0  0  0  0  0  0  0
   20.5726   10.0070   32.7812 N   0  0  0  0  0  0  0  0  0  0  0  0
   21.3361   10.7924   32.0213 C   0  0  0  0  0  0  0  0  0  0  0  0
   22.0999    9.9350   31.2138 C   0  0  0  0  0  0  0  0  0  0  0  0
   20.2538    7.5627   33.0362 C   0  0  0  0  0  0  0  0  0  0  0  0
   20.6727    6.3546   32.5714 C   0  0  0  0  0  0  0  0  0  0  0  0
   23.3350   16.8609   27.3207 C   0  0  0  0  0  0  0  0  0  0  0  0
   22.8343   18.2056   27.7950 C   0  0  0  0  0  0  0  0  0  0  0  0
   21.4750   18.1894   28.0839 O   0  0  0  0  0  0  0  0  0  0  0  0
   21.0238   19.0462   27.8207 H   0  0  0  0  0  0  0  0  0  0  0  0
 14 15  1  0  0  0
 15 16  2  0  0  0
 15 23  1  0  0  0
 16 17  1  0  0  0
 17 18  1  0  0  0
 17 21  1  0  0  0
 18 19  2  0  0  0
 18 22  1  0  0  0
 19 20  1  0  0  0
 20 21  2  0  0  0
 20  1  1  0  0  0
  1  2  2  0  0  0
  1  3  1  0  0  0
  3  4  1  0  0  0
  3 12  1  0  0  0
  4  5  1  0  0  0
  5  6  1  0  0  0
  6  7  2  0  0  0
  6 10  1  0  0  0
  7  8  1  0  0  0
  7 12  1  0  0  0
  8  9  1  0  0  0
  9 10  1  0  0  0
  9 24  1  0  0  0
 10 11  2  0  0  0
 24 25  1  0  0  0
 25 26  1  0  0  0
 22 23  2  0  0  0
  8 13  1  0  0  0
 26 27  1  0  0  0
M  END
> <minimizedAffinity>
-8.94210

$$$$
1599


 30 33  0  0  0  0  0  0  0  0999 V2000
   23.4790    9.6459   30.0669 C   0  0  0  0  0  0  0  0  0  0  0  0
   22.3998    9.2114   29.5298 O   0  0  0  0  0  0  0  0  0  0  0  0
   23.4501   10.5627   31.1263 N   0  0  0  0  0  0  0  0  0  0  0  0
   24.6316   11.0715   31.7460 C   0  0  0  0  0  0  0  0  0  0  0  0
   24.4951   12.5078   32.1651 C   0  0  0  0  0  0  0  0  0  0  0  0
   23.4184   13.2826   31.4373 C   0  0  0  0  0  0  0  0  0  0  0  0
   23.2916   14.5097   32.2117 N   0  0  0  0  0  0  0  0  0  0  0  0
   22.4949   15.5272   31.6406 C   0  0  0  0  0  0  0  0  0  0  0  0
   22.2017   15.4481   30.1873 C   0  0  0  0  0  0  0  0  0  0  0  0
   23.2761   14.7187   29.4444 C   0  0  0  0  0  0  0  0  0  0  0  0
   23.8011   14.9017   28.2336 N   0  0  0  0  0  0  0  0  0  0  0  0
   24.7398   13.9427   28.0911 C   0  0  0  0  0  0  0  0  0  0  0  0
   24.7954   13.1732   29.2001 N   0  0  0  0  0  0  0  0  0  0  0  0
   23.8662   13.6536   30.0762 C   0  0  0  0  0  0  0  0  0  0  0  0
   22.0938   12.5673   31.3656 C   0  0  0  0  0  0  0  0  0  0  0  0
   22.1937   11.0808   31.6557 C   0  0  0  0  0  0  0  0  0  0  0  0
   22.9022   14.1823   33.1422 H   0  0  0  0  0  0  0  0  0  0  0  0
   25.4292   12.3696   29.3460 H   0  0  0  0  0  0  0  0  0  0  0  0
   24.7443    9.0907   29.4645 C   0  0  0  0  0  0  0  0  0  0  0  0
   24.6562    6.3897   29.2780 C   0  0  0  0  0  0  0  0  0  0  0  0
   25.1688    5.6334   28.3796 O   0  0  0  0  0  0  0  0  0  0  0  0
   24.6990    7.7087   29.3691 N   0  0  0  0  0  0  0  0  0  0  0  0
   25.4322    7.7794   28.1979 H   0  0  0  0  0  0  0  0  0  0  0  0
   20.3697    5.9660   32.4317 Br  0  0  0  0  0  0  0  0  0  0  0  0
   22.0473    5.3546   31.8213 C   0  0  0  0  0  0  0  0  0  0  0  0
   22.7018    6.0472   30.8143 C   0  0  0  0  0  0  0  0  0  0  0  0
   23.9182    5.6266   30.3459 C   0  0  0  0  0  0  0  0  0  0  0  0
   24.5442    4.5202   30.8363 C   0  0  0  0  0  0  0  0  0  0  0  0
   23.8912    3.8163   31.8529 C   0  0  0  0  0  0  0  0  0  0  0  0
   22.6638    4.2378   32.3289 C   0  0  0  0  0  0  0  0  0  0  0  0
 24 25  1  0  0  0
 25 26  2  0  0  0
 25 30  1  0  0  0
 26 27  1  0  0  0
 27 28  2  0  0  0
 27 20  1  0  0  0
 28 29  1  0  0  0
 29 30  2  0  0  0
 20 21  2  0  0  0
 20 22  1  0  0  0
 22 19  1  0  0  0
 19  1  1  0  0  0
  1  2  2  0  0  0
  1  3  1  0  0  0
  3  4  1  0  0  0
  3 16  1  0  0  0
  4  5  1  0  0  0
  5  6  1  0  0  0
  6  7  1  0  0  0
  6 14  1  0  0  0
  6 15  1  0  0  0
  7  8  1  0  0  0
  8  9  1  0  0  0
  9 10  1  0  0  0
 10 11  1  0  0  0
 10 14  2  0  0  0
 11 12  2  0  0  0
 12 13  1  0  0  0
 13 14  1  0  0  0
 15 16  1  0  0  0
 22 23  1  0  0  0
  7 17  1  0  0  0
 13 18  1  0  0  0
M  END
> <minimizedAffinity>
-8.40053

$$$$
1609


 26 29  0  0  0  0  0  0  0  0999 V2000
   24.0385   10.0877   30.7147 N   0  0  0  0  0  0  0  0  0  0  0  0
   23.5201   11.2301   30.0105 C   0  0  0  0  0  0  0  0  0  0  0  0
   24.4139   12.3371   30.5330 C   0  0  0  0  0  0  0  0  0  0  0  0
   24.4500   12.0152   31.9172 O   0  0  0  0  0  0  0  0  0  0  0  0
   24.5709   10.6106   31.9264 C   0  0  0  0  0  0  0  0  0  0  0  0
   25.0841    9.9638   32.8934 O   0  0  0  0  0  0  0  0  0  0  0  0
   23.5720   13.5138   30.1978 C   0  0  0  0  0  0  0  0  0  0  0  0
   22.2748   13.1084   30.7860 N   0  0  0  0  0  0  0  0  0  0  0  0
   22.1839   11.6908   30.6201 C   0  0  0  0  0  0  0  0  0  0  0  0
   21.4218   14.0575   31.3563 C   0  0  0  0  0  0  0  0  0  0  0  0
   21.7710   15.3084   31.3781 O   0  0  0  0  0  0  0  0  0  0  0  0
   20.1272   13.7979   31.9584 C   0  0  0  0  0  0  0  0  0  0  0  0
   18.9244   14.2911   31.5571 N   0  0  0  0  0  0  0  0  0  0  0  0
   17.9792   13.8139   32.3632 C   0  0  0  0  0  0  0  0  0  0  0  0
   18.5472   13.0233   33.2760 N   0  0  0  0  0  0  0  0  0  0  0  0
   19.8777   13.0029   33.0377 C   0  0  0  0  0  0  0  0  0  0  0  0
   18.7311   15.1808   30.4421 C   0  0  0  0  0  0  0  0  0  0  0  0
   24.0639    8.6853   30.3683 C   0  0  0  0  0  0  0  0  0  0  0  0
   22.7502    8.1669   29.8503 C   0  0  0  0  0  0  0  0  0  0  0  0
   19.2759    9.2440   33.5892 Cl  0  0  0  0  0  0  0  0  0  0  0  0
   20.2652    8.0945   32.6841 C   0  0  0  0  0  0  0  0  0  0  0  0
   21.0811    8.5449   31.6741 C   0  0  0  0  0  0  0  0  0  0  0  0
   21.8769    7.6673   30.9376 C   0  0  0  0  0  0  0  0  0  0  0  0
   21.7987    6.3320   31.2787 C   0  0  0  0  0  0  0  0  0  0  0  0
   20.9749    5.8885   32.2971 C   0  0  0  0  0  0  0  0  0  0  0  0
   20.1901    6.7601   33.0219 C   0  0  0  0  0  0  0  0  0  0  0  0
 20 21  1  0  0  0
 21 22  2  0  0  0
 21 26  1  0  0  0
 22 23  1  0  0  0
 23 24  2  0  0  0
 23 19  1  0  0  0
 24 25  1  0  0  0
 25 26  2  0  0  0
 19 18  1  0  0  0
 18  1  1  0  0  0
  1  2  1  0  0  0
  1  5  1  0  0  0
  2  3  1  0  0  0
  2  9  1  0  0  0
  3  4  1  0  0  0
  3  7  1  0  0  0
  4  5  1  0  0  0
  5  6  2  0  0  0
  7  8  1  0  0  0
  8  9  1  0  0  0
  8 10  1  0  0  0
 10 11  2  0  0  0
 10 12  1  0  0  0
 12 13  1  0  0  0
 12 16  2  0  0  0
 13 14  1  0  0  0
 13 17  1  0  0  0
 14 15  2  0  0  0
 15 16  1  0  0  0
M  END
> <minimizedAffinity>
-8.71742

$$$$
1612


 31 34  0  0  0  0  0  0  0  0999 V2000
   23.7900    9.6649   29.8021 N   0  0  0  0  0  0  0  0  0  0  0  0
   24.4567    8.5188   29.5537 C   0  0  0  0  0  0  0  0  0  0  0  0
   25.7981    8.8148   29.6108 C   0  0  0  0  0  0  0  0  0  0  0  0
   25.9048   10.1000   29.8850 N   0  0  0  0  0  0  0  0  0  0  0  0
   24.6705   10.6482   30.0099 C   0  0  0  0  0  0  0  0  0  0  0  0
   26.6836    7.8023   29.3917 N   0  0  0  0  0  0  0  0  0  0  0  0
   26.2761    6.5553   29.1289 C   0  0  0  0  0  0  0  0  0  0  0  0
   27.1361    5.6517   28.9342 O   0  0  0  0  0  0  0  0  0  0  0  0
   24.9801    6.2242   29.0647 N   0  0  0  0  0  0  0  0  0  0  0  0
   24.0760    7.2098   29.2782 C   0  0  0  0  0  0  0  0  0  0  0  0
   22.8642    6.9062   29.2206 O   0  0  0  0  0  0  0  0  0  0  0  0
   28.1138    8.0951   29.4533 C   0  0  0  0  0  0  0  0  0  0  0  0
   24.7052    5.2382   28.8573 H   0  0  0  0  0  0  0  0  0  0  0  0
   24.4250   12.0153   30.3737 N   0  0  0  0  0  0  0  0  0  0  0  0
   24.1611   12.9793   29.2860 C   0  0  0  0  0  0  0  0  0  0  0  0
   22.8565   13.6844   29.4727 C   0  0  0  0  0  0  0  0  0  0  0  0
   22.4526   13.6811   30.8598 N   0  0  0  0  0  0  0  0  0  0  0  0
   23.5008   13.7257   31.8578 C   0  0  0  0  0  0  0  0  0  0  0  0
   24.4053   12.5160   31.7008 C   0  0  0  0  0  0  0  0  0  0  0  0
   21.0786   13.6442   31.2194 C   0  0  0  0  0  0  0  0  0  0  0  0
   20.1939   13.6284   30.3361 O   0  0  0  0  0  0  0  0  0  0  0  0
   20.6548   13.6227   32.6395 C   0  0  0  0  0  0  0  0  0  0  0  0
   19.1936   13.1821   32.6676 C   0  0  0  0  0  0  0  0  0  0  0  0
   22.3654    9.7316   29.8754 C   0  0  0  0  0  0  0  0  0  0  0  0
   20.2331    6.0819   32.8900 Cl  0  0  0  0  0  0  0  0  0  0  0  0
   20.7516    7.7448   32.6176 C   0  0  0  0  0  0  0  0  0  0  0  0
   21.3486    8.0399   31.3987 C   0  0  0  0  0  0  0  0  0  0  0  0
   21.7615    9.3208   31.1652 C   0  0  0  0  0  0  0  0  0  0  0  0
   21.5680   10.2932   32.1659 C   0  0  0  0  0  0  0  0  0  0  0  0
   20.9777    9.9747   33.3551 C   0  0  0  0  0  0  0  0  0  0  0  0
   20.5542    8.6814   33.6081 C   0  0  0  0  0  0  0  0  0  0  0  0
 25 26  1  0  0  0
 26 27  2  0  0  0
 26 31  1  0  0  0
 27 28  1  0  0  0
 28 29  2  0  0  0
 28 24  1  0  0  0
 29 30  1  0  0  0
 30 31  2  0  0  0
 24  1  1  0  0  0
  1  2  1  0  0  0
  1  5  1  0  0  0
  2  3  2  0  0  0
  2 10  1  0  0  0
  3  4  1  0  0  0
  3  6  1  0  0  0
  4  5  2  0  0  0
  5 14  1  0  0  0
 14 15  1  0  0  0
 14 19  1  0  0  0
 15 16  1  0  0  0
 16 17  1  0  0  0
 17 18  1  0  0  0
 17 20  1  0  0  0
 18 19  1  0  0  0
 20 21  2  0  0  0
 20 22  1  0  0  0
 22 23  1  0  0  0
  6  7  1  0  0  0
  6 12  1  0  0  0
  7  8  2  0  0  0
  7  9  1  0  0  0
  9 10  1  0  0  0
 10 11  2  0  0  0
  9 13  1  0  0  0
M  END
> <minimizedAffinity>
-7.98811

$$$$
1622


 28 31  0  0  0  0  0  0  0  0999 V2000
   23.8032    9.8429   31.9860 C   0  0  0  0  0  0  0  0  0  0  0  0
   24.9703    9.5556   32.3571 O   0  0  0  0  0  0  0  0  0  0  0  0
   23.3992   11.1781   31.7152 N   0  0  0  0  0  0  0  0  0  0  0  0
   24.3667   12.2420   31.8717 C   0  0  0  0  0  0  0  0  0  0  0  0
   23.9442   13.3624   30.9395 C   0  0  0  0  0  0  0  0  0  0  0  0
   23.3389   12.8341   29.6574 C   0  0  0  0  0  0  0  0  0  0  0  0
   23.1826   13.9595   28.7647 N   0  0  0  0  0  0  0  0  0  0  0  0
   24.3986   14.1373   28.0542 C   0  0  0  0  0  0  0  0  0  0  0  0
   24.8074   15.1780   27.4493 O   0  0  0  0  0  0  0  0  0  0  0  0
   25.0942   12.8908   28.1502 N   0  0  0  0  0  0  0  0  0  0  0  0
   24.2985   11.9809   28.9110 C   0  0  0  0  0  0  0  0  0  0  0  0
   24.4200   10.7258   28.9176 O   0  0  0  0  0  0  0  0  0  0  0  0
   26.4017   12.5524   27.5831 C   0  0  0  0  0  0  0  0  0  0  0  0
   22.0505   12.1038   29.8961 C   0  0  0  0  0  0  0  0  0  0  0  0
   22.0695   11.5488   31.2874 C   0  0  0  0  0  0  0  0  0  0  0  0
   22.3183   14.5263   28.6771 H   0  0  0  0  0  0  0  0  0  0  0  0
   24.9097    7.4728   30.5510 Cl  0  0  0  0  0  0  0  0  0  0  0  0
   23.2685    7.5624   31.2050 C   0  0  0  0  0  0  0  0  0  0  0  0
   22.8758    8.7158   31.8485 C   0  0  0  0  0  0  0  0  0  0  0  0
   21.6002    8.7983   32.3621 C   0  0  0  0  0  0  0  0  0  0  0  0
   20.7153    7.7478   32.2417 C   0  0  0  0  0  0  0  0  0  0  0  0
   21.1531    6.6082   31.5866 C   0  0  0  0  0  0  0  0  0  0  0  0
   22.4175    6.4859   31.0600 C   0  0  0  0  0  0  0  0  0  0  0  0
   19.3895    7.8096   32.7653 N   0  0  0  0  0  0  0  0  0  0  0  0
   18.5012    6.8507   32.8579 N   0  0  0  0  0  0  0  0  0  0  0  0
   17.3575    7.3377   33.4218 C   0  0  0  0  0  0  0  0  0  0  0  0
   17.5522    8.6741   33.6927 C   0  0  0  0  0  0  0  0  0  0  0  0
   18.8553    8.9388   33.2619 C   0  0  0  0  0  0  0  0  0  0  0  0
 17 18  1  0  0  0
 18 19  2  0  0  0
 18 23  1  0  0  0
 19 20  1  0  0  0
 19  1  1  0  0  0
 20 21  2  0  0  0
 21 22  1  0  0  0
 21 24  1  0  0  0
 22 23  2  0  0  0
 24 25  1  0  0  0
 24 28  1  0  0  0
 25 26  2  0  0  0
 26 27  1  0  0  0
 27 28  2  0  0  0
  1  2  2  0  0  0
  1  3  1  0  0  0
  3  4  1  0  0  0
  3 15  1  0  0  0
  4  5  1  0  0  0
  5  6  1  0  0  0
  6  7  1  0  0  0
  6 11  1  0  0  0
  6 14  1  0  0  0
  7  8  1  0  0  0
  8  9  2  0  0  0
  8 10  1  0  0  0
 10 11  1  0  0  0
 10 13  1  0  0  0
 11 12  2  0  0  0
 14 15  1  0  0  0
  7 16  1  0  0  0
M  END
> <minimizedAffinity>
-9.96915

$$$$
1624


 32 35  0  0  0  0  0  0  0  0999 V2000
   24.4971    5.8797   29.0495 C   0  0  0  0  0  0  0  0  0  0  0  0
   24.2866    7.2774   29.4689 N   0  0  0  0  0  0  0  0  0  0  0  0
   25.5508    7.8370   29.7990 C   0  0  0  0  0  0  0  0  0  0  0  0
   25.7715    8.8215   30.5073 O   0  0  0  0  0  0  0  0  0  0  0  0
   26.5799    7.0174   29.1297 C   0  0  0  0  0  0  0  0  0  0  0  0
   27.8435    7.1672   29.1641 O   0  0  0  0  0  0  0  0  0  0  0  0
   25.8512    5.9835   28.4131 C   0  0  0  0  0  0  0  0  0  0  0  0
   26.3489    5.2834   27.4242 C   0  0  0  0  0  0  0  0  0  0  0  0
   25.5510    4.2930   26.8593 O   0  0  0  0  0  0  0  0  0  0  0  0
   24.3357    2.3344   33.8861 Cl  0  0  0  0  0  0  0  0  0  0  0  0
   24.4130    3.3532   32.4754 C   0  0  0  0  0  0  0  0  0  0  0  0
   25.5636    3.4926   31.7571 C   0  0  0  0  0  0  0  0  0  0  0  0
   25.5713    4.3175   30.6418 C   0  0  0  0  0  0  0  0  0  0  0  0
   24.4815    5.0078   30.2171 C   0  0  0  0  0  0  0  0  0  0  0  0
   23.3066    4.8625   30.9545 C   0  0  0  0  0  0  0  0  0  0  0  0
   23.2741    4.0498   32.0647 C   0  0  0  0  0  0  0  0  0  0  0  0
   27.6783    5.4452   26.8447 C   0  0  0  0  0  0  0  0  0  0  0  0
   28.6576    4.5719   27.3038 C   0  0  0  0  0  0  0  0  0  0  0  0
   29.9200    4.6484   26.7866 C   0  0  0  0  0  0  0  0  0  0  0  0
   30.2428    5.5778   25.8167 C   0  0  0  0  0  0  0  0  0  0  0  0
   29.2678    6.4412   25.3648 C   0  0  0  0  0  0  0  0  0  0  0  0
   27.9962    6.3538   25.8942 C   0  0  0  0  0  0  0  0  0  0  0  0
   31.8578    5.6376   25.1910 Cl  0  0  0  0  0  0  0  0  0  0  0  0
   22.9722    7.8668   29.4866 C   0  0  0  0  0  0  0  0  0  0  0  0
   22.5024    8.3620   30.8010 C   0  0  0  0  0  0  0  0  0  0  0  0
   22.8509    9.6741   31.2028 N   0  0  0  0  0  0  0  0  0  0  0  0
   22.0940   10.1656   32.3346 C   0  0  0  0  0  0  0  0  0  0  0  0
   21.3836   11.4710   32.0687 C   0  0  0  0  0  0  0  0  0  0  0  0
   22.1625   12.4449   31.4994 O   0  0  0  0  0  0  0  0  0  0  0  0
   22.9150   11.9984   30.4293 C   0  0  0  0  0  0  0  0  0  0  0  0
   22.5164   10.5930   30.0943 C   0  0  0  0  0  0  0  0  0  0  0  0
   23.8663    9.8103   31.3362 H   0  0  0  0  0  0  0  0  0  0  0  0
 10 11  1  0  0  0
 11 12  2  0  0  0
 11 16  1  0  0  0
 12 13  1  0  0  0
 13 14  2  0  0  0
 14 15  1  0  0  0
 14  1  1  0  0  0
 15 16  2  0  0  0
  1  2  1  0  0  0
  1  7  1  0  0  0
  2  3  1  0  0  0
  2 24  1  0  0  0
  3  4  2  0  0  0
  3  5  1  0  0  0
  5  6  2  0  0  0
  5  7  1  0  0  0
  7  8  2  0  0  0
  8  9  1  0  0  0
  8 17  1  0  0  0
 17 18  2  0  0  0
 17 22  1  0  0  0
 18 19  1  0  0  0
 19 20  2  0  0  0
 20 21  1  0  0  0
 20 23  1  0  0  0
 21 22  2  0  0  0
 24 25  1  0  0  0
 25 26  1  0  0  0
 26 27  1  0  0  0
 26 31  1  0  0  0
 27 28  1  0  0  0
 28 29  1  0  0  0
 29 30  1  0  0  0
 30 31  1  0  0  0
 26 32  1  0  0  0
M  CHG 1   9  -1
M  CHG 1  26   1
M  END
> <minimizedAffinity>
-7.06575

$$$$
1630


 39 43  0  0  0  0  0  0  0  0999 V2000
   23.6484   -0.9367   35.3898 Cl  0  0  0  0  0  0  0  0  0  0  0  0
   24.3260    0.2427   34.2568 C   0  0  0  0  0  0  0  0  0  0  0  0
   25.5541    0.8065   34.5035 C   0  0  0  0  0  0  0  0  0  0  0  0
   26.0884    1.7315   33.6161 C   0  0  0  0  0  0  0  0  0  0  0  0
   25.4495    2.1309   32.4737 C   0  0  0  0  0  0  0  0  0  0  0  0
   24.1974    1.5383   32.2470 C   0  0  0  0  0  0  0  0  0  0  0  0
   23.6581    0.6199   33.1206 C   0  0  0  0  0  0  0  0  0  0  0  0
   26.2717    3.1034   31.7727 C   0  0  0  0  0  0  0  0  0  0  0  0
   26.6305    2.5347   30.4765 N   0  0  0  0  0  0  0  0  0  0  0  0
   25.7677    3.2339   29.5639 C   0  0  0  0  0  0  0  0  0  0  0  0
   25.8715    4.6571   30.0630 C   0  0  0  0  0  0  0  0  0  0  0  0
   25.6573    4.4406   31.5453 C   0  0  0  0  0  0  0  0  0  0  0  0
   24.2246    4.5568   31.7279 C   0  0  0  0  0  0  0  0  0  0  0  0
   23.5635    4.1850   32.7225 O   0  0  0  0  0  0  0  0  0  0  0  0
   23.6579    5.1725   30.5795 N   0  0  0  0  0  0  0  0  0  0  0  0
   24.6997    5.4692   29.6480 C   0  0  0  0  0  0  0  0  0  0  0  0
   24.6966    6.2430   28.6614 O   0  0  0  0  0  0  0  0  0  0  0  0
   27.4890    3.2497   32.6055 C   0  0  0  0  0  0  0  0  0  0  0  0
   28.4947    3.9884   32.3879 O   0  0  0  0  0  0  0  0  0  0  0  0
   27.3386    2.4013   33.7216 N   0  0  0  0  0  0  0  0  0  0  0  0
   26.2892    0.4046   35.7346 C   0  0  0  0  0  0  0  0  0  0  0  0
   26.4952    1.5017   30.4972 H   0  0  0  0  0  0  0  0  0  0  0  0
   28.0478    2.2940   34.4958 H   0  0  0  0  0  0  0  0  0  0  0  0
   22.2681    5.4899   30.3105 C   0  0  0  0  0  0  0  0  0  0  0  0
   21.6932    6.3837   31.3316 C   0  0  0  0  0  0  0  0  0  0  0  0
   22.0884    7.7043   31.3289 C   0  0  0  0  0  0  0  0  0  0  0  0
   21.5436    8.5408   32.2935 C   0  0  0  0  0  0  0  0  0  0  0  0
   20.6469    8.0803   33.2159 C   0  0  0  0  0  0  0  0  0  0  0  0
   20.2771    6.7566   33.1850 C   0  0  0  0  0  0  0  0  0  0  0  0
   20.7823    5.8762   32.2537 C   0  0  0  0  0  0  0  0  0  0  0  0
   22.9946    8.1465   30.3882 O   0  0  0  0  0  0  0  0  0  0  0  0
   22.8051    9.2438   29.5512 C   0  0  0  0  0  0  0  0  0  0  0  0
   26.2443    3.0960   28.1352 C   0  0  0  0  0  0  0  0  0  0  0  0
   27.6567    3.6405   28.0922 C   0  0  0  0  0  0  0  0  0  0  0  0
   27.8040    4.7083   27.0722 C   0  0  0  0  0  0  0  0  0  0  0  0
   28.9612    5.0805   26.7266 O   0  0  0  0  0  0  0  0  0  0  0  0
   26.6128    5.2624   26.5311 N   0  0  0  0  0  0  0  0  0  0  0  0
   25.8103    4.6313   26.3684 H   0  0  0  0  0  0  0  0  0  0  0  0
   26.6168    6.2930   26.3242 H   0  0  0  0  0  0  0  0  0  0  0  0
  1  2  1  0  0  0
  2  3  2  0  0  0
  2  7  1  0  0  0
  3  4  1  0  0  0
  3 21  1  0  0  0
  4  5  2  0  0  0
  4 20  1  0  0  0
  5  6  1  0  0  0
  5  8  1  0  0  0
  6  7  2  0  0  0
  8  9  1  0  0  0
  8 12  1  0  0  0
  8 18  1  0  0  0
  9 10  1  0  0  0
 10 11  1  0  0  0
 10 33  1  0  0  0
 11 12  1  0  0  0
 11 16  1  0  0  0
 12 13  1  0  0  0
 13 14  2  0  0  0
 13 15  1  0  0  0
 15 16  1  0  0  0
 15 24  1  0  0  0
 16 17  2  0  0  0
 24 25  1  0  0  0
 25 26  2  0  0  0
 25 30  1  0  0  0
 26 27  1  0  0  0
 26 31  1  0  0  0
 27 28  2  0  0  0
 28 29  1  0  0  0
 29 30  2  0  0  0
 31 32  1  0  0  0
 33 34  1  0  0  0
 34 35  1  0  0  0
 35 36  2  0  0  0
 35 37  1  0  0  0
 18 19  2  0  0  0
 18 20  1  0  0  0
  9 22  1  0  0  0
 37 38  1  0  0  0
 37 39  1  0  0  0
 20 23  1  0  0  0
M  END
> <minimizedAffinity>
-7.98411

$$$$
1631


 29 32  0  0  0  0  0  0  0  0999 V2000
   23.6931   11.7489   29.2410 C   0  0  0  0  0  0  0  0  0  0  0  0
   25.0917   11.9795   29.0163 N   0  0  0  0  0  0  0  0  0  0  0  0
   25.8794   11.0953   29.8071 C   0  0  0  0  0  0  0  0  0  0  0  0
   27.1126   11.1937   30.0726 O   0  0  0  0  0  0  0  0  0  0  0  0
   24.9937   10.0114   30.2814 C   0  0  0  0  0  0  0  0  0  0  0  0
   25.3503    9.0565   31.0080 O   0  0  0  0  0  0  0  0  0  0  0  0
   23.6843   10.3244   29.7243 C   0  0  0  0  0  0  0  0  0  0  0  0
   22.6756    9.4793   29.7025 C   0  0  0  0  0  0  0  0  0  0  0  0
   21.4567    9.9520   29.1745 O   0  0  0  0  0  0  0  0  0  0  0  0
   19.4455   14.2937   30.9684 Cl  0  0  0  0  0  0  0  0  0  0  0  0
   21.1410   13.8735   31.0720 C   0  0  0  0  0  0  0  0  0  0  0  0
   21.7430   13.0242   30.1740 C   0  0  0  0  0  0  0  0  0  0  0  0
   23.0851   12.6708   30.2330 C   0  0  0  0  0  0  0  0  0  0  0  0
   23.8333   13.2233   31.2678 C   0  0  0  0  0  0  0  0  0  0  0  0
   23.2558   14.0763   32.1809 C   0  0  0  0  0  0  0  0  0  0  0  0
   21.9182   14.3978   32.0814 C   0  0  0  0  0  0  0  0  0  0  0  0
   25.6303   12.9465   28.1400 C   0  0  0  0  0  0  0  0  0  0  0  0
   26.7456   12.5751   27.4574 N   0  0  0  0  0  0  0  0  0  0  0  0
   27.3487   13.3969   26.5995 C   0  0  0  0  0  0  0  0  0  0  0  0
   26.8099   14.6492   26.4130 C   0  0  0  0  0  0  0  0  0  0  0  0
   25.6774   15.0037   27.1152 C   0  0  0  0  0  0  0  0  0  0  0  0
   25.0761   14.1684   27.9805 N   0  0  0  0  0  0  0  0  0  0  0  0
   27.1644   11.6138   27.5918 H   0  0  0  0  0  0  0  0  0  0  0  0
   22.7418    8.1045   30.1786 C   0  0  0  0  0  0  0  0  0  0  0  0
   22.0199    7.7334   31.3219 C   0  0  0  0  0  0  0  0  0  0  0  0
   22.0406    6.4339   31.7785 C   0  0  0  0  0  0  0  0  0  0  0  0
   22.7598    5.4418   31.1456 C   0  0  0  0  0  0  0  0  0  0  0  0
   23.4747    5.7853   30.0206 C   0  0  0  0  0  0  0  0  0  0  0  0
   23.4529    7.1025   29.5600 C   0  0  0  0  0  0  0  0  0  0  0  0
 10 11  1  0  0  0
 11 12  2  0  0  0
 11 16  1  0  0  0
 12 13  1  0  0  0
 13 14  2  0  0  0
 13  1  1  0  0  0
 14 15  1  0  0  0
 15 16  2  0  0  0
  1  2  1  0  0  0
  1  7  1  0  0  0
  2  3  1  0  0  0
  2 17  1  0  0  0
  3  4  2  0  0  0
  3  5  1  0  0  0
  5  6  2  0  0  0
  5  7  1  0  0  0
  7  8  2  0  0  0
  8  9  1  0  0  0
  8 24  1  0  0  0
 24 25  2  0  0  0
 24 29  1  0  0  0
 25 26  1  0  0  0
 26 27  2  0  0  0
 27 28  1  0  0  0
 28 29  2  0  0  0
 17 18  2  0  0  0
 17 22  1  0  0  0
 18 19  1  0  0  0
 19 20  2  0  0  0
 20 21  1  0  0  0
 21 22  2  0  0  0
 18 23  1  0  0  0
M  CHG 1   9  -1
M  END
> <minimizedAffinity>
-7.80482

$$$$
1637


 29 32  0  0  0  0  0  0  0  0999 V2000
   22.3958   14.5410   31.2099 C   0  0  0  0  0  0  0  0  0  0  0  0
   23.5894   13.9459   31.3132 N   0  0  0  0  0  0  0  0  0  0  0  0
   23.8937   12.7734   30.7648 C   0  0  0  0  0  0  0  0  0  0  0  0
   22.8809   12.1250   30.0399 C   0  0  0  0  0  0  0  0  0  0  0  0
   21.6785   12.7298   29.9387 C   0  0  0  0  0  0  0  0  0  0  0  0
   21.4429   13.9382   30.5227 N   0  0  0  0  0  0  0  0  0  0  0  0
   20.6804   12.0977   29.2122 O   0  0  0  0  0  0  0  0  0  0  0  0
   23.2189   10.7767   29.5769 C   0  0  0  0  0  0  0  0  0  0  0  0
   23.7299   10.0927   30.7246 N   0  0  0  0  0  0  0  0  0  0  0  0
   25.1697   10.6036   30.8029 C   0  0  0  0  0  0  0  0  0  0  0  0
   25.2080   12.0889   30.8848 C   0  0  0  0  0  0  0  0  0  0  0  0
   20.8483   11.5717   28.3486 H   0  0  0  0  0  0  0  0  0  0  0  0
   22.1322   16.0575   32.0906 S   0  0  0  0  0  0  0  0  0  0  0  0
   20.7567   16.2227   32.5051 O   0  0  0  0  0  0  0  0  0  0  0  0
   22.5814   17.1605   31.1803 O   0  0  0  0  0  0  0  0  0  0  0  0
   23.2873   16.0081   33.4831 C   0  0  0  0  0  0  0  0  0  0  0  0
   23.2248   10.5444   32.0714 C   0  0  0  0  0  0  0  0  0  0  0  0
   22.0497    9.5747   32.2235 C   0  0  0  0  0  0  0  0  0  0  0  0
   20.8211    9.8918   32.6549 C   0  0  0  0  0  0  0  0  0  0  0  0
   19.7576    8.9570   32.7778 C   0  0  0  0  0  0  0  0  0  0  0  0
   20.0899    7.6521   32.4019 C   0  0  0  0  0  0  0  0  0  0  0  0
   19.1082    6.7101   32.4987 C   0  0  0  0  0  0  0  0  0  0  0  0
   17.7957    6.9717   32.9503 C   0  0  0  0  0  0  0  0  0  0  0  0
   17.5083    8.3008   33.3114 C   0  0  0  0  0  0  0  0  0  0  0  0
   18.5045    9.2305   33.2099 C   0  0  0  0  0  0  0  0  0  0  0  0
   21.2649    7.3402   31.9750 O   0  0  0  0  0  0  0  0  0  0  0  0
   22.2530    8.2423   31.8720 C   0  0  0  0  0  0  0  0  0  0  0  0
   23.4280    7.9116   31.4534 O   0  0  0  0  0  0  0  0  0  0  0  0
   20.4874   11.5484   33.0304 Cl  0  0  0  0  0  0  0  0  0  0  0  0
 13 14  2  0  0  0
 13 15  2  0  0  0
 13 16  1  0  0  0
 13  1  1  0  0  0
  1  2  2  0  0  0
  1  6  1  0  0  0
  2  3  1  0  0  0
  3  4  2  0  0  0
  3 11  1  0  0  0
  4  5  1  0  0  0
  4  8  1  0  0  0
  5  6  2  0  0  0
  5  7  1  0  0  0
  8  9  1  0  0  0
  9 10  1  0  0  0
  9 17  1  0  0  0
 10 11  1  0  0  0
 17 18  1  0  0  0
 18 19  2  0  0  0
 18 27  1  0  0  0
 19 20  1  0  0  0
 19 29  1  0  0  0
 20 21  2  0  0  0
 20 25  1  0  0  0
 21 22  1  0  0  0
 21 26  1  0  0  0
 22 23  2  0  0  0
 23 24  1  0  0  0
 24 25  2  0  0  0
 26 27  1  0  0  0
 27 28  2  0  0  0
  7 12  1  0  0  0
M  END
> <minimizedAffinity>
-9.25291

$$$$
1638


 38 41  0  0  0  0  0  0  0  0999 V2000
   25.6609    6.5049   29.9105 C   0  0  0  0  0  0  0  0  0  0  0  0
   26.2694    7.4448   29.0893 C   0  0  0  0  0  0  0  0  0  0  0  0
   26.0984    8.7708   29.3409 N   0  0  0  0  0  0  0  0  0  0  0  0
   25.3578    9.2251   30.3607 C   0  0  0  0  0  0  0  0  0  0  0  0
   24.7652    8.3201   31.1591 N   0  0  0  0  0  0  0  0  0  0  0  0
   24.9049    6.9998   30.9514 C   0  0  0  0  0  0  0  0  0  0  0  0
   27.0466    6.9626   28.0206 N   0  0  0  0  0  0  0  0  0  0  0  0
   26.8620    7.1939   27.0227 H   0  0  0  0  0  0  0  0  0  0  0  0
   27.8547    6.3389   28.2236 H   0  0  0  0  0  0  0  0  0  0  0  0
   25.1832   10.6152   30.6255 N   0  0  0  0  0  0  0  0  0  0  0  0
   25.1760   11.6034   29.5745 C   0  0  0  0  0  0  0  0  0  0  0  0
   23.9564   12.4826   29.5591 C   0  0  0  0  0  0  0  0  0  0  0  0
   23.2998   12.5781   30.9264 C   0  0  0  0  0  0  0  0  0  0  0  0
   24.4874   12.5010   31.9011 C   0  0  0  0  0  0  0  0  0  0  0  0
   25.0070   11.1045   31.9810 C   0  0  0  0  0  0  0  0  0  0  0  0
   22.4053   11.5645   31.2236 N   0  0  0  0  0  0  0  0  0  0  0  0
   21.8050   10.7771   30.2184 C   0  0  0  0  0  0  0  0  0  0  0  0
   21.5840    9.3745   30.8097 C   0  0  0  0  0  0  0  0  0  0  0  0
   21.5227    9.5081   32.3072 C   0  0  0  0  0  0  0  0  0  0  0  0
   20.7729   10.7396   32.7474 C   0  0  0  0  0  0  0  0  0  0  0  0
   21.3532   11.9892   32.1059 C   0  0  0  0  0  0  0  0  0  0  0  0
   22.7526   13.9464   31.0699 C   0  0  0  0  0  0  0  0  0  0  0  0
   22.9667   14.6263   32.1298 O   0  0  0  0  0  0  0  0  0  0  0  0
   21.9842   14.5766   30.0850 N   0  0  0  0  0  0  0  0  0  0  0  0
   20.9429   14.6613   30.2432 H   0  0  0  0  0  0  0  0  0  0  0  0
   22.3289   14.9884   29.1950 H   0  0  0  0  0  0  0  0  0  0  0  0
   25.8536    4.7871   29.6282 S   0  0  0  0  0  0  0  0  0  0  0  0
   25.1568    4.3492   28.3814 O   0  0  0  0  0  0  0  0  0  0  0  0
   27.3330    4.5012   29.5761 O   0  0  0  0  0  0  0  0  0  0  0  0
   25.1929    3.9344   31.0315 C   0  0  0  0  0  0  0  0  0  0  0  0
   23.8418    3.9983   31.3051 C   0  0  0  0  0  0  0  0  0  0  0  0
   23.3710    3.3182   32.4085 C   0  0  0  0  0  0  0  0  0  0  0  0
   24.2199    2.5856   33.2317 C   0  0  0  0  0  0  0  0  0  0  0  0
   25.5628    2.5459   32.9249 C   0  0  0  0  0  0  0  0  0  0  0  0
   26.0644    3.2160   31.8277 C   0  0  0  0  0  0  0  0  0  0  0  0
   26.6571    1.6191   33.9606 Cl  0  0  0  0  0  0  0  0  0  0  0  0
   23.0384    4.7288   30.4743 O   0  0  0  0  0  0  0  0  0  0  0  0
   21.7627    5.2092   30.7938 C   0  0  0  0  0  0  0  0  0  0  0  0
 27 28  2  0  0  0
 27 29  2  0  0  0
 27  1  1  0  0  0
 27 30  1  0  0  0
  1  2  2  0  0  0
  1  6  1  0  0  0
  2  3  1  0  0  0
  2  7  1  0  0  0
  3  4  2  0  0  0
  4  5  1  0  0  0
  4 10  1  0  0  0
  5  6  2  0  0  0
 10 11  1  0  0  0
 10 15  1  0  0  0
 11 12  1  0  0  0
 12 13  1  0  0  0
 13 14  1  0  0  0
 13 16  1  0  0  0
 13 22  1  0  0  0
 14 15  1  0  0  0
 16 17  1  0  0  0
 16 21  1  0  0  0
 17 18  1  0  0  0
 18 19  1  0  0  0
 19 20  1  0  0  0
 20 21  1  0  0  0
 22 23  2  0  0  0
 22 24  1  0  0  0
 30 31  2  0  0  0
 30 35  1  0  0  0
 31 32  1  0  0  0
 31 37  1  0  0  0
 32 33  2  0  0  0
 33 34  1  0  0  0
 34 35  2  0  0  0
 34 36  1  0  0  0
 37 38  1  0  0  0
 24 25  1  0  0  0
 24 26  1  0  0  0
  7  8  1  0  0  0
  7  9  1  0  0  0
M  END
> <minimizedAffinity>
-8.01709

$$$$
1651


 23 26  0  0  0  0  0  0  0  0999 V2000
   22.4640    4.5115   31.2489 Cl  0  0  0  0  0  0  0  0  0  0  0  0
   21.9099    6.1255   31.7036 C   0  0  0  0  0  0  0  0  0  0  0  0
   22.6559    7.2469   31.4354 C   0  0  0  0  0  0  0  0  0  0  0  0
   22.1937    8.5189   31.8069 C   0  0  0  0  0  0  0  0  0  0  0  0
   20.9958    8.6842   32.4423 C   0  0  0  0  0  0  0  0  0  0  0  0
   20.2255    7.5402   32.7203 C   0  0  0  0  0  0  0  0  0  0  0  0
   20.7077    6.3109   32.3435 C   0  0  0  0  0  0  0  0  0  0  0  0
   20.7223   10.0469   32.7251 N   0  0  0  0  0  0  0  0  0  0  0  0
   21.8258   10.7871   32.2334 C   0  0  0  0  0  0  0  0  0  0  0  0
   21.9215   12.0467   32.3155 O   0  0  0  0  0  0  0  0  0  0  0  0
   22.8062    9.8580   31.6295 C   0  0  0  0  0  0  0  0  0  0  0  0
   24.0850    9.9936   32.4288 C   0  0  0  0  0  0  0  0  0  0  0  0
   24.6344   11.3419   32.0609 C   0  0  0  0  0  0  0  0  0  0  0  0
   24.9298   12.2110   32.9015 O   0  0  0  0  0  0  0  0  0  0  0  0
   24.8077   11.5923   30.6610 N   0  0  0  0  0  0  0  0  0  0  0  0
   23.9557   10.9458   29.7244 C   0  0  0  0  0  0  0  0  0  0  0  0
   23.8813   10.9745   28.3661 N   0  0  0  0  0  0  0  0  0  0  0  0
   22.9084   10.1794   27.9925 N   0  0  0  0  0  0  0  0  0  0  0  0
   22.3167    9.6094   29.0539 C   0  0  0  0  0  0  0  0  0  0  0  0
   22.9829   10.0957   30.1858 C   0  0  0  0  0  0  0  0  0  0  0  0
   19.5265   10.5657   33.3967 C   0  0  0  0  0  0  0  0  0  0  0  0
   25.5493   12.2413   30.3173 H   0  0  0  0  0  0  0  0  0  0  0  0
   24.5208   11.5530   27.7733 H   0  0  0  0  0  0  0  0  0  0  0  0
  1  2  1  0  0  0
  2  3  2  0  0  0
  2  7  1  0  0  0
  3  4  1  0  0  0
  4  5  2  0  0  0
  4 11  1  0  0  0
  5  6  1  0  0  0
  5  8  1  0  0  0
  6  7  2  0  0  0
  8  9  1  0  0  0
  8 21  1  0  0  0
  9 10  2  0  0  0
  9 11  1  0  0  0
 11 12  1  0  0  0
 11 20  1  0  0  0
 12 13  1  0  0  0
 13 14  2  0  0  0
 13 15  1  0  0  0
 15 16  1  0  0  0
 16 17  1  0  0  0
 16 20  2  0  0  0
 17 18  1  0  0  0
 18 19  2  0  0  0
 19 20  1  0  0  0
 15 22  1  0  0  0
 17 23  1  0  0  0
M  END
> <minimizedAffinity>
-6.06790

$$$$
1657


 33 36  0  0  0  0  0  0  0  0999 V2000
   20.9935    5.6439   32.4351 Cl  0  0  0  0  0  0  0  0  0  0  0  0
   21.5053    7.1592   31.6811 C   0  0  0  0  0  0  0  0  0  0  0  0
   21.1492    8.3671   32.2408 C   0  0  0  0  0  0  0  0  0  0  0  0
   21.5456    9.5281   31.6607 C   0  0  0  0  0  0  0  0  0  0  0  0
   22.3163    9.5094   30.4903 C   0  0  0  0  0  0  0  0  0  0  0  0
   22.6592    8.2935   29.9495 C   0  0  0  0  0  0  0  0  0  0  0  0
   22.2627    7.0961   30.5308 C   0  0  0  0  0  0  0  0  0  0  0  0
   22.7368   10.7233   29.8763 N   0  0  0  0  0  0  0  0  0  0  0  0
   22.8843   11.9140   30.6996 C   0  0  0  0  0  0  0  0  0  0  0  0
   21.6821   12.0112   31.4941 N   0  0  0  0  0  0  0  0  0  0  0  0
   21.2202   10.8561   32.1754 C   0  0  0  0  0  0  0  0  0  0  0  0
   20.5286   10.9080   33.2251 O   0  0  0  0  0  0  0  0  0  0  0  0
   23.0062   13.0985   29.8008 C   0  0  0  0  0  0  0  0  0  0  0  0
   24.4249   13.3722   29.3572 C   0  0  0  0  0  0  0  0  0  0  0  0
   25.0878   12.1735   28.8875 N   0  0  0  0  0  0  0  0  0  0  0  0
   25.3121   11.0144   29.7279 C   0  0  0  0  0  0  0  0  0  0  0  0
   25.7686   10.0086   29.1376 O   0  0  0  0  0  0  0  0  0  0  0  0
   25.0856   10.8326   31.1711 C   0  0  0  0  0  0  0  0  0  0  0  0
   24.0288   11.7655   31.6818 C   0  0  0  0  0  0  0  0  0  0  0  0
   22.9204   10.6966   28.8518 H   0  0  0  0  0  0  0  0  0  0  0  0
   21.1345   12.8884   31.5938 H   0  0  0  0  0  0  0  0  0  0  0  0
   25.5351   12.0636   27.5591 C   0  0  0  0  0  0  0  0  0  0  0  0
   26.8823   12.4092   27.1662 C   0  0  0  0  0  0  0  0  0  0  0  0
   27.6260   11.3160   26.9910 O   0  0  0  0  0  0  0  0  0  0  0  0
   27.4783   13.6319   26.9540 N   0  0  0  0  0  0  0  0  0  0  0  0
   28.9082   13.6632   26.5512 C   0  0  0  0  0  0  0  0  0  0  0  0
   28.9489   14.6845   25.4035 C   0  0  0  0  0  0  0  0  0  0  0  0
   27.6658   14.8485   24.8068 N   0  0  0  0  0  0  0  0  0  0  0  0
   26.6729   15.4806   25.6232 C   0  0  0  0  0  0  0  0  0  0  0  0
   26.8813   14.9053   27.0529 C   0  0  0  0  0  0  0  0  0  0  0  0
   27.6554   15.2448   23.4397 C   0  0  0  0  0  0  0  0  0  0  0  0
   29.0236   15.2307   22.7895 C   0  0  0  0  0  0  0  0  0  0  0  0
   26.6979   14.4537   22.5907 C   0  0  0  0  0  0  0  0  0  0  0  0
  1  2  1  0  0  0
  2  3  2  0  0  0
  2  7  1  0  0  0
  3  4  1  0  0  0
  4  5  2  0  0  0
  4 11  1  0  0  0
  5  6  1  0  0  0
  5  8  1  0  0  0
  6  7  2  0  0  0
  8  9  1  0  0  0
  9 10  1  0  0  0
  9 13  1  0  0  0
  9 19  1  0  0  0
 10 11  1  0  0  0
 11 12  2  0  0  0
 13 14  1  0  0  0
 14 15  1  0  0  0
 15 16  1  0  0  0
 15 22  1  0  0  0
 16 17  2  0  0  0
 16 18  1  0  0  0
 18 19  1  0  0  0
 22 23  1  0  0  0
 23 24  2  0  0  0
 23 25  1  0  0  0
 25 26  1  0  0  0
 25 30  1  0  0  0
 26 27  1  0  0  0
 27 28  1  0  0  0
 28 29  1  0  0  0
 28 31  1  0  0  0
 29 30  1  0  0  0
 31 32  1  0  0  0
 31 33  1  0  0  0
  8 20  1  0  0  0
 10 21  1  0  0  0
M  END
> <minimizedAffinity>
-8.78708

$$$$
1660


 31 34  0  0  0  0  0  0  0  0999 V2000
   20.8264   10.1412   32.5168 N   0  0  0  0  0  0  0  0  0  0  0  0
   19.9271    9.7419   33.3749 N   0  0  0  0  0  0  0  0  0  0  0  0
   19.8014    8.4109   33.4076 C   0  0  0  0  0  0  0  0  0  0  0  0
   20.7045    7.9025   32.4837 C   0  0  0  0  0  0  0  0  0  0  0  0
   21.3289    9.0230   31.9452 C   0  0  0  0  0  0  0  0  0  0  0  0
   22.2547    8.7920   31.0105 N   0  0  0  0  0  0  0  0  0  0  0  0
   22.5656    7.5384   30.6138 C   0  0  0  0  0  0  0  0  0  0  0  0
   21.9807    6.4389   31.1146 N   0  0  0  0  0  0  0  0  0  0  0  0
   21.0326    6.6334   32.0676 C   0  0  0  0  0  0  0  0  0  0  0  0
   20.4566    5.6337   32.5648 O   0  0  0  0  0  0  0  0  0  0  0  0
   22.2374   15.8808   31.6378 Cl  0  0  0  0  0  0  0  0  0  0  0  0
   21.8732   14.1987   31.8514 C   0  0  0  0  0  0  0  0  0  0  0  0
   22.6670   13.1743   31.3878 C   0  0  0  0  0  0  0  0  0  0  0  0
   22.3610   11.8401   31.5720 C   0  0  0  0  0  0  0  0  0  0  0  0
   21.2225   11.4755   32.2426 C   0  0  0  0  0  0  0  0  0  0  0  0
   20.4320   12.5150   32.7032 C   0  0  0  0  0  0  0  0  0  0  0  0
   20.7196   13.8513   32.5299 C   0  0  0  0  0  0  0  0  0  0  0  0
   22.3246    5.0758   30.6980 C   0  0  0  0  0  0  0  0  0  0  0  0
   23.7737    4.8210   30.7797 C   0  0  0  0  0  0  0  0  0  0  0  0
   24.4686    5.3946   29.8684 O   0  0  0  0  0  0  0  0  0  0  0  0
   24.4381    4.0427   31.7245 N   0  0  0  0  0  0  0  0  0  0  0  0
   25.8911    3.8261   31.6436 C   0  0  0  0  0  0  0  0  0  0  0  0
   26.0318    2.3213   31.3783 C   0  0  0  0  0  0  0  0  0  0  0  0
   25.2860    1.5693   32.3527 N   0  0  0  0  0  0  0  0  0  0  0  0
   24.6231    2.3131   33.4075 C   0  0  0  0  0  0  0  0  0  0  0  0
   23.7730    3.4257   32.8505 C   0  0  0  0  0  0  0  0  0  0  0  0
   25.1799    0.1634   32.2738 C   0  0  0  0  0  0  0  0  0  0  0  0
   25.7479   -0.4185   31.2765 O   0  0  0  0  0  0  0  0  0  0  0  0
   24.5256   -0.6551   33.1666 O   0  0  0  0  0  0  0  0  0  0  0  0
   23.2086   -1.1610   32.8757 C   0  0  0  0  0  0  0  0  0  0  0  0
   22.2960   -0.6113   33.9572 C   0  0  0  0  0  0  0  0  0  0  0  0
 11 12  1  0  0  0
 12 13  2  0  0  0
 12 17  1  0  0  0
 13 14  1  0  0  0
 14 15  2  0  0  0
 15 16  1  0  0  0
 15  1  1  0  0  0
 16 17  2  0  0  0
  1  2  1  0  0  0
  1  5  1  0  0  0
  2  3  2  0  0  0
  3  4  1  0  0  0
  4  5  2  0  0  0
  4  9  1  0  0  0
  5  6  1  0  0  0
  6  7  2  0  0  0
  7  8  1  0  0  0
  8  9  1  0  0  0
  8 18  1  0  0  0
  9 10  2  0  0  0
 18 19  1  0  0  0
 19 20  2  0  0  0
 19 21  1  0  0  0
 21 22  1  0  0  0
 21 26  1  0  0  0
 22 23  1  0  0  0
 23 24  1  0  0  0
 24 25  1  0  0  0
 24 27  1  0  0  0
 25 26  1  0  0  0
 27 28  2  0  0  0
 27 29  1  0  0  0
 29 30  1  0  0  0
 30 31  1  0  0  0
M  END
> <minimizedAffinity>
-8.63184

$$$$
1666


 30 34  0  0  0  0  0  0  0  0999 V2000
   24.4489    7.4503   29.2373 N   0  0  0  0  0  0  0  0  0  0  0  0
   23.0316    7.3561   29.4694 C   0  0  0  0  0  0  0  0  0  0  0  0
   22.5544    8.4103   30.4417 C   0  0  0  0  0  0  0  0  0  0  0  0
   23.3406    8.3346   31.6987 N   0  0  0  0  0  0  0  0  0  0  0  0
   24.7199    8.6666   31.3718 C   0  0  0  0  0  0  0  0  0  0  0  0
   25.0145    8.5946   29.8836 C   0  0  0  0  0  0  0  0  0  0  0  0
   25.3188    6.0147   29.2825 S   0  0  0  0  0  0  0  0  0  0  0  0
   25.2273    5.3683   27.9061 O   0  0  0  0  0  0  0  0  0  0  0  0
   26.7990    6.3746   29.4175 O   0  0  0  0  0  0  0  0  0  0  0  0
   24.9479    4.9034   30.5382 C   0  0  0  0  0  0  0  0  0  0  0  0
   25.9166    4.0794   31.0576 C   0  0  0  0  0  0  0  0  0  0  0  0
   25.5832    3.2040   32.0757 C   0  0  0  0  0  0  0  0  0  0  0  0
   24.3046    3.1222   32.5963 C   0  0  0  0  0  0  0  0  0  0  0  0
   23.3356    3.9515   32.0718 C   0  0  0  0  0  0  0  0  0  0  0  0
   23.6715    4.8311   31.0487 C   0  0  0  0  0  0  0  0  0  0  0  0
   23.8429    1.9148   33.9979 Br  0  0  0  0  0  0  0  0  0  0  0  0
   22.7733    9.3812   32.5214 C   0  0  0  0  0  0  0  0  0  0  0  0
   21.5659   10.0617   32.0335 C   0  0  0  0  0  0  0  0  0  0  0  0
   21.5963   11.4617   31.7775 N   0  0  0  0  0  0  0  0  0  0  0  0
   22.3484   12.2181   30.8355 C   0  0  0  0  0  0  0  0  0  0  0  0
   23.4358   11.8775   30.3474 O   0  0  0  0  0  0  0  0  0  0  0  0
   21.6181   13.4738   30.5387 C   0  0  0  0  0  0  0  0  0  0  0  0
   20.8844   13.6928   31.8817 C   0  0  0  0  0  0  0  0  0  0  0  0
   21.7037   14.6779   32.6269 C   0  0  0  0  0  0  0  0  0  0  0  0
   23.0907   14.4955   31.9878 C   0  0  0  0  0  0  0  0  0  0  0  0
   22.5536   14.6292   30.5520 C   0  0  0  0  0  0  0  0  0  0  0  0
   21.7152   15.8618   30.7298 C   0  0  0  0  0  0  0  0  0  0  0  0
   21.4029   16.0301   32.0148 C   0  0  0  0  0  0  0  0  0  0  0  0
   20.7371   12.3787   32.4907 C   0  0  0  0  0  0  0  0  0  0  0  0
   19.9858   12.1227   33.4648 O   0  0  0  0  0  0  0  0  0  0  0  0
  7  8  2  0  0  0
  7  9  2  0  0  0
  7  1  1  0  0  0
  7 10  1  0  0  0
  1  2  1  0  0  0
  1  6  1  0  0  0
  2  3  1  0  0  0
  3  4  1  0  0  0
  4  5  1  0  0  0
  4 17  1  0  0  0
  5  6  1  0  0  0
 17 18  1  0  0  0
 18 19  1  0  0  0
 19 20  1  0  0  0
 19 29  1  0  0  0
 20 21  2  0  0  0
 20 22  1  0  0  0
 22 23  1  0  0  0
 22 26  1  0  0  0
 23 24  1  0  0  0
 23 29  1  0  0  0
 24 25  1  0  0  0
 24 28  1  0  0  0
 25 26  1  0  0  0
 26 27  1  0  0  0
 27 28  2  0  0  0
 29 30  2  0  0  0
 10 11  2  0  0  0
 10 15  1  0  0  0
 11 12  1  0  0  0
 12 13  2  0  0  0
 13 14  1  0  0  0
 13 16  1  0  0  0
 14 15  2  0  0  0
M  END
> <minimizedAffinity>
-8.99126

$$$$
1673


 35 38  0  0  0  0  0  0  0  0999 V2000
   23.9838    6.3194   31.3555 C   0  0  0  0  0  0  0  0  0  0  0  0
   25.0793    7.0621   30.6386 C   0  0  0  0  0  0  0  0  0  0  0  0
   25.5468    6.2251   29.6257 N   0  0  0  0  0  0  0  0  0  0  0  0
   25.5414    4.9034   30.2983 C   0  0  0  0  0  0  0  0  0  0  0  0
   26.3420    3.9492   30.1048 O   0  0  0  0  0  0  0  0  0  0  0  0
   24.4259    4.9125   31.2308 C   0  0  0  0  0  0  0  0  0  0  0  0
   23.9450    3.8987   31.8122 O   0  0  0  0  0  0  0  0  0  0  0  0
   24.9303    8.4940   30.5717 C   0  0  0  0  0  0  0  0  0  0  0  0
   24.9088    9.2369   29.4337 C   0  0  0  0  0  0  0  0  0  0  0  0
   24.7405   10.6122   29.4758 C   0  0  0  0  0  0  0  0  0  0  0  0
   24.5918   11.2449   30.7193 C   0  0  0  0  0  0  0  0  0  0  0  0
   24.6137   10.4970   31.8615 C   0  0  0  0  0  0  0  0  0  0  0  0
   24.7773    9.1476   31.8186 C   0  0  0  0  0  0  0  0  0  0  0  0
   24.4221   12.6116   30.8174 O   0  0  0  0  0  0  0  0  0  0  0  0
   24.7122   11.3809   28.3569 O   0  0  0  0  0  0  0  0  0  0  0  0
   25.7990   12.1017   27.8737 C   0  0  0  0  0  0  0  0  0  0  0  0
   27.1205   11.3625   27.9854 C   0  0  0  0  0  0  0  0  0  0  0  0
   22.6448    6.5057   30.7966 C   0  0  0  0  0  0  0  0  0  0  0  0
   22.4382    6.2527   29.5592 O   0  0  0  0  0  0  0  0  0  0  0  0
   17.6594    8.6112   33.7932 Br  0  0  0  0  0  0  0  0  0  0  0  0
   19.2187    7.9566   32.8678 C   0  0  0  0  0  0  0  0  0  0  0  0
   19.3986    6.6177   32.6350 C   0  0  0  0  0  0  0  0  0  0  0  0
   20.5040    6.0932   31.9735 C   0  0  0  0  0  0  0  0  0  0  0  0
   21.4712    6.9644   31.5262 C   0  0  0  0  0  0  0  0  0  0  0  0
   21.2780    8.3160   31.7676 C   0  0  0  0  0  0  0  0  0  0  0  0
   20.1851    8.8336   32.4222 C   0  0  0  0  0  0  0  0  0  0  0  0
   26.1016    6.2547   28.3085 C   0  0  0  0  0  0  0  0  0  0  0  0
   27.4214    6.9073   28.1417 C   0  0  0  0  0  0  0  0  0  0  0  0
   28.3410    7.0228   29.1920 N   0  0  0  0  0  0  0  0  0  0  0  0
   29.2920    5.9048   29.2455 C   0  0  0  0  0  0  0  0  0  0  0  0
   30.1646    5.8303   28.0378 C   0  0  0  0  0  0  0  0  0  0  0  0
   29.9794    6.9502   27.2598 O   0  0  0  0  0  0  0  0  0  0  0  0
   30.2192    8.0754   28.0658 C   0  0  0  0  0  0  0  0  0  0  0  0
   29.0942    8.2827   29.0576 C   0  0  0  0  0  0  0  0  0  0  0  0
   27.8946    7.0633   30.1049 H   0  0  0  0  0  0  0  0  0  0  0  0
 20 21  1  0  0  0
 21 22  2  0  0  0
 21 26  1  0  0  0
 22 23  1  0  0  0
 23 24  2  0  0  0
 24 25  1  0  0  0
 24 18  1  0  0  0
 25 26  2  0  0  0
 18 19  2  0  0  0
 18  1  1  0  0  0
  1  2  1  0  0  0
  1  6  1  0  0  0
  2  3  1  0  0  0
  2  8  1  0  0  0
  3  4  1  0  0  0
  3 27  1  0  0  0
  4  5  2  0  0  0
  4  6  1  0  0  0
  6  7  2  0  0  0
 27 28  1  0  0  0
 28 29  1  0  0  0
 29 30  1  0  0  0
 29 34  1  0  0  0
 30 31  1  0  0  0
 31 32  1  0  0  0
 32 33  1  0  0  0
 33 34  1  0  0  0
  8  9  2  0  0  0
  8 13  1  0  0  0
  9 10  1  0  0  0
 10 11  2  0  0  0
 10 15  1  0  0  0
 11 12  1  0  0  0
 11 14  1  0  0  0
 12 13  2  0  0  0
 15 16  1  0  0  0
 16 17  1  0  0  0
 29 35  1  0  0  0
M  CHG 1  14  -1
M  CHG 1  29   1
M  END
> <minimizedAffinity>
-8.03843

$$$$
1676


 25 28  0  0  0  0  0  0  0  0999 V2000
   20.3561   10.2363   33.0901 C   0  0  0  0  0  0  0  0  0  0  0  0
   19.5451    9.9985   34.0056 O   0  0  0  0  0  0  0  0  0  0  0  0
   20.5564   11.5805   32.6864 N   0  0  0  0  0  0  0  0  0  0  0  0
   21.2257   11.7919   31.9285 H   0  0  0  0  0  0  0  0  0  0  0  0
   24.6140    8.4794   30.4209 Br  0  0  0  0  0  0  0  0  0  0  0  0
   22.9254    8.2373   31.2840 C   0  0  0  0  0  0  0  0  0  0  0  0
   22.3394    6.9910   31.3402 C   0  0  0  0  0  0  0  0  0  0  0  0
   21.1253    6.7953   31.9565 C   0  0  0  0  0  0  0  0  0  0  0  0
   20.3327    5.7155   32.1598 N   0  0  0  0  0  0  0  0  0  0  0  0
   19.2666    6.1257   32.8222 N   0  0  0  0  0  0  0  0  0  0  0  0
   19.3154    7.4064   33.0629 N   0  0  0  0  0  0  0  0  0  0  0  0
   20.4796    7.8641   32.5283 C   0  0  0  0  0  0  0  0  0  0  0  0
   21.0624    9.1183   32.4743 C   0  0  0  0  0  0  0  0  0  0  0  0
   22.2873    9.3087   31.8520 C   0  0  0  0  0  0  0  0  0  0  0  0
   18.6561    8.0449   33.5532 H   0  0  0  0  0  0  0  0  0  0  0  0
   19.8431   12.6661   33.3133 C   0  0  0  0  0  0  0  0  0  0  0  0
   19.9489   13.8869   32.4403 C   0  0  0  0  0  0  0  0  0  0  0  0
   21.0745   14.4789   32.0102 N   0  0  0  0  0  0  0  0  0  0  0  0
   20.7860   15.5527   31.2441 C   0  0  0  0  0  0  0  0  0  0  0  0
   19.4500   15.6251   31.2002 N   0  0  0  0  0  0  0  0  0  0  0  0
   18.9405   14.6172   31.9247 N   0  0  0  0  0  0  0  0  0  0  0  0
   21.9481   16.3061   30.6980 C   0  0  0  0  0  0  0  0  0  0  0  0
   22.7921   15.2475   29.9733 C   0  0  0  0  0  0  0  0  0  0  0  0
   23.1401   14.0910   30.8521 C   0  0  0  0  0  0  0  0  0  0  0  0
   22.4772   14.1895   32.2089 C   0  0  0  0  0  0  0  0  0  0  0  0
  5  6  1  0  0  0
  6  7  2  0  0  0
  6 14  1  0  0  0
  7  8  1  0  0  0
  8  9  1  0  0  0
  8 12  2  0  0  0
  9 10  2  0  0  0
 10 11  1  0  0  0
 11 12  1  0  0  0
 12 13  1  0  0  0
 13 14  2  0  0  0
 13  1  1  0  0  0
  1  2  2  0  0  0
  1  3  1  0  0  0
  3 16  1  0  0  0
 16 17  1  0  0  0
 17 18  1  0  0  0
 17 21  2  0  0  0
 18 19  1  0  0  0
 18 25  1  0  0  0
 19 20  2  0  0  0
 19 22  1  0  0  0
 20 21  1  0  0  0
 22 23  1  0  0  0
 23 24  1  0  0  0
 24 25  1  0  0  0
 11 15  1  0  0  0
  3  4  1  0  0  0
M  END
> <minimizedAffinity>
-9.02719

$$$$
1687


 27 30  0  0  0  0  0  0  0  0999 V2000
   23.4256   13.1560   30.0033 N   0  0  0  0  0  0  0  0  0  0  0  0
   23.8661   13.8656   28.9401 C   0  0  0  0  0  0  0  0  0  0  0  0
   23.5744   15.2022   28.7790 C   0  0  0  0  0  0  0  0  0  0  0  0
   22.7659   15.8870   29.7801 C   0  0  0  0  0  0  0  0  0  0  0  0
   22.6489   17.1561   29.3642 N   0  0  0  0  0  0  0  0  0  0  0  0
   23.3040   17.3291   28.2054 N   0  0  0  0  0  0  0  0  0  0  0  0
   23.8662   16.1668   27.8389 C   0  0  0  0  0  0  0  0  0  0  0  0
   24.5441   16.0126   26.7978 O   0  0  0  0  0  0  0  0  0  0  0  0
   22.3313   15.1300   30.8552 C   0  0  0  0  0  0  0  0  0  0  0  0
   22.6842   13.8100   30.9090 C   0  0  0  0  0  0  0  0  0  0  0  0
   23.3353   18.2559   27.7099 H   0  0  0  0  0  0  0  0  0  0  0  0
   21.5197   15.7812   31.8774 C   0  0  0  0  0  0  0  0  0  0  0  0
   20.2788   15.5808   31.8911 O   0  0  0  0  0  0  0  0  0  0  0  0
   22.0738   16.6049   32.8209 O   0  0  0  0  0  0  0  0  0  0  0  0
   23.2380   16.2333   33.5411 C   0  0  0  0  0  0  0  0  0  0  0  0
   23.7535   11.7414   30.1424 C   0  0  0  0  0  0  0  0  0  0  0  0
   23.5041   11.3450   31.5812 C   0  0  0  0  0  0  0  0  0  0  0  0
   17.4451    8.6370   33.8558 Cl  0  0  0  0  0  0  0  0  0  0  0  0
   19.0155    9.1176   33.2141 C   0  0  0  0  0  0  0  0  0  0  0  0
   19.8594    8.2198   32.5949 C   0  0  0  0  0  0  0  0  0  0  0  0
   21.0779    8.6523   32.1111 C   0  0  0  0  0  0  0  0  0  0  0  0
   22.1015    8.0251   31.4701 N   0  0  0  0  0  0  0  0  0  0  0  0
   23.0715    8.9207   31.2152 C   0  0  0  0  0  0  0  0  0  0  0  0
   22.7120   10.1374   31.6761 N   0  0  0  0  0  0  0  0  0  0  0  0
   21.4946    9.9638   32.2209 C   0  0  0  0  0  0  0  0  0  0  0  0
   20.6598   10.8671   32.8362 C   0  0  0  0  0  0  0  0  0  0  0  0
   19.4434   10.4273   33.3177 C   0  0  0  0  0  0  0  0  0  0  0  0
 18 19  1  0  0  0
 19 20  2  0  0  0
 19 27  1  0  0  0
 20 21  1  0  0  0
 21 22  1  0  0  0
 21 25  2  0  0  0
 22 23  2  0  0  0
 23 24  1  0  0  0
 24 25  1  0  0  0
 24 17  1  0  0  0
 25 26  1  0  0  0
 26 27  2  0  0  0
 17 16  1  0  0  0
 16  1  1  0  0  0
  1  2  1  0  0  0
  1 10  1  0  0  0
  2  3  2  0  0  0
  3  4  1  0  0  0
  3  7  1  0  0  0
  4  5  2  0  0  0
  4  9  1  0  0  0
  5  6  1  0  0  0
  6  7  1  0  0  0
  7  8  2  0  0  0
  9 10  2  0  0  0
  9 12  1  0  0  0
 12 13  2  0  0  0
 12 14  1  0  0  0
 14 15  1  0  0  0
  6 11  1  0  0  0
M  END
> <minimizedAffinity>
-9.14509

$$$$
1689


 32 35  0  0  0  0  0  0  0  0999 V2000
   19.8306   13.2437   32.8996 C   0  0  0  0  0  0  0  0  0  0  0  0
   18.6039   13.4716   32.7603 O   0  0  0  0  0  0  0  0  0  0  0  0
   20.7501   14.1826   32.3864 N   0  0  0  0  0  0  0  0  0  0  0  0
   22.1985   14.1855   32.3882 C   0  0  0  0  0  0  0  0  0  0  0  0
   22.5397   14.7079   31.0649 C   0  0  0  0  0  0  0  0  0  0  0  0
   21.2525   15.2638   30.4518 C   0  0  0  0  0  0  0  0  0  0  0  0
   20.3863   15.4064   31.7212 C   0  0  0  0  0  0  0  0  0  0  0  0
   21.4276   16.4794   29.8394 O   0  0  0  0  0  0  0  0  0  0  0  0
   21.2689   17.1896   30.5107 H   0  0  0  0  0  0  0  0  0  0  0  0
   23.2672   13.9407   30.1305 N   0  0  0  0  0  0  0  0  0  0  0  0
   23.4569   12.6233   30.4123 C   0  0  0  0  0  0  0  0  0  0  0  0
   24.1503   11.7905   29.5631 C   0  0  0  0  0  0  0  0  0  0  0  0
   24.6754   12.2788   28.3897 C   0  0  0  0  0  0  0  0  0  0  0  0
   25.3179   11.5342   27.5899 O   0  0  0  0  0  0  0  0  0  0  0  0
   24.4880   13.5781   28.1115 N   0  0  0  0  0  0  0  0  0  0  0  0
   23.8068   14.3370   28.9735 C   0  0  0  0  0  0  0  0  0  0  0  0
   23.6610   15.5366   28.6628 O   0  0  0  0  0  0  0  0  0  0  0  0
   24.3501   10.3400   29.8874 C   0  0  0  0  0  0  0  0  0  0  0  0
   24.8869   13.9830   27.2089 H   0  0  0  0  0  0  0  0  0  0  0  0
   20.2387   12.0036   33.5918 C   0  0  0  0  0  0  0  0  0  0  0  0
   19.2130   10.9299   33.3904 C   0  0  0  0  0  0  0  0  0  0  0  0
   23.6496    5.4909   30.3085 Cl  0  0  0  0  0  0  0  0  0  0  0  0
   22.3343    6.2778   31.1472 C   0  0  0  0  0  0  0  0  0  0  0  0
   22.3263    7.6593   31.2856 C   0  0  0  0  0  0  0  0  0  0  0  0
   21.2904    8.2988   31.9454 C   0  0  0  0  0  0  0  0  0  0  0  0
   21.0026    9.5768   32.2370 N   0  0  0  0  0  0  0  0  0  0  0  0
   19.8310    9.6744   32.9235 C   0  0  0  0  0  0  0  0  0  0  0  0
   19.4015    8.3902   33.0462 N   0  0  0  0  0  0  0  0  0  0  0  0
   20.2645    7.5470   32.4653 C   0  0  0  0  0  0  0  0  0  0  0  0
   20.2780    6.1758   32.3249 C   0  0  0  0  0  0  0  0  0  0  0  0
   21.3078    5.5193   31.6665 C   0  0  0  0  0  0  0  0  0  0  0  0
   21.6379   10.3612   31.9472 H   0  0  0  0  0  0  0  0  0  0  0  0
 22 23  1  0  0  0
 23 24  2  0  0  0
 23 31  1  0  0  0
 24 25  1  0  0  0
 25 26  1  0  0  0
 25 29  2  0  0  0
 26 27  1  0  0  0
 27 28  2  0  0  0
 27 21  1  0  0  0
 28 29  1  0  0  0
 29 30  1  0  0  0
 30 31  2  0  0  0
 21 20  1  0  0  0
 20  1  1  0  0  0
  1  2  2  0  0  0
  1  3  1  0  0  0
  3  4  1  0  0  0
  3  7  1  0  0  0
  4  5  1  0  0  0
  5  6  1  0  0  0
  5 10  1  0  0  0
  6  7  1  0  0  0
  6  8  1  0  0  0
 10 11  1  0  0  0
 10 16  1  0  0  0
 11 12  2  0  0  0
 12 13  1  0  0  0
 12 18  1  0  0  0
 13 14  2  0  0  0
 13 15  1  0  0  0
 15 16  1  0  0  0
 16 17  2  0  0  0
 26 32  1  0  0  0
  8  9  1  0  0  0
 15 19  1  0  0  0
M  END
> <minimizedAffinity>
-9.71762

$$$$
1690


 34 37  0  0  0  0  0  0  0  0999 V2000
   27.7801    7.4556   27.3838 C   0  0  0  0  0  0  0  0  0  0  0  0
   27.4546    6.8852   26.3113 O   0  0  0  0  0  0  0  0  0  0  0  0
   28.4678    8.7057   27.3689 N   0  0  0  0  0  0  0  0  0  0  0  0
   28.8736    9.4180   28.5599 C   0  0  0  0  0  0  0  0  0  0  0  0
   28.7181   10.9348   28.3556 C   0  0  0  0  0  0  0  0  0  0  0  0
   27.6509   11.1136   27.3309 C   0  0  0  0  0  0  0  0  0  0  0  0
   28.1839   10.6975   25.9791 C   0  0  0  0  0  0  0  0  0  0  0  0
   28.7858    9.3122   26.0938 C   0  0  0  0  0  0  0  0  0  0  0  0
   28.3443   11.4365   29.6111 O   0  0  0  0  0  0  0  0  0  0  0  0
   30.0659   11.4630   27.9780 C   0  0  0  0  0  0  0  0  0  0  0  0
   29.1788   11.6791   30.1263 H   0  0  0  0  0  0  0  0  0  0  0  0
   27.0006   12.3762   27.3186 N   0  0  0  0  0  0  0  0  0  0  0  0
   27.4459   13.4365   26.6286 C   0  0  0  0  0  0  0  0  0  0  0  0
   26.7828   14.6571   26.6403 C   0  0  0  0  0  0  0  0  0  0  0  0
   25.6319   14.7849   27.3827 C   0  0  0  0  0  0  0  0  0  0  0  0
   25.0213   15.8990   27.3964 O   0  0  0  0  0  0  0  0  0  0  0  0
   25.1893   13.7238   28.0719 N   0  0  0  0  0  0  0  0  0  0  0  0
   25.8670   12.5638   28.0273 C   0  0  0  0  0  0  0  0  0  0  0  0
   25.4403   11.5520   28.6877 O   0  0  0  0  0  0  0  0  0  0  0  0
   27.3303   15.8098   25.8452 C   0  0  0  0  0  0  0  0  0  0  0  0
   24.3191   13.8075   28.6372 H   0  0  0  0  0  0  0  0  0  0  0  0
   27.4619    6.8461   28.6865 C   0  0  0  0  0  0  0  0  0  0  0  0
   26.0758    6.2704   28.6454 C   0  0  0  0  0  0  0  0  0  0  0  0
   20.3315    9.0066   32.9384 Cl  0  0  0  0  0  0  0  0  0  0  0  0
   21.8677    8.8559   32.1168 C   0  0  0  0  0  0  0  0  0  0  0  0
   22.1918    7.7515   31.3481 C   0  0  0  0  0  0  0  0  0  0  0  0
   23.4021    7.6421   30.7058 C   0  0  0  0  0  0  0  0  0  0  0  0
   23.9468    6.7023   29.9223 N   0  0  0  0  0  0  0  0  0  0  0  0
   25.1962    7.0727   29.5288 C   0  0  0  0  0  0  0  0  0  0  0  0
   25.3930    8.2554   30.0918 N   0  0  0  0  0  0  0  0  0  0  0  0
   24.3372    8.6418   30.8139 C   0  0  0  0  0  0  0  0  0  0  0  0
   24.0387    9.7510   31.5736 C   0  0  0  0  0  0  0  0  0  0  0  0
   22.8142    9.8595   32.2211 C   0  0  0  0  0  0  0  0  0  0  0  0
   23.4988    5.7908   29.6303 H   0  0  0  0  0  0  0  0  0  0  0  0
 24 25  1  0  0  0
 25 26  2  0  0  0
 25 33  1  0  0  0
 26 27  1  0  0  0
 27 28  1  0  0  0
 27 31  2  0  0  0
 28 29  1  0  0  0
 29 30  2  0  0  0
 29 23  1  0  0  0
 30 31  1  0  0  0
 31 32  1  0  0  0
 32 33  2  0  0  0
 23 22  1  0  0  0
 22  1  1  0  0  0
  1  2  2  0  0  0
  1  3  1  0  0  0
  3  4  1  0  0  0
  3  8  1  0  0  0
  4  5  1  0  0  0
  5  6  1  0  0  0
  5  9  1  0  0  0
  5 10  1  0  0  0
  6  7  1  0  0  0
  6 12  1  0  0  0
  7  8  1  0  0  0
 12 13  1  0  0  0
 12 18  1  0  0  0
 13 14  2  0  0  0
 14 15  1  0  0  0
 14 20  1  0  0  0
 15 16  2  0  0  0
 15 17  1  0  0  0
 17 18  1  0  0  0
 18 19  2  0  0  0
 28 34  1  0  0  0
 17 21  1  0  0  0
  9 11  1  0  0  0
M  END
> <minimizedAffinity>
-7.98090

$$$$
1691


 35 39  0  0  0  0  0  0  0  0999 V2000
   25.6180   11.7541   29.3865 C   0  0  0  0  0  0  0  0  0  0  0  0
   26.5574   11.1118   29.8938 O   0  0  0  0  0  0  0  0  0  0  0  0
   24.5776   12.2392   30.1952 N   0  0  0  0  0  0  0  0  0  0  0  0
   24.3391   12.1379   31.6000 C   0  0  0  0  0  0  0  0  0  0  0  0
   22.8189   11.8715   31.7152 C   0  0  0  0  0  0  0  0  0  0  0  0
   22.3339   12.6833   30.5667 C   0  0  0  0  0  0  0  0  0  0  0  0
   23.4767   13.0243   29.6713 C   0  0  0  0  0  0  0  0  0  0  0  0
   21.7460   13.8879   30.9512 O   0  0  0  0  0  0  0  0  0  0  0  0
   21.8679   14.0614   31.9268 H   0  0  0  0  0  0  0  0  0  0  0  0
   22.5899   10.4606   31.5853 N   0  0  0  0  0  0  0  0  0  0  0  0
   21.5598    9.7413   32.0607 C   0  0  0  0  0  0  0  0  0  0  0  0
   21.7455    8.3926   31.6942 C   0  0  0  0  0  0  0  0  0  0  0  0
   22.8968    8.3516   31.0044 N   0  0  0  0  0  0  0  0  0  0  0  0
   23.4133    9.5758   30.9300 C   0  0  0  0  0  0  0  0  0  0  0  0
   20.8353    7.4234   32.0513 C   0  0  0  0  0  0  0  0  0  0  0  0
   21.0287    6.2262   31.7089 O   0  0  0  0  0  0  0  0  0  0  0  0
   19.7653    7.8062   32.7576 N   0  0  0  0  0  0  0  0  0  0  0  0
   19.5970    9.0842   33.1000 C   0  0  0  0  0  0  0  0  0  0  0  0
   18.5847    9.4279   33.7657 O   0  0  0  0  0  0  0  0  0  0  0  0
   20.4687   10.0866   32.7729 N   0  0  0  0  0  0  0  0  0  0  0  0
   20.2253   11.4356   33.1751 C   0  0  0  0  0  0  0  0  0  0  0  0
   18.7785    6.7981   33.1519 C   0  0  0  0  0  0  0  0  0  0  0  0
   25.6105   11.9971   27.9357 C   0  0  0  0  0  0  0  0  0  0  0  0
   27.0039   11.8495   27.3670 C   0  0  0  0  0  0  0  0  0  0  0  0
   30.4053   18.6543   26.2411 Cl  0  0  0  0  0  0  0  0  0  0  0  0
   29.3904   17.2310   26.0407 C   0  0  0  0  0  0  0  0  0  0  0  0
   29.3965   16.2046   26.9560 C   0  0  0  0  0  0  0  0  0  0  0  0
   28.5767   15.0925   26.7605 C   0  0  0  0  0  0  0  0  0  0  0  0
   28.3689   13.9650   27.4605 N   0  0  0  0  0  0  0  0  0  0  0  0
   27.4629   13.1807   26.8506 C   0  0  0  0  0  0  0  0  0  0  0  0
   27.0985   13.8341   25.7470 N   0  0  0  0  0  0  0  0  0  0  0  0
   27.7566   15.0082   25.6560 C   0  0  0  0  0  0  0  0  0  0  0  0
   27.7520   16.0369   24.7381 C   0  0  0  0  0  0  0  0  0  0  0  0
   28.5763   17.1430   24.9459 C   0  0  0  0  0  0  0  0  0  0  0  0
   28.8691   13.7540   28.3655 H   0  0  0  0  0  0  0  0  0  0  0  0
 25 26  1  0  0  0
 26 27  2  0  0  0
 26 34  1  0  0  0
 27 28  1  0  0  0
 28 29  1  0  0  0
 28 32  2  0  0  0
 29 30  1  0  0  0
 30 31  2  0  0  0
 30 24  1  0  0  0
 31 32  1  0  0  0
 32 33  1  0  0  0
 33 34  2  0  0  0
 24 23  1  0  0  0
 23  1  1  0  0  0
  1  2  2  0  0  0
  1  3  1  0  0  0
  3  4  1  0  0  0
  3  7  1  0  0  0
  4  5  1  0  0  0
  5  6  1  0  0  0
  5 10  1  0  0  0
  6  7  1  0  0  0
  6  8  1  0  0  0
 10 11  1  0  0  0
 10 14  1  0  0  0
 11 12  2  0  0  0
 11 20  1  0  0  0
 12 13  1  0  0  0
 12 15  1  0  0  0
 13 14  2  0  0  0
 15 16  2  0  0  0
 15 17  1  0  0  0
 17 18  1  0  0  0
 17 22  1  0  0  0
 18 19  2  0  0  0
 18 20  1  0  0  0
 20 21  1  0  0  0
 29 35  1  0  0  0
  8  9  1  0  0  0
M  END
> <minimizedAffinity>
-9.17318

$$$$
1699


 31 34  0  0  0  0  0  0  0  0999 V2000
   22.2230    6.9022   29.7118 Cl  0  0  0  0  0  0  0  0  0  0  0  0
   23.0671    8.2210   30.4559 C   0  0  0  0  0  0  0  0  0  0  0  0
   22.5058    9.4887   30.5057 C   0  0  0  0  0  0  0  0  0  0  0  0
   23.1655   10.5480   31.0948 C   0  0  0  0  0  0  0  0  0  0  0  0
   24.3999   10.3156   31.6343 C   0  0  0  0  0  0  0  0  0  0  0  0
   24.9991    9.0525   31.6053 C   0  0  0  0  0  0  0  0  0  0  0  0
   24.3126    8.0175   31.0099 C   0  0  0  0  0  0  0  0  0  0  0  0
   24.9242   11.5227   32.1714 N   0  0  0  0  0  0  0  0  0  0  0  0
   23.9726   12.5527   31.9525 C   0  0  0  0  0  0  0  0  0  0  0  0
   24.2045   13.7535   32.3077 O   0  0  0  0  0  0  0  0  0  0  0  0
   22.8155   11.9517   31.3022 C   0  0  0  0  0  0  0  0  0  0  0  0
   21.5967   12.0969   32.1026 N   0  0  0  0  0  0  0  0  0  0  0  0
   21.2750   13.4871   31.8705 C   0  0  0  0  0  0  0  0  0  0  0  0
   21.5676   13.7511   30.4291 C   0  0  0  0  0  0  0  0  0  0  0  0
   22.3910   12.5686   30.0160 C   0  0  0  0  0  0  0  0  0  0  0  0
   23.5035   13.0639   29.1684 C   0  0  0  0  0  0  0  0  0  0  0  0
   24.2806   12.2685   28.5788 O   0  0  0  0  0  0  0  0  0  0  0  0
   23.4654   14.4814   29.1934 N   0  0  0  0  0  0  0  0  0  0  0  0
   22.5497   14.8644   30.2261 C   0  0  0  0  0  0  0  0  0  0  0  0
   22.5282   15.9190   30.8688 O   0  0  0  0  0  0  0  0  0  0  0  0
   25.8627   11.6400   32.6564 H   0  0  0  0  0  0  0  0  0  0  0  0
   20.8760   11.5196   31.6138 H   0  0  0  0  0  0  0  0  0  0  0  0
   19.8577   13.8232   32.2575 C   0  0  0  0  0  0  0  0  0  0  0  0
   19.1744   14.1736   31.0998 O   0  0  0  0  0  0  0  0  0  0  0  0
   19.1587   12.6802   32.9475 C   0  0  0  0  0  0  0  0  0  0  0  0
   18.5748   13.4534   30.7769 H   0  0  0  0  0  0  0  0  0  0  0  0
   24.1875   15.3614   28.3550 C   0  0  0  0  0  0  0  0  0  0  0  0
   23.4515   16.2129   27.3970 C   0  0  0  0  0  0  0  0  0  0  0  0
   23.0899   17.5831   27.8239 C   0  0  0  0  0  0  0  0  0  0  0  0
   22.4028   18.3504   26.8956 O   0  0  0  0  0  0  0  0  0  0  0  0
   23.2605   19.4064   26.5035 C   0  0  0  0  0  0  0  0  0  0  0  0
  1  2  1  0  0  0
  2  3  2  0  0  0
  2  7  1  0  0  0
  3  4  1  0  0  0
  4  5  2  0  0  0
  4 11  1  0  0  0
  5  6  1  0  0  0
  5  8  1  0  0  0
  6  7  2  0  0  0
  8  9  1  0  0  0
  9 10  2  0  0  0
  9 11  1  0  0  0
 11 12  1  0  0  0
 11 15  1  0  0  0
 12 13  1  0  0  0
 13 14  1  0  0  0
 13 23  1  0  0  0
 14 15  1  0  0  0
 14 19  1  0  0  0
 15 16  1  0  0  0
 16 17  2  0  0  0
 16 18  1  0  0  0
 18 19  1  0  0  0
 18 27  1  0  0  0
 19 20  2  0  0  0
 27 28  1  0  0  0
 28 29  1  0  0  0
 29 30  1  0  0  0
 30 31  1  0  0  0
 23 24  1  0  0  0
 23 25  1  0  0  0
  8 21  1  0  0  0
 12 22  1  0  0  0
 24 26  1  0  0  0
M  END
> <minimizedAffinity>
-7.39020

$$$$
1706


 25 28  0  0  0  0  0  0  0  0999 V2000
   19.6662   15.0776   31.5374 F   0  0  0  0  0  0  0  0  0  0  0  0
   20.1542   13.8085   31.7439 C   0  0  0  0  0  0  0  0  0  0  0  0
   21.3608   13.4466   31.1318 C   0  0  0  0  0  0  0  0  0  0  0  0
   21.8612   12.1946   31.3238 C   0  0  0  0  0  0  0  0  0  0  0  0
   21.1739   11.2750   32.1280 C   0  0  0  0  0  0  0  0  0  0  0  0
   19.9980   11.6549   32.7138 C   0  0  0  0  0  0  0  0  0  0  0  0
   19.4748   12.9126   32.5331 C   0  0  0  0  0  0  0  0  0  0  0  0
   17.9537   13.3985   33.2936 Cl  0  0  0  0  0  0  0  0  0  0  0  0
   23.1375   12.0736   30.5715 C   0  0  0  0  0  0  0  0  0  0  0  0
   23.0307   11.0057   29.6280 N   0  0  0  0  0  0  0  0  0  0  0  0
   23.3330    9.6773   29.9939 C   0  0  0  0  0  0  0  0  0  0  0  0
   22.9342    8.6151   29.2470 N   0  0  0  0  0  0  0  0  0  0  0  0
   23.1933    7.3389   29.5486 C   0  0  0  0  0  0  0  0  0  0  0  0
   23.9200    7.0491   30.6982 C   0  0  0  0  0  0  0  0  0  0  0  0
   24.3587    8.0608   31.5056 C   0  0  0  0  0  0  0  0  0  0  0  0
   24.0552    9.3525   31.1335 C   0  0  0  0  0  0  0  0  0  0  0  0
   24.4796   10.5074   31.9307 C   0  0  0  0  0  0  0  0  0  0  0  0
   25.1478   10.2556   32.9907 O   0  0  0  0  0  0  0  0  0  0  0  0
   24.1748   11.8290   31.5584 N   0  0  0  0  0  0  0  0  0  0  0  0
   23.3115   13.3817   29.9305 C   0  0  0  0  0  0  0  0  0  0  0  0
   24.2806   13.7512   29.1703 O   0  0  0  0  0  0  0  0  0  0  0  0
   22.2288   14.2052   30.2791 N   0  0  0  0  0  0  0  0  0  0  0  0
   22.7258   11.1801   28.6392 H   0  0  0  0  0  0  0  0  0  0  0  0
   24.7172   12.5964   32.0179 H   0  0  0  0  0  0  0  0  0  0  0  0
   22.0320   15.2025   29.9991 H   0  0  0  0  0  0  0  0  0  0  0  0
  1  2  1  0  0  0
  2  3  2  0  0  0
  2  7  1  0  0  0
  3  4  1  0  0  0
  3 22  1  0  0  0
  4  5  2  0  0  0
  4  9  1  0  0  0
  5  6  1  0  0  0
  6  7  2  0  0  0
  7  8  1  0  0  0
  9 10  1  0  0  0
  9 19  1  0  0  0
  9 20  1  0  0  0
 10 11  1  0  0  0
 11 12  2  0  0  0
 11 16  1  0  0  0
 12 13  1  0  0  0
 13 14  2  0  0  0
 14 15  1  0  0  0
 15 16  2  0  0  0
 16 17  1  0  0  0
 17 18  2  0  0  0
 17 19  1  0  0  0
 20 21  2  0  0  0
 20 22  1  0  0  0
 10 23  1  0  0  0
 19 24  1  0  0  0
 22 25  1  0  0  0
M  END
> <minimizedAffinity>
-8.19901

$$$$
1711


 30 33  0  0  0  0  0  0  0  0999 V2000
   27.7944   10.9275   27.6273 N   0  0  0  0  0  0  0  0  0  0  0  0
   26.5987   11.5195   27.1386 C   0  0  0  0  0  0  0  0  0  0  0  0
   25.5355   11.6801   28.1957 C   0  0  0  0  0  0  0  0  0  0  0  0
   25.5776   10.6343   29.1842 N   0  0  0  0  0  0  0  0  0  0  0  0
   26.8344   10.3075   29.8139 C   0  0  0  0  0  0  0  0  0  0  0  0
   27.9403   10.9512   29.0365 C   0  0  0  0  0  0  0  0  0  0  0  0
   24.4230    9.9078   29.5662 C   0  0  0  0  0  0  0  0  0  0  0  0
   23.3334   10.1835   29.0277 O   0  0  0  0  0  0  0  0  0  0  0  0
   28.3568    9.5733   26.8102 S   0  0  0  0  0  0  0  0  0  0  0  0
   27.4603    9.3273   25.6043 O   0  0  0  0  0  0  0  0  0  0  0  0
   29.7199    9.8948   26.2274 O   0  0  0  0  0  0  0  0  0  0  0  0
   28.5180    8.1407   27.7529 C   0  0  0  0  0  0  0  0  0  0  0  0
   27.4254    7.3092   27.9349 C   0  0  0  0  0  0  0  0  0  0  0  0
   27.4995    6.1498   28.6798 C   0  0  0  0  0  0  0  0  0  0  0  0
   28.7153    5.8261   29.2541 C   0  0  0  0  0  0  0  0  0  0  0  0
   29.7951    6.6641   29.0648 C   0  0  0  0  0  0  0  0  0  0  0  0
   29.7353    7.8255   28.3226 C   0  0  0  0  0  0  0  0  0  0  0  0
   28.8888    4.2220   30.3060 Br  0  0  0  0  0  0  0  0  0  0  0  0
   24.4739    8.8341   30.5836 C   0  0  0  0  0  0  0  0  0  0  0  0
   23.1821    8.6050   31.1623 N   0  0  0  0  0  0  0  0  0  0  0  0
   22.3274    9.5004   31.8605 C   0  0  0  0  0  0  0  0  0  0  0  0
   22.5992   10.7003   32.0846 O   0  0  0  0  0  0  0  0  0  0  0  0
   21.1251    8.7805   32.2463 C   0  0  0  0  0  0  0  0  0  0  0  0
   21.2201    7.4811   31.8073 C   0  0  0  0  0  0  0  0  0  0  0  0
   20.1801    6.5974   32.0628 C   0  0  0  0  0  0  0  0  0  0  0  0
   19.0591    6.9867   32.7424 C   0  0  0  0  0  0  0  0  0  0  0  0
   18.9494    8.3018   33.1932 C   0  0  0  0  0  0  0  0  0  0  0  0
   19.9991    9.1684   32.9272 C   0  0  0  0  0  0  0  0  0  0  0  0
   22.5006    7.3459   31.1247 C   0  0  0  0  0  0  0  0  0  0  0  0
   22.8799    6.2625   30.6077 O   0  0  0  0  0  0  0  0  0  0  0  0
  9 10  2  0  0  0
  9 11  2  0  0  0
  9  1  1  0  0  0
  9 12  1  0  0  0
  1  2  1  0  0  0
  1  6  1  0  0  0
  2  3  1  0  0  0
  3  4  1  0  0  0
  4  5  1  0  0  0
  4  7  1  0  0  0
  5  6  1  0  0  0
  7  8  2  0  0  0
  7 19  1  0  0  0
 19 20  1  0  0  0
 20 21  1  0  0  0
 20 29  1  0  0  0
 21 22  2  0  0  0
 21 23  1  0  0  0
 23 24  2  0  0  0
 23 28  1  0  0  0
 24 25  1  0  0  0
 24 29  1  0  0  0
 25 26  2  0  0  0
 26 27  1  0  0  0
 27 28  2  0  0  0
 29 30  2  0  0  0
 12 13  2  0  0  0
 12 17  1  0  0  0
 13 14  1  0  0  0
 14 15  2  0  0  0
 15 16  1  0  0  0
 15 18  1  0  0  0
 16 17  2  0  0  0
M  END
> <minimizedAffinity>
-8.00485

$$$$
1718


 34 38  0  0  0  0  0  0  0  0999 V2000
   19.3309   15.6101   30.9540 Cl  0  0  0  0  0  0  0  0  0  0  0  0
   20.9463   15.1866   31.4734 C   0  0  0  0  0  0  0  0  0  0  0  0
   21.4585   13.9667   31.0299 C   0  0  0  0  0  0  0  0  0  0  0  0
   22.7273   13.5973   31.4173 C   0  0  0  0  0  0  0  0  0  0  0  0
   23.4413   14.4694   32.2412 C   0  0  0  0  0  0  0  0  0  0  0  0
   22.9269   15.6721   32.6749 C   0  0  0  0  0  0  0  0  0  0  0  0
   21.6565   16.0416   32.2856 C   0  0  0  0  0  0  0  0  0  0  0  0
   23.0829   12.2939   30.8566 C   0  0  0  0  0  0  0  0  0  0  0  0
   24.2944   12.3334   30.0594 N   0  0  0  0  0  0  0  0  0  0  0  0
   24.7773   10.9593   30.0313 C   0  0  0  0  0  0  0  0  0  0  0  0
   24.4035   10.3541   31.3563 C   0  0  0  0  0  0  0  0  0  0  0  0
   23.3157   11.2384   31.9143 C   0  0  0  0  0  0  0  0  0  0  0  0
   22.1288   10.3633   32.0853 C   0  0  0  0  0  0  0  0  0  0  0  0
   21.0030   10.8324   32.4116 O   0  0  0  0  0  0  0  0  0  0  0  0
   22.4916    9.0169   31.8301 N   0  0  0  0  0  0  0  0  0  0  0  0
   23.7128    9.0420   31.1065 C   0  0  0  0  0  0  0  0  0  0  0  0
   24.2015    8.1489   30.3584 O   0  0  0  0  0  0  0  0  0  0  0  0
   21.9052   11.8933   30.0705 C   0  0  0  0  0  0  0  0  0  0  0  0
   21.7532   10.8166   29.3855 O   0  0  0  0  0  0  0  0  0  0  0  0
   20.9470   12.9287   30.2040 N   0  0  0  0  0  0  0  0  0  0  0  0
   25.0077   12.9811   30.4632 H   0  0  0  0  0  0  0  0  0  0  0  0
   19.9888   12.9395   29.7600 H   0  0  0  0  0  0  0  0  0  0  0  0
   21.7720    7.8617   32.2272 C   0  0  0  0  0  0  0  0  0  0  0  0
   20.3031    7.9786   32.3300 C   0  0  0  0  0  0  0  0  0  0  0  0
   19.8283    8.4158   33.5570 O   0  0  0  0  0  0  0  0  0  0  0  0
   18.4626    8.5228   33.2919 C   0  0  0  0  0  0  0  0  0  0  0  0
   18.1094    7.2343   32.5381 C   0  0  0  0  0  0  0  0  0  0  0  0
   19.4976    6.7578   32.0780 C   0  0  0  0  0  0  0  0  0  0  0  0
   26.2604   10.9683   29.8047 C   0  0  0  0  0  0  0  0  0  0  0  0
   26.4915   11.5116   28.4283 C   0  0  0  0  0  0  0  0  0  0  0  0
   25.5514   11.3744   27.6040 O   0  0  0  0  0  0  0  0  0  0  0  0
   27.6999   12.1512   28.0521 N   0  0  0  0  0  0  0  0  0  0  0  0
   27.8755   13.1114   28.4075 H   0  0  0  0  0  0  0  0  0  0  0  0
   28.4229   11.7202   27.4432 H   0  0  0  0  0  0  0  0  0  0  0  0
  1  2  1  0  0  0
  2  3  2  0  0  0
  2  7  1  0  0  0
  3  4  1  0  0  0
  3 20  1  0  0  0
  4  5  2  0  0  0
  4  8  1  0  0  0
  5  6  1  0  0  0
  6  7  2  0  0  0
  8  9  1  0  0  0
  8 12  1  0  0  0
  8 18  1  0  0  0
  9 10  1  0  0  0
 10 11  1  0  0  0
 10 29  1  0  0  0
 11 12  1  0  0  0
 11 16  1  0  0  0
 12 13  1  0  0  0
 13 14  2  0  0  0
 13 15  1  0  0  0
 15 16  1  0  0  0
 15 23  1  0  0  0
 16 17  2  0  0  0
 23 24  1  0  0  0
 24 25  1  0  0  0
 24 28  1  0  0  0
 25 26  1  0  0  0
 26 27  1  0  0  0
 27 28  1  0  0  0
 29 30  1  0  0  0
 30 31  2  0  0  0
 30 32  1  0  0  0
 18 19  2  0  0  0
 18 20  1  0  0  0
  9 21  1  0  0  0
 32 33  1  0  0  0
 32 34  1  0  0  0
 20 22  1  0  0  0
M  END
> <minimizedAffinity>
-8.63286

$$$$
1721


 28 31  0  0  0  0  0  0  0  0999 V2000
   24.1387   12.6544   29.7364 C   0  0  0  0  0  0  0  0  0  0  0  0
   24.5071   11.5728   30.6364 C   0  0  0  0  0  0  0  0  0  0  0  0
   24.9626   12.0274   31.8241 O   0  0  0  0  0  0  0  0  0  0  0  0
   24.4778   10.2129   30.4975 N   0  0  0  0  0  0  0  0  0  0  0  0
   24.1581    9.4482   29.3408 C   0  0  0  0  0  0  0  0  0  0  0  0
   22.8953    8.6138   29.5435 C   0  0  0  0  0  0  0  0  0  0  0  0
   22.8694    8.2932   30.9417 N   0  0  0  0  0  0  0  0  0  0  0  0
   24.1225    8.0545   31.5968 C   0  0  0  0  0  0  0  0  0  0  0  0
   24.8067    9.4180   31.7414 C   0  0  0  0  0  0  0  0  0  0  0  0
   21.6746    8.2036   31.6780 C   0  0  0  0  0  0  0  0  0  0  0  0
   21.0217    7.0173   31.8491 N   0  0  0  0  0  0  0  0  0  0  0  0
   19.8977    6.8650   32.5266 C   0  0  0  0  0  0  0  0  0  0  0  0
   19.2763    7.9218   33.1303 C   0  0  0  0  0  0  0  0  0  0  0  0
   19.8874    9.1599   32.9956 C   0  0  0  0  0  0  0  0  0  0  0  0
   21.0672    9.2951   32.2807 C   0  0  0  0  0  0  0  0  0  0  0  0
   22.7537   12.8496   29.5263 N   0  0  0  0  0  0  0  0  0  0  0  0
   22.2961   12.5154   28.6737 H   0  0  0  0  0  0  0  0  0  0  0  0
   19.6513   12.7171   33.5987 Cl  0  0  0  0  0  0  0  0  0  0  0  0
   20.5632   13.5692   32.3804 C   0  0  0  0  0  0  0  0  0  0  0  0
   20.5838   14.8942   32.3243 N   0  0  0  0  0  0  0  0  0  0  0  0
   21.2544   15.6246   31.4273 C   0  0  0  0  0  0  0  0  0  0  0  0
   21.4161   16.9355   31.1855 N   0  0  0  0  0  0  0  0  0  0  0  0
   22.2233   17.0929   30.1228 C   0  0  0  0  0  0  0  0  0  0  0  0
   22.5598   15.8566   29.7097 N   0  0  0  0  0  0  0  0  0  0  0  0
   21.9891   14.9178   30.4791 C   0  0  0  0  0  0  0  0  0  0  0  0
   21.9751   13.5446   30.5285 C   0  0  0  0  0  0  0  0  0  0  0  0
   21.2769   12.8820   31.4604 N   0  0  0  0  0  0  0  0  0  0  0  0
   23.1824   15.6007   28.8975 H   0  0  0  0  0  0  0  0  0  0  0  0
 18 19  1  0  0  0
 19 20  2  0  0  0
 19 27  1  0  0  0
 20 21  1  0  0  0
 21 22  1  0  0  0
 21 25  2  0  0  0
 22 23  2  0  0  0
 23 24  1  0  0  0
 24 25  1  0  0  0
 25 26  1  0  0  0
 26 27  2  0  0  0
 26 16  1  0  0  0
 16  1  1  0  0  0
  1  2  1  0  0  0
  2  3  2  0  0  0
  2  4  1  0  0  0
  4  5  1  0  0  0
  4  9  1  0  0  0
  5  6  1  0  0  0
  6  7  1  0  0  0
  7  8  1  0  0  0
  7 10  1  0  0  0
  8  9  1  0  0  0
 10 11  2  0  0  0
 10 15  1  0  0  0
 11 12  1  0  0  0
 12 13  2  0  0  0
 13 14  1  0  0  0
 14 15  2  0  0  0
 24 28  1  0  0  0
 16 17  1  0  0  0
M  END
> <minimizedAffinity>
-8.91675

$$$$
1726


 30 33  0  0  0  0  0  0  0  0999 V2000
   25.4083    6.8545   29.8119 C   0  0  0  0  0  0  0  0  0  0  0  0
   25.8800    6.4304   28.5081 N   0  0  0  0  0  0  0  0  0  0  0  0
   27.2377    6.8467   28.3953 C   0  0  0  0  0  0  0  0  0  0  0  0
   28.1990    5.7847   27.9638 C   0  0  0  0  0  0  0  0  0  0  0  0
   28.4970    4.7621   29.0022 C   0  0  0  0  0  0  0  0  0  0  0  0
   28.0197    3.4404   28.7063 N   0  0  0  0  0  0  0  0  0  0  0  0
   27.0111    3.1636   27.8586 C   0  0  0  0  0  0  0  0  0  0  0  0
   26.5564    1.9074   27.5776 C   0  0  0  0  0  0  0  0  0  0  0  0
   27.1614    0.8317   28.1952 C   0  0  0  0  0  0  0  0  0  0  0  0
   28.1924    1.1055   29.0620 C   0  0  0  0  0  0  0  0  0  0  0  0
   28.6243    2.3840   29.3224 C   0  0  0  0  0  0  0  0  0  0  0  0
   29.5718    2.5963   30.1230 O   0  0  0  0  0  0  0  0  0  0  0  0
   26.3915    4.3847   27.2172 C   0  0  0  0  0  0  0  0  0  0  0  0
   25.6019    5.0679   28.2620 C   0  0  0  0  0  0  0  0  0  0  0  0
   27.5759    5.1678   26.7058 C   0  0  0  0  0  0  0  0  0  0  0  0
   25.3144    7.0052   27.8116 H   0  0  0  0  0  0  0  0  0  0  0  0
   24.9879    8.2881   29.8674 C   0  0  0  0  0  0  0  0  0  0  0  0
   25.4954    8.8860   31.0196 O   0  0  0  0  0  0  0  0  0  0  0  0
   24.9030    8.5871   31.7666 H   0  0  0  0  0  0  0  0  0  0  0  0
   23.4597    8.2966   29.8638 C   0  0  0  0  0  0  0  0  0  0  0  0
   23.0548    7.9852   31.1653 O   0  0  0  0  0  0  0  0  0  0  0  0
   21.8499   10.6221   31.9748 Br  0  0  0  0  0  0  0  0  0  0  0  0
   21.0538    8.8932   32.0517 C   0  0  0  0  0  0  0  0  0  0  0  0
   21.7924    7.8125   31.6252 C   0  0  0  0  0  0  0  0  0  0  0  0
   21.2029    6.5694   31.6873 C   0  0  0  0  0  0  0  0  0  0  0  0
   19.8987    6.4140   32.1672 C   0  0  0  0  0  0  0  0  0  0  0  0
   19.1833    7.5186   32.5876 C   0  0  0  0  0  0  0  0  0  0  0  0
   19.7532    8.7566   32.5321 C   0  0  0  0  0  0  0  0  0  0  0  0
   17.7864    7.3792   33.1047 C   0  0  0  0  0  0  0  0  0  0  0  0
   22.1973    5.0545   31.1058 Br  0  0  0  0  0  0  0  0  0  0  0  0
 22 23  1  0  0  0
 23 24  2  0  0  0
 23 28  1  0  0  0
 24 25  1  0  0  0
 24 21  1  0  0  0
 25 26  2  0  0  0
 25 30  1  0  0  0
 26 27  1  0  0  0
 27 28  2  0  0  0
 27 29  1  0  0  0
 21 20  1  0  0  0
 20 17  1  0  0  0
 17 18  1  0  0  0
 17  1  1  0  0  0
  1  2  1  0  0  0
  2  3  1  0  0  0
  2 14  1  0  0  0
  3  4  1  0  0  0
  4  5  1  0  0  0
  4 15  1  0  0  0
  5  6  1  0  0  0
  6  7  1  0  0  0
  6 11  1  0  0  0
  7  8  2  0  0  0
  7 13  1  0  0  0
  8  9  1  0  0  0
  9 10  2  0  0  0
 10 11  1  0  0  0
 11 12  2  0  0  0
 13 14  1  0  0  0
 13 15  1  0  0  0
 18 19  1  0  0  0
  2 16  1  0  0  0
M  CHG 1   2   1
M  END
> <minimizedAffinity>
-7.93624

$$$$
1732


 28 31  0  0  0  0  0  0  0  0999 V2000
   24.5878   10.3211   29.9908 N   0  0  0  0  0  0  0  0  0  0  0  0
   25.3058    9.8841   31.0121 N   0  0  0  0  0  0  0  0  0  0  0  0
   24.6525    8.9141   31.6421 N   0  0  0  0  0  0  0  0  0  0  0  0
   23.4770    8.7196   31.0081 C   0  0  0  0  0  0  0  0  0  0  0  0
   23.4764    9.6047   29.9978 N   0  0  0  0  0  0  0  0  0  0  0  0
   22.4432    7.7554   31.3545 C   0  0  0  0  0  0  0  0  0  0  0  0
   22.6390    6.4412   30.9994 C   0  0  0  0  0  0  0  0  0  0  0  0
   21.6544    5.5245   31.3290 C   0  0  0  0  0  0  0  0  0  0  0  0
   20.5081    5.8887   31.9890 C   0  0  0  0  0  0  0  0  0  0  0  0
   20.3095    7.2073   32.3459 C   0  0  0  0  0  0  0  0  0  0  0  0
   21.2946    8.1215   32.0161 C   0  0  0  0  0  0  0  0  0  0  0  0
   23.8040    5.9863   30.3123 N   0  0  0  0  0  0  0  0  0  0  0  0
   24.0296    6.1861   29.0199 N   0  0  0  0  0  0  0  0  0  0  0  0
   25.1846    5.6445   28.7033 N   0  0  0  0  0  0  0  0  0  0  0  0
   25.6969    5.0956   29.8023 N   0  0  0  0  0  0  0  0  0  0  0  0
   24.8286    5.3110   30.8126 C   0  0  0  0  0  0  0  0  0  0  0  0
   24.9493   11.3845   29.0397 C   0  0  0  0  0  0  0  0  0  0  0  0
   23.3465   12.7342   30.4314 N   0  0  0  0  0  0  0  0  0  0  0  0
   24.1579   12.6151   29.3030 C   0  0  0  0  0  0  0  0  0  0  0  0
   24.2545   13.5321   28.4667 O   0  0  0  0  0  0  0  0  0  0  0  0
   23.3364   11.8916   31.0804 H   0  0  0  0  0  0  0  0  0  0  0  0
   21.0839   11.8553   32.2596 Br  0  0  0  0  0  0  0  0  0  0  0  0
   21.4438   13.6185   31.6716 C   0  0  0  0  0  0  0  0  0  0  0  0
   22.5372   13.8198   30.8281 C   0  0  0  0  0  0  0  0  0  0  0  0
   22.7395   15.1309   30.4397 C   0  0  0  0  0  0  0  0  0  0  0  0
   21.9139   16.1781   30.8559 C   0  0  0  0  0  0  0  0  0  0  0  0
   20.8529   15.9166   31.6860 C   0  0  0  0  0  0  0  0  0  0  0  0
   20.6135   14.6252   32.0996 C   0  0  0  0  0  0  0  0  0  0  0  0
 22 23  1  0  0  0
 23 24  2  0  0  0
 23 28  1  0  0  0
 24 25  1  0  0  0
 24 18  1  0  0  0
 25 26  2  0  0  0
 26 27  1  0  0  0
 27 28  2  0  0  0
 18 19  1  0  0  0
 19 20  2  0  0  0
 19 17  1  0  0  0
 17  1  1  0  0  0
  1  2  1  0  0  0
  1  5  1  0  0  0
  2  3  2  0  0  0
  3  4  1  0  0  0
  4  5  2  0  0  0
  4  6  1  0  0  0
  6  7  1  0  0  0
  6 11  2  0  0  0
  7  8  2  0  0  0
  7 12  1  0  0  0
  8  9  1  0  0  0
  9 10  2  0  0  0
 10 11  1  0  0  0
 12 13  1  0  0  0
 12 16  1  0  0  0
 13 14  2  0  0  0
 14 15  1  0  0  0
 15 16  2  0  0  0
 18 21  1  0  0  0
M  END
> <minimizedAffinity>
-8.61660

$$$$
1736


 35 39  0  0  0  0  0  0  0  0999 V2000
   27.8536    9.3763   29.3986 Cl  0  0  0  0  0  0  0  0  0  0  0  0
   27.8828    7.8874   28.4400 C   0  0  0  0  0  0  0  0  0  0  0  0
   27.5463    6.6807   29.0013 C   0  0  0  0  0  0  0  0  0  0  0  0
   27.5714    5.5343   28.2528 C   0  0  0  0  0  0  0  0  0  0  0  0
   27.9376    5.6015   26.9322 C   0  0  0  0  0  0  0  0  0  0  0  0
   28.2842    6.8129   26.3341 C   0  0  0  0  0  0  0  0  0  0  0  0
   28.2490    7.9474   27.1133 C   0  0  0  0  0  0  0  0  0  0  0  0
   27.9068    4.3225   26.3268 N   0  0  0  0  0  0  0  0  0  0  0  0
   27.4975    3.4086   27.3334 C   0  0  0  0  0  0  0  0  0  0  0  0
   27.3562    2.1760   27.1836 O   0  0  0  0  0  0  0  0  0  0  0  0
   27.2597    4.1287   28.5988 C   0  0  0  0  0  0  0  0  0  0  0  0
   28.0781    3.6347   29.6790 N   0  0  0  0  0  0  0  0  0  0  0  0
   27.2997    3.6903   30.8764 C   0  0  0  0  0  0  0  0  0  0  0  0
   25.8633    3.4430   30.4782 C   0  0  0  0  0  0  0  0  0  0  0  0
   25.8595    3.9193   29.0481 C   0  0  0  0  0  0  0  0  0  0  0  0
   25.0149    5.1385   29.0135 C   0  0  0  0  0  0  0  0  0  0  0  0
   24.9903    6.0608   28.1599 O   0  0  0  0  0  0  0  0  0  0  0  0
   24.1843    5.0739   30.1910 N   0  0  0  0  0  0  0  0  0  0  0  0
   24.8988    4.3192   31.1911 C   0  0  0  0  0  0  0  0  0  0  0  0
   24.7497    4.3751   32.4394 O   0  0  0  0  0  0  0  0  0  0  0  0
   28.1358    4.0515   25.3258 H   0  0  0  0  0  0  0  0  0  0  0  0
   28.9455    4.1765   29.7462 H   0  0  0  0  0  0  0  0  0  0  0  0
   27.7758    2.6875   31.9055 C   0  0  0  0  0  0  0  0  0  0  0  0
   26.6483    2.1278   32.4996 O   0  0  0  0  0  0  0  0  0  0  0  0
   28.4826    3.4874   32.9947 C   0  0  0  0  0  0  0  0  0  0  0  0
   26.2654    2.7643   33.1449 H   0  0  0  0  0  0  0  0  0  0  0  0
   22.8688    5.6539   30.3598 C   0  0  0  0  0  0  0  0  0  0  0  0
   22.9801    6.9958   31.0063 C   0  0  0  0  0  0  0  0  0  0  0  0
   21.9026    7.5569   31.6586 C   0  0  0  0  0  0  0  0  0  0  0  0
   22.0312    8.8019   32.2503 C   0  0  0  0  0  0  0  0  0  0  0  0
   23.2156    9.5115   32.2113 C   0  0  0  0  0  0  0  0  0  0  0  0
   24.2979    8.9602   31.5620 C   0  0  0  0  0  0  0  0  0  0  0  0
   24.1573    7.7222   30.9783 C   0  0  0  0  0  0  0  0  0  0  0  0
   20.7043    6.8370   31.6970 O   0  0  0  0  0  0  0  0  0  0  0  0
   20.1592    6.4945   32.9756 C   0  0  0  0  0  0  0  0  0  0  0  0
  1  2  1  0  0  0
  2  3  2  0  0  0
  2  7  1  0  0  0
  3  4  1  0  0  0
  4  5  2  0  0  0
  4 11  1  0  0  0
  5  6  1  0  0  0
  5  8  1  0  0  0
  6  7  2  0  0  0
  8  9  1  0  0  0
  9 10  2  0  0  0
  9 11  1  0  0  0
 11 12  1  0  0  0
 11 15  1  0  0  0
 12 13  1  0  0  0
 13 14  1  0  0  0
 13 23  1  0  0  0
 14 15  1  0  0  0
 14 19  1  0  0  0
 15 16  1  0  0  0
 16 17  2  0  0  0
 16 18  1  0  0  0
 18 19  1  0  0  0
 18 27  1  0  0  0
 19 20  2  0  0  0
 27 28  1  0  0  0
 28 29  2  0  0  0
 28 33  1  0  0  0
 29 30  1  0  0  0
 29 34  1  0  0  0
 30 31  2  0  0  0
 31 32  1  0  0  0
 32 33  2  0  0  0
 34 35  1  0  0  0
 23 24  1  0  0  0
 23 25  1  0  0  0
  8 21  1  0  0  0
 12 22  1  0  0  0
 24 26  1  0  0  0
M  END
> <minimizedAffinity>
-7.49037

$$$$
1741


 28 31  0  0  0  0  0  0  0  0999 V2000
   23.8625    8.8099   30.0352 C   0  0  0  0  0  0  0  0  0  0  0  0
   23.1720    8.4882   29.0482 O   0  0  0  0  0  0  0  0  0  0  0  0
   24.4908   10.0628   30.0829 N   0  0  0  0  0  0  0  0  0  0  0  0
   24.3836   11.0470   29.0286 C   0  0  0  0  0  0  0  0  0  0  0  0
   23.9435   12.3470   29.6811 C   0  0  0  0  0  0  0  0  0  0  0  0
   23.6219   12.1665   31.0351 N   0  0  0  0  0  0  0  0  0  0  0  0
   24.5674   11.6170   31.9174 C   0  0  0  0  0  0  0  0  0  0  0  0
   25.3154   10.4825   31.2261 C   0  0  0  0  0  0  0  0  0  0  0  0
   24.0048    7.8296   31.1651 C   0  0  0  0  0  0  0  0  0  0  0  0
   17.3820    8.4700   33.7252 Br  0  0  0  0  0  0  0  0  0  0  0  0
   19.1181    8.1048   32.9965 C   0  0  0  0  0  0  0  0  0  0  0  0
   19.4150    6.8271   32.5172 C   0  0  0  0  0  0  0  0  0  0  0  0
   20.6808    6.5866   31.9925 C   0  0  0  0  0  0  0  0  0  0  0  0
   21.6429    7.5675   31.9335 C   0  0  0  0  0  0  0  0  0  0  0  0
   22.7877    7.0755   31.3781 N   0  0  0  0  0  0  0  0  0  0  0  0
   22.5276    5.7930   31.0968 C   0  0  0  0  0  0  0  0  0  0  0  0
   21.2413    5.4468   31.4582 C   0  0  0  0  0  0  0  0  0  0  0  0
   21.3573    8.8284   32.4033 C   0  0  0  0  0  0  0  0  0  0  0  0
   20.0937    9.0761   32.9295 C   0  0  0  0  0  0  0  0  0  0  0  0
   22.3033   12.3731   31.4705 C   0  0  0  0  0  0  0  0  0  0  0  0
   21.7758   13.7381   31.2081 C   0  0  0  0  0  0  0  0  0  0  0  0
   22.4938   14.4916   30.5039 O   0  0  0  0  0  0  0  0  0  0  0  0
   20.5483   14.2095   31.6980 N   0  0  0  0  0  0  0  0  0  0  0  0
   20.1115   15.5596   31.4031 C   0  0  0  0  0  0  0  0  0  0  0  0
   18.7290   15.4574   30.7935 C   0  0  0  0  0  0  0  0  0  0  0  0
   17.9055   14.9627   31.8155 O   0  0  0  0  0  0  0  0  0  0  0  0
   18.2229   13.6657   32.1409 C   0  0  0  0  0  0  0  0  0  0  0  0
   19.6443   13.4209   32.5112 C   0  0  0  0  0  0  0  0  0  0  0  0
 10 11  1  0  0  0
 11 12  2  0  0  0
 11 19  1  0  0  0
 12 13  1  0  0  0
 13 14  2  0  0  0
 13 17  1  0  0  0
 14 15  1  0  0  0
 14 18  1  0  0  0
 15 16  1  0  0  0
 15  9  1  0  0  0
 16 17  2  0  0  0
  9  1  1  0  0  0
  1  2  2  0  0  0
  1  3  1  0  0  0
  3  4  1  0  0  0
  3  8  1  0  0  0
  4  5  1  0  0  0
  5  6  1  0  0  0
  6  7  1  0  0  0
  6 20  1  0  0  0
  7  8  1  0  0  0
 20 21  1  0  0  0
 21 22  2  0  0  0
 21 23  1  0  0  0
 23 24  1  0  0  0
 23 28  1  0  0  0
 24 25  1  0  0  0
 25 26  1  0  0  0
 26 27  1  0  0  0
 27 28  1  0  0  0
 18 19  2  0  0  0
M  END
> <minimizedAffinity>
-9.52505

$$$$
1744


 34 37  0  0  0  0  0  0  0  0999 V2000
   23.2249    8.3939   30.4506 N   0  0  0  0  0  0  0  0  0  0  0  0
   24.5514    8.0198   30.8188 C   0  0  0  0  0  0  0  0  0  0  0  0
   24.8142    7.0993   31.6309 O   0  0  0  0  0  0  0  0  0  0  0  0
   25.6397    8.7292   30.2308 N   0  0  0  0  0  0  0  0  0  0  0  0
   25.3695    9.7866   29.2977 C   0  0  0  0  0  0  0  0  0  0  0  0
   26.3744   10.2126   28.6360 O   0  0  0  0  0  0  0  0  0  0  0  0
   24.0219   10.3535   29.1068 C   0  0  0  0  0  0  0  0  0  0  0  0
   22.9359    9.4336   29.5253 C   0  0  0  0  0  0  0  0  0  0  0  0
   21.7893    9.6085   29.0448 O   0  0  0  0  0  0  0  0  0  0  0  0
   26.6430    8.5058   30.4578 H   0  0  0  0  0  0  0  0  0  0  0  0
   18.9754    8.5469   33.3766 Cl  0  0  0  0  0  0  0  0  0  0  0  0
   20.1480    7.6837   32.4182 C   0  0  0  0  0  0  0  0  0  0  0  0
   21.2013    8.3356   31.8264 C   0  0  0  0  0  0  0  0  0  0  0  0
   22.1542    7.6840   31.0626 C   0  0  0  0  0  0  0  0  0  0  0  0
   22.0330    6.3376   30.8986 C   0  0  0  0  0  0  0  0  0  0  0  0
   20.9839    5.6293   31.4766 C   0  0  0  0  0  0  0  0  0  0  0  0
   20.0540    6.3164   32.2304 C   0  0  0  0  0  0  0  0  0  0  0  0
   23.8919   11.6693   29.8370 C   0  0  0  0  0  0  0  0  0  0  0  0
   24.0068   11.8043   31.1456 C   0  0  0  0  0  0  0  0  0  0  0  0
   23.8044   13.2467   31.4070 C   0  0  0  0  0  0  0  0  0  0  0  0
   24.2652   13.8434   30.1661 N   0  0  0  0  0  0  0  0  0  0  0  0
   23.6590   12.9490   29.2496 N   0  0  0  0  0  0  0  0  0  0  0  0
   24.0041   14.8230   30.0278 H   0  0  0  0  0  0  0  0  0  0  0  0
   23.1629   13.0973   28.3709 H   0  0  0  0  0  0  0  0  0  0  0  0
   22.3623   13.5452   31.6313 C   0  0  0  0  0  0  0  0  0  0  0  0
   21.7949   14.7843   31.5430 C   0  0  0  0  0  0  0  0  0  0  0  0
   20.4431   15.0019   31.7223 C   0  0  0  0  0  0  0  0  0  0  0  0
   19.5975   13.9447   32.0051 C   0  0  0  0  0  0  0  0  0  0  0  0
   20.1870   12.6732   32.0948 C   0  0  0  0  0  0  0  0  0  0  0  0
   21.5356   12.4751   31.9144 C   0  0  0  0  0  0  0  0  0  0  0  0
   19.9090   16.2986   31.6223 O   0  0  0  0  0  0  0  0  0  0  0  0
   20.5449   17.0612   31.4131 H   0  0  0  0  0  0  0  0  0  0  0  0
   18.2470   14.1223   32.1849 O   0  0  0  0  0  0  0  0  0  0  0  0
   17.4591   13.1871   32.8918 C   0  0  0  0  0  0  0  0  0  0  0  0
 11 12  1  0  0  0
 12 13  2  0  0  0
 12 17  1  0  0  0
 13 14  1  0  0  0
 14 15  2  0  0  0
 14  1  1  0  0  0
 15 16  1  0  0  0
 16 17  2  0  0  0
  1  2  1  0  0  0
  1  8  1  0  0  0
  2  3  2  0  0  0
  2  4  1  0  0  0
  4  5  1  0  0  0
  5  6  2  0  0  0
  5  7  1  0  0  0
  7  8  1  0  0  0
  7 18  1  0  0  0
  8  9  2  0  0  0
 18 19  2  0  0  0
 18 22  1  0  0  0
 19 20  1  0  0  0
 20 21  1  0  0  0
 20 25  1  0  0  0
 21 22  1  0  0  0
 25 26  2  0  0  0
 25 30  1  0  0  0
 26 27  1  0  0  0
 27 28  2  0  0  0
 27 31  1  0  0  0
 28 29  1  0  0  0
 28 33  1  0  0  0
 29 30  2  0  0  0
 33 34  1  0  0  0
  4 10  1  0  0  0
 21 23  1  0  0  0
 22 24  1  0  0  0
 31 32  1  0  0  0
M  END
> <minimizedAffinity>
-9.92990

$$$$
1745


 34 37  0  0  0  0  0  0  0  0999 V2000
   23.1657    9.4607   31.0165 N   0  0  0  0  0  0  0  0  0  0  0  0
   24.3828    9.7729   31.6745 C   0  0  0  0  0  0  0  0  0  0  0  0
   24.6211    9.3676   32.8202 O   0  0  0  0  0  0  0  0  0  0  0  0
   25.3694   10.5772   31.0123 N   0  0  0  0  0  0  0  0  0  0  0  0
   25.1492   11.0697   29.6919 C   0  0  0  0  0  0  0  0  0  0  0  0
   26.0839   11.3849   28.9353 O   0  0  0  0  0  0  0  0  0  0  0  0
   23.7284   11.2083   29.2116 C   0  0  0  0  0  0  0  0  0  0  0  0
   23.0171   10.0025   29.6861 C   0  0  0  0  0  0  0  0  0  0  0  0
   22.2123    9.3652   28.9154 O   0  0  0  0  0  0  0  0  0  0  0  0
   26.2442   10.7926   31.5074 H   0  0  0  0  0  0  0  0  0  0  0  0
   18.8082    9.4664   33.6556 Cl  0  0  0  0  0  0  0  0  0  0  0  0
   20.0598    8.5849   32.8225 C   0  0  0  0  0  0  0  0  0  0  0  0
   21.0954    9.2854   32.2448 C   0  0  0  0  0  0  0  0  0  0  0  0
   22.1376    8.6462   31.5628 C   0  0  0  0  0  0  0  0  0  0  0  0
   22.0702    7.2793   31.5013 C   0  0  0  0  0  0  0  0  0  0  0  0
   21.0372    6.5705   32.0758 C   0  0  0  0  0  0  0  0  0  0  0  0
   20.0021    7.2181   32.7559 C   0  0  0  0  0  0  0  0  0  0  0  0
   23.1521   12.4786   29.7455 C   0  0  0  0  0  0  0  0  0  0  0  0
   23.6749   13.3320   30.6018 C   0  0  0  0  0  0  0  0  0  0  0  0
   22.7082   14.4439   30.8152 C   0  0  0  0  0  0  0  0  0  0  0  0
   21.4347   13.7713   30.4523 N   0  0  0  0  0  0  0  0  0  0  0  0
   21.8489   12.9588   29.3890 N   0  0  0  0  0  0  0  0  0  0  0  0
   21.0828   13.2243   31.2629 H   0  0  0  0  0  0  0  0  0  0  0  0
   21.3504   12.7383   28.5335 H   0  0  0  0  0  0  0  0  0  0  0  0
   22.9228   15.4804   29.7691 C   0  0  0  0  0  0  0  0  0  0  0  0
   23.8161   15.2709   28.6967 C   0  0  0  0  0  0  0  0  0  0  0  0
   24.0189   16.1738   27.6996 C   0  0  0  0  0  0  0  0  0  0  0  0
   23.3245   17.3688   27.7129 C   0  0  0  0  0  0  0  0  0  0  0  0
   22.4454   17.6072   28.7441 C   0  0  0  0  0  0  0  0  0  0  0  0
   22.2503   16.6837   29.7472 C   0  0  0  0  0  0  0  0  0  0  0  0
   23.5183   18.3029   26.7004 O   0  0  0  0  0  0  0  0  0  0  0  0
   24.1713   18.0920   25.9573 H   0  0  0  0  0  0  0  0  0  0  0  0
   24.9226   15.9167   26.6586 O   0  0  0  0  0  0  0  0  0  0  0  0
   26.0987   15.1848   26.9266 C   0  0  0  0  0  0  0  0  0  0  0  0
 11 12  1  0  0  0
 12 13  2  0  0  0
 12 17  1  0  0  0
 13 14  1  0  0  0
 14 15  2  0  0  0
 14  1  1  0  0  0
 15 16  1  0  0  0
 16 17  2  0  0  0
  1  2  1  0  0  0
  1  8  1  0  0  0
  2  3  2  0  0  0
  2  4  1  0  0  0
  4  5  1  0  0  0
  5  6  2  0  0  0
  5  7  1  0  0  0
  7  8  1  0  0  0
  7 18  1  0  0  0
  8  9  2  0  0  0
 18 19  2  0  0  0
 18 22  1  0  0  0
 19 20  1  0  0  0
 20 21  1  0  0  0
 20 25  1  0  0  0
 21 22  1  0  0  0
 25 26  2  0  0  0
 25 30  1  0  0  0
 26 27  1  0  0  0
 27 28  2  0  0  0
 27 33  1  0  0  0
 28 29  1  0  0  0
 28 31  1  0  0  0
 29 30  2  0  0  0
 33 34  1  0  0  0
  4 10  1  0  0  0
 21 23  1  0  0  0
 22 24  1  0  0  0
 31 32  1  0  0  0
M  END
> <minimizedAffinity>
-9.65957

$$$$
1750


 27 30  0  0  0  0  0  0  0  0999 V2000
   24.6871    7.9552   30.8902 N   0  0  0  0  0  0  0  0  0  0  0  0
   24.6124    8.8410   32.0114 C   0  0  0  0  0  0  0  0  0  0  0  0
   24.1821   10.2417   31.6200 C   0  0  0  0  0  0  0  0  0  0  0  0
   24.9636   10.6727   30.4918 N   0  0  0  0  0  0  0  0  0  0  0  0
   26.0414    9.8151   30.0406 C   0  0  0  0  0  0  0  0  0  0  0  0
   25.4514    8.4438   29.7936 C   0  0  0  0  0  0  0  0  0  0  0  0
   24.7223   11.8980   29.8064 C   0  0  0  0  0  0  0  0  0  0  0  0
   25.4167   12.2502   28.8249 O   0  0  0  0  0  0  0  0  0  0  0  0
   23.6434   12.7912   30.2348 C   0  0  0  0  0  0  0  0  0  0  0  0
   23.7713   13.8863   31.0334 N   0  0  0  0  0  0  0  0  0  0  0  0
   22.5635   14.4464   31.2024 C   0  0  0  0  0  0  0  0  0  0  0  0
   21.6887   13.7100   30.5181 N   0  0  0  0  0  0  0  0  0  0  0  0
   22.3222   12.6931   29.9182 C   0  0  0  0  0  0  0  0  0  0  0  0
   20.3904   14.0692   30.5286 C   0  0  0  0  0  0  0  0  0  0  0  0
   19.9017   15.1537   31.2032 C   0  0  0  0  0  0  0  0  0  0  0  0
   20.7993   15.9339   31.9234 C   0  0  0  0  0  0  0  0  0  0  0  0
   22.1233   15.5570   31.9054 C   0  0  0  0  0  0  0  0  0  0  0  0
   18.1971   15.5934   31.1950 Cl  0  0  0  0  0  0  0  0  0  0  0  0
   23.2437    7.1819   30.4725 S   0  0  0  0  0  0  0  0  0  0  0  0
   22.6120    7.8730   29.3081 O   0  0  0  0  0  0  0  0  0  0  0  0
   23.5557    5.7672   30.0724 O   0  0  0  0  0  0  0  0  0  0  0  0
   22.0966    7.1116   31.7494 N   0  0  0  0  0  0  0  0  0  0  0  0
   21.2953    5.9026   31.7057 C   0  0  0  0  0  0  0  0  0  0  0  0
   20.0102    6.1918   32.4444 C   0  0  0  0  0  0  0  0  0  0  0  0
   20.2113    7.0721   33.5021 O   0  0  0  0  0  0  0  0  0  0  0  0
   20.5523    8.3540   33.0765 C   0  0  0  0  0  0  0  0  0  0  0  0
   21.1648    8.2229   31.6964 C   0  0  0  0  0  0  0  0  0  0  0  0
 19 20  2  0  0  0
 19 21  2  0  0  0
 19  1  1  0  0  0
 19 22  1  0  0  0
  1  2  1  0  0  0
  1  6  1  0  0  0
  2  3  1  0  0  0
  3  4  1  0  0  0
  4  5  1  0  0  0
  4  7  1  0  0  0
  5  6  1  0  0  0
  7  8  2  0  0  0
  7  9  1  0  0  0
  9 10  1  0  0  0
  9 13  2  0  0  0
 10 11  2  0  0  0
 11 12  1  0  0  0
 11 17  1  0  0  0
 12 13  1  0  0  0
 12 14  1  0  0  0
 14 15  2  0  0  0
 15 16  1  0  0  0
 15 18  1  0  0  0
 16 17  2  0  0  0
 22 23  1  0  0  0
 22 27  1  0  0  0
 23 24  1  0  0  0
 24 25  1  0  0  0
 25 26  1  0  0  0
 26 27  1  0  0  0
M  END
> <minimizedAffinity>
-7.54862

$$$$
1758


 28 32  0  0  0  0  0  0  0  0999 V2000
   23.2160    6.4268   30.8833 N   0  0  0  0  0  0  0  0  0  0  0  0
   21.9873    6.1045   31.2443 N   0  0  0  0  0  0  0  0  0  0  0  0
   21.3339    7.1524   31.7858 C   0  0  0  0  0  0  0  0  0  0  0  0
   20.1105    7.2138   32.2547 C   0  0  0  0  0  0  0  0  0  0  0  0
   22.2162    8.2146   31.7652 C   0  0  0  0  0  0  0  0  0  0  0  0
   21.9716    9.4563   32.2106 C   0  0  0  0  0  0  0  0  0  0  0  0
   23.3719    7.7240   31.1976 C   0  0  0  0  0  0  0  0  0  0  0  0
   24.4224    8.3857   30.9999 O   0  0  0  0  0  0  0  0  0  0  0  0
   21.5526    5.1580   31.1335 H   0  0  0  0  0  0  0  0  0  0  0  0
   27.5185    2.8351   27.9445 I   0  0  0  0  0  0  0  0  0  0  0  0
   26.0856    4.0053   28.9498 C   0  0  0  0  0  0  0  0  0  0  0  0
   25.5537    3.6163   30.1623 C   0  0  0  0  0  0  0  0  0  0  0  0
   24.6035    4.3894   30.8311 C   0  0  0  0  0  0  0  0  0  0  0  0
   24.1909    5.5575   30.2739 C   0  0  0  0  0  0  0  0  0  0  0  0
   24.7310    5.9369   29.0582 C   0  0  0  0  0  0  0  0  0  0  0  0
   25.6697    5.1881   28.3823 C   0  0  0  0  0  0  0  0  0  0  0  0
   23.0343   10.3927   32.0875 N   0  0  0  0  0  0  0  0  0  0  0  0
   24.0224   10.1882   32.3351 H   0  0  0  0  0  0  0  0  0  0  0  0
   22.7354   11.7238   31.5848 C   0  0  0  0  0  0  0  0  0  0  0  0
   21.6424   12.3631   32.4279 C   0  0  0  0  0  0  0  0  0  0  0  0
   21.4033   13.6984   31.9544 N   0  0  0  0  0  0  0  0  0  0  0  0
   20.9653   13.5963   30.5664 C   0  0  0  0  0  0  0  0  0  0  0  0
   21.9893   13.0366   29.7295 N   0  0  0  0  0  0  0  0  0  0  0  0
   23.2105   13.8035   29.8372 C   0  0  0  0  0  0  0  0  0  0  0  0
   23.6724   13.8986   31.1962 N   0  0  0  0  0  0  0  0  0  0  0  0
   22.6326   14.4511   32.0585 C   0  0  0  0  0  0  0  0  0  0  0  0
   23.9827   12.5744   31.6835 C   0  0  0  0  0  0  0  0  0  0  0  0
   22.2519   11.6886   30.1661 C   0  0  0  0  0  0  0  0  0  0  0  0
 10 11  1  0  0  0
 11 12  2  0  0  0
 11 16  1  0  0  0
 12 13  1  0  0  0
 13 14  2  0  0  0
 14 15  1  0  0  0
 14  1  1  0  0  0
 15 16  2  0  0  0
  1  2  1  0  0  0
  1  7  1  0  0  0
  2  3  1  0  0  0
  3  4  2  0  0  0
  3  5  1  0  0  0
  5  6  2  0  0  0
  5  7  1  0  0  0
  6 17  1  0  0  0
 17 19  1  0  0  0
 19 20  1  0  0  0
 19 27  1  0  0  0
 19 28  1  0  0  0
 20 21  1  0  0  0
 21 22  1  0  0  0
 21 26  1  0  0  0
 22 23  1  0  0  0
 23 24  1  0  0  0
 23 28  1  0  0  0
 24 25  1  0  0  0
 25 26  1  0  0  0
 25 27  1  0  0  0
  7  8  2  0  0  0
  2  9  1  0  0  0
 17 18  1  0  0  0
M  END
> <minimizedAffinity>
-7.80512

$$$$
1764


 34 37  0  0  0  0  0  0  0  0999 V2000
   20.9690   13.7292   31.9271 N   0  0  0  0  0  0  0  0  0  0  0  0
   21.0256   12.7687   32.9185 C   0  0  0  0  0  0  0  0  0  0  0  0
   19.6591   12.8174   33.6163 C   0  0  0  0  0  0  0  0  0  0  0  0
   18.7338   13.0935   32.4517 C   0  0  0  0  0  0  0  0  0  0  0  0
   19.5876   13.8654   31.4745 C   0  0  0  0  0  0  0  0  0  0  0  0
   21.1755   11.4069   32.2620 C   0  0  0  0  0  0  0  0  0  0  0  0
   20.6181   10.4662   32.8428 O   0  0  0  0  0  0  0  0  0  0  0  0
   21.9119   11.2890   31.0705 N   0  0  0  0  0  0  0  0  0  0  0  0
   22.3797   12.0988   30.6154 H   0  0  0  0  0  0  0  0  0  0  0  0
   22.0549   10.0050   30.4288 C   0  0  0  0  0  0  0  0  0  0  0  0
   23.2782    9.2454   30.7734 C   0  0  0  0  0  0  0  0  0  0  0  0
   23.1339    7.8402   30.9165 N   0  0  0  0  0  0  0  0  0  0  0  0
   23.1648    7.0871   29.7051 C   0  0  0  0  0  0  0  0  0  0  0  0
   23.9383    5.8114   29.9717 C   0  0  0  0  0  0  0  0  0  0  0  0
   23.3551    5.1330   31.1941 C   0  0  0  0  0  0  0  0  0  0  0  0
   21.8563    5.1171   31.0572 C   0  0  0  0  0  0  0  0  0  0  0  0
   21.1897    6.3941   31.4099 C   0  0  0  0  0  0  0  0  0  0  0  0
   22.0814    7.5055   31.8184 C   0  0  0  0  0  0  0  0  0  0  0  0
   21.8324   15.1469   31.9023 S   0  0  0  0  0  0  0  0  0  0  0  0
   22.8848   15.2157   33.0074 O   0  0  0  0  0  0  0  0  0  0  0  0
   20.8816   16.2961   32.2434 O   0  0  0  0  0  0  0  0  0  0  0  0
   22.5794   15.5376   30.3816 C   0  0  0  0  0  0  0  0  0  0  0  0
   22.2428   16.7495   29.7555 C   0  0  0  0  0  0  0  0  0  0  0  0
   22.7193   17.1316   28.5342 C   0  0  0  0  0  0  0  0  0  0  0  0
   23.5822   16.2614   27.8929 C   0  0  0  0  0  0  0  0  0  0  0  0
   23.9516   15.0708   28.4426 C   0  0  0  0  0  0  0  0  0  0  0  0
   23.4374   14.7315   29.6886 C   0  0  0  0  0  0  0  0  0  0  0  0
   24.0398   13.2382   30.3727 Cl  0  0  0  0  0  0  0  0  0  0  0  0
   24.0953   16.6534   26.6104 N   0  0  0  0  0  0  0  0  0  0  0  0
   23.7057   17.9053   26.0506 C   0  0  0  0  0  0  0  0  0  0  0  0
   23.7480   18.0782   24.8196 O   0  0  0  0  0  0  0  0  0  0  0  0
   23.2598   18.9623   26.9923 C   0  0  0  0  0  0  0  0  0  0  0  0
   22.3839   18.3291   27.9212 O   0  0  0  0  0  0  0  0  0  0  0  0
   24.7513   16.0029   26.1117 H   0  0  0  0  0  0  0  0  0  0  0  0
 19 20  2  0  0  0
 19 21  2  0  0  0
 19  1  1  0  0  0
 19 22  1  0  0  0
  1  2  1  0  0  0
  1  5  1  0  0  0
  2  3  1  0  0  0
  2  6  1  0  0  0
  3  4  1  0  0  0
  4  5  1  0  0  0
  6  7  2  0  0  0
  6  8  1  0  0  0
  8 10  1  0  0  0
 10 11  1  0  0  0
 11 12  1  0  0  0
 12 13  1  0  0  0
 12 18  1  0  0  0
 13 14  1  0  0  0
 14 15  1  0  0  0
 15 16  1  0  0  0
 16 17  1  0  0  0
 17 18  1  0  0  0
 22 23  2  0  0  0
 22 27  1  0  0  0
 23 24  1  0  0  0
 24 25  2  0  0  0
 24 33  1  0  0  0
 25 26  1  0  0  0
 25 29  1  0  0  0
 26 27  2  0  0  0
 27 28  1  0  0  0
 29 30  1  0  0  0
 30 31  2  0  0  0
 30 32  1  0  0  0
 32 33  1  0  0  0
  8  9  1  0  0  0
 29 34  1  0  0  0
M  END
> <minimizedAffinity>
-8.76194

$$$$
1781


 24 27  0  0  0  0  0  0  0  0999 V2000
   22.7742    8.6750   30.8950 C   0  0  0  0  0  0  0  0  0  0  0  0
   22.6297    8.0707   29.7421 O   0  0  0  0  0  0  0  0  0  0  0  0
   24.0473    9.1687   31.1366 N   0  0  0  0  0  0  0  0  0  0  0  0
   24.6046    9.8216   32.2739 C   0  0  0  0  0  0  0  0  0  0  0  0
   24.6094   11.3203   31.9101 C   0  0  0  0  0  0  0  0  0  0  0  0
   25.0281   11.4198   30.4996 N   0  0  0  0  0  0  0  0  0  0  0  0
   25.8308   10.3587   29.9630 C   0  0  0  0  0  0  0  0  0  0  0  0
   25.0330    9.0689   30.0085 C   0  0  0  0  0  0  0  0  0  0  0  0
   24.6312   12.5518   29.7300 C   0  0  0  0  0  0  0  0  0  0  0  0
   25.4596   13.0993   28.8132 N   0  0  0  0  0  0  0  0  0  0  0  0
   25.1269   14.1492   28.0838 N   0  0  0  0  0  0  0  0  0  0  0  0
   23.9364   14.7547   28.1969 C   0  0  0  0  0  0  0  0  0  0  0  0
   23.8571   15.7993   27.3362 N   0  0  0  0  0  0  0  0  0  0  0  0
   25.0030   15.8456   26.6822 N   0  0  0  0  0  0  0  0  0  0  0  0
   25.7924   14.8496   27.1224 C   0  0  0  0  0  0  0  0  0  0  0  0
   23.0311   14.2519   29.1157 C   0  0  0  0  0  0  0  0  0  0  0  0
   23.4024   13.1586   29.8627 C   0  0  0  0  0  0  0  0  0  0  0  0
   17.5991    8.5716   34.0309 Cl  0  0  0  0  0  0  0  0  0  0  0  0
   19.1219    8.6244   33.1316 C   0  0  0  0  0  0  0  0  0  0  0  0
   19.5739    7.5258   32.4433 C   0  0  0  0  0  0  0  0  0  0  0  0
   20.7589    7.5703   31.7460 C   0  0  0  0  0  0  0  0  0  0  0  0
   21.5753    8.7057   31.6834 C   0  0  0  0  0  0  0  0  0  0  0  0
   21.0978    9.7913   32.3816 C   0  0  0  0  0  0  0  0  0  0  0  0
   19.8883    9.7598   33.0991 C   0  0  0  0  0  0  0  0  0  0  0  0
 18 19  1  0  0  0
 19 20  2  0  0  0
 19 24  1  0  0  0
 20 21  1  0  0  0
 21 22  2  0  0  0
 22 23  1  0  0  0
 22  1  1  0  0  0
 23 24  2  0  0  0
  1  2  2  0  0  0
  1  3  1  0  0  0
  3  4  1  0  0  0
  3  8  1  0  0  0
  4  5  1  0  0  0
  5  6  1  0  0  0
  6  7  1  0  0  0
  6  9  1  0  0  0
  7  8  1  0  0  0
  9 10  2  0  0  0
  9 17  1  0  0  0
 10 11  1  0  0  0
 11 12  1  0  0  0
 11 15  1  0  0  0
 12 13  2  0  0  0
 12 16  1  0  0  0
 13 14  1  0  0  0
 14 15  2  0  0  0
 16 17  2  0  0  0
M  END
> <minimizedAffinity>
-8.69591

$$$$
1788


 30 33  0  0  0  0  0  0  0  0999 V2000
   23.4252    6.2729   31.1274 N   0  0  0  0  0  0  0  0  0  0  0  0
   22.5618    6.8100   31.9143 N   0  0  0  0  0  0  0  0  0  0  0  0
   22.0338    7.9715   31.3732 C   0  0  0  0  0  0  0  0  0  0  0  0
   22.6222    8.1272   30.2022 N   0  0  0  0  0  0  0  0  0  0  0  0
   23.4846    7.0648   30.0544 C   0  0  0  0  0  0  0  0  0  0  0  0
   24.2034    6.9033   29.0451 O   0  0  0  0  0  0  0  0  0  0  0  0
   26.4367    1.1938   32.2472 Cl  0  0  0  0  0  0  0  0  0  0  0  0
   25.5513    2.6720   31.9227 C   0  0  0  0  0  0  0  0  0  0  0  0
   24.2487    2.8697   32.3406 C   0  0  0  0  0  0  0  0  0  0  0  0
   23.5584    4.0413   32.0811 C   0  0  0  0  0  0  0  0  0  0  0  0
   24.1515    5.0752   31.3840 C   0  0  0  0  0  0  0  0  0  0  0  0
   25.4512    4.8900   30.9617 C   0  0  0  0  0  0  0  0  0  0  0  0
   26.1448    3.7114   31.2236 C   0  0  0  0  0  0  0  0  0  0  0  0
   21.0512    8.7499   32.1244 C   0  0  0  0  0  0  0  0  0  0  0  0
   19.7940    8.1764   32.3538 C   0  0  0  0  0  0  0  0  0  0  0  0
   18.7660    8.8179   32.9877 C   0  0  0  0  0  0  0  0  0  0  0  0
   18.9250   10.1170   33.4515 C   0  0  0  0  0  0  0  0  0  0  0  0
   20.1471   10.6878   33.2315 C   0  0  0  0  0  0  0  0  0  0  0  0
   21.1941   10.0273   32.5823 C   0  0  0  0  0  0  0  0  0  0  0  0
   22.5238    9.2079   29.2724 C   0  0  0  0  0  0  0  0  0  0  0  0
   23.4550   10.3286   29.5034 C   0  0  0  0  0  0  0  0  0  0  0  0
   24.7010   10.0046   29.3163 O   0  0  0  0  0  0  0  0  0  0  0  0
   23.2320   11.6352   29.8766 N   0  0  0  0  0  0  0  0  0  0  0  0
   21.9499   12.2124   30.1806 C   0  0  0  0  0  0  0  0  0  0  0  0
   22.0619   13.6844   30.6159 C   0  0  0  0  0  0  0  0  0  0  0  0
   22.8106   14.4270   29.5973 N   0  0  0  0  0  0  0  0  0  0  0  0
   24.0150   13.7530   29.1718 C   0  0  0  0  0  0  0  0  0  0  0  0
   24.6676   14.1829   28.1935 O   0  0  0  0  0  0  0  0  0  0  0  0
   24.3755   12.5590   29.9735 C   0  0  0  0  0  0  0  0  0  0  0  0
   22.5143   15.3318   29.2219 H   0  0  0  0  0  0  0  0  0  0  0  0
  7  8  1  0  0  0
  8  9  2  0  0  0
  8 13  1  0  0  0
  9 10  1  0  0  0
 10 11  2  0  0  0
 11 12  1  0  0  0
 11  1  1  0  0  0
 12 13  2  0  0  0
  1  2  1  0  0  0
  1  5  1  0  0  0
  2  3  2  0  0  0
  3  4  1  0  0  0
  3 14  1  0  0  0
  4  5  1  0  0  0
  4 20  1  0  0  0
  5  6  2  0  0  0
 20 21  1  0  0  0
 21 22  2  0  0  0
 21 23  1  0  0  0
 23 24  1  0  0  0
 23 29  1  0  0  0
 24 25  1  0  0  0
 25 26  1  0  0  0
 26 27  1  0  0  0
 27 28  2  0  0  0
 27 29  1  0  0  0
 14 15  2  0  0  0
 14 19  1  0  0  0
 15 16  1  0  0  0
 16 17  2  0  0  0
 17 18  1  0  0  0
 18 19  2  0  0  0
 26 30  1  0  0  0
M  END
> <minimizedAffinity>
-9.79046

$$$$
1789


 29 32  0  0  0  0  0  0  0  0999 V2000
   22.4610    9.4687   31.5557 N   0  0  0  0  0  0  0  0  0  0  0  0
   23.4524    8.6116   31.4963 N   0  0  0  0  0  0  0  0  0  0  0  0
   24.4513    9.2268   30.8708 N   0  0  0  0  0  0  0  0  0  0  0  0
   24.1022   10.4815   30.5280 C   0  0  0  0  0  0  0  0  0  0  0  0
   22.8468   10.6157   30.9679 C   0  0  0  0  0  0  0  0  0  0  0  0
   22.4831   11.9076   30.6154 C   0  0  0  0  0  0  0  0  0  0  0  0
   21.3633   12.4091   30.8622 O   0  0  0  0  0  0  0  0  0  0  0  0
   23.4752   12.5514   29.9822 N   0  0  0  0  0  0  0  0  0  0  0  0
   24.4851   11.6633   29.9270 C   0  0  0  0  0  0  0  0  0  0  0  0
   25.6180   11.8791   29.4021 O   0  0  0  0  0  0  0  0  0  0  0  0
   23.4630    7.6173   31.8719 H   0  0  0  0  0  0  0  0  0  0  0  0
   25.3754    8.7683   30.6852 H   0  0  0  0  0  0  0  0  0  0  0  0
   17.1381    8.3496   33.9926 Cl  0  0  0  0  0  0  0  0  0  0  0  0
   18.7150    8.6989   33.2807 C   0  0  0  0  0  0  0  0  0  0  0  0
   19.3942    9.8584   33.5256 C   0  0  0  0  0  0  0  0  0  0  0  0
   20.6268   10.1667   32.9884 C   0  0  0  0  0  0  0  0  0  0  0  0
   21.2012    9.2229   32.1426 C   0  0  0  0  0  0  0  0  0  0  0  0
   20.5101    8.0315   31.8864 C   0  0  0  0  0  0  0  0  0  0  0  0
   19.2898    7.7739   32.4443 C   0  0  0  0  0  0  0  0  0  0  0  0
   23.5012   13.8787   29.4657 C   0  0  0  0  0  0  0  0  0  0  0  0
   22.8718   14.9393   30.0874 C   0  0  0  0  0  0  0  0  0  0  0  0
   22.9026   16.2221   29.5812 C   0  0  0  0  0  0  0  0  0  0  0  0
   23.5734   16.5061   28.4098 C   0  0  0  0  0  0  0  0  0  0  0  0
   24.2066   15.4570   27.7774 C   0  0  0  0  0  0  0  0  0  0  0  0
   24.1708   14.1741   28.2935 C   0  0  0  0  0  0  0  0  0  0  0  0
   23.5983   17.8042   27.9063 O   0  0  0  0  0  0  0  0  0  0  0  0
   23.0357   18.1716   26.6844 C   0  0  0  0  0  0  0  0  0  0  0  0
   22.2680   17.2901   30.2078 O   0  0  0  0  0  0  0  0  0  0  0  0
   22.0501   17.1891   31.6029 C   0  0  0  0  0  0  0  0  0  0  0  0
 13 14  1  0  0  0
 14 15  2  0  0  0
 14 19  1  0  0  0
 15 16  1  0  0  0
 16 17  2  0  0  0
 17 18  1  0  0  0
 17  1  1  0  0  0
 18 19  2  0  0  0
  1  2  1  0  0  0
  1  5  1  0  0  0
  2  3  1  0  0  0
  3  4  1  0  0  0
  4  5  2  0  0  0
  4  9  1  0  0  0
  5  6  1  0  0  0
  6  7  2  0  0  0
  6  8  1  0  0  0
  8  9  1  0  0  0
  8 20  1  0  0  0
  9 10  2  0  0  0
 20 21  2  0  0  0
 20 25  1  0  0  0
 21 22  1  0  0  0
 22 23  2  0  0  0
 22 28  1  0  0  0
 23 24  1  0  0  0
 23 26  1  0  0  0
 24 25  2  0  0  0
 26 27  1  0  0  0
 28 29  1  0  0  0
  2 11  1  0  0  0
  3 12  1  0  0  0
M  END
> <minimizedAffinity>
-8.86095

$$$$
1790


 29 32  0  0  0  0  0  0  0  0999 V2000
   20.2500   10.0231   32.6402 N   0  0  0  0  0  0  0  0  0  0  0  0
   19.0935    9.7292   33.2002 N   0  0  0  0  0  0  0  0  0  0  0  0
   19.0144    8.4045   33.2025 N   0  0  0  0  0  0  0  0  0  0  0  0
   20.1051    7.8455   32.6507 C   0  0  0  0  0  0  0  0  0  0  0  0
   20.8823    8.8830   32.2974 C   0  0  0  0  0  0  0  0  0  0  0  0
   22.0026    8.3056   31.7304 C   0  0  0  0  0  0  0  0  0  0  0  0
   22.9645    8.9942   31.2769 O   0  0  0  0  0  0  0  0  0  0  0  0
   21.9296    6.9642   31.7294 N   0  0  0  0  0  0  0  0  0  0  0  0
   20.7488    6.6764   32.3024 C   0  0  0  0  0  0  0  0  0  0  0  0
   20.3141    5.4999   32.4828 O   0  0  0  0  0  0  0  0  0  0  0  0
   18.3938   10.4202   33.5626 H   0  0  0  0  0  0  0  0  0  0  0  0
   18.2090    7.8619   33.5827 H   0  0  0  0  0  0  0  0  0  0  0  0
   22.3681   15.5614   31.7564 Cl  0  0  0  0  0  0  0  0  0  0  0  0
   21.7243   13.9372   32.0305 C   0  0  0  0  0  0  0  0  0  0  0  0
   22.3625   12.8420   31.4856 C   0  0  0  0  0  0  0  0  0  0  0  0
   21.8991   11.5664   31.6733 C   0  0  0  0  0  0  0  0  0  0  0  0
   20.7588   11.3284   32.4252 C   0  0  0  0  0  0  0  0  0  0  0  0
   20.1315   12.4394   32.9645 C   0  0  0  0  0  0  0  0  0  0  0  0
   20.5953   13.7249   32.7778 C   0  0  0  0  0  0  0  0  0  0  0  0
   22.9259    6.0826   31.2165 C   0  0  0  0  0  0  0  0  0  0  0  0
   23.3121    4.9386   31.8852 C   0  0  0  0  0  0  0  0  0  0  0  0
   24.2729    4.0703   31.4088 C   0  0  0  0  0  0  0  0  0  0  0  0
   24.8781    4.3615   30.2043 C   0  0  0  0  0  0  0  0  0  0  0  0
   24.5318    5.4917   29.4928 C   0  0  0  0  0  0  0  0  0  0  0  0
   23.5575    6.3373   30.0143 C   0  0  0  0  0  0  0  0  0  0  0  0
   25.1634    5.7517   28.2836 O   0  0  0  0  0  0  0  0  0  0  0  0
   25.9223    4.7796   27.6183 C   0  0  0  0  0  0  0  0  0  0  0  0
   24.6311    2.9153   32.1306 O   0  0  0  0  0  0  0  0  0  0  0  0
   23.8622    2.5443   33.2512 C   0  0  0  0  0  0  0  0  0  0  0  0
 13 14  1  0  0  0
 14 15  2  0  0  0
 14 19  1  0  0  0
 15 16  1  0  0  0
 16 17  2  0  0  0
 17 18  1  0  0  0
 17  1  1  0  0  0
 18 19  2  0  0  0
  1  2  1  0  0  0
  1  5  1  0  0  0
  2  3  1  0  0  0
  3  4  1  0  0  0
  4  5  2  0  0  0
  4  9  1  0  0  0
  5  6  1  0  0  0
  6  7  2  0  0  0
  6  8  1  0  0  0
  8  9  1  0  0  0
  8 20  1  0  0  0
  9 10  2  0  0  0
 20 21  2  0  0  0
 20 25  1  0  0  0
 21 22  1  0  0  0
 22 23  2  0  0  0
 22 28  1  0  0  0
 23 24  1  0  0  0
 24 25  2  0  0  0
 24 26  1  0  0  0
 26 27  1  0  0  0
 28 29  1  0  0  0
  2 11  1  0  0  0
  3 12  1  0  0  0
M  END
> <minimizedAffinity>
-9.03226

$$$$
1801


 26 29  0  0  0  0  0  0  0  0999 V2000
   17.7285    8.7996   33.8822 Cl  0  0  0  0  0  0  0  0  0  0  0  0
   19.3206    9.2105   33.2451 C   0  0  0  0  0  0  0  0  0  0  0  0
   19.6436   10.5267   32.9660 C   0  0  0  0  0  0  0  0  0  0  0  0
   20.8749   10.8588   32.4722 C   0  0  0  0  0  0  0  0  0  0  0  0
   21.7635    9.8302   32.2693 C   0  0  0  0  0  0  0  0  0  0  0  0
   21.4696    8.5189   32.5378 C   0  0  0  0  0  0  0  0  0  0  0  0
   20.2189    8.1966   33.0377 C   0  0  0  0  0  0  0  0  0  0  0  0
   23.1026   10.1511   31.7368 C   0  0  0  0  0  0  0  0  0  0  0  0
   24.1273    9.4292   31.4470 N   0  0  0  0  0  0  0  0  0  0  0  0
   25.2200   10.2137   30.9486 C   0  0  0  0  0  0  0  0  0  0  0  0
   24.7180   11.6203   30.9627 C   0  0  0  0  0  0  0  0  0  0  0  0
   23.3709   11.5176   31.4716 N   0  0  0  0  0  0  0  0  0  0  0  0
   22.4044   12.5526   31.7023 C   0  0  0  0  0  0  0  0  0  0  0  0
   22.4367   13.8820   31.5282 N   0  0  0  0  0  0  0  0  0  0  0  0
   21.2828   14.4155   31.8887 N   0  0  0  0  0  0  0  0  0  0  0  0
   20.5199   13.3862   32.2947 C   0  0  0  0  0  0  0  0  0  0  0  0
   19.3435   13.5092   32.7138 O   0  0  0  0  0  0  0  0  0  0  0  0
   21.1974   12.2117   32.1879 N   0  0  0  0  0  0  0  0  0  0  0  0
   20.8913   15.8212   31.8616 C   0  0  0  0  0  0  0  0  0  0  0  0
   21.8649   16.5739   31.0360 C   0  0  0  0  0  0  0  0  0  0  0  0
   22.5125   17.5179   31.5703 O   0  0  0  0  0  0  0  0  0  0  0  0
   22.1019   16.2792   29.6678 N   0  0  0  0  0  0  0  0  0  0  0  0
   21.5601   15.4987   29.2445 H   0  0  0  0  0  0  0  0  0  0  0  0
   23.0618   17.0426   28.9026 C   0  0  0  0  0  0  0  0  0  0  0  0
   23.7098   16.1664   27.8271 C   0  0  0  0  0  0  0  0  0  0  0  0
   22.2733   18.1059   28.1504 C   0  0  0  0  0  0  0  0  0  0  0  0
  1  2  1  0  0  0
  2  3  2  0  0  0
  2  7  1  0  0  0
  3  4  1  0  0  0
  4  5  2  0  0  0
  4 18  1  0  0  0
  5  6  1  0  0  0
  5  8  1  0  0  0
  6  7  2  0  0  0
  8  9  2  0  0  0
  8 12  1  0  0  0
  9 10  1  0  0  0
 10 11  1  0  0  0
 11 12  1  0  0  0
 12 13  1  0  0  0
 13 14  2  0  0  0
 13 18  1  0  0  0
 14 15  1  0  0  0
 15 16  1  0  0  0
 15 19  1  0  0  0
 16 17  2  0  0  0
 16 18  1  0  0  0
 19 20  1  0  0  0
 20 21  2  0  0  0
 20 22  1  0  0  0
 22 24  1  0  0  0
 24 25  1  0  0  0
 24 26  1  0  0  0
 22 23  1  0  0  0
M  END
> <minimizedAffinity>
-9.59417

$$$$
1802


 27 30  0  0  0  0  0  0  0  0999 V2000
   17.4869    8.8333   33.5776 Cl  0  0  0  0  0  0  0  0  0  0  0  0
   18.9245    8.0701   32.8931 C   0  0  0  0  0  0  0  0  0  0  0  0
   20.0357    8.8743   32.6270 C   0  0  0  0  0  0  0  0  0  0  0  0
   21.1948    8.3421   32.1000 C   0  0  0  0  0  0  0  0  0  0  0  0
   21.1949    6.9839   31.8509 C   0  0  0  0  0  0  0  0  0  0  0  0
   20.1395    6.1685   32.0937 C   0  0  0  0  0  0  0  0  0  0  0  0
   18.9658    6.7193   32.6305 C   0  0  0  0  0  0  0  0  0  0  0  0
   22.4517    6.4281   31.2878 C   0  0  0  0  0  0  0  0  0  0  0  0
   22.7776    5.2188   30.9451 N   0  0  0  0  0  0  0  0  0  0  0  0
   24.1316    5.1812   30.4424 C   0  0  0  0  0  0  0  0  0  0  0  0
   24.6663    6.5897   30.5220 C   0  0  0  0  0  0  0  0  0  0  0  0
   23.5205    7.3084   31.0550 N   0  0  0  0  0  0  0  0  0  0  0  0
   23.4404    8.7037   31.3399 C   0  0  0  0  0  0  0  0  0  0  0  0
   24.3350    9.7045   31.2028 N   0  0  0  0  0  0  0  0  0  0  0  0
   23.7832   10.8413   31.6218 N   0  0  0  0  0  0  0  0  0  0  0  0
   22.5535   10.5131   32.0113 C   0  0  0  0  0  0  0  0  0  0  0  0
   21.7034   11.3206   32.4798 O   0  0  0  0  0  0  0  0  0  0  0  0
   22.3080    9.1836   31.8460 N   0  0  0  0  0  0  0  0  0  0  0  0
   24.4212   12.1604   31.6544 C   0  0  0  0  0  0  0  0  0  0  0  0
   23.7289   12.9027   30.4695 C   0  0  0  0  0  0  0  0  0  0  0  0
   24.0735   12.3156   29.3841 O   0  0  0  0  0  0  0  0  0  0  0  0
   22.9405   13.9633   30.6912 N   0  0  0  0  0  0  0  0  0  0  0  0
   22.6336   14.0142   29.3697 H   0  0  0  0  0  0  0  0  0  0  0  0
   22.1303   15.0538   30.9188 C   0  0  0  0  0  0  0  0  0  0  0  0
   20.9623   14.7316   31.8585 C   0  0  0  0  0  0  0  0  0  0  0  0
   19.9188   15.6089   31.6836 O   0  0  0  0  0  0  0  0  0  0  0  0
   18.8770   15.1417   30.9359 C   0  0  0  0  0  0  0  0  0  0  0  0
  1  2  1  0  0  0
  2  3  2  0  0  0
  2  7  1  0  0  0
  3  4  1  0  0  0
  4  5  2  0  0  0
  4 18  1  0  0  0
  5  6  1  0  0  0
  5  8  1  0  0  0
  6  7  2  0  0  0
  8  9  2  0  0  0
  8 12  1  0  0  0
  9 10  1  0  0  0
 10 11  1  0  0  0
 11 12  1  0  0  0
 12 13  1  0  0  0
 13 14  2  0  0  0
 13 18  1  0  0  0
 14 15  1  0  0  0
 15 16  1  0  0  0
 15 19  1  0  0  0
 16 17  2  0  0  0
 16 18  1  0  0  0
 19 20  1  0  0  0
 20 21  2  0  0  0
 20 22  1  0  0  0
 22 24  1  0  0  0
 24 25  1  0  0  0
 25 26  1  0  0  0
 26 27  1  0  0  0
 22 23  1  0  0  0
M  END
> <minimizedAffinity>
-8.88125

$$$$
1804


 26 30  0  0  0  0  0  0  0  0999 V2000
   17.3896    8.7048   33.5685 Cl  0  0  0  0  0  0  0  0  0  0  0  0
   18.8884    8.1078   32.8900 C   0  0  0  0  0  0  0  0  0  0  0  0
   19.9864    8.9192   32.6578 C   0  0  0  0  0  0  0  0  0  0  0  0
   21.1589    8.4375   32.1245 C   0  0  0  0  0  0  0  0  0  0  0  0
   21.1958    7.0967   31.8272 C   0  0  0  0  0  0  0  0  0  0  0  0
   20.1368    6.2451   32.0366 C   0  0  0  0  0  0  0  0  0  0  0  0
   18.9598    6.7659   32.5796 C   0  0  0  0  0  0  0  0  0  0  0  0
   22.4375    6.5442   31.2524 C   0  0  0  0  0  0  0  0  0  0  0  0
   22.7501    5.3551   30.8857 N   0  0  0  0  0  0  0  0  0  0  0  0
   24.0932    5.2809   30.3762 C   0  0  0  0  0  0  0  0  0  0  0  0
   24.6086    6.6806   30.4828 C   0  0  0  0  0  0  0  0  0  0  0  0
   23.5163    7.4317   31.0432 N   0  0  0  0  0  0  0  0  0  0  0  0
   23.4202    8.8322   31.3755 C   0  0  0  0  0  0  0  0  0  0  0  0
   24.2966    9.8495   31.2676 N   0  0  0  0  0  0  0  0  0  0  0  0
   23.7339   10.9611   31.7102 N   0  0  0  0  0  0  0  0  0  0  0  0
   22.4950   10.6099   32.0920 C   0  0  0  0  0  0  0  0  0  0  0  0
   21.6671   11.4362   32.5713 O   0  0  0  0  0  0  0  0  0  0  0  0
   22.2707    9.2929   31.8955 N   0  0  0  0  0  0  0  0  0  0  0  0
   24.3284   12.3044   31.7749 C   0  0  0  0  0  0  0  0  0  0  0  0
   23.5576   13.1943   30.8672 C   0  0  0  0  0  0  0  0  0  0  0  0
   23.5524   12.8878   29.6483 O   0  0  0  0  0  0  0  0  0  0  0  0
   22.8607   14.3366   31.3446 N   0  0  0  0  0  0  0  0  0  0  0  0
   22.0944   15.2412   30.5089 C   0  0  0  0  0  0  0  0  0  0  0  0
   21.6989   16.3978   31.3871 C   0  0  0  0  0  0  0  0  0  0  0  0
   22.7246   16.3136   32.4985 C   0  0  0  0  0  0  0  0  0  0  0  0
   22.7840   14.7971   32.7110 C   0  0  0  0  0  0  0  0  0  0  0  0
  1  2  1  0  0  0
  2  3  2  0  0  0
  2  7  1  0  0  0
  3  4  1  0  0  0
  4  5  2  0  0  0
  4 18  1  0  0  0
  5  6  1  0  0  0
  5  8  1  0  0  0
  6  7  2  0  0  0
  8  9  2  0  0  0
  8 12  1  0  0  0
  9 10  1  0  0  0
 10 11  1  0  0  0
 11 12  1  0  0  0
 12 13  1  0  0  0
 13 14  2  0  0  0
 13 18  1  0  0  0
 14 15  1  0  0  0
 15 16  1  0  0  0
 15 19  1  0  0  0
 16 17  2  0  0  0
 16 18  1  0  0  0
 19 20  1  0  0  0
 20 21  2  0  0  0
 20 22  1  0  0  0
 22 23  1  0  0  0
 22 26  1  0  0  0
 23 24  1  0  0  0
 24 25  1  0  0  0
 25 26  1  0  0  0
M  END
> <minimizedAffinity>
-9.85278

$$$$
1806


 32 35  0  0  0  0  0  0  0  0999 V2000
   23.2456   11.0402   31.0599 N   0  0  0  0  0  0  0  0  0  0  0  0
   24.2661   10.3498   31.8213 C   0  0  0  0  0  0  0  0  0  0  0  0
   23.9508    8.8471   31.7455 C   0  0  0  0  0  0  0  0  0  0  0  0
   22.6970    8.5947   31.1224 N   0  0  0  0  0  0  0  0  0  0  0  0
   22.6139    9.0373   29.7316 C   0  0  0  0  0  0  0  0  0  0  0  0
   22.9170   10.5164   29.7483 C   0  0  0  0  0  0  0  0  0  0  0  0
   23.1804   19.0331   27.1173 Cl  0  0  0  0  0  0  0  0  0  0  0  0
   23.1666   17.4693   27.9305 C   0  0  0  0  0  0  0  0  0  0  0  0
   22.5001   17.2557   29.0977 C   0  0  0  0  0  0  0  0  0  0  0  0
   22.5174   16.0127   29.6993 C   0  0  0  0  0  0  0  0  0  0  0  0
   23.2056   14.9711   29.1313 C   0  0  0  0  0  0  0  0  0  0  0  0
   23.8765   15.1888   27.9559 C   0  0  0  0  0  0  0  0  0  0  0  0
   23.8612   16.4327   27.3501 C   0  0  0  0  0  0  0  0  0  0  0  0
   23.2470   13.6571   29.7330 N   0  0  0  0  0  0  0  0  0  0  0  0
   22.5697   13.3882   30.9450 C   0  0  0  0  0  0  0  0  0  0  0  0
   22.5830   12.2095   31.5215 C   0  0  0  0  0  0  0  0  0  0  0  0
   21.8375   14.4717   31.5606 N   0  0  0  0  0  0  0  0  0  0  0  0
   21.8168   15.7482   30.9478 C   0  0  0  0  0  0  0  0  0  0  0  0
   21.1762   16.7219   31.4736 O   0  0  0  0  0  0  0  0  0  0  0  0
   23.7822   12.9089   29.2591 H   0  0  0  0  0  0  0  0  0  0  0  0
   21.3285   14.3105   32.4521 H   0  0  0  0  0  0  0  0  0  0  0  0
   21.5312    7.9988   31.6648 C   0  0  0  0  0  0  0  0  0  0  0  0
   20.5838    8.8280   32.2407 N   0  0  0  0  0  0  0  0  0  0  0  0
   19.4548    8.3927   32.7963 C   0  0  0  0  0  0  0  0  0  0  0  0
   19.2137    7.0471   32.7992 C   0  0  0  0  0  0  0  0  0  0  0  0
   20.1259    6.1980   32.2391 C   0  0  0  0  0  0  0  0  0  0  0  0
   21.3222    6.6522   31.6486 C   0  0  0  0  0  0  0  0  0  0  0  0
   22.2411    5.7371   31.0431 C   0  0  0  0  0  0  0  0  0  0  0  0
   22.7309    5.8479   29.9215 O   0  0  0  0  0  0  0  0  0  0  0  0
   22.6391    4.5891   31.7823 N   0  0  0  0  0  0  0  0  0  0  0  0
   23.2359    4.6833   32.6347 H   0  0  0  0  0  0  0  0  0  0  0  0
   22.3677    3.6143   31.5258 H   0  0  0  0  0  0  0  0  0  0  0  0
  7  8  1  0  0  0
  8  9  2  0  0  0
  8 13  1  0  0  0
  9 10  1  0  0  0
 10 11  2  0  0  0
 10 18  1  0  0  0
 11 12  1  0  0  0
 11 14  1  0  0  0
 12 13  2  0  0  0
 14 15  1  0  0  0
 15 16  2  0  0  0
 15 17  1  0  0  0
 16  1  1  0  0  0
  1  2  1  0  0  0
  1  6  1  0  0  0
  2  3  1  0  0  0
  3  4  1  0  0  0
  4  5  1  0  0  0
  4 22  1  0  0  0
  5  6  1  0  0  0
 22 23  2  0  0  0
 22 27  1  0  0  0
 23 24  1  0  0  0
 24 25  2  0  0  0
 25 26  1  0  0  0
 26 27  2  0  0  0
 27 28  1  0  0  0
 28 29  2  0  0  0
 28 30  1  0  0  0
 17 18  1  0  0  0
 18 19  2  0  0  0
 14 20  1  0  0  0
 30 31  1  0  0  0
 30 32  1  0  0  0
 17 21  1  0  0  0
M  END
> <minimizedAffinity>
-9.69761

$$$$
1808


 24 28  0  0  0  0  0  0  0  0999 V2000
   25.4663   10.2457   30.1998 N   0  0  0  0  0  0  0  0  0  0  0  0
   25.4815    8.8312   30.0877 C   0  0  0  0  0  0  0  0  0  0  0  0
   26.2019    8.1963   29.2804 O   0  0  0  0  0  0  0  0  0  0  0  0
   24.5220    8.2552   31.0677 C   0  0  0  0  0  0  0  0  0  0  0  0
   23.1773    7.9999   30.4601 C   0  0  0  0  0  0  0  0  0  0  0  0
   22.3458    8.2115   31.5824 O   0  0  0  0  0  0  0  0  0  0  0  0
   22.7231    9.5568   31.8225 C   0  0  0  0  0  0  0  0  0  0  0  0
   24.1938    9.4121   32.0126 C   0  0  0  0  0  0  0  0  0  0  0  0
   24.9049   10.5980   31.4639 C   0  0  0  0  0  0  0  0  0  0  0  0
   24.9835   11.6936   32.0259 O   0  0  0  0  0  0  0  0  0  0  0  0
   22.4761   10.1220   30.4704 C   0  0  0  0  0  0  0  0  0  0  0  0
   22.8252    9.1581   29.6236 C   0  0  0  0  0  0  0  0  0  0  0  0
   27.5001   13.9532   25.8135 Br  0  0  0  0  0  0  0  0  0  0  0  0
   26.8758   12.7940   27.1790 C   0  0  0  0  0  0  0  0  0  0  0  0
   27.7445   11.9015   27.7589 C   0  0  0  0  0  0  0  0  0  0  0  0
   27.2643   11.0727   28.7488 C   0  0  0  0  0  0  0  0  0  0  0  0
   25.9526   11.1122   29.1670 C   0  0  0  0  0  0  0  0  0  0  0  0
   25.0738   12.0140   28.5825 C   0  0  0  0  0  0  0  0  0  0  0  0
   25.5646   12.8532   27.5801 C   0  0  0  0  0  0  0  0  0  0  0  0
   22.9951    6.6751   29.8543 C   0  0  0  0  0  0  0  0  0  0  0  0
   21.8599    6.0281   30.2596 O   0  0  0  0  0  0  0  0  0  0  0  0
   22.2167    4.9595   31.0435 C   0  0  0  0  0  0  0  0  0  0  0  0
   23.7087    4.9612   31.1066 C   0  0  0  0  0  0  0  0  0  0  0  0
   24.0741    5.8444   30.0969 O   0  0  0  0  0  0  0  0  0  0  0  0
 13 14  1  0  0  0
 14 15  2  0  0  0
 14 19  1  0  0  0
 15 16  1  0  0  0
 16 17  2  0  0  0
 17 18  1  0  0  0
 17  1  1  0  0  0
 18 19  2  0  0  0
  1  2  1  0  0  0
  1  9  1  0  0  0
  2  3  2  0  0  0
  2  4  1  0  0  0
  4  5  1  0  0  0
  4  8  1  0  0  0
  5  6  1  0  0  0
  5 12  1  0  0  0
  5 20  1  0  0  0
  6  7  1  0  0  0
  7  8  1  0  0  0
  7 11  1  0  0  0
  8  9  1  0  0  0
  9 10  2  0  0  0
 11 12  2  0  0  0
 20 21  1  0  0  0
 20 24  1  0  0  0
 21 22  1  0  0  0
 22 23  1  0  0  0
 23 24  1  0  0  0
M  END
> <minimizedAffinity>
-7.64825

$$$$
1810


 32 35  0  0  0  0  0  0  0  0999 V2000
   22.5411   13.8706   31.0214 N   0  0  0  0  0  0  0  0  0  0  0  0
   23.6113   13.6282   31.9558 C   0  0  0  0  0  0  0  0  0  0  0  0
   24.3489   12.3906   31.5010 C   0  0  0  0  0  0  0  0  0  0  0  0
   23.9270   12.0454   30.1678 N   0  0  0  0  0  0  0  0  0  0  0  0
   23.7261   13.0618   29.1415 C   0  0  0  0  0  0  0  0  0  0  0  0
   23.1347   14.3212   29.7789 C   0  0  0  0  0  0  0  0  0  0  0  0
   23.6890   10.6995   29.8363 C   0  0  0  0  0  0  0  0  0  0  0  0
   23.3541   10.4066   28.6363 O   0  0  0  0  0  0  0  0  0  0  0  0
   23.8206    9.6317   30.8647 C   0  0  0  0  0  0  0  0  0  0  0  0
   22.8492    8.5050   30.6602 C   0  0  0  0  0  0  0  0  0  0  0  0
   23.6320    7.4139   30.0883 N   0  0  0  0  0  0  0  0  0  0  0  0
   24.9644    7.8418   29.8765 C   0  0  0  0  0  0  0  0  0  0  0  0
   25.7577    7.3204   29.0564 O   0  0  0  0  0  0  0  0  0  0  0  0
   25.1725    8.9763   30.8017 C   0  0  0  0  0  0  0  0  0  0  0  0
   23.1096    6.1013   29.7838 C   0  0  0  0  0  0  0  0  0  0  0  0
   23.6340    5.0705   30.7108 C   0  0  0  0  0  0  0  0  0  0  0  0
   22.8764    4.7043   31.8134 C   0  0  0  0  0  0  0  0  0  0  0  0
   23.3010    3.7505   32.7229 C   0  0  0  0  0  0  0  0  0  0  0  0
   24.5287    3.1634   32.4941 C   0  0  0  0  0  0  0  0  0  0  0  0
   25.3101    3.5051   31.4040 C   0  0  0  0  0  0  0  0  0  0  0  0
   24.8570    4.4688   30.5041 C   0  0  0  0  0  0  0  0  0  0  0  0
   21.3351    5.4827   32.0473 Cl  0  0  0  0  0  0  0  0  0  0  0  0
   21.4090   15.0033   31.6461 S   0  0  0  0  0  0  0  0  0  0  0  0
   21.2184   16.1672   30.7155 O   0  0  0  0  0  0  0  0  0  0  0  0
   22.0196   15.5784   32.9065 O   0  0  0  0  0  0  0  0  0  0  0  0
   19.8991   14.2449   32.0508 C   0  0  0  0  0  0  0  0  0  0  0  0
   19.6157   13.1965   32.8969 C   0  0  0  0  0  0  0  0  0  0  0  0
   18.2650   12.9827   32.8515 N   0  0  0  0  0  0  0  0  0  0  0  0
   17.7640   13.8356   32.0400 O   0  0  0  0  0  0  0  0  0  0  0  0
   18.6785   14.6215   31.5239 C   0  0  0  0  0  0  0  0  0  0  0  0
   18.3781   15.6991   30.5559 C   0  0  0  0  0  0  0  0  0  0  0  0
   20.6084   12.4602   33.7025 C   0  0  0  0  0  0  0  0  0  0  0  0
 23 24  2  0  0  0
 23 25  2  0  0  0
 23  1  1  0  0  0
 23 26  1  0  0  0
  1  2  1  0  0  0
  1  6  1  0  0  0
  2  3  1  0  0  0
  3  4  1  0  0  0
  4  5  1  0  0  0
  4  7  1  0  0  0
  5  6  1  0  0  0
  7  8  2  0  0  0
  7  9  1  0  0  0
  9 10  1  0  0  0
  9 14  1  0  0  0
 10 11  1  0  0  0
 11 12  1  0  0  0
 11 15  1  0  0  0
 12 13  2  0  0  0
 12 14  1  0  0  0
 15 16  1  0  0  0
 16 17  2  0  0  0
 16 21  1  0  0  0
 17 18  1  0  0  0
 17 22  1  0  0  0
 18 19  2  0  0  0
 19 20  1  0  0  0
 20 21  2  0  0  0
 26 27  1  0  0  0
 26 30  2  0  0  0
 27 28  2  0  0  0
 27 32  1  0  0  0
 28 29  1  0  0  0
 29 30  1  0  0  0
 30 31  1  0  0  0
M  END
> <minimizedAffinity>
-8.98360

$$$$
1816


 36 39  0  0  0  0  0  0  0  0999 V2000
   22.4600    9.0548   31.1443 C   0  0  0  0  0  0  0  0  0  0  0  0
   21.7130    9.2148   32.1705 O   0  0  0  0  0  0  0  0  0  0  0  0
   23.4669    9.9797   30.9324 N   0  0  0  0  0  0  0  0  0  0  0  0
   23.7063   11.0930   31.7969 C   0  0  0  0  0  0  0  0  0  0  0  0
   23.5577   12.3709   30.9688 C   0  0  0  0  0  0  0  0  0  0  0  0
   24.4298   12.3116   29.8450 N   0  0  0  0  0  0  0  0  0  0  0  0
   25.2329   11.0792   29.6959 C   0  0  0  0  0  0  0  0  0  0  0  0
   24.3478    9.8567   29.7937 C   0  0  0  0  0  0  0  0  0  0  0  0
   24.5837   13.3185   28.8687 C   0  0  0  0  0  0  0  0  0  0  0  0
   25.4735   13.0120   27.9303 O   0  0  0  0  0  0  0  0  0  0  0  0
   23.9611   14.5978   28.7076 C   0  0  0  0  0  0  0  0  0  0  0  0
   24.2588   15.3762   27.5603 C   0  0  0  0  0  0  0  0  0  0  0  0
   23.6886   16.6067   27.3718 C   0  0  0  0  0  0  0  0  0  0  0  0
   23.9701   17.2777   26.3442 O   0  0  0  0  0  0  0  0  0  0  0  0
   22.8280   17.1464   28.2450 N   0  0  0  0  0  0  0  0  0  0  0  0
   22.5480   16.4148   29.3243 C   0  0  0  0  0  0  0  0  0  0  0  0
   21.7347   16.8839   30.1863 O   0  0  0  0  0  0  0  0  0  0  0  0
   23.1042   15.1724   29.5443 N   0  0  0  0  0  0  0  0  0  0  0  0
   22.2387   18.4477   28.0294 C   0  0  0  0  0  0  0  0  0  0  0  0
   22.8170   14.6825   30.4142 H   0  0  0  0  0  0  0  0  0  0  0  0
   22.1757    7.8840   30.2692 C   0  0  0  0  0  0  0  0  0  0  0  0
   27.4595    2.4594   31.7390 Cl  0  0  0  0  0  0  0  0  0  0  0  0
   25.8618    3.1561   31.8813 C   0  0  0  0  0  0  0  0  0  0  0  0
   25.5183    4.3523   31.2588 C   0  0  0  0  0  0  0  0  0  0  0  0
   24.2629    4.8984   31.3740 C   0  0  0  0  0  0  0  0  0  0  0  0
   23.3231    4.2350   32.1282 C   0  0  0  0  0  0  0  0  0  0  0  0
   23.6727    3.0303   32.7527 C   0  0  0  0  0  0  0  0  0  0  0  0
   24.9303    2.4838   32.6386 C   0  0  0  0  0  0  0  0  0  0  0  0
   22.1207    4.7441   32.2459 O   0  0  0  0  0  0  0  0  0  0  0  0
   21.7663    5.8691   31.6742 C   0  0  0  0  0  0  0  0  0  0  0  0
   20.5851    6.3329   31.8123 O   0  0  0  0  0  0  0  0  0  0  0  0
   22.6382    6.6216   30.8892 C   0  0  0  0  0  0  0  0  0  0  0  0
   23.9049    6.0998   30.7543 C   0  0  0  0  0  0  0  0  0  0  0  0
   24.9077    6.7943   29.9529 C   0  0  0  0  0  0  0  0  0  0  0  0
   25.2724    1.2737   33.2700 O   0  0  0  0  0  0  0  0  0  0  0  0
   25.0993    1.0806   34.6521 C   0  0  0  0  0  0  0  0  0  0  0  0
 22 23  1  0  0  0
 23 24  2  0  0  0
 23 28  1  0  0  0
 24 25  1  0  0  0
 25 26  2  0  0  0
 25 33  1  0  0  0
 26 27  1  0  0  0
 26 29  1  0  0  0
 27 28  2  0  0  0
 28 35  1  0  0  0
 35 36  1  0  0  0
 29 30  1  0  0  0
 30 31  2  0  0  0
 30 32  1  0  0  0
 32 33  2  0  0  0
 32 21  1  0  0  0
 33 34  1  0  0  0
 21  1  1  0  0  0
  1  2  2  0  0  0
  1  3  1  0  0  0
  3  4  1  0  0  0
  3  8  1  0  0  0
  4  5  1  0  0  0
  5  6  1  0  0  0
  6  7  1  0  0  0
  6  9  1  0  0  0
  7  8  1  0  0  0
  9 10  2  0  0  0
  9 11  1  0  0  0
 11 12  2  0  0  0
 11 18  1  0  0  0
 12 13  1  0  0  0
 13 14  2  0  0  0
 13 15  1  0  0  0
 15 16  1  0  0  0
 15 19  1  0  0  0
 16 17  2  0  0  0
 16 18  1  0  0  0
 18 20  1  0  0  0
M  END
> <minimizedAffinity>
-9.54082

$$$$
1822


 24 27  0  0  0  0  0  0  0  0999 V2000
   22.6671   20.1034   26.8832 Cl  0  0  0  0  0  0  0  0  0  0  0  0
   23.2624   18.4560   27.0598 C   0  0  0  0  0  0  0  0  0  0  0  0
   24.1153   17.9615   26.0986 C   0  0  0  0  0  0  0  0  0  0  0  0
   24.5634   16.7045   26.2431 N   0  0  0  0  0  0  0  0  0  0  0  0
   24.2100   15.9151   27.2911 C   0  0  0  0  0  0  0  0  0  0  0  0
   23.3791   16.3874   28.2354 N   0  0  0  0  0  0  0  0  0  0  0  0
   23.1846   15.4386   29.1464 N   0  0  0  0  0  0  0  0  0  0  0  0
   23.8813   14.3316   28.8195 C   0  0  0  0  0  0  0  0  0  0  0  0
   24.5091   14.6571   27.6616 N   0  0  0  0  0  0  0  0  0  0  0  0
   22.9065   17.6528   28.1206 C   0  0  0  0  0  0  0  0  0  0  0  0
   22.1202   18.1021   29.0135 O   0  0  0  0  0  0  0  0  0  0  0  0
   24.5155   18.8212   24.9337 C   0  0  0  0  0  0  0  0  0  0  0  0
   25.2120   16.3223   25.5148 H   0  0  0  0  0  0  0  0  0  0  0  0
   23.9445   13.0964   29.5272 N   0  0  0  0  0  0  0  0  0  0  0  0
   23.2979   12.8078   30.7592 C   0  0  0  0  0  0  0  0  0  0  0  0
   22.3189   13.4001   31.2826 O   0  0  0  0  0  0  0  0  0  0  0  0
   23.9712   11.6291   31.4034 C   0  0  0  0  0  0  0  0  0  0  0  0
   24.8472   11.0455   30.3532 C   0  0  0  0  0  0  0  0  0  0  0  0
   24.4607    9.6422   29.9211 C   0  0  0  0  0  0  0  0  0  0  0  0
   22.9912    9.6773   29.6314 C   0  0  0  0  0  0  0  0  0  0  0  0
   22.2382   10.1766   30.5948 C   0  0  0  0  0  0  0  0  0  0  0  0
   22.9116   10.6373   31.8326 C   0  0  0  0  0  0  0  0  0  0  0  0
   24.6439   11.9123   29.1771 C   0  0  0  0  0  0  0  0  0  0  0  0
   25.0385   11.6487   27.9946 O   0  0  0  0  0  0  0  0  0  0  0  0
  1  2  1  0  0  0
  2  3  2  0  0  0
  2 10  1  0  0  0
  3  4  1  0  0  0
  3 12  1  0  0  0
  4  5  1  0  0  0
  5  6  1  0  0  0
  5  9  2  0  0  0
  6  7  1  0  0  0
  6 10  1  0  0  0
  7  8  2  0  0  0
  8  9  1  0  0  0
  8 14  1  0  0  0
 14 15  1  0  0  0
 14 23  1  0  0  0
 15 16  2  0  0  0
 15 17  1  0  0  0
 17 18  1  0  0  0
 17 22  1  0  0  0
 18 19  1  0  0  0
 18 23  1  0  0  0
 19 20  1  0  0  0
 20 21  2  0  0  0
 21 22  1  0  0  0
 23 24  2  0  0  0
 10 11  2  0  0  0
  4 13  1  0  0  0
M  END
> <minimizedAffinity>
-8.92754

$$$$
1825


 29 32  0  0  0  0  0  0  0  0999 V2000
   19.9019   10.2176   33.2691 N   0  0  0  0  0  0  0  0  0  0  0  0
   19.0537    9.1480   33.2075 C   0  0  0  0  0  0  0  0  0  0  0  0
   19.6290    8.1713   32.4865 N   0  0  0  0  0  0  0  0  0  0  0  0
   20.8406    8.5550   32.0649 C   0  0  0  0  0  0  0  0  0  0  0  0
   20.9831    9.8532   32.5767 C   0  0  0  0  0  0  0  0  0  0  0  0
   18.7089    7.0362   32.4189 C   0  0  0  0  0  0  0  0  0  0  0  0
   17.3608    7.5927   32.8360 C   0  0  0  0  0  0  0  0  0  0  0  0
   17.7143    8.7455   33.7064 C   0  0  0  0  0  0  0  0  0  0  0  0
   21.8545    7.8914   31.2616 C   0  0  0  0  0  0  0  0  0  0  0  0
   21.9965    6.5317   31.2258 C   0  0  0  0  0  0  0  0  0  0  0  0
   22.9429    5.8859   30.4517 C   0  0  0  0  0  0  0  0  0  0  0  0
   23.8185    6.6073   29.6548 C   0  0  0  0  0  0  0  0  0  0  0  0
   23.6768    7.9736   29.6888 C   0  0  0  0  0  0  0  0  0  0  0  0
   22.7317    8.6187   30.4619 C   0  0  0  0  0  0  0  0  0  0  0  0
   24.7791    5.9953   28.8674 O   0  0  0  0  0  0  0  0  0  0  0  0
   26.1155    6.4560   28.7898 C   0  0  0  0  0  0  0  0  0  0  0  0
   19.6075   11.4837   33.9558 C   0  0  0  0  0  0  0  0  0  0  0  0
   21.2082   13.0871   32.8217 N   0  0  0  0  0  0  0  0  0  0  0  0
   19.9158   12.6229   33.0062 C   0  0  0  0  0  0  0  0  0  0  0  0
   18.9339   13.0962   32.4241 O   0  0  0  0  0  0  0  0  0  0  0  0
   21.9717   12.5947   33.3779 H   0  0  0  0  0  0  0  0  0  0  0  0
   23.6993   14.4360   28.5168 Cl  0  0  0  0  0  0  0  0  0  0  0  0
   22.7723   14.8108   29.9541 C   0  0  0  0  0  0  0  0  0  0  0  0
   22.3515   13.8289   30.8219 C   0  0  0  0  0  0  0  0  0  0  0  0
   21.6007   14.1430   31.9756 C   0  0  0  0  0  0  0  0  0  0  0  0
   21.3272   15.4655   32.1697 C   0  0  0  0  0  0  0  0  0  0  0  0
   21.7568   16.4740   31.2838 C   0  0  0  0  0  0  0  0  0  0  0  0
   22.4832   16.1379   30.1705 C   0  0  0  0  0  0  0  0  0  0  0  0
   22.6960   12.4249   30.5374 C   0  0  0  0  0  0  0  0  0  0  0  0
 22 23  1  0  0  0
 23 24  2  0  0  0
 23 28  1  0  0  0
 24 25  1  0  0  0
 24 29  1  0  0  0
 25 26  2  0  0  0
 25 18  1  0  0  0
 26 27  1  0  0  0
 27 28  2  0  0  0
 18 19  1  0  0  0
 19 20  2  0  0  0
 19 17  1  0  0  0
 17  1  1  0  0  0
  1  2  1  0  0  0
  1  5  1  0  0  0
  2  3  2  0  0  0
  2  8  1  0  0  0
  3  4  1  0  0  0
  3  6  1  0  0  0
  4  5  2  0  0  0
  4  9  1  0  0  0
  9 10  2  0  0  0
  9 14  1  0  0  0
 10 11  1  0  0  0
 11 12  2  0  0  0
 12 13  1  0  0  0
 12 15  1  0  0  0
 13 14  2  0  0  0
 15 16  1  0  0  0
  6  7  1  0  0  0
  7  8  1  0  0  0
 18 21  1  0  0  0
M  END
> <minimizedAffinity>
-9.38662

$$$$
1835


 36 39  0  0  0  0  0  0  0  0999 V2000
   24.1082   11.2699   30.5611 C   0  0  0  0  0  0  0  0  0  0  0  0
   23.7350   12.5535   30.4411 N   0  0  0  0  0  0  0  0  0  0  0  0
   24.4116   13.0395   29.3861 C   0  0  0  0  0  0  0  0  0  0  0  0
   24.4456   14.2580   28.7940 N   0  0  0  0  0  0  0  0  0  0  0  0
   25.2229   14.5054   27.7217 C   0  0  0  0  0  0  0  0  0  0  0  0
   25.9976   13.5262   27.2069 N   0  0  0  0  0  0  0  0  0  0  0  0
   26.0191   12.2900   27.7394 C   0  0  0  0  0  0  0  0  0  0  0  0
   25.2133   12.0612   28.8377 C   0  0  0  0  0  0  0  0  0  0  0  0
   25.0044   10.9590   29.5950 N   0  0  0  0  0  0  0  0  0  0  0  0
   26.8411   11.2861   27.1781 N   0  0  0  0  0  0  0  0  0  0  0  0
   26.7144   10.9561   26.2058 H   0  0  0  0  0  0  0  0  0  0  0  0
   27.5910   10.8680   27.7571 H   0  0  0  0  0  0  0  0  0  0  0  0
   22.8172   13.3280   31.2246 C   0  0  0  0  0  0  0  0  0  0  0  0
   23.4511   14.3149   31.9750 O   0  0  0  0  0  0  0  0  0  0  0  0
   22.3692   15.1077   32.3562 C   0  0  0  0  0  0  0  0  0  0  0  0
   21.7481   15.4171   31.0023 C   0  0  0  0  0  0  0  0  0  0  0  0
   21.8187   14.0557   30.3416 C   0  0  0  0  0  0  0  0  0  0  0  0
   20.5460   13.4886   30.4374 O   0  0  0  0  0  0  0  0  0  0  0  0
   20.4410   15.8672   31.1243 O   0  0  0  0  0  0  0  0  0  0  0  0
   20.4810   12.8508   31.1761 H   0  0  0  0  0  0  0  0  0  0  0  0
   20.1645   15.7236   32.0693 H   0  0  0  0  0  0  0  0  0  0  0  0
   22.7918   16.3589   33.0775 C   0  0  0  0  0  0  0  0  0  0  0  0
   22.5684   17.5022   32.3508 O   0  0  0  0  0  0  0  0  0  0  0  0
   22.4607   17.3160   31.3926 H   0  0  0  0  0  0  0  0  0  0  0  0
   23.6404   10.3626   31.5488 N   0  0  0  0  0  0  0  0  0  0  0  0
   24.2711   10.0171   32.3108 H   0  0  0  0  0  0  0  0  0  0  0  0
   21.9134    9.2554   32.5975 C   0  0  0  0  0  0  0  0  0  0  0  0
   22.3288    9.8827   31.5593 N   0  0  0  0  0  0  0  0  0  0  0  0
   21.5636    6.4457   31.6719 Cl  0  0  0  0  0  0  0  0  0  0  0  0
   20.2615    7.4306   32.2974 C   0  0  0  0  0  0  0  0  0  0  0  0
   20.5531    8.7178   32.6937 C   0  0  0  0  0  0  0  0  0  0  0  0
   19.5235    9.4906   33.1857 C   0  0  0  0  0  0  0  0  0  0  0  0
   18.2289    9.0000   33.2858 C   0  0  0  0  0  0  0  0  0  0  0  0
   17.9282    7.7126   32.8908 C   0  0  0  0  0  0  0  0  0  0  0  0
   18.9578    6.9398   32.3989 C   0  0  0  0  0  0  0  0  0  0  0  0
   19.8901   11.1353   33.6935 Cl  0  0  0  0  0  0  0  0  0  0  0  0
 29 30  1  0  0  0
 30 31  2  0  0  0
 30 35  1  0  0  0
 31 32  1  0  0  0
 31 27  1  0  0  0
 32 33  2  0  0  0
 32 36  1  0  0  0
 33 34  1  0  0  0
 34 35  2  0  0  0
 27 28  2  0  0  0
 28 25  1  0  0  0
 25  1  1  0  0  0
  1  2  1  0  0  0
  1  9  2  0  0  0
  2  3  1  0  0  0
  2 13  1  0  0  0
  3  4  2  0  0  0
  3  8  1  0  0  0
  4  5  1  0  0  0
  5  6  2  0  0  0
  6  7  1  0  0  0
  7  8  2  0  0  0
  7 10  1  0  0  0
  8  9  1  0  0  0
 13 14  1  0  0  0
 13 17  1  0  0  0
 14 15  1  0  0  0
 15 16  1  0  0  0
 15 22  1  0  0  0
 16 17  1  0  0  0
 16 19  1  0  0  0
 17 18  1  0  0  0
 22 23  1  0  0  0
 25 26  1  0  0  0
 10 11  1  0  0  0
 10 12  1  0  0  0
 18 20  1  0  0  0
 19 21  1  0  0  0
 23 24  1  0  0  0
M  END
> <minimizedAffinity>
-10.07790

$$$$
1837


 29 32  0  0  0  0  0  0  0  0999 V2000
   24.4127    9.3599   30.1605 N   0  0  0  0  0  0  0  0  0  0  0  0
   25.3303   10.1493   31.0085 C   0  0  0  0  0  0  0  0  0  0  0  0
   24.3951   10.6348   32.1354 C   0  0  0  0  0  0  0  0  0  0  0  0
   23.1272   10.8761   31.4301 N   0  0  0  0  0  0  0  0  0  0  0  0
   23.2608   11.4557   30.1310 C   0  0  0  0  0  0  0  0  0  0  0  0
   23.8181   10.3450   29.2260 C   0  0  0  0  0  0  0  0  0  0  0  0
   21.9269   10.5150   32.0587 C   0  0  0  0  0  0  0  0  0  0  0  0
   21.1590   11.4630   32.6783 N   0  0  0  0  0  0  0  0  0  0  0  0
   20.0149   11.1968   33.3072 C   0  0  0  0  0  0  0  0  0  0  0  0
   19.5665    9.9375   33.3525 N   0  0  0  0  0  0  0  0  0  0  0  0
   20.2231    8.9300   32.7869 C   0  0  0  0  0  0  0  0  0  0  0  0
   20.0039    7.6036   32.6892 N   0  0  0  0  0  0  0  0  0  0  0  0
   21.0079    7.1086   32.0107 N   0  0  0  0  0  0  0  0  0  0  0  0
   21.8588    8.0652   31.6726 N   0  0  0  0  0  0  0  0  0  0  0  0
   21.4227    9.2235   32.1308 C   0  0  0  0  0  0  0  0  0  0  0  0
   18.8958    6.8285   33.2140 C   0  0  0  0  0  0  0  0  0  0  0  0
   17.5774    7.2861   32.6292 C   0  0  0  0  0  0  0  0  0  0  0  0
   25.1494    8.3744   29.3904 C   0  0  0  0  0  0  0  0  0  0  0  0
   25.2686    6.3139   30.8780 N   0  0  0  0  0  0  0  0  0  0  0  0
   24.6509    7.0214   29.8426 C   0  0  0  0  0  0  0  0  0  0  0  0
   23.6520    6.5312   29.2573 O   0  0  0  0  0  0  0  0  0  0  0  0
   26.1362    6.7681   31.3042 H   0  0  0  0  0  0  0  0  0  0  0  0
   23.8946    0.9497   33.1567 Cl  0  0  0  0  0  0  0  0  0  0  0  0
   24.2985    2.5159   32.4862 C   0  0  0  0  0  0  0  0  0  0  0  0
   25.5754    2.7965   32.0215 C   0  0  0  0  0  0  0  0  0  0  0  0
   25.8652    4.0314   31.5020 C   0  0  0  0  0  0  0  0  0  0  0  0
   24.9128    5.0577   31.4124 C   0  0  0  0  0  0  0  0  0  0  0  0
   23.6631    4.7581   31.8778 C   0  0  0  0  0  0  0  0  0  0  0  0
   23.3549    3.5105   32.4061 C   0  0  0  0  0  0  0  0  0  0  0  0
 23 24  1  0  0  0
 24 25  2  0  0  0
 24 29  1  0  0  0
 25 26  1  0  0  0
 26 27  2  0  0  0
 27 28  1  0  0  0
 27 19  1  0  0  0
 28 29  2  0  0  0
 19 20  1  0  0  0
 20 21  2  0  0  0
 20 18  1  0  0  0
 18  1  1  0  0  0
  1  2  1  0  0  0
  1  6  1  0  0  0
  2  3  1  0  0  0
  3  4  1  0  0  0
  4  5  1  0  0  0
  4  7  1  0  0  0
  5  6  1  0  0  0
  7  8  2  0  0  0
  7 15  1  0  0  0
  8  9  1  0  0  0
  9 10  2  0  0  0
 10 11  1  0  0  0
 11 12  1  0  0  0
 11 15  2  0  0  0
 12 13  1  0  0  0
 12 16  1  0  0  0
 13 14  2  0  0  0
 14 15  1  0  0  0
 16 17  1  0  0  0
 19 22  1  0  0  0
M  END
> <minimizedAffinity>
-8.16805

$$$$
1846


 31 34  0  0  0  0  0  0  0  0999 V2000
   22.2029    6.6225   30.7886 N   0  0  0  0  0  0  0  0  0  0  0  0
   22.9420    7.3188   29.8971 C   0  0  0  0  0  0  0  0  0  0  0  0
   22.9803    8.6670   29.9449 N   0  0  0  0  0  0  0  0  0  0  0  0
   22.3074    9.3810   30.8547 C   0  0  0  0  0  0  0  0  0  0  0  0
   22.3392   10.7226   30.9108 N   0  0  0  0  0  0  0  0  0  0  0  0
   21.6732   11.4631   31.8129 C   0  0  0  0  0  0  0  0  0  0  0  0
   20.9230   10.7806   32.7202 N   0  0  0  0  0  0  0  0  0  0  0  0
   20.8632    9.4396   32.7003 C   0  0  0  0  0  0  0  0  0  0  0  0
   21.5510    8.6896   31.7696 C   0  0  0  0  0  0  0  0  0  0  0  0
   21.5022    7.3110   31.7324 C   0  0  0  0  0  0  0  0  0  0  0  0
   20.7932    6.7364   32.5950 O   0  0  0  0  0  0  0  0  0  0  0  0
   21.7324   12.8767   31.8375 N   0  0  0  0  0  0  0  0  0  0  0  0
   22.9202   13.5253   31.3329 C   0  0  0  0  0  0  0  0  0  0  0  0
   22.5067   14.7717   30.5525 C   0  0  0  0  0  0  0  0  0  0  0  0
   21.6065   15.5555   31.2711 O   0  0  0  0  0  0  0  0  0  0  0  0
   20.4157   14.8320   31.3411 C   0  0  0  0  0  0  0  0  0  0  0  0
   20.6618   13.7040   32.3435 C   0  0  0  0  0  0  0  0  0  0  0  0
   22.1078    5.1970   30.8066 C   0  0  0  0  0  0  0  0  0  0  0  0
   23.1603    3.2663   32.0636 N   0  0  0  0  0  0  0  0  0  0  0  0
   23.2690    4.5525   31.5112 C   0  0  0  0  0  0  0  0  0  0  0  0
   24.3115    5.2229   31.5694 O   0  0  0  0  0  0  0  0  0  0  0  0
   22.2209    2.7517   31.9703 H   0  0  0  0  0  0  0  0  0  0  0  0
   24.4504    0.6448   36.2573 Cl  0  0  0  0  0  0  0  0  0  0  0  0
   24.9014    1.3469   34.7176 C   0  0  0  0  0  0  0  0  0  0  0  0
   26.1887    1.2286   34.2519 C   0  0  0  0  0  0  0  0  0  0  0  0
   26.4588    1.8088   33.0372 C   0  0  0  0  0  0  0  0  0  0  0  0
   25.5020    2.4914   32.2830 C   0  0  0  0  0  0  0  0  0  0  0  0
   24.2151    2.6147   32.7389 C   0  0  0  0  0  0  0  0  0  0  0  0
   23.9530    2.0158   33.9853 C   0  0  0  0  0  0  0  0  0  0  0  0
   27.1760    0.5512   34.9806 O   0  0  0  0  0  0  0  0  0  0  0  0
   28.0538    1.2736   35.8130 C   0  0  0  0  0  0  0  0  0  0  0  0
 23 24  1  0  0  0
 24 25  2  0  0  0
 24 29  1  0  0  0
 25 26  1  0  0  0
 25 30  1  0  0  0
 26 27  2  0  0  0
 27 28  1  0  0  0
 28 29  2  0  0  0
 28 19  1  0  0  0
 19 20  1  0  0  0
 20 21  2  0  0  0
 20 18  1  0  0  0
 18  1  1  0  0  0
  1  2  1  0  0  0
  1 10  1  0  0  0
  2  3  2  0  0  0
  3  4  1  0  0  0
  4  5  2  0  0  0
  4  9  1  0  0  0
  5  6  1  0  0  0
  6  7  2  0  0  0
  6 12  1  0  0  0
  7  8  1  0  0  0
  8  9  2  0  0  0
  9 10  1  0  0  0
 10 11  2  0  0  0
 12 13  1  0  0  0
 12 17  1  0  0  0
 13 14  1  0  0  0
 14 15  1  0  0  0
 15 16  1  0  0  0
 16 17  1  0  0  0
 30 31  1  0  0  0
 19 22  1  0  0  0
M  END
> <minimizedAffinity>
-8.84304

$$$$
1850


 24 27  0  0  0  0  0  0  0  0999 V2000
   21.1557    8.0242   32.3572 Cl  0  0  0  0  0  0  0  0  0  0  0  0
   20.8523    9.7464   32.5385 C   0  0  0  0  0  0  0  0  0  0  0  0
   21.7509   10.6714   32.0455 C   0  0  0  0  0  0  0  0  0  0  0  0
   21.5161   12.0102   32.1858 C   0  0  0  0  0  0  0  0  0  0  0  0
   20.3663   12.4088   32.8290 C   0  0  0  0  0  0  0  0  0  0  0  0
   19.4567   11.5028   33.3291 C   0  0  0  0  0  0  0  0  0  0  0  0
   19.7031   10.1528   33.1816 C   0  0  0  0  0  0  0  0  0  0  0  0
   22.4311   13.0629   31.6840 C   0  0  0  0  0  0  0  0  0  0  0  0
   23.4427   12.4063   30.8923 N   0  0  0  0  0  0  0  0  0  0  0  0
   24.0391   11.2179   31.4556 C   0  0  0  0  0  0  0  0  0  0  0  0
   22.9632   10.1289   31.3671 C   0  0  0  0  0  0  0  0  0  0  0  0
   23.8492   12.8802   29.6231 C   0  0  0  0  0  0  0  0  0  0  0  0
   24.7381   12.2596   28.9826 O   0  0  0  0  0  0  0  0  0  0  0  0
   23.2806   14.0911   28.9858 C   0  0  0  0  0  0  0  0  0  0  0  0
   24.2422   14.8219   28.2900 O   0  0  0  0  0  0  0  0  0  0  0  0
   23.9976   16.0406   27.6708 C   0  0  0  0  0  0  0  0  0  0  0  0
   24.5981   16.3140   26.4966 N   0  0  0  0  0  0  0  0  0  0  0  0
   24.4054   17.4626   25.8537 N   0  0  0  0  0  0  0  0  0  0  0  0
   23.6020   18.4233   26.3290 C   0  0  0  0  0  0  0  0  0  0  0  0
   23.6015   19.4631   25.4722 N   0  0  0  0  0  0  0  0  0  0  0  0
   24.3984   19.1386   24.4834 N   0  0  0  0  0  0  0  0  0  0  0  0
   24.9079   17.9128   24.6897 C   0  0  0  0  0  0  0  0  0  0  0  0
   22.9646   18.1760   27.5398 C   0  0  0  0  0  0  0  0  0  0  0  0
   23.1625   16.9902   28.2049 C   0  0  0  0  0  0  0  0  0  0  0  0
  1  2  1  0  0  0
  2  3  2  0  0  0
  2  7  1  0  0  0
  3  4  1  0  0  0
  3 11  1  0  0  0
  4  5  2  0  0  0
  4  8  1  0  0  0
  5  6  1  0  0  0
  6  7  2  0  0  0
  8  9  1  0  0  0
  9 10  1  0  0  0
  9 12  1  0  0  0
 10 11  1  0  0  0
 12 13  2  0  0  0
 12 14  1  0  0  0
 14 15  1  0  0  0
 15 16  1  0  0  0
 16 17  2  0  0  0
 16 24  1  0  0  0
 17 18  1  0  0  0
 18 19  1  0  0  0
 18 22  1  0  0  0
 19 20  2  0  0  0
 19 23  1  0  0  0
 20 21  1  0  0  0
 21 22  2  0  0  0
 23 24  2  0  0  0
M  END
> <minimizedAffinity>
-9.42073

$$$$
1852


 26 29  0  0  0  0  0  0  0  0999 V2000
   25.5816   11.1840   28.9666 S   0  0  0  0  0  0  0  0  0  0  0  0
   26.0702   11.2271   27.5585 O   0  0  0  0  0  0  0  0  0  0  0  0
   26.7697   11.1719   29.8923 O   0  0  0  0  0  0  0  0  0  0  0  0
   24.6198   12.6044   29.3034 C   0  0  0  0  0  0  0  0  0  0  0  0
   24.0532   12.7860   30.5493 C   0  0  0  0  0  0  0  0  0  0  0  0
   23.2833   13.8918   30.8670 C   0  0  0  0  0  0  0  0  0  0  0  0
   23.0591   14.8692   29.9147 C   0  0  0  0  0  0  0  0  0  0  0  0
   23.6257   14.6822   28.6800 C   0  0  0  0  0  0  0  0  0  0  0  0
   24.3926   13.5827   28.3600 C   0  0  0  0  0  0  0  0  0  0  0  0
   22.2841   15.9600   30.2754 O   0  0  0  0  0  0  0  0  0  0  0  0
   21.3163   15.9223   31.3093 C   0  0  0  0  0  0  0  0  0  0  0  0
   21.6568   14.9467   32.4044 C   0  0  0  0  0  0  0  0  0  0  0  0
   22.7141   14.0834   32.1046 O   0  0  0  0  0  0  0  0  0  0  0  0
   24.6955    9.7339   29.2415 N   0  0  0  0  0  0  0  0  0  0  0  0
   23.4076    9.9763   29.8112 C   0  0  0  0  0  0  0  0  0  0  0  0
   23.2536    9.0525   31.0070 C   0  0  0  0  0  0  0  0  0  0  0  0
   24.6941    8.8571   31.4329 C   0  0  0  0  0  0  0  0  0  0  0  0
   25.3910    8.7995   30.0684 C   0  0  0  0  0  0  0  0  0  0  0  0
   22.5838    9.7763   32.0255 O   0  0  0  0  0  0  0  0  0  0  0  0
   21.3062    9.4428   32.4454 C   0  0  0  0  0  0  0  0  0  0  0  0
   20.5636   10.4643   32.9620 N   0  0  0  0  0  0  0  0  0  0  0  0
   19.3202   10.1713   33.3769 C   0  0  0  0  0  0  0  0  0  0  0  0
   18.7912    8.8987   33.2966 C   0  0  0  0  0  0  0  0  0  0  0  0
   19.5894    7.9041   32.7647 C   0  0  0  0  0  0  0  0  0  0  0  0
   20.8389    8.1996   32.3468 N   0  0  0  0  0  0  0  0  0  0  0  0
   17.1681    8.5309   33.8428 Cl  0  0  0  0  0  0  0  0  0  0  0  0
  1  2  2  0  0  0
  1  3  2  0  0  0
  1 14  1  0  0  0
  1  4  1  0  0  0
 14 15  1  0  0  0
 14 18  1  0  0  0
 15 16  1  0  0  0
 16 17  1  0  0  0
 16 19  1  0  0  0
 17 18  1  0  0  0
 19 20  1  0  0  0
 20 21  2  0  0  0
 20 25  1  0  0  0
 21 22  1  0  0  0
 22 23  2  0  0  0
 23 24  1  0  0  0
 23 26  1  0  0  0
 24 25  2  0  0  0
  4  5  2  0  0  0
  4  9  1  0  0  0
  5  6  1  0  0  0
  6  7  2  0  0  0
  6 13  1  0  0  0
  7  8  1  0  0  0
  7 10  1  0  0  0
  8  9  2  0  0  0
 10 11  1  0  0  0
 11 12  1  0  0  0
 12 13  1  0  0  0
M  END
> <minimizedAffinity>
-8.46845

$$$$
1856


 31 34  0  0  0  0  0  0  0  0999 V2000
   24.1001   11.0083   29.5271 C   0  0  0  0  0  0  0  0  0  0  0  0
   23.1933   11.8217   30.0901 N   0  0  0  0  0  0  0  0  0  0  0  0
   23.1380   13.1620   29.8716 C   0  0  0  0  0  0  0  0  0  0  0  0
   24.0843   13.6450   29.0234 N   0  0  0  0  0  0  0  0  0  0  0  0
   25.0160   12.8817   28.4317 C   0  0  0  0  0  0  0  0  0  0  0  0
   25.0037   11.5814   28.6952 N   0  0  0  0  0  0  0  0  0  0  0  0
   25.9715   13.4524   27.5590 N   0  0  0  0  0  0  0  0  0  0  0  0
   27.0605   12.6977   26.9731 C   0  0  0  0  0  0  0  0  0  0  0  0
   27.4221   13.2839   25.6256 C   0  0  0  0  0  0  0  0  0  0  0  0
   27.7473   14.6132   25.6719 O   0  0  0  0  0  0  0  0  0  0  0  0
   27.3635   15.2435   26.8486 C   0  0  0  0  0  0  0  0  0  0  0  0
   25.9224   14.8688   27.1830 C   0  0  0  0  0  0  0  0  0  0  0  0
   22.1723   13.9873   30.4781 N   0  0  0  0  0  0  0  0  0  0  0  0
   20.9427   13.4352   30.9626 C   0  0  0  0  0  0  0  0  0  0  0  0
   20.8011   13.8629   32.4138 C   0  0  0  0  0  0  0  0  0  0  0  0
   20.8153   15.2660   32.4271 O   0  0  0  0  0  0  0  0  0  0  0  0
   22.0837   15.7374   32.0878 C   0  0  0  0  0  0  0  0  0  0  0  0
   22.3928   15.3940   30.6254 C   0  0  0  0  0  0  0  0  0  0  0  0
   24.1164    9.6124   29.7875 N   0  0  0  0  0  0  0  0  0  0  0  0
   24.9956    9.0628   29.7204 H   0  0  0  0  0  0  0  0  0  0  0  0
   22.7879    8.6271   31.4129 C   0  0  0  0  0  0  0  0  0  0  0  0
   22.9533    8.9293   30.1435 N   0  0  0  0  0  0  0  0  0  0  0  0
   17.9409    8.9500   33.5585 Br  0  0  0  0  0  0  0  0  0  0  0  0
   19.3926    7.9812   32.7886 C   0  0  0  0  0  0  0  0  0  0  0  0
   20.5233    8.6315   32.3935 C   0  0  0  0  0  0  0  0  0  0  0  0
   21.5896    7.9151   31.8282 C   0  0  0  0  0  0  0  0  0  0  0  0
   21.4659    6.5599   31.6834 C   0  0  0  0  0  0  0  0  0  0  0  0
   20.2977    5.8962   32.0922 C   0  0  0  0  0  0  0  0  0  0  0  0
   19.2691    6.6175   32.6425 C   0  0  0  0  0  0  0  0  0  0  0  0
   22.4825    5.8043   31.1336 O   0  0  0  0  0  0  0  0  0  0  0  0
   23.3534    6.1721   30.8100 H   0  0  0  0  0  0  0  0  0  0  0  0
 23 24  1  0  0  0
 24 25  2  0  0  0
 24 29  1  0  0  0
 25 26  1  0  0  0
 26 27  2  0  0  0
 26 21  1  0  0  0
 27 28  1  0  0  0
 27 30  1  0  0  0
 28 29  2  0  0  0
 21 22  2  0  0  0
 22 19  1  0  0  0
 19  1  1  0  0  0
  1  2  2  0  0  0
  1  6  1  0  0  0
  2  3  1  0  0  0
  3  4  2  0  0  0
  3 13  1  0  0  0
  4  5  1  0  0  0
  5  6  2  0  0  0
  5  7  1  0  0  0
  7  8  1  0  0  0
  7 12  1  0  0  0
  8  9  1  0  0  0
  9 10  1  0  0  0
 10 11  1  0  0  0
 11 12  1  0  0  0
 13 14  1  0  0  0
 13 18  1  0  0  0
 14 15  1  0  0  0
 15 16  1  0  0  0
 16 17  1  0  0  0
 17 18  1  0  0  0
 30 31  1  0  0  0
 19 20  1  0  0  0
M  END
> <minimizedAffinity>
-8.75936

$$$$
1863


 33 36  0  0  0  0  0  0  0  0999 V2000
   22.7566    7.9174   30.7779 N   0  0  0  0  0  0  0  0  0  0  0  0
   22.8997    6.5836   31.0095 C   0  0  0  0  0  0  0  0  0  0  0  0
   24.2314    6.3402   31.2200 C   0  0  0  0  0  0  0  0  0  0  0  0
   24.8440    7.5183   31.1104 N   0  0  0  0  0  0  0  0  0  0  0  0
   23.9529    8.5081   30.8357 C   0  0  0  0  0  0  0  0  0  0  0  0
   24.6216    5.0757   31.4561 N   0  0  0  0  0  0  0  0  0  0  0  0
   23.7312    4.0478   31.4869 C   0  0  0  0  0  0  0  0  0  0  0  0
   24.0908    2.8487   31.7092 O   0  0  0  0  0  0  0  0  0  0  0  0
   22.4194    4.2555   31.2828 N   0  0  0  0  0  0  0  0  0  0  0  0
   22.0123    5.5103   31.0470 C   0  0  0  0  0  0  0  0  0  0  0  0
   20.7856    5.6700   30.8592 O   0  0  0  0  0  0  0  0  0  0  0  0
   26.0100    4.7685   31.6789 C   0  0  0  0  0  0  0  0  0  0  0  0
   21.7258    3.4484   31.3085 H   0  0  0  0  0  0  0  0  0  0  0  0
   24.3106    9.8886   30.6168 N   0  0  0  0  0  0  0  0  0  0  0  0
   24.1014   10.3740   29.2723 C   0  0  0  0  0  0  0  0  0  0  0  0
   24.4044   11.8409   29.1032 C   0  0  0  0  0  0  0  0  0  0  0  0
   23.7929   12.5390   30.1746 N   0  0  0  0  0  0  0  0  0  0  0  0
   24.3578   12.1935   31.4362 C   0  0  0  0  0  0  0  0  0  0  0  0
   24.8408   10.7813   31.5896 C   0  0  0  0  0  0  0  0  0  0  0  0
   22.3698   12.4251   30.1133 C   0  0  0  0  0  0  0  0  0  0  0  0
   21.6410   13.5918   30.6918 C   0  0  0  0  0  0  0  0  0  0  0  0
   20.6772   13.4985   31.4682 O   0  0  0  0  0  0  0  0  0  0  0  0
   22.1328   14.8763   30.2842 N   0  0  0  0  0  0  0  0  0  0  0  0
   21.8500   15.3109   29.3769 H   0  0  0  0  0  0  0  0  0  0  0  0
   22.7740   15.3707   30.9008 H   0  0  0  0  0  0  0  0  0  0  0  0
   21.4960    8.5391   30.5449 C   0  0  0  0  0  0  0  0  0  0  0  0
   17.3884    8.1790   33.7584 Cl  0  0  0  0  0  0  0  0  0  0  0  0
   18.8980    8.9222   33.2371 C   0  0  0  0  0  0  0  0  0  0  0  0
   19.6113    8.4962   32.1523 C   0  0  0  0  0  0  0  0  0  0  0  0
   20.8171    9.0889   31.7478 C   0  0  0  0  0  0  0  0  0  0  0  0
   21.2763   10.1375   32.4852 C   0  0  0  0  0  0  0  0  0  0  0  0
   20.5553   10.5742   33.5868 C   0  0  0  0  0  0  0  0  0  0  0  0
   19.3700    9.9846   33.9774 C   0  0  0  0  0  0  0  0  0  0  0  0
 27 28  1  0  0  0
 28 29  2  0  0  0
 28 33  1  0  0  0
 29 30  1  0  0  0
 30 31  2  0  0  0
 30 26  1  0  0  0
 31 32  1  0  0  0
 32 33  2  0  0  0
 26  1  1  0  0  0
  1  2  1  0  0  0
  1  5  1  0  0  0
  2  3  2  0  0  0
  2 10  1  0  0  0
  3  4  1  0  0  0
  3  6  1  0  0  0
  4  5  2  0  0  0
  5 14  1  0  0  0
 14 15  1  0  0  0
 14 19  1  0  0  0
 15 16  1  0  0  0
 16 17  1  0  0  0
 17 18  1  0  0  0
 17 20  1  0  0  0
 18 19  1  0  0  0
 20 21  1  0  0  0
 21 22  2  0  0  0
 21 23  1  0  0  0
  6  7  1  0  0  0
  6 12  1  0  0  0
  7  8  2  0  0  0
  7  9  1  0  0  0
  9 10  1  0  0  0
 10 11  2  0  0  0
 23 24  1  0  0  0
 23 25  1  0  0  0
  9 13  1  0  0  0
M  END
> <minimizedAffinity>
-7.72172

$$$$
1865


 29 32  0  0  0  0  0  0  0  0999 V2000
   22.8541    7.7661   30.5955 N   0  0  0  0  0  0  0  0  0  0  0  0
   23.9314    6.9413   31.0648 C   0  0  0  0  0  0  0  0  0  0  0  0
   23.7837    5.8359   31.6835 O   0  0  0  0  0  0  0  0  0  0  0  0
   25.1707    7.5575   30.7251 N   0  0  0  0  0  0  0  0  0  0  0  0
   24.8654    8.9551   30.5142 C   0  0  0  0  0  0  0  0  0  0  0  0
   24.7599    9.5959   31.8854 C   0  0  0  0  0  0  0  0  0  0  0  0
   24.0205   10.9132   31.6802 C   0  0  0  0  0  0  0  0  0  0  0  0
   24.6051   11.6434   30.5716 N   0  0  0  0  0  0  0  0  0  0  0  0
   25.8022   11.1492   29.9440 C   0  0  0  0  0  0  0  0  0  0  0  0
   25.8218    9.6813   29.6691 C   0  0  0  0  0  0  0  0  0  0  0  0
   23.9962   12.8420   30.1175 C   0  0  0  0  0  0  0  0  0  0  0  0
   24.5113   13.4755   29.1412 O   0  0  0  0  0  0  0  0  0  0  0  0
   23.4856    8.8814   29.9725 C   0  0  0  0  0  0  0  0  0  0  0  0
   22.9093    9.6190   29.1284 O   0  0  0  0  0  0  0  0  0  0  0  0
   26.0998    7.1034   30.6458 H   0  0  0  0  0  0  0  0  0  0  0  0
   22.7954   13.4062   30.7095 C   0  0  0  0  0  0  0  0  0  0  0  0
   21.5559   13.0244   30.3438 N   0  0  0  0  0  0  0  0  0  0  0  0
   20.4879   13.5892   30.9338 C   0  0  0  0  0  0  0  0  0  0  0  0
   20.6066   14.5550   31.9103 C   0  0  0  0  0  0  0  0  0  0  0  0
   21.8389   14.9378   32.2769 N   0  0  0  0  0  0  0  0  0  0  0  0
   22.9228   14.3691   31.6831 C   0  0  0  0  0  0  0  0  0  0  0  0
   21.4338    7.5344   30.7171 C   0  0  0  0  0  0  0  0  0  0  0  0
   17.4087    8.4935   33.9321 Cl  0  0  0  0  0  0  0  0  0  0  0  0
   18.9500    8.9065   33.2077 C   0  0  0  0  0  0  0  0  0  0  0  0
   19.5810    8.1033   32.2806 C   0  0  0  0  0  0  0  0  0  0  0  0
   20.7911    8.4227   31.7087 C   0  0  0  0  0  0  0  0  0  0  0  0
   21.4209    9.5935   32.0635 C   0  0  0  0  0  0  0  0  0  0  0  0
   20.8028   10.4118   32.9928 C   0  0  0  0  0  0  0  0  0  0  0  0
   19.5891   10.0791   33.5584 C   0  0  0  0  0  0  0  0  0  0  0  0
 23 24  1  0  0  0
 24 25  2  0  0  0
 24 29  1  0  0  0
 25 26  1  0  0  0
 26 27  2  0  0  0
 26 22  1  0  0  0
 27 28  1  0  0  0
 28 29  2  0  0  0
 22  1  1  0  0  0
  1  2  1  0  0  0
  1 13  1  0  0  0
  2  3  2  0  0  0
  2  4  1  0  0  0
  4  5  1  0  0  0
  5  6  1  0  0  0
  5 10  1  0  0  0
  5 13  1  0  0  0
  6  7  1  0  0  0
  7  8  1  0  0  0
  8  9  1  0  0  0
  8 11  1  0  0  0
  9 10  1  0  0  0
 11 12  2  0  0  0
 11 16  1  0  0  0
 16 17  2  0  0  0
 16 21  1  0  0  0
 17 18  1  0  0  0
 18 19  2  0  0  0
 19 20  1  0  0  0
 20 21  2  0  0  0
 13 14  2  0  0  0
  4 15  1  0  0  0
M  END
> <minimizedAffinity>
-9.65541

$$$$
1871


 28 31  0  0  0  0  0  0  0  0999 V2000
   25.9716    2.5248   30.8179 C   0  0  0  0  0  0  0  0  0  0  0  0
   24.8311    2.9596   31.5253 N   0  0  0  0  0  0  0  0  0  0  0  0
   24.7695    2.3495   32.7857 C   0  0  0  0  0  0  0  0  0  0  0  0
   23.9893    2.2357   33.8324 C   0  0  0  0  0  0  0  0  0  0  0  0
   24.3774    1.4350   34.9991 C   0  0  0  0  0  0  0  0  0  0  0  0
   25.7655    1.0317   35.1868 C   0  0  0  0  0  0  0  0  0  0  0  0
   26.6986    1.3764   34.0528 C   0  0  0  0  0  0  0  0  0  0  0  0
   25.9893    1.5567   32.8366 N   0  0  0  0  0  0  0  0  0  0  0  0
   26.1391    1.1325   31.4505 C   0  0  0  0  0  0  0  0  0  0  0  0
   27.4414    0.4836   31.2338 C   0  0  0  0  0  0  0  0  0  0  0  0
   25.6470    2.2908   29.5014 O   0  0  0  0  0  0  0  0  0  0  0  0
   24.0218    2.3899   31.0045 H   0  0  0  0  0  0  0  0  0  0  0  0
   26.3567    2.4060   28.8433 H   0  0  0  0  0  0  0  0  0  0  0  0
   31.1153    5.5476   31.3874 Cl  0  0  0  0  0  0  0  0  0  0  0  0
   29.6103    4.6718   31.1797 C   0  0  0  0  0  0  0  0  0  0  0  0
   29.1012    4.3800   29.9220 C   0  0  0  0  0  0  0  0  0  0  0  0
   27.8998    3.6785   29.8413 C   0  0  0  0  0  0  0  0  0  0  0  0
   27.2169    3.2759   30.9588 C   0  0  0  0  0  0  0  0  0  0  0  0
   27.7201    3.5651   32.2153 C   0  0  0  0  0  0  0  0  0  0  0  0
   28.9100    4.2599   32.2965 C   0  0  0  0  0  0  0  0  0  0  0  0
   24.3819    4.2578   31.3062 C   0  0  0  0  0  0  0  0  0  0  0  0
   23.0129    4.4440   31.2049 C   0  0  0  0  0  0  0  0  0  0  0  0
   22.4416    5.6727   30.9780 C   0  0  0  0  0  0  0  0  0  0  0  0
   23.2137    6.8301   30.8338 C   0  0  0  0  0  0  0  0  0  0  0  0
   24.5658    6.6163   30.9374 C   0  0  0  0  0  0  0  0  0  0  0  0
   25.1294    5.3851   31.1645 C   0  0  0  0  0  0  0  0  0  0  0  0
   22.6281    8.0611   30.6100 O   0  0  0  0  0  0  0  0  0  0  0  0
   23.2068    8.9468   29.6849 C   0  0  0  0  0  0  0  0  0  0  0  0
 14 15  1  0  0  0
 15 16  2  0  0  0
 15 20  1  0  0  0
 16 17  1  0  0  0
 17 18  2  0  0  0
 18 19  1  0  0  0
 18  1  1  0  0  0
 19 20  2  0  0  0
  1  2  1  0  0  0
  1  9  1  0  0  0
  1 11  1  0  0  0
  2  3  1  0  0  0
  2 21  1  0  0  0
  3  4  2  0  0  0
  3  8  1  0  0  0
  4  5  1  0  0  0
  5  6  1  0  0  0
  6  7  1  0  0  0
  7  8  1  0  0  0
  8  9  1  0  0  0
  9 10  1  0  0  0
 21 22  2  0  0  0
 21 26  1  0  0  0
 22 23  1  0  0  0
 23 24  2  0  0  0
 24 25  1  0  0  0
 24 27  1  0  0  0
 25 26  2  0  0  0
 27 28  1  0  0  0
  2 12  1  0  0  0
 11 13  1  0  0  0
M  CHG 1   2   1
M  END
> <minimizedAffinity>
-6.67828

$$$$
1893


 28 31  0  0  0  0  0  0  0  0999 V2000
   21.4133    7.3588   31.8025 N   0  0  0  0  0  0  0  0  0  0  0  0
   21.4506    8.5771   32.3915 C   0  0  0  0  0  0  0  0  0  0  0  0
   22.4795    9.3005   32.4453 O   0  0  0  0  0  0  0  0  0  0  0  0
   20.2146    8.9105   32.9196 C   0  0  0  0  0  0  0  0  0  0  0  0
   19.4166    7.8890   32.6523 C   0  0  0  0  0  0  0  0  0  0  0  0
   18.2132    8.2173   33.1682 N   0  0  0  0  0  0  0  0  0  0  0  0
   18.3028    9.4267   33.7382 N   0  0  0  0  0  0  0  0  0  0  0  0
   19.5422    9.8645   33.5883 N   0  0  0  0  0  0  0  0  0  0  0  0
   20.1473    6.9391   31.9692 C   0  0  0  0  0  0  0  0  0  0  0  0
   19.6714    5.8521   31.5737 O   0  0  0  0  0  0  0  0  0  0  0  0
   17.3640    7.6241   33.1271 H   0  0  0  0  0  0  0  0  0  0  0  0
   17.5561    9.9665   34.2247 H   0  0  0  0  0  0  0  0  0  0  0  0
   25.9153    4.5124   29.1248 Cl  0  0  0  0  0  0  0  0  0  0  0  0
   24.5834    5.3807   29.8970 C   0  0  0  0  0  0  0  0  0  0  0  0
   24.1545    6.5975   29.4095 C   0  0  0  0  0  0  0  0  0  0  0  0
   23.1079    7.2294   30.0559 C   0  0  0  0  0  0  0  0  0  0  0  0
   22.4804    6.6940   31.1612 C   0  0  0  0  0  0  0  0  0  0  0  0
   22.9377    5.4745   31.6188 C   0  0  0  0  0  0  0  0  0  0  0  0
   23.9881    4.8028   30.9998 C   0  0  0  0  0  0  0  0  0  0  0  0
   20.0787   11.1272   34.0503 C   0  0  0  0  0  0  0  0  0  0  0  0
   19.9995   12.2006   33.0286 C   0  0  0  0  0  0  0  0  0  0  0  0
   21.0318   12.5409   32.1833 C   0  0  0  0  0  0  0  0  0  0  0  0
   20.9534   13.5396   31.2333 C   0  0  0  0  0  0  0  0  0  0  0  0
   19.7816   14.2465   31.1123 C   0  0  0  0  0  0  0  0  0  0  0  0
   18.7241   13.9399   31.9363 C   0  0  0  0  0  0  0  0  0  0  0  0
   18.8300   12.9328   32.8812 C   0  0  0  0  0  0  0  0  0  0  0  0
   22.0648   13.8054   30.4236 O   0  0  0  0  0  0  0  0  0  0  0  0
   23.3813   13.5513   30.8703 C   0  0  0  0  0  0  0  0  0  0  0  0
 13 14  1  0  0  0
 14 15  2  0  0  0
 14 19  1  0  0  0
 15 16  1  0  0  0
 16 17  2  0  0  0
 17 18  1  0  0  0
 17  1  1  0  0  0
 18 19  2  0  0  0
  1  2  1  0  0  0
  1  9  1  0  0  0
  2  3  2  0  0  0
  2  4  1  0  0  0
  4  5  2  0  0  0
  4  8  1  0  0  0
  5  6  1  0  0  0
  5  9  1  0  0  0
  6  7  1  0  0  0
  7  8  1  0  0  0
  8 20  1  0  0  0
 20 21  1  0  0  0
 21 22  2  0  0  0
 21 26  1  0  0  0
 22 23  1  0  0  0
 23 24  2  0  0  0
 23 27  1  0  0  0
 24 25  1  0  0  0
 25 26  2  0  0  0
 27 28  1  0  0  0
  9 10  2  0  0  0
  6 11  1  0  0  0
  7 12  1  0  0  0
M  END
> <minimizedAffinity>
-8.65791

$$$$
1894


 26 29  0  0  0  0  0  0  0  0999 V2000
   21.4642    7.4039   31.7993 N   0  0  0  0  0  0  0  0  0  0  0  0
   21.4945    8.6325   32.3631 C   0  0  0  0  0  0  0  0  0  0  0  0
   22.5039    9.3675   32.3854 O   0  0  0  0  0  0  0  0  0  0  0  0
   20.2637    8.9591   32.9068 C   0  0  0  0  0  0  0  0  0  0  0  0
   19.4680    7.9066   32.6679 C   0  0  0  0  0  0  0  0  0  0  0  0
   18.2763    8.2348   33.1974 N   0  0  0  0  0  0  0  0  0  0  0  0
   18.3469    9.4384   33.7362 N   0  0  0  0  0  0  0  0  0  0  0  0
   19.5672    9.8997   33.5657 N   0  0  0  0  0  0  0  0  0  0  0  0
   20.2141    6.9651   31.9912 C   0  0  0  0  0  0  0  0  0  0  0  0
   19.7776    5.8455   31.6071 O   0  0  0  0  0  0  0  0  0  0  0  0
   17.4114    7.6557   33.2005 H   0  0  0  0  0  0  0  0  0  0  0  0
   17.5580    9.9548   34.2264 H   0  0  0  0  0  0  0  0  0  0  0  0
   25.9649    4.5542   29.0153 Cl  0  0  0  0  0  0  0  0  0  0  0  0
   24.6455    5.3844   29.8358 C   0  0  0  0  0  0  0  0  0  0  0  0
   24.1628    6.5893   29.3709 C   0  0  0  0  0  0  0  0  0  0  0  0
   23.1278    7.2424   30.0131 C   0  0  0  0  0  0  0  0  0  0  0  0
   22.5317    6.7230   31.1426 C   0  0  0  0  0  0  0  0  0  0  0  0
   23.0221    5.5138   31.6009 C   0  0  0  0  0  0  0  0  0  0  0  0
   24.0565    4.8545   30.9655 C   0  0  0  0  0  0  0  0  0  0  0  0
   20.0853   11.1750   34.0023 C   0  0  0  0  0  0  0  0  0  0  0  0
   19.9153   12.2583   33.0103 C   0  0  0  0  0  0  0  0  0  0  0  0
   18.7139   12.9179   32.9228 C   0  0  0  0  0  0  0  0  0  0  0  0
   18.5761   13.9202   31.9905 C   0  0  0  0  0  0  0  0  0  0  0  0
   19.6159   14.2715   31.1486 C   0  0  0  0  0  0  0  0  0  0  0  0
   20.8203   13.6107   31.2348 C   0  0  0  0  0  0  0  0  0  0  0  0
   20.9410   12.6175   32.1669 C   0  0  0  0  0  0  0  0  0  0  0  0
 13 14  1  0  0  0
 14 15  2  0  0  0
 14 19  1  0  0  0
 15 16  1  0  0  0
 16 17  2  0  0  0
 17 18  1  0  0  0
 17  1  1  0  0  0
 18 19  2  0  0  0
  1  2  1  0  0  0
  1  9  1  0  0  0
  2  3  2  0  0  0
  2  4  1  0  0  0
  4  5  2  0  0  0
  4  8  1  0  0  0
  5  6  1  0  0  0
  5  9  1  0  0  0
  6  7  1  0  0  0
  7  8  1  0  0  0
  8 20  1  0  0  0
 20 21  1  0  0  0
 21 22  2  0  0  0
 21 26  1  0  0  0
 22 23  1  0  0  0
 23 24  2  0  0  0
 24 25  1  0  0  0
 25 26  2  0  0  0
  9 10  2  0  0  0
  6 11  1  0  0  0
  7 12  1  0  0  0
M  END
> <minimizedAffinity>
-8.57987

$$$$
1895


 32 35  0  0  0  0  0  0  0  0999 V2000
   28.0126    8.5854   27.8132 N   0  0  0  0  0  0  0  0  0  0  0  0
   26.9170    8.5521   28.7019 C   0  0  0  0  0  0  0  0  0  0  0  0
   26.9770    9.8374   29.5536 C   0  0  0  0  0  0  0  0  0  0  0  0
   26.6589   10.8769   28.6084 N   0  0  0  0  0  0  0  0  0  0  0  0
   27.7065   11.0348   27.5759 C   0  0  0  0  0  0  0  0  0  0  0  0
   28.2908    9.7656   27.1087 C   0  0  0  0  0  0  0  0  0  0  0  0
   25.5431   11.7096   28.5495 C   0  0  0  0  0  0  0  0  0  0  0  0
   25.5809   12.5481   27.5319 O   0  0  0  0  0  0  0  0  0  0  0  0
   28.2806    7.1361   26.9512 S   0  0  0  0  0  0  0  0  0  0  0  0
   27.8273    7.1665   25.5452 O   0  0  0  0  0  0  0  0  0  0  0  0
   29.7622    6.8451   26.9748 O   0  0  0  0  0  0  0  0  0  0  0  0
   27.4439    5.8421   27.8262 C   0  0  0  0  0  0  0  0  0  0  0  0
   27.8539    5.0707   29.2881 S   0  0  0  0  0  0  0  0  0  0  0  0
   26.5490    3.9833   29.3996 C   0  0  0  0  0  0  0  0  0  0  0  0
   25.8168    4.2565   28.2740 C   0  0  0  0  0  0  0  0  0  0  0  0
   26.2858    5.2207   27.4626 C   0  0  0  0  0  0  0  0  0  0  0  0
   26.2175    2.7881   30.6631 Cl  0  0  0  0  0  0  0  0  0  0  0  0
   24.3519   11.8656   29.3437 C   0  0  0  0  0  0  0  0  0  0  0  0
   24.0549   10.8718   30.3299 N   0  0  0  0  0  0  0  0  0  0  0  0
   24.3572   10.9651   31.7230 C   0  0  0  0  0  0  0  0  0  0  0  0
   24.9569   11.9625   32.2506 O   0  0  0  0  0  0  0  0  0  0  0  0
   23.8834    9.7959   32.3561 N   0  0  0  0  0  0  0  0  0  0  0  0
   22.9388    9.1461   31.4608 C   0  0  0  0  0  0  0  0  0  0  0  0
   22.9956    7.6589   31.4868 C   0  0  0  0  0  0  0  0  0  0  0  0
   21.5762    7.1378   31.2368 C   0  0  0  0  0  0  0  0  0  0  0  0
   20.8025    7.4044   32.5137 C   0  0  0  0  0  0  0  0  0  0  0  0
   21.0388    8.8302   32.9477 C   0  0  0  0  0  0  0  0  0  0  0  0
   21.5681    9.6840   31.8046 C   0  0  0  0  0  0  0  0  0  0  0  0
   23.8602    7.0546   30.4047 C   0  0  0  0  0  0  0  0  0  0  0  0
   23.3886    9.6249   30.1195 C   0  0  0  0  0  0  0  0  0  0  0  0
   23.2177    9.0531   29.0255 O   0  0  0  0  0  0  0  0  0  0  0  0
   24.1449    9.4425   33.2892 H   0  0  0  0  0  0  0  0  0  0  0  0
  9 10  2  0  0  0
  9 11  2  0  0  0
  9  1  1  0  0  0
  9 12  1  0  0  0
  1  2  1  0  0  0
  1  6  1  0  0  0
  2  3  1  0  0  0
  3  4  1  0  0  0
  4  5  1  0  0  0
  4  7  1  0  0  0
  5  6  1  0  0  0
  7  8  2  0  0  0
  7 18  1  0  0  0
 18 19  1  0  0  0
 19 20  1  0  0  0
 19 30  1  0  0  0
 20 21  2  0  0  0
 20 22  1  0  0  0
 22 23  1  0  0  0
 23 24  1  0  0  0
 23 28  1  0  0  0
 23 30  1  0  0  0
 24 25  1  0  0  0
 24 29  1  0  0  0
 25 26  1  0  0  0
 26 27  1  0  0  0
 27 28  1  0  0  0
 30 31  2  0  0  0
 12 13  1  0  0  0
 12 16  2  0  0  0
 13 14  1  0  0  0
 14 15  2  0  0  0
 14 17  1  0  0  0
 15 16  1  0  0  0
 22 32  1  0  0  0
M  END
> <minimizedAffinity>
-7.89228

$$$$
1906


 33 36  0  0  0  0  0  0  0  0999 V2000
   24.4766    7.2197   30.1864 C   0  0  0  0  0  0  0  0  0  0  0  0
   24.7657    6.4442   31.3186 O   0  0  0  0  0  0  0  0  0  0  0  0
   24.7353    5.0932   31.1061 C   0  0  0  0  0  0  0  0  0  0  0  0
   25.8784    4.5741   30.2575 C   0  0  0  0  0  0  0  0  0  0  0  0
   26.0597    5.6259   29.2239 N   0  0  0  0  0  0  0  0  0  0  0  0
   24.9055    6.3946   28.9590 C   0  0  0  0  0  0  0  0  0  0  0  0
   27.3005    5.7513   28.6345 C   0  0  0  0  0  0  0  0  0  0  0  0
   28.2738    4.9629   28.9826 O   0  0  0  0  0  0  0  0  0  0  0  0
   27.6393    6.7102   27.6277 C   0  0  0  0  0  0  0  0  0  0  0  0
   27.8129    8.0097   27.8695 N   0  0  0  0  0  0  0  0  0  0  0  0
   28.1326    8.9182   26.9268 C   0  0  0  0  0  0  0  0  0  0  0  0
   28.2983    8.5057   25.6142 C   0  0  0  0  0  0  0  0  0  0  0  0
   28.1347    7.2226   25.3363 N   0  0  0  0  0  0  0  0  0  0  0  0
   27.8157    6.3341   26.2918 C   0  0  0  0  0  0  0  0  0  0  0  0
   28.6496    9.5480   24.6185 C   0  0  0  0  0  0  0  0  0  0  0  0
   22.9783    7.3016   30.1182 C   0  0  0  0  0  0  0  0  0  0  0  0
   22.2506    7.3963   31.2079 O   0  0  0  0  0  0  0  0  0  0  0  0
   19.8369   11.1911   33.5820 Cl  0  0  0  0  0  0  0  0  0  0  0  0
   19.9774    9.5272   33.0142 C   0  0  0  0  0  0  0  0  0  0  0  0
   21.0946    9.1442   32.3232 C   0  0  0  0  0  0  0  0  0  0  0  0
   21.2301    7.8572   31.8696 C   0  0  0  0  0  0  0  0  0  0  0  0
   20.1795    6.9589   32.1414 C   0  0  0  0  0  0  0  0  0  0  0  0
   19.0800    7.3562   32.8276 C   0  0  0  0  0  0  0  0  0  0  0  0
   18.9487    8.6429   33.2805 C   0  0  0  0  0  0  0  0  0  0  0  0
   25.2037    8.4811   30.2937 C   0  0  0  0  0  0  0  0  0  0  0  0
   24.6837    9.5163   31.1889 C   0  0  0  0  0  0  0  0  0  0  0  0
   24.7369    9.3804   32.4259 O   0  0  0  0  0  0  0  0  0  0  0  0
   24.0998   10.7120   30.6810 N   0  0  0  0  0  0  0  0  0  0  0  0
   23.9925   10.9579   29.2469 C   0  0  0  0  0  0  0  0  0  0  0  0
   24.4906   12.3661   28.9994 C   0  0  0  0  0  0  0  0  0  0  0  0
   23.7249   13.2556   29.7595 O   0  0  0  0  0  0  0  0  0  0  0  0
   24.0493   13.0830   31.1045 C   0  0  0  0  0  0  0  0  0  0  0  0
   23.5824   11.7390   31.5610 C   0  0  0  0  0  0  0  0  0  0  0  0
 18 19  1  0  0  0
 19 20  2  0  0  0
 19 24  1  0  0  0
 20 21  1  0  0  0
 21 22  2  0  0  0
 21 17  1  0  0  0
 22 23  1  0  0  0
 23 24  2  0  0  0
 17 16  1  0  0  0
 16  1  1  0  0  0
  1  2  1  0  0  0
  1  6  1  0  0  0
  1 25  1  0  0  0
  2  3  1  0  0  0
  3  4  1  0  0  0
  4  5  1  0  0  0
  5  6  1  0  0  0
  5  7  1  0  0  0
  7  8  2  0  0  0
  7  9  1  0  0  0
  9 10  2  0  0  0
  9 14  1  0  0  0
 10 11  1  0  0  0
 11 12  2  0  0  0
 12 13  1  0  0  0
 12 15  1  0  0  0
 13 14  2  0  0  0
 25 26  1  0  0  0
 26 27  2  0  0  0
 26 28  1  0  0  0
 28 29  1  0  0  0
 28 33  1  0  0  0
 29 30  1  0  0  0
 30 31  1  0  0  0
 31 32  1  0  0  0
 32 33  1  0  0  0
M  END
> <minimizedAffinity>
-8.53006

$$$$
1913


 29 32  0  0  0  0  0  0  0  0999 V2000
   22.3795    9.4918   31.4943 N   0  0  0  0  0  0  0  0  0  0  0  0
   22.3509    9.6679   30.0605 C   0  0  0  0  0  0  0  0  0  0  0  0
   23.6529    9.3216   29.3897 C   0  0  0  0  0  0  0  0  0  0  0  0
   24.7813    9.9185   30.1567 C   0  0  0  0  0  0  0  0  0  0  0  0
   24.8488    9.3085   31.5143 C   0  0  0  0  0  0  0  0  0  0  0  0
   23.5569    9.1391   32.2262 C   0  0  0  0  0  0  0  0  0  0  0  0
   19.3177   12.6370   34.0492 Cl  0  0  0  0  0  0  0  0  0  0  0  0
   19.7087   11.0733   33.4121 C   0  0  0  0  0  0  0  0  0  0  0  0
   18.8813   10.0458   33.6127 N   0  0  0  0  0  0  0  0  0  0  0  0
   19.1342    8.8203   33.1446 C   0  0  0  0  0  0  0  0  0  0  0  0
   18.4686    7.6742   33.2129 N   0  0  0  0  0  0  0  0  0  0  0  0
   19.2176    6.7870   32.5453 C   0  0  0  0  0  0  0  0  0  0  0  0
   20.3348    7.3413   32.0571 N   0  0  0  0  0  0  0  0  0  0  0  0
   20.3194    8.6344   32.4184 C   0  0  0  0  0  0  0  0  0  0  0  0
   21.1767    9.6810   32.2057 C   0  0  0  0  0  0  0  0  0  0  0  0
   20.8392   10.8996   32.7211 N   0  0  0  0  0  0  0  0  0  0  0  0
   21.0966    6.8951   31.4942 H   0  0  0  0  0  0  0  0  0  0  0  0
   24.7694   11.3822   30.1371 C   0  0  0  0  0  0  0  0  0  0  0  0
   25.0800   11.9971   31.1865 O   0  0  0  0  0  0  0  0  0  0  0  0
   24.4252   12.1364   28.9965 N   0  0  0  0  0  0  0  0  0  0  0  0
   24.1634   11.6170   28.1087 H   0  0  0  0  0  0  0  0  0  0  0  0
   24.4090   13.5805   28.9629 C   0  0  0  0  0  0  0  0  0  0  0  0
   23.0303   14.1701   29.0434 C   0  0  0  0  0  0  0  0  0  0  0  0
   22.7039   14.5505   30.4061 N   0  0  0  0  0  0  0  0  0  0  0  0
   21.7947   13.6520   31.0339 C   0  0  0  0  0  0  0  0  0  0  0  0
   20.4372   14.3039   31.2035 C   0  0  0  0  0  0  0  0  0  0  0  0
   20.5876   15.3715   32.0528 O   0  0  0  0  0  0  0  0  0  0  0  0
   21.5427   16.2898   31.7064 C   0  0  0  0  0  0  0  0  0  0  0  0
   22.4113   15.9312   30.5509 C   0  0  0  0  0  0  0  0  0  0  0  0
  7  8  1  0  0  0
  8  9  2  0  0  0
  8 16  1  0  0  0
  9 10  1  0  0  0
 10 11  1  0  0  0
 10 14  2  0  0  0
 11 12  2  0  0  0
 12 13  1  0  0  0
 13 14  1  0  0  0
 14 15  1  0  0  0
 15 16  2  0  0  0
 15  1  1  0  0  0
  1  2  1  0  0  0
  1  6  1  0  0  0
  2  3  1  0  0  0
  3  4  1  0  0  0
  4  5  1  0  0  0
  4 18  1  0  0  0
  5  6  1  0  0  0
 18 19  2  0  0  0
 18 20  1  0  0  0
 20 22  1  0  0  0
 22 23  1  0  0  0
 23 24  1  0  0  0
 24 25  1  0  0  0
 24 29  1  0  0  0
 25 26  1  0  0  0
 26 27  1  0  0  0
 27 28  1  0  0  0
 28 29  1  0  0  0
 13 17  1  0  0  0
 20 21  1  0  0  0
M  END
> <minimizedAffinity>
-8.03606

$$$$
1927


 36 39  0  0  0  0  0  0  0  0999 V2000
   24.0791   12.4104   30.9348 C   0  0  0  0  0  0  0  0  0  0  0  0
   23.3808    7.2405   30.6195 C   0  0  0  0  0  0  0  0  0  0  0  0
   24.5476    8.2231   30.5525 C   0  0  0  0  0  0  0  0  0  0  0  0
   23.9782    9.4097   29.8025 C   0  0  0  0  0  0  0  0  0  0  0  0
   22.9957   10.0660   30.5909 N   0  0  0  0  0  0  0  0  0  0  0  0
   21.8519    9.2254   31.0321 C   0  0  0  0  0  0  0  0  0  0  0  0
   22.2249    7.8169   31.3482 C   0  0  0  0  0  0  0  0  0  0  0  0
   23.0161   11.3956   30.9910 C   0  0  0  0  0  0  0  0  0  0  0  0
   21.9041   11.8553   31.5044 O   0  0  0  0  0  0  0  0  0  0  0  0
   22.9817    7.1162   29.2504 O   0  0  0  0  0  0  0  0  0  0  0  0
   21.9952    7.0436   29.2549 H   0  0  0  0  0  0  0  0  0  0  0  0
   25.0046    1.7620   32.6798 Cl  0  0  0  0  0  0  0  0  0  0  0  0
   24.5498    3.3665   32.0488 C   0  0  0  0  0  0  0  0  0  0  0  0
   23.2721    3.8493   32.1978 C   0  0  0  0  0  0  0  0  0  0  0  0
   22.9214    5.1080   31.7101 C   0  0  0  0  0  0  0  0  0  0  0  0
   23.8428    5.9344   31.0536 C   0  0  0  0  0  0  0  0  0  0  0  0
   25.1100    5.4185   30.9240 C   0  0  0  0  0  0  0  0  0  0  0  0
   25.4711    4.1733   31.4014 C   0  0  0  0  0  0  0  0  0  0  0  0
   23.7724   13.6495   30.3679 N   0  0  0  0  0  0  0  0  0  0  0  0
   24.0456   14.0240   29.0163 C   0  0  0  0  0  0  0  0  0  0  0  0
   24.6289   13.1444   28.3292 O   0  0  0  0  0  0  0  0  0  0  0  0
   23.2366   14.3820   30.9058 H   0  0  0  0  0  0  0  0  0  0  0  0
   23.6656   15.3139   28.5092 C   0  0  0  0  0  0  0  0  0  0  0  0
   24.1216   16.0061   27.5179 C   0  0  0  0  0  0  0  0  0  0  0  0
   25.1936   15.5666   26.6806 N   0  0  0  0  0  0  0  0  0  0  0  0
   25.6564   16.3329   25.5906 N   0  0  0  0  0  0  0  0  0  0  0  0
   25.0729   17.5772   25.2782 C   0  0  0  0  0  0  0  0  0  0  0  0
   25.5169   18.2315   24.2899 O   0  0  0  0  0  0  0  0  0  0  0  0
   23.9817   18.0610   26.1012 C   0  0  0  0  0  0  0  0  0  0  0  0
   23.5247   17.3193   27.1663 C   0  0  0  0  0  0  0  0  0  0  0  0
   22.4759   17.8301   27.8758 C   0  0  0  0  0  0  0  0  0  0  0  0
   21.8672   19.0505   27.5602 C   0  0  0  0  0  0  0  0  0  0  0  0
   22.3580   19.7500   26.4921 C   0  0  0  0  0  0  0  0  0  0  0  0
   23.4266   19.2710   25.7385 C   0  0  0  0  0  0  0  0  0  0  0  0
   25.6733   14.6514   26.8561 H   0  0  0  0  0  0  0  0  0  0  0  0
   26.4403   15.9811   24.9929 H   0  0  0  0  0  0  0  0  0  0  0  0
 12 13  1  0  0  0
 13 14  2  0  0  0
 13 18  1  0  0  0
 14 15  1  0  0  0
 15 16  2  0  0  0
 16 17  1  0  0  0
 16  2  1  0  0  0
 17 18  2  0  0  0
  2  3  1  0  0  0
  2  7  1  0  0  0
  2 10  1  0  0  0
  3  4  1  0  0  0
  4  5  1  0  0  0
  5  6  1  0  0  0
  5  8  1  0  0  0
  6  7  1  0  0  0
  8  9  2  0  0  0
  8  1  1  0  0  0
  1 19  1  0  0  0
 19 20  1  0  0  0
 20 21  2  0  0  0
 20 23  1  0  0  0
 23 24  2  0  0  0
 24 25  1  0  0  0
 24 30  1  0  0  0
 25 26  1  0  0  0
 26 27  1  0  0  0
 27 28  2  0  0  0
 27 29  1  0  0  0
 29 30  2  0  0  0
 29 34  1  0  0  0
 30 31  1  0  0  0
 31 32  2  0  0  0
 32 33  1  0  0  0
 33 34  2  0  0  0
 19 22  1  0  0  0
 25 35  1  0  0  0
 26 36  1  0  0  0
 10 11  1  0  0  0
M  END
> <minimizedAffinity>
-10.15950

$$$$
1928


 28 31  0  0  0  0  0  0  0  0999 V2000
   23.8608   14.1051   29.0769 N   0  0  0  0  0  0  0  0  0  0  0  0
   24.0027   14.8597   27.9675 C   0  0  0  0  0  0  0  0  0  0  0  0
   23.4872   16.1296   27.9099 C   0  0  0  0  0  0  0  0  0  0  0  0
   22.7742   16.6666   29.0742 C   0  0  0  0  0  0  0  0  0  0  0  0
   22.3831   17.9157   28.7411 N   0  0  0  0  0  0  0  0  0  0  0  0
   22.7792   18.1848   27.5138 N   0  0  0  0  0  0  0  0  0  0  0  0
   23.4440   17.1559   26.9680 C   0  0  0  0  0  0  0  0  0  0  0  0
   23.9497   17.0876   25.8221 O   0  0  0  0  0  0  0  0  0  0  0  0
   22.6549   15.8586   30.1852 C   0  0  0  0  0  0  0  0  0  0  0  0
   23.2102   14.6110   30.1227 C   0  0  0  0  0  0  0  0  0  0  0  0
   22.5990   19.0845   27.0316 H   0  0  0  0  0  0  0  0  0  0  0  0
   21.9504   16.3597   31.3650 C   0  0  0  0  0  0  0  0  0  0  0  0
   20.7188   16.2617   31.4568 O   0  0  0  0  0  0  0  0  0  0  0  0
   22.6386   16.9565   32.4080 O   0  0  0  0  0  0  0  0  0  0  0  0
   23.1220   16.2536   33.5281 C   0  0  0  0  0  0  0  0  0  0  0  0
   24.4308   12.7566   29.0818 C   0  0  0  0  0  0  0  0  0  0  0  0
   22.4449   10.8862   31.4759 C   0  0  0  0  0  0  0  0  0  0  0  0
   23.6918   10.8333   31.9679 N   0  0  0  0  0  0  0  0  0  0  0  0
   24.5095   11.4757   31.1889 O   0  0  0  0  0  0  0  0  0  0  0  0
   23.8364   11.9645   30.1762 C   0  0  0  0  0  0  0  0  0  0  0  0
   22.5371   11.6006   30.3452 N   0  0  0  0  0  0  0  0  0  0  0  0
   17.5805    8.3544   33.9736 Cl  0  0  0  0  0  0  0  0  0  0  0  0
   18.9965    9.0976   33.2495 C   0  0  0  0  0  0  0  0  0  0  0  0
   19.3171   10.4203   33.4955 C   0  0  0  0  0  0  0  0  0  0  0  0
   20.4361   10.9874   32.9156 C   0  0  0  0  0  0  0  0  0  0  0  0
   21.2685   10.2782   32.0817 C   0  0  0  0  0  0  0  0  0  0  0  0
   20.9531    8.9583   31.8318 C   0  0  0  0  0  0  0  0  0  0  0  0
   19.8339    8.3789   32.4083 C   0  0  0  0  0  0  0  0  0  0  0  0
 22 23  1  0  0  0
 23 24  2  0  0  0
 23 28  1  0  0  0
 24 25  1  0  0  0
 25 26  2  0  0  0
 26 27  1  0  0  0
 26 17  1  0  0  0
 27 28  2  0  0  0
 17 18  2  0  0  0
 17 21  1  0  0  0
 18 19  1  0  0  0
 19 20  1  0  0  0
 20 21  2  0  0  0
 20 16  1  0  0  0
 16  1  1  0  0  0
  1  2  1  0  0  0
  1 10  1  0  0  0
  2  3  2  0  0  0
  3  4  1  0  0  0
  3  7  1  0  0  0
  4  5  2  0  0  0
  4  9  1  0  0  0
  5  6  1  0  0  0
  6  7  1  0  0  0
  7  8  2  0  0  0
  9 10  2  0  0  0
  9 12  1  0  0  0
 12 13  2  0  0  0
 12 14  1  0  0  0
 14 15  1  0  0  0
  6 11  1  0  0  0
M  END
> <minimizedAffinity>
-9.72718

$$$$
1930


 34 37  0  0  0  0  0  0  0  0999 V2000
   23.6478    8.0658   29.9699 C   0  0  0  0  0  0  0  0  0  0  0  0
   22.5488    7.8874   29.3846 O   0  0  0  0  0  0  0  0  0  0  0  0
   23.7531    9.0548   30.9650 N   0  0  0  0  0  0  0  0  0  0  0  0
   22.6236    9.8985   31.3570 C   0  0  0  0  0  0  0  0  0  0  0  0
   23.0184   11.3073   30.9608 C   0  0  0  0  0  0  0  0  0  0  0  0
   24.3374   11.6945   31.5875 C   0  0  0  0  0  0  0  0  0  0  0  0
   24.8359   10.5792   32.5139 C   0  0  0  0  0  0  0  0  0  0  0  0
   24.9884    9.3163   31.6831 C   0  0  0  0  0  0  0  0  0  0  0  0
   25.3652   11.8284   30.6222 O   0  0  0  0  0  0  0  0  0  0  0  0
   24.2956   12.9953   32.3309 C   0  0  0  0  0  0  0  0  0  0  0  0
   26.1229   12.2532   31.0941 H   0  0  0  0  0  0  0  0  0  0  0  0
   21.9865   12.2725   31.1055 N   0  0  0  0  0  0  0  0  0  0  0  0
   21.0271   12.1552   32.0700 C   0  0  0  0  0  0  0  0  0  0  0  0
   20.0242   13.0905   32.2113 C   0  0  0  0  0  0  0  0  0  0  0  0
   19.9824   14.1739   31.3620 C   0  0  0  0  0  0  0  0  0  0  0  0
   19.0695   15.0627   31.4601 O   0  0  0  0  0  0  0  0  0  0  0  0
   20.9301   14.2823   30.4147 N   0  0  0  0  0  0  0  0  0  0  0  0
   21.9030   13.3309   30.3134 C   0  0  0  0  0  0  0  0  0  0  0  0
   22.7582   13.4849   29.4129 O   0  0  0  0  0  0  0  0  0  0  0  0
   18.9671   12.9933   33.2486 C   0  0  0  0  0  0  0  0  0  0  0  0
   20.9029   15.0966   29.7734 H   0  0  0  0  0  0  0  0  0  0  0  0
   24.8075    7.2233   29.5894 C   0  0  0  0  0  0  0  0  0  0  0  0
   24.4358    5.8233   29.2245 C   0  0  0  0  0  0  0  0  0  0  0  0
   26.6962    0.6800   34.5149 Cl  0  0  0  0  0  0  0  0  0  0  0  0
   25.7477    1.7945   33.5426 C   0  0  0  0  0  0  0  0  0  0  0  0
   26.2744    2.5042   32.4936 C   0  0  0  0  0  0  0  0  0  0  0  0
   25.5189    3.3817   31.7314 C   0  0  0  0  0  0  0  0  0  0  0  0
   25.7509    4.1871   30.6813 N   0  0  0  0  0  0  0  0  0  0  0  0
   24.6349    4.8434   30.3207 C   0  0  0  0  0  0  0  0  0  0  0  0
   23.6769    4.4172   31.1939 N   0  0  0  0  0  0  0  0  0  0  0  0
   24.1872    3.5318   32.0577 C   0  0  0  0  0  0  0  0  0  0  0  0
   23.6175    2.8377   33.1041 C   0  0  0  0  0  0  0  0  0  0  0  0
   24.4131    1.9682   33.8424 C   0  0  0  0  0  0  0  0  0  0  0  0
   22.3010    4.9067   31.1309 C   0  0  0  0  0  0  0  0  0  0  0  0
 24 25  1  0  0  0
 25 26  2  0  0  0
 25 33  1  0  0  0
 26 27  1  0  0  0
 27 28  1  0  0  0
 27 31  2  0  0  0
 28 29  2  0  0  0
 29 30  1  0  0  0
 29 23  1  0  0  0
 30 31  1  0  0  0
 30 34  1  0  0  0
 31 32  1  0  0  0
 32 33  2  0  0  0
 23 22  1  0  0  0
 22  1  1  0  0  0
  1  2  2  0  0  0
  1  3  1  0  0  0
  3  4  1  0  0  0
  3  8  1  0  0  0
  4  5  1  0  0  0
  5  6  1  0  0  0
  5 12  1  0  0  0
  6  7  1  0  0  0
  6  9  1  0  0  0
  6 10  1  0  0  0
  7  8  1  0  0  0
 12 13  1  0  0  0
 12 18  1  0  0  0
 13 14  2  0  0  0
 14 15  1  0  0  0
 14 20  1  0  0  0
 15 16  2  0  0  0
 15 17  1  0  0  0
 17 18  1  0  0  0
 18 19  2  0  0  0
  9 11  1  0  0  0
 17 21  1  0  0  0
M  END
> <minimizedAffinity>
-8.84406

$$$$
1936


 25 28  0  0  0  0  0  0  0  0999 V2000
   20.8591   13.3138   33.0733 N   0  0  0  0  0  0  0  0  0  0  0  0
   20.8229   14.4470   32.2384 C   0  0  0  0  0  0  0  0  0  0  0  0
   19.7079   14.8791   31.8997 O   0  0  0  0  0  0  0  0  0  0  0  0
   21.7877   12.9328   33.3700 H   0  0  0  0  0  0  0  0  0  0  0  0
   22.0386   15.1276   31.7597 C   0  0  0  0  0  0  0  0  0  0  0  0
   21.9293   16.5863   31.5429 C   0  0  0  0  0  0  0  0  0  0  0  0
   22.6394   16.1647   32.7682 C   0  0  0  0  0  0  0  0  0  0  0  0
   23.0727   14.3695   31.1214 N   0  0  0  0  0  0  0  0  0  0  0  0
   22.7962   13.9005   29.8213 C   0  0  0  0  0  0  0  0  0  0  0  0
   22.3297   12.4546   29.9396 C   0  0  0  0  0  0  0  0  0  0  0  0
   23.3755   11.6524   30.3302 O   0  0  0  0  0  0  0  0  0  0  0  0
   24.3130   12.2654   31.1238 C   0  0  0  0  0  0  0  0  0  0  0  0
   23.7421   13.4238   31.9163 C   0  0  0  0  0  0  0  0  0  0  0  0
   19.6591   12.6447   33.5413 C   0  0  0  0  0  0  0  0  0  0  0  0
   21.5765    5.4071   31.6081 Cl  0  0  0  0  0  0  0  0  0  0  0  0
   20.6572    6.8081   32.1537 C   0  0  0  0  0  0  0  0  0  0  0  0
   21.2120    8.0755   32.2110 C   0  0  0  0  0  0  0  0  0  0  0  0
   20.5292    9.1959   32.6317 C   0  0  0  0  0  0  0  0  0  0  0  0
   20.8157   10.5012   32.7813 N   0  0  0  0  0  0  0  0  0  0  0  0
   19.7448   11.1735   33.2437 C   0  0  0  0  0  0  0  0  0  0  0  0
   18.7745   10.2560   33.3827 N   0  0  0  0  0  0  0  0  0  0  0  0
   19.1973    9.0283   33.0219 C   0  0  0  0  0  0  0  0  0  0  0  0
   18.6334    7.7748   32.9703 C   0  0  0  0  0  0  0  0  0  0  0  0
   19.3297    6.6711   32.5482 C   0  0  0  0  0  0  0  0  0  0  0  0
   17.8113   10.4716   33.7267 H   0  0  0  0  0  0  0  0  0  0  0  0
 15 16  1  0  0  0
 16 17  2  0  0  0
 16 24  1  0  0  0
 17 18  1  0  0  0
 18 19  1  0  0  0
 18 22  2  0  0  0
 19 20  2  0  0  0
 20 21  1  0  0  0
 20 14  1  0  0  0
 21 22  1  0  0  0
 22 23  1  0  0  0
 23 24  2  0  0  0
 14  1  1  0  0  0
  1  2  1  0  0  0
  2  3  2  0  0  0
  2  5  1  0  0  0
  5  6  1  0  0  0
  5  7  1  0  0  0
  5  8  1  0  0  0
  6  7  1  0  0  0
  8  9  1  0  0  0
  8 13  1  0  0  0
  9 10  1  0  0  0
 10 11  1  0  0  0
 11 12  1  0  0  0
 12 13  1  0  0  0
 21 25  1  0  0  0
  1  4  1  0  0  0
M  END
> <minimizedAffinity>
-8.43019

$$$$
1937


 31 34  0  0  0  0  0  0  0  0999 V2000
   25.9939    4.6037   30.1427 N   0  0  0  0  0  0  0  0  0  0  0  0
   27.2581    4.5695   30.7167 C   0  0  0  0  0  0  0  0  0  0  0  0
   28.2981    4.9522   29.5798 C   0  0  0  0  0  0  0  0  0  0  0  0
   27.4882    5.8125   28.7587 N   0  0  0  0  0  0  0  0  0  0  0  0
   26.6326    5.0090   27.8374 C   0  0  0  0  0  0  0  0  0  0  0  0
   26.0299    3.9933   28.7669 C   0  0  0  0  0  0  0  0  0  0  0  0
   27.5448    7.1739   28.7426 C   0  0  0  0  0  0  0  0  0  0  0  0
   26.5038    7.8054   28.3521 O   0  0  0  0  0  0  0  0  0  0  0  0
   28.7006    8.0519   29.1080 C   0  0  0  0  0  0  0  0  0  0  0  0
   29.8139    7.5177   28.3191 O   0  0  0  0  0  0  0  0  0  0  0  0
   29.3498    7.0781   27.0453 C   0  0  0  0  0  0  0  0  0  0  0  0
   28.3309    7.7886   26.4678 C   0  0  0  0  0  0  0  0  0  0  0  0
   27.8062    7.4316   25.2304 C   0  0  0  0  0  0  0  0  0  0  0  0
   28.3735    6.3204   24.6173 C   0  0  0  0  0  0  0  0  0  0  0  0
   29.4042    5.5898   25.1662 C   0  0  0  0  0  0  0  0  0  0  0  0
   29.8990    5.9785   26.3953 C   0  0  0  0  0  0  0  0  0  0  0  0
   27.8069    8.8990   27.1391 O   0  0  0  0  0  0  0  0  0  0  0  0
   28.4087    9.3840   28.3658 C   0  0  0  0  0  0  0  0  0  0  0  0
   24.8189    4.0704   30.7891 C   0  0  0  0  0  0  0  0  0  0  0  0
   24.0319    6.3598   30.1476 N   0  0  0  0  0  0  0  0  0  0  0  0
   23.6807    5.0605   30.5197 C   0  0  0  0  0  0  0  0  0  0  0  0
   22.5384    4.6953   30.6200 O   0  0  0  0  0  0  0  0  0  0  0  0
   25.0678    6.6126   30.3291 H   0  0  0  0  0  0  0  0  0  0  0  0
   23.1730    7.3822   29.6700 C   0  0  0  0  0  0  0  0  0  0  0  0
   24.2662   10.1091   29.6685 Cl  0  0  0  0  0  0  0  0  0  0  0  0
   23.0032    9.5897   30.7585 C   0  0  0  0  0  0  0  0  0  0  0  0
   22.6401    8.2479   30.7544 C   0  0  0  0  0  0  0  0  0  0  0  0
   21.6846    7.8711   31.6607 C   0  0  0  0  0  0  0  0  0  0  0  0
   21.1067    8.7937   32.5248 C   0  0  0  0  0  0  0  0  0  0  0  0
   21.4726   10.1554   32.5318 C   0  0  0  0  0  0  0  0  0  0  0  0
   22.4481   10.4856   31.6127 C   0  0  0  0  0  0  0  0  0  0  0  0
 25 26  1  0  0  0
 26 27  2  0  0  0
 26 31  1  0  0  0
 27 28  1  0  0  0
 27 24  1  0  0  0
 28 29  2  0  0  0
 29 30  1  0  0  0
 30 31  2  0  0  0
 24 20  1  0  0  0
 20 21  1  0  0  0
 21 22  2  0  0  0
 21 19  1  0  0  0
 19  1  1  0  0  0
  1  2  1  0  0  0
  1  6  1  0  0  0
  2  3  1  0  0  0
  3  4  1  0  0  0
  4  5  1  0  0  0
  4  7  1  0  0  0
  5  6  1  0  0  0
  7  8  2  0  0  0
  7  9  1  0  0  0
  9 10  1  0  0  0
  9 18  1  0  0  0
 10 11  1  0  0  0
 11 12  2  0  0  0
 11 16  1  0  0  0
 12 13  1  0  0  0
 12 17  1  0  0  0
 13 14  2  0  0  0
 14 15  1  0  0  0
 15 16  2  0  0  0
 17 18  1  0  0  0
 20 23  1  0  0  0
M  END
> <minimizedAffinity>
-7.08343

$$$$
1939


 28 31  0  0  0  0  0  0  0  0999 V2000
   21.8887    7.6836   31.1505 N   0  0  0  0  0  0  0  0  0  0  0  0
   20.7139    7.6750   31.8506 C   0  0  0  0  0  0  0  0  0  0  0  0
   20.5714    8.8496   32.5366 C   0  0  0  0  0  0  0  0  0  0  0  0
   21.6624    9.5420   32.2373 N   0  0  0  0  0  0  0  0  0  0  0  0
   22.4896    8.8505   31.3882 C   0  0  0  0  0  0  0  0  0  0  0  0
   19.4983    9.0900   33.3122 N   0  0  0  0  0  0  0  0  0  0  0  0
   18.5248    8.1489   33.4258 C   0  0  0  0  0  0  0  0  0  0  0  0
   17.5453    8.4166   34.1576 O   0  0  0  0  0  0  0  0  0  0  0  0
   18.6195    6.9789   32.7714 N   0  0  0  0  0  0  0  0  0  0  0  0
   19.6940    6.7501   32.0017 C   0  0  0  0  0  0  0  0  0  0  0  0
   19.7364    5.6461   31.4151 O   0  0  0  0  0  0  0  0  0  0  0  0
   19.4273   10.3647   34.0045 C   0  0  0  0  0  0  0  0  0  0  0  0
   17.8464    6.2919   32.8923 H   0  0  0  0  0  0  0  0  0  0  0  0
   23.7200    9.3742   30.9343 N   0  0  0  0  0  0  0  0  0  0  0  0
   23.8641    9.6255   29.5066 C   0  0  0  0  0  0  0  0  0  0  0  0
   24.7279   10.8988   29.4541 C   0  0  0  0  0  0  0  0  0  0  0  0
   24.4570   11.7721   30.5741 N   0  0  0  0  0  0  0  0  0  0  0  0
   24.8550   11.2271   31.8542 C   0  0  0  0  0  0  0  0  0  0  0  0
   24.8728    9.7151   31.6835 C   0  0  0  0  0  0  0  0  0  0  0  0
   25.0051   12.6345   30.4181 H   0  0  0  0  0  0  0  0  0  0  0  0
   22.3133    6.5775   30.3337 C   0  0  0  0  0  0  0  0  0  0  0  0
   26.2940    2.6768   32.6257 Cl  0  0  0  0  0  0  0  0  0  0  0  0
   25.1159    3.8019   31.9862 C   0  0  0  0  0  0  0  0  0  0  0  0
   25.5551    4.8563   31.2431 C   0  0  0  0  0  0  0  0  0  0  0  0
   24.6452    5.7772   30.7143 C   0  0  0  0  0  0  0  0  0  0  0  0
   23.3071    5.6739   30.9075 C   0  0  0  0  0  0  0  0  0  0  0  0
   22.8886    4.5769   31.6762 C   0  0  0  0  0  0  0  0  0  0  0  0
   23.7652    3.6595   32.2064 C   0  0  0  0  0  0  0  0  0  0  0  0
 22 23  1  0  0  0
 23 24  2  0  0  0
 23 28  1  0  0  0
 24 25  1  0  0  0
 25 26  2  0  0  0
 26 27  1  0  0  0
 26 21  1  0  0  0
 27 28  2  0  0  0
 21  1  1  0  0  0
  1  2  1  0  0  0
  1  5  1  0  0  0
  2  3  2  0  0  0
  2 10  1  0  0  0
  3  4  1  0  0  0
  3  6  1  0  0  0
  4  5  2  0  0  0
  5 14  1  0  0  0
 14 15  1  0  0  0
 14 19  1  0  0  0
 15 16  1  0  0  0
 16 17  1  0  0  0
 17 18  1  0  0  0
 18 19  1  0  0  0
  6  7  1  0  0  0
  6 12  1  0  0  0
  7  8  2  0  0  0
  7  9  1  0  0  0
  9 10  1  0  0  0
 10 11  2  0  0  0
 17 20  1  0  0  0
  9 13  1  0  0  0
M  END
> <minimizedAffinity>
-7.72738

$$$$
1940


 30 33  0  0  0  0  0  0  0  0999 V2000
   23.3982   10.7858   31.8700 C   0  0  0  0  0  0  0  0  0  0  0  0
   23.8004    9.9807   30.7097 N   0  0  0  0  0  0  0  0  0  0  0  0
   22.8821   10.3129   29.6844 C   0  0  0  0  0  0  0  0  0  0  0  0
   22.5143    9.5739   28.7407 O   0  0  0  0  0  0  0  0  0  0  0  0
   22.4386   11.6967   29.9380 C   0  0  0  0  0  0  0  0  0  0  0  0
   21.6267   12.3772   29.2708 O   0  0  0  0  0  0  0  0  0  0  0  0
   23.1534   12.0970   31.1420 C   0  0  0  0  0  0  0  0  0  0  0  0
   23.4991   13.2887   31.4861 C   0  0  0  0  0  0  0  0  0  0  0  0
   24.1977   13.5220   32.6693 O   0  0  0  0  0  0  0  0  0  0  0  0
   17.9882    8.9657   33.8175 Cl  0  0  0  0  0  0  0  0  0  0  0  0
   19.5416    9.5390   33.2642 C   0  0  0  0  0  0  0  0  0  0  0  0
   19.8439   10.8802   33.1659 C   0  0  0  0  0  0  0  0  0  0  0  0
   21.0929   11.2642   32.7181 C   0  0  0  0  0  0  0  0  0  0  0  0
   22.0632   10.3623   32.3610 C   0  0  0  0  0  0  0  0  0  0  0  0
   21.7401    9.0092   32.4666 C   0  0  0  0  0  0  0  0  0  0  0  0
   20.4963    8.6195   32.9124 C   0  0  0  0  0  0  0  0  0  0  0  0
   23.1666   14.4347   30.6456 C   0  0  0  0  0  0  0  0  0  0  0  0
   23.5500   14.7800   29.4682 O   0  0  0  0  0  0  0  0  0  0  0  0
   22.9892   15.8970   29.1028 C   0  0  0  0  0  0  0  0  0  0  0  0
   22.1655   16.3391   30.1064 C   0  0  0  0  0  0  0  0  0  0  0  0
   22.2705   15.4098   31.1035 C   0  0  0  0  0  0  0  0  0  0  0  0
   24.9098    9.0390   30.6597 C   0  0  0  0  0  0  0  0  0  0  0  0
   24.5255    7.6197   30.9424 C   0  0  0  0  0  0  0  0  0  0  0  0
   24.0207    6.8738   29.8412 N   0  0  0  0  0  0  0  0  0  0  0  0
   24.7914    5.7492   29.4175 C   0  0  0  0  0  0  0  0  0  0  0  0
   24.8936    4.6554   30.4559 C   0  0  0  0  0  0  0  0  0  0  0  0
   23.6307    4.2185   30.8410 O   0  0  0  0  0  0  0  0  0  0  0  0
   22.7997    5.2730   31.2049 C   0  0  0  0  0  0  0  0  0  0  0  0
   22.6794    6.3303   30.1386 C   0  0  0  0  0  0  0  0  0  0  0  0
   23.9258    7.5178   29.0255 H   0  0  0  0  0  0  0  0  0  0  0  0
 10 11  1  0  0  0
 11 12  2  0  0  0
 11 16  1  0  0  0
 12 13  1  0  0  0
 13 14  2  0  0  0
 14 15  1  0  0  0
 14  1  1  0  0  0
 15 16  2  0  0  0
  1  2  1  0  0  0
  1  7  1  0  0  0
  2  3  1  0  0  0
  2 22  1  0  0  0
  3  4  2  0  0  0
  3  5  1  0  0  0
  5  6  2  0  0  0
  5  7  1  0  0  0
  7  8  2  0  0  0
  8  9  1  0  0  0
  8 17  1  0  0  0
 17 18  1  0  0  0
 17 21  2  0  0  0
 18 19  1  0  0  0
 19 20  2  0  0  0
 20 21  1  0  0  0
 22 23  1  0  0  0
 23 24  1  0  0  0
 24 25  1  0  0  0
 24 29  1  0  0  0
 25 26  1  0  0  0
 26 27  1  0  0  0
 27 28  1  0  0  0
 28 29  1  0  0  0
 24 30  1  0  0  0
M  CHG 1   9  -1
M  CHG 1  24   1
M  END
> <minimizedAffinity>
-7.85444

$$$$
1941


 22 25  0  0  0  0  0  0  0  0999 V2000
   24.8771    6.7294   29.6449 N   0  0  0  0  0  0  0  0  0  0  0  0
   23.5092    7.0087   29.9769 C   0  0  0  0  0  0  0  0  0  0  0  0
   22.5386    6.4158   29.3908 O   0  0  0  0  0  0  0  0  0  0  0  0
   23.4599    8.0280   31.0374 C   0  0  0  0  0  0  0  0  0  0  0  0
   24.8188    8.6791   30.9447 C   0  0  0  0  0  0  0  0  0  0  0  0
   24.6431   10.1301   30.5525 C   0  0  0  0  0  0  0  0  0  0  0  0
   23.9566   10.7958   31.7543 C   0  0  0  0  0  0  0  0  0  0  0  0
   22.6087   10.1414   31.8517 C   0  0  0  0  0  0  0  0  0  0  0  0
   21.8036   10.5202   32.6590 O   0  0  0  0  0  0  0  0  0  0  0  0
   22.3477    9.0099   30.8957 C   0  0  0  0  0  0  0  0  0  0  0  0
   22.3675    9.6425   29.4996 C   0  0  0  0  0  0  0  0  0  0  0  0
   23.7212   10.2869   29.3749 C   0  0  0  0  0  0  0  0  0  0  0  0
   24.0113   10.8854   28.3759 O   0  0  0  0  0  0  0  0  0  0  0  0
   25.6115    7.8922   30.0015 C   0  0  0  0  0  0  0  0  0  0  0  0
   26.7503    8.1933   29.5781 O   0  0  0  0  0  0  0  0  0  0  0  0
   27.1025    1.6341   27.3823 Cl  0  0  0  0  0  0  0  0  0  0  0  0
   26.4528    3.1327   28.0371 C   0  0  0  0  0  0  0  0  0  0  0  0
   25.9666    3.2006   29.3194 C   0  0  0  0  0  0  0  0  0  0  0  0
   25.4599    4.3766   29.8241 C   0  0  0  0  0  0  0  0  0  0  0  0
   25.4123    5.5394   29.0779 C   0  0  0  0  0  0  0  0  0  0  0  0
   25.9051    5.4516   27.7947 C   0  0  0  0  0  0  0  0  0  0  0  0
   26.4155    4.2863   27.2710 C   0  0  0  0  0  0  0  0  0  0  0  0
 16 17  1  0  0  0
 17 18  2  0  0  0
 17 22  1  0  0  0
 18 19  1  0  0  0
 19 20  2  0  0  0
 20 21  1  0  0  0
 20  1  1  0  0  0
 21 22  2  0  0  0
  1  2  1  0  0  0
  1 14  1  0  0  0
  2  3  2  0  0  0
  2  4  1  0  0  0
  4  5  1  0  0  0
  4 10  1  0  0  0
  5  6  1  0  0  0
  5 14  1  0  0  0
  6  7  1  0  0  0
  6 12  1  0  0  0
  7  8  1  0  0  0
  8  9  2  0  0  0
  8 10  1  0  0  0
 10 11  1  0  0  0
 11 12  1  0  0  0
 12 13  2  0  0  0
 14 15  2  0  0  0
M  END
> <minimizedAffinity>
-7.11849

$$$$
1943


 34 38  0  0  0  0  0  0  0  0999 V2000
   21.8271    7.1436   30.9242 N   0  0  0  0  0  0  0  0  0  0  0  0
   22.5462    5.8913   30.8945 C   0  0  0  0  0  0  0  0  0  0  0  0
   22.3078    4.9017   31.5927 O   0  0  0  0  0  0  0  0  0  0  0  0
   23.6190    5.9652   29.8940 C   0  0  0  0  0  0  0  0  0  0  0  0
   24.9712    5.4690   30.3478 C   0  0  0  0  0  0  0  0  0  0  0  0
   25.7041    6.5989   30.8661 N   0  0  0  0  0  0  0  0  0  0  0  0
   24.7386    7.6667   31.0339 C   0  0  0  0  0  0  0  0  0  0  0  0
   23.8566    7.4554   29.8199 C   0  0  0  0  0  0  0  0  0  0  0  0
   22.4934    7.9951   29.9773 C   0  0  0  0  0  0  0  0  0  0  0  0
   22.0720    8.9880   29.3786 O   0  0  0  0  0  0  0  0  0  0  0  0
   25.6145    4.9156   29.1060 C   0  0  0  0  0  0  0  0  0  0  0  0
   25.6797    3.5581   29.2450 C   0  0  0  0  0  0  0  0  0  0  0  0
   26.1773    2.7340   28.2234 C   0  0  0  0  0  0  0  0  0  0  0  0
   26.6205    3.2884   27.0408 C   0  0  0  0  0  0  0  0  0  0  0  0
   26.5585    4.6491   26.9015 C   0  0  0  0  0  0  0  0  0  0  0  0
   26.0655    5.4449   27.9145 C   0  0  0  0  0  0  0  0  0  0  0  0
   25.2674    3.1588   30.5421 N   0  0  0  0  0  0  0  0  0  0  0  0
   24.9323    4.3397   31.2547 C   0  0  0  0  0  0  0  0  0  0  0  0
   24.6583    4.3510   32.4733 O   0  0  0  0  0  0  0  0  0  0  0  0
   26.1241    6.3125   31.7821 H   0  0  0  0  0  0  0  0  0  0  0  0
   25.2192    2.1605   30.9125 H   0  0  0  0  0  0  0  0  0  0  0  0
   17.0148    8.6030   34.1369 Cl  0  0  0  0  0  0  0  0  0  0  0  0
   18.4315    8.1668   33.1980 C   0  0  0  0  0  0  0  0  0  0  0  0
   19.4664    9.0608   33.0680 C   0  0  0  0  0  0  0  0  0  0  0  0
   20.5800    8.7071   32.3149 C   0  0  0  0  0  0  0  0  0  0  0  0
   20.7087    7.4995   31.6854 C   0  0  0  0  0  0  0  0  0  0  0  0
   19.6591    6.6261   31.8345 C   0  0  0  0  0  0  0  0  0  0  0  0
   18.5262    6.9550   32.5860 C   0  0  0  0  0  0  0  0  0  0  0  0
   25.3824    9.0283   31.0115 C   0  0  0  0  0  0  0  0  0  0  0  0
   26.0756    9.3439   29.7664 C   0  0  0  0  0  0  0  0  0  0  0  0
   25.6137   10.1939   28.9816 O   0  0  0  0  0  0  0  0  0  0  0  0
   27.2827    8.6820   29.4417 N   0  0  0  0  0  0  0  0  0  0  0  0
   27.7094    7.9144   30.0145 H   0  0  0  0  0  0  0  0  0  0  0  0
   27.8530    8.9180   28.5779 H   0  0  0  0  0  0  0  0  0  0  0  0
 22 23  1  0  0  0
 23 24  2  0  0  0
 23 28  1  0  0  0
 24 25  1  0  0  0
 25 26  2  0  0  0
 26 27  1  0  0  0
 26  1  1  0  0  0
 27 28  2  0  0  0
  1  2  1  0  0  0
  1  9  1  0  0  0
  2  3  2  0  0  0
  2  4  1  0  0  0
  4  5  1  0  0  0
  4  8  1  0  0  0
  5  6  1  0  0  0
  5 11  1  0  0  0
  5 18  1  0  0  0
  6  7  1  0  0  0
  7  8  1  0  0  0
  7 29  1  0  0  0
  8  9  1  0  0  0
  9 10  2  0  0  0
 29 30  1  0  0  0
 30 31  2  0  0  0
 30 32  1  0  0  0
 11 12  1  0  0  0
 11 16  2  0  0  0
 12 13  2  0  0  0
 12 17  1  0  0  0
 13 14  1  0  0  0
 14 15  2  0  0  0
 15 16  1  0  0  0
 17 18  1  0  0  0
 18 19  2  0  0  0
  6 20  1  0  0  0
 32 33  1  0  0  0
 32 34  1  0  0  0
 17 21  1  0  0  0
M  END
> <minimizedAffinity>
-8.61183

$$$$
1945


 24 27  0  0  0  0  0  0  0  0999 V2000
   24.8785    5.6304   29.9165 Cl  0  0  0  0  0  0  0  0  0  0  0  0
   23.3789    6.1481   30.6607 C   0  0  0  0  0  0  0  0  0  0  0  0
   23.2044    7.4314   31.1256 C   0  0  0  0  0  0  0  0  0  0  0  0
   22.0034    7.8310   31.7180 C   0  0  0  0  0  0  0  0  0  0  0  0
   20.9830    6.8978   31.8262 C   0  0  0  0  0  0  0  0  0  0  0  0
   21.1421    5.6124   31.3662 C   0  0  0  0  0  0  0  0  0  0  0  0
   22.3263    5.2322   30.7884 C   0  0  0  0  0  0  0  0  0  0  0  0
   19.6983    7.2741   32.4426 C   0  0  0  0  0  0  0  0  0  0  0  0
   18.6097    6.6191   32.6631 N   0  0  0  0  0  0  0  0  0  0  0  0
   17.6037    7.4220   33.3026 C   0  0  0  0  0  0  0  0  0  0  0  0
   18.2511    8.7625   33.4646 C   0  0  0  0  0  0  0  0  0  0  0  0
   19.5665    8.6042   32.9043 N   0  0  0  0  0  0  0  0  0  0  0  0
   20.6314    9.5381   32.7786 C   0  0  0  0  0  0  0  0  0  0  0  0
   20.5336   10.7310   33.1834 O   0  0  0  0  0  0  0  0  0  0  0  0
   21.8868    9.1729   32.1770 N   0  0  0  0  0  0  0  0  0  0  0  0
   22.9634   10.1466   32.0586 C   0  0  0  0  0  0  0  0  0  0  0  0
   22.6093   11.2214   31.1036 C   0  0  0  0  0  0  0  0  0  0  0  0
   22.6440   10.9587   29.8767 O   0  0  0  0  0  0  0  0  0  0  0  0
   22.2342   12.5245   31.5092 N   0  0  0  0  0  0  0  0  0  0  0  0
   22.2092   12.7261   32.5292 H   0  0  0  0  0  0  0  0  0  0  0  0
   21.8930   13.5541   30.5575 C   0  0  0  0  0  0  0  0  0  0  0  0
   22.5225   14.8606   30.9626 C   0  0  0  0  0  0  0  0  0  0  0  0
   22.4249   15.3120   32.3769 C   0  0  0  0  0  0  0  0  0  0  0  0
   21.5936   15.9743   31.3454 C   0  0  0  0  0  0  0  0  0  0  0  0
  1  2  1  0  0  0
  2  3  2  0  0  0
  2  7  1  0  0  0
  3  4  1  0  0  0
  4  5  2  0  0  0
  4 15  1  0  0  0
  5  6  1  0  0  0
  5  8  1  0  0  0
  6  7  2  0  0  0
  8  9  2  0  0  0
  8 12  1  0  0  0
  9 10  1  0  0  0
 10 11  1  0  0  0
 11 12  1  0  0  0
 12 13  1  0  0  0
 13 14  2  0  0  0
 13 15  1  0  0  0
 15 16  1  0  0  0
 16 17  1  0  0  0
 17 18  2  0  0  0
 17 19  1  0  0  0
 19 21  1  0  0  0
 21 22  1  0  0  0
 22 23  1  0  0  0
 22 24  1  0  0  0
 23 24  1  0  0  0
 19 20  1  0  0  0
M  END
> <minimizedAffinity>
-8.22632

$$$$
1956


 35 38  0  0  0  0  0  0  0  0999 V2000
   26.3768    5.5011   28.0173 C   0  0  0  0  0  0  0  0  0  0  0  0
   25.9119    6.5184   28.7231 C   0  0  0  0  0  0  0  0  0  0  0  0
   24.4798    6.6949   29.1614 C   0  0  0  0  0  0  0  0  0  0  0  0
   24.3791    8.0557   29.6036 N   0  0  0  0  0  0  0  0  0  0  0  0
   25.6676    8.6394   29.7291 C   0  0  0  0  0  0  0  0  0  0  0  0
   25.9415    9.7479   30.2116 O   0  0  0  0  0  0  0  0  0  0  0  0
   26.6347    7.6663   29.1699 C   0  0  0  0  0  0  0  0  0  0  0  0
   27.8727    7.8548   29.1123 O   0  0  0  0  0  0  0  0  0  0  0  0
   25.4293    4.5153   27.6522 O   0  0  0  0  0  0  0  0  0  0  0  0
   32.0957    4.9393   26.1990 Cl  0  0  0  0  0  0  0  0  0  0  0  0
   30.4328    5.1257   26.7073 C   0  0  0  0  0  0  0  0  0  0  0  0
   29.4711    5.7116   25.9194 C   0  0  0  0  0  0  0  0  0  0  0  0
   28.1727    5.8346   26.3684 C   0  0  0  0  0  0  0  0  0  0  0  0
   27.7646    5.3797   27.6299 C   0  0  0  0  0  0  0  0  0  0  0  0
   28.7470    4.7967   28.3946 C   0  0  0  0  0  0  0  0  0  0  0  0
   30.0671    4.6703   27.9417 C   0  0  0  0  0  0  0  0  0  0  0  0
   24.2429    5.6960   30.2388 C   0  0  0  0  0  0  0  0  0  0  0  0
   22.9675    5.3518   30.5833 C   0  0  0  0  0  0  0  0  0  0  0  0
   22.7596    4.4247   31.5642 C   0  0  0  0  0  0  0  0  0  0  0  0
   23.8065    3.8192   32.2248 C   0  0  0  0  0  0  0  0  0  0  0  0
   25.0989    4.1668   31.8778 C   0  0  0  0  0  0  0  0  0  0  0  0
   25.3044    5.1085   30.8804 C   0  0  0  0  0  0  0  0  0  0  0  0
   23.5862    2.8761   33.2233 O   0  0  0  0  0  0  0  0  0  0  0  0
   24.2885    1.6275   33.1407 C   0  0  0  0  0  0  0  0  0  0  0  0
   25.0502    1.4072   34.4452 C   0  0  0  0  0  0  0  0  0  0  0  0
   24.2439    0.4108   35.2661 C   0  0  0  0  0  0  0  0  0  0  0  0
   23.1310    8.7612   29.8756 C   0  0  0  0  0  0  0  0  0  0  0  0
   22.8694    8.7738   31.3421 C   0  0  0  0  0  0  0  0  0  0  0  0
   21.4880    9.1866   31.6399 N   0  0  0  0  0  0  0  0  0  0  0  0
   21.5436   10.3839   32.4206 C   0  0  0  0  0  0  0  0  0  0  0  0
   20.2130   10.6765   33.1101 C   0  0  0  0  0  0  0  0  0  0  0  0
   19.9264    9.5486   33.9001 O   0  0  0  0  0  0  0  0  0  0  0  0
   19.6101    8.5176   33.0404 C   0  0  0  0  0  0  0  0  0  0  0  0
   20.8679    8.0718   32.3220 C   0  0  0  0  0  0  0  0  0  0  0  0
   20.9627    9.3788   30.7473 H   0  0  0  0  0  0  0  0  0  0  0  0
 10 11  1  0  0  0
 11 12  2  0  0  0
 11 16  1  0  0  0
 12 13  1  0  0  0
 13 14  2  0  0  0
 14 15  1  0  0  0
 14  1  1  0  0  0
 15 16  2  0  0  0
  1  2  2  0  0  0
  1  9  1  0  0  0
  2  3  1  0  0  0
  2  7  1  0  0  0
  3  4  1  0  0  0
  3 17  1  0  0  0
  4  5  1  0  0  0
  4 27  1  0  0  0
  5  6  2  0  0  0
  5  7  1  0  0  0
  7  8  2  0  0  0
 27 28  1  0  0  0
 28 29  1  0  0  0
 29 30  1  0  0  0
 29 34  1  0  0  0
 30 31  1  0  0  0
 31 32  1  0  0  0
 32 33  1  0  0  0
 33 34  1  0  0  0
 17 18  2  0  0  0
 17 22  1  0  0  0
 18 19  1  0  0  0
 19 20  2  0  0  0
 20 21  1  0  0  0
 20 23  1  0  0  0
 21 22  2  0  0  0
 23 24  1  0  0  0
 24 25  1  0  0  0
 25 26  1  0  0  0
 29 35  1  0  0  0
M  CHG 1   9  -1
M  CHG 1  29   1
M  END
> <minimizedAffinity>
-7.21300

$$$$
1957


 36 40  0  0  0  0  0  0  0  0999 V2000
   23.6338    6.4190   30.9449 C   0  0  0  0  0  0  0  0  0  0  0  0
   22.6306    6.7498   31.9488 N   0  0  0  0  0  0  0  0  0  0  0  0
   22.1073    8.0557   31.6005 C   0  0  0  0  0  0  0  0  0  0  0  0
   22.1718    8.0442   30.1006 C   0  0  0  0  0  0  0  0  0  0  0  0
   23.4210    7.2923   29.7660 C   0  0  0  0  0  0  0  0  0  0  0  0
   24.4832    8.3213   29.5941 C   0  0  0  0  0  0  0  0  0  0  0  0
   25.7203    8.1201   29.5609 O   0  0  0  0  0  0  0  0  0  0  0  0
   23.8045    9.5908   29.4732 N   0  0  0  0  0  0  0  0  0  0  0  0
   22.4105    9.3643   29.4916 C   0  0  0  0  0  0  0  0  0  0  0  0
   21.5115   10.1335   29.0720 O   0  0  0  0  0  0  0  0  0  0  0  0
   20.7196    8.2473   32.0879 C   0  0  0  0  0  0  0  0  0  0  0  0
   20.7530    9.3011   32.9701 C   0  0  0  0  0  0  0  0  0  0  0  0
   19.5725    9.7015   33.5811 C   0  0  0  0  0  0  0  0  0  0  0  0
   18.4053    9.0367   33.2881 C   0  0  0  0  0  0  0  0  0  0  0  0
   18.3609    7.9751   32.4004 C   0  0  0  0  0  0  0  0  0  0  0  0
   19.5411    7.5873   31.8014 C   0  0  0  0  0  0  0  0  0  0  0  0
   22.0891    9.8185   33.1061 N   0  0  0  0  0  0  0  0  0  0  0  0
   22.9308    9.0495   32.2665 C   0  0  0  0  0  0  0  0  0  0  0  0
   24.1540    9.2337   32.1574 O   0  0  0  0  0  0  0  0  0  0  0  0
   23.0416    6.7380   32.8884 H   0  0  0  0  0  0  0  0  0  0  0  0
   22.3292   10.6225   33.7298 H   0  0  0  0  0  0  0  0  0  0  0  0
   23.4698    4.9481   30.6710 C   0  0  0  0  0  0  0  0  0  0  0  0
   22.2060    4.4738   30.9086 O   0  0  0  0  0  0  0  0  0  0  0  0
   21.6002    4.8564   30.2235 H   0  0  0  0  0  0  0  0  0  0  0  0
   27.5335    1.5042   33.5798 Cl  0  0  0  0  0  0  0  0  0  0  0  0
   26.3623    2.5074   32.7406 C   0  0  0  0  0  0  0  0  0  0  0  0
   26.7428    3.4804   31.8370 C   0  0  0  0  0  0  0  0  0  0  0  0
   25.8204    4.2582   31.1873 C   0  0  0  0  0  0  0  0  0  0  0  0
   24.4526    4.1035   31.4077 C   0  0  0  0  0  0  0  0  0  0  0  0
   24.0617    3.1388   32.3036 C   0  0  0  0  0  0  0  0  0  0  0  0
   25.0070    2.3721   32.9421 C   0  0  0  0  0  0  0  0  0  0  0  0
   24.4517   10.8653   29.3660 C   0  0  0  0  0  0  0  0  0  0  0  0
   24.8448   11.5048   30.6445 C   0  0  0  0  0  0  0  0  0  0  0  0
   24.0246   12.6620   31.0957 C   0  0  0  0  0  0  0  0  0  0  0  0
   22.7066   12.3269   31.3764 O   0  0  0  0  0  0  0  0  0  0  0  0
   21.8457   13.2361   30.7265 C   0  0  0  0  0  0  0  0  0  0  0  0
 25 26  1  0  0  0
 26 27  2  0  0  0
 26 31  1  0  0  0
 27 28  1  0  0  0
 28 29  2  0  0  0
 29 30  1  0  0  0
 29 22  1  0  0  0
 30 31  2  0  0  0
 22 23  1  0  0  0
 22  1  1  0  0  0
  1  2  1  0  0  0
  1  5  1  0  0  0
  2  3  1  0  0  0
  3  4  1  0  0  0
  3 11  1  0  0  0
  3 18  1  0  0  0
  4  5  1  0  0  0
  4  9  1  0  0  0
  5  6  1  0  0  0
  6  7  2  0  0  0
  6  8  1  0  0  0
  8  9  1  0  0  0
  8 32  1  0  0  0
  9 10  2  0  0  0
 32 33  1  0  0  0
 33 34  1  0  0  0
 34 35  1  0  0  0
 35 36  1  0  0  0
 11 12  1  0  0  0
 11 16  2  0  0  0
 12 13  2  0  0  0
 12 17  1  0  0  0
 13 14  1  0  0  0
 14 15  2  0  0  0
 15 16  1  0  0  0
 17 18  1  0  0  0
 18 19  2  0  0  0
 23 24  1  0  0  0
  2 20  1  0  0  0
 17 21  1  0  0  0
M  END
> <minimizedAffinity>
-8.51685

$$$$
1958


 28 31  0  0  0  0  0  0  0  0999 V2000
   23.5811    8.7826   30.1125 C   0  0  0  0  0  0  0  0  0  0  0  0
   24.5430    9.3268   29.4674 O   0  0  0  0  0  0  0  0  0  0  0  0
   23.1381    9.2849   31.3444 N   0  0  0  0  0  0  0  0  0  0  0  0
   22.0649    8.6826   32.0697 C   0  0  0  0  0  0  0  0  0  0  0  0
   21.3184    9.6260   32.9704 C   0  0  0  0  0  0  0  0  0  0  0  0
   21.4616   11.0189   32.4824 C   0  0  0  0  0  0  0  0  0  0  0  0
   22.6598   11.4638   31.9555 C   0  0  0  0  0  0  0  0  0  0  0  0
   22.8008   12.7202   31.5183 N   0  0  0  0  0  0  0  0  0  0  0  0
   21.7993   13.6245   31.5601 C   0  0  0  0  0  0  0  0  0  0  0  0
   20.6230   13.1930   32.0753 N   0  0  0  0  0  0  0  0  0  0  0  0
   20.4328   11.9416   32.5273 C   0  0  0  0  0  0  0  0  0  0  0  0
   19.2144   11.5319   33.0494 O   0  0  0  0  0  0  0  0  0  0  0  0
   23.7735   10.4446   31.9056 C   0  0  0  0  0  0  0  0  0  0  0  0
   18.3706   11.4654   32.4743 H   0  0  0  0  0  0  0  0  0  0  0  0
   21.9985   14.9321   31.0852 N   0  0  0  0  0  0  0  0  0  0  0  0
   21.2656   16.0312   31.6399 C   0  0  0  0  0  0  0  0  0  0  0  0
   22.0953   17.2904   31.3500 C   0  0  0  0  0  0  0  0  0  0  0  0
   22.2236   17.5001   29.9998 O   0  0  0  0  0  0  0  0  0  0  0  0
   22.5834   16.4123   29.2516 C   0  0  0  0  0  0  0  0  0  0  0  0
   22.9410   15.1796   30.0351 C   0  0  0  0  0  0  0  0  0  0  0  0
   22.9506    7.5782   29.4829 C   0  0  0  0  0  0  0  0  0  0  0  0
   24.4262    2.5957   32.5456 Cl  0  0  0  0  0  0  0  0  0  0  0  0
   23.9874    4.0390   31.6585 C   0  0  0  0  0  0  0  0  0  0  0  0
   22.6510    4.3707   31.4604 C   0  0  0  0  0  0  0  0  0  0  0  0
   22.3185    5.5101   30.7602 C   0  0  0  0  0  0  0  0  0  0  0  0
   23.2726    6.3540   30.2334 C   0  0  0  0  0  0  0  0  0  0  0  0
   24.5983    6.0322   30.4256 C   0  0  0  0  0  0  0  0  0  0  0  0
   24.9324    4.8947   31.1255 C   0  0  0  0  0  0  0  0  0  0  0  0
 22 23  1  0  0  0
 23 24  2  0  0  0
 23 28  1  0  0  0
 24 25  1  0  0  0
 25 26  2  0  0  0
 26 27  1  0  0  0
 26 21  1  0  0  0
 27 28  2  0  0  0
 21  1  1  0  0  0
  1  2  2  0  0  0
  1  3  1  0  0  0
  3  4  1  0  0  0
  3 13  1  0  0  0
  4  5  1  0  0  0
  5  6  1  0  0  0
  6  7  2  0  0  0
  6 11  1  0  0  0
  7  8  1  0  0  0
  7 13  1  0  0  0
  8  9  2  0  0  0
  9 10  1  0  0  0
  9 15  1  0  0  0
 10 11  2  0  0  0
 11 12  1  0  0  0
 15 16  1  0  0  0
 15 20  1  0  0  0
 16 17  1  0  0  0
 17 18  1  0  0  0
 18 19  1  0  0  0
 19 20  1  0  0  0
 12 14  1  0  0  0
M  END
> <minimizedAffinity>
-8.71251

$$$$
1960


 28 31  0  0  0  0  0  0  0  0999 V2000
   24.1607    8.7216   29.9564 C   0  0  0  0  0  0  0  0  0  0  0  0
   23.3492    8.2023   29.1456 O   0  0  0  0  0  0  0  0  0  0  0  0
   24.2742   10.1204   29.9920 N   0  0  0  0  0  0  0  0  0  0  0  0
   23.4657   10.9717   29.1017 C   0  0  0  0  0  0  0  0  0  0  0  0
   23.0536   12.2118   29.8802 C   0  0  0  0  0  0  0  0  0  0  0  0
   23.0167   11.8318   31.2782 N   0  0  0  0  0  0  0  0  0  0  0  0
   24.3132   11.6294   31.9022 C   0  0  0  0  0  0  0  0  0  0  0  0
   25.1636   10.8561   30.8797 C   0  0  0  0  0  0  0  0  0  0  0  0
   21.7955   11.6561   31.9790 C   0  0  0  0  0  0  0  0  0  0  0  0
   21.0702   12.7576   32.3945 C   0  0  0  0  0  0  0  0  0  0  0  0
   19.9053   12.5603   33.0781 N   0  0  0  0  0  0  0  0  0  0  0  0
   19.4355   11.3618   33.3645 N   0  0  0  0  0  0  0  0  0  0  0  0
   20.1015   10.2281   32.9835 C   0  0  0  0  0  0  0  0  0  0  0  0
   21.2631   10.4300   32.3015 C   0  0  0  0  0  0  0  0  0  0  0  0
   19.5430    8.9767   33.3255 N   0  0  0  0  0  0  0  0  0  0  0  0
   20.3604    7.7782   33.3569 C   0  0  0  0  0  0  0  0  0  0  0  0
   19.6343    6.6178   32.6749 C   0  0  0  0  0  0  0  0  0  0  0  0
   18.3262    6.5131   33.1043 O   0  0  0  0  0  0  0  0  0  0  0  0
   17.6601    7.6724   32.7372 C   0  0  0  0  0  0  0  0  0  0  0  0
   18.1509    8.8076   33.6532 C   0  0  0  0  0  0  0  0  0  0  0  0
   24.9387    7.8109   30.8178 C   0  0  0  0  0  0  0  0  0  0  0  0
   26.3881    2.7555   27.8646 Cl  0  0  0  0  0  0  0  0  0  0  0  0
   25.9654    4.2066   28.7207 C   0  0  0  0  0  0  0  0  0  0  0  0
   26.4032    5.4538   28.2721 C   0  0  0  0  0  0  0  0  0  0  0  0
   26.0632    6.6048   28.9590 C   0  0  0  0  0  0  0  0  0  0  0  0
   25.2795    6.5487   30.1087 C   0  0  0  0  0  0  0  0  0  0  0  0
   24.8488    5.3289   30.5519 C   0  0  0  0  0  0  0  0  0  0  0  0
   25.1921    4.1693   29.8574 C   0  0  0  0  0  0  0  0  0  0  0  0
 22 23  1  0  0  0
 23 24  2  0  0  0
 23 28  1  0  0  0
 24 25  1  0  0  0
 25 26  2  0  0  0
 26 27  1  0  0  0
 26 21  1  0  0  0
 27 28  2  0  0  0
 21  1  1  0  0  0
  1  2  2  0  0  0
  1  3  1  0  0  0
  3  4  1  0  0  0
  3  8  1  0  0  0
  4  5  1  0  0  0
  5  6  1  0  0  0
  6  7  1  0  0  0
  6  9  1  0  0  0
  7  8  1  0  0  0
  9 10  2  0  0  0
  9 14  1  0  0  0
 10 11  1  0  0  0
 11 12  2  0  0  0
 12 13  1  0  0  0
 13 14  2  0  0  0
 13 15  1  0  0  0
 15 16  1  0  0  0
 15 20  1  0  0  0
 16 17  1  0  0  0
 17 18  1  0  0  0
 18 19  1  0  0  0
 19 20  1  0  0  0
M  END
> <minimizedAffinity>
-8.12448

$$$$
1966


 27 30  0  0  0  0  0  0  0  0999 V2000
   19.3140    9.6396   33.3031 C   0  0  0  0  0  0  0  0  0  0  0  0
   18.1787    9.1097   33.6196 O   0  0  0  0  0  0  0  0  0  0  0  0
   19.6358   10.9561   33.5171 N   0  0  0  0  0  0  0  0  0  0  0  0
   18.4014   11.1848   34.0583 H   0  0  0  0  0  0  0  0  0  0  0  0
   22.2842    9.8592   32.3389 F   0  0  0  0  0  0  0  0  0  0  0  0
   21.5081    8.7498   32.2735 C   0  0  0  0  0  0  0  0  0  0  0  0
   21.9696    7.5702   31.7565 N   0  0  0  0  0  0  0  0  0  0  0  0
   20.9395    6.7146   31.8518 C   0  0  0  0  0  0  0  0  0  0  0  0
   19.8885    7.3425   32.4038 N   0  0  0  0  0  0  0  0  0  0  0  0
   20.2047    8.6219   32.6834 C   0  0  0  0  0  0  0  0  0  0  0  0
   21.1403    5.4357   31.3929 C   0  0  0  0  0  0  0  0  0  0  0  0
   22.3552    5.0171   30.8469 C   0  0  0  0  0  0  0  0  0  0  0  0
   23.3830    5.9182   30.7668 C   0  0  0  0  0  0  0  0  0  0  0  0
   23.1539    7.2063   31.2374 C   0  0  0  0  0  0  0  0  0  0  0  0
   24.9463    5.4572   30.0935 Cl  0  0  0  0  0  0  0  0  0  0  0  0
   19.9551   12.2651   33.7290 C   0  0  0  0  0  0  0  0  0  0  0  0
   19.3746   13.2463   32.7417 C   0  0  0  0  0  0  0  0  0  0  0  0
   20.0158   13.7706   31.6942 N   0  0  0  0  0  0  0  0  0  0  0  0
   19.1759   14.5795   31.0710 N   0  0  0  0  0  0  0  0  0  0  0  0
   18.0153   14.5864   31.6903 N   0  0  0  0  0  0  0  0  0  0  0  0
   18.1473   13.7566   32.7255 N   0  0  0  0  0  0  0  0  0  0  0  0
   21.3696   13.4457   31.3729 C   0  0  0  0  0  0  0  0  0  0  0  0
   21.5974   12.4508   30.4281 C   0  0  0  0  0  0  0  0  0  0  0  0
   22.8898   12.0747   30.0836 C   0  0  0  0  0  0  0  0  0  0  0  0
   23.9873   12.6746   30.6674 C   0  0  0  0  0  0  0  0  0  0  0  0
   23.7538   13.6602   31.6026 C   0  0  0  0  0  0  0  0  0  0  0  0
   22.4682   14.0366   31.9484 C   0  0  0  0  0  0  0  0  0  0  0  0
  5  6  1  0  0  0
  6  7  1  0  0  0
  6 10  2  0  0  0
  7  8  1  0  0  0
  7 14  1  0  0  0
  8  9  2  0  0  0
  8 11  1  0  0  0
  9 10  1  0  0  0
 10  1  1  0  0  0
  1  2  2  0  0  0
  1  3  1  0  0  0
  3 16  1  0  0  0
 16 17  1  0  0  0
 17 18  1  0  0  0
 17 21  2  0  0  0
 18 19  1  0  0  0
 18 22  1  0  0  0
 19 20  2  0  0  0
 20 21  1  0  0  0
 22 23  2  0  0  0
 22 27  1  0  0  0
 23 24  1  0  0  0
 24 25  2  0  0  0
 25 26  1  0  0  0
 26 27  2  0  0  0
 11 12  2  0  0  0
 12 13  1  0  0  0
 13 14  2  0  0  0
 13 15  1  0  0  0
  3  4  1  0  0  0
M  END
> <minimizedAffinity>
-8.96581

$$$$
1969


 26 29  0  0  0  0  0  0  0  0999 V2000
   23.1996   12.9369   31.4142 C   0  0  0  0  0  0  0  0  0  0  0  0
   24.3280   13.2280   32.1743 O   0  0  0  0  0  0  0  0  0  0  0  0
   22.2598   13.9031   31.5478 N   0  0  0  0  0  0  0  0  0  0  0  0
   20.9946   14.1030   30.9055 C   0  0  0  0  0  0  0  0  0  0  0  0
   20.6447   15.6053   30.9279 C   0  0  0  0  0  0  0  0  0  0  0  0
   21.9519   16.2710   30.8367 N   0  0  0  0  0  0  0  0  0  0  0  0
   22.8219   16.2321   31.9650 C   0  0  0  0  0  0  0  0  0  0  0  0
   22.5500   14.9135   32.6149 C   0  0  0  0  0  0  0  0  0  0  0  0
   22.3584   16.8187   29.6254 C   0  0  0  0  0  0  0  0  0  0  0  0
   23.2034   16.1112   28.7627 N   0  0  0  0  0  0  0  0  0  0  0  0
   23.6170   16.5123   27.6125 C   0  0  0  0  0  0  0  0  0  0  0  0
   23.2348   17.7526   27.0783 C   0  0  0  0  0  0  0  0  0  0  0  0
   22.4015   18.4654   27.9305 C   0  0  0  0  0  0  0  0  0  0  0  0
   22.0279   18.0131   29.0680 N   0  0  0  0  0  0  0  0  0  0  0  0
   22.4885    9.5241   31.1964 N   0  0  0  0  0  0  0  0  0  0  0  0
   23.4893    9.4991   30.3427 N   0  0  0  0  0  0  0  0  0  0  0  0
   23.8713   10.6194   30.2786 N   0  0  0  0  0  0  0  0  0  0  0  0
   23.5652   11.6746   30.7968 C   0  0  0  0  0  0  0  0  0  0  0  0
   22.3868   10.7647   31.5932 C   0  0  0  0  0  0  0  0  0  0  0  0
   18.3269    6.9524   33.0886 Cl  0  0  0  0  0  0  0  0  0  0  0  0
   19.8983    7.0786   32.3624 C   0  0  0  0  0  0  0  0  0  0  0  0
   20.5330    8.2825   32.0845 C   0  0  0  0  0  0  0  0  0  0  0  0
   21.7635    8.3170   31.5261 C   0  0  0  0  0  0  0  0  0  0  0  0
   22.3508    7.0991   31.2484 C   0  0  0  0  0  0  0  0  0  0  0  0
   21.7825    5.8956   31.4965 C   0  0  0  0  0  0  0  0  0  0  0  0
   20.5542    5.8418   32.0586 C   0  0  0  0  0  0  0  0  0  0  0  0
 20 21  1  0  0  0
 21 22  2  0  0  0
 21 26  1  0  0  0
 22 23  1  0  0  0
 23 24  2  0  0  0
 23 15  1  0  0  0
 24 25  1  0  0  0
 25 26  2  0  0  0
 15 16  1  0  0  0
 15 19  1  0  0  0
 16 17  2  0  0  0
 17 18  1  0  0  0
 18 19  2  0  0  0
 18  1  1  0  0  0
  1  2  2  0  0  0
  1  3  1  0  0  0
  3  4  1  0  0  0
  3  8  1  0  0  0
  4  5  1  0  0  0
  5  6  1  0  0  0
  6  7  1  0  0  0
  6  9  1  0  0  0
  7  8  1  0  0  0
  9 10  2  0  0  0
  9 14  1  0  0  0
 10 11  1  0  0  0
 11 12  2  0  0  0
 12 13  1  0  0  0
 13 14  2  0  0  0
M  END
> <minimizedAffinity>
-9.11927

$$$$
1971


 22 25  0  0  0  0  0  0  0  0999 V2000
   22.3272    9.4328   31.9951 N   0  0  0  0  0  0  0  0  0  0  0  0
   22.3369   10.8688   31.8904 C   0  0  0  0  0  0  0  0  0  0  0  0
   21.3114   11.5899   31.8921 O   0  0  0  0  0  0  0  0  0  0  0  0
   23.7131   11.3456   31.7828 C   0  0  0  0  0  0  0  0  0  0  0  0
   24.1112   11.8485   30.4346 C   0  0  0  0  0  0  0  0  0  0  0  0
   25.5087   11.6138   30.4839 O   0  0  0  0  0  0  0  0  0  0  0  0
   25.4304   10.2063   30.6456 C   0  0  0  0  0  0  0  0  0  0  0  0
   24.6119   10.1048   31.9089 C   0  0  0  0  0  0  0  0  0  0  0  0
   23.6682    8.9882   31.8238 C   0  0  0  0  0  0  0  0  0  0  0  0
   23.9784    7.7877   31.6280 O   0  0  0  0  0  0  0  0  0  0  0  0
   24.5538    9.8514   29.5098 C   0  0  0  0  0  0  0  0  0  0  0  0
   23.7336   10.9152   29.3500 C   0  0  0  0  0  0  0  0  0  0  0  0
   17.5078    8.7603   33.8064 Cl  0  0  0  0  0  0  0  0  0  0  0  0
   18.9734    8.1849   33.0425 C   0  0  0  0  0  0  0  0  0  0  0  0
   20.0499    9.0181   32.8247 C   0  0  0  0  0  0  0  0  0  0  0  0
   21.2161    8.5742   32.2217 C   0  0  0  0  0  0  0  0  0  0  0  0
   21.2568    7.2474   31.8417 C   0  0  0  0  0  0  0  0  0  0  0  0
   20.1727    6.4073   32.0606 C   0  0  0  0  0  0  0  0  0  0  0  0
   19.0159    6.8585   32.6633 C   0  0  0  0  0  0  0  0  0  0  0  0
   23.7966   13.2783   30.1703 C   0  0  0  0  0  0  0  0  0  0  0  0
   22.5903   13.3666   29.4874 O   0  0  0  0  0  0  0  0  0  0  0  0
   22.2329   12.4667   29.3064 H   0  0  0  0  0  0  0  0  0  0  0  0
 13 14  1  0  0  0
 14 15  2  0  0  0
 14 19  1  0  0  0
 15 16  1  0  0  0
 16 17  2  0  0  0
 16  1  1  0  0  0
 17 18  1  0  0  0
 18 19  2  0  0  0
  1  2  1  0  0  0
  1  9  1  0  0  0
  2  3  2  0  0  0
  2  4  1  0  0  0
  4  5  1  0  0  0
  4  8  1  0  0  0
  5  6  1  0  0  0
  5 12  1  0  0  0
  5 20  1  0  0  0
  6  7  1  0  0  0
  7  8  1  0  0  0
  7 11  1  0  0  0
  8  9  1  0  0  0
  9 10  2  0  0  0
 11 12  2  0  0  0
 20 21  1  0  0  0
 21 22  1  0  0  0
M  END
> <minimizedAffinity>
-8.61884

$$$$
1973


 24 27  0  0  0  0  0  0  0  0999 V2000
   27.2799    2.1378   29.9472 Cl  0  0  0  0  0  0  0  0  0  0  0  0
   25.9454    3.1267   30.5388 C   0  0  0  0  0  0  0  0  0  0  0  0
   25.5721    4.2994   29.9152 C   0  0  0  0  0  0  0  0  0  0  0  0
   24.5496    5.0723   30.3541 N   0  0  0  0  0  0  0  0  0  0  0  0
   23.8278    4.7378   31.4399 C   0  0  0  0  0  0  0  0  0  0  0  0
   22.7992    5.5002   31.8954 N   0  0  0  0  0  0  0  0  0  0  0  0
   22.4289    6.6450   31.2934 C   0  0  0  0  0  0  0  0  0  0  0  0
   23.1651    7.0052   30.1694 C   0  0  0  0  0  0  0  0  0  0  0  0
   22.7577    8.2699   29.5033 C   0  0  0  0  0  0  0  0  0  0  0  0
   22.5726    9.2360   30.5922 N   0  0  0  0  0  0  0  0  0  0  0  0
   21.5569    8.9524   31.5664 C   0  0  0  0  0  0  0  0  0  0  0  0
   21.3054    7.4863   31.7794 C   0  0  0  0  0  0  0  0  0  0  0  0
   23.3768   10.3943   30.6706 C   0  0  0  0  0  0  0  0  0  0  0  0
   24.2627   10.5460   29.7629 O   0  0  0  0  0  0  0  0  0  0  0  0
   24.2025    6.2125   29.7304 C   0  0  0  0  0  0  0  0  0  0  0  0
   24.8609    6.5645   28.6987 O   0  0  0  0  0  0  0  0  0  0  0  0
   24.1872    3.5638   32.0813 C   0  0  0  0  0  0  0  0  0  0  0  0
   25.2233    2.7595   31.6542 C   0  0  0  0  0  0  0  0  0  0  0  0
   23.2268   11.4071   31.7390 C   0  0  0  0  0  0  0  0  0  0  0  0
   21.9366   12.1868   31.6114 C   0  0  0  0  0  0  0  0  0  0  0  0
   21.7772   12.4825   30.1257 C   0  0  0  0  0  0  0  0  0  0  0  0
   23.0168   12.7729   29.5584 O   0  0  0  0  0  0  0  0  0  0  0  0
   23.8694   13.3951   30.4805 C   0  0  0  0  0  0  0  0  0  0  0  0
   24.3477   12.4418   31.5593 C   0  0  0  0  0  0  0  0  0  0  0  0
  1  2  1  0  0  0
  2  3  2  0  0  0
  2 18  1  0  0  0
  3  4  1  0  0  0
  4  5  1  0  0  0
  4 15  1  0  0  0
  5  6  2  0  0  0
  5 17  1  0  0  0
  6  7  1  0  0  0
  7  8  2  0  0  0
  7 12  1  0  0  0
  8  9  1  0  0  0
  8 15  1  0  0  0
  9 10  1  0  0  0
 10 11  1  0  0  0
 10 13  1  0  0  0
 11 12  1  0  0  0
 13 14  2  0  0  0
 13 19  1  0  0  0
 19 20  1  0  0  0
 19 24  1  0  0  0
 20 21  1  0  0  0
 21 22  1  0  0  0
 22 23  1  0  0  0
 23 24  1  0  0  0
 15 16  2  0  0  0
 17 18  2  0  0  0
M  END
> <minimizedAffinity>
-7.82626

$$$$
1974


 26 29  0  0  0  0  0  0  0  0999 V2000
   20.7614    8.9034   31.2928 F   0  0  0  0  0  0  0  0  0  0  0  0
   21.3215    7.6832   31.4732 C   0  0  0  0  0  0  0  0  0  0  0  0
   22.5565    7.4327   30.8946 C   0  0  0  0  0  0  0  0  0  0  0  0
   23.1864    6.2157   31.0349 C   0  0  0  0  0  0  0  0  0  0  0  0
   22.5419    5.2410   31.7775 C   0  0  0  0  0  0  0  0  0  0  0  0
   21.3173    5.4879   32.3523 C   0  0  0  0  0  0  0  0  0  0  0  0
   20.6936    6.7054   32.2082 C   0  0  0  0  0  0  0  0  0  0  0  0
   23.3400    3.6888   31.9592 Cl  0  0  0  0  0  0  0  0  0  0  0  0
   24.4584    6.1985   30.3425 C   0  0  0  0  0  0  0  0  0  0  0  0
   25.2885    5.2648   30.2595 O   0  0  0  0  0  0  0  0  0  0  0  0
   24.5904    7.5198   29.7420 C   0  0  0  0  0  0  0  0  0  0  0  0
   25.5760    7.9138   29.0434 O   0  0  0  0  0  0  0  0  0  0  0  0
   23.4266    8.2542   30.0879 N   0  0  0  0  0  0  0  0  0  0  0  0
   23.1150    9.6177   29.7115 C   0  0  0  0  0  0  0  0  0  0  0  0
   24.0312   10.5907   30.2679 N   0  0  0  0  0  0  0  0  0  0  0  0
   24.3455   11.6002   29.3160 C   0  0  0  0  0  0  0  0  0  0  0  0
   24.3432   12.9955   29.8333 C   0  0  0  0  0  0  0  0  0  0  0  0
   23.2917   13.2602   30.7804 N   0  0  0  0  0  0  0  0  0  0  0  0
   22.6302   12.1397   31.4073 C   0  0  0  0  0  0  0  0  0  0  0  0
   23.6713   11.0521   31.5656 C   0  0  0  0  0  0  0  0  0  0  0  0
   22.8875   14.5719   31.1172 C   0  0  0  0  0  0  0  0  0  0  0  0
   22.8352   14.9814   32.3956 N   0  0  0  0  0  0  0  0  0  0  0  0
   22.4527   16.2260   32.7424 C   0  0  0  0  0  0  0  0  0  0  0  0
   22.0938   17.1426   31.7727 C   0  0  0  0  0  0  0  0  0  0  0  0
   22.1449   16.7395   30.4929 N   0  0  0  0  0  0  0  0  0  0  0  0
   22.5266   15.4960   30.1447 C   0  0  0  0  0  0  0  0  0  0  0  0
  1  2  1  0  0  0
  2  3  2  0  0  0
  2  7  1  0  0  0
  3  4  1  0  0  0
  3 13  1  0  0  0
  4  5  2  0  0  0
  4  9  1  0  0  0
  5  6  1  0  0  0
  5  8  1  0  0  0
  6  7  2  0  0  0
  9 10  2  0  0  0
  9 11  1  0  0  0
 11 12  2  0  0  0
 11 13  1  0  0  0
 13 14  1  0  0  0
 14 15  1  0  0  0
 15 16  1  0  0  0
 15 20  1  0  0  0
 16 17  1  0  0  0
 17 18  1  0  0  0
 18 19  1  0  0  0
 18 21  1  0  0  0
 19 20  1  0  0  0
 21 22  2  0  0  0
 21 26  1  0  0  0
 22 23  1  0  0  0
 23 24  2  0  0  0
 24 25  1  0  0  0
 25 26  2  0  0  0
M  END
> <minimizedAffinity>
-8.40692

$$$$
1976


 26 29  0  0  0  0  0  0  0  0999 V2000
   24.1641   11.3563   30.3328 C   0  0  0  0  0  0  0  0  0  0  0  0
   24.4214   10.7280   29.2476 O   0  0  0  0  0  0  0  0  0  0  0  0
   23.7945   12.7271   30.3326 N   0  0  0  0  0  0  0  0  0  0  0  0
   23.5162   13.3716   31.5675 C   0  0  0  0  0  0  0  0  0  0  0  0
   22.1922   14.1317   31.4183 C   0  0  0  0  0  0  0  0  0  0  0  0
   22.5219   15.1668   30.3638 C   0  0  0  0  0  0  0  0  0  0  0  0
   23.2689   14.7980   29.2642 C   0  0  0  0  0  0  0  0  0  0  0  0
   23.5651   15.7490   28.3329 N   0  0  0  0  0  0  0  0  0  0  0  0
   23.1598   17.0238   28.4435 C   0  0  0  0  0  0  0  0  0  0  0  0
   22.4329   17.3661   29.5220 N   0  0  0  0  0  0  0  0  0  0  0  0
   22.1027   16.4598   30.4894 C   0  0  0  0  0  0  0  0  0  0  0  0
   21.3553   16.8093   31.5994 O   0  0  0  0  0  0  0  0  0  0  0  0
   23.7301   13.4076   29.0835 C   0  0  0  0  0  0  0  0  0  0  0  0
   20.4258   16.4166   31.6898 H   0  0  0  0  0  0  0  0  0  0  0  0
   24.2680   10.5832   31.6122 C   0  0  0  0  0  0  0  0  0  0  0  0
   24.6789    7.7169   30.7972 Cl  0  0  0  0  0  0  0  0  0  0  0  0
   23.1662    8.3228   31.4172 C   0  0  0  0  0  0  0  0  0  0  0  0
   22.0624    7.4987   31.5696 C   0  0  0  0  0  0  0  0  0  0  0  0
   20.8558    7.9634   32.0589 C   0  0  0  0  0  0  0  0  0  0  0  0
   20.7755    9.2997   32.4025 C   0  0  0  0  0  0  0  0  0  0  0  0
   21.8862   10.1070   32.2441 C   0  0  0  0  0  0  0  0  0  0  0  0
   23.1014    9.6602   31.7559 C   0  0  0  0  0  0  0  0  0  0  0  0
   19.5716    9.7624   32.8917 O   0  0  0  0  0  0  0  0  0  0  0  0
   18.5476    8.9477   33.4253 C   0  0  0  0  0  0  0  0  0  0  0  0
   18.6613    7.5068   33.0728 C   0  0  0  0  0  0  0  0  0  0  0  0
   19.7348    7.1900   32.2287 O   0  0  0  0  0  0  0  0  0  0  0  0
 16 17  1  0  0  0
 17 18  2  0  0  0
 17 22  1  0  0  0
 18 19  1  0  0  0
 19 20  2  0  0  0
 19 26  1  0  0  0
 20 21  1  0  0  0
 20 23  1  0  0  0
 21 22  2  0  0  0
 22 15  1  0  0  0
 15  1  1  0  0  0
  1  2  2  0  0  0
  1  3  1  0  0  0
  3  4  1  0  0  0
  3 13  1  0  0  0
  4  5  1  0  0  0
  5  6  1  0  0  0
  6  7  2  0  0  0
  6 11  1  0  0  0
  7  8  1  0  0  0
  7 13  1  0  0  0
  8  9  2  0  0  0
  9 10  1  0  0  0
 10 11  2  0  0  0
 11 12  1  0  0  0
 23 24  1  0  0  0
 24 25  1  0  0  0
 25 26  1  0  0  0
 12 14  1  0  0  0
M  END
> <minimizedAffinity>
-9.72471

$$$$
1982


 25 28  0  0  0  0  0  0  0  0999 V2000
   17.3328    8.7433   33.6694 Cl  0  0  0  0  0  0  0  0  0  0  0  0
   18.8107    8.0952   32.9909 C   0  0  0  0  0  0  0  0  0  0  0  0
   19.8984    8.8854   32.6824 C   0  0  0  0  0  0  0  0  0  0  0  0
   21.0689    8.3882   32.1464 C   0  0  0  0  0  0  0  0  0  0  0  0
   21.1375    7.0278   31.9140 C   0  0  0  0  0  0  0  0  0  0  0  0
   20.0566    6.2269   32.2189 C   0  0  0  0  0  0  0  0  0  0  0  0
   18.8861    6.7248   32.7542 C   0  0  0  0  0  0  0  0  0  0  0  0
   22.3826    6.4717   31.3410 C   0  0  0  0  0  0  0  0  0  0  0  0
   22.7004    5.2842   31.0370 N   0  0  0  0  0  0  0  0  0  0  0  0
   24.0365    5.1634   30.4928 C   0  0  0  0  0  0  0  0  0  0  0  0
   24.5762    6.5561   30.4906 C   0  0  0  0  0  0  0  0  0  0  0  0
   23.4767    7.3266   31.0394 N   0  0  0  0  0  0  0  0  0  0  0  0
   23.3239    8.7200   31.3103 C   0  0  0  0  0  0  0  0  0  0  0  0
   24.1736    9.7472   31.1313 N   0  0  0  0  0  0  0  0  0  0  0  0
   23.6259   10.8864   31.5186 N   0  0  0  0  0  0  0  0  0  0  0  0
   22.3870   10.5505   31.9550 C   0  0  0  0  0  0  0  0  0  0  0  0
   21.5701   11.3847   32.4018 O   0  0  0  0  0  0  0  0  0  0  0  0
   22.1797    9.2286   31.8371 N   0  0  0  0  0  0  0  0  0  0  0  0
   24.2239   12.2072   31.4826 C   0  0  0  0  0  0  0  0  0  0  0  0
   24.0577   12.7981   30.0755 C   0  0  0  0  0  0  0  0  0  0  0  0
   22.8214   13.6172   30.0091 C   0  0  0  0  0  0  0  0  0  0  0  0
   22.7471   14.8196   30.3666 O   0  0  0  0  0  0  0  0  0  0  0  0
   21.6450   13.0023   29.5093 N   0  0  0  0  0  0  0  0  0  0  0  0
   21.3860   12.0179   29.7033 H   0  0  0  0  0  0  0  0  0  0  0  0
   21.0124   13.5769   28.9149 H   0  0  0  0  0  0  0  0  0  0  0  0
  1  2  1  0  0  0
  2  3  2  0  0  0
  2  7  1  0  0  0
  3  4  1  0  0  0
  4  5  2  0  0  0
  4 18  1  0  0  0
  5  6  1  0  0  0
  5  8  1  0  0  0
  6  7  2  0  0  0
  8  9  2  0  0  0
  8 12  1  0  0  0
  9 10  1  0  0  0
 10 11  1  0  0  0
 11 12  1  0  0  0
 12 13  1  0  0  0
 13 14  2  0  0  0
 13 18  1  0  0  0
 14 15  1  0  0  0
 15 16  1  0  0  0
 15 19  1  0  0  0
 16 17  2  0  0  0
 16 18  1  0  0  0
 19 20  1  0  0  0
 20 21  1  0  0  0
 21 22  2  0  0  0
 21 23  1  0  0  0
 23 24  1  0  0  0
 23 25  1  0  0  0
M  END
> <minimizedAffinity>
-8.98597

$$$$
1986


 30 33  0  0  0  0  0  0  0  0999 V2000
   24.6097   14.1703   21.2493 Cl  0  0  0  0  0  0  0  0  0  0  0  0
   26.2206   14.5353   21.8425 C   0  0  0  0  0  0  0  0  0  0  0  0
   26.4331   14.8594   23.1674 C   0  0  0  0  0  0  0  0  0  0  0  0
   27.7186   15.1517   23.6416 C   0  0  0  0  0  0  0  0  0  0  0  0
   28.7394   15.0979   22.7278 C   0  0  0  0  0  0  0  0  0  0  0  0
   28.5192   14.7686   21.3832 C   0  0  0  0  0  0  0  0  0  0  0  0
   27.2511   14.4827   20.9267 C   0  0  0  0  0  0  0  0  0  0  0  0
   30.0268   15.3831   23.1739 O   0  0  0  0  0  0  0  0  0  0  0  0
   30.3194   15.7162   24.4853 C   0  0  0  0  0  0  0  0  0  0  0  0
   29.2862   15.7706   25.4076 C   0  0  0  0  0  0  0  0  0  0  0  0
   27.8860   15.4944   25.0674 C   0  0  0  0  0  0  0  0  0  0  0  0
   29.6285   16.1052   26.7027 C   0  0  0  0  0  0  0  0  0  0  0  0
   28.7224   16.1706   27.5931 O   0  0  0  0  0  0  0  0  0  0  0  0
   30.8783   16.3765   27.1101 N   0  0  0  0  0  0  0  0  0  0  0  0
   31.8559   16.3107   26.1736 C   0  0  0  0  0  0  0  0  0  0  0  0
   33.0217   16.5692   26.5774 O   0  0  0  0  0  0  0  0  0  0  0  0
   31.5688   15.9884   24.8990 N   0  0  0  0  0  0  0  0  0  0  0  0
   32.6691   15.9402   23.9572 C   0  0  0  0  0  0  0  0  0  0  0  0
   31.1868   16.7244   28.4974 C   0  0  0  0  0  0  0  0  0  0  0  0
   27.3904   14.3513   25.9020 C   0  0  0  0  0  0  0  0  0  0  0  0
   26.2805   14.4925   26.7057 C   0  0  0  0  0  0  0  0  0  0  0  0
   25.8416   13.4482   27.4600 N   0  0  0  0  0  0  0  0  0  0  0  0
   26.4914   12.2577   27.4308 C   0  0  0  0  0  0  0  0  0  0  0  0
   26.0559   11.3111   28.1447 O   0  0  0  0  0  0  0  0  0  0  0  0
   27.5759   12.0903   26.6576 N   0  0  0  0  0  0  0  0  0  0  0  0
   28.0147   13.1199   25.9092 C   0  0  0  0  0  0  0  0  0  0  0  0
   29.0171   12.9497   25.2006 O   0  0  0  0  0  0  0  0  0  0  0  0
   28.2515   10.7964   26.6510 C   0  0  0  0  0  0  0  0  0  0  0  0
   24.6590   13.6607   28.2884 C   0  0  0  0  0  0  0  0  0  0  0  0
   25.6225   15.6903   26.7377 O   0  0  0  0  0  0  0  0  0  0  0  0
  1  2  1  0  0  0
  2  3  2  0  0  0
  2  7  1  0  0  0
  3  4  1  0  0  0
  4  5  2  0  0  0
  4 11  1  0  0  0
  5  6  1  0  0  0
  5  8  1  0  0  0
  6  7  2  0  0  0
  8  9  1  0  0  0
  9 10  2  0  0  0
  9 17  1  0  0  0
 10 11  1  0  0  0
 10 12  1  0  0  0
 11 20  1  0  0  0
 20 21  2  0  0  0
 20 26  1  0  0  0
 21 22  1  0  0  0
 21 30  1  0  0  0
 22 23  1  0  0  0
 22 29  1  0  0  0
 23 24  2  0  0  0
 23 25  1  0  0  0
 25 26  1  0  0  0
 25 28  1  0  0  0
 26 27  2  0  0  0
 12 13  2  0  0  0
 12 14  1  0  0  0
 14 15  1  0  0  0
 14 19  1  0  0  0
 15 16  2  0  0  0
 15 17  1  0  0  0
 17 18  1  0  0  0
M  CHG 1  30  -1
M  END
> <minimizedAffinity>
-6.72820

$$$$
1991


 31 34  0  0  0  0  0  0  0  0999 V2000
   18.1501    7.0059   33.2302 Cl  0  0  0  0  0  0  0  0  0  0  0  0
   19.7444    7.4986   32.7126 C   0  0  0  0  0  0  0  0  0  0  0  0
   20.3778    6.8644   31.6672 C   0  0  0  0  0  0  0  0  0  0  0  0
   21.6288    7.2637   31.2752 C   0  0  0  0  0  0  0  0  0  0  0  0
   22.2587    8.3210   31.9430 C   0  0  0  0  0  0  0  0  0  0  0  0
   21.6290    8.9645   32.9963 C   0  0  0  0  0  0  0  0  0  0  0  0
   20.3814    8.5357   33.3575 C   0  0  0  0  0  0  0  0  0  0  0  0
   23.5147    8.8406   31.6704 O   0  0  0  0  0  0  0  0  0  0  0  0
   24.2300    8.7782   30.4594 C   0  0  0  0  0  0  0  0  0  0  0  0
   24.6090    7.3802   30.0928 C   0  0  0  0  0  0  0  0  0  0  0  0
   23.6034    6.3893   30.3312 N   0  0  0  0  0  0  0  0  0  0  0  0
   22.1800    6.4861   30.1362 C   0  0  0  0  0  0  0  0  0  0  0  0
   24.0292    5.1130   30.8358 C   0  0  0  0  0  0  0  0  0  0  0  0
   23.1340    4.2549   31.0346 O   0  0  0  0  0  0  0  0  0  0  0  0
   23.4387    9.4774   29.3652 C   0  0  0  0  0  0  0  0  0  0  0  0
   23.8358   10.9407   29.2829 C   0  0  0  0  0  0  0  0  0  0  0  0
   25.1374   11.1118   28.8537 O   0  0  0  0  0  0  0  0  0  0  0  0
   25.9226   10.0184   29.2003 C   0  0  0  0  0  0  0  0  0  0  0  0
   25.5332    9.5700   30.5955 C   0  0  0  0  0  0  0  0  0  0  0  0
   25.4364    4.8238   31.1061 C   0  0  0  0  0  0  0  0  0  0  0  0
   25.9811    3.6335   30.5637 N   0  0  0  0  0  0  0  0  0  0  0  0
   27.4174    3.5192   30.8302 C   0  0  0  0  0  0  0  0  0  0  0  0
   28.1017    4.6701   30.1933 C   0  0  0  0  0  0  0  0  0  0  0  0
   27.7139    4.9826   28.7869 C   0  0  0  0  0  0  0  0  0  0  0  0
   26.4960    4.3324   28.2602 C   0  0  0  0  0  0  0  0  0  0  0  0
   25.7582    3.4119   29.1564 C   0  0  0  0  0  0  0  0  0  0  0  0
   27.6830    6.4453   28.5416 C   0  0  0  0  0  0  0  0  0  0  0  0
   27.0320    6.8898   27.5746 O   0  0  0  0  0  0  0  0  0  0  0  0
   28.3872    7.3201   29.3967 N   0  0  0  0  0  0  0  0  0  0  0  0
   27.7894    7.8830   30.0710 H   0  0  0  0  0  0  0  0  0  0  0  0
   29.4041    7.4596   29.4263 H   0  0  0  0  0  0  0  0  0  0  0  0
  1  2  1  0  0  0
  2  3  2  0  0  0
  2  7  1  0  0  0
  3  4  1  0  0  0
  4  5  2  0  0  0
  4 12  1  0  0  0
  5  6  1  0  0  0
  5  8  1  0  0  0
  6  7  2  0  0  0
  8  9  1  0  0  0
  9 10  1  0  0  0
  9 15  1  0  0  0
  9 19  1  0  0  0
 10 11  1  0  0  0
 11 12  1  0  0  0
 11 13  1  0  0  0
 13 14  2  0  0  0
 13 20  1  0  0  0
 20 21  1  0  0  0
 21 22  1  0  0  0
 21 26  1  0  0  0
 22 23  1  0  0  0
 23 24  1  0  0  0
 24 25  1  0  0  0
 24 27  1  0  0  0
 25 26  1  0  0  0
 27 28  2  0  0  0
 27 29  1  0  0  0
 15 16  1  0  0  0
 16 17  1  0  0  0
 17 18  1  0  0  0
 18 19  1  0  0  0
 29 30  1  0  0  0
 29 31  1  0  0  0
M  END
> <minimizedAffinity>
-7.61207

$$$$
2003


 28 31  0  0  0  0  0  0  0  0999 V2000
   25.7495    2.9073   32.2884 N   0  0  0  0  0  0  0  0  0  0  0  0
   24.3478    2.7291   32.5128 C   0  0  0  0  0  0  0  0  0  0  0  0
   23.5173    3.9014   32.0616 C   0  0  0  0  0  0  0  0  0  0  0  0
   24.0355    4.5122   30.8591 N   0  0  0  0  0  0  0  0  0  0  0  0
   25.1941    4.0276   30.1571 C   0  0  0  0  0  0  0  0  0  0  0  0
   26.1271    3.1946   30.9507 C   0  0  0  0  0  0  0  0  0  0  0  0
   23.3621    5.6519   30.3422 C   0  0  0  0  0  0  0  0  0  0  0  0
   23.7696    6.2363   29.2834 O   0  0  0  0  0  0  0  0  0  0  0  0
   22.1782    6.1925   31.0099 C   0  0  0  0  0  0  0  0  0  0  0  0
   21.0146    5.4711   31.1873 C   0  0  0  0  0  0  0  0  0  0  0  0
   19.9640    6.0336   31.8131 N   0  0  0  0  0  0  0  0  0  0  0  0
   19.9741    7.2909   32.2920 C   0  0  0  0  0  0  0  0  0  0  0  0
   21.1012    8.0072   32.1278 N   0  0  0  0  0  0  0  0  0  0  0  0
   21.1311    9.2690   32.6015 C   0  0  0  0  0  0  0  0  0  0  0  0
   20.0498    9.8400   33.2416 C   0  0  0  0  0  0  0  0  0  0  0  0
   18.8785    9.1308   33.4263 C   0  0  0  0  0  0  0  0  0  0  0  0
   18.8698    7.8377   32.9329 C   0  0  0  0  0  0  0  0  0  0  0  0
   22.1739    7.4805   31.5069 C   0  0  0  0  0  0  0  0  0  0  0  0
   23.2256    8.1486   31.3533 O   0  0  0  0  0  0  0  0  0  0  0  0
   26.7412    1.8018   33.1015 S   0  0  0  0  0  0  0  0  0  0  0  0
   27.3472    0.8322   32.1611 O   0  0  0  0  0  0  0  0  0  0  0  0
   27.8301    2.5651   33.8215 O   0  0  0  0  0  0  0  0  0  0  0  0
   25.7666    0.9439   34.3072 C   0  0  0  0  0  0  0  0  0  0  0  0
   24.8967   -0.5144   34.1585 S   0  0  0  0  0  0  0  0  0  0  0  0
   24.2675   -0.6161   35.7400 C   0  0  0  0  0  0  0  0  0  0  0  0
   24.7630    0.5068   36.3429 C   0  0  0  0  0  0  0  0  0  0  0  0
   25.5352    1.3126   35.6078 C   0  0  0  0  0  0  0  0  0  0  0  0
   23.2243   -1.8546   36.4680 Cl  0  0  0  0  0  0  0  0  0  0  0  0
 20 21  2  0  0  0
 20 22  2  0  0  0
 20  1  1  0  0  0
 20 23  1  0  0  0
  1  2  1  0  0  0
  1  6  1  0  0  0
  2  3  1  0  0  0
  3  4  1  0  0  0
  4  5  1  0  0  0
  4  7  1  0  0  0
  5  6  1  0  0  0
  7  8  2  0  0  0
  7  9  1  0  0  0
  9 10  2  0  0  0
  9 18  1  0  0  0
 10 11  1  0  0  0
 11 12  2  0  0  0
 12 13  1  0  0  0
 12 17  1  0  0  0
 13 14  1  0  0  0
 13 18  1  0  0  0
 14 15  2  0  0  0
 15 16  1  0  0  0
 16 17  2  0  0  0
 18 19  2  0  0  0
 23 24  1  0  0  0
 23 27  2  0  0  0
 24 25  1  0  0  0
 25 26  2  0  0  0
 25 28  1  0  0  0
 26 27  1  0  0  0
M  END
> <minimizedAffinity>
-8.61955

$$$$
2004


 29 32  0  0  0  0  0  0  0  0999 V2000
   24.2544   10.0258   31.0000 S   0  0  0  0  0  0  0  0  0  0  0  0
   24.9069    9.6620   32.3251 O   0  0  0  0  0  0  0  0  0  0  0  0
   23.6110    8.7201   30.5359 O   0  0  0  0  0  0  0  0  0  0  0  0
   22.9441   11.1391   31.3258 C   0  0  0  0  0  0  0  0  0  0  0  0
   23.0340   12.4541   30.8270 C   0  0  0  0  0  0  0  0  0  0  0  0
   22.0644   13.3922   31.0995 C   0  0  0  0  0  0  0  0  0  0  0  0
   20.9580   13.1110   31.8684 C   0  0  0  0  0  0  0  0  0  0  0  0
   20.8647   11.8307   32.3548 C   0  0  0  0  0  0  0  0  0  0  0  0
   21.8411   10.8599   32.0876 C   0  0  0  0  0  0  0  0  0  0  0  0
   21.6103    9.2326   32.6805 Cl  0  0  0  0  0  0  0  0  0  0  0  0
   19.9982   14.1221   32.1136 N   0  0  0  0  0  0  0  0  0  0  0  0
   20.1298   15.4388   31.5930 C   0  0  0  0  0  0  0  0  0  0  0  0
   19.2167   16.2855   31.5529 O   0  0  0  0  0  0  0  0  0  0  0  0
   21.4712   15.8016   31.0643 C   0  0  0  0  0  0  0  0  0  0  0  0
   22.1774   14.6873   30.5928 O   0  0  0  0  0  0  0  0  0  0  0  0
   22.3042   16.4736   32.1323 C   0  0  0  0  0  0  0  0  0  0  0  0
   19.1588   13.9021   32.6986 H   0  0  0  0  0  0  0  0  0  0  0  0
   25.3887   10.5109   29.8688 N   0  0  0  0  0  0  0  0  0  0  0  0
   24.9524   11.2563   28.7711 C   0  0  0  0  0  0  0  0  0  0  0  0
   26.1094   11.8634   27.9643 C   0  0  0  0  0  0  0  0  0  0  0  0
   27.2195   10.9625   27.8759 N   0  0  0  0  0  0  0  0  0  0  0  0
   27.6285   10.2671   29.0766 C   0  0  0  0  0  0  0  0  0  0  0  0
   26.4067    9.5271   29.5846 C   0  0  0  0  0  0  0  0  0  0  0  0
   27.8817   10.7684   26.6580 C   0  0  0  0  0  0  0  0  0  0  0  0
   27.5078   11.3833   25.6273 O   0  0  0  0  0  0  0  0  0  0  0  0
   29.0461    9.8382   26.5172 C   0  0  0  0  0  0  0  0  0  0  0  0
   29.5600    9.7211   25.1016 C   0  0  0  0  0  0  0  0  0  0  0  0
   28.6014    8.5465   24.9215 C   0  0  0  0  0  0  0  0  0  0  0  0
   28.6055    8.3979   26.4457 C   0  0  0  0  0  0  0  0  0  0  0  0
  1  2  2  0  0  0
  1  3  2  0  0  0
  1 18  1  0  0  0
  1  4  1  0  0  0
 18 19  1  0  0  0
 18 23  1  0  0  0
 19 20  1  0  0  0
 20 21  1  0  0  0
 21 22  1  0  0  0
 21 24  1  0  0  0
 22 23  1  0  0  0
 24 25  2  0  0  0
 24 26  1  0  0  0
 26 27  1  0  0  0
 26 29  1  0  0  0
 27 28  1  0  0  0
 28 29  1  0  0  0
  4  5  2  0  0  0
  4  9  1  0  0  0
  5  6  1  0  0  0
  6  7  2  0  0  0
  6 15  1  0  0  0
  7  8  1  0  0  0
  7 11  1  0  0  0
  8  9  2  0  0  0
  9 10  1  0  0  0
 11 12  1  0  0  0
 12 13  2  0  0  0
 12 14  1  0  0  0
 14 15  1  0  0  0
 14 16  1  0  0  0
 11 17  1  0  0  0
M  END
> <minimizedAffinity>
-8.14859

$$$$
2012


 25 28  0  0  0  0  0  0  0  0999 V2000
   22.4558    9.5013   31.2395 N   0  0  0  0  0  0  0  0  0  0  0  0
   23.5431    9.9158   30.4201 C   0  0  0  0  0  0  0  0  0  0  0  0
   23.9985    9.2566   29.4704 O   0  0  0  0  0  0  0  0  0  0  0  0
   24.0254   11.2284   30.8816 C   0  0  0  0  0  0  0  0  0  0  0  0
   24.4605   12.1144   29.9492 O   0  0  0  0  0  0  0  0  0  0  0  0
   24.0484   13.3266   30.4713 N   0  0  0  0  0  0  0  0  0  0  0  0
   22.7604   13.1396   31.0633 C   0  0  0  0  0  0  0  0  0  0  0  0
   22.7259   11.8369   31.3204 C   0  0  0  0  0  0  0  0  0  0  0  0
   21.9307   10.7245   31.8186 C   0  0  0  0  0  0  0  0  0  0  0  0
   20.9661   10.8581   32.6139 O   0  0  0  0  0  0  0  0  0  0  0  0
   24.6102   14.1921   30.4277 H   0  0  0  0  0  0  0  0  0  0  0  0
   22.8554    4.3253   31.2399 Cl  0  0  0  0  0  0  0  0  0  0  0  0
   22.0042    5.8395   31.5312 C   0  0  0  0  0  0  0  0  0  0  0  0
   22.6181    7.0571   31.2508 C   0  0  0  0  0  0  0  0  0  0  0  0
   21.9110    8.2118   31.4917 C   0  0  0  0  0  0  0  0  0  0  0  0
   20.6062    8.1636   32.0075 C   0  0  0  0  0  0  0  0  0  0  0  0
   20.0117    6.9682   32.2799 C   0  0  0  0  0  0  0  0  0  0  0  0
   20.7211    5.8043   32.0354 C   0  0  0  0  0  0  0  0  0  0  0  0
   21.7484   14.1316   31.3678 C   0  0  0  0  0  0  0  0  0  0  0  0
   20.4755   14.0838   30.7921 C   0  0  0  0  0  0  0  0  0  0  0  0
   19.7443   15.1192   31.2300 N   0  0  0  0  0  0  0  0  0  0  0  0
   20.5008   15.8323   32.0663 N   0  0  0  0  0  0  0  0  0  0  0  0
   21.7163   15.2445   32.1570 C   0  0  0  0  0  0  0  0  0  0  0  0
   22.8540   15.7374   32.9734 C   0  0  0  0  0  0  0  0  0  0  0  0
   18.3688   15.4779   30.9018 C   0  0  0  0  0  0  0  0  0  0  0  0
 12 13  1  0  0  0
 13 14  2  0  0  0
 13 18  1  0  0  0
 14 15  1  0  0  0
 15 16  2  0  0  0
 15  1  1  0  0  0
 16 17  1  0  0  0
 17 18  2  0  0  0
  1  2  1  0  0  0
  1  9  1  0  0  0
  2  3  2  0  0  0
  2  4  1  0  0  0
  4  5  1  0  0  0
  4  8  1  0  0  0
  5  6  1  0  0  0
  6  7  1  0  0  0
  7  8  2  0  0  0
  7 19  1  0  0  0
  8  9  1  0  0  0
  9 10  2  0  0  0
 19 20  2  0  0  0
 19 23  1  0  0  0
 20 21  1  0  0  0
 21 22  1  0  0  0
 21 25  1  0  0  0
 22 23  2  0  0  0
 23 24  1  0  0  0
  6 11  1  0  0  0
M  END
> <minimizedAffinity>
-9.79012

$$$$
2014


 26 29  0  0  0  0  0  0  0  0999 V2000
   21.1697    9.5756   32.1944 C   0  0  0  0  0  0  0  0  0  0  0  0
   21.6247   10.7289   31.7132 N   0  0  0  0  0  0  0  0  0  0  0  0
   21.0700   11.7706   32.3992 C   0  0  0  0  0  0  0  0  0  0  0  0
   20.2617   11.1963   33.3205 N   0  0  0  0  0  0  0  0  0  0  0  0
   20.3102    9.8966   33.2114 N   0  0  0  0  0  0  0  0  0  0  0  0
   21.5216   12.9424   31.9269 N   0  0  0  0  0  0  0  0  0  0  0  0
   22.3728   12.7073   30.9354 C   0  0  0  0  0  0  0  0  0  0  0  0
   22.4413   11.3108   30.7990 C   0  0  0  0  0  0  0  0  0  0  0  0
   23.2446   10.7772   29.8699 N   0  0  0  0  0  0  0  0  0  0  0  0
   23.9656   11.6237   29.0862 C   0  0  0  0  0  0  0  0  0  0  0  0
   24.7172   11.0898   28.2122 O   0  0  0  0  0  0  0  0  0  0  0  0
   23.9350   12.9508   29.1733 N   0  0  0  0  0  0  0  0  0  0  0  0
   23.1381   13.4865   30.0995 C   0  0  0  0  0  0  0  0  0  0  0  0
   23.0712   14.7364   30.2250 O   0  0  0  0  0  0  0  0  0  0  0  0
   24.7480   13.7981   28.2835 C   0  0  0  0  0  0  0  0  0  0  0  0
   23.3910    9.3607   29.7013 C   0  0  0  0  0  0  0  0  0  0  0  0
   21.1568   14.2616   32.4016 C   0  0  0  0  0  0  0  0  0  0  0  0
   24.7394    5.7836   31.0228 Br  0  0  0  0  0  0  0  0  0  0  0  0
   22.9589    6.4121   31.3614 C   0  0  0  0  0  0  0  0  0  0  0  0
   22.7234    7.7370   31.6069 C   0  0  0  0  0  0  0  0  0  0  0  0
   21.4264    8.1809   31.8511 C   0  0  0  0  0  0  0  0  0  0  0  0
   20.4275    7.2299   31.8298 C   0  0  0  0  0  0  0  0  0  0  0  0
   20.6735    5.9115   31.5836 C   0  0  0  0  0  0  0  0  0  0  0  0
   21.9586    5.4564   31.3391 C   0  0  0  0  0  0  0  0  0  0  0  0
   19.1219    7.7070   32.0810 O   0  0  0  0  0  0  0  0  0  0  0  0
   18.2311    6.9826   32.9089 C   0  0  0  0  0  0  0  0  0  0  0  0
 18 19  1  0  0  0
 19 20  2  0  0  0
 19 24  1  0  0  0
 20 21  1  0  0  0
 21 22  2  0  0  0
 21  1  1  0  0  0
 22 23  1  0  0  0
 22 25  1  0  0  0
 23 24  2  0  0  0
 25 26  1  0  0  0
  1  2  1  0  0  0
  1  5  2  0  0  0
  2  3  1  0  0  0
  2  8  1  0  0  0
  3  4  2  0  0  0
  3  6  1  0  0  0
  4  5  1  0  0  0
  6  7  1  0  0  0
  6 17  1  0  0  0
  7  8  2  0  0  0
  7 13  1  0  0  0
  8  9  1  0  0  0
  9 10  1  0  0  0
  9 16  1  0  0  0
 10 11  2  0  0  0
 10 12  1  0  0  0
 12 13  1  0  0  0
 12 15  1  0  0  0
 13 14  2  0  0  0
M  END
> <minimizedAffinity>
-9.06761

$$$$
2017


 24 27  0  0  0  0  0  0  0  0999 V2000
   26.8571    2.7075   30.8573 Cl  0  0  0  0  0  0  0  0  0  0  0  0
   25.5876    3.9156   30.9622 C   0  0  0  0  0  0  0  0  0  0  0  0
   25.6621    5.1261   30.3001 C   0  0  0  0  0  0  0  0  0  0  0  0
   24.6739    6.0544   30.3884 N   0  0  0  0  0  0  0  0  0  0  0  0
   23.5634    5.8601   31.1203 C   0  0  0  0  0  0  0  0  0  0  0  0
   22.5793    6.7737   31.2142 N   0  0  0  0  0  0  0  0  0  0  0  0
   22.6438    7.9546   30.5739 C   0  0  0  0  0  0  0  0  0  0  0  0
   23.7932    8.1650   29.8101 C   0  0  0  0  0  0  0  0  0  0  0  0
   24.7948    7.2224   29.7219 C   0  0  0  0  0  0  0  0  0  0  0  0
   25.8416    7.4199   29.0247 O   0  0  0  0  0  0  0  0  0  0  0  0
   23.4627    4.6511   31.7962 C   0  0  0  0  0  0  0  0  0  0  0  0
   24.4560    3.6956   31.7190 C   0  0  0  0  0  0  0  0  0  0  0  0
   21.5839    8.9936   30.6460 C   0  0  0  0  0  0  0  0  0  0  0  0
   21.4555    9.4379   31.9843 N   0  0  0  0  0  0  0  0  0  0  0  0
   20.2429    9.1633   32.6587 C   0  0  0  0  0  0  0  0  0  0  0  0
   19.8768   10.1788   33.7299 C   0  0  0  0  0  0  0  0  0  0  0  0
   20.0067   11.5135   33.0874 C   0  0  0  0  0  0  0  0  0  0  0  0
   21.1718   11.7288   32.3815 C   0  0  0  0  0  0  0  0  0  0  0  0
   21.3342   12.9183   31.7830 N   0  0  0  0  0  0  0  0  0  0  0  0
   20.3653   13.8803   31.8772 C   0  0  0  0  0  0  0  0  0  0  0  0
   19.2339   13.6321   32.5788 N   0  0  0  0  0  0  0  0  0  0  0  0
   19.0100   12.4549   33.2038 C   0  0  0  0  0  0  0  0  0  0  0  0
   20.5333   15.2014   31.2180 C   0  0  0  0  0  0  0  0  0  0  0  0
   22.1592   10.6228   32.3414 C   0  0  0  0  0  0  0  0  0  0  0  0
  1  2  1  0  0  0
  2  3  2  0  0  0
  2 12  1  0  0  0
  3  4  1  0  0  0
  4  5  1  0  0  0
  4  9  1  0  0  0
  5  6  2  0  0  0
  5 11  1  0  0  0
  6  7  1  0  0  0
  7  8  2  0  0  0
  7 13  1  0  0  0
  8  9  1  0  0  0
  9 10  2  0  0  0
 13 14  1  0  0  0
 14 15  1  0  0  0
 14 24  1  0  0  0
 15 16  1  0  0  0
 16 17  1  0  0  0
 17 18  2  0  0  0
 17 22  1  0  0  0
 18 19  1  0  0  0
 18 24  1  0  0  0
 19 20  2  0  0  0
 20 21  1  0  0  0
 20 23  1  0  0  0
 21 22  2  0  0  0
 11 12  2  0  0  0
M  END
> <minimizedAffinity>
-8.21278

$$$$
2020


 22 24  0  0  0  0  0  0  0  0999 V2000
   22.3701   10.6118   30.0128 C   0  0  0  0  0  0  0  0  0  0  0  0
   23.8124   10.1359   29.6844 C   0  0  0  0  0  0  0  0  0  0  0  0
   24.3190   10.0059   31.1338 C   0  0  0  0  0  0  0  0  0  0  0  0
   24.9098    9.0307   31.5608 O   0  0  0  0  0  0  0  0  0  0  0  0
   23.9949   11.1929   31.8933 N   0  0  0  0  0  0  0  0  0  0  0  0
   23.7005   12.3744   31.0615 C   0  0  0  0  0  0  0  0  0  0  0  0
   24.7885   12.3673   30.0737 N   0  0  0  0  0  0  0  0  0  0  0  0
   24.6765   11.2449   29.1760 C   0  0  0  0  0  0  0  0  0  0  0  0
   25.2454   11.1870   28.0705 O   0  0  0  0  0  0  0  0  0  0  0  0
   22.4235   12.0254   30.2500 C   0  0  0  0  0  0  0  0  0  0  0  0
   23.5622   13.6416   31.7832 C   0  0  0  0  0  0  0  0  0  0  0  0
   23.9504   11.2225   32.9153 H   0  0  0  0  0  0  0  0  0  0  0  0
   25.5285   13.0778   30.0442 H   0  0  0  0  0  0  0  0  0  0  0  0
   21.9477    5.4622   31.1388 Br  0  0  0  0  0  0  0  0  0  0  0  0
   21.6711    7.2919   31.5788 C   0  0  0  0  0  0  0  0  0  0  0  0
   22.1328    8.2939   30.7227 C   0  0  0  0  0  0  0  0  0  0  0  0
   21.9352    9.6489   31.0183 C   0  0  0  0  0  0  0  0  0  0  0  0
   21.2644    9.9185   32.1981 C   0  0  0  0  0  0  0  0  0  0  0  0
   20.8143    8.9103   33.0328 C   0  0  0  0  0  0  0  0  0  0  0  0
   21.0164    7.5931   32.7301 C   0  0  0  0  0  0  0  0  0  0  0  0
   21.0892   11.2439   32.4772 O   0  0  0  0  0  0  0  0  0  0  0  0
   20.0250   11.6528   33.2933 C   0  0  0  0  0  0  0  0  0  0  0  0
 14 15  1  0  0  0
 15 16  2  0  0  0
 15 20  1  0  0  0
 16 17  1  0  0  0
 17 18  2  0  0  0
 17  1  1  0  0  0
 18 19  1  0  0  0
 18 21  1  0  0  0
 19 20  2  0  0  0
 21 22  1  0  0  0
  1  2  1  0  0  0
  1 10  1  0  0  0
  2  3  1  0  0  0
  2  8  1  0  0  0
  3  4  2  0  0  0
  3  5  1  0  0  0
  5  6  1  0  0  0
  6  7  1  0  0  0
  6 10  1  0  0  0
  6 11  1  0  0  0
  7  8  1  0  0  0
  8  9  2  0  0  0
  5 12  1  0  0  0
  7 13  1  0  0  0
M  END
> <minimizedAffinity>
-7.77452

$$$$
2028


 31 34  0  0  0  0  0  0  0  0999 V2000
   23.7581    9.9529   31.2563 Cl  0  0  0  0  0  0  0  0  0  0  0  0
   23.5465    8.2317   30.9458 C   0  0  0  0  0  0  0  0  0  0  0  0
   24.6029    7.5356   30.3307 C   0  0  0  0  0  0  0  0  0  0  0  0
   24.4375    6.2028   30.0969 C   0  0  0  0  0  0  0  0  0  0  0  0
   23.2690    5.5374   30.4408 C   0  0  0  0  0  0  0  0  0  0  0  0
   22.2521    6.2454   31.0393 C   0  0  0  0  0  0  0  0  0  0  0  0
   22.3792    7.5917   31.2983 C   0  0  0  0  0  0  0  0  0  0  0  0
   20.9962    5.4993   31.4013 C   0  0  0  0  0  0  0  0  0  0  0  0
   25.7352    5.6857   29.5633 C   0  0  0  0  0  0  0  0  0  0  0  0
   25.6217    4.6977   28.5664 N   0  0  0  0  0  0  0  0  0  0  0  0
   25.5699    3.4318   29.2411 C   0  0  0  0  0  0  0  0  0  0  0  0
   25.9028    3.6257   30.6642 C   0  0  0  0  0  0  0  0  0  0  0  0
   26.5296    5.0222   30.6444 C   0  0  0  0  0  0  0  0  0  0  0  0
   27.8932    4.7062   30.2607 C   0  0  0  0  0  0  0  0  0  0  0  0
   28.7323    5.2686   29.5234 O   0  0  0  0  0  0  0  0  0  0  0  0
   28.1927    3.4653   30.9527 N   0  0  0  0  0  0  0  0  0  0  0  0
   26.9666    2.8057   31.2306 C   0  0  0  0  0  0  0  0  0  0  0  0
   26.8543    1.7345   31.8426 O   0  0  0  0  0  0  0  0  0  0  0  0
   26.4400    6.8994   29.1571 C   0  0  0  0  0  0  0  0  0  0  0  0
   27.4376    7.0710   28.3880 O   0  0  0  0  0  0  0  0  0  0  0  0
   25.8263    8.0052   29.7772 N   0  0  0  0  0  0  0  0  0  0  0  0
   24.7913    4.8362   27.9413 H   0  0  0  0  0  0  0  0  0  0  0  0
   26.1538    9.0014   29.8515 H   0  0  0  0  0  0  0  0  0  0  0  0
   26.3694    2.3637   28.5188 C   0  0  0  0  0  0  0  0  0  0  0  0
   25.7475    1.1569   28.3959 O   0  0  0  0  0  0  0  0  0  0  0  0
   26.9495    2.9417   27.2702 C   0  0  0  0  0  0  0  0  0  0  0  0
   25.8343    0.7358   27.5031 H   0  0  0  0  0  0  0  0  0  0  0  0
   29.4825    2.9493   31.3283 C   0  0  0  0  0  0  0  0  0  0  0  0
   30.0872    3.5479   32.5434 C   0  0  0  0  0  0  0  0  0  0  0  0
   29.2545    3.8955   33.5639 O   0  0  0  0  0  0  0  0  0  0  0  0
   28.9913    2.8949   34.4763 C   0  0  0  0  0  0  0  0  0  0  0  0
  1  2  1  0  0  0
  2  3  2  0  0  0
  2  7  1  0  0  0
  3  4  1  0  0  0
  3 21  1  0  0  0
  4  5  2  0  0  0
  4  9  1  0  0  0
  5  6  1  0  0  0
  6  7  2  0  0  0
  6  8  1  0  0  0
  9 10  1  0  0  0
  9 13  1  0  0  0
  9 19  1  0  0  0
 10 11  1  0  0  0
 11 12  1  0  0  0
 11 24  1  0  0  0
 12 13  1  0  0  0
 12 17  1  0  0  0
 13 14  1  0  0  0
 14 15  2  0  0  0
 14 16  1  0  0  0
 16 17  1  0  0  0
 16 28  1  0  0  0
 17 18  2  0  0  0
 28 29  1  0  0  0
 29 30  1  0  0  0
 30 31  1  0  0  0
 24 25  1  0  0  0
 24 26  1  0  0  0
 19 20  2  0  0  0
 19 21  1  0  0  0
 10 22  1  0  0  0
 25 27  1  0  0  0
 21 23  1  0  0  0
M  END
> <minimizedAffinity>
-6.22288

$$$$
2032


 31 34  0  0  0  0  0  0  0  0999 V2000
   21.9382    5.2472   31.7919 C   0  0  0  0  0  0  0  0  0  0  0  0
   21.5241    6.4451   32.0519 C   0  0  0  0  0  0  0  0  0  0  0  0
   22.2547    7.5975   31.9736 O   0  0  0  0  0  0  0  0  0  0  0  0
   21.4441    8.6749   32.3255 C   0  0  0  0  0  0  0  0  0  0  0  0
   20.1836    8.2846   32.6461 C   0  0  0  0  0  0  0  0  0  0  0  0
   19.2070    9.2183   33.0112 C   0  0  0  0  0  0  0  0  0  0  0  0
   19.4679   10.5625   33.0679 C   0  0  0  0  0  0  0  0  0  0  0  0
   20.7873   10.9163   32.7329 C   0  0  0  0  0  0  0  0  0  0  0  0
   21.7522   10.0395   32.3709 C   0  0  0  0  0  0  0  0  0  0  0  0
   21.0090   12.3067   32.8239 O   0  0  0  0  0  0  0  0  0  0  0  0
   20.1788    6.8265   32.4849 C   0  0  0  0  0  0  0  0  0  0  0  0
   19.1961    6.0539   32.6815 O   0  0  0  0  0  0  0  0  0  0  0  0
   25.8818    5.7239   28.2152 Br  0  0  0  0  0  0  0  0  0  0  0  0
   25.0881    4.9936   29.7768 C   0  0  0  0  0  0  0  0  0  0  0  0
   23.8168    5.3962   30.2237 C   0  0  0  0  0  0  0  0  0  0  0  0
   23.2716    4.8546   31.3586 C   0  0  0  0  0  0  0  0  0  0  0  0
   23.9762    3.9056   32.0622 C   0  0  0  0  0  0  0  0  0  0  0  0
   25.2437    3.5047   31.6136 C   0  0  0  0  0  0  0  0  0  0  0  0
   25.7841    4.0442   30.4915 C   0  0  0  0  0  0  0  0  0  0  0  0
   23.3855    3.4053   33.1707 O   0  0  0  0  0  0  0  0  0  0  0  0
   23.7516    2.2780   33.8889 C   0  0  0  0  0  0  0  0  0  0  0  0
   23.1495   10.4026   32.0686 C   0  0  0  0  0  0  0  0  0  0  0  0
   23.2318   11.3071   30.9464 N   0  0  0  0  0  0  0  0  0  0  0  0
   23.3800   10.5393   29.7230 C   0  0  0  0  0  0  0  0  0  0  0  0
   24.3046   11.1146   28.7358 C   0  0  0  0  0  0  0  0  0  0  0  0
   24.4063   12.5390   28.7199 N   0  0  0  0  0  0  0  0  0  0  0  0
   23.7929   13.2536   29.7450 C   0  0  0  0  0  0  0  0  0  0  0  0
   23.9446   12.4829   31.0832 C   0  0  0  0  0  0  0  0  0  0  0  0
   22.1642   11.6426   30.8809 H   0  0  0  0  0  0  0  0  0  0  0  0
   25.5613   13.0890   28.1191 C   0  0  0  0  0  0  0  0  0  0  0  0
   26.4412   12.1203   27.4105 C   0  0  0  0  0  0  0  0  0  0  0  0
 13 14  1  0  0  0
 14 15  2  0  0  0
 14 19  1  0  0  0
 15 16  1  0  0  0
 16 17  2  0  0  0
 16  1  1  0  0  0
 17 18  1  0  0  0
 17 20  1  0  0  0
 18 19  2  0  0  0
 20 21  1  0  0  0
  1  2  2  0  0  0
  2  3  1  0  0  0
  2 11  1  0  0  0
  3  4  1  0  0  0
  4  5  2  0  0  0
  4  9  1  0  0  0
  5  6  1  0  0  0
  5 11  1  0  0  0
  6  7  2  0  0  0
  7  8  1  0  0  0
  8  9  2  0  0  0
  8 10  1  0  0  0
  9 22  1  0  0  0
 22 23  1  0  0  0
 23 24  1  0  0  0
 23 28  1  0  0  0
 24 25  1  0  0  0
 25 26  1  0  0  0
 26 27  1  0  0  0
 26 30  1  0  0  0
 27 28  1  0  0  0
 30 31  1  0  0  0
 11 12  2  0  0  0
 23 29  1  0  0  0
M  CHG 1  10  -1
M  CHG 1  23   1
M  END
> <minimizedAffinity>
-8.87578

$$$$
2033


 29 32  0  0  0  0  0  0  0  0999 V2000
   21.5760    5.2072   32.0831 C   0  0  0  0  0  0  0  0  0  0  0  0
   21.1226    6.4090   32.3097 C   0  0  0  0  0  0  0  0  0  0  0  0
   21.8444    7.5734   32.0983 O   0  0  0  0  0  0  0  0  0  0  0  0
   21.1129    8.6995   32.4265 C   0  0  0  0  0  0  0  0  0  0  0  0
   19.8608    8.3482   32.8773 C   0  0  0  0  0  0  0  0  0  0  0  0
   18.9640    9.3230   33.2609 C   0  0  0  0  0  0  0  0  0  0  0  0
   19.3338   10.6494   33.1900 C   0  0  0  0  0  0  0  0  0  0  0  0
   20.6216   10.9823   32.7256 C   0  0  0  0  0  0  0  0  0  0  0  0
   21.5225   10.0377   32.3403 C   0  0  0  0  0  0  0  0  0  0  0  0
   20.8569   12.3663   32.7093 O   0  0  0  0  0  0  0  0  0  0  0  0
   19.8307    6.8831   32.8154 C   0  0  0  0  0  0  0  0  0  0  0  0
   18.8718    6.1471   33.1369 O   0  0  0  0  0  0  0  0  0  0  0  0
   25.4857    5.9586   28.4482 Br  0  0  0  0  0  0  0  0  0  0  0  0
   24.6844    5.1484   29.9746 C   0  0  0  0  0  0  0  0  0  0  0  0
   23.4537    5.4655   30.4730 C   0  0  0  0  0  0  0  0  0  0  0  0
   22.8951    4.8641   31.5794 C   0  0  0  0  0  0  0  0  0  0  0  0
   23.6531    3.8731   32.2106 C   0  0  0  0  0  0  0  0  0  0  0  0
   24.8924    3.5148   31.7563 C   0  0  0  0  0  0  0  0  0  0  0  0
   25.4043    4.1570   30.6350 C   0  0  0  0  0  0  0  0  0  0  0  0
   23.1138    3.2507   33.3196 O   0  0  0  0  0  0  0  0  0  0  0  0
   23.7970    2.1954   33.9434 C   0  0  0  0  0  0  0  0  0  0  0  0
   22.8404   10.3191   31.8411 C   0  0  0  0  0  0  0  0  0  0  0  0
   23.1900   10.1788   30.4871 N   0  0  0  0  0  0  0  0  0  0  0  0
   23.3957   11.4035   29.7627 C   0  0  0  0  0  0  0  0  0  0  0  0
   24.7651   12.0081   29.9506 C   0  0  0  0  0  0  0  0  0  0  0  0
   25.5430   11.3407   30.8867 O   0  0  0  0  0  0  0  0  0  0  0  0
   25.6628   10.0313   30.4337 C   0  0  0  0  0  0  0  0  0  0  0  0
   24.3638    9.3073   30.2972 C   0  0  0  0  0  0  0  0  0  0  0  0
   22.4412    9.6495   29.9947 H   0  0  0  0  0  0  0  0  0  0  0  0
 13 14  1  0  0  0
 14 15  2  0  0  0
 14 19  1  0  0  0
 15 16  1  0  0  0
 16 17  2  0  0  0
 16  1  1  0  0  0
 17 18  1  0  0  0
 17 20  1  0  0  0
 18 19  2  0  0  0
 20 21  1  0  0  0
  1  2  2  0  0  0
  2  3  1  0  0  0
  2 11  1  0  0  0
  3  4  1  0  0  0
  4  5  2  0  0  0
  4  9  1  0  0  0
  5  6  1  0  0  0
  5 11  1  0  0  0
  6  7  2  0  0  0
  7  8  1  0  0  0
  8  9  2  0  0  0
  8 10  1  0  0  0
  9 22  1  0  0  0
 22 23  1  0  0  0
 23 24  1  0  0  0
 23 28  1  0  0  0
 24 25  1  0  0  0
 25 26  1  0  0  0
 26 27  1  0  0  0
 27 28  1  0  0  0
 11 12  2  0  0  0
 23 29  1  0  0  0
M  CHG 1  10  -1
M  CHG 1  23   1
M  END
> <minimizedAffinity>
-9.27097

$$$$
2041


 30 33  0  0  0  0  0  0  0  0999 V2000
   23.2689    6.2984   29.7785 N   0  0  0  0  0  0  0  0  0  0  0  0
   24.4414    5.4561   29.6545 C   0  0  0  0  0  0  0  0  0  0  0  0
   25.4514    6.0901   28.7063 C   0  0  0  0  0  0  0  0  0  0  0  0
   25.8385    7.3835   29.2688 N   0  0  0  0  0  0  0  0  0  0  0  0
   25.0313    7.8333   30.3640 C   0  0  0  0  0  0  0  0  0  0  0  0
   23.5869    7.6816   29.9648 C   0  0  0  0  0  0  0  0  0  0  0  0
   26.9366    8.0621   28.7311 C   0  0  0  0  0  0  0  0  0  0  0  0
   27.5860    7.5171   27.7483 O   0  0  0  0  0  0  0  0  0  0  0  0
   22.2604    5.7208   31.0458 S   0  0  0  0  0  0  0  0  0  0  0  0
   21.3109    4.7208   30.4281 O   0  0  0  0  0  0  0  0  0  0  0  0
   23.0334    4.9988   32.0967 O   0  0  0  0  0  0  0  0  0  0  0  0
   21.3618    7.0549   31.7336 C   0  0  0  0  0  0  0  0  0  0  0  0
   21.9035    8.2864   32.0230 C   0  0  0  0  0  0  0  0  0  0  0  0
   21.1465    9.2931   32.5720 C   0  0  0  0  0  0  0  0  0  0  0  0
   19.7958    9.0809   32.8478 C   0  0  0  0  0  0  0  0  0  0  0  0
   19.2318    7.8334   32.5593 C   0  0  0  0  0  0  0  0  0  0  0  0
   20.0113    6.8400   32.0086 C   0  0  0  0  0  0  0  0  0  0  0  0
   18.8474   10.3679   33.5437 Cl  0  0  0  0  0  0  0  0  0  0  0  0
   27.4950    9.3576   29.1313 C   0  0  0  0  0  0  0  0  0  0  0  0
   26.5898   10.7751   28.5241 S   0  0  0  0  0  0  0  0  0  0  0  0
   25.4946   11.5119   29.7242 C   0  0  0  0  0  0  0  0  0  0  0  0
   25.3887   11.0224   30.9529 N   0  0  0  0  0  0  0  0  0  0  0  0
   24.5981   11.5476   31.8928 C   0  0  0  0  0  0  0  0  0  0  0  0
   23.8552   12.6511   31.5689 N   0  0  0  0  0  0  0  0  0  0  0  0
   23.9385   13.1687   30.3389 C   0  0  0  0  0  0  0  0  0  0  0  0
   23.3238   14.2481   29.7734 N   0  0  0  0  0  0  0  0  0  0  0  0
   23.7413   14.3576   28.5290 N   0  0  0  0  0  0  0  0  0  0  0  0
   24.6142   13.3887   28.2441 C   0  0  0  0  0  0  0  0  0  0  0  0
   24.7584   12.6214   29.3693 C   0  0  0  0  0  0  0  0  0  0  0  0
   22.3918   15.1160   30.4315 C   0  0  0  0  0  0  0  0  0  0  0  0
  9 10  2  0  0  0
  9 11  2  0  0  0
  9  1  1  0  0  0
  9 12  1  0  0  0
  1  2  1  0  0  0
  1  6  1  0  0  0
  2  3  1  0  0  0
  3  4  1  0  0  0
  4  5  1  0  0  0
  4  7  1  0  0  0
  5  6  1  0  0  0
  7  8  2  0  0  0
  7 19  1  0  0  0
 19 20  1  0  0  0
 20 21  1  0  0  0
 21 22  2  0  0  0
 21 29  1  0  0  0
 22 23  1  0  0  0
 23 24  2  0  0  0
 24 25  1  0  0  0
 25 26  1  0  0  0
 25 29  2  0  0  0
 26 27  1  0  0  0
 26 30  1  0  0  0
 27 28  2  0  0  0
 28 29  1  0  0  0
 12 13  2  0  0  0
 12 17  1  0  0  0
 13 14  1  0  0  0
 14 15  2  0  0  0
 15 16  1  0  0  0
 15 18  1  0  0  0
 16 17  2  0  0  0
M  END
> <minimizedAffinity>
-8.86153

$$$$
2043


 32 35  0  0  0  0  0  0  0  0999 V2000
   23.8134    8.9564   31.4799 N   0  0  0  0  0  0  0  0  0  0  0  0
   23.9684   10.1857   32.2179 C   0  0  0  0  0  0  0  0  0  0  0  0
   25.2171   10.8914   31.6932 C   0  0  0  0  0  0  0  0  0  0  0  0
   25.2637   10.7858   30.2838 N   0  0  0  0  0  0  0  0  0  0  0  0
   25.6678    9.3675   29.8752 C   0  0  0  0  0  0  0  0  0  0  0  0
   24.9789    8.4701   30.8397 C   0  0  0  0  0  0  0  0  0  0  0  0
   24.9739   11.6675   29.2836 C   0  0  0  0  0  0  0  0  0  0  0  0
   25.3506   11.1313   28.0721 O   0  0  0  0  0  0  0  0  0  0  0  0
   24.4197   12.9465   29.0710 C   0  0  0  0  0  0  0  0  0  0  0  0
   23.6669   13.8267   29.6434 C   0  0  0  0  0  0  0  0  0  0  0  0
   23.0858   13.6559   30.9089 N   0  0  0  0  0  0  0  0  0  0  0  0
   22.3099   14.6294   31.5771 N   0  0  0  0  0  0  0  0  0  0  0  0
   22.0874   15.8615   30.9544 C   0  0  0  0  0  0  0  0  0  0  0  0
   21.3976   16.7379   31.5380 O   0  0  0  0  0  0  0  0  0  0  0  0
   22.6713   16.0989   29.6225 C   0  0  0  0  0  0  0  0  0  0  0  0
   23.4303   15.1419   28.9748 C   0  0  0  0  0  0  0  0  0  0  0  0
   23.9317   15.4431   27.7494 C   0  0  0  0  0  0  0  0  0  0  0  0
   23.6752   16.6934   27.1776 C   0  0  0  0  0  0  0  0  0  0  0  0
   22.9222   17.6470   27.8151 C   0  0  0  0  0  0  0  0  0  0  0  0
   22.4156   17.3366   29.0586 C   0  0  0  0  0  0  0  0  0  0  0  0
   23.1689   12.7679   31.4084 H   0  0  0  0  0  0  0  0  0  0  0  0
   21.9226   14.3836   32.5363 H   0  0  0  0  0  0  0  0  0  0  0  0
   22.3529    8.7780   30.6701 S   0  0  0  0  0  0  0  0  0  0  0  0
   22.2586    9.8889   29.6322 O   0  0  0  0  0  0  0  0  0  0  0  0
   22.4169    7.4937   29.8515 O   0  0  0  0  0  0  0  0  0  0  0  0
   20.9503    8.7037   31.6615 C   0  0  0  0  0  0  0  0  0  0  0  0
   20.5742    9.7614   32.4507 C   0  0  0  0  0  0  0  0  0  0  0  0
   19.4413    9.6783   33.2400 C   0  0  0  0  0  0  0  0  0  0  0  0
   18.6551    8.5483   33.2693 C   0  0  0  0  0  0  0  0  0  0  0  0
   19.0299    7.4764   32.4753 C   0  0  0  0  0  0  0  0  0  0  0  0
   20.1728    7.5741   31.6844 C   0  0  0  0  0  0  0  0  0  0  0  0
   17.2302    8.4934   34.2877 Cl  0  0  0  0  0  0  0  0  0  0  0  0
 23 24  2  0  0  0
 23 25  2  0  0  0
 23  1  1  0  0  0
 23 26  1  0  0  0
  1  2  1  0  0  0
  1  6  1  0  0  0
  2  3  1  0  0  0
  3  4  1  0  0  0
  4  5  1  0  0  0
  4  7  1  0  0  0
  5  6  1  0  0  0
  7  8  2  0  0  0
  7  9  1  0  0  0
  9 10  2  0  0  0
 10 11  1  0  0  0
 10 16  1  0  0  0
 11 12  1  0  0  0
 12 13  1  0  0  0
 13 14  2  0  0  0
 13 15  1  0  0  0
 15 16  2  0  0  0
 15 20  1  0  0  0
 16 17  1  0  0  0
 17 18  2  0  0  0
 18 19  1  0  0  0
 19 20  2  0  0  0
 26 27  2  0  0  0
 26 31  1  0  0  0
 27 28  1  0  0  0
 28 29  2  0  0  0
 29 30  1  0  0  0
 29 32  1  0  0  0
 30 31  2  0  0  0
 11 21  1  0  0  0
 12 22  1  0  0  0
M  END
> <minimizedAffinity>
-9.23271

$$$$
2046


 26 29  0  0  0  0  0  0  0  0999 V2000
   22.4745   15.5937   32.8524 Cl  0  0  0  0  0  0  0  0  0  0  0  0
   22.5676   14.2274   31.7852 C   0  0  0  0  0  0  0  0  0  0  0  0
   21.4613   13.7740   31.1134 C   0  0  0  0  0  0  0  0  0  0  0  0
   21.5996   12.6852   30.2823 C   0  0  0  0  0  0  0  0  0  0  0  0
   22.7942   12.0258   30.0890 C   0  0  0  0  0  0  0  0  0  0  0  0
   23.8942   12.4941   30.7710 C   0  0  0  0  0  0  0  0  0  0  0  0
   23.7654   13.5831   31.6059 C   0  0  0  0  0  0  0  0  0  0  0  0
   20.1963   14.3719   31.2502 N   0  0  0  0  0  0  0  0  0  0  0  0
   19.8433   15.5124   30.6929 N   0  0  0  0  0  0  0  0  0  0  0  0
   18.5926   15.8001   30.9999 N   0  0  0  0  0  0  0  0  0  0  0  0
   18.1627   14.8172   31.7650 N   0  0  0  0  0  0  0  0  0  0  0  0
   19.1628   13.9012   31.9355 C   0  0  0  0  0  0  0  0  0  0  0  0
   18.9951   12.6965   32.7468 C   0  0  0  0  0  0  0  0  0  0  0  0
   20.0219   11.6942   33.0043 C   0  0  0  0  0  0  0  0  0  0  0  0
   19.7427   12.7235   34.1123 C   0  0  0  0  0  0  0  0  0  0  0  0
   22.9098   10.8817   29.2065 N   0  0  0  0  0  0  0  0  0  0  0  0
   23.3099   10.9715   28.2678 H   0  0  0  0  0  0  0  0  0  0  0  0
   22.4408    9.6400   29.7154 C   0  0  0  0  0  0  0  0  0  0  0  0
   23.4214    8.6141   30.0578 C   0  0  0  0  0  0  0  0  0  0  0  0
   24.6176    8.8937   29.6011 O   0  0  0  0  0  0  0  0  0  0  0  0
   23.3203    7.4369   30.7562 N   0  0  0  0  0  0  0  0  0  0  0  0
   22.1627    6.9534   31.4384 C   0  0  0  0  0  0  0  0  0  0  0  0
   21.7868    5.5981   30.8461 C   0  0  0  0  0  0  0  0  0  0  0  0
   22.8801    4.7582   31.1520 O   0  0  0  0  0  0  0  0  0  0  0  0
   23.9518    5.1450   30.3772 C   0  0  0  0  0  0  0  0  0  0  0  0
   24.4766    6.5163   30.8165 C   0  0  0  0  0  0  0  0  0  0  0  0
  1  2  1  0  0  0
  2  3  2  0  0  0
  2  7  1  0  0  0
  3  4  1  0  0  0
  3  8  1  0  0  0
  4  5  2  0  0  0
  5  6  1  0  0  0
  5 16  1  0  0  0
  6  7  2  0  0  0
 16 18  1  0  0  0
 18 19  1  0  0  0
 19 20  2  0  0  0
 19 21  1  0  0  0
 21 22  1  0  0  0
 21 26  1  0  0  0
 22 23  1  0  0  0
 23 24  1  0  0  0
 24 25  1  0  0  0
 25 26  1  0  0  0
  8  9  1  0  0  0
  8 12  1  0  0  0
  9 10  2  0  0  0
 10 11  1  0  0  0
 11 12  2  0  0  0
 12 13  1  0  0  0
 13 14  1  0  0  0
 13 15  1  0  0  0
 14 15  1  0  0  0
 16 17  1  0  0  0
M  END
> <minimizedAffinity>
-8.26458

$$$$
2063


 34 37  0  0  0  0  0  0  0  0999 V2000
   24.2667    6.9804   30.4242 C   0  0  0  0  0  0  0  0  0  0  0  0
   24.9371    8.1952   30.5337 C   0  0  0  0  0  0  0  0  0  0  0  0
   24.3830    9.2625   31.0583 O   0  0  0  0  0  0  0  0  0  0  0  0
   23.1550    9.2728   31.5202 C   0  0  0  0  0  0  0  0  0  0  0  0
   22.4127    8.1171   31.4549 C   0  0  0  0  0  0  0  0  0  0  0  0
   21.1329    8.1733   31.9504 C   0  0  0  0  0  0  0  0  0  0  0  0
   20.5821    9.3068   32.4920 C   0  0  0  0  0  0  0  0  0  0  0  0
   21.3259   10.5019   32.5695 C   0  0  0  0  0  0  0  0  0  0  0  0
   22.6057   10.4379   32.0712 C   0  0  0  0  0  0  0  0  0  0  0  0
   22.9645    6.9778   30.9099 C   0  0  0  0  0  0  0  0  0  0  0  0
   22.2857    5.9182   30.8494 O   0  0  0  0  0  0  0  0  0  0  0  0
   26.9756    2.1064   27.7645 Br  0  0  0  0  0  0  0  0  0  0  0  0
   26.1357    3.6052   28.6053 C   0  0  0  0  0  0  0  0  0  0  0  0
   25.7549    3.5732   29.9268 C   0  0  0  0  0  0  0  0  0  0  0  0
   25.1440    4.6563   30.5478 C   0  0  0  0  0  0  0  0  0  0  0  0
   24.8984    5.8152   29.8411 C   0  0  0  0  0  0  0  0  0  0  0  0
   25.2831    5.8452   28.5114 C   0  0  0  0  0  0  0  0  0  0  0  0
   25.8898    4.7707   27.8940 C   0  0  0  0  0  0  0  0  0  0  0  0
   20.7359   11.6200   33.1215 O   0  0  0  0  0  0  0  0  0  0  0  0
   20.3582   12.7513   32.4598 C   0  0  0  0  0  0  0  0  0  0  0  0
   21.2065   13.8613   32.7183 O   0  0  0  0  0  0  0  0  0  0  0  0
   21.0434   14.7065   31.6425 C   0  0  0  0  0  0  0  0  0  0  0  0
   19.6657   15.2754   31.5027 C   0  0  0  0  0  0  0  0  0  0  0  0
   18.5891   14.2422   31.7324 C   0  0  0  0  0  0  0  0  0  0  0  0
   18.9731   13.2582   32.8179 C   0  0  0  0  0  0  0  0  0  0  0  0
   18.0350   12.2329   32.8190 O   0  0  0  0  0  0  0  0  0  0  0  0
   17.3828   14.8782   31.9955 O   0  0  0  0  0  0  0  0  0  0  0  0
   19.5288   15.7070   30.1734 O   0  0  0  0  0  0  0  0  0  0  0  0
   17.3868   12.3504   33.5527 H   0  0  0  0  0  0  0  0  0  0  0  0
   17.4233   15.8639   31.7980 H   0  0  0  0  0  0  0  0  0  0  0  0
   19.8763   15.0243   29.5468 H   0  0  0  0  0  0  0  0  0  0  0  0
   22.0612   15.8185   31.6070 C   0  0  0  0  0  0  0  0  0  0  0  0
   21.4681   17.0742   31.7162 O   0  0  0  0  0  0  0  0  0  0  0  0
   22.2328   17.7199   31.8360 H   0  0  0  0  0  0  0  0  0  0  0  0
 12 13  1  0  0  0
 13 14  2  0  0  0
 13 18  1  0  0  0
 14 15  1  0  0  0
 15 16  2  0  0  0
 16 17  1  0  0  0
 16  1  1  0  0  0
 17 18  2  0  0  0
  1  2  2  0  0  0
  1 10  1  0  0  0
  2  3  1  0  0  0
  3  4  1  0  0  0
  4  5  2  0  0  0
  4  9  1  0  0  0
  5  6  1  0  0  0
  5 10  1  0  0  0
  6  7  2  0  0  0
  7  8  1  0  0  0
  8  9  2  0  0  0
  8 19  1  0  0  0
 19 20  1  0  0  0
 20 21  1  0  0  0
 20 25  1  0  0  0
 21 22  1  0  0  0
 22 23  1  0  0  0
 22 32  1  0  0  0
 23 24  1  0  0  0
 23 28  1  0  0  0
 24 25  1  0  0  0
 24 27  1  0  0  0
 25 26  1  0  0  0
 32 33  1  0  0  0
 10 11  2  0  0  0
 26 29  1  0  0  0
 27 30  1  0  0  0
 28 31  1  0  0  0
 33 34  1  0  0  0
M  END
> <minimizedAffinity>
-10.02929

$$$$
2072


 27 30  0  0  0  0  0  0  0  0999 V2000
   23.0882    6.3746   30.1912 N   0  0  0  0  0  0  0  0  0  0  0  0
   24.3399    6.3889   30.8560 C   0  0  0  0  0  0  0  0  0  0  0  0
   25.1269    7.6682   30.8272 C   0  0  0  0  0  0  0  0  0  0  0  0
   24.2252    8.7724   30.8099 N   0  0  0  0  0  0  0  0  0  0  0  0
   23.5250    8.7019   29.5278 C   0  0  0  0  0  0  0  0  0  0  0  0
   22.6135    7.5327   29.5586 C   0  0  0  0  0  0  0  0  0  0  0  0
   21.8863    5.7532   31.2577 S   0  0  0  0  0  0  0  0  0  0  0  0
   20.9986    4.8084   30.4791 O   0  0  0  0  0  0  0  0  0  0  0  0
   22.4843    4.9925   32.3811 O   0  0  0  0  0  0  0  0  0  0  0  0
   20.9337    7.0785   31.9425 C   0  0  0  0  0  0  0  0  0  0  0  0
   21.4570    8.5793   32.5587 S   0  0  0  0  0  0  0  0  0  0  0  0
   19.9503    9.2374   32.9994 C   0  0  0  0  0  0  0  0  0  0  0  0
   19.0666    8.2523   32.6478 C   0  0  0  0  0  0  0  0  0  0  0  0
   19.5734    7.1399   32.1031 C   0  0  0  0  0  0  0  0  0  0  0  0
   19.5486   10.9451   33.7979 Br  0  0  0  0  0  0  0  0  0  0  0  0
   24.8243   10.0488   31.0011 C   0  0  0  0  0  0  0  0  0  0  0  0
   24.5187   10.9830   29.8805 C   0  0  0  0  0  0  0  0  0  0  0  0
   23.7135   12.1090   30.3041 N   0  0  0  0  0  0  0  0  0  0  0  0
   22.7825   12.1237   31.2570 N   0  0  0  0  0  0  0  0  0  0  0  0
   22.2565   13.3505   31.3779 C   0  0  0  0  0  0  0  0  0  0  0  0
   22.8677   14.1326   30.4798 N   0  0  0  0  0  0  0  0  0  0  0  0
   22.5489   15.4436   30.3570 C   0  0  0  0  0  0  0  0  0  0  0  0
   21.5881   16.0401   31.1418 C   0  0  0  0  0  0  0  0  0  0  0  0
   20.9411   15.2565   32.0771 C   0  0  0  0  0  0  0  0  0  0  0  0
   21.2872   13.9267   32.1784 C   0  0  0  0  0  0  0  0  0  0  0  0
   23.7704   13.3502   29.8186 C   0  0  0  0  0  0  0  0  0  0  0  0
   24.4959   13.8157   28.9078 O   0  0  0  0  0  0  0  0  0  0  0  0
  7  8  2  0  0  0
  7  9  2  0  0  0
  7  1  1  0  0  0
  7 10  1  0  0  0
  1  2  1  0  0  0
  1  6  1  0  0  0
  2  3  1  0  0  0
  3  4  1  0  0  0
  4  5  1  0  0  0
  4 16  1  0  0  0
  5  6  1  0  0  0
 16 17  1  0  0  0
 17 18  1  0  0  0
 18 19  1  0  0  0
 18 26  1  0  0  0
 19 20  2  0  0  0
 20 21  1  0  0  0
 20 25  1  0  0  0
 21 22  1  0  0  0
 21 26  1  0  0  0
 22 23  2  0  0  0
 23 24  1  0  0  0
 24 25  2  0  0  0
 26 27  2  0  0  0
 10 11  1  0  0  0
 10 14  2  0  0  0
 11 12  1  0  0  0
 12 13  2  0  0  0
 12 15  1  0  0  0
 13 14  1  0  0  0
M  END
> <minimizedAffinity>
-7.71172

$$$$
2079


 31 34  0  0  0  0  0  0  0  0999 V2000
   24.2266    6.6256   30.2239 C   0  0  0  0  0  0  0  0  0  0  0  0
   23.0348    6.3594   30.8579 C   0  0  0  0  0  0  0  0  0  0  0  0
   22.3225    7.4240   31.4280 C   0  0  0  0  0  0  0  0  0  0  0  0
   22.7940    8.7170   31.3686 C   0  0  0  0  0  0  0  0  0  0  0  0
   22.1574    9.8381   31.9020 C   0  0  0  0  0  0  0  0  0  0  0  0
   20.9235    9.5368   32.5317 C   0  0  0  0  0  0  0  0  0  0  0  0
   20.4108    8.2453   32.6084 C   0  0  0  0  0  0  0  0  0  0  0  0
   21.1207    7.1953   32.0482 C   0  0  0  0  0  0  0  0  0  0  0  0
   20.1292   10.5006   33.1211 O   0  0  0  0  0  0  0  0  0  0  0  0
   23.8999    8.9164   30.7735 O   0  0  0  0  0  0  0  0  0  0  0  0
   24.6482    7.9711   30.1983 C   0  0  0  0  0  0  0  0  0  0  0  0
   25.7196    8.2373   29.6414 O   0  0  0  0  0  0  0  0  0  0  0  0
   27.0341    2.0460   27.3851 Cl  0  0  0  0  0  0  0  0  0  0  0  0
   26.2859    3.4141   28.2446 C   0  0  0  0  0  0  0  0  0  0  0  0
   25.8523    3.3264   29.5623 C   0  0  0  0  0  0  0  0  0  0  0  0
   25.2077    4.3746   30.1945 C   0  0  0  0  0  0  0  0  0  0  0  0
   24.9704    5.5758   29.4994 C   0  0  0  0  0  0  0  0  0  0  0  0
   25.4086    5.6345   28.2250 C   0  0  0  0  0  0  0  0  0  0  0  0
   26.0533    4.6000   27.5707 C   0  0  0  0  0  0  0  0  0  0  0  0
   22.4973   11.2081   31.7409 C   0  0  0  0  0  0  0  0  0  0  0  0
   23.3403   11.7285   30.6952 N   0  0  0  0  0  0  0  0  0  0  0  0
   22.5502   12.4673   29.6711 C   0  0  0  0  0  0  0  0  0  0  0  0
   21.4925   13.2756   30.3343 C   0  0  0  0  0  0  0  0  0  0  0  0
   21.9695   14.2766   31.2609 N   0  0  0  0  0  0  0  0  0  0  0  0
   23.2090   13.9286   31.8683 C   0  0  0  0  0  0  0  0  0  0  0  0
   24.0606   12.9062   31.2780 C   0  0  0  0  0  0  0  0  0  0  0  0
   24.0541   11.1652   30.2937 H   0  0  0  0  0  0  0  0  0  0  0  0
   20.9535   14.5412   32.2909 C   0  0  0  0  0  0  0  0  0  0  0  0
   19.6576   13.8152   32.0121 C   0  0  0  0  0  0  0  0  0  0  0  0
   19.0743   13.3005   33.1602 O   0  0  0  0  0  0  0  0  0  0  0  0
   18.4530   14.0014   33.5369 H   0  0  0  0  0  0  0  0  0  0  0  0
 13 14  1  0  0  0
 14 15  2  0  0  0
 14 19  1  0  0  0
 15 16  1  0  0  0
 16 17  2  0  0  0
 17 18  1  0  0  0
 17  1  1  0  0  0
 18 19  2  0  0  0
  1  2  2  0  0  0
  1 11  1  0  0  0
  2  3  1  0  0  0
  3  4  2  0  0  0
  3  8  1  0  0  0
  4  5  1  0  0  0
  4 10  1  0  0  0
  5  6  2  0  0  0
  5 20  1  0  0  0
  6  7  1  0  0  0
  6  9  1  0  0  0
  7  8  2  0  0  0
 20 21  1  0  0  0
 21 22  1  0  0  0
 21 26  1  0  0  0
 22 23  1  0  0  0
 23 24  1  0  0  0
 24 25  1  0  0  0
 24 28  1  0  0  0
 25 26  1  0  0  0
 28 29  1  0  0  0
 29 30  1  0  0  0
 10 11  1  0  0  0
 11 12  2  0  0  0
 21 27  1  0  0  0
 30 31  1  0  0  0
M  CHG 1   9  -1
M  CHG 1  21   1
M  END
> <minimizedAffinity>
-8.84085

$$$$
2087


 32 35  0  0  0  0  0  0  0  0999 V2000
   25.2306    6.9855   29.1402 N   0  0  0  0  0  0  0  0  0  0  0  0
   26.3524    6.6268   28.4345 C   0  0  0  0  0  0  0  0  0  0  0  0
   27.3346    7.5807   28.6134 C   0  0  0  0  0  0  0  0  0  0  0  0
   26.7916    8.4982   29.4192 N   0  0  0  0  0  0  0  0  0  0  0  0
   25.5076    8.1425   29.7417 C   0  0  0  0  0  0  0  0  0  0  0  0
   28.5355    7.4612   28.0149 N   0  0  0  0  0  0  0  0  0  0  0  0
   28.7532    6.3908   27.2378 C   0  0  0  0  0  0  0  0  0  0  0  0
   29.8771    6.2901   26.6845 O   0  0  0  0  0  0  0  0  0  0  0  0
   27.8265    5.4475   27.0385 N   0  0  0  0  0  0  0  0  0  0  0  0
   26.5971    5.5342   27.6297 C   0  0  0  0  0  0  0  0  0  0  0  0
   25.7488    4.6341   27.4202 O   0  0  0  0  0  0  0  0  0  0  0  0
   29.5418    8.4838   28.2348 C   0  0  0  0  0  0  0  0  0  0  0  0
   28.0137    4.6151   26.4232 H   0  0  0  0  0  0  0  0  0  0  0  0
   24.6774    8.9842   30.4991 N   0  0  0  0  0  0  0  0  0  0  0  0
   24.6651    9.2380   31.8953 C   0  0  0  0  0  0  0  0  0  0  0  0
   23.2732    9.6329   32.4007 C   0  0  0  0  0  0  0  0  0  0  0  0
   22.1934    9.1874   31.6204 N   0  0  0  0  0  0  0  0  0  0  0  0
   22.2762    9.3788   30.2260 C   0  0  0  0  0  0  0  0  0  0  0  0
   23.6566    9.7588   29.7413 C   0  0  0  0  0  0  0  0  0  0  0  0
   21.3033    8.2264   32.1265 C   0  0  0  0  0  0  0  0  0  0  0  0
   19.9753    8.6904   32.5553 C   0  0  0  0  0  0  0  0  0  0  0  0
   19.8168    9.6195   33.3913 O   0  0  0  0  0  0  0  0  0  0  0  0
   18.8433    8.1001   32.0358 O   0  0  0  0  0  0  0  0  0  0  0  0
   17.9835    7.3055   32.8059 C   0  0  0  0  0  0  0  0  0  0  0  0
   24.0284    6.1938   29.1962 C   0  0  0  0  0  0  0  0  0  0  0  0
   23.9548    2.2742   33.9681 Br  0  0  0  0  0  0  0  0  0  0  0  0
   23.9775    3.4951   32.5030 C   0  0  0  0  0  0  0  0  0  0  0  0
   22.8403    4.1739   32.1259 C   0  0  0  0  0  0  0  0  0  0  0  0
   22.8748    5.0627   31.0505 C   0  0  0  0  0  0  0  0  0  0  0  0
   24.0493    5.2466   30.3821 C   0  0  0  0  0  0  0  0  0  0  0  0
   25.1854    4.5815   30.7429 C   0  0  0  0  0  0  0  0  0  0  0  0
   25.1526    3.7072   31.8014 C   0  0  0  0  0  0  0  0  0  0  0  0
 26 27  1  0  0  0
 27 28  2  0  0  0
 27 32  1  0  0  0
 28 29  1  0  0  0
 29 30  2  0  0  0
 30 31  1  0  0  0
 30 25  1  0  0  0
 31 32  2  0  0  0
 25  1  1  0  0  0
  1  2  1  0  0  0
  1  5  1  0  0  0
  2  3  2  0  0  0
  2 10  1  0  0  0
  3  4  1  0  0  0
  3  6  1  0  0  0
  4  5  2  0  0  0
  5 14  1  0  0  0
 14 15  1  0  0  0
 14 19  1  0  0  0
 15 16  1  0  0  0
 16 17  1  0  0  0
 17 18  1  0  0  0
 17 20  1  0  0  0
 18 19  1  0  0  0
 20 21  1  0  0  0
 21 22  2  0  0  0
 21 23  1  0  0  0
 23 24  1  0  0  0
  6  7  1  0  0  0
  6 12  1  0  0  0
  7  8  2  0  0  0
  7  9  1  0  0  0
  9 10  1  0  0  0
 10 11  2  0  0  0
  9 13  1  0  0  0
M  END
> <minimizedAffinity>
-7.70426

$$$$
2091


 28 31  0  0  0  0  0  0  0  0999 V2000
   22.1594    7.6047   31.2198 N   0  0  0  0  0  0  0  0  0  0  0  0
   20.9513    7.5078   31.7938 C   0  0  0  0  0  0  0  0  0  0  0  0
   20.7181    8.6427   32.5381 C   0  0  0  0  0  0  0  0  0  0  0  0
   21.7957    9.3982   32.3934 N   0  0  0  0  0  0  0  0  0  0  0  0
   22.6893    8.7948   31.5970 C   0  0  0  0  0  0  0  0  0  0  0  0
   19.5764    8.8605   33.2379 N   0  0  0  0  0  0  0  0  0  0  0  0
   18.6383    7.9015   33.1817 C   0  0  0  0  0  0  0  0  0  0  0  0
   17.5880    8.1189   33.8369 O   0  0  0  0  0  0  0  0  0  0  0  0
   18.8048    6.7731   32.4702 N   0  0  0  0  0  0  0  0  0  0  0  0
   19.9338    6.5468   31.7731 C   0  0  0  0  0  0  0  0  0  0  0  0
   20.1176    5.5196   31.1059 O   0  0  0  0  0  0  0  0  0  0  0  0
   19.4221   10.0843   33.9957 C   0  0  0  0  0  0  0  0  0  0  0  0
   18.0693    6.0351   32.4304 H   0  0  0  0  0  0  0  0  0  0  0  0
   23.9742    9.2986   31.2084 N   0  0  0  0  0  0  0  0  0  0  0  0
   24.7502   10.0042   32.2041 C   0  0  0  0  0  0  0  0  0  0  0  0
   24.8937   11.4476   31.7441 C   0  0  0  0  0  0  0  0  0  0  0  0
   24.7451   11.5988   30.3352 N   0  0  0  0  0  0  0  0  0  0  0  0
   25.1684   10.4960   29.5378 C   0  0  0  0  0  0  0  0  0  0  0  0
   24.5480    9.1697   29.8952 C   0  0  0  0  0  0  0  0  0  0  0  0
   23.6383   12.3443   29.8691 C   0  0  0  0  0  0  0  0  0  0  0  0
   22.7908    6.6265   30.3678 C   0  0  0  0  0  0  0  0  0  0  0  0
   26.3690    2.1950   32.7458 Br  0  0  0  0  0  0  0  0  0  0  0  0
   25.2190    3.5505   32.0581 C   0  0  0  0  0  0  0  0  0  0  0  0
   23.8556    3.5671   32.3348 C   0  0  0  0  0  0  0  0  0  0  0  0
   23.0660    4.5798   31.7931 C   0  0  0  0  0  0  0  0  0  0  0  0
   23.5553    5.5688   30.9975 C   0  0  0  0  0  0  0  0  0  0  0  0
   24.9398    5.5109   30.7460 C   0  0  0  0  0  0  0  0  0  0  0  0
   25.7575    4.5306   31.2577 C   0  0  0  0  0  0  0  0  0  0  0  0
 22 23  1  0  0  0
 23 24  2  0  0  0
 23 28  1  0  0  0
 24 25  1  0  0  0
 25 26  2  0  0  0
 26 27  1  0  0  0
 26 21  1  0  0  0
 27 28  2  0  0  0
 21  1  1  0  0  0
  1  2  1  0  0  0
  1  5  1  0  0  0
  2  3  2  0  0  0
  2 10  1  0  0  0
  3  4  1  0  0  0
  3  6  1  0  0  0
  4  5  2  0  0  0
  5 14  1  0  0  0
 14 15  1  0  0  0
 14 19  1  0  0  0
 15 16  1  0  0  0
 16 17  1  0  0  0
 17 18  1  0  0  0
 17 20  1  0  0  0
 18 19  1  0  0  0
  6  7  1  0  0  0
  6 12  1  0  0  0
  7  8  2  0  0  0
  7  9  1  0  0  0
  9 10  1  0  0  0
 10 11  2  0  0  0
  9 13  1  0  0  0
M  END
> <minimizedAffinity>
-8.26534

$$$$
2103


 29 32  0  0  0  0  0  0  0  0999 V2000
   22.5346   13.0369   30.3489 C   0  0  0  0  0  0  0  0  0  0  0  0
   21.6401   13.1800   31.4684 C   0  0  0  0  0  0  0  0  0  0  0  0
   21.1556   14.3946   31.7897 C   0  0  0  0  0  0  0  0  0  0  0  0
   21.5074   15.5372   31.0480 C   0  0  0  0  0  0  0  0  0  0  0  0
   22.3612   15.4192   29.9783 C   0  0  0  0  0  0  0  0  0  0  0  0
   22.8748   14.1582   29.6357 C   0  0  0  0  0  0  0  0  0  0  0  0
   23.8723   14.0268   28.5426 C   0  0  0  0  0  0  0  0  0  0  0  0
   24.5484   15.3421   28.1704 C   0  0  0  0  0  0  0  0  0  0  0  0
   23.5914   16.4148   28.0336 N   0  0  0  0  0  0  0  0  0  0  0  0
   22.7230   16.5753   29.1640 C   0  0  0  0  0  0  0  0  0  0  0  0
   22.3139   17.7326   29.3914 O   0  0  0  0  0  0  0  0  0  0  0  0
   23.5163   17.2533   26.8566 C   0  0  0  0  0  0  0  0  0  0  0  0
   20.9804   16.7138   31.4317 O   0  0  0  0  0  0  0  0  0  0  0  0
   20.3239   14.2258   32.9074 O   0  0  0  0  0  0  0  0  0  0  0  0
   20.0916   12.8510   33.1294 C   0  0  0  0  0  0  0  0  0  0  0  0
   21.1210   12.2471   32.3712 O   0  0  0  0  0  0  0  0  0  0  0  0
   21.0799   17.6038   31.0814 H   0  0  0  0  0  0  0  0  0  0  0  0
   22.9294   11.6568   30.1628 C   0  0  0  0  0  0  0  0  0  0  0  0
   22.6079    9.5276   31.2930 C   0  0  0  0  0  0  0  0  0  0  0  0
   23.6966    9.7307   31.8560 O   0  0  0  0  0  0  0  0  0  0  0  0
   22.1072   10.5419   30.3427 N   0  0  0  0  0  0  0  0  0  0  0  0
   21.1816   10.2817   29.9722 H   0  0  0  0  0  0  0  0  0  0  0  0
   18.1840    7.1168   33.0396 Br  0  0  0  0  0  0  0  0  0  0  0  0
   19.9455    7.1243   32.3016 C   0  0  0  0  0  0  0  0  0  0  0  0
   20.5672    5.9582   31.9854 C   0  0  0  0  0  0  0  0  0  0  0  0
   21.7956    5.9481   31.4700 N   0  0  0  0  0  0  0  0  0  0  0  0
   22.4363    7.1065   31.2567 C   0  0  0  0  0  0  0  0  0  0  0  0
   21.8486    8.3293   31.5611 C   0  0  0  0  0  0  0  0  0  0  0  0
   20.5798    8.3483   32.0935 C   0  0  0  0  0  0  0  0  0  0  0  0
 23 24  1  0  0  0
 24 25  2  0  0  0
 24 29  1  0  0  0
 25 26  1  0  0  0
 26 27  2  0  0  0
 27 28  1  0  0  0
 28 29  2  0  0  0
 28 19  1  0  0  0
 19 20  2  0  0  0
 19 21  1  0  0  0
 21 18  1  0  0  0
 18  1  1  0  0  0
  1  2  2  0  0  0
  1  6  1  0  0  0
  2  3  1  0  0  0
  2 16  1  0  0  0
  3  4  2  0  0  0
  3 14  1  0  0  0
  4  5  1  0  0  0
  4 13  1  0  0  0
  5  6  2  0  0  0
  5 10  1  0  0  0
  6  7  1  0  0  0
  7  8  1  0  0  0
  8  9  1  0  0  0
  9 10  1  0  0  0
  9 12  1  0  0  0
 10 11  2  0  0  0
 14 15  1  0  0  0
 15 16  1  0  0  0
 21 22  1  0  0  0
 13 17  1  0  0  0
M  END
> <minimizedAffinity>
-9.60123

$$$$
2105


 29 32  0  0  0  0  0  0  0  0999 V2000
   24.4482    6.7225   31.4083 Cl  0  0  0  0  0  0  0  0  0  0  0  0
   23.5686    7.9318   30.4967 C   0  0  0  0  0  0  0  0  0  0  0  0
   23.7544    9.2900   30.7550 C   0  0  0  0  0  0  0  0  0  0  0  0
   23.0889   10.2620   30.0685 C   0  0  0  0  0  0  0  0  0  0  0  0
   22.2069    9.8331   29.0860 C   0  0  0  0  0  0  0  0  0  0  0  0
   22.0106    8.4964   28.8155 C   0  0  0  0  0  0  0  0  0  0  0  0
   22.6917    7.5297   29.5204 C   0  0  0  0  0  0  0  0  0  0  0  0
   23.5065   11.5836   30.5800 C   0  0  0  0  0  0  0  0  0  0  0  0
   22.3296   12.3028   31.1891 C   0  0  0  0  0  0  0  0  0  0  0  0
   21.9393   13.4891   30.8144 C   0  0  0  0  0  0  0  0  0  0  0  0
   22.6078   14.2079   29.7803 N   0  0  0  0  0  0  0  0  0  0  0  0
   23.7251   13.6045   29.1530 C   0  0  0  0  0  0  0  0  0  0  0  0
   24.1278   12.4101   29.5229 C   0  0  0  0  0  0  0  0  0  0  0  0
   24.4476   14.2639   28.1088 N   0  0  0  0  0  0  0  0  0  0  0  0
   20.7657   13.8827   31.6202 C   0  0  0  0  0  0  0  0  0  0  0  0
   20.5266   12.8320   32.4726 O   0  0  0  0  0  0  0  0  0  0  0  0
   21.4516   11.8374   32.2553 C   0  0  0  0  0  0  0  0  0  0  0  0
   21.5504   10.7100   32.8543 O   0  0  0  0  0  0  0  0  0  0  0  0
   19.6160   14.2042   30.6915 C   0  0  0  0  0  0  0  0  0  0  0  0
   21.0408   15.1227   32.4512 C   0  0  0  0  0  0  0  0  0  0  0  0
   24.4910   11.2727   31.6428 C   0  0  0  0  0  0  0  0  0  0  0  0
   25.1233   12.1199   32.3699 O   0  0  0  0  0  0  0  0  0  0  0  0
   24.6143    9.8706   31.7208 N   0  0  0  0  0  0  0  0  0  0  0  0
   22.3009   15.1560   29.4757 H   0  0  0  0  0  0  0  0  0  0  0  0
   23.9556   14.6588   27.2965 H   0  0  0  0  0  0  0  0  0  0  0  0
   25.4691   14.3330   28.1896 H   0  0  0  0  0  0  0  0  0  0  0  0
   25.2598    9.3704   32.4049 H   0  0  0  0  0  0  0  0  0  0  0  0
   25.2808   11.8266   28.8516 C   0  0  0  0  0  0  0  0  0  0  0  0
   26.1864   11.3551   28.3073 N   0  0  0  0  0  0  0  0  0  0  0  0
  1  2  1  0  0  0
  2  3  2  0  0  0
  2  7  1  0  0  0
  3  4  1  0  0  0
  3 23  1  0  0  0
  4  5  2  0  0  0
  4  8  1  0  0  0
  5  6  1  0  0  0
  6  7  2  0  0  0
  8  9  1  0  0  0
  8 13  1  0  0  0
  8 21  1  0  0  0
  9 10  2  0  0  0
  9 17  1  0  0  0
 10 11  1  0  0  0
 10 15  1  0  0  0
 11 12  1  0  0  0
 12 13  2  0  0  0
 12 14  1  0  0  0
 13 28  1  0  0  0
 28 29  3  0  0  0
 15 16  1  0  0  0
 15 19  1  0  0  0
 15 20  1  0  0  0
 16 17  1  0  0  0
 17 18  2  0  0  0
 21 22  2  0  0  0
 21 23  1  0  0  0
 11 24  1  0  0  0
 14 25  1  0  0  0
 14 26  1  0  0  0
 23 27  1  0  0  0
M  END
> <minimizedAffinity>
-6.72141

$$$$
2109


 21 24  0  0  0  0  0  0  0  0999 V2000
   22.7401   11.3520   31.1248 N   0  0  0  0  0  0  0  0  0  0  0  0
   22.4367   12.1626   29.9799 C   0  0  0  0  0  0  0  0  0  0  0  0
   21.4524   12.0230   29.2121 O   0  0  0  0  0  0  0  0  0  0  0  0
   23.4679   13.2130   29.8184 C   0  0  0  0  0  0  0  0  0  0  0  0
   22.9202   14.4843   29.6875 O   0  0  0  0  0  0  0  0  0  0  0  0
   22.3387   14.8005   30.8327 N   0  0  0  0  0  0  0  0  0  0  0  0
   22.8930   14.0875   31.8974 C   0  0  0  0  0  0  0  0  0  0  0  0
   24.0191   13.2894   31.2383 C   0  0  0  0  0  0  0  0  0  0  0  0
   23.9708   11.8623   31.6363 C   0  0  0  0  0  0  0  0  0  0  0  0
   24.8098   11.1765   32.2933 O   0  0  0  0  0  0  0  0  0  0  0  0
   23.3320   14.8089   33.0999 C   0  0  0  0  0  0  0  0  0  0  0  0
   23.1036   16.2680   33.1583 C   0  0  0  0  0  0  0  0  0  0  0  0
   21.8181   16.5893   32.4281 C   0  0  0  0  0  0  0  0  0  0  0  0
   22.0202   16.1579   30.9988 C   0  0  0  0  0  0  0  0  0  0  0  0
   19.6057    6.7152   33.3169 Cl  0  0  0  0  0  0  0  0  0  0  0  0
   20.5197    8.0701   32.6781 C   0  0  0  0  0  0  0  0  0  0  0  0
   20.2563    9.3570   33.0992 C   0  0  0  0  0  0  0  0  0  0  0  0
   20.9826   10.4202   32.5890 C   0  0  0  0  0  0  0  0  0  0  0  0
   21.9855   10.2619   31.6568 C   0  0  0  0  0  0  0  0  0  0  0  0
   22.2430    8.9639   31.2394 C   0  0  0  0  0  0  0  0  0  0  0  0
   21.5214    7.8993   31.7454 C   0  0  0  0  0  0  0  0  0  0  0  0
 15 16  1  0  0  0
 16 17  2  0  0  0
 16 21  1  0  0  0
 17 18  1  0  0  0
 18 19  2  0  0  0
 19 20  1  0  0  0
 19  1  1  0  0  0
 20 21  2  0  0  0
  1  2  1  0  0  0
  1  9  1  0  0  0
  2  3  2  0  0  0
  2  4  1  0  0  0
  4  5  1  0  0  0
  4  8  1  0  0  0
  5  6  1  0  0  0
  6  7  1  0  0  0
  6 14  1  0  0  0
  7  8  1  0  0  0
  7 11  1  0  0  0
  8  9  1  0  0  0
  9 10  2  0  0  0
 11 12  1  0  0  0
 12 13  1  0  0  0
 13 14  1  0  0  0
M  END
> <minimizedAffinity>
-7.44436

$$$$
2116


 33 36  0  0  0  0  0  0  0  0999 V2000
   24.0785   11.2798   29.4032 C   0  0  0  0  0  0  0  0  0  0  0  0
   24.9803   11.8496   28.6197 N   0  0  0  0  0  0  0  0  0  0  0  0
   25.0397   13.1688   28.3674 C   0  0  0  0  0  0  0  0  0  0  0  0
   24.1073   13.9421   28.9651 N   0  0  0  0  0  0  0  0  0  0  0  0
   23.1555   13.4158   29.7815 C   0  0  0  0  0  0  0  0  0  0  0  0
   23.1589   12.0755   29.9892 N   0  0  0  0  0  0  0  0  0  0  0  0
   22.1789   14.2325   30.3860 N   0  0  0  0  0  0  0  0  0  0  0  0
   20.9456   13.6815   30.8862 C   0  0  0  0  0  0  0  0  0  0  0  0
   20.8467   14.1645   32.3406 C   0  0  0  0  0  0  0  0  0  0  0  0
   20.9902   15.5368   32.3680 O   0  0  0  0  0  0  0  0  0  0  0  0
   22.3004   15.8974   32.0560 C   0  0  0  0  0  0  0  0  0  0  0  0
   22.4121   15.6463   30.5368 C   0  0  0  0  0  0  0  0  0  0  0  0
   26.0364   13.7415   27.5046 N   0  0  0  0  0  0  0  0  0  0  0  0
   27.0725   12.9369   26.9226 C   0  0  0  0  0  0  0  0  0  0  0  0
   27.8858   13.5670   25.8601 C   0  0  0  0  0  0  0  0  0  0  0  0
   27.7962   14.9511   25.8085 O   0  0  0  0  0  0  0  0  0  0  0  0
   26.4800   15.3913   25.8361 C   0  0  0  0  0  0  0  0  0  0  0  0
   25.9701   15.1479   27.2354 C   0  0  0  0  0  0  0  0  0  0  0  0
   24.0742    9.8693   29.5856 N   0  0  0  0  0  0  0  0  0  0  0  0
   24.9034    9.3244   29.3214 H   0  0  0  0  0  0  0  0  0  0  0  0
   22.7664    9.0434   31.3716 C   0  0  0  0  0  0  0  0  0  0  0  0
   22.9634    9.2316   30.1120 N   0  0  0  0  0  0  0  0  0  0  0  0
   17.9407    9.2308   33.7098 Br  0  0  0  0  0  0  0  0  0  0  0  0
   19.3966    8.3097   32.9055 C   0  0  0  0  0  0  0  0  0  0  0  0
   19.3127    6.9316   32.7849 C   0  0  0  0  0  0  0  0  0  0  0  0
   20.3854    6.2842   32.2022 C   0  0  0  0  0  0  0  0  0  0  0  0
   21.4826    6.9803   31.7653 C   0  0  0  0  0  0  0  0  0  0  0  0
   21.5884    8.3665   31.8739 C   0  0  0  0  0  0  0  0  0  0  0  0
   20.5102    8.9947   32.4576 C   0  0  0  0  0  0  0  0  0  0  0  0
   22.5658    6.3182   31.1776 O   0  0  0  0  0  0  0  0  0  0  0  0
   18.2030    6.2141   33.2262 O   0  0  0  0  0  0  0  0  0  0  0  0
   22.5188    5.3079   31.0856 H   0  0  0  0  0  0  0  0  0  0  0  0
   17.3936    6.6397   33.6522 H   0  0  0  0  0  0  0  0  0  0  0  0
 23 24  1  0  0  0
 24 25  2  0  0  0
 24 29  1  0  0  0
 25 26  1  0  0  0
 25 31  1  0  0  0
 26 27  2  0  0  0
 27 28  1  0  0  0
 27 30  1  0  0  0
 28 29  2  0  0  0
 28 21  1  0  0  0
 21 22  2  0  0  0
 22 19  1  0  0  0
 19  1  1  0  0  0
  1  2  2  0  0  0
  1  6  1  0  0  0
  2  3  1  0  0  0
  3  4  2  0  0  0
  3 13  1  0  0  0
  4  5  1  0  0  0
  5  6  2  0  0  0
  5  7  1  0  0  0
  7  8  1  0  0  0
  7 12  1  0  0  0
  8  9  1  0  0  0
  9 10  1  0  0  0
 10 11  1  0  0  0
 11 12  1  0  0  0
 13 14  1  0  0  0
 13 18  1  0  0  0
 14 15  1  0  0  0
 15 16  1  0  0  0
 16 17  1  0  0  0
 17 18  1  0  0  0
 19 20  1  0  0  0
 30 32  1  0  0  0
 31 33  1  0  0  0
M  END
> <minimizedAffinity>
-8.99713

$$$$
2121


 31 34  0  0  0  0  0  0  0  0999 V2000
   25.2616    5.0588   29.2436 C   0  0  0  0  0  0  0  0  0  0  0  0
   25.3075    5.2086   27.9130 O   0  0  0  0  0  0  0  0  0  0  0  0
   25.7083    3.8252   29.6669 N   0  0  0  0  0  0  0  0  0  0  0  0
   26.1697    2.9917   28.5212 C   0  0  0  0  0  0  0  0  0  0  0  0
   27.6461    3.2477   28.2882 C   0  0  0  0  0  0  0  0  0  0  0  0
   28.2171    3.7867   29.5438 C   0  0  0  0  0  0  0  0  0  0  0  0
   28.0385    2.8278   30.6758 C   0  0  0  0  0  0  0  0  0  0  0  0
   27.0999    3.5238   31.6769 C   0  0  0  0  0  0  0  0  0  0  0  0
   25.7114    3.3961   31.0226 C   0  0  0  0  0  0  0  0  0  0  0  0
   29.2304    2.4441   31.2870 O   0  0  0  0  0  0  0  0  0  0  0  0
   29.9237    2.4429   30.5502 H   0  0  0  0  0  0  0  0  0  0  0  0
   20.8897   10.2456   32.6695 Cl  0  0  0  0  0  0  0  0  0  0  0  0
   22.3129    9.4211   32.0275 C   0  0  0  0  0  0  0  0  0  0  0  0
   22.1381    8.2437   31.3748 C   0  0  0  0  0  0  0  0  0  0  0  0
   23.2848    7.6131   30.8796 C   0  0  0  0  0  0  0  0  0  0  0  0
   24.5217    8.1357   31.0329 C   0  0  0  0  0  0  0  0  0  0  0  0
   25.4003    7.2698   30.4418 N   0  0  0  0  0  0  0  0  0  0  0  0
   24.7576    6.2210   29.9229 C   0  0  0  0  0  0  0  0  0  0  0  0
   23.4048    6.4216   30.1917 C   0  0  0  0  0  0  0  0  0  0  0  0
   24.6811    9.3238   31.6933 C   0  0  0  0  0  0  0  0  0  0  0  0
   23.5654    9.9752   32.1970 C   0  0  0  0  0  0  0  0  0  0  0  0
   26.4069    7.4770   30.4246 H   0  0  0  0  0  0  0  0  0  0  0  0
   29.5571    4.2807   29.5173 N   0  0  0  0  0  0  0  0  0  0  0  0
   29.6969    5.6790   29.8370 C   0  0  0  0  0  0  0  0  0  0  0  0
   29.0314    6.5453   28.8363 C   0  0  0  0  0  0  0  0  0  0  0  0
   29.6021    6.1911   27.5319 N   0  0  0  0  0  0  0  0  0  0  0  0
   30.6257    5.1786   27.5498 C   0  0  0  0  0  0  0  0  0  0  0  0
   30.2750    3.9399   28.3191 C   0  0  0  0  0  0  0  0  0  0  0  0
   29.1497    6.8543   26.3508 C   0  0  0  0  0  0  0  0  0  0  0  0
   29.6280    6.5383   25.2535 O   0  0  0  0  0  0  0  0  0  0  0  0
   28.1049    7.9178   26.4868 C   0  0  0  0  0  0  0  0  0  0  0  0
 12 13  1  0  0  0
 13 14  2  0  0  0
 13 21  1  0  0  0
 14 15  1  0  0  0
 15 16  2  0  0  0
 15 19  1  0  0  0
 16 17  1  0  0  0
 16 20  1  0  0  0
 17 18  1  0  0  0
 18 19  2  0  0  0
 18  1  1  0  0  0
  1  2  2  0  0  0
  1  3  1  0  0  0
  3  4  1  0  0  0
  3  9  1  0  0  0
  4  5  1  0  0  0
  5  6  1  0  0  0
  6  7  1  0  0  0
  6 23  1  0  0  0
  7  8  1  0  0  0
  7 10  1  0  0  0
  8  9  1  0  0  0
 23 24  1  0  0  0
 23 28  1  0  0  0
 24 25  1  0  0  0
 25 26  1  0  0  0
 26 27  1  0  0  0
 26 29  1  0  0  0
 27 28  1  0  0  0
 29 30  2  0  0  0
 29 31  1  0  0  0
 20 21  2  0  0  0
 17 22  1  0  0  0
 10 11  1  0  0  0
M  END
> <minimizedAffinity>
-7.69203

$$$$
2122


 29 32  0  0  0  0  0  0  0  0999 V2000
   23.5286    8.2188   30.4838 C   0  0  0  0  0  0  0  0  0  0  0  0
   22.8205    8.4148   29.3581 N   0  0  0  0  0  0  0  0  0  0  0  0
   23.2036    9.5084   28.7628 O   0  0  0  0  0  0  0  0  0  0  0  0
   24.1632   10.0340   29.4972 C   0  0  0  0  0  0  0  0  0  0  0  0
   24.3758    9.2536   30.5604 N   0  0  0  0  0  0  0  0  0  0  0  0
   24.8423   11.3126   29.0989 C   0  0  0  0  0  0  0  0  0  0  0  0
   25.8503   11.0715   28.3485 O   0  0  0  0  0  0  0  0  0  0  0  0
   24.3696   12.4973   29.5269 N   0  0  0  0  0  0  0  0  0  0  0  0
   25.3320   13.1381   28.7886 H   0  0  0  0  0  0  0  0  0  0  0  0
   23.8969   13.7227   29.9570 C   0  0  0  0  0  0  0  0  0  0  0  0
   23.5024   13.7380   31.4386 C   0  0  0  0  0  0  0  0  0  0  0  0
   22.2524   14.3268   31.7154 N   0  0  0  0  0  0  0  0  0  0  0  0
   21.2143   13.3729   31.6708 C   0  0  0  0  0  0  0  0  0  0  0  0
   19.8859   13.9615   31.3332 C   0  0  0  0  0  0  0  0  0  0  0  0
   19.7427   15.1522   31.9978 O   0  0  0  0  0  0  0  0  0  0  0  0
   20.6091   16.1411   31.5724 C   0  0  0  0  0  0  0  0  0  0  0  0
   21.9970   15.6435   31.2963 C   0  0  0  0  0  0  0  0  0  0  0  0
   23.3843    7.0552   31.4010 C   0  0  0  0  0  0  0  0  0  0  0  0
   19.7477   10.9210   33.7530 Cl  0  0  0  0  0  0  0  0  0  0  0  0
   19.7852    9.2869   33.1094 C   0  0  0  0  0  0  0  0  0  0  0  0
   20.9937    8.7862   32.6342 C   0  0  0  0  0  0  0  0  0  0  0  0
   21.0185    7.4942   32.1277 C   0  0  0  0  0  0  0  0  0  0  0  0
   19.8284    6.7627   32.1215 C   0  0  0  0  0  0  0  0  0  0  0  0
   18.6513    7.2688   32.5908 C   0  0  0  0  0  0  0  0  0  0  0  0
   18.6239    8.5356   33.0879 C   0  0  0  0  0  0  0  0  0  0  0  0
   20.1584    5.6211   31.6001 O   0  0  0  0  0  0  0  0  0  0  0  0
   21.4275    5.5758   31.2839 C   0  0  0  0  0  0  0  0  0  0  0  0
   21.9831    4.5721   30.7626 O   0  0  0  0  0  0  0  0  0  0  0  0
   21.9983    6.7494   31.6081 N   0  0  0  0  0  0  0  0  0  0  0  0
 19 20  1  0  0  0
 20 21  2  0  0  0
 20 25  1  0  0  0
 21 22  1  0  0  0
 22 23  2  0  0  0
 22 29  1  0  0  0
 23 24  1  0  0  0
 23 26  1  0  0  0
 24 25  2  0  0  0
 26 27  1  0  0  0
 27 28  2  0  0  0
 27 29  1  0  0  0
 29 18  1  0  0  0
 18  1  1  0  0  0
  1  2  2  0  0  0
  1  5  1  0  0  0
  2  3  1  0  0  0
  3  4  1  0  0  0
  4  5  2  0  0  0
  4  6  1  0  0  0
  6  7  2  0  0  0
  6  8  1  0  0  0
  8 10  1  0  0  0
 10 11  1  0  0  0
 11 12  1  0  0  0
 12 13  1  0  0  0
 12 17  1  0  0  0
 13 14  1  0  0  0
 14 15  1  0  0  0
 15 16  1  0  0  0
 16 17  1  0  0  0
  8  9  1  0  0  0
M  END
> <minimizedAffinity>
-8.84820

$$$$
2124


 25 29  0  0  0  0  0  0  0  0999 V2000
   22.4986   11.1041   31.6856 N   0  0  0  0  0  0  0  0  0  0  0  0
   22.3118    9.6976   31.6293 C   0  0  0  0  0  0  0  0  0  0  0  0
   21.2145    9.1179   31.4148 O   0  0  0  0  0  0  0  0  0  0  0  0
   23.6122    8.9855   31.8631 C   0  0  0  0  0  0  0  0  0  0  0  0
   23.9421    8.0793   30.7247 C   0  0  0  0  0  0  0  0  0  0  0  0
   25.2716    8.4190   30.3713 O   0  0  0  0  0  0  0  0  0  0  0  0
   25.0413    9.8102   30.2173 C   0  0  0  0  0  0  0  0  0  0  0  0
   24.6249   10.1205   31.6516 C   0  0  0  0  0  0  0  0  0  0  0  0
   23.8913   11.3693   31.7956 C   0  0  0  0  0  0  0  0  0  0  0  0
   24.4288   12.4904   31.9858 O   0  0  0  0  0  0  0  0  0  0  0  0
   23.8843    9.7899   29.2912 C   0  0  0  0  0  0  0  0  0  0  0  0
   23.2430    8.6249   29.5176 C   0  0  0  0  0  0  0  0  0  0  0  0
   26.2106   10.5681   29.7445 C   0  0  0  0  0  0  0  0  0  0  0  0
   18.4649   15.5522   31.4148 Cl  0  0  0  0  0  0  0  0  0  0  0  0
   19.6423   14.2395   31.5201 C   0  0  0  0  0  0  0  0  0  0  0  0
   19.6575   13.3707   32.5845 C   0  0  0  0  0  0  0  0  0  0  0  0
   20.5915   12.3508   32.6326 C   0  0  0  0  0  0  0  0  0  0  0  0
   21.5297   12.1556   31.6479 C   0  0  0  0  0  0  0  0  0  0  0  0
   21.5157   13.0281   30.5753 C   0  0  0  0  0  0  0  0  0  0  0  0
   20.5755   14.0549   30.5248 C   0  0  0  0  0  0  0  0  0  0  0  0
   23.7491    6.6394   30.9368 C   0  0  0  0  0  0  0  0  0  0  0  0
   23.5008    6.0385   29.7011 O   0  0  0  0  0  0  0  0  0  0  0  0
   24.7059    5.6993   29.1393 C   0  0  0  0  0  0  0  0  0  0  0  0
   25.5897    5.5031   30.3425 C   0  0  0  0  0  0  0  0  0  0  0  0
   24.9331    6.0734   31.4099 O   0  0  0  0  0  0  0  0  0  0  0  0
 14 15  1  0  0  0
 15 16  2  0  0  0
 15 20  1  0  0  0
 16 17  1  0  0  0
 17 18  2  0  0  0
 18 19  1  0  0  0
 18  1  1  0  0  0
 19 20  2  0  0  0
  1  2  1  0  0  0
  1  9  1  0  0  0
  2  3  2  0  0  0
  2  4  1  0  0  0
  4  5  1  0  0  0
  4  8  1  0  0  0
  5  6  1  0  0  0
  5 12  1  0  0  0
  5 21  1  0  0  0
  6  7  1  0  0  0
  7  8  1  0  0  0
  7 11  1  0  0  0
  7 13  1  0  0  0
  8  9  1  0  0  0
  9 10  2  0  0  0
 11 12  2  0  0  0
 21 22  1  0  0  0
 21 25  1  0  0  0
 22 23  1  0  0  0
 23 24  1  0  0  0
 24 25  1  0  0  0
M  END
> <minimizedAffinity>
-7.92220

$$$$
2134


 36 39  0  0  0  0  0  0  0  0999 V2000
   22.8076    8.6448   30.9189 C   0  0  0  0  0  0  0  0  0  0  0  0
   23.0521    9.9316   30.8711 N   0  0  0  0  0  0  0  0  0  0  0  0
   22.1417   10.6682   31.5853 N   0  0  0  0  0  0  0  0  0  0  0  0
   21.2280    9.7218   32.1416 C   0  0  0  0  0  0  0  0  0  0  0  0
   20.1786    9.8471   32.8986 N   0  0  0  0  0  0  0  0  0  0  0  0
   19.4222    8.7230   33.3230 N   0  0  0  0  0  0  0  0  0  0  0  0
   19.7643    7.4110   32.9490 C   0  0  0  0  0  0  0  0  0  0  0  0
   19.0625    6.3521   33.3303 C   0  0  0  0  0  0  0  0  0  0  0  0
   20.9403    7.2480   32.1013 C   0  0  0  0  0  0  0  0  0  0  0  0
   21.2595    6.1043   31.7618 O   0  0  0  0  0  0  0  0  0  0  0  0
   21.6498    8.4268   31.7172 N   0  0  0  0  0  0  0  0  0  0  0  0
   18.5979    8.9353   33.9291 H   0  0  0  0  0  0  0  0  0  0  0  0
   22.1011   12.0882   31.6926 C   0  0  0  0  0  0  0  0  0  0  0  0
   23.1825   12.8637   31.3530 C   0  0  0  0  0  0  0  0  0  0  0  0
   23.1827   14.2512   31.3991 C   0  0  0  0  0  0  0  0  0  0  0  0
   22.0485   14.9252   31.8049 C   0  0  0  0  0  0  0  0  0  0  0  0
   20.9503   14.1679   32.1542 C   0  0  0  0  0  0  0  0  0  0  0  0
   20.9796   12.7750   32.0984 C   0  0  0  0  0  0  0  0  0  0  0  0
   21.9926   16.4187   31.8332 C   0  0  0  0  0  0  0  0  0  0  0  0
   24.9349    7.4046   30.6816 N   0  0  0  0  0  0  0  0  0  0  0  0
   23.6036    7.6297   30.2573 C   0  0  0  0  0  0  0  0  0  0  0  0
   23.1321    6.9408   29.2971 O   0  0  0  0  0  0  0  0  0  0  0  0
   25.3647    7.9150   31.4672 H   0  0  0  0  0  0  0  0  0  0  0  0
   27.3282    5.6479   28.3272 N   0  0  0  0  0  0  0  0  0  0  0  0
   26.5919    6.6667   28.9566 C   0  0  0  0  0  0  0  0  0  0  0  0
   26.7560    7.8471   28.5448 O   0  0  0  0  0  0  0  0  0  0  0  0
   25.6908    6.4461   30.0161 N   0  0  0  0  0  0  0  0  0  0  0  0
   27.2073    4.6533   28.6426 H   0  0  0  0  0  0  0  0  0  0  0  0
   25.5323    5.4483   30.3738 H   0  0  0  0  0  0  0  0  0  0  0  0
   31.2464    6.4351   23.9459 Cl  0  0  0  0  0  0  0  0  0  0  0  0
   30.0388    6.1923   25.2145 C   0  0  0  0  0  0  0  0  0  0  0  0
   28.7179    6.0139   24.8943 C   0  0  0  0  0  0  0  0  0  0  0  0
   27.8386    5.8359   25.9395 C   0  0  0  0  0  0  0  0  0  0  0  0
   28.2602    5.8347   27.2670 C   0  0  0  0  0  0  0  0  0  0  0  0
   29.6080    6.0191   27.5401 C   0  0  0  0  0  0  0  0  0  0  0  0
   30.4967    6.1989   26.5046 C   0  0  0  0  0  0  0  0  0  0  0  0
 30 31  1  0  0  0
 31 32  2  0  0  0
 31 36  1  0  0  0
 32 33  1  0  0  0
 33 34  2  0  0  0
 34 35  1  0  0  0
 34 24  1  0  0  0
 35 36  2  0  0  0
 24 25  1  0  0  0
 25 26  2  0  0  0
 25 27  1  0  0  0
 27 20  1  0  0  0
 20 21  1  0  0  0
 21 22  2  0  0  0
 21  1  1  0  0  0
  1  2  2  0  0  0
  1 11  1  0  0  0
  2  3  1  0  0  0
  3  4  1  0  0  0
  3 13  1  0  0  0
  4  5  2  0  0  0
  4 11  1  0  0  0
  5  6  1  0  0  0
  6  7  1  0  0  0
  7  8  2  0  0  0
  7  9  1  0  0  0
  9 10  2  0  0  0
  9 11  1  0  0  0
 13 14  2  0  0  0
 13 18  1  0  0  0
 14 15  1  0  0  0
 15 16  2  0  0  0
 16 17  1  0  0  0
 16 19  1  0  0  0
 17 18  2  0  0  0
 24 28  1  0  0  0
 27 29  1  0  0  0
 20 23  1  0  0  0
  6 12  1  0  0  0
M  END
> <minimizedAffinity>
-9.44862

$$$$
2136


 33 37  0  0  0  0  0  0  0  0999 V2000
   20.6689   14.2139   30.8367 Cl  0  0  0  0  0  0  0  0  0  0  0  0
   20.8340   12.6749   31.6557 C   0  0  0  0  0  0  0  0  0  0  0  0
   21.4944   11.5999   31.0969 C   0  0  0  0  0  0  0  0  0  0  0  0
   21.6065   10.3911   31.7752 C   0  0  0  0  0  0  0  0  0  0  0  0
   21.0322   10.3273   33.0150 C   0  0  0  0  0  0  0  0  0  0  0  0
   20.3711   11.3874   33.5882 C   0  0  0  0  0  0  0  0  0  0  0  0
   20.2635   12.5702   32.9201 C   0  0  0  0  0  0  0  0  0  0  0  0
   22.3563    9.4598   30.9240 C   0  0  0  0  0  0  0  0  0  0  0  0
   21.6037    8.2563   30.6191 N   0  0  0  0  0  0  0  0  0  0  0  0
   22.6511    7.3633   30.1174 C   0  0  0  0  0  0  0  0  0  0  0  0
   23.8729    7.6530   30.9033 C   0  0  0  0  0  0  0  0  0  0  0  0
   23.5544    8.9085   31.6505 C   0  0  0  0  0  0  0  0  0  0  0  0
   24.7208    9.7941   31.5931 C   0  0  0  0  0  0  0  0  0  0  0  0
   24.8748   10.7996   32.3307 O   0  0  0  0  0  0  0  0  0  0  0  0
   25.5754    9.2816   30.5785 N   0  0  0  0  0  0  0  0  0  0  0  0
   25.0148    8.1001   30.0220 C   0  0  0  0  0  0  0  0  0  0  0  0
   25.3571    7.4765   28.9806 O   0  0  0  0  0  0  0  0  0  0  0  0
   22.6826   10.1885   29.6877 C   0  0  0  0  0  0  0  0  0  0  0  0
   23.3040    9.7897   28.6924 O   0  0  0  0  0  0  0  0  0  0  0  0
   22.1388   11.4921   29.8364 N   0  0  0  0  0  0  0  0  0  0  0  0
   20.8685    8.4286   29.8798 H   0  0  0  0  0  0  0  0  0  0  0  0
   22.1899   12.2799   29.1357 H   0  0  0  0  0  0  0  0  0  0  0  0
   26.8408    9.8910   30.1773 C   0  0  0  0  0  0  0  0  0  0  0  0
   26.5385   10.9426   29.1196 C   0  0  0  0  0  0  0  0  0  0  0  0
   26.8053   10.4568   27.8493 O   0  0  0  0  0  0  0  0  0  0  0  0
   27.9664    9.7093   27.8770 C   0  0  0  0  0  0  0  0  0  0  0  0
   22.2454    5.9256   30.2437 C   0  0  0  0  0  0  0  0  0  0  0  0
   23.2790    5.0442   30.8111 C   0  0  0  0  0  0  0  0  0  0  0  0
   23.0355    4.4877   32.0650 C   0  0  0  0  0  0  0  0  0  0  0  0
   23.9694    3.6458   32.6113 C   0  0  0  0  0  0  0  0  0  0  0  0
   25.1443    3.3212   31.9762 C   0  0  0  0  0  0  0  0  0  0  0  0
   25.3482    3.8914   30.7384 C   0  0  0  0  0  0  0  0  0  0  0  0
   24.4424    4.7437   30.1428 C   0  0  0  0  0  0  0  0  0  0  0  0
  1  2  1  0  0  0
  2  3  2  0  0  0
  2  7  1  0  0  0
  3  4  1  0  0  0
  3 20  1  0  0  0
  4  5  2  0  0  0
  4  8  1  0  0  0
  5  6  1  0  0  0
  6  7  2  0  0  0
  8  9  1  0  0  0
  8 12  1  0  0  0
  8 18  1  0  0  0
  9 10  1  0  0  0
 10 11  1  0  0  0
 10 27  1  0  0  0
 11 12  1  0  0  0
 11 16  1  0  0  0
 12 13  1  0  0  0
 13 14  2  0  0  0
 13 15  1  0  0  0
 15 16  1  0  0  0
 15 23  1  0  0  0
 16 17  2  0  0  0
 23 24  1  0  0  0
 24 25  1  0  0  0
 25 26  1  0  0  0
 27 28  1  0  0  0
 28 29  2  0  0  0
 28 33  1  0  0  0
 29 30  1  0  0  0
 30 31  2  0  0  0
 31 32  1  0  0  0
 32 33  2  0  0  0
 18 19  2  0  0  0
 18 20  1  0  0  0
  9 21  1  0  0  0
 20 22  1  0  0  0
M  END
> <minimizedAffinity>
-8.28624

$$$$
2139


 27 30  0  0  0  0  0  0  0  0999 V2000
   23.9291   10.0348   31.0885 N   0  0  0  0  0  0  0  0  0  0  0  0
   23.0663    9.9289   29.9803 C   0  0  0  0  0  0  0  0  0  0  0  0
   22.1542   11.0984   29.7267 C   0  0  0  0  0  0  0  0  0  0  0  0
   22.7931   12.2658   30.3892 N   0  0  0  0  0  0  0  0  0  0  0  0
   24.2011   12.2919   30.2650 C   0  0  0  0  0  0  0  0  0  0  0  0
   24.7573   11.2053   31.1596 C   0  0  0  0  0  0  0  0  0  0  0  0
   21.9266   13.1889   31.0120 C   0  0  0  0  0  0  0  0  0  0  0  0
   21.0023   12.7334   31.9104 N   0  0  0  0  0  0  0  0  0  0  0  0
   20.1088   13.4889   32.5362 C   0  0  0  0  0  0  0  0  0  0  0  0
   20.0955   14.8082   32.2817 N   0  0  0  0  0  0  0  0  0  0  0  0
   20.9874   15.3174   31.4021 C   0  0  0  0  0  0  0  0  0  0  0  0
   21.2140   16.5711   30.9684 N   0  0  0  0  0  0  0  0  0  0  0  0
   22.2257   16.5593   30.1002 C   0  0  0  0  0  0  0  0  0  0  0  0
   22.6833   15.3041   29.9467 N   0  0  0  0  0  0  0  0  0  0  0  0
   21.9294   14.5272   30.7408 C   0  0  0  0  0  0  0  0  0  0  0  0
   19.1597   12.9412   33.4752 N   0  0  0  0  0  0  0  0  0  0  0  0
   23.4789   15.0438   29.3255 H   0  0  0  0  0  0  0  0  0  0  0  0
   18.1436   12.9993   33.3219 H   0  0  0  0  0  0  0  0  0  0  0  0
   19.5011   12.4701   34.3365 H   0  0  0  0  0  0  0  0  0  0  0  0
   23.4925    9.5041   32.3219 C   0  0  0  0  0  0  0  0  0  0  0  0
   17.9191    7.3071   32.4701 Cl  0  0  0  0  0  0  0  0  0  0  0  0
   19.5448    7.9587   32.4307 C   0  0  0  0  0  0  0  0  0  0  0  0
   19.7910    9.2136   32.9464 C   0  0  0  0  0  0  0  0  0  0  0  0
   21.1008    9.6764   32.8875 C   0  0  0  0  0  0  0  0  0  0  0  0
   22.1378    8.9559   32.3507 C   0  0  0  0  0  0  0  0  0  0  0  0
   21.8711    7.7089   31.8443 C   0  0  0  0  0  0  0  0  0  0  0  0
   20.5832    7.2331   31.8930 C   0  0  0  0  0  0  0  0  0  0  0  0
 21 22  1  0  0  0
 22 23  2  0  0  0
 22 27  1  0  0  0
 23 24  1  0  0  0
 24 25  2  0  0  0
 25 26  1  0  0  0
 25 20  1  0  0  0
 26 27  2  0  0  0
 20  1  1  0  0  0
  1  2  1  0  0  0
  1  6  1  0  0  0
  2  3  1  0  0  0
  3  4  1  0  0  0
  4  5  1  0  0  0
  4  7  1  0  0  0
  5  6  1  0  0  0
  7  8  2  0  0  0
  7 15  1  0  0  0
  8  9  1  0  0  0
  9 10  2  0  0  0
  9 16  1  0  0  0
 10 11  1  0  0  0
 11 12  1  0  0  0
 11 15  2  0  0  0
 12 13  2  0  0  0
 13 14  1  0  0  0
 14 15  1  0  0  0
 14 17  1  0  0  0
 16 18  1  0  0  0
 16 19  1  0  0  0
M  END
> <minimizedAffinity>
-9.09198

$$$$
2149


 24 27  0  0  0  0  0  0  0  0999 V2000
   22.2809    5.8068   30.8058 N   0  0  0  0  0  0  0  0  0  0  0  0
   22.5611    6.5322   29.7394 N   0  0  0  0  0  0  0  0  0  0  0  0
   23.7522    6.2306   29.2565 N   0  0  0  0  0  0  0  0  0  0  0  0
   24.2892    5.2772   30.0172 C   0  0  0  0  0  0  0  0  0  0  0  0
   23.3600    5.0071   30.9982 C   0  0  0  0  0  0  0  0  0  0  0  0
   23.6635    4.0683   31.9062 N   0  0  0  0  0  0  0  0  0  0  0  0
   24.8364    3.4134   31.8582 C   0  0  0  0  0  0  0  0  0  0  0  0
   25.7277    3.6944   30.8913 N   0  0  0  0  0  0  0  0  0  0  0  0
   25.5141    4.6274   29.9267 C   0  0  0  0  0  0  0  0  0  0  0  0
   26.4428    4.9244   28.9134 N   0  0  0  0  0  0  0  0  0  0  0  0
   27.5577    5.8290   29.0051 C   0  0  0  0  0  0  0  0  0  0  0  0
   28.8015    5.0659   28.7375 C   0  0  0  0  0  0  0  0  0  0  0  0
   28.6921    3.8195   28.1051 N   0  0  0  0  0  0  0  0  0  0  0  0
   27.5397    3.4863   27.3821 C   0  0  0  0  0  0  0  0  0  0  0  0
   26.3170    4.2887   27.6253 C   0  0  0  0  0  0  0  0  0  0  0  0
   28.9808    2.7683   29.0642 C   0  0  0  0  0  0  0  0  0  0  0  0
   21.0774    5.8269   31.6351 C   0  0  0  0  0  0  0  0  0  0  0  0
   19.9694   11.4419   33.4836 Cl  0  0  0  0  0  0  0  0  0  0  0  0
   20.3142    9.8035   32.9396 C   0  0  0  0  0  0  0  0  0  0  0  0
   19.3097    8.8698   32.8956 C   0  0  0  0  0  0  0  0  0  0  0  0
   19.5986    7.5851   32.4649 C   0  0  0  0  0  0  0  0  0  0  0  0
   20.8619    7.2269   32.0822 C   0  0  0  0  0  0  0  0  0  0  0  0
   21.8703    8.1600   32.1247 C   0  0  0  0  0  0  0  0  0  0  0  0
   21.5855    9.4324   32.5514 C   0  0  0  0  0  0  0  0  0  0  0  0
 18 19  1  0  0  0
 19 20  2  0  0  0
 19 24  1  0  0  0
 20 21  1  0  0  0
 21 22  2  0  0  0
 22 23  1  0  0  0
 22 17  1  0  0  0
 23 24  2  0  0  0
 17  1  1  0  0  0
  1  2  1  0  0  0
  1  5  1  0  0  0
  2  3  2  0  0  0
  3  4  1  0  0  0
  4  5  2  0  0  0
  4  9  1  0  0  0
  5  6  1  0  0  0
  6  7  2  0  0  0
  7  8  1  0  0  0
  8  9  2  0  0  0
  9 10  1  0  0  0
 10 11  1  0  0  0
 10 15  1  0  0  0
 11 12  1  0  0  0
 12 13  1  0  0  0
 13 14  1  0  0  0
 13 16  1  0  0  0
 14 15  1  0  0  0
M  END
> <minimizedAffinity>
-7.91492

$$$$
2163


 31 34  0  0  0  0  0  0  0  0999 V2000
   24.0948   11.1894   29.4914 C   0  0  0  0  0  0  0  0  0  0  0  0
   23.2111   12.0396   30.0574 N   0  0  0  0  0  0  0  0  0  0  0  0
   23.2257   13.3499   29.7873 C   0  0  0  0  0  0  0  0  0  0  0  0
   24.1479   13.8158   28.9307 N   0  0  0  0  0  0  0  0  0  0  0  0
   25.0670   13.0178   28.3242 C   0  0  0  0  0  0  0  0  0  0  0  0
   24.9926   11.6970   28.6466 N   0  0  0  0  0  0  0  0  0  0  0  0
   22.2968   14.2445   30.3836 N   0  0  0  0  0  0  0  0  0  0  0  0
   22.5366   15.6682   30.4678 C   0  0  0  0  0  0  0  0  0  0  0  0
   22.1252   16.2170   31.8256 C   0  0  0  0  0  0  0  0  0  0  0  0
   20.8765   15.7094   32.2017 O   0  0  0  0  0  0  0  0  0  0  0  0
   20.8979   14.3403   32.3193 C   0  0  0  0  0  0  0  0  0  0  0  0
   21.0568   13.7469   30.9361 C   0  0  0  0  0  0  0  0  0  0  0  0
   26.0310   13.5123   27.4273 N   0  0  0  0  0  0  0  0  0  0  0  0
   26.9509   12.6372   26.7639 C   0  0  0  0  0  0  0  0  0  0  0  0
   28.3536   13.1791   27.0307 C   0  0  0  0  0  0  0  0  0  0  0  0
   28.3708   14.4917   26.5919 O   0  0  0  0  0  0  0  0  0  0  0  0
   27.5729   15.3210   27.3443 C   0  0  0  0  0  0  0  0  0  0  0  0
   26.1089   14.9190   27.1629 C   0  0  0  0  0  0  0  0  0  0  0  0
   24.1071    9.7918   29.7557 N   0  0  0  0  0  0  0  0  0  0  0  0
   24.9889    9.2236   29.6342 H   0  0  0  0  0  0  0  0  0  0  0  0
   22.7855    8.7145   31.3909 C   0  0  0  0  0  0  0  0  0  0  0  0
   22.9762    9.0949   30.1842 N   0  0  0  0  0  0  0  0  0  0  0  0
   17.9087    8.8318   33.5519 Br  0  0  0  0  0  0  0  0  0  0  0  0
   19.4026    7.9349   32.7795 C   0  0  0  0  0  0  0  0  0  0  0  0
   20.5195    8.6328   32.3768 C   0  0  0  0  0  0  0  0  0  0  0  0
   21.5969    7.9866   31.8208 C   0  0  0  0  0  0  0  0  0  0  0  0
   21.5292    6.6179   31.6772 C   0  0  0  0  0  0  0  0  0  0  0  0
   20.4020    5.8979   32.0808 C   0  0  0  0  0  0  0  0  0  0  0  0
   19.3187    6.5551   32.6413 C   0  0  0  0  0  0  0  0  0  0  0  0
   22.6324    5.9896   31.1113 O   0  0  0  0  0  0  0  0  0  0  0  0
   22.9079    4.6151   31.2487 C   0  0  0  0  0  0  0  0  0  0  0  0
 23 24  1  0  0  0
 24 25  2  0  0  0
 24 29  1  0  0  0
 25 26  1  0  0  0
 26 27  2  0  0  0
 26 21  1  0  0  0
 27 28  1  0  0  0
 27 30  1  0  0  0
 28 29  2  0  0  0
 30 31  1  0  0  0
 21 22  2  0  0  0
 22 19  1  0  0  0
 19  1  1  0  0  0
  1  2  2  0  0  0
  1  6  1  0  0  0
  2  3  1  0  0  0
  3  4  2  0  0  0
  3  7  1  0  0  0
  4  5  1  0  0  0
  5  6  2  0  0  0
  5 13  1  0  0  0
 13 14  1  0  0  0
 13 18  1  0  0  0
 14 15  1  0  0  0
 15 16  1  0  0  0
 16 17  1  0  0  0
 17 18  1  0  0  0
  7  8  1  0  0  0
  7 12  1  0  0  0
  8  9  1  0  0  0
  9 10  1  0  0  0
 10 11  1  0  0  0
 11 12  1  0  0  0
 19 20  1  0  0  0
M  END
> <minimizedAffinity>
-8.60334

$$$$
2164


 25 28  0  0  0  0  0  0  0  0999 V2000
   24.4854    9.9619   30.5862 C   0  0  0  0  0  0  0  0  0  0  0  0
   23.3483    9.2497   29.9011 C   0  0  0  0  0  0  0  0  0  0  0  0
   23.0099    8.5357   31.1412 N   0  0  0  0  0  0  0  0  0  0  0  0
   24.3436    8.8699   31.6057 C   0  0  0  0  0  0  0  0  0  0  0  0
   21.8513    7.8474   31.5947 C   0  0  0  0  0  0  0  0  0  0  0  0
   21.6992    6.5069   31.4361 N   0  0  0  0  0  0  0  0  0  0  0  0
   20.5768    5.8695   31.8812 C   0  0  0  0  0  0  0  0  0  0  0  0
   19.5927    6.5416   32.4865 N   0  0  0  0  0  0  0  0  0  0  0  0
   19.6759    7.8597   32.6751 C   0  0  0  0  0  0  0  0  0  0  0  0
   18.8375    8.7482   33.2449 N   0  0  0  0  0  0  0  0  0  0  0  0
   19.4254    9.9216   33.1578 N   0  0  0  0  0  0  0  0  0  0  0  0
   20.6118    9.8074   32.5501 N   0  0  0  0  0  0  0  0  0  0  0  0
   20.8111    8.5020   32.2242 C   0  0  0  0  0  0  0  0  0  0  0  0
   17.5316    8.4957   33.8486 C   0  0  0  0  0  0  0  0  0  0  0  0
   22.8413   11.8369   30.8500 N   0  0  0  0  0  0  0  0  0  0  0  0
   24.1301   11.3350   31.0882 C   0  0  0  0  0  0  0  0  0  0  0  0
   25.0387   11.9266   31.6891 O   0  0  0  0  0  0  0  0  0  0  0  0
   22.1346   11.2162   30.3084 H   0  0  0  0  0  0  0  0  0  0  0  0
   18.7091   15.1326   30.8947 Br  0  0  0  0  0  0  0  0  0  0  0  0
   20.5097   14.6776   31.3211 C   0  0  0  0  0  0  0  0  0  0  0  0
   21.0493   13.4653   30.9601 C   0  0  0  0  0  0  0  0  0  0  0  0
   22.3706   13.0999   31.2584 C   0  0  0  0  0  0  0  0  0  0  0  0
   23.1122   14.0241   31.9393 C   0  0  0  0  0  0  0  0  0  0  0  0
   22.5554   15.2532   32.3010 C   0  0  0  0  0  0  0  0  0  0  0  0
   21.2724   15.5813   31.9993 C   0  0  0  0  0  0  0  0  0  0  0  0
 19 20  1  0  0  0
 20 21  2  0  0  0
 20 25  1  0  0  0
 21 22  1  0  0  0
 22 23  2  0  0  0
 22 15  1  0  0  0
 23 24  1  0  0  0
 24 25  2  0  0  0
 15 16  1  0  0  0
 16 17  2  0  0  0
 16  1  1  0  0  0
  1  2  1  0  0  0
  1  4  1  0  0  0
  2  3  1  0  0  0
  3  4  1  0  0  0
  3  5  1  0  0  0
  5  6  2  0  0  0
  5 13  1  0  0  0
  6  7  1  0  0  0
  7  8  2  0  0  0
  8  9  1  0  0  0
  9 10  1  0  0  0
  9 13  2  0  0  0
 10 11  1  0  0  0
 10 14  1  0  0  0
 11 12  2  0  0  0
 12 13  1  0  0  0
 15 18  1  0  0  0
M  END
> <minimizedAffinity>
-8.83529

$$$$
2170


 32 36  0  0  0  0  0  0  0  0999 V2000
   21.0722   10.4360   31.8829 N   0  0  0  0  0  0  0  0  0  0  0  0
   21.1900   11.7465   31.8546 N   0  0  0  0  0  0  0  0  0  0  0  0
   20.4394   12.3345   32.7972 C   0  0  0  0  0  0  0  0  0  0  0  0
   20.5725   13.6694   32.7505 N   0  0  0  0  0  0  0  0  0  0  0  0
   21.4287   13.9895   31.7562 C   0  0  0  0  0  0  0  0  0  0  0  0
   21.8107   12.7640   31.1993 C   0  0  0  0  0  0  0  0  0  0  0  0
   22.6922   12.8511   30.1427 C   0  0  0  0  0  0  0  0  0  0  0  0
   23.0644   11.7661   29.6032 O   0  0  0  0  0  0  0  0  0  0  0  0
   23.1745   14.0262   29.6576 N   0  0  0  0  0  0  0  0  0  0  0  0
   22.7607   15.1573   30.2485 C   0  0  0  0  0  0  0  0  0  0  0  0
   23.2244   16.2483   29.7788 O   0  0  0  0  0  0  0  0  0  0  0  0
   21.9034   15.1520   31.2787 N   0  0  0  0  0  0  0  0  0  0  0  0
   21.4979   16.4003   31.8663 C   0  0  0  0  0  0  0  0  0  0  0  0
   24.0986   14.0305   28.5465 C   0  0  0  0  0  0  0  0  0  0  0  0
   19.8197   11.3145   33.4431 N   0  0  0  0  0  0  0  0  0  0  0  0
   20.1960   10.1515   32.8947 C   0  0  0  0  0  0  0  0  0  0  0  0
   19.7932    8.8335   33.2552 N   0  0  0  0  0  0  0  0  0  0  0  0
   20.7573    7.8165   33.6396 C   0  0  0  0  0  0  0  0  0  0  0  0
   20.3009    6.5053   33.0487 C   0  0  0  0  0  0  0  0  0  0  0  0
   18.9892    6.2227   33.4623 O   0  0  0  0  0  0  0  0  0  0  0  0
   18.0773    7.0860   32.8959 C   0  0  0  0  0  0  0  0  0  0  0  0
   18.3940    8.4971   33.2460 C   0  0  0  0  0  0  0  0  0  0  0  0
   21.6900    9.4249   31.0567 C   0  0  0  0  0  0  0  0  0  0  0  0
   23.0440    9.0464   31.4978 C   0  0  0  0  0  0  0  0  0  0  0  0
   23.6289    9.6144   32.4469 O   0  0  0  0  0  0  0  0  0  0  0  0
   25.7820    4.5247   28.5887 Cl  0  0  0  0  0  0  0  0  0  0  0  0
   24.9943    5.8486   29.4304 C   0  0  0  0  0  0  0  0  0  0  0  0
   25.5204    7.1333   29.4151 C   0  0  0  0  0  0  0  0  0  0  0  0
   24.8854    8.1608   30.0837 C   0  0  0  0  0  0  0  0  0  0  0  0
   23.7172    7.9655   30.7893 C   0  0  0  0  0  0  0  0  0  0  0  0
   23.1983    6.6651   30.7953 C   0  0  0  0  0  0  0  0  0  0  0  0
   23.8252    5.6329   30.1300 C   0  0  0  0  0  0  0  0  0  0  0  0
 26 27  1  0  0  0
 27 28  2  0  0  0
 27 32  1  0  0  0
 28 29  1  0  0  0
 29 30  2  0  0  0
 30 31  1  0  0  0
 30 24  1  0  0  0
 31 32  2  0  0  0
 24 25  2  0  0  0
 24 23  1  0  0  0
 23  1  1  0  0  0
  1  2  1  0  0  0
  1 16  1  0  0  0
  2  3  1  0  0  0
  2  6  1  0  0  0
  3  4  2  0  0  0
  3 15  1  0  0  0
  4  5  1  0  0  0
  5  6  2  0  0  0
  5 12  1  0  0  0
  6  7  1  0  0  0
  7  8  2  0  0  0
  7  9  1  0  0  0
  9 10  1  0  0  0
  9 14  1  0  0  0
 10 11  2  0  0  0
 10 12  1  0  0  0
 12 13  1  0  0  0
 15 16  2  0  0  0
 16 17  1  0  0  0
 17 18  1  0  0  0
 17 22  1  0  0  0
 18 19  1  0  0  0
 19 20  1  0  0  0
 20 21  1  0  0  0
 21 22  1  0  0  0
M  END
> <minimizedAffinity>
-9.34455

$$$$
2177


 31 35  0  0  0  0  0  0  0  0999 V2000
   25.1348   10.7827   30.5397 N   0  0  0  0  0  0  0  0  0  0  0  0
   24.0095   11.2960   29.7952 C   0  0  0  0  0  0  0  0  0  0  0  0
   22.7999   10.4665   30.1396 C   0  0  0  0  0  0  0  0  0  0  0  0
   22.6662   10.2100   31.5600 N   0  0  0  0  0  0  0  0  0  0  0  0
   23.8204    9.7314   32.2942 C   0  0  0  0  0  0  0  0  0  0  0  0
   24.9931   10.6193   31.9688 C   0  0  0  0  0  0  0  0  0  0  0  0
   27.3290    2.7635   27.4185 Cl  0  0  0  0  0  0  0  0  0  0  0  0
   26.8365    4.3326   28.0635 C   0  0  0  0  0  0  0  0  0  0  0  0
   27.6535    5.4271   27.8856 C   0  0  0  0  0  0  0  0  0  0  0  0
   27.2998    6.6610   28.3749 C   0  0  0  0  0  0  0  0  0  0  0  0
   26.1155    6.8462   29.0591 C   0  0  0  0  0  0  0  0  0  0  0  0
   25.3107    5.7395   29.2281 C   0  0  0  0  0  0  0  0  0  0  0  0
   25.6514    4.4972   28.7441 C   0  0  0  0  0  0  0  0  0  0  0  0
   25.8049    8.1446   29.5405 N   0  0  0  0  0  0  0  0  0  0  0  0
   26.6390    9.2852   29.3649 C   0  0  0  0  0  0  0  0  0  0  0  0
   26.3220   10.4741   29.8223 C   0  0  0  0  0  0  0  0  0  0  0  0
   27.8584    9.1044   28.6612 N   0  0  0  0  0  0  0  0  0  0  0  0
   28.1866    7.8248   28.1749 C   0  0  0  0  0  0  0  0  0  0  0  0
   29.2632    7.5880   27.5359 O   0  0  0  0  0  0  0  0  0  0  0  0
   24.9130    8.2938   30.0585 H   0  0  0  0  0  0  0  0  0  0  0  0
   28.5236    9.8925   28.4913 H   0  0  0  0  0  0  0  0  0  0  0  0
   21.4122   10.4290   32.2092 C   0  0  0  0  0  0  0  0  0  0  0  0
   21.0874   11.6801   32.5900 N   0  0  0  0  0  0  0  0  0  0  0  0
   19.9019   11.9336   33.2120 C   0  0  0  0  0  0  0  0  0  0  0  0
   19.0263   10.9352   33.4615 N   0  0  0  0  0  0  0  0  0  0  0  0
   19.2920    9.6735   33.1074 C   0  0  0  0  0  0  0  0  0  0  0  0
   18.6172    8.5162   33.2310 N   0  0  0  0  0  0  0  0  0  0  0  0
   19.3638    7.5652   32.6985 N   0  0  0  0  0  0  0  0  0  0  0  0
   20.5274    8.0940   32.2252 C   0  0  0  0  0  0  0  0  0  0  0  0
   20.5107    9.4312   32.4711 C   0  0  0  0  0  0  0  0  0  0  0  0
   17.2979    8.3139   33.8376 C   0  0  0  0  0  0  0  0  0  0  0  0
  7  8  1  0  0  0
  8  9  2  0  0  0
  8 13  1  0  0  0
  9 10  1  0  0  0
 10 11  2  0  0  0
 10 18  1  0  0  0
 11 12  1  0  0  0
 11 14  1  0  0  0
 12 13  2  0  0  0
 14 15  1  0  0  0
 15 16  2  0  0  0
 15 17  1  0  0  0
 16  1  1  0  0  0
  1  2  1  0  0  0
  1  6  1  0  0  0
  2  3  1  0  0  0
  3  4  1  0  0  0
  4  5  1  0  0  0
  4 22  1  0  0  0
  5  6  1  0  0  0
 22 23  2  0  0  0
 22 30  1  0  0  0
 23 24  1  0  0  0
 24 25  2  0  0  0
 25 26  1  0  0  0
 26 27  1  0  0  0
 26 30  2  0  0  0
 27 28  1  0  0  0
 27 31  1  0  0  0
 28 29  2  0  0  0
 29 30  1  0  0  0
 17 18  1  0  0  0
 18 19  2  0  0  0
 14 20  1  0  0  0
 17 21  1  0  0  0
M  END
> <minimizedAffinity>
-8.49830

$$$$
2184


 29 32  0  0  0  0  0  0  0  0999 V2000
   24.4839    9.7326   30.8575 N   0  0  0  0  0  0  0  0  0  0  0  0
   24.0508   10.4997   31.9223 C   0  0  0  0  0  0  0  0  0  0  0  0
   24.6588   11.9426   31.8436 C   0  0  0  0  0  0  0  0  0  0  0  0
   23.8363   12.4524   30.6446 N   0  0  0  0  0  0  0  0  0  0  0  0
   24.1930   11.8175   29.4719 C   0  0  0  0  0  0  0  0  0  0  0  0
   25.1246   10.6518   29.8724 C   0  0  0  0  0  0  0  0  0  0  0  0
   25.3317    9.1710   31.1935 H   0  0  0  0  0  0  0  0  0  0  0  0
   22.8590   13.3977   31.0243 C   0  0  0  0  0  0  0  0  0  0  0  0
   22.8761   14.7234   30.7641 C   0  0  0  0  0  0  0  0  0  0  0  0
   21.7302   15.5438   30.9702 C   0  0  0  0  0  0  0  0  0  0  0  0
   20.5540   15.0263   31.4432 C   0  0  0  0  0  0  0  0  0  0  0  0
   20.5284   13.6636   31.7225 C   0  0  0  0  0  0  0  0  0  0  0  0
   21.6508   12.8739   31.5224 C   0  0  0  0  0  0  0  0  0  0  0  0
   19.4641   15.8674   31.6299 O   0  0  0  0  0  0  0  0  0  0  0  0
   18.2584   15.6930   30.8697 C   0  0  0  0  0  0  0  0  0  0  0  0
   23.6997    8.8351   30.1282 C   0  0  0  0  0  0  0  0  0  0  0  0
   19.3199    9.1224   32.8479 Cl  0  0  0  0  0  0  0  0  0  0  0  0
   20.4147    7.8602   32.2725 C   0  0  0  0  0  0  0  0  0  0  0  0
   21.5607    8.1122   31.5668 C   0  0  0  0  0  0  0  0  0  0  0  0
   22.3859    7.1090   31.1953 C   0  0  0  0  0  0  0  0  0  0  0  0
   22.1055    5.8089   31.5127 C   0  0  0  0  0  0  0  0  0  0  0  0
   20.9200    5.5442   32.2396 C   0  0  0  0  0  0  0  0  0  0  0  0
   20.0734    6.5482   32.6175 C   0  0  0  0  0  0  0  0  0  0  0  0
   18.8858    6.2476   33.3217 O   0  0  0  0  0  0  0  0  0  0  0  0
   22.8899    4.8189   31.1942 O   0  0  0  0  0  0  0  0  0  0  0  0
   24.0189    5.0497   30.5338 C   0  0  0  0  0  0  0  0  0  0  0  0
   24.7489    4.0942   30.2422 O   0  0  0  0  0  0  0  0  0  0  0  0
   24.3830    6.3621   30.1704 C   0  0  0  0  0  0  0  0  0  0  0  0
   23.5898    7.4107   30.4830 C   0  0  0  0  0  0  0  0  0  0  0  0
 17 18  1  0  0  0
 18 19  2  0  0  0
 18 23  1  0  0  0
 19 20  1  0  0  0
 20 21  2  0  0  0
 20 29  1  0  0  0
 21 22  1  0  0  0
 21 25  1  0  0  0
 22 23  2  0  0  0
 23 24  1  0  0  0
 25 26  1  0  0  0
 26 27  2  0  0  0
 26 28  1  0  0  0
 28 29  2  0  0  0
 29 16  1  0  0  0
 16  1  1  0  0  0
  1  2  1  0  0  0
  1  6  1  0  0  0
  2  3  1  0  0  0
  3  4  1  0  0  0
  4  5  1  0  0  0
  4  8  1  0  0  0
  5  6  1  0  0  0
  8  9  2  0  0  0
  8 13  1  0  0  0
  9 10  1  0  0  0
 10 11  2  0  0  0
 11 12  1  0  0  0
 11 14  1  0  0  0
 12 13  2  0  0  0
 14 15  1  0  0  0
  1  7  1  0  0  0
M  CHG 1   1   1
M  CHG 1  24  -1
M  END
> <minimizedAffinity>
-9.82693

$$$$
2195


 29 32  0  0  0  0  0  0  0  0999 V2000
   21.9889    9.6259   31.0495 C   0  0  0  0  0  0  0  0  0  0  0  0
   22.0032    8.3107   30.8430 N   0  0  0  0  0  0  0  0  0  0  0  0
   21.3364    7.4593   31.6416 C   0  0  0  0  0  0  0  0  0  0  0  0
   21.1851    6.1065   31.6579 N   0  0  0  0  0  0  0  0  0  0  0  0
   20.4115    5.8313   32.6866 N   0  0  0  0  0  0  0  0  0  0  0  0
   20.0569    6.9270   33.3309 N   0  0  0  0  0  0  0  0  0  0  0  0
   20.6146    7.9728   32.7107 C   0  0  0  0  0  0  0  0  0  0  0  0
   20.5908    9.3383   32.9371 C   0  0  0  0  0  0  0  0  0  0  0  0
   21.2886   10.1003   32.0843 N   0  0  0  0  0  0  0  0  0  0  0  0
   19.8752    9.8708   34.0003 O   0  0  0  0  0  0  0  0  0  0  0  0
   18.8763    9.7410   34.0535 H   0  0  0  0  0  0  0  0  0  0  0  0
   23.2528   12.8769   31.0204 N   0  0  0  0  0  0  0  0  0  0  0  0
   22.3615   12.0041   30.4007 C   0  0  0  0  0  0  0  0  0  0  0  0
   22.7086   10.5985   30.1824 C   0  0  0  0  0  0  0  0  0  0  0  0
   24.1903   10.3722   30.3371 C   0  0  0  0  0  0  0  0  0  0  0  0
   24.6211   10.9301   31.6461 C   0  0  0  0  0  0  0  0  0  0  0  0
   24.3898   12.4134   31.6675 C   0  0  0  0  0  0  0  0  0  0  0  0
   22.5589   14.3186   31.5788 S   0  0  0  0  0  0  0  0  0  0  0  0
   22.3407   15.3233   30.5025 O   0  0  0  0  0  0  0  0  0  0  0  0
   23.4569   14.8840   32.6604 O   0  0  0  0  0  0  0  0  0  0  0  0
   20.9840   14.0033   32.3895 C   0  0  0  0  0  0  0  0  0  0  0  0
   21.7588    5.1780   30.7345 C   0  0  0  0  0  0  0  0  0  0  0  0
   23.0800    4.6559   31.1598 C   0  0  0  0  0  0  0  0  0  0  0  0
   24.2053    5.1428   30.5440 C   0  0  0  0  0  0  0  0  0  0  0  0
   25.4844    4.7069   30.8824 C   0  0  0  0  0  0  0  0  0  0  0  0
   25.6487    3.7551   31.8657 C   0  0  0  0  0  0  0  0  0  0  0  0
   24.5239    3.2621   32.4887 C   0  0  0  0  0  0  0  0  0  0  0  0
   23.2495    3.7056   32.1419 C   0  0  0  0  0  0  0  0  0  0  0  0
   24.0673    6.3535   29.2861 Cl  0  0  0  0  0  0  0  0  0  0  0  0
 18 19  2  0  0  0
 18 20  2  0  0  0
 18 12  1  0  0  0
 18 21  1  0  0  0
 12 13  1  0  0  0
 12 17  1  0  0  0
 13 14  1  0  0  0
 14 15  1  0  0  0
 14  1  1  0  0  0
 15 16  1  0  0  0
 16 17  1  0  0  0
  1  2  2  0  0  0
  1  9  1  0  0  0
  2  3  1  0  0  0
  3  4  1  0  0  0
  3  7  2  0  0  0
  4  5  1  0  0  0
  4 22  1  0  0  0
  5  6  2  0  0  0
  6  7  1  0  0  0
  7  8  1  0  0  0
  8  9  2  0  0  0
  8 10  1  0  0  0
 22 23  1  0  0  0
 23 24  2  0  0  0
 23 28  1  0  0  0
 24 25  1  0  0  0
 24 29  1  0  0  0
 25 26  2  0  0  0
 26 27  1  0  0  0
 27 28  2  0  0  0
 10 11  1  0  0  0
M  END
> <minimizedAffinity>
-9.50401

$$$$
2197


 28 31  0  0  0  0  0  0  0  0999 V2000
   23.3595   10.4475   29.9659 N   0  0  0  0  0  0  0  0  0  0  0  0
   23.5814    9.0329   29.6021 C   0  0  0  0  0  0  0  0  0  0  0  0
   24.9159    8.6491   30.1249 C   0  0  0  0  0  0  0  0  0  0  0  0
   25.9620    9.4644   29.8981 O   0  0  0  0  0  0  0  0  0  0  0  0
   25.7608   10.7353   29.5200 C   0  0  0  0  0  0  0  0  0  0  0  0
   24.3575   11.1597   29.2565 C   0  0  0  0  0  0  0  0  0  0  0  0
   25.2263    7.2956   29.5781 C   0  0  0  0  0  0  0  0  0  0  0  0
   26.1394    7.2212   28.7132 O   0  0  0  0  0  0  0  0  0  0  0  0
   24.5763    6.1066   29.9576 N   0  0  0  0  0  0  0  0  0  0  0  0
   23.5092    6.0363   30.9379 C   0  0  0  0  0  0  0  0  0  0  0  0
   23.0127    4.6043   30.9587 C   0  0  0  0  0  0  0  0  0  0  0  0
   24.0441    3.6600   31.3456 N   0  0  0  0  0  0  0  0  0  0  0  0
   25.2243    3.9042   30.5793 C   0  0  0  0  0  0  0  0  0  0  0  0
   24.9424    4.8080   29.3723 C   0  0  0  0  0  0  0  0  0  0  0  0
   24.2098    3.7319   32.7614 C   0  0  0  0  0  0  0  0  0  0  0  0
   23.5366    2.6150   33.5111 C   0  0  0  0  0  0  0  0  0  0  0  0
   24.5160    1.7411   34.2931 C   0  0  0  0  0  0  0  0  0  0  0  0
   23.7089    1.2061   33.1517 C   0  0  0  0  0  0  0  0  0  0  0  0
   23.2290   10.6451   31.6327 S   0  0  0  0  0  0  0  0  0  0  0  0
   23.2305    9.2448   32.2605 O   0  0  0  0  0  0  0  0  0  0  0  0
   24.4244   11.3250   32.2546 O   0  0  0  0  0  0  0  0  0  0  0  0
   21.7412   11.3797   32.1386 C   0  0  0  0  0  0  0  0  0  0  0  0
   21.4593   12.7036   31.8820 C   0  0  0  0  0  0  0  0  0  0  0  0
   20.3030   13.3119   32.3317 C   0  0  0  0  0  0  0  0  0  0  0  0
   19.3937   12.5839   33.0574 C   0  0  0  0  0  0  0  0  0  0  0  0
   19.6593   11.2486   33.3234 C   0  0  0  0  0  0  0  0  0  0  0  0
   20.8056   10.6531   32.8775 C   0  0  0  0  0  0  0  0  0  0  0  0
   22.5449   13.6803   30.8748 Cl  0  0  0  0  0  0  0  0  0  0  0  0
 19 20  2  0  0  0
 19 21  2  0  0  0
 19  1  1  0  0  0
 19 22  1  0  0  0
  1  2  1  0  0  0
  1  6  1  0  0  0
  2  3  1  0  0  0
  3  4  1  0  0  0
  3  7  1  0  0  0
  4  5  1  0  0  0
  5  6  1  0  0  0
  7  8  2  0  0  0
  7  9  1  0  0  0
  9 10  1  0  0  0
  9 14  1  0  0  0
 10 11  1  0  0  0
 11 12  1  0  0  0
 12 13  1  0  0  0
 12 15  1  0  0  0
 13 14  1  0  0  0
 15 16  1  0  0  0
 16 17  1  0  0  0
 16 18  1  0  0  0
 17 18  1  0  0  0
 22 23  2  0  0  0
 22 27  1  0  0  0
 23 24  1  0  0  0
 23 28  1  0  0  0
 24 25  2  0  0  0
 25 26  1  0  0  0
 26 27  2  0  0  0
M  END
> <minimizedAffinity>
-7.97350

$$$$
2210


 33 36  0  0  0  0  0  0  0  0999 V2000
   21.5885    5.4165   31.8637 C   0  0  0  0  0  0  0  0  0  0  0  0
   21.1170    6.6288   32.1825 C   0  0  0  0  0  0  0  0  0  0  0  0
   21.8750    7.7934   32.1436 O   0  0  0  0  0  0  0  0  0  0  0  0
   21.0589    8.8733   32.5077 C   0  0  0  0  0  0  0  0  0  0  0  0
   19.7856    8.4882   32.7956 C   0  0  0  0  0  0  0  0  0  0  0  0
   18.8141    9.3935   33.1534 C   0  0  0  0  0  0  0  0  0  0  0  0
   19.1244   10.7472   33.2280 C   0  0  0  0  0  0  0  0  0  0  0  0
   20.4327   11.1353   32.9337 C   0  0  0  0  0  0  0  0  0  0  0  0
   21.3887   10.2372   32.5840 C   0  0  0  0  0  0  0  0  0  0  0  0
   20.6627   12.5071   33.0325 O   0  0  0  0  0  0  0  0  0  0  0  0
   19.7831    7.0087   32.5979 C   0  0  0  0  0  0  0  0  0  0  0  0
   18.8234    6.2442   32.7628 O   0  0  0  0  0  0  0  0  0  0  0  0
   25.5722    7.8117   29.3111 Br  0  0  0  0  0  0  0  0  0  0  0  0
   24.8270    6.3512   30.2811 C   0  0  0  0  0  0  0  0  0  0  0  0
   23.5074    6.4333   30.7573 C   0  0  0  0  0  0  0  0  0  0  0  0
   23.0000    5.3878   31.4428 C   0  0  0  0  0  0  0  0  0  0  0  0
   23.7373    4.2495   31.6813 C   0  0  0  0  0  0  0  0  0  0  0  0
   25.0509    4.1877   31.1937 C   0  0  0  0  0  0  0  0  0  0  0  0
   25.6050    5.2403   30.4929 C   0  0  0  0  0  0  0  0  0  0  0  0
   23.1783    3.1924   32.3844 O   0  0  0  0  0  0  0  0  0  0  0  0
   23.7724    2.4823   33.4145 C   0  0  0  0  0  0  0  0  0  0  0  0
   22.8276   10.5486   32.4468 C   0  0  0  0  0  0  0  0  0  0  0  0
   23.1165   11.4267   31.4130 N   0  0  0  0  0  0  0  0  0  0  0  0
   22.3344   11.1177   30.1746 C   0  0  0  0  0  0  0  0  0  0  0  0
   21.7495   12.4879   29.7499 C   0  0  0  0  0  0  0  0  0  0  0  0
   22.4439   13.5306   30.4367 N   0  0  0  0  0  0  0  0  0  0  0  0
   23.8511   13.4405   30.4210 C   0  0  0  0  0  0  0  0  0  0  0  0
   24.2992   12.0397   31.0277 C   0  0  0  0  0  0  0  0  0  0  0  0
   22.4604   12.2973   31.7697 H   0  0  0  0  0  0  0  0  0  0  0  0
   21.7214   14.5198   31.0658 C   0  0  0  0  0  0  0  0  0  0  0  0
   22.1467   15.9501   30.9677 C   0  0  0  0  0  0  0  0  0  0  0  0
   21.5142   16.5910   29.8901 O   0  0  0  0  0  0  0  0  0  0  0  0
   21.2206   17.5134   30.1888 H   0  0  0  0  0  0  0  0  0  0  0  0
 13 14  1  0  0  0
 14 15  2  0  0  0
 14 19  1  0  0  0
 15 16  1  0  0  0
 16 17  2  0  0  0
 16  1  1  0  0  0
 17 18  1  0  0  0
 17 20  1  0  0  0
 18 19  2  0  0  0
 20 21  1  0  0  0
  1  2  2  0  0  0
  2  3  1  0  0  0
  2 11  1  0  0  0
  3  4  1  0  0  0
  4  5  2  0  0  0
  4  9  1  0  0  0
  5  6  1  0  0  0
  5 11  1  0  0  0
  6  7  2  0  0  0
  7  8  1  0  0  0
  8  9  2  0  0  0
  8 10  1  0  0  0
  9 22  1  0  0  0
 22 23  1  0  0  0
 23 24  1  0  0  0
 23 28  1  0  0  0
 24 25  1  0  0  0
 25 26  1  0  0  0
 26 27  1  0  0  0
 26 30  1  0  0  0
 27 28  1  0  0  0
 30 31  1  0  0  0
 31 32  1  0  0  0
 11 12  2  0  0  0
 23 29  1  0  0  0
 32 33  1  0  0  0
M  CHG 1  10  -1
M  CHG 1  23   1
M  END
> <minimizedAffinity>
-8.97209

$$$$
2213


 31 34  0  0  0  0  0  0  0  0999 V2000
   30.0095   14.7532   20.5412 Cl  0  0  0  0  0  0  0  0  0  0  0  0
   28.6165   14.8003   21.5993 C   0  0  0  0  0  0  0  0  0  0  0  0
   28.8248   15.0981   22.9542 C   0  0  0  0  0  0  0  0  0  0  0  0
   27.7541   15.1417   23.8082 C   0  0  0  0  0  0  0  0  0  0  0  0
   26.4914   14.8818   23.2639 C   0  0  0  0  0  0  0  0  0  0  0  0
   26.2991   14.5901   21.9319 C   0  0  0  0  0  0  0  0  0  0  0  0
   27.3767   14.5449   21.0664 C   0  0  0  0  0  0  0  0  0  0  0  0
   24.7010   14.2667   21.2715 Cl  0  0  0  0  0  0  0  0  0  0  0  0
   27.8792   15.4453   25.2418 C   0  0  0  0  0  0  0  0  0  0  0  0
   29.2840   15.6886   25.6109 C   0  0  0  0  0  0  0  0  0  0  0  0
   30.3327   15.6401   24.7473 C   0  0  0  0  0  0  0  0  0  0  0  0
   31.6182   15.8740   25.1420 N   0  0  0  0  0  0  0  0  0  0  0  0
   31.8257   16.1573   26.4255 C   0  0  0  0  0  0  0  0  0  0  0  0
   33.0065   16.3822   26.8403 O   0  0  0  0  0  0  0  0  0  0  0  0
   30.8152   16.2158   27.3164 N   0  0  0  0  0  0  0  0  0  0  0  0
   29.5517   15.9894   26.9405 C   0  0  0  0  0  0  0  0  0  0  0  0
   28.6086   16.0440   27.7706 O   0  0  0  0  0  0  0  0  0  0  0  0
   31.1075   16.5333   28.7072 C   0  0  0  0  0  0  0  0  0  0  0  0
   32.7119   15.8134   24.1964 C   0  0  0  0  0  0  0  0  0  0  0  0
   30.0981   15.3469   23.4314 O   0  0  0  0  0  0  0  0  0  0  0  0
   27.2679   14.3649   26.0850 C   0  0  0  0  0  0  0  0  0  0  0  0
   27.7792   13.0903   26.1168 C   0  0  0  0  0  0  0  0  0  0  0  0
   27.2485   12.1010   26.8524 N   0  0  0  0  0  0  0  0  0  0  0  0
   26.1587   12.3767   27.5943 C   0  0  0  0  0  0  0  0  0  0  0  0
   25.6655   11.4362   28.2833 O   0  0  0  0  0  0  0  0  0  0  0  0
   25.6244   13.6106   27.5928 N   0  0  0  0  0  0  0  0  0  0  0  0
   26.1403   14.6120   26.8664 C   0  0  0  0  0  0  0  0  0  0  0  0
   25.6646   15.7724   26.8453 O   0  0  0  0  0  0  0  0  0  0  0  0
   24.4545   13.8557   28.4043 C   0  0  0  0  0  0  0  0  0  0  0  0
   27.8145   10.7655   26.8679 C   0  0  0  0  0  0  0  0  0  0  0  0
   28.8954   12.8092   25.3558 O   0  0  0  0  0  0  0  0  0  0  0  0
  1  2  1  0  0  0
  2  3  2  0  0  0
  2  7  1  0  0  0
  3  4  1  0  0  0
  3 20  1  0  0  0
  4  5  2  0  0  0
  4  9  1  0  0  0
  5  6  1  0  0  0
  6  7  2  0  0  0
  6  8  1  0  0  0
  9 10  1  0  0  0
  9 21  1  0  0  0
 10 11  2  0  0  0
 10 16  1  0  0  0
 11 12  1  0  0  0
 11 20  1  0  0  0
 12 13  1  0  0  0
 12 19  1  0  0  0
 13 14  2  0  0  0
 13 15  1  0  0  0
 15 16  1  0  0  0
 15 18  1  0  0  0
 16 17  2  0  0  0
 21 22  2  0  0  0
 21 27  1  0  0  0
 22 23  1  0  0  0
 22 31  1  0  0  0
 23 24  1  0  0  0
 23 30  1  0  0  0
 24 25  2  0  0  0
 24 26  1  0  0  0
 26 27  1  0  0  0
 26 29  1  0  0  0
 27 28  2  0  0  0
M  CHG 1  31  -1
M  END
> <minimizedAffinity>
-6.96941

$$$$
2214


 34 38  0  0  0  0  0  0  0  0999 V2000
   19.4413   12.4971   34.5806 Cl  0  0  0  0  0  0  0  0  0  0  0  0
   20.1686   11.4231   33.4048 C   0  0  0  0  0  0  0  0  0  0  0  0
   21.1299   11.8439   32.5266 C   0  0  0  0  0  0  0  0  0  0  0  0
   21.6837   10.9527   31.6038 C   0  0  0  0  0  0  0  0  0  0  0  0
   21.2370    9.6649   31.6106 C   0  0  0  0  0  0  0  0  0  0  0  0
   20.2503    9.2302   32.5110 C   0  0  0  0  0  0  0  0  0  0  0  0
   19.7086   10.1016   33.4128 C   0  0  0  0  0  0  0  0  0  0  0  0
   21.9265    8.9377   30.5989 N   0  0  0  0  0  0  0  0  0  0  0  0
   22.8305    9.7911   29.9395 C   0  0  0  0  0  0  0  0  0  0  0  0
   23.5870    9.4257   28.9850 O   0  0  0  0  0  0  0  0  0  0  0  0
   22.7115   11.1137   30.5616 C   0  0  0  0  0  0  0  0  0  0  0  0
   22.2182   12.1154   29.6425 N   0  0  0  0  0  0  0  0  0  0  0  0
   23.2170   13.1128   29.4234 C   0  0  0  0  0  0  0  0  0  0  0  0
   24.4455   12.5899   30.0557 C   0  0  0  0  0  0  0  0  0  0  0  0
   24.0219   11.6156   31.1197 C   0  0  0  0  0  0  0  0  0  0  0  0
   25.0929   10.5964   31.0687 C   0  0  0  0  0  0  0  0  0  0  0  0
   25.4088    9.7510   31.9430 O   0  0  0  0  0  0  0  0  0  0  0  0
   25.7900   10.6839   29.8076 N   0  0  0  0  0  0  0  0  0  0  0  0
   25.1507   11.7107   29.0585 C   0  0  0  0  0  0  0  0  0  0  0  0
   25.1944   11.8237   27.8111 O   0  0  0  0  0  0  0  0  0  0  0  0
   21.7963    7.9084   30.3607 H   0  0  0  0  0  0  0  0  0  0  0  0
   21.3576   12.5964   29.9862 H   0  0  0  0  0  0  0  0  0  0  0  0
   26.9174    9.8703   29.4041 C   0  0  0  0  0  0  0  0  0  0  0  0
   27.9447   10.6326   28.6123 C   0  0  0  0  0  0  0  0  0  0  0  0
   28.8543   11.2294   29.4814 O   0  0  0  0  0  0  0  0  0  0  0  0
   29.8948   10.3449   29.6525 C   0  0  0  0  0  0  0  0  0  0  0  0
   29.9985    9.4947   28.4052 C   0  0  0  0  0  0  0  0  0  0  0  0
   28.7224    9.8074   27.6487 C   0  0  0  0  0  0  0  0  0  0  0  0
   22.7976   14.4759   29.9050 C   0  0  0  0  0  0  0  0  0  0  0  0
   23.0374   15.5569   28.9674 C   0  0  0  0  0  0  0  0  0  0  0  0
   22.8586   16.7429   29.3169 O   0  0  0  0  0  0  0  0  0  0  0  0
   23.4738   15.2946   27.6500 N   0  0  0  0  0  0  0  0  0  0  0  0
   24.3246   15.7831   27.2849 H   0  0  0  0  0  0  0  0  0  0  0  0
   23.0043   14.6385   26.9983 H   0  0  0  0  0  0  0  0  0  0  0  0
  1  2  1  0  0  0
  2  3  2  0  0  0
  2  7  1  0  0  0
  3  4  1  0  0  0
  4  5  2  0  0  0
  4 11  1  0  0  0
  5  6  1  0  0  0
  5  8  1  0  0  0
  6  7  2  0  0  0
  8  9  1  0  0  0
  9 10  2  0  0  0
  9 11  1  0  0  0
 11 12  1  0  0  0
 11 15  1  0  0  0
 12 13  1  0  0  0
 13 14  1  0  0  0
 13 29  1  0  0  0
 14 15  1  0  0  0
 14 19  1  0  0  0
 15 16  1  0  0  0
 16 17  2  0  0  0
 16 18  1  0  0  0
 18 19  1  0  0  0
 18 23  1  0  0  0
 19 20  2  0  0  0
 23 24  1  0  0  0
 24 25  1  0  0  0
 24 28  1  0  0  0
 25 26  1  0  0  0
 26 27  1  0  0  0
 27 28  1  0  0  0
 29 30  1  0  0  0
 30 31  2  0  0  0
 30 32  1  0  0  0
  8 21  1  0  0  0
 12 22  1  0  0  0
 32 33  1  0  0  0
 32 34  1  0  0  0
M  END
> <minimizedAffinity>
-8.12023

$$$$
2225


 29 32  0  0  0  0  0  0  0  0999 V2000
   24.8399    9.5843   30.7086 C   0  0  0  0  0  0  0  0  0  0  0  0
   25.4786    9.3829   31.8278 O   0  0  0  0  0  0  0  0  0  0  0  0
   24.4519   10.8916   30.4620 N   0  0  0  0  0  0  0  0  0  0  0  0
   24.7854   11.9193   31.4954 C   0  0  0  0  0  0  0  0  0  0  0  0
   23.5729   12.8101   31.5961 C   0  0  0  0  0  0  0  0  0  0  0  0
   22.3622   12.1844   31.0961 N   0  0  0  0  0  0  0  0  0  0  0  0
   22.3397   11.8118   29.7070 C   0  0  0  0  0  0  0  0  0  0  0  0
   23.7637   11.4424   29.3243 C   0  0  0  0  0  0  0  0  0  0  0  0
   21.2707   11.9601   31.9615 C   0  0  0  0  0  0  0  0  0  0  0  0
   20.8475   10.6987   32.2529 N   0  0  0  0  0  0  0  0  0  0  0  0
   19.8300   10.4375   33.0617 C   0  0  0  0  0  0  0  0  0  0  0  0
   19.1882   11.4968   33.6189 N   0  0  0  0  0  0  0  0  0  0  0  0
   19.5396   12.7481   33.3847 C   0  0  0  0  0  0  0  0  0  0  0  0
   20.6080   13.0154   32.5346 C   0  0  0  0  0  0  0  0  0  0  0  0
   19.3776    9.1320   33.3743 N   0  0  0  0  0  0  0  0  0  0  0  0
   20.3356    8.0370   33.4823 C   0  0  0  0  0  0  0  0  0  0  0  0
   19.8006    6.9444   32.5516 C   0  0  0  0  0  0  0  0  0  0  0  0
   18.5558    6.5466   32.9605 O   0  0  0  0  0  0  0  0  0  0  0  0
   17.5886    7.5215   32.9057 C   0  0  0  0  0  0  0  0  0  0  0  0
   17.9910    8.8045   33.5974 C   0  0  0  0  0  0  0  0  0  0  0  0
   24.6493    8.3628   29.9027 C   0  0  0  0  0  0  0  0  0  0  0  0
   24.5580    7.1776   30.3894 O   0  0  0  0  0  0  0  0  0  0  0  0
   23.8631    1.8490   32.7731 Cl  0  0  0  0  0  0  0  0  0  0  0  0
   24.0865    3.4278   32.0624 C   0  0  0  0  0  0  0  0  0  0  0  0
   25.3080    3.8389   31.5811 C   0  0  0  0  0  0  0  0  0  0  0  0
   25.4957    5.0669   31.0232 C   0  0  0  0  0  0  0  0  0  0  0  0
   24.4407    5.9979   30.9074 C   0  0  0  0  0  0  0  0  0  0  0  0
   23.1965    5.5583   31.4067 C   0  0  0  0  0  0  0  0  0  0  0  0
   23.0447    4.3211   31.9582 C   0  0  0  0  0  0  0  0  0  0  0  0
 23 24  1  0  0  0
 24 25  2  0  0  0
 24 29  1  0  0  0
 25 26  1  0  0  0
 26 27  2  0  0  0
 27 28  1  0  0  0
 27 22  1  0  0  0
 28 29  2  0  0  0
 22 21  1  0  0  0
 21  1  1  0  0  0
  1  2  2  0  0  0
  1  3  1  0  0  0
  3  4  1  0  0  0
  3  8  1  0  0  0
  4  5  1  0  0  0
  5  6  1  0  0  0
  6  7  1  0  0  0
  6  9  1  0  0  0
  7  8  1  0  0  0
  9 10  2  0  0  0
  9 14  1  0  0  0
 10 11  1  0  0  0
 11 12  2  0  0  0
 11 15  1  0  0  0
 12 13  1  0  0  0
 13 14  2  0  0  0
 15 16  1  0  0  0
 15 20  1  0  0  0
 16 17  1  0  0  0
 17 18  1  0  0  0
 18 19  1  0  0  0
 19 20  1  0  0  0
M  END
> <minimizedAffinity>
-7.85945

$$$$
2231


 27 31  0  0  0  0  0  0  0  0999 V2000
   22.1782    6.3547   31.2733 N   0  0  0  0  0  0  0  0  0  0  0  0
   22.4066    5.0558   31.1930 N   0  0  0  0  0  0  0  0  0  0  0  0
   23.5311    4.7958   30.5548 N   0  0  0  0  0  0  0  0  0  0  0  0
   24.1031    5.9528   30.1799 C   0  0  0  0  0  0  0  0  0  0  0  0
   23.2361    6.9230   30.6411 C   0  0  0  0  0  0  0  0  0  0  0  0
   23.5562    8.2153   30.4053 N   0  0  0  0  0  0  0  0  0  0  0  0
   24.6903    8.5041   29.7405 C   0  0  0  0  0  0  0  0  0  0  0  0
   25.5375    7.5465   29.2893 N   0  0  0  0  0  0  0  0  0  0  0  0
   25.2667    6.2447   29.4970 C   0  0  0  0  0  0  0  0  0  0  0  0
   26.1477    5.2231   29.0301 N   0  0  0  0  0  0  0  0  0  0  0  0
   25.9518    4.7742   27.6646 C   0  0  0  0  0  0  0  0  0  0  0  0
   27.2372    4.1750   27.0988 C   0  0  0  0  0  0  0  0  0  0  0  0
   27.9594    3.4643   28.0916 N   0  0  0  0  0  0  0  0  0  0  0  0
   28.4207    4.3379   29.2143 C   0  0  0  0  0  0  0  0  0  0  0  0
   27.1414    4.7283   29.9305 C   0  0  0  0  0  0  0  0  0  0  0  0
   28.2413    2.1090   28.0989 C   0  0  0  0  0  0  0  0  0  0  0  0
   28.9362    1.7072   29.1498 O   0  0  0  0  0  0  0  0  0  0  0  0
   27.9254    1.0262   27.1798 C   0  0  0  0  0  0  0  0  0  0  0  0
   28.0229   -0.3705   27.6639 C   0  0  0  0  0  0  0  0  0  0  0  0
   26.7212    0.2026   27.1539 C   0  0  0  0  0  0  0  0  0  0  0  0
   17.4409    8.8851   33.8206 Cl  0  0  0  0  0  0  0  0  0  0  0  0
   18.8293    8.1531   33.0773 C   0  0  0  0  0  0  0  0  0  0  0  0
   19.9716    8.8897   32.8898 C   0  0  0  0  0  0  0  0  0  0  0  0
   21.0747    8.3138   32.3000 C   0  0  0  0  0  0  0  0  0  0  0  0
   21.0732    7.0023   31.8854 C   0  0  0  0  0  0  0  0  0  0  0  0
   19.9129    6.2884   32.0864 C   0  0  0  0  0  0  0  0  0  0  0  0
   18.7954    6.8492   32.6761 C   0  0  0  0  0  0  0  0  0  0  0  0
 21 22  1  0  0  0
 22 23  2  0  0  0
 22 27  1  0  0  0
 23 24  1  0  0  0
 24 25  2  0  0  0
 25 26  1  0  0  0
 25  1  1  0  0  0
 26 27  2  0  0  0
  1  2  1  0  0  0
  1  5  1  0  0  0
  2  3  2  0  0  0
  3  4  1  0  0  0
  4  5  2  0  0  0
  4  9  1  0  0  0
  5  6  1  0  0  0
  6  7  2  0  0  0
  7  8  1  0  0  0
  8  9  2  0  0  0
  9 10  1  0  0  0
 10 11  1  0  0  0
 10 15  1  0  0  0
 11 12  1  0  0  0
 12 13  1  0  0  0
 13 14  1  0  0  0
 13 16  1  0  0  0
 14 15  1  0  0  0
 16 17  2  0  0  0
 16 18  1  0  0  0
 18 19  1  0  0  0
 18 20  1  0  0  0
 19 20  1  0  0  0
M  END
> <minimizedAffinity>
-8.16317

$$$$
2242


 32 35  0  0  0  0  0  0  0  0999 V2000
   22.7921    8.7215   30.7049 N   0  0  0  0  0  0  0  0  0  0  0  0
   24.1003    8.2920   30.9408 C   0  0  0  0  0  0  0  0  0  0  0  0
   24.9428    8.9824   31.5321 O   0  0  0  0  0  0  0  0  0  0  0  0
   22.1373    8.0564   30.1842 H   0  0  0  0  0  0  0  0  0  0  0  0
   21.0343    8.4949   33.0373 Cl  0  0  0  0  0  0  0  0  0  0  0  0
   21.4180    9.9864   32.2055 C   0  0  0  0  0  0  0  0  0  0  0  0
   20.8673   11.1490   32.6659 C   0  0  0  0  0  0  0  0  0  0  0  0
   21.1206   12.3515   32.0679 C   0  0  0  0  0  0  0  0  0  0  0  0
   21.9512   12.3679   30.9791 C   0  0  0  0  0  0  0  0  0  0  0  0
   22.5147   11.1689   30.5095 C   0  0  0  0  0  0  0  0  0  0  0  0
   22.2692    9.9599   31.0975 C   0  0  0  0  0  0  0  0  0  0  0  0
   22.2606   13.5494   30.3107 O   0  0  0  0  0  0  0  0  0  0  0  0
   22.0558   14.8405   30.9034 C   0  0  0  0  0  0  0  0  0  0  0  0
   20.9011   14.7865   31.8480 C   0  0  0  0  0  0  0  0  0  0  0  0
   20.2268   15.8273   32.0249 O   0  0  0  0  0  0  0  0  0  0  0  0
   20.5651   13.5860   32.5363 N   0  0  0  0  0  0  0  0  0  0  0  0
   19.9310   13.6038   33.3590 H   0  0  0  0  0  0  0  0  0  0  0  0
   24.5489    6.9487   30.4805 C   0  0  0  0  0  0  0  0  0  0  0  0
   24.5373    5.9659   31.3266 N   0  0  0  0  0  0  0  0  0  0  0  0
   24.9410    4.6786   30.9779 N   0  0  0  0  0  0  0  0  0  0  0  0
   25.3765    4.4334   29.6595 C   0  0  0  0  0  0  0  0  0  0  0  0
   25.6523    3.2215   29.3626 O   0  0  0  0  0  0  0  0  0  0  0  0
   25.5159    5.5052   28.6530 C   0  0  0  0  0  0  0  0  0  0  0  0
   24.9832    6.7254   29.1495 N   0  0  0  0  0  0  0  0  0  0  0  0
   24.8988    7.5421   28.4897 H   0  0  0  0  0  0  0  0  0  0  0  0
   24.9195    3.6066   31.9516 C   0  0  0  0  0  0  0  0  0  0  0  0
   26.0521    2.8936   32.2610 C   0  0  0  0  0  0  0  0  0  0  0  0
   26.0065    1.8655   33.2083 C   0  0  0  0  0  0  0  0  0  0  0  0
   24.8267    1.5448   33.8487 C   0  0  0  0  0  0  0  0  0  0  0  0
   23.7010    2.2674   33.5270 C   0  0  0  0  0  0  0  0  0  0  0  0
   23.7529    3.2687   32.6032 C   0  0  0  0  0  0  0  0  0  0  0  0
   24.7256    0.4595   34.8697 C   0  0  0  0  0  0  0  0  0  0  0  0
  5  6  1  0  0  0
  6  7  2  0  0  0
  6 11  1  0  0  0
  7  8  1  0  0  0
  8  9  2  0  0  0
  8 16  1  0  0  0
  9 10  1  0  0  0
  9 12  1  0  0  0
 10 11  2  0  0  0
 11  1  1  0  0  0
  1  2  1  0  0  0
  2  3  2  0  0  0
  2 18  1  0  0  0
 18 19  2  0  0  0
 18 24  1  0  0  0
 19 20  1  0  0  0
 20 21  1  0  0  0
 20 26  1  0  0  0
 21 22  2  0  0  0
 21 23  1  0  0  0
 23 24  1  0  0  0
 26 27  2  0  0  0
 26 31  1  0  0  0
 27 28  1  0  0  0
 28 29  2  0  0  0
 29 30  1  0  0  0
 29 32  1  0  0  0
 30 31  2  0  0  0
 12 13  1  0  0  0
 13 14  1  0  0  0
 14 15  2  0  0  0
 14 16  1  0  0  0
  1  4  1  0  0  0
 24 25  1  0  0  0
 16 17  1  0  0  0
M  END
> <minimizedAffinity>
-9.46970

$$$$
2266


 27 30  0  0  0  0  0  0  0  0999 V2000
   24.0384    9.3611   30.2202 N   0  0  0  0  0  0  0  0  0  0  0  0
   24.9421    9.9129   31.1479 C   0  0  0  0  0  0  0  0  0  0  0  0
   25.1784   11.3994   30.9661 C   0  0  0  0  0  0  0  0  0  0  0  0
   23.8255   12.0319   30.9484 C   0  0  0  0  0  0  0  0  0  0  0  0
   22.8730   11.4295   30.1527 C   0  0  0  0  0  0  0  0  0  0  0  0
   21.6453   11.9456   30.0932 N   0  0  0  0  0  0  0  0  0  0  0  0
   21.3783   13.0487   30.8214 C   0  0  0  0  0  0  0  0  0  0  0  0
   22.2880   13.6541   31.6048 N   0  0  0  0  0  0  0  0  0  0  0  0
   21.7398   14.7260   32.2072 N   0  0  0  0  0  0  0  0  0  0  0  0
   20.4572   14.8545   31.8378 C   0  0  0  0  0  0  0  0  0  0  0  0
   20.2141   13.8145   30.9720 C   0  0  0  0  0  0  0  0  0  0  0  0
   23.5424   13.1583   31.6888 C   0  0  0  0  0  0  0  0  0  0  0  0
   24.4362   13.6801   32.4032 O   0  0  0  0  0  0  0  0  0  0  0  0
   23.2914   10.2225   29.4005 C   0  0  0  0  0  0  0  0  0  0  0  0
   22.2631   15.3491   32.8636 H   0  0  0  0  0  0  0  0  0  0  0  0
   23.4876    7.7996   30.4891 S   0  0  0  0  0  0  0  0  0  0  0  0
   23.2520    7.0476   29.1870 O   0  0  0  0  0  0  0  0  0  0  0  0
   24.6055    7.0205   31.1749 O   0  0  0  0  0  0  0  0  0  0  0  0
   22.0588    7.6359   31.4352 C   0  0  0  0  0  0  0  0  0  0  0  0
   21.4461    6.3949   31.5931 C   0  0  0  0  0  0  0  0  0  0  0  0
   20.3020    6.2998   32.3546 C   0  0  0  0  0  0  0  0  0  0  0  0
   19.7448    7.3770   32.9628 C   0  0  0  0  0  0  0  0  0  0  0  0
   20.3220    8.6083   32.8273 C   0  0  0  0  0  0  0  0  0  0  0  0
   21.4670    8.7049   32.0649 C   0  0  0  0  0  0  0  0  0  0  0  0
   19.6176   10.0281   33.6086 Cl  0  0  0  0  0  0  0  0  0  0  0  0
   21.9458    5.2537   31.0113 O   0  0  0  0  0  0  0  0  0  0  0  0
   22.6834    4.3480   31.8005 C   0  0  0  0  0  0  0  0  0  0  0  0
 16 17  2  0  0  0
 16 18  2  0  0  0
 16  1  1  0  0  0
 16 19  1  0  0  0
  1  2  1  0  0  0
  1 14  1  0  0  0
  2  3  1  0  0  0
  3  4  1  0  0  0
  4  5  2  0  0  0
  4 12  1  0  0  0
  5  6  1  0  0  0
  5 14  1  0  0  0
  6  7  2  0  0  0
  7  8  1  0  0  0
  7 11  1  0  0  0
  8  9  1  0  0  0
  8 12  1  0  0  0
  9 10  1  0  0  0
 10 11  2  0  0  0
 12 13  2  0  0  0
 19 20  2  0  0  0
 19 24  1  0  0  0
 20 21  1  0  0  0
 20 26  1  0  0  0
 21 22  2  0  0  0
 22 23  1  0  0  0
 23 24  2  0  0  0
 23 25  1  0  0  0
 26 27  1  0  0  0
  9 15  1  0  0  0
M  END
> <minimizedAffinity>
-8.91966

$$$$
2267


 27 30  0  0  0  0  0  0  0  0999 V2000
   23.4350    9.0156   30.9512 N   0  0  0  0  0  0  0  0  0  0  0  0
   23.4886    7.6966   30.5047 C   0  0  0  0  0  0  0  0  0  0  0  0
   22.6350    6.7462   31.3112 C   0  0  0  0  0  0  0  0  0  0  0  0
   21.4643    7.3951   31.9461 C   0  0  0  0  0  0  0  0  0  0  0  0
   21.6401    8.6742   32.4155 C   0  0  0  0  0  0  0  0  0  0  0  0
   20.6394    9.3385   33.0052 N   0  0  0  0  0  0  0  0  0  0  0  0
   19.4162    8.7295   33.1419 C   0  0  0  0  0  0  0  0  0  0  0  0
   19.2624    7.4733   32.6749 N   0  0  0  0  0  0  0  0  0  0  0  0
   18.0007    7.1143   32.9269 N   0  0  0  0  0  0  0  0  0  0  0  0
   17.3547    8.1006   33.5362 C   0  0  0  0  0  0  0  0  0  0  0  0
   18.2339    9.1700   33.6966 C   0  0  0  0  0  0  0  0  0  0  0  0
   20.2281    6.7631   32.0776 C   0  0  0  0  0  0  0  0  0  0  0  0
   20.0832    5.5949   31.6434 O   0  0  0  0  0  0  0  0  0  0  0  0
   22.9605    9.3050   32.2528 C   0  0  0  0  0  0  0  0  0  0  0  0
   17.5698    6.1930   32.6848 H   0  0  0  0  0  0  0  0  0  0  0  0
   23.4827   10.2594   29.8406 S   0  0  0  0  0  0  0  0  0  0  0  0
   24.8930   10.4142   29.3186 O   0  0  0  0  0  0  0  0  0  0  0  0
   22.6130    9.9675   28.6539 O   0  0  0  0  0  0  0  0  0  0  0  0
   23.0108   11.8195   30.4768 C   0  0  0  0  0  0  0  0  0  0  0  0
   21.7105   12.2910   30.4219 C   0  0  0  0  0  0  0  0  0  0  0  0
   21.3937   13.5366   30.9422 C   0  0  0  0  0  0  0  0  0  0  0  0
   22.3358   14.3499   31.5286 C   0  0  0  0  0  0  0  0  0  0  0  0
   23.6307   13.8813   31.5840 C   0  0  0  0  0  0  0  0  0  0  0  0
   23.9456   12.6441   31.0672 C   0  0  0  0  0  0  0  0  0  0  0  0
   19.7423   14.1179   30.8638 Cl  0  0  0  0  0  0  0  0  0  0  0  0
   21.9924   15.6077   32.0498 O   0  0  0  0  0  0  0  0  0  0  0  0
   22.8183   16.2096   33.0286 C   0  0  0  0  0  0  0  0  0  0  0  0
 16 17  2  0  0  0
 16 18  2  0  0  0
 16  1  1  0  0  0
 16 19  1  0  0  0
  1  2  1  0  0  0
  1 14  1  0  0  0
  2  3  1  0  0  0
  3  4  1  0  0  0
  4  5  2  0  0  0
  4 12  1  0  0  0
  5  6  1  0  0  0
  5 14  1  0  0  0
  6  7  2  0  0  0
  7  8  1  0  0  0
  7 11  1  0  0  0
  8  9  1  0  0  0
  8 12  1  0  0  0
  9 10  1  0  0  0
 10 11  2  0  0  0
 12 13  2  0  0  0
 19 20  2  0  0  0
 19 24  1  0  0  0
 20 21  1  0  0  0
 21 22  2  0  0  0
 21 25  1  0  0  0
 22 23  1  0  0  0
 22 26  1  0  0  0
 23 24  2  0  0  0
 26 27  1  0  0  0
  9 15  1  0  0  0
M  END
> <minimizedAffinity>
-9.19870

$$$$
2270


 22 24  0  0  0  0  0  0  0  0999 V2000
   23.6260   10.9030   31.6259 C   0  0  0  0  0  0  0  0  0  0  0  0
   24.7928   10.9522   32.1082 O   0  0  0  0  0  0  0  0  0  0  0  0
   23.0200   12.0498   31.0270 N   0  0  0  0  0  0  0  0  0  0  0  0
   22.0763   11.9603   30.6519 H   0  0  0  0  0  0  0  0  0  0  0  0
   20.3332    5.9103   32.0840 Cl  0  0  0  0  0  0  0  0  0  0  0  0
   21.3224    7.3601   31.9302 C   0  0  0  0  0  0  0  0  0  0  0  0
   20.8996    8.5328   32.5189 C   0  0  0  0  0  0  0  0  0  0  0  0
   21.6859    9.6550   32.3880 C   0  0  0  0  0  0  0  0  0  0  0  0
   22.8957    9.6624   31.6858 C   0  0  0  0  0  0  0  0  0  0  0  0
   23.3062    8.4967   31.1067 C   0  0  0  0  0  0  0  0  0  0  0  0
   22.5195    7.3456   31.2294 C   0  0  0  0  0  0  0  0  0  0  0  0
   19.7032    8.5560   33.2226 O   0  0  0  0  0  0  0  0  0  0  0  0
   18.9815    9.7580   33.4096 C   0  0  0  0  0  0  0  0  0  0  0  0
   23.7793   13.2645   30.9863 C   0  0  0  0  0  0  0  0  0  0  0  0
   23.0721   14.5150   31.3270 C   0  0  0  0  0  0  0  0  0  0  0  0
   22.2250   14.4996   32.4798 N   0  0  0  0  0  0  0  0  0  0  0  0
   22.3975   15.8345   33.1029 C   0  0  0  0  0  0  0  0  0  0  0  0
   22.2757   16.8082   31.9241 C   0  0  0  0  0  0  0  0  0  0  0  0
   21.5376   16.2348   30.8168 N   0  0  0  0  0  0  0  0  0  0  0  0
   22.2581   15.1209   30.1953 C   0  0  0  0  0  0  0  0  0  0  0  0
   20.3344   15.6439   31.3765 C   0  0  0  0  0  0  0  0  0  0  0  0
   20.8056   14.4478   32.1946 C   0  0  0  0  0  0  0  0  0  0  0  0
  5  6  1  0  0  0
  6  7  2  0  0  0
  6 11  1  0  0  0
  7  8  1  0  0  0
  7 12  1  0  0  0
  8  9  2  0  0  0
  9 10  1  0  0  0
  9  1  1  0  0  0
 10 11  2  0  0  0
  1  2  2  0  0  0
  1  3  1  0  0  0
  3 14  1  0  0  0
 14 15  1  0  0  0
 15 16  1  0  0  0
 15 20  1  0  0  0
 16 17  1  0  0  0
 16 22  1  0  0  0
 17 18  1  0  0  0
 18 19  1  0  0  0
 19 20  1  0  0  0
 19 21  1  0  0  0
 21 22  1  0  0  0
 12 13  1  0  0  0
  3  4  1  0  0  0
M  END
> <minimizedAffinity>
-7.29646

$$$$
2271


 27 30  0  0  0  0  0  0  0  0999 V2000
   24.3503   10.0311   32.1593 C   0  0  0  0  0  0  0  0  0  0  0  0
   23.0014   10.3037   32.2094 N   0  0  0  0  0  0  0  0  0  0  0  0
   22.7858   11.3203   31.2008 C   0  0  0  0  0  0  0  0  0  0  0  0
   21.9007   11.5467   30.2853 C   0  0  0  0  0  0  0  0  0  0  0  0
   21.9366   12.7030   29.3717 C   0  0  0  0  0  0  0  0  0  0  0  0
   23.0918   13.6242   29.5415 C   0  0  0  0  0  0  0  0  0  0  0  0
   23.7459   13.5603   30.8803 C   0  0  0  0  0  0  0  0  0  0  0  0
   23.8774   12.2062   31.3741 N   0  0  0  0  0  0  0  0  0  0  0  0
   24.9361   11.4689   32.0582 C   0  0  0  0  0  0  0  0  0  0  0  0
   24.8484    9.5862   33.4166 O   0  0  0  0  0  0  0  0  0  0  0  0
   22.8460   10.8814   33.1151 H   0  0  0  0  0  0  0  0  0  0  0  0
   24.6915   10.3378   34.0443 H   0  0  0  0  0  0  0  0  0  0  0  0
   27.0002    6.8542   27.8159 Cl  0  0  0  0  0  0  0  0  0  0  0  0
   26.2181    7.7694   29.0797 C   0  0  0  0  0  0  0  0  0  0  0  0
   25.3151    7.2066   29.9727 C   0  0  0  0  0  0  0  0  0  0  0  0
   24.7146    7.9397   30.9534 C   0  0  0  0  0  0  0  0  0  0  0  0
   24.9885    9.2867   31.0927 C   0  0  0  0  0  0  0  0  0  0  0  0
   25.8802    9.8491   30.2138 C   0  0  0  0  0  0  0  0  0  0  0  0
   26.4882    9.1030   29.2190 C   0  0  0  0  0  0  0  0  0  0  0  0
   22.0063    9.3386   32.2308 C   0  0  0  0  0  0  0  0  0  0  0  0
   22.0782    8.0795   31.7395 C   0  0  0  0  0  0  0  0  0  0  0  0
   20.9899    7.2155   31.8481 C   0  0  0  0  0  0  0  0  0  0  0  0
   19.8012    7.5886   32.4521 C   0  0  0  0  0  0  0  0  0  0  0  0
   19.7578    8.8766   32.9431 C   0  0  0  0  0  0  0  0  0  0  0  0
   20.8092    9.7494   32.8516 C   0  0  0  0  0  0  0  0  0  0  0  0
   18.7431    6.6984   32.5383 O   0  0  0  0  0  0  0  0  0  0  0  0
   17.4515    7.1863   32.7953 C   0  0  0  0  0  0  0  0  0  0  0  0
 13 14  1  0  0  0
 14 15  2  0  0  0
 14 19  1  0  0  0
 15 16  1  0  0  0
 16 17  2  0  0  0
 17 18  1  0  0  0
 17  1  1  0  0  0
 18 19  2  0  0  0
  1  2  1  0  0  0
  1  9  1  0  0  0
  1 10  1  0  0  0
  2  3  1  0  0  0
  2 20  1  0  0  0
  3  4  2  0  0  0
  3  8  1  0  0  0
  4  5  1  0  0  0
  5  6  1  0  0  0
  6  7  1  0  0  0
  7  8  1  0  0  0
  8  9  1  0  0  0
 20 21  2  0  0  0
 20 25  1  0  0  0
 21 22  1  0  0  0
 22 23  2  0  0  0
 23 24  1  0  0  0
 23 26  1  0  0  0
 24 25  2  0  0  0
 26 27  1  0  0  0
  2 11  1  0  0  0
 10 12  1  0  0  0
M  CHG 1   2   1
M  END
> <minimizedAffinity>
-7.03617

$$$$
2272


 29 32  0  0  0  0  0  0  0  0999 V2000
   24.7422    8.9587   29.7468 C   0  0  0  0  0  0  0  0  0  0  0  0
   26.0321    8.9450   29.7686 O   0  0  0  0  0  0  0  0  0  0  0  0
   24.1564   10.1981   29.4817 N   0  0  0  0  0  0  0  0  0  0  0  0
   22.7168   10.4884   29.6196 C   0  0  0  0  0  0  0  0  0  0  0  0
   22.7869   11.4174   30.8722 C   0  0  0  0  0  0  0  0  0  0  0  0
   23.4740   12.6381   30.4743 N   0  0  0  0  0  0  0  0  0  0  0  0
   24.3437   12.6417   29.4307 C   0  0  0  0  0  0  0  0  0  0  0  0
   24.9051   11.3207   28.9875 C   0  0  0  0  0  0  0  0  0  0  0  0
   24.1207    7.6775   29.9789 C   0  0  0  0  0  0  0  0  0  0  0  0
   23.7233    7.2357   31.3126 C   0  0  0  0  0  0  0  0  0  0  0  0
   17.2634    8.6627   33.7189 Cl  0  0  0  0  0  0  0  0  0  0  0  0
   18.8091    8.1586   33.0816 C   0  0  0  0  0  0  0  0  0  0  0  0
   18.9718    6.9027   32.5653 C   0  0  0  0  0  0  0  0  0  0  0  0
   20.2197    6.5299   32.0494 C   0  0  0  0  0  0  0  0  0  0  0  0
   21.2953    7.3863   32.0436 C   0  0  0  0  0  0  0  0  0  0  0  0
   21.1413    8.6813   32.5695 C   0  0  0  0  0  0  0  0  0  0  0  0
   19.8942    9.0157   33.0708 C   0  0  0  0  0  0  0  0  0  0  0  0
   22.3503    6.7953   31.4892 N   0  0  0  0  0  0  0  0  0  0  0  0
   21.9140    5.5367   31.1453 C   0  0  0  0  0  0  0  0  0  0  0  0
   22.6216    4.6477   30.5897 O   0  0  0  0  0  0  0  0  0  0  0  0
   20.6558    5.4301   31.4945 O   0  0  0  0  0  0  0  0  0  0  0  0
   23.4187   13.5241   31.5380 C   0  0  0  0  0  0  0  0  0  0  0  0
   22.2177   14.4653   31.4349 C   0  0  0  0  0  0  0  0  0  0  0  0
   22.4606   15.5339   30.7540 O   0  0  0  0  0  0  0  0  0  0  0  0
   21.0589   14.1737   32.0140 N   0  0  0  0  0  0  0  0  0  0  0  0
   20.4464   15.2226   31.4063 H   0  0  0  0  0  0  0  0  0  0  0  0
   19.8258   13.8628   32.6310 C   0  0  0  0  0  0  0  0  0  0  0  0
   19.8952   12.6932   33.6857 C   0  0  0  0  0  0  0  0  0  0  0  0
   19.2449   12.4825   32.4062 C   0  0  0  0  0  0  0  0  0  0  0  0
 11 12  1  0  0  0
 12 13  2  0  0  0
 12 17  1  0  0  0
 13 14  1  0  0  0
 14 15  2  0  0  0
 14 21  1  0  0  0
 15 16  1  0  0  0
 15 18  1  0  0  0
 16 17  2  0  0  0
 18 19  1  0  0  0
 18 10  1  0  0  0
 19 20  2  0  0  0
 19 21  1  0  0  0
 10  9  1  0  0  0
  9  1  1  0  0  0
  1  2  2  0  0  0
  1  3  1  0  0  0
  3  4  1  0  0  0
  3  8  1  0  0  0
  4  5  1  0  0  0
  5  6  1  0  0  0
  6  7  1  0  0  0
  6 22  1  0  0  0
  7  8  1  0  0  0
 22 23  1  0  0  0
 23 24  2  0  0  0
 23 25  1  0  0  0
 25 27  1  0  0  0
 27 28  1  0  0  0
 27 29  1  0  0  0
 28 29  1  0  0  0
 25 26  1  0  0  0
M  END
> <minimizedAffinity>
-8.61602

$$$$
2275


 21 23  0  0  0  0  0  0  0  0999 V2000
   19.1744   13.2964   32.8694 Cl  0  0  0  0  0  0  0  0  0  0  0  0
   20.5905   12.6373   32.0807 C   0  0  0  0  0  0  0  0  0  0  0  0
   21.2584   13.3778   31.1274 C   0  0  0  0  0  0  0  0  0  0  0  0
   22.3674   12.7981   30.5519 C   0  0  0  0  0  0  0  0  0  0  0  0
   23.0547   13.3914   29.6653 O   0  0  0  0  0  0  0  0  0  0  0  0
   22.7508   11.5681   30.9251 N   0  0  0  0  0  0  0  0  0  0  0  0
   22.1439   10.8261   31.8302 N   0  0  0  0  0  0  0  0  0  0  0  0
   22.5949    9.4964   32.2053 C   0  0  0  0  0  0  0  0  0  0  0  0
   22.3199    8.4690   31.1276 C   0  0  0  0  0  0  0  0  0  0  0  0
   23.3974    8.5189   30.0583 C   0  0  0  0  0  0  0  0  0  0  0  0
   23.4443    9.8729   29.3881 C   0  0  0  0  0  0  0  0  0  0  0  0
   23.9378   10.9687   30.2955 C   0  0  0  0  0  0  0  0  0  0  0  0
   24.7171   10.3427   31.3966 C   0  0  0  0  0  0  0  0  0  0  0  0
   24.0989    9.5947   32.3039 C   0  0  0  0  0  0  0  0  0  0  0  0
   21.0404   11.3783   32.4161 C   0  0  0  0  0  0  0  0  0  0  0  0
   20.4311   10.6825   33.2972 O   0  0  0  0  0  0  0  0  0  0  0  0
   20.8488   14.6822   30.7279 N   0  0  0  0  0  0  0  0  0  0  0  0
   20.1117   14.6894   29.9597 H   0  0  0  0  0  0  0  0  0  0  0  0
   21.3583   15.9047   31.2869 C   0  0  0  0  0  0  0  0  0  0  0  0
   22.2130   15.6530   32.5172 C   0  0  0  0  0  0  0  0  0  0  0  0
   22.1527   16.7365   30.3362 C   0  0  0  0  0  0  0  0  0  0  0  0
  1  2  1  0  0  0
  2  3  2  0  0  0
  2 15  1  0  0  0
  3  4  1  0  0  0
  3 17  1  0  0  0
  4  5  2  0  0  0
  4  6  1  0  0  0
  6  7  1  0  0  0
  6 12  1  0  0  0
  7  8  1  0  0  0
  7 15  1  0  0  0
  8  9  1  0  0  0
  8 14  1  0  0  0
  9 10  1  0  0  0
 10 11  1  0  0  0
 11 12  1  0  0  0
 12 13  1  0  0  0
 13 14  2  0  0  0
 15 16  2  0  0  0
 17 19  1  0  0  0
 19 20  1  0  0  0
 19 21  1  0  0  0
 17 18  1  0  0  0
M  END
> <minimizedAffinity>
-7.53004

$$$$
2276


 21 24  0  0  0  0  0  0  0  0999 V2000
   19.3284   13.1654   33.0962 Cl  0  0  0  0  0  0  0  0  0  0  0  0
   20.6656   12.4742   32.1989 C   0  0  0  0  0  0  0  0  0  0  0  0
   21.2569   13.2473   31.2217 C   0  0  0  0  0  0  0  0  0  0  0  0
   22.3145   12.6304   30.5414 C   0  0  0  0  0  0  0  0  0  0  0  0
   22.8856   13.2842   29.6473 O   0  0  0  0  0  0  0  0  0  0  0  0
   22.7004   11.3840   30.8397 N   0  0  0  0  0  0  0  0  0  0  0  0
   22.1278   10.6475   31.7794 N   0  0  0  0  0  0  0  0  0  0  0  0
   22.6748    9.3132   31.9803 C   0  0  0  0  0  0  0  0  0  0  0  0
   22.5876    8.6059   30.6405 C   0  0  0  0  0  0  0  0  0  0  0  0
   23.1753    9.4295   29.5777 C   0  0  0  0  0  0  0  0  0  0  0  0
   23.7984   10.7156   30.1374 C   0  0  0  0  0  0  0  0  0  0  0  0
   24.7237   10.2752   31.2374 C   0  0  0  0  0  0  0  0  0  0  0  0
   24.1523    9.5542   32.1871 C   0  0  0  0  0  0  0  0  0  0  0  0
   23.8183    8.0975   29.9878 C   0  0  0  0  0  0  0  0  0  0  0  0
   21.1175   11.1832   32.4564 C   0  0  0  0  0  0  0  0  0  0  0  0
   20.5671   10.4918   33.3511 O   0  0  0  0  0  0  0  0  0  0  0  0
   20.8603   14.5767   30.8967 N   0  0  0  0  0  0  0  0  0  0  0  0
   20.1284   14.6534   30.1592 H   0  0  0  0  0  0  0  0  0  0  0  0
   21.3774   15.7568   31.4873 C   0  0  0  0  0  0  0  0  0  0  0  0
   22.3251   15.5229   32.6351 C   0  0  0  0  0  0  0  0  0  0  0  0
   22.1108   16.6511   30.4975 C   0  0  0  0  0  0  0  0  0  0  0  0
  1  2  1  0  0  0
  2  3  2  0  0  0
  2 15  1  0  0  0
  3  4  1  0  0  0
  3 17  1  0  0  0
  4  5  2  0  0  0
  4  6  1  0  0  0
  6  7  1  0  0  0
  6 11  1  0  0  0
  7  8  1  0  0  0
  7 15  1  0  0  0
  8  9  1  0  0  0
  8 13  1  0  0  0
  9 10  1  0  0  0
  9 14  1  0  0  0
 10 11  1  0  0  0
 10 14  1  0  0  0
 11 12  1  0  0  0
 12 13  2  0  0  0
 15 16  2  0  0  0
 17 19  1  0  0  0
 19 20  1  0  0  0
 19 21  1  0  0  0
 17 18  1  0  0  0
M  END
> <minimizedAffinity>
-7.60336

$$$$
2281


 34 37  0  0  0  0  0  0  0  0999 V2000
   23.1967    8.1981   29.9014 N   0  0  0  0  0  0  0  0  0  0  0  0
   22.3223    7.1652   29.5366 C   0  0  0  0  0  0  0  0  0  0  0  0
   22.8590    5.8495   30.2109 C   0  0  0  0  0  0  0  0  0  0  0  0
   23.8463    5.9834   31.1619 N   0  0  0  0  0  0  0  0  0  0  0  0
   24.7356    7.1113   31.1037 C   0  0  0  0  0  0  0  0  0  0  0  0
   24.6492    7.7833   29.6942 C   0  0  0  0  0  0  0  0  0  0  0  0
   21.4096    8.3287   32.3873 Cl  0  0  0  0  0  0  0  0  0  0  0  0
   22.1905    9.7086   31.5152 C   0  0  0  0  0  0  0  0  0  0  0  0
   23.0635    9.4085   30.5638 C   0  0  0  0  0  0  0  0  0  0  0  0
   23.7089   10.5780   29.9192 C   0  0  0  0  0  0  0  0  0  0  0  0
   23.3544   11.7439   30.3099 N   0  0  0  0  0  0  0  0  0  0  0  0
   22.4396   12.0080   31.2795 N   0  0  0  0  0  0  0  0  0  0  0  0
   21.8571   11.0114   31.8873 C   0  0  0  0  0  0  0  0  0  0  0  0
   20.9762   11.1508   32.8023 O   0  0  0  0  0  0  0  0  0  0  0  0
   21.9763   13.3904   31.3876 C   0  0  0  0  0  0  0  0  0  0  0  0
   20.7170   13.7722   31.0532 C   0  0  0  0  0  0  0  0  0  0  0  0
   20.2724   15.0566   31.2802 C   0  0  0  0  0  0  0  0  0  0  0  0
   21.1089   16.0059   31.8651 C   0  0  0  0  0  0  0  0  0  0  0  0
   22.3991   15.5872   32.1901 C   0  0  0  0  0  0  0  0  0  0  0  0
   22.8114   14.3325   31.9603 C   0  0  0  0  0  0  0  0  0  0  0  0
   24.8071    4.8330   31.2485 C   0  0  0  0  0  0  0  0  0  0  0  0
   24.2736    3.8140   32.1400 C   0  0  0  0  0  0  0  0  0  0  0  0
   23.4069    3.7401   32.8410 O   0  0  0  0  0  0  0  0  0  0  0  0
   25.2371    2.4061   32.0521 N   0  0  0  0  0  0  0  0  0  0  0  0
   24.2319    1.5300   32.7510 C   0  0  0  0  0  0  0  0  0  0  0  0
   23.4664    1.8863   33.6040 O   0  0  0  0  0  0  0  0  0  0  0  0
   24.3025    0.1821   32.2356 N   0  0  0  0  0  0  0  0  0  0  0  0
   25.7507    2.8611   31.6952 H   0  0  0  0  0  0  0  0  0  0  0  0
   25.0666    0.0154   31.4993 H   0  0  0  0  0  0  0  0  0  0  0  0
   23.5062   -0.9264   32.6059 C   0  0  0  0  0  0  0  0  0  0  0  0
   23.3236   -2.0437   31.6622 C   0  0  0  0  0  0  0  0  0  0  0  0
   24.4185   -3.0748   31.9537 C   0  0  0  0  0  0  0  0  0  0  0  0
   24.5683   -2.9275   33.4499 C   0  0  0  0  0  0  0  0  0  0  0  0
   24.2336   -1.5491   33.8157 C   0  0  0  0  0  0  0  0  0  0  0  0
  7  8  1  0  0  0
  8  9  2  0  0  0
  8 13  1  0  0  0
  9 10  1  0  0  0
  9  1  1  0  0  0
 10 11  2  0  0  0
 11 12  1  0  0  0
 12 13  1  0  0  0
 12 15  1  0  0  0
 13 14  2  0  0  0
 15 16  2  0  0  0
 15 20  1  0  0  0
 16 17  1  0  0  0
 17 18  2  0  0  0
 18 19  1  0  0  0
 19 20  2  0  0  0
  1  2  1  0  0  0
  1  6  1  0  0  0
  2  3  1  0  0  0
  3  4  1  0  0  0
  4  5  1  0  0  0
  4 21  1  0  0  0
  5  6  1  0  0  0
 21 22  1  0  0  0
 22 23  2  0  0  0
 22 24  1  0  0  0
 24 25  1  0  0  0
 25 26  2  0  0  0
 25 27  1  0  0  0
 27 30  1  0  0  0
 30 31  1  0  0  0
 30 34  1  0  0  0
 31 32  1  0  0  0
 32 33  1  0  0  0
 33 34  1  0  0  0
 24 28  1  0  0  0
 27 29  1  0  0  0
M  END
> <minimizedAffinity>
-8.01479

$$$$
2282


 31 34  0  0  0  0  0  0  0  0999 V2000
   23.2159   12.1936   30.4377 N   0  0  0  0  0  0  0  0  0  0  0  0
   23.8747   13.1237   31.3232 C   0  0  0  0  0  0  0  0  0  0  0  0
   22.8573   13.9604   32.0336 C   0  0  0  0  0  0  0  0  0  0  0  0
   21.5670   13.3635   31.7937 N   0  0  0  0  0  0  0  0  0  0  0  0
   21.2171   13.5599   30.4333 C   0  0  0  0  0  0  0  0  0  0  0  0
   22.1413   12.6656   29.6010 C   0  0  0  0  0  0  0  0  0  0  0  0
   25.8090   11.6742   29.1045 Cl  0  0  0  0  0  0  0  0  0  0  0  0
   24.7768   10.4204   29.7584 C   0  0  0  0  0  0  0  0  0  0  0  0
   23.5851   10.8259   30.3525 C   0  0  0  0  0  0  0  0  0  0  0  0
   22.7965    9.8135   30.8558 C   0  0  0  0  0  0  0  0  0  0  0  0
   23.1882    8.5309   30.7600 N   0  0  0  0  0  0  0  0  0  0  0  0
   24.3142    8.1254   30.1999 N   0  0  0  0  0  0  0  0  0  0  0  0
   25.1150    9.0828   29.6950 C   0  0  0  0  0  0  0  0  0  0  0  0
   26.1973    8.7206   29.1540 O   0  0  0  0  0  0  0  0  0  0  0  0
   24.6675    6.7375   30.1368 C   0  0  0  0  0  0  0  0  0  0  0  0
   24.5836    5.9519   31.2631 C   0  0  0  0  0  0  0  0  0  0  0  0
   24.9253    4.5958   31.2131 C   0  0  0  0  0  0  0  0  0  0  0  0
   25.3532    4.0089   30.0442 C   0  0  0  0  0  0  0  0  0  0  0  0
   25.4395    4.7879   28.9115 C   0  0  0  0  0  0  0  0  0  0  0  0
   25.0978    6.1348   28.9741 C   0  0  0  0  0  0  0  0  0  0  0  0
   20.5857   13.5730   32.7817 C   0  0  0  0  0  0  0  0  0  0  0  0
   19.7325   12.4124   33.0574 C   0  0  0  0  0  0  0  0  0  0  0  0
   18.4757   12.6383   33.0973 O   0  0  0  0  0  0  0  0  0  0  0  0
   20.1703   11.0841   33.2775 N   0  0  0  0  0  0  0  0  0  0  0  0
   21.1933   10.9024   33.2338 H   0  0  0  0  0  0  0  0  0  0  0  0
   19.2910    9.9740   33.5443 C   0  0  0  0  0  0  0  0  0  0  0  0
   19.6088    8.8478   32.6099 C   0  0  0  0  0  0  0  0  0  0  0  0
   20.6489    8.1151   33.1168 O   0  0  0  0  0  0  0  0  0  0  0  0
   20.2936    6.8035   33.2744 C   0  0  0  0  0  0  0  0  0  0  0  0
   19.2308    6.6001   32.2153 C   0  0  0  0  0  0  0  0  0  0  0  0
   18.4333    7.8939   32.4534 C   0  0  0  0  0  0  0  0  0  0  0  0
  7  8  1  0  0  0
  8  9  2  0  0  0
  8 13  1  0  0  0
  9 10  1  0  0  0
  9  1  1  0  0  0
 10 11  2  0  0  0
 11 12  1  0  0  0
 12 13  1  0  0  0
 12 15  1  0  0  0
 13 14  2  0  0  0
 15 16  2  0  0  0
 15 20  1  0  0  0
 16 17  1  0  0  0
 17 18  2  0  0  0
 18 19  1  0  0  0
 19 20  2  0  0  0
  1  2  1  0  0  0
  1  6  1  0  0  0
  2  3  1  0  0  0
  3  4  1  0  0  0
  4  5  1  0  0  0
  4 21  1  0  0  0
  5  6  1  0  0  0
 21 22  1  0  0  0
 22 23  2  0  0  0
 22 24  1  0  0  0
 24 26  1  0  0  0
 26 27  1  0  0  0
 27 28  1  0  0  0
 27 31  1  0  0  0
 28 29  1  0  0  0
 29 30  1  0  0  0
 30 31  1  0  0  0
 24 25  1  0  0  0
M  END
> <minimizedAffinity>
-8.20945

$$$$
2284


 33 37  0  0  0  0  0  0  0  0999 V2000
   26.5991    5.8795   28.9204 C   0  0  0  0  0  0  0  0  0  0  0  0
   26.3468    4.9767   29.9342 C   0  0  0  0  0  0  0  0  0  0  0  0
   25.2647    5.0313   30.7753 C   0  0  0  0  0  0  0  0  0  0  0  0
   25.1387    4.1383   31.6762 O   0  0  0  0  0  0  0  0  0  0  0  0
   24.3495    6.0351   30.6302 N   0  0  0  0  0  0  0  0  0  0  0  0
   23.3059    6.1989   31.3412 N   0  0  0  0  0  0  0  0  0  0  0  0
   22.4738    7.1791   31.1480 C   0  0  0  0  0  0  0  0  0  0  0  0
   23.2489    7.9578   29.8153 S   0  0  0  0  0  0  0  0  0  0  0  0
   24.5958    6.9058   29.6493 C   0  0  0  0  0  0  0  0  0  0  0  0
   25.6637    6.8489   28.8233 N   0  0  0  0  0  0  0  0  0  0  0  0
   21.2308    7.5603   31.8292 C   0  0  0  0  0  0  0  0  0  0  0  0
   20.2766    6.5918   32.0554 C   0  0  0  0  0  0  0  0  0  0  0  0
   19.0806    6.8883   32.6944 C   0  0  0  0  0  0  0  0  0  0  0  0
   18.8320    8.1776   33.1177 C   0  0  0  0  0  0  0  0  0  0  0  0
   19.7757    9.1671   32.9017 C   0  0  0  0  0  0  0  0  0  0  0  0
   20.9456    8.8247   32.2632 C   0  0  0  0  0  0  0  0  0  0  0  0
   17.3426    8.5627   33.9176 Cl  0  0  0  0  0  0  0  0  0  0  0  0
   27.7863    5.7751   28.0387 C   0  0  0  0  0  0  0  0  0  0  0  0
   28.7560    9.3838   26.2403 N   0  0  0  0  0  0  0  0  0  0  0  0
   27.9619    8.4865   25.5211 C   0  0  0  0  0  0  0  0  0  0  0  0
   28.1667    7.0545   26.0264 C   0  0  0  0  0  0  0  0  0  0  0  0
   28.0173    7.0443   27.4267 N   0  0  0  0  0  0  0  0  0  0  0  0
   28.8943    7.9097   28.1192 C   0  0  0  0  0  0  0  0  0  0  0  0
   29.6483    8.7789   27.1381 C   0  0  0  0  0  0  0  0  0  0  0  0
   28.3211   10.9751   26.4169 S   0  0  0  0  0  0  0  0  0  0  0  0
   27.5995   11.4257   25.1506 O   0  0  0  0  0  0  0  0  0  0  0  0
   29.5028   11.8744   26.6730 O   0  0  0  0  0  0  0  0  0  0  0  0
   27.1585   11.1749   27.7090 C   0  0  0  0  0  0  0  0  0  0  0  0
   25.8524   11.5397   27.5815 N   0  0  0  0  0  0  0  0  0  0  0  0
   25.2695   11.5955   28.7803 C   0  0  0  0  0  0  0  0  0  0  0  0
   26.1613   11.2715   29.7270 N   0  0  0  0  0  0  0  0  0  0  0  0
   27.3217   11.0137   29.0637 C   0  0  0  0  0  0  0  0  0  0  0  0
   25.9972   11.2285   30.7461 H   0  0  0  0  0  0  0  0  0  0  0  0
 25 26  2  0  0  0
 25 27  2  0  0  0
 25 19  1  0  0  0
 25 28  1  0  0  0
 19 20  1  0  0  0
 19 24  1  0  0  0
 20 21  1  0  0  0
 21 22  1  0  0  0
 22 23  1  0  0  0
 22 18  1  0  0  0
 23 24  1  0  0  0
 18  1  1  0  0  0
  1  2  2  0  0  0
  1 10  1  0  0  0
  2  3  1  0  0  0
  3  4  2  0  0  0
  3  5  1  0  0  0
  5  6  1  0  0  0
  5  9  1  0  0  0
  6  7  2  0  0  0
  7  8  1  0  0  0
  7 11  1  0  0  0
  8  9  1  0  0  0
  9 10  2  0  0  0
 11 12  2  0  0  0
 11 16  1  0  0  0
 12 13  1  0  0  0
 13 14  2  0  0  0
 14 15  1  0  0  0
 14 17  1  0  0  0
 15 16  2  0  0  0
 28 29  1  0  0  0
 28 32  2  0  0  0
 29 30  2  0  0  0
 30 31  1  0  0  0
 31 32  1  0  0  0
 31 33  1  0  0  0
M  END
> <minimizedAffinity>
-8.78713

$$$$
2285


 32 35  0  0  0  0  0  0  0  0999 V2000
   23.9246   12.6540   30.3546 N   0  0  0  0  0  0  0  0  0  0  0  0
   22.6391   12.1012   30.0479 C   0  0  0  0  0  0  0  0  0  0  0  0
   21.4764   13.1013   30.1862 C   0  0  0  0  0  0  0  0  0  0  0  0
   21.5420   13.6187   31.5171 N   0  0  0  0  0  0  0  0  0  0  0  0
   22.7280   14.4229   31.6193 C   0  0  0  0  0  0  0  0  0  0  0  0
   23.8513   13.4234   31.6463 C   0  0  0  0  0  0  0  0  0  0  0  0
   24.9427   11.2667   30.8078 S   0  0  0  0  0  0  0  0  0  0  0  0
   26.2795   11.4557   30.1163 O   0  0  0  0  0  0  0  0  0  0  0  0
   25.1337   11.2833   32.2826 O   0  0  0  0  0  0  0  0  0  0  0  0
   24.2601    9.7720   30.3004 C   0  0  0  0  0  0  0  0  0  0  0  0
   24.9083    8.6275   30.7839 C   0  0  0  0  0  0  0  0  0  0  0  0
   24.4452    7.3284   30.5595 C   0  0  0  0  0  0  0  0  0  0  0  0
   23.2789    7.1677   29.8175 C   0  0  0  0  0  0  0  0  0  0  0  0
   22.6547    8.3064   29.3419 C   0  0  0  0  0  0  0  0  0  0  0  0
   23.1227    9.5932   29.5747 C   0  0  0  0  0  0  0  0  0  0  0  0
   22.8753    5.8574   29.6392 O   0  0  0  0  0  0  0  0  0  0  0  0
   23.0388    4.9508   30.7629 C   0  0  0  0  0  0  0  0  0  0  0  0
   24.3462    5.1185   31.4633 C   0  0  0  0  0  0  0  0  0  0  0  0
   25.1159    6.2209   31.0496 O   0  0  0  0  0  0  0  0  0  0  0  0
   20.3695   13.9123   32.1909 C   0  0  0  0  0  0  0  0  0  0  0  0
   19.6968   12.8164   32.8920 C   0  0  0  0  0  0  0  0  0  0  0  0
   18.5221   13.1609   33.3565 O   0  0  0  0  0  0  0  0  0  0  0  0
   20.0610   11.5234   33.1363 N   0  0  0  0  0  0  0  0  0  0  0  0
   21.0062   11.0966   32.8584 H   0  0  0  0  0  0  0  0  0  0  0  0
   19.2046   10.5152   33.7649 C   0  0  0  0  0  0  0  0  0  0  0  0
   19.5201    9.1914   33.1912 C   0  0  0  0  0  0  0  0  0  0  0  0
   18.5639    8.1499   33.1956 C   0  0  0  0  0  0  0  0  0  0  0  0
   18.8501    6.8958   32.8121 C   0  0  0  0  0  0  0  0  0  0  0  0
   20.1673    6.5578   32.3695 C   0  0  0  0  0  0  0  0  0  0  0  0
   21.0862    7.5285   32.3681 C   0  0  0  0  0  0  0  0  0  0  0  0
   20.8155    8.8433   32.7667 C   0  0  0  0  0  0  0  0  0  0  0  0
   16.9069    8.5434   33.7171 Cl  0  0  0  0  0  0  0  0  0  0  0  0
  7  8  2  0  0  0
  7  9  2  0  0  0
  7  1  1  0  0  0
  7 10  1  0  0  0
  1  2  1  0  0  0
  1  6  1  0  0  0
  2  3  1  0  0  0
  3  4  1  0  0  0
  4  5  1  0  0  0
  4 20  1  0  0  0
  5  6  1  0  0  0
 20 21  1  0  0  0
 21 22  2  0  0  0
 21 23  1  0  0  0
 23 25  1  0  0  0
 25 26  1  0  0  0
 26 27  2  0  0  0
 26 31  1  0  0  0
 27 28  1  0  0  0
 27 32  1  0  0  0
 28 29  2  0  0  0
 29 30  1  0  0  0
 30 31  2  0  0  0
 10 11  2  0  0  0
 10 15  1  0  0  0
 11 12  1  0  0  0
 12 13  2  0  0  0
 12 19  1  0  0  0
 13 14  1  0  0  0
 13 16  1  0  0  0
 14 15  2  0  0  0
 16 17  1  0  0  0
 17 18  1  0  0  0
 18 19  1  0  0  0
 23 24  1  0  0  0
M  END
> <minimizedAffinity>
-9.57921

$$$$
2286


 31 34  0  0  0  0  0  0  0  0999 V2000
   27.9784    4.2338   28.3504 N   0  0  0  0  0  0  0  0  0  0  0  0
   28.6017    4.5647   27.1207 C   0  0  0  0  0  0  0  0  0  0  0  0
   28.4181    5.9992   26.7014 C   0  0  0  0  0  0  0  0  0  0  0  0
   28.4981    6.9111   27.8230 N   0  0  0  0  0  0  0  0  0  0  0  0
   28.9900    6.3520   29.0678 C   0  0  0  0  0  0  0  0  0  0  0  0
   28.2464    5.0949   29.4466 C   0  0  0  0  0  0  0  0  0  0  0  0
   28.1097    8.2469   27.6625 C   0  0  0  0  0  0  0  0  0  0  0  0
   27.6982    8.6327   26.5426 O   0  0  0  0  0  0  0  0  0  0  0  0
   26.3429    3.7481   28.2209 S   0  0  0  0  0  0  0  0  0  0  0  0
   26.2750    2.4203   27.5309 O   0  0  0  0  0  0  0  0  0  0  0  0
   25.5423    4.7313   27.4192 O   0  0  0  0  0  0  0  0  0  0  0  0
   25.5668    3.6429   29.8101 C   0  0  0  0  0  0  0  0  0  0  0  0
   25.8119    2.4942   31.0376 S   0  0  0  0  0  0  0  0  0  0  0  0
   24.7163    3.0875   32.1949 C   0  0  0  0  0  0  0  0  0  0  0  0
   24.1758    4.1876   31.5843 C   0  0  0  0  0  0  0  0  0  0  0  0
   24.6205    4.4769   30.3402 C   0  0  0  0  0  0  0  0  0  0  0  0
   24.3368    2.4597   33.8131 Cl  0  0  0  0  0  0  0  0  0  0  0  0
   28.1678    9.2320   28.7732 C   0  0  0  0  0  0  0  0  0  0  0  0
   26.8683    9.7408   29.1141 N   0  0  0  0  0  0  0  0  0  0  0  0
   26.4464   11.0783   28.8949 C   0  0  0  0  0  0  0  0  0  0  0  0
   27.1688   11.9912   28.3699 O   0  0  0  0  0  0  0  0  0  0  0  0
   25.1104   11.2854   29.3349 N   0  0  0  0  0  0  0  0  0  0  0  0
   24.7232   10.0958   30.0700 C   0  0  0  0  0  0  0  0  0  0  0  0
   23.3888    9.5648   29.6325 C   0  0  0  0  0  0  0  0  0  0  0  0
   22.2233   10.2212   30.3119 C   0  0  0  0  0  0  0  0  0  0  0  0
   22.3467   10.2740   31.8063 C   0  0  0  0  0  0  0  0  0  0  0  0
   23.6728    9.7354   32.2970 C   0  0  0  0  0  0  0  0  0  0  0  0
   24.7700   10.4480   31.5379 C   0  0  0  0  0  0  0  0  0  0  0  0
   25.7546    9.0904   29.7113 C   0  0  0  0  0  0  0  0  0  0  0  0
   25.6913    7.8511   29.8915 O   0  0  0  0  0  0  0  0  0  0  0  0
   24.3033   12.4781   29.0797 C   0  0  0  0  0  0  0  0  0  0  0  0
  9 10  2  0  0  0
  9 11  2  0  0  0
  9  1  1  0  0  0
  9 12  1  0  0  0
  1  2  1  0  0  0
  1  6  1  0  0  0
  2  3  1  0  0  0
  3  4  1  0  0  0
  4  5  1  0  0  0
  4  7  1  0  0  0
  5  6  1  0  0  0
  7  8  2  0  0  0
  7 18  1  0  0  0
 18 19  1  0  0  0
 19 20  1  0  0  0
 19 29  1  0  0  0
 20 21  2  0  0  0
 20 22  1  0  0  0
 22 23  1  0  0  0
 22 31  1  0  0  0
 23 24  1  0  0  0
 23 28  1  0  0  0
 23 29  1  0  0  0
 24 25  1  0  0  0
 25 26  1  0  0  0
 26 27  1  0  0  0
 27 28  1  0  0  0
 29 30  2  0  0  0
 12 13  1  0  0  0
 12 16  2  0  0  0
 13 14  1  0  0  0
 14 15  2  0  0  0
 14 17  1  0  0  0
 15 16  1  0  0  0
M  END
> <minimizedAffinity>
-7.56896

$$$$
2298


 34 37  0  0  0  0  0  0  0  0999 V2000
   24.6050   11.3718   29.0741 C   0  0  0  0  0  0  0  0  0  0  0  0
   25.0333    8.2416   30.6056 N   0  0  0  0  0  0  0  0  0  0  0  0
   24.8674    9.0522   31.7091 C   0  0  0  0  0  0  0  0  0  0  0  0
   24.5658   10.4662   31.2916 C   0  0  0  0  0  0  0  0  0  0  0  0
   25.3565   10.9785   30.2304 N   0  0  0  0  0  0  0  0  0  0  0  0
   26.4324   10.0982   29.9054 C   0  0  0  0  0  0  0  0  0  0  0  0
   25.8991    8.7001   29.6073 C   0  0  0  0  0  0  0  0  0  0  0  0
   24.2628    6.7812   30.4152 S   0  0  0  0  0  0  0  0  0  0  0  0
   24.0428    6.3936   28.9736 O   0  0  0  0  0  0  0  0  0  0  0  0
   24.9892    5.6114   31.0407 O   0  0  0  0  0  0  0  0  0  0  0  0
   22.6594    6.8520   31.1403 C   0  0  0  0  0  0  0  0  0  0  0  0
   22.0196    8.0449   31.3334 C   0  0  0  0  0  0  0  0  0  0  0  0
   20.7722    8.1052   31.8969 C   0  0  0  0  0  0  0  0  0  0  0  0
   20.1550    6.9335   32.2768 C   0  0  0  0  0  0  0  0  0  0  0  0
   20.7991    5.7261   32.0836 C   0  0  0  0  0  0  0  0  0  0  0  0
   22.0476    5.6776   31.5177 C   0  0  0  0  0  0  0  0  0  0  0  0
   18.5582    7.0443   32.9957 Cl  0  0  0  0  0  0  0  0  0  0  0  0
   23.6049   12.4389   29.4152 C   0  0  0  0  0  0  0  0  0  0  0  0
   24.0128   13.6207   29.4040 O   0  0  0  0  0  0  0  0  0  0  0  0
   22.2617   12.1164   29.7336 N   0  0  0  0  0  0  0  0  0  0  0  0
   21.9823   11.0991   29.7223 H   0  0  0  0  0  0  0  0  0  0  0  0
   21.3757   13.1994   30.0476 C   0  0  0  0  0  0  0  0  0  0  0  0
   21.1611   13.4879   31.4835 C   0  0  0  0  0  0  0  0  0  0  0  0
   21.7524   12.3751   32.3139 C   0  0  0  0  0  0  0  0  0  0  0  0
   20.7309   11.2744   32.6175 C   0  0  0  0  0  0  0  0  0  0  0  0
   19.6540   11.8019   33.5447 C   0  0  0  0  0  0  0  0  0  0  0  0
   19.4668   13.2744   33.2282 C   0  0  0  0  0  0  0  0  0  0  0  0
   19.6417   13.4054   31.7298 C   0  0  0  0  0  0  0  0  0  0  0  0
   21.5735   14.7446   31.9785 N   0  0  0  0  0  0  0  0  0  0  0  0
   22.9368   14.9157   32.3362 C   0  0  0  0  0  0  0  0  0  0  0  0
   22.9860   16.1723   33.2246 C   0  0  0  0  0  0  0  0  0  0  0  0
   22.5877   17.2738   32.5061 O   0  0  0  0  0  0  0  0  0  0  0  0
   22.2064   17.0032   31.2161 C   0  0  0  0  0  0  0  0  0  0  0  0
   21.1900   15.8630   31.1444 C   0  0  0  0  0  0  0  0  0  0  0  0
  8  9  2  0  0  0
  8 10  2  0  0  0
  8  2  1  0  0  0
  8 11  1  0  0  0
  2  3  1  0  0  0
  2  7  1  0  0  0
  3  4  1  0  0  0
  4  5  1  0  0  0
  5  6  1  0  0  0
  5  1  1  0  0  0
  6  7  1  0  0  0
  1 18  1  0  0  0
 18 19  2  0  0  0
 18 20  1  0  0  0
 20 22  1  0  0  0
 22 23  1  0  0  0
 23 24  1  0  0  0
 23 28  1  0  0  0
 23 29  1  0  0  0
 24 25  1  0  0  0
 25 26  1  0  0  0
 26 27  1  0  0  0
 27 28  1  0  0  0
 29 30  1  0  0  0
 29 34  1  0  0  0
 30 31  1  0  0  0
 31 32  1  0  0  0
 32 33  1  0  0  0
 33 34  1  0  0  0
 11 12  2  0  0  0
 11 16  1  0  0  0
 12 13  1  0  0  0
 13 14  2  0  0  0
 14 15  1  0  0  0
 14 17  1  0  0  0
 15 16  2  0  0  0
 20 21  1  0  0  0
M  END
> <minimizedAffinity>
-9.59839

$$$$
2301


 24 27  0  0  0  0  0  0  0  0999 V2000
   24.0648   10.6347   31.4853 C   0  0  0  0  0  0  0  0  0  0  0  0
   23.1193   11.7813   31.6279 C   0  0  0  0  0  0  0  0  0  0  0  0
   22.4382   12.0889   30.2828 C   0  0  0  0  0  0  0  0  0  0  0  0
   23.5627   12.5302   29.4449 N   0  0  0  0  0  0  0  0  0  0  0  0
   24.5217   11.5114   29.1556 C   0  0  0  0  0  0  0  0  0  0  0  0
   25.0333   10.8010   30.3748 C   0  0  0  0  0  0  0  0  0  0  0  0
   24.8100   10.6023   32.6918 O   0  0  0  0  0  0  0  0  0  0  0  0
   25.5631   11.2611   32.5816 H   0  0  0  0  0  0  0  0  0  0  0  0
   23.6025   13.8773   29.0114 C   0  0  0  0  0  0  0  0  0  0  0  0
   22.8363   14.7945   29.6262 N   0  0  0  0  0  0  0  0  0  0  0  0
   22.7935   16.0772   29.3236 N   0  0  0  0  0  0  0  0  0  0  0  0
   22.1291   17.1375   29.7910 N   0  0  0  0  0  0  0  0  0  0  0  0
   22.4577   18.2206   29.1231 N   0  0  0  0  0  0  0  0  0  0  0  0
   23.3362   17.8730   28.2230 N   0  0  0  0  0  0  0  0  0  0  0  0
   23.5558   16.5398   28.3346 C   0  0  0  0  0  0  0  0  0  0  0  0
   24.3729   15.6535   27.6539 C   0  0  0  0  0  0  0  0  0  0  0  0
   24.4043   14.3151   27.9839 C   0  0  0  0  0  0  0  0  0  0  0  0
   20.7051    5.6317   31.7320 Cl  0  0  0  0  0  0  0  0  0  0  0  0
   21.6901    7.0771   31.6419 C   0  0  0  0  0  0  0  0  0  0  0  0
   22.8478    7.1360   30.8774 C   0  0  0  0  0  0  0  0  0  0  0  0
   23.6456    8.2429   30.7897 C   0  0  0  0  0  0  0  0  0  0  0  0
   23.3098    9.3710   31.4810 C   0  0  0  0  0  0  0  0  0  0  0  0
   22.1515    9.3443   32.2562 C   0  0  0  0  0  0  0  0  0  0  0  0
   21.3587    8.2156   32.3330 C   0  0  0  0  0  0  0  0  0  0  0  0
 18 19  1  0  0  0
 19 20  2  0  0  0
 19 24  1  0  0  0
 20 21  1  0  0  0
 21 22  2  0  0  0
 22 23  1  0  0  0
 22  1  1  0  0  0
 23 24  2  0  0  0
  1  2  1  0  0  0
  1  6  1  0  0  0
  1  7  1  0  0  0
  2  3  1  0  0  0
  3  4  1  0  0  0
  4  5  1  0  0  0
  4  9  1  0  0  0
  5  6  1  0  0  0
  9 10  2  0  0  0
  9 17  1  0  0  0
 10 11  1  0  0  0
 11 12  1  0  0  0
 11 15  1  0  0  0
 12 13  2  0  0  0
 13 14  1  0  0  0
 14 15  2  0  0  0
 15 16  1  0  0  0
 16 17  2  0  0  0
  7  8  1  0  0  0
M  END
> <minimizedAffinity>
-8.80352

$$$$
2304


 28 31  0  0  0  0  0  0  0  0999 V2000
   24.2209    9.9383   31.1599 N   0  0  0  0  0  0  0  0  0  0  0  0
   25.2388   10.2441   30.2279 C   0  0  0  0  0  0  0  0  0  0  0  0
   26.1417    9.0925   29.8721 C   0  0  0  0  0  0  0  0  0  0  0  0
   25.4323    7.8601   29.6716 N   0  0  0  0  0  0  0  0  0  0  0  0
   24.0534    7.8240   30.0903 C   0  0  0  0  0  0  0  0  0  0  0  0
   23.9804    8.5630   31.4236 C   0  0  0  0  0  0  0  0  0  0  0  0
   26.0838    6.7568   29.0960 C   0  0  0  0  0  0  0  0  0  0  0  0
   27.2987    6.9029   28.7807 O   0  0  0  0  0  0  0  0  0  0  0  0
   25.4358    5.4415   28.8380 C   0  0  0  0  0  0  0  0  0  0  0  0
   25.5774    4.5593   29.9375 N   0  0  0  0  0  0  0  0  0  0  0  0
   26.7335    3.7232   29.9391 C   0  0  0  0  0  0  0  0  0  0  0  0
   27.0345    3.4558   28.1799 S   0  0  0  0  0  0  0  0  0  0  0  0
   25.9321    4.7960   27.5787 C   0  0  0  0  0  0  0  0  0  0  0  0
   26.2024    2.4199   30.5044 C   0  0  0  0  0  0  0  0  0  0  0  0
   25.4233    2.9792   31.7022 C   0  0  0  0  0  0  0  0  0  0  0  0
   24.8711    4.2143   31.1518 C   0  0  0  0  0  0  0  0  0  0  0  0
   23.9177    4.8560   31.6872 O   0  0  0  0  0  0  0  0  0  0  0  0
   27.9059    4.2259   30.6826 C   0  0  0  0  0  0  0  0  0  0  0  0
   22.8445   10.9289   31.1016 S   0  0  0  0  0  0  0  0  0  0  0  0
   23.1372   12.2873   31.6567 O   0  0  0  0  0  0  0  0  0  0  0  0
   22.4614   11.1256   29.6556 O   0  0  0  0  0  0  0  0  0  0  0  0
   21.4465   10.2121   31.8977 C   0  0  0  0  0  0  0  0  0  0  0  0
   20.7186   10.9344   32.8169 C   0  0  0  0  0  0  0  0  0  0  0  0
   19.6232   10.4045   33.4573 C   0  0  0  0  0  0  0  0  0  0  0  0
   19.1992    9.1121   33.2051 C   0  0  0  0  0  0  0  0  0  0  0  0
   19.9509    8.4115   32.2767 C   0  0  0  0  0  0  0  0  0  0  0  0
   21.0459    8.9278   31.6295 C   0  0  0  0  0  0  0  0  0  0  0  0
   17.8093    8.4056   34.0023 Cl  0  0  0  0  0  0  0  0  0  0  0  0
 19 20  2  0  0  0
 19 21  2  0  0  0
 19  1  1  0  0  0
 19 22  1  0  0  0
  1  2  1  0  0  0
  1  6  1  0  0  0
  2  3  1  0  0  0
  3  4  1  0  0  0
  4  5  1  0  0  0
  4  7  1  0  0  0
  5  6  1  0  0  0
  7  8  2  0  0  0
  7  9  1  0  0  0
  9 10  1  0  0  0
  9 13  1  0  0  0
 10 11  1  0  0  0
 10 16  1  0  0  0
 11 12  1  0  0  0
 11 14  1  0  0  0
 11 18  1  0  0  0
 12 13  1  0  0  0
 14 15  1  0  0  0
 15 16  1  0  0  0
 16 17  2  0  0  0
 22 23  2  0  0  0
 22 27  1  0  0  0
 23 24  1  0  0  0
 24 25  2  0  0  0
 25 26  1  0  0  0
 25 28  1  0  0  0
 26 27  2  0  0  0
M  END
> <minimizedAffinity>
-8.16949

$$$$
2319


 33 36  0  0  0  0  0  0  0  0999 V2000
   25.5395   10.3619   30.4890 N   0  0  0  0  0  0  0  0  0  0  0  0
   26.5310   10.3407   29.4831 C   0  0  0  0  0  0  0  0  0  0  0  0
   26.7339   11.3471   28.7726 O   0  0  0  0  0  0  0  0  0  0  0  0
   25.3164    9.5609   31.1174 H   0  0  0  0  0  0  0  0  0  0  0  0
   18.9054   12.4758   33.1482 Br  0  0  0  0  0  0  0  0  0  0  0  0
   20.5279   13.0946   32.3431 C   0  0  0  0  0  0  0  0  0  0  0  0
   21.5490   12.2279   32.0109 C   0  0  0  0  0  0  0  0  0  0  0  0
   22.7259   12.6636   31.4262 C   0  0  0  0  0  0  0  0  0  0  0  0
   22.8303   14.0171   31.1903 C   0  0  0  0  0  0  0  0  0  0  0  0
   21.8342   14.9125   31.5086 C   0  0  0  0  0  0  0  0  0  0  0  0
   20.6623   14.4603   32.0927 C   0  0  0  0  0  0  0  0  0  0  0  0
   22.0427   16.7792   31.1537 Br  0  0  0  0  0  0  0  0  0  0  0  0
   23.6298   11.5506   31.1771 C   0  0  0  0  0  0  0  0  0  0  0  0
   24.7996   11.5362   30.6572 N   0  0  0  0  0  0  0  0  0  0  0  0
   22.9265   10.3551   31.6550 C   0  0  0  0  0  0  0  0  0  0  0  0
   23.4053    9.1907   31.6024 O   0  0  0  0  0  0  0  0  0  0  0  0
   21.6835   10.8171   32.1451 N   0  0  0  0  0  0  0  0  0  0  0  0
   20.9566   10.2055   32.5536 H   0  0  0  0  0  0  0  0  0  0  0  0
   27.3769    9.1342   29.2180 C   0  0  0  0  0  0  0  0  0  0  0  0
   26.5976    7.9271   29.1891 N   0  0  0  0  0  0  0  0  0  0  0  0
   26.8700    6.8534   28.2984 C   0  0  0  0  0  0  0  0  0  0  0  0
   27.8313    6.9683   27.5071 O   0  0  0  0  0  0  0  0  0  0  0  0
   25.7855    7.7889   29.8354 H   0  0  0  0  0  0  0  0  0  0  0  0
   26.0675    5.5944   28.2548 C   0  0  0  0  0  0  0  0  0  0  0  0
   24.7415    5.8071   28.6390 O   0  0  0  0  0  0  0  0  0  0  0  0
   24.1723    5.3471   29.8244 C   0  0  0  0  0  0  0  0  0  0  0  0
   24.8231    4.3307   30.4724 C   0  0  0  0  0  0  0  0  0  0  0  0
   24.2751    3.8493   31.6615 C   0  0  0  0  0  0  0  0  0  0  0  0
   23.1136    4.3561   32.1985 C   0  0  0  0  0  0  0  0  0  0  0  0
   22.4854    5.3802   31.5167 C   0  0  0  0  0  0  0  0  0  0  0  0
   23.0212    5.8590   30.3442 C   0  0  0  0  0  0  0  0  0  0  0  0
   25.9777    3.8199   29.9470 O   0  0  0  0  0  0  0  0  0  0  0  0
   26.7343    4.4666   28.9612 C   0  0  0  0  0  0  0  0  0  0  0  0
  5  6  1  0  0  0
  6  7  2  0  0  0
  6 11  1  0  0  0
  7  8  1  0  0  0
  7 17  1  0  0  0
  8  9  2  0  0  0
  8 13  1  0  0  0
  9 10  1  0  0  0
 10 11  2  0  0  0
 10 12  1  0  0  0
 13 14  2  0  0  0
 13 15  1  0  0  0
 14  1  1  0  0  0
  1  2  1  0  0  0
  2  3  2  0  0  0
  2 19  1  0  0  0
 19 20  1  0  0  0
 20 21  1  0  0  0
 21 22  2  0  0  0
 21 24  1  0  0  0
 24 25  1  0  0  0
 24 33  1  0  0  0
 25 26  1  0  0  0
 26 27  2  0  0  0
 26 31  1  0  0  0
 27 28  1  0  0  0
 27 32  1  0  0  0
 28 29  2  0  0  0
 29 30  1  0  0  0
 30 31  2  0  0  0
 32 33  1  0  0  0
 15 16  2  0  0  0
 15 17  1  0  0  0
  1  4  1  0  0  0
 20 23  1  0  0  0
 17 18  1  0  0  0
M  END
> <minimizedAffinity>
-9.05863

$$$$
2330


 28 31  0  0  0  0  0  0  0  0999 V2000
   23.4110   12.6780   30.7627 C   0  0  0  0  0  0  0  0  0  0  0  0
   24.3892   12.5426   31.5329 O   0  0  0  0  0  0  0  0  0  0  0  0
   22.6706   11.5540   30.3924 N   0  0  0  0  0  0  0  0  0  0  0  0
   21.8421   11.7837   29.7350 H   0  0  0  0  0  0  0  0  0  0  0  0
   21.7045   14.3362   32.5708 Cl  0  0  0  0  0  0  0  0  0  0  0  0
   22.3299   14.9114   31.0326 C   0  0  0  0  0  0  0  0  0  0  0  0
   23.1068   14.0428   30.2946 C   0  0  0  0  0  0  0  0  0  0  0  0
   23.5873   14.5131   29.0911 C   0  0  0  0  0  0  0  0  0  0  0  0
   23.3418   15.7683   28.5988 C   0  0  0  0  0  0  0  0  0  0  0  0
   22.5482   16.6114   29.3845 C   0  0  0  0  0  0  0  0  0  0  0  0
   22.0423   16.2004   30.5896 C   0  0  0  0  0  0  0  0  0  0  0  0
   23.8591   16.2446   27.3240 C   0  0  0  0  0  0  0  0  0  0  0  0
   23.2747   17.0198   26.4059 N   0  0  0  0  0  0  0  0  0  0  0  0
   24.1271   17.2055   25.3851 N   0  0  0  0  0  0  0  0  0  0  0  0
   25.2429   16.5516   25.6556 N   0  0  0  0  0  0  0  0  0  0  0  0
   25.0803   15.9640   26.8430 N   0  0  0  0  0  0  0  0  0  0  0  0
   23.9576   17.7650   24.5179 H   0  0  0  0  0  0  0  0  0  0  0  0
   22.8186   10.1959   30.7236 C   0  0  0  0  0  0  0  0  0  0  0  0
   22.4703    9.6983   32.0606 C   0  0  0  0  0  0  0  0  0  0  0  0
   21.1035    9.8465   32.5533 C   0  0  0  0  0  0  0  0  0  0  0  0
   20.1694    8.8972   32.6732 N   0  0  0  0  0  0  0  0  0  0  0  0
   19.0854    9.4443   33.1998 C   0  0  0  0  0  0  0  0  0  0  0  0
   19.3445   10.7418   33.4089 N   0  0  0  0  0  0  0  0  0  0  0  0
   20.5663   10.9807   33.0166 N   0  0  0  0  0  0  0  0  0  0  0  0
   17.9384    8.7221   33.4516 C   0  0  0  0  0  0  0  0  0  0  0  0
   17.9519    7.3770   33.1309 C   0  0  0  0  0  0  0  0  0  0  0  0
   19.0771    6.8204   32.5865 C   0  0  0  0  0  0  0  0  0  0  0  0
   20.1827    7.5863   32.3613 C   0  0  0  0  0  0  0  0  0  0  0  0
  5  6  1  0  0  0
  6  7  2  0  0  0
  6 11  1  0  0  0
  7  8  1  0  0  0
  7  1  1  0  0  0
  8  9  2  0  0  0
  9 10  1  0  0  0
  9 12  1  0  0  0
 10 11  2  0  0  0
 12 13  2  0  0  0
 12 16  1  0  0  0
 13 14  1  0  0  0
 14 15  1  0  0  0
 15 16  2  0  0  0
  1  2  2  0  0  0
  1  3  1  0  0  0
  3 18  1  0  0  0
 18 19  1  0  0  0
 19 20  1  0  0  0
 20 21  1  0  0  0
 20 24  2  0  0  0
 21 22  1  0  0  0
 21 28  1  0  0  0
 22 23  2  0  0  0
 22 25  1  0  0  0
 23 24  1  0  0  0
 25 26  2  0  0  0
 26 27  1  0  0  0
 27 28  2  0  0  0
 14 17  1  0  0  0
  3  4  1  0  0  0
M  END
> <minimizedAffinity>
-9.57761

$$$$
2334


 30 33  0  0  0  0  0  0  0  0999 V2000
   25.5203    6.4023   29.5027 S   0  0  0  0  0  0  0  0  0  0  0  0
   26.5705    5.4289   30.0432 O   0  0  0  0  0  0  0  0  0  0  0  0
   25.2259    5.8834   28.0904 O   0  0  0  0  0  0  0  0  0  0  0  0
   26.1969    7.9694   29.3592 C   0  0  0  0  0  0  0  0  0  0  0  0
   27.3942    8.2066   28.7297 C   0  0  0  0  0  0  0  0  0  0  0  0
   27.8572    9.5063   28.5883 C   0  0  0  0  0  0  0  0  0  0  0  0
   27.1304   10.5951   29.0777 C   0  0  0  0  0  0  0  0  0  0  0  0
   25.9299   10.3715   29.7135 C   0  0  0  0  0  0  0  0  0  0  0  0
   25.4878    9.0760   29.8433 C   0  0  0  0  0  0  0  0  0  0  0  0
   28.4447    6.9337   28.1457 Cl  0  0  0  0  0  0  0  0  0  0  0  0
   25.1529   11.4880   30.2347 C   0  0  0  0  0  0  0  0  0  0  0  0
   25.0021   11.8123   31.5299 N   0  0  0  0  0  0  0  0  0  0  0  0
   24.2424   12.8673   31.6379 O   0  0  0  0  0  0  0  0  0  0  0  0
   23.8822   13.2560   30.4438 C   0  0  0  0  0  0  0  0  0  0  0  0
   24.4413   12.4063   29.5613 N   0  0  0  0  0  0  0  0  0  0  0  0
   23.0059   14.4302   30.1029 C   0  0  0  0  0  0  0  0  0  0  0  0
   24.1505    6.2272   30.4844 N   0  0  0  0  0  0  0  0  0  0  0  0
   22.8908    6.4476   29.8680 C   0  0  0  0  0  0  0  0  0  0  0  0
   21.7231    6.2388   30.8039 C   0  0  0  0  0  0  0  0  0  0  0  0
   21.7772    4.8781   31.4086 C   0  0  0  0  0  0  0  0  0  0  0  0
   23.1460    4.5769   31.9943 C   0  0  0  0  0  0  0  0  0  0  0  0
   24.1810    4.8264   30.9535 C   0  0  0  0  0  0  0  0  0  0  0  0
   21.5128    7.3413   31.7637 C   0  0  0  0  0  0  0  0  0  0  0  0
   22.4622    8.2079   31.8141 O   0  0  0  0  0  0  0  0  0  0  0  0
   20.4219    7.5411   32.5980 N   0  0  0  0  0  0  0  0  0  0  0  0
   20.3286    8.6793   33.4576 C   0  0  0  0  0  0  0  0  0  0  0  0
   18.9309    9.2126   33.6059 C   0  0  0  0  0  0  0  0  0  0  0  0
   17.9338    8.3188   33.3696 O   0  0  0  0  0  0  0  0  0  0  0  0
   18.1043    7.4652   32.2996 C   0  0  0  0  0  0  0  0  0  0  0  0
   19.3269    6.6038   32.6580 C   0  0  0  0  0  0  0  0  0  0  0  0
  1  2  2  0  0  0
  1  3  2  0  0  0
  1 17  1  0  0  0
  1  4  1  0  0  0
 17 18  1  0  0  0
 17 22  1  0  0  0
 18 19  1  0  0  0
 19 20  1  0  0  0
 19 23  1  0  0  0
 20 21  1  0  0  0
 21 22  1  0  0  0
 23 24  2  0  0  0
 23 25  1  0  0  0
 25 26  1  0  0  0
 25 30  1  0  0  0
 26 27  1  0  0  0
 27 28  1  0  0  0
 28 29  1  0  0  0
 29 30  1  0  0  0
  4  5  2  0  0  0
  4  9  1  0  0  0
  5  6  1  0  0  0
  5 10  1  0  0  0
  6  7  2  0  0  0
  7  8  1  0  0  0
  8  9  2  0  0  0
  8 11  1  0  0  0
 11 12  2  0  0  0
 11 15  1  0  0  0
 12 13  1  0  0  0
 13 14  1  0  0  0
 14 15  2  0  0  0
 14 16  1  0  0  0
M  END
> <minimizedAffinity>
-8.75824

$$$$
2335


 35 38  0  0  0  0  0  0  0  0999 V2000
   23.7276   12.5316   30.7877 N   0  0  0  0  0  0  0  0  0  0  0  0
   24.1303   13.3917   29.7468 C   0  0  0  0  0  0  0  0  0  0  0  0
   24.7179   12.6677   28.5548 C   0  0  0  0  0  0  0  0  0  0  0  0
   25.3513   11.3705   28.8841 C   0  0  0  0  0  0  0  0  0  0  0  0
   25.6727   11.1182   30.3118 C   0  0  0  0  0  0  0  0  0  0  0  0
   24.6723   11.6456   31.3085 C   0  0  0  0  0  0  0  0  0  0  0  0
   25.6788   13.5362   27.8279 C   0  0  0  0  0  0  0  0  0  0  0  0
   25.3236   14.7093   27.5564 O   0  0  0  0  0  0  0  0  0  0  0  0
   26.9807   13.0332   27.4522 N   0  0  0  0  0  0  0  0  0  0  0  0
   27.1657   12.0614   27.7131 H   0  0  0  0  0  0  0  0  0  0  0  0
   27.8469   13.9181   26.7624 C   0  0  0  0  0  0  0  0  0  0  0  0
   28.0137   13.7645   25.2983 C   0  0  0  0  0  0  0  0  0  0  0  0
   28.0595   14.9203   24.4822 N   0  0  0  0  0  0  0  0  0  0  0  0
   29.0020   15.8991   24.7737 C   0  0  0  0  0  0  0  0  0  0  0  0
   28.4732   17.2275   25.2319 C   0  0  0  0  0  0  0  0  0  0  0  0
   27.3331   17.6142   24.5431 O   0  0  0  0  0  0  0  0  0  0  0  0
   26.3522   16.6685   24.8408 C   0  0  0  0  0  0  0  0  0  0  0  0
   26.7419   15.3941   24.1280 C   0  0  0  0  0  0  0  0  0  0  0  0
   22.1505   12.5419   31.3118 S   0  0  0  0  0  0  0  0  0  0  0  0
   21.2694   13.1050   30.1981 O   0  0  0  0  0  0  0  0  0  0  0  0
   22.0186   13.5745   32.4246 O   0  0  0  0  0  0  0  0  0  0  0  0
   21.5087   11.0463   31.8833 C   0  0  0  0  0  0  0  0  0  0  0  0
   22.0491    9.8446   31.4516 C   0  0  0  0  0  0  0  0  0  0  0  0
   21.5839    8.6273   31.8865 C   0  0  0  0  0  0  0  0  0  0  0  0
   20.5230    8.5972   32.7994 C   0  0  0  0  0  0  0  0  0  0  0  0
   20.0009    9.7778   33.2154 C   0  0  0  0  0  0  0  0  0  0  0  0
   20.4718   11.0041   32.7763 C   0  0  0  0  0  0  0  0  0  0  0  0
   19.6455   12.6189   33.4356 Br  0  0  0  0  0  0  0  0  0  0  0  0
   20.1725    7.1915   33.1394 C   0  0  0  0  0  0  0  0  0  0  0  0
   20.7461    6.4400   31.9555 C   0  0  0  0  0  0  0  0  0  0  0  0
   21.9189    7.2673   31.6493 N   0  0  0  0  0  0  0  0  0  0  0  0
   23.1309    6.7420   31.2060 C   0  0  0  0  0  0  0  0  0  0  0  0
   23.2691    5.4751   31.0936 O   0  0  0  0  0  0  0  0  0  0  0  0
   24.2933    7.5531   30.8501 C   0  0  0  0  0  0  0  0  0  0  0  0
   24.9461    7.0798   29.5537 C   0  0  0  0  0  0  0  0  0  0  0  0
 19 20  2  0  0  0
 19 21  2  0  0  0
 19  1  1  0  0  0
 19 22  1  0  0  0
  1  2  1  0  0  0
  1  6  1  0  0  0
  2  3  1  0  0  0
  3  4  1  0  0  0
  3  7  1  0  0  0
  4  5  1  0  0  0
  5  6  1  0  0  0
  7  8  2  0  0  0
  7  9  1  0  0  0
  9 11  1  0  0  0
 11 12  1  0  0  0
 12 13  1  0  0  0
 13 14  1  0  0  0
 13 18  1  0  0  0
 14 15  1  0  0  0
 15 16  1  0  0  0
 16 17  1  0  0  0
 17 18  1  0  0  0
 22 23  2  0  0  0
 22 27  1  0  0  0
 23 24  1  0  0  0
 24 25  2  0  0  0
 24 31  1  0  0  0
 25 26  1  0  0  0
 25 29  1  0  0  0
 26 27  2  0  0  0
 27 28  1  0  0  0
 29 30  1  0  0  0
 30 31  1  0  0  0
 31 32  1  0  0  0
 32 33  2  0  0  0
 32 34  1  0  0  0
 34 35  1  0  0  0
  9 10  1  0  0  0
M  END
> <minimizedAffinity>
-9.03363

$$$$
2345


 27 30  0  0  0  0  0  0  0  0999 V2000
   25.3122    7.6988   29.4778 C   0  0  0  0  0  0  0  0  0  0  0  0
   24.7390    8.8450   29.6015 O   0  0  0  0  0  0  0  0  0  0  0  0
   26.6895    7.7206   29.2344 N   0  0  0  0  0  0  0  0  0  0  0  0
   27.3938    8.9877   29.1217 C   0  0  0  0  0  0  0  0  0  0  0  0
   28.1114    9.0836   27.7790 C   0  0  0  0  0  0  0  0  0  0  0  0
   28.5779    7.7809   27.4057 N   0  0  0  0  0  0  0  0  0  0  0  0
   28.8453    6.8245   28.4362 C   0  0  0  0  0  0  0  0  0  0  0  0
   27.4806    6.5221   29.0860 C   0  0  0  0  0  0  0  0  0  0  0  0
   22.4965    6.4626   30.9415 N   0  0  0  0  0  0  0  0  0  0  0  0
   22.9783    6.7947   29.6063 C   0  0  0  0  0  0  0  0  0  0  0  0
   24.4551    6.5140   29.6054 C   0  0  0  0  0  0  0  0  0  0  0  0
   24.7358    5.6339   30.7773 C   0  0  0  0  0  0  0  0  0  0  0  0
   23.4229    5.4758   31.4452 C   0  0  0  0  0  0  0  0  0  0  0  0
   23.0605    4.6386   32.3348 O   0  0  0  0  0  0  0  0  0  0  0  0
   17.7150    8.6854   33.7996 Cl  0  0  0  0  0  0  0  0  0  0  0  0
   19.1189    8.0261   32.9608 C   0  0  0  0  0  0  0  0  0  0  0  0
   19.1745    6.7003   32.6220 C   0  0  0  0  0  0  0  0  0  0  0  0
   20.2812    6.1963   31.9642 C   0  0  0  0  0  0  0  0  0  0  0  0
   21.3597    6.9837   31.6227 C   0  0  0  0  0  0  0  0  0  0  0  0
   21.2895    8.3164   31.9692 C   0  0  0  0  0  0  0  0  0  0  0  0
   20.1715    8.8367   32.6371 C   0  0  0  0  0  0  0  0  0  0  0  0
   28.7642    7.4385   26.0494 C   0  0  0  0  0  0  0  0  0  0  0  0
   29.8261    7.7708   25.2642 N   0  0  0  0  0  0  0  0  0  0  0  0
   29.6406    7.2570   24.0410 C   0  0  0  0  0  0  0  0  0  0  0  0
   28.4415    6.5846   24.0345 C   0  0  0  0  0  0  0  0  0  0  0  0
   27.9498    6.7176   25.2537 N   0  0  0  0  0  0  0  0  0  0  0  0
   30.9843    8.5667   25.6918 C   0  0  0  0  0  0  0  0  0  0  0  0
 15 16  1  0  0  0
 16 17  2  0  0  0
 16 21  1  0  0  0
 17 18  1  0  0  0
 18 19  2  0  0  0
 19 20  1  0  0  0
 19  9  1  0  0  0
 20 21  2  0  0  0
  9 10  1  0  0  0
  9 13  1  0  0  0
 10 11  1  0  0  0
 11 12  1  0  0  0
 11  1  1  0  0  0
 12 13  1  0  0  0
 13 14  2  0  0  0
  1  2  2  0  0  0
  1  3  1  0  0  0
  3  4  1  0  0  0
  3  8  1  0  0  0
  4  5  1  0  0  0
  5  6  1  0  0  0
  6  7  1  0  0  0
  6 22  1  0  0  0
  7  8  1  0  0  0
 22 23  1  0  0  0
 22 26  2  0  0  0
 23 24  1  0  0  0
 23 27  1  0  0  0
 24 25  2  0  0  0
 25 26  1  0  0  0
M  END
> <minimizedAffinity>
-7.81992

$$$$
2349


 28 31  0  0  0  0  0  0  0  0999 V2000
   24.4224    5.2373   30.6679 N   0  0  0  0  0  0  0  0  0  0  0  0
   24.9799    5.6432   29.4094 C   0  0  0  0  0  0  0  0  0  0  0  0
   24.3576    6.4954   28.7149 O   0  0  0  0  0  0  0  0  0  0  0  0
   26.2093    5.0473   29.0336 N   0  0  0  0  0  0  0  0  0  0  0  0
   26.8392    4.1908   29.7081 C   0  0  0  0  0  0  0  0  0  0  0  0
   26.4084    3.6294   31.0349 C   0  0  0  0  0  0  0  0  0  0  0  0
   26.1353    2.1776   30.7594 C   0  0  0  0  0  0  0  0  0  0  0  0
   26.2191    1.2823   31.8475 N   0  0  0  0  0  0  0  0  0  0  0  0
   27.2794    1.5029   32.7581 C   0  0  0  0  0  0  0  0  0  0  0  0
   27.8806    2.7187   32.8215 C   0  0  0  0  0  0  0  0  0  0  0  0
   28.9192    2.8982   33.7313 C   0  0  0  0  0  0  0  0  0  0  0  0
   29.3148    1.8524   34.5403 C   0  0  0  0  0  0  0  0  0  0  0  0
   28.7005    0.6110   34.4741 C   0  0  0  0  0  0  0  0  0  0  0  0
   27.6622    0.4451   33.5592 C   0  0  0  0  0  0  0  0  0  0  0  0
   30.4353    2.0109   35.5211 C   0  0  0  0  0  0  0  0  0  0  0  0
   27.5091    3.8850   31.9911 C   0  0  0  0  0  0  0  0  0  0  0  0
   24.9804    1.0696   32.5799 C   0  0  0  0  0  0  0  0  0  0  0  0
   25.1420    4.2895   31.4358 C   0  0  0  0  0  0  0  0  0  0  0  0
   24.6019    4.0219   32.5687 O   0  0  0  0  0  0  0  0  0  0  0  0
   28.0591    3.6725   29.2349 O   0  0  0  0  0  0  0  0  0  0  0  0
   26.4316    0.3188   31.4320 H   0  0  0  0  0  0  0  0  0  0  0  0
   19.1490    7.7015   32.2037 Cl  0  0  0  0  0  0  0  0  0  0  0  0
   20.6734    6.9559   31.7612 C   0  0  0  0  0  0  0  0  0  0  0  0
   21.8534    7.7002   31.7451 C   0  0  0  0  0  0  0  0  0  0  0  0
   23.0505    7.1367   31.3947 C   0  0  0  0  0  0  0  0  0  0  0  0
   23.1752    5.7940   31.0320 C   0  0  0  0  0  0  0  0  0  0  0  0
   21.9982    5.0638   31.0525 C   0  0  0  0  0  0  0  0  0  0  0  0
   20.7950    5.6274   31.4036 C   0  0  0  0  0  0  0  0  0  0  0  0
 22 23  1  0  0  0
 23 24  2  0  0  0
 23 28  1  0  0  0
 24 25  1  0  0  0
 25 26  2  0  0  0
 26 27  1  0  0  0
 26  1  1  0  0  0
 27 28  2  0  0  0
  1  2  1  0  0  0
  1 18  1  0  0  0
  2  3  2  0  0  0
  2  4  1  0  0  0
  4  5  2  0  0  0
  5  6  1  0  0  0
  5 20  1  0  0  0
  6  7  1  0  0  0
  6 16  1  0  0  0
  6 18  1  0  0  0
  7  8  1  0  0  0
  8  9  1  0  0  0
  8 17  1  0  0  0
  9 10  2  0  0  0
  9 14  1  0  0  0
 10 11  1  0  0  0
 10 16  1  0  0  0
 11 12  2  0  0  0
 12 13  1  0  0  0
 12 15  1  0  0  0
 13 14  2  0  0  0
 18 19  2  0  0  0
  8 21  1  0  0  0
M  CHG 1   8   1
M  CHG 1  20  -1
M  END
> <minimizedAffinity>
-7.03563

$$$$
2350


 23 26  0  0  0  0  0  0  0  0999 V2000
   23.2081    9.4287   31.1135 N   0  0  0  0  0  0  0  0  0  0  0  0
   23.3670    9.8488   29.7486 C   0  0  0  0  0  0  0  0  0  0  0  0
   22.6698    9.4023   28.8033 O   0  0  0  0  0  0  0  0  0  0  0  0
   24.4482   10.8590   29.6321 C   0  0  0  0  0  0  0  0  0  0  0  0
   23.9720   12.2015   29.1809 C   0  0  0  0  0  0  0  0  0  0  0  0
   22.5517   12.3681   29.6790 C   0  0  0  0  0  0  0  0  0  0  0  0
   22.7622   12.3930   31.1920 C   0  0  0  0  0  0  0  0  0  0  0  0
   24.2581   12.3843   31.4051 C   0  0  0  0  0  0  0  0  0  0  0  0
   24.8947   11.0685   31.0845 C   0  0  0  0  0  0  0  0  0  0  0  0
   24.3287    9.9197   31.8320 C   0  0  0  0  0  0  0  0  0  0  0  0
   24.7909    9.4826   32.9143 O   0  0  0  0  0  0  0  0  0  0  0  0
   24.6742   13.1740   30.1434 C   0  0  0  0  0  0  0  0  0  0  0  0
   22.3022   13.5890   31.7394 O   0  0  0  0  0  0  0  0  0  0  0  0
   22.1144   13.6185   29.2989 O   0  0  0  0  0  0  0  0  0  0  0  0
   21.3495   13.4393   32.0189 H   0  0  0  0  0  0  0  0  0  0  0  0
   22.3205   13.8683   28.3683 H   0  0  0  0  0  0  0  0  0  0  0  0
   18.7569    6.2931   33.6227 Cl  0  0  0  0  0  0  0  0  0  0  0  0
   20.0673    7.2029   32.8734 C   0  0  0  0  0  0  0  0  0  0  0  0
   20.2083    8.5562   33.1153 C   0  0  0  0  0  0  0  0  0  0  0  0
   21.2244    9.2845   32.5443 C   0  0  0  0  0  0  0  0  0  0  0  0
   22.1544    8.6731   31.6947 C   0  0  0  0  0  0  0  0  0  0  0  0
   21.9825    7.3260   31.4774 C   0  0  0  0  0  0  0  0  0  0  0  0
   20.9766    6.5734   32.0353 C   0  0  0  0  0  0  0  0  0  0  0  0
 17 18  1  0  0  0
 18 19  2  0  0  0
 18 23  1  0  0  0
 19 20  1  0  0  0
 20 21  2  0  0  0
 21 22  1  0  0  0
 21  1  1  0  0  0
 22 23  2  0  0  0
  1  2  1  0  0  0
  1 10  1  0  0  0
  2  3  2  0  0  0
  2  4  1  0  0  0
  4  5  1  0  0  0
  4  9  1  0  0  0
  5  6  1  0  0  0
  5 12  1  0  0  0
  6  7  1  0  0  0
  6 14  1  0  0  0
  7  8  1  0  0  0
  7 13  1  0  0  0
  8  9  1  0  0  0
  8 12  1  0  0  0
  9 10  1  0  0  0
 10 11  2  0  0  0
 13 15  1  0  0  0
 14 16  1  0  0  0
M  END
> <minimizedAffinity>
-7.35144

$$$$
2357


 36 39  0  0  0  0  0  0  0  0999 V2000
   24.6468    7.7059   30.0513 C   0  0  0  0  0  0  0  0  0  0  0  0
   23.9313    8.7841   29.7974 C   0  0  0  0  0  0  0  0  0  0  0  0
   23.9023    9.6669   30.9905 C   0  0  0  0  0  0  0  0  0  0  0  0
   25.0273    9.2037   31.7539 N   0  0  0  0  0  0  0  0  0  0  0  0
   25.1088    7.8511   31.3899 N   0  0  0  0  0  0  0  0  0  0  0  0
   24.9697    9.3646   32.7581 H   0  0  0  0  0  0  0  0  0  0  0  0
   25.4541    7.0924   32.0109 H   0  0  0  0  0  0  0  0  0  0  0  0
   25.4615    4.5979   30.6636 N   0  0  0  0  0  0  0  0  0  0  0  0
   26.8453    4.8860   30.5233 C   0  0  0  0  0  0  0  0  0  0  0  0
   27.6535    4.2420   31.2794 O   0  0  0  0  0  0  0  0  0  0  0  0
   27.2907    5.8329   29.5958 N   0  0  0  0  0  0  0  0  0  0  0  0
   26.3734    6.5273   28.7744 C   0  0  0  0  0  0  0  0  0  0  0  0
   26.7614    7.1219   27.7503 O   0  0  0  0  0  0  0  0  0  0  0  0
   24.9372    6.5523   29.1312 C   0  0  0  0  0  0  0  0  0  0  0  0
   24.5526    5.3038   29.8320 C   0  0  0  0  0  0  0  0  0  0  0  0
   23.3984    4.8669   29.6817 O   0  0  0  0  0  0  0  0  0  0  0  0
   28.3353    6.0073   29.5320 H   0  0  0  0  0  0  0  0  0  0  0  0
   23.6916    0.4979   34.6455 Cl  0  0  0  0  0  0  0  0  0  0  0  0
   24.2147    1.7093   33.4676 C   0  0  0  0  0  0  0  0  0  0  0  0
   25.2551    1.4556   32.6095 C   0  0  0  0  0  0  0  0  0  0  0  0
   25.6496    2.4126   31.6966 C   0  0  0  0  0  0  0  0  0  0  0  0
   25.0291    3.6324   31.6124 C   0  0  0  0  0  0  0  0  0  0  0  0
   23.9933    3.8852   32.4677 C   0  0  0  0  0  0  0  0  0  0  0  0
   23.5782    2.9256   33.4006 C   0  0  0  0  0  0  0  0  0  0  0  0
   22.6116    9.5165   31.6523 C   0  0  0  0  0  0  0  0  0  0  0  0
   22.0011   10.6412   32.1645 C   0  0  0  0  0  0  0  0  0  0  0  0
   20.7792   10.6042   32.8051 C   0  0  0  0  0  0  0  0  0  0  0  0
   20.1472    9.3602   32.9316 C   0  0  0  0  0  0  0  0  0  0  0  0
   20.7182    8.2079   32.4371 C   0  0  0  0  0  0  0  0  0  0  0  0
   21.9420    8.3223   31.8081 C   0  0  0  0  0  0  0  0  0  0  0  0
   18.9269    9.2713   33.5626 O   0  0  0  0  0  0  0  0  0  0  0  0
   18.4899   10.1043   33.9326 H   0  0  0  0  0  0  0  0  0  0  0  0
   20.0623    7.0226   32.5877 O   0  0  0  0  0  0  0  0  0  0  0  0
   20.5526    5.7509   32.2769 C   0  0  0  0  0  0  0  0  0  0  0  0
   20.1554   11.7315   33.3238 O   0  0  0  0  0  0  0  0  0  0  0  0
   20.3537   12.9461   32.6296 C   0  0  0  0  0  0  0  0  0  0  0  0
 18 19  1  0  0  0
 19 20  2  0  0  0
 19 24  1  0  0  0
 20 21  1  0  0  0
 21 22  2  0  0  0
 22 23  1  0  0  0
 22  8  1  0  0  0
 23 24  2  0  0  0
  8  9  1  0  0  0
  8 15  1  0  0  0
  9 10  2  0  0  0
  9 11  1  0  0  0
 11 12  1  0  0  0
 12 13  2  0  0  0
 12 14  1  0  0  0
 14 15  1  0  0  0
 14  1  1  0  0  0
 15 16  2  0  0  0
  1  2  2  0  0  0
  1  5  1  0  0  0
  2  3  1  0  0  0
  3  4  1  0  0  0
  3 25  1  0  0  0
  4  5  1  0  0  0
 25 26  2  0  0  0
 25 30  1  0  0  0
 26 27  1  0  0  0
 27 28  2  0  0  0
 27 35  1  0  0  0
 28 29  1  0  0  0
 28 31  1  0  0  0
 29 30  2  0  0  0
 29 33  1  0  0  0
 33 34  1  0  0  0
 35 36  1  0  0  0
 11 17  1  0  0  0
  4  6  1  0  0  0
  5  7  1  0  0  0
 31 32  1  0  0  0
M  END
> <minimizedAffinity>
-8.84058

$$$$
2358


 34 37  0  0  0  0  0  0  0  0999 V2000
   23.4470   13.0541   30.2744 N   0  0  0  0  0  0  0  0  0  0  0  0
   24.2171   13.2502   29.0966 C   0  0  0  0  0  0  0  0  0  0  0  0
   23.8352   14.1320   28.2723 O   0  0  0  0  0  0  0  0  0  0  0  0
   25.3796   12.4899   28.8373 N   0  0  0  0  0  0  0  0  0  0  0  0
   25.8122   11.5030   29.7535 C   0  0  0  0  0  0  0  0  0  0  0  0
   26.9514   10.9315   29.6297 O   0  0  0  0  0  0  0  0  0  0  0  0
   24.9805   11.0907   30.8836 C   0  0  0  0  0  0  0  0  0  0  0  0
   23.9108   12.0549   31.1709 C   0  0  0  0  0  0  0  0  0  0  0  0
   23.3291   12.0213   32.3100 O   0  0  0  0  0  0  0  0  0  0  0  0
   25.9362   12.6505   27.9577 H   0  0  0  0  0  0  0  0  0  0  0  0
   18.4990   16.1646   31.4733 Cl  0  0  0  0  0  0  0  0  0  0  0  0
   19.9641   15.2655   31.1257 C   0  0  0  0  0  0  0  0  0  0  0  0
   21.2125   15.8584   31.2459 C   0  0  0  0  0  0  0  0  0  0  0  0
   22.3321   15.1338   30.9682 C   0  0  0  0  0  0  0  0  0  0  0  0
   22.2756   13.8056   30.5636 C   0  0  0  0  0  0  0  0  0  0  0  0
   21.0343   13.2210   30.4455 C   0  0  0  0  0  0  0  0  0  0  0  0
   19.8715   13.9427   30.7244 C   0  0  0  0  0  0  0  0  0  0  0  0
   24.4524    9.7120   30.6609 C   0  0  0  0  0  0  0  0  0  0  0  0
   24.6089    8.6549   31.4123 C   0  0  0  0  0  0  0  0  0  0  0  0
   23.8891    7.5379   30.7530 C   0  0  0  0  0  0  0  0  0  0  0  0
   23.7190    7.9893   29.3885 N   0  0  0  0  0  0  0  0  0  0  0  0
   23.6642    9.3812   29.5227 N   0  0  0  0  0  0  0  0  0  0  0  0
   24.5204    7.6912   28.7832 H   0  0  0  0  0  0  0  0  0  0  0  0
   23.1248   10.0107   28.8736 H   0  0  0  0  0  0  0  0  0  0  0  0
   22.5627    7.3174   31.3928 C   0  0  0  0  0  0  0  0  0  0  0  0
   21.9435    8.2829   32.1531 C   0  0  0  0  0  0  0  0  0  0  0  0
   20.7128    8.0878   32.7524 C   0  0  0  0  0  0  0  0  0  0  0  0
   20.0558    6.8882   32.5989 C   0  0  0  0  0  0  0  0  0  0  0  0
   20.6567    5.9121   31.8432 C   0  0  0  0  0  0  0  0  0  0  0  0
   21.8832    6.1166   31.2506 C   0  0  0  0  0  0  0  0  0  0  0  0
   20.1410    9.0958   33.5048 O   0  0  0  0  0  0  0  0  0  0  0  0
   20.6005    9.9757   33.6303 H   0  0  0  0  0  0  0  0  0  0  0  0
   18.8261    6.6722   33.1884 O   0  0  0  0  0  0  0  0  0  0  0  0
   17.6719    7.2515   32.6245 C   0  0  0  0  0  0  0  0  0  0  0  0
 11 12  1  0  0  0
 12 13  2  0  0  0
 12 17  1  0  0  0
 13 14  1  0  0  0
 14 15  2  0  0  0
 15 16  1  0  0  0
 15  1  1  0  0  0
 16 17  2  0  0  0
  1  2  1  0  0  0
  1  8  1  0  0  0
  2  3  2  0  0  0
  2  4  1  0  0  0
  4  5  1  0  0  0
  5  6  2  0  0  0
  5  7  1  0  0  0
  7  8  1  0  0  0
  7 18  1  0  0  0
  8  9  2  0  0  0
 18 19  2  0  0  0
 18 22  1  0  0  0
 19 20  1  0  0  0
 20 21  1  0  0  0
 20 25  1  0  0  0
 21 22  1  0  0  0
 25 26  2  0  0  0
 25 30  1  0  0  0
 26 27  1  0  0  0
 27 28  2  0  0  0
 27 31  1  0  0  0
 28 29  1  0  0  0
 28 33  1  0  0  0
 29 30  2  0  0  0
 33 34  1  0  0  0
  4 10  1  0  0  0
 21 23  1  0  0  0
 22 24  1  0  0  0
 31 32  1  0  0  0
M  END
> <minimizedAffinity>
-9.09727

$$$$
2359


 32 35  0  0  0  0  0  0  0  0999 V2000
   21.3187   11.7521   32.1143 N   0  0  0  0  0  0  0  0  0  0  0  0
   20.3198   11.3384   33.0603 C   0  0  0  0  0  0  0  0  0  0  0  0
   19.6006   12.1844   33.6757 O   0  0  0  0  0  0  0  0  0  0  0  0
   20.1792    9.9414   33.2699 N   0  0  0  0  0  0  0  0  0  0  0  0
   21.0118    9.0004   32.5555 C   0  0  0  0  0  0  0  0  0  0  0  0
   20.5688    7.8523   32.4250 O   0  0  0  0  0  0  0  0  0  0  0  0
   22.2945    9.4359   32.0381 C   0  0  0  0  0  0  0  0  0  0  0  0
   22.1112   10.7905   31.4360 C   0  0  0  0  0  0  0  0  0  0  0  0
   22.6233   11.1459   30.3441 O   0  0  0  0  0  0  0  0  0  0  0  0
   19.4644    9.6229   33.9477 H   0  0  0  0  0  0  0  0  0  0  0  0
   22.0093   17.6482   31.2637 Cl  0  0  0  0  0  0  0  0  0  0  0  0
   21.7679   15.9399   31.4862 C   0  0  0  0  0  0  0  0  0  0  0  0
   22.7456   15.2217   32.1605 C   0  0  0  0  0  0  0  0  0  0  0  0
   22.5754   13.8631   32.3497 C   0  0  0  0  0  0  0  0  0  0  0  0
   21.4675   13.1734   31.8969 C   0  0  0  0  0  0  0  0  0  0  0  0
   20.5055   13.9058   31.2288 C   0  0  0  0  0  0  0  0  0  0  0  0
   20.6415   15.2662   31.0206 C   0  0  0  0  0  0  0  0  0  0  0  0
   23.0219    8.5294   31.1794 C   0  0  0  0  0  0  0  0  0  0  0  0
   24.1918    7.9638   31.3692 C   0  0  0  0  0  0  0  0  0  0  0  0
   24.5642    7.0974   30.2239 C   0  0  0  0  0  0  0  0  0  0  0  0
   23.3354    7.0251   29.4675 N   0  0  0  0  0  0  0  0  0  0  0  0
   22.5417    8.0883   29.8920 N   0  0  0  0  0  0  0  0  0  0  0  0
   22.8628    6.0991   29.5479 H   0  0  0  0  0  0  0  0  0  0  0  0
   21.7487    8.4592   29.3277 H   0  0  0  0  0  0  0  0  0  0  0  0
   24.9253    5.7328   30.6252 C   0  0  0  0  0  0  0  0  0  0  0  0
   23.9722    4.9712   31.2840 C   0  0  0  0  0  0  0  0  0  0  0  0
   24.2780    3.6882   31.6729 C   0  0  0  0  0  0  0  0  0  0  0  0
   25.5116    3.1329   31.4252 C   0  0  0  0  0  0  0  0  0  0  0  0
   26.4682    3.8752   30.7734 C   0  0  0  0  0  0  0  0  0  0  0  0
   26.1542    5.1768   30.3812 C   0  0  0  0  0  0  0  0  0  0  0  0
   23.3233    2.9078   32.3383 O   0  0  0  0  0  0  0  0  0  0  0  0
   22.4166    3.2983   32.5262 H   0  0  0  0  0  0  0  0  0  0  0  0
 11 12  1  0  0  0
 12 13  2  0  0  0
 12 17  1  0  0  0
 13 14  1  0  0  0
 14 15  2  0  0  0
 15 16  1  0  0  0
 15  1  1  0  0  0
 16 17  2  0  0  0
  1  2  1  0  0  0
  1  8  1  0  0  0
  2  3  2  0  0  0
  2  4  1  0  0  0
  4  5  1  0  0  0
  5  6  2  0  0  0
  5  7  1  0  0  0
  7  8  1  0  0  0
  7 18  1  0  0  0
  8  9  2  0  0  0
 18 19  2  0  0  0
 18 22  1  0  0  0
 19 20  1  0  0  0
 20 21  1  0  0  0
 20 25  1  0  0  0
 21 22  1  0  0  0
 25 26  2  0  0  0
 25 30  1  0  0  0
 26 27  1  0  0  0
 27 28  2  0  0  0
 27 31  1  0  0  0
 28 29  1  0  0  0
 29 30  2  0  0  0
  4 10  1  0  0  0
 21 23  1  0  0  0
 22 24  1  0  0  0
 31 32  1  0  0  0
M  END
> <minimizedAffinity>
-9.09439

$$$$
2361


 30 33  0  0  0  0  0  0  0  0999 V2000
   23.0216    9.9945   30.5844 N   0  0  0  0  0  0  0  0  0  0  0  0
   23.0445   10.0052   29.1688 C   0  0  0  0  0  0  0  0  0  0  0  0
   22.2971    9.2328   28.5183 O   0  0  0  0  0  0  0  0  0  0  0  0
   23.9334   10.9132   28.4952 N   0  0  0  0  0  0  0  0  0  0  0  0
   24.7795   11.7878   29.2288 C   0  0  0  0  0  0  0  0  0  0  0  0
   25.7670   12.3149   28.6582 O   0  0  0  0  0  0  0  0  0  0  0  0
   24.4840   12.0608   30.6444 C   0  0  0  0  0  0  0  0  0  0  0  0
   23.8791   10.8796   31.2838 C   0  0  0  0  0  0  0  0  0  0  0  0
   24.1253   10.6305   32.5146 O   0  0  0  0  0  0  0  0  0  0  0  0
   23.9829   10.9545   27.4545 H   0  0  0  0  0  0  0  0  0  0  0  0
   19.3443    6.2945   33.5927 Cl  0  0  0  0  0  0  0  0  0  0  0  0
   20.4199    7.3669   32.7128 C   0  0  0  0  0  0  0  0  0  0  0  0
   21.4845    6.8751   31.9879 C   0  0  0  0  0  0  0  0  0  0  0  0
   22.3346    7.7280   31.2936 C   0  0  0  0  0  0  0  0  0  0  0  0
   22.1457    9.0931   31.3032 C   0  0  0  0  0  0  0  0  0  0  0  0
   21.0809    9.5806   32.0280 C   0  0  0  0  0  0  0  0  0  0  0  0
   20.2343    8.7329   32.7189 C   0  0  0  0  0  0  0  0  0  0  0  0
   23.5714   13.2451   30.7818 C   0  0  0  0  0  0  0  0  0  0  0  0
   23.2042   13.8656   31.8726 C   0  0  0  0  0  0  0  0  0  0  0  0
   22.2979   14.9697   31.5200 C   0  0  0  0  0  0  0  0  0  0  0  0
   22.4760   15.1267   30.1041 N   0  0  0  0  0  0  0  0  0  0  0  0
   22.9606   13.8821   29.6719 N   0  0  0  0  0  0  0  0  0  0  0  0
   23.1194   15.8882   29.8689 H   0  0  0  0  0  0  0  0  0  0  0  0
   22.8516   13.5532   28.6855 H   0  0  0  0  0  0  0  0  0  0  0  0
   20.9164   14.5098   31.8147 C   0  0  0  0  0  0  0  0  0  0  0  0
   19.8388   15.1472   31.2480 C   0  0  0  0  0  0  0  0  0  0  0  0
   18.5699   14.7310   31.5145 N   0  0  0  0  0  0  0  0  0  0  0  0
   18.3059   13.6966   32.3288 C   0  0  0  0  0  0  0  0  0  0  0  0
   19.3622   13.0356   32.9136 C   0  0  0  0  0  0  0  0  0  0  0  0
   20.6753   13.4514   32.6497 C   0  0  0  0  0  0  0  0  0  0  0  0
 11 12  1  0  0  0
 12 13  2  0  0  0
 12 17  1  0  0  0
 13 14  1  0  0  0
 14 15  2  0  0  0
 15 16  1  0  0  0
 15  1  1  0  0  0
 16 17  2  0  0  0
  1  2  1  0  0  0
  1  8  1  0  0  0
  2  3  2  0  0  0
  2  4  1  0  0  0
  4  5  1  0  0  0
  5  6  2  0  0  0
  5  7  1  0  0  0
  7  8  1  0  0  0
  7 18  1  0  0  0
  8  9  2  0  0  0
 18 19  2  0  0  0
 18 22  1  0  0  0
 19 20  1  0  0  0
 20 21  1  0  0  0
 20 25  1  0  0  0
 21 22  1  0  0  0
 25 26  2  0  0  0
 25 30  1  0  0  0
 26 27  1  0  0  0
 27 28  2  0  0  0
 28 29  1  0  0  0
 29 30  2  0  0  0
  4 10  1  0  0  0
 21 23  1  0  0  0
 22 24  1  0  0  0
M  END
> <minimizedAffinity>
-9.16986

$$$$
2363


 33 36  0  0  0  0  0  0  0  0999 V2000
   22.3369   10.0350   31.3387 N   0  0  0  0  0  0  0  0  0  0  0  0
   22.6547   11.2408   30.6608 C   0  0  0  0  0  0  0  0  0  0  0  0
   22.0156   12.4302   31.2037 C   0  0  0  0  0  0  0  0  0  0  0  0
   21.1084   12.3817   32.2186 C   0  0  0  0  0  0  0  0  0  0  0  0
   20.5125   13.5711   32.6789 C   0  0  0  0  0  0  0  0  0  0  0  0
   20.8037   14.8027   32.1489 C   0  0  0  0  0  0  0  0  0  0  0  0
   21.7287   14.8329   31.1182 C   0  0  0  0  0  0  0  0  0  0  0  0
   22.3067   13.6899   30.6693 C   0  0  0  0  0  0  0  0  0  0  0  0
   20.7491   11.1492   32.8636 N   0  0  0  0  0  0  0  0  0  0  0  0
   21.3980    9.9900   32.3804 C   0  0  0  0  0  0  0  0  0  0  0  0
   21.1327    8.8567   32.8981 O   0  0  0  0  0  0  0  0  0  0  0  0
   22.1255   11.0513   29.3352 O   0  0  0  0  0  0  0  0  0  0  0  0
   20.0531   11.1506   33.6300 H   0  0  0  0  0  0  0  0  0  0  0  0
   22.6734   11.5635   28.6851 H   0  0  0  0  0  0  0  0  0  0  0  0
   25.0365    4.9210   29.7094 Cl  0  0  0  0  0  0  0  0  0  0  0  0
   24.2355    6.4239   30.1832 C   0  0  0  0  0  0  0  0  0  0  0  0
   24.8342    7.2349   31.1206 C   0  0  0  0  0  0  0  0  0  0  0  0
   24.2089    8.4193   31.4980 C   0  0  0  0  0  0  0  0  0  0  0  0
   23.0091    8.7880   30.9501 C   0  0  0  0  0  0  0  0  0  0  0  0
   22.4342    7.9557   30.0148 C   0  0  0  0  0  0  0  0  0  0  0  0
   23.0284    6.7713   29.6166 C   0  0  0  0  0  0  0  0  0  0  0  0
   24.1177   11.4163   30.4729 C   0  0  0  0  0  0  0  0  0  0  0  0
   24.8203   11.8005   31.4099 O   0  0  0  0  0  0  0  0  0  0  0  0
   24.6587   11.1307   29.2054 N   0  0  0  0  0  0  0  0  0  0  0  0
   24.0637   10.8006   28.3957 H   0  0  0  0  0  0  0  0  0  0  0  0
   26.0853   11.2680   28.9095 C   0  0  0  0  0  0  0  0  0  0  0  0
   26.8648   10.0683   29.2900 C   0  0  0  0  0  0  0  0  0  0  0  0
   27.2678    9.1972   28.2552 N   0  0  0  0  0  0  0  0  0  0  0  0
   28.1018    9.6911   27.2385 C   0  0  0  0  0  0  0  0  0  0  0  0
   28.6127    8.5094   26.4094 C   0  0  0  0  0  0  0  0  0  0  0  0
   27.6289    7.5073   26.3319 O   0  0  0  0  0  0  0  0  0  0  0  0
   27.4712    6.8584   27.5542 C   0  0  0  0  0  0  0  0  0  0  0  0
   27.6166    7.8756   28.6533 C   0  0  0  0  0  0  0  0  0  0  0  0
 15 16  1  0  0  0
 16 17  2  0  0  0
 16 21  1  0  0  0
 17 18  1  0  0  0
 18 19  2  0  0  0
 19 20  1  0  0  0
 19  1  1  0  0  0
 20 21  2  0  0  0
  1  2  1  0  0  0
  1 10  1  0  0  0
  2  3  1  0  0  0
  2 12  1  0  0  0
  2 22  1  0  0  0
  3  4  1  0  0  0
  3  8  2  0  0  0
  4  5  2  0  0  0
  4  9  1  0  0  0
  5  6  1  0  0  0
  6  7  2  0  0  0
  7  8  1  0  0  0
  9 10  1  0  0  0
 10 11  2  0  0  0
 22 23  2  0  0  0
 22 24  1  0  0  0
 24 26  1  0  0  0
 26 27  1  0  0  0
 27 28  1  0  0  0
 28 29  1  0  0  0
 28 33  1  0  0  0
 29 30  1  0  0  0
 30 31  1  0  0  0
 31 32  1  0  0  0
 32 33  1  0  0  0
  9 13  1  0  0  0
 12 14  1  0  0  0
 24 25  1  0  0  0
M  END
> <minimizedAffinity>
-8.50318

$$$$
2364


 33 37  0  0  0  0  0  0  0  0999 V2000
   26.9980    1.9954   31.1002 N   0  0  0  0  0  0  0  0  0  0  0  0
   26.7350    1.4382   29.8184 C   0  0  0  0  0  0  0  0  0  0  0  0
   27.0321    0.2209   29.5938 O   0  0  0  0  0  0  0  0  0  0  0  0
   26.1292    2.1957   28.7185 C   0  0  0  0  0  0  0  0  0  0  0  0
   26.0313    3.6008   28.9374 N   0  0  0  0  0  0  0  0  0  0  0  0
   25.8217    4.0223   30.2842 C   0  0  0  0  0  0  0  0  0  0  0  0
   24.3837    4.1016   30.7355 C   0  0  0  0  0  0  0  0  0  0  0  0
   24.4858    5.5240   30.7950 N   0  0  0  0  0  0  0  0  0  0  0  0
   25.8218    5.5405   30.3467 C   0  0  0  0  0  0  0  0  0  0  0  0
   26.7374    3.3842   31.2652 C   0  0  0  0  0  0  0  0  0  0  0  0
   27.2770    4.0098   32.2130 O   0  0  0  0  0  0  0  0  0  0  0  0
   27.2178    4.2199   28.4205 C   0  0  0  0  0  0  0  0  0  0  0  0
   28.0642    3.1504   27.7897 C   0  0  0  0  0  0  0  0  0  0  0  0
   27.0728    2.0560   27.5155 C   0  0  0  0  0  0  0  0  0  0  0  0
   28.7143    3.5814   26.6413 O   0  0  0  0  0  0  0  0  0  0  0  0
   29.5874    3.9509   26.9193 H   0  0  0  0  0  0  0  0  0  0  0  0
   27.5117    1.1981   32.1998 C   0  0  0  0  0  0  0  0  0  0  0  0
   22.5959   -0.0731   33.4353 Cl  0  0  0  0  0  0  0  0  0  0  0  0
   24.1969    0.4715   33.8847 C   0  0  0  0  0  0  0  0  0  0  0  0
   25.1855    0.6191   32.9333 C   0  0  0  0  0  0  0  0  0  0  0  0
   26.4537    1.0451   33.2576 C   0  0  0  0  0  0  0  0  0  0  0  0
   26.7222    1.3282   34.5785 C   0  0  0  0  0  0  0  0  0  0  0  0
   25.7393    1.1788   35.5055 C   0  0  0  0  0  0  0  0  0  0  0  0
   24.4656    0.7542   35.2027 C   0  0  0  0  0  0  0  0  0  0  0  0
   23.4938    6.3197   30.1690 C   0  0  0  0  0  0  0  0  0  0  0  0
   22.5593    7.0111   31.0645 C   0  0  0  0  0  0  0  0  0  0  0  0
   21.4445    6.3593   31.5312 C   0  0  0  0  0  0  0  0  0  0  0  0
   20.5381    6.9938   32.3852 C   0  0  0  0  0  0  0  0  0  0  0  0
   20.7731    8.2965   32.7609 C   0  0  0  0  0  0  0  0  0  0  0  0
   21.8813    8.9721   32.3091 C   0  0  0  0  0  0  0  0  0  0  0  0
   22.7647    8.3099   31.4591 C   0  0  0  0  0  0  0  0  0  0  0  0
   19.4159    6.3416   32.8562 O   0  0  0  0  0  0  0  0  0  0  0  0
   18.1754    7.0225   32.8245 C   0  0  0  0  0  0  0  0  0  0  0  0
 18 19  1  0  0  0
 19 20  2  0  0  0
 19 24  1  0  0  0
 20 21  1  0  0  0
 21 22  2  0  0  0
 21 17  1  0  0  0
 22 23  1  0  0  0
 23 24  2  0  0  0
 17  1  1  0  0  0
  1  2  1  0  0  0
  1 10  1  0  0  0
  2  3  2  0  0  0
  2  4  1  0  0  0
  4  5  1  0  0  0
  4 14  1  0  0  0
  5  6  1  0  0  0
  5 12  1  0  0  0
  6  7  1  0  0  0
  6  9  1  0  0  0
  6 10  1  0  0  0
  7  8  1  0  0  0
  8  9  1  0  0  0
  8 25  1  0  0  0
 25 26  1  0  0  0
 26 27  2  0  0  0
 26 31  1  0  0  0
 27 28  1  0  0  0
 28 29  2  0  0  0
 28 32  1  0  0  0
 29 30  1  0  0  0
 30 31  2  0  0  0
 32 33  1  0  0  0
 10 11  2  0  0  0
 12 13  1  0  0  0
 13 14  1  0  0  0
 13 15  1  0  0  0
 15 16  1  0  0  0
M  END
> <minimizedAffinity>
-7.79365

$$$$
2365


 32 36  0  0  0  0  0  0  0  0999 V2000
   26.2582   12.7077   28.2813 N   0  0  0  0  0  0  0  0  0  0  0  0
   26.8614   12.3746   27.0591 C   0  0  0  0  0  0  0  0  0  0  0  0
   26.7881   11.1725   26.6609 O   0  0  0  0  0  0  0  0  0  0  0  0
   26.3093   13.6978   28.6236 H   0  0  0  0  0  0  0  0  0  0  0  0
   27.5846   13.3358   26.1941 C   0  0  0  0  0  0  0  0  0  0  0  0
   26.7717   14.6002   26.0034 C   0  0  0  0  0  0  0  0  0  0  0  0
   27.4957   15.5733   25.1165 C   0  0  0  0  0  0  0  0  0  0  0  0
   28.7877   15.9620   25.8382 C   0  0  0  0  0  0  0  0  0  0  0  0
   29.6213   14.7416   26.0646 C   0  0  0  0  0  0  0  0  0  0  0  0
   28.8666   13.7295   26.8952 C   0  0  0  0  0  0  0  0  0  0  0  0
   29.9753   14.1304   24.7286 C   0  0  0  0  0  0  0  0  0  0  0  0
   28.6870   13.7487   24.0373 C   0  0  0  0  0  0  0  0  0  0  0  0
   27.8702   14.9909   23.7892 C   0  0  0  0  0  0  0  0  0  0  0  0
   27.9364   12.7303   24.8532 C   0  0  0  0  0  0  0  0  0  0  0  0
   26.6545   16.7470   24.9888 N   0  0  0  0  0  0  0  0  0  0  0  0
   26.9854   18.0168   24.8340 N   0  0  0  0  0  0  0  0  0  0  0  0
   25.9414   18.7865   24.7569 N   0  0  0  0  0  0  0  0  0  0  0  0
   24.8671   18.0247   24.8625 C   0  0  0  0  0  0  0  0  0  0  0  0
   25.3113   16.7451   25.0075 N   0  0  0  0  0  0  0  0  0  0  0  0
   24.5776   12.0511   29.9741 C   0  0  0  0  0  0  0  0  0  0  0  0
   24.1941   13.2308   30.1766 O   0  0  0  0  0  0  0  0  0  0  0  0
   25.5995   11.7647   29.0378 N   0  0  0  0  0  0  0  0  0  0  0  0
   25.8670   10.7469   28.9234 H   0  0  0  0  0  0  0  0  0  0  0  0
   23.9008   10.9827   30.7649 C   0  0  0  0  0  0  0  0  0  0  0  0
   24.5957   10.7008   32.0539 C   0  0  0  0  0  0  0  0  0  0  0  0
   22.4544   11.3657   30.9792 C   0  0  0  0  0  0  0  0  0  0  0  0
   20.2936    6.5326   32.2988 Br  0  0  0  0  0  0  0  0  0  0  0  0
   20.7911    8.3709   32.2237 C   0  0  0  0  0  0  0  0  0  0  0  0
   21.6220    9.0148   31.3289 C   0  0  0  0  0  0  0  0  0  0  0  0
   21.6995   10.3323   31.6477 N   0  0  0  0  0  0  0  0  0  0  0  0
   20.9502   10.5158   32.7004 N   0  0  0  0  0  0  0  0  0  0  0  0
   20.3694    9.3710   33.1032 C   0  0  0  0  0  0  0  0  0  0  0  0
 27 28  1  0  0  0
 28 29  2  0  0  0
 28 32  1  0  0  0
 29 30  1  0  0  0
 30 31  1  0  0  0
 30 26  1  0  0  0
 31 32  2  0  0  0
 26 24  1  0  0  0
 24 25  1  0  0  0
 24 20  1  0  0  0
 20 21  2  0  0  0
 20 22  1  0  0  0
 22  1  1  0  0  0
  1  2  1  0  0  0
  2  3  2  0  0  0
  2  5  1  0  0  0
  5  6  1  0  0  0
  5 10  1  0  0  0
  5 14  1  0  0  0
  6  7  1  0  0  0
  7  8  1  0  0  0
  7 13  1  0  0  0
  7 15  1  0  0  0
  8  9  1  0  0  0
  9 10  1  0  0  0
  9 11  1  0  0  0
 11 12  1  0  0  0
 12 13  1  0  0  0
 12 14  1  0  0  0
 15 16  1  0  0  0
 15 19  1  0  0  0
 16 17  2  0  0  0
 17 18  1  0  0  0
 18 19  2  0  0  0
 22 23  1  0  0  0
  1  4  1  0  0  0
M  END
> <minimizedAffinity>
-8.43857

$$$$
2373


 28 31  0  0  0  0  0  0  0  0999 V2000
   23.2441    7.9033   31.4961 N   0  0  0  0  0  0  0  0  0  0  0  0
   21.9853    7.5012   31.5121 C   0  0  0  0  0  0  0  0  0  0  0  0
   21.1428    8.5481   31.7227 N   0  0  0  0  0  0  0  0  0  0  0  0
   21.8755    9.6327   31.8480 C   0  0  0  0  0  0  0  0  0  0  0  0
   23.2161    9.2187   31.7005 C   0  0  0  0  0  0  0  0  0  0  0  0
   19.7121    8.4293   31.7420 C   0  0  0  0  0  0  0  0  0  0  0  0
   19.2495    7.7800   33.0444 C   0  0  0  0  0  0  0  0  0  0  0  0
   20.3332    6.7472   33.3711 C   0  0  0  0  0  0  0  0  0  0  0  0
   20.3861    5.7580   32.2397 C   0  0  0  0  0  0  0  0  0  0  0  0
   21.5937    6.0681   31.3411 C   0  0  0  0  0  0  0  0  0  0  0  0
   21.4869   11.0294   32.0650 C   0  0  0  0  0  0  0  0  0  0  0  0
   20.5129   11.4693   32.9020 C   0  0  0  0  0  0  0  0  0  0  0  0
   20.1441   12.8096   33.0107 C   0  0  0  0  0  0  0  0  0  0  0  0
   20.7704   13.7635   32.2566 C   0  0  0  0  0  0  0  0  0  0  0  0
   21.7629   13.3510   31.4008 C   0  0  0  0  0  0  0  0  0  0  0  0
   22.1143   12.0222   31.3041 C   0  0  0  0  0  0  0  0  0  0  0  0
   20.4189   15.1214   32.3460 O   0  0  0  0  0  0  0  0  0  0  0  0
   21.1964   16.1442   31.7840 C   0  0  0  0  0  0  0  0  0  0  0  0
   24.4949    7.1610   31.3112 C   0  0  0  0  0  0  0  0  0  0  0  0
   24.7198    6.9918   29.8595 C   0  0  0  0  0  0  0  0  0  0  0  0
   24.4192    7.9767   29.1061 O   0  0  0  0  0  0  0  0  0  0  0  0
   26.9033    1.9081   27.5103 Cl  0  0  0  0  0  0  0  0  0  0  0  0
   26.2574    3.3641   28.2223 C   0  0  0  0  0  0  0  0  0  0  0  0
   25.6602    3.4139   29.4571 C   0  0  0  0  0  0  0  0  0  0  0  0
   25.1682    4.5871   29.9721 C   0  0  0  0  0  0  0  0  0  0  0  0
   25.2528    5.7888   29.2590 C   0  0  0  0  0  0  0  0  0  0  0  0
   25.8463    5.7409   28.0323 C   0  0  0  0  0  0  0  0  0  0  0  0
   26.3364    4.5589   27.5243 C   0  0  0  0  0  0  0  0  0  0  0  0
 22 23  1  0  0  0
 23 24  2  0  0  0
 23 28  1  0  0  0
 24 25  1  0  0  0
 25 26  2  0  0  0
 26 27  1  0  0  0
 26 20  1  0  0  0
 27 28  2  0  0  0
 20 21  2  0  0  0
 20 19  1  0  0  0
 19  1  1  0  0  0
  1  2  2  0  0  0
  1  5  1  0  0  0
  2  3  1  0  0  0
  2 10  1  0  0  0
  3  4  1  0  0  0
  3  6  1  0  0  0
  4  5  2  0  0  0
  4 11  1  0  0  0
 11 12  2  0  0  0
 11 16  1  0  0  0
 12 13  1  0  0  0
 13 14  2  0  0  0
 14 15  1  0  0  0
 14 17  1  0  0  0
 15 16  2  0  0  0
 17 18  1  0  0  0
  6  7  1  0  0  0
  7  8  1  0  0  0
  8  9  1  0  0  0
  9 10  1  0  0  0
M  END
> <minimizedAffinity>
-8.95797

$$$$
2375


 37 40  0  0  0  0  0  0  0  0999 V2000
   26.5282    9.6066   29.4823 C   0  0  0  0  0  0  0  0  0  0  0  0
   26.3451   11.0231   29.6044 C   0  0  0  0  0  0  0  0  0  0  0  0
   27.8162    4.9687   28.9378 C   0  0  0  0  0  0  0  0  0  0  0  0
   29.1791    5.5194   28.9778 C   0  0  0  0  0  0  0  0  0  0  0  0
   29.3336    7.0080   28.7901 C   0  0  0  0  0  0  0  0  0  0  0  0
   28.1206    7.7573   28.7560 N   0  0  0  0  0  0  0  0  0  0  0  0
   27.0766    7.1708   27.8923 C   0  0  0  0  0  0  0  0  0  0  0  0
   26.7771    5.7913   28.2168 C   0  0  0  0  0  0  0  0  0  0  0  0
   27.9326    9.0822   29.2173 C   0  0  0  0  0  0  0  0  0  0  0  0
   28.8878    9.8310   29.4071 O   0  0  0  0  0  0  0  0  0  0  0  0
   27.3824    4.8345   30.2913 O   0  0  0  0  0  0  0  0  0  0  0  0
   27.1461    3.9150   30.4997 H   0  0  0  0  0  0  0  0  0  0  0  0
   27.8583   -0.6129   26.5405 Cl  0  0  0  0  0  0  0  0  0  0  0  0
   27.8123    1.0300   27.2239 C   0  0  0  0  0  0  0  0  0  0  0  0
   28.9768    1.7297   27.4390 C   0  0  0  0  0  0  0  0  0  0  0  0
   28.9262    3.0176   27.9926 C   0  0  0  0  0  0  0  0  0  0  0  0
   27.7240    3.6205   28.3321 C   0  0  0  0  0  0  0  0  0  0  0  0
   26.5902    2.9097   28.1066 C   0  0  0  0  0  0  0  0  0  0  0  0
   26.6127    1.6311   27.5637 C   0  0  0  0  0  0  0  0  0  0  0  0
   25.8050    8.6570   30.2947 N   0  0  0  0  0  0  0  0  0  0  0  0
   24.4663    8.3090   30.1223 C   0  0  0  0  0  0  0  0  0  0  0  0
   23.9262    9.0629   29.0992 O   0  0  0  0  0  0  0  0  0  0  0  0
   26.4260    8.3004   31.0969 H   0  0  0  0  0  0  0  0  0  0  0  0
   23.5259    7.4300   30.6374 C   0  0  0  0  0  0  0  0  0  0  0  0
   22.4035    7.2234   31.2595 C   0  0  0  0  0  0  0  0  0  0  0  0
   21.9492    5.8433   31.4761 N   0  0  0  0  0  0  0  0  0  0  0  0
   20.8208    5.5223   32.2045 N   0  0  0  0  0  0  0  0  0  0  0  0
   20.0223    6.4905   32.7918 C   0  0  0  0  0  0  0  0  0  0  0  0
   18.9843    6.2447   33.4569 O   0  0  0  0  0  0  0  0  0  0  0  0
   20.4002    7.9148   32.6284 C   0  0  0  0  0  0  0  0  0  0  0  0
   21.5323    8.1900   31.8989 C   0  0  0  0  0  0  0  0  0  0  0  0
   21.9047    9.5382   31.8574 C   0  0  0  0  0  0  0  0  0  0  0  0
   21.1586   10.5120   32.5056 C   0  0  0  0  0  0  0  0  0  0  0  0
   20.0301   10.1914   33.2139 C   0  0  0  0  0  0  0  0  0  0  0  0
   19.6510    8.8675   33.2751 C   0  0  0  0  0  0  0  0  0  0  0  0
   22.5489    5.0932   31.0363 H   0  0  0  0  0  0  0  0  0  0  0  0
   20.5532    4.5058   32.3191 H   0  0  0  0  0  0  0  0  0  0  0  0
 13 14  1  0  0  0
 14 15  2  0  0  0
 14 19  1  0  0  0
 15 16  1  0  0  0
 16 17  2  0  0  0
 17 18  1  0  0  0
 17  3  1  0  0  0
 18 19  2  0  0  0
  3  4  1  0  0  0
  3  8  1  0  0  0
  3 11  1  0  0  0
  4  5  1  0  0  0
  5  6  1  0  0  0
  6  7  1  0  0  0
  6  9  1  0  0  0
  7  8  1  0  0  0
  9 10  2  0  0  0
  9  1  1  0  0  0
  1 20  1  0  0  0
  1  2  1  0  0  0
 20 21  1  0  0  0
 21 22  2  0  0  0
 21 24  1  0  0  0
 24 25  2  0  0  0
 25 26  1  0  0  0
 25 31  1  0  0  0
 26 27  1  0  0  0
 27 28  1  0  0  0
 28 29  2  0  0  0
 28 30  1  0  0  0
 30 31  2  0  0  0
 30 35  1  0  0  0
 31 32  1  0  0  0
 32 33  2  0  0  0
 33 34  1  0  0  0
 34 35  2  0  0  0
 20 23  1  0  0  0
 26 36  1  0  0  0
 27 37  1  0  0  0
 11 12  1  0  0  0
M  END
> <minimizedAffinity>
-9.92506

$$$$
2377


 33 36  0  0  0  0  0  0  0  0999 V2000
   26.1968    5.4315   29.1028 N   0  0  0  0  0  0  0  0  0  0  0  0
   26.2936    5.5277   27.6497 C   0  0  0  0  0  0  0  0  0  0  0  0
   27.4172    6.4413   27.2150 C   0  0  0  0  0  0  0  0  0  0  0  0
   28.3150    6.6026   28.3328 N   0  0  0  0  0  0  0  0  0  0  0  0
   28.6395    5.3901   29.0624 C   0  0  0  0  0  0  0  0  0  0  0  0
   27.3880    4.9994   29.8472 C   0  0  0  0  0  0  0  0  0  0  0  0
   28.8703    7.8355   28.7326 C   0  0  0  0  0  0  0  0  0  0  0  0
   29.6398    7.8644   29.7179 O   0  0  0  0  0  0  0  0  0  0  0  0
   25.0820    3.4328   31.0502 Cl  0  0  0  0  0  0  0  0  0  0  0  0
   24.3786    4.9907   30.6960 C   0  0  0  0  0  0  0  0  0  0  0  0
   25.0007    5.7838   29.7560 C   0  0  0  0  0  0  0  0  0  0  0  0
   24.3591    7.0082   29.5213 C   0  0  0  0  0  0  0  0  0  0  0  0
   23.2332    7.3492   30.1754 N   0  0  0  0  0  0  0  0  0  0  0  0
   22.6338    6.5973   31.0741 N   0  0  0  0  0  0  0  0  0  0  0  0
   23.2099    5.4170   31.3331 C   0  0  0  0  0  0  0  0  0  0  0  0
   22.7005    4.6394   32.1785 O   0  0  0  0  0  0  0  0  0  0  0  0
   21.4424    7.0374   31.7193 C   0  0  0  0  0  0  0  0  0  0  0  0
   20.3612    6.1942   31.9248 C   0  0  0  0  0  0  0  0  0  0  0  0
   19.2001    6.6040   32.5479 C   0  0  0  0  0  0  0  0  0  0  0  0
   19.1204    7.9110   32.9819 C   0  0  0  0  0  0  0  0  0  0  0  0
   20.1800    8.7791   32.7925 C   0  0  0  0  0  0  0  0  0  0  0  0
   21.3445    8.3331   32.1570 C   0  0  0  0  0  0  0  0  0  0  0  0
   28.5909    9.1179   28.0423 C   0  0  0  0  0  0  0  0  0  0  0  0
   28.0239   10.1341   29.0064 C   0  0  0  0  0  0  0  0  0  0  0  0
   26.6108    9.8240   29.4019 C   0  0  0  0  0  0  0  0  0  0  0  0
   25.7418   10.9797   29.4290 N   0  0  0  0  0  0  0  0  0  0  0  0
   25.0882   11.5071   30.5691 C   0  0  0  0  0  0  0  0  0  0  0  0
   25.1539   11.0517   31.7603 O   0  0  0  0  0  0  0  0  0  0  0  0
   24.3197   12.6437   30.2409 N   0  0  0  0  0  0  0  0  0  0  0  0
   24.4501   12.8839   28.8208 C   0  0  0  0  0  0  0  0  0  0  0  0
   25.3639   11.8252   28.3372 C   0  0  0  0  0  0  0  0  0  0  0  0
   25.7530   11.6805   27.1588 O   0  0  0  0  0  0  0  0  0  0  0  0
   23.5307   13.4434   31.1556 C   0  0  0  0  0  0  0  0  0  0  0  0
  9 10  1  0  0  0
 10 11  2  0  0  0
 10 15  1  0  0  0
 11 12  1  0  0  0
 11  1  1  0  0  0
 12 13  2  0  0  0
 13 14  1  0  0  0
 14 15  1  0  0  0
 14 17  1  0  0  0
 15 16  2  0  0  0
 17 18  2  0  0  0
 17 22  1  0  0  0
 18 19  1  0  0  0
 19 20  2  0  0  0
 20 21  1  0  0  0
 21 22  2  0  0  0
  1  2  1  0  0  0
  1  6  1  0  0  0
  2  3  1  0  0  0
  3  4  1  0  0  0
  4  5  1  0  0  0
  4  7  1  0  0  0
  5  6  1  0  0  0
  7  8  2  0  0  0
  7 23  1  0  0  0
 23 24  1  0  0  0
 24 25  1  0  0  0
 25 26  1  0  0  0
 26 27  1  0  0  0
 26 31  1  0  0  0
 27 28  2  0  0  0
 27 29  1  0  0  0
 29 30  1  0  0  0
 29 33  1  0  0  0
 30 31  1  0  0  0
 31 32  2  0  0  0
M  END
> <minimizedAffinity>
-8.49032

$$$$
2380


 27 30  0  0  0  0  0  0  0  0999 V2000
   25.0360    3.4096   30.9244 Cl  0  0  0  0  0  0  0  0  0  0  0  0
   24.2827    4.9571   30.5538 C   0  0  0  0  0  0  0  0  0  0  0  0
   24.8387    5.7148   29.5508 C   0  0  0  0  0  0  0  0  0  0  0  0
   24.2227    6.9273   29.2850 C   0  0  0  0  0  0  0  0  0  0  0  0
   23.1430    7.3047   29.9916 N   0  0  0  0  0  0  0  0  0  0  0  0
   22.5981    6.5852   30.9586 N   0  0  0  0  0  0  0  0  0  0  0  0
   23.1719    5.4028   31.2428 C   0  0  0  0  0  0  0  0  0  0  0  0
   22.7059    4.6607   32.1538 O   0  0  0  0  0  0  0  0  0  0  0  0
   25.9745    5.2420   28.8596 N   0  0  0  0  0  0  0  0  0  0  0  0
   27.3246    5.4506   29.3702 C   0  0  0  0  0  0  0  0  0  0  0  0
   27.9786    6.4252   28.3716 C   0  0  0  0  0  0  0  0  0  0  0  0
   27.8502    5.9300   27.0368 N   0  0  0  0  0  0  0  0  0  0  0  0
   27.2401    4.5936   26.8727 C   0  0  0  0  0  0  0  0  0  0  0  0
   25.9141    4.5186   27.6025 C   0  0  0  0  0  0  0  0  0  0  0  0
   28.2756    6.6462   25.8877 C   0  0  0  0  0  0  0  0  0  0  0  0
   28.1408    6.1659   24.7225 O   0  0  0  0  0  0  0  0  0  0  0  0
   28.8959    7.9806   25.9629 C   0  0  0  0  0  0  0  0  0  0  0  0
   30.1373    7.9776   25.4046 O   0  0  0  0  0  0  0  0  0  0  0  0
   30.3710    9.2300   24.8511 C   0  0  0  0  0  0  0  0  0  0  0  0
   29.0306    9.5117   24.1873 C   0  0  0  0  0  0  0  0  0  0  0  0
   28.0728    9.0362   25.2595 C   0  0  0  0  0  0  0  0  0  0  0  0
   21.4433    7.0437   31.6775 C   0  0  0  0  0  0  0  0  0  0  0  0
   21.3993    8.3299   32.1747 C   0  0  0  0  0  0  0  0  0  0  0  0
   20.2813    8.7900   32.8762 C   0  0  0  0  0  0  0  0  0  0  0  0
   19.2053    7.9644   33.0820 C   0  0  0  0  0  0  0  0  0  0  0  0
   19.2356    6.6829   32.5943 C   0  0  0  0  0  0  0  0  0  0  0  0
   20.3413    6.2461   31.9063 C   0  0  0  0  0  0  0  0  0  0  0  0
  1  2  1  0  0  0
  2  3  2  0  0  0
  2  7  1  0  0  0
  3  4  1  0  0  0
  3  9  1  0  0  0
  4  5  2  0  0  0
  5  6  1  0  0  0
  6  7  1  0  0  0
  6 22  1  0  0  0
  7  8  2  0  0  0
 22 23  2  0  0  0
 22 27  1  0  0  0
 23 24  1  0  0  0
 24 25  2  0  0  0
 25 26  1  0  0  0
 26 27  2  0  0  0
  9 10  1  0  0  0
  9 14  1  0  0  0
 10 11  1  0  0  0
 11 12  1  0  0  0
 12 13  1  0  0  0
 12 15  1  0  0  0
 13 14  1  0  0  0
 15 16  2  0  0  0
 15 17  1  0  0  0
 17 18  1  0  0  0
 17 21  1  0  0  0
 18 19  1  0  0  0
 19 20  1  0  0  0
 20 21  1  0  0  0
M  END
> <minimizedAffinity>
-7.71815

$$$$
2381


 30 33  0  0  0  0  0  0  0  0999 V2000
   23.1199   12.8991   30.5389 N   0  0  0  0  0  0  0  0  0  0  0  0
   24.1555   12.6727   31.5083 C   0  0  0  0  0  0  0  0  0  0  0  0
   24.5313   11.2097   31.5869 C   0  0  0  0  0  0  0  0  0  0  0  0
   23.3977   10.3489   31.3586 N   0  0  0  0  0  0  0  0  0  0  0  0
   22.0744   10.9228   31.3895 C   0  0  0  0  0  0  0  0  0  0  0  0
   22.0123   11.9890   30.3261 C   0  0  0  0  0  0  0  0  0  0  0  0
   23.5904    8.9663   31.1093 C   0  0  0  0  0  0  0  0  0  0  0  0
   24.7555    8.4540   31.0800 O   0  0  0  0  0  0  0  0  0  0  0  0
   21.9050   15.3812   31.7366 Cl  0  0  0  0  0  0  0  0  0  0  0  0
   22.6649   15.2892   30.1643 C   0  0  0  0  0  0  0  0  0  0  0  0
   23.1833   14.0820   29.7405 C   0  0  0  0  0  0  0  0  0  0  0  0
   23.7724   14.0786   28.4887 C   0  0  0  0  0  0  0  0  0  0  0  0
   23.8370   15.1873   27.7280 N   0  0  0  0  0  0  0  0  0  0  0  0
   23.3451   16.3522   28.1181 N   0  0  0  0  0  0  0  0  0  0  0  0
   22.7647   16.3925   29.3311 C   0  0  0  0  0  0  0  0  0  0  0  0
   22.2969   17.4878   29.7069 O   0  0  0  0  0  0  0  0  0  0  0  0
   23.4173   17.5250   27.3023 C   0  0  0  0  0  0  0  0  0  0  0  0
   24.1874   17.5439   26.1575 C   0  0  0  0  0  0  0  0  0  0  0  0
   24.2630   18.6712   25.3648 C   0  0  0  0  0  0  0  0  0  0  0  0
   23.5768   19.8270   25.6764 C   0  0  0  0  0  0  0  0  0  0  0  0
   22.8047   19.8142   26.8190 C   0  0  0  0  0  0  0  0  0  0  0  0
   22.7335   18.6875   27.6061 C   0  0  0  0  0  0  0  0  0  0  0  0
   22.4567    8.0354   30.8686 C   0  0  0  0  0  0  0  0  0  0  0  0
   22.1727    7.2525   31.9963 O   0  0  0  0  0  0  0  0  0  0  0  0
   20.8693    7.0754   32.4188 C   0  0  0  0  0  0  0  0  0  0  0  0
   20.2190    5.9529   32.7448 N   0  0  0  0  0  0  0  0  0  0  0  0
   19.0028    6.2226   33.0905 O   0  0  0  0  0  0  0  0  0  0  0  0
   18.7590    7.5150   33.0223 C   0  0  0  0  0  0  0  0  0  0  0  0
   19.9385    8.0896   32.5942 C   0  0  0  0  0  0  0  0  0  0  0  0
   17.4579    8.1213   33.3578 C   0  0  0  0  0  0  0  0  0  0  0  0
  9 10  1  0  0  0
 10 11  2  0  0  0
 10 15  1  0  0  0
 11 12  1  0  0  0
 11  1  1  0  0  0
 12 13  2  0  0  0
 13 14  1  0  0  0
 14 15  1  0  0  0
 14 17  1  0  0  0
 15 16  2  0  0  0
 17 18  2  0  0  0
 17 22  1  0  0  0
 18 19  1  0  0  0
 19 20  2  0  0  0
 20 21  1  0  0  0
 21 22  2  0  0  0
  1  2  1  0  0  0
  1  6  1  0  0  0
  2  3  1  0  0  0
  3  4  1  0  0  0
  4  5  1  0  0  0
  4  7  1  0  0  0
  5  6  1  0  0  0
  7  8  2  0  0  0
  7 23  1  0  0  0
 23 24  1  0  0  0
 24 25  1  0  0  0
 25 26  2  0  0  0
 25 29  1  0  0  0
 26 27  1  0  0  0
 27 28  1  0  0  0
 28 29  2  0  0  0
 28 30  1  0  0  0
M  END
> <minimizedAffinity>
-9.73989

$$$$
2386


 30 33  0  0  0  0  0  0  0  0999 V2000
   26.3489    6.8456   29.3642 Cl  0  0  0  0  0  0  0  0  0  0  0  0
   24.7377    7.2185   29.9680 C   0  0  0  0  0  0  0  0  0  0  0  0
   24.6307    8.2535   30.8943 C   0  0  0  0  0  0  0  0  0  0  0  0
   23.3775    8.5570   31.3764 C   0  0  0  0  0  0  0  0  0  0  0  0
   22.2675    7.8448   30.9420 C   0  0  0  0  0  0  0  0  0  0  0  0
   22.3829    6.8136   30.0177 C   0  0  0  0  0  0  0  0  0  0  0  0
   23.6426    6.5087   29.5345 C   0  0  0  0  0  0  0  0  0  0  0  0
   20.9767    8.0899   31.3792 O   0  0  0  0  0  0  0  0  0  0  0  0
   20.5241    8.6106   32.5982 C   0  0  0  0  0  0  0  0  0  0  0  0
   20.9885    9.9801   32.9373 C   0  0  0  0  0  0  0  0  0  0  0  0
   22.1952   10.4217   32.3166 N   0  0  0  0  0  0  0  0  0  0  0  0
   23.4641    9.6820   32.3455 C   0  0  0  0  0  0  0  0  0  0  0  0
   22.1967   11.6634   31.6237 C   0  0  0  0  0  0  0  0  0  0  0  0
   21.1210   12.3044   31.6081 O   0  0  0  0  0  0  0  0  0  0  0  0
   18.9839    8.6045   32.5740 C   0  0  0  0  0  0  0  0  0  0  0  0
   18.5714    7.2196   32.1539 C   0  0  0  0  0  0  0  0  0  0  0  0
   19.6437    6.3504   32.0566 O   0  0  0  0  0  0  0  0  0  0  0  0
   20.3661    6.2582   33.2331 C   0  0  0  0  0  0  0  0  0  0  0  0
   20.8612    7.6058   33.7113 C   0  0  0  0  0  0  0  0  0  0  0  0
   23.3807   12.1877   30.9608 C   0  0  0  0  0  0  0  0  0  0  0  0
   23.4160   13.6219   30.6229 C   0  0  0  0  0  0  0  0  0  0  0  0
   23.0272   14.0675   29.2751 C   0  0  0  0  0  0  0  0  0  0  0  0
   24.0043   14.5352   28.3642 N   0  0  0  0  0  0  0  0  0  0  0  0
   24.0287   15.8196   27.7681 C   0  0  0  0  0  0  0  0  0  0  0  0
   23.2175   16.7794   27.9278 O   0  0  0  0  0  0  0  0  0  0  0  0
   25.1645   15.8652   26.9224 N   0  0  0  0  0  0  0  0  0  0  0  0
   26.0524   14.7581   27.2704 C   0  0  0  0  0  0  0  0  0  0  0  0
   25.1135   13.7982   27.8886 C   0  0  0  0  0  0  0  0  0  0  0  0
   25.2985   12.5304   27.9648 O   0  0  0  0  0  0  0  0  0  0  0  0
   25.3706   16.5512   26.1697 H   0  0  0  0  0  0  0  0  0  0  0  0
  1  2  1  0  0  0
  2  3  2  0  0  0
  2  7  1  0  0  0
  3  4  1  0  0  0
  4  5  2  0  0  0
  4 12  1  0  0  0
  5  6  1  0  0  0
  5  8  1  0  0  0
  6  7  2  0  0  0
  8  9  1  0  0  0
  9 10  1  0  0  0
  9 15  1  0  0  0
  9 19  1  0  0  0
 10 11  1  0  0  0
 11 12  1  0  0  0
 11 13  1  0  0  0
 13 14  2  0  0  0
 13 20  1  0  0  0
 20 21  1  0  0  0
 21 22  1  0  0  0
 22 23  1  0  0  0
 23 24  1  0  0  0
 23 28  1  0  0  0
 24 25  2  0  0  0
 24 26  1  0  0  0
 26 27  1  0  0  0
 27 28  1  0  0  0
 28 29  2  0  0  0
 15 16  1  0  0  0
 16 17  1  0  0  0
 17 18  1  0  0  0
 18 19  1  0  0  0
 26 30  1  0  0  0
M  END
> <minimizedAffinity>
-8.70344

$$$$
2402


 33 36  0  0  0  0  0  0  0  0999 V2000
   22.7489   11.4824   31.9342 C   0  0  0  0  0  0  0  0  0  0  0  0
   22.2014   12.6974   31.4088 N   0  0  0  0  0  0  0  0  0  0  0  0
   22.6767   12.9327   30.0925 C   0  0  0  0  0  0  0  0  0  0  0  0
   22.3123   13.7682   29.2302 O   0  0  0  0  0  0  0  0  0  0  0  0
   23.7738   11.9753   29.8199 C   0  0  0  0  0  0  0  0  0  0  0  0
   24.4425   11.8760   28.7608 O   0  0  0  0  0  0  0  0  0  0  0  0
   23.8979   11.1903   31.0338 C   0  0  0  0  0  0  0  0  0  0  0  0
   24.9044   10.3326   31.2443 C   0  0  0  0  0  0  0  0  0  0  0  0
   24.8309    9.6451   32.4625 O   0  0  0  0  0  0  0  0  0  0  0  0
   25.9948   10.1239   30.2988 C   0  0  0  0  0  0  0  0  0  0  0  0
   26.9452   10.9070   29.9201 O   0  0  0  0  0  0  0  0  0  0  0  0
   27.7569   10.3923   29.0453 C   0  0  0  0  0  0  0  0  0  0  0  0
   27.3258    9.1011   28.7814 C   0  0  0  0  0  0  0  0  0  0  0  0
   26.2000    8.9544   29.5940 C   0  0  0  0  0  0  0  0  0  0  0  0
   28.0132    8.3230   27.8805 C   0  0  0  0  0  0  0  0  0  0  0  0
   29.1266    8.8087   27.2348 C   0  0  0  0  0  0  0  0  0  0  0  0
   29.5658   10.1011   27.4931 C   0  0  0  0  0  0  0  0  0  0  0  0
   28.8798   10.8612   28.3866 C   0  0  0  0  0  0  0  0  0  0  0  0
   29.2901   12.1481   28.6657 O   0  0  0  0  0  0  0  0  0  0  0  0
   30.4629   12.4804   29.3963 C   0  0  0  0  0  0  0  0  0  0  0  0
   18.5255    7.0820   32.8629 Br  0  0  0  0  0  0  0  0  0  0  0  0
   19.8737    8.3937   32.5200 C   0  0  0  0  0  0  0  0  0  0  0  0
   19.8064    9.5737   33.2027 C   0  0  0  0  0  0  0  0  0  0  0  0
   20.7502   10.5330   32.9833 C   0  0  0  0  0  0  0  0  0  0  0  0
   21.7998   10.3937   32.0953 C   0  0  0  0  0  0  0  0  0  0  0  0
   21.8445    9.1930   31.4199 C   0  0  0  0  0  0  0  0  0  0  0  0
   20.8946    8.1932   31.6215 C   0  0  0  0  0  0  0  0  0  0  0  0
   21.2939   13.5801   32.0895 C   0  0  0  0  0  0  0  0  0  0  0  0
   21.9629   14.8917   32.4581 C   0  0  0  0  0  0  0  0  0  0  0  0
   21.3018   16.0365   31.9329 N   0  0  0  0  0  0  0  0  0  0  0  0
   22.0795   16.8639   31.0619 C   0  0  0  0  0  0  0  0  0  0  0  0
   20.0429   15.6667   31.3001 C   0  0  0  0  0  0  0  0  0  0  0  0
   21.0331   16.6503   32.7590 H   0  0  0  0  0  0  0  0  0  0  0  0
 21 22  1  0  0  0
 22 23  2  0  0  0
 22 27  1  0  0  0
 23 24  1  0  0  0
 24 25  2  0  0  0
 25 26  1  0  0  0
 25  1  1  0  0  0
 26 27  2  0  0  0
  1  2  1  0  0  0
  1  7  1  0  0  0
  2  3  1  0  0  0
  2 28  1  0  0  0
  3  4  2  0  0  0
  3  5  1  0  0  0
  5  6  2  0  0  0
  5  7  1  0  0  0
  7  8  2  0  0  0
  8  9  1  0  0  0
  8 10  1  0  0  0
 10 11  1  0  0  0
 10 14  2  0  0  0
 11 12  1  0  0  0
 12 13  2  0  0  0
 12 18  1  0  0  0
 13 14  1  0  0  0
 13 15  1  0  0  0
 15 16  2  0  0  0
 16 17  1  0  0  0
 17 18  2  0  0  0
 18 19  1  0  0  0
 19 20  1  0  0  0
 28 29  1  0  0  0
 29 30  1  0  0  0
 30 31  1  0  0  0
 30 32  1  0  0  0
 30 33  1  0  0  0
M  CHG 1   9  -1
M  CHG 1  30   1
M  END
> <minimizedAffinity>
-8.11104

$$$$
2403


 26 29  0  0  0  0  0  0  0  0999 V2000
   22.0013    4.9471   30.6040 C   0  0  0  0  0  0  0  0  0  0  0  0
   23.2704    4.5268   31.1645 N   0  0  0  0  0  0  0  0  0  0  0  0
   24.5213    4.7233   30.7234 C   0  0  0  0  0  0  0  0  0  0  0  0
   25.4456    4.1180   31.5680 C   0  0  0  0  0  0  0  0  0  0  0  0
   24.7048    3.5427   32.5446 N   0  0  0  0  0  0  0  0  0  0  0  0
   23.4127    3.7836   32.3087 C   0  0  0  0  0  0  0  0  0  0  0  0
   26.7786    4.1600   31.3664 N   0  0  0  0  0  0  0  0  0  0  0  0
   27.1962    4.8353   30.2794 C   0  0  0  0  0  0  0  0  0  0  0  0
   28.4401    4.8850   30.0747 O   0  0  0  0  0  0  0  0  0  0  0  0
   26.3468    5.4380   29.4336 N   0  0  0  0  0  0  0  0  0  0  0  0
   25.0128    5.3967   29.6324 C   0  0  0  0  0  0  0  0  0  0  0  0
   24.2081    5.9522   28.8594 O   0  0  0  0  0  0  0  0  0  0  0  0
   26.8016    6.1659   28.2620 C   0  0  0  0  0  0  0  0  0  0  0  0
   27.6903    3.5057   32.2853 C   0  0  0  0  0  0  0  0  0  0  0  0
   19.9884   12.2948   33.7492 Br  0  0  0  0  0  0  0  0  0  0  0  0
   20.6725   10.7352   32.8944 C   0  0  0  0  0  0  0  0  0  0  0  0
   20.0268    9.5477   33.1068 C   0  0  0  0  0  0  0  0  0  0  0  0
   20.4944    8.4308   32.5110 N   0  0  0  0  0  0  0  0  0  0  0  0
   21.5763    8.4741   31.7191 C   0  0  0  0  0  0  0  0  0  0  0  0
   22.0487    7.3438   31.1165 N   0  0  0  0  0  0  0  0  0  0  0  0
   21.4446    6.1561   31.2987 C   0  0  0  0  0  0  0  0  0  0  0  0
   20.3391    6.1341   32.1124 C   0  0  0  0  0  0  0  0  0  0  0  0
   19.8371    7.2560   32.7349 C   0  0  0  0  0  0  0  0  0  0  0  0
   18.8407    7.2602   33.4736 O   0  0  0  0  0  0  0  0  0  0  0  0
   22.2362    9.6723   31.4980 C   0  0  0  0  0  0  0  0  0  0  0  0
   21.7854   10.8254   32.0904 C   0  0  0  0  0  0  0  0  0  0  0  0
 15 16  1  0  0  0
 16 17  2  0  0  0
 16 26  1  0  0  0
 17 18  1  0  0  0
 18 19  1  0  0  0
 18 23  1  0  0  0
 19 20  2  0  0  0
 19 25  1  0  0  0
 20 21  1  0  0  0
 21 22  2  0  0  0
 21  1  1  0  0  0
 22 23  1  0  0  0
 23 24  2  0  0  0
  1  2  1  0  0  0
  2  3  1  0  0  0
  2  6  1  0  0  0
  3  4  2  0  0  0
  3 11  1  0  0  0
  4  5  1  0  0  0
  4  7  1  0  0  0
  5  6  2  0  0  0
  7  8  1  0  0  0
  7 14  1  0  0  0
  8  9  2  0  0  0
  8 10  1  0  0  0
 10 11  1  0  0  0
 10 13  1  0  0  0
 11 12  2  0  0  0
 25 26  2  0  0  0
M  END
> <minimizedAffinity>
-8.44783

$$$$
2416


 34 37  0  0  0  0  0  0  0  0999 V2000
   23.4288   13.0055   31.2106 N   0  0  0  0  0  0  0  0  0  0  0  0
   23.9247   13.1346   29.9170 C   0  0  0  0  0  0  0  0  0  0  0  0
   25.2109   12.3069   29.7913 C   0  0  0  0  0  0  0  0  0  0  0  0
   25.0432   11.0350   30.4961 N   0  0  0  0  0  0  0  0  0  0  0  0
   24.7092   11.1247   31.9040 C   0  0  0  0  0  0  0  0  0  0  0  0
   24.3668   12.5976   32.1718 C   0  0  0  0  0  0  0  0  0  0  0  0
   25.1880    9.8026   29.7999 C   0  0  0  0  0  0  0  0  0  0  0  0
   25.4576    9.8579   28.5773 O   0  0  0  0  0  0  0  0  0  0  0  0
   21.9427   13.5915   31.6526 S   0  0  0  0  0  0  0  0  0  0  0  0
   22.1278   14.6108   32.7618 O   0  0  0  0  0  0  0  0  0  0  0  0
   21.2129   14.3256   30.5471 O   0  0  0  0  0  0  0  0  0  0  0  0
   20.8465   12.3603   32.2892 C   0  0  0  0  0  0  0  0  0  0  0  0
   19.6068   12.6875   32.7876 C   0  0  0  0  0  0  0  0  0  0  0  0
   18.7891   11.6929   33.2778 C   0  0  0  0  0  0  0  0  0  0  0  0
   19.1481   10.3580   33.2978 C   0  0  0  0  0  0  0  0  0  0  0  0
   20.4008   10.0301   32.7935 C   0  0  0  0  0  0  0  0  0  0  0  0
   21.2140   11.0277   32.3055 C   0  0  0  0  0  0  0  0  0  0  0  0
   18.1254    9.1005   33.9104 Cl  0  0  0  0  0  0  0  0  0  0  0  0
   25.0237    8.5265   30.4954 C   0  0  0  0  0  0  0  0  0  0  0  0
   24.5288    7.3937   29.6080 C   0  0  0  0  0  0  0  0  0  0  0  0
   23.3324    6.7608   30.0970 N   0  0  0  0  0  0  0  0  0  0  0  0
   23.0847    5.4722   30.6409 C   0  0  0  0  0  0  0  0  0  0  0  0
   21.9183    4.9971   30.6321 O   0  0  0  0  0  0  0  0  0  0  0  0
   24.0740    4.5579   31.2514 C   0  0  0  0  0  0  0  0  0  0  0  0
   25.4510    4.5271   31.0045 C   0  0  0  0  0  0  0  0  0  0  0  0
   26.2322    3.6198   31.6620 C   0  0  0  0  0  0  0  0  0  0  0  0
   25.7145    2.7091   32.5849 C   0  0  0  0  0  0  0  0  0  0  0  0
   24.3388    2.7658   32.8110 C   0  0  0  0  0  0  0  0  0  0  0  0
   23.5390    3.6748   32.1538 C   0  0  0  0  0  0  0  0  0  0  0  0
   26.1547    5.3722   30.1068 N   0  0  0  0  0  0  0  0  0  0  0  0
   25.6453    6.4638   29.3344 C   0  0  0  0  0  0  0  0  0  0  0  0
   26.2892    6.6260   28.2382 O   0  0  0  0  0  0  0  0  0  0  0  0
   22.4311    7.3332   30.0639 H   0  0  0  0  0  0  0  0  0  0  0  0
   27.1488    5.1664   30.0111 H   0  0  0  0  0  0  0  0  0  0  0  0
  9 10  2  0  0  0
  9 11  2  0  0  0
  9  1  1  0  0  0
  9 12  1  0  0  0
  1  2  1  0  0  0
  1  6  1  0  0  0
  2  3  1  0  0  0
  3  4  1  0  0  0
  4  5  1  0  0  0
  4  7  1  0  0  0
  5  6  1  0  0  0
  7  8  2  0  0  0
  7 19  1  0  0  0
 19 20  1  0  0  0
 20 21  1  0  0  0
 20 31  1  0  0  0
 21 22  1  0  0  0
 22 23  2  0  0  0
 22 24  1  0  0  0
 24 25  2  0  0  0
 24 29  1  0  0  0
 25 26  1  0  0  0
 25 30  1  0  0  0
 26 27  2  0  0  0
 27 28  1  0  0  0
 28 29  2  0  0  0
 30 31  1  0  0  0
 31 32  2  0  0  0
 12 13  2  0  0  0
 12 17  1  0  0  0
 13 14  1  0  0  0
 14 15  2  0  0  0
 15 16  1  0  0  0
 15 18  1  0  0  0
 16 17  2  0  0  0
 21 33  1  0  0  0
 30 34  1  0  0  0
M  END
> <minimizedAffinity>
-9.15837

$$$$
2417


 27 30  0  0  0  0  0  0  0  0999 V2000
   24.0230   10.0964   31.3104 N   0  0  0  0  0  0  0  0  0  0  0  0
   24.3103   11.5323   31.5338 C   0  0  0  0  0  0  0  0  0  0  0  0
   23.4184   12.1892   30.5831 C   0  0  0  0  0  0  0  0  0  0  0  0
   23.7662   11.4412   29.3060 C   0  0  0  0  0  0  0  0  0  0  0  0
   23.7086    9.9914   29.9502 C   0  0  0  0  0  0  0  0  0  0  0  0
   25.2143   11.6097   28.9466 C   0  0  0  0  0  0  0  0  0  0  0  0
   25.7819   10.3341   28.6892 O   0  0  0  0  0  0  0  0  0  0  0  0
   25.2650    9.9686   27.8726 H   0  0  0  0  0  0  0  0  0  0  0  0
   23.0021    9.7285   32.3032 C   0  0  0  0  0  0  0  0  0  0  0  0
   20.3284   10.6533   33.4381 Cl  0  0  0  0  0  0  0  0  0  0  0  0
   19.8951    9.0453   32.8674 C   0  0  0  0  0  0  0  0  0  0  0  0
   20.8980    8.2628   32.3471 C   0  0  0  0  0  0  0  0  0  0  0  0
   20.5767    6.9726   31.9940 C   0  0  0  0  0  0  0  0  0  0  0  0
   21.7071    6.4685   31.4523 N   0  0  0  0  0  0  0  0  0  0  0  0
   22.6409    7.3820   31.4553 N   0  0  0  0  0  0  0  0  0  0  0  0
   22.1998    8.5662   32.0162 C   0  0  0  0  0  0  0  0  0  0  0  0
   21.8705    5.0625   31.0436 C   0  0  0  0  0  0  0  0  0  0  0  0
   19.3218    6.4618   32.1295 C   0  0  0  0  0  0  0  0  0  0  0  0
   18.3127    7.2740   32.6554 C   0  0  0  0  0  0  0  0  0  0  0  0
   18.6166    8.5812   33.0216 C   0  0  0  0  0  0  0  0  0  0  0  0
   23.6308   13.6710   30.3961 C   0  0  0  0  0  0  0  0  0  0  0  0
   22.3636   14.3250   30.4914 N   0  0  0  0  0  0  0  0  0  0  0  0
   21.3279   13.4750   31.0401 C   0  0  0  0  0  0  0  0  0  0  0  0
   20.6890   14.0303   32.2918 C   0  0  0  0  0  0  0  0  0  0  0  0
   20.2089   15.3125   32.1542 O   0  0  0  0  0  0  0  0  0  0  0  0
   21.0031   16.1010   31.3267 C   0  0  0  0  0  0  0  0  0  0  0  0
   22.3890   15.5338   31.2819 C   0  0  0  0  0  0  0  0  0  0  0  0
 10 11  1  0  0  0
 11 12  2  0  0  0
 11 20  1  0  0  0
 12 13  1  0  0  0
 12 16  1  0  0  0
 13 14  1  0  0  0
 13 18  2  0  0  0
 14 15  1  0  0  0
 14 17  1  0  0  0
 15 16  2  0  0  0
 16  9  1  0  0  0
  9  1  1  0  0  0
  1  2  1  0  0  0
  1  5  1  0  0  0
  2  3  1  0  0  0
  3  4  1  0  0  0
  3 21  1  0  0  0
  4  5  1  0  0  0
  4  6  1  0  0  0
  6  7  1  0  0  0
 21 22  1  0  0  0
 22 23  1  0  0  0
 22 27  1  0  0  0
 23 24  1  0  0  0
 24 25  1  0  0  0
 25 26  1  0  0  0
 26 27  1  0  0  0
 18 19  1  0  0  0
 19 20  2  0  0  0
  7  8  1  0  0  0
M  END
> <minimizedAffinity>
-8.74005

$$$$
2419


 32 36  0  0  0  0  0  0  0  0999 V2000
   23.1677    6.6764   30.8895 C   0  0  0  0  0  0  0  0  0  0  0  0
   21.8540    6.2671   31.1722 C   0  0  0  0  0  0  0  0  0  0  0  0
   21.2606    7.2850   31.7825 N   0  0  0  0  0  0  0  0  0  0  0  0
   20.0467    7.5992   32.3301 C   0  0  0  0  0  0  0  0  0  0  0  0
   20.1841    8.8797   32.8035 C   0  0  0  0  0  0  0  0  0  0  0  0
   21.4208    9.2698   32.5351 N   0  0  0  0  0  0  0  0  0  0  0  0
   22.1074    8.2807   31.8945 C   0  0  0  0  0  0  0  0  0  0  0  0
   23.3063    7.9270   31.3436 N   0  0  0  0  0  0  0  0  0  0  0  0
   19.1272    9.5389   33.4381 C   0  0  0  0  0  0  0  0  0  0  0  0
   17.9180    8.8962   33.5937 C   0  0  0  0  0  0  0  0  0  0  0  0
   17.8059    7.6125   33.1097 C   0  0  0  0  0  0  0  0  0  0  0  0
   18.8522    6.9499   32.4786 C   0  0  0  0  0  0  0  0  0  0  0  0
   21.7871   10.2034   32.8012 H   0  0  0  0  0  0  0  0  0  0  0  0
   27.3408    3.2290   27.9118 Br  0  0  0  0  0  0  0  0  0  0  0  0
   26.0356    4.2884   28.8517 C   0  0  0  0  0  0  0  0  0  0  0  0
   25.6446    5.5095   28.3949 C   0  0  0  0  0  0  0  0  0  0  0  0
   24.7188    6.2564   29.0649 C   0  0  0  0  0  0  0  0  0  0  0  0
   24.1319    5.8192   30.2352 C   0  0  0  0  0  0  0  0  0  0  0  0
   24.5196    4.6051   30.6909 C   0  0  0  0  0  0  0  0  0  0  0  0
   25.4786    3.8183   30.0078 C   0  0  0  0  0  0  0  0  0  0  0  0
   24.4193    8.8262   31.3438 C   0  0  0  0  0  0  0  0  0  0  0  0
   24.4817    9.8306   30.2650 C   0  0  0  0  0  0  0  0  0  0  0  0
   24.0667   11.2267   30.5597 C   0  0  0  0  0  0  0  0  0  0  0  0
   22.7810   11.5442   29.9785 N   0  0  0  0  0  0  0  0  0  0  0  0
   22.7248   11.5263   28.9634 H   0  0  0  0  0  0  0  0  0  0  0  0
   22.1281   10.7328   30.2820 H   0  0  0  0  0  0  0  0  0  0  0  0
   22.1821   12.7203   30.5368 C   0  0  0  0  0  0  0  0  0  0  0  0
   21.3515   12.4885   31.7673 C   0  0  0  0  0  0  0  0  0  0  0  0
   20.4391   13.7165   31.9030 C   0  0  0  0  0  0  0  0  0  0  0  0
   21.2925   14.9215   32.0980 C   0  0  0  0  0  0  0  0  0  0  0  0
   22.3630   15.0876   31.0445 C   0  0  0  0  0  0  0  0  0  0  0  0
   23.1876   13.8027   30.9080 C   0  0  0  0  0  0  0  0  0  0  0  0
 14 15  1  0  0  0
 15 16  2  0  0  0
 15 20  1  0  0  0
 16 17  1  0  0  0
 17 18  2  0  0  0
 18 19  1  0  0  0
 18  1  1  0  0  0
 19 20  2  0  0  0
  1  2  2  0  0  0
  1  8  1  0  0  0
  2  3  1  0  0  0
  3  4  1  0  0  0
  3  7  1  0  0  0
  4  5  2  0  0  0
  4 12  1  0  0  0
  5  6  1  0  0  0
  5  9  1  0  0  0
  6  7  2  0  0  0
  7  8  1  0  0  0
  8 21  1  0  0  0
 21 22  1  0  0  0
 22 23  1  0  0  0
 23 24  1  0  0  0
 24 27  1  0  0  0
 27 28  1  0  0  0
 27 32  1  0  0  0
 28 29  1  0  0  0
 29 30  1  0  0  0
 30 31  1  0  0  0
 31 32  1  0  0  0
  9 10  2  0  0  0
 10 11  1  0  0  0
 11 12  2  0  0  0
  6 13  1  0  0  0
 24 25  1  0  0  0
 24 26  1  0  0  0
M  CHG 1  24   1
M  END
> <minimizedAffinity>
-9.52670

$$$$
2420


 29 32  0  0  0  0  0  0  0  0999 V2000
   22.1018    5.9505   31.2443 N   0  0  0  0  0  0  0  0  0  0  0  0
   22.3990    6.1776   29.8313 C   0  0  0  0  0  0  0  0  0  0  0  0
   23.9094    6.2528   29.8105 C   0  0  0  0  0  0  0  0  0  0  0  0
   24.3006    5.1132   30.7438 C   0  0  0  0  0  0  0  0  0  0  0  0
   23.1219    5.0461   31.6778 C   0  0  0  0  0  0  0  0  0  0  0  0
   23.0357    4.3029   32.7003 O   0  0  0  0  0  0  0  0  0  0  0  0
   19.6928   12.1683   33.5839 Br  0  0  0  0  0  0  0  0  0  0  0  0
   20.1898   10.4130   33.0416 C   0  0  0  0  0  0  0  0  0  0  0  0
   19.4220    9.3236   33.3874 C   0  0  0  0  0  0  0  0  0  0  0  0
   19.7628    8.0596   33.0073 C   0  0  0  0  0  0  0  0  0  0  0  0
   19.2264    6.8193   33.1864 N   0  0  0  0  0  0  0  0  0  0  0  0
   19.9878    5.9176   32.5858 N   0  0  0  0  0  0  0  0  0  0  0  0
   21.0367    6.5073   31.9973 C   0  0  0  0  0  0  0  0  0  0  0  0
   20.8992    7.8648   32.2614 C   0  0  0  0  0  0  0  0  0  0  0  0
   21.6923    8.9463   31.8986 C   0  0  0  0  0  0  0  0  0  0  0  0
   21.3463   10.2221   32.2830 C   0  0  0  0  0  0  0  0  0  0  0  0
   18.3379    6.7061   33.7350 H   0  0  0  0  0  0  0  0  0  0  0  0
   24.4060    7.5451   30.3405 C   0  0  0  0  0  0  0  0  0  0  0  0
   24.8165    7.5807   31.5271 O   0  0  0  0  0  0  0  0  0  0  0  0
   24.4323    8.7266   29.5653 N   0  0  0  0  0  0  0  0  0  0  0  0
   24.0789    8.6587   28.5769 H   0  0  0  0  0  0  0  0  0  0  0  0
   24.9141    9.9852   30.0736 C   0  0  0  0  0  0  0  0  0  0  0  0
   24.1872   11.1204   29.3842 C   0  0  0  0  0  0  0  0  0  0  0  0
   24.4452   12.4034   29.9905 N   0  0  0  0  0  0  0  0  0  0  0  0
   23.4723   13.3452   29.4482 C   0  0  0  0  0  0  0  0  0  0  0  0
   22.1621   13.2603   30.2266 C   0  0  0  0  0  0  0  0  0  0  0  0
   22.2830   13.7155   31.5186 O   0  0  0  0  0  0  0  0  0  0  0  0
   23.5999   13.6452   31.9090 C   0  0  0  0  0  0  0  0  0  0  0  0
   24.2745   12.3777   31.4254 C   0  0  0  0  0  0  0  0  0  0  0  0
  7  8  1  0  0  0
  8  9  2  0  0  0
  8 16  1  0  0  0
  9 10  1  0  0  0
 10 11  1  0  0  0
 10 14  2  0  0  0
 11 12  1  0  0  0
 12 13  2  0  0  0
 13 14  1  0  0  0
 13  1  1  0  0  0
 14 15  1  0  0  0
 15 16  2  0  0  0
  1  2  1  0  0  0
  1  5  1  0  0  0
  2  3  1  0  0  0
  3  4  1  0  0  0
  3 18  1  0  0  0
  4  5  1  0  0  0
  5  6  2  0  0  0
 18 19  2  0  0  0
 18 20  1  0  0  0
 20 22  1  0  0  0
 22 23  1  0  0  0
 23 24  1  0  0  0
 24 25  1  0  0  0
 24 29  1  0  0  0
 25 26  1  0  0  0
 26 27  1  0  0  0
 27 28  1  0  0  0
 28 29  1  0  0  0
 11 17  1  0  0  0
 20 21  1  0  0  0
M  END
> <minimizedAffinity>
-8.33360

$$$$
2432


 26 29  0  0  0  0  0  0  0  0999 V2000
   23.8610   11.7887   30.0955 C   0  0  0  0  0  0  0  0  0  0  0  0
   23.8207   11.7867   28.7760 O   0  0  0  0  0  0  0  0  0  0  0  0
   24.6118   10.7946   30.7026 N   0  0  0  0  0  0  0  0  0  0  0  0
   25.2662    9.7911   29.8283 C   0  0  0  0  0  0  0  0  0  0  0  0
   24.6834    8.4590   30.2181 C   0  0  0  0  0  0  0  0  0  0  0  0
   23.8241    8.4933   31.3589 N   0  0  0  0  0  0  0  0  0  0  0  0
   23.9830    9.4119   32.4766 C   0  0  0  0  0  0  0  0  0  0  0  0
   24.8764   10.5759   32.0760 C   0  0  0  0  0  0  0  0  0  0  0  0
   22.7297    7.5901   31.4465 C   0  0  0  0  0  0  0  0  0  0  0  0
   22.8623    6.2993   31.0877 N   0  0  0  0  0  0  0  0  0  0  0  0
   21.8304    5.4259   31.1626 C   0  0  0  0  0  0  0  0  0  0  0  0
   20.6276    5.8312   31.6048 N   0  0  0  0  0  0  0  0  0  0  0  0
   20.4137    7.1021   31.9818 C   0  0  0  0  0  0  0  0  0  0  0  0
   19.3302    7.7480   32.4513 N   0  0  0  0  0  0  0  0  0  0  0  0
   19.6863    8.9993   32.6622 N   0  0  0  0  0  0  0  0  0  0  0  0
   20.9874    9.1868   32.3396 C   0  0  0  0  0  0  0  0  0  0  0  0
   21.4907    7.9914   31.8982 C   0  0  0  0  0  0  0  0  0  0  0  0
   17.9953    7.2000   32.6937 C   0  0  0  0  0  0  0  0  0  0  0  0
   22.3701   16.1405   32.7196 Cl  0  0  0  0  0  0  0  0  0  0  0  0
   22.3891   14.6904   31.7395 C   0  0  0  0  0  0  0  0  0  0  0  0
   23.4462   13.8845   31.4425 N   0  0  0  0  0  0  0  0  0  0  0  0
   23.0882   12.8629   30.6630 C   0  0  0  0  0  0  0  0  0  0  0  0
   21.7143   13.0546   30.4680 C   0  0  0  0  0  0  0  0  0  0  0  0
   21.2770   14.1787   31.1279 C   0  0  0  0  0  0  0  0  0  0  0  0
   19.6549   14.8340   31.1884 Cl  0  0  0  0  0  0  0  0  0  0  0  0
   24.3775   14.1219   31.8386 H   0  0  0  0  0  0  0  0  0  0  0  0
 19 20  1  0  0  0
 20 21  1  0  0  0
 20 24  2  0  0  0
 21 22  1  0  0  0
 22 23  2  0  0  0
 22  1  1  0  0  0
 23 24  1  0  0  0
 24 25  1  0  0  0
  1  2  2  0  0  0
  1  3  1  0  0  0
  3  4  1  0  0  0
  3  8  1  0  0  0
  4  5  1  0  0  0
  5  6  1  0  0  0
  6  7  1  0  0  0
  6  9  1  0  0  0
  7  8  1  0  0  0
  9 10  2  0  0  0
  9 17  1  0  0  0
 10 11  1  0  0  0
 11 12  2  0  0  0
 12 13  1  0  0  0
 13 14  1  0  0  0
 13 17  2  0  0  0
 14 15  1  0  0  0
 14 18  1  0  0  0
 15 16  2  0  0  0
 16 17  1  0  0  0
 21 26  1  0  0  0
M  END
> <minimizedAffinity>
-8.42464

$$$$
2439


 30 34  0  0  0  0  0  0  0  0999 V2000
   23.2190    6.8041   30.9147 C   0  0  0  0  0  0  0  0  0  0  0  0
   21.8953    6.3931   31.1532 C   0  0  0  0  0  0  0  0  0  0  0  0
   21.2508    7.3610   31.8013 N   0  0  0  0  0  0  0  0  0  0  0  0
   20.0459    7.6796   32.3416 C   0  0  0  0  0  0  0  0  0  0  0  0
   20.1725    8.9184   32.8706 C   0  0  0  0  0  0  0  0  0  0  0  0
   21.4319    9.3191   32.6433 N   0  0  0  0  0  0  0  0  0  0  0  0
   22.1158    8.3615   31.9779 C   0  0  0  0  0  0  0  0  0  0  0  0
   23.3344    8.0337   31.4359 N   0  0  0  0  0  0  0  0  0  0  0  0
   19.1020    9.5280   33.5004 C   0  0  0  0  0  0  0  0  0  0  0  0
   17.8805    8.8822   33.6032 C   0  0  0  0  0  0  0  0  0  0  0  0
   17.7508    7.6111   33.0600 C   0  0  0  0  0  0  0  0  0  0  0  0
   18.8370    7.0355   32.4399 C   0  0  0  0  0  0  0  0  0  0  0  0
   21.8434   10.2406   32.9445 H   0  0  0  0  0  0  0  0  0  0  0  0
   27.2317    2.8677   28.2945 Br  0  0  0  0  0  0  0  0  0  0  0  0
   26.0089    4.0808   29.0886 C   0  0  0  0  0  0  0  0  0  0  0  0
   25.3964    3.8093   30.2771 C   0  0  0  0  0  0  0  0  0  0  0  0
   24.5112    4.7163   30.8261 C   0  0  0  0  0  0  0  0  0  0  0  0
   24.1854    5.9355   30.2332 C   0  0  0  0  0  0  0  0  0  0  0  0
   24.8026    6.1953   29.0491 C   0  0  0  0  0  0  0  0  0  0  0  0
   25.7102    5.2690   28.4806 C   0  0  0  0  0  0  0  0  0  0  0  0
   24.4779    8.8834   31.4811 C   0  0  0  0  0  0  0  0  0  0  0  0
   24.7313    9.7009   30.2406 C   0  0  0  0  0  0  0  0  0  0  0  0
   24.6155   11.1542   30.3659 C   0  0  0  0  0  0  0  0  0  0  0  0
   23.6043   11.8524   29.6279 N   0  0  0  0  0  0  0  0  0  0  0  0
   22.2711   11.6166   30.1523 C   0  0  0  0  0  0  0  0  0  0  0  0
   21.8210   12.5215   31.2190 C   0  0  0  0  0  0  0  0  0  0  0  0
   22.6460   13.7299   31.4638 C   0  0  0  0  0  0  0  0  0  0  0  0
   23.2498   14.2353   30.2017 C   0  0  0  0  0  0  0  0  0  0  0  0
   23.8931   13.2127   29.3418 C   0  0  0  0  0  0  0  0  0  0  0  0
   23.5650   11.3571   28.7088 H   0  0  0  0  0  0  0  0  0  0  0  0
 14 15  1  0  0  0
 15 16  2  0  0  0
 15 20  1  0  0  0
 16 17  1  0  0  0
 17 18  2  0  0  0
 18 19  1  0  0  0
 18  1  1  0  0  0
 19 20  2  0  0  0
  1  2  2  0  0  0
  1  8  1  0  0  0
  2  3  1  0  0  0
  3  4  1  0  0  0
  3  7  1  0  0  0
  4  5  2  0  0  0
  4 12  1  0  0  0
  5  6  1  0  0  0
  5  9  1  0  0  0
  6  7  2  0  0  0
  7  8  1  0  0  0
  8 21  1  0  0  0
 21 22  1  0  0  0
 22 23  1  0  0  0
 23 24  1  0  0  0
 24 25  1  0  0  0
 24 29  1  0  0  0
 25 26  1  0  0  0
 26 27  1  0  0  0
 27 28  1  0  0  0
 28 29  1  0  0  0
  9 10  2  0  0  0
 10 11  1  0  0  0
 11 12  2  0  0  0
  6 13  1  0  0  0
 24 30  1  0  0  0
M  CHG 1  24   1
M  END
> <minimizedAffinity>
-9.21025

$$$$
2440


 33 36  0  0  0  0  0  0  0  0999 V2000
   28.4162    8.1616   28.8600 Cl  0  0  0  0  0  0  0  0  0  0  0  0
   26.8054    7.4646   29.0026 C   0  0  0  0  0  0  0  0  0  0  0  0
   25.8792    8.1498   29.8029 C   0  0  0  0  0  0  0  0  0  0  0  0
   24.6289    7.6049   29.9107 C   0  0  0  0  0  0  0  0  0  0  0  0
   24.2880    6.4076   29.2469 C   0  0  0  0  0  0  0  0  0  0  0  0
   25.2027    5.7462   28.4672 C   0  0  0  0  0  0  0  0  0  0  0  0
   26.4601    6.2996   28.3618 C   0  0  0  0  0  0  0  0  0  0  0  0
   23.8283    8.4825   30.7752 C   0  0  0  0  0  0  0  0  0  0  0  0
   23.1884    7.8240   31.8572 N   0  0  0  0  0  0  0  0  0  0  0  0
   22.0059    8.4689   32.2264 C   0  0  0  0  0  0  0  0  0  0  0  0
   21.6552    9.3506   31.0477 C   0  0  0  0  0  0  0  0  0  0  0  0
   22.6803    9.1110   29.9877 C   0  0  0  0  0  0  0  0  0  0  0  0
   23.0498   10.4312   29.4131 C   0  0  0  0  0  0  0  0  0  0  0  0
   23.8111   10.5782   28.4286 O   0  0  0  0  0  0  0  0  0  0  0  0
   22.3915   11.4422   30.1775 N   0  0  0  0  0  0  0  0  0  0  0  0
   21.8365   10.7914   31.3303 C   0  0  0  0  0  0  0  0  0  0  0  0
   21.5574   11.3677   32.3936 O   0  0  0  0  0  0  0  0  0  0  0  0
   24.7365    9.5567   31.1874 C   0  0  0  0  0  0  0  0  0  0  0  0
   24.5116   10.5388   31.9614 O   0  0  0  0  0  0  0  0  0  0  0  0
   25.9898    9.3447   30.5665 N   0  0  0  0  0  0  0  0  0  0  0  0
   23.8073    7.4798   32.6097 H   0  0  0  0  0  0  0  0  0  0  0  0
   26.8588    9.9262   30.6258 H   0  0  0  0  0  0  0  0  0  0  0  0
   22.2783   12.8376   29.8830 C   0  0  0  0  0  0  0  0  0  0  0  0
   22.8655   13.7664   30.8841 C   0  0  0  0  0  0  0  0  0  0  0  0
   21.9452   14.7714   31.4803 C   0  0  0  0  0  0  0  0  0  0  0  0
   22.5989   15.5257   32.6327 C   0  0  0  0  0  0  0  0  0  0  0  0
   20.8646    7.6653   32.7161 C   0  0  0  0  0  0  0  0  0  0  0  0
   19.4972    8.1186   32.3936 C   0  0  0  0  0  0  0  0  0  0  0  0
   18.3853    7.4812   33.1064 C   0  0  0  0  0  0  0  0  0  0  0  0
   18.3392    6.2432   33.2304 O   0  0  0  0  0  0  0  0  0  0  0  0
   17.3152    8.2204   33.6895 N   0  0  0  0  0  0  0  0  0  0  0  0
   17.4300    8.8432   34.5085 H   0  0  0  0  0  0  0  0  0  0  0  0
   16.3717    8.1343   33.2754 H   0  0  0  0  0  0  0  0  0  0  0  0
  1  2  1  0  0  0
  2  3  2  0  0  0
  2  7  1  0  0  0
  3  4  1  0  0  0
  3 20  1  0  0  0
  4  5  2  0  0  0
  4  8  1  0  0  0
  5  6  1  0  0  0
  6  7  2  0  0  0
  8  9  1  0  0  0
  8 12  1  0  0  0
  8 18  1  0  0  0
  9 10  1  0  0  0
 10 11  1  0  0  0
 10 27  1  0  0  0
 11 12  1  0  0  0
 11 16  1  0  0  0
 12 13  1  0  0  0
 13 14  2  0  0  0
 13 15  1  0  0  0
 15 16  1  0  0  0
 15 23  1  0  0  0
 16 17  2  0  0  0
 23 24  1  0  0  0
 24 25  1  0  0  0
 25 26  1  0  0  0
 27 28  1  0  0  0
 28 29  1  0  0  0
 29 30  2  0  0  0
 29 31  1  0  0  0
 18 19  2  0  0  0
 18 20  1  0  0  0
  9 21  1  0  0  0
 31 32  1  0  0  0
 31 33  1  0  0  0
 20 22  1  0  0  0
M  END
> <minimizedAffinity>
-8.10418

$$$$
2447


 33 36  0  0  0  0  0  0  0  0999 V2000
   24.0034    7.5149   30.0393 C   0  0  0  0  0  0  0  0  0  0  0  0
   22.6036    7.6904   30.5237 C   0  0  0  0  0  0  0  0  0  0  0  0
   22.0774    6.9211   31.3627 O   0  0  0  0  0  0  0  0  0  0  0  0
   21.9461    8.7800   29.9585 O   0  0  0  0  0  0  0  0  0  0  0  0
   22.5687    9.9250   29.5073 C   0  0  0  0  0  0  0  0  0  0  0  0
   23.9128    9.9981   29.6213 C   0  0  0  0  0  0  0  0  0  0  0  0
   24.6188    8.8799   30.2086 C   0  0  0  0  0  0  0  0  0  0  0  0
   25.6852    9.0156   30.8316 O   0  0  0  0  0  0  0  0  0  0  0  0
   24.7589    6.4756   30.7890 C   0  0  0  0  0  0  0  0  0  0  0  0
   27.0799    3.7824   28.6974 N   0  0  0  0  0  0  0  0  0  0  0  0
   27.0728    4.1434   30.0752 C   0  0  0  0  0  0  0  0  0  0  0  0
   25.6345    4.2352   30.5458 C   0  0  0  0  0  0  0  0  0  0  0  0
   25.0514    5.3938   29.9159 N   0  0  0  0  0  0  0  0  0  0  0  0
   25.5547    5.7029   28.6293 C   0  0  0  0  0  0  0  0  0  0  0  0
   26.0141    4.3989   27.9756 C   0  0  0  0  0  0  0  0  0  0  0  0
   27.2869    2.1227   28.3977 S   0  0  0  0  0  0  0  0  0  0  0  0
   26.8818    1.2479   29.5647 O   0  0  0  0  0  0  0  0  0  0  0  0
   26.3662    1.7340   27.2485 O   0  0  0  0  0  0  0  0  0  0  0  0
   28.9176    1.6849   27.9250 C   0  0  0  0  0  0  0  0  0  0  0  0
   24.6472   11.1916   29.1796 C   0  0  0  0  0  0  0  0  0  0  0  0
   24.3971   12.3618   29.9153 N   0  0  0  0  0  0  0  0  0  0  0  0
   24.4443   12.3613   31.3146 C   0  0  0  0  0  0  0  0  0  0  0  0
   23.6371   13.5513   31.8814 C   0  0  0  0  0  0  0  0  0  0  0  0
   22.3789   13.5116   31.1810 N   0  0  0  0  0  0  0  0  0  0  0  0
   22.4657   13.8669   29.7718 C   0  0  0  0  0  0  0  0  0  0  0  0
   23.8396   13.4784   29.2430 C   0  0  0  0  0  0  0  0  0  0  0  0
   21.1698   13.1471   31.8049 C   0  0  0  0  0  0  0  0  0  0  0  0
   20.9810   11.9597   32.4748 C   0  0  0  0  0  0  0  0  0  0  0  0
   19.7786   11.6562   33.0696 C   0  0  0  0  0  0  0  0  0  0  0  0
   18.7035   12.5129   33.0308 C   0  0  0  0  0  0  0  0  0  0  0  0
   18.8606   13.7039   32.3705 C   0  0  0  0  0  0  0  0  0  0  0  0
   20.0718   14.0133   31.7690 C   0  0  0  0  0  0  0  0  0  0  0  0
   19.6008   10.1356   33.9027 Cl  0  0  0  0  0  0  0  0  0  0  0  0
 16 17  2  0  0  0
 16 18  2  0  0  0
 16 10  1  0  0  0
 16 19  1  0  0  0
 10 11  1  0  0  0
 10 15  1  0  0  0
 11 12  1  0  0  0
 12 13  1  0  0  0
 13 14  1  0  0  0
 13  9  1  0  0  0
 14 15  1  0  0  0
  9  1  1  0  0  0
  1  2  1  0  0  0
  1  7  1  0  0  0
  2  3  2  0  0  0
  2  4  1  0  0  0
  4  5  1  0  0  0
  5  6  2  0  0  0
  6  7  1  0  0  0
  6 20  1  0  0  0
  7  8  2  0  0  0
 20 21  1  0  0  0
 21 22  1  0  0  0
 21 26  1  0  0  0
 22 23  1  0  0  0
 23 24  1  0  0  0
 24 25  1  0  0  0
 24 27  1  0  0  0
 25 26  1  0  0  0
 27 28  2  0  0  0
 27 32  1  0  0  0
 28 29  1  0  0  0
 29 30  2  0  0  0
 29 33  1  0  0  0
 30 31  1  0  0  0
 31 32  2  0  0  0
M  END
> <minimizedAffinity>
-7.72169

$$$$
