3


 38 41  0  0  0  0  0  0  0  0999 V2000
   21.5017   10.8758   32.1052 C   0  0  0  0  0  0  0  0  0  0  0  0
   20.6130   10.9896   33.1449 N   0  0  0  0  0  0  0  0  0  0  0  0
   20.0758   12.1779   33.1274 N   0  0  0  0  0  0  0  0  0  0  0  0
   20.5421   12.9040   32.1260 N   0  0  0  0  0  0  0  0  0  0  0  0
   21.4258   12.1250   31.4797 C   0  0  0  0  0  0  0  0  0  0  0  0
   20.1163   14.2242   31.8385 C   0  0  0  0  0  0  0  0  0  0  0  0
   18.9147   14.6627   31.4065 N   0  0  0  0  0  0  0  0  0  0  0  0
   18.9387   15.9626   31.2761 O   0  0  0  0  0  0  0  0  0  0  0  0
   20.1155   16.4322   31.6034 N   0  0  0  0  0  0  0  0  0  0  0  0
   20.8723   15.3804   31.9583 C   0  0  0  0  0  0  0  0  0  0  0  0
   22.2161   15.4752   32.3800 N   0  0  0  0  0  0  0  0  0  0  0  0
   22.4218   15.8936   33.3053 H   0  0  0  0  0  0  0  0  0  0  0  0
   23.0080   15.1426   31.8008 H   0  0  0  0  0  0  0  0  0  0  0  0
   22.3047    8.9193   30.6579 N   0  0  0  0  0  0  0  0  0  0  0  0
   22.2944    9.6981   31.8071 C   0  0  0  0  0  0  0  0  0  0  0  0
   23.0930    9.3399   32.7526 O   0  0  0  0  0  0  0  0  0  0  0  0
   21.7262    9.0527   29.7947 H   0  0  0  0  0  0  0  0  0  0  0  0
   22.7468    6.6256   30.9014 C   0  0  0  0  0  0  0  0  0  0  0  0
   23.2018    7.7977   30.6345 N   0  0  0  0  0  0  0  0  0  0  0  0
   26.4183    3.6969   28.4340 Br  0  0  0  0  0  0  0  0  0  0  0  0
   25.2321    4.0071   29.8782 C   0  0  0  0  0  0  0  0  0  0  0  0
   25.1541    3.1093   30.9024 C   0  0  0  0  0  0  0  0  0  0  0  0
   24.2720    3.3643   31.9492 C   0  0  0  0  0  0  0  0  0  0  0  0
   23.4955    4.5186   31.9285 C   0  0  0  0  0  0  0  0  0  0  0  0
   23.5677    5.4245   30.9043 C   0  0  0  0  0  0  0  0  0  0  0  0
   24.4442    5.1592   29.8758 C   0  0  0  0  0  0  0  0  0  0  0  0
   24.5092    6.0834   28.8445 O   0  0  0  0  0  0  0  0  0  0  0  0
   24.1401    2.1372   33.3880 Br  0  0  0  0  0  0  0  0  0  0  0  0
   25.9194    1.9529   30.9425 O   0  0  0  0  0  0  0  0  0  0  0  0
   25.1380    5.9338   28.0653 H   0  0  0  0  0  0  0  0  0  0  0  0
   25.8426    1.3054   31.7097 H   0  0  0  0  0  0  0  0  0  0  0  0
   22.1874   12.4694   30.2754 C   0  0  0  0  0  0  0  0  0  0  0  0
   23.4191   13.2199   30.5342 N   0  0  0  0  0  0  0  0  0  0  0  0
   24.2511   13.1879   29.3153 C   0  0  0  0  0  0  0  0  0  0  0  0
   24.3204   11.7973   28.7880 C   0  0  0  0  0  0  0  0  0  0  0  0
   24.7483   10.9484   29.7790 O   0  0  0  0  0  0  0  0  0  0  0  0
   25.1946   11.5786   30.9108 C   0  0  0  0  0  0  0  0  0  0  0  0
   24.1913   12.4903   31.5678 C   0  0  0  0  0  0  0  0  0  0  0  0
 20 21  1  0  0  0
 21 22  2  0  0  0
 21 26  1  0  0  0
 22 23  1  0  0  0
 22 29  1  0  0  0
 23 24  2  0  0  0
 23 28  1  0  0  0
 24 25  1  0  0  0
 25 26  2  0  0  0
 25 18  1  0  0  0
 26 27  1  0  0  0
 18 19  2  0  0  0
 19 14  1  0  0  0
 14 15  1  0  0  0
 15 16  2  0  0  0
 15  1  1  0  0  0
  1  2  1  0  0  0
  1  5  2  0  0  0
  2  3  2  0  0  0
  3  4  1  0  0  0
  4  5  1  0  0  0
  4  6  1  0  0  0
  5 32  1  0  0  0
 32 33  1  0  0  0
 33 34  1  0  0  0
 33 38  1  0  0  0
 34 35  1  0  0  0
 35 36  1  0  0  0
 36 37  1  0  0  0
 37 38  1  0  0  0
  6  7  2  0  0  0
  6 10  1  0  0  0
  7  8  1  0  0  0
  8  9  1  0  0  0
  9 10  2  0  0  0
 10 11  1  0  0  0
 27 30  1  0  0  0
 14 17  1  0  0  0
 11 12  1  0  0  0
 11 13  1  0  0  0
 29 31  1  0  0  0
M  END
> <minimizedAffinity>
-9.22757

$$$$
708


 31 34  0  0  0  0  0  0  0  0999 V2000
   22.8776   11.9720   30.7073 C   0  0  0  0  0  0  0  0  0  0  0  0
   24.0798   12.8660   30.6210 C   0  0  0  0  0  0  0  0  0  0  0  0
   25.7621   12.0662   27.9532 Br  0  0  0  0  0  0  0  0  0  0  0  0
   24.7032   13.6057   28.3195 C   0  0  0  0  0  0  0  0  0  0  0  0
   24.0457   13.7889   29.5051 N   0  0  0  0  0  0  0  0  0  0  0  0
   23.4235   14.9770   29.3708 C   0  0  0  0  0  0  0  0  0  0  0  0
   23.6804   15.5320   28.1275 C   0  0  0  0  0  0  0  0  0  0  0  0
   24.4835   14.6451   27.5012 N   0  0  0  0  0  0  0  0  0  0  0  0
   23.1973   16.7161   27.7137 N   0  0  0  0  0  0  0  0  0  0  0  0
   22.4189   17.3846   28.5834 C   0  0  0  0  0  0  0  0  0  0  0  0
   21.9345   18.5142   28.2371 O   0  0  0  0  0  0  0  0  0  0  0  0
   22.1446   16.8831   29.8017 N   0  0  0  0  0  0  0  0  0  0  0  0
   22.6326   15.6834   30.2240 C   0  0  0  0  0  0  0  0  0  0  0  0
   22.3702   15.2331   31.3583 O   0  0  0  0  0  0  0  0  0  0  0  0
   23.4698   17.2877   26.4123 C   0  0  0  0  0  0  0  0  0  0  0  0
   21.5432   17.3881   30.4869 H   0  0  0  0  0  0  0  0  0  0  0  0
   22.6646   11.3371   32.0515 C   0  0  0  0  0  0  0  0  0  0  0  0
   22.4128    9.9112   31.8955 N   0  0  0  0  0  0  0  0  0  0  0  0
   21.3057    9.2117   32.2338 C   0  0  0  0  0  0  0  0  0  0  0  0
   21.4671    7.8823   31.9198 C   0  0  0  0  0  0  0  0  0  0  0  0
   22.6975    7.7845   31.3825 N   0  0  0  0  0  0  0  0  0  0  0  0
   23.2610    9.0117   31.3719 C   0  0  0  0  0  0  0  0  0  0  0  0
   24.9982    9.4663   30.7217 Br  0  0  0  0  0  0  0  0  0  0  0  0
   20.5287    6.9435   32.1430 N   0  0  0  0  0  0  0  0  0  0  0  0
   19.3725    7.3672   32.7102 C   0  0  0  0  0  0  0  0  0  0  0  0
   18.4848    6.4854   32.9211 O   0  0  0  0  0  0  0  0  0  0  0  0
   19.1732    8.6622   33.0337 N   0  0  0  0  0  0  0  0  0  0  0  0
   20.1207    9.5945   32.8051 C   0  0  0  0  0  0  0  0  0  0  0  0
   19.9667   10.8060   33.0940 O   0  0  0  0  0  0  0  0  0  0  0  0
   20.7449    5.5418   31.7929 C   0  0  0  0  0  0  0  0  0  0  0  0
   18.2662    8.9286   33.4655 H   0  0  0  0  0  0  0  0  0  0  0  0
  3  4  1  0  0  0
  4  5  1  0  0  0
  4  8  2  0  0  0
  5  6  1  0  0  0
  5  2  1  0  0  0
  6  7  2  0  0  0
  6 13  1  0  0  0
  7  8  1  0  0  0
  7  9  1  0  0  0
  9 10  1  0  0  0
  9 15  1  0  0  0
 10 11  2  0  0  0
 10 12  1  0  0  0
 12 13  1  0  0  0
 13 14  2  0  0  0
  2  1  1  0  0  0
  1 17  1  0  0  0
 17 18  1  0  0  0
 18 19  1  0  0  0
 18 22  1  0  0  0
 19 20  2  0  0  0
 19 28  1  0  0  0
 20 21  1  0  0  0
 20 24  1  0  0  0
 21 22  2  0  0  0
 22 23  1  0  0  0
 24 25  1  0  0  0
 24 30  1  0  0  0
 25 26  2  0  0  0
 25 27  1  0  0  0
 27 28  1  0  0  0
 28 29  2  0  0  0
 12 16  1  0  0  0
 27 31  1  0  0  0
M  END
> <minimizedAffinity>
-9.24795

$$$$
1808


 24 28  0  0  0  0  0  0  0  0999 V2000
   25.4663   10.2457   30.1998 N   0  0  0  0  0  0  0  0  0  0  0  0
   25.4815    8.8312   30.0877 C   0  0  0  0  0  0  0  0  0  0  0  0
   26.2019    8.1963   29.2804 O   0  0  0  0  0  0  0  0  0  0  0  0
   24.5220    8.2552   31.0677 C   0  0  0  0  0  0  0  0  0  0  0  0
   23.1773    7.9999   30.4601 C   0  0  0  0  0  0  0  0  0  0  0  0
   22.3458    8.2115   31.5824 O   0  0  0  0  0  0  0  0  0  0  0  0
   22.7231    9.5568   31.8225 C   0  0  0  0  0  0  0  0  0  0  0  0
   24.1938    9.4121   32.0126 C   0  0  0  0  0  0  0  0  0  0  0  0
   24.9049   10.5980   31.4639 C   0  0  0  0  0  0  0  0  0  0  0  0
   24.9835   11.6936   32.0259 O   0  0  0  0  0  0  0  0  0  0  0  0
   22.4761   10.1220   30.4704 C   0  0  0  0  0  0  0  0  0  0  0  0
   22.8252    9.1581   29.6236 C   0  0  0  0  0  0  0  0  0  0  0  0
   27.5001   13.9532   25.8135 Br  0  0  0  0  0  0  0  0  0  0  0  0
   26.8758   12.7940   27.1790 C   0  0  0  0  0  0  0  0  0  0  0  0
   27.7445   11.9015   27.7589 C   0  0  0  0  0  0  0  0  0  0  0  0
   27.2643   11.0727   28.7488 C   0  0  0  0  0  0  0  0  0  0  0  0
   25.9526   11.1122   29.1670 C   0  0  0  0  0  0  0  0  0  0  0  0
   25.0738   12.0140   28.5825 C   0  0  0  0  0  0  0  0  0  0  0  0
   25.5646   12.8532   27.5801 C   0  0  0  0  0  0  0  0  0  0  0  0
   22.9951    6.6751   29.8543 C   0  0  0  0  0  0  0  0  0  0  0  0
   21.8599    6.0281   30.2596 O   0  0  0  0  0  0  0  0  0  0  0  0
   22.2167    4.9595   31.0435 C   0  0  0  0  0  0  0  0  0  0  0  0
   23.7087    4.9612   31.1066 C   0  0  0  0  0  0  0  0  0  0  0  0
   24.0741    5.8444   30.0969 O   0  0  0  0  0  0  0  0  0  0  0  0
 13 14  1  0  0  0
 14 15  2  0  0  0
 14 19  1  0  0  0
 15 16  1  0  0  0
 16 17  2  0  0  0
 17 18  1  0  0  0
 17  1  1  0  0  0
 18 19  2  0  0  0
  1  2  1  0  0  0
  1  9  1  0  0  0
  2  3  2  0  0  0
  2  4  1  0  0  0
  4  5  1  0  0  0
  4  8  1  0  0  0
  5  6  1  0  0  0
  5 12  1  0  0  0
  5 20  1  0  0  0
  6  7  1  0  0  0
  7  8  1  0  0  0
  7 11  1  0  0  0
  8  9  1  0  0  0
  9 10  2  0  0  0
 11 12  2  0  0  0
 20 21  1  0  0  0
 20 24  1  0  0  0
 21 22  1  0  0  0
 22 23  1  0  0  0
 23 24  1  0  0  0
M  END
> <minimizedAffinity>
-7.64825

$$$$
