
 OpenBabel03212208273D

 50 53  0  0  0  0  0  0  0  0999 V2000
   90.7680   87.2260  -49.2130 B   0  0  0  0  0  0  0  0  0  0  0  0
   90.8440   89.1400  -49.0880 C   0  0  0  0  0  0  0  0  0  0  0  0
   90.4950   89.8860  -50.1980 C   0  0  0  0  0  0  0  0  0  0  0  0
   90.5560   91.2580  -50.0870 C   0  0  0  0  0  0  0  0  0  0  0  0
   90.9560   91.8520  -48.9010 C   0  0  0  0  0  0  0  0  0  0  0  0
   91.3060   91.1110  -47.7920 C   0  0  0  0  0  0  0  0  0  0  0  0
   91.2430   89.7390  -47.9100 C   0  0  0  0  0  0  0  0  0  0  0  0
   91.6010   88.9860  -46.7770 O   0  0  0  0  0  0  0  0  0  0  0  0
   91.7320   91.7330  -46.5310 C   0  0  0  0  0  0  0  0  0  0  0  0
   91.0220   92.6070  -45.9220 N   0  0  0  0  0  0  0  0  0  0  0  0
   91.4820   93.1870  -44.6890 N   0  0  0  0  0  0  0  0  0  0  0  0
   91.8260   94.5430  -44.7300 C   0  0  0  0  0  0  0  0  0  0  0  0
   92.4650   94.9280  -45.8010 O   0  0  0  0  0  0  0  0  0  0  0  0
   91.5880   95.5970  -43.7730 C   0  0  0  0  0  0  0  0  0  0  0  0
   91.8560   95.4540  -42.4290 N   0  0  0  0  0  0  0  0  0  0  0  0
   91.5310   96.5600  -41.8410 N   0  0  0  0  0  0  0  0  0  0  0  0
   91.0520   97.4380  -42.7640 N   0  0  0  0  0  0  0  0  0  0  0  0
   91.0740   96.8720  -43.9690 C   0  0  0  0  0  0  0  0  0  0  0  0
   90.6530   97.4260  -45.2560 C   0  0  0  0  0  0  0  0  0  0  0  0
   89.6360   98.4070  -45.2990 N   0  0  0  0  0  4  0  0  0  0  0  0
   88.8870   98.4090  -46.5470 C   0  0  0  0  0  0  0  0  0  0  0  0
   89.7890   98.4710  -47.7140 C   0  0  0  0  0  0  0  0  0  0  0  0
   90.9440   99.1360  -47.6470 O   0  0  0  0  0  0  0  0  0  0  0  0
   91.3210   99.7130  -46.4780 C   0  0  0  0  0  0  0  0  0  0  0  0
   90.3330   99.7320  -45.3840 C   0  0  0  0  0  0  0  0  0  0  0  0
   90.6340   98.7400  -42.3470 C   0  0  0  0  0  0  0  0  0  0  0  0
   89.4320   99.2660  -42.1510 N   0  0  0  0  0  0  0  0  0  0  0  0
   89.5980  100.4800  -41.7390 O   0  0  0  0  0  0  0  0  0  0  0  0
   90.8530  100.7910  -41.6520 N   0  0  0  0  0  0  0  0  0  0  0  0
   91.5680   99.7370  -42.0210 C   0  0  0  0  0  0  0  0  0  0  0  0
   92.9760   99.5830  -42.0930 N   0  0  0  0  0  0  0  0  0  0  0  0
   90.0700   92.2870  -51.6240 B   0  0  0  0  0  0  0  0  0  0  0  0
   90.0960   89.2530  -51.3760 O   0  0  0  0  0  0  0  0  0  0  0  0
   90.9990   92.9400  -48.8320 H   0  0  0  0  0  0  0  0  0  0  0  0
   92.3270   89.3280  -46.1660 H   0  0  0  0  0  0  0  0  0  0  0  0
   92.6620   91.4500  -46.1040 H   0  0  0  0  0  0  0  0  0  0  0  0
   91.5230   92.5950  -43.8760 H   0  0  0  0  0  0  0  0  0  0  0  0
   90.4010   96.5910  -45.9940 H   0  0  0  0  0  0  0  0  0  0  0  0
   91.5700   97.9180  -45.7140 H   0  0  0  0  0  0  0  0  0  0  0  0
   89.0460   98.4120  -44.4800 H   0  0  0  0  0  0  0  0  0  0  0  0
   88.2900   99.3680  -46.5250 H   0  0  0  0  0  0  0  0  0  0  0  0
   88.1740   97.5970  -46.6570 H   0  0  0  0  0  0  0  0  0  0  0  0
   89.1860   98.8940  -48.5740 H   0  0  0  0  0  0  0  0  0  0  0  0
   89.9880   97.4120  -48.0530 H   0  0  0  0  0  0  0  0  0  0  0  0
   92.2610   99.2380  -46.1280 H   0  0  0  0  0  0  0  0  0  0  0  0
   91.6040  100.7810  -46.7020 H   0  0  0  0  0  0  0  0  0  0  0  0
   89.5370  100.4790  -45.5030 H   0  0  0  0  0  0  0  0  0  0  0  0
   90.8060   99.8590  -44.4010 H   0  0  0  0  0  0  0  0  0  0  0  0
   93.4170   99.3270  -43.0010 H   0  0  0  0  0  0  0  0  0  0  0  0
   93.6090   99.7180  -41.2530 H   0  0  0  0  0  0  0  0  0  0  0  0
  1  2  1  0  0  0  0
  2  7  1  0  0  0  0
  3  4  1  0  0  0  0
  3  2  2  0  0  0  0
  4  5  2  0  0  0  0
  5 34  1  0  0  0  0
  5  6  1  0  0  0  0
  6  9  1  0  0  0  0
  7  6  2  0  0  0  0
  7  8  1  0  0  0  0
  8 35  1  0  0  0  0
  9 36  1  0  0  0  0
  9 10  2  0  0  0  0
 10 11  1  0  0  0  0
 11 37  1  0  0  0  0
 12 11  1  0  0  0  0
 12 14  1  0  0  0  0
 13 12  2  0  0  0  0
 14 15  1  0  0  0  0
 15 16  2  0  0  0  0
 17 26  1  0  0  0  0
 17 16  1  0  0  0  0
 18 14  2  0  0  0  0
 18 17  1  0  0  0  0
 19 18  1  0  0  0  0
 20 19  1  0  0  0  0
 20 40  1  0  0  0  0
 21 41  1  0  0  0  0
 21 20  1  0  0  0  0
 22 23  1  0  0  0  0
 22 21  1  0  0  0  0
 23 24  1  0  0  0  0
 24 45  1  0  0  0  0
 24 25  1  0  0  0  0
 25 20  1  0  0  0  0
 25 48  1  0  0  0  0
 26 27  2  0  0  0  0
 26 30  1  0  0  0  0
 27 28  1  0  0  0  0
 28 29  1  0  0  0  0
 30 29  2  0  0  0  0
 31 30  1  0  0  0  0
 31 50  1  0  0  0  0
 32  4  1  0  0  0  0
 33  3  1  0  0  0  0
 38 19  1  0  0  0  0
 39 19  1  0  0  0  0
 42 21  1  0  0  0  0
 43 22  1  0  0  0  0
 44 22  1  0  0  0  0
 46 24  1  0  0  0  0
 47 25  1  0  0  0  0
 49 31  1  0  0  0  0
M  END
>  <Pose>
1

>  <Score>
-7.16

$$$$
