
 OpenBabel03212208273D

 50 53  0  0  0  0  0  0  0  0999 V2000
   92.1940   91.7030  -41.8550 B   0  0  0  0  0  0  0  0  0  0  0  0
   91.8950   93.4350  -42.5630 C   0  0  0  0  0  0  0  0  0  0  0  0
   91.6710   93.5970  -43.8990 C   0  0  0  0  0  0  0  0  0  0  0  0
   91.4560   94.8820  -44.3890 C   0  0  0  0  0  0  0  0  0  0  0  0
   91.4730   95.9640  -43.5150 C   0  0  0  0  0  0  0  0  0  0  0  0
   91.6970   95.8100  -42.1730 C   0  0  0  0  0  0  0  0  0  0  0  0
   91.9090   94.5340  -41.7020 C   0  0  0  0  0  0  0  0  0  0  0  0
   92.1340   94.3890  -40.3410 O   0  0  0  0  0  0  0  0  0  0  0  0
   91.7120   96.9550  -41.2750 C   0  0  0  0  0  0  0  0  0  0  0  0
   92.6960   97.7770  -41.1860 N   0  0  0  0  0  0  0  0  0  0  0  0
   92.6090   98.8770  -40.2670 N   0  0  0  0  0  0  0  0  0  0  0  0
   92.7690  100.1530  -40.7900 C   0  0  0  0  0  0  0  0  0  0  0  0
   93.6750  100.2960  -41.6940 O   0  0  0  0  0  0  0  0  0  0  0  0
   92.0530  101.3710  -40.4600 C   0  0  0  0  0  0  0  0  0  0  0  0
   92.3570  102.2110  -39.4180 N   0  0  0  0  0  0  0  0  0  0  0  0
   91.5210  103.2110  -39.4100 N   0  0  0  0  0  0  0  0  0  0  0  0
   90.6440  103.1160  -40.3940 N   0  0  0  0  0  0  0  0  0  0  0  0
   90.9510  101.9890  -41.0600 C   0  0  0  0  0  0  0  0  0  0  0  0
   90.2450  101.4300  -42.2160 C   0  0  0  0  0  0  0  0  0  0  0  0
   89.2770  100.3810  -41.8830 N   0  0  0  0  0  0  0  0  0  0  0  0
   89.6710   99.1420  -42.5820 C   0  0  0  0  0  0  0  0  0  0  0  0
   89.9850   99.4430  -44.0050 C   0  0  0  0  0  0  0  0  0  0  0  0
   88.9250  100.0980  -44.5840 O   0  0  0  0  0  0  0  0  0  0  0  0
   87.7930  100.1340  -43.8130 C   0  0  0  0  0  0  0  0  0  0  0  0
   87.9660  100.7680  -42.4580 C   0  0  0  0  0  0  0  0  0  0  0  0
   89.5950  104.0420  -40.6150 C   0  0  0  0  0  0  0  0  0  0  0  0
   88.9750  104.3780  -41.7660 N   0  0  0  0  0  0  0  0  0  0  0  0
   88.0500  105.2690  -41.5280 O   0  0  0  0  0  0  0  0  0  0  0  0
   88.0130  105.5580  -40.2520 N   0  0  0  0  0  0  0  0  0  0  0  0
   88.9590  104.8140  -39.6540 C   0  0  0  0  0  0  0  0  0  0  0  0
   89.2330  104.8400  -38.2700 N   0  0  0  0  0  0  0  0  0  0  0  0
   91.1410   95.1420  -46.2410 B   0  0  0  0  0  0  0  0  0  0  0  0
   91.6490   92.5320  -44.7870 O   0  0  0  0  0  0  0  0  0  0  0  0
   91.3080   96.9520  -43.8930 H   0  0  0  0  0  0  0  0  0  0  0  0
   93.0770   94.4290  -39.9740 H   0  0  0  0  0  0  0  0  0  0  0  0
   90.8540   97.1420  -40.6350 H   0  0  0  0  0  0  0  0  0  0  0  0
   92.4330   98.6170  -39.2670 H   0  0  0  0  0  0  0  0  0  0  0  0
   90.9340  100.9920  -42.9420 H   0  0  0  0  0  0  0  0  0  0  0  0
   89.6490  102.2160  -42.6990 H   0  0  0  0  0  0  0  0  0  0  0  0
   90.4950   98.6380  -42.0530 H   0  0  0  0  0  0  0  0  0  0  0  0
   88.7880   98.4780  -42.5370 H   0  0  0  0  0  0  0  0  0  0  0  0
   90.9010  100.0430  -44.1390 H   0  0  0  0  0  0  0  0  0  0  0  0
   90.0850   98.4620  -44.5550 H   0  0  0  0  0  0  0  0  0  0  0  0
   87.0620  100.7950  -44.3690 H   0  0  0  0  0  0  0  0  0  0  0  0
   87.3150   99.1330  -43.7610 H   0  0  0  0  0  0  0  0  0  0  0  0
   87.1920  100.3400  -41.8080 H   0  0  0  0  0  0  0  0  0  0  0  0
   87.8530  101.8440  -42.5470 H   0  0  0  0  0  0  0  0  0  0  0  0
   89.7310  105.6580  -37.8730 H   0  0  0  0  0  0  0  0  0  0  0  0
   88.9550  104.0730  -37.6310 H   0  0  0  0  0  0  0  0  0  0  0  0
   91.1570   91.6820  -44.5670 H   0  0  0  0  0  0  0  0  0  0  0  0
  2  1  1  0  0  0  0
  2  7  1  0  0  0  0
  3  2  2  0  0  0  0
  4  3  1  0  0  0  0
  4  5  2  0  0  0  0
  5  6  1  0  0  0  0
  6  7  2  0  0  0  0
  6  9  1  0  0  0  0
  7  8  1  0  0  0  0
  8 35  1  0  0  0  0
  9 10  2  0  0  0  0
  9 36  1  0  0  0  0
 10 11  1  0  0  0  0
 11 37  1  0  0  0  0
 12 14  1  0  0  0  0
 12 11  1  0  0  0  0
 13 12  2  0  0  0  0
 14 15  1  0  0  0  0
 15 16  2  0  0  0  0
 17 16  1  0  0  0  0
 18 14  2  0  0  0  0
 18 17  1  0  0  0  0
 19 20  1  0  0  0  0
 19 18  1  0  0  0  0
 21 41  1  0  0  0  0
 21 40  1  0  0  0  0
 21 20  1  0  0  0  0
 22 21  1  0  0  0  0
 23 22  1  0  0  0  0
 23 24  1  0  0  0  0
 24 45  1  0  0  0  0
 24 25  1  0  0  0  0
 25 20  1  0  0  0  0
 25 46  1  0  0  0  0
 26 17  1  0  0  0  0
 26 30  1  0  0  0  0
 27 28  1  0  0  0  0
 27 26  2  0  0  0  0
 28 29  1  0  0  0  0
 29 30  2  0  0  0  0
 30 31  1  0  0  0  0
 31 48  1  0  0  0  0
 31 49  1  0  0  0  0
 32  4  1  0  0  0  0
 33 50  1  0  0  0  0
 33  3  1  0  0  0  0
 34  5  1  0  0  0  0
 38 19  1  0  0  0  0
 39 19  1  0  0  0  0
 42 22  1  0  0  0  0
 43 22  1  0  0  0  0
 44 24  1  0  0  0  0
 47 25  1  0  0  0  0
M  END
>  <Pose>
1

>  <Score>
-6.61

$$$$
