
 OpenBabel03212208273D

 60 63  0  0  1  0  0  0  0  0999 V2000
   86.8800   97.0120  -46.8280 B   0  0  0  0  0  0  0  0  0  0  0  0
   86.9450   98.1210  -45.2700 C   0  0  0  0  0  0  0  0  0  0  0  0
   88.2080   98.4170  -44.7350 C   0  0  0  0  0  0  0  0  0  0  0  0
   88.2370   99.2050  -43.6300 C   0  0  0  0  0  0  0  0  0  0  0  0
   87.0710   99.7070  -43.0380 C   0  0  0  0  0  0  0  0  0  0  0  0
   85.8450   99.4020  -43.5820 C   0  0  0  0  0  0  0  0  0  0  0  0
   85.7930   98.6040  -44.7050 C   0  0  0  0  0  0  0  0  0  0  0  0
   84.1940  100.0280  -42.8660 B   0  0  0  0  0  0  0  0  0  0  0  0
   89.8700   99.6900  -42.8280 B   0  0  0  0  0  0  0  0  0  0  0  0
   89.3100   97.9150  -45.3330 O   0  0  0  0  0  0  0  0  0  0  0  0
   90.3310   97.1360  -44.7140 C   0  0  0  0  0  0  0  0  0  0  0  0
   91.0350   96.3210  -45.7130 C   0  0  1  0  0  0  0  0  0  0  0  0
   92.2550   96.9750  -45.9640 O   0  0  0  0  0  0  0  0  0  0  0  0
   90.9890   94.8710  -45.8100 C   0  0  0  0  0  0  0  0  0  0  0  0
   91.6160   94.0210  -44.8620 N   0  0  0  0  0  0  0  0  0  0  0  0
   91.9070   94.3450  -43.5740 C   0  0  0  0  0  0  0  0  0  0  0  0
   92.5080   93.2800  -42.9590 C   0  0  0  0  0  0  0  0  0  0  0  0
   92.5730   92.3390  -43.8780 N   0  0  0  0  0  0  0  0  0  0  0  0
   92.0390   92.7580  -45.0580 C   0  0  0  0  0  0  0  0  0  0  0  0
   92.0960   91.9570  -46.2520 N   0  0  0  0  0  0  0  0  0  0  0  0
   91.0160   91.5110  -47.0440 C   0  0  0  0  0  0  0  0  0  0  0  0
   91.6070   90.7620  -48.2700 C   0  0  0  0  0  0  0  0  0  0  0  0
   92.3140   89.6310  -47.7010 N   0  0  0  0  0  4  0  0  0  0  0  0
   93.5880   90.2240  -47.2530 C   0  0  0  0  0  0  0  0  0  0  0  0
   93.4380   91.5950  -46.7280 C   0  0  0  0  0  0  0  0  0  0  0  0
   92.5760   88.6090  -48.6950 C   0  0  0  0  0  0  0  0  0  0  0  0
   91.4420   87.6070  -48.6730 C   0  0  0  0  0  0  0  0  0  0  0  0
   91.8980   86.4120  -48.1020 O   0  0  0  0  0  0  0  0  0  0  0  0
   92.9410   93.2810  -41.6610 N   0  0  0  0  0  0  0  0  0  0  0  0
   92.7560   94.4120  -40.9690 C   0  0  0  0  0  0  0  0  0  0  0  0
   93.1560   94.4100  -39.7710 O   0  0  0  0  0  0  0  0  0  0  0  0
   92.1730   95.4900  -41.5290 N   0  0  0  0  0  0  0  0  0  0  0  0
   91.7430   95.5020  -42.8010 C   0  0  0  0  0  0  0  0  0  0  0  0
   91.1560   96.6190  -43.3510 O   0  0  0  0  0  0  0  0  0  0  0  0
   93.5600   92.0840  -41.1080 C   0  0  0  0  0  0  0  0  0  0  0  0
   87.1230  100.3260  -42.1650 H   0  0  0  0  0  0  0  0  0  0  0  0
   84.8340   98.3400  -45.1690 H   0  0  0  0  0  0  0  0  0  0  0  0
   89.7150   96.3970  -44.0930 H   0  0  0  0  0  0  0  0  0  0  0  0
   90.9140   97.6590  -43.9690 H   0  0  0  0  0  0  0  0  0  0  0  0
   90.4730   96.6600  -46.7400 H   0  0  0  0  0  0  0  0  0  0  0  0
   92.7170   96.6040  -46.7380 H   0  0  0  0  0  0  0  0  0  0  0  0
   89.9560   94.4850  -46.1040 H   0  0  0  0  0  0  0  0  0  0  0  0
   91.5080   94.6650  -46.8310 H   0  0  0  0  0  0  0  0  0  0  0  0
   90.4540   92.3380  -47.5500 H   0  0  0  0  0  0  0  0  0  0  0  0
   90.3850   90.7460  -46.5810 H   0  0  0  0  0  0  0  0  0  0  0  0
   92.3030   91.4240  -48.8190 H   0  0  0  0  0  0  0  0  0  0  0  0
   90.8260   90.3830  -48.9290 H   0  0  0  0  0  0  0  0  0  0  0  0
   91.8680   89.2460  -46.8410 H   0  0  0  0  0  0  0  0  0  0  0  0
   94.1920   89.5260  -46.6660 H   0  0  0  0  0  0  0  0  0  0  0  0
   94.1620   90.3250  -48.2310 H   0  0  0  0  0  0  0  0  0  0  0  0
   94.1540   91.7370  -45.8960 H   0  0  0  0  0  0  0  0  0  0  0  0
   93.6850   92.3900  -47.4720 H   0  0  0  0  0  0  0  0  0  0  0  0
   93.5140   88.0430  -48.4560 H   0  0  0  0  0  0  0  0  0  0  0  0
   92.6190   89.0220  -49.7210 H   0  0  0  0  0  0  0  0  0  0  0  0
   90.6120   87.9620  -48.0240 H   0  0  0  0  0  0  0  0  0  0  0  0
   91.0690   87.3760  -49.7110 H   0  0  0  0  0  0  0  0  0  0  0  0
   92.2060   86.5630  -47.1660 H   0  0  0  0  0  0  0  0  0  0  0  0
   92.7570   91.6150  -40.4660 H   0  0  0  0  0  0  0  0  0  0  0  0
   93.7080   91.3560  -41.9290 H   0  0  0  0  0  0  0  0  0  0  0  0
   94.4450   92.2700  -40.5050 H   0  0  0  0  0  0  0  0  0  0  0  0
  1  2  1  0  0  0  0
  2  3  2  0  0  0  0
  2  7  1  0  0  0  0
  3  4  1  0  0  0  0
  4  5  2  0  0  0  0
  4  9  1  0  0  0  0
  5 36  1  0  0  0  0
  6  5  1  0  0  0  0
  6  8  1  0  0  0  0
  7  6  2  0  0  0  0
 10  3  1  0  0  0  0
 10 11  1  0  0  0  0
 11 38  1  0  0  0  0
 11 39  1  0  0  0  0
 12 40  1  6  0  0  0
 12 11  1  0  0  0  0
 13 12  1  0  0  0  0
 14 12  1  0  0  0  0
 14 15  1  0  0  0  0
 15 16  1  0  0  0  0
 16 17  2  0  0  0  0
 16 33  1  0  0  0  0
 17 29  1  0  0  0  0
 18 17  1  0  0  0  0
 19 15  1  0  0  0  0
 19 18  2  0  0  0  0
 20 19  1  0  0  0  0
 21 45  1  0  0  0  0
 21 20  1  0  0  0  0
 22 23  1  0  0  0  0
 22 21  1  0  0  0  0
 23 24  1  0  0  0  0
 23 48  1  0  0  0  0
 24 25  1  0  0  0  0
 24 49  1  0  0  0  0
 25 20  1  0  0  0  0
 25 51  1  0  0  0  0
 26 27  1  0  0  0  0
 26 53  1  0  0  0  0
 26 23  1  0  0  0  0
 27 28  1  0  0  0  0
 27 55  1  0  0  0  0
 28 57  1  0  0  0  0
 29 35  1  0  0  0  0
 29 30  1  0  0  0  0
 30 31  2  0  0  0  0
 32 30  1  0  0  0  0
 33 32  1  0  0  0  0
 34 33  2  0  0  0  0
 35 60  1  0  0  0  0
 35 58  1  0  0  0  0
 37  7  1  0  0  0  0
 41 13  1  0  0  0  0
 42 14  1  0  0  0  0
 43 14  1  0  0  0  0
 44 21  1  0  0  0  0
 46 22  1  0  0  0  0
 47 22  1  0  0  0  0
 50 24  1  0  0  0  0
 52 25  1  0  0  0  0
 54 26  1  0  0  0  0
 56 27  1  0  0  0  0
 59 35  1  0  0  0  0
M  END
>  <Pose>
1

>  <Score>
-7.20

$$$$
