
 OpenBabel03212208273D

 47 50  0  0  1  0  0  0  0  0999 V2000
   91.8890   92.8990  -45.0160 B   0  0  0  0  0  0  0  0  0  0  0  0
   91.1710   94.6470  -45.3610 C   0  0  0  0  0  0  0  0  0  0  0  0
   91.3000   95.6470  -44.4650 C   0  0  0  0  0  0  0  0  0  0  0  0
   90.7080   96.9220  -44.7050 C   0  0  0  0  0  0  0  0  0  0  0  0
   90.0110   97.0840  -45.8520 C   0  0  0  0  0  0  0  0  0  0  0  0
   89.8800   96.0430  -46.7510 C   0  0  0  0  0  0  0  0  0  0  0  0
   90.4520   94.8290  -46.5230 C   0  0  0  0  0  0  0  0  0  0  0  0
   90.5940   97.7460  -43.4870 C   0  0  0  0  0  0  0  0  0  0  0  0
   91.2760   98.9680  -43.3580 N   0  0  2  0  0  4  0  0  0  0  0  0
   92.5800   99.1280  -43.7650 C   0  0  0  0  0  0  0  0  0  0  0  0
   93.0270  100.5150  -43.6560 N   0  0  2  0  0  0  0  0  0  0  0  0
   92.8790  100.9130  -42.2660 C   0  0  0  0  0  0  0  0  0  0  0  0
   91.5260  100.7270  -41.7850 N   0  0  2  0  0  0  0  0  0  0  0  0
   91.0450   99.4120  -41.9400 C   0  0  0  0  0  0  0  0  0  0  0  0
   90.6690  101.6580  -42.4890 C   0  0  0  0  0  0  0  0  0  0  0  0
   90.7990  101.3270  -43.9550 C   0  0  2  0  0  0  0  0  0  0  0  0
   90.3970   99.9100  -44.1350 C   0  0  0  0  0  0  0  0  0  0  0  0
   92.2410  101.4330  -44.4430 C   0  0  0  0  0  0  0  0  0  0  0  0
   91.9910   95.4770  -43.3180 O   0  0  0  0  0  0  0  0  0  0  0  0
   91.6440   94.5050  -42.3110 C   0  0  0  0  0  0  0  0  0  0  0  0
   92.3900   94.5460  -41.0560 C   0  0  0  0  0  0  0  0  0  0  0  0
   92.1750   95.3170  -40.1320 O   0  0  0  0  0  0  0  0  0  0  0  0
   93.4110   93.6050  -40.8860 O   0  0  0  0  0  0  0  0  0  0  0  0
   93.6880   92.5980  -41.8230 C   0  0  0  0  0  0  0  0  0  0  0  0
   89.5050   98.0270  -46.0520 H   0  0  0  0  0  0  0  0  0  0  0  0
   89.2820   96.2200  -47.6720 H   0  0  0  0  0  0  0  0  0  0  0  0
   90.3880   94.0310  -47.2450 H   0  0  0  0  0  0  0  0  0  0  0  0
   90.3430   97.2060  -42.5680 H   0  0  0  0  0  0  0  0  0  0  0  0
   89.4400   98.2330  -43.6410 H   0  0  0  0  0  0  0  0  0  0  0  0
   92.7640   98.7120  -44.7590 H   0  0  0  0  0  0  0  0  0  0  0  0
   93.2410   98.5620  -43.0560 H   0  0  0  0  0  0  0  0  0  0  0  0
   93.0640  102.0100  -42.2190 H   0  0  0  0  0  0  0  0  0  0  0  0
   93.6280  100.4280  -41.6220 H   0  0  0  0  0  0  0  0  0  0  0  0
   91.5290   98.7260  -41.2360 H   0  0  0  0  0  0  0  0  0  0  0  0
   89.9270   99.4090  -41.8310 H   0  0  0  0  0  0  0  0  0  0  0  0
   89.6090  101.4060  -42.2110 H   0  0  0  0  0  0  0  0  0  0  0  0
   90.9210  102.7000  -42.3090 H   0  0  0  0  0  0  0  0  0  0  0  0
   90.1210  101.9370  -44.5940 H   0  0  0  0  0  0  0  0  0  0  0  0
   89.3580   99.6770  -43.8110 H   0  0  0  0  0  0  0  0  0  0  0  0
   90.5340   99.5550  -45.1960 H   0  0  0  0  0  0  0  0  0  0  0  0
   92.5710  102.4520  -44.2360 H   0  0  0  0  0  0  0  0  0  0  0  0
   92.2240  101.1520  -45.5040 H   0  0  0  0  0  0  0  0  0  0  0  0
   91.6240   93.4840  -42.8080 H   0  0  0  0  0  0  0  0  0  0  0  0
   90.5540   94.6860  -42.0340 H   0  0  0  0  0  0  0  0  0  0  0  0
   94.7010   92.1740  -41.6570 H   0  0  0  0  0  0  0  0  0  0  0  0
   93.5800   93.0180  -42.8480 H   0  0  0  0  0  0  0  0  0  0  0  0
   92.9090   91.8040  -41.6490 H   0  0  0  0  0  0  0  0  0  0  0  0
  2  1  1  0  0  0  0
  2  3  1  0  0  0  0
  3 19  1  0  0  0  0
  4  3  2  0  0  0  0
  4  8  1  0  0  0  0
  5  4  1  0  0  0  0
  6  7  1  0  0  0  0
  6  5  2  0  0  0  0
  7  2  2  0  0  0  0
  8 28  1  0  0  0  0
  9  8  1  6  0  0  0
  9 14  1  0  0  0  0
 10 11  1  0  0  0  0
 10  9  1  0  0  0  0
 10 31  1  0  0  0  0
 11 18  1  6  0  0  0
 11 12  1  0  0  0  0
 12 32  1  0  0  0  0
 12 13  1  0  0  0  0
 12 33  1  0  0  0  0
 13 15  1  6  0  0  0
 14 35  1  0  0  0  0
 14 13  1  0  0  0  0
 14 34  1  0  0  0  0
 15 37  1  0  0  0  0
 15 36  1  0  0  0  0
 16 38  1  6  0  0  0
 16 15  1  0  0  0  0
 17 16  1  0  0  0  0
 17 39  1  0  0  0  0
 17  9  1  0  0  0  0
 18 41  1  0  0  0  0
 18 16  1  0  0  0  0
 19 20  1  0  0  0  0
 20 44  1  0  0  0  0
 20 21  1  0  0  0  0
 21 23  1  0  0  0  0
 21 22  2  0  0  0  0
 24 45  1  0  0  0  0
 24 47  1  0  0  0  0
 24 23  1  0  0  0  0
 25  5  1  0  0  0  0
 26  6  1  0  0  0  0
 27  7  1  0  0  0  0
 29  8  1  0  0  0  0
 30 10  1  0  0  0  0
 40 17  1  0  0  0  0
 42 18  1  0  0  0  0
 43 20  1  0  0  0  0
 46 24  1  0  0  0  0
M  END
>  <Pose>
1

>  <Score>
-4.22

$$$$
