
 OpenBabel03212208273D

 41 43  0  0  1  0  0  0  0  0999 V2000
   92.0570   94.8840  -40.8550 B   0  0  0  0  0  0  0  0  0  0  0  0
   91.7510   95.0540  -42.7460 C   0  0  0  0  0  0  0  0  0  0  0  0
   91.4100   96.3350  -43.2010 C   0  0  0  0  0  0  0  0  0  0  0  0
   91.1970   96.4280  -44.5610 C   0  0  0  0  0  0  0  0  0  0  0  0
   91.3170   95.3190  -45.4020 C   0  0  0  0  0  0  0  0  0  0  0  0
   91.6540   94.0730  -44.9320 C   0  0  0  0  0  0  0  0  0  0  0  0
   91.8690   93.9680  -43.5780 C   0  0  0  0  0  0  0  0  0  0  0  0
   91.7780   92.8990  -45.8470 C   0  0  0  0  0  0  0  0  0  0  0  0
   91.3040   97.4140  -42.2940 N   0  0  0  0  0  0  0  0  0  0  0  0
   92.2860   98.3320  -41.9160 C   0  0  0  0  0  0  0  0  0  0  0  0
   93.0670   98.0960  -40.9830 O   0  0  0  0  0  0  0  0  0  0  0  0
   92.3900   99.6090  -42.6470 C   0  0  0  0  0  0  0  0  0  0  0  0
   92.3630  100.7910  -41.8480 N   0  0  1  0  0  4  0  0  0  0  0  0
   93.7250  101.3450  -41.8310 C   0  0  0  0  0  0  0  0  0  0  0  0
   93.6020  102.8180  -41.5300 C   0  0  0  0  0  0  0  0  0  0  0  0
   92.5430  102.9370  -40.5290 N   0  0  1  0  0  0  0  0  0  0  0  0
   91.2910  102.8750  -41.2770 C   0  0  0  0  0  0  0  0  0  0  0  0
   91.4390  101.8050  -42.3490 C   0  0  0  0  0  0  0  0  0  0  0  0
   92.5720  101.7680  -39.6640 C   0  0  0  0  0  0  0  0  0  0  0  0
   92.0290  100.5670  -40.4570 C   0  0  0  0  0  0  0  0  0  0  0  0
   90.9270   97.3850  -44.9950 H   0  0  0  0  0  0  0  0  0  0  0  0
   91.1450   95.4090  -46.4750 H   0  0  0  0  0  0  0  0  0  0  0  0
   92.1360   92.9960  -43.1730 H   0  0  0  0  0  0  0  0  0  0  0  0
   91.6570   91.9450  -45.2930 H   0  0  0  0  0  0  0  0  0  0  0  0
   92.7440   92.8770  -46.3580 H   0  0  0  0  0  0  0  0  0  0  0  0
   90.9120   92.9590  -46.5400 H   0  0  0  0  0  0  0  0  0  0  0  0
   90.3500   97.5420  -41.8410 H   0  0  0  0  0  0  0  0  0  0  0  0
   91.5330   99.7140  -43.3810 H   0  0  0  0  0  0  0  0  0  0  0  0
   93.3260   99.6650  -43.2590 H   0  0  0  0  0  0  0  0  0  0  0  0
   94.2780  100.7830  -41.0570 H   0  0  0  0  0  0  0  0  0  0  0  0
   94.2150  101.1540  -42.8080 H   0  0  0  0  0  0  0  0  0  0  0  0
   93.3320  103.3340  -42.4670 H   0  0  0  0  0  0  0  0  0  0  0  0
   94.5620  103.2260  -41.1030 H   0  0  0  0  0  0  0  0  0  0  0  0
   91.1400  103.8380  -41.8060 H   0  0  0  0  0  0  0  0  0  0  0  0
   90.4250  102.6400  -40.6110 H   0  0  0  0  0  0  0  0  0  0  0  0
   90.4570  101.3410  -42.4620 H   0  0  0  0  0  0  0  0  0  0  0  0
   91.8600  102.1950  -43.2880 H   0  0  0  0  0  0  0  0  0  0  0  0
   93.6110  101.6190  -39.3380 H   0  0  0  0  0  0  0  0  0  0  0  0
   91.9310  101.9630  -38.7770 H   0  0  0  0  0  0  0  0  0  0  0  0
   90.9240  100.5910  -40.3130 H   0  0  0  0  0  0  0  0  0  0  0  0
   92.5090   99.6820  -40.0280 H   0  0  0  0  0  0  0  0  0  0  0  0
  2  1  1  0  0  0  0
  3  2  1  0  0  0  0
  3  9  1  0  0  0  0
  4  3  2  0  0  0  0
  5  6  2  0  0  0  0
  5  4  1  0  0  0  0
  6  7  1  0  0  0  0
  7 23  1  0  0  0  0
  7  2  2  0  0  0  0
  8 24  1  0  0  0  0
  8  6  1  0  0  0  0
  9 10  1  0  0  0  0
  9 27  1  0  0  0  0
 10 11  2  0  0  0  0
 12 10  1  0  0  0  0
 13 12  1  6  0  0  0
 13 14  1  0  0  0  0
 13 20  1  0  0  0  0
 14 15  1  0  0  0  0
 14 30  1  0  0  0  0
 15 33  1  0  0  0  0
 16 15  1  6  0  0  0
 16 19  1  0  0  0  0
 17 35  1  0  0  0  0
 17 16  1  0  0  0  0
 18 13  1  0  0  0  0
 18 17  1  0  0  0  0
 19 38  1  0  0  0  0
 19 39  1  0  0  0  0
 20 40  1  0  0  0  0
 20 41  1  0  0  0  0
 20 19  1  0  0  0  0
 21  4  1  0  0  0  0
 22  5  1  0  0  0  0
 25  8  1  0  0  0  0
 26  8  1  0  0  0  0
 28 12  1  0  0  0  0
 29 12  1  0  0  0  0
 31 14  1  0  0  0  0
 32 15  1  0  0  0  0
 34 17  1  0  0  0  0
 36 18  1  0  0  0  0
 37 18  1  0  0  0  0
M  END
>  <Pose>
1

>  <Score>
-4.71

$$$$
