
 OpenBabel03212208273D

 36 39  0  0  1  0  0  0  0  0999 V2000
   91.9840   94.6740  -41.2880 B   0  0  0  0  0  0  0  0  0  0  0  0
   91.8200   94.3320  -43.1350 C   0  0  0  0  0  0  0  0  0  0  0  0
   91.7120   95.3580  -44.0580 C   0  0  0  0  0  0  0  0  0  0  0  0
   91.5960   94.9580  -45.3840 C   0  0  0  0  0  0  0  0  0  0  0  0
   91.5880   93.6450  -45.7820 C   0  0  0  0  0  0  0  0  0  0  0  0
   91.6950   92.6530  -44.8600 C   0  0  0  0  0  0  0  0  0  0  0  0
   91.8110   92.9950  -43.5390 C   0  0  0  0  0  0  0  0  0  0  0  0
   91.7170   96.7260  -43.6830 N   0  0  0  0  0  0  0  0  0  0  0  0
   91.2100   97.3080  -42.4250 C   0  0  0  0  0  0  0  0  0  0  0  0
   90.8640   98.6600  -42.8460 C   0  0  2  0  0  0  0  0  0  0  0  0
   89.5900   98.8220  -43.4150 O   0  0  0  0  0  0  0  0  0  0  0  0
   89.7860  100.1660  -43.8290 C   0  0  2  0  0  0  0  0  0  0  0  0
   90.9260   99.9030  -44.8220 C   0  0  1  0  0  0  0  0  0  0  0  0
   91.8320   99.0730  -43.9680 C   0  0  2  0  0  0  0  0  0  0  0  0
   92.2250   97.7770  -44.4960 C   0  0  0  0  0  0  0  0  0  0  0  0
   92.9140   97.5860  -45.5200 O   0  0  0  0  0  0  0  0  0  0  0  0
   90.3090   99.0620  -45.8970 C   0  0  0  0  0  0  0  0  0  0  0  0
   90.3220   99.3830  -47.0940 O   0  0  0  0  0  0  0  0  0  0  0  0
   89.6960   97.8700  -45.5320 O   0  0  0  0  0  0  0  0  0  0  0  0
   89.3820   96.9200  -46.5580 C   0  0  0  0  0  0  0  0  0  0  0  0
   90.2850  100.7710  -42.5580 C   0  0  0  0  0  0  0  0  0  0  0  0
   90.8650   99.7550  -41.8820 C   0  0  0  0  0  0  0  0  0  0  0  0
   91.5080   95.6990  -46.1660 H   0  0  0  0  0  0  0  0  0  0  0  0
   91.4950   93.3800  -46.8280 H   0  0  0  0  0  0  0  0  0  0  0  0
   91.6890   91.6060  -45.1600 H   0  0  0  0  0  0  0  0  0  0  0  0
   91.8960   92.2040  -42.8100 H   0  0  0  0  0  0  0  0  0  0  0  0
   90.3030   96.7290  -42.1640 H   0  0  0  0  0  0  0  0  0  0  0  0
   91.9430   97.2530  -41.6130 H   0  0  0  0  0  0  0  0  0  0  0  0
   88.9220  100.6230  -44.2570 H   0  0  0  0  0  0  0  0  0  0  0  0
   91.3590  100.8200  -45.2060 H   0  0  0  0  0  0  0  0  0  0  0  0
   92.6820   99.6470  -43.5480 H   0  0  0  0  0  0  0  0  0  0  0  0
   89.0270   95.9740  -46.1220 H   0  0  0  0  0  0  0  0  0  0  0  0
   90.2630   96.7080  -47.1970 H   0  0  0  0  0  0  0  0  0  0  0  0
   88.5440   97.3100  -47.1890 H   0  0  0  0  0  0  0  0  0  0  0  0
   90.1890  101.8110  -42.2620 H   0  0  0  0  0  0  0  0  0  0  0  0
   91.2240   99.8080  -40.8660 H   0  0  0  0  0  0  0  0  0  0  0  0
  2  1  1  0  0  0  0
  3  8  1  0  0  0  0
  3  2  2  0  0  0  0
  4  3  1  0  0  0  0
  5  4  2  0  0  0  0
  5  6  1  0  0  0  0
  6  7  2  0  0  0  0
  7  2  1  0  0  0  0
  7 26  1  0  0  0  0
  8  9  1  0  0  0  0
  9 27  1  0  0  0  0
  9 28  1  0  0  0  0
 10 11  1  6  0  0  0
 10  9  1  0  0  0  0
 10 22  1  0  0  0  0
 12 29  1  6  0  0  0
 12 11  1  0  0  0  0
 12 21  1  0  0  0  0
 13 30  1  6  0  0  0
 13 14  1  0  0  0  0
 13 12  1  0  0  0  0
 14 31  1  1  0  0  0
 14 10  1  0  0  0  0
 15 14  1  0  0  0  0
 15  8  1  0  0  0  0
 16 15  2  0  0  0  0
 17 19  1  0  0  0  0
 17 13  1  0  0  0  0
 18 17  2  0  0  0  0
 20 32  1  0  0  0  0
 20 19  1  0  0  0  0
 21 35  1  0  0  0  0
 21 22  2  0  0  0  0
 22 36  1  0  0  0  0
 23  4  1  0  0  0  0
 24  5  1  0  0  0  0
 25  6  1  0  0  0  0
 33 20  1  0  0  0  0
 34 20  1  0  0  0  0
M  END
>  <Pose>
1

>  <Score>
-4.36

$$$$
