
 OpenBabel03212208273D

 40 43  0  0  0  0  0  0  0  0999 V2000
   95.5810  102.4130  -40.6030 B   0  0  0  0  0  0  0  0  0  0  0  0
   94.1650  102.7190  -39.3600 C   0  0  0  0  0  0  0  0  0  0  0  0
   92.8880  102.2590  -39.3850 C   0  0  0  0  0  0  0  0  0  0  0  0
   92.2270  102.7600  -38.2860 N   0  0  0  0  0  0  0  0  0  0  0  0
   93.0880  103.4920  -37.6310 N   0  0  0  0  0  0  0  0  0  0  0  0
   94.2840  103.5230  -38.2090 C   0  0  0  0  0  0  0  0  0  0  0  0
   90.8530  102.5190  -37.9310 C   0  0  0  0  0  0  0  0  0  0  0  0
   92.2410  101.3590  -40.3620 C   0  0  0  0  0  0  0  0  0  0  0  0
   90.9560  101.4020  -40.4130 O   0  0  0  0  0  0  0  0  0  0  0  0
   92.9390  100.4940  -41.2010 N   0  0  0  0  0  0  0  0  0  0  0  0
   92.3560   99.6350  -42.1660 C   0  0  0  0  0  0  0  0  0  0  0  0
   92.2970   98.2630  -41.8500 C   0  0  0  0  0  0  0  0  0  0  0  0
   92.7150   97.5890  -40.7430 N   0  0  0  0  0  0  0  0  0  0  0  0
   92.4360   96.3360  -40.9320 O   0  0  0  0  0  0  0  0  0  0  0  0
   91.8680   96.1630  -42.0850 N   0  0  0  0  0  0  0  0  0  0  0  0
   91.7550   97.3430  -42.7080 C   0  0  0  0  0  0  0  0  0  0  0  0
   91.2320   97.6960  -43.9350 C   0  0  0  0  0  0  0  0  0  0  0  0
   91.2910   99.0420  -44.2420 C   0  0  0  0  0  0  0  0  0  0  0  0
   91.8400   99.9860  -43.3770 C   0  0  0  0  0  0  0  0  0  0  0  0
   90.6720   96.7630  -44.8270 N   0  0  0  0  0  0  0  0  0  0  0  0
   91.4400   95.5630  -45.1490 C   0  0  0  0  0  0  0  0  0  0  0  0
   90.7870   94.7620  -46.2410 C   0  0  0  0  0  0  0  0  0  0  0  0
   90.2280   95.4740  -47.2500 O   0  0  0  0  0  0  0  0  0  0  0  0
   89.7200   96.7100  -46.9730 C   0  0  0  0  0  0  0  0  0  0  0  0
   89.4070   96.8180  -45.4950 C   0  0  0  0  0  0  0  0  0  0  0  0
   95.1880  104.0210  -37.9320 H   0  0  0  0  0  0  0  0  0  0  0  0
   90.6360  101.4260  -37.9490 H   0  0  0  0  0  0  0  0  0  0  0  0
   90.1880  103.0060  -38.6650 H   0  0  0  0  0  0  0  0  0  0  0  0
   90.6550  102.9520  -36.9410 H   0  0  0  0  0  0  0  0  0  0  0  0
   93.9960  100.4920  -41.0730 H   0  0  0  0  0  0  0  0  0  0  0  0
   90.8870   99.3410  -45.1990 H   0  0  0  0  0  0  0  0  0  0  0  0
   91.8530  101.0130  -43.6800 H   0  0  0  0  0  0  0  0  0  0  0  0
   92.4650   95.8190  -45.4930 H   0  0  0  0  0  0  0  0  0  0  0  0
   91.5370   94.9020  -44.2550 H   0  0  0  0  0  0  0  0  0  0  0  0
   91.5940   94.1130  -46.6830 H   0  0  0  0  0  0  0  0  0  0  0  0
   90.0820   94.0360  -45.7520 H   0  0  0  0  0  0  0  0  0  0  0  0
   90.5150   97.4670  -47.1970 H   0  0  0  0  0  0  0  0  0  0  0  0
   88.8030   96.9670  -47.5530 H   0  0  0  0  0  0  0  0  0  0  0  0
   88.8740   95.8590  -45.2150 H   0  0  0  0  0  0  0  0  0  0  0  0
   88.7300   97.6120  -45.2450 H   0  0  0  0  0  0  0  0  0  0  0  0
  1  2  1  0  0  0  0
  2  6  1  0  0  0  0
  3  2  2  0  0  0  0
  3  4  1  0  0  0  0
  4  7  1  0  0  0  0
  4  5  1  0  0  0  0
  6 26  1  0  0  0  0
  6  5  2  0  0  0  0
  7 29  1  0  0  0  0
  8  3  1  0  0  0  0
  9  8  2  0  0  0  0
 10 30  1  0  0  0  0
 10  8  1  0  0  0  0
 11 12  1  0  0  0  0
 11 10  1  0  0  0  0
 12 13  2  0  0  0  0
 14 13  1  0  0  0  0
 15 14  1  0  0  0  0
 16 15  2  0  0  0  0
 16 12  1  0  0  0  0
 17 16  1  0  0  0  0
 18 17  2  0  0  0  0
 18 19  1  0  0  0  0
 19 11  2  0  0  0  0
 20 17  1  0  0  0  0
 21 20  1  0  0  0  0
 21 34  1  0  0  0  0
 22 36  1  0  0  0  0
 22 21  1  0  0  0  0
 23 24  1  0  0  0  0
 23 22  1  0  0  0  0
 24 25  1  0  0  0  0
 25 40  1  0  0  0  0
 25 39  1  0  0  0  0
 25 20  1  0  0  0  0
 27  7  1  0  0  0  0
 28  7  1  0  0  0  0
 31 18  1  0  0  0  0
 32 19  1  0  0  0  0
 33 21  1  0  0  0  0
 35 22  1  0  0  0  0
 37 24  1  0  0  0  0
 38 24  1  0  0  0  0
M  END
>  <Pose>
1

>  <Score>
-5.21

$$$$
