
 OpenBabel03212208273D

 54 57  0  0  0  0  0  0  0  0999 V2000
   85.0860   96.9300  -45.4250 B   0  0  0  0  0  0  0  0  0  0  0  0
   84.9020   98.6110  -44.5460 C   0  0  0  0  0  0  0  0  0  0  0  0
   85.8480   99.0490  -43.6460 C   0  0  0  0  0  0  0  0  0  0  0  0
   85.7160  100.2610  -43.0130 C   0  0  0  0  0  0  0  0  0  0  0  0
   84.6090  101.0280  -43.3040 C   0  0  0  0  0  0  0  0  0  0  0  0
   83.6420  100.5960  -44.2150 C   0  0  0  0  0  0  0  0  0  0  0  0
   83.7810   99.3730  -44.8500 C   0  0  0  0  0  0  0  0  0  0  0  0
   84.5000  102.2500  -42.6490 O   0  0  0  0  0  0  0  0  0  0  0  0
   84.2660  102.3790  -41.2660 C   0  0  0  0  0  0  0  0  0  0  0  0
   86.7110  100.7360  -42.0570 C   0  0  0  0  0  0  0  0  0  0  0  0
   87.8930  101.0910  -42.3950 N   0  0  0  0  0  0  0  0  0  0  0  0
   88.8570  101.5470  -41.4950 N   0  0  0  0  0  0  0  0  0  0  0  0
   90.2130  101.1220  -41.5390 C   0  0  0  0  0  0  0  0  0  0  0  0
   91.1930  101.7010  -40.8110 N   0  0  0  0  0  4  0  0  0  0  0  0
   92.4600  101.2770  -40.8760 C   0  0  0  0  0  0  0  0  0  0  0  0
   92.7490  100.2480  -41.6890 N   0  0  0  0  0  0  0  0  0  0  0  0
   91.8140   99.6190  -42.4500 C   0  0  0  0  0  0  0  0  0  0  0  0
   90.5470  100.1040  -42.3320 N   0  0  0  0  0  0  0  0  0  0  0  0
   92.1240   98.5420  -43.2990 N   0  0  0  0  0  0  0  0  0  0  0  0
   92.8400   98.7400  -44.5240 C   0  0  0  0  0  0  0  0  0  0  0  0
   92.0120   98.0950  -45.6340 C   0  0  0  0  0  0  0  0  0  0  0  0
   91.8150   96.7730  -45.2760 O   0  0  0  0  0  0  0  0  0  0  0  0
   91.0100   96.6290  -44.1700 C   0  0  0  0  0  0  0  0  0  0  0  0
   91.7190   97.2120  -42.9480 C   0  0  0  0  0  0  0  0  0  0  0  0
   93.4900  101.8850  -40.1100 N   0  0  0  0  0  0  0  0  0  0  0  0
   93.2150  102.8610  -39.0780 C   0  0  0  0  0  0  0  0  0  0  0  0
   94.2070  104.0130  -39.1310 C   0  0  0  0  0  0  0  0  0  0  0  0
   95.5120  103.5300  -39.2870 O   0  0  0  0  0  0  0  0  0  0  0  0
   95.6580  102.8290  -40.4600 C   0  0  0  0  0  0  0  0  0  0  0  0
   94.8740  101.5390  -40.3430 C   0  0  0  0  0  0  0  0  0  0  0  0
   86.7340   98.4510  -43.4020 H   0  0  0  0  0  0  0  0  0  0  0  0
   82.7720  101.2200  -44.4320 H   0  0  0  0  0  0  0  0  0  0  0  0
   83.0240   99.0610  -45.5500 H   0  0  0  0  0  0  0  0  0  0  0  0
   83.1560  102.4220  -41.1280 H   0  0  0  0  0  0  0  0  0  0  0  0
   84.7450  101.5920  -40.6630 H   0  0  0  0  0  0  0  0  0  0  0  0
   84.6580  103.3660  -40.9310 H   0  0  0  0  0  0  0  0  0  0  0  0
   86.4560  100.7990  -41.0090 H   0  0  0  0  0  0  0  0  0  0  0  0
   88.5270  102.2360  -40.7650 H   0  0  0  0  0  0  0  0  0  0  0  0
   93.0090   99.8270  -44.7350 H   0  0  0  0  0  0  0  0  0  0  0  0
   93.8070   98.1880  -44.4790 H   0  0  0  0  0  0  0  0  0  0  0  0
   92.6530   98.1200  -46.5380 H   0  0  0  0  0  0  0  0  0  0  0  0
   91.0870   98.6480  -45.8110 H   0  0  0  0  0  0  0  0  0  0  0  0
   90.0540   97.1970  -44.2690 H   0  0  0  0  0  0  0  0  0  0  0  0
   90.8250   95.5650  -43.9960 H   0  0  0  0  0  0  0  0  0  0  0  0
   91.0670   97.1770  -42.0570 H   0  0  0  0  0  0  0  0  0  0  0  0
   92.6310   96.5830  -42.8110 H   0  0  0  0  0  0  0  0  0  0  0  0
   93.4270  102.3390  -38.1020 H   0  0  0  0  0  0  0  0  0  0  0  0
   92.1970  103.2580  -39.1200 H   0  0  0  0  0  0  0  0  0  0  0  0
   93.9020  104.6810  -39.9470 H   0  0  0  0  0  0  0  0  0  0  0  0
   94.1920  104.5070  -38.1270 H   0  0  0  0  0  0  0  0  0  0  0  0
   95.2930  103.4610  -41.2950 H   0  0  0  0  0  0  0  0  0  0  0  0
   96.7250  102.6510  -40.6280 H   0  0  0  0  0  0  0  0  0  0  0  0
   95.2490  101.0060  -39.4640 H   0  0  0  0  0  0  0  0  0  0  0  0
   94.9840  100.9040  -41.2370 H   0  0  0  0  0  0  0  0  0  0  0  0
  1  2  1  0  0  0  0
  2  3  1  0  0  0  0
  3 31  1  0  0  0  0
  3  4  2  0  0  0  0
  4 10  1  0  0  0  0
  5  4  1  0  0  0  0
  5  8  1  0  0  0  0
  6  5  2  0  0  0  0
  7  2  2  0  0  0  0
  7  6  1  0  0  0  0
  8  9  1  0  0  0  0
  9 34  1  0  0  0  0
  9 36  1  0  0  0  0
  9 35  1  0  0  0  0
 10 37  1  0  0  0  0
 11 10  2  0  0  0  0
 11 12  1  0  0  0  0
 12 38  1  0  0  0  0
 13 12  1  0  0  0  0
 13 14  2  0  0  0  0
 15 14  2  0  0  0  0
 15 25  1  0  0  0  0
 16 15  1  0  0  0  0
 17 18  1  0  0  0  0
 17 16  2  0  0  0  0
 18 13  1  0  0  0  0
 19 24  1  0  0  0  0
 19 17  1  0  0  0  0
 20 40  1  0  0  0  0
 20 19  1  0  0  0  0
 21 22  1  0  0  0  0
 21 20  1  0  0  0  0
 22 23  1  0  0  0  0
 23 44  1  0  0  0  0
 23 24  1  0  0  0  0
 24 46  1  0  0  0  0
 24 45  1  0  0  0  0
 25 26  1  0  0  0  0
 26 47  1  0  0  0  0
 27 26  1  0  0  0  0
 27 50  1  0  0  0  0
 28 27  1  0  0  0  0
 29 30  1  0  0  0  0
 29 28  1  0  0  0  0
 30 25  1  0  0  0  0
 30 53  1  0  0  0  0
 32  6  1  0  0  0  0
 33  7  1  0  0  0  0
 39 20  1  0  0  0  0
 41 21  1  0  0  0  0
 42 21  1  0  0  0  0
 43 23  1  0  0  0  0
 48 26  1  0  0  0  0
 49 27  1  0  0  0  0
 51 29  1  0  0  0  0
 52 29  1  0  0  0  0
 54 30  1  0  0  0  0
M  END
>  <Pose>
1

>  <Score>
-5.61

$$$$
