
 OpenBabel03212208273D

 45 48  0  0  0  0  0  0  0  0999 V2000
   87.8340  101.2000  -43.4500 B   0  0  0  0  0  0  0  0  0  0  0  0
   89.3140  100.4460  -44.3870 C   0  0  0  0  0  0  0  0  0  0  0  0
   89.4720   99.0920  -44.4250 C   0  0  0  0  0  0  0  0  0  0  0  0
   90.4720   98.4110  -45.0500 C   0  0  0  0  0  0  0  0  0  0  0  0
   91.3940   99.2640  -45.7000 C   0  0  0  0  0  0  0  0  0  0  0  0
   91.2750  100.6330  -45.6890 C   0  0  0  0  0  0  0  0  0  0  0  0
   90.2200  101.2400  -45.0250 C   0  0  0  0  0  0  0  0  0  0  0  0
   92.4610   98.6970  -46.3760 O   0  0  0  0  0  0  0  0  0  0  0  0
   93.1150   99.2900  -47.4550 C   0  0  0  0  0  0  0  0  0  0  0  0
   90.6840   96.9950  -45.1390 C   0  0  0  0  0  0  0  0  0  0  0  0
   91.1180   96.0030  -44.3920 N   0  0  0  0  0  0  0  0  0  0  0  0
   91.0810   94.8240  -45.0890 C   0  0  0  0  0  0  0  0  0  0  0  0
   90.5930   95.1220  -46.3150 N   0  0  0  0  0  0  0  0  0  0  0  0
   90.3550   96.3890  -46.3590 N   0  0  0  0  0  0  0  0  0  0  0  0
   91.5230   93.8290  -44.3170 N   0  0  0  0  0  0  0  0  0  0  0  0
   91.8380   94.3670  -43.1270 C   0  0  0  0  0  0  0  0  0  0  0  0
   91.5880   95.7340  -43.1470 C   0  0  0  0  0  0  0  0  0  0  0  0
   91.7860   96.5110  -42.0990 N   0  0  0  0  0  0  0  0  0  0  0  0
   92.2670   95.9080  -40.9670 C   0  0  0  0  0  0  0  0  0  0  0  0
   92.4940   96.5530  -39.9120 O   0  0  0  0  0  0  0  0  0  0  0  0
   92.5250   94.5840  -40.9120 N   0  0  0  0  0  0  0  0  0  0  0  0
   92.3220   93.8000  -41.9630 C   0  0  0  0  0  0  0  0  0  0  0  0
   92.5430   92.5620  -41.9750 O   0  0  0  0  0  0  0  0  0  0  0  0
   91.5040   97.9060  -41.9450 C   0  0  0  0  0  0  0  0  0  0  0  0
   91.6500   92.4440  -44.6640 C   0  0  0  0  0  0  0  0  0  0  0  0
   91.7280   92.3070  -46.1700 C   0  0  0  0  0  0  0  0  0  0  0  0
   91.7930   90.9630  -46.4790 O   0  0  0  0  0  0  0  0  0  0  0  0
   92.1860   90.7570  -47.8130 C   0  0  0  0  0  0  0  0  0  0  0  0
   88.7600   98.4660  -43.9070 H   0  0  0  0  0  0  0  0  0  0  0  0
   91.9640  101.2990  -46.1770 H   0  0  0  0  0  0  0  0  0  0  0  0
   90.1130  102.3100  -45.0070 H   0  0  0  0  0  0  0  0  0  0  0  0
   93.2330  100.3880  -47.3540 H   0  0  0  0  0  0  0  0  0  0  0  0
   94.1520   98.8900  -47.5990 H   0  0  0  0  0  0  0  0  0  0  0  0
   92.5590   99.0480  -48.3880 H   0  0  0  0  0  0  0  0  0  0  0  0
   92.8920   94.1410  -40.0440 H   0  0  0  0  0  0  0  0  0  0  0  0
   90.5320   98.2040  -42.3620 H   0  0  0  0  0  0  0  0  0  0  0  0
   91.4750   98.1260  -40.8210 H   0  0  0  0  0  0  0  0  0  0  0  0
   92.3100   98.5250  -42.3240 H   0  0  0  0  0  0  0  0  0  0  0  0
   90.8720   91.8040  -44.2120 H   0  0  0  0  0  0  0  0  0  0  0  0
   92.6580   92.1030  -44.2830 H   0  0  0  0  0  0  0  0  0  0  0  0
   92.6610   92.7750  -46.5700 H   0  0  0  0  0  0  0  0  0  0  0  0
   90.8280   92.7950  -46.5930 H   0  0  0  0  0  0  0  0  0  0  0  0
   91.4320   91.2480  -48.4660 H   0  0  0  0  0  0  0  0  0  0  0  0
   92.1550   89.6840  -48.0530 H   0  0  0  0  0  0  0  0  0  0  0  0
   93.1770   91.1620  -48.0240 H   0  0  0  0  0  0  0  0  0  0  0  0
  2  1  1  0  0  0  0
  3  2  1  0  0  0  0
  3 29  1  0  0  0  0
  4  3  2  0  0  0  0
  5  6  2  0  0  0  0
  5  4  1  0  0  0  0
  6  7  1  0  0  0  0
  7 31  1  0  0  0  0
  7  2  2  0  0  0  0
  8  5  1  0  0  0  0
  9 32  1  0  0  0  0
  9  8  1  0  0  0  0
 10  4  1  0  0  0  0
 10 11  1  0  0  0  0
 11 17  1  0  0  0  0
 12 11  1  0  0  0  0
 12 15  1  0  0  0  0
 13 12  2  0  0  0  0
 14 13  1  0  0  0  0
 14 10  2  0  0  0  0
 15 16  1  0  0  0  0
 16 22  1  0  0  0  0
 17 16  2  0  0  0  0
 17 18  1  0  0  0  0
 18 24  1  0  0  0  0
 18 19  1  0  0  0  0
 19 21  1  0  0  0  0
 19 20  2  0  0  0  0
 21 35  1  0  0  0  0
 22 21  1  0  0  0  0
 23 22  2  0  0  0  0
 24 37  1  0  0  0  0
 25 15  1  0  0  0  0
 25 40  1  0  0  0  0
 25 39  1  0  0  0  0
 26 25  1  0  0  0  0
 27 26  1  0  0  0  0
 28 27  1  0  0  0  0
 30  6  1  0  0  0  0
 33  9  1  0  0  0  0
 34  9  1  0  0  0  0
 36 24  1  0  0  0  0
 38 24  1  0  0  0  0
 41 26  1  0  0  0  0
 42 26  1  0  0  0  0
 43 28  1  0  0  0  0
 44 28  1  0  0  0  0
 45 28  1  0  0  0  0
M  END
>  <Pose>
1

>  <Score>
-6.10

$$$$
