
 OpenBabel03212208273D

 50 53  0  0  0  0  0  0  0  0999 V2000
   90.5990  103.6590  -36.4050 B   0  0  0  0  0  0  0  0  0  0  0  0
   91.3880  103.7140  -38.1350 C   0  0  0  0  0  0  0  0  0  0  0  0
   90.6240  103.7740  -39.2930 C   0  0  0  0  0  0  0  0  0  0  0  0
   91.1900  103.8130  -40.5400 C   0  0  0  0  0  0  0  0  0  0  0  0
   92.5610  103.7930  -40.6500 C   0  0  0  0  0  0  0  0  0  0  0  0
   93.3220  103.7330  -39.5100 C   0  0  0  0  0  0  0  0  0  0  0  0
   92.7620  103.6940  -38.2400 C   0  0  0  0  0  0  0  0  0  0  0  0
   90.3550  103.8770  -41.7350 C   0  0  0  0  0  0  0  0  0  0  0  0
   89.5850  104.8460  -41.9560 O   0  0  0  0  0  0  0  0  0  0  0  0
   90.4170  102.7810  -42.7040 C   0  0  0  0  0  0  0  0  0  0  0  0
   90.7990  101.5410  -42.1520 N   0  0  0  0  0  0  0  0  0  0  0  0
   92.0240  100.9930  -42.6000 C   0  0  0  0  0  0  0  0  0  0  0  0
   92.3570   99.6410  -42.0980 C   0  0  0  0  0  0  0  0  0  0  0  0
   91.2810   98.7290  -42.3180 N   0  0  0  0  0  0  0  0  0  0  0  0
   89.9610   99.2590  -42.5070 C   0  0  0  0  0  0  0  0  0  0  0  0
   89.7510  100.6180  -41.8810 C   0  0  0  0  0  0  0  0  0  0  0  0
   91.4690   97.3210  -42.3290 C   0  0  0  0  0  0  0  0  0  0  0  0
   91.5060   96.7050  -43.5090 C   0  0  0  0  0  0  0  0  0  0  0  0
   91.3970   97.1160  -44.8610 N   0  0  0  0  0  0  0  0  0  0  0  0
   91.5280   95.9310  -45.6190 N   0  0  0  0  0  0  0  0  0  0  0  0
   91.7090   94.8390  -44.7390 C   0  0  0  0  0  0  0  0  0  0  0  0
   91.7050   95.2400  -43.4760 C   0  0  0  0  0  0  0  0  0  0  0  0
   91.8440   94.5690  -42.2290 N   0  0  0  0  0  0  0  0  0  0  0  0
   91.8020   95.2120  -41.1150 C   0  0  0  0  0  0  0  0  0  0  0  0
   91.6150   96.6080  -41.0840 N   0  0  0  0  0  0  0  0  0  0  0  0
   91.8880   93.4120  -45.1160 C   0  0  0  0  0  0  0  0  0  0  0  0
   91.1960   98.4580  -45.3510 C   0  0  0  0  0  0  0  0  0  0  0  0
   89.5550  103.7870  -39.1380 H   0  0  0  0  0  0  0  0  0  0  0  0
   92.9860  103.8240  -41.6550 H   0  0  0  0  0  0  0  0  0  0  0  0
   94.4000  103.7160  -39.5750 H   0  0  0  0  0  0  0  0  0  0  0  0
   93.4040  103.6470  -37.3470 H   0  0  0  0  0  0  0  0  0  0  0  0
   91.1110  103.0540  -43.5440 H   0  0  0  0  0  0  0  0  0  0  0  0
   89.4210  102.6440  -43.2210 H   0  0  0  0  0  0  0  0  0  0  0  0
   92.1010  101.0770  -43.7000 H   0  0  0  0  0  0  0  0  0  0  0  0
   92.8360  101.6890  -42.2180 H   0  0  0  0  0  0  0  0  0  0  0  0
   92.5210   99.7150  -40.9880 H   0  0  0  0  0  0  0  0  0  0  0  0
   93.3280   99.2900  -42.5000 H   0  0  0  0  0  0  0  0  0  0  0  0
   89.5630   99.1930  -43.5250 H   0  0  0  0  0  0  0  0  0  0  0  0
   89.2900   98.5660  -41.9070 H   0  0  0  0  0  0  0  0  0  0  0  0
   88.8050  101.0230  -42.2980 H   0  0  0  0  0  0  0  0  0  0  0  0
   89.6090  100.5640  -40.7800 H   0  0  0  0  0  0  0  0  0  0  0  0
   91.4860   95.9380  -46.6600 H   0  0  0  0  0  0  0  0  0  0  0  0
   91.9170   94.6330  -40.1780 H   0  0  0  0  0  0  0  0  0  0  0  0
   91.5740   97.1680  -40.2150 H   0  0  0  0  0  0  0  0  0  0  0  0
   91.5560   93.2660  -46.1620 H   0  0  0  0  0  0  0  0  0  0  0  0
   91.4290   92.7260  -44.4000 H   0  0  0  0  0  0  0  0  0  0  0  0
   92.9950   93.2090  -45.1110 H   0  0  0  0  0  0  0  0  0  0  0  0
   90.4200   99.0270  -44.8470 H   0  0  0  0  0  0  0  0  0  0  0  0
   92.1780   98.9660  -45.4520 H   0  0  0  0  0  0  0  0  0  0  0  0
   90.8020   98.3230  -46.4120 H   0  0  0  0  0  0  0  0  0  0  0  0
  2  1  1  0  0  0  0
  3 28  1  0  0  0  0
  3  2  2  0  0  0  0
  4  3  1  0  0  0  0
  5  4  2  0  0  0  0
  5  6  1  0  0  0  0
  6  7  2  0  0  0  0
  7  2  1  0  0  0  0
  7 31  1  0  0  0  0
  8  4  1  0  0  0  0
  9  8  2  0  0  0  0
 10 11  1  0  0  0  0
 10  8  1  0  0  0  0
 11 16  1  0  0  0  0
 12 35  1  0  0  0  0
 12 11  1  0  0  0  0
 12 13  1  0  0  0  0
 13 36  1  0  0  0  0
 14 13  1  0  0  0  0
 15 14  1  0  0  0  0
 15 39  1  0  0  0  0
 15 16  1  0  0  0  0
 16 41  1  0  0  0  0
 17 14  1  0  0  0  0
 17 25  1  0  0  0  0
 18 22  1  0  0  0  0
 18 17  2  0  0  0  0
 19 18  1  0  0  0  0
 20 19  1  0  0  0  0
 20 21  1  0  0  0  0
 21 22  2  0  0  0  0
 22 23  1  0  0  0  0
 23 24  2  0  0  0  0
 24 25  1  0  0  0  0
 24 43  1  0  0  0  0
 25 44  1  0  0  0  0
 26 47  1  0  0  0  0
 26 21  1  0  0  0  0
 26 46  1  0  0  0  0
 27 19  1  0  0  0  0
 27 48  1  0  0  0  0
 29  5  1  0  0  0  0
 30  6  1  0  0  0  0
 32 10  1  0  0  0  0
 33 10  1  0  0  0  0
 34 12  1  0  0  0  0
 37 13  1  0  0  0  0
 38 15  1  0  0  0  0
 40 16  1  0  0  0  0
 42 20  1  0  0  0  0
 45 26  1  0  0  0  0
 49 27  1  0  0  0  0
 50 27  1  0  0  0  0
M  END
>  <Pose>
1

>  <Score>
-5.39

$$$$
