
 OpenBabel03212208273D

 48 51  0  0  1  0  0  0  0  0999 V2000
   86.9660  100.8920  -43.9010 B   0  0  0  0  0  0  0  0  0  0  0  0
   88.5620  101.0200  -42.8520 C   0  0  0  0  0  0  0  0  0  0  0  0
   89.4870  100.0140  -42.8820 C   0  0  0  0  0  0  0  0  0  0  0  0
   90.6480  100.0980  -42.1230 C   0  0  0  0  0  0  0  0  0  0  0  0
   90.8320  101.2050  -41.3550 C   0  0  0  0  0  0  0  0  0  0  0  0
   89.8880  102.2190  -41.3310 C   0  0  0  0  0  0  0  0  0  0  0  0
   88.7410  102.1340  -42.0830 C   0  0  0  0  0  0  0  0  0  0  0  0
   91.6270   99.0240  -42.1540 C   0  0  0  0  0  0  0  0  0  0  0  0
   92.7900   99.2720  -42.6430 O   0  0  0  0  0  0  0  0  0  0  0  0
   91.3400   97.7320  -41.6690 N   0  0  0  0  0  0  0  0  0  0  0  0
   91.9050   96.6050  -42.3890 C   0  0  2  0  0  0  0  0  0  0  0  0
   91.1940   96.3770  -43.7090 C   0  0  0  0  0  0  0  0  0  0  0  0
   91.4410   94.9720  -43.9700 N   0  0  0  0  0  0  0  0  0  0  0  0
   92.0510   94.3300  -42.8240 C   0  0  1  0  0  0  0  0  0  0  0  0
   91.6770   95.2950  -41.6900 C   0  0  0  0  0  0  0  0  0  0  0  0
   91.4350   93.0170  -42.6430 C   0  0  0  0  0  0  0  0  0  0  0  0
   90.9490   92.6720  -41.5560 O   0  0  0  0  0  0  0  0  0  0  0  0
   91.4090   92.1380  -43.7560 N   0  0  0  0  0  0  0  0  0  0  0  0
   91.4180   92.6840  -45.0950 C   0  0  1  0  0  0  0  0  0  0  0  0
   91.1960   94.1470  -45.1190 C   0  0  0  0  0  0  0  0  0  0  0  0
   90.7800   94.6980  -46.1720 O   0  0  0  0  0  0  0  0  0  0  0  0
   92.6490   92.2820  -45.8780 C   0  0  0  0  0  0  0  0  0  0  0  0
   92.3620   91.3300  -46.9640 C   0  0  0  0  0  0  0  0  0  0  0  0
   91.2300   91.4950  -47.7410 C   0  0  0  0  0  0  0  0  0  0  0  0
   90.9550   90.6090  -48.7570 C   0  0  0  0  0  0  0  0  0  0  0  0
   91.7720   89.5340  -49.0520 C   0  0  0  0  0  0  0  0  0  0  0  0
   92.9010   89.3680  -48.2790 C   0  0  0  0  0  0  0  0  0  0  0  0
   93.1930   90.2470  -47.2540 C   0  0  0  0  0  0  0  0  0  0  0  0
   89.3660   99.1130  -43.4890 H   0  0  0  0  0  0  0  0  0  0  0  0
   91.7330  101.2990  -40.7450 H   0  0  0  0  0  0  0  0  0  0  0  0
   90.0320  103.0970  -40.7230 H   0  0  0  0  0  0  0  0  0  0  0  0
   87.9800  102.9150  -42.0840 H   0  0  0  0  0  0  0  0  0  0  0  0
   90.7530   97.6190  -40.8310 H   0  0  0  0  0  0  0  0  0  0  0  0
   92.9640   96.7270  -42.6060 H   0  0  0  0  0  0  0  0  0  0  0  0
   90.0980   96.5450  -43.6340 H   0  0  0  0  0  0  0  0  0  0  0  0
   91.6090   97.0190  -44.5160 H   0  0  0  0  0  0  0  0  0  0  0  0
   93.1550   94.2550  -42.9080 H   0  0  0  0  0  0  0  0  0  0  0  0
   92.3930   95.0920  -40.8790 H   0  0  0  0  0  0  0  0  0  0  0  0
   90.6290   95.1030  -41.4360 H   0  0  0  0  0  0  0  0  0  0  0  0
   91.3820   91.0980  -43.6520 H   0  0  0  0  0  0  0  0  0  0  0  0
   90.5580   92.1740  -45.6250 H   0  0  0  0  0  0  0  0  0  0  0  0
   93.1270   93.2010  -46.2670 H   0  0  0  0  0  0  0  0  0  0  0  0
   93.3360   91.7910  -45.1700 H   0  0  0  0  0  0  0  0  0  0  0  0
   90.5260   92.3050  -47.5910 H   0  0  0  0  0  0  0  0  0  0  0  0
   90.0710   90.7320  -49.3690 H   0  0  0  0  0  0  0  0  0  0  0  0
   91.5180   88.8530  -49.8680 H   0  0  0  0  0  0  0  0  0  0  0  0
   93.5460   88.5190  -48.5110 H   0  0  0  0  0  0  0  0  0  0  0  0
   94.0890   90.0860  -46.6660 H   0  0  0  0  0  0  0  0  0  0  0  0
  1  2  1  0  0  0  0
  2  7  1  0  0  0  0
  3  2  2  0  0  0  0
  3  4  1  0  0  0  0
  4  5  2  0  0  0  0
  5  6  1  0  0  0  0
  5 30  1  0  0  0  0
  6 31  1  0  0  0  0
  7  6  2  0  0  0  0
  8  4  1  0  0  0  0
  8 10  1  0  0  0  0
  9  8  2  0  0  0  0
 10 33  1  0  0  0  0
 11 34  1  6  0  0  0
 11 15  1  0  0  0  0
 11 10  1  0  0  0  0
 12 35  1  0  0  0  0
 12 11  1  0  0  0  0
 13 12  1  0  0  0  0
 13 14  1  0  0  0  0
 14 37  1  6  0  0  0
 14 16  1  0  0  0  0
 14 15  1  0  0  0  0
 15 39  1  0  0  0  0
 15 38  1  0  0  0  0
 16 17  2  0  0  0  0
 18 40  1  0  0  0  0
 18 16  1  0  0  0  0
 19 41  1  6  0  0  0
 19 18  1  0  0  0  0
 20 19  1  0  0  0  0
 20 13  1  0  0  0  0
 21 20  2  0  0  0  0
 22 43  1  0  0  0  0
 22 19  1  0  0  0  0
 23 22  1  0  0  0  0
 24 44  1  0  0  0  0
 24 23  2  0  0  0  0
 25 24  1  0  0  0  0
 26 25  2  0  0  0  0
 26 27  1  0  0  0  0
 27 28  2  0  0  0  0
 28 23  1  0  0  0  0
 28 48  1  0  0  0  0
 29  3  1  0  0  0  0
 32  7  1  0  0  0  0
 36 12  1  0  0  0  0
 42 22  1  0  0  0  0
 45 25  1  0  0  0  0
 46 26  1  0  0  0  0
 47 27  1  0  0  0  0
M  END
>  <Pose>
1

>  <Score>
-5.77

$$$$
