
 OpenBabel03212208273D

 42 45  0  0  1  0  0  0  0  0999 V2000
   90.2390   85.7600  -49.4180 B   0  0  0  0  0  0  0  0  0  0  0  0
   90.3280   87.6580  -49.4390 C   0  0  0  0  0  0  0  0  0  0  0  0
   91.2210   88.3640  -48.6700 C   0  0  0  0  0  0  0  0  0  0  0  0
   91.2710   89.7360  -48.6700 C   0  0  0  0  0  0  0  0  0  0  0  0
   90.3990   90.4350  -49.4660 C   0  0  0  0  0  0  0  0  0  0  0  0
   89.4790   89.7610  -50.2600 C   0  0  0  0  0  0  0  0  0  0  0  0
   89.4570   88.3940  -50.2370 C   0  0  0  0  0  0  0  0  0  0  0  0
   92.2650   90.4820  -47.8080 C   0  0  0  0  0  0  0  0  0  0  0  0
   93.4560   90.1520  -48.1000 O   0  0  0  0  0  0  0  0  0  0  0  0
   91.8020   91.3720  -46.8700 N   0  0  0  0  0  0  0  0  0  0  0  0
   91.3530   92.2270  -45.9590 C   0  0  2  0  0  0  0  0  0  0  0  0
   91.7670   93.7170  -46.2490 C   0  0  0  0  0  0  0  0  0  0  0  0
   91.4950   94.3840  -45.0220 N   0  0  0  0  0  0  0  0  0  0  0  0
   91.4470   93.4040  -43.9460 C   0  0  1  0  0  0  0  0  0  0  0  0
   91.9930   92.1700  -44.5380 C   0  0  0  0  0  0  0  0  0  0  0  0
   92.1140   93.9330  -42.7460 C   0  0  0  0  0  0  0  0  0  0  0  0
   92.8260   93.1790  -42.0600 O   0  0  0  0  0  0  0  0  0  0  0  0
   91.9470   95.2860  -42.3740 N   0  0  0  0  0  0  0  0  0  0  0  0
   91.7590   96.2910  -43.3970 C   0  0  2  0  0  0  0  0  0  0  0  0
   90.8530   97.3360  -42.7790 C   0  0  0  0  0  0  0  0  0  0  0  0
   90.6720   96.9020  -41.3670 C   0  0  0  0  0  0  0  0  0  0  0  0
   91.9020   96.0170  -41.1120 C   0  0  0  0  0  0  0  0  0  0  0  0
   91.2750   95.7420  -44.6590 C   0  0  0  0  0  0  0  0  0  0  0  0
   90.6320   96.4910  -45.4760 O   0  0  0  0  0  0  0  0  0  0  0  0
   91.9240   87.8380  -48.0360 H   0  0  0  0  0  0  0  0  0  0  0  0
   90.3780   91.5010  -49.5080 H   0  0  0  0  0  0  0  0  0  0  0  0
   88.7970   90.3480  -50.8860 H   0  0  0  0  0  0  0  0  0  0  0  0
   88.7430   87.8440  -50.8530 H   0  0  0  0  0  0  0  0  0  0  0  0
   91.3730   90.3100  -46.1050 H   0  0  0  0  0  0  0  0  0  0  0  0
   90.2600   92.3670  -45.7220 H   0  0  0  0  0  0  0  0  0  0  0  0
   92.8130   93.6610  -46.5450 H   0  0  0  0  0  0  0  0  0  0  0  0
   91.1580   94.0490  -47.1030 H   0  0  0  0  0  0  0  0  0  0  0  0
   90.3840   93.2120  -43.6510 H   0  0  0  0  0  0  0  0  0  0  0  0
   91.6810   91.2270  -44.0520 H   0  0  0  0  0  0  0  0  0  0  0  0
   93.0800   92.1950  -44.7130 H   0  0  0  0  0  0  0  0  0  0  0  0
   92.7290   96.8440  -43.5940 H   0  0  0  0  0  0  0  0  0  0  0  0
   89.8680   97.3550  -43.3380 H   0  0  0  0  0  0  0  0  0  0  0  0
   91.2930   98.3500  -42.7820 H   0  0  0  0  0  0  0  0  0  0  0  0
   89.7400   96.2910  -41.3050 H   0  0  0  0  0  0  0  0  0  0  0  0
   90.6210   97.7350  -40.6360 H   0  0  0  0  0  0  0  0  0  0  0  0
   92.7690   96.6520  -40.9460 H   0  0  0  0  0  0  0  0  0  0  0  0
   91.6900   95.4100  -40.2390 H   0  0  0  0  0  0  0  0  0  0  0  0
  2  1  1  0  0  0  0
  2  3  1  0  0  0  0
  3 25  1  0  0  0  0
  4  3  2  0  0  0  0
  4  8  1  0  0  0  0
  5  4  1  0  0  0  0
  6  7  1  0  0  0  0
  6  5  2  0  0  0  0
  7  2  2  0  0  0  0
  8 10  1  0  0  0  0
  9  8  2  0  0  0  0
 10 29  1  0  0  0  0
 10 11  1  0  0  0  0
 11 30  1  1  0  0  0
 11 15  1  0  0  0  0
 12 11  1  0  0  0  0
 12 13  1  0  0  0  0
 13 23  1  0  0  0  0
 13 14  1  0  0  0  0
 14 33  1  1  0  0  0
 14 16  1  0  0  0  0
 15 34  1  0  0  0  0
 15 14  1  0  0  0  0
 16 18  1  0  0  0  0
 16 17  2  0  0  0  0
 18 22  1  0  0  0  0
 19 36  1  6  0  0  0
 19 20  1  0  0  0  0
 19 18  1  0  0  0  0
 20 21  1  0  0  0  0
 21 39  1  0  0  0  0
 21 22  1  0  0  0  0
 21 40  1  0  0  0  0
 22 41  1  0  0  0  0
 22 42  1  0  0  0  0
 23 19  1  0  0  0  0
 24 23  2  0  0  0  0
 26  5  1  0  0  0  0
 27  6  1  0  0  0  0
 28  7  1  0  0  0  0
 31 12  1  0  0  0  0
 32 12  1  0  0  0  0
 35 15  1  0  0  0  0
 37 20  1  0  0  0  0
 38 20  1  0  0  0  0
M  END
>  <Pose>
1

>  <Score>
-5.31

$$$$
