
 OpenBabel03212208273D

 42 45  0  0  1  0  0  0  0  0999 V2000
   89.6650   87.2130  -49.9210 B   0  0  0  0  0  0  0  0  0  0  0  0
   90.3220   88.9730  -49.6320 C   0  0  0  0  0  0  0  0  0  0  0  0
   90.9260   89.3490  -48.4600 C   0  0  0  0  0  0  0  0  0  0  0  0
   91.4090   90.6120  -48.2250 C   0  0  0  0  0  0  0  0  0  0  0  0
   91.2660   91.5300  -49.2380 C   0  0  0  0  0  0  0  0  0  0  0  0
   90.6530   91.1870  -50.4520 C   0  0  0  0  0  0  0  0  0  0  0  0
   90.1810   89.8980  -50.6430 C   0  0  0  0  0  0  0  0  0  0  0  0
   92.0480   90.9960  -46.9780 C   0  0  0  0  0  0  0  0  0  0  0  0
   93.2830   90.6740  -46.8710 O   0  0  0  0  0  0  0  0  0  0  0  0
   91.4160   91.6770  -45.9150 N   0  0  0  0  0  0  0  0  0  0  0  0
   91.7480   93.0240  -45.6310 C   0  0  2  0  0  0  0  0  0  0  0  0
   91.6710   93.4120  -44.1920 C   0  0  0  0  0  0  0  0  0  0  0  0
   91.5690   94.8800  -44.2550 N   0  0  0  0  0  0  0  0  0  0  0  0
   91.2690   95.2810  -45.6210 C   0  0  1  0  0  0  0  0  0  0  0  0
   90.7570   94.0220  -46.2500 C   0  0  0  0  0  0  0  0  0  0  0  0
   90.2960   96.3680  -45.5680 C   0  0  0  0  0  0  0  0  0  0  0  0
   89.4080   96.4740  -46.4230 O   0  0  0  0  0  0  0  0  0  0  0  0
   90.3670   97.3320  -44.5080 N   0  0  0  0  0  0  0  0  0  0  0  0
   91.5650   97.3040  -43.7050 C   0  0  1  0  0  0  0  0  0  0  0  0
   91.4640   98.2710  -42.5980 C   0  0  0  0  0  0  0  0  0  0  0  0
   90.3290   99.1680  -43.0520 C   0  0  0  0  0  0  0  0  0  0  0  0
   89.5150   98.3680  -44.0110 C   0  0  0  0  0  0  0  0  0  0  0  0
   91.7090   95.8790  -43.2480 C   0  0  0  0  0  0  0  0  0  0  0  0
   91.9390   95.5890  -42.0520 O   0  0  0  0  0  0  0  0  0  0  0  0
   91.0430   88.6250  -47.6530 H   0  0  0  0  0  0  0  0  0  0  0  0
   91.6160   92.5460  -49.1390 H   0  0  0  0  0  0  0  0  0  0  0  0
   90.5410   91.9080  -51.2480 H   0  0  0  0  0  0  0  0  0  0  0  0
   89.7160   89.6790  -51.5950 H   0  0  0  0  0  0  0  0  0  0  0  0
   90.7090   91.1770  -45.3450 H   0  0  0  0  0  0  0  0  0  0  0  0
   92.7420   93.3270  -46.0140 H   0  0  0  0  0  0  0  0  0  0  0  0
   90.6980   93.0040  -43.7970 H   0  0  0  0  0  0  0  0  0  0  0  0
   92.5020   93.0810  -43.5710 H   0  0  0  0  0  0  0  0  0  0  0  0
   92.2400   95.5940  -46.0860 H   0  0  0  0  0  0  0  0  0  0  0  0
   89.7370   93.8350  -45.9090 H   0  0  0  0  0  0  0  0  0  0  0  0
   90.8800   94.0170  -47.3520 H   0  0  0  0  0  0  0  0  0  0  0  0
   92.4580   97.4670  -44.3690 H   0  0  0  0  0  0  0  0  0  0  0  0
   92.3900   98.8980  -42.5850 H   0  0  0  0  0  0  0  0  0  0  0  0
   91.3100   97.8520  -41.5960 H   0  0  0  0  0  0  0  0  0  0  0  0
   90.7470  100.0570  -43.6060 H   0  0  0  0  0  0  0  0  0  0  0  0
   89.7940   99.5170  -42.1590 H   0  0  0  0  0  0  0  0  0  0  0  0
   88.6280   97.9790  -43.4610 H   0  0  0  0  0  0  0  0  0  0  0  0
   89.1480   99.0490  -44.8340 H   0  0  0  0  0  0  0  0  0  0  0  0
  1  2  1  0  0  0  0
  2  3  1  0  0  0  0
  3  4  2  0  0  0  0
  3 25  1  0  0  0  0
  4  8  1  0  0  0  0
  5 26  1  0  0  0  0
  5  4  1  0  0  0  0
  6  5  2  0  0  0  0
  7  6  1  0  0  0  0
  7  2  2  0  0  0  0
  8  9  2  0  0  0  0
  8 10  1  0  0  0  0
 10 11  1  0  0  0  0
 10 29  1  0  0  0  0
 11 30  1  6  0  0  0
 11 12  1  0  0  0  0
 12 31  1  0  0  0  0
 12 32  1  0  0  0  0
 13 12  1  0  0  0  0
 13 23  1  0  0  0  0
 14 33  1  6  0  0  0
 14 16  1  0  0  0  0
 14 13  1  0  0  0  0
 15 34  1  0  0  0  0
 15 11  1  0  0  0  0
 15 14  1  0  0  0  0
 16 18  1  0  0  0  0
 17 16  2  0  0  0  0
 18 22  1  0  0  0  0
 18 19  1  0  0  0  0
 19 36  1  6  0  0  0
 19 23  1  0  0  0  0
 19 20  1  0  0  0  0
 20 37  1  0  0  0  0
 20 38  1  0  0  0  0
 21 20  1  0  0  0  0
 21 40  1  0  0  0  0
 22 41  1  0  0  0  0
 22 21  1  0  0  0  0
 23 24  2  0  0  0  0
 27  6  1  0  0  0  0
 28  7  1  0  0  0  0
 35 15  1  0  0  0  0
 39 21  1  0  0  0  0
 42 22  1  0  0  0  0
M  END
>  <Pose>
1

>  <Score>
-5.62

$$$$
