
 OpenBabel03212208273D

 44 47  0  0  0  0  0  0  0  0999 V2000
   87.9400   99.5190  -45.2060 B   0  0  0  0  0  0  0  0  0  0  0  0
   88.3950   98.2190  -46.5260 C   0  0  0  0  0  0  0  0  0  0  0  0
   89.3050   97.2150  -46.1680 C   0  0  0  0  0  0  0  0  0  0  0  0
   89.6830   96.2080  -47.0690 C   0  0  0  0  0  0  0  0  0  0  0  0
   89.1310   96.2530  -48.3170 C   0  0  0  0  0  0  0  0  0  0  0  0
   88.2110   97.2520  -48.7030 C   0  0  0  0  0  0  0  0  0  0  0  0
   87.8530   98.2500  -47.7590 C   0  0  0  0  0  0  0  0  0  0  0  0
   90.3210   94.9710  -46.5430 C   0  0  0  0  0  0  0  0  0  0  0  0
   90.8630   94.9670  -45.3200 C   0  0  0  0  0  0  0  0  0  0  0  0
   90.9130   95.9960  -44.4740 O   0  0  0  0  0  0  0  0  0  0  0  0
   91.5360   95.5970  -43.2650 C   0  0  0  0  0  0  0  0  0  0  0  0
   91.8980   94.2930  -43.3140 C   0  0  0  0  0  0  0  0  0  0  0  0
   92.4580   93.7260  -42.1720 C   0  0  0  0  0  0  0  0  0  0  0  0
   92.6530   94.4740  -41.0530 C   0  0  0  0  0  0  0  0  0  0  0  0
   92.3020   95.8090  -41.0450 C   0  0  0  0  0  0  0  0  0  0  0  0
   91.7400   96.4330  -42.1330 C   0  0  0  0  0  0  0  0  0  0  0  0
   91.7460   97.8460  -42.4560 C   0  0  0  0  0  0  0  0  0  0  0  0
   92.5820   98.8850  -42.6490 N   0  0  0  0  0  4  0  0  0  0  0  0
   92.5710   99.7970  -43.7070 C   0  0  0  0  0  0  0  0  0  0  0  0
   91.8090  101.1050  -43.3990 C   0  0  0  0  0  0  0  0  0  0  0  0
   92.4020  101.8640  -42.4180 O   0  0  0  0  0  0  0  0  0  0  0  0
   92.8990  101.0260  -41.4140 C   0  0  0  0  0  0  0  0  0  0  0  0
   92.2670   99.7350  -41.3840 C   0  0  0  0  0  0  0  0  0  0  0  0
   92.5330   96.5390  -39.8770 O   0  0  0  0  0  0  0  0  0  0  0  0
   91.4910   93.8160  -44.6560 C   0  0  0  0  0  0  0  0  0  0  0  0
   91.6530   92.6740  -45.1230 O   0  0  0  0  0  0  0  0  0  0  0  0
   89.6590   97.2300  -45.1890 H   0  0  0  0  0  0  0  0  0  0  0  0
   89.3510   95.5330  -49.0600 H   0  0  0  0  0  0  0  0  0  0  0  0
   87.7350   97.3360  -49.6530 H   0  0  0  0  0  0  0  0  0  0  0  0
   87.1460   99.0020  -48.0240 H   0  0  0  0  0  0  0  0  0  0  0  0
   90.3850   94.0880  -47.1360 H   0  0  0  0  0  0  0  0  0  0  0  0
   92.7400   92.7060  -42.1920 H   0  0  0  0  0  0  0  0  0  0  0  0
   93.0880   94.0180  -40.1350 H   0  0  0  0  0  0  0  0  0  0  0  0
   91.3680   97.6780  -43.7020 H   0  0  0  0  0  0  0  0  0  0  0  0
   90.6180   98.2280  -42.2220 H   0  0  0  0  0  0  0  0  0  0  0  0
   93.6070   98.5650  -42.4670 H   0  0  0  0  0  0  0  0  0  0  0  0
   92.1830   99.4120  -44.6650 H   0  0  0  0  0  0  0  0  0  0  0  0
   93.6540  100.1790  -43.9300 H   0  0  0  0  0  0  0  0  0  0  0  0
   90.7430  100.8590  -43.2190 H   0  0  0  0  0  0  0  0  0  0  0  0
   91.8970  101.7040  -44.3560 H   0  0  0  0  0  0  0  0  0  0  0  0
   93.9890  100.9400  -41.3730 H   0  0  0  0  0  0  0  0  0  0  0  0
   92.6050  101.5250  -40.4250 H   0  0  0  0  0  0  0  0  0  0  0  0
   91.1200   99.7580  -41.4240 H   0  0  0  0  0  0  0  0  0  0  0  0
   92.5660   99.1060  -40.5920 H   0  0  0  0  0  0  0  0  0  0  0  0
  2  3  1  0  0  0  0
  2  1  1  0  0  0  0
  3 27  1  0  0  0  0
  4  8  1  0  0  0  0
  4  3  2  0  0  0  0
  5  4  1  0  0  0  0
  6  5  2  0  0  0  0
  6  7  1  0  0  0  0
  7  2  2  0  0  0  0
  8  9  2  0  0  0  0
  9 25  1  0  0  0  0
  9 10  1  0  0  0  0
 10 11  1  0  0  0  0
 11 16  1  0  0  0  0
 12 11  2  0  0  0  0
 12 13  1  0  0  0  0
 13 14  2  0  0  0  0
 14 15  1  0  0  0  0
 14 33  1  0  0  0  0
 15 24  1  0  0  0  0
 16 15  2  0  0  0  0
 17 35  1  0  0  0  0
 17 16  1  0  0  0  0
 18 36  1  0  0  0  0
 18 17  1  0  0  0  0
 18 23  1  0  0  0  0
 19 20  1  0  0  0  0
 19 18  1  0  0  0  0
 20 39  1  0  0  0  0
 20 21  1  0  0  0  0
 21 22  1  0  0  0  0
 22 23  1  0  0  0  0
 22 41  1  0  0  0  0
 22 42  1  0  0  0  0
 23 44  1  0  0  0  0
 25 12  1  0  0  0  0
 26 25  2  0  0  0  0
 28  5  1  0  0  0  0
 29  6  1  0  0  0  0
 30  7  1  0  0  0  0
 31  8  1  0  0  0  0
 32 13  1  0  0  0  0
 34 17  1  0  0  0  0
 37 19  1  0  0  0  0
 38 19  1  0  0  0  0
 40 20  1  0  0  0  0
 43 23  1  0  0  0  0
M  END
>  <Pose>
1

>  <Score>
-5.19

$$$$
