
 OpenBabel03212208273D

 63 66  0  0  1  0  0  0  0  0999 V2000
   84.9720   97.3660  -44.4470 B   0  0  0  0  0  0  0  0  0  0  0  0
   85.5240   98.9580  -43.5540 C   0  0  0  0  0  0  0  0  0  0  0  0
   86.8660   99.2560  -43.4520 C   0  0  0  0  0  0  0  0  0  0  0  0
   87.3180  100.4030  -42.8120 C   0  0  0  0  0  0  0  0  0  0  0  0
   86.3320  101.2240  -42.2850 C   0  0  0  0  0  0  0  0  0  0  0  0
   84.9870  100.9350  -42.3830 C   0  0  0  0  0  0  0  0  0  0  0  0
   84.5640   99.7910  -43.0230 C   0  0  0  0  0  0  0  0  0  0  0  0
   88.7620  100.7220  -42.7130 C   0  0  2  0  0  0  0  0  0  0  0  0
   88.9940  101.9980  -43.3600 N   0  0  0  0  0  0  0  0  0  0  0  0
   88.9700  101.7460  -44.7570 C   0  0  0  0  0  0  0  0  0  0  0  0
   88.6930  102.5530  -45.6720 O   0  0  0  0  0  0  0  0  0  0  0  0
   89.3380  100.3240  -44.9410 C   0  0  0  0  0  0  0  0  0  0  0  0
   89.4410   99.7000  -46.0200 O   0  0  0  0  0  0  0  0  0  0  0  0
   89.5610   99.8040  -43.5990 C   0  0  0  0  0  0  0  0  0  0  0  0
   90.3250   98.8010  -43.2890 C   0  0  0  0  0  0  0  0  0  0  0  0
   90.4720   98.4760  -41.9240 O   0  0  0  0  0  0  0  0  0  0  0  0
   91.0530   97.9640  -44.2320 C   0  0  0  0  0  0  0  0  0  0  0  0
   92.0340   98.2090  -45.1330 C   0  0  0  0  0  0  0  0  0  0  0  0
   92.3790   97.0380  -45.7090 N   0  0  0  0  0  0  0  0  0  0  0  0
   91.6550   96.0240  -45.2180 C   0  0  0  0  0  0  0  0  0  0  0  0
   90.8140   96.5760  -44.2890 C   0  0  0  0  0  0  0  0  0  0  0  0
   89.8120   95.8240  -43.4760 C   0  0  0  0  0  0  0  0  0  0  0  0
   91.7440   94.6010  -45.6010 C   0  0  0  0  0  0  0  0  0  0  0  0
   91.1600   94.2110  -46.6230 O   0  0  0  0  0  0  0  0  0  0  0  0
   92.4670   93.7080  -44.8330 O   0  0  0  0  0  0  0  0  0  0  0  0
   92.0050   93.1680  -43.6160 C   0  0  0  0  0  0  0  0  0  0  0  0
   92.6340   99.5340  -45.5060 C   0  0  0  0  0  0  0  0  0  0  0  0
   89.2120  103.2960  -42.7150 C   0  0  0  0  0  0  0  0  0  0  0  0
   89.9890  103.1400  -41.4260 C   0  0  0  0  0  0  0  0  0  0  0  0
   91.2450  102.4800  -41.5830 N   0  0  0  0  0  4  0  0  0  0  0  0
   91.4580  101.3880  -40.6410 C   0  0  0  0  0  0  0  0  0  0  0  0
   92.5560  100.5210  -41.1950 C   0  0  0  0  0  0  0  0  0  0  0  0
   93.3300  101.2600  -42.0550 O   0  0  0  0  0  0  0  0  0  0  0  0
   93.6290  102.5330  -41.6040 C   0  0  0  0  0  0  0  0  0  0  0  0
   92.3750  103.3800  -41.3900 C   0  0  0  0  0  0  0  0  0  0  0  0
   87.6190   98.5940  -43.8650 H   0  0  0  0  0  0  0  0  0  0  0  0
   86.6630  102.1290  -41.7790 H   0  0  0  0  0  0  0  0  0  0  0  0
   84.2260  101.5900  -41.9650 H   0  0  0  0  0  0  0  0  0  0  0  0
   83.4930   99.5510  -43.1070 H   0  0  0  0  0  0  0  0  0  0  0  0
   89.1320  100.6910  -41.6730 H   0  0  0  0  0  0  0  0  0  0  0  0
   93.1280   96.9440  -46.4550 H   0  0  0  0  0  0  0  0  0  0  0  0
   89.1860   95.1780  -44.1250 H   0  0  0  0  0  0  0  0  0  0  0  0
   89.1280   96.5430  -42.9960 H   0  0  0  0  0  0  0  0  0  0  0  0
   90.2850   95.1750  -42.7240 H   0  0  0  0  0  0  0  0  0  0  0  0
   90.9280   92.8910  -43.6510 H   0  0  0  0  0  0  0  0  0  0  0  0
   92.2180   93.8540  -42.7530 H   0  0  0  0  0  0  0  0  0  0  0  0
   92.6100   92.2410  -43.4350 H   0  0  0  0  0  0  0  0  0  0  0  0
   93.6530   99.6450  -45.0990 H   0  0  0  0  0  0  0  0  0  0  0  0
   91.9820  100.3530  -45.1720 H   0  0  0  0  0  0  0  0  0  0  0  0
   92.6710   99.5140  -46.6420 H   0  0  0  0  0  0  0  0  0  0  0  0
   89.7720  103.9810  -43.3850 H   0  0  0  0  0  0  0  0  0  0  0  0
   88.2380  103.7520  -42.4340 H   0  0  0  0  0  0  0  0  0  0  0  0
   89.3280  102.5940  -40.6880 H   0  0  0  0  0  0  0  0  0  0  0  0
   90.1790  104.1210  -40.9570 H   0  0  0  0  0  0  0  0  0  0  0  0
   91.3310  102.1320  -42.5540 H   0  0  0  0  0  0  0  0  0  0  0  0
   91.8660  101.8630  -39.7020 H   0  0  0  0  0  0  0  0  0  0  0  0
   90.5500  100.8580  -40.3610 H   0  0  0  0  0  0  0  0  0  0  0  0
   93.1930  100.0630  -40.4180 H   0  0  0  0  0  0  0  0  0  0  0  0
   92.1190   99.6720  -41.7840 H   0  0  0  0  0  0  0  0  0  0  0  0
   94.1980  103.0280  -42.4430 H   0  0  0  0  0  0  0  0  0  0  0  0
   94.2900  102.5460  -40.7150 H   0  0  0  0  0  0  0  0  0  0  0  0
   92.3450  104.2500  -42.0470 H   0  0  0  0  0  0  0  0  0  0  0  0
   92.3910  103.6950  -40.3140 H   0  0  0  0  0  0  0  0  0  0  0  0
  1  2  1  0  0  0  0
  2  3  2  0  0  0  0
  2  7  1  0  0  0  0
  3  4  1  0  0  0  0
  4  8  1  0  0  0  0
  4  5  2  0  0  0  0
  5 37  1  0  0  0  0
  6  5  1  0  0  0  0
  6 38  1  0  0  0  0
  7  6  2  0  0  0  0
  8 40  1  1  0  0  0
  9 28  1  0  0  0  0
  9  8  1  0  0  0  0
 10  9  1  0  0  0  0
 11 10  2  0  0  0  0
 12 10  1  0  0  0  0
 12 14  1  0  0  0  0
 13 12  2  0  0  0  0
 14 15  2  0  0  0  0
 14  8  1  0  0  0  0
 15 16  1  0  0  0  0
 17 15  1  0  0  0  0
 18 17  2  0  0  0  0
 19 20  1  0  0  0  0
 19 18  1  0  0  0  0
 20 21  2  0  0  0  0
 21 17  1  0  0  0  0
 21 22  1  0  0  0  0
 22 43  1  0  0  0  0
 22 44  1  0  0  0  0
 23 20  1  0  0  0  0
 23 25  1  0  0  0  0
 24 23  2  0  0  0  0
 25 26  1  0  0  0  0
 26 47  1  0  0  0  0
 26 46  1  0  0  0  0
 27 49  1  0  0  0  0
 27 18  1  0  0  0  0
 27 48  1  0  0  0  0
 28 52  1  0  0  0  0
 28 29  1  0  0  0  0
 29 54  1  0  0  0  0
 29 53  1  0  0  0  0
 30 29  1  0  0  0  0
 30 35  1  0  0  0  0
 30 31  1  0  0  0  0
 31 57  1  0  0  0  0
 31 56  1  0  0  0  0
 32 31  1  0  0  0  0
 32 58  1  0  0  0  0
 33 34  1  0  0  0  0
 33 32  1  0  0  0  0
 34 35  1  0  0  0  0
 34 61  1  0  0  0  0
 35 63  1  0  0  0  0
 36  3  1  0  0  0  0
 39  7  1  0  0  0  0
 41 19  1  0  0  0  0
 42 22  1  0  0  0  0
 45 26  1  0  0  0  0
 50 27  1  0  0  0  0
 51 28  1  0  0  0  0
 55 30  1  0  0  0  0
 59 32  1  0  0  0  0
 60 34  1  0  0  0  0
 62 35  1  0  0  0  0
M  END
>  <Pose>
1

>  <Score>
-5.06

$$$$
