
 OpenBabel03212208273D

 56 59  0  0  1  0  0  0  0  0999 V2000
   86.0980   98.5330  -43.7360 B   0  0  0  0  0  0  0  0  0  0  0  0
   87.5360   99.6180  -43.1330 C   0  0  0  0  0  0  0  0  0  0  0  0
   88.8660   99.2400  -43.2610 C   0  0  0  0  0  0  0  0  0  0  0  0
   89.9010  100.0300  -42.8180 C   0  0  0  0  0  0  0  0  0  0  0  0
   89.5920  101.2220  -42.2340 C   0  0  0  0  0  0  0  0  0  0  0  0
   88.2530  101.6160  -42.1000 C   0  0  0  0  0  0  0  0  0  0  0  0
   87.2190  100.8240  -42.5440 C   0  0  0  0  0  0  0  0  0  0  0  0
   91.3070   99.5800  -42.9810 C   0  0  1  0  0  0  0  0  0  0  0  0
   92.0080   99.6120  -41.7090 N   0  0  0  0  0  0  0  0  0  0  0  0
   91.8720   98.3020  -41.1210 C   0  0  0  0  0  0  0  0  0  0  0  0
   92.0530   98.0400  -39.9070 O   0  0  0  0  0  0  0  0  0  0  0  0
   91.5000   97.3960  -42.1880 C   0  0  0  0  0  0  0  0  0  0  0  0
   91.2750   96.1480  -42.1160 O   0  0  0  0  0  0  0  0  0  0  0  0
   91.4170   98.1750  -43.4160 C   0  0  0  0  0  0  0  0  0  0  0  0
   91.4070   97.6740  -44.6430 C   0  0  0  0  0  0  0  0  0  0  0  0
   91.2630   98.6420  -45.6590 O   0  0  0  0  0  0  0  0  0  0  0  0
   91.5340   96.2620  -44.9650 C   0  0  0  0  0  0  0  0  0  0  0  0
   92.4760   95.4080  -44.4430 C   0  0  0  0  0  0  0  0  0  0  0  0
   92.5270   94.0660  -44.7610 C   0  0  0  0  0  0  0  0  0  0  0  0
   91.6160   93.5190  -45.6350 C   0  0  0  0  0  0  0  0  0  0  0  0
   90.6620   94.3620  -46.1700 C   0  0  0  0  0  0  0  0  0  0  0  0
   90.6190   95.7040  -45.8460 C   0  0  0  0  0  0  0  0  0  0  0  0
   91.6600   91.8040  -46.0580 Cl  0  0  0  0  0  0  0  0  0  0  0  0
   92.6150  100.7630  -41.1210 C   0  0  0  0  0  0  0  0  0  0  0  0
   93.7240  101.4320  -41.8230 C   0  0  0  0  0  0  0  0  0  0  0  0
   93.4820  102.1220  -43.1140 C   0  0  0  0  0  0  0  0  0  0  0  0
   94.5590  102.8370  -43.7100 N   0  0  0  0  0  4  0  0  0  0  0  0
   94.0800  104.0110  -44.3950 C   0  0  0  0  0  0  0  0  0  0  0  0
   94.1000  105.2560  -43.5330 C   0  0  0  0  0  0  0  0  0  0  0  0
   95.4160  105.5990  -43.2160 O   0  0  0  0  0  0  0  0  0  0  0  0
   96.2460  104.4770  -43.2600 C   0  0  0  0  0  0  0  0  0  0  0  0
   95.4830  103.3370  -42.6450 C   0  0  0  0  0  0  0  0  0  0  0  0
   89.0850   98.2930  -43.7250 H   0  0  0  0  0  0  0  0  0  0  0  0
   90.3630  101.8680  -41.8760 H   0  0  0  0  0  0  0  0  0  0  0  0
   88.0040  102.5530  -41.6440 H   0  0  0  0  0  0  0  0  0  0  0  0
   86.1740  101.1270  -42.4410 H   0  0  0  0  0  0  0  0  0  0  0  0
   91.8280  100.2870  -43.6590 H   0  0  0  0  0  0  0  0  0  0  0  0
   93.2240   95.7950  -43.7700 H   0  0  0  0  0  0  0  0  0  0  0  0
   93.2700   93.3970  -44.3460 H   0  0  0  0  0  0  0  0  0  0  0  0
   89.9540   93.9130  -46.8570 H   0  0  0  0  0  0  0  0  0  0  0  0
   89.8630   96.3580  -46.2750 H   0  0  0  0  0  0  0  0  0  0  0  0
   92.9980  100.4200  -40.1020 H   0  0  0  0  0  0  0  0  0  0  0  0
   91.7790  101.5210  -40.9100 H   0  0  0  0  0  0  0  0  0  0  0  0
   94.6170  100.7100  -41.9490 H   0  0  0  0  0  0  0  0  0  0  0  0
   94.1810  102.2340  -41.1310 H   0  0  0  0  0  0  0  0  0  0  0  0
   92.6250  102.8480  -43.0320 H   0  0  0  0  0  0  0  0  0  0  0  0
   93.1120  101.3720  -43.8930 H   0  0  0  0  0  0  0  0  0  0  0  0
   95.1610  102.2490  -44.2810 H   0  0  0  0  0  0  0  0  0  0  0  0
   93.0400  103.8470  -44.7470 H   0  0  0  0  0  0  0  0  0  0  0  0
   94.7040  104.2070  -45.2850 H   0  0  0  0  0  0  0  0  0  0  0  0
   93.4770  105.0850  -42.6330 H   0  0  0  0  0  0  0  0  0  0  0  0
   93.6530  106.0720  -44.1040 H   0  0  0  0  0  0  0  0  0  0  0  0
   96.4900  104.2800  -44.3170 H   0  0  0  0  0  0  0  0  0  0  0  0
   97.1770  104.7150  -42.7000 H   0  0  0  0  0  0  0  0  0  0  0  0
   94.8510  103.6840  -41.8030 H   0  0  0  0  0  0  0  0  0  0  0  0
   96.1680  102.5130  -42.3710 H   0  0  0  0  0  0  0  0  0  0  0  0
  1  2  1  0  0  0  0
  2  7  1  0  0  0  0
  3  2  2  0  0  0  0
  3  4  1  0  0  0  0
  4  5  2  0  0  0  0
  5  6  1  0  0  0  0
  5 34  1  0  0  0  0
  6 35  1  0  0  0  0
  7 36  1  0  0  0  0
  7  6  2  0  0  0  0
  8 37  1  6  0  0  0
  8  4  1  0  0  0  0
  8  9  1  0  0  0  0
  9 24  1  0  0  0  0
  9 10  1  0  0  0  0
 10 11  2  0  0  0  0
 12 13  2  0  0  0  0
 12 10  1  0  0  0  0
 14  8  1  0  0  0  0
 14 12  1  0  0  0  0
 15 14  2  0  0  0  0
 16 15  1  0  0  0  0
 17 15  1  0  0  0  0
 17 18  1  0  0  0  0
 18 38  1  0  0  0  0
 19 18  2  0  0  0  0
 19 39  1  0  0  0  0
 20 19  1  0  0  0  0
 21 22  1  0  0  0  0
 21 20  2  0  0  0  0
 22 17  2  0  0  0  0
 23 20  1  0  0  0  0
 24 43  1  0  0  0  0
 24 42  1  0  0  0  0
 25 45  1  0  0  0  0
 25 24  1  0  0  0  0
 26 46  1  0  0  0  0
 26 25  1  0  0  0  0
 27 26  1  0  0  0  0
 27 32  1  0  0  0  0
 28 27  1  0  0  0  0
 28 29  1  0  0  0  0
 29 30  1  0  0  0  0
 29 51  1  0  0  0  0
 31 30  1  0  0  0  0
 31 54  1  0  0  0  0
 31 32  1  0  0  0  0
 32 56  1  0  0  0  0
 32 55  1  0  0  0  0
 33  3  1  0  0  0  0
 40 21  1  0  0  0  0
 41 22  1  0  0  0  0
 44 25  1  0  0  0  0
 47 26  1  0  0  0  0
 48 27  1  0  0  0  0
 49 28  1  0  0  0  0
 50 28  1  0  0  0  0
 52 29  1  0  0  0  0
 53 31  1  0  0  0  0
M  END
>  <Pose>
1

>  <Score>
-4.30

$$$$
