
 OpenBabel03212208273D

 62 66  0  0  1  0  0  0  0  0999 V2000
   94.7870  103.2600  -42.7320 B   0  0  0  0  0  0  0  0  0  0  0  0
   93.3060  102.3050  -41.9790 C   0  0  0  0  0  0  0  0  0  0  0  0
   92.5130  101.5080  -42.7620 C   0  0  0  0  0  0  0  0  0  0  0  0
   91.4120  100.7850  -42.2600 C   0  0  0  0  0  0  0  0  0  0  0  0
   91.2170  100.9590  -40.9070 C   0  0  0  0  0  0  0  0  0  0  0  0
   92.0010  101.7560  -40.1020 C   0  0  0  0  0  0  0  0  0  0  0  0
   93.0660  102.4430  -40.6390 C   0  0  0  0  0  0  0  0  0  0  0  0
   90.6460   99.9660  -43.1510 C   0  0  2  0  0  0  0  0  0  0  0  0
   89.2280  100.0540  -43.1900 N   0  0  0  0  0  0  0  0  0  0  0  0
   88.8500   98.9940  -44.1300 C   0  0  0  0  0  0  0  0  0  0  0  0
   87.8310   98.9720  -44.8390 O   0  0  0  0  0  0  0  0  0  0  0  0
   89.9130   97.9790  -44.0530 C   0  0  0  0  0  0  0  0  0  0  0  0
   89.9980   96.8990  -44.6810 O   0  0  0  0  0  0  0  0  0  0  0  0
   90.8700   98.4920  -43.0750 C   0  0  0  0  0  0  0  0  0  0  0  0
   91.6680   97.7900  -42.3130 C   0  0  0  0  0  0  0  0  0  0  0  0
   92.4650   98.5020  -41.3900 O   0  0  0  0  0  0  0  0  0  0  0  0
   91.7650   96.3400  -42.3890 C   0  0  0  0  0  0  0  0  0  0  0  0
   91.8280   95.5010  -43.4330 N   0  0  0  0  0  0  0  0  0  0  0  0
   91.8640   94.2400  -42.9940 C   0  0  0  0  0  0  0  0  0  0  0  0
   91.8240   94.2830  -41.6370 N   0  0  0  0  0  0  0  0  0  0  0  0
   91.7640   95.5560  -41.2240 C   0  0  0  0  0  0  0  0  0  0  0  0
   91.7050   96.0420  -39.8170 C   0  0  0  0  0  0  0  0  0  0  0  0
   91.9460   93.1610  -43.8730 C   0  0  0  0  0  0  0  0  0  0  0  0
   91.9930   93.4500  -45.2230 C   0  0  0  0  0  0  0  0  0  0  0  0
   91.9550   94.7670  -45.6430 C   0  0  0  0  0  0  0  0  0  0  0  0
   91.8720   95.8140  -44.7580 C   0  0  0  0  0  0  0  0  0  0  0  0
   91.9810   91.7810  -43.3290 C   0  0  0  0  0  0  0  0  0  0  0  0
   88.2430  100.9300  -42.5810 C   0  0  0  0  0  0  0  0  0  0  0  0
   86.8710  100.3620  -42.4650 C   0  0  0  0  0  0  0  0  0  0  0  0
   85.9190  101.2930  -41.8930 N   0  0  0  0  0  4  0  0  0  0  0  0
   86.1770  102.6480  -42.3290 C   0  0  0  0  0  0  0  0  0  0  0  0
   85.7650  102.8030  -43.7960 C   0  0  0  0  0  0  0  0  0  0  0  0
   84.3760  102.6380  -43.8200 O   0  0  0  0  0  0  0  0  0  0  0  0
   84.1520  101.2690  -43.5710 C   0  0  0  0  0  0  0  0  0  0  0  0
   84.5530  100.8920  -42.1640 C   0  0  0  0  0  0  0  0  0  0  0  0
   92.7580  101.4400  -43.8260 H   0  0  0  0  0  0  0  0  0  0  0  0
   90.4200  100.4400  -40.4410 H   0  0  0  0  0  0  0  0  0  0  0  0
   91.8150  101.8680  -39.0450 H   0  0  0  0  0  0  0  0  0  0  0  0
   93.7110  103.0780  -40.0560 H   0  0  0  0  0  0  0  0  0  0  0  0
   90.9770  100.2140  -44.2180 H   0  0  0  0  0  0  0  0  0  0  0  0
   90.6390   96.1540  -39.5320 H   0  0  0  0  0  0  0  0  0  0  0  0
   92.1820   97.0290  -39.7850 H   0  0  0  0  0  0  0  0  0  0  0  0
   92.2200   95.3130  -39.1420 H   0  0  0  0  0  0  0  0  0  0  0  0
   92.0580   92.6240  -45.9390 H   0  0  0  0  0  0  0  0  0  0  0  0
   91.9910   95.0010  -46.6970 H   0  0  0  0  0  0  0  0  0  0  0  0
   91.8420   96.8430  -45.0700 H   0  0  0  0  0  0  0  0  0  0  0  0
   91.9100   91.0550  -44.1650 H   0  0  0  0  0  0  0  0  0  0  0  0
   91.1100   91.6350  -42.6410 H   0  0  0  0  0  0  0  0  0  0  0  0
   92.9000   91.5540  -42.7810 H   0  0  0  0  0  0  0  0  0  0  0  0
   88.5980  101.1530  -41.5480 H   0  0  0  0  0  0  0  0  0  0  0  0
   88.2490  101.9260  -43.0970 H   0  0  0  0  0  0  0  0  0  0  0  0
   86.5360  100.1790  -43.5380 H   0  0  0  0  0  0  0  0  0  0  0  0
   86.7460   99.4190  -41.9650 H   0  0  0  0  0  0  0  0  0  0  0  0
   86.0280  101.2920  -40.8500 H   0  0  0  0  0  0  0  0  0  0  0  0
   87.2740  102.7880  -42.3090 H   0  0  0  0  0  0  0  0  0  0  0  0
   85.7230  103.4010  -41.6850 H   0  0  0  0  0  0  0  0  0  0  0  0
   86.0960  103.7690  -44.1900 H   0  0  0  0  0  0  0  0  0  0  0  0
   86.1870  101.9520  -44.3550 H   0  0  0  0  0  0  0  0  0  0  0  0
   84.8420  100.7180  -44.2570 H   0  0  0  0  0  0  0  0  0  0  0  0
   83.1140  100.9830  -43.7410 H   0  0  0  0  0  0  0  0  0  0  0  0
   84.5250   99.7840  -42.1110 H   0  0  0  0  0  0  0  0  0  0  0  0
   83.8470  101.2690  -41.4000 H   0  0  0  0  0  0  0  0  0  0  0  0
  1  2  1  0  0  0  0
  2  7  1  0  0  0  0
  3  4  1  0  0  0  0
  3  2  2  0  0  0  0
  4  5  2  0  0  0  0
  5 37  1  0  0  0  0
  5  6  1  0  0  0  0
  6 38  1  0  0  0  0
  7  6  2  0  0  0  0
  7 39  1  0  0  0  0
  8 40  1  6  0  0  0
  8 14  1  0  0  0  0
  8  4  1  0  0  0  0
  9  8  1  0  0  0  0
  9 28  1  0  0  0  0
 10 12  1  0  0  0  0
 10  9  1  0  0  0  0
 11 10  2  0  0  0  0
 12 14  1  0  0  0  0
 13 12  2  0  0  0  0
 14 15  2  0  0  0  0
 15 16  1  0  0  0  0
 17 15  1  0  0  0  0
 17 21  2  0  0  0  0
 18 19  1  0  0  0  0
 18 17  1  0  0  0  0
 19 20  2  0  0  0  0
 20 21  1  0  0  0  0
 21 22  1  0  0  0  0
 22 42  1  0  0  0  0
 22 41  1  0  0  0  0
 22 43  1  0  0  0  0
 23 27  1  0  0  0  0
 23 19  1  0  0  0  0
 24 23  2  0  0  0  0
 25 24  1  0  0  0  0
 25 26  2  0  0  0  0
 26 18  1  0  0  0  0
 27 49  1  0  0  0  0
 27 48  1  0  0  0  0
 28 29  1  0  0  0  0
 28 50  1  0  0  0  0
 29 53  1  0  0  0  0
 29 30  1  0  0  0  0
 30 54  1  0  0  0  0
 31 55  1  0  0  0  0
 31 30  1  0  0  0  0
 31 56  1  0  0  0  0
 32 31  1  0  0  0  0
 33 32  1  0  0  0  0
 33 34  1  0  0  0  0
 34 35  1  0  0  0  0
 35 61  1  0  0  0  0
 35 30  1  0  0  0  0
 35 62  1  0  0  0  0
 36  3  1  0  0  0  0
 44 24  1  0  0  0  0
 45 25  1  0  0  0  0
 46 26  1  0  0  0  0
 47 27  1  0  0  0  0
 51 28  1  0  0  0  0
 52 29  1  0  0  0  0
 57 32  1  0  0  0  0
 58 32  1  0  0  0  0
 59 34  1  0  0  0  0
 60 34  1  0  0  0  0
M  END
>  <Pose>
1

>  <Score>
-4.51

$$$$
