
 OpenBabel03212208273D

 38 41  0  0  0  0  0  0  0  0999 V2000
   92.0070   99.5410  -41.6590 B   0  0  0  0  0  0  0  0  0  0  0  0
   92.1500   98.9120  -43.4520 C   0  0  0  0  0  0  0  0  0  0  0  0
   91.7570   97.6130  -43.7910 C   0  0  0  0  0  0  0  0  0  0  0  0
   91.8610   97.1620  -45.0840 C   0  0  0  0  0  0  0  0  0  0  0  0
   92.3630   98.0270  -46.0320 C   0  0  0  0  0  0  0  0  0  0  0  0
   92.7590   99.3290  -45.7070 C   0  0  0  0  0  0  0  0  0  0  0  0
   92.6500   99.7700  -44.4080 C   0  0  0  0  0  0  0  0  0  0  0  0
   91.4720   95.8400  -45.4820 N   0  0  0  0  0  0  0  0  0  0  0  0
   90.6940   95.4640  -46.4630 N   0  0  0  0  0  0  0  0  0  0  0  0
   90.5870   94.1460  -46.4950 N   0  0  0  0  0  0  0  0  0  0  0  0
   91.3330   93.6350  -45.4860 C   0  0  0  0  0  0  0  0  0  0  0  0
   91.8860   94.7270  -44.8560 C   0  0  0  0  0  0  0  0  0  0  0  0
   91.5200   92.2330  -45.1310 C   0  0  0  0  0  0  0  0  0  0  0  0
   91.8200   91.9560  -43.9430 O   0  0  0  0  0  0  0  0  0  0  0  0
   91.3780   91.1830  -46.0610 N   0  0  0  0  0  0  0  0  0  0  0  0
   91.8060   91.2470  -47.4390 C   0  0  0  0  0  0  0  0  0  0  0  0
   92.0010   89.8690  -48.0110 C   0  0  0  0  0  0  0  0  0  0  0  0
   91.0600   89.0180  -48.4870 N   0  0  0  0  0  0  0  0  0  0  0  0
   91.6480   87.8930  -48.9070 C   0  0  0  0  0  0  0  0  0  0  0  0
   92.9730   88.0590  -48.6810 N   0  0  0  0  0  0  0  0  0  0  0  0
   93.1840   89.2440  -48.1440 N   0  0  0  0  0  0  0  0  0  0  0  0
   90.6300   86.9180  -49.4450 C   0  0  0  0  0  0  0  0  0  0  0  0
   89.3560   87.4800  -48.8510 C   0  0  0  0  0  0  0  0  0  0  0  0
   89.6200   88.9630  -48.6720 C   0  0  0  0  0  0  0  0  0  0  0  0
   91.3640   96.9380  -43.0470 H   0  0  0  0  0  0  0  0  0  0  0  0
   92.4470   97.6790  -47.0500 H   0  0  0  0  0  0  0  0  0  0  0  0
   93.1560  100.0070  -46.4660 H   0  0  0  0  0  0  0  0  0  0  0  0
   92.9550  100.7760  -44.1490 H   0  0  0  0  0  0  0  0  0  0  0  0
   92.5460   94.6790  -43.9960 H   0  0  0  0  0  0  0  0  0  0  0  0
   90.9310   90.2980  -45.7310 H   0  0  0  0  0  0  0  0  0  0  0  0
   91.0890   91.8260  -48.0490 H   0  0  0  0  0  0  0  0  0  0  0  0
   92.8270   91.7290  -47.4800 H   0  0  0  0  0  0  0  0  0  0  0  0
   90.8580   85.9040  -49.1110 H   0  0  0  0  0  0  0  0  0  0  0  0
   90.5660   87.0210  -50.5580 H   0  0  0  0  0  0  0  0  0  0  0  0
   88.4940   87.3980  -49.5420 H   0  0  0  0  0  0  0  0  0  0  0  0
   89.1940   86.9600  -47.8840 H   0  0  0  0  0  0  0  0  0  0  0  0
   89.2560   89.5540  -49.5270 H   0  0  0  0  0  0  0  0  0  0  0  0
   89.0590   89.2900  -47.7740 H   0  0  0  0  0  0  0  0  0  0  0  0
  2  1  1  0  0  0  0
  3  2  1  0  0  0  0
  3 25  1  0  0  0  0
  4  3  2  0  0  0  0
  5  6  2  0  0  0  0
  5  4  1  0  0  0  0
  6  7  1  0  0  0  0
  7 28  1  0  0  0  0
  7  2  2  0  0  0  0
  8  4  1  0  0  0  0
  8 12  1  0  0  0  0
  9  8  1  0  0  0  0
 10  9  2  0  0  0  0
 10 11  1  0  0  0  0
 11 13  1  0  0  0  0
 11 12  2  0  0  0  0
 12 29  1  0  0  0  0
 13 14  2  0  0  0  0
 15 30  1  0  0  0  0
 15 13  1  0  0  0  0
 16 15  1  0  0  0  0
 17 16  1  0  0  0  0
 18 17  1  0  0  0  0
 19 20  2  0  0  0  0
 19 18  1  0  0  0  0
 20 21  1  0  0  0  0
 21 17  2  0  0  0  0
 22 33  1  0  0  0  0
 22 19  1  0  0  0  0
 22 23  1  0  0  0  0
 23 24  1  0  0  0  0
 23 36  1  0  0  0  0
 24 18  1  0  0  0  0
 24 38  1  0  0  0  0
 26  5  1  0  0  0  0
 27  6  1  0  0  0  0
 31 16  1  0  0  0  0
 32 16  1  0  0  0  0
 34 22  1  0  0  0  0
 35 23  1  0  0  0  0
 37 24  1  0  0  0  0
M  END
>  <Pose>
1

>  <Score>
-6.95

$$$$
