
 OpenBabel03212208273D

 45 48  0  0  1  0  0  0  0  0999 V2000
   90.1940   91.6190  -50.7980 B   0  0  0  0  0  0  0  0  0  0  0  0
   91.2620   90.9810  -49.3490 C   0  0  0  0  0  0  0  0  0  0  0  0
   90.9460   91.2440  -48.0440 C   0  0  0  0  0  0  0  0  0  0  0  0
   91.7150   90.7870  -46.9590 C   0  0  0  0  0  0  0  0  0  0  0  0
   92.8470   90.0280  -47.3170 C   0  0  0  0  0  0  0  0  0  0  0  0
   93.1670   89.7620  -48.6260 C   0  0  0  0  0  0  0  0  0  0  0  0
   92.3730   90.2390  -49.6490 C   0  0  0  0  0  0  0  0  0  0  0  0
   91.3640   91.0680  -45.7580 O   0  0  0  0  0  0  0  0  0  0  0  0
   91.0910   91.4040  -44.5400 C   0  0  0  0  0  0  0  0  0  0  0  0
   91.8520   92.6680  -44.1080 C   0  0  0  0  0  0  0  0  0  0  0  0
   91.3070   93.1880  -42.8910 N   0  0  0  0  0  0  0  0  0  0  0  0
   91.8510   94.3220  -42.2280 C   0  0  0  0  0  0  0  0  0  0  0  0
   91.5510   94.4190  -40.9870 O   0  0  0  0  0  0  0  0  0  0  0  0
   92.7040   95.3480  -42.8630 C   0  0  0  0  0  0  0  0  0  0  0  0
   92.1050   96.6520  -42.9590 N   0  0  0  0  0  0  0  0  0  0  0  0
   91.4470   97.1030  -44.1540 C   0  0  0  0  0  0  0  0  0  0  0  0
   91.5410   96.6240  -45.3120 O   0  0  0  0  0  0  0  0  0  0  0  0
   90.6180   98.2540  -43.7960 C   0  0  1  0  0  0  0  0  0  0  0  0
   90.8020   98.4850  -42.2830 C   0  0  2  0  0  0  0  0  0  0  0  0
   91.1140   99.9310  -42.1190 C   0  0  2  0  0  0  0  0  0  0  0  0
   90.3880  100.5230  -43.3460 C   0  0  0  0  0  0  0  0  0  0  0  0
   91.1000   99.5740  -44.3300 C   0  0  1  0  0  0  0  0  0  0  0  0
   92.5110   99.7830  -43.8600 C   0  0  0  0  0  0  0  0  0  0  0  0
   92.5090  100.1400  -42.5800 C   0  0  0  0  0  0  0  0  0  0  0  0
   92.0200   97.6910  -41.9740 C   0  0  0  0  0  0  0  0  0  0  0  0
   92.8320   97.8680  -41.0500 O   0  0  0  0  0  0  0  0  0  0  0  0
   90.0600   91.8360  -47.8020 H   0  0  0  0  0  0  0  0  0  0  0  0
   93.4410   89.6740  -46.4970 H   0  0  0  0  0  0  0  0  0  0  0  0
   94.0350   89.1810  -48.8900 H   0  0  0  0  0  0  0  0  0  0  0  0
   92.6370   90.0220  -50.6700 H   0  0  0  0  0  0  0  0  0  0  0  0
   89.9880   91.7050  -44.4380 H   0  0  0  0  0  0  0  0  0  0  0  0
   91.2370   90.6210  -43.7260 H   0  0  0  0  0  0  0  0  0  0  0  0
   92.9370   92.4690  -44.0560 H   0  0  0  0  0  0  0  0  0  0  0  0
   91.7130   93.3760  -44.9780 H   0  0  0  0  0  0  0  0  0  0  0  0
   90.4780   92.7210  -42.4690 H   0  0  0  0  0  0  0  0  0  0  0  0
   92.8900   94.9840  -43.9190 H   0  0  0  0  0  0  0  0  0  0  0  0
   93.7160   95.3960  -42.3600 H   0  0  0  0  0  0  0  0  0  0  0  0
   89.5360   98.1240  -44.0380 H   0  0  0  0  0  0  0  0  0  0  0  0
   89.9200   98.1340  -41.7220 H   0  0  0  0  0  0  0  0  0  0  0  0
   90.8470  100.3960  -41.1990 H   0  0  0  0  0  0  0  0  0  0  0  0
   89.3140  100.3500  -43.3110 H   0  0  0  0  0  0  0  0  0  0  0  0
   90.6940  101.5610  -43.5270 H   0  0  0  0  0  0  0  0  0  0  0  0
   90.9120   99.7870  -45.3550 H   0  0  0  0  0  0  0  0  0  0  0  0
   93.4250   99.6740  -44.4310 H   0  0  0  0  0  0  0  0  0  0  0  0
   93.2880  100.5120  -41.9320 H   0  0  0  0  0  0  0  0  0  0  0  0
  1  2  1  0  0  0  0
  2  3  1  0  0  0  0
  3 27  1  0  0  0  0
  3  4  2  0  0  0  0
  4  8  1  0  0  0  0
  5  4  1  0  0  0  0
  5 28  1  0  0  0  0
  6  5  2  0  0  0  0
  7  2  2  0  0  0  0
  7  6  1  0  0  0  0
  8  9  1  0  0  0  0
  9 31  1  0  0  0  0
  9 10  1  0  0  0  0
  9 32  1  0  0  0  0
 10 33  1  0  0  0  0
 10 11  1  0  0  0  0
 11 35  1  0  0  0  0
 11 12  1  0  0  0  0
 12 13  2  0  0  0  0
 14 37  1  0  0  0  0
 14 12  1  0  0  0  0
 15 14  1  0  0  0  0
 15 25  1  0  0  0  0
 16 18  1  0  0  0  0
 16 15  1  0  0  0  0
 17 16  2  0  0  0  0
 18 38  1  6  0  0  0
 18 19  1  0  0  0  0
 19 20  1  0  0  0  0
 19 25  1  0  0  0  0
 19 39  1  1  0  0  0
 20 40  1  1  0  0  0
 21 41  1  0  0  0  0
 21 20  1  0  0  0  0
 22 43  1  6  0  0  0
 22 23  1  0  0  0  0
 22 18  1  0  0  0  0
 22 21  1  0  0  0  0
 23 24  2  0  0  0  0
 24 20  1  0  0  0  0
 24 45  1  0  0  0  0
 25 26  2  0  0  0  0
 29  6  1  0  0  0  0
 30  7  1  0  0  0  0
 34 10  1  0  0  0  0
 36 14  1  0  0  0  0
 42 21  1  0  0  0  0
 44 23  1  0  0  0  0
M  END
>  <Pose>
1

>  <Score>
-5.94

$$$$
