
 OpenBabel03212208273D

 55 58  0  0  0  0  0  0  0  0999 V2000
   93.2590  103.0690  -38.3470 B   0  0  0  0  0  0  0  0  0  0  0  0
   93.2220  102.1720  -40.0460 C   0  0  0  0  0  0  0  0  0  0  0  0
   92.5980  100.9480  -40.1810 C   0  0  0  0  0  0  0  0  0  0  0  0
   92.5710  100.2980  -41.4050 C   0  0  0  0  0  0  0  0  0  0  0  0
   93.1690  100.8650  -42.5020 C   0  0  0  0  0  0  0  0  0  0  0  0
   93.7960  102.0880  -42.3840 C   0  0  0  0  0  0  0  0  0  0  0  0
   93.8140  102.7240  -41.1590 C   0  0  0  0  0  0  0  0  0  0  0  0
   93.1260  100.1270  -43.7780 C   0  0  0  0  0  0  0  0  0  0  0  0
   91.9280  100.3090  -44.5280 N   0  0  0  0  0  0  0  0  0  0  0  0
   92.0320  100.1320  -45.9150 C   0  0  0  0  0  0  0  0  0  0  0  0
   91.2530   98.9180  -46.4110 C   0  0  0  0  0  0  0  0  0  0  0  0
   90.7450   98.2490  -45.2640 N   0  0  0  0  0  0  0  0  0  0  0  0
   89.8440   99.0040  -44.4270 C   0  0  0  0  0  0  0  0  0  0  0  0
   90.7020  100.1420  -43.8620 C   0  0  0  0  0  0  0  0  0  0  0  0
   91.0900   96.9320  -44.9140 C   0  0  0  0  0  0  0  0  0  0  0  0
   91.1440   95.8490  -45.7060 N   0  0  0  0  0  0  0  0  0  0  0  0
   91.4730   94.7670  -44.9610 C   0  0  0  0  0  0  0  0  0  0  0  0
   91.6360   95.1680  -43.6530 C   0  0  0  0  0  0  0  0  0  0  0  0
   91.4000   96.4800  -43.6520 N   0  0  0  0  0  0  0  0  0  0  0  0
   91.9660   94.2590  -42.7170 N   0  0  0  0  0  0  0  0  0  0  0  0
   92.1420   92.9660  -43.0180 C   0  0  0  0  0  0  0  0  0  0  0  0
   92.4520   92.1350  -42.1050 O   0  0  0  0  0  0  0  0  0  0  0  0
   91.9870   92.5540  -44.2880 N   0  0  0  0  0  0  0  0  0  0  0  0
   91.6600   93.4330  -45.2450 C   0  0  0  0  0  0  0  0  0  0  0  0
   91.5150   93.0460  -46.4300 O   0  0  0  0  0  0  0  0  0  0  0  0
   92.1260   94.7220  -41.3340 C   0  0  0  0  0  0  0  0  0  0  0  0
   90.9490   95.7700  -47.1290 C   0  0  0  0  0  0  0  0  0  0  0  0
   89.4840   95.7660  -47.5040 C   0  0  0  0  0  0  0  0  0  0  0  0
   89.2440   96.0600  -48.8310 O   0  0  0  0  0  0  0  0  0  0  0  0
   88.2370   95.1600  -49.2480 C   0  0  0  0  0  0  0  0  0  0  0  0
   92.1360  100.5160  -39.3150 H   0  0  0  0  0  0  0  0  0  0  0  0
   92.0590   99.3420  -41.4280 H   0  0  0  0  0  0  0  0  0  0  0  0
   94.2820  102.5710  -43.2450 H   0  0  0  0  0  0  0  0  0  0  0  0
   94.3190  103.6890  -41.0890 H   0  0  0  0  0  0  0  0  0  0  0  0
   93.3740   99.0610  -43.6350 H   0  0  0  0  0  0  0  0  0  0  0  0
   93.9600  100.5580  -44.4100 H   0  0  0  0  0  0  0  0  0  0  0  0
   93.1140   99.8710  -46.1490 H   0  0  0  0  0  0  0  0  0  0  0  0
   91.8250  101.0330  -46.5450 H   0  0  0  0  0  0  0  0  0  0  0  0
   90.4140   99.3550  -47.0430 H   0  0  0  0  0  0  0  0  0  0  0  0
   91.8350   98.3170  -47.1230 H   0  0  0  0  0  0  0  0  0  0  0  0
   89.4310   98.3750  -43.6350 H   0  0  0  0  0  0  0  0  0  0  0  0
   89.0080   99.4700  -45.0230 H   0  0  0  0  0  0  0  0  0  0  0  0
   90.9120   99.8570  -42.8070 H   0  0  0  0  0  0  0  0  0  0  0  0
   90.0930  101.0660  -43.7950 H   0  0  0  0  0  0  0  0  0  0  0  0
   92.1260   91.5310  -44.5340 H   0  0  0  0  0  0  0  0  0  0  0  0
   91.1010   94.8030  -40.9020 H   0  0  0  0  0  0  0  0  0  0  0  0
   92.7780   94.0820  -40.7450 H   0  0  0  0  0  0  0  0  0  0  0  0
   92.5180   95.7660  -41.3940 H   0  0  0  0  0  0  0  0  0  0  0  0
   91.4320   96.5900  -47.6960 H   0  0  0  0  0  0  0  0  0  0  0  0
   91.4130   94.8220  -47.5400 H   0  0  0  0  0  0  0  0  0  0  0  0
   88.9230   96.4440  -46.8120 H   0  0  0  0  0  0  0  0  0  0  0  0
   89.0620   94.7640  -47.3160 H   0  0  0  0  0  0  0  0  0  0  0  0
   87.3310   95.3470  -48.6080 H   0  0  0  0  0  0  0  0  0  0  0  0
   88.5090   94.1130  -49.0640 H   0  0  0  0  0  0  0  0  0  0  0  0
   88.0070   95.3590  -50.3120 H   0  0  0  0  0  0  0  0  0  0  0  0
  2  1  1  0  0  0  0
  3  2  1  0  0  0  0
  3 31  1  0  0  0  0
  4  3  2  0  0  0  0
  5  6  2  0  0  0  0
  5  4  1  0  0  0  0
  6  7  1  0  0  0  0
  7 34  1  0  0  0  0
  7  2  2  0  0  0  0
  8 35  1  0  0  0  0
  8  5  1  0  0  0  0
  9 14  1  0  0  0  0
  9  8  1  0  0  0  0
 10  9  1  0  0  0  0
 11 10  1  0  0  0  0
 11 12  1  0  0  0  0
 12 15  1  0  0  0  0
 12 13  1  0  0  0  0
 13 14  1  0  0  0  0
 13 41  1  0  0  0  0
 14 44  1  0  0  0  0
 14 43  1  0  0  0  0
 15 19  2  0  0  0  0
 16 17  1  0  0  0  0
 16 15  1  0  0  0  0
 17 18  2  0  0  0  0
 18 19  1  0  0  0  0
 18 20  1  0  0  0  0
 20 26  1  0  0  0  0
 21 20  1  0  0  0  0
 21 22  2  0  0  0  0
 23 21  1  0  0  0  0
 24 17  1  0  0  0  0
 24 23  1  0  0  0  0
 25 24  2  0  0  0  0
 26 46  1  0  0  0  0
 26 47  1  0  0  0  0
 27 16  1  0  0  0  0
 28 52  1  0  0  0  0
 28 27  1  0  0  0  0
 28 51  1  0  0  0  0
 29 28  1  0  0  0  0
 30 54  1  0  0  0  0
 30 29  1  0  0  0  0
 30 53  1  0  0  0  0
 32  4  1  0  0  0  0
 33  6  1  0  0  0  0
 36  8  1  0  0  0  0
 37 10  1  0  0  0  0
 38 10  1  0  0  0  0
 39 11  1  0  0  0  0
 40 11  1  0  0  0  0
 42 13  1  0  0  0  0
 45 23  1  0  0  0  0
 48 26  1  0  0  0  0
 49 27  1  0  0  0  0
 50 27  1  0  0  0  0
 55 30  1  0  0  0  0
M  END
>  <Pose>
1

>  <Score>
-5.01

$$$$
