
 OpenBabel03212208273D

 44 47  0  0  0  0  0  0  0  0999 V2000
   89.5220  104.3920  -47.3220 B   0  0  0  0  0  0  0  0  0  0  0  0
   89.6210  102.4920  -47.0450 C   0  0  0  0  0  0  0  0  0  0  0  0
   90.7970  101.8050  -47.2490 C   0  0  0  0  0  0  0  0  0  0  0  0
   90.8680  100.4390  -47.0530 C   0  0  0  0  0  0  0  0  0  0  0  0
   89.7700   99.7000  -46.6450 C   0  0  0  0  0  0  0  0  0  0  0  0
   88.5970  100.3910  -46.4410 C   0  0  0  0  0  0  0  0  0  0  0  0
   88.5180  101.7730  -46.6370 C   0  0  0  0  0  0  0  0  0  0  0  0
   89.8830   98.2590  -46.4440 C   0  0  0  0  0  0  0  0  0  0  0  0
   90.3990   97.7900  -45.3010 C   0  0  0  0  0  0  0  0  0  0  0  0
   90.8420   98.6050  -44.2720 O   0  0  0  0  0  0  0  0  0  0  0  0
   91.3290   97.8610  -43.2020 C   0  0  0  0  0  0  0  0  0  0  0  0
   91.2110   96.5410  -43.5190 C   0  0  0  0  0  0  0  0  0  0  0  0
   91.6240   95.5770  -42.6230 C   0  0  0  0  0  0  0  0  0  0  0  0
   92.1460   96.0020  -41.4300 C   0  0  0  0  0  0  0  0  0  0  0  0
   92.2680   97.3590  -41.1020 C   0  0  0  0  0  0  0  0  0  0  0  0
   91.8640   98.3330  -41.9800 C   0  0  0  0  0  0  0  0  0  0  0  0
   91.9300   99.7860  -41.7790 C   0  0  0  0  0  0  0  0  0  0  0  0
   93.1620  100.3560  -41.3900 N   0  0  0  0  0  4  0  0  0  0  0  0
   93.5900  101.4120  -42.2830 C   0  0  0  0  0  0  0  0  0  0  0  0
   92.9700  102.7270  -41.8460 C   0  0  0  0  0  0  0  0  0  0  0  0
   93.6920  103.1990  -40.7610 O   0  0  0  0  0  0  0  0  0  0  0  0
   94.1000  102.0960  -40.0030 C   0  0  0  0  0  0  0  0  0  0  0  0
   93.0470  101.0010  -40.0700 C   0  0  0  0  0  0  0  0  0  0  0  0
   92.8120   97.7080  -39.8640 O   0  0  0  0  0  0  0  0  0  0  0  0
   90.6190   96.4400  -44.8600 C   0  0  0  0  0  0  0  0  0  0  0  0
   90.3430   95.4050  -45.5190 O   0  0  0  0  0  0  0  0  0  0  0  0
   91.6510  102.3920  -47.5700 H   0  0  0  0  0  0  0  0  0  0  0  0
   91.8010   99.9030  -47.2180 H   0  0  0  0  0  0  0  0  0  0  0  0
   87.7180   99.8680  -46.1220 H   0  0  0  0  0  0  0  0  0  0  0  0
   87.6010  102.3270  -46.4820 H   0  0  0  0  0  0  0  0  0  0  0  0
   89.5690   97.5200  -47.1790 H   0  0  0  0  0  0  0  0  0  0  0  0
   91.5360   94.5220  -42.8590 H   0  0  0  0  0  0  0  0  0  0  0  0
   92.4760   95.2750  -40.7110 H   0  0  0  0  0  0  0  0  0  0  0  0
   91.0860  100.0970  -41.1200 H   0  0  0  0  0  0  0  0  0  0  0  0
   91.6730  100.2400  -42.7870 H   0  0  0  0  0  0  0  0  0  0  0  0
   93.9040   99.6390  -41.2600 H   0  0  0  0  0  0  0  0  0  0  0  0
   94.6870  101.4910  -42.3940 H   0  0  0  0  0  0  0  0  0  0  0  0
   93.1760  101.2120  -43.2940 H   0  0  0  0  0  0  0  0  0  0  0  0
   91.9090  102.5460  -41.5960 H   0  0  0  0  0  0  0  0  0  0  0  0
   93.0400  103.4080  -42.7340 H   0  0  0  0  0  0  0  0  0  0  0  0
   94.2480  102.4610  -38.9710 H   0  0  0  0  0  0  0  0  0  0  0  0
   95.0870  101.7060  -40.3510 H   0  0  0  0  0  0  0  0  0  0  0  0
   93.2810  100.2580  -39.2790 H   0  0  0  0  0  0  0  0  0  0  0  0
   92.0650  101.4390  -39.8920 H   0  0  0  0  0  0  0  0  0  0  0  0
  1  2  1  0  0  0  0
  2  7  1  0  0  0  0
  3  4  1  0  0  0  0
  3  2  2  0  0  0  0
  4  5  2  0  0  0  0
  5  8  1  0  0  0  0
  5  6  1  0  0  0  0
  6 29  1  0  0  0  0
  7 30  1  0  0  0  0
  7  6  2  0  0  0  0
  8  9  2  0  0  0  0
  9 25  1  0  0  0  0
  9 10  1  0  0  0  0
 10 11  1  0  0  0  0
 11 16  1  0  0  0  0
 12 11  2  0  0  0  0
 12 13  1  0  0  0  0
 13 14  2  0  0  0  0
 14 15  1  0  0  0  0
 14 33  1  0  0  0  0
 15 24  1  0  0  0  0
 16 17  1  0  0  0  0
 16 15  2  0  0  0  0
 17 18  1  0  0  0  0
 17 34  1  0  0  0  0
 18 36  1  0  0  0  0
 18 23  1  0  0  0  0
 19 20  1  0  0  0  0
 19 18  1  0  0  0  0
 20 39  1  0  0  0  0
 20 21  1  0  0  0  0
 21 22  1  0  0  0  0
 22 41  1  0  0  0  0
 23 22  1  0  0  0  0
 23 44  1  0  0  0  0
 23 43  1  0  0  0  0
 25 12  1  0  0  0  0
 26 25  2  0  0  0  0
 27  3  1  0  0  0  0
 28  4  1  0  0  0  0
 31  8  1  0  0  0  0
 32 13  1  0  0  0  0
 35 17  1  0  0  0  0
 37 19  1  0  0  0  0
 38 19  1  0  0  0  0
 40 20  1  0  0  0  0
 42 22  1  0  0  0  0
M  END
>  <Pose>
1

>  <Score>
-4.39

$$$$
