
 OpenBabel03212208273D

 42 45  0  0  0  0  0  0  0  0999 V2000
   90.5650  104.8960  -36.8920 B   0  0  0  0  0  0  0  0  0  0  0  0
   91.3840  103.7910  -38.2150 C   0  0  0  0  0  0  0  0  0  0  0  0
   90.6790  103.3780  -39.3360 C   0  0  0  0  0  0  0  0  0  0  0  0
   91.2530  102.5770  -40.3070 C   0  0  0  0  0  0  0  0  0  0  0  0
   92.5620  102.1590  -40.1880 C   0  0  0  0  0  0  0  0  0  0  0  0
   93.2540  102.5760  -39.0710 C   0  0  0  0  0  0  0  0  0  0  0  0
   92.6930  103.3750  -38.0960 C   0  0  0  0  0  0  0  0  0  0  0  0
   93.1890  101.3150  -41.1990 C   0  0  0  0  0  0  0  0  0  0  0  0
   93.0530  101.5020  -42.4530 N   0  0  0  0  0  0  0  0  0  0  0  0
   93.6210  100.7370  -43.4470 N   0  0  0  0  0  0  0  0  0  0  0  0
   92.8300   99.7800  -44.1290 C   0  0  0  0  0  0  0  0  0  0  0  0
   93.2640   99.2700  -45.1860 O   0  0  0  0  0  0  0  0  0  0  0  0
   91.4980   99.3780  -43.6060 C   0  0  0  0  0  0  0  0  0  0  0  0
   91.0880   98.0930  -44.1400 N   0  0  0  0  0  0  0  0  0  0  0  0
   90.4540   98.0350  -45.3500 N   0  0  0  0  0  0  0  0  0  0  0  0
   90.1590   96.7560  -45.6210 C   0  0  0  0  0  0  0  0  0  0  0  0
   90.6120   96.0550  -44.5830 N   0  0  0  0  0  0  0  0  0  0  0  0
   91.1990   96.8890  -43.6450 C   0  0  0  0  0  0  0  0  0  0  0  0
   91.7770   96.3860  -42.4160 C   0  0  0  0  0  0  0  0  0  0  0  0
   91.8440   95.0230  -42.1390 N   0  0  0  0  0  0  0  0  0  0  0  0
   92.4070   94.8420  -41.0090 O   0  0  0  0  0  0  0  0  0  0  0  0
   92.7300   95.9630  -40.4960 N   0  0  0  0  0  0  0  0  0  0  0  0
   92.3480   96.9580  -41.3530 C   0  0  0  0  0  0  0  0  0  0  0  0
   92.5940   98.3000  -41.0390 N   0  0  0  0  0  0  0  0  0  0  0  0
   89.4830   96.2320  -46.8020 C   0  0  0  0  0  0  0  0  0  0  0  0
   89.9670   95.3540  -47.6860 N   0  0  0  0  0  0  0  0  0  0  0  0
   89.0550   95.1280  -48.6160 O   0  0  0  0  0  0  0  0  0  0  0  0
   87.9820   95.8260  -48.3780 N   0  0  0  0  0  0  0  0  0  0  0  0
   88.2180   96.5390  -47.2340 C   0  0  0  0  0  0  0  0  0  0  0  0
   87.2770   97.4240  -46.6490 N   0  0  0  0  0  0  0  0  0  0  0  0
   89.6640  103.6920  -39.4430 H   0  0  0  0  0  0  0  0  0  0  0  0
   90.6870  102.2550  -41.1890 H   0  0  0  0  0  0  0  0  0  0  0  0
   94.2940  102.2330  -38.9960 H   0  0  0  0  0  0  0  0  0  0  0  0
   93.2840  103.6830  -37.2200 H   0  0  0  0  0  0  0  0  0  0  0  0
   93.7990  100.4890  -40.8660 H   0  0  0  0  0  0  0  0  0  0  0  0
   94.6480  100.8730  -43.6930 H   0  0  0  0  0  0  0  0  0  0  0  0
   91.2940   99.5630  -42.5680 H   0  0  0  0  0  0  0  0  0  0  0  0
   90.7680  100.1350  -44.1140 H   0  0  0  0  0  0  0  0  0  0  0  0
   93.4290   98.7760  -41.4530 H   0  0  0  0  0  0  0  0  0  0  0  0
   91.9920   98.8790  -40.4170 H   0  0  0  0  0  0  0  0  0  0  0  0
   86.5050   97.0390  -46.0360 H   0  0  0  0  0  0  0  0  0  0  0  0
   87.2900   98.4530  -46.7820 H   0  0  0  0  0  0  0  0  0  0  0  0
  2  7  1  0  0  0  0
  2  1  1  0  0  0  0
  3  2  2  0  0  0  0
  4  5  2  0  0  0  0
  4  3  1  0  0  0  0
  5  6  1  0  0  0  0
  6 33  1  0  0  0  0
  6  7  2  0  0  0  0
  7 34  1  0  0  0  0
  8 35  1  0  0  0  0
  8  5  1  0  0  0  0
  9  8  2  0  0  0  0
 10  9  1  0  0  0  0
 11 13  1  0  0  0  0
 11 10  1  0  0  0  0
 12 11  2  0  0  0  0
 13 37  1  0  0  0  0
 14 18  1  0  0  0  0
 14 13  1  0  0  0  0
 15 14  1  0  0  0  0
 16 15  2  0  0  0  0
 16 17  1  0  0  0  0
 17 18  2  0  0  0  0
 18 19  1  0  0  0  0
 19 20  2  0  0  0  0
 19 23  1  0  0  0  0
 20 21  1  0  0  0  0
 21 22  1  0  0  0  0
 23 24  1  0  0  0  0
 23 22  2  0  0  0  0
 24 40  1  0  0  0  0
 25 16  1  0  0  0  0
 26 25  2  0  0  0  0
 27 28  1  0  0  0  0
 27 26  1  0  0  0  0
 28 29  2  0  0  0  0
 29 25  1  0  0  0  0
 29 30  1  0  0  0  0
 30 41  1  0  0  0  0
 31  3  1  0  0  0  0
 32  4  1  0  0  0  0
 36 10  1  0  0  0  0
 38 13  1  0  0  0  0
 39 24  1  0  0  0  0
 42 30  1  0  0  0  0
M  END
>  <Pose>
1

>  <Score>
-6.93

$$$$
