
 OpenBabel03212208273D

 41 44  0  0  0  0  0  0  0  0999 V2000
   89.6860  102.8200  -44.8180 B   0  0  0  0  0  0  0  0  0  0  0  0
   89.9960  100.9680  -45.0640 C   0  0  0  0  0  0  0  0  0  0  0  0
   89.3680  100.0550  -44.2430 C   0  0  0  0  0  0  0  0  0  0  0  0
   89.5890   98.7250  -44.4180 C   0  0  0  0  0  0  0  0  0  0  0  0
   90.4390   98.2310  -45.4110 C   0  0  0  0  0  0  0  0  0  0  0  0
   91.0320   99.1910  -46.1900 C   0  0  0  0  0  0  0  0  0  0  0  0
   90.8470  100.5450  -46.0610 C   0  0  0  0  0  0  0  0  0  0  0  0
   90.7280   96.8100  -45.4020 C   0  0  0  0  0  0  0  0  0  0  0  0
   91.1650   95.9180  -44.5230 N   0  0  0  0  0  0  0  0  0  0  0  0
   91.2400   94.6870  -45.0880 C   0  0  0  0  0  0  0  0  0  0  0  0
   90.8410   94.8340  -46.3650 N   0  0  0  0  0  0  0  0  0  0  0  0
   90.5380   96.0730  -46.5740 N   0  0  0  0  0  0  0  0  0  0  0  0
   91.6830   93.7660  -44.2230 N   0  0  0  0  0  0  0  0  0  0  0  0
   91.9030   94.4300  -43.0840 C   0  0  0  0  0  0  0  0  0  0  0  0
   91.5920   95.7880  -43.2370 C   0  0  0  0  0  0  0  0  0  0  0  0
   91.7690   96.6470  -42.2460 N   0  0  0  0  0  0  0  0  0  0  0  0
   92.2540   96.1550  -41.0640 C   0  0  0  0  0  0  0  0  0  0  0  0
   92.4320   96.9340  -40.0980 O   0  0  0  0  0  0  0  0  0  0  0  0
   92.5520   94.8620  -40.8830 N   0  0  0  0  0  0  0  0  0  0  0  0
   92.3870   93.9760  -41.8790 C   0  0  0  0  0  0  0  0  0  0  0  0
   92.6570   92.7540  -41.7480 O   0  0  0  0  0  0  0  0  0  0  0  0
   91.6130   98.0770  -42.2990 C   0  0  0  0  0  0  0  0  0  0  0  0
   91.8790   92.3550  -44.4650 C   0  0  0  0  0  0  0  0  0  0  0  0
   91.9900   92.0250  -45.9380 C   0  0  0  0  0  0  0  0  0  0  0  0
   91.4760   90.7680  -46.2290 O   0  0  0  0  0  0  0  0  0  0  0  0
   91.9950   90.3810  -47.4650 C   0  0  0  0  0  0  0  0  0  0  0  0
   88.6980  100.3820  -43.4560 H   0  0  0  0  0  0  0  0  0  0  0  0
   89.0820   98.0180  -43.7570 H   0  0  0  0  0  0  0  0  0  0  0  0
   91.7460   98.8460  -46.9620 H   0  0  0  0  0  0  0  0  0  0  0  0
   91.3440  101.2310  -46.7070 H   0  0  0  0  0  0  0  0  0  0  0  0
   92.9180   94.4880  -39.9840 H   0  0  0  0  0  0  0  0  0  0  0  0
   92.0380   98.5210  -43.2130 H   0  0  0  0  0  0  0  0  0  0  0  0
   90.6400   98.4560  -41.9600 H   0  0  0  0  0  0  0  0  0  0  0  0
   92.3230   98.5420  -41.5020 H   0  0  0  0  0  0  0  0  0  0  0  0
   91.0820   91.7590  -44.0400 H   0  0  0  0  0  0  0  0  0  0  0  0
   92.8430   92.0990  -43.9680 H   0  0  0  0  0  0  0  0  0  0  0  0
   93.0730   92.0230  -46.2220 H   0  0  0  0  0  0  0  0  0  0  0  0
   91.5020   92.8150  -46.5110 H   0  0  0  0  0  0  0  0  0  0  0  0
   93.1130   90.3410  -47.4110 H   0  0  0  0  0  0  0  0  0  0  0  0
   91.6710   91.0440  -48.2920 H   0  0  0  0  0  0  0  0  0  0  0  0
   91.6410   89.3480  -47.7340 H   0  0  0  0  0  0  0  0  0  0  0  0
  2  1  1  0  0  0  0
  2  3  1  0  0  0  0
  3 27  1  0  0  0  0
  4  3  2  0  0  0  0
  4 28  1  0  0  0  0
  5  8  1  0  0  0  0
  5  4  1  0  0  0  0
  6  7  1  0  0  0  0
  6  5  2  0  0  0  0
  7  2  2  0  0  0  0
  8  9  1  0  0  0  0
  9 15  1  0  0  0  0
 10  9  1  0  0  0  0
 10 13  1  0  0  0  0
 11 10  2  0  0  0  0
 12 11  1  0  0  0  0
 12  8  2  0  0  0  0
 13 14  1  0  0  0  0
 14 20  1  0  0  0  0
 15 14  2  0  0  0  0
 15 16  1  0  0  0  0
 16 17  1  0  0  0  0
 17 19  1  0  0  0  0
 17 18  2  0  0  0  0
 19 31  1  0  0  0  0
 20 21  2  0  0  0  0
 20 19  1  0  0  0  0
 22 16  1  0  0  0  0
 22 33  1  0  0  0  0
 22 34  1  0  0  0  0
 23 13  1  0  0  0  0
 23 35  1  0  0  0  0
 23 36  1  0  0  0  0
 24 23  1  0  0  0  0
 25 24  1  0  0  0  0
 26 39  1  0  0  0  0
 26 25  1  0  0  0  0
 29  6  1  0  0  0  0
 30  7  1  0  0  0  0
 32 22  1  0  0  0  0
 37 24  1  0  0  0  0
 38 24  1  0  0  0  0
 40 26  1  0  0  0  0
 41 26  1  0  0  0  0
M  END
>  <Pose>
1

>  <Score>
-6.38

$$$$
