
 OpenBabel03212208273D

 63 66  0  0  1  0  0  0  0  0999 V2000
   84.5770  100.2550  -43.5260 B   0  0  0  0  0  0  0  0  0  0  0  0
   86.4320   99.7670  -43.6330 C   0  0  0  0  0  0  0  0  0  0  0  0
   87.2440   99.9370  -42.5340 C   0  0  0  0  0  0  0  0  0  0  0  0
   88.5970   99.5880  -42.5850 C   0  0  0  0  0  0  0  0  0  0  0  0
   89.1540   99.0660  -43.7330 C   0  0  0  0  0  0  0  0  0  0  0  0
   88.3090   98.9120  -44.8080 C   0  0  0  0  0  0  0  0  0  0  0  0
   86.9770   99.2500  -44.7760 C   0  0  0  0  0  0  0  0  0  0  0  0
   90.5710   98.7000  -43.7820 C   0  0  2  0  0  0  0  0  0  0  0  0
   90.8030   97.2930  -43.6010 N   0  0  0  0  0  0  0  0  0  0  0  0
   91.6980   97.0570  -42.5310 C   0  0  0  0  0  0  0  0  0  0  0  0
   92.1410   95.9440  -42.1080 O   0  0  0  0  0  0  0  0  0  0  0  0
   92.0780   98.3530  -41.9280 C   0  0  0  0  0  0  0  0  0  0  0  0
   92.8600   98.4970  -40.9610 O   0  0  0  0  0  0  0  0  0  0  0  0
   91.3640   99.3560  -42.6910 C   0  0  0  0  0  0  0  0  0  0  0  0
   91.4710  100.6440  -42.4520 C   0  0  0  0  0  0  0  0  0  0  0  0
   90.7780  101.5270  -43.3060 O   0  0  0  0  0  0  0  0  0  0  0  0
   92.2270  101.2520  -41.3870 C   0  0  0  0  0  0  0  0  0  0  0  0
   93.5650  101.4360  -41.3460 C   0  0  0  0  0  0  0  0  0  0  0  0
   94.1610  102.0680  -40.2750 C   0  0  0  0  0  0  0  0  0  0  0  0
   93.4540  102.5480  -39.1930 C   0  0  0  0  0  0  0  0  0  0  0  0
   92.0890  102.3470  -39.2590 C   0  0  0  0  0  0  0  0  0  0  0  0
   91.4670  101.7240  -40.3050 C   0  0  0  0  0  0  0  0  0  0  0  0
   94.0600  103.1830  -38.1170 O   0  0  0  0  0  0  0  0  0  0  0  0
   94.1200  102.5390  -36.8530 C   0  0  0  0  0  0  0  0  0  0  0  0
   95.6500  102.2490  -40.2770 C   0  0  0  0  0  0  0  0  0  0  0  0
   90.1910   96.2670  -44.4270 C   0  0  0  0  0  0  0  0  0  0  0  0
   91.1120   95.7260  -45.4850 C   0  0  0  0  0  0  0  0  0  0  0  0
   92.1320   94.7920  -44.9090 C   0  0  0  0  0  0  0  0  0  0  0  0
   92.0270   93.4550  -45.4170 N   0  0  0  0  0  4  0  0  0  0  0  0
   91.0140   93.3070  -46.4420 C   0  0  0  0  0  0  0  0  0  0  0  0
   91.1970   91.9100  -47.0440 C   0  0  0  0  0  0  0  0  0  0  0  0
   92.0720   91.1560  -46.2770 O   0  0  0  0  0  0  0  0  0  0  0  0
   91.6560   91.1470  -44.9280 C   0  0  0  0  0  0  0  0  0  0  0  0
   91.8370   92.5380  -44.3300 C   0  0  0  0  0  0  0  0  0  0  0  0
   86.8210  100.3430  -41.6260 H   0  0  0  0  0  0  0  0  0  0  0  0
   89.2360   99.7200  -41.7250 H   0  0  0  0  0  0  0  0  0  0  0  0
   88.7660   98.4940  -45.7210 H   0  0  0  0  0  0  0  0  0  0  0  0
   86.3640   99.1090  -45.6420 H   0  0  0  0  0  0  0  0  0  0  0  0
   90.9680   98.9650  -44.7820 H   0  0  0  0  0  0  0  0  0  0  0  0
   94.1620  101.0480  -42.1780 H   0  0  0  0  0  0  0  0  0  0  0  0
   91.5280  102.7300  -38.3900 H   0  0  0  0  0  0  0  0  0  0  0  0
   90.3880  101.6030  -40.2870 H   0  0  0  0  0  0  0  0  0  0  0  0
   94.6610  101.5670  -36.9970 H   0  0  0  0  0  0  0  0  0  0  0  0
   94.6770  103.1130  -36.1120 H   0  0  0  0  0  0  0  0  0  0  0  0
   93.0850  102.2500  -36.5170 H   0  0  0  0  0  0  0  0  0  0  0  0
   96.1600  101.4190  -40.8070 H   0  0  0  0  0  0  0  0  0  0  0  0
   95.9700  102.3420  -39.2240 H   0  0  0  0  0  0  0  0  0  0  0  0
   95.8280  103.2400  -40.7570 H   0  0  0  0  0  0  0  0  0  0  0  0
   89.2990   96.7030  -44.9400 H   0  0  0  0  0  0  0  0  0  0  0  0
   89.8370   95.4090  -43.8190 H   0  0  0  0  0  0  0  0  0  0  0  0
   91.5950   96.5900  -45.9990 H   0  0  0  0  0  0  0  0  0  0  0  0
   90.4830   95.1550  -46.1950 H   0  0  0  0  0  0  0  0  0  0  0  0
   93.1680   95.1260  -45.1230 H   0  0  0  0  0  0  0  0  0  0  0  0
   92.0220   94.7820  -43.8060 H   0  0  0  0  0  0  0  0  0  0  0  0
   92.9500   93.1990  -45.8810 H   0  0  0  0  0  0  0  0  0  0  0  0
   91.2050   94.0260  -47.2400 H   0  0  0  0  0  0  0  0  0  0  0  0
   90.0060   93.3390  -46.0130 H   0  0  0  0  0  0  0  0  0  0  0  0
   90.2350   91.3960  -47.1730 H   0  0  0  0  0  0  0  0  0  0  0  0
   91.6680   91.9800  -48.0640 H   0  0  0  0  0  0  0  0  0  0  0  0
   92.3640   90.4440  -44.4210 H   0  0  0  0  0  0  0  0  0  0  0  0
   90.6450   90.7540  -44.8030 H   0  0  0  0  0  0  0  0  0  0  0  0
   90.9280   92.8540  -43.7720 H   0  0  0  0  0  0  0  0  0  0  0  0
   92.7600   92.5670  -43.7070 H   0  0  0  0  0  0  0  0  0  0  0  0
  2  1  1  0  0  0  0
  2  3  1  0  0  0  0
  3 35  1  0  0  0  0
  4  3  2  0  0  0  0
  4 36  1  0  0  0  0
  5  4  1  0  0  0  0
  6  7  1  0  0  0  0
  6  5  2  0  0  0  0
  7  2  2  0  0  0  0
  8 39  1  6  0  0  0
  8  5  1  0  0  0  0
  8  9  1  0  0  0  0
  8 14  1  0  0  0  0
  9 10  1  0  0  0  0
 10 11  2  0  0  0  0
 10 12  1  0  0  0  0
 12 13  2  0  0  0  0
 14 15  2  0  0  0  0
 14 12  1  0  0  0  0
 15 17  1  0  0  0  0
 16 15  1  0  0  0  0
 17 18  2  0  0  0  0
 17 22  1  0  0  0  0
 18 19  1  0  0  0  0
 19 20  2  0  0  0  0
 20 23  1  0  0  0  0
 21 20  1  0  0  0  0
 21 41  1  0  0  0  0
 22 42  1  0  0  0  0
 22 21  2  0  0  0  0
 23 24  1  0  0  0  0
 24 45  1  0  0  0  0
 24 44  1  0  0  0  0
 25 19  1  0  0  0  0
 25 47  1  0  0  0  0
 26 50  1  0  0  0  0
 26  9  1  0  0  0  0
 27 28  1  0  0  0  0
 27 26  1  0  0  0  0
 28 54  1  0  0  0  0
 29 28  1  0  0  0  0
 29 34  1  0  0  0  0
 30 57  1  0  0  0  0
 30 29  1  0  0  0  0
 31 30  1  0  0  0  0
 31 32  1  0  0  0  0
 32 33  1  0  0  0  0
 33 61  1  0  0  0  0
 33 60  1  0  0  0  0
 33 34  1  0  0  0  0
 34 62  1  0  0  0  0
 34 63  1  0  0  0  0
 37  6  1  0  0  0  0
 38  7  1  0  0  0  0
 40 18  1  0  0  0  0
 43 24  1  0  0  0  0
 46 25  1  0  0  0  0
 48 25  1  0  0  0  0
 49 26  1  0  0  0  0
 51 27  1  0  0  0  0
 52 27  1  0  0  0  0
 53 28  1  0  0  0  0
 55 29  1  0  0  0  0
 56 30  1  0  0  0  0
 58 31  1  0  0  0  0
 59 31  1  0  0  0  0
M  END
>  <Pose>
1

>  <Score>
-4.62

$$$$
