
 OpenBabel03212208273D

 60 63  0  0  1  0  0  0  0  0999 V2000
   92.6540  100.5340  -51.0110 B   0  0  0  0  0  0  0  0  0  0  0  0
   92.0760  100.2070  -49.2220 C   0  0  0  0  0  0  0  0  0  0  0  0
   92.9810  100.2450  -48.1880 C   0  0  0  0  0  0  0  0  0  0  0  0
   92.5600  100.0080  -46.8770 C   0  0  0  0  0  0  0  0  0  0  0  0
   91.2460   99.7330  -46.5880 C   0  0  0  0  0  0  0  0  0  0  0  0
   90.3630   99.7010  -47.6440 C   0  0  0  0  0  0  0  0  0  0  0  0
   90.7620   99.9340  -48.9480 C   0  0  0  0  0  0  0  0  0  0  0  0
   90.8210   99.5010  -45.2150 C   0  0  2  0  0  0  0  0  0  0  0  0
   91.6570   98.5150  -44.5630 N   0  0  0  0  0  0  0  0  0  0  0  0
   91.2060   97.2390  -45.0230 C   0  0  0  0  0  0  0  0  0  0  0  0
   91.8780   96.1790  -45.0830 O   0  0  0  0  0  0  0  0  0  0  0  0
   89.8110   97.4240  -45.4050 C   0  0  0  0  0  0  0  0  0  0  0  0
   88.9930   96.5900  -45.8680 O   0  0  0  0  0  0  0  0  0  0  0  0
   89.4740   98.8220  -45.1570 C   0  0  0  0  0  0  0  0  0  0  0  0
   88.2790   99.3280  -44.9740 C   0  0  0  0  0  0  0  0  0  0  0  0
   88.2170  100.7230  -44.8070 O   0  0  0  0  0  0  0  0  0  0  0  0
   87.0620   98.5230  -44.9320 C   0  0  0  0  0  0  0  0  0  0  0  0
   86.5590   97.8280  -46.0080 C   0  0  0  0  0  0  0  0  0  0  0  0
   85.3950   97.0800  -45.9820 C   0  0  0  0  0  0  0  0  0  0  0  0
   84.6890   97.0170  -44.8150 C   0  0  0  0  0  0  0  0  0  0  0  0
   85.1620   97.7040  -43.7000 C   0  0  0  0  0  0  0  0  0  0  0  0
   86.3260   98.4400  -43.7630 C   0  0  0  0  0  0  0  0  0  0  0  0
   85.0400   96.4490  -47.1520 O   0  0  0  0  0  0  0  0  0  0  0  0
   84.5780   95.1520  -47.3130 C   0  0  0  0  0  0  0  0  0  0  0  0
   92.7570   98.7540  -43.6130 C   0  0  0  0  0  0  0  0  0  0  0  0
   92.2210   99.4110  -42.3320 C   0  0  0  0  0  0  0  0  0  0  0  0
   92.4300  100.8960  -42.4160 C   0  0  0  0  0  0  0  0  0  0  0  0
   93.7720  101.2070  -41.9840 N   0  0  0  0  0  4  0  0  0  0  0  0
   93.9610  101.1380  -40.5700 C   0  0  0  0  0  0  0  0  0  0  0  0
   93.3170  102.2630  -39.8340 C   0  0  0  0  0  0  0  0  0  0  0  0
   93.7600  103.4850  -40.3120 O   0  0  0  0  0  0  0  0  0  0  0  0
   93.3950  103.5700  -41.6560 C   0  0  0  0  0  0  0  0  0  0  0  0
   94.1920  102.5280  -42.4170 C   0  0  0  0  0  0  0  0  0  0  0  0
   94.0070  100.4620  -48.4360 H   0  0  0  0  0  0  0  0  0  0  0  0
   93.3030  100.0500  -46.1150 H   0  0  0  0  0  0  0  0  0  0  0  0
   89.3350   99.4830  -47.3890 H   0  0  0  0  0  0  0  0  0  0  0  0
   90.0390   99.9060  -49.7470 H   0  0  0  0  0  0  0  0  0  0  0  0
   90.7930  100.4580  -44.6610 H   0  0  0  0  0  0  0  0  0  0  0  0
   87.1150   97.8560  -46.9290 H   0  0  0  0  0  0  0  0  0  0  0  0
   83.7730   96.4380  -44.7700 H   0  0  0  0  0  0  0  0  0  0  0  0
   84.5520   97.6150  -42.8000 H   0  0  0  0  0  0  0  0  0  0  0  0
   86.6520   98.9640  -42.8510 H   0  0  0  0  0  0  0  0  0  0  0  0
   85.0240   94.6370  -48.2100 H   0  0  0  0  0  0  0  0  0  0  0  0
   84.7370   94.5700  -46.4010 H   0  0  0  0  0  0  0  0  0  0  0  0
   83.4910   95.1890  -47.5350 H   0  0  0  0  0  0  0  0  0  0  0  0
   93.4350   99.4820  -44.0550 H   0  0  0  0  0  0  0  0  0  0  0  0
   93.1760   97.7670  -43.4000 H   0  0  0  0  0  0  0  0  0  0  0  0
   91.1570   99.2250  -42.2030 H   0  0  0  0  0  0  0  0  0  0  0  0
   92.7610   99.0130  -41.4470 H   0  0  0  0  0  0  0  0  0  0  0  0
   92.2600  101.1730  -43.4820 H   0  0  0  0  0  0  0  0  0  0  0  0
   91.7060  101.4070  -41.7860 H   0  0  0  0  0  0  0  0  0  0  0  0
   94.4260  100.5310  -42.4410 H   0  0  0  0  0  0  0  0  0  0  0  0
   93.5760  100.1620  -40.1990 H   0  0  0  0  0  0  0  0  0  0  0  0
   95.0610  101.1380  -40.3670 H   0  0  0  0  0  0  0  0  0  0  0  0
   92.2090  102.2380  -39.9910 H   0  0  0  0  0  0  0  0  0  0  0  0
   93.5210  102.1380  -38.7460 H   0  0  0  0  0  0  0  0  0  0  0  0
   93.5930  104.5690  -42.0920 H   0  0  0  0  0  0  0  0  0  0  0  0
   92.3140  103.3590  -41.8120 H   0  0  0  0  0  0  0  0  0  0  0  0
   95.2480  102.6610  -42.1130 H   0  0  0  0  0  0  0  0  0  0  0  0
   94.0870  102.6670  -43.5030 H   0  0  0  0  0  0  0  0  0  0  0  0
  1  2  1  0  0  0  0
  2  7  2  0  0  0  0
  2  3  1  0  0  0  0
  3  4  2  0  0  0  0
  4  5  1  0  0  0  0
  4 35  1  0  0  0  0
  5  8  1  0  0  0  0
  6 36  1  0  0  0  0
  6  5  2  0  0  0  0
  7  6  1  0  0  0  0
  8 14  1  0  0  0  0
  8 38  1  1  0  0  0
  8  9  1  0  0  0  0
  9 25  1  0  0  0  0
 10  9  1  0  0  0  0
 11 10  2  0  0  0  0
 12 14  1  0  0  0  0
 12 10  1  0  0  0  0
 13 12  2  0  0  0  0
 14 15  2  0  0  0  0
 15 17  1  0  0  0  0
 15 16  1  0  0  0  0
 17 22  1  0  0  0  0
 18 19  1  0  0  0  0
 18 17  2  0  0  0  0
 19 20  2  0  0  0  0
 20 40  1  0  0  0  0
 20 21  1  0  0  0  0
 21 41  1  0  0  0  0
 22 21  2  0  0  0  0
 22 42  1  0  0  0  0
 23 19  1  0  0  0  0
 24 23  1  0  0  0  0
 24 44  1  0  0  0  0
 25 47  1  0  0  0  0
 25 26  1  0  0  0  0
 26 48  1  0  0  0  0
 26 49  1  0  0  0  0
 27 26  1  0  0  0  0
 27 28  1  0  0  0  0
 27 51  1  0  0  0  0
 28 29  1  0  0  0  0
 29 54  1  0  0  0  0
 29 53  1  0  0  0  0
 29 30  1  0  0  0  0
 30 56  1  0  0  0  0
 31 30  1  0  0  0  0
 32 31  1  0  0  0  0
 33 59  1  0  0  0  0
 33 28  1  0  0  0  0
 33 32  1  0  0  0  0
 34  3  1  0  0  0  0
 37  7  1  0  0  0  0
 39 18  1  0  0  0  0
 43 24  1  0  0  0  0
 45 24  1  0  0  0  0
 46 25  1  0  0  0  0
 50 27  1  0  0  0  0
 52 28  1  0  0  0  0
 55 30  1  0  0  0  0
 57 32  1  0  0  0  0
 58 32  1  0  0  0  0
 60 33  1  0  0  0  0
M  END
>  <Pose>
1

>  <Score>
-4.83

$$$$
