
 OpenBabel03212208273D

 53 56  0  0  1  0  0  0  0  0999 V2000
   91.6000   94.5520  -45.3750 B   0  0  0  0  0  0  0  0  0  0  0  0
   91.1320   96.2590  -44.6790 C   0  0  0  0  0  0  0  0  0  0  0  0
   91.2180   96.5770  -43.3420 C   0  0  0  0  0  0  0  0  0  0  0  0
   90.8650   97.8480  -42.8660 C   0  0  0  0  0  0  0  0  0  0  0  0
   90.4210   98.8180  -43.7190 C   0  0  0  0  0  0  0  0  0  0  0  0
   90.3460   98.4710  -45.0520 C   0  0  0  0  0  0  0  0  0  0  0  0
   90.6890   97.2300  -45.5370 C   0  0  0  0  0  0  0  0  0  0  0  0
   90.0370  100.1090  -43.2920 C   0  0  1  0  0  0  0  0  0  0  0  0
   88.7760  100.3870  -42.7080 N   0  0  0  0  0  0  0  0  0  0  0  0
   88.8570  101.8100  -42.3930 C   0  0  0  0  0  0  0  0  0  0  0  0
   87.8880  102.6150  -42.3380 O   0  0  0  0  0  0  0  0  0  0  0  0
   90.2740  102.0850  -42.1600 C   0  0  0  0  0  0  0  0  0  0  0  0
   90.8160  103.1780  -41.8520 O   0  0  0  0  0  0  0  0  0  0  0  0
   90.9660  100.8090  -42.3550 C   0  0  0  0  0  0  0  0  0  0  0  0
   92.0900  100.4060  -41.7920 C   0  0  0  0  0  0  0  0  0  0  0  0
   92.5790   99.1320  -42.0380 O   0  0  0  0  0  0  0  0  0  0  0  0
   92.8900  101.2360  -40.9020 C   0  0  0  0  0  0  0  0  0  0  0  0
   94.1710  101.5390  -41.3820 C   0  0  0  0  0  0  0  0  0  0  0  0
   95.0390  102.3460  -40.6830 C   0  0  0  0  0  0  0  0  0  0  0  0
   94.6160  102.8680  -39.4660 C   0  0  0  0  0  0  0  0  0  0  0  0
   93.3550  102.5660  -39.0010 C   0  0  0  0  0  0  0  0  0  0  0  0
   92.4920  101.7570  -39.7100 C   0  0  0  0  0  0  0  0  0  0  0  0
   95.7290  103.8910  -38.5860 Cl  0  0  0  0  0  0  0  0  0  0  0  0
   87.5710   99.5890  -42.4660 C   0  0  0  0  0  0  0  0  0  0  0  0
   86.4950   99.7650  -43.4930 C   0  0  0  0  0  0  0  0  0  0  0  0
   85.2130   99.2610  -43.0540 N   0  0  0  0  0  4  0  0  0  0  0  0
   84.9740   97.9070  -43.4680 C   0  0  0  0  0  0  0  0  0  0  0  0
   84.7450   97.7520  -44.9430 C   0  0  0  0  0  0  0  0  0  0  0  0
   83.7560   98.6160  -45.4160 O   0  0  0  0  0  0  0  0  0  0  0  0
   84.2130   99.9160  -45.1490 C   0  0  0  0  0  0  0  0  0  0  0  0
   84.1810  100.0920  -43.6460 C   0  0  0  0  0  0  0  0  0  0  0  0
   91.5650   95.8120  -42.6800 H   0  0  0  0  0  0  0  0  0  0  0  0
   90.9920   97.9630  -41.8050 H   0  0  0  0  0  0  0  0  0  0  0  0
   90.0000   99.1860  -45.8160 H   0  0  0  0  0  0  0  0  0  0  0  0
   90.6170   96.9960  -46.5930 H   0  0  0  0  0  0  0  0  0  0  0  0
   90.0720  100.7930  -44.2200 H   0  0  0  0  0  0  0  0  0  0  0  0
   94.5240  101.1460  -42.3250 H   0  0  0  0  0  0  0  0  0  0  0  0
   96.0220  102.5570  -41.0870 H   0  0  0  0  0  0  0  0  0  0  0  0
   93.0580  102.9870  -38.0540 H   0  0  0  0  0  0  0  0  0  0  0  0
   91.4920  101.5570  -39.3390 H   0  0  0  0  0  0  0  0  0  0  0  0
   87.1300   99.9570  -41.4920 H   0  0  0  0  0  0  0  0  0  0  0  0
   87.8070   98.5130  -42.4130 H   0  0  0  0  0  0  0  0  0  0  0  0
   86.7860   99.1090  -44.3560 H   0  0  0  0  0  0  0  0  0  0  0  0
   86.3880  100.7650  -43.9240 H   0  0  0  0  0  0  0  0  0  0  0  0
   85.0940   99.3130  -42.0240 H   0  0  0  0  0  0  0  0  0  0  0  0
   85.7400   97.1930  -43.1500 H   0  0  0  0  0  0  0  0  0  0  0  0
   84.0190   97.5880  -42.9640 H   0  0  0  0  0  0  0  0  0  0  0  0
   85.6830   97.8490  -45.5320 H   0  0  0  0  0  0  0  0  0  0  0  0
   84.3510   96.7190  -45.1070 H   0  0  0  0  0  0  0  0  0  0  0  0
   83.5730  100.6800  -45.6360 H   0  0  0  0  0  0  0  0  0  0  0  0
   85.2120   99.9980  -45.5800 H   0  0  0  0  0  0  0  0  0  0  0  0
   84.3130  101.1660  -43.3620 H   0  0  0  0  0  0  0  0  0  0  0  0
   83.1730   99.7330  -43.3100 H   0  0  0  0  0  0  0  0  0  0  0  0
  1  2  1  0  0  0  0
  2  3  1  0  0  0  0
  3  4  2  0  0  0  0
  3 32  1  0  0  0  0
  4 33  1  0  0  0  0
  5  8  1  0  0  0  0
  5  4  1  0  0  0  0
  6  5  2  0  0  0  0
  7  6  1  0  0  0  0
  7  2  2  0  0  0  0
  8 36  1  6  0  0  0
  8  9  1  0  0  0  0
  8 14  1  0  0  0  0
  9 24  1  0  0  0  0
  9 10  1  0  0  0  0
 10 11  2  0  0  0  0
 10 12  1  0  0  0  0
 12 13  2  0  0  0  0
 14 12  1  0  0  0  0
 14 15  2  0  0  0  0
 15 17  1  0  0  0  0
 16 15  1  0  0  0  0
 17 22  1  0  0  0  0
 18 17  2  0  0  0  0
 18 19  1  0  0  0  0
 19 20  2  0  0  0  0
 20 21  1  0  0  0  0
 20 23  1  0  0  0  0
 21 39  1  0  0  0  0
 22 40  1  0  0  0  0
 22 21  2  0  0  0  0
 24 42  1  0  0  0  0
 24 41  1  0  0  0  0
 25 26  1  0  0  0  0
 25 24  1  0  0  0  0
 26 45  1  0  0  0  0
 27 46  1  0  0  0  0
 27 26  1  0  0  0  0
 27 47  1  0  0  0  0
 28 27  1  0  0  0  0
 29 30  1  0  0  0  0
 29 28  1  0  0  0  0
 30 31  1  0  0  0  0
 31 52  1  0  0  0  0
 31 53  1  0  0  0  0
 31 26  1  0  0  0  0
 34  6  1  0  0  0  0
 35  7  1  0  0  0  0
 37 18  1  0  0  0  0
 38 19  1  0  0  0  0
 43 25  1  0  0  0  0
 44 25  1  0  0  0  0
 48 28  1  0  0  0  0
 49 28  1  0  0  0  0
 50 30  1  0  0  0  0
 51 30  1  0  0  0  0
M  END
>  <Pose>
1

>  <Score>
-5.23

$$$$
