
 OpenBabel03212208273D

 55 58  0  0  1  0  0  0  0  0999 V2000
   87.2000  102.6890  -46.2180 B   0  0  0  0  0  0  0  0  0  0  0  0
   88.3560  101.8330  -44.9640 C   0  0  0  0  0  0  0  0  0  0  0  0
   89.6580  101.5030  -45.2710 C   0  0  0  0  0  0  0  0  0  0  0  0
   90.4830  100.8830  -44.3520 C   0  0  0  0  0  0  0  0  0  0  0  0
   90.0670  100.5630  -43.1040 C   0  0  0  0  0  0  0  0  0  0  0  0
   88.7380  100.9050  -42.8020 C   0  0  0  0  0  0  0  0  0  0  0  0
   87.9000  101.5220  -43.7010 C   0  0  0  0  0  0  0  0  0  0  0  0
   90.8290   99.8950  -42.0670 C   0  0  1  0  0  0  0  0  0  0  0  0
   91.3050   98.5730  -42.3170 N   0  0  0  0  0  0  0  0  0  0  0  0
   92.3990   98.3700  -41.3850 C   0  0  0  0  0  0  0  0  0  0  0  0
   92.8380   97.2440  -41.0340 O   0  0  0  0  0  0  0  0  0  0  0  0
   92.8670   99.6750  -40.9570 C   0  0  0  0  0  0  0  0  0  0  0  0
   93.8100   99.9350  -40.1490 O   0  0  0  0  0  0  0  0  0  0  0  0
   92.0390  100.6480  -41.6400 C   0  0  0  0  0  0  0  0  0  0  0  0
   92.3440  101.9160  -41.8470 C   0  0  0  0  0  0  0  0  0  0  0  0
   91.3990  102.6720  -42.5830 O   0  0  0  0  0  0  0  0  0  0  0  0
   93.5520  102.5590  -41.3710 C   0  0  0  0  0  0  0  0  0  0  0  0
   94.5660  102.7450  -42.3190 C   0  0  0  0  0  0  0  0  0  0  0  0
   95.7510  103.3800  -42.0140 C   0  0  0  0  0  0  0  0  0  0  0  0
   95.9550  103.8410  -40.7670 N   0  0  0  0  0  0  0  0  0  0  0  0
   94.9960  103.6760  -39.8330 C   0  0  0  0  0  0  0  0  0  0  0  0
   93.7940  103.0360  -40.1290 C   0  0  0  0  0  0  0  0  0  0  0  0
   90.8390   97.5150  -43.2160 C   0  0  0  0  0  0  0  0  0  0  0  0
   91.9150   96.7530  -43.9110 C   0  0  0  0  0  0  0  0  0  0  0  0
   91.4010   96.0520  -45.1590 C   0  0  0  0  0  0  0  0  0  0  0  0
   91.0840   94.6690  -44.8910 N   0  0  0  0  0  4  0  0  0  0  0  0
   91.2740   93.8210  -46.0460 C   0  0  0  0  0  0  0  0  0  0  0  0
   91.3270   92.3820  -45.5290 C   0  0  0  0  0  0  0  0  0  0  0  0
   92.5710   92.1730  -44.9350 O   0  0  0  0  0  0  0  0  0  0  0  0
   92.9780   93.2810  -44.1930 C   0  0  0  0  0  0  0  0  0  0  0  0
   91.7980   94.1320  -43.7730 C   0  0  0  0  0  0  0  0  0  0  0  0
   90.0070  101.7500  -46.2630 H   0  0  0  0  0  0  0  0  0  0  0  0
   91.5200  100.6530  -44.6330 H   0  0  0  0  0  0  0  0  0  0  0  0
   88.3230  100.6860  -41.8270 H   0  0  0  0  0  0  0  0  0  0  0  0
   86.8670  101.7720  -43.4230 H   0  0  0  0  0  0  0  0  0  0  0  0
   90.2140   99.8180  -41.1280 H   0  0  0  0  0  0  0  0  0  0  0  0
   94.4480  102.3910  -43.3330 H   0  0  0  0  0  0  0  0  0  0  0  0
   96.5380  103.5280  -42.7400 H   0  0  0  0  0  0  0  0  0  0  0  0
   95.1570  104.0480  -38.8230 H   0  0  0  0  0  0  0  0  0  0  0  0
   93.0530  102.9610  -39.3520 H   0  0  0  0  0  0  0  0  0  0  0  0
   90.2030   97.9980  -43.9770 H   0  0  0  0  0  0  0  0  0  0  0  0
   90.1940   96.7860  -42.6840 H   0  0  0  0  0  0  0  0  0  0  0  0
   92.7680   97.4430  -44.2120 H   0  0  0  0  0  0  0  0  0  0  0  0
   92.3530   95.9910  -43.2620 H   0  0  0  0  0  0  0  0  0  0  0  0
   90.4830   96.5480  -45.4750 H   0  0  0  0  0  0  0  0  0  0  0  0
   92.2150   96.0740  -45.9010 H   0  0  0  0  0  0  0  0  0  0  0  0
   90.0620   94.6390  -44.6580 H   0  0  0  0  0  0  0  0  0  0  0  0
   90.4440   93.8600  -46.7660 H   0  0  0  0  0  0  0  0  0  0  0  0
   92.2170   94.0460  -46.5630 H   0  0  0  0  0  0  0  0  0  0  0  0
   91.1030   91.6660  -46.3180 H   0  0  0  0  0  0  0  0  0  0  0  0
   90.5590   92.3140  -44.7340 H   0  0  0  0  0  0  0  0  0  0  0  0
   93.4820   92.9580  -43.2600 H   0  0  0  0  0  0  0  0  0  0  0  0
   93.6720   93.9030  -44.8020 H   0  0  0  0  0  0  0  0  0  0  0  0
   92.1680   94.9430  -43.1490 H   0  0  0  0  0  0  0  0  0  0  0  0
   91.1570   93.4770  -43.1290 H   0  0  0  0  0  0  0  0  0  0  0  0
  1  2  1  0  0  0  0
  2  7  1  0  0  0  0
  3  2  2  0  0  0  0
  3  4  1  0  0  0  0
  4  5  2  0  0  0  0
  5  6  1  0  0  0  0
  5  8  1  0  0  0  0
  6 34  1  0  0  0  0
  7 35  1  0  0  0  0
  7  6  2  0  0  0  0
  8 14  1  0  0  0  0
  8 36  1  1  0  0  0
  9  8  1  0  0  0  0
  9 10  1  0  0  0  0
 10 11  2  0  0  0  0
 10 12  1  0  0  0  0
 12 13  2  0  0  0  0
 14 12  1  0  0  0  0
 15 14  2  0  0  0  0
 15 17  1  0  0  0  0
 16 15  1  0  0  0  0
 17 22  1  0  0  0  0
 18 19  1  0  0  0  0
 18 17  2  0  0  0  0
 19 20  2  0  0  0  0
 20 21  1  0  0  0  0
 21 39  1  0  0  0  0
 22 21  2  0  0  0  0
 22 40  1  0  0  0  0
 23 42  1  0  0  0  0
 23  9  1  0  0  0  0
 24 44  1  0  0  0  0
 24 23  1  0  0  0  0
 25 26  1  0  0  0  0
 25 24  1  0  0  0  0
 26 47  1  0  0  0  0
 26 31  1  0  0  0  0
 27 28  1  0  0  0  0
 27 26  1  0  0  0  0
 28 29  1  0  0  0  0
 28 51  1  0  0  0  0
 29 30  1  0  0  0  0
 30 31  1  0  0  0  0
 30 52  1  0  0  0  0
 31 54  1  0  0  0  0
 31 55  1  0  0  0  0
 32  3  1  0  0  0  0
 33  4  1  0  0  0  0
 37 18  1  0  0  0  0
 38 19  1  0  0  0  0
 41 23  1  0  0  0  0
 43 24  1  0  0  0  0
 45 25  1  0  0  0  0
 46 25  1  0  0  0  0
 48 27  1  0  0  0  0
 49 27  1  0  0  0  0
 50 28  1  0  0  0  0
 53 30  1  0  0  0  0
M  END
>  <Pose>
1

>  <Score>
-4.50

$$$$
