
 OpenBabel03212208273D

 62 66  0  0  1  0  0  0  0  0999 V2000
   84.9140  101.6800  -42.3170 B   0  0  0  0  0  0  0  0  0  0  0  0
   86.2400  100.5340  -43.0710 C   0  0  0  0  0  0  0  0  0  0  0  0
   87.4440  101.0170  -43.5480 C   0  0  0  0  0  0  0  0  0  0  0  0
   88.4020  100.1890  -44.0940 C   0  0  0  0  0  0  0  0  0  0  0  0
   88.1810   98.8450  -44.1780 C   0  0  0  0  0  0  0  0  0  0  0  0
   86.9930   98.3620  -43.7080 C   0  0  0  0  0  0  0  0  0  0  0  0
   86.0240   99.1720  -43.1610 C   0  0  0  0  0  0  0  0  0  0  0  0
   89.1450   97.9360  -44.7180 C   0  0  2  0  0  0  0  0  0  0  0  0
   90.5300   98.1280  -44.6100 N   0  0  0  0  0  0  0  0  0  0  0  0
   91.0670   97.0210  -45.3840 C   0  0  0  0  0  0  0  0  0  0  0  0
   92.2040   96.4510  -45.2570 O   0  0  0  0  0  0  0  0  0  0  0  0
   90.0620   96.6460  -46.3720 C   0  0  0  0  0  0  0  0  0  0  0  0
   90.0710   95.7390  -47.2650 O   0  0  0  0  0  0  0  0  0  0  0  0
   88.9480   97.5630  -46.1420 C   0  0  0  0  0  0  0  0  0  0  0  0
   87.9950   97.9240  -46.9810 C   0  0  0  0  0  0  0  0  0  0  0  0
   86.9820   98.7720  -46.5570 O   0  0  0  0  0  0  0  0  0  0  0  0
   87.9500   97.4690  -48.3620 C   0  0  0  0  0  0  0  0  0  0  0  0
   87.2220   96.4650  -48.8780 N   0  0  0  0  0  0  0  0  0  0  0  0
   87.4280   96.3800  -50.2130 C   0  0  0  0  0  0  0  0  0  0  0  0
   88.3010   97.3520  -50.5230 N   0  0  0  0  0  0  0  0  0  0  0  0
   88.6440   98.0350  -49.4330 C   0  0  0  0  0  0  0  0  0  0  0  0
   89.5720   99.1870  -49.2850 C   0  0  0  0  0  0  0  0  0  0  0  0
   86.8120   95.4280  -50.9980 C   0  0  0  0  0  0  0  0  0  0  0  0
   85.9510   94.5090  -50.4480 C   0  0  0  0  0  0  0  0  0  0  0  0
   85.7310   94.5790  -49.0900 C   0  0  0  0  0  0  0  0  0  0  0  0
   86.3620   95.5390  -48.3610 C   0  0  0  0  0  0  0  0  0  0  0  0
   91.4620   99.0080  -43.9840 C   0  0  0  0  0  0  0  0  0  0  0  0
   91.9250   98.8410  -42.6240 C   0  0  0  0  0  0  0  0  0  0  0  0
   91.8720  100.0400  -41.7060 C   0  0  0  0  0  0  0  0  0  0  0  0
   93.1890  100.6510  -41.5540 N   0  0  0  0  0  4  0  0  0  0  0  0
   93.4130  101.2390  -40.2660 C   0  0  0  0  0  0  0  0  0  0  0  0
   92.9640  102.6650  -40.1400 C   0  0  0  0  0  0  0  0  0  0  0  0
   92.1450  103.0780  -41.1560 O   0  0  0  0  0  0  0  0  0  0  0  0
   92.6220  102.8620  -42.4230 C   0  0  0  0  0  0  0  0  0  0  0  0
   93.4520  101.6290  -42.5660 C   0  0  0  0  0  0  0  0  0  0  0  0
   87.6340  102.0900  -43.4870 H   0  0  0  0  0  0  0  0  0  0  0  0
   89.3470  100.6620  -44.4550 H   0  0  0  0  0  0  0  0  0  0  0  0
   86.7470   97.2840  -43.7350 H   0  0  0  0  0  0  0  0  0  0  0  0
   85.0700   98.7780  -42.7840 H   0  0  0  0  0  0  0  0  0  0  0  0
   88.9540   96.9460  -44.1800 H   0  0  0  0  0  0  0  0  0  0  0  0
   89.1050   99.9260  -48.6050 H   0  0  0  0  0  0  0  0  0  0  0  0
   89.6990   99.6400  -50.2770 H   0  0  0  0  0  0  0  0  0  0  0  0
   90.5290   98.7980  -48.8930 H   0  0  0  0  0  0  0  0  0  0  0  0
   86.9980   95.3900  -52.0570 H   0  0  0  0  0  0  0  0  0  0  0  0
   85.4520   93.7550  -51.0150 H   0  0  0  0  0  0  0  0  0  0  0  0
   85.0580   93.8700  -48.6440 H   0  0  0  0  0  0  0  0  0  0  0  0
   86.1950   95.5920  -47.2740 H   0  0  0  0  0  0  0  0  0  0  0  0
   91.1500  100.0920  -44.1300 H   0  0  0  0  0  0  0  0  0  0  0  0
   92.3860   98.9630  -44.6460 H   0  0  0  0  0  0  0  0  0  0  0  0
   91.6610   97.8840  -42.0960 H   0  0  0  0  0  0  0  0  0  0  0  0
   93.0570   98.6630  -42.7150 H   0  0  0  0  0  0  0  0  0  0  0  0
   91.5750   99.7550  -40.6710 H   0  0  0  0  0  0  0  0  0  0  0  0
   91.2180  100.8010  -42.1630 H   0  0  0  0  0  0  0  0  0  0  0  0
   93.8850   99.8710  -41.6570 H   0  0  0  0  0  0  0  0  0  0  0  0
   93.0730  100.6250  -39.4070 H   0  0  0  0  0  0  0  0  0  0  0  0
   94.5400  101.2720  -40.1470 H   0  0  0  0  0  0  0  0  0  0  0  0
   93.8120  103.3840  -39.9620 H   0  0  0  0  0  0  0  0  0  0  0  0
   92.3620  102.7370  -39.1890 H   0  0  0  0  0  0  0  0  0  0  0  0
   93.1500  103.7650  -42.8370 H   0  0  0  0  0  0  0  0  0  0  0  0
   91.7270  102.7390  -43.1000 H   0  0  0  0  0  0  0  0  0  0  0  0
   94.5220  101.9320  -42.4580 H   0  0  0  0  0  0  0  0  0  0  0  0
   93.3740  101.1460  -43.5600 H   0  0  0  0  0  0  0  0  0  0  0  0
  2  1  1  0  0  0  0
  3 36  1  0  0  0  0
  3  2  2  0  0  0  0
  4  3  1  0  0  0  0
  5  4  2  0  0  0  0
  5  6  1  0  0  0  0
  6  7  2  0  0  0  0
  7  2  1  0  0  0  0
  7 39  1  0  0  0  0
  8  9  1  0  0  0  0
  8 40  1  1  0  0  0
  8  5  1  0  0  0  0
  9 27  1  0  0  0  0
 10 11  2  0  0  0  0
 10  9  1  0  0  0  0
 12 14  1  0  0  0  0
 12 10  1  0  0  0  0
 13 12  2  0  0  0  0
 14  8  1  0  0  0  0
 15 16  1  0  0  0  0
 15 14  2  0  0  0  0
 17 15  1  0  0  0  0
 18 17  1  0  0  0  0
 18 26  1  0  0  0  0
 19 18  1  0  0  0  0
 20 19  2  0  0  0  0
 20 21  1  0  0  0  0
 21 22  1  0  0  0  0
 21 17  2  0  0  0  0
 22 43  1  0  0  0  0
 22 41  1  0  0  0  0
 23 24  2  0  0  0  0
 23 19  1  0  0  0  0
 24 25  1  0  0  0  0
 25 46  1  0  0  0  0
 25 26  2  0  0  0  0
 26 47  1  0  0  0  0
 27 28  1  0  0  0  0
 28 50  1  0  0  0  0
 28 29  1  0  0  0  0
 29 30  1  0  0  0  0
 29 52  1  0  0  0  0
 30 31  1  0  0  0  0
 31 56  1  0  0  0  0
 31 32  1  0  0  0  0
 31 55  1  0  0  0  0
 32 57  1  0  0  0  0
 32 58  1  0  0  0  0
 33 32  1  0  0  0  0
 34 33  1  0  0  0  0
 35 61  1  0  0  0  0
 35 34  1  0  0  0  0
 35 30  1  0  0  0  0
 37  4  1  0  0  0  0
 38  6  1  0  0  0  0
 42 22  1  0  0  0  0
 44 23  1  0  0  0  0
 45 24  1  0  0  0  0
 48 27  1  0  0  0  0
 49 27  1  0  0  0  0
 51 28  1  0  0  0  0
 53 29  1  0  0  0  0
 54 30  1  0  0  0  0
 59 34  1  0  0  0  0
 60 34  1  0  0  0  0
 62 35  1  0  0  0  0
M  END
>  <Pose>
1

>  <Score>
-4.67

$$$$
