
 OpenBabel03212208273D

 44 47  0  0  0  0  0  0  0  0999 V2000
   92.9290  102.6010  -45.5890 B   0  0  0  0  0  0  0  0  0  0  0  0
   92.5040  101.2080  -44.3510 C   0  0  0  0  0  0  0  0  0  0  0  0
   92.6030   99.8840  -44.6890 C   0  0  0  0  0  0  0  0  0  0  0  0
   92.2850   98.8720  -43.7730 C   0  0  0  0  0  0  0  0  0  0  0  0
   91.8620   99.1300  -42.4930 C   0  0  0  0  0  0  0  0  0  0  0  0
   91.7730  100.5000  -42.1790 C   0  0  0  0  0  0  0  0  0  0  0  0
   92.0800  101.4930  -43.0680 C   0  0  0  0  0  0  0  0  0  0  0  0
   91.4970   98.1970  -41.5180 N   0  0  0  0  0  0  0  0  0  0  0  0
   92.3580   97.2860  -40.8960 C   0  0  0  0  0  0  0  0  0  0  0  0
   93.3840   97.7370  -40.2470 O   0  0  0  0  0  0  0  0  0  0  0  0
   92.2590   95.8270  -40.8720 C   0  0  0  0  0  0  0  0  0  0  0  0
   91.9330   95.3050  -42.2100 N   0  0  0  0  0  0  0  0  0  0  0  0
   91.3990   96.0670  -43.1600 N   0  0  0  0  0  0  0  0  0  0  0  0
   91.0730   95.5630  -44.3850 C   0  0  0  0  0  0  0  0  0  0  0  0
   91.2980   94.2650  -44.6410 N   0  0  0  0  0  0  0  0  0  0  0  0
   90.9070   93.9410  -45.9950 C   0  0  0  0  0  0  0  0  0  0  0  0
   90.3780   95.2030  -46.6100 C   0  0  0  0  0  0  0  0  0  0  0  0
   90.4670   96.1610  -45.5240 N   0  0  0  0  0  0  0  0  0  0  0  0
   90.0000   97.4920  -45.6380 C   0  0  0  0  0  0  0  0  0  0  0  0
   89.0110   98.0220  -44.8530 C   0  0  0  0  0  0  0  0  0  0  0  0
   88.5650   99.3230  -44.9990 C   0  0  0  0  0  0  0  0  0  0  0  0
   89.1270  100.1320  -45.9680 C   0  0  0  0  0  0  0  0  0  0  0  0
   90.1110   99.6260  -46.7570 C   0  0  0  0  0  0  0  0  0  0  0  0
   90.5490   98.3280  -46.6050 C   0  0  0  0  0  0  0  0  0  0  0  0
   91.8330   93.4480  -43.7240 C   0  0  0  0  0  0  0  0  0  0  0  0
   92.0410   92.2350  -43.9650 O   0  0  0  0  0  0  0  0  0  0  0  0
   92.1420   94.0090  -42.5010 C   0  0  0  0  0  0  0  0  0  0  0  0
   92.6480   93.2830  -41.6090 O   0  0  0  0  0  0  0  0  0  0  0  0
   92.9330   99.6240  -45.6850 H   0  0  0  0  0  0  0  0  0  0  0  0
   92.3900   97.8340  -44.0790 H   0  0  0  0  0  0  0  0  0  0  0  0
   91.4430  100.7540  -41.1810 H   0  0  0  0  0  0  0  0  0  0  0  0
   92.0030  102.5530  -42.8130 H   0  0  0  0  0  0  0  0  0  0  0  0
   90.4820   98.1650  -41.2190 H   0  0  0  0  0  0  0  0  0  0  0  0
   91.4400   95.4580  -40.2090 H   0  0  0  0  0  0  0  0  0  0  0  0
   93.2170   95.3740  -40.5630 H   0  0  0  0  0  0  0  0  0  0  0  0
   91.8460   93.6940  -46.5440 H   0  0  0  0  0  0  0  0  0  0  0  0
   90.1820   93.0950  -46.0430 H   0  0  0  0  0  0  0  0  0  0  0  0
   89.2960   95.0050  -46.8330 H   0  0  0  0  0  0  0  0  0  0  0  0
   90.9250   95.5410  -47.5130 H   0  0  0  0  0  0  0  0  0  0  0  0
   88.5770   97.4000  -44.1070 H   0  0  0  0  0  0  0  0  0  0  0  0
   87.7770   99.7140  -44.3660 H   0  0  0  0  0  0  0  0  0  0  0  0
   88.7670  101.1630  -46.0800 H   0  0  0  0  0  0  0  0  0  0  0  0
   90.5640  100.2340  -47.5180 H   0  0  0  0  0  0  0  0  0  0  0  0
   91.3160   97.9420  -47.2290 H   0  0  0  0  0  0  0  0  0  0  0  0
  1  2  1  0  0  0  0
  2  7  1  0  0  0  0
  3  2  2  0  0  0  0
  3  4  1  0  0  0  0
  4  5  2  0  0  0  0
  5  6  1  0  0  0  0
  5  8  1  0  0  0  0
  6 31  1  0  0  0  0
  7 32  1  0  0  0  0
  7  6  2  0  0  0  0
  8 33  1  0  0  0  0
  8  9  1  0  0  0  0
  9 11  1  0  0  0  0
  9 10  2  0  0  0  0
 11 35  1  0  0  0  0
 11 34  1  0  0  0  0
 12 11  1  0  0  0  0
 13 12  1  0  0  0  0
 14 13  2  0  0  0  0
 15 14  1  0  0  0  0
 15 25  1  0  0  0  0
 16 15  1  0  0  0  0
 17 16  1  0  0  0  0
 17 18  1  0  0  0  0
 18 14  1  0  0  0  0
 19 18  1  0  0  0  0
 19 20  1  0  0  0  0
 20 40  1  0  0  0  0
 21 20  2  0  0  0  0
 21 41  1  0  0  0  0
 22 21  1  0  0  0  0
 23 24  1  0  0  0  0
 23 22  2  0  0  0  0
 24 19  2  0  0  0  0
 25 27  1  0  0  0  0
 26 25  2  0  0  0  0
 27 12  1  0  0  0  0
 27 28  2  0  0  0  0
 29  3  1  0  0  0  0
 30  4  1  0  0  0  0
 36 16  1  0  0  0  0
 37 16  1  0  0  0  0
 38 17  1  0  0  0  0
 39 17  1  0  0  0  0
 42 22  1  0  0  0  0
 43 23  1  0  0  0  0
 44 24  1  0  0  0  0
M  END
>  <Pose>
1

>  <Score>
-5.57

$$$$
