
 OpenBabel03212208273D

 44 47  0  0  0  0  0  0  0  0999 V2000
   89.7550   86.0170  -49.4490 B   0  0  0  0  0  0  0  0  0  0  0  0
   90.7030   87.6050  -49.0120 C   0  0  0  0  0  0  0  0  0  0  0  0
   90.0840   88.8200  -48.8660 C   0  0  0  0  0  0  0  0  0  0  0  0
   90.8230   89.9510  -48.5470 C   0  0  0  0  0  0  0  0  0  0  0  0
   92.1890   89.9320  -48.3600 C   0  0  0  0  0  0  0  0  0  0  0  0
   92.7890   88.6680  -48.5160 C   0  0  0  0  0  0  0  0  0  0  0  0
   92.0680   87.5610  -48.8290 C   0  0  0  0  0  0  0  0  0  0  0  0
   92.9910   91.0570  -48.0590 N   0  0  0  0  0  0  0  0  0  0  0  0
   92.9710   91.7870  -46.8640 C   0  0  0  0  0  0  0  0  0  0  0  0
   93.9970   92.3620  -46.4430 O   0  0  0  0  0  0  0  0  0  0  0  0
   91.6880   91.8860  -46.0560 C   0  0  0  0  0  0  0  0  0  0  0  0
   91.0570   93.1580  -46.3470 N   0  0  0  0  0  0  0  0  0  0  0  0
   90.2520   93.3810  -47.3860 N   0  0  0  0  0  0  0  0  0  0  0  0
   89.8460   94.6290  -47.3640 N   0  0  0  0  0  0  0  0  0  0  0  0
   90.3970   95.2410  -46.2890 C   0  0  0  0  0  0  0  0  0  0  0  0
   91.1430   94.3170  -45.6710 C   0  0  0  0  0  0  0  0  0  0  0  0
   91.6840   94.9750  -44.5860 C   0  0  0  0  0  0  0  0  0  0  0  0
   92.4580   94.4060  -43.7590 O   0  0  0  0  0  0  0  0  0  0  0  0
   91.2930   96.2570  -44.5290 N   0  0  0  0  0  0  0  0  0  0  0  0
   90.4760   96.4320  -45.6060 C   0  0  0  0  0  0  0  0  0  0  0  0
   89.9190   97.5320  -45.8700 O   0  0  0  0  0  0  0  0  0  0  0  0
   91.6360   97.2620  -43.5630 C   0  0  0  0  0  0  0  0  0  0  0  0
   91.6980   98.5930  -43.9160 C   0  0  0  0  0  0  0  0  0  0  0  0
   92.0170   99.5660  -42.9900 C   0  0  0  0  0  0  0  0  0  0  0  0
   92.2910   99.2600  -41.6690 C   0  0  0  0  0  0  0  0  0  0  0  0
   92.2290   97.9300  -41.3130 C   0  0  0  0  0  0  0  0  0  0  0  0
   91.9080   96.9570  -42.2460 C   0  0  0  0  0  0  0  0  0  0  0  0
   92.6260  100.3350  -40.6960 C   0  0  0  0  0  0  0  0  0  0  0  0
   89.0210   88.8790  -49.0030 H   0  0  0  0  0  0  0  0  0  0  0  0
   90.3010   90.9140  -48.4260 H   0  0  0  0  0  0  0  0  0  0  0  0
   93.8820   88.6420  -48.3670 H   0  0  0  0  0  0  0  0  0  0  0  0
   92.5750   86.6000  -48.9420 H   0  0  0  0  0  0  0  0  0  0  0  0
   93.6690   91.3590  -48.8290 H   0  0  0  0  0  0  0  0  0  0  0  0
   91.9200   91.8400  -44.9880 H   0  0  0  0  0  0  0  0  0  0  0  0
   91.0190   91.0600  -46.4040 H   0  0  0  0  0  0  0  0  0  0  0  0
   90.0100   92.6480  -48.0850 H   0  0  0  0  0  0  0  0  0  0  0  0
   89.2070   95.1220  -48.0370 H   0  0  0  0  0  0  0  0  0  0  0  0
   91.4860   98.8480  -44.9480 H   0  0  0  0  0  0  0  0  0  0  0  0
   92.0680  100.6270  -43.2600 H   0  0  0  0  0  0  0  0  0  0  0  0
   92.4420   97.6620  -40.2730 H   0  0  0  0  0  0  0  0  0  0  0  0
   91.8600   95.9080  -41.9680 H   0  0  0  0  0  0  0  0  0  0  0  0
   93.5190  100.9230  -41.0080 H   0  0  0  0  0  0  0  0  0  0  0  0
   92.9220   99.8300  -39.7440 H   0  0  0  0  0  0  0  0  0  0  0  0
   91.7670  100.9860  -40.4730 H   0  0  0  0  0  0  0  0  0  0  0  0
  1  2  1  0  0  0  0
  2  3  2  0  0  0  0
  2  7  1  0  0  0  0
  3  4  1  0  0  0  0
  4 30  1  0  0  0  0
  4  5  2  0  0  0  0
  5  8  1  0  0  0  0
  6 31  1  0  0  0  0
  6  5  1  0  0  0  0
  7  6  2  0  0  0  0
  8  9  1  0  0  0  0
  9 10  2  0  0  0  0
  9 11  1  0  0  0  0
 11 34  1  0  0  0  0
 12 11  1  0  0  0  0
 12 16  1  0  0  0  0
 13 14  1  0  0  0  0
 13 12  1  0  0  0  0
 14 15  1  0  0  0  0
 15 16  2  0  0  0  0
 15 20  1  0  0  0  0
 16 17  1  0  0  0  0
 17 19  1  0  0  0  0
 17 18  2  0  0  0  0
 19 22  1  0  0  0  0
 20 19  1  0  0  0  0
 21 20  2  0  0  0  0
 22 27  1  0  0  0  0
 23 22  2  0  0  0  0
 23 24  1  0  0  0  0
 24 25  2  0  0  0  0
 25 26  1  0  0  0  0
 25 28  1  0  0  0  0
 26 40  1  0  0  0  0
 27 41  1  0  0  0  0
 27 26  2  0  0  0  0
 28 44  1  0  0  0  0
 28 43  1  0  0  0  0
 29  3  1  0  0  0  0
 32  7  1  0  0  0  0
 33  8  1  0  0  0  0
 35 11  1  0  0  0  0
 36 13  1  0  0  0  0
 37 14  1  0  0  0  0
 38 23  1  0  0  0  0
 39 24  1  0  0  0  0
 42 28  1  0  0  0  0
M  END
>  <Pose>
1

>  <Score>
-5.72

$$$$
