
 OpenBabel03212208273D

 52 55  0  0  1  0  0  0  0  0999 V2000
   91.5330   87.0790  -48.7750 B   0  0  0  0  0  0  0  0  0  0  0  0
   91.5180   88.6620  -47.7370 C   0  0  0  0  0  0  0  0  0  0  0  0
   92.0200   89.8370  -48.2690 C   0  0  0  0  0  0  0  0  0  0  0  0
   92.0450   91.0100  -47.5910 C   0  0  0  0  0  0  0  0  0  0  0  0
   91.5210   91.0180  -46.2580 C   0  0  0  0  0  0  0  0  0  0  0  0
   91.0300   89.8340  -45.7600 C   0  0  0  0  0  0  0  0  0  0  0  0
   91.0150   88.6530  -46.4680 C   0  0  0  0  0  0  0  0  0  0  0  0
   91.5150   92.2560  -45.6640 N   0  0  0  0  0  0  0  0  0  0  0  0
   91.5090   93.4700  -45.0800 C   0  0  0  0  0  0  0  0  0  0  0  0
   90.9550   94.5690  -45.5160 O   0  0  0  0  0  0  0  0  0  0  0  0
   92.1700   93.7290  -43.7730 C   0  0  2  0  0  0  0  0  0  0  0  0
   92.0520   92.5870  -42.7810 C   0  0  0  0  0  0  0  0  0  0  0  0
   93.0480   92.8230  -41.6930 C   0  0  0  0  0  0  0  0  0  0  0  0
   93.8010   91.9360  -41.3320 O   0  0  0  0  0  0  0  0  0  0  0  0
   93.0580   94.1040  -41.1220 N   0  0  0  0  0  0  0  0  0  0  0  0
   92.5280   95.2120  -41.8210 C   0  0  0  0  0  0  0  0  0  0  0  0
   92.4420   96.4290  -41.2460 N   0  0  0  0  0  0  0  0  0  0  0  0
   91.8750   97.5040  -41.7950 C   0  0  0  0  0  0  0  0  0  0  0  0
   91.3540   97.3090  -43.0340 N   0  0  0  0  0  0  0  0  0  0  0  0
   91.4060   96.1130  -43.6750 C   0  0  0  0  0  0  0  0  0  0  0  0
   91.9900   95.0180  -43.1150 C   0  0  0  0  0  0  0  0  0  0  0  0
   90.8440   95.9990  -44.9440 O   0  0  0  0  0  0  0  0  0  0  0  0
   91.8430   98.7830  -41.1910 N   0  0  0  0  0  0  0  0  0  0  0  0
   92.9790   99.5710  -40.7890 C   0  0  0  0  0  0  0  0  0  0  0  0
   92.6800  101.0340  -41.1010 C   0  0  0  0  0  0  0  0  0  0  0  0
   91.7560  101.1880  -42.2730 C   0  0  2  0  0  0  0  0  0  0  0  0
   90.4500  100.5160  -42.0330 C   0  0  0  0  0  0  0  0  0  0  0  0
   90.5430   99.4180  -40.9480 C   0  0  0  0  0  0  0  0  0  0  0  0
   92.3970  100.7700  -43.5430 C   0  0  0  0  0  0  0  0  0  0  0  0
   91.6570  100.5670  -44.5270 O   0  0  0  0  0  0  0  0  0  0  0  0
   93.7890  100.5870  -43.6980 N   0  0  0  0  0  0  0  0  0  0  0  0
   92.4250   89.8260  -49.2990 H   0  0  0  0  0  0  0  0  0  0  0  0
   92.4450   91.9320  -48.0170 H   0  0  0  0  0  0  0  0  0  0  0  0
   90.6100   89.8110  -44.7540 H   0  0  0  0  0  0  0  0  0  0  0  0
   90.6220   87.7320  -46.0530 H   0  0  0  0  0  0  0  0  0  0  0  0
   90.7810   91.7550  -44.6510 H   0  0  0  0  0  0  0  0  0  0  0  0
   93.2980   93.6300  -44.0770 H   0  0  0  0  0  0  0  0  0  0  0  0
   92.3010   91.6090  -43.2370 H   0  0  0  0  0  0  0  0  0  0  0  0
   91.0530   92.5260  -42.3430 H   0  0  0  0  0  0  0  0  0  0  0  0
   93.4500   94.3000  -40.1620 H   0  0  0  0  0  0  0  0  0  0  0  0
   91.2990   96.3690  -45.7760 H   0  0  0  0  0  0  0  0  0  0  0  0
   93.8910   99.2860  -41.3420 H   0  0  0  0  0  0  0  0  0  0  0  0
   93.2340   99.5210  -39.7170 H   0  0  0  0  0  0  0  0  0  0  0  0
   92.3400  101.5550  -40.1920 H   0  0  0  0  0  0  0  0  0  0  0  0
   93.6510  101.5200  -41.3620 H   0  0  0  0  0  0  0  0  0  0  0  0
   91.5400  102.2850  -42.3850 H   0  0  0  0  0  0  0  0  0  0  0  0
   90.0970  100.0060  -42.9750 H   0  0  0  0  0  0  0  0  0  0  0  0
   89.6340  101.2030  -41.7480 H   0  0  0  0  0  0  0  0  0  0  0  0
   90.5000   99.8920  -39.9680 H   0  0  0  0  0  0  0  0  0  0  0  0
   89.7130   98.7190  -41.1620 H   0  0  0  0  0  0  0  0  0  0  0  0
   94.3770  100.1250  -42.9800 H   0  0  0  0  0  0  0  0  0  0  0  0
   94.2440  100.9290  -44.5710 H   0  0  0  0  0  0  0  0  0  0  0  0
  1  2  1  0  0  0  0
  2  7  1  0  0  0  0
  3  2  2  0  0  0  0
  3  4  1  0  0  0  0
  4  5  2  0  0  0  0
  5  6  1  0  0  0  0
  5  8  1  0  0  0  0
  6 34  1  0  0  0  0
  7 35  1  0  0  0  0
  7  6  2  0  0  0  0
  8  9  1  0  0  0  0
  8 36  1  0  0  0  0
  9 11  1  0  0  0  0
 10  9  2  0  0  0  0
 11 37  1  6  0  0  0
 11 21  1  0  0  0  0
 11 12  1  0  0  0  0
 12 39  1  0  0  0  0
 12 13  1  0  0  0  0
 13 14  2  0  0  0  0
 13 15  1  0  0  0  0
 15 40  1  0  0  0  0
 16 17  1  0  0  0  0
 16 15  1  0  0  0  0
 18 17  2  0  0  0  0
 18 23  1  0  0  0  0
 19 18  1  0  0  0  0
 20 21  1  0  0  0  0
 20 19  2  0  0  0  0
 21 16  2  0  0  0  0
 22 20  1  0  0  0  0
 23 28  1  0  0  0  0
 23 24  1  0  0  0  0
 24 43  1  0  0  0  0
 25 24  1  0  0  0  0
 25 44  1  0  0  0  0
 26 46  1  6  0  0  0
 26 27  1  0  0  0  0
 26 25  1  0  0  0  0
 27 48  1  0  0  0  0
 27 28  1  0  0  0  0
 28 49  1  0  0  0  0
 29 26  1  0  0  0  0
 30 29  2  0  0  0  0
 31 29  1  0  0  0  0
 31 51  1  0  0  0  0
 32  3  1  0  0  0  0
 33  4  1  0  0  0  0
 38 12  1  0  0  0  0
 41 22  1  0  0  0  0
 42 24  1  0  0  0  0
 45 25  1  0  0  0  0
 47 27  1  0  0  0  0
 50 28  1  0  0  0  0
 52 31  1  0  0  0  0
M  END
>  <Pose>
1

>  <Score>
-5.04

$$$$
