
 OpenBabel03212208273D

 42 45  0  0  0  0  0  0  0  0999 V2000
   92.1650  100.0300  -41.4840 B   0  0  0  0  0  0  0  0  0  0  0  0
   91.8800   98.5150  -42.6160 C   0  0  0  0  0  0  0  0  0  0  0  0
   92.0010   98.6320  -43.9850 C   0  0  0  0  0  0  0  0  0  0  0  0
   91.7920   97.5280  -44.7860 C   0  0  0  0  0  0  0  0  0  0  0  0
   91.4590   96.2840  -44.2850 C   0  0  0  0  0  0  0  0  0  0  0  0
   91.3420   96.1820  -42.9110 C   0  0  0  0  0  0  0  0  0  0  0  0
   91.5490   97.2770  -42.0960 C   0  0  0  0  0  0  0  0  0  0  0  0
   91.2480   95.1550  -45.1370 N   0  0  0  0  0  0  0  0  0  0  0  0
   90.5600   95.1580  -46.2520 N   0  0  0  0  0  0  0  0  0  0  0  0
   90.5320   93.9470  -46.8440 C   0  0  0  0  0  0  0  0  0  0  0  0
   91.2600   93.1190  -46.0350 C   0  0  0  0  0  0  0  0  0  0  0  0
   91.6960   93.8920  -44.9800 C   0  0  0  0  0  0  0  0  0  0  0  0
   92.5060   93.4410  -43.8700 N   0  0  0  0  0  0  0  0  0  0  0  0
   92.1580   93.3080  -42.5990 C   0  0  0  0  0  0  0  0  0  0  0  0
   93.2190   92.8500  -41.8540 C   0  0  0  0  0  0  0  0  0  0  0  0
   94.2550   92.7060  -42.7460 C   0  0  0  0  0  0  0  0  0  0  0  0
   93.7920   93.0760  -43.9890 C   0  0  0  0  0  0  0  0  0  0  0  0
   91.5020   91.7030  -46.2810 C   0  0  0  0  0  0  0  0  0  0  0  0
   91.4360   90.9430  -45.2850 O   0  0  0  0  0  0  0  0  0  0  0  0
   91.7990   91.1720  -47.5550 N   0  0  0  0  0  0  0  0  0  0  0  0
   93.1140   90.6320  -47.8010 C   0  0  0  0  0  0  0  0  0  0  0  0
   92.9750   89.1530  -48.0080 C   0  0  0  0  0  0  0  0  0  0  0  0
   91.6210   88.7750  -48.3950 N   0  0  0  0  0  0  0  0  0  0  0  0
   90.7170   89.6880  -49.0090 C   0  0  0  0  0  0  0  0  0  0  0  0
   89.8360   89.2610  -49.7950 O   0  0  0  0  0  0  0  0  0  0  0  0
   90.8790   91.1210  -48.6690 C   0  0  0  0  0  0  0  0  0  0  0  0
   92.2640   99.6100  -44.4140 H   0  0  0  0  0  0  0  0  0  0  0  0
   91.8920   97.6450  -45.8570 H   0  0  0  0  0  0  0  0  0  0  0  0
   91.0810   95.2030  -42.5140 H   0  0  0  0  0  0  0  0  0  0  0  0
   91.4560   97.1890  -41.0320 H   0  0  0  0  0  0  0  0  0  0  0  0
   90.0130   93.7280  -47.7820 H   0  0  0  0  0  0  0  0  0  0  0  0
   91.1750   93.5280  -42.1900 H   0  0  0  0  0  0  0  0  0  0  0  0
   93.2380   92.6430  -40.7730 H   0  0  0  0  0  0  0  0  0  0  0  0
   95.2550   92.3620  -42.5120 H   0  0  0  0  0  0  0  0  0  0  0  0
   94.3880   93.0720  -44.9170 H   0  0  0  0  0  0  0  0  0  0  0  0
   93.8540   90.9160  -47.0420 H   0  0  0  0  0  0  0  0  0  0  0  0
   93.4860   91.0560  -48.7790 H   0  0  0  0  0  0  0  0  0  0  0  0
   93.2740   88.6100  -47.0900 H   0  0  0  0  0  0  0  0  0  0  0  0
   93.6410   88.7780  -48.8270 H   0  0  0  0  0  0  0  0  0  0  0  0
   91.3180   87.7740  -48.2020 H   0  0  0  0  0  0  0  0  0  0  0  0
   91.3460   91.6510  -49.5230 H   0  0  0  0  0  0  0  0  0  0  0  0
   89.9240   91.6280  -48.4660 H   0  0  0  0  0  0  0  0  0  0  0  0
  2  7  1  0  0  0  0
  2  1  1  0  0  0  0
  3  2  2  0  0  0  0
  4  5  2  0  0  0  0
  4  3  1  0  0  0  0
  5  6  1  0  0  0  0
  6 29  1  0  0  0  0
  6  7  2  0  0  0  0
  7 30  1  0  0  0  0
  8 12  1  0  0  0  0
  8  5  1  0  0  0  0
  9  8  1  0  0  0  0
 10  9  2  0  0  0  0
 10 11  1  0  0  0  0
 11 12  2  0  0  0  0
 12 13  1  0  0  0  0
 13 14  1  0  0  0  0
 14 32  1  0  0  0  0
 14 15  2  0  0  0  0
 15 33  1  0  0  0  0
 16 34  1  0  0  0  0
 16 15  1  0  0  0  0
 17 13  1  0  0  0  0
 17 16  2  0  0  0  0
 18 11  1  0  0  0  0
 18 19  2  0  0  0  0
 20 18  1  0  0  0  0
 21 20  1  0  0  0  0
 21 36  1  0  0  0  0
 22 21  1  0  0  0  0
 22 38  1  0  0  0  0
 23 40  1  0  0  0  0
 23 22  1  0  0  0  0
 24 26  1  0  0  0  0
 24 23  1  0  0  0  0
 25 24  2  0  0  0  0
 26 42  1  0  0  0  0
 26 20  1  0  0  0  0
 27  3  1  0  0  0  0
 28  4  1  0  0  0  0
 31 10  1  0  0  0  0
 35 17  1  0  0  0  0
 37 21  1  0  0  0  0
 39 22  1  0  0  0  0
 41 26  1  0  0  0  0
M  END
>  <Pose>
1

>  <Score>
-5.83

$$$$
