
 OpenBabel03212208273D

 44 47  0  0  0  0  0  0  0  0999 V2000
   92.2180   89.7400  -48.5250 B   0  0  0  0  0  0  0  0  0  0  0  0
   92.1250   91.0100  -47.0870 C   0  0  0  0  0  0  0  0  0  0  0  0
   93.1290   91.0940  -46.1460 C   0  0  0  0  0  0  0  0  0  0  0  0
   93.0640   92.0070  -45.1110 C   0  0  0  0  0  0  0  0  0  0  0  0
   91.9910   92.8720  -44.9740 C   0  0  0  0  0  0  0  0  0  0  0  0
   90.9970   92.7700  -45.9270 C   0  0  0  0  0  0  0  0  0  0  0  0
   91.0540   91.8650  -46.9610 C   0  0  0  0  0  0  0  0  0  0  0  0
   91.9460   93.8050  -43.8980 N   0  0  0  0  0  0  0  0  0  0  0  0
   91.5970   95.1010  -43.9550 C   0  0  0  0  0  0  0  0  0  0  0  0
   91.2460   95.6900  -45.0240 O   0  0  0  0  0  0  0  0  0  0  0  0
   91.6750   95.6960  -42.6960 C   0  0  0  0  0  0  0  0  0  0  0  0
   92.0770   94.7320  -41.8730 C   0  0  0  0  0  0  0  0  0  0  0  0
   92.1450   95.3260  -40.6690 N   0  0  0  0  0  0  0  0  0  0  0  0
   91.7960   96.5980  -40.7630 N   0  0  0  0  0  0  0  0  0  0  0  0
   91.5010   96.8380  -42.0180 N   0  0  0  0  0  0  0  0  0  0  0  0
   91.0690   98.0870  -42.5910 C   0  0  0  0  0  0  0  0  0  0  0  0
   92.1930   99.0790  -42.6820 C   0  0  0  0  0  0  0  0  0  0  0  0
   92.5960   99.2980  -43.8490 O   0  0  0  0  0  0  0  0  0  0  0  0
   92.7400   99.7020  -41.5580 N   0  0  0  0  0  0  0  0  0  0  0  0
   92.2970  100.8780  -40.9400 C   0  0  0  0  0  0  0  0  0  0  0  0
   93.2400  101.6050  -40.1950 C   0  0  0  0  0  0  0  0  0  0  0  0
   92.8490  102.7640  -39.5730 C   0  0  0  0  0  0  0  0  0  0  0  0
   91.5630  103.2560  -39.6450 C   0  0  0  0  0  0  0  0  0  0  0  0
   90.6430  102.5550  -40.3660 C   0  0  0  0  0  0  0  0  0  0  0  0
   91.0230  101.3880  -40.9950 C   0  0  0  0  0  0  0  0  0  0  0  0
   94.6370  101.1490  -40.0680 C   0  0  0  0  0  0  0  0  0  0  0  0
   92.2470   93.5710  -42.6010 C   0  0  0  0  0  0  0  0  0  0  0  0
   92.6170   92.4570  -42.1690 O   0  0  0  0  0  0  0  0  0  0  0  0
   93.9900   90.4350  -46.2150 H   0  0  0  0  0  0  0  0  0  0  0  0
   93.8550   92.0810  -44.3610 H   0  0  0  0  0  0  0  0  0  0  0  0
   90.1520   93.4300  -45.8460 H   0  0  0  0  0  0  0  0  0  0  0  0
   90.2740   91.7760  -47.7200 H   0  0  0  0  0  0  0  0  0  0  0  0
   92.4420   94.7920  -39.8120 H   0  0  0  0  0  0  0  0  0  0  0  0
   91.7770   97.2480  -39.9430 H   0  0  0  0  0  0  0  0  0  0  0  0
   90.7310   97.9400  -43.6530 H   0  0  0  0  0  0  0  0  0  0  0  0
   90.2420   98.4770  -41.9580 H   0  0  0  0  0  0  0  0  0  0  0  0
   93.5950   99.1980  -41.1440 H   0  0  0  0  0  0  0  0  0  0  0  0
   93.5560  103.3620  -38.9810 H   0  0  0  0  0  0  0  0  0  0  0  0
   91.2650  104.1820  -39.1440 H   0  0  0  0  0  0  0  0  0  0  0  0
   89.6160  102.9310  -40.4330 H   0  0  0  0  0  0  0  0  0  0  0  0
   90.2610  100.8810  -41.5470 H   0  0  0  0  0  0  0  0  0  0  0  0
   95.1480  101.7270  -39.2740 H   0  0  0  0  0  0  0  0  0  0  0  0
   94.6690  100.0820  -39.7330 H   0  0  0  0  0  0  0  0  0  0  0  0
   95.2290  101.2630  -40.9900 H   0  0  0  0  0  0  0  0  0  0  0  0
  1  2  1  0  0  0  0
  2  7  2  0  0  0  0
  2  3  1  0  0  0  0
  3  4  2  0  0  0  0
  4  5  1  0  0  0  0
  4 30  1  0  0  0  0
  5  8  1  0  0  0  0
  6 31  1  0  0  0  0
  6  5  2  0  0  0  0
  7  6  1  0  0  0  0
  8 27  1  0  0  0  0
  9  8  1  0  0  0  0
  9 11  1  0  0  0  0
 10  9  2  0  0  0  0
 11 15  1  0  0  0  0
 11 12  2  0  0  0  0
 12 13  1  0  0  0  0
 13 33  1  0  0  0  0
 14 13  1  0  0  0  0
 14 34  1  0  0  0  0
 15 14  1  0  0  0  0
 16 15  1  0  0  0  0
 16 36  1  0  0  0  0
 17 16  1  0  0  0  0
 17 19  1  0  0  0  0
 18 17  2  0  0  0  0
 19 37  1  0  0  0  0
 19 20  1  0  0  0  0
 20 21  1  0  0  0  0
 21 26  1  0  0  0  0
 21 22  2  0  0  0  0
 22 38  1  0  0  0  0
 23 22  1  0  0  0  0
 23 39  1  0  0  0  0
 24 23  2  0  0  0  0
 25 20  2  0  0  0  0
 25 24  1  0  0  0  0
 26 43  1  0  0  0  0
 26 42  1  0  0  0  0
 27 28  2  0  0  0  0
 27 12  1  0  0  0  0
 29  3  1  0  0  0  0
 32  7  1  0  0  0  0
 35 16  1  0  0  0  0
 40 24  1  0  0  0  0
 41 25  1  0  0  0  0
 44 26  1  0  0  0  0
M  END
>  <Pose>
1

>  <Score>
-7.76

$$$$
