
 OpenBabel03212208273D

 49 52  0  0  0  0  0  0  0  0999 V2000
   84.3800  104.9740  -44.4740 B   0  0  0  0  0  0  0  0  0  0  0  0
   86.1180  104.2280  -44.1720 C   0  0  0  0  0  0  0  0  0  0  0  0
   87.2610  104.9890  -44.3200 C   0  0  0  0  0  0  0  0  0  0  0  0
   88.5210  104.4420  -44.0980 C   0  0  0  0  0  0  0  0  0  0  0  0
   88.6780  103.1230  -43.7250 C   0  0  0  0  0  0  0  0  0  0  0  0
   87.5340  102.3690  -43.5800 C   0  0  0  0  0  0  0  0  0  0  0  0
   86.2830  102.9100  -43.7980 C   0  0  0  0  0  0  0  0  0  0  0  0
   89.9500  102.5310  -43.4900 N   0  0  0  0  0  0  0  0  0  0  0  0
   90.3570  101.7240  -42.4970 C   0  0  0  0  0  0  0  0  0  0  0  0
   89.5930  101.3600  -41.5660 O   0  0  0  0  0  0  0  0  0  0  0  0
   91.6880  101.3730  -42.6510 C   0  0  0  0  0  0  0  0  0  0  0  0
   92.0950  101.9780  -43.7600 C   0  0  0  0  0  0  0  0  0  0  0  0
   93.3850  101.6370  -43.9090 N   0  0  0  0  0  0  0  0  0  0  0  0
   93.7540  100.8460  -42.9180 N   0  0  0  0  0  0  0  0  0  0  0  0
   92.7250  100.6710  -42.1330 N   0  0  0  0  0  0  0  0  0  0  0  0
   92.6600   99.8830  -40.9260 C   0  0  0  0  0  0  0  0  0  0  0  0
   92.2690   98.4670  -41.2790 C   0  0  0  0  0  0  0  0  0  0  0  0
   93.0670   97.5350  -41.0370 O   0  0  0  0  0  0  0  0  0  0  0  0
   91.0240   98.2080  -41.8700 N   0  0  0  0  0  0  0  0  0  0  0  0
   90.8160   97.6170  -43.1330 C   0  0  0  0  0  0  0  0  0  0  0  0
   91.5270   96.5670  -43.6570 C   0  0  0  0  0  0  0  0  0  0  0  0
   91.2850   96.0440  -44.9100 C   0  0  0  0  0  0  0  0  0  0  0  0
   90.2790   96.6080  -45.6650 C   0  0  0  0  0  0  0  0  0  0  0  0
   89.5370   97.6690  -45.1720 C   0  0  0  0  0  0  0  0  0  0  0  0
   89.7950   98.1730  -43.9270 C   0  0  0  0  0  0  0  0  0  0  0  0
   90.0180   96.0950  -46.9330 O   0  0  0  0  0  0  0  0  0  0  0  0
   88.8390   96.4880  -47.6070 C   0  0  0  0  0  0  0  0  0  0  0  0
   92.0240   94.9760  -45.4170 O   0  0  0  0  0  0  0  0  0  0  0  0
   91.8690   93.7020  -44.7780 C   0  0  0  0  0  0  0  0  0  0  0  0
   91.0350  102.6900  -44.2800 C   0  0  0  0  0  0  0  0  0  0  0  0
   91.0690  103.3930  -45.3440 O   0  0  0  0  0  0  0  0  0  0  0  0
   87.1290  106.0290  -44.6140 H   0  0  0  0  0  0  0  0  0  0  0  0
   89.4060  105.0430  -44.2160 H   0  0  0  0  0  0  0  0  0  0  0  0
   87.6650  101.3300  -43.2850 H   0  0  0  0  0  0  0  0  0  0  0  0
   85.3940  102.2860  -43.6750 H   0  0  0  0  0  0  0  0  0  0  0  0
   94.0260  101.9310  -44.6720 H   0  0  0  0  0  0  0  0  0  0  0  0
   94.7130  100.4140  -42.7620 H   0  0  0  0  0  0  0  0  0  0  0  0
   91.9000  100.2620  -40.2030 H   0  0  0  0  0  0  0  0  0  0  0  0
   93.6430   99.8160  -40.4350 H   0  0  0  0  0  0  0  0  0  0  0  0
   90.1560   98.4820  -41.3040 H   0  0  0  0  0  0  0  0  0  0  0  0
   92.3160   96.1010  -43.0820 H   0  0  0  0  0  0  0  0  0  0  0  0
   88.7480   98.0920  -45.7970 H   0  0  0  0  0  0  0  0  0  0  0  0
   89.1960   99.0190  -43.5460 H   0  0  0  0  0  0  0  0  0  0  0  0
   88.8460   97.6040  -47.6230 H   0  0  0  0  0  0  0  0  0  0  0  0
   87.9620   96.1440  -47.0450 H   0  0  0  0  0  0  0  0  0  0  0  0
   88.8710   96.0960  -48.6500 H   0  0  0  0  0  0  0  0  0  0  0  0
   90.8180   93.3280  -44.9230 H   0  0  0  0  0  0  0  0  0  0  0  0
   92.5840   92.9670  -45.1980 H   0  0  0  0  0  0  0  0  0  0  0  0
   92.0550   93.7910  -43.6880 H   0  0  0  0  0  0  0  0  0  0  0  0
  1  2  1  0  0  0  0
  2  7  1  0  0  0  0
  3  2  2  0  0  0  0
  3  4  1  0  0  0  0
  4  5  2  0  0  0  0
  5  6  1  0  0  0  0
  5  8  1  0  0  0  0
  6 34  1  0  0  0  0
  7 35  1  0  0  0  0
  7  6  2  0  0  0  0
  8  9  1  0  0  0  0
  9 10  2  0  0  0  0
 11  9  1  0  0  0  0
 11 15  1  0  0  0  0
 12 11  2  0  0  0  0
 13 12  1  0  0  0  0
 13 14  1  0  0  0  0
 14 37  1  0  0  0  0
 14 15  1  0  0  0  0
 15 16  1  0  0  0  0
 16 39  1  0  0  0  0
 16 38  1  0  0  0  0
 17 18  2  0  0  0  0
 17 16  1  0  0  0  0
 19 40  1  0  0  0  0
 19 17  1  0  0  0  0
 20 19  1  0  0  0  0
 21 20  1  0  0  0  0
 21 41  1  0  0  0  0
 22 21  2  0  0  0  0
 23 24  2  0  0  0  0
 23 22  1  0  0  0  0
 24 25  1  0  0  0  0
 25 43  1  0  0  0  0
 25 20  2  0  0  0  0
 26 23  1  0  0  0  0
 27 45  1  0  0  0  0
 27 26  1  0  0  0  0
 28 22  1  0  0  0  0
 28 29  1  0  0  0  0
 29 49  1  0  0  0  0
 30 12  1  0  0  0  0
 30  8  1  0  0  0  0
 31 30  2  0  0  0  0
 32  3  1  0  0  0  0
 33  4  1  0  0  0  0
 36 13  1  0  0  0  0
 42 24  1  0  0  0  0
 44 27  1  0  0  0  0
 46 27  1  0  0  0  0
 47 29  1  0  0  0  0
 48 29  1  0  0  0  0
M  END
>  <Pose>
1

>  <Score>
-6.18

$$$$
