
 OpenBabel03212208273D

 50 53  0  0  0  0  0  0  0  0999 V2000
   93.4620  104.0490  -38.2390 B   0  0  0  0  0  0  0  0  0  0  0  0
   93.0190  102.5580  -39.3320 C   0  0  0  0  0  0  0  0  0  0  0  0
   91.7540  102.3410  -39.8360 C   0  0  0  0  0  0  0  0  0  0  0  0
   91.4680  101.2640  -40.6150 C   0  0  0  0  0  0  0  0  0  0  0  0
   92.4440  100.3330  -40.9360 C   0  0  0  0  0  0  0  0  0  0  0  0
   93.7060  100.5360  -40.4420 C   0  0  0  0  0  0  0  0  0  0  0  0
   93.9780  101.6250  -39.6590 C   0  0  0  0  0  0  0  0  0  0  0  0
   92.1070   99.2160  -41.7560 N   0  0  0  0  0  0  0  0  0  0  0  0
   92.3100   97.9250  -41.3890 C   0  0  0  0  0  0  0  0  0  0  0  0
   92.8150   97.5290  -40.2920 O   0  0  0  0  0  0  0  0  0  0  0  0
   91.8800   97.0830  -42.3990 C   0  0  0  0  0  0  0  0  0  0  0  0
   91.4230   97.8820  -43.3610 C   0  0  0  0  0  0  0  0  0  0  0  0
   90.9950   97.0790  -44.3650 N   0  0  0  0  0  0  0  0  0  0  0  0
   91.2020   95.8220  -43.9850 N   0  0  0  0  0  0  0  0  0  0  0  0
   91.7450   95.7850  -42.7840 N   0  0  0  0  0  0  0  0  0  0  0  0
   92.1380   94.6320  -41.9820 C   0  0  0  0  0  0  0  0  0  0  0  0
   92.5490   93.5090  -42.9040 C   0  0  0  0  0  0  0  0  0  0  0  0
   93.6660   93.0220  -42.6010 O   0  0  0  0  0  0  0  0  0  0  0  0
   91.7110   93.1260  -43.9490 N   0  0  0  0  0  0  0  0  0  0  0  0
   91.9840   92.1730  -44.9620 C   0  0  0  0  0  0  0  0  0  0  0  0
   92.9240   91.1730  -44.8770 C   0  0  0  0  0  0  0  0  0  0  0  0
   93.1350   90.2670  -45.9250 C   0  0  0  0  0  0  0  0  0  0  0  0
   92.4080   90.3380  -47.0890 C   0  0  0  0  0  0  0  0  0  0  0  0
   91.4650   91.3330  -47.1850 C   0  0  0  0  0  0  0  0  0  0  0  0
   91.2590   92.2250  -46.1500 C   0  0  0  0  0  0  0  0  0  0  0  0
   92.6610   89.3740  -48.1540 C   0  0  0  0  0  0  0  0  0  0  0  0
   93.7300   89.4790  -48.8060 O   0  0  0  0  0  0  0  0  0  0  0  0
   91.8130   88.3580  -48.4940 O   0  0  0  0  0  0  0  0  0  0  0  0
   92.1360   86.9990  -48.5740 C   0  0  0  0  0  0  0  0  0  0  0  0
   90.8060   86.2390  -48.6710 C   0  0  0  0  0  0  0  0  0  0  0  0
   91.5580   99.1950  -42.9780 C   0  0  0  0  0  0  0  0  0  0  0  0
   91.2330  100.2100  -43.6340 O   0  0  0  0  0  0  0  0  0  0  0  0
   90.9910  103.0700  -39.5840 H   0  0  0  0  0  0  0  0  0  0  0  0
   90.4440  101.1270  -40.9970 H   0  0  0  0  0  0  0  0  0  0  0  0
   94.4920   99.8290  -40.6740 H   0  0  0  0  0  0  0  0  0  0  0  0
   94.9840  101.8000  -39.2570 H   0  0  0  0  0  0  0  0  0  0  0  0
   90.5820   97.4020  -45.2630 H   0  0  0  0  0  0  0  0  0  0  0  0
   90.9690   94.9930  -44.5590 H   0  0  0  0  0  0  0  0  0  0  0  0
   92.9470   94.8840  -41.2710 H   0  0  0  0  0  0  0  0  0  0  0  0
   91.2490   94.3490  -41.3820 H   0  0  0  0  0  0  0  0  0  0  0  0
   90.7600   93.6130  -43.9800 H   0  0  0  0  0  0  0  0  0  0  0  0
   93.5050   91.0940  -43.9830 H   0  0  0  0  0  0  0  0  0  0  0  0
   93.8910   89.4860  -45.8200 H   0  0  0  0  0  0  0  0  0  0  0  0
   90.8930   91.3800  -48.1130 H   0  0  0  0  0  0  0  0  0  0  0  0
   90.4960   93.0090  -46.2630 H   0  0  0  0  0  0  0  0  0  0  0  0
   92.7170   86.7280  -49.4770 H   0  0  0  0  0  0  0  0  0  0  0  0
   92.6880   86.6110  -47.6970 H   0  0  0  0  0  0  0  0  0  0  0  0
   90.3700   86.4350  -49.6930 H   0  0  0  0  0  0  0  0  0  0  0  0
   90.0730   86.6250  -47.9430 H   0  0  0  0  0  0  0  0  0  0  0  0
   90.9290   85.1670  -48.5060 H   0  0  0  0  0  0  0  0  0  0  0  0
  2  1  1  0  0  0  0
  3 33  1  0  0  0  0
  3  2  2  0  0  0  0
  4  3  1  0  0  0  0
  5  4  2  0  0  0  0
  5  6  1  0  0  0  0
  6  7  2  0  0  0  0
  7  2  1  0  0  0  0
  7 36  1  0  0  0  0
  8  9  1  0  0  0  0
  8  5  1  0  0  0  0
  9 10  2  0  0  0  0
 11  9  1  0  0  0  0
 12 31  1  0  0  0  0
 12 11  2  0  0  0  0
 13 14  1  0  0  0  0
 13 12  1  0  0  0  0
 14 15  1  0  0  0  0
 15 11  1  0  0  0  0
 15 16  1  0  0  0  0
 16 40  1  0  0  0  0
 16 39  1  0  0  0  0
 17 18  2  0  0  0  0
 17 16  1  0  0  0  0
 19 17  1  0  0  0  0
 20 21  1  0  0  0  0
 20 19  1  0  0  0  0
 21 42  1  0  0  0  0
 22 43  1  0  0  0  0
 22 21  2  0  0  0  0
 23 22  1  0  0  0  0
 24 23  2  0  0  0  0
 24 25  1  0  0  0  0
 25 20  2  0  0  0  0
 26 23  1  0  0  0  0
 27 26  2  0  0  0  0
 28 26  1  0  0  0  0
 29 28  1  0  0  0  0
 29 47  1  0  0  0  0
 30 29  1  0  0  0  0
 30 50  1  0  0  0  0
 30 49  1  0  0  0  0
 31  8  1  0  0  0  0
 32 31  2  0  0  0  0
 34  4  1  0  0  0  0
 35  6  1  0  0  0  0
 37 13  1  0  0  0  0
 38 14  1  0  0  0  0
 41 19  1  0  0  0  0
 44 24  1  0  0  0  0
 45 25  1  0  0  0  0
 46 29  1  0  0  0  0
 48 30  1  0  0  0  0
M  END
>  <Pose>
1

>  <Score>
-5.95

$$$$
