
 OpenBabel03212208273D

 47 51  0  0  1  0  0  0  0  0999 V2000
   94.3500  101.1350  -40.2430 B   0  0  0  0  0  0  0  0  0  0  0  0
   92.5310  101.3690  -40.8230 C   0  0  0  0  0  0  0  0  0  0  0  0
   91.7240  102.3290  -40.2890 C   0  0  0  0  0  0  0  0  0  0  0  0
   90.4130  102.4670  -40.7370 C   0  0  0  0  0  0  0  0  0  0  0  0
   89.8930  101.6510  -41.7190 C   0  0  0  0  0  0  0  0  0  0  0  0
   90.7380  100.6910  -42.2360 C   0  0  0  0  0  0  0  0  0  0  0  0
   92.0370  100.5340  -41.8120 C   0  0  0  0  0  0  0  0  0  0  0  0
   88.5490  101.8200  -42.1530 N   0  0  0  0  0  0  0  0  0  0  0  0
   87.9000  102.9600  -42.3690 N   0  0  0  0  0  0  0  0  0  0  0  0
   86.6400  102.7150  -42.7730 C   0  0  0  0  0  0  0  0  0  0  0  0
   85.7210  103.6230  -43.0740 C   0  0  0  0  0  0  0  0  0  0  0  0
   86.4540  101.3490  -42.8240 C   0  0  1  0  0  0  0  0  0  0  0  0
   85.3580  100.6690  -43.1730 C   0  0  0  0  0  0  0  0  0  0  0  0
   85.4190   99.2480  -43.1440 N   0  0  0  0  0  4  0  0  0  0  0  0
   85.2910   98.4530  -44.3310 C   0  0  2  0  0  0  0  0  0  0  0  0
   83.9920   98.7290  -45.0190 C   0  0  0  0  0  0  0  0  0  0  0  0
   83.9450   97.9780  -46.2660 N   0  0  1  0  0  0  0  0  0  0  0  0
   85.0620   98.4200  -47.0920 C   0  0  0  0  0  0  0  0  0  0  0  0
   86.3320   98.1050  -46.4860 N   0  0  2  0  0  0  0  0  0  0  0  0
   86.3850   96.6790  -46.1790 C   0  0  0  0  0  0  0  0  0  0  0  0
   85.2970   96.2750  -45.3180 N   0  0  2  0  0  0  0  0  0  0  0  0
   84.0440   96.5710  -45.9740 C   0  0  0  0  0  0  0  0  0  0  0  0
   85.3710   96.9700  -44.0550 C   0  0  0  0  0  0  0  0  0  0  0  0
   86.4630   98.8240  -45.2460 C   0  0  0  0  0  0  0  0  0  0  0  0
   87.6760  100.8280  -42.4270 C   0  0  0  0  0  0  0  0  0  0  0  0
   87.9180   99.6020  -42.3420 O   0  0  0  0  0  0  0  0  0  0  0  0
   92.1100  102.9760  -39.5220 H   0  0  0  0  0  0  0  0  0  0  0  0
   89.7780  103.2300  -40.3100 H   0  0  0  0  0  0  0  0  0  0  0  0
   90.3470  100.0440  -43.0050 H   0  0  0  0  0  0  0  0  0  0  0  0
   92.7090   99.7790  -42.2150 H   0  0  0  0  0  0  0  0  0  0  0  0
   88.3090  103.9070  -42.2430 H   0  0  0  0  0  0  0  0  0  0  0  0
   85.9590  104.6750  -43.0050 H   0  0  0  0  0  0  0  0  0  0  0  0
   84.7290  103.3720  -43.3930 H   0  0  0  0  0  0  0  0  0  0  0  0
   84.4790  101.2180  -43.4590 H   0  0  0  0  0  0  0  0  0  0  0  0
   85.5600   98.7900  -42.2320 H   0  0  0  0  0  0  0  0  0  0  0  0
   83.8740   99.8050  -45.1810 H   0  0  0  0  0  0  0  0  0  0  0  0
   83.1750   98.3790  -44.3480 H   0  0  0  0  0  0  0  0  0  0  0  0
   84.9810   99.5080  -47.2190 H   0  0  0  0  0  0  0  0  0  0  0  0
   85.0150   97.8810  -48.0670 H   0  0  0  0  0  0  0  0  0  0  0  0
   87.3730   96.4350  -45.7740 H   0  0  0  0  0  0  0  0  0  0  0  0
   86.2790   96.1560  -47.1520 H   0  0  0  0  0  0  0  0  0  0  0  0
   83.1850   96.3230  -45.2980 H   0  0  0  0  0  0  0  0  0  0  0  0
   83.9570   96.0180  -46.9240 H   0  0  0  0  0  0  0  0  0  0  0  0
   84.5090   96.6670  -43.4270 H   0  0  0  0  0  0  0  0  0  0  0  0
   86.3110   96.6930  -43.5300 H   0  0  0  0  0  0  0  0  0  0  0  0
   86.3580   99.9120  -45.4340 H   0  0  0  0  0  0  0  0  0  0  0  0
   87.3970   98.5600  -44.7120 H   0  0  0  0  0  0  0  0  0  0  0  0
  2  3  1  0  0  0  0
  2  1  1  0  0  0  0
  3 27  1  0  0  0  0
  4 28  1  0  0  0  0
  4  3  2  0  0  0  0
  5  4  1  0  0  0  0
  6  7  1  0  0  0  0
  6  5  2  0  0  0  0
  7  2  2  0  0  0  0
  8  5  1  0  0  0  0
  9 31  1  0  0  0  0
  9  8  1  0  0  0  0
 10  9  1  0  0  0  0
 11 32  1  0  0  0  0
 11 10  2  0  0  0  0
 12 13  1  6  0  0  0
 12 10  1  0  0  0  0
 12 25  1  0  0  0  0
 13 14  2  0  0  0  0
 14 35  1  0  0  0  0
 15 23  1  0  0  0  0
 15 14  1  1  0  0  0
 16 37  1  0  0  0  0
 16 15  1  0  0  0  0
 17 18  1  6  0  0  0
 17 22  1  0  0  0  0
 17 16  1  0  0  0  0
 19 18  1  1  0  0  0
 19 20  1  0  0  0  0
 19 24  1  0  0  0  0
 20 40  1  0  0  0  0
 21 20  1  6  0  0  0
 21 23  1  0  0  0  0
 22 21  1  0  0  0  0
 22 42  1  0  0  0  0
 23 45  1  0  0  0  0
 23 44  1  0  0  0  0
 24 47  1  0  0  0  0
 24 15  1  0  0  0  0
 25 26  2  0  0  0  0
 25  8  1  0  0  0  0
 29  6  1  0  0  0  0
 30  7  1  0  0  0  0
 33 11  1  0  0  0  0
 34 13  1  0  0  0  0
 36 16  1  0  0  0  0
 38 18  1  0  0  0  0
 39 18  1  0  0  0  0
 41 20  1  0  0  0  0
 43 22  1  0  0  0  0
 46 24  1  0  0  0  0
M  END
>  <Pose>
1

>  <Score>
-4.26

$$$$
