
 OpenBabel03212208273D

 53 57  0  0  1  0  0  0  0  0999 V2000
   92.0850   94.4950  -41.7640 B   0  0  0  0  0  0  0  0  0  0  0  0
   91.8020   93.9170  -43.5500 C   0  0  0  0  0  0  0  0  0  0  0  0
   91.8990   92.5920  -43.9050 C   0  0  0  0  0  0  0  0  0  0  0  0
   91.6980   92.1660  -45.1800 C   0  0  0  0  0  0  0  0  0  0  0  0
   91.3860   93.0850  -46.1590 C   0  0  0  0  0  0  0  0  0  0  0  0
   91.2810   94.4380  -45.8210 C   0  0  0  0  0  0  0  0  0  0  0  0
   91.4860   94.8750  -44.5240 C   0  0  0  0  0  0  0  0  0  0  0  0
   91.3980   96.2280  -44.1170 N   0  0  0  0  0  0  0  0  0  0  0  0
   91.6400   97.3460  -44.9410 C   0  0  0  0  0  0  0  0  0  0  0  0
   92.5750   97.4620  -45.7500 O   0  0  0  0  0  0  0  0  0  0  0  0
   90.6810   98.5110  -44.8360 C   0  0  0  0  0  0  0  0  0  0  0  0
   91.1010   99.4540  -43.8250 N   0  0  0  0  0  0  0  0  0  0  0  0
   91.2280  100.7710  -44.2350 C   0  0  0  0  0  0  0  0  0  0  0  0
   92.2130  101.6700  -43.5920 C   0  0  0  0  0  0  0  0  0  0  0  0
   92.5940  101.1140  -42.3260 N   0  0  0  0  0  0  0  0  0  0  0  0
   93.0880   99.7620  -42.4020 C   0  0  0  0  0  0  0  0  0  0  0  0
   91.9230   98.9020  -42.8200 C   0  0  0  0  0  0  0  0  0  0  0  0
   92.5260  101.7520  -41.0760 C   0  0  1  0  0  0  0  0  0  0  0  0
   91.3630  102.0680  -40.4520 N   0  0  0  0  0  0  0  0  0  0  0  0
   91.3300  102.6780  -39.2540 C   0  0  0  0  0  0  0  0  0  0  0  0
   92.4640  103.0060  -38.6100 N   0  0  0  0  0  0  0  0  0  0  0  0
   93.6660  102.7300  -39.1550 C   0  0  0  0  0  0  0  0  0  0  0  0
   94.9430  102.9410  -38.7440 N   0  0  0  0  0  0  0  0  0  0  0  0
   95.7210  102.4570  -39.6960 N   0  0  0  0  0  0  0  0  0  0  0  0
   95.0120  101.9440  -40.7040 C   0  0  0  0  0  0  0  0  0  0  0  0
   93.6840  102.1080  -40.3780 C   0  0  0  0  0  0  0  0  0  0  0  0
   95.3440  103.5810  -37.4900 C   0  0  0  0  0  0  0  0  0  0  0  0
   91.1860   92.6320  -47.4390 O   0  0  0  0  0  0  0  0  0  0  0  0
   91.7250   91.4370  -47.9480 C   0  0  0  0  0  0  0  0  0  0  0  0
   92.2970   90.5480  -46.8900 C   0  0  0  0  0  0  0  0  0  0  0  0
   91.7860   90.8410  -45.5830 O   0  0  0  0  0  0  0  0  0  0  0  0
   92.1430   91.8630  -43.1420 H   0  0  0  0  0  0  0  0  0  0  0  0
   91.0370   95.1210  -46.6040 H   0  0  0  0  0  0  0  0  0  0  0  0
   91.1250   96.4190  -43.1020 H   0  0  0  0  0  0  0  0  0  0  0  0
   90.7090   99.0010  -45.8270 H   0  0  0  0  0  0  0  0  0  0  0  0
   89.6590   98.1200  -44.6680 H   0  0  0  0  0  0  0  0  0  0  0  0
   91.4380  100.7900  -45.3470 H   0  0  0  0  0  0  0  0  0  0  0  0
   90.2130  101.2710  -44.1800 H   0  0  0  0  0  0  0  0  0  0  0  0
   93.1340  101.8040  -44.2110 H   0  0  0  0  0  0  0  0  0  0  0  0
   91.7860  102.6900  -43.5080 H   0  0  0  0  0  0  0  0  0  0  0  0
   93.5230   99.4120  -41.4640 H   0  0  0  0  0  0  0  0  0  0  0  0
   93.8550   99.6660  -43.2160 H   0  0  0  0  0  0  0  0  0  0  0  0
   91.3050   98.6390  -41.9360 H   0  0  0  0  0  0  0  0  0  0  0  0
   92.3500   97.9460  -43.1950 H   0  0  0  0  0  0  0  0  0  0  0  0
   90.3420  102.8820  -38.8500 H   0  0  0  0  0  0  0  0  0  0  0  0
   95.3310  101.4750  -41.6240 H   0  0  0  0  0  0  0  0  0  0  0  0
   96.1520  103.0260  -36.9780 H   0  0  0  0  0  0  0  0  0  0  0  0
   95.7240  104.6130  -37.6620 H   0  0  0  0  0  0  0  0  0  0  0  0
   94.4380  103.6820  -36.8540 H   0  0  0  0  0  0  0  0  0  0  0  0
   90.9340   90.9150  -48.5520 H   0  0  0  0  0  0  0  0  0  0  0  0
   92.5490   91.7140  -48.6660 H   0  0  0  0  0  0  0  0  0  0  0  0
   93.4060   90.7360  -46.8250 H   0  0  0  0  0  0  0  0  0  0  0  0
   92.1840   89.4820  -47.1220 H   0  0  0  0  0  0  0  0  0  0  0  0
  2  1  1  0  0  0  0
  3  2  1  0  0  0  0
  3 32  1  0  0  0  0
  4  3  2  0  0  0  0
  5  6  2  0  0  0  0
  5  4  1  0  0  0  0
  6  7  1  0  0  0  0
  7  8  1  0  0  0  0
  7  2  2  0  0  0  0
  8 34  1  0  0  0  0
  9 11  1  0  0  0  0
  9  8  1  0  0  0  0
 10  9  2  0  0  0  0
 11 36  1  0  0  0  0
 11 12  1  0  0  0  0
 12 17  1  0  0  0  0
 13 38  1  0  0  0  0
 13 12  1  0  0  0  0
 13 14  1  0  0  0  0
 14 40  1  0  0  0  0
 14 15  1  0  0  0  0
 16 15  1  0  0  0  0
 16 41  1  0  0  0  0
 17 16  1  0  0  0  0
 17 43  1  0  0  0  0
 18 15  1  1  0  0  0
 18 19  1  0  0  0  0
 18 26  1  0  0  0  0
 19 20  2  0  0  0  0
 20 45  1  0  0  0  0
 20 21  1  0  0  0  0
 22 23  1  0  0  0  0
 22 21  1  0  0  0  0
 23 27  1  0  0  0  0
 24 23  1  0  0  0  0
 25 26  1  0  0  0  0
 25 24  2  0  0  0  0
 26 22  2  0  0  0  0
 27 47  1  0  0  0  0
 27 49  1  0  0  0  0
 28  5  1  0  0  0  0
 29 28  1  0  0  0  0
 29 30  1  0  0  0  0
 30 52  1  0  0  0  0
 30 31  1  0  0  0  0
 31  4  1  0  0  0  0
 33  6  1  0  0  0  0
 35 11  1  0  0  0  0
 37 13  1  0  0  0  0
 39 14  1  0  0  0  0
 42 16  1  0  0  0  0
 44 17  1  0  0  0  0
 46 25  1  0  0  0  0
 48 27  1  0  0  0  0
 50 29  1  0  0  0  0
 51 29  1  0  0  0  0
 53 30  1  0  0  0  0
M  END
>  <Pose>
1

>  <Score>
-5.64

$$$$
