
 OpenBabel03212208273D

 49 52  0  0  0  0  0  0  0  0999 V2000
   91.5970   91.9470  -45.6640 B   0  0  0  0  0  0  0  0  0  0  0  0
   91.6570   93.4670  -44.5130 C   0  0  0  0  0  0  0  0  0  0  0  0
   91.6700   94.7290  -45.0720 C   0  0  0  0  0  0  0  0  0  0  0  0
   91.7110   95.8630  -44.2830 C   0  0  0  0  0  0  0  0  0  0  0  0
   91.7410   95.6910  -42.9130 C   0  0  0  0  0  0  0  0  0  0  0  0
   91.7270   94.4240  -42.3640 C   0  0  0  0  0  0  0  0  0  0  0  0
   91.6840   93.2870  -43.1460 C   0  0  0  0  0  0  0  0  0  0  0  0
   91.7820   97.0140  -42.3160 C   0  0  0  0  0  0  0  0  0  0  0  0
   91.8160   97.2230  -41.0610 O   0  0  0  0  0  0  0  0  0  0  0  0
   91.7770   97.9740  -43.3620 N   0  0  0  0  0  0  0  0  0  0  0  0
   91.7350   97.3000  -44.5950 C   0  0  0  0  0  0  0  0  0  0  0  0
   91.7180   97.7990  -45.7540 O   0  0  0  0  0  0  0  0  0  0  0  0
   91.8130   99.4000  -43.1260 C   0  0  0  0  0  0  0  0  0  0  0  0
   90.8390  100.1640  -43.9440 C   0  0  0  0  0  0  0  0  0  0  0  0
   90.5180  101.4670  -43.2690 C   0  0  0  0  0  0  0  0  0  0  0  0
   89.3930  101.3960  -42.3090 C   0  0  0  0  0  0  0  0  0  0  0  0
   89.4520  101.8410  -41.1330 O   0  0  0  0  0  0  0  0  0  0  0  0
   88.1410  100.7950  -42.6930 N   0  0  0  0  0  0  0  0  0  0  0  0
   87.0320  101.6080  -43.1360 C   0  0  0  0  0  0  0  0  0  0  0  0
   86.3370  101.0650  -44.3390 C   0  0  0  0  0  0  0  0  0  0  0  0
   86.8860   99.8250  -44.8340 N   0  0  0  0  0  0  0  0  0  0  0  0
   87.5490   98.8420  -44.0200 C   0  0  0  0  0  0  0  0  0  0  0  0
   87.9310   99.3600  -42.6550 C   0  0  0  0  0  0  0  0  0  0  0  0
   86.7610   99.5550  -46.2340 C   0  0  0  0  0  0  0  0  0  0  0  0
   85.8000   98.7220  -46.7160 N   0  0  0  0  0  0  0  0  0  0  0  0
   85.6500   98.4450  -48.0110 C   0  0  0  0  0  0  0  0  0  0  0  0
   86.5150   99.0290  -48.9240 C   0  0  0  0  0  0  0  0  0  0  0  0
   87.4840   99.8640  -48.4770 N   0  0  0  0  0  0  0  0  0  0  0  0
   87.6030  100.1190  -47.1640 C   0  0  0  0  0  0  0  0  0  0  0  0
   91.6480   94.9050  -46.1460 H   0  0  0  0  0  0  0  0  0  0  0  0
   91.7510   94.3400  -41.2830 H   0  0  0  0  0  0  0  0  0  0  0  0
   91.6750   92.3120  -42.6830 H   0  0  0  0  0  0  0  0  0  0  0  0
   92.8360   99.7450  -43.3390 H   0  0  0  0  0  0  0  0  0  0  0  0
   91.5670   99.5500  -42.0320 H   0  0  0  0  0  0  0  0  0  0  0  0
   89.9310   99.5980  -44.2130 H   0  0  0  0  0  0  0  0  0  0  0  0
   91.2930  100.4350  -44.9450 H   0  0  0  0  0  0  0  0  0  0  0  0
   91.4020  101.8900  -42.7370 H   0  0  0  0  0  0  0  0  0  0  0  0
   90.2470  102.2260  -44.0340 H   0  0  0  0  0  0  0  0  0  0  0  0
   87.3500  102.6610  -43.2640 H   0  0  0  0  0  0  0  0  0  0  0  0
   86.3040  101.6280  -42.2760 H   0  0  0  0  0  0  0  0  0  0  0  0
   85.2500  100.8570  -44.1210 H   0  0  0  0  0  0  0  0  0  0  0  0
   86.3220  101.8150  -45.1610 H   0  0  0  0  0  0  0  0  0  0  0  0
   86.8910   97.9790  -43.8920 H   0  0  0  0  0  0  0  0  0  0  0  0
   88.5110   98.5940  -44.5440 H   0  0  0  0  0  0  0  0  0  0  0  0
   88.8040   98.8240  -42.2330 H   0  0  0  0  0  0  0  0  0  0  0  0
   87.0420   99.2050  -41.9770 H   0  0  0  0  0  0  0  0  0  0  0  0
   84.8790   97.7790  -48.3760 H   0  0  0  0  0  0  0  0  0  0  0  0
   86.4230   98.8290  -49.9690 H   0  0  0  0  0  0  0  0  0  0  0  0
   88.3850  100.7880  -46.8440 H   0  0  0  0  0  0  0  0  0  0  0  0
  1  2  1  0  0  0  0
  2  7  1  0  0  0  0
  3  2  2  0  0  0  0
  3  4  1  0  0  0  0
  4  5  2  0  0  0  0
  5  6  1  0  0  0  0
  5  8  1  0  0  0  0
  6 31  1  0  0  0  0
  7 32  1  0  0  0  0
  7  6  2  0  0  0  0
  8  9  2  0  0  0  0
 10 13  1  0  0  0  0
 10  8  1  0  0  0  0
 11  4  1  0  0  0  0
 11 10  1  0  0  0  0
 12 11  2  0  0  0  0
 13 34  1  0  0  0  0
 14 15  1  0  0  0  0
 14 13  1  0  0  0  0
 15 37  1  0  0  0  0
 15 16  1  0  0  0  0
 16 17  2  0  0  0  0
 18 23  1  0  0  0  0
 18 16  1  0  0  0  0
 19 18  1  0  0  0  0
 19 40  1  0  0  0  0
 20 41  1  0  0  0  0
 20 19  1  0  0  0  0
 21 20  1  0  0  0  0
 21 22  1  0  0  0  0
 22 43  1  0  0  0  0
 22 23  1  0  0  0  0
 23 45  1  0  0  0  0
 23 46  1  0  0  0  0
 24 21  1  0  0  0  0
 25 24  1  0  0  0  0
 26 25  2  0  0  0  0
 27 28  2  0  0  0  0
 27 26  1  0  0  0  0
 28 29  1  0  0  0  0
 29 49  1  0  0  0  0
 29 24  2  0  0  0  0
 30  3  1  0  0  0  0
 33 13  1  0  0  0  0
 35 14  1  0  0  0  0
 36 14  1  0  0  0  0
 38 15  1  0  0  0  0
 39 19  1  0  0  0  0
 42 20  1  0  0  0  0
 44 22  1  0  0  0  0
 47 26  1  0  0  0  0
 48 27  1  0  0  0  0
M  END
>  <Pose>
1

>  <Score>
-4.36

$$$$
