
 OpenBabel03212208273D

 44 47  0  0  0  0  0  0  0  0999 V2000
   88.5570   97.2110  -48.7960 B   0  0  0  0  0  0  0  0  0  0  0  0
   89.1900   97.6000  -47.0460 C   0  0  0  0  0  0  0  0  0  0  0  0
   90.0540   96.7340  -46.3660 C   0  0  0  0  0  0  0  0  0  0  0  0
   90.5170   97.0110  -45.0970 C   0  0  0  0  0  0  0  0  0  0  0  0
   90.1110   98.1940  -44.4670 C   0  0  0  0  0  0  0  0  0  0  0  0
   89.2550   99.0450  -45.1520 C   0  0  0  0  0  0  0  0  0  0  0  0
   88.8050   98.7510  -46.4170 C   0  0  0  0  0  0  0  0  0  0  0  0
   90.6940   98.2940  -43.1730 N   0  0  0  0  0  0  0  0  0  0  0  0
   91.4900   97.1340  -42.9890 C   0  0  0  0  0  0  0  0  0  0  0  0
   92.1940   96.7850  -42.0010 O   0  0  0  0  0  0  0  0  0  0  0  0
   91.4040   96.2870  -44.1980 C   0  0  0  0  0  0  0  0  0  0  0  0
   91.9910   95.1580  -44.3980 N   0  0  0  0  0  0  0  0  0  0  0  0
   91.8370   94.4380  -45.5860 N   0  0  0  0  0  0  0  0  0  0  0  0
   91.2770   93.1370  -45.6220 C   0  0  0  0  0  0  0  0  0  0  0  0
   90.0440   93.0090  -45.7950 O   0  0  0  0  0  0  0  0  0  0  0  0
   92.1280   91.9670  -45.4580 C   0  0  0  0  0  0  0  0  0  0  0  0
   92.1280   91.0980  -46.6200 N   0  0  0  0  0  0  0  0  0  0  0  0
   93.1800   90.6570  -47.2870 N   0  0  0  0  0  0  0  0  0  0  0  0
   92.7980   89.8840  -48.2910 N   0  0  0  0  0  0  0  0  0  0  0  0
   91.4560   89.8200  -48.2770 C   0  0  0  0  0  0  0  0  0  0  0  0
   91.0780   90.5760  -47.2380 N   0  0  0  0  0  0  0  0  0  0  0  0
   90.6340   89.0680  -49.2200 C   0  0  0  0  0  0  0  0  0  0  0  0
   89.9950   89.7210  -50.2520 C   0  0  0  0  0  0  0  0  0  0  0  0
   89.2070   89.0050  -51.1570 C   0  0  0  0  0  0  0  0  0  0  0  0
   89.0440   87.6430  -51.0510 C   0  0  0  0  0  0  0  0  0  0  0  0
   89.6850   86.9850  -50.0160 C   0  0  0  0  0  0  0  0  0  0  0  0
   90.4650   87.7040  -49.1210 C   0  0  0  0  0  0  0  0  0  0  0  0
   90.5570   99.3370  -42.1750 C   0  0  0  0  0  0  0  0  0  0  0  0
   91.7850  100.1100  -42.0760 C   0  0  0  0  0  0  0  0  0  0  0  0
   92.7930  100.7610  -41.9850 C   0  0  0  0  0  0  0  0  0  0  0  0
   90.3470   95.8280  -46.8840 H   0  0  0  0  0  0  0  0  0  0  0  0
   88.9160   99.9680  -44.7060 H   0  0  0  0  0  0  0  0  0  0  0  0
   88.1280   99.4220  -46.9590 H   0  0  0  0  0  0  0  0  0  0  0  0
   92.1570   94.8780  -46.4720 H   0  0  0  0  0  0  0  0  0  0  0  0
   91.8300   91.3870  -44.5640 H   0  0  0  0  0  0  0  0  0  0  0  0
   93.1680   92.3200  -45.2580 H   0  0  0  0  0  0  0  0  0  0  0  0
   90.1080   90.8000  -50.3560 H   0  0  0  0  0  0  0  0  0  0  0  0
   88.7000   89.5190  -51.9730 H   0  0  0  0  0  0  0  0  0  0  0  0
   88.4210   87.1020  -51.7730 H   0  0  0  0  0  0  0  0  0  0  0  0
   89.5610   85.9110  -49.9260 H   0  0  0  0  0  0  0  0  0  0  0  0
   90.9760   87.2020  -48.3030 H   0  0  0  0  0  0  0  0  0  0  0  0
   89.7240  100.0400  -42.4200 H   0  0  0  0  0  0  0  0  0  0  0  0
   90.2710   98.8540  -41.2090 H   0  0  0  0  0  0  0  0  0  0  0  0
   93.6890  101.3550  -41.9110 H   0  0  0  0  0  0  0  0  0  0  0  0
  1  2  1  0  0  0  0
  2  7  2  0  0  0  0
  2  3  1  0  0  0  0
  3  4  2  0  0  0  0
  4  5  1  0  0  0  0
  4 11  1  0  0  0  0
  5  8  1  0  0  0  0
  6 32  1  0  0  0  0
  6  5  2  0  0  0  0
  7  6  1  0  0  0  0
  8  9  1  0  0  0  0
  8 28  1  0  0  0  0
  9 10  2  0  0  0  0
 11  9  1  0  0  0  0
 12 11  2  0  0  0  0
 13 12  1  0  0  0  0
 14 13  1  0  0  0  0
 14 16  1  0  0  0  0
 15 14  2  0  0  0  0
 16 36  1  0  0  0  0
 16 35  1  0  0  0  0
 17 16  1  0  0  0  0
 18 17  1  0  0  0  0
 19 20  2  0  0  0  0
 19 18  1  0  0  0  0
 20 21  1  0  0  0  0
 21 17  1  0  0  0  0
 22 27  1  0  0  0  0
 22 20  1  0  0  0  0
 23 22  2  0  0  0  0
 24 25  2  0  0  0  0
 24 23  1  0  0  0  0
 25 26  1  0  0  0  0
 26 40  1  0  0  0  0
 26 27  2  0  0  0  0
 27 41  1  0  0  0  0
 28 29  1  0  0  0  0
 28 43  1  0  0  0  0
 29 30  3  0  0  0  0
 30 44  1  0  0  0  0
 31  3  1  0  0  0  0
 33  7  1  0  0  0  0
 34 13  1  0  0  0  0
 37 23  1  0  0  0  0
 38 24  1  0  0  0  0
 39 25  1  0  0  0  0
 42 28  1  0  0  0  0
M  END
>  <Pose>
1

>  <Score>
-5.94

$$$$
