
 OpenBabel03212208273D

 41 44  0  0  1  0  0  0  0  0999 V2000
   86.1380   98.7620  -43.5820 B   0  0  0  0  0  0  0  0  0  0  0  0
   87.8370   98.7700  -44.4320 C   0  0  0  0  0  0  0  0  0  0  0  0
   89.0230   98.7470  -43.7370 C   0  0  0  0  0  0  0  0  0  0  0  0
   90.2300   98.7550  -44.4350 C   0  0  0  0  0  0  0  0  0  0  0  0
   90.3050   98.7840  -45.7870 C   0  0  0  0  0  0  0  0  0  0  0  0
   89.0990   98.8070  -46.4930 C   0  0  0  0  0  0  0  0  0  0  0  0
   87.8970   98.8000  -45.8210 C   0  0  0  0  0  0  0  0  0  0  0  0
   91.6420   98.7860  -46.2480 N   0  0  0  0  0  0  0  0  0  0  0  0
   92.4800   98.7560  -45.1170 C   0  0  0  0  0  0  0  0  0  0  0  0
   93.7420   98.7480  -45.1270 O   0  0  0  0  0  0  0  0  0  0  0  0
   91.6280   98.7340  -43.8960 C   0  0  1  0  0  0  0  0  0  0  0  0
   91.8650   99.9490  -43.0760 C   0  0  0  0  0  0  0  0  0  0  0  0
   92.1610   99.8950  -41.8280 C   0  0  0  0  0  0  0  0  0  0  0  0
   92.2910   98.6400  -41.1040 N   0  0  0  0  0  0  0  0  0  0  0  0
   92.0670   97.4760  -41.8720 C   0  0  0  0  0  0  0  0  0  0  0  0
   91.7660   97.5080  -43.1410 C   0  0  0  0  0  0  0  0  0  0  0  0
   91.5630   96.2240  -43.8030 C   0  0  0  0  0  0  0  0  0  0  0  0
   91.4190   95.2100  -44.3430 N   0  0  0  0  0  0  0  0  0  0  0  0
   92.1830   96.1910  -41.2010 N   0  0  0  0  0  0  0  0  0  0  0  0
   92.3330  101.2890  -41.3150 C   0  0  0  0  0  0  0  0  0  0  0  0
   92.1020  102.1100  -42.3990 O   0  0  0  0  0  0  0  0  0  0  0  0
   91.8110  101.3820  -43.5130 C   0  0  0  0  0  0  0  0  0  0  0  0
   91.5430  101.7640  -44.6910 O   0  0  0  0  0  0  0  0  0  0  0  0
   93.7150  101.4540  -40.7140 C   0  0  0  0  0  0  0  0  0  0  0  0
   91.2900  101.6020  -40.2570 C   0  0  0  0  0  0  0  0  0  0  0  0
   92.1130   98.8140  -47.6410 C   0  0  0  0  0  0  0  0  0  0  0  0
   88.9790   98.7240  -42.6600 H   0  0  0  0  0  0  0  0  0  0  0  0
   89.1620   98.8310  -47.5760 H   0  0  0  0  0  0  0  0  0  0  0  0
   86.9860   98.8190  -46.4080 H   0  0  0  0  0  0  0  0  0  0  0  0
   92.5310   98.6540  -40.0980 H   0  0  0  0  0  0  0  0  0  0  0  0
   91.9440   95.3460  -41.7580 H   0  0  0  0  0  0  0  0  0  0  0  0
   92.4850   96.1220  -40.2190 H   0  0  0  0  0  0  0  0  0  0  0  0
   94.4190  101.9600  -41.4200 H   0  0  0  0  0  0  0  0  0  0  0  0
   93.6240  102.0060  -39.7610 H   0  0  0  0  0  0  0  0  0  0  0  0
   94.0940  100.4440  -40.4910 H   0  0  0  0  0  0  0  0  0  0  0  0
   90.3680  101.9650  -40.7530 H   0  0  0  0  0  0  0  0  0  0  0  0
   91.6680  102.3620  -39.5490 H   0  0  0  0  0  0  0  0  0  0  0  0
   91.0330  100.7040  -39.6620 H   0  0  0  0  0  0  0  0  0  0  0  0
   92.6150   97.8320  -47.8550 H   0  0  0  0  0  0  0  0  0  0  0  0
   91.2430   98.8740  -48.3320 H   0  0  0  0  0  0  0  0  0  0  0  0
   92.8020   99.6390  -47.8240 H   0  0  0  0  0  0  0  0  0  0  0  0
  2  3  1  0  0  0  0
  2  1  1  0  0  0  0
  3 27  1  0  0  0  0
  4 11  1  0  0  0  0
  4  3  2  0  0  0  0
  5  4  1  0  0  0  0
  6  7  1  0  0  0  0
  6  5  2  0  0  0  0
  7  2  2  0  0  0  0
  8  5  1  0  0  0  0
  8  9  1  0  0  0  0
 10  9  2  0  0  0  0
 11  9  1  6  0  0  0
 11 16  1  0  0  0  0
 11 12  1  0  0  0  0
 12 13  2  0  0  0  0
 13 20  1  0  0  0  0
 13 14  1  0  0  0  0
 14 30  1  0  0  0  0
 15 19  1  0  0  0  0
 15 14  1  0  0  0  0
 16 15  2  0  0  0  0
 17 16  1  0  0  0  0
 18 17  3  0  0  0  0
 19 32  1  0  0  0  0
 20 24  1  0  0  0  0
 20 25  1  0  0  0  0
 21 20  1  0  0  0  0
 22 12  1  0  0  0  0
 22 21  1  0  0  0  0
 23 22  2  0  0  0  0
 24 35  1  0  0  0  0
 24 34  1  0  0  0  0
 25 38  1  0  0  0  0
 25 37  1  0  0  0  0
 26  8  1  0  0  0  0
 28  6  1  0  0  0  0
 29  7  1  0  0  0  0
 31 19  1  0  0  0  0
 33 24  1  0  0  0  0
 36 25  1  0  0  0  0
 39 26  1  0  0  0  0
 40 26  1  0  0  0  0
 41 26  1  0  0  0  0
M  END
>  <Pose>
1

>  <Score>
-4.28

$$$$
