
 OpenBabel03212208273D

 41 44  0  0  0  0  0  0  0  0999 V2000
   84.3070   95.3060  -47.3610 B   0  0  0  0  0  0  0  0  0  0  0  0
   84.7730   96.4660  -45.9330 C   0  0  0  0  0  0  0  0  0  0  0  0
   86.0010   97.0570  -45.8520 C   0  0  0  0  0  0  0  0  0  0  0  0
   86.3290   97.8950  -44.8080 C   0  0  0  0  0  0  0  0  0  0  0  0
   85.4580   98.1820  -43.8050 C   0  0  0  0  0  0  0  0  0  0  0  0
   84.1980   97.5810  -43.8800 C   0  0  0  0  0  0  0  0  0  0  0  0
   83.8660   96.7460  -44.9180 C   0  0  0  0  0  0  0  0  0  0  0  0
   86.0230   99.0590  -42.8550 N   0  0  0  0  0  0  0  0  0  0  0  0
   87.3610   99.3750  -43.2480 C   0  0  0  0  0  0  0  0  0  0  0  0
   88.2110  100.0930  -42.7170 O   0  0  0  0  0  0  0  0  0  0  0  0
   87.5720   98.6210  -44.5190 C   0  0  0  0  0  0  0  0  0  0  0  0
   88.6070   98.6960  -45.1050 N   0  0  0  0  0  0  0  0  0  0  0  0
   89.8280   99.2650  -45.0440 N   0  0  0  0  0  0  0  0  0  0  0  0
   90.8590   98.6640  -44.2980 C   0  0  0  0  0  0  0  0  0  0  0  0
   90.5470   98.0690  -43.2060 O   0  0  0  0  0  0  0  0  0  0  0  0
   92.2870   98.6200  -44.6240 C   0  0  0  0  0  0  0  0  0  0  0  0
   93.1720   99.2670  -43.6970 N   0  0  0  0  0  0  0  0  0  0  0  0
   93.0300  100.6440  -43.3660 C   0  0  0  0  0  0  0  0  0  0  0  0
   92.9000  101.4490  -44.3690 O   0  0  0  0  0  0  0  0  0  0  0  0
   93.0230  101.2060  -42.0510 C   0  0  0  0  0  0  0  0  0  0  0  0
   94.1460  101.5850  -41.3310 C   0  0  0  0  0  0  0  0  0  0  0  0
   94.0690  102.1190  -40.0900 C   0  0  0  0  0  0  0  0  0  0  0  0
   92.8500  102.3160  -39.4730 C   0  0  0  0  0  0  0  0  0  0  0  0
   91.7210  101.9550  -40.1400 C   0  0  0  0  0  0  0  0  0  0  0  0
   91.7810  101.4020  -41.4280 C   0  0  0  0  0  0  0  0  0  0  0  0
   93.0770  102.8870  -38.2110 O   0  0  0  0  0  0  0  0  0  0  0  0
   94.2770  103.6630  -38.4420 C   0  0  0  0  0  0  0  0  0  0  0  0
   95.0330  102.6040  -39.1300 O   0  0  0  0  0  0  0  0  0  0  0  0
   86.7270   96.8720  -46.6100 H   0  0  0  0  0  0  0  0  0  0  0  0
   83.5040   97.7870  -43.1110 H   0  0  0  0  0  0  0  0  0  0  0  0
   82.9060   96.2650  -45.0200 H   0  0  0  0  0  0  0  0  0  0  0  0
   85.5730   99.4360  -41.9860 H   0  0  0  0  0  0  0  0  0  0  0  0
   90.0250  100.1700  -45.5530 H   0  0  0  0  0  0  0  0  0  0  0  0
   92.5850   97.5370  -44.6420 H   0  0  0  0  0  0  0  0  0  0  0  0
   92.4540   99.0230  -45.6480 H   0  0  0  0  0  0  0  0  0  0  0  0
   93.9540   98.7690  -43.2460 H   0  0  0  0  0  0  0  0  0  0  0  0
   95.1410  101.4360  -41.7880 H   0  0  0  0  0  0  0  0  0  0  0  0
   90.7400  102.1040  -39.6520 H   0  0  0  0  0  0  0  0  0  0  0  0
   90.9230  101.1220  -41.9490 H   0  0  0  0  0  0  0  0  0  0  0  0
   94.7690  104.0250  -37.5750 H   0  0  0  0  0  0  0  0  0  0  0  0
   94.0560  104.4500  -39.1660 H   0  0  0  0  0  0  0  0  0  0  0  0
  1  2  1  0  0  0  0
  2  3  2  0  0  0  0
  2  7  1  0  0  0  0
  3  4  1  0  0  0  0
  4 11  1  0  0  0  0
  4  5  2  0  0  0  0
  5  8  1  0  0  0  0
  6  5  1  0  0  0  0
  6 30  1  0  0  0  0
  7  6  2  0  0  0  0
  8 32  1  0  0  0  0
  9  8  1  0  0  0  0
  9 10  2  0  0  0  0
 11  9  1  0  0  0  0
 12 13  1  0  0  0  0
 12 11  2  0  0  0  0
 13 14  1  0  0  0  0
 14 15  2  0  0  0  0
 16 14  1  0  0  0  0
 16 17  1  0  0  0  0
 17 18  1  0  0  0  0
 17 36  1  0  0  0  0
 18 20  1  0  0  0  0
 19 18  2  0  0  0  0
 20 25  2  0  0  0  0
 20 21  1  0  0  0  0
 21 22  2  0  0  0  0
 22 23  1  0  0  0  0
 22 28  1  0  0  0  0
 23 26  1  0  0  0  0
 24 38  1  0  0  0  0
 24 23  2  0  0  0  0
 25 24  1  0  0  0  0
 27 26  1  0  0  0  0
 27 40  1  0  0  0  0
 28 27  1  0  0  0  0
 29  3  1  0  0  0  0
 31  7  1  0  0  0  0
 33 13  1  0  0  0  0
 34 16  1  0  0  0  0
 35 16  1  0  0  0  0
 37 21  1  0  0  0  0
 39 25  1  0  0  0  0
 41 27  1  0  0  0  0
M  END
>  <Pose>
1

>  <Score>
-5.35

$$$$
