
 OpenBabel03212208273D

 51 56  0  0  1  0  0  0  0  0999 V2000
   95.9690  103.3430  -41.5080 B   0  0  0  0  0  0  0  0  0  0  0  0
   94.2760  102.4910  -41.2940 C   0  0  0  0  0  0  0  0  0  0  0  0
   93.7920  101.5670  -42.2120 C   0  0  0  0  0  0  0  0  0  0  0  0
   92.5760  100.9590  -42.0520 C   0  0  0  0  0  0  0  0  0  0  0  0
   91.8370  101.3030  -40.9300 C   0  0  0  0  0  0  0  0  0  0  0  0
   92.3110  102.2190  -40.0150 C   0  0  0  0  0  0  0  0  0  0  0  0
   93.5340  102.8240  -40.1860 C   0  0  0  0  0  0  0  0  0  0  0  0
   90.6040  100.5800  -40.9120 N   0  0  0  0  0  0  0  0  0  0  0  0
   90.5500   99.7510  -42.0540 C   0  0  0  0  0  0  0  0  0  0  0  0
   89.6060   98.9940  -42.3230 O   0  0  0  0  0  0  0  0  0  0  0  0
   91.8010   99.9790  -42.8080 C   0  0  1  0  0  0  0  0  0  0  0  0
   91.4300  100.3590  -44.1380 N   0  0  2  0  0  0  0  0  0  0  0  0
   91.0110   99.1050  -44.7620 C   0  0  2  0  0  0  0  0  0  0  0  0
   91.8490   98.0300  -44.1500 C   0  0  1  0  0  0  0  0  0  0  0  0
   92.5760   98.7050  -43.0390 C   0  0  2  0  0  0  0  0  0  0  0  0
   92.5080   97.7700  -41.9210 C   0  0  0  0  0  0  0  0  0  0  0  0
   93.1130   97.8730  -40.8300 O   0  0  0  0  0  0  0  0  0  0  0  0
   91.6440   96.7110  -42.2500 N   0  0  0  0  0  0  0  0  0  0  0  0
   91.0230   96.9500  -43.5220 C   0  0  0  0  0  0  0  0  0  0  0  0
   90.0120   96.3990  -44.0250 O   0  0  0  0  0  0  0  0  0  0  0  0
   91.3960   95.5480  -41.4560 C   0  0  0  0  0  0  0  0  0  0  0  0
   91.9230   94.2760  -42.0120 C   0  0  2  0  0  0  0  0  0  0  0  0
   93.1050   93.8490  -41.4170 O   0  0  0  0  0  0  0  0  0  0  0  0
   93.5270   92.8100  -42.2350 C   0  0  0  0  0  0  0  0  0  0  0  0
   93.1910   93.1630  -43.6500 C   0  0  0  0  0  0  0  0  0  0  0  0
   92.1360   94.2570  -43.4870 C   0  0  0  0  0  0  0  0  0  0  0  0
   91.3980   99.2320  -46.2280 C   0  0  0  0  0  0  0  0  0  0  0  0
   92.0010  100.6120  -46.3820 C   0  0  0  0  0  0  0  0  0  0  0  0
   92.5220  100.8430  -44.9570 C   0  0  0  0  0  0  0  0  0  0  0  0
   94.4500  101.3650  -43.0600 H   0  0  0  0  0  0  0  0  0  0  0  0
   91.7390  102.5050  -39.1190 H   0  0  0  0  0  0  0  0  0  0  0  0
   93.9050  103.5570  -39.4470 H   0  0  0  0  0  0  0  0  0  0  0  0
   89.8640  100.6690  -40.1550 H   0  0  0  0  0  0  0  0  0  0  0  0
   89.9290   98.9480  -44.6460 H   0  0  0  0  0  0  0  0  0  0  0  0
   92.5410   97.5640  -44.9020 H   0  0  0  0  0  0  0  0  0  0  0  0
   93.6100   98.9930  -43.3120 H   0  0  0  0  0  0  0  0  0  0  0  0
   91.8730   95.7100  -40.4650 H   0  0  0  0  0  0  0  0  0  0  0  0
   90.3110   95.3950  -41.2360 H   0  0  0  0  0  0  0  0  0  0  0  0
   91.1660   93.4770  -41.7790 H   0  0  0  0  0  0  0  0  0  0  0  0
   94.6520   92.7820  -42.1610 H   0  0  0  0  0  0  0  0  0  0  0  0
   93.1390   91.8230  -41.9130 H   0  0  0  0  0  0  0  0  0  0  0  0
   92.7740   92.3120  -44.2260 H   0  0  0  0  0  0  0  0  0  0  0  0
   94.0540   93.6320  -44.1670 H   0  0  0  0  0  0  0  0  0  0  0  0
   92.4460   95.1980  -43.9370 H   0  0  0  0  0  0  0  0  0  0  0  0
   91.1930   93.9410  -44.0230 H   0  0  0  0  0  0  0  0  0  0  0  0
   90.5560   99.0460  -46.9040 H   0  0  0  0  0  0  0  0  0  0  0  0
   92.1950   98.4980  -46.5080 H   0  0  0  0  0  0  0  0  0  0  0  0
   91.2770  101.3810  -46.6580 H   0  0  0  0  0  0  0  0  0  0  0  0
   92.8510  100.6470  -47.0620 H   0  0  0  0  0  0  0  0  0  0  0  0
   92.7350  101.9040  -44.8270 H   0  0  0  0  0  0  0  0  0  0  0  0
   93.4390  100.2480  -44.8940 H   0  0  0  0  0  0  0  0  0  0  0  0
  1  2  1  0  0  0  0
  2  7  1  0  0  0  0
  3  4  1  0  0  0  0
  3  2  2  0  0  0  0
  4  5  2  0  0  0  0
  5  8  1  0  0  0  0
  5  6  1  0  0  0  0
  6 31  1  0  0  0  0
  7  6  2  0  0  0  0
  7 32  1  0  0  0  0
  8 33  1  0  0  0  0
  9  8  1  0  0  0  0
 10  9  2  0  0  0  0
 11  9  1  1  0  0  0
 11  4  1  0  0  0  0
 12 29  1  6  0  0  0
 12 11  1  0  0  0  0
 13 34  1  1  0  0  0
 13 14  1  0  0  0  0
 13 12  1  0  0  0  0
 14 35  1  6  0  0  0
 14 19  1  0  0  0  0
 14 15  1  0  0  0  0
 15 36  1  6  0  0  0
 15 11  1  0  0  0  0
 15 16  1  0  0  0  0
 16 17  2  0  0  0  0
 18 16  1  0  0  0  0
 18 21  1  0  0  0  0
 19 18  1  0  0  0  0
 20 19  2  0  0  0  0
 21 38  1  0  0  0  0
 21 37  1  0  0  0  0
 22 39  1  1  0  0  0
 22 21  1  0  0  0  0
 22 23  1  0  0  0  0
 24 40  1  0  0  0  0
 24 41  1  0  0  0  0
 24 23  1  0  0  0  0
 25 26  1  0  0  0  0
 25 24  1  0  0  0  0
 26 22  1  0  0  0  0
 27 13  1  0  0  0  0
 28 27  1  0  0  0  0
 28 29  1  0  0  0  0
 29 51  1  0  0  0  0
 29 50  1  0  0  0  0
 30  3  1  0  0  0  0
 42 25  1  0  0  0  0
 43 25  1  0  0  0  0
 44 26  1  0  0  0  0
 45 26  1  0  0  0  0
 46 27  1  0  0  0  0
 47 27  1  0  0  0  0
 48 28  1  0  0  0  0
 49 28  1  0  0  0  0
M  END
>  <Pose>
1

>  <Score>
-5.01

$$$$
