
 OpenBabel03212208273D

 41 44  0  0  1  0  0  0  0  0999 V2000
   85.7660   98.3480  -44.3700 B   0  0  0  0  0  0  0  0  0  0  0  0
   87.5030   98.5340  -45.1350 C   0  0  0  0  0  0  0  0  0  0  0  0
   88.5470   97.9370  -44.4720 C   0  0  0  0  0  0  0  0  0  0  0  0
   89.8400   98.0440  -44.9940 C   0  0  0  0  0  0  0  0  0  0  0  0
   90.0350   98.7370  -46.1450 C   0  0  0  0  0  0  0  0  0  0  0  0
   88.9790   99.3560  -46.8400 C   0  0  0  0  0  0  0  0  0  0  0  0
   87.7190   99.2340  -46.3030 C   0  0  0  0  0  0  0  0  0  0  0  0
   91.4040   98.7360  -46.5040 N   0  0  0  0  0  0  0  0  0  0  0  0
   92.0950   98.0100  -45.5320 C   0  0  0  0  0  0  0  0  0  0  0  0
   93.3650   97.7810  -45.4870 O   0  0  0  0  0  0  0  0  0  0  0  0
   91.1120   97.5220  -44.5200 C   0  0  2  0  0  0  0  0  0  0  0  0
   91.2570   96.0900  -44.4820 C   0  0  0  0  0  0  0  0  0  0  0  0
   91.7490   95.4640  -43.3990 C   0  0  0  0  0  0  0  0  0  0  0  0
   91.7560   94.1200  -43.6840 N   0  0  0  0  0  0  0  0  0  0  0  0
   91.2840   93.9480  -44.9000 N   0  0  0  0  0  0  0  0  0  0  0  0
   90.9550   95.1150  -45.4550 C   0  0  0  0  0  0  0  0  0  0  0  0
   90.3890   95.3750  -46.8110 C   0  0  0  0  0  0  0  0  0  0  0  0
   92.1550   96.1380  -42.2330 O   0  0  0  0  0  0  0  0  0  0  0  0
   92.0230   97.5210  -42.2490 C   0  0  0  0  0  0  0  0  0  0  0  0
   91.5550   98.1790  -43.2670 C   0  0  0  0  0  0  0  0  0  0  0  0
   91.4540   99.6650  -43.1800 C   0  0  0  0  0  0  0  0  0  0  0  0
   90.3980  100.1500  -42.7360 O   0  0  0  0  0  0  0  0  0  0  0  0
   92.4610  100.5080  -43.5620 O   0  0  0  0  0  0  0  0  0  0  0  0
   92.6150  101.8320  -43.1090 C   0  0  0  0  0  0  0  0  0  0  0  0
   93.5940  101.7980  -41.9310 C   0  0  0  0  0  0  0  0  0  0  0  0
   92.4190   98.2850  -41.0880 N   0  0  0  0  0  0  0  0  0  0  0  0
   88.3910   97.3770  -43.5420 H   0  0  0  0  0  0  0  0  0  0  0  0
   89.1400   99.9020  -47.7500 H   0  0  0  0  0  0  0  0  0  0  0  0
   86.8710   99.6900  -46.7980 H   0  0  0  0  0  0  0  0  0  0  0  0
   91.8590   99.1910  -47.3470 H   0  0  0  0  0  0  0  0  0  0  0  0
   92.0840   93.3640  -43.0410 H   0  0  0  0  0  0  0  0  0  0  0  0
   90.1350   94.4170  -47.3070 H   0  0  0  0  0  0  0  0  0  0  0  0
   91.1970   95.8410  -47.4090 H   0  0  0  0  0  0  0  0  0  0  0  0
   89.4600   95.9680  -46.7780 H   0  0  0  0  0  0  0  0  0  0  0  0
   91.6680  102.3030  -42.8280 H   0  0  0  0  0  0  0  0  0  0  0  0
   93.1120  102.4270  -43.9060 H   0  0  0  0  0  0  0  0  0  0  0  0
   94.3460  100.9950  -42.0710 H   0  0  0  0  0  0  0  0  0  0  0  0
   94.1340  102.7570  -41.8240 H   0  0  0  0  0  0  0  0  0  0  0  0
   93.0100  101.6520  -40.9900 H   0  0  0  0  0  0  0  0  0  0  0  0
   91.7780   98.3180  -40.2920 H   0  0  0  0  0  0  0  0  0  0  0  0
   93.3190   98.7660  -41.0900 H   0  0  0  0  0  0  0  0  0  0  0  0
  2  3  1  0  0  0  0
  2  1  1  0  0  0  0
  3 27  1  0  0  0  0
  4 11  1  0  0  0  0
  4  3  2  0  0  0  0
  5  4  1  0  0  0  0
  6  7  1  0  0  0  0
  6  5  2  0  0  0  0
  7  2  2  0  0  0  0
  8  5  1  0  0  0  0
  8  9  1  0  0  0  0
  9 10  2  0  0  0  0
 11  9  1  6  0  0  0
 11 12  1  0  0  0  0
 11 20  1  0  0  0  0
 12 13  2  0  0  0  0
 13 18  1  0  0  0  0
 14 13  1  0  0  0  0
 14 31  1  0  0  0  0
 15 14  1  0  0  0  0
 16 15  2  0  0  0  0
 16 12  1  0  0  0  0
 17 34  1  0  0  0  0
 17 16  1  0  0  0  0
 19 18  1  0  0  0  0
 19 26  1  0  0  0  0
 20 21  1  0  0  0  0
 20 19  2  0  0  0  0
 21 22  2  0  0  0  0
 23 21  1  0  0  0  0
 23 24  1  0  0  0  0
 24 35  1  0  0  0  0
 24 25  1  0  0  0  0
 25 38  1  0  0  0  0
 25 39  1  0  0  0  0
 26 40  1  0  0  0  0
 28  6  1  0  0  0  0
 29  7  1  0  0  0  0
 30  8  1  0  0  0  0
 32 17  1  0  0  0  0
 33 17  1  0  0  0  0
 36 24  1  0  0  0  0
 37 25  1  0  0  0  0
 41 26  1  0  0  0  0
M  END
>  <Pose>
1

>  <Score>
-4.90

$$$$
