
 OpenBabel03212208273D

 49 52  0  0  1  0  0  0  0  0999 V2000
   84.2230   97.7440  -44.0240 B   0  0  0  0  0  0  0  0  0  0  0  0
   85.4840   99.0450  -43.3890 C   0  0  0  0  0  0  0  0  0  0  0  0
   86.8470   98.8690  -43.5350 C   0  0  0  0  0  0  0  0  0  0  0  0
   87.7610   99.7980  -43.0820 C   0  0  0  0  0  0  0  0  0  0  0  0
   87.2420  100.9200  -42.4690 C   0  0  0  0  0  0  0  0  0  0  0  0
   85.8710  101.1010  -42.3190 C   0  0  0  0  0  0  0  0  0  0  0  0
   84.9900  100.1690  -42.7760 C   0  0  0  0  0  0  0  0  0  0  0  0
   88.3280  101.7660  -42.0590 N   0  0  0  0  0  0  0  0  0  0  0  0
   89.5540  101.1560  -42.4230 C   0  0  0  0  0  0  0  0  0  0  0  0
   90.6820  101.6490  -42.1900 O   0  0  0  0  0  0  0  0  0  0  0  0
   89.2400   99.8810  -43.1020 C   0  0  1  0  0  0  0  0  0  0  0  0
   89.8640   98.7710  -42.4330 N   0  0  0  0  0  0  0  0  0  0  0  0
   91.2270   98.7940  -42.9200 C   0  0  2  0  0  0  0  0  0  0  0  0
   91.0730   99.0720  -44.3920 C   0  0  2  0  0  0  0  0  0  0  0  0
   89.8160   99.9030  -44.4730 C   0  0  1  0  0  0  0  0  0  0  0  0
   88.9980   99.2710  -45.5170 C   0  0  0  0  0  0  0  0  0  0  0  0
   87.9210   99.7070  -45.9970 O   0  0  0  0  0  0  0  0  0  0  0  0
   89.6160   98.0330  -45.9380 N   0  0  0  0  0  0  0  0  0  0  0  0
   90.8060   97.8540  -45.1870 C   0  0  0  0  0  0  0  0  0  0  0  0
   91.5020   96.8110  -45.2120 O   0  0  0  0  0  0  0  0  0  0  0  0
   89.1270   97.1240  -46.9450 C   0  0  0  0  0  0  0  0  0  0  0  0
   89.9510   95.8610  -47.0130 C   0  0  0  0  0  0  0  0  0  0  0  0
   87.6710   96.7710  -46.6280 C   0  0  0  0  0  0  0  0  0  0  0  0
   89.1740   97.7630  -48.3160 C   0  0  0  0  0  0  0  0  0  0  0  0
   91.9140   97.4890  -42.6190 C   0  0  0  0  0  0  0  0  0  0  0  0
   92.5850   97.5340  -41.3100 C   0  0  0  0  0  0  0  0  0  0  0  0
   92.8650   96.4470  -40.7350 O   0  0  0  0  0  0  0  0  0  0  0  0
   92.9500   98.7240  -40.6310 N   0  0  0  0  0  0  0  0  0  0  0  0
   87.1600   97.9640  -44.0230 H   0  0  0  0  0  0  0  0  0  0  0  0
   85.4730  101.9860  -41.8370 H   0  0  0  0  0  0  0  0  0  0  0  0
   83.9180  100.3410  -42.6420 H   0  0  0  0  0  0  0  0  0  0  0  0
   88.1860  102.6770  -41.5710 H   0  0  0  0  0  0  0  0  0  0  0  0
   89.4170   97.8950  -42.7490 H   0  0  0  0  0  0  0  0  0  0  0  0
   91.8330   99.5920  -42.4260 H   0  0  0  0  0  0  0  0  0  0  0  0
   91.9050   99.6430  -44.8290 H   0  0  0  0  0  0  0  0  0  0  0  0
   90.0470  100.9560  -44.7490 H   0  0  0  0  0  0  0  0  0  0  0  0
   90.9950   96.1420  -47.2620 H   0  0  0  0  0  0  0  0  0  0  0  0
   89.6110   95.2230  -47.8660 H   0  0  0  0  0  0  0  0  0  0  0  0
   89.8600   95.2560  -46.0870 H   0  0  0  0  0  0  0  0  0  0  0  0
   87.6740   96.3760  -45.5920 H   0  0  0  0  0  0  0  0  0  0  0  0
   87.2850   96.0250  -47.3290 H   0  0  0  0  0  0  0  0  0  0  0  0
   87.1160   97.7390  -46.6500 H   0  0  0  0  0  0  0  0  0  0  0  0
   89.2960   96.9600  -49.0680 H   0  0  0  0  0  0  0  0  0  0  0  0
   88.2620   98.3260  -48.5650 H   0  0  0  0  0  0  0  0  0  0  0  0
   90.0330   98.4560  -48.3390 H   0  0  0  0  0  0  0  0  0  0  0  0
   91.0770   96.7360  -42.5090 H   0  0  0  0  0  0  0  0  0  0  0  0
   92.5320   97.1050  -43.4400 H   0  0  0  0  0  0  0  0  0  0  0  0
   92.5620   99.0400  -39.7310 H   0  0  0  0  0  0  0  0  0  0  0  0
   93.6780   99.3310  -41.0930 H   0  0  0  0  0  0  0  0  0  0  0  0
  1  2  1  0  0  0  0
  2  7  1  0  0  0  0
  3  2  2  0  0  0  0
  3  4  1  0  0  0  0
  4  5  2  0  0  0  0
  5  6  1  0  0  0  0
  5  8  1  0  0  0  0
  6 30  1  0  0  0  0
  7 31  1  0  0  0  0
  7  6  2  0  0  0  0
  8 32  1  0  0  0  0
  9 10  2  0  0  0  0
  9  8  1  0  0  0  0
 11  4  1  6  0  0  0
 11 12  1  0  0  0  0
 11  9  1  0  0  0  0
 13 25  1  0  0  0  0
 13 12  1  0  0  0  0
 13 34  1  1  0  0  0
 14 35  1  6  0  0  0
 14 13  1  0  0  0  0
 15 36  1  6  0  0  0
 15 14  1  0  0  0  0
 15 11  1  0  0  0  0
 16 15  1  0  0  0  0
 17 16  2  0  0  0  0
 18 16  1  0  0  0  0
 18 19  1  0  0  0  0
 19 14  1  0  0  0  0
 20 19  2  0  0  0  0
 21 23  1  0  0  0  0
 21 18  1  0  0  0  0
 22 21  1  0  0  0  0
 22 39  1  0  0  0  0
 23 40  1  0  0  0  0
 24 21  1  0  0  0  0
 25 46  1  0  0  0  0
 25 26  1  0  0  0  0
 26 27  2  0  0  0  0
 26 28  1  0  0  0  0
 28 48  1  0  0  0  0
 29  3  1  0  0  0  0
 33 12  1  0  0  0  0
 37 22  1  0  0  0  0
 38 22  1  0  0  0  0
 41 23  1  0  0  0  0
 42 23  1  0  0  0  0
 43 24  1  0  0  0  0
 44 24  1  0  0  0  0
 45 24  1  0  0  0  0
 47 25  1  0  0  0  0
 49 28  1  0  0  0  0
M  END
>  <Pose>
1

>  <Score>
-6.08

$$$$
