
 OpenBabel03212208273D

 51 54  0  0  0  0  0  0  0  0999 V2000
   83.6010  101.0230  -44.3470 B   0  0  0  0  0  0  0  0  0  0  0  0
   85.3180  100.4340  -43.7600 C   0  0  0  0  0  0  0  0  0  0  0  0
   86.2940  101.3530  -43.3840 C   0  0  0  0  0  0  0  0  0  0  0  0
   87.5440  100.9270  -42.9560 C   0  0  0  0  0  0  0  0  0  0  0  0
   87.8290   99.5790  -42.9000 C   0  0  0  0  0  0  0  0  0  0  0  0
   89.0490   99.1600  -42.4780 N   0  0  0  0  0  0  0  0  0  0  0  0
   90.0070  100.0280  -42.1060 C   0  0  0  0  0  0  0  0  0  0  0  0
   89.7110  101.3320  -42.1670 N   0  0  0  0  0  0  0  0  0  0  0  0
   88.5250  101.8180  -42.5760 C   0  0  0  0  0  0  0  0  0  0  0  0
   88.3060  103.2550  -42.6040 C   0  0  0  0  0  0  0  0  0  0  0  0
   89.1430  104.0790  -43.3440 C   0  0  0  0  0  0  0  0  0  0  0  0
   88.9580  105.4440  -43.4060 C   0  0  0  0  0  0  0  0  0  0  0  0
   87.9210  106.0520  -42.7290 C   0  0  0  0  0  0  0  0  0  0  0  0
   87.0840  105.2260  -41.9890 C   0  0  0  0  0  0  0  0  0  0  0  0
   87.2760  103.8630  -41.9320 C   0  0  0  0  0  0  0  0  0  0  0  0
   90.4790  103.3290  -44.2210 Cl  0  0  0  0  0  0  0  0  0  0  0  0
   91.2820   99.5470  -41.6630 N   0  0  0  0  0  4  0  0  0  0  0  0
   92.2840  100.5610  -41.8520 C   0  0  0  0  0  0  0  0  0  0  0  0
   92.7160  100.7440  -43.2670 C   0  0  0  0  0  0  0  0  0  0  0  0
   92.2790   99.6650  -44.1250 N   0  0  0  0  0  0  0  0  0  0  0  0
   92.2980   98.3350  -43.5570 C   0  0  0  0  0  0  0  0  0  0  0  0
   91.6320   98.2760  -42.2170 C   0  0  0  0  0  0  0  0  0  0  0  0
   91.8680   99.9680  -45.4450 C   0  0  0  0  0  0  0  0  0  0  0  0
   90.6840   99.7880  -45.8070 O   0  0  0  0  0  0  0  0  0  0  0  0
   92.9140  100.5070  -46.3620 C   0  0  0  0  0  0  0  0  0  0  0  0
   92.4410  100.5290  -47.7840 C   0  0  0  0  0  0  0  0  0  0  0  0
   93.5200  100.7750  -48.7520 C   0  0  0  0  0  0  0  0  0  0  0  0
   93.8690  101.9340  -49.0610 O   0  0  0  0  0  0  0  0  0  0  0  0
   94.1650   99.7030  -49.3340 O   0  0  0  0  0  0  0  0  0  0  0  0
   86.8400   98.6820  -43.2810 C   0  0  0  0  0  0  0  0  0  0  0  0
   85.5930   99.0840  -43.7080 C   0  0  0  0  0  0  0  0  0  0  0  0
   86.0760  102.3950  -43.4210 H   0  0  0  0  0  0  0  0  0  0  0  0
   89.6110  106.0840  -43.9820 H   0  0  0  0  0  0  0  0  0  0  0  0
   87.7680  107.1250  -42.7730 H   0  0  0  0  0  0  0  0  0  0  0  0
   86.2670  105.6820  -41.4510 H   0  0  0  0  0  0  0  0  0  0  0  0
   86.5870  103.2850  -41.3450 H   0  0  0  0  0  0  0  0  0  0  0  0
   91.1730   99.4470  -40.6090 H   0  0  0  0  0  0  0  0  0  0  0  0
   91.8960  101.5090  -41.4350 H   0  0  0  0  0  0  0  0  0  0  0  0
   93.1620  100.2620  -41.2240 H   0  0  0  0  0  0  0  0  0  0  0  0
   93.8410  100.7390  -43.3160 H   0  0  0  0  0  0  0  0  0  0  0  0
   92.3690  101.7330  -43.6260 H   0  0  0  0  0  0  0  0  0  0  0  0
   91.8720   97.5780  -44.2480 H   0  0  0  0  0  0  0  0  0  0  0  0
   93.3920   98.1070  -43.3910 H   0  0  0  0  0  0  0  0  0  0  0  0
   92.2980   97.7660  -41.4690 H   0  0  0  0  0  0  0  0  0  0  0  0
   90.7000   97.6660  -42.2810 H   0  0  0  0  0  0  0  0  0  0  0  0
   93.1280  101.5530  -46.0590 H   0  0  0  0  0  0  0  0  0  0  0  0
   93.8670   99.9490  -46.2690 H   0  0  0  0  0  0  0  0  0  0  0  0
   91.7110  101.3720  -47.8810 H   0  0  0  0  0  0  0  0  0  0  0  0
   91.8880   99.5980  -48.0200 H   0  0  0  0  0  0  0  0  0  0  0  0
   87.0580   97.6390  -43.2400 H   0  0  0  0  0  0  0  0  0  0  0  0
   84.8090   98.4000  -44.0100 H   0  0  0  0  0  0  0  0  0  0  0  0
  1  2  1  0  0  0  0
  2 31  2  0  0  0  0
  2  3  1  0  0  0  0
  3  4  2  0  0  0  0
  4  5  1  0  0  0  0
  4  9  1  0  0  0  0
  5  6  1  0  0  0  0
  6  7  2  0  0  0  0
  7 17  1  0  0  0  0
  8  7  1  0  0  0  0
  9  8  2  0  0  0  0
 10  9  1  0  0  0  0
 10 15  1  0  0  0  0
 11 10  2  0  0  0  0
 12 11  1  0  0  0  0
 12 13  2  0  0  0  0
 13 14  1  0  0  0  0
 14 15  2  0  0  0  0
 14 35  1  0  0  0  0
 15 36  1  0  0  0  0
 16 11  1  0  0  0  0
 17 37  1  0  0  0  0
 18 17  1  0  0  0  0
 18 38  1  0  0  0  0
 18 39  1  0  0  0  0
 19 18  1  0  0  0  0
 20 21  1  0  0  0  0
 20 19  1  0  0  0  0
 21 43  1  0  0  0  0
 21 22  1  0  0  0  0
 22 17  1  0  0  0  0
 22 44  1  0  0  0  0
 23 20  1  0  0  0  0
 24 23  2  0  0  0  0
 25 47  1  0  0  0  0
 25 46  1  0  0  0  0
 25 23  1  0  0  0  0
 26 25  1  0  0  0  0
 27 26  1  0  0  0  0
 28 27  1  0  0  0  0
 29 27  2  0  0  0  0
 30 50  1  0  0  0  0
 30  5  2  0  0  0  0
 31 30  1  0  0  0  0
 32  3  1  0  0  0  0
 33 12  1  0  0  0  0
 34 13  1  0  0  0  0
 40 19  1  0  0  0  0
 41 19  1  0  0  0  0
 42 21  1  0  0  0  0
 45 22  1  0  0  0  0
 48 26  1  0  0  0  0
 49 26  1  0  0  0  0
 51 31  1  0  0  0  0
M  END
>  <Pose>
1

>  <Score>
-3.96

$$$$
