
 OpenBabel03212208273D

 37 40  0  0  0  0  0  0  0  0999 V2000
   91.3960   91.7330  -47.2010 B   0  0  0  0  0  0  0  0  0  0  0  0
   91.5650   92.8990  -45.7040 C   0  0  0  0  0  0  0  0  0  0  0  0
   91.9350   92.3700  -44.4860 C   0  0  0  0  0  0  0  0  0  0  0  0
   92.0680   93.2010  -43.3660 C   0  0  0  0  0  0  0  0  0  0  0  0
   91.8240   94.5270  -43.5200 C   0  0  0  0  0  0  0  0  0  0  0  0
   91.4510   95.1010  -44.7160 C   0  0  0  0  0  0  0  0  0  0  0  0
   91.3270   94.2680  -45.7970 C   0  0  0  0  0  0  0  0  0  0  0  0
   91.2350   96.4530  -44.7290 C   0  0  0  0  0  0  0  0  0  0  0  0
   90.9000   96.9840  -45.8000 O   0  0  0  0  0  0  0  0  0  0  0  0
   91.3770   97.2450  -43.5990 C   0  0  0  0  0  0  0  0  0  0  0  0
   91.7510   96.6100  -42.4350 C   0  0  0  0  0  0  0  0  0  0  0  0
   91.9690   95.2550  -42.4120 N   0  0  0  0  0  0  0  0  0  0  0  0
   92.3610   94.3520  -41.3530 C   0  0  0  0  0  0  0  0  0  0  0  0
   92.4340   92.9770  -41.9570 C   0  0  0  0  0  0  0  0  0  0  0  0
   91.1440   98.6850  -43.6300 C   0  0  0  0  0  0  0  0  0  0  0  0
   89.9910   99.1220  -43.4100 O   0  0  0  0  0  0  0  0  0  0  0  0
   92.2160   99.5970  -43.9090 N   0  0  0  0  0  0  0  0  0  0  0  0
   92.6700  100.5650  -42.9330 C   0  0  0  0  0  0  0  0  0  0  0  0
   92.6150  101.9290  -43.6330 C   0  0  0  0  0  0  0  0  0  0  0  0
   93.3150  101.8630  -44.8140 O   0  0  0  0  0  0  0  0  0  0  0  0
   92.7710  101.0050  -45.7470 C   0  0  0  0  0  0  0  0  0  0  0  0
   92.8930   99.5840  -45.1900 C   0  0  0  0  0  0  0  0  0  0  0  0
   92.1340   91.3180  -44.3440 H   0  0  0  0  0  0  0  0  0  0  0  0
   91.0400   94.6920  -46.7370 H   0  0  0  0  0  0  0  0  0  0  0  0
   91.8860   97.1390  -41.5070 H   0  0  0  0  0  0  0  0  0  0  0  0
   91.5750   94.3600  -40.5440 H   0  0  0  0  0  0  0  0  0  0  0  0
   93.3240   94.6520  -40.8880 H   0  0  0  0  0  0  0  0  0  0  0  0
   93.4580   92.5490  -41.8470 H   0  0  0  0  0  0  0  0  0  0  0  0
   91.6770   92.2830  -41.4930 H   0  0  0  0  0  0  0  0  0  0  0  0
   93.7700  100.3900  -42.7530 H   0  0  0  0  0  0  0  0  0  0  0  0
   92.0830  100.5660  -42.0080 H   0  0  0  0  0  0  0  0  0  0  0  0
   93.0410  102.7150  -43.0020 H   0  0  0  0  0  0  0  0  0  0  0  0
   91.5720  102.1930  -43.8460 H   0  0  0  0  0  0  0  0  0  0  0  0
   93.4130  101.0400  -46.6500 H   0  0  0  0  0  0  0  0  0  0  0  0
   91.6990  101.2250  -45.9760 H   0  0  0  0  0  0  0  0  0  0  0  0
   93.9910   99.4700  -44.9540 H   0  0  0  0  0  0  0  0  0  0  0  0
   92.5220   98.8320  -45.8820 H   0  0  0  0  0  0  0  0  0  0  0  0
  1  2  1  0  0  0  0
  2  3  1  0  0  0  0
  3 23  1  0  0  0  0
  3  4  2  0  0  0  0
  4 14  1  0  0  0  0
  5  4  1  0  0  0  0
  5 12  1  0  0  0  0
  6  5  2  0  0  0  0
  7  2  2  0  0  0  0
  7  6  1  0  0  0  0
  8  6  1  0  0  0  0
  8 10  1  0  0  0  0
  9  8  2  0  0  0  0
 10 11  2  0  0  0  0
 11 12  1  0  0  0  0
 11 25  1  0  0  0  0
 12 13  1  0  0  0  0
 13 27  1  0  0  0  0
 13 26  1  0  0  0  0
 14 28  1  0  0  0  0
 14 29  1  0  0  0  0
 14 13  1  0  0  0  0
 15 10  1  0  0  0  0
 15 16  2  0  0  0  0
 17 15  1  0  0  0  0
 17 18  1  0  0  0  0
 18 30  1  0  0  0  0
 18 31  1  0  0  0  0
 19 32  1  0  0  0  0
 19 18  1  0  0  0  0
 20 19  1  0  0  0  0
 21 22  1  0  0  0  0
 21 20  1  0  0  0  0
 22 36  1  0  0  0  0
 22 17  1  0  0  0  0
 24  7  1  0  0  0  0
 33 19  1  0  0  0  0
 34 21  1  0  0  0  0
 35 21  1  0  0  0  0
 37 22  1  0  0  0  0
M  END
>  <Pose>
1

>  <Score>
-4.99

$$$$
