
 OpenBabel03212208273D

 51 54  0  0  0  0  0  0  0  0999 V2000
   93.1540   85.9360  -48.7240 B   0  0  0  0  0  0  0  0  0  0  0  0
   91.3810   86.6680  -48.6780 C   0  0  0  0  0  0  0  0  0  0  0  0
   90.3070   85.8080  -48.6510 C   0  0  0  0  0  0  0  0  0  0  0  0
   89.0240   86.2950  -48.6270 C   0  0  0  0  0  0  0  0  0  0  0  0
   87.7870   85.7630  -48.5980 N   0  0  0  0  0  0  0  0  0  0  0  0
   86.8570   86.7360  -48.5810 C   0  0  0  0  0  0  0  0  0  0  0  0
   87.5520   87.8870  -48.6010 N   0  0  0  0  0  0  0  0  0  0  0  0
   88.8800   87.6540  -48.6290 C   0  0  0  0  0  0  0  0  0  0  0  0
   89.9710   88.5350  -48.6560 C   0  0  0  0  0  0  0  0  0  0  0  0
   91.2580   88.0490  -48.6800 C   0  0  0  0  0  0  0  0  0  0  0  0
   92.4270   88.8410  -48.6950 N   0  0  0  0  0  0  0  0  0  0  0  0
   92.7180   89.9490  -47.8890 C   0  0  0  0  0  0  0  0  0  0  0  0
   93.8650   90.0860  -47.3920 O   0  0  0  0  0  0  0  0  0  0  0  0
   91.7520   91.0050  -47.5680 C   0  0  0  0  0  0  0  0  0  0  0  0
   91.8130   91.5980  -46.2930 N   0  0  0  0  0  0  0  0  0  0  0  0
   92.9270   91.3030  -45.4660 C   0  0  0  0  0  0  0  0  0  0  0  0
   92.6510   91.6120  -43.9940 C   0  0  0  0  0  0  0  0  0  0  0  0
   92.2230   92.9420  -43.9030 N   0  0  0  0  0  0  0  0  0  0  0  0
   91.9890   93.6640  -45.0930 C   0  0  0  0  0  0  0  0  0  0  0  0
   91.3030   92.9250  -46.2020 C   0  0  0  0  0  0  0  0  0  0  0  0
   91.6080   93.3240  -42.7140 C   0  0  0  0  0  0  0  0  0  0  0  0
   92.4280   93.9130  -41.6550 C   0  0  0  0  0  0  0  0  0  0  0  0
   93.5950   93.3790  -41.5060 O   0  0  0  0  0  0  0  0  0  0  0  0
   92.1080   94.9640  -40.8040 N   0  0  0  0  0  0  0  0  0  0  0  0
   91.4620   96.1930  -41.2570 C   0  0  0  0  0  0  0  0  0  0  0  0
   92.2330   97.4340  -41.4290 C   0  0  0  0  0  0  0  0  0  0  0  0
   91.7720   96.6730  -42.6580 C   0  0  0  0  0  0  0  0  0  0  0  0
   85.4590   86.5660  -48.5490 O   0  0  0  0  0  0  0  0  0  0  0  0
   90.4360   84.7350  -48.6490 H   0  0  0  0  0  0  0  0  0  0  0  0
   87.1240   88.8550  -48.5960 H   0  0  0  0  0  0  0  0  0  0  0  0
   89.7820   89.5820  -48.6570 H   0  0  0  0  0  0  0  0  0  0  0  0
   93.1970   88.5750  -49.3820 H   0  0  0  0  0  0  0  0  0  0  0  0
   91.9360   91.8220  -48.3330 H   0  0  0  0  0  0  0  0  0  0  0  0
   90.6950   90.6850  -47.7490 H   0  0  0  0  0  0  0  0  0  0  0  0
   93.7270   92.0660  -45.7440 H   0  0  0  0  0  0  0  0  0  0  0  0
   93.3720   90.3350  -45.6430 H   0  0  0  0  0  0  0  0  0  0  0  0
   93.6500   91.5210  -43.4880 H   0  0  0  0  0  0  0  0  0  0  0  0
   91.9270   90.9060  -43.6150 H   0  0  0  0  0  0  0  0  0  0  0  0
   91.5120   94.6510  -44.8880 H   0  0  0  0  0  0  0  0  0  0  0  0
   93.0070   93.9460  -45.5070 H   0  0  0  0  0  0  0  0  0  0  0  0
   90.1940   92.9700  -46.1230 H   0  0  0  0  0  0  0  0  0  0  0  0
   91.5580   93.4530  -47.1560 H   0  0  0  0  0  0  0  0  0  0  0  0
   90.7700   94.0580  -42.9940 H   0  0  0  0  0  0  0  0  0  0  0  0
   90.9740   92.4610  -42.2950 H   0  0  0  0  0  0  0  0  0  0  0  0
   92.3170   94.9020  -39.7870 H   0  0  0  0  0  0  0  0  0  0  0  0
   90.3930   96.3030  -40.9890 H   0  0  0  0  0  0  0  0  0  0  0  0
   91.7330   98.4250  -41.2910 H   0  0  0  0  0  0  0  0  0  0  0  0
   93.3140   97.4970  -41.3060 H   0  0  0  0  0  0  0  0  0  0  0  0
   92.5420   96.1510  -43.2650 H   0  0  0  0  0  0  0  0  0  0  0  0
   90.9480   97.1040  -43.2780 H   0  0  0  0  0  0  0  0  0  0  0  0
   84.9700   87.1130  -47.8290 H   0  0  0  0  0  0  0  0  0  0  0  0
  1  2  1  0  0  0  0
  2  3  1  0  0  0  0
  3 29  1  0  0  0  0
  3  4  2  0  0  0  0
  4  5  1  0  0  0  0
  5  6  2  0  0  0  0
  6 28  1  0  0  0  0
  7 30  1  0  0  0  0
  7  6  1  0  0  0  0
  8  4  1  0  0  0  0
  8  7  1  0  0  0  0
  9  8  2  0  0  0  0
 10  2  2  0  0  0  0
 10  9  1  0  0  0  0
 11 10  1  0  0  0  0
 11 12  1  0  0  0  0
 12 14  1  0  0  0  0
 12 13  2  0  0  0  0
 14 15  1  0  0  0  0
 15 20  1  0  0  0  0
 15 16  1  0  0  0  0
 16 17  1  0  0  0  0
 17 18  1  0  0  0  0
 17 38  1  0  0  0  0
 17 37  1  0  0  0  0
 18 21  1  0  0  0  0
 19 39  1  0  0  0  0
 19 18  1  0  0  0  0
 20 41  1  0  0  0  0
 20 19  1  0  0  0  0
 21 44  1  0  0  0  0
 21 22  1  0  0  0  0
 22 23  2  0  0  0  0
 22 24  1  0  0  0  0
 24 45  1  0  0  0  0
 25 46  1  0  0  0  0
 25 24  1  0  0  0  0
 26 48  1  0  0  0  0
 26 47  1  0  0  0  0
 26 25  1  0  0  0  0
 27 26  1  0  0  0  0
 27 25  1  0  0  0  0
 28 51  1  0  0  0  0
 31  9  1  0  0  0  0
 32 11  1  0  0  0  0
 33 14  1  0  0  0  0
 34 14  1  0  0  0  0
 35 16  1  0  0  0  0
 36 16  1  0  0  0  0
 40 19  1  0  0  0  0
 42 20  1  0  0  0  0
 43 21  1  0  0  0  0
 49 27  1  0  0  0  0
 50 27  1  0  0  0  0
M  END
>  <Pose>
1

>  <Score>
-6.25

$$$$
