
 OpenBabel03212208273D

 40 43  0  0  1  0  0  0  0  0999 V2000
   90.0640   90.2650  -50.5020 B   0  0  0  0  0  0  0  0  0  0  0  0
   91.3180   90.3910  -49.0760 C   0  0  0  0  0  0  0  0  0  0  0  0
   92.5730   89.8520  -49.2360 C   0  0  0  0  0  0  0  0  0  0  0  0
   93.4800   89.9350  -48.2290 N   0  0  0  0  0  0  0  0  0  0  0  0
   93.1750   90.5320  -47.0720 C   0  0  0  0  0  0  0  0  0  0  0  0
   91.9220   91.1080  -46.8220 C   0  0  0  0  0  0  0  0  0  0  0  0
   91.0320   91.0050  -47.8670 C   0  0  0  0  0  0  0  0  0  0  0  0
   91.6530   91.7550  -45.5600 C   0  0  0  0  0  0  0  0  0  0  0  0
   91.5620   90.9660  -44.5490 O   0  0  0  0  0  0  0  0  0  0  0  0
   91.4840   93.1320  -45.3230 N   0  0  0  0  0  0  0  0  0  0  0  0
   91.4300   94.0500  -44.2280 C   0  0  0  0  0  0  0  0  0  0  0  0
   91.9340   95.1310  -45.2020 C   0  0  0  0  0  0  0  0  0  0  0  0
   91.2420   94.2900  -46.2070 C   0  0  0  0  0  0  0  0  0  0  0  0
   91.3670   96.4190  -44.9100 N   0  0  0  0  0  0  0  0  0  0  0  0
   90.7290   97.3400  -45.8140 C   0  0  0  0  0  0  0  0  0  0  0  0
   90.1740   97.0210  -46.8800 O   0  0  0  0  0  0  0  0  0  0  0  0
   90.8890   98.6970  -45.1840 C   0  0  1  0  0  0  0  0  0  0  0  0
   90.6730   98.3420  -43.7320 C   0  0  2  0  0  0  0  0  0  0  0  0
   91.2590   99.3850  -42.8220 C   0  0  0  0  0  0  0  0  0  0  0  0
   92.7170   99.5160  -43.0860 C   0  0  0  0  0  0  0  0  0  0  0  0
   93.1270   99.4060  -44.3330 C   0  0  0  0  0  0  0  0  0  0  0  0
   92.2680   99.1640  -45.5010 C   0  0  0  0  0  0  0  0  0  0  0  0
   91.3380   97.0290  -43.6240 C   0  0  0  0  0  0  0  0  0  0  0  0
   91.7890   96.5730  -42.5450 O   0  0  0  0  0  0  0  0  0  0  0  0
   92.8120   89.3700  -50.1750 H   0  0  0  0  0  0  0  0  0  0  0  0
   93.9260   90.5730  -46.3020 H   0  0  0  0  0  0  0  0  0  0  0  0
   90.0600   91.4200  -47.7740 H   0  0  0  0  0  0  0  0  0  0  0  0
   92.2050   93.9730  -43.4360 H   0  0  0  0  0  0  0  0  0  0  0  0
   90.4030   94.2600  -43.8360 H   0  0  0  0  0  0  0  0  0  0  0  0
   93.0230   95.0870  -45.3050 H   0  0  0  0  0  0  0  0  0  0  0  0
   90.1440   94.4180  -46.2890 H   0  0  0  0  0  0  0  0  0  0  0  0
   91.7210   94.1730  -47.1950 H   0  0  0  0  0  0  0  0  0  0  0  0
   90.1100   99.3940  -45.5520 H   0  0  0  0  0  0  0  0  0  0  0  0
   89.5820   98.2910  -43.5460 H   0  0  0  0  0  0  0  0  0  0  0  0
   91.0310   99.1160  -41.7830 H   0  0  0  0  0  0  0  0  0  0  0  0
   90.7760  100.3530  -43.0880 H   0  0  0  0  0  0  0  0  0  0  0  0
   93.3830   99.6960  -42.2380 H   0  0  0  0  0  0  0  0  0  0  0  0
   94.2030   99.5040  -44.5180 H   0  0  0  0  0  0  0  0  0  0  0  0
   92.8230   98.4480  -46.1730 H   0  0  0  0  0  0  0  0  0  0  0  0
   92.2300  100.1100  -46.0820 H   0  0  0  0  0  0  0  0  0  0  0  0
  1  2  1  0  0  0  0
  2  7  1  0  0  0  0
  3  2  2  0  0  0  0
  3  4  1  0  0  0  0
  4  5  2  0  0  0  0
  5  6  1  0  0  0  0
  5 26  1  0  0  0  0
  6  8  1  0  0  0  0
  7 27  1  0  0  0  0
  7  6  2  0  0  0  0
  8 10  1  0  0  0  0
  8  9  2  0  0  0  0
 10 11  1  0  0  0  0
 11 29  1  0  0  0  0
 11 28  1  0  0  0  0
 12 14  1  0  0  0  0
 12 11  1  0  0  0  0
 13 10  1  0  0  0  0
 13 12  1  0  0  0  0
 14 23  1  0  0  0  0
 15 17  1  0  0  0  0
 15 14  1  0  0  0  0
 16 15  2  0  0  0  0
 17 33  1  6  0  0  0
 17 18  1  0  0  0  0
 18 23  1  0  0  0  0
 18 34  1  1  0  0  0
 18 19  1  0  0  0  0
 19 35  1  0  0  0  0
 20 19  1  0  0  0  0
 20 37  1  0  0  0  0
 21 20  2  0  0  0  0
 22 17  1  0  0  0  0
 22 21  1  0  0  0  0
 23 24  2  0  0  0  0
 25  3  1  0  0  0  0
 30 12  1  0  0  0  0
 31 13  1  0  0  0  0
 32 13  1  0  0  0  0
 36 19  1  0  0  0  0
 38 21  1  0  0  0  0
 39 22  1  0  0  0  0
 40 22  1  0  0  0  0
M  END
>  <Pose>
1

>  <Score>
-5.19

$$$$
