
 OpenBabel03212208273D

 37 40  0  0  1  0  0  0  0  0999 V2000
   91.7380   93.1330  -45.2960 B   0  0  0  0  0  0  0  0  0  0  0  0
   91.8310   94.0010  -43.5830 C   0  0  0  0  0  0  0  0  0  0  0  0
   92.0390   93.2270  -42.4650 C   0  0  0  0  0  0  0  0  0  0  0  0
   92.1000   93.8540  -41.2850 N   0  0  0  0  0  0  0  0  0  0  0  0
   91.9640   95.2070  -41.1690 C   0  0  0  0  0  0  0  0  0  0  0  0
   91.7560   96.0320  -42.2450 C   0  0  0  0  0  0  0  0  0  0  0  0
   91.6940   95.3630  -43.4820 C   0  0  0  0  0  0  0  0  0  0  0  0
   91.5940   97.4640  -42.2120 C   0  0  0  0  0  0  0  0  0  0  0  0
   92.3120   98.1270  -41.4000 O   0  0  0  0  0  0  0  0  0  0  0  0
   90.6890   98.1560  -43.0260 N   0  0  0  0  0  0  0  0  0  0  0  0
   90.2930   98.2740  -44.4040 C   0  0  0  0  0  0  0  0  0  0  0  0
   89.3990   99.4700  -44.1120 C   0  0  0  0  0  0  0  0  0  0  0  0
   89.6550   99.1480  -42.6710 C   0  0  0  0  0  0  0  0  0  0  0  0
   88.0750   99.3870  -44.5370 O   0  0  0  0  0  0  0  0  0  0  0  0
   86.9700   99.8480  -43.8510 C   0  0  2  0  0  0  0  0  0  0  0  0
   86.9280  101.1130  -43.4400 C   0  0  0  0  0  0  0  0  0  0  0  0
   85.7900  101.6590  -42.7120 C   0  0  0  0  0  0  0  0  0  0  0  0
   85.7810  102.9210  -42.3200 C   0  0  0  0  0  0  0  0  0  0  0  0
   84.7020  100.7860  -42.4440 N   0  0  0  0  0  0  0  0  0  0  0  0
   84.7760   99.4250  -42.8980 C   0  0  0  0  0  0  0  0  0  0  0  0
   85.8520   98.9840  -43.5640 N   0  0  0  0  0  0  0  0  0  0  0  0
   85.6720   97.6940  -43.8670 N   0  0  0  0  0  0  0  0  0  0  0  0
   84.4760   97.3410  -43.3830 C   0  0  0  0  0  0  0  0  0  0  0  0
   83.9230   98.4020  -42.7870 N   0  0  0  0  0  0  0  0  0  0  0  0
   92.1490   92.1340  -42.5350 H   0  0  0  0  0  0  0  0  0  0  0  0
   92.0290   95.6720  -40.1870 H   0  0  0  0  0  0  0  0  0  0  0  0
   91.5320   95.9570  -44.3700 H   0  0  0  0  0  0  0  0  0  0  0  0
   91.1150   98.5970  -45.0950 H   0  0  0  0  0  0  0  0  0  0  0  0
   89.7590   97.3750  -44.7320 H   0  0  0  0  0  0  0  0  0  0  0  0
   89.8600  100.4320  -44.4570 H   0  0  0  0  0  0  0  0  0  0  0  0
   88.8510   98.6240  -42.1580 H   0  0  0  0  0  0  0  0  0  0  0  0
   90.0460   99.9940  -42.0910 H   0  0  0  0  0  0  0  0  0  0  0  0
   87.7980  101.7500  -43.6630 H   0  0  0  0  0  0  0  0  0  0  0  0
   84.9290  103.2880  -41.7870 H   0  0  0  0  0  0  0  0  0  0  0  0
   86.5970  103.5690  -42.5220 H   0  0  0  0  0  0  0  0  0  0  0  0
   83.8890  101.1620  -41.9280 H   0  0  0  0  0  0  0  0  0  0  0  0
   83.9940   96.3570  -43.4420 H   0  0  0  0  0  0  0  0  0  0  0  0
  1  2  1  0  0  0  0
  2  7  2  0  0  0  0
  2  3  1  0  0  0  0
  3  4  2  0  0  0  0
  4  5  1  0  0  0  0
  5 26  1  0  0  0  0
  6  8  1  0  0  0  0
  6  5  2  0  0  0  0
  7  6  1  0  0  0  0
  8  9  2  0  0  0  0
 10 13  1  0  0  0  0
 10  8  1  0  0  0  0
 11 12  1  0  0  0  0
 11 10  1  0  0  0  0
 12 13  1  0  0  0  0
 13 31  1  0  0  0  0
 13 32  1  0  0  0  0
 14 12  1  0  0  0  0
 15 14  1  1  0  0  0
 15 21  1  0  0  0  0
 15 16  1  0  0  0  0
 16 17  2  0  0  0  0
 17 19  1  0  0  0  0
 17 18  1  0  0  0  0
 18 34  1  0  0  0  0
 19 36  1  0  0  0  0
 20 24  2  0  0  0  0
 20 19  1  0  0  0  0
 21 20  1  0  0  0  0
 22 21  1  0  0  0  0
 22 23  2  0  0  0  0
 23 24  1  0  0  0  0
 25  3  1  0  0  0  0
 27  7  1  0  0  0  0
 28 11  1  0  0  0  0
 29 11  1  0  0  0  0
 30 12  1  0  0  0  0
 33 16  1  0  0  0  0
 35 18  1  0  0  0  0
 37 23  1  0  0  0  0
M  END
>  <Pose>
1

>  <Score>
-6.20

$$$$
