
 OpenBabel03212208273D

 45 39  0  0  1  0  0  0  0  0999 V2000
   91.2170   99.3340  -42.4720 B   0  0  0  0  0  0  0  0  0  0  0  0
   91.2910   97.5480  -43.1310 C   0  0  0  0  0  0  0  0  0  0  0  0
   91.7760   96.5060  -42.3700 C   0  0  0  0  0  0  0  0  0  0  0  0
   91.8310   95.2430  -42.8290 N   0  0  0  0  0  0  0  0  0  0  0  0
   91.3990   94.9900  -44.0730 C   0  0  0  0  0  0  0  0  0  0  0  0
   90.9010   95.9750  -44.8960 C   0  0  0  0  0  0  0  0  0  0  0  0
   90.8560   97.2530  -44.4040 C   0  0  0  0  0  0  0  0  0  0  0  0
   90.4340   95.6830  -46.2460 C   0  0  0  0  0  0  0  0  0  0  0  0
   90.0560   96.6230  -46.9870 O   0  0  0  0  0  0  0  0  0  0  0  0
   90.4270   94.3620  -46.6680 O   0  0  0  0  0  0  0  0  0  0  0  0
   92.1600   93.5470  -44.6210 N   0  0  0  0  0  0  0  0  0  0  0  0
   91.3970   92.7520  -43.6410 C   0  0  0  0  0  0  0  0  0  0  0  0
   92.1450   92.7450  -42.3480 C   0  0  0  0  0  0  0  0  0  0  0  0
   92.2720   94.1560  -41.8400 C   0  0  0  0  0  0  0  0  0  0  0  0
   91.9890   95.1950  -42.8440 C   0  0  0  0  0  0  0  0  0  0  0  0
   91.9360   94.9040  -44.1890 C   0  0  2  0  0  0  0  0  0  0  0  0
   91.6770   95.8910  -45.0440 N   0  0  0  0  0  0  0  0  0  0  0  0
   91.4610   97.1700  -44.6670 C   0  0  0  0  0  0  0  0  0  0  0  0
   91.5070   97.4980  -43.3280 C   0  0  0  0  0  0  0  0  0  0  0  0
   91.7710   96.5090  -42.4070 C   0  0  0  0  0  0  0  0  0  0  0  0
   91.8170   96.8510  -41.0270 N   0  0  0  0  0  0  0  0  0  0  0  0
   91.2840   98.8190  -42.9350 C   0  0  0  0  0  0  0  0  0  0  0  0
   91.0180   99.8220  -43.8400 C   0  0  0  0  0  0  0  0  0  0  0  0
   90.9740   99.4880  -45.1780 C   0  0  0  0  0  0  0  0  0  0  0  0
   91.1950   98.1760  -45.5700 C   0  0  0  0  0  0  0  0  0  0  0  0
   91.5420   93.2930  -45.9070 C   0  0  0  0  0  0  0  0  0  0  0  0
   92.1190   96.7550  -41.3590 H   0  0  0  0  0  0  0  0  0  0  0  0
   91.4470   93.9730  -44.4330 H   0  0  0  0  0  0  0  0  0  0  0  0
   90.4780   98.0860  -44.9860 H   0  0  0  0  0  0  0  0  0  0  0  0
   93.1610   93.2900  -44.5990 H   0  0  0  0  0  0  0  0  0  0  0  0
   91.2700   91.7110  -43.9870 H   0  0  0  0  0  0  0  0  0  0  0  0
   90.4240   93.2810  -43.5230 H   0  0  0  0  0  0  0  0  0  0  0  0
   91.6270   92.0820  -41.6220 H   0  0  0  0  0  0  0  0  0  0  0  0
   93.1600   92.2950  -42.5590 H   0  0  0  0  0  0  0  0  0  0  0  0
   91.5990   94.2350  -40.9510 H   0  0  0  0  0  0  0  0  0  0  0  0
   93.3060   94.2500  -41.4220 H   0  0  0  0  0  0  0  0  0  0  0  0
   92.3820   96.2310  -40.4050 H   0  0  0  0  0  0  0  0  0  0  0  0
   91.3370   97.6580  -40.6020 H   0  0  0  0  0  0  0  0  0  0  0  0
   91.3190   99.0780  -41.8940 H   0  0  0  0  0  0  0  0  0  0  0  0
   90.8510  100.8390  -43.4910 H   0  0  0  0  0  0  0  0  0  0  0  0
   90.7650  100.2870  -45.8760 H   0  0  0  0  0  0  0  0  0  0  0  0
   91.1540   97.9480  -46.6290 H   0  0  0  0  0  0  0  0  0  0  0  0
   90.5380   93.7640  -45.9020 H   0  0  0  0  0  0  0  0  0  0  0  0
   92.1920   93.7080  -46.7200 H   0  0  0  0  0  0  0  0  0  0  0  0
   91.4340   92.1940  -45.9950 H   0  0  0  0  0  0  0  0  0  0  0  0
  1 39  1  0  0  0  0
  2 20  1  0  0  0  0
  4 20  2  0  0  0  0
  5  4  1  0  0  0  0
  6 18  1  0  0  0  0
  7 19  1  0  0  0  0
  9  8  2  0  0  0  0
 10  8  1  0  0  0  0
 10 43  1  0  0  0  0
 11 30  1  0  0  0  0
 11 28  1  0  0  0  0
 12 32  1  0  0  0  0
 12 13  1  0  0  0  0
 13 14  1  0  0  0  0
 13 33  1  0  0  0  0
 14 36  1  0  0  0  0
 14 35  1  0  0  0  0
 15 14  1  0  0  0  0
 16  5  1  1  0  0  0
 16 15  1  0  0  0  0
 17  6  1  0  0  0  0
 17 16  1  0  0  0  0
 18  7  1  0  0  0  0
 21 38  1  0  0  0  0
 21 37  1  0  0  0  0
 22  1  2  0  0  0  0
 23 40  1  0  0  0  0
 23  1  1  0  0  0  0
 24 23  2  0  0  0  0
 25 24  1  0  0  0  0
 25 29  1  0  0  0  0
 26 11  1  0  0  0  0
 27 21  1  0  0  0  0
 31 12  1  0  0  0  0
 34 13  1  0  0  0  0
 41 24  1  0  0  0  0
 42 25  1  0  0  0  0
 44 26  1  0  0  0  0
 45 26  1  0  0  0  0
M  END
>  <Pose>
1

>  <Score>
-5.59

$$$$
