
 OpenBabel03212208273D

 31 34  0  0  0  0  0  0  0  0999 V2000
   92.9900   92.9410  -42.3800 B   0  0  0  0  0  0  0  0  0  0  0  0
   92.1100   93.7300  -43.8950 C   0  0  0  0  0  0  0  0  0  0  0  0
   91.6540   92.8790  -44.8800 C   0  0  0  0  0  0  0  0  0  0  0  0
   91.0250   93.4420  -45.9620 C   0  0  0  0  0  0  0  0  0  0  0  0
   90.8630   94.8270  -46.0460 C   0  0  0  0  0  0  0  0  0  0  0  0
   91.3140   95.6840  -45.0690 C   0  0  0  0  0  0  0  0  0  0  0  0
   91.9530   95.0990  -43.9720 C   0  0  0  0  0  0  0  0  0  0  0  0
   91.1530   97.1590  -45.1300 C   0  0  0  0  0  0  0  0  0  0  0  0
   90.2730   97.5890  -44.0710 N   0  0  0  0  0  0  0  0  0  0  0  0
   90.7040   98.6680  -43.2200 C   0  0  0  0  0  0  0  0  0  0  0  0
   90.2530   99.9160  -43.4030 N   0  0  0  0  0  0  0  0  0  0  0  0
   90.6600  100.9170  -42.6030 C   0  0  0  0  0  0  0  0  0  0  0  0
   91.5600  100.6930  -41.5650 C   0  0  0  0  0  0  0  0  0  0  0  0
   92.0040   99.4490  -41.3890 N   0  0  0  0  0  0  0  0  0  0  0  0
   91.5950   98.4360  -42.1950 C   0  0  0  0  0  0  0  0  0  0  0  0
   92.2040   97.3130  -41.7810 N   0  0  0  0  0  0  0  0  0  0  0  0
   92.9820   97.5820  -40.7450 N   0  0  0  0  0  0  0  0  0  0  0  0
   92.8560   98.8910  -40.5100 C   0  0  0  0  0  0  0  0  0  0  0  0
   90.6650   92.3850  -46.8010 O   0  0  0  0  0  0  0  0  0  0  0  0
   91.5260   91.2810  -46.4820 C   0  0  0  0  0  0  0  0  0  0  0  0
   91.6690   91.4920  -45.0700 O   0  0  0  0  0  0  0  0  0  0  0  0
   90.3700   95.2220  -46.9100 H   0  0  0  0  0  0  0  0  0  0  0  0
   92.3290   95.7150  -43.1720 H   0  0  0  0  0  0  0  0  0  0  0  0
   90.6460   97.4170  -46.0990 H   0  0  0  0  0  0  0  0  0  0  0  0
   92.1310   97.6840  -45.1030 H   0  0  0  0  0  0  0  0  0  0  0  0
   89.3520   97.1480  -43.9100 H   0  0  0  0  0  0  0  0  0  0  0  0
   90.3130  101.9280  -42.7280 H   0  0  0  0  0  0  0  0  0  0  0  0
   91.8820  101.4950  -40.9300 H   0  0  0  0  0  0  0  0  0  0  0  0
   93.3860   99.4010  -39.7070 H   0  0  0  0  0  0  0  0  0  0  0  0
   91.0760   90.3190  -46.7190 H   0  0  0  0  0  0  0  0  0  0  0  0
   92.5180   91.4600  -46.9400 H   0  0  0  0  0  0  0  0  0  0  0  0
  2  1  1  0  0  0  0
  3  2  2  0  0  0  0
  4  3  1  0  0  0  0
  5  4  2  0  0  0  0
  5  6  1  0  0  0  0
  6  7  2  0  0  0  0
  7  2  1  0  0  0  0
  7 23  1  0  0  0  0
  8 25  1  0  0  0  0
  8  6  1  0  0  0  0
  8  9  1  0  0  0  0
  9 26  1  0  0  0  0
  9 10  1  0  0  0  0
 10 15  1  0  0  0  0
 11 10  2  0  0  0  0
 11 12  1  0  0  0  0
 12 13  2  0  0  0  0
 13 14  1  0  0  0  0
 13 28  1  0  0  0  0
 14 18  1  0  0  0  0
 15 16  2  0  0  0  0
 15 14  1  0  0  0  0
 16 17  1  0  0  0  0
 17 18  2  0  0  0  0
 18 29  1  0  0  0  0
 19 20  1  0  0  0  0
 19  4  1  0  0  0  0
 20 21  1  0  0  0  0
 21  3  1  0  0  0  0
 22  5  1  0  0  0  0
 24  8  1  0  0  0  0
 27 12  1  0  0  0  0
 30 20  1  0  0  0  0
 31 20  1  0  0  0  0
M  END
>  <Pose>
1

>  <Score>
-5.63

$$$$
