
 OpenBabel03212208273D

 56 59  0  0  1  0  0  0  0  0999 V2000
   92.1900   94.4200  -41.0600 B   0  0  0  0  0  0  0  0  0  0  0  0
   91.9190   94.4490  -42.9380 C   0  0  0  0  0  0  0  0  0  0  0  0
   91.7570   95.6800  -43.5870 C   0  0  0  0  0  0  0  0  0  0  0  0
   91.5680   95.7640  -44.9320 C   0  0  0  0  0  0  0  0  0  0  0  0
   91.5340   94.5930  -45.6700 C   0  0  0  0  0  0  0  0  0  0  0  0
   91.6940   93.3670  -45.0340 C   0  0  0  0  0  0  0  0  0  0  0  0
   91.8860   93.2860  -43.6750 C   0  0  0  0  0  0  0  0  0  0  0  0
   91.6640   92.0830  -45.7930 C   0  0  0  0  0  0  0  0  0  0  0  0
   91.4410   97.0850  -45.6050 C   0  0  1  0  0  0  0  0  0  0  0  0
   90.8330   98.1830  -44.8090 C   0  0  0  0  0  0  0  0  0  0  0  0
   90.7440   97.8020  -43.3110 C   0  0  0  0  0  0  0  0  0  0  0  0
   91.7720   96.9020  -42.9300 O   0  0  0  0  0  0  0  0  0  0  0  0
   89.3830   98.4450  -45.1700 C   0  0  0  0  0  0  0  0  0  0  0  0
   88.5180   98.7080  -44.0400 N   0  0  0  0  0  4  0  0  0  0  0  0
   87.1580   98.2720  -44.3550 C   0  0  0  0  0  0  0  0  0  0  0  0
   86.2260   99.0410  -43.4940 C   0  0  0  0  0  0  0  0  0  0  0  0
   87.0890  100.0780  -42.8590 C   0  0  0  0  0  0  0  0  0  0  0  0
   88.2750  100.1260  -43.8320 C   0  0  0  0  0  0  0  0  0  0  0  0
   91.6630   99.4110  -44.8060 C   0  0  0  0  0  0  0  0  0  0  0  0
   91.6490  100.4850  -45.6570 N   0  0  0  0  0  4  0  0  0  0  0  0
   92.6620  101.4810  -45.2400 C   0  0  0  0  0  0  0  0  0  0  0  0
   93.1820  102.1000  -46.4780 C   0  0  0  0  0  0  0  0  0  0  0  0
   92.9510  101.1260  -47.5690 C   0  0  0  0  0  0  0  0  0  0  0  0
   91.7990  100.2750  -47.0370 C   0  0  0  0  0  0  0  0  0  0  0  0
   92.7790   97.3500  -46.0090 O   0  0  0  0  0  0  0  0  0  0  0  0
   91.3880   94.5810  -46.7280 H   0  0  0  0  0  0  0  0  0  0  0  0
   92.0140   92.3550  -43.1480 H   0  0  0  0  0  0  0  0  0  0  0  0
   91.1020   92.1810  -46.7390 H   0  0  0  0  0  0  0  0  0  0  0  0
   92.7270   91.7690  -45.9690 H   0  0  0  0  0  0  0  0  0  0  0  0
   91.2340   91.2670  -45.1460 H   0  0  0  0  0  0  0  0  0  0  0  0
   90.9090   96.9150  -46.5870 H   0  0  0  0  0  0  0  0  0  0  0  0
   89.7420   97.4930  -43.0210 H   0  0  0  0  0  0  0  0  0  0  0  0
   90.9390   98.7410  -42.7240 H   0  0  0  0  0  0  0  0  0  0  0  0
   89.3540   99.4100  -45.7740 H   0  0  0  0  0  0  0  0  0  0  0  0
   88.8980   97.7310  -45.8090 H   0  0  0  0  0  0  0  0  0  0  0  0
   88.8380   98.3270  -43.1380 H   0  0  0  0  0  0  0  0  0  0  0  0
   87.0050   97.2040  -44.2400 H   0  0  0  0  0  0  0  0  0  0  0  0
   87.0080   98.5200  -45.4360 H   0  0  0  0  0  0  0  0  0  0  0  0
   85.6870   98.3930  -42.7870 H   0  0  0  0  0  0  0  0  0  0  0  0
   85.4290   99.5320  -44.1250 H   0  0  0  0  0  0  0  0  0  0  0  0
   87.4670   99.6800  -41.8790 H   0  0  0  0  0  0  0  0  0  0  0  0
   86.6260  101.0680  -42.7570 H   0  0  0  0  0  0  0  0  0  0  0  0
   87.9210  100.6110  -44.7690 H   0  0  0  0  0  0  0  0  0  0  0  0
   89.0960  100.6770  -43.3860 H   0  0  0  0  0  0  0  0  0  0  0  0
   91.6130   99.8780  -43.7260 H   0  0  0  0  0  0  0  0  0  0  0  0
   92.7860   99.0960  -44.7360 H   0  0  0  0  0  0  0  0  0  0  0  0
   90.7410  101.1100  -45.5010 H   0  0  0  0  0  0  0  0  0  0  0  0
   92.2030  102.3060  -44.6330 H   0  0  0  0  0  0  0  0  0  0  0  0
   93.4380  101.0610  -44.6030 H   0  0  0  0  0  0  0  0  0  0  0  0
   92.6600  103.0520  -46.7290 H   0  0  0  0  0  0  0  0  0  0  0  0
   94.2830  102.3050  -46.4170 H   0  0  0  0  0  0  0  0  0  0  0  0
   92.6150  101.5950  -48.5090 H   0  0  0  0  0  0  0  0  0  0  0  0
   93.8410  100.4970  -47.8100 H   0  0  0  0  0  0  0  0  0  0  0  0
   92.0130   99.2730  -47.3930 H   0  0  0  0  0  0  0  0  0  0  0  0
   90.8530  100.5790  -47.6080 H   0  0  0  0  0  0  0  0  0  0  0  0
   92.8160   97.6550  -46.9320 H   0  0  0  0  0  0  0  0  0  0  0  0
  2  1  1  0  0  0  0
  3  2  1  0  0  0  0
  3 12  1  0  0  0  0
  4  3  2  0  0  0  0
  5  6  2  0  0  0  0
  5  4  1  0  0  0  0
  6  7  1  0  0  0  0
  7 27  1  0  0  0  0
  7  2  2  0  0  0  0
  8 30  1  0  0  0  0
  8  6  1  0  0  0  0
  9 31  1  6  0  0  0
  9  4  1  0  0  0  0
  9 10  1  0  0  0  0
 10 19  1  0  0  0  0
 10 11  1  0  0  0  0
 11 32  1  0  0  0  0
 11 12  1  0  0  0  0
 11 33  1  0  0  0  0
 13 10  1  0  0  0  0
 13 14  1  0  0  0  0
 14 18  1  0  0  0  0
 14 36  1  0  0  0  0
 15 37  1  0  0  0  0
 15 14  1  0  0  0  0
 15 16  1  0  0  0  0
 16 17  1  0  0  0  0
 16 39  1  0  0  0  0
 17 42  1  0  0  0  0
 17 41  1  0  0  0  0
 18 44  1  0  0  0  0
 18 17  1  0  0  0  0
 19 46  1  0  0  0  0
 19 45  1  0  0  0  0
 20 47  1  0  0  0  0
 20 21  1  0  0  0  0
 20 19  1  0  0  0  0
 21 48  1  0  0  0  0
 21 49  1  0  0  0  0
 22 51  1  0  0  0  0
 22 21  1  0  0  0  0
 23 24  1  0  0  0  0
 23 22  1  0  0  0  0
 24 20  1  0  0  0  0
 25  9  1  0  0  0  0
 26  5  1  0  0  0  0
 28  8  1  0  0  0  0
 29  8  1  0  0  0  0
 34 13  1  0  0  0  0
 35 13  1  0  0  0  0
 38 15  1  0  0  0  0
 40 16  1  0  0  0  0
 43 18  1  0  0  0  0
 50 22  1  0  0  0  0
 52 23  1  0  0  0  0
 53 23  1  0  0  0  0
 54 24  1  0  0  0  0
 55 24  1  0  0  0  0
 56 25  1  0  0  0  0
M  END
>  <Pose>
1

>  <Score>
-4.86

$$$$
