
 OpenBabel03212208273D

 46 49  0  0  0  0  0  0  0  0999 V2000
   90.8950  101.2860  -44.8160 B   0  0  0  0  0  0  0  0  0  0  0  0
   89.1440  100.5740  -44.4300 C   0  0  0  0  0  0  0  0  0  0  0  0
   88.6650   99.3660  -44.7780 N   0  0  0  0  0  0  0  0  0  0  0  0
   87.4070   99.2370  -44.3280 C   0  0  0  0  0  0  0  0  0  0  0  0
   87.0840  100.4100  -43.6730 C   0  0  0  0  0  0  0  0  0  0  0  0
   88.1630  101.1990  -43.7550 N   0  0  0  0  0  0  0  0  0  0  0  0
   85.8590  100.5280  -43.1220 N   0  0  0  0  0  0  0  0  0  0  0  0
   84.9320   99.5470  -43.1830 C   0  0  0  0  0  0  0  0  0  0  0  0
   83.7920   99.6990  -42.6520 O   0  0  0  0  0  0  0  0  0  0  0  0
   85.2130   98.3910  -43.8130 N   0  0  0  0  0  0  0  0  0  0  0  0
   86.4310   98.2630  -44.3650 C   0  0  0  0  0  0  0  0  0  0  0  0
   86.7030   97.1940  -44.9500 O   0  0  0  0  0  0  0  0  0  0  0  0
   84.2020   97.3520  -43.8630 C   0  0  0  0  0  0  0  0  0  0  0  0
   85.5290  101.7620  -42.4380 C   0  0  0  0  0  0  0  0  0  0  0  0
   89.4280   98.4070  -45.5040 C   0  0  0  0  0  0  0  0  0  0  0  0
   90.8610   98.2630  -45.1430 C   0  0  0  0  0  0  0  0  0  0  0  0
   91.1730   97.5080  -43.9770 N   0  0  0  0  0  0  0  0  0  0  0  0
   91.4000   96.1710  -43.9410 C   0  0  0  0  0  0  0  0  0  0  0  0
   91.6620   95.7890  -42.6480 C   0  0  0  0  0  0  0  0  0  0  0  0
   91.5870   96.9190  -41.9260 N   0  0  0  0  0  0  0  0  0  0  0  0
   91.2930   97.9550  -42.7230 C   0  0  0  0  0  0  0  0  0  0  0  0
   91.0620   99.7990  -42.2100 B   0  0  0  0  0  0  0  0  0  0  0  0
   91.9300   94.5040  -42.2910 N   0  0  0  0  0  0  0  0  0  0  0  0
   91.9300   93.5900  -43.2780 C   0  0  0  0  0  0  0  0  0  0  0  0
   92.1770   92.3940  -42.9600 O   0  0  0  0  0  0  0  0  0  0  0  0
   91.6800   93.9060  -44.5600 N   0  0  0  0  0  0  0  0  0  0  0  0
   91.4180   95.1670  -44.9000 C   0  0  0  0  0  0  0  0  0  0  0  0
   91.1760   95.5300  -46.0830 O   0  0  0  0  0  0  0  0  0  0  0  0
   91.6920   92.8830  -45.5850 C   0  0  0  0  0  0  0  0  0  0  0  0
   92.2050   94.1350  -40.9090 C   0  0  0  0  0  0  0  0  0  0  0  0
   84.4160   96.6420  -44.6840 H   0  0  0  0  0  0  0  0  0  0  0  0
   84.1590   96.7570  -42.9230 H   0  0  0  0  0  0  0  0  0  0  0  0
   83.2230   97.8520  -44.0220 H   0  0  0  0  0  0  0  0  0  0  0  0
   84.4540  101.9950  -42.6660 H   0  0  0  0  0  0  0  0  0  0  0  0
   86.1400  102.5870  -42.8140 H   0  0  0  0  0  0  0  0  0  0  0  0
   85.6170  101.6110  -41.3390 H   0  0  0  0  0  0  0  0  0  0  0  0
   88.9900   97.3660  -45.4400 H   0  0  0  0  0  0  0  0  0  0  0  0
   89.3010   98.6590  -46.5980 H   0  0  0  0  0  0  0  0  0  0  0  0
   91.2810   99.3000  -45.0620 H   0  0  0  0  0  0  0  0  0  0  0  0
   91.4550   97.8280  -46.0080 H   0  0  0  0  0  0  0  0  0  0  0  0
   91.1240   93.1910  -46.4860 H   0  0  0  0  0  0  0  0  0  0  0  0
   92.7370   92.6620  -45.9440 H   0  0  0  0  0  0  0  0  0  0  0  0
   91.1990   91.9420  -45.2310 H   0  0  0  0  0  0  0  0  0  0  0  0
   92.8300   94.8920  -40.3920 H   0  0  0  0  0  0  0  0  0  0  0  0
   91.2630   93.9240  -40.3560 H   0  0  0  0  0  0  0  0  0  0  0  0
   92.8170   93.2090  -40.9420 H   0  0  0  0  0  0  0  0  0  0  0  0
  1  2  1  0  0  0  0
  2  6  2  0  0  0  0
  3  2  1  0  0  0  0
  3  4  1  0  0  0  0
  4  5  2  0  0  0  0
  5  7  1  0  0  0  0
  6  5  1  0  0  0  0
  7 14  1  0  0  0  0
  8  7  1  0  0  0  0
  8  9  2  0  0  0  0
 10  8  1  0  0  0  0
 11  4  1  0  0  0  0
 11 10  1  0  0  0  0
 12 11  2  0  0  0  0
 13 10  1  0  0  0  0
 13 32  1  0  0  0  0
 14 36  1  0  0  0  0
 15 37  1  0  0  0  0
 15 16  1  0  0  0  0
 15  3  1  0  0  0  0
 16 39  1  0  0  0  0
 16 17  1  0  0  0  0
 17 18  1  0  0  0  0
 17 21  1  0  0  0  0
 18 19  2  0  0  0  0
 19 23  1  0  0  0  0
 19 20  1  0  0  0  0
 21 22  1  0  0  0  0
 21 20  2  0  0  0  0
 23 30  1  0  0  0  0
 24 25  2  0  0  0  0
 24 23  1  0  0  0  0
 26 24  1  0  0  0  0
 27 26  1  0  0  0  0
 27 18  1  0  0  0  0
 28 27  2  0  0  0  0
 29 43  1  0  0  0  0
 29 26  1  0  0  0  0
 30 44  1  0  0  0  0
 30 45  1  0  0  0  0
 31 13  1  0  0  0  0
 33 13  1  0  0  0  0
 34 14  1  0  0  0  0
 35 14  1  0  0  0  0
 38 15  1  0  0  0  0
 40 16  1  0  0  0  0
 41 29  1  0  0  0  0
 42 29  1  0  0  0  0
 46 30  1  0  0  0  0
M  END
>  <Pose>
1

>  <Score>
-6.07

$$$$
