
 OpenBabel03212208273D

 43 46  0  0  0  0  0  0  0  0999 V2000
   92.5320   89.5490  -44.3650 B   0  0  0  0  0  0  0  0  0  0  0  0
   92.1910   91.4110  -44.1570 C   0  0  0  0  0  0  0  0  0  0  0  0
   91.7330   92.2000  -45.1760 N   0  0  0  0  0  0  0  0  0  0  0  0
   91.6220   93.4290  -44.6330 C   0  0  0  0  0  0  0  0  0  0  0  0
   92.0020   93.4170  -43.3010 C   0  0  0  0  0  0  0  0  0  0  0  0
   92.3510   92.1380  -43.0420 N   0  0  0  0  0  0  0  0  0  0  0  0
   91.9900   94.4980  -42.5020 N   0  0  0  0  0  0  0  0  0  0  0  0
   91.5750   95.6510  -43.0570 C   0  0  0  0  0  0  0  0  0  0  0  0
   91.5460   96.7070  -42.3390 O   0  0  0  0  0  0  0  0  0  0  0  0
   91.1950   95.7070  -44.3470 N   0  0  0  0  0  0  0  0  0  0  0  0
   91.2070   94.6130  -45.1590 C   0  0  0  0  0  0  0  0  0  0  0  0
   90.8490   94.6820  -46.3530 O   0  0  0  0  0  0  0  0  0  0  0  0
   92.3910   94.4770  -41.1110 C   0  0  0  0  0  0  0  0  0  0  0  0
   91.4370   91.7330  -46.5150 C   0  0  0  0  0  0  0  0  0  0  0  0
   92.5150   90.8760  -47.1120 C   0  0  0  0  0  0  0  0  0  0  0  0
   92.2860   90.4910  -48.5450 C   0  0  0  0  0  0  0  0  0  0  0  0
   92.0540   89.0570  -48.6460 N   0  0  0  0  0  0  0  0  0  0  0  0
   90.8790   88.4050  -48.8030 C   0  0  0  0  0  0  0  0  0  0  0  0
   91.0910   87.0470  -48.8540 C   0  0  0  0  0  0  0  0  0  0  0  0
   92.4200   86.8830  -48.7240 N   0  0  0  0  0  0  0  0  0  0  0  0
   92.9940   88.0990  -48.5980 C   0  0  0  0  0  0  0  0  0  0  0  0
   94.8550   88.4690  -48.3860 B   0  0  0  0  0  0  0  0  0  0  0  0
   90.1040   86.1430  -49.0050 N   0  0  0  0  0  0  0  0  0  0  0  0
   88.8450   86.6340  -49.1090 C   0  0  0  0  0  0  0  0  0  0  0  0
   87.9130   85.7860  -49.2520 O   0  0  0  0  0  0  0  0  0  0  0  0
   88.5940   87.9600  -49.0640 N   0  0  0  0  0  0  0  0  0  0  0  0
   89.5900   88.8560  -48.9120 C   0  0  0  0  0  0  0  0  0  0  0  0
   89.3900   90.0940  -48.8670 O   0  0  0  0  0  0  0  0  0  0  0  0
   90.3770   84.7090  -49.0530 C   0  0  0  0  0  0  0  0  0  0  0  0
   90.8710   96.5920  -44.7920 H   0  0  0  0  0  0  0  0  0  0  0  0
   92.9660   93.5600  -40.8670 H   0  0  0  0  0  0  0  0  0  0  0  0
   93.1190   95.3230  -40.9510 H   0  0  0  0  0  0  0  0  0  0  0  0
   91.5310   94.5360  -40.4150 H   0  0  0  0  0  0  0  0  0  0  0  0
   91.1660   92.5920  -47.1660 H   0  0  0  0  0  0  0  0  0  0  0  0
   90.5320   91.0640  -46.4210 H   0  0  0  0  0  0  0  0  0  0  0  0
   92.7350   89.9870  -46.4810 H   0  0  0  0  0  0  0  0  0  0  0  0
   93.4740   91.4770  -47.1010 H   0  0  0  0  0  0  0  0  0  0  0  0
   91.3190   90.9630  -48.8920 H   0  0  0  0  0  0  0  0  0  0  0  0
   93.1080   90.7920  -49.1930 H   0  0  0  0  0  0  0  0  0  0  0  0
   87.6080   88.2780  -49.1490 H   0  0  0  0  0  0  0  0  0  0  0  0
   90.9660   84.4440  -49.9560 H   0  0  0  0  0  0  0  0  0  0  0  0
   90.9530   84.3760  -48.1680 H   0  0  0  0  0  0  0  0  0  0  0  0
   89.4040   84.2010  -49.1330 H   0  0  0  0  0  0  0  0  0  0  0  0
  1  2  1  0  0  0  0
  2  6  2  0  0  0  0
  3  4  1  0  0  0  0
  3  2  1  0  0  0  0
  4  5  2  0  0  0  0
  5  6  1  0  0  0  0
  5  7  1  0  0  0  0
  7 13  1  0  0  0  0
  8  7  1  0  0  0  0
  8  9  2  0  0  0  0
 10  8  1  0  0  0  0
 11  4  1  0  0  0  0
 11 10  1  0  0  0  0
 12 11  2  0  0  0  0
 13 32  1  0  0  0  0
 13 31  1  0  0  0  0
 13 33  1  0  0  0  0
 14 35  1  0  0  0  0
 14  3  1  0  0  0  0
 15 37  1  0  0  0  0
 15 14  1  0  0  0  0
 15 36  1  0  0  0  0
 16 15  1  0  0  0  0
 17 21  1  0  0  0  0
 17 16  1  0  0  0  0
 18 17  1  0  0  0  0
 19 18  2  0  0  0  0
 19 20  1  0  0  0  0
 20 21  2  0  0  0  0
 21 22  1  0  0  0  0
 23 19  1  0  0  0  0
 24 26  1  0  0  0  0
 24 23  1  0  0  0  0
 25 24  2  0  0  0  0
 26 27  1  0  0  0  0
 27 28  2  0  0  0  0
 27 18  1  0  0  0  0
 29 23  1  0  0  0  0
 29 42  1  0  0  0  0
 30 10  1  0  0  0  0
 34 14  1  0  0  0  0
 38 16  1  0  0  0  0
 39 16  1  0  0  0  0
 40 26  1  0  0  0  0
 41 29  1  0  0  0  0
 43 29  1  0  0  0  0
M  END
>  <Pose>
1

>  <Score>
-5.86

$$$$
