
 OpenBabel03212208273D

 40 43  0  0  0  0  0  0  0  0999 V2000
   90.1170  102.3140  -42.2220 B   0  0  0  0  0  0  0  0  0  0  0  0
   90.7970  101.6650  -43.8840 C   0  0  0  0  0  0  0  0  0  0  0  0
   91.6080  100.5850  -43.9780 N   0  0  0  0  0  0  0  0  0  0  0  0
   91.8790  100.4330  -45.2950 C   0  0  0  0  0  0  0  0  0  0  0  0
   91.2360  101.4230  -46.0320 C   0  0  0  0  0  0  0  0  0  0  0  0
   90.5780  102.1630  -45.1110 N   0  0  0  0  0  0  0  0  0  0  0  0
   91.3500  101.4770  -47.3710 N   0  0  0  0  0  0  0  0  0  0  0  0
   92.0910  100.5690  -48.0310 C   0  0  0  0  0  0  0  0  0  0  0  0
   92.2050  100.6130  -49.2980 O   0  0  0  0  0  0  0  0  0  0  0  0
   92.7330   99.5880  -47.3710 N   0  0  0  0  0  0  0  0  0  0  0  0
   92.6210   99.5300  -46.0190 C   0  0  0  0  0  0  0  0  0  0  0  0
   93.2080   98.6210  -45.3620 O   0  0  0  0  0  0  0  0  0  0  0  0
   90.6870  102.5020  -48.1430 C   0  0  0  0  0  0  0  0  0  0  0  0
   92.0450   99.7900  -42.8810 C   0  0  0  0  0  0  0  0  0  0  0  0
   91.1020   98.7580  -42.3750 C   0  0  0  0  0  0  0  0  0  0  0  0
   91.1980   97.4410  -42.8990 N   0  0  0  0  0  0  0  0  0  0  0  0
   91.7600   96.3650  -42.3240 C   0  0  0  0  0  0  0  0  0  0  0  0
   91.6450   95.2880  -43.1770 C   0  0  0  0  0  0  0  0  0  0  0  0
   90.9980   95.7710  -44.2570 N   0  0  0  0  0  0  0  0  0  0  0  0
   90.7160   97.0610  -44.1190 C   0  0  0  0  0  0  0  0  0  0  0  0
   89.8070   98.2050  -45.3750 B   0  0  0  0  0  0  0  0  0  0  0  0
   92.1260   94.0970  -42.8230 N   0  0  0  0  0  0  0  0  0  0  0  0
   92.7260   93.9310  -41.6410 C   0  0  0  0  0  0  0  0  0  0  0  0
   93.1990   92.8040  -41.2760 O   0  0  0  0  0  0  0  0  0  0  0  0
   92.8780   94.9310  -40.7550 N   0  0  0  0  0  0  0  0  0  0  0  0
   92.3920   96.1270  -41.1140 C   0  0  0  0  0  0  0  0  0  0  0  0
   92.5260   97.0630  -40.2940 O   0  0  0  0  0  0  0  0  0  0  0  0
   92.0130   92.9600  -43.7070 C   0  0  0  0  0  0  0  0  0  0  0  0
   93.3120   98.8750  -47.8630 H   0  0  0  0  0  0  0  0  0  0  0  0
   89.9490  102.0090  -48.8270 H   0  0  0  0  0  0  0  0  0  0  0  0
   91.4610  103.0590  -48.6920 H   0  0  0  0  0  0  0  0  0  0  0  0
   90.1730  103.2130  -47.4500 H   0  0  0  0  0  0  0  0  0  0  0  0
   92.4580  100.4230  -42.0590 H   0  0  0  0  0  0  0  0  0  0  0  0
   92.9640   99.2130  -43.2240 H   0  0  0  0  0  0  0  0  0  0  0  0
   90.0630   99.1790  -42.4410 H   0  0  0  0  0  0  0  0  0  0  0  0
   91.3000   98.6790  -41.2590 H   0  0  0  0  0  0  0  0  0  0  0  0
   93.3550   94.7670  -39.8320 H   0  0  0  0  0  0  0  0  0  0  0  0
   91.1220   93.1300  -44.3400 H   0  0  0  0  0  0  0  0  0  0  0  0
   92.8940   92.7880  -44.3280 H   0  0  0  0  0  0  0  0  0  0  0  0
   91.8030   92.0190  -43.1390 H   0  0  0  0  0  0  0  0  0  0  0  0
  2  1  1  0  0  0  0
  3  2  1  0  0  0  0
  3 14  1  0  0  0  0
  4  3  1  0  0  0  0
  5  4  2  0  0  0  0
  5  6  1  0  0  0  0
  6  2  2  0  0  0  0
  7  5  1  0  0  0  0
  8  7  1  0  0  0  0
  8 10  1  0  0  0  0
  9  8  2  0  0  0  0
 10 11  1  0  0  0  0
 11 12  2  0  0  0  0
 11  4  1  0  0  0  0
 13 32  1  0  0  0  0
 13  7  1  0  0  0  0
 14 15  1  0  0  0  0
 14 33  1  0  0  0  0
 15 36  1  0  0  0  0
 16 15  1  0  0  0  0
 16 17  1  0  0  0  0
 17 26  1  0  0  0  0
 18 22  1  0  0  0  0
 18 17  2  0  0  0  0
 19 20  2  0  0  0  0
 19 18  1  0  0  0  0
 20 16  1  0  0  0  0
 21 20  1  0  0  0  0
 22 23  1  0  0  0  0
 23 24  2  0  0  0  0
 23 25  1  0  0  0  0
 25 37  1  0  0  0  0
 26 25  1  0  0  0  0
 26 27  2  0  0  0  0
 28 40  1  0  0  0  0
 28 22  1  0  0  0  0
 29 10  1  0  0  0  0
 30 13  1  0  0  0  0
 31 13  1  0  0  0  0
 34 14  1  0  0  0  0
 35 15  1  0  0  0  0
 38 28  1  0  0  0  0
 39 28  1  0  0  0  0
M  END
>  <Pose>
1

>  <Score>
-6.37

$$$$
