
 OpenBabel03212208273D

 50 54  0  0  1  0  0  0  0  0999 V2000
   91.8500   93.3190  -42.7160 B   0  0  0  0  0  0  0  0  0  0  0  0
   91.8780   95.1000  -42.0060 C   0  0  0  0  0  0  0  0  0  0  0  0
   91.5340   96.2410  -42.6310 N   0  0  0  0  0  0  0  0  0  0  0  0
   91.6820   97.2830  -41.8230 N   0  0  0  0  0  0  0  0  0  0  0  0
   92.1310   96.7740  -40.6610 C   0  0  0  0  0  0  0  0  0  0  0  0
   92.2570   95.4410  -40.7530 N   0  0  0  0  0  0  0  0  0  0  0  0
   91.4150   98.6880  -42.1250 C   0  0  2  0  0  0  0  0  0  0  0  0
   90.0080   98.8250  -42.6620 C   0  0  0  0  0  0  0  0  0  0  0  0
   89.6540  100.2790  -42.7690 C   0  0  2  0  0  0  0  0  0  0  0  0
   90.5750  100.8640  -43.8490 C   0  0  0  0  0  0  0  0  0  0  0  0
   92.0070  100.6590  -43.4240 C   0  0  2  0  0  0  0  0  0  0  0  0
   92.3500   99.2100  -43.1950 C   0  0  0  0  0  0  0  0  0  0  0  0
   92.2540  101.4520  -42.1800 C   0  0  0  0  0  0  0  0  0  0  0  0
   91.3410  100.9350  -41.0910 C   0  0  2  0  0  0  0  0  0  0  0  0
   91.6400   99.4890  -40.8810 C   0  0  0  0  0  0  0  0  0  0  0  0
   89.8970  101.0660  -41.5240 C   0  0  0  0  0  0  0  0  0  0  0  0
   88.2500  100.4660  -43.1920 C   0  0  0  0  0  0  0  0  0  0  0  0
   88.0340  100.8670  -44.3630 O   0  0  0  0  0  0  0  0  0  0  0  0
   87.1730  100.1990  -42.2970 N   0  0  0  0  0  0  0  0  0  0  0  0
   85.9020  100.8280  -42.3440 C   0  0  0  0  0  0  0  0  0  0  0  0
   84.7730  100.2540  -42.8560 C   0  0  0  0  0  0  0  0  0  0  0  0
   83.7710  101.1560  -42.7260 N   0  0  0  0  0  0  0  0  0  0  0  0
   84.2500  102.2420  -42.1600 N   0  0  0  0  0  0  0  0  0  0  0  0
   85.5550  102.0900  -41.9070 C   0  0  0  0  0  0  0  0  0  0  0  0
   82.3830  101.0050  -43.1250 C   0  0  0  0  0  0  0  0  0  0  0  0
   84.5510   98.9510  -43.4500 C   0  0  0  0  0  0  0  0  0  0  0  0
   84.3550   98.8210  -44.6840 O   0  0  0  0  0  0  0  0  0  0  0  0
   84.5390   97.7420  -42.7010 N   0  0  0  0  0  0  0  0  0  0  0  0
   92.3580   97.3530  -39.7780 H   0  0  0  0  0  0  0  0  0  0  0  0
   90.0480   98.4300  -43.7190 H   0  0  0  0  0  0  0  0  0  0  0  0
   89.2730   98.2160  -42.1370 H   0  0  0  0  0  0  0  0  0  0  0  0
   90.4060  101.9370  -43.9760 H   0  0  0  0  0  0  0  0  0  0  0  0
   90.4370  100.3680  -44.8170 H   0  0  0  0  0  0  0  0  0  0  0  0
   92.6680  101.0380  -44.2240 H   0  0  0  0  0  0  0  0  0  0  0  0
   92.3080   98.6200  -44.1270 H   0  0  0  0  0  0  0  0  0  0  0  0
   93.3860   99.1700  -42.8240 H   0  0  0  0  0  0  0  0  0  0  0  0
   92.0890  102.5390  -42.3750 H   0  0  0  0  0  0  0  0  0  0  0  0
   93.3040  101.3510  -41.8530 H   0  0  0  0  0  0  0  0  0  0  0  0
   91.4650  101.4760  -40.1420 H   0  0  0  0  0  0  0  0  0  0  0  0
   92.6910   99.3740  -40.5820 H   0  0  0  0  0  0  0  0  0  0  0  0
   90.9870   99.1200  -40.0630 H   0  0  0  0  0  0  0  0  0  0  0  0
   89.2430  100.6710  -40.7190 H   0  0  0  0  0  0  0  0  0  0  0  0
   89.7250  102.1300  -41.7500 H   0  0  0  0  0  0  0  0  0  0  0  0
   87.3510   99.4890  -41.5620 H   0  0  0  0  0  0  0  0  0  0  0  0
   86.2320  102.8150  -41.4420 H   0  0  0  0  0  0  0  0  0  0  0  0
   81.7840  101.7980  -42.6350 H   0  0  0  0  0  0  0  0  0  0  0  0
   82.0220  100.0520  -42.6460 H   0  0  0  0  0  0  0  0  0  0  0  0
   82.2520  101.0070  -44.2250 H   0  0  0  0  0  0  0  0  0  0  0  0
   85.1620   97.6860  -41.8440 H   0  0  0  0  0  0  0  0  0  0  0  0
   83.9690   96.9050  -42.9290 H   0  0  0  0  0  0  0  0  0  0  0  0
  1  2  1  0  0  0  0
  2  6  1  0  0  0  0
  3  2  2  0  0  0  0
  3  4  1  0  0  0  0
  4  5  1  0  0  0  0
  5 29  1  0  0  0  0
  6  5  2  0  0  0  0
  7  4  1  1  0  0  0
  7 15  1  0  0  0  0
  8 31  1  0  0  0  0
  8  7  1  0  0  0  0
  9 17  1  6  0  0  0
  9  8  1  0  0  0  0
  9 16  1  0  0  0  0
 10 11  1  0  0  0  0
 10  9  1  0  0  0  0
 11 34  1  6  0  0  0
 11 12  1  0  0  0  0
 11 13  1  0  0  0  0
 12 36  1  0  0  0  0
 12  7  1  0  0  0  0
 13 38  1  0  0  0  0
 13 14  1  0  0  0  0
 14 15  1  0  0  0  0
 14 39  1  1  0  0  0
 15 40  1  0  0  0  0
 15 41  1  0  0  0  0
 16 14  1  0  0  0  0
 16 42  1  0  0  0  0
 17 19  1  0  0  0  0
 18 17  2  0  0  0  0
 19 44  1  0  0  0  0
 20 19  1  0  0  0  0
 20 24  1  0  0  0  0
 21 22  1  0  0  0  0
 21 20  2  0  0  0  0
 22 23  1  0  0  0  0
 23 24  2  0  0  0  0
 24 45  1  0  0  0  0
 25 22  1  0  0  0  0
 25 47  1  0  0  0  0
 25 46  1  0  0  0  0
 26 21  1  0  0  0  0
 26 28  1  0  0  0  0
 27 26  2  0  0  0  0
 28 49  1  0  0  0  0
 30  8  1  0  0  0  0
 32 10  1  0  0  0  0
 33 10  1  0  0  0  0
 35 12  1  0  0  0  0
 37 13  1  0  0  0  0
 43 16  1  0  0  0  0
 48 25  1  0  0  0  0
 50 28  1  0  0  0  0
M  END
>  <Pose>
1

>  <Score>
-6.47

$$$$
