
 OpenBabel03212208273D

 35 38  0  0  0  0  0  0  0  0999 V2000
   91.0060   94.6230  -45.9740 B   0  0  0  0  0  0  0  0  0  0  0  0
   91.6240   93.9010  -44.3240 C   0  0  0  0  0  0  0  0  0  0  0  0
   91.9120   92.5890  -44.0810 N   0  0  0  0  0  0  0  0  0  0  0  0
   92.3300   92.4720  -42.8430 N   0  0  0  0  0  0  0  0  0  0  0  0
   92.3290   93.6740  -42.2450 C   0  0  0  0  0  0  0  0  0  0  0  0
   92.6670   94.1020  -41.0180 N   0  0  0  0  0  0  0  0  0  0  0  0
   92.5830   95.3840  -40.6720 C   0  0  0  0  0  0  0  0  0  0  0  0
   92.1530   96.2790  -41.5560 N   0  0  0  0  0  0  0  0  0  0  0  0
   91.7810   95.9500  -42.8380 C   0  0  0  0  0  0  0  0  0  0  0  0
   91.8760   94.6230  -43.1770 C   0  0  0  0  0  0  0  0  0  0  0  0
   91.2970   96.9180  -43.7170 N   0  0  0  0  0  0  0  0  0  0  0  0
   90.0080   97.5410  -43.5120 C   0  0  0  0  0  0  0  0  0  0  0  0
   90.2690   98.9900  -43.0510 C   0  0  0  0  0  0  0  0  0  0  0  0
   91.4400   99.5290  -43.7760 C   0  0  0  0  0  0  0  0  0  0  0  0
   91.8990  100.8020  -43.7450 N   0  0  0  0  0  0  0  0  0  0  0  0
   92.9780  100.8670  -44.5430 C   0  0  0  0  0  0  0  0  0  0  0  0
   93.2240   99.6760  -45.0840 N   0  0  0  0  0  0  0  0  0  0  0  0
   92.2710   98.8430  -44.6100 C   0  0  0  0  0  0  0  0  0  0  0  0
   92.0330   97.4010  -44.8580 C   0  0  0  0  0  0  0  0  0  0  0  0
   91.3710  101.9230  -43.0110 C   0  0  0  0  0  0  0  0  0  0  0  0
   92.7530   91.2520  -42.1410 C   0  0  0  0  0  0  0  0  0  0  0  0
   92.8600   95.6920  -39.6890 H   0  0  0  0  0  0  0  0  0  0  0  0
   89.3980   97.0750  -42.7290 H   0  0  0  0  0  0  0  0  0  0  0  0
   89.3990   97.5770  -44.4470 H   0  0  0  0  0  0  0  0  0  0  0  0
   90.4570   99.0280  -41.9610 H   0  0  0  0  0  0  0  0  0  0  0  0
   89.3340   99.5430  -43.2490 H   0  0  0  0  0  0  0  0  0  0  0  0
   93.5970  101.7540  -44.7480 H   0  0  0  0  0  0  0  0  0  0  0  0
   92.9670   96.8360  -45.0430 H   0  0  0  0  0  0  0  0  0  0  0  0
   91.3530   97.3580  -45.7590 H   0  0  0  0  0  0  0  0  0  0  0  0
   92.1800  102.5230  -42.5430 H   0  0  0  0  0  0  0  0  0  0  0  0
   90.8460  102.6170  -43.7110 H   0  0  0  0  0  0  0  0  0  0  0  0
   90.6960  101.5830  -42.1900 H   0  0  0  0  0  0  0  0  0  0  0  0
   93.7710   91.3920  -41.7300 H   0  0  0  0  0  0  0  0  0  0  0  0
   92.7000   90.3980  -42.8390 H   0  0  0  0  0  0  0  0  0  0  0  0
   92.0370   91.0380  -41.3150 H   0  0  0  0  0  0  0  0  0  0  0  0
  1  2  1  0  0  0  0
  2  3  2  0  0  0  0
  2 10  1  0  0  0  0
  3  4  1  0  0  0  0
  4  5  1  0  0  0  0
  4 21  1  0  0  0  0
  5  6  1  0  0  0  0
  6  7  2  0  0  0  0
  7 22  1  0  0  0  0
  8  7  1  0  0  0  0
  9  8  2  0  0  0  0
 10  9  1  0  0  0  0
 10  5  2  0  0  0  0
 11 12  1  0  0  0  0
 11  9  1  0  0  0  0
 12 13  1  0  0  0  0
 12 23  1  0  0  0  0
 13 25  1  0  0  0  0
 14 15  1  0  0  0  0
 14 13  1  0  0  0  0
 15 20  1  0  0  0  0
 16 15  1  0  0  0  0
 17 18  1  0  0  0  0
 17 16  2  0  0  0  0
 18 14  2  0  0  0  0
 19 18  1  0  0  0  0
 19 11  1  0  0  0  0
 20 30  1  0  0  0  0
 20 32  1  0  0  0  0
 21 33  1  0  0  0  0
 21 35  1  0  0  0  0
 24 12  1  0  0  0  0
 26 13  1  0  0  0  0
 27 16  1  0  0  0  0
 28 19  1  0  0  0  0
 29 19  1  0  0  0  0
 31 20  1  0  0  0  0
 34 21  1  0  0  0  0
M  END
>  <Pose>
1

>  <Score>
-4.46

$$$$
