
 OpenBabel03212208273D

 53 56  0  0  1  0  0  0  0  0999 V2000
   91.7220   93.3210  -45.8490 B   0  0  0  0  0  0  0  0  0  0  0  0
   91.9440   93.3860  -43.9670 C   0  0  0  0  0  0  0  0  0  0  0  0
   92.1850   92.3710  -43.1180 N   0  0  0  0  0  0  0  0  0  0  0  0
   92.2620   92.7820  -41.8800 N   0  0  0  0  0  0  0  0  0  0  0  0
   92.0680   94.1150  -41.8850 C   0  0  0  0  0  0  0  0  0  0  0  0
   92.0320   95.0420  -40.9130 N   0  0  0  0  0  0  0  0  0  0  0  0
   91.8070   96.3350  -41.1630 C   0  0  0  0  0  0  0  0  0  0  0  0
   91.6140   96.7280  -42.4160 N   0  0  0  0  0  0  0  0  0  0  0  0
   91.6330   95.8700  -43.4640 C   0  0  0  0  0  0  0  0  0  0  0  0
   91.8650   94.5250  -43.2000 C   0  0  0  0  0  0  0  0  0  0  0  0
   91.4600   96.3220  -44.7770 N   0  0  0  0  0  0  0  0  0  0  0  0
   92.5270   96.9460  -45.5070 C   0  0  0  0  0  0  0  0  0  0  0  0
   92.1440   98.4260  -45.5820 C   0  0  0  0  0  0  0  0  0  0  0  0
   90.7060   98.6060  -45.3520 N   0  0  0  0  0  0  0  0  0  0  0  0
   89.9610   97.5820  -46.0880 C   0  0  0  0  0  0  0  0  0  0  0  0
   90.1950   96.2190  -45.4630 C   0  0  0  0  0  0  0  0  0  0  0  0
   90.3610   99.9060  -45.9060 C   0  0  2  0  0  0  0  0  0  0  0  0
   91.5360  100.3240  -46.8320 C   0  0  0  0  0  0  0  0  0  0  0  0
   90.2220  100.9190  -44.8440 C   0  0  0  0  0  0  0  0  0  0  0  0
   91.3170  101.5830  -44.6180 O   0  0  0  0  0  0  0  0  0  0  0  0
   89.0920  101.2360  -44.0740 N   0  0  0  0  0  0  0  0  0  0  0  0
   88.7190  100.7340  -42.7860 C   0  0  0  0  0  0  0  0  0  0  0  0
   87.2610  100.3410  -42.6670 C   0  0  0  0  0  0  0  0  0  0  0  0
   86.3250  101.2000  -43.4450 C   0  0  0  0  0  0  0  0  0  0  0  0
   86.8420  101.5060  -44.8340 C   0  0  0  0  0  0  0  0  0  0  0  0
   88.1520  102.2270  -44.6450 C   0  0  0  0  0  0  0  0  0  0  0  0
   92.5060   92.0230  -40.6620 C   0  0  0  0  0  0  0  0  0  0  0  0
   91.7830   97.0750  -40.3310 H   0  0  0  0  0  0  0  0  0  0  0  0
   92.4200   96.6190  -46.5890 H   0  0  0  0  0  0  0  0  0  0  0  0
   93.5300   96.8040  -45.1140 H   0  0  0  0  0  0  0  0  0  0  0  0
   92.6540   98.9260  -44.7380 H   0  0  0  0  0  0  0  0  0  0  0  0
   92.4910   98.9090  -46.5130 H   0  0  0  0  0  0  0  0  0  0  0  0
   88.8930   97.8210  -45.9780 H   0  0  0  0  0  0  0  0  0  0  0  0
   90.2630   97.5330  -47.1380 H   0  0  0  0  0  0  0  0  0  0  0  0
   89.3560   95.9090  -44.8490 H   0  0  0  0  0  0  0  0  0  0  0  0
   90.3480   95.4580  -46.2870 H   0  0  0  0  0  0  0  0  0  0  0  0
   89.4450   99.8550  -46.4970 H   0  0  0  0  0  0  0  0  0  0  0  0
   92.4750   99.8620  -46.4710 H   0  0  0  0  0  0  0  0  0  0  0  0
   91.6760  101.4160  -46.7900 H   0  0  0  0  0  0  0  0  0  0  0  0
   91.3230  100.0300  -47.8680 H   0  0  0  0  0  0  0  0  0  0  0  0
   88.8870  101.6070  -42.0740 H   0  0  0  0  0  0  0  0  0  0  0  0
   89.3090   99.9100  -42.4040 H   0  0  0  0  0  0  0  0  0  0  0  0
   86.9960  100.4660  -41.5820 H   0  0  0  0  0  0  0  0  0  0  0  0
   87.1300   99.2720  -42.8760 H   0  0  0  0  0  0  0  0  0  0  0  0
   86.1290  102.1400  -42.9010 H   0  0  0  0  0  0  0  0  0  0  0  0
   85.3660  100.6720  -43.5520 H   0  0  0  0  0  0  0  0  0  0  0  0
   86.9750  100.5450  -45.3880 H   0  0  0  0  0  0  0  0  0  0  0  0
   86.0950  102.1380  -45.3400 H   0  0  0  0  0  0  0  0  0  0  0  0
   88.5330  102.6640  -45.5720 H   0  0  0  0  0  0  0  0  0  0  0  0
   87.9980  103.0290  -43.8990 H   0  0  0  0  0  0  0  0  0  0  0  0
   91.6030   92.0230  -39.9980 H   0  0  0  0  0  0  0  0  0  0  0  0
   93.3060   92.5430  -40.1090 H   0  0  0  0  0  0  0  0  0  0  0  0
   92.7190   90.9670  -40.8870 H   0  0  0  0  0  0  0  0  0  0  0  0
  1  2  1  0  0  0  0
  2 10  1  0  0  0  0
  2  3  2  0  0  0  0
  3  4  1  0  0  0  0
  4 27  1  0  0  0  0
  5  4  1  0  0  0  0
  5  6  1  0  0  0  0
  7  6  2  0  0  0  0
  7 28  1  0  0  0  0
  8  7  1  0  0  0  0
  9 10  1  0  0  0  0
  9  8  2  0  0  0  0
 10  5  2  0  0  0  0
 11  9  1  0  0  0  0
 12 30  1  0  0  0  0
 12 11  1  0  0  0  0
 13 12  1  0  0  0  0
 13 14  1  0  0  0  0
 13 31  1  0  0  0  0
 15 33  1  0  0  0  0
 15 16  1  0  0  0  0
 15 14  1  0  0  0  0
 16 35  1  0  0  0  0
 16 11  1  0  0  0  0
 17 37  1  6  0  0  0
 17 14  1  0  0  0  0
 17 19  1  0  0  0  0
 18 39  1  0  0  0  0
 18 38  1  0  0  0  0
 18 17  1  0  0  0  0
 19 20  2  0  0  0  0
 19 21  1  0  0  0  0
 21 22  1  0  0  0  0
 22 23  1  0  0  0  0
 22 42  1  0  0  0  0
 22 41  1  0  0  0  0
 23 43  1  0  0  0  0
 24 45  1  0  0  0  0
 24 23  1  0  0  0  0
 25 26  1  0  0  0  0
 25 24  1  0  0  0  0
 26 21  1  0  0  0  0
 26 50  1  0  0  0  0
 27 52  1  0  0  0  0
 27 51  1  0  0  0  0
 29 12  1  0  0  0  0
 32 13  1  0  0  0  0
 34 15  1  0  0  0  0
 36 16  1  0  0  0  0
 40 18  1  0  0  0  0
 44 23  1  0  0  0  0
 46 24  1  0  0  0  0
 47 25  1  0  0  0  0
 48 25  1  0  0  0  0
 49 26  1  0  0  0  0
 53 27  1  0  0  0  0
M  END
>  <Pose>
1

>  <Score>
-4.36

$$$$
