
 OpenBabel03212208273D

 32 35  0  0  1  0  0  0  0  0999 V2000
   91.9930   93.0000  -45.0500 B   0  0  0  0  0  0  0  0  0  0  0  0
   91.8930   94.1220  -43.4980 C   0  0  0  0  0  0  0  0  0  0  0  0
   91.7660   95.4520  -43.4450 N   0  0  0  0  0  0  0  0  0  0  0  0
   91.7330   95.8460  -42.1730 C   0  0  0  0  0  0  0  0  0  0  0  0
   91.8420   94.7290  -41.4070 N   0  0  0  0  0  0  0  0  0  0  0  0
   91.9410   93.6490  -42.2030 C   0  0  0  0  0  0  0  0  0  0  0  0
   91.5980   97.2920  -41.8260 C   0  0  0  0  0  0  0  0  0  0  0  0
   90.8470   97.9840  -42.8440 N   0  0  2  0  0  0  0  0  0  0  0  0
   90.7530   97.5440  -44.2160 C   0  0  0  0  0  0  0  0  0  0  0  0
   91.6720   96.4010  -44.5360 C   0  0  0  0  0  0  0  0  0  0  0  0
   90.1660   99.1600  -42.4760 C   0  0  2  0  0  0  0  0  0  0  0  0
   88.9250   99.3350  -42.8680 C   0  0  0  0  0  0  0  0  0  0  0  0
   88.1640  100.5440  -42.5150 C   0  0  0  0  0  0  0  0  0  0  0  0
   86.9150  100.7330  -42.9010 C   0  0  0  0  0  0  0  0  0  0  0  0
   88.8670  101.4940  -41.7280 N   0  0  0  0  0  0  0  0  0  0  0  0
   90.2230  101.2860  -41.3100 C   0  0  0  0  0  0  0  0  0  0  0  0
   90.8320  100.1310  -41.6940 N   0  0  0  0  0  0  0  0  0  0  0  0
   92.0660  100.1870  -41.1810 N   0  0  0  0  0  0  0  0  0  0  0  0
   92.2530  101.3250  -40.4950 C   0  0  0  0  0  0  0  0  0  0  0  0
   91.0970  102.0030  -40.5830 N   0  0  0  0  0  0  0  0  0  0  0  0
   92.0430   92.6020  -41.8910 H   0  0  0  0  0  0  0  0  0  0  0  0
   91.1420   97.3850  -40.8200 H   0  0  0  0  0  0  0  0  0  0  0  0
   92.6150   97.7640  -41.7950 H   0  0  0  0  0  0  0  0  0  0  0  0
   91.0600   98.4130  -44.8580 H   0  0  0  0  0  0  0  0  0  0  0  0
   89.7060   97.3310  -44.4430 H   0  0  0  0  0  0  0  0  0  0  0  0
   91.2830   95.9120  -45.4540 H   0  0  0  0  0  0  0  0  0  0  0  0
   92.7040   96.7290  -44.7770 H   0  0  0  0  0  0  0  0  0  0  0  0
   88.3880   98.5990  -43.4750 H   0  0  0  0  0  0  0  0  0  0  0  0
   86.3730  100.0130  -43.5020 H   0  0  0  0  0  0  0  0  0  0  0  0
   86.3590  101.6220  -42.6410 H   0  0  0  0  0  0  0  0  0  0  0  0
   88.3830  102.3730  -41.4440 H   0  0  0  0  0  0  0  0  0  0  0  0
   93.1710  101.6330  -39.9700 H   0  0  0  0  0  0  0  0  0  0  0  0
  1  2  1  0  0  0  0
  2  3  1  0  0  0  0
  2  6  2  0  0  0  0
  3  4  1  0  0  0  0
  4  7  1  0  0  0  0
  4  5  2  0  0  0  0
  6 21  1  0  0  0  0
  6  5  1  0  0  0  0
  7 23  1  0  0  0  0
  7 22  1  0  0  0  0
  8  9  1  6  0  0  0
  8 11  1  0  0  0  0
  8  7  1  0  0  0  0
 10  9  1  0  0  0  0
 10  3  1  0  0  0  0
 11 12  1  6  0  0  0
 11 17  1  0  0  0  0
 12 13  2  0  0  0  0
 13 15  1  0  0  0  0
 14 30  1  0  0  0  0
 14 13  1  0  0  0  0
 15 31  1  0  0  0  0
 15 16  1  0  0  0  0
 16 20  2  0  0  0  0
 17 16  1  0  0  0  0
 17 18  1  0  0  0  0
 18 19  2  0  0  0  0
 19 32  1  0  0  0  0
 20 19  1  0  0  0  0
 24  9  1  0  0  0  0
 25  9  1  0  0  0  0
 26 10  1  0  0  0  0
 27 10  1  0  0  0  0
 28 12  1  0  0  0  0
 29 14  1  0  0  0  0
M  END
>  <Pose>
1

>  <Score>
-4.90

$$$$
