
 OpenBabel03212208273D

 49 52  0  0  0  0  0  0  0  0999 V2000
   92.7900   88.6450  -48.4910 B   0  0  0  0  0  0  0  0  0  0  0  0
   92.2140   90.2640  -47.6250 C   0  0  0  0  0  0  0  0  0  0  0  0
   92.6650   90.8120  -46.5370 O   0  0  0  0  0  0  0  0  0  0  0  0
   92.0440   91.9050  -46.2400 C   0  0  0  0  0  0  0  0  0  0  0  0
   91.0710   92.1290  -47.2210 C   0  0  0  0  0  0  0  0  0  0  0  0
   91.1990   91.0680  -48.0930 C   0  0  0  0  0  0  0  0  0  0  0  0
   92.2920   92.7580  -45.1050 C   0  0  0  0  0  0  0  0  0  0  0  0
   93.3480   92.5810  -44.4280 O   0  0  0  0  0  0  0  0  0  0  0  0
   91.4110   93.7960  -44.6970 N   0  0  0  0  0  0  0  0  0  0  0  0
   91.8590   95.1320  -44.4540 C   0  0  0  0  0  0  0  0  0  0  0  0
   91.0030   96.1770  -45.1020 C   0  0  0  0  0  0  0  0  0  0  0  0
   91.4970   97.5460  -44.8850 C   0  0  0  0  0  0  0  0  0  0  0  0
   92.0870   98.1020  -45.8700 O   0  0  0  0  0  0  0  0  0  0  0  0
   91.3420   98.2410  -43.6560 N   0  0  0  0  0  0  0  0  0  0  0  0
   91.9290   97.7060  -42.4580 C   0  0  0  0  0  0  0  0  0  0  0  0
   92.3930   98.7470  -41.4870 C   0  0  0  0  0  0  0  0  0  0  0  0
   91.6830  100.0610  -41.6310 C   0  0  0  0  0  0  0  0  0  0  0  0
   91.6290  100.7500  -40.3770 N   0  0  0  0  0  0  0  0  0  0  0  0
   90.9320  101.9900  -40.4140 C   0  0  0  0  0  0  0  0  0  0  0  0
   91.2380  102.8620  -41.5870 C   0  0  0  0  0  0  0  0  0  0  0  0
   92.2280  102.2620  -42.5180 C   0  0  0  0  0  0  0  0  0  0  0  0
   93.0340  102.8100  -43.4290 N   0  0  0  0  0  0  0  0  0  0  0  0
   93.7500  101.8460  -44.0240 C   0  0  0  0  0  0  0  0  0  0  0  0
   93.4070  100.6640  -43.4960 N   0  0  0  0  0  0  0  0  0  0  0  0
   92.4720  100.9110  -42.5700 C   0  0  0  0  0  0  0  0  0  0  0  0
   90.3120   99.8510  -42.2530 C   0  0  0  0  0  0  0  0  0  0  0  0
   90.5780   99.4840  -43.6980 C   0  0  0  0  0  0  0  0  0  0  0  0
   90.3820   92.9400  -47.2800 H   0  0  0  0  0  0  0  0  0  0  0  0
   90.6130   90.8760  -49.0030 H   0  0  0  0  0  0  0  0  0  0  0  0
   90.4080   93.5620  -44.5740 H   0  0  0  0  0  0  0  0  0  0  0  0
   91.9890   95.3470  -43.3760 H   0  0  0  0  0  0  0  0  0  0  0  0
   92.9000   95.2060  -44.8870 H   0  0  0  0  0  0  0  0  0  0  0  0
   91.0430   95.9890  -46.2110 H   0  0  0  0  0  0  0  0  0  0  0  0
   89.9440   96.0310  -44.8110 H   0  0  0  0  0  0  0  0  0  0  0  0
   92.7510   97.0230  -42.7540 H   0  0  0  0  0  0  0  0  0  0  0  0
   91.1580   97.0820  -41.9570 H   0  0  0  0  0  0  0  0  0  0  0  0
   93.4740   98.9240  -41.6650 H   0  0  0  0  0  0  0  0  0  0  0  0
   92.3090   98.4140  -40.4290 H   0  0  0  0  0  0  0  0  0  0  0  0
   91.1630  100.1240  -39.6840 H   0  0  0  0  0  0  0  0  0  0  0  0
   91.2360  102.5670  -39.4930 H   0  0  0  0  0  0  0  0  0  0  0  0
   89.8290  101.8550  -40.3030 H   0  0  0  0  0  0  0  0  0  0  0  0
   90.2930  103.0570  -42.1620 H   0  0  0  0  0  0  0  0  0  0  0  0
   91.6180  103.8660  -41.3050 H   0  0  0  0  0  0  0  0  0  0  0  0
   94.5010  101.9400  -44.8110 H   0  0  0  0  0  0  0  0  0  0  0  0
   93.8020   99.7040  -43.7600 H   0  0  0  0  0  0  0  0  0  0  0  0
   89.6690  100.7390  -42.1540 H   0  0  0  0  0  0  0  0  0  0  0  0
   89.8100   98.9470  -41.8010 H   0  0  0  0  0  0  0  0  0  0  0  0
   91.1880  100.2300  -44.2270 H   0  0  0  0  0  0  0  0  0  0  0  0
   89.5860   99.3230  -44.1640 H   0  0  0  0  0  0  0  0  0  0  0  0
  1  2  1  0  0  0  0
  2  3  1  0  0  0  0
  3  4  1  0  0  0  0
  4  7  1  0  0  0  0
  5  4  2  0  0  0  0
  6  2  2  0  0  0  0
  6  5  1  0  0  0  0
  7  9  1  0  0  0  0
  7  8  2  0  0  0  0
  9 30  1  0  0  0  0
  9 10  1  0  0  0  0
 10 31  1  0  0  0  0
 11 12  1  0  0  0  0
 11 34  1  0  0  0  0
 11 10  1  0  0  0  0
 12 14  1  0  0  0  0
 13 12  2  0  0  0  0
 14 15  1  0  0  0  0
 15 36  1  0  0  0  0
 15 16  1  0  0  0  0
 16 38  1  0  0  0  0
 17 16  1  0  0  0  0
 17 18  1  0  0  0  0
 18 39  1  0  0  0  0
 19 18  1  0  0  0  0
 19 41  1  0  0  0  0
 19 40  1  0  0  0  0
 20 43  1  0  0  0  0
 20 19  1  0  0  0  0
 21 20  1  0  0  0  0
 22 21  1  0  0  0  0
 23 24  1  0  0  0  0
 23 22  2  0  0  0  0
 24 25  1  0  0  0  0
 25 21  2  0  0  0  0
 25 17  1  0  0  0  0
 26 46  1  0  0  0  0
 26 47  1  0  0  0  0
 26 17  1  0  0  0  0
 27 14  1  0  0  0  0
 27 26  1  0  0  0  0
 28  5  1  0  0  0  0
 29  6  1  0  0  0  0
 32 10  1  0  0  0  0
 33 11  1  0  0  0  0
 35 15  1  0  0  0  0
 37 16  1  0  0  0  0
 42 20  1  0  0  0  0
 44 23  1  0  0  0  0
 45 24  1  0  0  0  0
 48 27  1  0  0  0  0
 49 27  1  0  0  0  0
M  END
>  <Pose>
1

>  <Score>
-6.51

$$$$
