
 OpenBabel03212208273D

 49 52  0  0  0  0  0  0  0  0999 V2000
   83.8480   96.7610  -45.1370 B   0  0  0  0  0  0  0  0  0  0  0  0
   85.3250   97.8860  -44.5950 C   0  0  0  0  0  0  0  0  0  0  0  0
   86.5670   97.5750  -44.5010 O   0  0  0  0  0  0  0  0  0  0  0  0
   87.2930   98.5760  -44.1050 C   0  0  0  0  0  0  0  0  0  0  0  0
   86.4440   99.6440  -43.9230 C   0  0  0  0  0  0  0  0  0  0  0  0
   85.1830   99.2040  -44.2360 C   0  0  0  0  0  0  0  0  0  0  0  0
   88.7480   98.6170  -43.8780 C   0  0  0  0  0  0  0  0  0  0  0  0
   89.1670   98.9400  -42.7580 O   0  0  0  0  0  0  0  0  0  0  0  0
   89.6660   98.2970  -44.9080 N   0  0  0  0  0  0  0  0  0  0  0  0
   89.1760   97.8640  -46.2010 C   0  0  0  0  0  0  0  0  0  0  0  0
   89.6550   96.4770  -46.5570 C   0  0  0  0  0  0  0  0  0  0  0  0
   90.9550   96.3020  -45.8890 N   0  0  0  0  0  0  0  0  0  0  0  0
   91.7800   97.4590  -45.8110 C   0  0  0  0  0  0  0  0  0  0  0  0
   91.1080   98.3700  -44.7670 C   0  0  0  0  0  0  0  0  0  0  0  0
   91.2510   95.0080  -45.3970 C   0  0  0  0  0  0  0  0  0  0  0  0
   91.1790   93.9080  -46.1970 N   0  0  0  0  0  0  0  0  0  0  0  0
   91.4540   92.6750  -45.7440 C   0  0  0  0  0  0  0  0  0  0  0  0
   91.8170   92.4930  -44.4560 N   0  0  0  0  0  0  0  0  0  0  0  0
   91.9160   93.5190  -43.5930 C   0  0  0  0  0  0  0  0  0  0  0  0
   91.6200   94.7930  -44.1010 C   0  0  0  0  0  0  0  0  0  0  0  0
   92.3140   93.3410  -42.1700 C   0  0  0  0  0  0  0  0  0  0  0  0
   91.3650   91.5620  -46.6170 N   0  0  0  0  0  0  0  0  0  0  0  0
   90.1480   91.1810  -47.2910 C   0  0  0  0  0  0  0  0  0  0  0  0
   90.3960   91.0450  -48.7640 C   0  0  0  0  0  0  0  0  0  0  0  0
   91.7500   91.0830  -49.0950 O   0  0  0  0  0  0  0  0  0  0  0  0
   92.4820   90.2330  -48.2710 C   0  0  0  0  0  0  0  0  0  0  0  0
   92.5430   90.7570  -46.8570 C   0  0  0  0  0  0  0  0  0  0  0  0
   86.7200  100.6590  -43.5910 H   0  0  0  0  0  0  0  0  0  0  0  0
   84.2670   99.7990  -44.2010 H   0  0  0  0  0  0  0  0  0  0  0  0
   89.4400   98.5750  -47.0090 H   0  0  0  0  0  0  0  0  0  0  0  0
   88.0480   97.8050  -46.1900 H   0  0  0  0  0  0  0  0  0  0  0  0
   88.9690   95.6940  -46.2360 H   0  0  0  0  0  0  0  0  0  0  0  0
   89.8970   96.4030  -47.6570 H   0  0  0  0  0  0  0  0  0  0  0  0
   92.7890   97.2050  -45.4820 H   0  0  0  0  0  0  0  0  0  0  0  0
   91.7810   98.0040  -46.7880 H   0  0  0  0  0  0  0  0  0  0  0  0
   91.4910   98.0290  -43.8100 H   0  0  0  0  0  0  0  0  0  0  0  0
   91.4020   99.4280  -44.9070 H   0  0  0  0  0  0  0  0  0  0  0  0
   91.7050   95.5960  -43.3910 H   0  0  0  0  0  0  0  0  0  0  0  0
   91.5000   93.6790  -41.4970 H   0  0  0  0  0  0  0  0  0  0  0  0
   92.6230   92.3070  -42.0240 H   0  0  0  0  0  0  0  0  0  0  0  0
   93.1950   94.0030  -42.0020 H   0  0  0  0  0  0  0  0  0  0  0  0
   89.3510   91.9600  -47.1460 H   0  0  0  0  0  0  0  0  0  0  0  0
   89.7640   90.2110  -46.8810 H   0  0  0  0  0  0  0  0  0  0  0  0
   90.0050   90.0560  -49.1290 H   0  0  0  0  0  0  0  0  0  0  0  0
   89.8700   91.8350  -49.3360 H   0  0  0  0  0  0  0  0  0  0  0  0
   93.5080   90.1410  -48.6670 H   0  0  0  0  0  0  0  0  0  0  0  0
   92.0340   89.2020  -48.3000 H   0  0  0  0  0  0  0  0  0  0  0  0
   93.4830   91.3380  -46.7150 H   0  0  0  0  0  0  0  0  0  0  0  0
   92.5350   89.8780  -46.1640 H   0  0  0  0  0  0  0  0  0  0  0  0
  1  2  1  0  0  0  0
  2  3  1  0  0  0  0
  2  6  2  0  0  0  0
  3  4  1  0  0  0  0
  4  5  2  0  0  0  0
  4  7  1  0  0  0  0
  5 28  1  0  0  0  0
  6 29  1  0  0  0  0
  6  5  1  0  0  0  0
  7  8  2  0  0  0  0
  9 14  1  0  0  0  0
  9  7  1  0  0  0  0
 10 31  1  0  0  0  0
 10  9  1  0  0  0  0
 11 32  1  0  0  0  0
 11 10  1  0  0  0  0
 11 12  1  0  0  0  0
 12 13  1  0  0  0  0
 12 15  1  0  0  0  0
 13 34  1  0  0  0  0
 13 14  1  0  0  0  0
 14 36  1  0  0  0  0
 15 20  2  0  0  0  0
 16 17  2  0  0  0  0
 16 15  1  0  0  0  0
 17 18  1  0  0  0  0
 18 19  2  0  0  0  0
 19 21  1  0  0  0  0
 20 19  1  0  0  0  0
 20 38  1  0  0  0  0
 21 40  1  0  0  0  0
 21 41  1  0  0  0  0
 21 39  1  0  0  0  0
 22 17  1  0  0  0  0
 23 42  1  0  0  0  0
 23 43  1  0  0  0  0
 23 22  1  0  0  0  0
 24 23  1  0  0  0  0
 25 24  1  0  0  0  0
 25 26  1  0  0  0  0
 26 27  1  0  0  0  0
 27 48  1  0  0  0  0
 27 22  1  0  0  0  0
 27 49  1  0  0  0  0
 30 10  1  0  0  0  0
 33 11  1  0  0  0  0
 35 13  1  0  0  0  0
 37 14  1  0  0  0  0
 44 24  1  0  0  0  0
 45 24  1  0  0  0  0
 46 26  1  0  0  0  0
 47 26  1  0  0  0  0
M  END
>  <Pose>
1

>  <Score>
-5.04

$$$$
