
 OpenBabel03212208273D

 41 44  0  0  1  0  0  0  0  0999 V2000
   91.7320   91.0850  -46.7780 B   0  0  0  0  0  0  0  0  0  0  0  0
   91.7230   92.6470  -45.6690 C   0  0  0  0  0  0  0  0  0  0  0  0
   91.0860   93.8080  -46.0460 C   0  0  0  0  0  0  0  0  0  0  0  0
   91.0770   94.9210  -45.2590 N   0  0  0  0  0  0  0  0  0  0  0  0
   91.7150   94.8790  -44.0750 C   0  0  0  0  0  0  0  0  0  0  0  0
   91.5770   96.0730  -43.4750 N   0  0  0  0  0  0  0  0  0  0  0  0
   90.8530   96.8900  -44.2630 C   0  0  0  0  0  0  0  0  0  0  0  0
   90.5450   96.1510  -45.3860 C   0  0  0  0  0  0  0  0  0  0  0  0
   90.4630   98.2980  -43.9950 C   0  0  0  0  0  0  0  0  0  0  0  0
   89.0540   98.5070  -44.2460 N   0  0  0  0  0  0  0  0  0  0  0  0
   88.5950   98.6270  -45.5670 C   0  0  0  0  0  0  0  0  0  0  0  0
   88.9530   97.7990  -46.4310 O   0  0  0  0  0  0  0  0  0  0  0  0
   87.6890   99.7260  -45.9490 C   0  0  1  0  0  0  0  0  0  0  0  0
   86.3340   99.1870  -46.3320 C   0  0  0  0  0  0  0  0  0  0  0  0
   85.8110   98.4950  -45.1690 N   0  0  0  0  0  0  0  0  0  0  0  0
   86.0490   98.9740  -43.9370 C   0  0  0  0  0  0  0  0  0  0  0  0
   85.4480   98.1360  -43.0690 N   0  0  0  0  0  0  0  0  0  0  0  0
   84.8600   97.1790  -43.7260 N   0  0  0  0  0  0  0  0  0  0  0  0
   85.0770   97.3910  -45.0300 C   0  0  0  0  0  0  0  0  0  0  0  0
   84.5470   96.4820  -46.0930 C   0  0  0  0  0  0  0  0  0  0  0  0
   86.8270  100.1880  -43.6460 C   0  0  0  0  0  0  0  0  0  0  0  0
   87.5860  100.7110  -44.8130 C   0  0  0  0  0  0  0  0  0  0  0  0
   92.3680   93.7200  -43.6660 C   0  0  0  0  0  0  0  0  0  0  0  0
   92.3780   92.5990  -44.4570 C   0  0  0  0  0  0  0  0  0  0  0  0
   90.5830   93.8330  -46.9880 H   0  0  0  0  0  0  0  0  0  0  0  0
   89.9780   96.4360  -46.2610 H   0  0  0  0  0  0  0  0  0  0  0  0
   90.7470   98.5600  -42.9470 H   0  0  0  0  0  0  0  0  0  0  0  0
   91.0630   98.9820  -44.6550 H   0  0  0  0  0  0  0  0  0  0  0  0
   88.3750   98.5690  -43.4640 H   0  0  0  0  0  0  0  0  0  0  0  0
   88.1560  100.2740  -46.8000 H   0  0  0  0  0  0  0  0  0  0  0  0
   85.6680  100.0460  -46.5860 H   0  0  0  0  0  0  0  0  0  0  0  0
   86.4540   98.5190  -47.2070 H   0  0  0  0  0  0  0  0  0  0  0  0
   85.1080   96.6260  -47.0220 H   0  0  0  0  0  0  0  0  0  0  0  0
   84.6700   95.4100  -45.7830 H   0  0  0  0  0  0  0  0  0  0  0  0
   83.4610   96.6720  -46.2080 H   0  0  0  0  0  0  0  0  0  0  0  0
   86.1360  101.0050  -43.2980 H   0  0  0  0  0  0  0  0  0  0  0  0
   87.4850   99.9730  -42.7780 H   0  0  0  0  0  0  0  0  0  0  0  0
   88.6340  100.9570  -44.4910 H   0  0  0  0  0  0  0  0  0  0  0  0
   87.1540  101.6560  -45.2100 H   0  0  0  0  0  0  0  0  0  0  0  0
   92.8610   93.7510  -42.7030 H   0  0  0  0  0  0  0  0  0  0  0  0
   92.9010   91.7190  -44.0960 H   0  0  0  0  0  0  0  0  0  0  0  0
  1  2  1  0  0  0  0
  2 24  1  0  0  0  0
  3  2  2  0  0  0  0
  3  4  1  0  0  0  0
  4  5  1  0  0  0  0
  5 23  1  0  0  0  0
  5  6  2  0  0  0  0
  7  9  1  0  0  0  0
  7  6  1  0  0  0  0
  8  4  1  0  0  0  0
  8  7  2  0  0  0  0
  9 27  1  0  0  0  0
 10  9  1  0  0  0  0
 10 29  1  0  0  0  0
 11 10  1  0  0  0  0
 12 11  2  0  0  0  0
 13 30  1  6  0  0  0
 13 11  1  0  0  0  0
 13 22  1  0  0  0  0
 14 13  1  0  0  0  0
 14 15  1  0  0  0  0
 15 19  1  0  0  0  0
 15 16  1  0  0  0  0
 16 21  1  0  0  0  0
 16 17  2  0  0  0  0
 18 17  1  0  0  0  0
 19 18  2  0  0  0  0
 20 34  1  0  0  0  0
 20 19  1  0  0  0  0
 21 36  1  0  0  0  0
 21 37  1  0  0  0  0
 22 38  1  0  0  0  0
 22 21  1  0  0  0  0
 23 40  1  0  0  0  0
 24 41  1  0  0  0  0
 24 23  2  0  0  0  0
 25  3  1  0  0  0  0
 26  8  1  0  0  0  0
 28  9  1  0  0  0  0
 31 14  1  0  0  0  0
 32 14  1  0  0  0  0
 33 20  1  0  0  0  0
 35 20  1  0  0  0  0
 39 22  1  0  0  0  0
M  END
>  <Pose>
1

>  <Score>
-4.25

$$$$
