
 OpenBabel03212208273D

 37 40  0  0  1  0  0  0  0  0999 V2000
   90.8800   90.8310  -51.0200 B   0  0  0  0  0  0  0  0  0  0  0  0
   91.5080   90.9320  -49.2070 C   0  0  0  0  0  0  0  0  0  0  0  0
   91.0440   91.8930  -48.3360 C   0  0  0  0  0  0  0  0  0  0  0  0
   91.4780   91.9770  -47.0520 N   0  0  0  0  0  0  0  0  0  0  0  0
   91.1980   92.7840  -46.0400 N   0  0  0  0  0  0  0  0  0  0  0  0
   91.8970   92.4660  -44.9420 C   0  0  0  0  0  0  0  0  0  0  0  0
   92.6620   91.3680  -45.3360 C   0  0  0  0  0  0  0  0  0  0  0  0
   92.3920   91.0720  -46.6560 C   0  0  0  0  0  0  0  0  0  0  0  0
   92.8560   90.1190  -47.5070 N   0  0  0  0  0  0  0  0  0  0  0  0
   92.4430   90.0160  -48.7790 C   0  0  0  0  0  0  0  0  0  0  0  0
   91.8990   93.0870  -43.6100 C   0  0  0  0  0  0  0  0  0  0  0  0
   91.8770   92.3490  -42.5880 O   0  0  0  0  0  0  0  0  0  0  0  0
   91.9280   94.4910  -43.4190 N   0  0  0  0  0  0  0  0  0  0  0  0
   91.9260   95.0310  -42.1090 C   0  0  0  0  0  0  0  0  0  0  0  0
   91.3360   96.3890  -42.0180 C   0  0  2  0  0  0  0  0  0  0  0  0
   90.8850   96.9620  -43.2540 N   0  0  2  0  0  0  0  0  0  0  0  0
   91.8730   96.8040  -44.3050 C   0  0  0  0  0  0  0  0  0  0  0  0
   91.9580   95.3180  -44.5950 C   0  0  0  0  0  0  0  0  0  0  0  0
   90.5980   98.3210  -42.9110 C   0  0  0  0  0  0  0  0  0  0  0  0
   91.6640   98.7200  -41.9210 C   0  0  0  0  0  0  0  0  0  0  0  0
   92.3320   97.4240  -41.5220 C   0  0  0  0  0  0  0  0  0  0  0  0
   90.3110   92.5990  -48.6960 H   0  0  0  0  0  0  0  0  0  0  0  0
   93.3440   90.8680  -44.6640 H   0  0  0  0  0  0  0  0  0  0  0  0
   92.8220   89.2450  -49.4560 H   0  0  0  0  0  0  0  0  0  0  0  0
   92.9690   95.0450  -41.7080 H   0  0  0  0  0  0  0  0  0  0  0  0
   91.3840   94.3240  -41.4080 H   0  0  0  0  0  0  0  0  0  0  0  0
   90.4620   96.3870  -41.3260 H   0  0  0  0  0  0  0  0  0  0  0  0
   91.4740   97.3060  -45.2060 H   0  0  0  0  0  0  0  0  0  0  0  0
   92.8430   97.2580  -44.0700 H   0  0  0  0  0  0  0  0  0  0  0  0
   92.8830   95.0870  -45.1630 H   0  0  0  0  0  0  0  0  0  0  0  0
   91.1040   95.0410  -45.2900 H   0  0  0  0  0  0  0  0  0  0  0  0
   89.5900   98.3230  -42.4060 H   0  0  0  0  0  0  0  0  0  0  0  0
   90.5670   98.9990  -43.7860 H   0  0  0  0  0  0  0  0  0  0  0  0
   92.3640   99.4320  -42.4030 H   0  0  0  0  0  0  0  0  0  0  0  0
   91.2260   99.2410  -41.0430 H   0  0  0  0  0  0  0  0  0  0  0  0
   92.4870   97.3350  -40.4380 H   0  0  0  0  0  0  0  0  0  0  0  0
   93.2850   97.2760  -42.0650 H   0  0  0  0  0  0  0  0  0  0  0  0
  1  2  1  0  0  0  0
  2 10  1  0  0  0  0
  2  3  2  0  0  0  0
  3  4  1  0  0  0  0
  4  8  1  0  0  0  0
  4  5  1  0  0  0  0
  5  6  2  0  0  0  0
  6 11  1  0  0  0  0
  7  6  1  0  0  0  0
  7 23  1  0  0  0  0
  8  7  2  0  0  0  0
  9  8  1  0  0  0  0
 10  9  2  0  0  0  0
 11 13  1  0  0  0  0
 11 12  2  0  0  0  0
 13 14  1  0  0  0  0
 14 15  1  0  0  0  0
 14 25  1  0  0  0  0
 14 26  1  0  0  0  0
 15 21  1  0  0  0  0
 15 27  1  1  0  0  0
 16 17  1  6  0  0  0
 16 19  1  0  0  0  0
 16 15  1  0  0  0  0
 17 29  1  0  0  0  0
 18 17  1  0  0  0  0
 18 13  1  0  0  0  0
 19 32  1  0  0  0  0
 19 20  1  0  0  0  0
 20 21  1  0  0  0  0
 20 35  1  0  0  0  0
 21 36  1  0  0  0  0
 22  3  1  0  0  0  0
 24 10  1  0  0  0  0
 28 17  1  0  0  0  0
 30 18  1  0  0  0  0
 31 18  1  0  0  0  0
 33 19  1  0  0  0  0
 34 20  1  0  0  0  0
 37 21  1  0  0  0  0
M  END
>  <Pose>
1

>  <Score>
-5.08

$$$$
