
 OpenBabel03212208273D

 39 42  0  0  0  0  0  0  0  0999 V2000
   93.5020  103.0720  -40.1950 B   0  0  0  0  0  0  0  0  0  0  0  0
   92.7940  101.4610  -40.9240 C   0  0  0  0  0  0  0  0  0  0  0  0
   93.1930  100.2490  -40.4560 C   0  0  0  0  0  0  0  0  0  0  0  0
   92.7030   99.1240  -40.9600 N   0  0  0  0  0  0  0  0  0  0  0  0
   92.9390   97.8430  -40.6670 N   0  0  0  0  0  0  0  0  0  0  0  0
   92.1800   97.0840  -41.4750 C   0  0  0  0  0  0  0  0  0  0  0  0
   91.4420   97.8980  -42.3020 C   0  0  0  0  0  0  0  0  0  0  0  0
   91.7970   99.1950  -41.9500 C   0  0  0  0  0  0  0  0  0  0  0  0
   91.3930  100.3840  -42.4240 N   0  0  0  0  0  0  0  0  0  0  0  0
   91.8720  101.5290  -41.9320 C   0  0  0  0  0  0  0  0  0  0  0  0
   90.4940   97.5360  -43.3270 C   0  0  0  0  0  0  0  0  0  0  0  0
   89.2680   97.5160  -43.0200 O   0  0  0  0  0  0  0  0  0  0  0  0
   90.9230   97.2130  -44.6400 N   0  0  0  0  0  0  0  0  0  0  0  0
   92.3720   97.1810  -44.8910 C   0  0  0  0  0  0  0  0  0  0  0  0
   92.5210   96.2170  -46.0680 C   0  0  0  0  0  0  0  0  0  0  0  0
   91.5690   95.1710  -45.8400 N   0  0  0  0  0  0  0  0  0  0  0  0
   90.2040   95.5350  -46.3190 C   0  0  0  0  0  0  0  0  0  0  0  0
   89.9780   96.9210  -45.7080 C   0  0  0  0  0  0  0  0  0  0  0  0
   91.7600   93.9480  -45.2180 C   0  0  0  0  0  0  0  0  0  0  0  0
   91.4830   92.8840  -45.9120 O   0  0  0  0  0  0  0  0  0  0  0  0
   92.2320   93.6510  -43.8760 C   0  0  0  0  0  0  0  0  0  0  0  0
   91.6050   94.0220  -42.7510 O   0  0  0  0  0  0  0  0  0  0  0  0
   92.2340   93.6340  -41.6960 C   0  0  0  0  0  0  0  0  0  0  0  0
   93.3670   92.9520  -42.0640 C   0  0  0  0  0  0  0  0  0  0  0  0
   93.3480   92.9730  -43.4500 C   0  0  0  0  0  0  0  0  0  0  0  0
   93.9310  100.1940  -39.6490 H   0  0  0  0  0  0  0  0  0  0  0  0
   92.1740   96.0010  -41.4520 H   0  0  0  0  0  0  0  0  0  0  0  0
   91.5660  102.5020  -42.2920 H   0  0  0  0  0  0  0  0  0  0  0  0
   92.8750   96.7220  -44.0370 H   0  0  0  0  0  0  0  0  0  0  0  0
   92.7170   98.1780  -45.1730 H   0  0  0  0  0  0  0  0  0  0  0  0
   93.5290   95.9460  -46.3200 H   0  0  0  0  0  0  0  0  0  0  0  0
   92.1790   96.8270  -46.9860 H   0  0  0  0  0  0  0  0  0  0  0  0
   89.4640   94.8020  -45.9880 H   0  0  0  0  0  0  0  0  0  0  0  0
   90.3070   95.5910  -47.4220 H   0  0  0  0  0  0  0  0  0  0  0  0
   90.0320   97.7100  -46.4760 H   0  0  0  0  0  0  0  0  0  0  0  0
   88.9700   96.9070  -45.2570 H   0  0  0  0  0  0  0  0  0  0  0  0
   91.9420   93.8040  -40.6470 H   0  0  0  0  0  0  0  0  0  0  0  0
   94.1240   92.4900  -41.4260 H   0  0  0  0  0  0  0  0  0  0  0  0
   94.1300   92.5200  -44.0430 H   0  0  0  0  0  0  0  0  0  0  0  0
  2  3  2  0  0  0  0
  2  1  1  0  0  0  0
  3 26  1  0  0  0  0
  4  5  1  0  0  0  0
  4  3  1  0  0  0  0
  6 27  1  0  0  0  0
  6  5  2  0  0  0  0
  7  8  2  0  0  0  0
  7  6  1  0  0  0  0
  8  4  1  0  0  0  0
  9  8  1  0  0  0  0
  9 10  2  0  0  0  0
 10  2  1  0  0  0  0
 11 12  2  0  0  0  0
 11  7  1  0  0  0  0
 13 11  1  0  0  0  0
 14 13  1  0  0  0  0
 14 29  1  0  0  0  0
 15 16  1  0  0  0  0
 15 14  1  0  0  0  0
 16 19  1  0  0  0  0
 17 33  1  0  0  0  0
 17 16  1  0  0  0  0
 17 18  1  0  0  0  0
 18 36  1  0  0  0  0
 18 13  1  0  0  0  0
 19 21  1  0  0  0  0
 20 19  2  0  0  0  0
 21 25  2  0  0  0  0
 21 22  1  0  0  0  0
 22 23  1  0  0  0  0
 23 37  1  0  0  0  0
 24 23  2  0  0  0  0
 24 38  1  0  0  0  0
 25 24  1  0  0  0  0
 28 10  1  0  0  0  0
 30 14  1  0  0  0  0
 31 15  1  0  0  0  0
 32 15  1  0  0  0  0
 34 17  1  0  0  0  0
 35 18  1  0  0  0  0
 39 25  1  0  0  0  0
M  END
>  <Pose>
1

>  <Score>
-4.93

$$$$
