
 OpenBabel03212208273D

 50 53  0  0  1  0  0  0  0  0999 V2000
   91.1000  103.2860  -39.7570 B   0  0  0  0  0  0  0  0  0  0  0  0
   91.4310  101.9820  -41.1200 C   0  0  0  0  0  0  0  0  0  0  0  0
   92.6690  101.9290  -41.7160 C   0  0  0  0  0  0  0  0  0  0  0  0
   92.9410  100.9900  -42.7130 C   0  0  0  0  0  0  0  0  0  0  0  0
   91.9030  100.1250  -43.0690 C   0  0  0  0  0  0  0  0  0  0  0  0
   90.6750  100.1700  -42.4880 C   0  0  0  0  0  0  0  0  0  0  0  0
   90.4260  101.1080  -41.5000 C   0  0  0  0  0  0  0  0  0  0  0  0
   92.1720   99.0950  -44.0930 C   0  0  1  0  0  0  0  0  0  0  0  0
   91.8110   97.7740  -43.5970 N   0  0  0  0  0  0  0  0  0  0  0  0
   91.9100   97.4090  -42.1880 C   0  0  0  0  0  0  0  0  0  0  0  0
   91.7890   95.9490  -41.9510 C   0  0  0  0  0  0  0  0  0  0  0  0
   92.7120   95.1100  -42.7970 C   0  0  0  0  0  0  0  0  0  0  0  0
   91.8880   94.6530  -43.9860 C   0  0  0  0  0  0  0  0  0  0  0  0
   91.4330   95.6900  -44.8650 C   0  0  0  0  0  0  0  0  0  0  0  0
   91.3990   97.0320  -44.7010 C   0  0  0  0  0  0  0  0  0  0  0  0
   90.8860   97.8690  -45.7120 N   0  0  0  0  0  4  0  0  0  0  0  0
   91.2770   99.1790  -45.2800 C   0  0  0  0  0  0  0  0  0  0  0  0
   89.4700   97.6890  -45.6950 C   0  0  0  0  0  0  0  0  0  0  0  0
   88.8410   96.9240  -46.6620 C   0  0  0  0  0  0  0  0  0  0  0  0
   87.4540   96.8750  -46.6020 C   0  0  0  0  0  0  0  0  0  0  0  0
   86.6940   97.5330  -45.6530 C   0  0  0  0  0  0  0  0  0  0  0  0
   87.3800   98.3010  -44.6880 C   0  0  0  0  0  0  0  0  0  0  0  0
   88.7260   98.3380  -44.7560 C   0  0  0  0  0  0  0  0  0  0  0  0
   89.5780   96.2690  -47.6010 O   0  0  0  0  0  0  0  0  0  0  0  0
   88.9730   95.5570  -48.6480 C   0  0  0  0  0  0  0  0  0  0  0  0
   93.5080   99.0680  -44.3950 O   0  0  0  0  0  0  0  0  0  0  0  0
   93.4790  102.6040  -41.4330 H   0  0  0  0  0  0  0  0  0  0  0  0
   93.9290  100.9780  -43.1300 H   0  0  0  0  0  0  0  0  0  0  0  0
   89.8650   99.4790  -42.7790 H   0  0  0  0  0  0  0  0  0  0  0  0
   89.4290  101.1420  -41.0380 H   0  0  0  0  0  0  0  0  0  0  0  0
   92.9160   97.7340  -41.8420 H   0  0  0  0  0  0  0  0  0  0  0  0
   91.0740   97.8790  -41.5990 H   0  0  0  0  0  0  0  0  0  0  0  0
   92.0850   95.7440  -40.8840 H   0  0  0  0  0  0  0  0  0  0  0  0
   90.7210   95.6690  -42.0600 H   0  0  0  0  0  0  0  0  0  0  0  0
   92.9960   94.1530  -42.2430 H   0  0  0  0  0  0  0  0  0  0  0  0
   93.6090   95.6650  -43.1370 H   0  0  0  0  0  0  0  0  0  0  0  0
   91.0080   94.0790  -43.5530 H   0  0  0  0  0  0  0  0  0  0  0  0
   92.5050   93.8990  -44.5470 H   0  0  0  0  0  0  0  0  0  0  0  0
   91.0610   95.3590  -45.8220 H   0  0  0  0  0  0  0  0  0  0  0  0
   91.2880   97.6960  -46.6620 H   0  0  0  0  0  0  0  0  0  0  0  0
   90.4060   99.8530  -45.1160 H   0  0  0  0  0  0  0  0  0  0  0  0
   91.8360   99.6610  -46.1000 H   0  0  0  0  0  0  0  0  0  0  0  0
   86.9840   96.2730  -47.3770 H   0  0  0  0  0  0  0  0  0  0  0  0
   85.6210   97.4860  -45.6160 H   0  0  0  0  0  0  0  0  0  0  0  0
   86.8030   98.8200  -43.9560 H   0  0  0  0  0  0  0  0  0  0  0  0
   89.2050   98.9730  -43.9800 H   0  0  0  0  0  0  0  0  0  0  0  0
   88.1870   94.8890  -48.2300 H   0  0  0  0  0  0  0  0  0  0  0  0
   88.5200   96.2820  -49.3390 H   0  0  0  0  0  0  0  0  0  0  0  0
   89.7700   94.9360  -49.1580 H   0  0  0  0  0  0  0  0  0  0  0  0
   94.0950   98.9600  -43.6170 H   0  0  0  0  0  0  0  0  0  0  0  0
  2  1  1  0  0  0  0
  3 27  1  0  0  0  0
  3  2  2  0  0  0  0
  4  3  1  0  0  0  0
  5  4  2  0  0  0  0
  5  6  1  0  0  0  0
  6  7  2  0  0  0  0
  7  2  1  0  0  0  0
  7 30  1  0  0  0  0
  8 26  1  6  0  0  0
  8  9  1  0  0  0  0
  8  5  1  0  0  0  0
  9 10  1  0  0  0  0
 10 11  1  0  0  0  0
 10 31  1  0  0  0  0
 10 32  1  0  0  0  0
 11 33  1  0  0  0  0
 12 35  1  0  0  0  0
 12 11  1  0  0  0  0
 13 37  1  0  0  0  0
 13 12  1  0  0  0  0
 14 15  2  0  0  0  0
 14 13  1  0  0  0  0
 15  9  1  0  0  0  0
 16 18  1  0  0  0  0
 16 17  1  0  0  0  0
 16 15  1  0  0  0  0
 17 41  1  0  0  0  0
 17  8  1  0  0  0  0
 18 23  1  0  0  0  0
 19 20  1  0  0  0  0
 19 18  2  0  0  0  0
 20 21  2  0  0  0  0
 21 44  1  0  0  0  0
 21 22  1  0  0  0  0
 22 45  1  0  0  0  0
 23 22  2  0  0  0  0
 23 46  1  0  0  0  0
 24 19  1  0  0  0  0
 25 47  1  0  0  0  0
 25 24  1  0  0  0  0
 26 50  1  0  0  0  0
 28  4  1  0  0  0  0
 29  6  1  0  0  0  0
 34 11  1  0  0  0  0
 36 12  1  0  0  0  0
 38 13  1  0  0  0  0
 39 14  1  0  0  0  0
 40 16  1  0  0  0  0
 42 17  1  0  0  0  0
 43 20  1  0  0  0  0
 48 25  1  0  0  0  0
 49 25  1  0  0  0  0
M  END
>  <Pose>
1

>  <Score>
-4.09

$$$$
