
 OpenBabel03212208273D

 47 50  0  0  1  0  0  0  0  0999 V2000
   96.5200  104.0670  -39.4790 B   0  0  0  0  0  0  0  0  0  0  0  0
   95.2850  102.8990  -40.3720 C   0  0  0  0  0  0  0  0  0  0  0  0
   94.6720  101.8950  -39.6570 C   0  0  0  0  0  0  0  0  0  0  0  0
   93.7720  101.0570  -40.3140 C   0  0  0  0  0  0  0  0  0  0  0  0
   93.4700  101.1930  -41.6520 C   0  0  0  0  0  0  0  0  0  0  0  0
   94.0980  102.2090  -42.3470 C   0  0  0  0  0  0  0  0  0  0  0  0
   94.9920  103.0490  -41.7100 C   0  0  0  0  0  0  0  0  0  0  0  0
   92.5110  100.2610  -42.2930 C   0  0  2  0  0  0  0  0  0  0  0  0
   91.1780  100.8110  -42.4150 N   0  0  0  0  0  0  0  0  0  0  0  0
   90.5660  102.1160  -42.5510 C   0  0  0  0  0  0  0  0  0  0  0  0
   89.3310  102.0800  -43.4280 C   0  0  0  0  0  0  0  0  0  0  0  0
   88.3630  101.1130  -42.8340 C   0  0  0  0  0  0  0  0  0  0  0  0
   88.9980   99.8070  -42.5570 C   0  0  0  0  0  0  0  0  0  0  0  0
   90.3130   99.6780  -42.3630 C   0  0  0  0  0  0  0  0  0  0  0  0
   91.0330   98.5020  -42.0680 N   0  0  0  0  0  4  0  0  0  0  0  0
   92.2710   99.0330  -41.4630 C   0  0  0  0  0  0  0  0  0  0  0  0
   91.3170   97.6470  -43.1280 C   0  0  0  0  0  0  0  0  0  0  0  0
   91.4100   96.2840  -43.0020 C   0  0  0  0  0  0  0  0  0  0  0  0
   91.7180   95.4860  -44.1060 C   0  0  0  0  0  0  0  0  0  0  0  0
   91.9340   96.0460  -45.3400 C   0  0  0  0  0  0  0  0  0  0  0  0
   91.8400   97.4140  -45.4760 C   0  0  0  0  0  0  0  0  0  0  0  0
   91.5360   98.1910  -44.3870 C   0  0  0  0  0  0  0  0  0  0  0  0
   91.2070   95.6370  -41.7990 O   0  0  0  0  0  0  0  0  0  0  0  0
   91.9720   94.5370  -41.4330 C   0  0  0  0  0  0  0  0  0  0  0  0
   93.0420   99.8590  -43.5140 O   0  0  0  0  0  0  0  0  0  0  0  0
   94.8550  101.7250  -38.5850 H   0  0  0  0  0  0  0  0  0  0  0  0
   93.2670  100.2450  -39.7710 H   0  0  0  0  0  0  0  0  0  0  0  0
   93.8580  102.3150  -43.4140 H   0  0  0  0  0  0  0  0  0  0  0  0
   95.4790  103.8440  -42.2630 H   0  0  0  0  0  0  0  0  0  0  0  0
   90.1980  102.4200  -41.5290 H   0  0  0  0  0  0  0  0  0  0  0  0
   91.2970  102.8690  -42.9120 H   0  0  0  0  0  0  0  0  0  0  0  0
   89.5710  101.9260  -44.4910 H   0  0  0  0  0  0  0  0  0  0  0  0
   88.8700  103.1010  -43.3520 H   0  0  0  0  0  0  0  0  0  0  0  0
   87.4300  101.0150  -43.4270 H   0  0  0  0  0  0  0  0  0  0  0  0
   88.0840  101.5290  -41.8230 H   0  0  0  0  0  0  0  0  0  0  0  0
   88.3330   98.9410  -42.5190 H   0  0  0  0  0  0  0  0  0  0  0  0
   90.5890   97.9780  -41.2430 H   0  0  0  0  0  0  0  0  0  0  0  0
   92.0880   99.3210  -40.4290 H   0  0  0  0  0  0  0  0  0  0  0  0
   93.0690   98.2770  -41.5780 H   0  0  0  0  0  0  0  0  0  0  0  0
   91.8050   94.4110  -44.0540 H   0  0  0  0  0  0  0  0  0  0  0  0
   92.1750   95.4570  -46.2400 H   0  0  0  0  0  0  0  0  0  0  0  0
   92.0070   97.8400  -46.4560 H   0  0  0  0  0  0  0  0  0  0  0  0
   91.4680   99.2500  -44.4970 H   0  0  0  0  0  0  0  0  0  0  0  0
   92.1120   93.7640  -42.2270 H   0  0  0  0  0  0  0  0  0  0  0  0
   91.5110   93.9560  -40.5680 H   0  0  0  0  0  0  0  0  0  0  0  0
   92.9850   94.8610  -41.0810 H   0  0  0  0  0  0  0  0  0  0  0  0
   94.0050   99.7020  -43.3660 H   0  0  0  0  0  0  0  0  0  0  0  0
  2  3  1  0  0  0  0
  2  1  1  0  0  0  0
  3 26  1  0  0  0  0
  4 27  1  0  0  0  0
  4  3  2  0  0  0  0
  5  4  1  0  0  0  0
  6  7  1  0  0  0  0
  6  5  2  0  0  0  0
  7  2  2  0  0  0  0
  8 25  1  6  0  0  0
  8  5  1  0  0  0  0
  8 16  1  0  0  0  0
  9 14  1  0  0  0  0
  9  8  1  0  0  0  0
 10  9  1  0  0  0  0
 10 30  1  0  0  0  0
 11 33  1  0  0  0  0
 11 12  1  0  0  0  0
 11 10  1  0  0  0  0
 12 13  1  0  0  0  0
 12 35  1  0  0  0  0
 13 36  1  0  0  0  0
 13 14  2  0  0  0  0
 14 15  1  0  0  0  0
 15 16  1  0  0  0  0
 15 37  1  0  0  0  0
 16 38  1  0  0  0  0
 17 18  1  0  0  0  0
 17 15  1  0  0  0  0
 18 23  1  0  0  0  0
 19 40  1  0  0  0  0
 19 18  2  0  0  0  0
 20 19  1  0  0  0  0
 21 20  2  0  0  0  0
 21 22  1  0  0  0  0
 22 17  2  0  0  0  0
 23 24  1  0  0  0  0
 24 46  1  0  0  0  0
 24 45  1  0  0  0  0
 25 47  1  0  0  0  0
 28  6  1  0  0  0  0
 29  7  1  0  0  0  0
 31 10  1  0  0  0  0
 32 11  1  0  0  0  0
 34 12  1  0  0  0  0
 39 16  1  0  0  0  0
 41 20  1  0  0  0  0
 42 21  1  0  0  0  0
 43 22  1  0  0  0  0
 44 24  1  0  0  0  0
M  END
>  <Pose>
1

>  <Score>
-4.56

$$$$
