
 OpenBabel03212208273D

 47 50  0  0  1  0  0  0  0  0999 V2000
   83.7520   98.9330  -45.3030 B   0  0  0  0  0  0  0  0  0  0  0  0
   85.4520   99.1010  -44.4510 C   0  0  0  0  0  0  0  0  0  0  0  0
   85.7060  100.0960  -43.5270 C   0  0  0  0  0  0  0  0  0  0  0  0
   86.9400  100.2010  -42.9190 C   0  0  0  0  0  0  0  0  0  0  0  0
   87.9810   99.3390  -43.1870 C   0  0  0  0  0  0  0  0  0  0  0  0
   87.7160   98.3420  -44.1180 C   0  0  0  0  0  0  0  0  0  0  0  0
   86.4820   98.2300  -44.7310 C   0  0  0  0  0  0  0  0  0  0  0  0
   89.2660   99.5000  -42.5100 C   0  0  2  0  0  0  0  0  0  0  0  0
   90.3990   99.6580  -43.3890 N   0  0  0  0  0  0  0  0  0  0  0  0
   90.6200  100.2190  -44.7150 C   0  0  0  0  0  0  0  0  0  0  0  0
   91.9710  100.7780  -44.9380 C   0  0  0  0  0  0  0  0  0  0  0  0
   92.8800  100.7960  -43.7350 C   0  0  0  0  0  0  0  0  0  0  0  0
   92.7000   99.6420  -42.8580 C   0  0  0  0  0  0  0  0  0  0  0  0
   91.5060   99.1010  -42.6980 C   0  0  0  0  0  0  0  0  0  0  0  0
   91.0350   97.9990  -41.9300 N   0  0  0  0  0  4  0  0  0  0  0  0
   89.6580   98.2970  -41.6840 C   0  0  0  0  0  0  0  0  0  0  0  0
   91.2800   96.8230  -42.6260 C   0  0  0  0  0  0  0  0  0  0  0  0
   91.2050   96.7900  -43.9990 C   0  0  0  0  0  0  0  0  0  0  0  0
   91.4530   95.5990  -44.7010 C   0  0  0  0  0  0  0  0  0  0  0  0
   91.7750   94.4390  -44.0540 C   0  0  0  0  0  0  0  0  0  0  0  0
   91.8510   94.4760  -42.6490 C   0  0  0  0  0  0  0  0  0  0  0  0
   91.6020   95.6610  -41.9890 C   0  0  0  0  0  0  0  0  0  0  0  0
   92.0330   93.2240  -44.6860 O   0  0  0  0  0  0  0  0  0  0  0  0
   91.5660   92.8260  -45.9340 C   0  0  0  0  0  0  0  0  0  0  0  0
   89.2010  100.6590  -41.7100 O   0  0  0  0  0  0  0  0  0  0  0  0
   84.8910  100.7770  -43.3110 H   0  0  0  0  0  0  0  0  0  0  0  0
   87.1170  100.9970  -42.1900 H   0  0  0  0  0  0  0  0  0  0  0  0
   88.5070   97.6530  -44.3520 H   0  0  0  0  0  0  0  0  0  0  0  0
   86.2700   97.4490  -45.4600 H   0  0  0  0  0  0  0  0  0  0  0  0
   89.8600  101.0220  -44.9250 H   0  0  0  0  0  0  0  0  0  0  0  0
   90.4010   99.4480  -45.5090 H   0  0  0  0  0  0  0  0  0  0  0  0
   91.9170  101.7950  -45.4110 H   0  0  0  0  0  0  0  0  0  0  0  0
   92.5160  100.1560  -45.7080 H   0  0  0  0  0  0  0  0  0  0  0  0
   93.9470  100.8710  -44.0280 H   0  0  0  0  0  0  0  0  0  0  0  0
   92.6500  101.7450  -43.1780 H   0  0  0  0  0  0  0  0  0  0  0  0
   93.5450   99.2320  -42.3430 H   0  0  0  0  0  0  0  0  0  0  0  0
   91.5820   98.0050  -41.0270 H   0  0  0  0  0  0  0  0  0  0  0  0
   89.5340   98.5920  -40.6180 H   0  0  0  0  0  0  0  0  0  0  0  0
   88.9780   97.4390  -41.8380 H   0  0  0  0  0  0  0  0  0  0  0  0
   90.9600   97.6550  -44.5930 H   0  0  0  0  0  0  0  0  0  0  0  0
   91.3920   95.5870  -45.7850 H   0  0  0  0  0  0  0  0  0  0  0  0
   92.1090   93.5560  -42.1370 H   0  0  0  0  0  0  0  0  0  0  0  0
   91.6660   95.6630  -40.9230 H   0  0  0  0  0  0  0  0  0  0  0  0
   90.9620   93.5580  -46.4560 H   0  0  0  0  0  0  0  0  0  0  0  0
   91.0850   91.8210  -45.8610 H   0  0  0  0  0  0  0  0  0  0  0  0
   92.4650   92.6510  -46.5970 H   0  0  0  0  0  0  0  0  0  0  0  0
   88.2530  100.7480  -41.4420 H   0  0  0  0  0  0  0  0  0  0  0  0
  1  2  1  0  0  0  0
  2  3  1  0  0  0  0
  3 26  1  0  0  0  0
  3  4  2  0  0  0  0
  4 27  1  0  0  0  0
  5  4  1  0  0  0  0
  5  8  1  0  0  0  0
  6  5  2  0  0  0  0
  7  2  2  0  0  0  0
  7  6  1  0  0  0  0
  8 25  1  1  0  0  0
  8 16  1  0  0  0  0
  9 14  1  0  0  0  0
  9  8  1  0  0  0  0
 10  9  1  0  0  0  0
 11 10  1  0  0  0  0
 11 12  1  0  0  0  0
 12 35  1  0  0  0  0
 12 13  1  0  0  0  0
 13 14  2  0  0  0  0
 13 36  1  0  0  0  0
 14 15  1  0  0  0  0
 15 16  1  0  0  0  0
 15 37  1  0  0  0  0
 16 38  1  0  0  0  0
 17 22  1  0  0  0  0
 17 15  1  0  0  0  0
 18 17  2  0  0  0  0
 19 20  2  0  0  0  0
 19 18  1  0  0  0  0
 20 21  1  0  0  0  0
 21 42  1  0  0  0  0
 21 22  2  0  0  0  0
 22 43  1  0  0  0  0
 23 20  1  0  0  0  0
 24 45  1  0  0  0  0
 24 23  1  0  0  0  0
 25 47  1  0  0  0  0
 28  6  1  0  0  0  0
 29  7  1  0  0  0  0
 30 10  1  0  0  0  0
 31 10  1  0  0  0  0
 32 11  1  0  0  0  0
 33 11  1  0  0  0  0
 34 12  1  0  0  0  0
 39 16  1  0  0  0  0
 40 18  1  0  0  0  0
 41 19  1  0  0  0  0
 44 24  1  0  0  0  0
 46 24  1  0  0  0  0
M  END
>  <Pose>
1

>  <Score>
-4.47

$$$$
