
 OpenBabel03212208273D

 53 56  0  0  1  0  0  0  0  0999 V2000
   90.7120  106.0180  -39.7620 B   0  0  0  0  0  0  0  0  0  0  0  0
   90.7730  104.1830  -40.3120 C   0  0  0  0  0  0  0  0  0  0  0  0
   89.9870  103.7160  -41.3420 C   0  0  0  0  0  0  0  0  0  0  0  0
   90.0310  102.3820  -41.7190 C   0  0  0  0  0  0  0  0  0  0  0  0
   90.8590  101.4570  -41.0860 C   0  0  0  0  0  0  0  0  0  0  0  0
   91.6170  101.9700  -40.0750 C   0  0  0  0  0  0  0  0  0  0  0  0
   91.5930  103.3040  -39.6750 C   0  0  0  0  0  0  0  0  0  0  0  0
   90.8360  100.1400  -41.4920 N   0  0  0  0  0  4  0  0  0  0  0  0
   92.0580   99.5590  -41.9610 C   0  0  1  0  0  0  0  0  0  0  0  0
   92.1080  100.1550  -43.3670 C   0  0  0  0  0  0  0  0  0  0  0  0
   90.7020  100.1020  -43.7960 N   0  0  0  0  0  0  0  0  0  0  0  0
   90.3550  100.1830  -45.1710 C   0  0  0  0  0  0  0  0  0  0  0  0
   88.8900  100.0550  -45.4630 C   0  0  0  0  0  0  0  0  0  0  0  0
   88.3440   98.8470  -44.7530 C   0  0  0  0  0  0  0  0  0  0  0  0
   87.6600   99.3990  -43.4940 C   0  0  0  0  0  0  0  0  0  0  0  0
   88.6900   99.6290  -42.4620 C   0  0  0  0  0  0  0  0  0  0  0  0
   89.9590   99.9470  -42.5890 C   0  0  0  0  0  0  0  0  0  0  0  0
   93.1740   99.7430  -41.2080 O   0  0  0  0  0  0  0  0  0  0  0  0
   91.9310   98.0880  -42.1700 C   0  0  0  0  0  0  0  0  0  0  0  0
   91.5640   97.4900  -43.3380 C   0  0  0  0  0  0  0  0  0  0  0  0
   91.4700   96.0890  -43.4710 C   0  0  0  0  0  0  0  0  0  0  0  0
   91.7490   95.2610  -42.4110 C   0  0  0  0  0  0  0  0  0  0  0  0
   92.1200   95.8520  -41.2280 C   0  0  0  0  0  0  0  0  0  0  0  0
   92.2100   97.2200  -41.1020 C   0  0  0  0  0  0  0  0  0  0  0  0
   91.6630   93.8640  -42.5340 O   0  0  0  0  0  0  0  0  0  0  0  0
   92.7890   93.0810  -42.8490 C   0  0  0  0  0  0  0  0  0  0  0  0
   93.6490   92.8050  -41.6560 C   0  0  0  0  0  0  0  0  0  0  0  0
   89.3520  104.4470  -41.8230 H   0  0  0  0  0  0  0  0  0  0  0  0
   89.3830  102.1040  -42.5330 H   0  0  0  0  0  0  0  0  0  0  0  0
   92.2750  101.3510  -39.5230 H   0  0  0  0  0  0  0  0  0  0  0  0
   92.2450  103.6250  -38.8420 H   0  0  0  0  0  0  0  0  0  0  0  0
   90.5430   99.5850  -40.6280 H   0  0  0  0  0  0  0  0  0  0  0  0
   92.5290  101.1400  -43.4420 H   0  0  0  0  0  0  0  0  0  0  0  0
   92.6360   99.5200  -44.0940 H   0  0  0  0  0  0  0  0  0  0  0  0
   90.6940  101.1620  -45.5730 H   0  0  0  0  0  0  0  0  0  0  0  0
   90.8690   99.3280  -45.7180 H   0  0  0  0  0  0  0  0  0  0  0  0
   88.4010  100.9990  -45.1510 H   0  0  0  0  0  0  0  0  0  0  0  0
   88.7890   99.8670  -46.5480 H   0  0  0  0  0  0  0  0  0  0  0  0
   87.6290   98.2540  -45.3440 H   0  0  0  0  0  0  0  0  0  0  0  0
   89.1260   98.1550  -44.3780 H   0  0  0  0  0  0  0  0  0  0  0  0
   87.1440  100.3580  -43.7010 H   0  0  0  0  0  0  0  0  0  0  0  0
   86.8840   98.6660  -43.1840 H   0  0  0  0  0  0  0  0  0  0  0  0
   88.3250   99.4760  -41.4640 H   0  0  0  0  0  0  0  0  0  0  0  0
   93.9270  100.1080  -41.7080 H   0  0  0  0  0  0  0  0  0  0  0  0
   91.3220   98.0980  -44.1870 H   0  0  0  0  0  0  0  0  0  0  0  0
   91.1710   95.6810  -44.4280 H   0  0  0  0  0  0  0  0  0  0  0  0
   92.3430   95.1650  -40.3970 H   0  0  0  0  0  0  0  0  0  0  0  0
   92.4960   97.6700  -40.1540 H   0  0  0  0  0  0  0  0  0  0  0  0
   93.4070   93.6990  -43.5690 H   0  0  0  0  0  0  0  0  0  0  0  0
   92.5450   92.1660  -43.4390 H   0  0  0  0  0  0  0  0  0  0  0  0
   93.3690   93.4440  -40.7840 H   0  0  0  0  0  0  0  0  0  0  0  0
   94.7350   92.9300  -41.8350 H   0  0  0  0  0  0  0  0  0  0  0  0
   93.5370   91.7080  -41.4110 H   0  0  0  0  0  0  0  0  0  0  0  0
  2  1  1  0  0  0  0
  2  7  1  0  0  0  0
  3  2  2  0  0  0  0
  4  3  1  0  0  0  0
  4  5  2  0  0  0  0
  5  6  1  0  0  0  0
  6  7  2  0  0  0  0
  6 30  1  0  0  0  0
  7 31  1  0  0  0  0
  8  5  1  0  0  0  0
  8 32  1  0  0  0  0
  9  8  1  0  0  0  0
  9 18  1  1  0  0  0
 10  9  1  0  0  0  0
 11 10  1  0  0  0  0
 11 17  1  0  0  0  0
 12 11  1  0  0  0  0
 13 12  1  0  0  0  0
 13 37  1  0  0  0  0
 13 14  1  0  0  0  0
 14 40  1  0  0  0  0
 14 15  1  0  0  0  0
 15 42  1  0  0  0  0
 15 16  1  0  0  0  0
 16 43  1  0  0  0  0
 17 16  2  0  0  0  0
 17  8  1  0  0  0  0
 19  9  1  0  0  0  0
 19 24  1  0  0  0  0
 20 19  2  0  0  0  0
 21 20  1  0  0  0  0
 21 22  2  0  0  0  0
 22 23  1  0  0  0  0
 23 24  2  0  0  0  0
 23 47  1  0  0  0  0
 24 48  1  0  0  0  0
 25 22  1  0  0  0  0
 26 25  1  0  0  0  0
 26 27  1  0  0  0  0
 27 53  1  0  0  0  0
 27 51  1  0  0  0  0
 28  3  1  0  0  0  0
 29  4  1  0  0  0  0
 33 10  1  0  0  0  0
 34 10  1  0  0  0  0
 35 12  1  0  0  0  0
 36 12  1  0  0  0  0
 38 13  1  0  0  0  0
 39 14  1  0  0  0  0
 41 15  1  0  0  0  0
 44 18  1  0  0  0  0
 45 20  1  0  0  0  0
 46 21  1  0  0  0  0
 49 26  1  0  0  0  0
 50 26  1  0  0  0  0
 52 27  1  0  0  0  0
M  END
>  <Pose>
1

>  <Score>
-4.31

$$$$
