
 OpenBabel03212208273D

 66 69  0  0  1  0  0  0  0  0999 V2000
   92.1910   95.0130  -41.0540 B   0  0  0  0  0  0  0  0  0  0  0  0
   91.7920   95.0300  -42.9280 C   0  0  0  0  0  0  0  0  0  0  0  0
   91.4090   96.2020  -43.5360 C   0  0  0  0  0  0  0  0  0  0  0  0
   91.1070   96.2570  -44.9070 C   0  0  0  0  0  0  0  0  0  0  0  0
   91.2160   95.0760  -45.6080 C   0  0  0  0  0  0  0  0  0  0  0  0
   91.5970   93.8880  -45.0230 C   0  0  0  0  0  0  0  0  0  0  0  0
   91.8880   93.8590  -43.6780 C   0  0  0  0  0  0  0  0  0  0  0  0
   92.3080   92.6290  -42.9570 C   0  0  0  0  0  0  0  0  0  0  0  0
   91.7400   92.2670  -46.0200 B   0  0  0  0  0  0  0  0  0  0  0  0
   90.7040   97.5130  -45.5050 C   0  0  0  0  0  0  0  0  0  0  0  0
   90.5380   97.5950  -46.7270 O   0  0  0  0  0  0  0  0  0  0  0  0
   90.4950   98.6910  -44.6450 C   0  0  1  0  0  0  0  0  0  0  0  0
   91.4790   98.5900  -43.5010 C   0  0  0  0  0  0  0  0  0  0  0  0
   91.3110   97.3750  -42.7940 O   0  0  0  0  0  0  0  0  0  0  0  0
   90.6240   99.9970  -45.3700 C   0  0  0  0  0  0  0  0  0  0  0  0
   91.7030  100.8190  -44.9810 N   0  0  0  0  0  4  0  0  0  0  0  0
   92.7770  100.6960  -45.9220 C   0  0  0  0  0  0  0  0  0  0  0  0
   92.5300  101.3170  -47.2500 C   0  0  2  0  0  0  0  0  0  0  0  0
   91.3230  102.1630  -47.3770 C   0  0  0  0  0  0  0  0  0  0  0  0
   90.7760  102.7330  -46.1270 C   0  0  0  0  0  0  0  0  0  0  0  0
   91.4110  102.2220  -44.8670 C   0  0  0  0  0  0  0  0  0  0  0  0
   92.4130  100.1840  -48.2770 C   0  0  0  0  0  0  0  0  0  0  0  0
   89.0980   98.5500  -44.0770 C   0  0  0  0  0  0  0  0  0  0  0  0
   88.2140   99.6300  -44.3570 N   0  0  0  0  0  4  0  0  0  0  0  0
   87.0870   99.6160  -43.4270 C   0  0  0  0  0  0  0  0  0  0  0  0
   85.8460   99.0310  -44.0340 C   0  0  1  0  0  0  0  0  0  0  0  0
   86.2080   97.8130  -44.8520 C   0  0  0  0  0  0  0  0  0  0  0  0
   87.0130   98.2740  -46.0270 C   0  0  0  0  0  0  0  0  0  0  0  0
   87.6450   99.6010  -45.6870 C   0  0  0  0  0  0  0  0  0  0  0  0
   84.9750   98.5280  -42.8740 C   0  0  0  0  0  0  0  0  0  0  0  0
   90.9950   95.0610  -46.6720 H   0  0  0  0  0  0  0  0  0  0  0  0
   93.3400   92.7950  -42.5750 H   0  0  0  0  0  0  0  0  0  0  0  0
   92.2020   91.7230  -43.5560 H   0  0  0  0  0  0  0  0  0  0  0  0
   91.6630   92.5810  -42.0340 H   0  0  0  0  0  0  0  0  0  0  0  0
   92.5180   98.6060  -43.8630 H   0  0  0  0  0  0  0  0  0  0  0  0
   91.3900   99.4740  -42.8100 H   0  0  0  0  0  0  0  0  0  0  0  0
   90.7520   99.7430  -46.4440 H   0  0  0  0  0  0  0  0  0  0  0  0
   89.6480  100.5210  -45.3030 H   0  0  0  0  0  0  0  0  0  0  0  0
   92.0730  100.5090  -44.0470 H   0  0  0  0  0  0  0  0  0  0  0  0
   93.6840  101.1560  -45.4280 H   0  0  0  0  0  0  0  0  0  0  0  0
   93.0290   99.6190  -46.0100 H   0  0  0  0  0  0  0  0  0  0  0  0
   93.4460  101.8780  -47.5480 H   0  0  0  0  0  0  0  0  0  0  0  0
   91.5730  103.0180  -48.0690 H   0  0  0  0  0  0  0  0  0  0  0  0
   90.4940  101.6230  -47.9270 H   0  0  0  0  0  0  0  0  0  0  0  0
   89.6570  102.5900  -46.0590 H   0  0  0  0  0  0  0  0  0  0  0  0
   90.8890  103.8580  -46.0950 H   0  0  0  0  0  0  0  0  0  0  0  0
   90.8470  102.5310  -43.9970 H   0  0  0  0  0  0  0  0  0  0  0  0
   92.4140  102.7410  -44.7920 H   0  0  0  0  0  0  0  0  0  0  0  0
   92.8130  100.5100  -49.2690 H   0  0  0  0  0  0  0  0  0  0  0  0
   92.9030   99.2810  -47.8880 H   0  0  0  0  0  0  0  0  0  0  0  0
   91.3370   99.9590  -48.3980 H   0  0  0  0  0  0  0  0  0  0  0  0
   89.2350   98.4700  -42.9610 H   0  0  0  0  0  0  0  0  0  0  0  0
   88.6790   97.5450  -44.3650 H   0  0  0  0  0  0  0  0  0  0  0  0
   88.6870  100.5280  -44.2260 H   0  0  0  0  0  0  0  0  0  0  0  0
   86.8540  100.6270  -43.0520 H   0  0  0  0  0  0  0  0  0  0  0  0
   87.3270   98.9890  -42.5280 H   0  0  0  0  0  0  0  0  0  0  0  0
   85.2290   99.7550  -44.5820 H   0  0  0  0  0  0  0  0  0  0  0  0
   85.2570   97.3400  -45.1700 H   0  0  0  0  0  0  0  0  0  0  0  0
   86.7360   97.1100  -44.2000 H   0  0  0  0  0  0  0  0  0  0  0  0
   87.7420   97.5610  -46.4030 H   0  0  0  0  0  0  0  0  0  0  0  0
   86.3020   98.4810  -46.8770 H   0  0  0  0  0  0  0  0  0  0  0  0
   86.8500  100.4030  -45.6940 H   0  0  0  0  0  0  0  0  0  0  0  0
   88.3320   99.8590  -46.4940 H   0  0  0  0  0  0  0  0  0  0  0  0
   85.1610   99.1470  -41.9660 H   0  0  0  0  0  0  0  0  0  0  0  0
   85.1490   97.4490  -42.6820 H   0  0  0  0  0  0  0  0  0  0  0  0
   83.8970   98.6280  -43.1190 H   0  0  0  0  0  0  0  0  0  0  0  0
  2  1  1  0  0  0  0
  3  2  1  0  0  0  0
  3 14  1  0  0  0  0
  4  3  2  0  0  0  0
  5  6  2  0  0  0  0
  5  4  1  0  0  0  0
  6  7  1  0  0  0  0
  7  8  1  0  0  0  0
  7  2  2  0  0  0  0
  8 32  1  0  0  0  0
  8 34  1  0  0  0  0
  9  6  1  0  0  0  0
 10  4  1  0  0  0  0
 10 12  1  0  0  0  0
 11 10  2  0  0  0  0
 12 15  1  6  0  0  0
 12 23  1  0  0  0  0
 12 13  1  0  0  0  0
 13 36  1  0  0  0  0
 13 14  1  0  0  0  0
 15 38  1  0  0  0  0
 15 16  1  0  0  0  0
 16 21  1  0  0  0  0
 16 39  1  0  0  0  0
 17 40  1  0  0  0  0
 17 16  1  0  0  0  0
 18 42  1  6  0  0  0
 18 17  1  0  0  0  0
 19 18  1  0  0  0  0
 19 20  1  0  0  0  0
 20 46  1  0  0  0  0
 20 45  1  0  0  0  0
 20 21  1  0  0  0  0
 21 48  1  0  0  0  0
 21 47  1  0  0  0  0
 22 50  1  0  0  0  0
 22 18  1  0  0  0  0
 23 52  1  0  0  0  0
 24 54  1  0  0  0  0
 24 23  1  0  0  0  0
 24 25  1  0  0  0  0
 25 55  1  0  0  0  0
 25 56  1  0  0  0  0
 26 57  1  6  0  0  0
 26 25  1  0  0  0  0
 26 30  1  0  0  0  0
 27 59  1  0  0  0  0
 27 26  1  0  0  0  0
 28 29  1  0  0  0  0
 28 27  1  0  0  0  0
 29 24  1  0  0  0  0
 30 65  1  0  0  0  0
 30 64  1  0  0  0  0
 31  5  1  0  0  0  0
 33  8  1  0  0  0  0
 35 13  1  0  0  0  0
 37 15  1  0  0  0  0
 41 17  1  0  0  0  0
 43 19  1  0  0  0  0
 44 19  1  0  0  0  0
 49 22  1  0  0  0  0
 51 22  1  0  0  0  0
 53 23  1  0  0  0  0
 58 27  1  0  0  0  0
 60 28  1  0  0  0  0
 61 28  1  0  0  0  0
 62 29  1  0  0  0  0
 63 29  1  0  0  0  0
 66 30  1  0  0  0  0
M  END
>  <Pose>
1

>  <Score>
-4.88

$$$$
