
 OpenBabel03212208273D

 60 61  0  0  1  0  0  0  0  0999 V2000
   91.4350   94.1940  -45.1580 B   0  0  0  0  0  0  0  0  0  0  0  0
   91.6910   94.9900  -43.4670 C   0  0  0  0  0  0  0  0  0  0  0  0
   91.4420   96.3350  -43.3450 C   0  0  0  0  0  0  0  0  0  0  0  0
   91.5960   97.0380  -42.1380 C   0  0  0  0  0  0  0  0  0  0  0  0
   92.0250   96.3350  -41.0050 C   0  0  0  0  0  0  0  0  0  0  0  0
   92.2720   94.9870  -41.1420 C   0  0  0  0  0  0  0  0  0  0  0  0
   92.1130   94.3150  -42.3400 C   0  0  0  0  0  0  0  0  0  0  0  0
   92.3910   92.8420  -42.4580 C   0  0  0  0  0  0  0  0  0  0  0  0
   92.8540   94.0310  -39.6000 B   0  0  0  0  0  0  0  0  0  0  0  0
   91.3250   98.4610  -42.0710 C   0  0  0  0  0  0  0  0  0  0  0  0
   92.0140   99.1220  -41.2540 O   0  0  0  0  0  0  0  0  0  0  0  0
   90.2760   98.9920  -42.9610 C   0  0  2  0  0  0  0  0  0  0  0  0
   90.8460   98.5000  -44.3670 C   0  0  0  0  0  0  0  0  0  0  0  0
   91.0160   97.1290  -44.3950 O   0  0  0  0  0  0  0  0  0  0  0  0
   90.1670  100.4330  -43.0710 C   0  0  0  0  0  0  0  0  0  0  0  0
   91.1730  101.3860  -43.0400 N   0  0  0  0  0  4  0  0  0  0  0  0
   92.4970  101.1220  -43.4490 C   0  0  0  0  0  0  0  0  0  0  0  0
   93.5380  101.9870  -42.7510 C   0  0  0  0  0  0  0  0  0  0  0  0
   93.6160  101.6930  -41.2870 C   0  0  0  0  0  0  0  0  0  0  0  0
   92.2430  101.3410  -40.8050 C   0  0  0  0  0  0  0  0  0  0  0  0
   91.2260  101.9860  -41.6880 C   0  0  0  0  0  0  0  0  0  0  0  0
   89.0030   98.2700  -42.7310 C   0  0  0  0  0  0  0  0  0  0  0  0
   87.7800   98.9540  -42.6990 N   0  0  0  0  0  0  0  0  0  0  0  0
   88.0560  100.3940  -42.7970 C   0  0  0  0  0  0  0  0  0  0  0  0
   86.8350  101.2320  -42.4770 C   0  0  0  0  0  0  0  0  0  0  0  0
   85.8220  100.9250  -43.5920 C   0  0  0  0  0  0  0  0  0  0  0  0
   85.5530   99.4440  -43.4540 C   0  0  0  0  0  0  0  0  0  0  0  0
   86.8580   98.7040  -43.7940 C   0  0  0  0  0  0  0  0  0  0  0  0
   92.1430   96.8760  -40.0880 H   0  0  0  0  0  0  0  0  0  0  0  0
   91.5600   92.3370  -41.9030 H   0  0  0  0  0  0  0  0  0  0  0  0
   92.4340   92.5570  -43.5090 H   0  0  0  0  0  0  0  0  0  0  0  0
   93.3240   92.6480  -41.8920 H   0  0  0  0  0  0  0  0  0  0  0  0
   91.8400   98.9890  -44.4060 H   0  0  0  0  0  0  0  0  0  0  0  0
   90.2210   98.9090  -45.1500 H   0  0  0  0  0  0  0  0  0  0  0  0
   89.3670  100.8000  -42.3300 H   0  0  0  0  0  0  0  0  0  0  0  0
   89.5800  100.6260  -44.0540 H   0  0  0  0  0  0  0  0  0  0  0  0
   90.8800  102.2880  -43.6080 H   0  0  0  0  0  0  0  0  0  0  0  0
   92.5950  101.3060  -44.5480 H   0  0  0  0  0  0  0  0  0  0  0  0
   92.8560  100.1020  -43.2900 H   0  0  0  0  0  0  0  0  0  0  0  0
   93.2410  103.0370  -42.8900 H   0  0  0  0  0  0  0  0  0  0  0  0
   94.5320  101.8490  -43.1870 H   0  0  0  0  0  0  0  0  0  0  0  0
   94.0430  102.5030  -40.6830 H   0  0  0  0  0  0  0  0  0  0  0  0
   94.2830  100.7830  -41.1960 H   0  0  0  0  0  0  0  0  0  0  0  0
   92.1150  101.7920  -39.7970 H   0  0  0  0  0  0  0  0  0  0  0  0
   92.0820  100.2560  -40.6590 H   0  0  0  0  0  0  0  0  0  0  0  0
   90.1930  102.0120  -41.2470 H   0  0  0  0  0  0  0  0  0  0  0  0
   91.5340  103.0370  -41.8160 H   0  0  0  0  0  0  0  0  0  0  0  0
   89.0800   97.6010  -41.8330 H   0  0  0  0  0  0  0  0  0  0  0  0
   88.8730   97.4540  -43.5550 H   0  0  0  0  0  0  0  0  0  0  0  0
   87.1910   98.8790  -41.8440 H   0  0  0  0  0  0  0  0  0  0  0  0
   88.2710  100.5900  -43.8880 H   0  0  0  0  0  0  0  0  0  0  0  0
   88.9200  100.7270  -42.2460 H   0  0  0  0  0  0  0  0  0  0  0  0
   86.4300  100.9510  -41.4910 H   0  0  0  0  0  0  0  0  0  0  0  0
   87.1230  102.2770  -42.5600 H   0  0  0  0  0  0  0  0  0  0  0  0
   84.9260  101.5380  -43.4910 H   0  0  0  0  0  0  0  0  0  0  0  0
   86.3640  101.0600  -44.5520 H   0  0  0  0  0  0  0  0  0  0  0  0
   85.3760   99.2140  -42.3650 H   0  0  0  0  0  0  0  0  0  0  0  0
   84.7140   99.0720  -44.0410 H   0  0  0  0  0  0  0  0  0  0  0  0
   86.5270   97.6610  -43.8940 H   0  0  0  0  0  0  0  0  0  0  0  0
   87.2200   99.1440  -44.7370 H   0  0  0  0  0  0  0  0  0  0  0  0
  1  2  1  0  0  0  0
  2  3  2  0  0  0  0
  2  7  1  0  0  0  0
  3  4  1  0  0  0  0
  4 10  1  0  0  0  0
  4  5  2  0  0  0  0
  5 29  1  0  0  0  0
  6  5  1  0  0  0  0
  6  9  1  0  0  0  0
  7  6  2  0  0  0  0
  8  7  1  0  0  0  0
  8 30  1  0  0  0  0
  8 32  1  0  0  0  0
 10 11  2  0  0  0  0
 12 15  1  1  0  0  0
 12 22  1  0  0  0  0
 12 10  1  0  0  0  0
 13 12  1  0  0  0  0
 14 13  1  0  0  0  0
 14  3  1  0  0  0  0
 15 16  1  0  0  0  0
 15 35  1  0  0  0  0
 16 21  1  0  0  0  0
 17 39  1  0  0  0  0
 17 16  1  0  0  0  0
 17 18  1  0  0  0  0
 18 19  1  0  0  0  0
 19 43  1  0  0  0  0
 19 20  1  0  0  0  0
 19 42  1  0  0  0  0
 20 45  1  0  0  0  0
 20 44  1  0  0  0  0
 21 46  1  0  0  0  0
 21 20  1  0  0  0  0
 22 23  1  0  0  0  0
 22 48  1  0  0  0  0
 23 50  1  0  0  0  0
 24 52  1  0  0  0  0
 25 53  1  0  0  0  0
 26 55  1  0  0  0  0
 26 27  1  0  0  0  0
 26 25  1  0  0  0  0
 27 57  1  0  0  0  0
 28 27  1  0  0  0  0
 28 23  1  0  0  0  0
 31  8  1  0  0  0  0
 33 13  1  0  0  0  0
 34 13  1  0  0  0  0
 36 15  1  0  0  0  0
 37 16  1  0  0  0  0
 38 17  1  0  0  0  0
 40 18  1  0  0  0  0
 41 18  1  0  0  0  0
 47 21  1  0  0  0  0
 49 22  1  0  0  0  0
 51 24  1  0  0  0  0
 54 25  1  0  0  0  0
 56 26  1  0  0  0  0
 58 27  1  0  0  0  0
 59 28  1  0  0  0  0
 60 28  1  0  0  0  0
M  END
>  <Pose>
1

>  <Score>
-3.86

$$$$
