
 OpenBabel03212208273D

 53 56  0  0  1  0  0  0  0  0999 V2000
   89.6200   95.8730  -47.0470 F   0  0  0  0  0  0  0  0  0  0  0  0
   90.4560   95.3420  -46.1680 C   0  0  0  0  0  0  0  0  0  0  0  0
   91.1170   96.1110  -45.2320 C   0  0  0  0  0  0  0  0  0  0  0  0
   91.9490   95.4170  -44.3890 C   0  0  0  0  0  0  0  0  0  0  0  0
   92.1480   94.0460  -44.4350 C   0  0  0  0  0  0  0  0  0  0  0  0
   91.4760   93.3190  -45.3760 C   0  0  0  0  0  0  0  0  0  0  0  0
   90.6400   93.9580  -46.2320 C   0  0  0  0  0  0  0  0  0  0  0  0
   90.9280   97.5660  -45.1110 C   0  0  2  0  0  0  0  0  0  0  0  0
   91.6380   98.1810  -44.0000 N   0  0  0  0  0  0  0  0  0  0  0  0
   90.9610   97.5950  -42.8680 C   0  0  0  0  0  0  0  0  0  0  0  0
   91.4250   97.3230  -41.7290 O   0  0  0  0  0  0  0  0  0  0  0  0
   89.5430   97.3330  -43.2450 C   0  0  0  0  0  0  0  0  0  0  0  0
   88.5960   96.8530  -42.6240 O   0  0  0  0  0  0  0  0  0  0  0  0
   89.5060   97.8180  -44.6560 C   0  0  0  0  0  0  0  0  0  0  0  0
   88.4750   98.3180  -45.2910 C   0  0  0  0  0  0  0  0  0  0  0  0
   88.6240   98.7180  -46.6350 O   0  0  0  0  0  0  0  0  0  0  0  0
   87.1790   98.4780  -44.6500 C   0  0  0  0  0  0  0  0  0  0  0  0
   86.9330   99.6170  -43.9150 C   0  0  0  0  0  0  0  0  0  0  0  0
   85.7320   99.8210  -43.2560 C   0  0  0  0  0  0  0  0  0  0  0  0
   84.7410   98.8670  -43.3270 C   0  0  0  0  0  0  0  0  0  0  0  0
   84.9620   97.7330  -44.0480 C   0  0  0  0  0  0  0  0  0  0  0  0
   86.1860   97.5370  -44.7120 C   0  0  0  0  0  0  0  0  0  0  0  0
   83.0580   99.1240  -42.4200 B   0  0  0  0  0  0  0  0  0  0  0  0
   92.6920   99.0950  -43.8910 C   0  0  0  0  0  0  0  0  0  0  0  0
   92.4590  100.4560  -43.3420 C   0  0  0  0  0  0  0  0  0  0  0  0
   93.5160  100.9430  -42.5020 N   0  0  0  0  0  4  0  0  0  0  0  0
   93.1100  100.8190  -41.1180 C   0  0  0  0  0  0  0  0  0  0  0  0
   94.2430  101.2110  -40.1880 C   0  0  0  0  0  0  0  0  0  0  0  0
   94.6080  102.5180  -40.4480 O   0  0  0  0  0  0  0  0  0  0  0  0
   94.9640  102.6700  -41.7850 C   0  0  0  0  0  0  0  0  0  0  0  0
   93.7530  102.3900  -42.6860 C   0  0  0  0  0  0  0  0  0  0  0  0
   92.4810   95.9390  -43.6380 H   0  0  0  0  0  0  0  0  0  0  0  0
   92.8090   93.5260  -43.7580 H   0  0  0  0  0  0  0  0  0  0  0  0
   91.6180   92.2450  -45.4290 H   0  0  0  0  0  0  0  0  0  0  0  0
   90.1160   93.3650  -46.9740 H   0  0  0  0  0  0  0  0  0  0  0  0
   91.0610   98.0400  -46.0710 H   0  0  0  0  0  0  0  0  0  0  0  0
   87.6690  100.4140  -43.8130 H   0  0  0  0  0  0  0  0  0  0  0  0
   85.5120  100.7030  -42.6720 H   0  0  0  0  0  0  0  0  0  0  0  0
   84.1860   96.9810  -44.1070 H   0  0  0  0  0  0  0  0  0  0  0  0
   86.3500   96.6380  -45.2600 H   0  0  0  0  0  0  0  0  0  0  0  0
   93.1670   99.2540  -44.9020 H   0  0  0  0  0  0  0  0  0  0  0  0
   93.5790   98.7060  -43.2890 H   0  0  0  0  0  0  0  0  0  0  0  0
   92.4430  101.1450  -44.2360 H   0  0  0  0  0  0  0  0  0  0  0  0
   91.4410  100.5930  -42.9050 H   0  0  0  0  0  0  0  0  0  0  0  0
   94.4480  100.5240  -42.7030 H   0  0  0  0  0  0  0  0  0  0  0  0
   92.3090  101.6020  -40.9670 H   0  0  0  0  0  0  0  0  0  0  0  0
   92.6410   99.8670  -40.8710 H   0  0  0  0  0  0  0  0  0  0  0  0
   95.0650  100.4790  -40.3350 H   0  0  0  0  0  0  0  0  0  0  0  0
   93.8490  101.1530  -39.1570 H   0  0  0  0  0  0  0  0  0  0  0  0
   95.7180  101.8650  -42.0010 H   0  0  0  0  0  0  0  0  0  0  0  0
   95.3980  103.6490  -42.0090 H   0  0  0  0  0  0  0  0  0  0  0  0
   92.8740  102.9440  -42.3550 H   0  0  0  0  0  0  0  0  0  0  0  0
   94.0610  102.5460  -43.7300 H   0  0  0  0  0  0  0  0  0  0  0  0
  1  2  1  0  0  0  0
  2  3  1  0  0  0  0
  3  8  1  0  0  0  0
  3  4  2  0  0  0  0
  4 32  1  0  0  0  0
  5  4  1  0  0  0  0
  5 33  1  0  0  0  0
  6  5  2  0  0  0  0
  7  2  2  0  0  0  0
  7  6  1  0  0  0  0
  8 36  1  6  0  0  0
  8 14  1  0  0  0  0
  8  9  1  0  0  0  0
  9 24  1  0  0  0  0
  9 10  1  0  0  0  0
 10 11  2  0  0  0  0
 12 10  1  0  0  0  0
 12 13  2  0  0  0  0
 14 12  1  0  0  0  0
 15 14  2  0  0  0  0
 15 17  1  0  0  0  0
 16 15  1  0  0  0  0
 17 18  1  0  0  0  0
 18 37  1  0  0  0  0
 18 19  2  0  0  0  0
 19 38  1  0  0  0  0
 20 19  1  0  0  0  0
 20 23  1  0  0  0  0
 21 20  2  0  0  0  0
 22 17  2  0  0  0  0
 22 21  1  0  0  0  0
 24 25  1  0  0  0  0
 24 42  1  0  0  0  0
 25 44  1  0  0  0  0
 25 26  1  0  0  0  0
 26 27  1  0  0  0  0
 27 46  1  0  0  0  0
 27 47  1  0  0  0  0
 27 28  1  0  0  0  0
 28 49  1  0  0  0  0
 29 28  1  0  0  0  0
 30 29  1  0  0  0  0
 31 26  1  0  0  0  0
 31 52  1  0  0  0  0
 31 30  1  0  0  0  0
 34  6  1  0  0  0  0
 35  7  1  0  0  0  0
 39 21  1  0  0  0  0
 40 22  1  0  0  0  0
 41 24  1  0  0  0  0
 43 25  1  0  0  0  0
 45 26  1  0  0  0  0
 48 28  1  0  0  0  0
 50 30  1  0  0  0  0
 51 30  1  0  0  0  0
 53 31  1  0  0  0  0
M  END
>  <Pose>
1

>  <Score>
-4.23

$$$$
