
 OpenBabel03212208273D

 41 44  0  0  0  0  0  0  0  0999 V2000
   94.0980  100.7360  -40.3850 F   0  0  0  0  0  0  0  0  0  0  0  0
   92.8610  101.2600  -40.6250 C   0  0  0  0  0  0  0  0  0  0  0  0
   92.0740  100.6710  -41.6270 C   0  0  0  0  0  0  0  0  0  0  0  0
   90.8390  101.2320  -41.8310 C   0  0  0  0  0  0  0  0  0  0  0  0
   90.4170  102.3160  -41.0780 C   0  0  0  0  0  0  0  0  0  0  0  0
   91.1860  102.8850  -40.1060 C   0  0  0  0  0  0  0  0  0  0  0  0
   92.4270  102.3330  -39.8890 C   0  0  0  0  0  0  0  0  0  0  0  0
   92.5850   99.5570  -42.3530 N   0  0  0  0  0  0  0  0  0  0  0  0
   91.8870   98.6750  -43.1710 C   0  0  0  0  0  0  0  0  0  0  0  0
   92.1070   98.5790  -44.3900 O   0  0  0  0  0  0  0  0  0  0  0  0
   90.8240   97.7850  -42.6240 C   0  0  0  0  0  0  0  0  0  0  0  0
   91.4340   96.6200  -42.0100 N   0  0  0  0  0  0  0  0  0  0  0  0
   91.8120   96.4490  -40.7620 N   0  0  0  0  0  0  0  0  0  0  0  0
   92.3260   95.2390  -40.5980 N   0  0  0  0  0  0  0  0  0  0  0  0
   92.2780   94.5990  -41.7870 C   0  0  0  0  0  0  0  0  0  0  0  0
   91.7340   95.4490  -42.6340 C   0  0  0  0  0  0  0  0  0  0  0  0
   91.6830   94.7950  -43.8550 C   0  0  0  0  0  0  0  0  0  0  0  0
   91.2250   95.2970  -44.9030 O   0  0  0  0  0  0  0  0  0  0  0  0
   92.1920   93.5540  -43.7570 N   0  0  0  0  0  0  0  0  0  0  0  0
   92.5630   93.4310  -42.4690 C   0  0  0  0  0  0  0  0  0  0  0  0
   93.0870   92.4190  -41.9530 O   0  0  0  0  0  0  0  0  0  0  0  0
   92.3050   92.5920  -44.8060 C   0  0  0  0  0  0  0  0  0  0  0  0
   93.4460   91.8280  -44.9560 C   0  0  0  0  0  0  0  0  0  0  0  0
   93.5710   90.8930  -45.9640 C   0  0  0  0  0  0  0  0  0  0  0  0
   92.5530   90.6840  -46.8710 C   0  0  0  0  0  0  0  0  0  0  0  0
   91.4040   91.4360  -46.7400 C   0  0  0  0  0  0  0  0  0  0  0  0
   91.2990   92.3660  -45.7250 C   0  0  0  0  0  0  0  0  0  0  0  0
   92.6990   89.3960  -48.2770 B   0  0  0  0  0  0  0  0  0  0  0  0
   90.1780  100.8420  -42.5740 H   0  0  0  0  0  0  0  0  0  0  0  0
   89.4290  102.7530  -41.2520 H   0  0  0  0  0  0  0  0  0  0  0  0
   90.8110  103.7300  -39.5470 H   0  0  0  0  0  0  0  0  0  0  0  0
   93.0370  102.7930  -39.1110 H   0  0  0  0  0  0  0  0  0  0  0  0
   93.6380   99.3690  -42.2630 H   0  0  0  0  0  0  0  0  0  0  0  0
   90.1980   97.4420  -43.4910 H   0  0  0  0  0  0  0  0  0  0  0  0
   90.1710   98.3290  -41.9150 H   0  0  0  0  0  0  0  0  0  0  0  0
   91.7090   97.1910  -40.0220 H   0  0  0  0  0  0  0  0  0  0  0  0
   92.7050   94.8440  -39.7040 H   0  0  0  0  0  0  0  0  0  0  0  0
   94.2480   92.0020  -44.2310 H   0  0  0  0  0  0  0  0  0  0  0  0
   94.4660   90.3050  -46.0690 H   0  0  0  0  0  0  0  0  0  0  0  0
   90.5970   91.2660  -47.4630 H   0  0  0  0  0  0  0  0  0  0  0  0
   90.4030   92.9580  -45.6160 H   0  0  0  0  0  0  0  0  0  0  0  0
  2  1  1  0  0  0  0
  2  7  1  0  0  0  0
  3  2  2  0  0  0  0
  4  3  1  0  0  0  0
  4  5  2  0  0  0  0
  5  6  1  0  0  0  0
  6  7  2  0  0  0  0
  6 31  1  0  0  0  0
  7 32  1  0  0  0  0
  8 33  1  0  0  0  0
  8  3  1  0  0  0  0
  9 11  1  0  0  0  0
  9  8  1  0  0  0  0
 10  9  2  0  0  0  0
 11 12  1  0  0  0  0
 11 35  1  0  0  0  0
 12 13  1  0  0  0  0
 13 14  1  0  0  0  0
 13 36  1  0  0  0  0
 14 37  1  0  0  0  0
 15 14  1  0  0  0  0
 16 12  1  0  0  0  0
 16 15  2  0  0  0  0
 17 19  1  0  0  0  0
 17 16  1  0  0  0  0
 18 17  2  0  0  0  0
 19 20  1  0  0  0  0
 20 21  2  0  0  0  0
 20 15  1  0  0  0  0
 22 19  1  0  0  0  0
 23 22  1  0  0  0  0
 23 38  1  0  0  0  0
 24 23  2  0  0  0  0
 25 26  2  0  0  0  0
 25 24  1  0  0  0  0
 26 27  1  0  0  0  0
 27 41  1  0  0  0  0
 27 22  2  0  0  0  0
 28 25  1  0  0  0  0
 29  4  1  0  0  0  0
 30  5  1  0  0  0  0
 34 11  1  0  0  0  0
 39 24  1  0  0  0  0
 40 26  1  0  0  0  0
M  END
>  <Pose>
1

>  <Score>
-7.81

$$$$
