
 OpenBabel03212208273D

 39 42  0  0  1  0  0  0  0  0999 V2000
   92.1670   93.4290  -43.0430 I   0  0  0  0  0  0  0  0  0  0  0  0
   91.7590   95.4920  -42.9990 C   0  0  0  0  0  0  0  0  0  0  0  0
   91.4770   96.1720  -44.1840 C   0  0  0  0  0  0  0  0  0  0  0  0
   91.2040   97.5200  -44.2000 C   0  0  0  0  0  0  0  0  0  0  0  0
   91.2290   98.1650  -42.9550 C   0  0  0  0  0  0  0  0  0  0  0  0
   91.5080   97.4890  -41.7960 C   0  0  0  0  0  0  0  0  0  0  0  0
   91.7770   96.1410  -41.8030 C   0  0  0  0  0  0  0  0  0  0  0  0
   91.5320   98.4010  -40.1250 B   0  0  0  0  0  0  0  0  0  0  0  0
   90.8850   98.2900  -45.4300 C   0  0  2  0  0  0  0  0  0  0  0  0
   89.9310   99.3050  -45.0440 N   0  0  0  0  0  0  0  0  0  0  0  0
   88.5790   98.9320  -44.7610 C   0  0  0  0  0  0  0  0  0  0  0  0
   87.3260   99.6430  -43.7870 S   0  0  0  0  0  0  0  0  0  0  0  0
   86.0860   98.5140  -44.0610 C   0  0  0  0  0  0  0  0  0  0  0  0
   86.6700   97.6210  -44.8910 C   0  0  0  0  0  0  0  0  0  0  0  0
   87.9460   97.8270  -45.2550 C   0  0  0  0  0  0  0  0  0  0  0  0
   88.8480   97.0390  -46.1430 C   0  0  0  0  0  0  0  0  0  0  0  0
   88.4520   95.9880  -46.7000 O   0  0  0  0  0  0  0  0  0  0  0  0
   90.1760   97.4550  -46.3840 N   0  0  0  0  0  0  0  0  0  0  0  0
   85.7660   96.4690  -45.3140 C   0  0  0  0  0  0  0  0  0  0  0  0
   84.3460   96.9050  -45.1520 C   0  0  0  0  0  0  0  0  0  0  0  0
   84.1720   97.1590  -43.7140 N   0  0  0  0  0  4  0  0  0  0  0  0
   84.7030   98.4940  -43.5320 C   0  0  0  0  0  0  0  0  0  0  0  0
   82.7850   97.0580  -43.3260 C   0  0  0  0  0  0  0  0  0  0  0  0
   91.4730   95.4690  -45.3680 O   0  0  0  0  0  0  0  0  0  0  0  0
   91.0160   99.2260  -42.9640 H   0  0  0  0  0  0  0  0  0  0  0  0
   92.0000   95.5920  -40.8780 H   0  0  0  0  0  0  0  0  0  0  0  0
   91.7970   98.7300  -45.8860 H   0  0  0  0  0  0  0  0  0  0  0  0
   90.1750  100.3170  -44.9600 H   0  0  0  0  0  0  0  0  0  0  0  0
   90.6800   97.1680  -47.2620 H   0  0  0  0  0  0  0  0  0  0  0  0
   85.9750   95.6450  -44.6220 H   0  0  0  0  0  0  0  0  0  0  0  0
   85.9920   96.1520  -46.3380 H   0  0  0  0  0  0  0  0  0  0  0  0
   84.1450   97.8340  -45.7110 H   0  0  0  0  0  0  0  0  0  0  0  0
   83.6850   96.0970  -45.4630 H   0  0  0  0  0  0  0  0  0  0  0  0
   84.7850   96.5060  -43.1820 H   0  0  0  0  0  0  0  0  0  0  0  0
   84.0780   99.2590  -44.0340 H   0  0  0  0  0  0  0  0  0  0  0  0
   84.6500   98.7130  -42.4480 H   0  0  0  0  0  0  0  0  0  0  0  0
   82.3710   98.0230  -42.9890 H   0  0  0  0  0  0  0  0  0  0  0  0
   82.7510   96.3690  -42.4390 H   0  0  0  0  0  0  0  0  0  0  0  0
   82.1530   96.5690  -44.0960 H   0  0  0  0  0  0  0  0  0  0  0  0
  1  2  1  0  0  0  0
  2  7  1  0  0  0  0
  3  2  2  0  0  0  0
  4  3  1  0  0  0  0
  4  5  2  0  0  0  0
  5  6  1  0  0  0  0
  6  8  1  0  0  0  0
  7  6  2  0  0  0  0
  7 26  1  0  0  0  0
  9 27  1  6  0  0  0
  9 10  1  0  0  0  0
  9  4  1  0  0  0  0
 10 28  1  0  0  0  0
 10 11  1  0  0  0  0
 11 12  1  0  0  0  0
 13 12  1  0  0  0  0
 13 22  1  0  0  0  0
 14 13  2  0  0  0  0
 15 14  1  0  0  0  0
 15 11  2  0  0  0  0
 16 15  1  0  0  0  0
 17 16  2  0  0  0  0
 18 16  1  0  0  0  0
 18  9  1  0  0  0  0
 19 20  1  0  0  0  0
 19 14  1  0  0  0  0
 19 30  1  0  0  0  0
 20 21  1  0  0  0  0
 21 22  1  0  0  0  0
 21 23  1  0  0  0  0
 21 34  1  0  0  0  0
 22 36  1  0  0  0  0
 23 37  1  0  0  0  0
 23 38  1  0  0  0  0
 24  3  1  0  0  0  0
 25  5  1  0  0  0  0
 29 18  1  0  0  0  0
 31 19  1  0  0  0  0
 32 20  1  0  0  0  0
 33 20  1  0  0  0  0
 35 22  1  0  0  0  0
 39 23  1  0  0  0  0
M  END
>  <Pose>
1

>  <Score>
-5.42

$$$$
