
 OpenBabel03212208273D

 43 46  0  0  1  0  0  0  0  0999 V2000
   85.2960   99.1910  -43.6150 I   0  0  0  0  0  0  0  0  0  0  0  0
   87.2160   99.9270  -43.1480 C   0  0  0  0  0  0  0  0  0  0  0  0
   87.3510  101.1870  -42.6000 C   0  0  0  0  0  0  0  0  0  0  0  0
   88.6130  101.6870  -42.2860 C   0  0  0  0  0  0  0  0  0  0  0  0
   89.6880  100.8890  -42.5390 C   0  0  0  0  0  0  0  0  0  0  0  0
   89.5820   99.6180  -43.0890 C   0  0  0  0  0  0  0  0  0  0  0  0
   88.3340   99.1450  -43.3900 C   0  0  0  0  0  0  0  0  0  0  0  0
   90.8340   98.8450  -43.3170 C   0  0  2  0  0  0  0  0  0  0  0  0
   90.5580   97.9640  -44.4520 N   0  0  0  0  0  0  0  0  0  0  0  0
   91.0560   96.6030  -44.4770 C   0  0  0  0  0  0  0  0  0  0  0  0
   91.1900   95.4330  -45.7290 S   0  0  0  0  0  0  0  0  0  0  0  0
   91.8740   94.1640  -44.8350 C   0  0  0  0  0  0  0  0  0  0  0  0
   91.9820   94.6830  -43.5740 C   0  0  0  0  0  0  0  0  0  0  0  0
   91.5550   95.9520  -43.3950 C   0  0  0  0  0  0  0  0  0  0  0  0
   91.5650   96.7410  -42.1290 C   0  0  0  0  0  0  0  0  0  0  0  0
   92.0060   96.2510  -41.0460 O   0  0  0  0  0  0  0  0  0  0  0  0
   91.0740   98.0610  -42.1370 N   0  0  0  0  0  0  0  0  0  0  0  0
   92.5870   93.6800  -42.5980 C   0  0  0  0  0  0  0  0  0  0  0  0
   91.8530   92.3710  -42.7130 C   0  0  0  0  0  0  0  0  0  0  0  0
   91.6080   91.9570  -44.0540 N   0  0  0  0  0  4  0  0  0  0  0  0
   92.3520   92.7460  -45.0300 C   0  0  0  0  0  0  0  0  0  0  0  0
   90.1890   92.2260  -44.3380 C   0  0  0  0  0  0  0  0  0  0  0  0
   88.6880  102.9610  -41.7380 O   0  0  0  0  0  0  0  0  0  0  0  0
   89.9280  103.4000  -41.2160 C   0  0  0  0  0  0  0  0  0  0  0  0
   86.2350  101.9670  -42.3580 O   0  0  0  0  0  0  0  0  0  0  0  0
   90.6780  101.2680  -42.2980 H   0  0  0  0  0  0  0  0  0  0  0  0
   88.2520   98.1470  -43.8230 H   0  0  0  0  0  0  0  0  0  0  0  0
   91.6820   99.5090  -43.5700 H   0  0  0  0  0  0  0  0  0  0  0  0
   90.0020   98.2810  -45.2670 H   0  0  0  0  0  0  0  0  0  0  0  0
   90.8610   98.5260  -41.2160 H   0  0  0  0  0  0  0  0  0  0  0  0
   93.6490   93.5820  -42.8210 H   0  0  0  0  0  0  0  0  0  0  0  0
   92.4450   94.0370  -41.5620 H   0  0  0  0  0  0  0  0  0  0  0  0
   90.9290   92.3440  -42.1010 H   0  0  0  0  0  0  0  0  0  0  0  0
   92.5300   91.5950  -42.2470 H   0  0  0  0  0  0  0  0  0  0  0  0
   91.7840   90.9320  -44.2220 H   0  0  0  0  0  0  0  0  0  0  0  0
   92.0630   92.3830  -46.0250 H   0  0  0  0  0  0  0  0  0  0  0  0
   93.4200   92.6390  -44.7860 H   0  0  0  0  0  0  0  0  0  0  0  0
   89.9610   93.2240  -43.9120 H   0  0  0  0  0  0  0  0  0  0  0  0
   90.0350   92.2550  -45.4400 H   0  0  0  0  0  0  0  0  0  0  0  0
   89.5480   91.4300  -43.9290 H   0  0  0  0  0  0  0  0  0  0  0  0
   90.6280  103.6160  -42.0740 H   0  0  0  0  0  0  0  0  0  0  0  0
   90.4300  102.6320  -40.5980 H   0  0  0  0  0  0  0  0  0  0  0  0
   89.8120  104.2970  -40.5740 H   0  0  0  0  0  0  0  0  0  0  0  0
  1  2  1  0  0  0  0
  2  3  1  0  0  0  0
  3 25  1  0  0  0  0
  3  4  2  0  0  0  0
  4 23  1  0  0  0  0
  5 26  1  0  0  0  0
  5  4  1  0  0  0  0
  6  5  2  0  0  0  0
  7  2  2  0  0  0  0
  7  6  1  0  0  0  0
  8 28  1  6  0  0  0
  8  6  1  0  0  0  0
  8 17  1  0  0  0  0
  9  8  1  0  0  0  0
 10  9  1  0  0  0  0
 10 14  2  0  0  0  0
 11 12  1  0  0  0  0
 11 10  1  0  0  0  0
 12 13  2  0  0  0  0
 13 14  1  0  0  0  0
 13 18  1  0  0  0  0
 14 15  1  0  0  0  0
 15 16  2  0  0  0  0
 17 15  1  0  0  0  0
 17 30  1  0  0  0  0
 18 32  1  0  0  0  0
 19 18  1  0  0  0  0
 19 34  1  0  0  0  0
 19 33  1  0  0  0  0
 20 19  1  0  0  0  0
 21 12  1  0  0  0  0
 21 37  1  0  0  0  0
 21 20  1  0  0  0  0
 22 20  1  0  0  0  0
 22 40  1  0  0  0  0
 22 38  1  0  0  0  0
 23 24  1  0  0  0  0
 24 42  1  0  0  0  0
 24 43  1  0  0  0  0
 27  7  1  0  0  0  0
 29  9  1  0  0  0  0
 31 18  1  0  0  0  0
 35 20  1  0  0  0  0
 36 21  1  0  0  0  0
 39 22  1  0  0  0  0
 41 24  1  0  0  0  0
M  END
>  <Pose>
1

>  <Score>
-5.48

$$$$
