
 OpenBabel03212208273D

 40 43  0  0  0  0  0  0  0  0999 V2000
   94.4900  101.3750  -39.8940 I   0  0  0  0  0  0  0  0  0  0  0  0
   94.6580  102.4090  -41.7470 C   0  0  0  0  0  0  0  0  0  0  0  0
   93.7150  102.4470  -42.7510 C   0  0  0  0  0  0  0  0  0  0  0  0
   94.2150  103.1970  -43.7360 N   0  0  0  0  0  0  0  0  0  0  0  0
   95.4200  103.6170  -43.3690 N   0  0  0  0  0  0  0  0  0  0  0  0
   95.7310  103.1590  -42.1590 C   0  0  0  0  0  0  0  0  0  0  0  0
   93.6210  103.5050  -45.0500 C   0  0  0  0  0  0  0  0  0  0  0  0
   92.4160  101.7220  -42.7310 C   0  0  0  0  0  0  0  0  0  0  0  0
   91.4400  102.5670  -42.5930 O   0  0  0  0  0  0  0  0  0  0  0  0
   92.2510  100.4040  -42.8410 N   0  0  0  0  0  0  0  0  0  0  0  0
   92.0810   99.0400  -42.9540 C   0  0  0  0  0  0  0  0  0  0  0  0
   92.3800   98.3030  -41.7850 C   0  0  0  0  0  0  0  0  0  0  0  0
   92.8680   98.6810  -40.6100 N   0  0  0  0  0  0  0  0  0  0  0  0
   92.9720   97.6310  -39.8530 O   0  0  0  0  0  0  0  0  0  0  0  0
   92.5750   96.5850  -40.4830 N   0  0  0  0  0  0  0  0  0  0  0  0
   92.1910   96.9620  -41.7090 C   0  0  0  0  0  0  0  0  0  0  0  0
   91.6920   96.2790  -42.7960 C   0  0  0  0  0  0  0  0  0  0  0  0
   91.3920   96.9630  -43.9450 C   0  0  0  0  0  0  0  0  0  0  0  0
   91.5800   98.3290  -44.0360 C   0  0  0  0  0  0  0  0  0  0  0  0
   91.5180   94.8910  -42.6800 N   0  0  0  0  0  0  0  0  0  0  0  0
   91.8630   94.1490  -41.4670 C   0  0  0  0  0  0  0  0  0  0  0  0
   92.9570   93.1960  -41.9020 C   0  0  0  0  0  0  0  0  0  0  0  0
   93.2610   93.2750  -43.2510 O   0  0  0  0  0  0  0  0  0  0  0  0
   92.1870   93.1410  -44.1060 C   0  0  0  0  0  0  0  0  0  0  0  0
   91.0000   93.9900  -43.6840 C   0  0  0  0  0  0  0  0  0  0  0  0
   96.6430  103.3270  -41.5850 H   0  0  0  0  0  0  0  0  0  0  0  0
   93.5050  104.5920  -45.1630 H   0  0  0  0  0  0  0  0  0  0  0  0
   92.6660  102.9920  -45.1960 H   0  0  0  0  0  0  0  0  0  0  0  0
   94.3500  103.1400  -45.8340 H   0  0  0  0  0  0  0  0  0  0  0  0
   93.6000  100.2180  -42.8300 H   0  0  0  0  0  0  0  0  0  0  0  0
   91.0120   96.4450  -44.7990 H   0  0  0  0  0  0  0  0  0  0  0  0
   91.3100   98.7980  -44.9670 H   0  0  0  0  0  0  0  0  0  0  0  0
   92.0970   94.7270  -40.6020 H   0  0  0  0  0  0  0  0  0  0  0  0
   90.9770   93.5030  -41.1890 H   0  0  0  0  0  0  0  0  0  0  0  0
   92.7680   92.1650  -41.5390 H   0  0  0  0  0  0  0  0  0  0  0  0
   93.8970   93.5320  -41.3710 H   0  0  0  0  0  0  0  0  0  0  0  0
   92.5260   93.5540  -45.0930 H   0  0  0  0  0  0  0  0  0  0  0  0
   91.8850   92.0970  -44.2780 H   0  0  0  0  0  0  0  0  0  0  0  0
   90.2710   93.2840  -43.1620 H   0  0  0  0  0  0  0  0  0  0  0  0
   90.4300   94.4170  -44.4890 H   0  0  0  0  0  0  0  0  0  0  0  0
  2  1  1  0  0  0  0
  3  8  1  0  0  0  0
  3  2  2  0  0  0  0
  4  5  1  0  0  0  0
  4  3  1  0  0  0  0
  5  6  2  0  0  0  0
  6  2  1  0  0  0  0
  6 26  1  0  0  0  0
  7  4  1  0  0  0  0
  8  9  2  0  0  0  0
 10 30  1  0  0  0  0
 10  8  1  0  0  0  0
 11 10  1  0  0  0  0
 11 12  1  0  0  0  0
 12 16  1  0  0  0  0
 12 13  2  0  0  0  0
 13 14  1  0  0  0  0
 15 14  1  0  0  0  0
 16 15  2  0  0  0  0
 17 20  1  0  0  0  0
 17 16  1  0  0  0  0
 18 17  2  0  0  0  0
 19 18  1  0  0  0  0
 19 11  2  0  0  0  0
 20 21  1  0  0  0  0
 21 34  1  0  0  0  0
 21 33  1  0  0  0  0
 22 35  1  0  0  0  0
 22 21  1  0  0  0  0
 22 36  1  0  0  0  0
 23 22  1  0  0  0  0
 24 25  1  0  0  0  0
 24 23  1  0  0  0  0
 25 39  1  0  0  0  0
 25 20  1  0  0  0  0
 27  7  1  0  0  0  0
 28  7  1  0  0  0  0
 29  7  1  0  0  0  0
 31 18  1  0  0  0  0
 32 19  1  0  0  0  0
 37 24  1  0  0  0  0
 38 24  1  0  0  0  0
 40 25  1  0  0  0  0
M  END
>  <Pose>
1

>  <Score>
-5.73

$$$$
