
 OpenBabel03212208273D

 40 43  0  0  1  0  0  0  0  0999 V2000
   90.3170   91.1240  -49.9680 I   0  0  0  0  0  0  0  0  0  0  0  0
   91.0040   91.7170  -48.0950 C   0  0  0  0  0  0  0  0  0  0  0  0
   90.8030   92.9720  -47.5540 C   0  0  0  0  0  0  0  0  0  0  0  0
   91.2680   93.3300  -46.3170 C   0  0  0  0  0  0  0  0  0  0  0  0
   91.9640   92.4530  -45.5430 C   0  0  0  0  0  0  0  0  0  0  0  0
   92.1770   91.1810  -46.0720 C   0  0  0  0  0  0  0  0  0  0  0  0
   91.7180   90.8240  -47.2960 C   0  0  0  0  0  0  0  0  0  0  0  0
   92.4520   92.7890  -44.2330 C   0  0  1  0  0  0  0  0  0  0  0  0
   93.7520   92.7370  -44.1220 O   0  0  0  0  0  0  0  0  0  0  0  0
   91.8040   93.1750  -43.0070 C   0  0  0  0  0  0  0  0  0  0  0  0
   91.8850   94.4940  -42.5030 N   0  0  0  0  0  0  0  0  0  0  0  0
   91.7370   95.5780  -43.1990 C   0  0  1  0  0  0  0  0  0  0  0  0
   91.4100   96.1220  -44.8830 S   0  0  0  0  0  0  0  0  0  0  0  0
   91.4650   97.8490  -44.4650 C   0  0  0  0  0  0  0  0  0  0  0  0
   91.7060   97.9660  -43.1780 C   0  0  0  0  0  0  0  0  0  0  0  0
   91.8580   96.7560  -42.4580 N   0  0  0  0  0  0  0  0  0  0  0  0
   92.1220   96.3360  -41.0580 C   0  0  0  0  0  0  0  0  0  0  0  0
   92.1900   94.8520  -41.1450 C   0  0  0  0  0  0  0  0  0  0  0  0
   91.8020   99.3430  -42.6090 C   0  0  0  0  0  0  0  0  0  0  0  0
   92.2970   99.5830  -41.3540 C   0  0  0  0  0  0  0  0  0  0  0  0
   92.3940  100.8850  -40.8250 C   0  0  0  0  0  0  0  0  0  0  0  0
   91.9870  101.9670  -41.5700 C   0  0  0  0  0  0  0  0  0  0  0  0
   91.4900  101.7320  -42.8280 C   0  0  0  0  0  0  0  0  0  0  0  0
   91.3980  100.4450  -43.3410 C   0  0  0  0  0  0  0  0  0  0  0  0
   90.2430   93.6830  -48.1730 H   0  0  0  0  0  0  0  0  0  0  0  0
   91.0690   94.3220  -46.0000 H   0  0  0  0  0  0  0  0  0  0  0  0
   92.7220   90.4750  -45.4810 H   0  0  0  0  0  0  0  0  0  0  0  0
   91.8800   89.8210  -47.7260 H   0  0  0  0  0  0  0  0  0  0  0  0
   90.6830   92.9110  -43.0210 H   0  0  0  0  0  0  0  0  0  0  0  0
   92.1690   92.4410  -42.2100 H   0  0  0  0  0  0  0  0  0  0  0  0
   91.3090   98.5970  -45.2400 H   0  0  0  0  0  0  0  0  0  0  0  0
   91.3030   96.6200  -40.3820 H   0  0  0  0  0  0  0  0  0  0  0  0
   93.1170   96.6860  -40.7110 H   0  0  0  0  0  0  0  0  0  0  0  0
   91.4680   94.4090  -40.4260 H   0  0  0  0  0  0  0  0  0  0  0  0
   93.2160   94.4580  -40.8820 H   0  0  0  0  0  0  0  0  0  0  0  0
   92.6190   98.7560  -40.7530 H   0  0  0  0  0  0  0  0  0  0  0  0
   92.7860  101.0080  -39.8490 H   0  0  0  0  0  0  0  0  0  0  0  0
   92.0370  102.9860  -41.2210 H   0  0  0  0  0  0  0  0  0  0  0  0
   91.1670  102.5690  -43.4220 H   0  0  0  0  0  0  0  0  0  0  0  0
   90.9950  100.3330  -44.3440 H   0  0  0  0  0  0  0  0  0  0  0  0
  1  2  1  0  0  0  0
  2  3  2  0  0  0  0
  2  7  1  0  0  0  0
  3  4  1  0  0  0  0
  4 26  1  0  0  0  0
  4  5  2  0  0  0  0
  5  8  1  0  0  0  0
  6  5  1  0  0  0  0
  6 27  1  0  0  0  0
  7  6  2  0  0  0  0
  8  9  1  6  0  0  0
  8 10  1  0  0  0  0
 10 11  1  0  0  0  0
 10 30  1  0  0  0  0
 11 18  1  0  0  0  0
 12 13  1  1  0  0  0
 12 11  1  0  0  0  0
 12 16  1  0  0  0  0
 13 14  1  0  0  0  0
 14 15  2  0  0  0  0
 15 19  1  0  0  0  0
 15 16  1  0  0  0  0
 16 17  1  0  0  0  0
 17 33  1  0  0  0  0
 17 32  1  0  0  0  0
 18 17  1  0  0  0  0
 18 35  1  0  0  0  0
 18 34  1  0  0  0  0
 19 20  1  0  0  0  0
 20 21  2  0  0  0  0
 20 36  1  0  0  0  0
 21 37  1  0  0  0  0
 22 38  1  0  0  0  0
 22 21  1  0  0  0  0
 23 22  2  0  0  0  0
 24 23  1  0  0  0  0
 24 19  2  0  0  0  0
 25  3  1  0  0  0  0
 28  7  1  0  0  0  0
 29 10  1  0  0  0  0
 31 14  1  0  0  0  0
 39 23  1  0  0  0  0
 40 24  1  0  0  0  0
M  END
>  <Pose>
1

>  <Score>
-5.36

$$$$
