
 OpenBabel03212208273D

 52 54  0  0  1  0  0  0  0  0999 V2000
   91.0050   91.0590  -47.6540 I   0  0  0  0  0  0  0  0  0  0  0  0
   91.3350   92.4560  -46.1230 C   0  0  0  0  0  0  0  0  0  0  0  0
   90.9090   93.7710  -46.2770 C   0  0  0  0  0  0  0  0  0  0  0  0
   91.1190   94.6850  -45.2870 C   0  0  0  0  0  0  0  0  0  0  0  0
   91.7550   94.3650  -44.0970 C   0  0  0  0  0  0  0  0  0  0  0  0
   92.1840   93.0520  -43.9370 C   0  0  0  0  0  0  0  0  0  0  0  0
   91.9670   92.1350  -44.9440 C   0  0  0  0  0  0  0  0  0  0  0  0
   91.9730   95.3180  -43.0690 N   0  0  0  0  0  0  0  0  0  0  0  0
   91.9790   96.6380  -43.3240 C   0  0  0  0  0  0  0  0  0  0  0  0
   92.1870   97.5800  -42.3410 C   0  0  2  0  0  0  0  0  0  0  0  0
   92.3920   97.0890  -41.0670 C   0  0  0  0  0  0  0  0  0  0  0  0
   92.5970   97.8240  -40.0540 O   0  0  0  0  0  0  0  0  0  0  0  0
   92.3880   95.7470  -40.7940 N   0  0  0  0  0  0  0  0  0  0  0  0
   92.1760   94.8940  -41.8110 C   0  0  0  0  0  0  0  0  0  0  0  0
   92.1630   93.6540  -41.6090 O   0  0  0  0  0  0  0  0  0  0  0  0
   92.1920   99.0190  -42.5350 C   0  0  1  0  0  0  0  0  0  0  0  0
   93.1120   99.5520  -43.4890 N   0  0  0  0  0  4  0  0  0  0  0  0
   92.8720   99.1430  -44.8460 C   0  0  0  0  0  0  0  0  0  0  0  0
   91.5510   98.4260  -45.0320 C   0  0  0  0  0  0  0  0  0  0  0  0
   90.4870   99.1860  -44.2770 C   0  0  0  0  0  0  0  0  0  0  0  0
   90.8400   99.5050  -42.9900 C   0  0  0  0  0  0  0  0  0  0  0  0
   89.9860  100.2260  -42.1910 C   0  0  0  0  0  0  0  0  0  0  0  0
   88.7700  100.6070  -42.7410 C   0  0  0  0  0  0  0  0  0  0  0  0
   88.3990  100.2930  -44.0320 C   0  0  0  0  0  0  0  0  0  0  0  0
   89.2970   99.5600  -44.8080 C   0  0  0  0  0  0  0  0  0  0  0  0
   87.1370  100.8160  -44.2670 O   0  0  0  0  0  0  0  0  0  0  0  0
   86.5310  101.1510  -43.0080 C   0  0  0  0  0  0  0  0  0  0  0  0
   87.6900  101.3330  -42.2170 O   0  0  0  0  0  0  0  0  0  0  0  0
   90.3470  100.5410  -40.9120 O   0  0  0  0  0  0  0  0  0  0  0  0
   91.3990  101.3600  -40.5120 C   0  0  0  0  0  0  0  0  0  0  0  0
   92.8650  101.0180  -43.4830 C   0  0  0  0  0  0  0  0  0  0  0  0
   91.7740   97.0850  -44.6040 O   0  0  0  0  0  0  0  0  0  0  0  0
   90.4140   94.0290  -47.1980 H   0  0  0  0  0  0  0  0  0  0  0  0
   90.7850   95.7060  -45.4140 H   0  0  0  0  0  0  0  0  0  0  0  0
   92.6830   92.8050  -43.0020 H   0  0  0  0  0  0  0  0  0  0  0  0
   92.2960   91.1230  -44.8200 H   0  0  0  0  0  0  0  0  0  0  0  0
   92.5420   95.3830  -39.8350 H   0  0  0  0  0  0  0  0  0  0  0  0
   92.3660   99.4980  -41.5560 H   0  0  0  0  0  0  0  0  0  0  0  0
   94.1130   99.5170  -43.2360 H   0  0  0  0  0  0  0  0  0  0  0  0
   93.6670   98.4750  -45.2140 H   0  0  0  0  0  0  0  0  0  0  0  0
   92.8510  100.0030  -45.5720 H   0  0  0  0  0  0  0  0  0  0  0  0
   91.5700   97.3600  -44.7790 H   0  0  0  0  0  0  0  0  0  0  0  0
   91.2550   98.4970  -46.0990 H   0  0  0  0  0  0  0  0  0  0  0  0
   89.0600   99.2900  -45.8160 H   0  0  0  0  0  0  0  0  0  0  0  0
   86.0180  100.2430  -42.6150 H   0  0  0  0  0  0  0  0  0  0  0  0
   85.8940  102.0320  -43.0740 H   0  0  0  0  0  0  0  0  0  0  0  0
   92.1070  100.7270  -39.9060 H   0  0  0  0  0  0  0  0  0  0  0  0
   91.9400  101.8550  -41.3350 H   0  0  0  0  0  0  0  0  0  0  0  0
   91.0800  102.1690  -39.8010 H   0  0  0  0  0  0  0  0  0  0  0  0
   93.0940  101.4310  -42.5040 H   0  0  0  0  0  0  0  0  0  0  0  0
   91.8420  101.1840  -43.8470 H   0  0  0  0  0  0  0  0  0  0  0  0
   93.5410  101.4760  -44.2550 H   0  0  0  0  0  0  0  0  0  0  0  0
  1  2  1  0  0  0  0
  2  7  1  0  0  0  0
  3  2  2  0  0  0  0
  3  4  1  0  0  0  0
  4  5  2  0  0  0  0
  5  6  1  0  0  0  0
  5  8  1  0  0  0  0
  6 35  1  0  0  0  0
  7 36  1  0  0  0  0
  7  6  2  0  0  0  0
  8 14  1  0  0  0  0
  9  8  1  0  0  0  0
  9 10  1  0  0  0  0
 10 16  1  1  0  0  0
 10 11  1  0  0  0  0
 11 13  1  0  0  0  0
 11 12  2  0  0  0  0
 13 37  1  0  0  0  0
 14 15  2  0  0  0  0
 14 13  1  0  0  0  0
 16 38  1  1  0  0  0
 17 31  1  0  0  0  0
 17 39  1  0  0  0  0
 17 16  1  0  0  0  0
 18 17  1  0  0  0  0
 19 42  1  0  0  0  0
 20 21  1  0  0  0  0
 21 16  1  0  0  0  0
 21 22  2  0  0  0  0
 22 29  1  0  0  0  0
 23 28  1  0  0  0  0
 23 22  1  0  0  0  0
 24 23  2  0  0  0  0
 25 20  2  0  0  0  0
 25 24  1  0  0  0  0
 26 24  1  0  0  0  0
 26 27  1  0  0  0  0
 27 45  1  0  0  0  0
 27 28  1  0  0  0  0
 29 30  1  0  0  0  0
 30 47  1  0  0  0  0
 30 49  1  0  0  0  0
 31 50  1  0  0  0  0
 32  9  2  0  0  0  0
 33  3  1  0  0  0  0
 34  4  1  0  0  0  0
 40 18  1  0  0  0  0
 41 18  1  0  0  0  0
 43 19  1  0  0  0  0
 44 25  1  0  0  0  0
 46 27  1  0  0  0  0
 48 30  1  0  0  0  0
 51 31  1  0  0  0  0
 52 31  1  0  0  0  0
M  END
>  <Pose>
1

>  <Score>
-6.02

$$$$
