
 OpenBabel03212208273D

 44 47  0  0  1  0  0  0  0  0999 V2000
   99.0320  105.3200  -43.0450 I   0  0  0  0  0  0  0  0  0  0  0  0
   97.1470  104.5140  -42.5360 C   0  0  0  0  0  0  0  0  0  0  0  0
   96.7540  104.3380  -41.2260 C   0  0  0  0  0  0  0  0  0  0  0  0
   95.5170  103.8080  -40.9220 C   0  0  0  0  0  0  0  0  0  0  0  0
   94.6280  103.4350  -41.9080 C   0  0  0  0  0  0  0  0  0  0  0  0
   95.0380  103.6180  -43.2070 C   0  0  0  0  0  0  0  0  0  0  0  0
   96.2710  104.1460  -43.5350 C   0  0  0  0  0  0  0  0  0  0  0  0
   93.3470  102.8880  -41.5400 N   0  0  0  0  0  0  0  0  0  0  0  0
   93.0690  101.6450  -40.9180 C   0  0  0  0  0  0  0  0  0  0  0  0
   93.9120  100.9980  -40.2430 O   0  0  0  0  0  0  0  0  0  0  0  0
   91.6580  101.2540  -41.1880 C   0  0  1  0  0  0  0  0  0  0  0  0
   90.9920  102.6110  -41.3360 C   0  0  0  0  0  0  0  0  0  0  0  0
   92.0840  103.5180  -41.7410 C   0  0  0  0  0  0  0  0  0  0  0  0
   91.9550  104.6890  -42.2030 O   0  0  0  0  0  0  0  0  0  0  0  0
   91.6290  100.4780  -42.3590 N   0  0  0  0  0  0  0  0  0  0  0  0
   92.7860   99.8850  -42.8640 C   0  0  0  0  0  0  0  0  0  0  0  0
   92.3390   98.6490  -43.6870 C   0  0  0  0  0  0  0  0  0  0  0  0
   91.4160   97.8760  -42.8690 N   0  0  0  0  0  0  0  0  0  0  0  0
   90.2100   98.5480  -42.4530 C   0  0  0  0  0  0  0  0  0  0  0  0
   90.3730  100.0250  -42.8010 C   0  0  0  0  0  0  0  0  0  0  0  0
   91.7000   96.5440  -42.5040 C   0  0  0  0  0  0  0  0  0  0  0  0
   91.6500   95.5450  -43.4270 N   0  0  0  0  0  0  0  0  0  0  0  0
   91.9180   94.2720  -43.1460 C   0  0  0  0  0  0  0  0  0  0  0  0
   92.2700   93.9020  -41.8550 C   0  0  0  0  0  0  0  0  0  0  0  0
   92.3190   94.9220  -40.9210 C   0  0  0  0  0  0  0  0  0  0  0  0
   92.0420   96.1910  -41.2480 N   0  0  0  0  0  0  0  0  0  0  0  0
   97.4330  104.6240  -40.4470 H   0  0  0  0  0  0  0  0  0  0  0  0
   95.2020  103.6660  -39.8840 H   0  0  0  0  0  0  0  0  0  0  0  0
   94.3570  103.3310  -43.9970 H   0  0  0  0  0  0  0  0  0  0  0  0
   96.5800  104.2840  -44.5720 H   0  0  0  0  0  0  0  0  0  0  0  0
   91.2040  100.7760  -40.3030 H   0  0  0  0  0  0  0  0  0  0  0  0
   90.2120  102.6270  -42.1190 H   0  0  0  0  0  0  0  0  0  0  0  0
   90.6040  102.9620  -40.3570 H   0  0  0  0  0  0  0  0  0  0  0  0
   93.4510  100.4780  -43.4940 H   0  0  0  0  0  0  0  0  0  0  0  0
   93.3460   99.4030  -42.0080 H   0  0  0  0  0  0  0  0  0  0  0  0
   93.2010   98.0020  -43.9370 H   0  0  0  0  0  0  0  0  0  0  0  0
   91.8840   98.9680  -44.6500 H   0  0  0  0  0  0  0  0  0  0  0  0
   89.3230   98.2120  -43.0390 H   0  0  0  0  0  0  0  0  0  0  0  0
   89.9990   98.4530  -41.3740 H   0  0  0  0  0  0  0  0  0  0  0  0
   89.5370  100.6210  -42.3660 H   0  0  0  0  0  0  0  0  0  0  0  0
   90.2260  100.1200  -43.9130 H   0  0  0  0  0  0  0  0  0  0  0  0
   91.8700   93.4990  -43.8970 H   0  0  0  0  0  0  0  0  0  0  0  0
   92.4870   92.8690  -41.6220 H   0  0  0  0  0  0  0  0  0  0  0  0
   92.5940   94.6320  -39.9090 H   0  0  0  0  0  0  0  0  0  0  0  0
  1  2  1  0  0  0  0
  2  3  1  0  0  0  0
  3  4  2  0  0  0  0
  3 27  1  0  0  0  0
  4 28  1  0  0  0  0
  5  8  1  0  0  0  0
  5  4  1  0  0  0  0
  6  5  2  0  0  0  0
  7  6  1  0  0  0  0
  7  2  2  0  0  0  0
  8  9  1  0  0  0  0
  9 10  2  0  0  0  0
 11  9  1  0  0  0  0
 11 31  1  1  0  0  0
 12 11  1  0  0  0  0
 12 33  1  0  0  0  0
 13  8  1  0  0  0  0
 13 12  1  0  0  0  0
 14 13  2  0  0  0  0
 15 11  1  0  0  0  0
 16 15  1  0  0  0  0
 16 35  1  0  0  0  0
 17 18  1  0  0  0  0
 17 16  1  0  0  0  0
 18 21  1  0  0  0  0
 18 19  1  0  0  0  0
 19 39  1  0  0  0  0
 20 19  1  0  0  0  0
 20 40  1  0  0  0  0
 20 15  1  0  0  0  0
 21 26  1  0  0  0  0
 22 23  1  0  0  0  0
 22 21  2  0  0  0  0
 23 24  2  0  0  0  0
 24 43  1  0  0  0  0
 24 25  1  0  0  0  0
 25 44  1  0  0  0  0
 26 25  2  0  0  0  0
 29  6  1  0  0  0  0
 30  7  1  0  0  0  0
 32 12  1  0  0  0  0
 34 16  1  0  0  0  0
 36 17  1  0  0  0  0
 37 17  1  0  0  0  0
 38 19  1  0  0  0  0
 41 20  1  0  0  0  0
 42 23  1  0  0  0  0
M  END
>  <Pose>
1

>  <Score>
-4.22

$$$$
