
 OpenBabel03212208273D

 48 52  0  0  1  0  0  0  0  0999 V2000
   89.1040   97.7290  -46.5450 B   0  0  0  0  0  0  0  0  0  0  0  0
   90.5680   98.9420  -46.6760 C   0  0  0  0  0  0  0  0  0  0  0  0
   90.4080  100.0650  -47.5250 C   0  0  0  0  0  0  0  0  0  0  0  0
   91.4330  100.9540  -47.7060 C   0  0  0  0  0  0  0  0  0  0  0  0
   92.6220  100.7320  -47.0470 C   0  0  0  0  0  0  0  0  0  0  0  0
   92.7660   99.6380  -46.2250 C   0  0  0  0  0  0  0  0  0  0  0  0
   91.7250   98.6990  -46.0130 C   0  0  0  0  0  0  0  0  0  0  0  0
   91.9800   97.6270  -45.0780 C   0  0  0  0  0  0  0  0  0  0  0  0
   91.3650   96.5230  -44.8370 C   0  0  0  0  0  0  0  0  0  0  0  0
   91.6270   95.4430  -43.9040 C   0  0  1  0  0  0  0  0  0  0  0  0
   91.7160   95.5330  -42.5990 N   0  0  0  0  0  0  0  0  0  0  0  0
   91.8670   94.4030  -41.8450 C   0  0  0  0  0  0  0  0  0  0  0  0
   91.9370   93.1480  -42.3670 C   0  0  0  0  0  0  0  0  0  0  0  0
   91.8500   93.0130  -43.7360 C   0  0  0  0  0  0  0  0  0  0  0  0
   91.8790   91.9410  -44.6020 N   0  0  0  0  0  0  0  0  0  0  0  0
   91.7510   92.3770  -45.8440 C   0  0  0  0  0  0  0  0  0  0  0  0
   91.6420   93.7300  -45.7560 N   0  0  0  0  0  0  0  0  0  0  0  0
   91.6980   94.1440  -44.4840 C   0  0  0  0  0  0  0  0  0  0  0  0
   91.7450   91.6180  -47.1000 C   0  0  0  0  0  0  0  0  0  0  0  0
   90.8030   91.7180  -48.0700 C   0  0  0  0  0  0  0  0  0  0  0  0
   90.8870   90.9150  -49.2230 C   0  0  0  0  0  0  0  0  0  0  0  0
   91.9240   90.0230  -49.3740 C   0  0  0  0  0  0  0  0  0  0  0  0
   92.9020   89.9020  -48.3960 C   0  0  0  0  0  0  0  0  0  0  0  0
   92.7830   90.6940  -47.3020 C   0  0  0  0  0  0  0  0  0  0  0  0
   92.0530   90.6090  -44.0960 C   0  0  0  0  0  0  0  0  0  0  0  0
   91.7360   96.7940  -41.9170 C   0  0  0  0  0  0  0  0  0  0  0  0
   93.4920  101.7750  -47.4030 O   0  0  0  0  0  0  0  0  0  0  0  0
   92.6700  102.8410  -47.8320 C   0  0  0  0  0  0  0  0  0  0  0  0
   91.6000  102.1270  -48.4500 O   0  0  0  0  0  0  0  0  0  0  0  0
   89.4560  100.1860  -48.0130 H   0  0  0  0  0  0  0  0  0  0  0  0
   93.7130   99.4800  -45.7120 H   0  0  0  0  0  0  0  0  0  0  0  0
   92.8520   97.8110  -44.4230 H   0  0  0  0  0  0  0  0  0  0  0  0
   90.4550   96.3860  -45.4590 H   0  0  0  0  0  0  0  0  0  0  0  0
   91.9310   94.5270  -40.7670 H   0  0  0  0  0  0  0  0  0  0  0  0
   92.0550   92.2470  -41.7820 H   0  0  0  0  0  0  0  0  0  0  0  0
   89.9790   92.4160  -47.9970 H   0  0  0  0  0  0  0  0  0  0  0  0
   90.1250   91.0130  -49.9770 H   0  0  0  0  0  0  0  0  0  0  0  0
   91.9930   89.4010  -50.2620 H   0  0  0  0  0  0  0  0  0  0  0  0
   93.7250   89.2100  -48.4910 H   0  0  0  0  0  0  0  0  0  0  0  0
   93.5490   90.6040  -46.5260 H   0  0  0  0  0  0  0  0  0  0  0  0
   91.1720   89.9620  -44.1460 H   0  0  0  0  0  0  0  0  0  0  0  0
   92.3390   90.6450  -42.9840 H   0  0  0  0  0  0  0  0  0  0  0  0
   92.9250   90.0630  -44.5210 H   0  0  0  0  0  0  0  0  0  0  0  0
   90.7660   97.1500  -41.5480 H   0  0  0  0  0  0  0  0  0  0  0  0
   92.3030   96.5970  -40.9250 H   0  0  0  0  0  0  0  0  0  0  0  0
   92.4020   97.5480  -42.3790 H   0  0  0  0  0  0  0  0  0  0  0  0
   92.3090  103.3910  -46.9390 H   0  0  0  0  0  0  0  0  0  0  0  0
   93.1850  103.4970  -48.5670 H   0  0  0  0  0  0  0  0  0  0  0  0
  2  1  1  0  0  0  0
  2  7  1  0  0  0  0
  3  2  2  0  0  0  0
  4  3  1  0  0  0  0
  4  5  2  0  0  0  0
  5  6  1  0  0  0  0
  6  7  2  0  0  0  0
  6 31  1  0  0  0  0
  7  8  1  0  0  0  0
  8  9  2  0  0  0  0
  8 32  1  0  0  0  0
 10  9  1  1  0  0  0
 10 11  1  0  0  0  0
 11 26  1  0  0  0  0
 11 12  1  0  0  0  0
 12 34  1  0  0  0  0
 13 12  2  0  0  0  0
 13 35  1  0  0  0  0
 14 13  1  0  0  0  0
 15 25  1  0  0  0  0
 15 14  1  0  0  0  0
 16 17  2  0  0  0  0
 16 15  1  0  0  0  0
 17 18  1  0  0  0  0
 18 10  1  0  0  0  0
 18 14  2  0  0  0  0
 19 16  1  0  0  0  0
 20 36  1  0  0  0  0
 20 19  2  0  0  0  0
 21 20  1  0  0  0  0
 22 21  2  0  0  0  0
 22 23  1  0  0  0  0
 23 24  2  0  0  0  0
 24 19  1  0  0  0  0
 24 40  1  0  0  0  0
 25 42  1  0  0  0  0
 26 44  1  0  0  0  0
 26 45  1  0  0  0  0
 27  5  1  0  0  0  0
 28 27  1  0  0  0  0
 28 47  1  0  0  0  0
 29 28  1  0  0  0  0
 29  4  1  0  0  0  0
 30  3  1  0  0  0  0
 33  9  1  0  0  0  0
 37 21  1  0  0  0  0
 38 22  1  0  0  0  0
 39 23  1  0  0  0  0
 41 25  1  0  0  0  0
 43 25  1  0  0  0  0
 46 26  1  0  0  0  0
 48 28  1  0  0  0  0
M  END
>  <Pose>
1

>  <Score>
-5.71

$$$$
