
 OpenBabel03212208273D

 35 38  0  0  1  0  0  0  0  0999 V2000
   92.5300   97.2770  -41.0550 B   0  0  0  0  0  0  0  0  0  0  0  0
   91.5140   98.4830  -42.1170 C   0  0  0  0  0  0  0  0  0  0  0  0
   90.9490   98.1330  -43.3400 C   0  0  0  0  0  0  0  0  0  0  0  0
   90.2180   99.0500  -44.0780 C   0  0  0  0  0  0  0  0  0  0  0  0
   90.0390  100.3340  -43.6040 C   0  0  0  0  0  0  0  0  0  0  0  0
   90.5910  100.6850  -42.4040 C   0  0  0  0  0  0  0  0  0  0  0  0
   91.3140   99.7720  -41.6790 C   0  0  0  0  0  0  0  0  0  0  0  0
   91.8500  100.2070  -40.4530 O   0  0  0  0  0  0  0  0  0  0  0  0
   90.3030  102.4860  -41.8030 B   0  0  0  0  0  0  0  0  0  0  0  0
   89.6480   98.7300  -45.2910 C   0  0  0  0  0  0  0  0  0  0  0  0
   89.8300   97.4450  -45.7570 C   0  0  0  0  0  0  0  0  0  0  0  0
   90.6180   96.5410  -44.9110 C   0  0  0  0  0  0  0  0  0  0  0  0
   90.7950   95.2450  -45.3960 C   0  0  1  0  0  0  0  0  0  0  0  0
   90.2490   94.8660  -46.6010 C   0  0  0  0  0  0  0  0  0  0  0  0
   90.4340   93.6880  -46.9980 O   0  0  0  0  0  0  0  0  0  0  0  0
   89.5060   95.7470  -47.3800 C   0  0  0  0  0  0  0  0  0  0  0  0
   89.2940   97.0300  -46.9660 C   0  0  0  0  0  0  0  0  0  0  0  0
   88.7830   95.1370  -49.0420 B   0  0  0  0  0  0  0  0  0  0  0  0
   91.8190   94.0080  -44.3410 B   0  0  0  0  0  0  0  0  0  0  0  0
   91.1360   96.9090  -43.7620 O   0  0  0  0  0  0  0  0  0  0  0  0
   88.8820   99.7030  -46.0730 C   0  0  0  0  0  0  0  0  0  0  0  0
   87.6020  100.0610  -45.6930 C   0  0  0  0  0  0  0  0  0  0  0  0
   86.8580  100.9700  -46.4150 C   0  0  0  0  0  0  0  0  0  0  0  0
   87.4180  101.5310  -47.5440 C   0  0  0  0  0  0  0  0  0  0  0  0
   88.6760  101.2070  -47.9540 C   0  0  0  0  0  0  0  0  0  0  0  0
   89.4030  100.2960  -47.2210 C   0  0  0  0  0  0  0  0  0  0  0  0
   90.7350   99.9420  -47.6510 C   0  0  0  0  0  0  0  0  0  0  0  0
   91.7560  100.1840  -46.9510 O   0  0  0  0  0  0  0  0  0  0  0  0
   90.9350   99.3120  -48.8770 O   0  0  0  0  0  0  0  0  0  0  0  0
   89.3110  101.9690  -49.4030 Cl  0  0  0  0  0  0  0  0  0  0  0  0
   86.9070   99.3300  -44.2410 Cl  0  0  0  0  0  0  0  0  0  0  0  0
   89.4560  101.0480  -44.2060 H   0  0  0  0  0  0  0  0  0  0  0  0
   88.7260   97.7520  -47.5290 H   0  0  0  0  0  0  0  0  0  0  0  0
   85.8450  101.2330  -46.0880 H   0  0  0  0  0  0  0  0  0  0  0  0
   86.8400  102.2460  -48.1170 H   0  0  0  0  0  0  0  0  0  0  0  0
  2  7  1  0  0  0  0
  2  1  1  0  0  0  0
  3  2  2  0  0  0  0
  4  5  1  0  0  0  0
  4  3  1  0  0  0  0
  5  6  1  0  0  0  0
  6  9  1  0  0  0  0
  6  7  2  0  0  0  0
  7  8  1  0  0  0  0
 10  4  2  0  0  0  0
 11 10  1  0  0  0  0
 11 12  2  0  0  0  0
 12 20  1  0  0  0  0
 13 12  1  0  0  0  0
 13 19  1  6  0  0  0
 14 13  1  0  0  0  0
 15 14  2  0  0  0  0
 16 17  2  0  0  0  0
 16 14  1  0  0  0  0
 17 11  1  0  0  0  0
 18 16  1  0  0  0  0
 20  3  1  0  0  0  0
 21 22  1  0  0  0  0
 21 10  1  0  0  0  0
 22 31  1  0  0  0  0
 23 34  1  0  0  0  0
 23 22  2  0  0  0  0
 24 23  1  0  0  0  0
 25 24  2  0  0  0  0
 25 26  1  0  0  0  0
 26 21  2  0  0  0  0
 27 26  1  0  0  0  0
 27 28  1  0  0  0  0
 29 27  2  0  0  0  0
 30 25  1  0  0  0  0
 32  5  1  0  0  0  0
 33 17  1  0  0  0  0
 35 24  1  0  0  0  0
M  END
>  <Pose>
1

>  <Score>
-4.52

$$$$
