
 OpenBabel03212208273D

 35 38  0  0  1  0  0  0  0  0999 V2000
   93.1670   97.2050  -39.8370 I   0  0  0  0  0  0  0  0  0  0  0  0
   92.3910   98.2880  -41.4700 C   0  0  0  0  0  0  0  0  0  0  0  0
   91.9760   97.6770  -42.6360 C   0  0  0  0  0  0  0  0  0  0  0  0
   91.4680   98.3810  -43.7070 C   0  0  0  0  0  0  0  0  0  0  0  0
   91.3820   99.7550  -43.5830 C   0  0  0  0  0  0  0  0  0  0  0  0
   91.7970  100.3780  -42.4150 C   0  0  0  0  0  0  0  0  0  0  0  0
   92.3080   99.6600  -41.3410 C   0  0  0  0  0  0  0  0  0  0  0  0
   92.7100  100.3360  -40.1920 O   0  0  0  0  0  0  0  0  0  0  0  0
   91.0470   97.7890  -44.8800 C   0  0  0  0  0  0  0  0  0  0  0  0
   91.1640   96.4030  -44.9330 C   0  0  0  0  0  0  0  0  0  0  0  0
   91.7070   95.6930  -43.7780 C   0  0  0  0  0  0  0  0  0  0  0  0
   91.7970   94.3210  -43.8900 C   0  0  1  0  0  0  0  0  0  0  0  0
   91.4040   93.6330  -45.0190 C   0  0  0  0  0  0  0  0  0  0  0  0
   91.4950   92.3730  -45.1030 O   0  0  0  0  0  0  0  0  0  0  0  0
   90.8910   94.3040  -46.1110 C   0  0  0  0  0  0  0  0  0  0  0  0
   90.7870   95.6790  -46.0300 C   0  0  0  0  0  0  0  0  0  0  0  0
   92.5660   93.2120  -42.2790 I   0  0  0  0  0  0  0  0  0  0  0  0
   92.0720   96.3740  -42.7200 O   0  0  0  0  0  0  0  0  0  0  0  0
   90.5090   98.5310  -46.0150 C   0  0  0  0  0  0  0  0  0  0  0  0
   89.1510   98.4170  -46.2970 C   0  0  0  0  0  0  0  0  0  0  0  0
   88.6010   99.0950  -47.3520 C   0  0  0  0  0  0  0  0  0  0  0  0
   89.4010   99.8940  -48.1390 C   0  0  0  0  0  0  0  0  0  0  0  0
   90.7470  100.0250  -47.8810 C   0  0  0  0  0  0  0  0  0  0  0  0
   91.2790   99.3340  -46.8150 C   0  0  0  0  0  0  0  0  0  0  0  0
   88.2950   97.5720  -45.4700 C   0  0  0  0  0  0  0  0  0  0  0  0
   88.0220   97.8410  -44.2790 O   0  0  0  0  0  0  0  0  0  0  0  0
   87.7390   96.4110  -45.9870 O   0  0  0  0  0  0  0  0  0  0  0  0
   90.9830  100.3050  -44.4240 H   0  0  0  0  0  0  0  0  0  0  0  0
   91.7040  101.4570  -42.3820 H   0  0  0  0  0  0  0  0  0  0  0  0
   90.5890   93.7390  -46.9830 H   0  0  0  0  0  0  0  0  0  0  0  0
   90.3870   96.2180  -46.8760 H   0  0  0  0  0  0  0  0  0  0  0  0
   87.5320   99.0260  -47.6010 H   0  0  0  0  0  0  0  0  0  0  0  0
   88.9480  100.4230  -48.9700 H   0  0  0  0  0  0  0  0  0  0  0  0
   91.3510  100.6700  -48.5290 H   0  0  0  0  0  0  0  0  0  0  0  0
   92.3350   99.4130  -46.5820 H   0  0  0  0  0  0  0  0  0  0  0  0
  2  7  1  0  0  0  0
  2  1  1  0  0  0  0
  3  2  2  0  0  0  0
  4  5  1  0  0  0  0
  4  3  1  0  0  0  0
  5  6  1  0  0  0  0
  6 29  1  0  0  0  0
  6  7  2  0  0  0  0
  7  8  1  0  0  0  0
  9  4  2  0  0  0  0
 10  9  1  0  0  0  0
 10 11  2  0  0  0  0
 11 18  1  0  0  0  0
 12 11  1  0  0  0  0
 12 17  1  6  0  0  0
 13 12  1  0  0  0  0
 14 13  2  0  0  0  0
 15 16  2  0  0  0  0
 15 13  1  0  0  0  0
 16 10  1  0  0  0  0
 18  3  1  0  0  0  0
 19  9  1  0  0  0  0
 20 19  1  0  0  0  0
 20 25  1  0  0  0  0
 21 20  2  0  0  0  0
 22 23  2  0  0  0  0
 22 21  1  0  0  0  0
 23 24  1  0  0  0  0
 24 35  1  0  0  0  0
 24 19  2  0  0  0  0
 25 26  1  0  0  0  0
 27 25  2  0  0  0  0
 28  5  1  0  0  0  0
 30 15  1  0  0  0  0
 31 16  1  0  0  0  0
 32 21  1  0  0  0  0
 33 22  1  0  0  0  0
 34 23  1  0  0  0  0
M  END
>  <Pose>
1

>  <Score>
-4.21

$$$$
