
 OpenBabel03212208273D

 38 41  0  0  0  0  0  0  0  0999 V2000
   88.9770   96.8990  -47.2180 S   0  0  0  0  0  0  0  0  0  0  0  0
   89.2370   95.6240  -47.9710 O   0  0  0  0  0  0  0  0  0  0  0  0
   87.9480   96.6350  -46.1460 O   0  0  0  0  0  0  0  0  0  0  0  0
   88.4250   98.0450  -48.3170 O   0  0  0  0  0  0  0  0  0  0  0  0
   90.4710   97.3730  -46.5280 O   0  0  0  0  0  0  0  0  0  0  0  0
   90.8630   96.9160  -45.2750 C   0  0  0  0  0  0  0  0  0  0  0  0
   91.2000   95.5780  -45.0290 C   0  0  0  0  0  0  0  0  0  0  0  0
   91.5290   95.5380  -43.6930 C   0  0  0  0  0  0  0  0  0  0  0  0
   91.3950   96.7710  -43.1830 N   0  0  0  0  0  0  0  0  0  0  0  0
   90.9800   97.6630  -44.1330 C   0  0  0  0  0  0  0  0  0  0  0  0
   90.7000   99.0750  -43.8970 C   0  0  0  0  0  0  0  0  0  0  0  0
   89.5830   99.6930  -44.3690 N   0  0  0  0  0  0  0  0  0  0  0  0
   89.5770  100.9900  -44.0260 C   0  0  0  0  0  0  0  0  0  0  0  0
   90.7160  101.2660  -43.3030 C   0  0  0  0  0  0  0  0  0  0  0  0
   91.3950  100.0440  -43.2440 C   0  0  0  0  0  0  0  0  0  0  0  0
   92.6100   99.9040  -42.5990 O   0  0  0  0  0  0  0  0  0  0  0  0
   92.7680  100.0530  -40.9070 S   0  0  0  0  0  0  0  0  0  0  0  0
   92.8570   98.7030  -40.2560 O   0  0  0  0  0  0  0  0  0  0  0  0
   91.5940  100.7670  -40.3000 O   0  0  0  0  0  0  0  0  0  0  0  0
   94.1330  100.9960  -40.5490 O   0  0  0  0  0  0  0  0  0  0  0  0
   90.9880  102.5260  -42.8100 C   0  0  0  0  0  0  0  0  0  0  0  0
   90.1070  103.5730  -43.0320 C   0  0  0  0  0  0  0  0  0  0  0  0
   88.9560  103.3110  -43.7580 C   0  0  0  0  0  0  0  0  0  0  0  0
   88.7010  102.0450  -44.2420 C   0  0  0  0  0  0  0  0  0  0  0  0
   87.0980  101.7540  -45.2320 B   0  0  0  0  0  0  0  0  0  0  0  0
   90.4640  105.3310  -42.3580 B   0  0  0  0  0  0  0  0  0  0  0  0
   91.9150   94.3200  -43.1390 C   0  0  0  0  0  0  0  0  0  0  0  0
   91.9570   93.2050  -43.9280 C   0  0  0  0  0  0  0  0  0  0  0  0
   91.6240   93.2390  -45.2860 C   0  0  0  0  0  0  0  0  0  0  0  0
   91.2370   94.4640  -45.8390 C   0  0  0  0  0  0  0  0  0  0  0  0
   91.7020   91.6550  -46.3290 B   0  0  0  0  0  0  0  0  0  0  0  0
   92.3740   94.2360  -41.3030 B   0  0  0  0  0  0  0  0  0  0  0  0
   91.5820   97.0400  -42.1760 H   0  0  0  0  0  0  0  0  0  0  0  0
   88.8170   99.2500  -44.9230 H   0  0  0  0  0  0  0  0  0  0  0  0
   91.8860  102.6850  -42.2570 H   0  0  0  0  0  0  0  0  0  0  0  0
   88.2580  104.1410  -43.9330 H   0  0  0  0  0  0  0  0  0  0  0  0
   92.2520   92.2410  -43.5350 H   0  0  0  0  0  0  0  0  0  0  0  0
   90.9710   94.5280  -46.8880 H   0  0  0  0  0  0  0  0  0  0  0  0
  1  5  1  0  0  0  0
  1  3  1  0  0  0  0
  2  1  1  0  0  0  0
  4  1  1  0  0  0  0
  5  6  1  0  0  0  0
  6  7  1  0  0  0  0
  6 10  2  0  0  0  0
  7  8  1  0  0  0  0
  8  9  1  0  0  0  0
  8 27  2  0  0  0  0
  9 33  1  0  0  0  0
 10 11  1  0  0  0  0
 10  9  1  0  0  0  0
 11 15  2  0  0  0  0
 12 13  1  0  0  0  0
 12 11  1  0  0  0  0
 13 14  1  0  0  0  0
 14 15  1  0  0  0  0
 14 21  2  0  0  0  0
 15 16  1  0  0  0  0
 16 17  1  0  0  0  0
 17 20  1  0  0  0  0
 17 19  1  0  0  0  0
 17 18  1  0  0  0  0
 21 35  1  0  0  0  0
 22 21  1  0  0  0  0
 22 26  1  0  0  0  0
 23 22  2  0  0  0  0
 24 13  2  0  0  0  0
 24 23  1  0  0  0  0
 25 24  1  0  0  0  0
 27 32  1  0  0  0  0
 28 37  1  0  0  0  0
 28 27  1  0  0  0  0
 29 28  2  0  0  0  0
 30 29  1  0  0  0  0
 30  7  2  0  0  0  0
 31 29  1  0  0  0  0
 34 12  1  0  0  0  0
 36 23  1  0  0  0  0
 38 30  1  0  0  0  0
M  END
>  <Pose>
1

>  <Score>
-6.41

$$$$
