
 OpenBabel03212208273D

 34 37  0  0  1  0  0  0  0  0999 V2000
   88.9600   96.1260  -48.9950 P   0  0  1  0  0  0  0  0  0  0  0  0
   89.7570   97.1010  -49.8330 O   0  0  0  0  0  0  0  0  0  0  0  0
   89.9260   95.4490  -47.7610 O   0  0  0  0  0  0  0  0  0  0  0  0
   89.4570   95.9810  -46.5620 C   0  0  2  0  0  0  0  0  0  0  0  0
   89.1450   97.4550  -46.8520 C   0  0  2  0  0  0  0  0  0  0  0  0
   89.4560   98.0460  -45.6520 O   0  0  0  0  0  0  0  0  0  0  0  0
   90.7580   97.5890  -45.4500 C   0  0  2  0  0  0  0  0  0  0  0  0
   90.5440   96.0780  -45.5130 C   0  0  2  0  0  0  0  0  0  0  0  0
   91.6860   95.3950  -45.8470 O   0  0  0  0  0  0  0  0  0  0  0  0
   91.2870   98.0020  -44.1740 N   0  0  0  0  0  0  0  0  0  0  0  0
   91.5480   97.1520  -43.1740 C   0  0  0  0  0  0  0  0  0  0  0  0
   91.4100   95.8010  -43.0730 N   0  0  0  0  0  0  0  0  0  0  0  0
   91.7290   95.1160  -41.9780 C   0  0  0  0  0  0  0  0  0  0  0  0
   92.2090   95.7890  -40.9170 N   0  0  0  0  0  0  0  0  0  0  0  0
   92.3710   97.1280  -40.9500 C   0  0  0  0  0  0  0  0  0  0  0  0
   92.0420   97.8410  -42.0840 C   0  0  0  0  0  0  0  0  0  0  0  0
   92.0740   99.1310  -42.4480 N   0  0  0  0  0  0  0  0  0  0  0  0
   91.6140   99.2250  -43.7180 C   0  0  0  0  0  0  0  0  0  0  0  0
   91.4440  100.8370  -44.7390 B   0  0  0  0  0  0  0  0  0  0  0  0
   92.8690   97.8290  -39.8550 O   0  0  0  0  0  0  0  0  0  0  0  0
   91.5660   93.7010  -41.9200 N   0  0  0  0  0  0  0  0  0  0  0  0
   87.7240   97.5540  -47.2620 C   0  0  0  0  0  0  0  0  0  0  0  0
   87.5400   96.7700  -48.4060 O   0  0  0  0  0  0  0  0  0  0  0  0
   88.5640   94.8250  -50.0340 O   0  0  0  0  0  0  0  0  0  0  0  0
   88.5610   95.4490  -46.1990 H   0  0  0  0  0  0  0  0  0  0  0  0
   89.8310   97.8540  -47.6210 H   0  0  0  0  0  0  0  0  0  0  0  0
   91.4310   97.8340  -46.3020 H   0  0  0  0  0  0  0  0  0  0  0  0
   90.1380   95.7550  -44.5110 H   0  0  0  0  0  0  0  0  0  0  0  0
   92.0450   95.7370  -46.7270 H   0  0  0  0  0  0  0  0  0  0  0  0
   92.1690   98.1410  -39.1660 H   0  0  0  0  0  0  0  0  0  0  0  0
   90.7870   93.2980  -42.4840 H   0  0  0  0  0  0  0  0  0  0  0  0
   92.1920   93.0850  -41.3430 H   0  0  0  0  0  0  0  0  0  0  0  0
   87.0840   97.0850  -46.4720 H   0  0  0  0  0  0  0  0  0  0  0  0
   87.4290   98.6070  -47.4240 H   0  0  0  0  0  0  0  0  0  0  0  0
  1 24  2  6  0  0  0
  1 23  1  0  0  0  0
  1  3  1  0  0  0  0
  2  1  1  0  0  0  0
  3  4  1  0  0  0  0
  4 25  1  1  0  0  0
  4  8  1  0  0  0  0
  5 26  1  6  0  0  0
  5  4  1  0  0  0  0
  5  6  1  0  0  0  0
  6  7  1  0  0  0  0
  7 27  1  6  0  0  0
  7 10  1  0  0  0  0
  8  7  1  0  0  0  0
  8 28  1  1  0  0  0
  9  8  1  0  0  0  0
 10 18  1  0  0  0  0
 10 11  1  0  0  0  0
 11 12  1  0  0  0  0
 11 16  2  0  0  0  0
 12 13  2  0  0  0  0
 13 21  1  0  0  0  0
 13 14  1  0  0  0  0
 15 14  2  0  0  0  0
 15 20  1  0  0  0  0
 16 15  1  0  0  0  0
 17 16  1  0  0  0  0
 18 17  2  0  0  0  0
 19 18  1  0  0  0  0
 20 30  1  0  0  0  0
 21 32  1  0  0  0  0
 22  5  1  0  0  0  0
 22 33  1  0  0  0  0
 23 22  1  0  0  0  0
 29  9  1  0  0  0  0
 31 21  1  0  0  0  0
 34 22  1  0  0  0  0
M  END
>  <Pose>
1

>  <Score>
-5.29

$$$$
