
 OpenBabel03212208273D

 52 55  0  0  1  0  0  0  0  0999 V2000
   89.9480  100.8550  -42.6220 S   0  0  0  0  0  0  0  0  0  0  0  0
   91.0730   99.9700  -41.5450 C   0  0  1  0  0  0  0  0  0  0  0  0
   91.5060   98.7890  -42.2220 N   0  0  0  0  0  0  0  0  0  0  0  0
   90.9210   98.1180  -43.3420 C   0  0  0  0  0  0  0  0  0  0  0  0
   89.7130   98.4100  -43.7080 C   0  0  0  0  0  0  0  0  0  0  0  0
   88.8340   99.4550  -43.0070 C   0  0  0  0  0  0  0  0  0  0  0  0
   88.9980   97.8260  -44.8140 C   0  0  0  0  0  0  0  0  0  0  0  0
   89.6070   97.2990  -45.9030 O   0  0  0  0  0  0  0  0  0  0  0  0
   88.9340   96.5510  -46.8770 C   0  0  0  0  0  0  0  0  0  0  0  0
   89.4400   95.4600  -47.2020 O   0  0  0  0  0  0  0  0  0  0  0  0
   87.6840   97.1110  -47.4400 C   0  0  0  0  0  0  0  0  0  0  0  0
   91.7840   97.1000  -44.0100 C   0  0  0  0  0  0  0  0  0  0  0  0
   92.6240   97.3060  -44.8590 O   0  0  0  0  0  0  0  0  0  0  0  0
   91.6350   95.7490  -43.6430 O   0  0  0  0  0  0  0  0  0  0  0  0
   92.5750   98.8160  -41.2920 C   0  0  0  0  0  0  0  0  0  0  0  0
   93.3200   98.1180  -40.5940 O   0  0  0  0  0  0  0  0  0  0  0  0
   92.4980  100.3240  -41.4630 C   0  0  1  0  0  0  0  0  0  0  0  0
   93.1900  100.6560  -42.6660 N   0  0  0  0  0  0  0  0  0  0  0  0
   92.7850  101.7900  -43.4110 C   0  0  0  0  0  0  0  0  0  0  0  0
   92.2900  102.7680  -42.7880 O   0  0  0  0  0  0  0  0  0  0  0  0
   92.9240  101.8560  -44.8690 C   0  0  0  0  0  0  0  0  0  0  0  0
   93.7490  102.5530  -45.5870 O   0  0  0  0  0  0  0  0  0  0  0  0
   93.5840  102.3590  -46.8560 C   0  0  0  0  0  0  0  0  0  0  0  0
   92.5400  101.4390  -47.0040 C   0  0  0  0  0  0  0  0  0  0  0  0
   92.1340  101.1320  -45.7330 C   0  0  0  0  0  0  0  0  0  0  0  0
   94.3430  102.9790  -48.0030 C   0  0  0  0  0  0  0  0  0  0  0  0
   93.8150  102.5610  -49.2350 O   0  0  0  0  0  0  0  0  0  0  0  0
   94.1680  101.4340  -49.9210 C   0  0  0  0  0  0  0  0  0  0  0  0
   93.4210  100.2600  -49.9480 C   0  0  0  0  0  0  0  0  0  0  0  0
   93.8710   99.1820  -50.6760 C   0  0  0  0  0  0  0  0  0  0  0  0
   95.0420   99.1900  -51.3970 C   0  0  0  0  0  0  0  0  0  0  0  0
   95.7910  100.3540  -51.3760 C   0  0  0  0  0  0  0  0  0  0  0  0
   95.3430  101.4460  -50.6440 C   0  0  0  0  0  0  0  0  0  0  0  0
   95.6150   97.6640  -52.3880 B   0  0  0  0  0  0  0  0  0  0  0  0
   90.6690   99.7400  -40.5340 H   0  0  0  0  0  0  0  0  0  0  0  0
   88.0060   99.7810  -43.6250 H   0  0  0  0  0  0  0  0  0  0  0  0
   88.4950   98.9700  -42.0760 H   0  0  0  0  0  0  0  0  0  0  0  0
   88.3030   96.9810  -44.3950 H   0  0  0  0  0  0  0  0  0  0  0  0
   88.2010   98.5920  -45.1830 H   0  0  0  0  0  0  0  0  0  0  0  0
   87.6720   98.2140  -47.3170 H   0  0  0  0  0  0  0  0  0  0  0  0
   86.7860   96.7050  -46.8840 H   0  0  0  0  0  0  0  0  0  0  0  0
   87.5430   96.8620  -48.5030 H   0  0  0  0  0  0  0  0  0  0  0  0
   92.8460  100.8800  -40.5760 H   0  0  0  0  0  0  0  0  0  0  0  0
   93.9990  100.1020  -43.0460 H   0  0  0  0  0  0  0  0  0  0  0  0
   92.1780  101.0830  -47.9640 H   0  0  0  0  0  0  0  0  0  0  0  0
   91.3370  100.4420  -45.4890 H   0  0  0  0  0  0  0  0  0  0  0  0
   95.4290  102.7630  -47.9070 H   0  0  0  0  0  0  0  0  0  0  0  0
   94.2400  104.0830  -47.9520 H   0  0  0  0  0  0  0  0  0  0  0  0
   92.5060  100.2200  -49.3950 H   0  0  0  0  0  0  0  0  0  0  0  0
   93.2740   98.2870  -50.6790 H   0  0  0  0  0  0  0  0  0  0  0  0
   96.7130  100.3680  -51.9400 H   0  0  0  0  0  0  0  0  0  0  0  0
   95.9970  102.3230  -50.6830 H   0  0  0  0  0  0  0  0  0  0  0  0
  1  2  1  0  0  0  0
  2 17  1  0  0  0  0
  2 35  1  1  0  0  0
  3  2  1  0  0  0  0
  3 15  1  0  0  0  0
  4  3  1  0  0  0  0
  5  4  2  0  0  0  0
  5  6  1  0  0  0  0
  6  1  1  0  0  0  0
  6 37  1  0  0  0  0
  7 38  1  0  0  0  0
  7  5  1  0  0  0  0
  8  7  1  0  0  0  0
  9  8  1  0  0  0  0
 10  9  2  0  0  0  0
 11 40  1  0  0  0  0
 11 41  1  0  0  0  0
 11  9  1  0  0  0  0
 12 14  1  0  0  0  0
 12  4  1  0  0  0  0
 13 12  2  0  0  0  0
 15 16  2  0  0  0  0
 17 15  1  0  0  0  0
 17 43  1  1  0  0  0
 18 17  1  0  0  0  0
 19 20  2  0  0  0  0
 19 18  1  0  0  0  0
 21 19  1  0  0  0  0
 22 21  1  0  0  0  0
 23 22  1  0  0  0  0
 24 23  2  0  0  0  0
 24 25  1  0  0  0  0
 25 46  1  0  0  0  0
 25 21  2  0  0  0  0
 26 48  1  0  0  0  0
 26 47  1  0  0  0  0
 26 23  1  0  0  0  0
 27 26  1  0  0  0  0
 28 27  1  0  0  0  0
 29 28  1  0  0  0  0
 29 49  1  0  0  0  0
 30 29  2  0  0  0  0
 31 32  2  0  0  0  0
 31 30  1  0  0  0  0
 32 33  1  0  0  0  0
 33 28  2  0  0  0  0
 34 31  1  0  0  0  0
 36  6  1  0  0  0  0
 39  7  1  0  0  0  0
 42 11  1  0  0  0  0
 44 18  1  0  0  0  0
 45 24  1  0  0  0  0
 50 30  1  0  0  0  0
 51 32  1  0  0  0  0
 52 33  1  0  0  0  0
M  END
>  <Pose>
1

>  <Score>
-5.09

$$$$
