
 OpenBabel03212208273D

 33 36  0  0  1  0  0  0  0  0999 V2000
   90.7050  100.0580  -48.0590 P   0  0  2  0  0  0  0  0  0  0  0  0
   90.8130   99.5000  -49.4800 O   0  0  0  0  0  0  0  0  0  0  0  0
   92.1090   99.6320  -47.2420 O   0  0  0  0  0  0  0  0  0  0  0  0
   91.8420   99.1170  -46.0000 C   0  0  2  0  0  0  0  0  0  0  0  0
   90.6010   99.8530  -45.4780 C   0  0  2  0  0  0  0  0  0  0  0  0
   90.6960   99.8450  -44.1180 O   0  0  0  0  0  0  0  0  0  0  0  0
   92.0050   99.7320  -43.7420 C   0  0  2  0  0  0  0  0  0  0  0  0
   92.8480   99.4930  -44.9460 C   0  0  2  0  0  0  0  0  0  0  0  0
   93.5750  100.5970  -45.3470 O   0  0  0  0  0  0  0  0  0  0  0  0
   92.0960   98.6520  -42.7680 N   0  0  0  0  0  0  0  0  0  0  0  0
   91.9270   97.3340  -43.0280 C   0  0  0  0  0  0  0  0  0  0  0  0
   91.6490   96.6910  -44.1750 N   0  0  0  0  0  0  0  0  0  0  0  0
   91.5300   95.3540  -44.1680 C   0  0  0  0  0  0  0  0  0  0  0  0
   91.6890   94.6730  -43.0180 N   0  0  0  0  0  0  0  0  0  0  0  0
   91.9680   95.2470  -41.8380 C   0  0  0  0  0  0  0  0  0  0  0  0
   92.0900   96.6340  -41.8510 C   0  0  0  0  0  0  0  0  0  0  0  0
   92.3540   97.5120  -40.8870 N   0  0  0  0  0  0  0  0  0  0  0  0
   92.3550   98.7320  -41.4530 C   0  0  0  0  0  0  0  0  0  0  0  0
   92.6780  100.4150  -40.5670 B   0  0  0  0  0  0  0  0  0  0  0  0
   92.1390   94.5400  -40.6180 N   0  0  0  0  0  0  0  0  0  0  0  0
   89.4210   99.1290  -46.0420 C   0  0  0  0  0  0  0  0  0  0  0  0
   89.3170   99.4290  -47.3790 O   0  0  0  0  0  0  0  0  0  0  0  0
   90.6200  101.7570  -48.2350 O   0  0  0  0  0  0  0  0  0  0  0  0
   91.6800   98.0350  -45.9770 H   0  0  0  0  0  0  0  0  0  0  0  0
   90.5950  100.9070  -45.8310 H   0  0  0  0  0  0  0  0  0  0  0  0
   92.3550  100.7000  -43.2810 H   0  0  0  0  0  0  0  0  0  0  0  0
   93.5650   98.6660  -44.7590 H   0  0  0  0  0  0  0  0  0  0  0  0
   94.2510  100.8780  -44.7090 H   0  0  0  0  0  0  0  0  0  0  0  0
   91.3010   94.8040  -45.0980 H   0  0  0  0  0  0  0  0  0  0  0  0
   92.6370   95.0370  -39.8220 H   0  0  0  0  0  0  0  0  0  0  0  0
   91.8130   93.5830  -40.4510 H   0  0  0  0  0  0  0  0  0  0  0  0
   89.6460   98.0240  -45.9770 H   0  0  0  0  0  0  0  0  0  0  0  0
   88.4910   99.2690  -45.4710 H   0  0  0  0  0  0  0  0  0  0  0  0
  1  2  2  6  0  0  0
  1 22  1  0  0  0  0
  1  3  1  0  0  0  0
  3  4  1  0  0  0  0
  4 24  1  6  0  0  0
  4  5  1  0  0  0  0
  4  8  1  0  0  0  0
  5 25  1  6  0  0  0
  5  6  1  0  0  0  0
  6  7  1  0  0  0  0
  7 26  1  1  0  0  0
  7 10  1  0  0  0  0
  8 27  1  1  0  0  0
  8  7  1  0  0  0  0
  9  8  1  0  0  0  0
  9 28  1  0  0  0  0
 10 18  1  0  0  0  0
 11 10  1  0  0  0  0
 11 16  2  0  0  0  0
 12 13  2  0  0  0  0
 12 11  1  0  0  0  0
 13 14  1  0  0  0  0
 14 15  2  0  0  0  0
 15 20  1  0  0  0  0
 16 15  1  0  0  0  0
 16 17  1  0  0  0  0
 18 17  2  0  0  0  0
 18 19  1  0  0  0  0
 20 31  1  0  0  0  0
 20 30  1  0  0  0  0
 21 32  1  0  0  0  0
 21  5  1  0  0  0  0
 21 33  1  0  0  0  0
 22 21  1  0  0  0  0
 23  1  1  0  0  0  0
 29 13  1  0  0  0  0
M  END
>  <Pose>
1

>  <Score>
-5.20

$$$$
