
 OpenBabel03212208273D

 47 50  0  0  1  0  0  0  0  0999 V2000
   92.3220   99.3380  -41.9960 S   0  0  0  0  0  0  0  0  0  0  0  0
   92.8390   98.2470  -41.0800 O   0  0  0  0  0  0  0  0  0  0  0  0
   91.4540  100.2670  -41.1840 O   0  0  0  0  0  0  0  0  0  0  0  0
   93.6900  100.1550  -42.6300 N   0  0  0  0  0  0  0  0  0  0  0  0
   91.4080   98.6040  -43.2790 C   0  0  0  0  0  0  0  0  0  0  0  0
   91.9070   97.4950  -43.9230 C   0  0  0  0  0  0  0  0  0  0  0  0
   91.2150   96.8700  -44.9560 C   0  0  0  0  0  0  0  0  0  0  0  0
   89.9970   97.4000  -45.3210 C   0  0  0  0  0  0  0  0  0  0  0  0
   89.4840   98.5230  -44.6730 C   0  0  0  0  0  0  0  0  0  0  0  0
   90.1830   99.1280  -43.6520 C   0  0  0  0  0  0  0  0  0  0  0  0
   88.9940   96.6050  -46.7180 B   0  0  0  0  0  0  0  0  0  0  0  0
   91.7550   95.7050  -45.6260 C   0  0  0  0  0  0  0  0  0  0  0  0
   92.3980   95.8550  -46.6940 O   0  0  0  0  0  0  0  0  0  0  0  0
   91.5660   94.3980  -45.0860 N   0  0  0  0  0  0  0  0  0  0  0  0
   91.0650   93.3230  -45.9160 C   0  0  0  0  0  0  0  0  0  0  0  0
   91.7450   92.0150  -45.6600 C   0  0  2  0  0  0  0  0  0  0  0  0
   93.0250   92.3250  -44.8800 C   0  0  0  0  0  0  0  0  0  0  0  0
   92.5660   92.8010  -43.5190 C   0  0  0  0  0  0  0  0  0  0  0  0
   91.8670   94.1220  -43.7060 C   0  0  0  0  0  0  0  0  0  0  0  0
   92.0560   91.2560  -46.9130 C   0  0  0  0  0  0  0  0  0  0  0  0
   91.5100   91.4640  -48.1400 N   0  0  0  0  0  0  0  0  0  0  0  0
   92.0210   90.6040  -49.0260 C   0  0  0  0  0  0  0  0  0  0  0  0
   92.9080   89.8490  -48.3110 N   0  0  0  0  0  0  0  0  0  0  0  0
   92.9240   90.2420  -47.0530 N   0  0  0  0  0  0  0  0  0  0  0  0
   91.4510   90.7920  -50.3920 C   0  0  0  0  0  0  0  0  0  0  0  0
   90.7710   92.1200  -50.2630 C   0  0  0  0  0  0  0  0  0  0  0  0
   90.5400   92.3330  -48.7820 C   0  0  0  0  0  0  0  0  0  0  0  0
   94.2140   99.5610  -43.3170 H   0  0  0  0  0  0  0  0  0  0  0  0
   94.3290  100.4520  -41.8510 H   0  0  0  0  0  0  0  0  0  0  0  0
   92.8850   97.1150  -43.5910 H   0  0  0  0  0  0  0  0  0  0  0  0
   88.5230   98.8960  -45.0000 H   0  0  0  0  0  0  0  0  0  0  0  0
   89.8040   99.9940  -43.1400 H   0  0  0  0  0  0  0  0  0  0  0  0
   91.0320   93.5910  -46.9890 H   0  0  0  0  0  0  0  0  0  0  0  0
   89.9860   93.1870  -45.6180 H   0  0  0  0  0  0  0  0  0  0  0  0
   91.1720   91.3380  -44.9940 H   0  0  0  0  0  0  0  0  0  0  0  0
   93.6610   91.4260  -44.8190 H   0  0  0  0  0  0  0  0  0  0  0  0
   93.5760   93.1410  -45.3780 H   0  0  0  0  0  0  0  0  0  0  0  0
   91.8740   92.0230  -43.1010 H   0  0  0  0  0  0  0  0  0  0  0  0
   93.4530   92.8730  -42.8590 H   0  0  0  0  0  0  0  0  0  0  0  0
   92.5930   94.9090  -43.3550 H   0  0  0  0  0  0  0  0  0  0  0  0
   90.9650   94.1760  -43.0520 H   0  0  0  0  0  0  0  0  0  0  0  0
   92.2570   90.8780  -51.1620 H   0  0  0  0  0  0  0  0  0  0  0  0
   90.7530   89.9580  -50.6080 H   0  0  0  0  0  0  0  0  0  0  0  0
   91.3810   92.9660  -50.6830 H   0  0  0  0  0  0  0  0  0  0  0  0
   89.8070   92.0850  -50.8230 H   0  0  0  0  0  0  0  0  0  0  0  0
   89.4960   92.0220  -48.5730 H   0  0  0  0  0  0  0  0  0  0  0  0
   90.6430   93.3820  -48.5060 H   0  0  0  0  0  0  0  0  0  0  0  0
  1  3  2  0  0  0  0
  1  2  2  0  0  0  0
  4  1  1  0  0  0  0
  4 29  1  0  0  0  0
  5  1  1  0  0  0  0
  6 30  1  0  0  0  0
  6  5  2  0  0  0  0
  7  6  1  0  0  0  0
  8  7  2  0  0  0  0
  8  9  1  0  0  0  0
  9 10  2  0  0  0  0
 10  5  1  0  0  0  0
 10 32  1  0  0  0  0
 11  8  1  0  0  0  0
 12 14  1  0  0  0  0
 12  7  1  0  0  0  0
 13 12  2  0  0  0  0
 14 19  1  0  0  0  0
 15 16  1  0  0  0  0
 15 34  1  0  0  0  0
 15 14  1  0  0  0  0
 16 35  1  1  0  0  0
 16 17  1  0  0  0  0
 17 36  1  0  0  0  0
 17 18  1  0  0  0  0
 18 38  1  0  0  0  0
 18 39  1  0  0  0  0
 19 18  1  0  0  0  0
 19 40  1  0  0  0  0
 19 41  1  0  0  0  0
 20 16  1  0  0  0  0
 21 20  1  0  0  0  0
 22 23  2  0  0  0  0
 22 21  1  0  0  0  0
 23 24  1  0  0  0  0
 24 20  2  0  0  0  0
 25 26  1  0  0  0  0
 25 22  1  0  0  0  0
 26 27  1  0  0  0  0
 27 46  1  0  0  0  0
 27 47  1  0  0  0  0
 27 21  1  0  0  0  0
 28  4  1  0  0  0  0
 31  9  1  0  0  0  0
 33 15  1  0  0  0  0
 37 17  1  0  0  0  0
 42 25  1  0  0  0  0
 43 25  1  0  0  0  0
 44 26  1  0  0  0  0
 45 26  1  0  0  0  0
M  END
>  <Pose>
1

>  <Score>
-5.58

$$$$
