
 OpenBabel03212208273D

 60 64  0  0  0  0  0  0  0  0999 V2000
   90.8280   95.2130  -45.3030 S   0  0  0  0  0  0  0  0  0  0  0  0
   89.6840   94.3560  -44.9190 O   0  0  0  0  0  0  0  0  0  0  0  0
   90.3090   96.0620  -46.4690 O   0  0  0  0  0  0  0  0  0  0  0  0
   92.1570   94.3420  -45.9640 N   0  0  0  0  0  0  0  0  0  0  0  0
   92.2360   94.3860  -47.3830 C   0  0  0  0  0  0  0  0  0  0  0  0
   91.4370   93.2960  -48.0860 C   0  0  0  0  0  0  0  0  0  0  0  0
   91.7910   92.0340  -47.5290 N   0  0  0  0  0  0  0  0  0  0  0  0
   91.4960   91.9660  -46.0610 C   0  0  0  0  0  0  0  0  0  0  0  0
   92.3110   93.0360  -45.4180 C   0  0  0  0  0  0  0  0  0  0  0  0
   92.3410   90.9010  -48.0940 C   0  0  0  0  0  0  0  0  0  0  0  0
   93.4280   90.4550  -47.4950 O   0  0  0  0  0  0  0  0  0  0  0  0
   91.9430   90.1150  -49.2240 C   0  0  0  0  0  0  0  0  0  0  0  0
   91.5960   88.7510  -49.0510 N   0  0  0  0  0  0  0  0  0  0  0  0
   92.4170   87.7150  -48.8860 N   0  0  0  0  0  0  0  0  0  0  0  0
   91.7260   86.5810  -48.7130 C   0  0  0  0  0  0  0  0  0  0  0  0
   90.4000   86.9340  -48.7730 C   0  0  0  0  0  0  0  0  0  0  0  0
   90.3240   88.2780  -48.9830 C   0  0  0  0  0  0  0  0  0  0  0  0
   88.9030   85.7380  -48.5940 B   0  0  0  0  0  0  0  0  0  0  0  0
   91.3280   96.3530  -44.0930 C   0  0  0  0  0  0  0  0  0  0  0  0
   91.5520   95.9770  -42.7610 C   0  0  0  0  0  0  0  0  0  0  0  0
   91.9460   96.8890  -41.8040 C   0  0  0  0  0  0  0  0  0  0  0  0
   92.1390   98.2180  -42.1220 C   0  0  0  0  0  0  0  0  0  0  0  0
   91.9210   98.5930  -43.4190 C   0  0  0  0  0  0  0  0  0  0  0  0
   91.5240   97.6630  -44.3740 C   0  0  0  0  0  0  0  0  0  0  0  0
   91.3180   98.2170  -45.7220 C   0  0  0  0  0  0  0  0  0  0  0  0
   92.4940   99.0750  -46.1390 C   0  0  0  0  0  0  0  0  0  0  0  0
   92.9160   99.9100  -45.0800 N   0  0  0  0  0  0  0  0  0  0  0  0
   92.0880   99.9780  -43.9170 C   0  0  0  0  0  0  0  0  0  0  0  0
   94.3140   99.9940  -44.8450 C   0  0  0  0  0  0  0  0  0  0  0  0
   92.5410   99.1560  -41.1490 O   0  0  0  0  0  0  0  0  0  0  0  0
   93.8870   99.0950  -40.6550 C   0  0  0  0  0  0  0  0  0  0  0  0
   92.0780   96.2090  -40.6130 O   0  0  0  0  0  0  0  0  0  0  0  0
   91.6350   94.8930  -40.7900 C   0  0  0  0  0  0  0  0  0  0  0  0
   91.4320   94.7160  -42.1840 O   0  0  0  0  0  0  0  0  0  0  0  0
   91.8510   95.3580  -47.7480 H   0  0  0  0  0  0  0  0  0  0  0  0
   93.2890   94.2650  -47.7040 H   0  0  0  0  0  0  0  0  0  0  0  0
   91.5760   93.4490  -49.1450 H   0  0  0  0  0  0  0  0  0  0  0  0
   90.3420   93.4310  -47.8930 H   0  0  0  0  0  0  0  0  0  0  0  0
   91.8180   90.9890  -45.6590 H   0  0  0  0  0  0  0  0  0  0  0  0
   90.4320   92.1060  -45.8750 H   0  0  0  0  0  0  0  0  0  0  0  0
   92.1260   93.0340  -44.3280 H   0  0  0  0  0  0  0  0  0  0  0  0
   93.3910   92.7480  -45.5350 H   0  0  0  0  0  0  0  0  0  0  0  0
   92.7530   90.1290  -50.0460 H   0  0  0  0  0  0  0  0  0  0  0  0
   91.0930   90.6660  -49.7750 H   0  0  0  0  0  0  0  0  0  0  0  0
   92.1450   85.5810  -48.5550 H   0  0  0  0  0  0  0  0  0  0  0  0
   89.4200   88.8450  -49.0750 H   0  0  0  0  0  0  0  0  0  0  0  0
   90.9650   97.5360  -46.4840 H   0  0  0  0  0  0  0  0  0  0  0  0
   90.4700   98.9650  -45.5940 H   0  0  0  0  0  0  0  0  0  0  0  0
   93.3290   98.3500  -46.3540 H   0  0  0  0  0  0  0  0  0  0  0  0
   92.2910   99.6060  -47.0920 H   0  0  0  0  0  0  0  0  0  0  0  0
   92.5770  100.6250  -43.1690 H   0  0  0  0  0  0  0  0  0  0  0  0
   91.0780  100.3940  -44.1200 H   0  0  0  0  0  0  0  0  0  0  0  0
   94.7050  101.0290  -44.7650 H   0  0  0  0  0  0  0  0  0  0  0  0
   94.8400   99.4190  -45.6460 H   0  0  0  0  0  0  0  0  0  0  0  0
   94.5650   99.4630  -43.8960 H   0  0  0  0  0  0  0  0  0  0  0  0
   94.4240   98.2260  -41.0870 H   0  0  0  0  0  0  0  0  0  0  0  0
   93.8840   98.9680  -39.5560 H   0  0  0  0  0  0  0  0  0  0  0  0
   94.4170  100.0630  -40.8440 H   0  0  0  0  0  0  0  0  0  0  0  0
   90.7310   94.6400  -40.2190 H   0  0  0  0  0  0  0  0  0  0  0  0
   92.5000   94.2260  -40.5230 H   0  0  0  0  0  0  0  0  0  0  0  0
  1  2  2  0  0  0  0
  1 19  1  0  0  0  0
  3  1  2  0  0  0  0
  4  9  1  0  0  0  0
  4  1  1  0  0  0  0
  5  4  1  0  0  0  0
  6 38  1  0  0  0  0
  6  7  1  0  0  0  0
  6  5  1  0  0  0  0
  7  8  1  0  0  0  0
  8 40  1  0  0  0  0
  8 39  1  0  0  0  0
  8  9  1  0  0  0  0
  9 41  1  0  0  0  0
 10  7  1  0  0  0  0
 10 11  2  0  0  0  0
 12 13  1  0  0  0  0
 12 10  1  0  0  0  0
 13 17  1  0  0  0  0
 13 14  1  0  0  0  0
 14 15  2  0  0  0  0
 15 45  1  0  0  0  0
 16 15  1  0  0  0  0
 16 18  1  0  0  0  0
 17 16  2  0  0  0  0
 19 20  1  0  0  0  0
 20 34  1  0  0  0  0
 20 21  2  0  0  0  0
 21 32  1  0  0  0  0
 22 21  1  0  0  0  0
 22 30  1  0  0  0  0
 23 22  2  0  0  0  0
 24 19  2  0  0  0  0
 24 23  1  0  0  0  0
 25 48  1  0  0  0  0
 25 24  1  0  0  0  0
 26 25  1  0  0  0  0
 26 27  1  0  0  0  0
 27 29  1  0  0  0  0
 27 28  1  0  0  0  0
 28 23  1  0  0  0  0
 28 51  1  0  0  0  0
 29 53  1  0  0  0  0
 29 55  1  0  0  0  0
 30 31  1  0  0  0  0
 31 57  1  0  0  0  0
 33 32  1  0  0  0  0
 33 60  1  0  0  0  0
 33 59  1  0  0  0  0
 34 33  1  0  0  0  0
 35  5  1  0  0  0  0
 36  5  1  0  0  0  0
 37  6  1  0  0  0  0
 42  9  1  0  0  0  0
 43 12  1  0  0  0  0
 44 12  1  0  0  0  0
 46 17  1  0  0  0  0
 47 25  1  0  0  0  0
 49 26  1  0  0  0  0
 50 26  1  0  0  0  0
 52 28  1  0  0  0  0
 54 29  1  0  0  0  0
 56 31  1  0  0  0  0
 58 31  1  0  0  0  0
M  END
>  <Pose>
1

>  <Score>
-5.05

$$$$
