
 OpenBabel03212208273D

 53 56  0  0  0  0  0  0  0  0999 V2000
   92.1770   92.7410  -42.8870 S   0  0  0  0  0  0  0  0  0  0  0  0
   93.4600   92.3460  -42.1790 O   0  0  0  0  0  0  0  0  0  0  0  0
   91.0760   91.9770  -42.1940 O   0  0  0  0  0  0  0  0  0  0  0  0
   92.3100   92.1980  -44.5000 N   0  0  0  0  0  0  0  0  0  0  0  0
   92.6120   90.7860  -44.6030 C   0  0  0  0  0  0  0  0  0  0  0  0
   91.8070   90.1340  -45.6990 C   0  0  0  0  0  0  0  0  0  0  0  0
   92.0100   90.9430  -46.9190 N   0  0  0  0  0  0  0  0  0  0  0  0
   91.6810   92.3290  -46.7970 C   0  0  0  0  0  0  0  0  0  0  0  0
   91.2230   92.5630  -45.3390 C   0  0  0  0  0  0  0  0  0  0  0  0
   92.5000   90.3520  -48.0930 C   0  0  0  0  0  0  0  0  0  0  0  0
   93.6690   89.7580  -47.9600 O   0  0  0  0  0  0  0  0  0  0  0  0
   91.9790   90.2610  -49.4330 C   0  0  0  0  0  0  0  0  0  0  0  0
   91.0850   89.2060  -49.7930 N   0  0  0  0  0  0  0  0  0  0  0  0
   89.8980   89.2980  -50.6220 C   0  0  0  0  0  0  0  0  0  0  0  0
   89.5210   90.3790  -51.1540 O   0  0  0  0  0  0  0  0  0  0  0  0
   89.3150   88.0070  -50.6880 N   0  0  0  0  0  0  0  0  0  0  0  0
   89.8410   87.2470  -49.6050 C   0  0  0  0  0  0  0  0  0  0  0  0
   88.9690   87.2770  -48.3720 C   0  0  0  0  0  0  0  0  0  0  0  0
   89.5790   86.1610  -47.5450 C   0  0  0  0  0  0  0  0  0  0  0  0
   90.1700   85.1850  -48.5340 C   0  0  0  0  0  0  0  0  0  0  0  0
   89.8990   85.7590  -49.9040 C   0  0  0  0  0  0  0  0  0  0  0  0
   91.1660   87.8240  -49.3860 C   0  0  0  0  0  0  0  0  0  0  0  0
   92.1970   87.2630  -48.9350 O   0  0  0  0  0  0  0  0  0  0  0  0
   91.8930   94.4600  -42.7600 C   0  0  0  0  0  0  0  0  0  0  0  0
   91.9190   95.1220  -41.5500 C   0  0  0  0  0  0  0  0  0  0  0  0
   91.6920   96.4910  -41.4590 C   0  0  0  0  0  0  0  0  0  0  0  0
   91.4320   97.2330  -42.5820 C   0  0  0  0  0  0  0  0  0  0  0  0
   91.4040   96.5840  -43.7980 C   0  0  0  0  0  0  0  0  0  0  0  0
   91.6320   95.2180  -43.8810 C   0  0  0  0  0  0  0  0  0  0  0  0
   91.1170   99.1300  -42.4660 B   0  0  0  0  0  0  0  0  0  0  0  0
   93.6880   90.7310  -44.9400 H   0  0  0  0  0  0  0  0  0  0  0  0
   92.4760   90.2670  -43.6360 H   0  0  0  0  0  0  0  0  0  0  0  0
   90.7650   90.0720  -45.3960 H   0  0  0  0  0  0  0  0  0  0  0  0
   92.2080   89.1100  -45.8550 H   0  0  0  0  0  0  0  0  0  0  0  0
   90.9010   92.6920  -47.4750 H   0  0  0  0  0  0  0  0  0  0  0  0
   92.6310   92.9280  -46.9250 H   0  0  0  0  0  0  0  0  0  0  0  0
   90.2910   92.0120  -45.2240 H   0  0  0  0  0  0  0  0  0  0  0  0
   90.9900   93.6440  -45.2040 H   0  0  0  0  0  0  0  0  0  0  0  0
   92.8540   90.2090  -50.1820 H   0  0  0  0  0  0  0  0  0  0  0  0
   91.4690   91.2340  -49.7520 H   0  0  0  0  0  0  0  0  0  0  0  0
   88.6210   87.7360  -51.4380 H   0  0  0  0  0  0  0  0  0  0  0  0
   87.9560   86.9500  -48.6720 H   0  0  0  0  0  0  0  0  0  0  0  0
   88.9810   88.2410  -47.8590 H   0  0  0  0  0  0  0  0  0  0  0  0
   88.8290   85.6410  -46.9190 H   0  0  0  0  0  0  0  0  0  0  0  0
   90.3620   86.6370  -46.9150 H   0  0  0  0  0  0  0  0  0  0  0  0
   89.7480   84.1670  -48.4160 H   0  0  0  0  0  0  0  0  0  0  0  0
   91.2740   85.1900  -48.3890 H   0  0  0  0  0  0  0  0  0  0  0  0
   88.8720   85.4880  -50.2680 H   0  0  0  0  0  0  0  0  0  0  0  0
   90.6730   85.5110  -50.6380 H   0  0  0  0  0  0  0  0  0  0  0  0
   92.1230   94.5430  -40.6660 H   0  0  0  0  0  0  0  0  0  0  0  0
   91.7080   97.0210  -40.5160 H   0  0  0  0  0  0  0  0  0  0  0  0
   91.1970   97.1960  -44.6750 H   0  0  0  0  0  0  0  0  0  0  0  0
   91.5990   94.7430  -44.8730 H   0  0  0  0  0  0  0  0  0  0  0  0
  1 24  1  0  0  0  0
  1  3  2  0  0  0  0
  1  2  2  0  0  0  0
  4  1  1  0  0  0  0
  5  4  1  0  0  0  0
  5 32  1  0  0  0  0
  6 33  1  0  0  0  0
  6  5  1  0  0  0  0
  7  8  1  0  0  0  0
  7  6  1  0  0  0  0
  8  9  1  0  0  0  0
  9 37  1  0  0  0  0
  9 38  1  0  0  0  0
  9  4  1  0  0  0  0
 10 11  2  0  0  0  0
 10  7  1  0  0  0  0
 12 10  1  0  0  0  0
 13 12  1  0  0  0  0
 13 22  1  0  0  0  0
 14 13  1  0  0  0  0
 15 14  2  0  0  0  0
 16 14  1  0  0  0  0
 16 17  1  0  0  0  0
 17 22  1  0  0  0  0
 17 18  1  0  0  0  0
 18 43  1  0  0  0  0
 18 19  1  0  0  0  0
 19 44  1  0  0  0  0
 19 45  1  0  0  0  0
 20 46  1  0  0  0  0
 20 47  1  0  0  0  0
 20 19  1  0  0  0  0
 21 17  1  0  0  0  0
 21 20  1  0  0  0  0
 22 23  2  0  0  0  0
 24 25  1  0  0  0  0
 25 26  2  0  0  0  0
 25 50  1  0  0  0  0
 26 51  1  0  0  0  0
 27 30  1  0  0  0  0
 27 26  1  0  0  0  0
 28 27  2  0  0  0  0
 29 28  1  0  0  0  0
 29 24  2  0  0  0  0
 31  5  1  0  0  0  0
 34  6  1  0  0  0  0
 35  8  1  0  0  0  0
 36  8  1  0  0  0  0
 39 12  1  0  0  0  0
 40 12  1  0  0  0  0
 41 16  1  0  0  0  0
 42 18  1  0  0  0  0
 48 21  1  0  0  0  0
 49 21  1  0  0  0  0
 52 28  1  0  0  0  0
 53 29  1  0  0  0  0
M  END
>  <Pose>
1

>  <Score>
-5.97

$$$$
