
 OpenBabel03212208273D

 43 46  0  0  0  0  0  0  0  0999 V2000
   92.5880  100.3350  -40.6670 S   0  0  0  0  0  0  0  0  0  0  0  0
   93.0240   98.9150  -40.5050 O   0  0  0  0  0  0  0  0  0  0  0  0
   91.3960  100.5780  -39.7510 O   0  0  0  0  0  0  0  0  0  0  0  0
   92.0300  100.6050  -42.2730 N   0  0  0  0  0  0  0  0  0  0  0  0
   90.6500  100.9110  -42.3610 C   0  0  0  0  0  0  0  0  0  0  0  0
   89.7880   99.9170  -43.0610 C   0  0  0  0  0  0  0  0  0  0  0  0
   90.4360   99.2470  -44.1560 N   0  0  0  0  0  0  0  0  0  0  0  0
   91.7980   99.6400  -44.4370 C   0  0  0  0  0  0  0  0  0  0  0  0
   92.5100   99.5530  -43.1030 C   0  0  0  0  0  0  0  0  0  0  0  0
   89.8330   98.2550  -44.9520 C   0  0  0  0  0  0  0  0  0  0  0  0
   88.7820   98.5140  -45.5790 O   0  0  0  0  0  0  0  0  0  0  0  0
   90.4240   96.9250  -45.0530 C   0  0  0  0  0  0  0  0  0  0  0  0
   90.0950   95.9920  -45.9410 N   0  0  0  0  0  0  0  0  0  0  0  0
   90.8280   94.8930  -45.7550 N   0  0  0  0  0  0  0  0  0  0  0  0
   91.6720   95.0880  -44.7160 C   0  0  0  0  0  0  0  0  0  0  0  0
   91.4110   96.3880  -44.2680 C   0  0  0  0  0  0  0  0  0  0  0  0
   92.5370   94.1280  -44.3040 N   0  0  0  0  0  0  0  0  0  0  0  0
   92.5630   92.9280  -44.9520 C   0  0  0  0  0  0  0  0  0  0  0  0
   91.7160   92.6990  -46.0150 C   0  0  0  0  0  0  0  0  0  0  0  0
   90.8560   93.7050  -46.3950 C   0  0  0  0  0  0  0  0  0  0  0  0
   91.7540   91.0060  -46.9280 B   0  0  0  0  0  0  0  0  0  0  0  0
   93.9150  101.3900  -40.2490 C   0  0  0  0  0  0  0  0  0  0  0  0
   93.9060  102.4220  -39.3380 C   0  0  0  0  0  0  0  0  0  0  0  0
   95.1100  102.9950  -39.2970 N   0  0  0  0  0  0  0  0  0  0  0  0
   95.9000  102.3710  -40.1490 N   0  0  0  0  0  0  0  0  0  0  0  0
   95.2120  101.3740  -40.7620 C   0  0  0  0  0  0  0  0  0  0  0  0
   95.5200  104.1050  -38.4780 C   0  0  0  0  0  0  0  0  0  0  0  0
   90.2460  101.0770  -41.3410 H   0  0  0  0  0  0  0  0  0  0  0  0
   90.5450  101.8850  -42.8930 H   0  0  0  0  0  0  0  0  0  0  0  0
   89.4090   99.1220  -42.3530 H   0  0  0  0  0  0  0  0  0  0  0  0
   88.8710  100.3920  -43.4710 H   0  0  0  0  0  0  0  0  0  0  0  0
   92.2900   98.9780  -45.1750 H   0  0  0  0  0  0  0  0  0  0  0  0
   91.7600  100.7000  -44.7760 H   0  0  0  0  0  0  0  0  0  0  0  0
   93.5980   99.7100  -43.2690 H   0  0  0  0  0  0  0  0  0  0  0  0
   92.3570   98.5470  -42.6840 H   0  0  0  0  0  0  0  0  0  0  0  0
   91.8990   96.8820  -43.4540 H   0  0  0  0  0  0  0  0  0  0  0  0
   93.2360   92.1330  -44.6590 H   0  0  0  0  0  0  0  0  0  0  0  0
   90.1820   93.5400  -47.2290 H   0  0  0  0  0  0  0  0  0  0  0  0
   93.0730  102.7620  -38.7180 H   0  0  0  0  0  0  0  0  0  0  0  0
   95.5830  100.6850  -41.5100 H   0  0  0  0  0  0  0  0  0  0  0  0
   95.6320  104.9960  -39.1310 H   0  0  0  0  0  0  0  0  0  0  0  0
   96.5250  103.9100  -38.0520 H   0  0  0  0  0  0  0  0  0  0  0  0
   94.7790  104.3240  -37.6840 H   0  0  0  0  0  0  0  0  0  0  0  0
  1  2  2  0  0  0  0
  1 22  1  0  0  0  0
  1  3  2  0  0  0  0
  4  1  1  0  0  0  0
  5  4  1  0  0  0  0
  5 28  1  0  0  0  0
  6  5  1  0  0  0  0
  6 30  1  0  0  0  0
  7  6  1  0  0  0  0
  8  7  1  0  0  0  0
  8  9  1  0  0  0  0
  9 35  1  0  0  0  0
  9  4  1  0  0  0  0
 10  7  1  0  0  0  0
 11 10  2  0  0  0  0
 12 10  1  0  0  0  0
 12 16  1  0  0  0  0
 13 14  1  0  0  0  0
 13 12  2  0  0  0  0
 14 15  1  0  0  0  0
 15 17  1  0  0  0  0
 15 16  2  0  0  0  0
 16 36  1  0  0  0  0
 18 37  1  0  0  0  0
 18 17  2  0  0  0  0
 19 18  1  0  0  0  0
 20 19  2  0  0  0  0
 20 14  1  0  0  0  0
 21 19  1  0  0  0  0
 22 23  2  0  0  0  0
 23 24  1  0  0  0  0
 23 39  1  0  0  0  0
 24 27  1  0  0  0  0
 25 24  1  0  0  0  0
 26 22  1  0  0  0  0
 26 25  2  0  0  0  0
 27 42  1  0  0  0  0
 27 43  1  0  0  0  0
 29  5  1  0  0  0  0
 31  6  1  0  0  0  0
 32  8  1  0  0  0  0
 33  8  1  0  0  0  0
 34  9  1  0  0  0  0
 38 20  1  0  0  0  0
 40 26  1  0  0  0  0
 41 27  1  0  0  0  0
M  END
>  <Pose>
1

>  <Score>
-5.54

$$$$
