
 OpenBabel03212208273D

 54 58  0  0  1  0  0  0  0  0999 V2000
   91.7960   90.4840  -47.6880 S   0  0  0  0  0  0  0  0  0  0  0  0
   92.3280   91.6650  -48.4910 O   0  0  0  0  0  0  0  0  0  0  0  0
   93.0590   89.7400  -47.2540 O   0  0  0  0  0  0  0  0  0  0  0  0
   91.0620   91.0900  -46.3050 N   0  0  0  0  0  0  0  0  0  0  0  0
   91.8860   91.2000  -45.1300 C   0  0  0  0  0  0  0  0  0  0  0  0
   91.7090   92.5360  -44.4470 C   0  0  0  0  0  0  0  0  0  0  0  0
   91.9510   93.6360  -45.4140 N   0  0  0  0  0  0  0  0  0  0  0  0
   90.9190   93.5540  -46.4370 C   0  0  0  0  0  0  0  0  0  0  0  0
   90.1950   92.2180  -46.4480 C   0  0  0  0  0  0  0  0  0  0  0  0
   91.7560   94.8340  -44.6260 C   0  0  0  0  0  0  0  0  0  0  0  0
   92.1190   96.1230  -45.2320 C   0  0  0  0  0  0  0  0  0  0  0  0
   91.9110   97.3300  -44.5070 N   0  0  0  0  0  0  0  0  0  0  0  0
   91.7830   97.5650  -43.1090 C   0  0  0  0  0  0  0  0  0  0  0  0
   91.3960   96.7330  -42.2750 O   0  0  0  0  0  0  0  0  0  0  0  0
   92.1860   98.9620  -42.8200 C   0  0  1  0  0  0  0  0  0  0  0  0
   91.7980   99.6450  -44.1510 C   0  0  2  0  0  0  0  0  0  0  0  0
   90.4790  100.2740  -43.9060 C   0  0  1  0  0  0  0  0  0  0  0  0
   89.9320   99.4370  -42.7370 C   0  0  0  0  0  0  0  0  0  0  0  0
   91.2110   99.5990  -41.8970 C   0  0  2  0  0  0  0  0  0  0  0  0
   91.3930  101.0830  -42.0330 C   0  0  0  0  0  0  0  0  0  0  0  0
   90.7500  101.5330  -43.1100 C   0  0  0  0  0  0  0  0  0  0  0  0
   91.8430   98.6100  -45.1750 C   0  0  0  0  0  0  0  0  0  0  0  0
   91.8240   98.8270  -46.4120 O   0  0  0  0  0  0  0  0  0  0  0  0
   90.8800   89.4070  -48.6640 C   0  0  0  0  0  0  0  0  0  0  0  0
   91.2910   88.1110  -48.8580 C   0  0  0  0  0  0  0  0  0  0  0  0
   90.5220   87.2690  -49.6410 C   0  0  0  0  0  0  0  0  0  0  0  0
   89.3480   87.6820  -50.2440 C   0  0  0  0  0  0  0  0  0  0  0  0
   88.9390   88.9840  -50.0450 C   0  0  0  0  0  0  0  0  0  0  0  0
   89.7120   89.8290  -49.2580 C   0  0  0  0  0  0  0  0  0  0  0  0
   88.2880   86.5230  -51.3260 B   0  0  0  0  0  0  0  0  0  0  0  0
   91.5300   90.4330  -44.4030 H   0  0  0  0  0  0  0  0  0  0  0  0
   92.9300   90.9850  -45.3570 H   0  0  0  0  0  0  0  0  0  0  0  0
   92.4850   92.6400  -43.6680 H   0  0  0  0  0  0  0  0  0  0  0  0
   90.7190   92.6670  -43.9740 H   0  0  0  0  0  0  0  0  0  0  0  0
   91.4040   93.6150  -47.4250 H   0  0  0  0  0  0  0  0  0  0  0  0
   90.2190   94.3930  -46.2750 H   0  0  0  0  0  0  0  0  0  0  0  0
   89.5660   92.0980  -47.3280 H   0  0  0  0  0  0  0  0  0  0  0  0
   89.5200   92.2190  -45.5620 H   0  0  0  0  0  0  0  0  0  0  0  0
   92.3720   94.7460  -43.6740 H   0  0  0  0  0  0  0  0  0  0  0  0
   90.6990   94.8250  -44.2080 H   0  0  0  0  0  0  0  0  0  0  0  0
   93.2360   96.0620  -45.4550 H   0  0  0  0  0  0  0  0  0  0  0  0
   91.6490   96.1610  -46.2540 H   0  0  0  0  0  0  0  0  0  0  0  0
   93.2380   99.0810  -42.5790 H   0  0  0  0  0  0  0  0  0  0  0  0
   92.5310  100.4770  -44.3570 H   0  0  0  0  0  0  0  0  0  0  0  0
   89.8010  100.3850  -44.7190 H   0  0  0  0  0  0  0  0  0  0  0  0
   89.0760   99.9120  -42.2470 H   0  0  0  0  0  0  0  0  0  0  0  0
   89.8050   98.3860  -42.9810 H   0  0  0  0  0  0  0  0  0  0  0  0
   91.1390   99.2400  -40.8980 H   0  0  0  0  0  0  0  0  0  0  0  0
   91.9560  101.7410  -41.3790 H   0  0  0  0  0  0  0  0  0  0  0  0
   90.4880  102.5460  -43.3540 H   0  0  0  0  0  0  0  0  0  0  0  0
   92.2170   87.7250  -48.4030 H   0  0  0  0  0  0  0  0  0  0  0  0
   90.8510   86.2410  -49.7940 H   0  0  0  0  0  0  0  0  0  0  0  0
   88.0210   89.2930  -50.5220 H   0  0  0  0  0  0  0  0  0  0  0  0
   89.3170   90.8300  -49.1530 H   0  0  0  0  0  0  0  0  0  0  0  0
  1  3  2  0  0  0  0
  1  4  1  0  0  0  0
  2  1  2  0  0  0  0
  4  5  1  0  0  0  0
  5  6  1  0  0  0  0
  5 31  1  0  0  0  0
  6 34  1  0  0  0  0
  6 33  1  0  0  0  0
  7 10  1  0  0  0  0
  7  6  1  0  0  0  0
  8 36  1  0  0  0  0
  8  7  1  0  0  0  0
  9  8  1  0  0  0  0
  9  4  1  0  0  0  0
  9 38  1  0  0  0  0
 10 40  1  0  0  0  0
 10 39  1  0  0  0  0
 11 10  1  0  0  0  0
 11 12  1  0  0  0  0
 12 13  1  0  0  0  0
 13 15  1  0  0  0  0
 13 14  2  0  0  0  0
 15 43  1  1  0  0  0
 15 19  1  0  0  0  0
 16 44  1  6  0  0  0
 16 17  1  0  0  0  0
 16 15  1  0  0  0  0
 17 45  1  6  0  0  0
 17 21  1  0  0  0  0
 17 18  1  0  0  0  0
 18 46  1  0  0  0  0
 18 19  1  0  0  0  0
 19 48  1  1  0  0  0
 20 19  1  0  0  0  0
 20 49  1  0  0  0  0
 21 20  1  0  0  0  0
 22 12  1  0  0  0  0
 22 16  1  0  0  0  0
 23 22  2  0  0  0  0
 24  1  1  0  0  0  0
 25 24  1  0  0  0  0
 25 51  1  0  0  0  0
 26 25  2  0  0  0  0
 27 28  2  0  0  0  0
 27 26  1  0  0  0  0
 28 29  1  0  0  0  0
 29 54  1  0  0  0  0
 29 24  2  0  0  0  0
 30 27  1  0  0  0  0
 32  5  1  0  0  0  0
 35  8  1  0  0  0  0
 37  9  1  0  0  0  0
 41 11  1  0  0  0  0
 42 11  1  0  0  0  0
 47 18  1  0  0  0  0
 50 21  1  0  0  0  0
 52 26  1  0  0  0  0
 53 28  1  0  0  0  0
M  END
>  <Pose>
1

>  <Score>
-5.12

$$$$
