
 OpenBabel03212208273D

 45 48  0  0  0  0  0  0  0  0999 V2000
   88.3390   99.6610  -43.7810 S   0  0  0  0  0  0  0  0  0  0  0  0
   88.4480   99.9210  -42.3160 O   0  0  0  0  0  0  0  0  0  0  0  0
   88.2180  100.9700  -44.4940 O   0  0  0  0  0  0  0  0  0  0  0  0
   89.6200   98.7860  -44.3770 N   0  0  0  0  0  0  0  0  0  0  0  0
   90.9080   99.3470  -44.3300 C   0  0  0  0  0  0  0  0  0  0  0  0
   91.9790   98.4310  -44.8540 C   0  0  0  0  0  0  0  0  0  0  0  0
   91.6200   97.0580  -44.8690 N   0  0  0  0  0  0  0  0  0  0  0  0
   90.4360   96.8420  -45.6230 C   0  0  0  0  0  0  0  0  0  0  0  0
   89.3480   97.8180  -45.3690 C   0  0  0  0  0  0  0  0  0  0  0  0
   91.7080   96.4680  -43.5860 C   0  0  0  0  0  0  0  0  0  0  0  0
   91.8090   95.0490  -43.5300 N   0  0  0  0  0  0  0  0  0  0  0  0
   91.8350   94.3320  -44.6350 N   0  0  0  0  0  0  0  0  0  0  0  0
   91.9230   92.9930  -44.6710 C   0  0  0  0  0  0  0  0  0  0  0  0
   91.9890   92.3450  -43.4600 C   0  0  0  0  0  0  0  0  0  0  0  0
   91.9660   93.0380  -42.2690 C   0  0  0  0  0  0  0  0  0  0  0  0
   91.8740   94.4220  -42.3450 C   0  0  0  0  0  0  0  0  0  0  0  0
   91.8540   95.0620  -41.2370 O   0  0  0  0  0  0  0  0  0  0  0  0
   91.9490   92.2410  -45.8900 N   0  0  0  0  0  0  0  0  0  0  0  0
   90.9980   92.1330  -46.8240 C   0  0  0  0  0  0  0  0  0  0  0  0
   91.4470   91.3230  -47.8010 N   0  0  0  0  0  0  0  0  0  0  0  0
   92.6890   90.9080  -47.4950 C   0  0  0  0  0  0  0  0  0  0  0  0
   92.9920   91.4960  -46.2860 C   0  0  0  0  0  0  0  0  0  0  0  0
   86.8390   98.7470  -44.0410 C   0  0  0  0  0  0  0  0  0  0  0  0
   86.4300   97.6910  -45.3160 S   0  0  0  0  0  0  0  0  0  0  0  0
   84.8620   97.2540  -44.8150 C   0  0  0  0  0  0  0  0  0  0  0  0
   84.6960   97.9570  -43.6470 C   0  0  0  0  0  0  0  0  0  0  0  0
   85.7230   98.7270  -43.2540 C   0  0  0  0  0  0  0  0  0  0  0  0
   83.6110   96.0720  -45.6560 B   0  0  0  0  0  0  0  0  0  0  0  0
   90.9120  100.3130  -44.8790 H   0  0  0  0  0  0  0  0  0  0  0  0
   91.1690   99.6000  -43.2740 H   0  0  0  0  0  0  0  0  0  0  0  0
   92.9160   98.5560  -44.2790 H   0  0  0  0  0  0  0  0  0  0  0  0
   92.2160   98.7390  -45.8980 H   0  0  0  0  0  0  0  0  0  0  0  0
   90.0840   95.7700  -45.5830 H   0  0  0  0  0  0  0  0  0  0  0  0
   90.7340   96.9530  -46.7100 H   0  0  0  0  0  0  0  0  0  0  0  0
   88.4290   97.2460  -45.0730 H   0  0  0  0  0  0  0  0  0  0  0  0
   89.0380   98.3610  -46.3020 H   0  0  0  0  0  0  0  0  0  0  0  0
   92.6500   96.8730  -43.1070 H   0  0  0  0  0  0  0  0  0  0  0  0
   90.8960   96.8300  -42.8940 H   0  0  0  0  0  0  0  0  0  0  0  0
   92.0610   91.2650  -43.4440 H   0  0  0  0  0  0  0  0  0  0  0  0
   92.0180   92.5420  -41.3130 H   0  0  0  0  0  0  0  0  0  0  0  0
   90.0270   92.6250  -46.7860 H   0  0  0  0  0  0  0  0  0  0  0  0
   93.3210   90.2380  -48.0970 H   0  0  0  0  0  0  0  0  0  0  0  0
   93.9240   91.3600  -45.7670 H   0  0  0  0  0  0  0  0  0  0  0  0
   83.7340   97.8590  -43.0860 H   0  0  0  0  0  0  0  0  0  0  0  0
   85.6620   99.3270  -42.3160 H   0  0  0  0  0  0  0  0  0  0  0  0
  1  2  2  0  0  0  0
  3  1  2  0  0  0  0
  4  5  1  0  0  0  0
  4  1  1  0  0  0  0
  5 30  1  0  0  0  0
  6  5  1  0  0  0  0
  6 31  1  0  0  0  0
  7  6  1  0  0  0  0
  7 10  1  0  0  0  0
  8 33  1  0  0  0  0
  8  9  1  0  0  0  0
  8  7  1  0  0  0  0
  9 35  1  0  0  0  0
  9  4  1  0  0  0  0
 10 11  1  0  0  0  0
 10 37  1  0  0  0  0
 10 38  1  0  0  0  0
 11 16  1  0  0  0  0
 12 11  1  0  0  0  0
 13 12  2  0  0  0  0
 13 14  1  0  0  0  0
 14 39  1  0  0  0  0
 14 15  2  0  0  0  0
 15 40  1  0  0  0  0
 16 15  1  0  0  0  0
 16 17  2  0  0  0  0
 18 13  1  0  0  0  0
 19 41  1  0  0  0  0
 19 18  1  0  0  0  0
 20 21  1  0  0  0  0
 20 19  2  0  0  0  0
 21 22  2  0  0  0  0
 22 18  1  0  0  0  0
 22 43  1  0  0  0  0
 23  1  1  0  0  0  0
 23 27  2  0  0  0  0
 24 25  1  0  0  0  0
 24 23  1  0  0  0  0
 25 26  2  0  0  0  0
 26 27  1  0  0  0  0
 26 44  1  0  0  0  0
 27 45  1  0  0  0  0
 28 25  1  0  0  0  0
 29  5  1  0  0  0  0
 32  6  1  0  0  0  0
 34  8  1  0  0  0  0
 36  9  1  0  0  0  0
 42 21  1  0  0  0  0
M  END
>  <Pose>
1

>  <Score>
-5.28

$$$$
