
 OpenBabel03212208273D

 52 55  0  0  0  0  0  0  0  0999 V2000
   91.8470   97.7290  -42.2420 S   0  0  0  0  0  0  0  0  0  0  0  0
   92.2510   97.8850  -40.7990 O   0  0  0  0  0  0  0  0  0  0  0  0
   92.9580   98.3400  -43.0630 O   0  0  0  0  0  0  0  0  0  0  0  0
   90.4150   98.5940  -42.6050 N   0  0  0  0  0  0  0  0  0  0  0  0
   90.5680  100.0140  -42.5720 C   0  0  0  0  0  0  0  0  0  0  0  0
   89.1410  100.5900  -42.5820 C   0  0  0  0  0  0  0  0  0  0  0  0
   88.2560   99.7680  -43.2860 N   0  0  0  0  0  0  0  0  0  0  0  0
   88.8140   99.0240  -44.3820 C   0  0  0  0  0  0  0  0  0  0  0  0
   90.0710   98.2740  -44.0020 C   0  0  0  0  0  0  0  0  0  0  0  0
   87.1520   99.1770  -42.6540 C   0  0  0  0  0  0  0  0  0  0  0  0
   86.2470   98.4060  -43.4420 N   0  0  0  0  0  0  0  0  0  0  0  0
   86.7000   97.6680  -44.5660 N   0  0  0  0  0  0  0  0  0  0  0  0
   85.5450   97.0210  -45.0930 C   0  0  0  0  0  0  0  0  0  0  0  0
   85.5830   96.2330  -46.1610 C   0  0  0  0  0  0  0  0  0  0  0  0
   84.5680   95.4530  -46.9050 C   0  0  0  0  0  0  0  0  0  0  0  0
   83.1980   96.0730  -46.7620 C   0  0  0  0  0  0  0  0  0  0  0  0
   82.7550   95.7890  -45.3380 C   0  0  0  0  0  0  0  0  0  0  0  0
   83.0130   96.9550  -44.4330 C   0  0  0  0  0  0  0  0  0  0  0  0
   84.3890   97.3330  -44.3310 N   0  0  0  0  0  0  0  0  0  0  0  0
   84.8480   98.2030  -43.3010 C   0  0  0  0  0  0  0  0  0  0  0  0
   84.0950   98.6940  -42.4230 O   0  0  0  0  0  0  0  0  0  0  0  0
   91.7650   96.0530  -42.6240 C   0  0  0  0  0  0  0  0  0  0  0  0
   91.7880   95.5110  -43.8750 C   0  0  0  0  0  0  0  0  0  0  0  0
   91.7160   94.1400  -44.0740 C   0  0  0  0  0  0  0  0  0  0  0  0
   91.6210   93.2740  -43.0250 C   0  0  0  0  0  0  0  0  0  0  0  0
   91.5970   93.7950  -41.7410 C   0  0  0  0  0  0  0  0  0  0  0  0
   91.6670   95.1530  -41.5570 C   0  0  0  0  0  0  0  0  0  0  0  0
   91.7490   93.3990  -45.8470 B   0  0  0  0  0  0  0  0  0  0  0  0
   91.1510  100.3960  -41.7190 H   0  0  0  0  0  0  0  0  0  0  0  0
   91.0560  100.3980  -43.5080 H   0  0  0  0  0  0  0  0  0  0  0  0
   88.8610  100.6660  -41.5190 H   0  0  0  0  0  0  0  0  0  0  0  0
   89.1680  101.6400  -42.9640 H   0  0  0  0  0  0  0  0  0  0  0  0
   88.0650   98.2660  -44.6910 H   0  0  0  0  0  0  0  0  0  0  0  0
   88.9560   99.7070  -45.2370 H   0  0  0  0  0  0  0  0  0  0  0  0
   90.8970   98.6950  -44.6120 H   0  0  0  0  0  0  0  0  0  0  0  0
   90.0250   97.2030  -44.1840 H   0  0  0  0  0  0  0  0  0  0  0  0
   86.6060   99.9640  -42.0780 H   0  0  0  0  0  0  0  0  0  0  0  0
   87.5520   98.4950  -41.8440 H   0  0  0  0  0  0  0  0  0  0  0  0
   87.6790   97.6120  -44.9330 H   0  0  0  0  0  0  0  0  0  0  0  0
   86.6040   96.1580  -46.5650 H   0  0  0  0  0  0  0  0  0  0  0  0
   84.5770   94.3840  -46.6090 H   0  0  0  0  0  0  0  0  0  0  0  0
   84.8500   95.5260  -47.9950 H   0  0  0  0  0  0  0  0  0  0  0  0
   82.5060   95.6480  -47.5060 H   0  0  0  0  0  0  0  0  0  0  0  0
   83.3190   97.1730  -46.8470 H   0  0  0  0  0  0  0  0  0  0  0  0
   81.6730   95.5570  -45.3780 H   0  0  0  0  0  0  0  0  0  0  0  0
   83.2730   94.9000  -44.9380 H   0  0  0  0  0  0  0  0  0  0  0  0
   82.4290   97.8170  -44.8360 H   0  0  0  0  0  0  0  0  0  0  0  0
   82.5900   96.7080  -43.4310 H   0  0  0  0  0  0  0  0  0  0  0  0
   91.8630   96.1880  -44.7140 H   0  0  0  0  0  0  0  0  0  0  0  0
   91.5650   92.1980  -43.1880 H   0  0  0  0  0  0  0  0  0  0  0  0
   91.5210   93.1180  -40.9020 H   0  0  0  0  0  0  0  0  0  0  0  0
   91.6450   95.5260  -40.5380 H   0  0  0  0  0  0  0  0  0  0  0  0
  1  2  2  0  0  0  0
  3  1  2  0  0  0  0
  4  5  1  0  0  0  0
  4  1  1  0  0  0  0
  5 29  1  0  0  0  0
  6  5  1  0  0  0  0
  6 31  1  0  0  0  0
  7 10  1  0  0  0  0
  7  6  1  0  0  0  0
  8  9  1  0  0  0  0
  8  7  1  0  0  0  0
  9  4  1  0  0  0  0
 10 37  1  0  0  0  0
 10 38  1  0  0  0  0
 11 20  1  0  0  0  0
 11 10  1  0  0  0  0
 12 11  1  0  0  0  0
 13 12  1  0  0  0  0
 13 19  1  0  0  0  0
 14 13  2  0  0  0  0
 15 16  1  0  0  0  0
 15 41  1  0  0  0  0
 15 14  1  0  0  0  0
 16 17  1  0  0  0  0
 17 46  1  0  0  0  0
 17 18  1  0  0  0  0
 18 19  1  0  0  0  0
 18 48  1  0  0  0  0
 19 20  1  0  0  0  0
 20 21  2  0  0  0  0
 22  1  1  0  0  0  0
 22 27  1  0  0  0  0
 23 22  2  0  0  0  0
 24 23  1  0  0  0  0
 24 25  2  0  0  0  0
 25 26  1  0  0  0  0
 26 27  2  0  0  0  0
 26 51  1  0  0  0  0
 27 52  1  0  0  0  0
 28 24  1  0  0  0  0
 30  5  1  0  0  0  0
 32  6  1  0  0  0  0
 33  8  1  0  0  0  0
 34  8  1  0  0  0  0
 35  9  1  0  0  0  0
 36  9  1  0  0  0  0
 39 12  1  0  0  0  0
 40 14  1  0  0  0  0
 42 15  1  0  0  0  0
 43 16  1  0  0  0  0
 44 16  1  0  0  0  0
 45 17  1  0  0  0  0
 47 18  1  0  0  0  0
 49 23  1  0  0  0  0
 50 25  1  0  0  0  0
M  END
>  <Pose>
1

>  <Score>
-4.96

$$$$
