
 OpenBabel03212208273D

 44 47  0  0  0  0  0  0  0  0999 V2000
   92.7090  100.4310  -44.3030 S   0  0  0  0  0  0  0  0  0  0  0  0
   93.3360  101.3570  -45.2680 O   0  0  0  0  0  0  0  0  0  0  0  0
   93.4340   99.0990  -44.4530 O   0  0  0  0  0  0  0  0  0  0  0  0
   91.0500  100.1470  -44.5530 N   0  0  0  0  0  0  0  0  0  0  0  0
   90.3910   99.3240  -43.6130 C   0  0  0  0  0  0  0  0  0  0  0  0
   89.9510   97.9770  -44.0810 C   0  0  0  0  0  0  0  0  0  0  0  0
   90.2690   97.6880  -45.4570 N   0  0  0  0  0  0  0  0  0  0  0  0
   90.2380   98.7420  -46.4190 C   0  0  0  0  0  0  0  0  0  0  0  0
   90.6460  100.0790  -45.9060 C   0  0  0  0  0  0  0  0  0  0  0  0
   90.5940   96.3300  -45.7870 C   0  0  0  0  0  0  0  0  0  0  0  0
   89.9470   95.5610  -46.6780 N   0  0  0  0  0  0  0  0  0  0  0  0
   90.5760   94.3800  -46.6490 N   0  0  0  0  0  0  0  0  0  0  0  0
   91.5630   94.4240  -45.7810 N   0  0  0  0  0  0  0  0  0  0  0  0
   91.6070   95.6170  -45.2250 N   0  0  0  0  0  0  0  0  0  0  0  0
   88.8380   95.9340  -47.4840 C   0  0  0  0  0  0  0  0  0  0  0  0
   88.7500   95.5500  -48.8030 C   0  0  0  0  0  0  0  0  0  0  0  0
   87.6490   95.9320  -49.5670 C   0  0  0  0  0  0  0  0  0  0  0  0
   86.6340   96.6940  -49.0300 C   0  0  0  0  0  0  0  0  0  0  0  0
   86.7240   97.0860  -47.6890 C   0  0  0  0  0  0  0  0  0  0  0  0
   87.8340   96.6940  -46.9390 C   0  0  0  0  0  0  0  0  0  0  0  0
   92.9770  100.9730  -42.6700 C   0  0  0  0  0  0  0  0  0  0  0  0
   92.3690  100.3970  -41.5820 C   0  0  0  0  0  0  0  0  0  0  0  0
   92.5950  100.8390  -40.2790 C   0  0  0  0  0  0  0  0  0  0  0  0
   93.4760  101.9090  -40.0900 C   0  0  0  0  0  0  0  0  0  0  0  0
   94.0910  102.4950  -41.1740 C   0  0  0  0  0  0  0  0  0  0  0  0
   93.8430  102.0320  -42.4360 C   0  0  0  0  0  0  0  0  0  0  0  0
   93.8350  102.5660  -38.3290 B   0  0  0  0  0  0  0  0  0  0  0  0
   91.0410   99.2740  -42.7010 H   0  0  0  0  0  0  0  0  0  0  0  0
   89.4760   99.8990  -43.2730 H   0  0  0  0  0  0  0  0  0  0  0  0
   90.4170   97.2280  -43.3830 H   0  0  0  0  0  0  0  0  0  0  0  0
   88.8550   97.8600  -43.8910 H   0  0  0  0  0  0  0  0  0  0  0  0
   90.9070   98.4940  -47.2950 H   0  0  0  0  0  0  0  0  0  0  0  0
   89.1870   98.7590  -46.8330 H   0  0  0  0  0  0  0  0  0  0  0  0
   89.7700  100.7770  -46.0410 H   0  0  0  0  0  0  0  0  0  0  0  0
   91.4430  100.5430  -46.5550 H   0  0  0  0  0  0  0  0  0  0  0  0
   89.5200   94.9450  -49.2950 H   0  0  0  0  0  0  0  0  0  0  0  0
   87.5470   95.6430  -50.6190 H   0  0  0  0  0  0  0  0  0  0  0  0
   85.7700   97.0050  -49.5930 H   0  0  0  0  0  0  0  0  0  0  0  0
   85.9280   97.6800  -47.2750 H   0  0  0  0  0  0  0  0  0  0  0  0
   87.8350   97.0350  -45.9030 H   0  0  0  0  0  0  0  0  0  0  0  0
   91.6750   99.5560  -41.7180 H   0  0  0  0  0  0  0  0  0  0  0  0
   92.1320  100.4060  -39.4160 H   0  0  0  0  0  0  0  0  0  0  0  0
   94.7710  103.3290  -40.9680 H   0  0  0  0  0  0  0  0  0  0  0  0
   94.3540  102.5270  -43.2790 H   0  0  0  0  0  0  0  0  0  0  0  0
  1 21  1  0  0  0  0
  2  1  2  0  0  0  0
  3  1  2  0  0  0  0
  4  1  1  0  0  0  0
  4  5  1  0  0  0  0
  5 29  1  0  0  0  0
  5 28  1  0  0  0  0
  6 31  1  0  0  0  0
  6  5  1  0  0  0  0
  6 30  1  0  0  0  0
  7  6  1  0  0  0  0
  8  9  1  0  0  0  0
  8  7  1  0  0  0  0
  9  4  1  0  0  0  0
 10  7  1  0  0  0  0
 10 14  2  0  0  0  0
 11 12  1  0  0  0  0
 11 10  1  0  0  0  0
 12 13  2  0  0  0  0
 13 14  1  0  0  0  0
 15 20  1  0  0  0  0
 15 11  1  0  0  0  0
 16 15  2  0  0  0  0
 17 18  2  0  0  0  0
 17 16  1  0  0  0  0
 18 19  1  0  0  0  0
 19 39  1  0  0  0  0
 19 20  2  0  0  0  0
 20 40  1  0  0  0  0
 21 26  2  0  0  0  0
 21 22  1  0  0  0  0
 22 23  2  0  0  0  0
 23 24  1  0  0  0  0
 23 42  1  0  0  0  0
 24 27  1  0  0  0  0
 25 43  1  0  0  0  0
 25 24  2  0  0  0  0
 26 25  1  0  0  0  0
 32  8  1  0  0  0  0
 33  8  1  0  0  0  0
 34  9  1  0  0  0  0
 35  9  1  0  0  0  0
 36 16  1  0  0  0  0
 37 17  1  0  0  0  0
 38 18  1  0  0  0  0
 41 22  1  0  0  0  0
 44 26  1  0  0  0  0
M  END
>  <Pose>
1

>  <Score>
-4.13

$$$$
