
 OpenBabel03212208273D

 46 49  0  0  0  0  0  0  0  0999 V2000
   86.3890   98.8800  -44.4080 S   0  0  0  0  0  0  0  0  0  0  0  0
   86.6210   98.9280  -45.9120 O   0  0  0  0  0  0  0  0  0  0  0  0
   85.9780   97.4500  -44.1180 O   0  0  0  0  0  0  0  0  0  0  0  0
   85.1610   99.9550  -44.0290 N   0  0  0  0  0  0  0  0  0  0  0  0
   84.3770   99.7050  -42.8930 C   0  0  0  0  0  0  0  0  0  0  0  0
   84.1770  100.9550  -42.0880 C   0  0  0  0  0  0  0  0  0  0  0  0
   83.6020  101.9000  -42.9190 O   0  0  0  0  0  0  0  0  0  0  0  0
   84.4590  102.3150  -43.9300 C   0  0  0  0  0  0  0  0  0  0  0  0
   85.1390  101.2110  -44.6440 C   0  0  0  0  0  0  0  0  0  0  0  0
   87.9150   99.2150  -43.6220 C   0  0  0  0  0  0  0  0  0  0  0  0
   88.1420  100.0080  -42.5620 N   0  0  0  0  0  0  0  0  0  0  0  0
   89.4690   99.9880  -42.2750 C   0  0  0  0  0  0  0  0  0  0  0  0
   90.0980   99.1830  -43.1490 N   0  0  0  0  0  0  0  0  0  0  0  0
   89.1720   98.7100  -43.9690 C   0  0  0  0  0  0  0  0  0  0  0  0
   91.5220   98.9180  -43.1520 C   0  0  0  0  0  0  0  0  0  0  0  0
   91.8720   97.7970  -42.2480 C   0  0  0  0  0  0  0  0  0  0  0  0
   92.4440   97.9300  -41.0220 N   0  0  0  0  0  0  0  0  0  0  0  0
   92.6030   96.7420  -40.5210 O   0  0  0  0  0  0  0  0  0  0  0  0
   92.1710   95.8160  -41.3390 C   0  0  0  0  0  0  0  0  0  0  0  0
   91.7100   96.4840  -42.4270 N   0  0  0  0  0  0  0  0  0  0  0  0
   92.1710   94.3350  -41.1460 C   0  0  0  0  0  0  0  0  0  0  0  0
   92.0580   93.7250  -42.5000 C   0  0  0  0  0  0  0  0  0  0  0  0
   92.1000   92.3440  -42.6070 C   0  0  0  0  0  0  0  0  0  0  0  0
   92.0040   91.6970  -43.8110 C   0  0  0  0  0  0  0  0  0  0  0  0
   91.8600   92.4540  -44.9420 C   0  0  0  0  0  0  0  0  0  0  0  0
   91.8140   93.8130  -44.8910 C   0  0  0  0  0  0  0  0  0  0  0  0
   91.9140   94.4430  -43.6530 C   0  0  0  0  0  0  0  0  0  0  0  0
   91.7230   91.5900  -46.6370 B   0  0  0  0  0  0  0  0  0  0  0  0
   84.8270   98.8790  -42.3020 H   0  0  0  0  0  0  0  0  0  0  0  0
   83.3500   99.3790  -43.2300 H   0  0  0  0  0  0  0  0  0  0  0  0
   83.4710  100.8010  -41.2420 H   0  0  0  0  0  0  0  0  0  0  0  0
   85.1650  101.3240  -41.7630 H   0  0  0  0  0  0  0  0  0  0  0  0
   83.8430  102.9390  -44.6260 H   0  0  0  0  0  0  0  0  0  0  0  0
   85.2170  103.0160  -43.5110 H   0  0  0  0  0  0  0  0  0  0  0  0
   86.1980  101.5140  -44.8990 H   0  0  0  0  0  0  0  0  0  0  0  0
   84.6500  101.1050  -45.6580 H   0  0  0  0  0  0  0  0  0  0  0  0
   89.9310  100.5420  -41.4620 H   0  0  0  0  0  0  0  0  0  0  0  0
   89.3160   98.0310  -44.7970 H   0  0  0  0  0  0  0  0  0  0  0  0
   92.0940   99.8150  -42.8380 H   0  0  0  0  0  0  0  0  0  0  0  0
   91.8520   98.6900  -44.1860 H   0  0  0  0  0  0  0  0  0  0  0  0
   91.2820   94.0860  -40.5380 H   0  0  0  0  0  0  0  0  0  0  0  0
   93.1030   94.0090  -40.6370 H   0  0  0  0  0  0  0  0  0  0  0  0
   92.2150   91.7640  -41.6900 H   0  0  0  0  0  0  0  0  0  0  0  0
   92.0370   90.6080  -43.8960 H   0  0  0  0  0  0  0  0  0  0  0  0
   91.6990   94.4230  -45.7860 H   0  0  0  0  0  0  0  0  0  0  0  0
   91.8780   95.5240  -43.5990 H   0  0  0  0  0  0  0  0  0  0  0  0
  1  3  2  0  0  0  0
  1  4  1  0  0  0  0
  1 10  1  0  0  0  0
  2  1  2  0  0  0  0
  4  5  1  0  0  0  0
  5 29  1  0  0  0  0
  5  6  1  0  0  0  0
  6 32  1  0  0  0  0
  6 31  1  0  0  0  0
  7  6  1  0  0  0  0
  8 34  1  0  0  0  0
  8  7  1  0  0  0  0
  9  4  1  0  0  0  0
  9  8  1  0  0  0  0
 10 11  1  0  0  0  0
 11 12  2  0  0  0  0
 12 37  1  0  0  0  0
 13 12  1  0  0  0  0
 14 10  2  0  0  0  0
 14 13  1  0  0  0  0
 15 13  1  0  0  0  0
 15 39  1  0  0  0  0
 15 16  1  0  0  0  0
 16 17  2  0  0  0  0
 17 18  1  0  0  0  0
 19 21  1  0  0  0  0
 19 18  1  0  0  0  0
 20 16  1  0  0  0  0
 20 19  2  0  0  0  0
 21 42  1  0  0  0  0
 21 41  1  0  0  0  0
 22 21  1  0  0  0  0
 23 22  1  0  0  0  0
 23 43  1  0  0  0  0
 24 23  2  0  0  0  0
 25 26  2  0  0  0  0
 25 24  1  0  0  0  0
 26 27  1  0  0  0  0
 27 46  1  0  0  0  0
 27 22  2  0  0  0  0
 28 25  1  0  0  0  0
 30  5  1  0  0  0  0
 33  8  1  0  0  0  0
 35  9  1  0  0  0  0
 36  9  1  0  0  0  0
 38 14  1  0  0  0  0
 40 15  1  0  0  0  0
 44 24  1  0  0  0  0
 45 26  1  0  0  0  0
M  END
>  <Pose>
1

>  <Score>
-5.48

$$$$
