
 OpenBabel03212208273D

 39 42  0  0  1  0  0  0  0  0999 V2000
   92.1860   93.6180  -43.8630 S   0  0  0  0  0  0  0  0  0  0  0  0
   93.3310   92.8280  -44.4300 O   0  0  0  0  0  0  0  0  0  0  0  0
   91.1990   92.7360  -43.1510 O   0  0  0  0  0  0  0  0  0  0  0  0
   92.7610   94.8970  -42.7660 C   0  0  0  0  0  0  0  0  0  0  0  0
   91.6930   95.9710  -42.7870 C   0  0  2  0  0  0  0  0  0  0  0  0
   91.7150   96.6240  -44.0810 N   0  0  0  0  0  0  0  0  0  0  0  0
   91.9700   95.8630  -45.2860 C   0  0  0  0  0  0  0  0  0  0  0  0
   91.3140   94.4850  -45.1750 C   0  0  0  0  0  0  0  0  0  0  0  0
   91.4530   97.9950  -43.8100 C   0  0  0  0  0  0  0  0  0  0  0  0
   91.1370   98.8830  -44.6720 O   0  0  0  0  0  0  0  0  0  0  0  0
   91.5870   98.2670  -42.4210 N   0  0  0  0  0  0  0  0  0  0  0  0
   91.9430   97.0360  -41.8100 C   0  0  0  0  0  0  0  0  0  0  0  0
   92.3940   96.8660  -40.6390 O   0  0  0  0  0  0  0  0  0  0  0  0
   91.4050   99.5370  -41.7350 C   0  0  1  0  0  0  0  0  0  0  0  0
   92.5040  100.5210  -42.0970 C   0  0  0  0  0  0  0  0  0  0  0  0
   92.2520  101.7640  -41.2420 C   0  0  0  0  0  0  0  0  0  0  0  0
   91.0380  102.3230  -41.7110 O   0  0  0  0  0  0  0  0  0  0  0  0
   89.9820  101.5040  -42.0970 C   0  0  0  0  0  0  0  0  0  0  0  0
   90.1190  100.1450  -42.1230 C   0  0  0  0  0  0  0  0  0  0  0  0
   89.0810   99.3400  -42.5030 C   0  0  0  0  0  0  0  0  0  0  0  0
   87.8900   99.9250  -42.8620 C   0  0  0  0  0  0  0  0  0  0  0  0
   87.7680  101.2910  -42.8300 C   0  0  0  0  0  0  0  0  0  0  0  0
   88.7980  102.1320  -42.4520 C   0  0  0  0  0  0  0  0  0  0  0  0
   88.6150  104.0240  -42.4130 B   0  0  0  0  0  0  0  0  0  0  0  0
   93.6590   95.3500  -43.2580 H   0  0  0  0  0  0  0  0  0  0  0  0
   92.9730   94.5180  -41.7560 H   0  0  0  0  0  0  0  0  0  0  0  0
   90.6750   95.5700  -42.6390 H   0  0  0  0  0  0  0  0  0  0  0  0
   93.0480   95.7060  -45.4690 H   0  0  0  0  0  0  0  0  0  0  0  0
   91.5120   96.3340  -46.1910 H   0  0  0  0  0  0  0  0  0  0  0  0
   90.2450   94.5460  -44.9810 H   0  0  0  0  0  0  0  0  0  0  0  0
   91.5700   93.9510  -46.1150 H   0  0  0  0  0  0  0  0  0  0  0  0
   91.4200   99.4280  -40.6450 H   0  0  0  0  0  0  0  0  0  0  0  0
   93.5090  100.1270  -41.9050 H   0  0  0  0  0  0  0  0  0  0  0  0
   92.4060  100.8550  -43.1500 H   0  0  0  0  0  0  0  0  0  0  0  0
   92.0430  101.3860  -40.2100 H   0  0  0  0  0  0  0  0  0  0  0  0
   93.0790  102.4700  -41.2730 H   0  0  0  0  0  0  0  0  0  0  0  0
   89.2110   98.2480  -42.5180 H   0  0  0  0  0  0  0  0  0  0  0  0
   87.0600   99.2970  -43.1650 H   0  0  0  0  0  0  0  0  0  0  0  0
   86.8210  101.7280  -43.1170 H   0  0  0  0  0  0  0  0  0  0  0  0
  1  3  2  0  0  0  0
  1  4  1  0  0  0  0
  2  1  2  0  0  0  0
  4 26  1  0  0  0  0
  5  4  1  0  0  0  0
  5 27  1  1  0  0  0
  5 12  1  0  0  0  0
  6  9  1  0  0  0  0
  6  5  1  0  0  0  0
  7  8  1  0  0  0  0
  7  6  1  0  0  0  0
  8 30  1  0  0  0  0
  8  1  1  0  0  0  0
  9 11  1  0  0  0  0
 10  9  2  0  0  0  0
 11 12  1  0  0  0  0
 11 14  1  0  0  0  0
 12 13  2  0  0  0  0
 14 32  1  1  0  0  0
 15 33  1  0  0  0  0
 15 14  1  0  0  0  0
 15 16  1  0  0  0  0
 16 35  1  0  0  0  0
 17 16  1  0  0  0  0
 18 17  1  0  0  0  0
 19 18  1  0  0  0  0
 19 14  1  0  0  0  0
 20 19  2  0  0  0  0
 21 22  2  0  0  0  0
 21 20  1  0  0  0  0
 22 23  1  0  0  0  0
 23 24  1  0  0  0  0
 23 18  2  0  0  0  0
 25  4  1  0  0  0  0
 28  7  1  0  0  0  0
 29  7  1  0  0  0  0
 31  8  1  0  0  0  0
 34 15  1  0  0  0  0
 36 16  1  0  0  0  0
 37 20  1  0  0  0  0
 38 21  1  0  0  0  0
 39 22  1  0  0  0  0
M  END
>  <Pose>
1

>  <Score>
-4.58

$$$$
