
 OpenBabel03212208273D

 58 61  0  0  1  0  0  0  0  0999 V2000
   85.4590   97.7770  -44.2110 S   0  0  0  0  0  0  0  0  0  0  0  0
   83.8360   98.1640  -43.8590 C   0  0  0  0  0  0  0  0  0  0  0  0
   83.9560   99.2980  -43.1950 N   0  0  0  0  0  0  0  0  0  0  0  0
   85.1340   99.8070  -42.9830 C   0  0  0  0  0  0  0  0  0  0  0  0
   86.2160   99.1220  -43.4680 C   0  0  0  0  0  0  0  0  0  0  0  0
   87.6470   99.4180  -43.4510 C   0  0  0  0  0  0  0  0  0  0  0  0
   88.2450   99.9520  -44.4980 C   0  0  0  0  0  0  0  0  0  0  0  0
   89.6920  100.3150  -44.6610 C   0  0  2  0  0  0  0  0  0  0  0  0
   89.9420  100.1000  -46.0520 N   0  0  0  0  0  0  0  0  0  0  0  0
   88.6940  100.4670  -46.7020 C   0  0  0  0  0  0  0  0  0  0  0  0
   88.6270  100.7980  -47.9170 O   0  0  0  0  0  0  0  0  0  0  0  0
   87.6120  100.3830  -45.7380 C   0  0  0  0  0  0  0  0  0  0  0  0
   86.3760  100.6330  -45.9310 O   0  0  0  0  0  0  0  0  0  0  0  0
   91.1230   99.6940  -46.7560 C   0  0  0  0  0  0  0  0  0  0  0  0
   92.1570  100.7490  -46.9790 C   0  0  0  0  0  0  0  0  0  0  0  0
   92.6670  101.3030  -45.6390 C   0  0  0  0  0  0  0  0  0  0  0  0
   93.5860  102.3560  -45.9110 N   0  0  0  0  0  4  0  0  0  0  0  0
   93.6340  102.8210  -47.2600 C   0  0  0  0  0  0  0  0  0  0  0  0
   92.4590  103.6900  -47.6390 C   0  0  0  0  0  0  0  0  0  0  0  0
   91.6030  103.7300  -46.5160 O   0  0  0  0  0  0  0  0  0  0  0  0
   92.3280  104.4400  -45.5380 C   0  0  0  0  0  0  0  0  0  0  0  0
   93.3970  103.4950  -45.0320 C   0  0  0  0  0  0  0  0  0  0  0  0
   90.5410   99.6100  -43.7090 C   0  0  0  0  0  0  0  0  0  0  0  0
   91.2410  100.3760  -42.7640 C   0  0  0  0  0  0  0  0  0  0  0  0
   92.0510   99.8280  -41.8030 C   0  0  0  0  0  0  0  0  0  0  0  0
   92.2000   98.4640  -41.7400 C   0  0  0  0  0  0  0  0  0  0  0  0
   91.5230   97.6740  -42.6570 C   0  0  0  0  0  0  0  0  0  0  0  0
   90.7180   98.2610  -43.6100 C   0  0  0  0  0  0  0  0  0  0  0  0
   92.9920  100.8950  -40.5280 B   0  0  0  0  0  0  0  0  0  0  0  0
   88.4140   99.1350  -42.2970 O   0  0  0  0  0  0  0  0  0  0  0  0
   85.2630  101.1380  -42.2530 C   0  0  0  0  0  0  0  0  0  0  0  0
   82.5780   97.4050  -44.2150 C   0  0  0  0  0  0  0  0  0  0  0  0
   89.7210  101.4230  -44.4300 H   0  0  0  0  0  0  0  0  0  0  0  0
   90.7730   99.3580  -47.7720 H   0  0  0  0  0  0  0  0  0  0  0  0
   91.6070   98.8370  -46.2290 H   0  0  0  0  0  0  0  0  0  0  0  0
   93.0370  100.4720  -47.5410 H   0  0  0  0  0  0  0  0  0  0  0  0
   91.6070  101.6250  -47.4410 H   0  0  0  0  0  0  0  0  0  0  0  0
   93.1820  100.5100  -45.0610 H   0  0  0  0  0  0  0  0  0  0  0  0
   91.7580  101.6290  -45.0900 H   0  0  0  0  0  0  0  0  0  0  0  0
   94.5580  101.9840  -45.6840 H   0  0  0  0  0  0  0  0  0  0  0  0
   93.7620  102.0660  -48.0340 H   0  0  0  0  0  0  0  0  0  0  0  0
   94.5500  103.4800  -47.3310 H   0  0  0  0  0  0  0  0  0  0  0  0
   91.9460  103.3850  -48.5540 H   0  0  0  0  0  0  0  0  0  0  0  0
   92.7610  104.7620  -47.7910 H   0  0  0  0  0  0  0  0  0  0  0  0
   92.8620  105.2640  -46.0830 H   0  0  0  0  0  0  0  0  0  0  0  0
   91.6980  104.8620  -44.7570 H   0  0  0  0  0  0  0  0  0  0  0  0
   94.3650  104.0090  -44.9120 H   0  0  0  0  0  0  0  0  0  0  0  0
   93.0780  103.0990  -44.0410 H   0  0  0  0  0  0  0  0  0  0  0  0
   91.1510  101.4620  -42.7770 H   0  0  0  0  0  0  0  0  0  0  0  0
   92.8390   98.0490  -40.9790 H   0  0  0  0  0  0  0  0  0  0  0  0
   91.6180   96.6100  -42.6360 H   0  0  0  0  0  0  0  0  0  0  0  0
   90.1840   97.6320  -44.3080 H   0  0  0  0  0  0  0  0  0  0  0  0
   86.2450  101.5610  -42.4430 H   0  0  0  0  0  0  0  0  0  0  0  0
   85.0140  101.0010  -41.1820 H   0  0  0  0  0  0  0  0  0  0  0  0
   84.5090  101.8580  -42.6460 H   0  0  0  0  0  0  0  0  0  0  0  0
   82.0030   97.1450  -43.3210 H   0  0  0  0  0  0  0  0  0  0  0  0
   82.0140   98.0870  -44.8890 H   0  0  0  0  0  0  0  0  0  0  0  0
   82.8970   96.5320  -44.8210 H   0  0  0  0  0  0  0  0  0  0  0  0
  1  2  1  0  0  0  0
  1  5  1  0  0  0  0
  2  3  2  0  0  0  0
  3  4  1  0  0  0  0
  4 31  1  0  0  0  0
  5  6  1  0  0  0  0
  5  4  2  0  0  0  0
  6 30  1  0  0  0  0
  7  6  2  0  0  0  0
  8  7  1  0  0  0  0
  8 33  1  1  0  0  0
  8 23  1  0  0  0  0
  9  8  1  0  0  0  0
 10  9  1  0  0  0  0
 10 12  1  0  0  0  0
 11 10  2  0  0  0  0
 12  7  1  0  0  0  0
 13 12  2  0  0  0  0
 14 35  1  0  0  0  0
 14  9  1  0  0  0  0
 15 14  1  0  0  0  0
 15 16  1  0  0  0  0
 16 39  1  0  0  0  0
 16 38  1  0  0  0  0
 17 40  1  0  0  0  0
 17 16  1  0  0  0  0
 17 22  1  0  0  0  0
 18 17  1  0  0  0  0
 19 18  1  0  0  0  0
 19 20  1  0  0  0  0
 20 21  1  0  0  0  0
 21 22  1  0  0  0  0
 21 46  1  0  0  0  0
 22 47  1  0  0  0  0
 22 48  1  0  0  0  0
 23 28  2  0  0  0  0
 23 24  1  0  0  0  0
 24 25  2  0  0  0  0
 25 26  1  0  0  0  0
 25 29  1  0  0  0  0
 26 50  1  0  0  0  0
 27 51  1  0  0  0  0
 27 26  2  0  0  0  0
 28 27  1  0  0  0  0
 31 54  1  0  0  0  0
 32  2  1  0  0  0  0
 32 56  1  0  0  0  0
 34 14  1  0  0  0  0
 36 15  1  0  0  0  0
 37 15  1  0  0  0  0
 41 18  1  0  0  0  0
 42 18  1  0  0  0  0
 43 19  1  0  0  0  0
 44 19  1  0  0  0  0
 45 21  1  0  0  0  0
 49 24  1  0  0  0  0
 52 28  1  0  0  0  0
 53 31  1  0  0  0  0
 55 31  1  0  0  0  0
 57 32  1  0  0  0  0
 58 32  1  0  0  0  0
M  END
>  <Pose>
1

>  <Score>
-5.07

$$$$
