
 OpenBabel03212208273D

 58 61  0  0  1  0  0  0  0  0999 V2000
   91.8200   93.7030  -44.7600 S   0  0  0  0  0  0  0  0  0  0  0  0
   91.9180   92.4150  -43.6500 C   0  0  0  0  0  0  0  0  0  0  0  0
   91.9100   93.0380  -42.4890 N   0  0  0  0  0  0  0  0  0  0  0  0
   91.8380   94.3340  -42.4490 C   0  0  0  0  0  0  0  0  0  0  0  0
   91.7710   95.0040  -43.6470 C   0  0  0  0  0  0  0  0  0  0  0  0
   91.7300   96.4600  -43.9070 C   0  0  0  0  0  0  0  0  0  0  0  0
   91.0850   96.9330  -44.9320 C   0  0  0  0  0  0  0  0  0  0  0  0
   90.9710   98.3830  -45.2870 C   0  0  1  0  0  0  0  0  0  0  0  0
   89.6590   98.4590  -45.8730 N   0  0  0  0  0  0  0  0  0  0  0  0
   89.4820   97.2190  -46.5700 C   0  0  0  0  0  0  0  0  0  0  0  0
   88.6960   97.0140  -47.5130 O   0  0  0  0  0  0  0  0  0  0  0  0
   90.3790   96.2270  -45.9940 C   0  0  0  0  0  0  0  0  0  0  0  0
   90.5710   95.0160  -46.2870 O   0  0  0  0  0  0  0  0  0  0  0  0
   88.7680   99.5760  -45.7700 C   0  0  0  0  0  0  0  0  0  0  0  0
   87.4450   99.2840  -45.1960 C   0  0  0  0  0  0  0  0  0  0  0  0
   87.3350   99.1260  -43.7690 C   0  0  0  0  0  0  0  0  0  0  0  0
   86.2100   99.1370  -42.9600 N   0  0  0  0  0  4  0  0  0  0  0  0
   85.3200   97.9570  -43.2710 C   0  0  0  0  0  0  0  0  0  0  0  0
   84.5210   98.2570  -44.4960 C   0  0  0  0  0  0  0  0  0  0  0  0
   83.6220   99.2650  -44.1670 O   0  0  0  0  0  0  0  0  0  0  0  0
   84.4090  100.4290  -44.0100 C   0  0  0  0  0  0  0  0  0  0  0  0
   85.3640  100.2750  -42.8590 C   0  0  0  0  0  0  0  0  0  0  0  0
   91.1950   99.2330  -44.1090 C   0  0  0  0  0  0  0  0  0  0  0  0
   90.3910   99.3280  -43.0060 C   0  0  0  0  0  0  0  0  0  0  0  0
   90.6360  100.1420  -41.9230 C   0  0  0  0  0  0  0  0  0  0  0  0
   91.7640  100.9220  -41.9320 C   0  0  0  0  0  0  0  0  0  0  0  0
   92.6100  100.8720  -43.0090 C   0  0  0  0  0  0  0  0  0  0  0  0
   92.3360  100.0470  -44.0750 C   0  0  0  0  0  0  0  0  0  0  0  0
   92.1030  102.0520  -40.4220 B   0  0  0  0  0  0  0  0  0  0  0  0
   92.3930   97.3470  -43.0420 O   0  0  0  0  0  0  0  0  0  0  0  0
   91.8710   95.0920  -41.1250 C   0  0  0  0  0  0  0  0  0  0  0  0
   91.9960   90.9310  -43.8900 C   0  0  0  0  0  0  0  0  0  0  0  0
   91.6970   98.6370  -46.0840 H   0  0  0  0  0  0  0  0  0  0  0  0
   89.2590  100.4220  -45.3220 H   0  0  0  0  0  0  0  0  0  0  0  0
   88.6010   99.9110  -46.8700 H   0  0  0  0  0  0  0  0  0  0  0  0
   86.7200  100.0060  -45.6680 H   0  0  0  0  0  0  0  0  0  0  0  0
   87.1070   98.3160  -45.7210 H   0  0  0  0  0  0  0  0  0  0  0  0
   88.0010   98.1850  -43.5240 H   0  0  0  0  0  0  0  0  0  0  0  0
   88.0530   99.9160  -43.3070 H   0  0  0  0  0  0  0  0  0  0  0  0
   86.4790   98.9030  -41.9740 H   0  0  0  0  0  0  0  0  0  0  0  0
   85.9320   97.0720  -43.2690 H   0  0  0  0  0  0  0  0  0  0  0  0
   84.6080   97.8930  -42.4300 H   0  0  0  0  0  0  0  0  0  0  0  0
   84.0130   97.3220  -44.8030 H   0  0  0  0  0  0  0  0  0  0  0  0
   85.1200   98.6440  -45.3430 H   0  0  0  0  0  0  0  0  0  0  0  0
   83.6970  101.2440  -43.7720 H   0  0  0  0  0  0  0  0  0  0  0  0
   84.8570  100.6440  -44.9760 H   0  0  0  0  0  0  0  0  0  0  0  0
   84.6450  100.1430  -41.9560 H   0  0  0  0  0  0  0  0  0  0  0  0
   85.8590  101.1970  -42.6350 H   0  0  0  0  0  0  0  0  0  0  0  0
   89.4980   98.7190  -42.9800 H   0  0  0  0  0  0  0  0  0  0  0  0
   89.9300  100.1430  -41.0940 H   0  0  0  0  0  0  0  0  0  0  0  0
   93.5020  101.5090  -42.9800 H   0  0  0  0  0  0  0  0  0  0  0  0
   93.0120  100.0220  -44.9130 H   0  0  0  0  0  0  0  0  0  0  0  0
   92.1220   96.1310  -41.2840 H   0  0  0  0  0  0  0  0  0  0  0  0
   90.9180   94.9740  -40.5770 H   0  0  0  0  0  0  0  0  0  0  0  0
   92.6610   94.6440  -40.4690 H   0  0  0  0  0  0  0  0  0  0  0  0
   92.5220   90.7660  -44.8660 H   0  0  0  0  0  0  0  0  0  0  0  0
   92.6630   90.4540  -43.1250 H   0  0  0  0  0  0  0  0  0  0  0  0
   91.0050   90.4690  -43.8960 H   0  0  0  0  0  0  0  0  0  0  0  0
  1  2  1  0  0  0  0
  1  5  1  0  0  0  0
  2  3  2  0  0  0  0
  3  4  1  0  0  0  0
  4 31  1  0  0  0  0
  5  4  2  0  0  0  0
  6  5  1  0  0  0  0
  6 30  1  0  0  0  0
  7  6  2  0  0  0  0
  8 33  1  6  0  0  0
  8  7  1  0  0  0  0
  8 23  1  0  0  0  0
  9 14  1  0  0  0  0
  9  8  1  0  0  0  0
 10 12  1  0  0  0  0
 10  9  1  0  0  0  0
 11 10  2  0  0  0  0
 12  7  1  0  0  0  0
 13 12  2  0  0  0  0
 14 34  1  0  0  0  0
 14 15  1  0  0  0  0
 15 16  1  0  0  0  0
 16 38  1  0  0  0  0
 16 39  1  0  0  0  0
 16 17  1  0  0  0  0
 17 22  1  0  0  0  0
 17 40  1  0  0  0  0
 18 41  1  0  0  0  0
 18 17  1  0  0  0  0
 18 42  1  0  0  0  0
 19 20  1  0  0  0  0
 19 18  1  0  0  0  0
 20 21  1  0  0  0  0
 21 45  1  0  0  0  0
 21 22  1  0  0  0  0
 22 48  1  0  0  0  0
 22 47  1  0  0  0  0
 23 28  2  0  0  0  0
 23 24  1  0  0  0  0
 24 49  1  0  0  0  0
 24 25  2  0  0  0  0
 25 50  1  0  0  0  0
 26 25  1  0  0  0  0
 26 29  1  0  0  0  0
 27 51  1  0  0  0  0
 27 26  2  0  0  0  0
 28 27  1  0  0  0  0
 31 54  1  0  0  0  0
 31 55  1  0  0  0  0
 32  2  1  0  0  0  0
 32 57  1  0  0  0  0
 35 14  1  0  0  0  0
 36 15  1  0  0  0  0
 37 15  1  0  0  0  0
 43 19  1  0  0  0  0
 44 19  1  0  0  0  0
 46 21  1  0  0  0  0
 52 28  1  0  0  0  0
 53 31  1  0  0  0  0
 56 32  1  0  0  0  0
 58 32  1  0  0  0  0
M  END
>  <Pose>
1

>  <Score>
-5.90

$$$$
