
 OpenBabel03212208273D

 55 59  0  0  1  0  0  0  0  0999 V2000
   91.4780   94.9480  -44.6550 S   0  0  1  0  0  0  0  0  0  0  0  0
   91.3300   93.7840  -45.8870 C   0  0  0  0  0  0  0  0  0  0  0  0
   90.4900   94.3630  -46.7220 N   0  0  0  0  0  0  0  0  0  0  0  0
   90.0180   95.5420  -46.4610 C   0  0  0  0  0  0  0  0  0  0  0  0
   90.4240   96.1510  -45.2970 C   0  0  1  0  0  0  0  0  0  0  0  0
   90.0400   97.4460  -44.7160 C   0  0  0  0  0  0  0  0  0  0  0  0
   90.5490   97.7470  -43.5400 C   0  0  0  0  0  0  0  0  0  0  0  0
   90.3540   98.9740  -42.7100 C   0  0  1  0  0  0  0  0  0  0  0  0
   91.6830   99.2520  -42.3250 N   0  0  0  0  0  0  0  0  0  0  0  0
   92.1570   97.9220  -41.8740 C   0  0  0  0  0  0  0  0  0  0  0  0
   93.0210   97.6850  -40.9890 O   0  0  0  0  0  0  0  0  0  0  0  0
   91.4150   96.9510  -42.6700 C   0  0  1  0  0  0  0  0  0  0  0  0
   91.4570   95.6820  -42.6630 O   0  0  0  0  0  0  0  0  0  0  0  0
   92.5900  100.3390  -42.1810 C   0  0  0  0  0  0  0  0  0  0  0  0
   93.1400  101.0070  -43.3680 C   0  0  0  0  0  0  0  0  0  0  0  0
   94.1630  101.9670  -43.2840 N   0  0  0  0  0  4  0  0  0  0  0  0
   93.7870  103.2940  -43.7250 C   0  0  0  0  0  0  0  0  0  0  0  0
   95.0600  104.1330  -43.6860 C   0  0  0  0  0  0  0  0  0  0  0  0
   96.0440  103.5110  -42.9180 O   0  0  0  0  0  0  0  0  0  0  0  0
   95.4340  103.2290  -41.6790 C   0  0  0  0  0  0  0  0  0  0  0  0
   94.3870  102.1600  -41.8140 C   0  0  0  0  0  0  0  0  0  0  0  0
   89.4040   99.9310  -43.1600 C   0  0  0  0  0  0  0  0  0  0  0  0
   88.0600   99.7680  -42.8120 C   0  0  0  0  0  0  0  0  0  0  0  0
   87.0780  100.6330  -43.2190 C   0  0  0  0  0  0  0  0  0  0  0  0
   87.4450  101.7060  -44.0040 C   0  0  0  0  0  0  0  0  0  0  0  0
   88.7660  101.8840  -44.3590 C   0  0  0  0  0  0  0  0  0  0  0  0
   89.7340  101.0020  -43.9390 C   0  0  0  0  0  0  0  0  0  0  0  0
   86.1380  102.9620  -44.6150 B   0  0  0  0  0  0  0  0  0  0  0  0
   89.1860   98.3320  -45.3480 O   0  0  0  0  0  0  0  0  0  0  0  0
   89.0140   96.2080  -47.3900 C   0  0  0  0  0  0  0  0  0  0  0  0
   91.9890   92.4360  -46.0010 C   0  0  0  0  0  0  0  0  0  0  0  0
   89.8900   98.5200  -41.7480 H   0  0  0  0  0  0  0  0  0  0  0  0
   93.4830   99.9700  -41.5800 H   0  0  0  0  0  0  0  0  0  0  0  0
   92.1890  101.1530  -41.5230 H   0  0  0  0  0  0  0  0  0  0  0  0
   92.2670  101.5250  -43.8880 H   0  0  0  0  0  0  0  0  0  0  0  0
   93.4260  100.1760  -44.1000 H   0  0  0  0  0  0  0  0  0  0  0  0
   95.0530  101.6190  -43.6560 H   0  0  0  0  0  0  0  0  0  0  0  0
   93.4140  103.3310  -44.7500 H   0  0  0  0  0  0  0  0  0  0  0  0
   93.0330  103.6920  -42.9990 H   0  0  0  0  0  0  0  0  0  0  0  0
   94.7580  105.1240  -43.2520 H   0  0  0  0  0  0  0  0  0  0  0  0
   95.4880  104.2550  -44.7030 H   0  0  0  0  0  0  0  0  0  0  0  0
   96.1940  102.9490  -40.9320 H   0  0  0  0  0  0  0  0  0  0  0  0
   94.9140  104.1910  -41.4020 H   0  0  0  0  0  0  0  0  0  0  0  0
   94.6590  101.2000  -41.3800 H   0  0  0  0  0  0  0  0  0  0  0  0
   93.4040  102.5100  -41.4380 H   0  0  0  0  0  0  0  0  0  0  0  0
   87.7360   98.9180  -42.1870 H   0  0  0  0  0  0  0  0  0  0  0  0
   86.0280  100.4870  -42.9340 H   0  0  0  0  0  0  0  0  0  0  0  0
   89.0280  102.7420  -44.9790 H   0  0  0  0  0  0  0  0  0  0  0  0
   90.7820  101.1850  -44.2690 H   0  0  0  0  0  0  0  0  0  0  0  0
   88.2980   95.4230  -47.7250 H   0  0  0  0  0  0  0  0  0  0  0  0
   89.4800   96.6090  -48.2870 H   0  0  0  0  0  0  0  0  0  0  0  0
   88.4740   97.0050  -46.8610 H   0  0  0  0  0  0  0  0  0  0  0  0
   91.2910   91.6710  -46.3850 H   0  0  0  0  0  0  0  0  0  0  0  0
   92.3670   92.1730  -44.9710 H   0  0  0  0  0  0  0  0  0  0  0  0
   92.8890   92.5660  -46.6330 H   0  0  0  0  0  0  0  0  0  0  0  0
  1  2  2  1  0  0  0
  1 13  1  0  0  0  0
  3  4  2  0  0  0  0
  3  2  1  0  0  0  0
  5  4  1  1  0  0  0
  5  6  1  0  0  0  0
  5  1  1  0  0  0  0
  6  7  2  0  0  0  0
  7  8  1  0  0  0  0
  8  9  1  0  0  0  0
  8 32  1  1  0  0  0
  9 14  1  0  0  0  0
  9 10  1  0  0  0  0
 10 11  2  0  0  0  0
 12  7  1  1  0  0  0
 12 13  1  0  0  0  0
 12 10  1  0  0  0  0
 14 33  1  0  0  0  0
 14 34  1  0  0  0  0
 15 16  1  0  0  0  0
 15 14  1  0  0  0  0
 16 21  1  0  0  0  0
 17 18  1  0  0  0  0
 17 16  1  0  0  0  0
 17 39  1  0  0  0  0
 18 40  1  0  0  0  0
 18 19  1  0  0  0  0
 19 20  1  0  0  0  0
 20 43  1  0  0  0  0
 20 42  1  0  0  0  0
 21 20  1  0  0  0  0
 21 45  1  0  0  0  0
 21 44  1  0  0  0  0
 22 23  1  0  0  0  0
 22  8  1  0  0  0  0
 23 46  1  0  0  0  0
 24 47  1  0  0  0  0
 24 23  2  0  0  0  0
 25 24  1  0  0  0  0
 26 25  2  0  0  0  0
 26 27  1  0  0  0  0
 27 22  2  0  0  0  0
 28 25  1  0  0  0  0
 29  6  1  0  0  0  0
 30 52  1  0  0  0  0
 30  4  1  0  0  0  0
 31  2  1  0  0  0  0
 31 54  1  0  0  0  0
 35 15  1  0  0  0  0
 36 15  1  0  0  0  0
 37 16  1  0  0  0  0
 38 17  1  0  0  0  0
 41 18  1  0  0  0  0
 48 26  1  0  0  0  0
 49 27  1  0  0  0  0
 50 30  1  0  0  0  0
 51 30  1  0  0  0  0
 53 31  1  0  0  0  0
 55 31  1  0  0  0  0
M  END
>  <Pose>
1

>  <Score>
-5.29

$$$$
