
 OpenBabel03212208273D

 42 45  0  0  1  0  0  0  0  0999 V2000
   91.4400   94.5450  -44.8630 S   0  0  0  0  0  0  0  0  0  0  0  0
   92.3540   93.0650  -44.3480 C   0  0  0  0  0  0  0  0  0  0  0  0
   92.7810   93.2800  -42.9070 C   0  0  0  0  0  0  0  0  0  0  0  0
   91.6300   93.8460  -42.1000 C   0  0  0  0  0  0  0  0  0  0  0  0
   91.6580   95.2870  -42.2880 N   0  0  0  0  0  0  0  0  0  0  0  0
   91.5760   95.7370  -43.5430 C   0  0  2  0  0  0  0  0  0  0  0  0
   91.6180   97.1160  -43.5200 N   0  0  0  0  0  0  0  0  0  0  0  0
   91.7260   97.5190  -42.2650 C   0  0  0  0  0  0  0  0  0  0  0  0
   91.7500   96.3540  -41.5030 C   0  0  0  0  0  0  0  0  0  0  0  0
   91.8080   98.8550  -41.6960 C   0  0  0  0  0  0  0  0  0  0  0  0
   90.8890   99.8320  -42.1050 C   0  0  0  0  0  0  0  0  0  0  0  0
   90.9180  101.1050  -41.6050 C   0  0  0  0  0  0  0  0  0  0  0  0
   91.8400  101.5210  -40.6730 C   0  0  0  0  0  0  0  0  0  0  0  0
   92.7440  100.5730  -40.2670 C   0  0  0  0  0  0  0  0  0  0  0  0
   92.7330   99.2620  -40.7660 C   0  0  0  0  0  0  0  0  0  0  0  0
   91.8370  102.8220  -40.1890 O   0  0  0  0  0  0  0  0  0  0  0  0
   90.6140  103.5020  -39.9750 C   0  0  0  0  0  0  0  0  0  0  0  0
   91.5500   97.8910  -44.7150 C   0  0  0  0  0  0  0  0  0  0  0  0
   90.4080   97.8870  -45.4980 C   0  0  0  0  0  0  0  0  0  0  0  0
   90.2990   98.6490  -46.6440 C   0  0  0  0  0  0  0  0  0  0  0  0
   91.3760   99.4340  -47.0060 C   0  0  0  0  0  0  0  0  0  0  0  0
   92.5090   99.4310  -46.2200 C   0  0  0  0  0  0  0  0  0  0  0  0
   92.6390   98.6790  -45.0730 C   0  0  0  0  0  0  0  0  0  0  0  0
   91.3170  100.5280  -48.5850 B   0  0  0  0  0  0  0  0  0  0  0  0
   91.6980   92.1760  -44.3890 H   0  0  0  0  0  0  0  0  0  0  0  0
   93.2270   92.9790  -45.0200 H   0  0  0  0  0  0  0  0  0  0  0  0
   93.1680   92.3390  -42.4630 H   0  0  0  0  0  0  0  0  0  0  0  0
   93.6280   94.0020  -42.9200 H   0  0  0  0  0  0  0  0  0  0  0  0
   90.6840   93.4930  -42.6050 H   0  0  0  0  0  0  0  0  0  0  0  0
   91.6670   93.5560  -41.0470 H   0  0  0  0  0  0  0  0  0  0  0  0
   91.8290   96.2600  -40.4240 H   0  0  0  0  0  0  0  0  0  0  0  0
   90.1460   99.5550  -42.8350 H   0  0  0  0  0  0  0  0  0  0  0  0
   90.1910  101.8670  -41.9320 H   0  0  0  0  0  0  0  0  0  0  0  0
   93.4940  100.8300  -39.5390 H   0  0  0  0  0  0  0  0  0  0  0  0
   93.4640   98.5670  -40.4110 H   0  0  0  0  0  0  0  0  0  0  0  0
   90.7490  104.4930  -39.5480 H   0  0  0  0  0  0  0  0  0  0  0  0
   89.9550  102.8540  -39.3240 H   0  0  0  0  0  0  0  0  0  0  0  0
   90.0820  103.5890  -40.9350 H   0  0  0  0  0  0  0  0  0  0  0  0
   89.5400   97.2840  -45.2470 H   0  0  0  0  0  0  0  0  0  0  0  0
   89.4180   98.6610  -47.2680 H   0  0  0  0  0  0  0  0  0  0  0  0
   93.3810  100.0460  -46.4840 H   0  0  0  0  0  0  0  0  0  0  0  0
   93.5360   98.6880  -44.4670 H   0  0  0  0  0  0  0  0  0  0  0  0
  1  2  1  0  0  0  0
  2  3  1  0  0  0  0
  3 27  1  0  0  0  0
  3  4  1  0  0  0  0
  4 30  1  0  0  0  0
  5  4  1  0  0  0  0
  5  9  1  0  0  0  0
  6  1  1  1  0  0  0
  6  7  1  0  0  0  0
  6  5  1  0  0  0  0
  7  8  1  0  0  0  0
  8 10  1  0  0  0  0
  8  9  2  0  0  0  0
  9 31  1  0  0  0  0
 10 15  1  0  0  0  0
 11 10  2  0  0  0  0
 11 12  1  0  0  0  0
 12 13  2  0  0  0  0
 13 14  1  0  0  0  0
 13 16  1  0  0  0  0
 14 34  1  0  0  0  0
 15 35  1  0  0  0  0
 15 14  2  0  0  0  0
 16 17  1  0  0  0  0
 17 36  1  0  0  0  0
 17 37  1  0  0  0  0
 18  7  1  0  0  0  0
 19 39  1  0  0  0  0
 19 18  2  0  0  0  0
 20 19  1  0  0  0  0
 21 20  2  0  0  0  0
 21 22  1  0  0  0  0
 22 23  2  0  0  0  0
 23 18  1  0  0  0  0
 23 42  1  0  0  0  0
 24 21  1  0  0  0  0
 25  2  1  0  0  0  0
 26  2  1  0  0  0  0
 28  3  1  0  0  0  0
 29  4  1  0  0  0  0
 32 11  1  0  0  0  0
 33 12  1  0  0  0  0
 38 17  1  0  0  0  0
 40 20  1  0  0  0  0
 41 22  1  0  0  0  0
M  END
>  <Pose>
1

>  <Score>
-4.97

$$$$
