
 OpenBabel03212208273D

 43 46  0  0  1  0  0  0  0  0999 V2000
   92.7690   93.1560  -43.5340 S   0  0  0  0  0  0  0  0  0  0  0  0
   91.9810   93.3490  -41.8840 C   0  0  0  0  0  0  0  0  0  0  0  0
   91.4450   94.6970  -41.6450 C   0  0  0  0  0  0  0  0  0  0  0  0
   91.7850   95.7920  -42.5710 C   0  0  0  0  0  0  0  0  0  0  0  0
   91.6370   95.5700  -43.9510 N   0  0  1  0  0  0  0  0  0  0  0  0
   91.3540   96.4120  -45.0730 C   0  0  2  0  0  0  0  0  0  0  0  0
   90.5530   95.4650  -45.9400 C   0  0  0  0  0  0  0  0  0  0  0  0
   91.1950   94.1980  -45.6610 N   0  0  0  0  0  0  0  0  0  0  0  0
   91.7810   94.2610  -44.5600 C   0  0  1  0  0  0  0  0  0  0  0  0
   91.1710   93.0570  -46.5280 C   0  0  0  0  0  0  0  0  0  0  0  0
   91.7820   91.8870  -46.0990 C   0  0  0  0  0  0  0  0  0  0  0  0
   91.8160   90.7460  -46.8960 C   0  0  0  0  0  0  0  0  0  0  0  0
   91.2400   90.7470  -48.1470 C   0  0  0  0  0  0  0  0  0  0  0  0
   90.6310   91.8980  -48.5860 C   0  0  0  0  0  0  0  0  0  0  0  0
   90.6140   93.0310  -47.7630 C   0  0  0  0  0  0  0  0  0  0  0  0
   91.3070   89.1720  -49.2510 B   0  0  0  0  0  0  0  0  0  0  0  0
   92.5400   96.6700  -45.7650 O   0  0  0  0  0  0  0  0  0  0  0  0
   90.6110   97.6540  -44.7870 C   0  0  0  0  0  0  0  0  0  0  0  0
   89.5510   97.9710  -45.6300 C   0  0  0  0  0  0  0  0  0  0  0  0
   88.7950   99.1060  -45.4420 C   0  0  0  0  0  0  0  0  0  0  0  0
   89.0520   99.9880  -44.4070 C   0  0  0  0  0  0  0  0  0  0  0  0
   90.1020   99.6770  -43.5640 C   0  0  0  0  0  0  0  0  0  0  0  0
   90.8680   98.5220  -43.7580 C   0  0  0  0  0  0  0  0  0  0  0  0
   88.2590  101.1470  -44.2330 N   0  0  0  0  0  0  0  0  0  0  0  0
   88.1180  102.0150  -45.1020 O   0  0  0  0  0  0  0  0  0  0  0  0
   87.6010  101.3300  -43.0440 O   0  0  0  0  0  0  0  0  0  0  0  0
   91.1660   92.5700  -41.8260 H   0  0  0  0  0  0  0  0  0  0  0  0
   92.7260   93.0320  -41.1560 H   0  0  0  0  0  0  0  0  0  0  0  0
   90.3400   94.6390  -41.5220 H   0  0  0  0  0  0  0  0  0  0  0  0
   91.8080   95.0180  -40.6140 H   0  0  0  0  0  0  0  0  0  0  0  0
   92.8650   96.0920  -42.3950 H   0  0  0  0  0  0  0  0  0  0  0  0
   91.2250   96.6970  -42.2450 H   0  0  0  0  0  0  0  0  0  0  0  0
   89.5160   95.4820  -45.4860 H   0  0  0  0  0  0  0  0  0  0  0  0
   90.5510   95.7650  -46.9930 H   0  0  0  0  0  0  0  0  0  0  0  0
   92.2510   91.8500  -45.1260 H   0  0  0  0  0  0  0  0  0  0  0  0
   92.3070   89.8410  -46.5330 H   0  0  0  0  0  0  0  0  0  0  0  0
   90.1900   91.9230  -49.5600 H   0  0  0  0  0  0  0  0  0  0  0  0
   90.1330   93.9320  -48.1400 H   0  0  0  0  0  0  0  0  0  0  0  0
   92.3240   96.9910  -46.6550 H   0  0  0  0  0  0  0  0  0  0  0  0
   89.3270   97.2940  -46.4580 H   0  0  0  0  0  0  0  0  0  0  0  0
   87.9570   99.3850  -46.0880 H   0  0  0  0  0  0  0  0  0  0  0  0
   90.3250  100.3560  -42.7420 H   0  0  0  0  0  0  0  0  0  0  0  0
   91.6900   98.3020  -43.0840 H   0  0  0  0  0  0  0  0  0  0  0  0
  1  2  1  0  0  0  0
  2 27  1  0  0  0  0
  2  3  1  0  0  0  0
  2 28  1  0  0  0  0
  3 29  1  0  0  0  0
  3 30  1  0  0  0  0
  4 31  1  0  0  0  0
  4 32  1  0  0  0  0
  4  3  1  0  0  0  0
  5  4  1  6  0  0  0
  6 17  1  6  0  0  0
  6 18  1  0  0  0  0
  6  5  1  0  0  0  0
  7  8  1  0  0  0  0
  7 33  1  0  0  0  0
  7  6  1  0  0  0  0
  8  9  1  0  0  0  0
  9  5  1  0  0  0  0
  9  1  1  6  0  0  0
 10 11  1  0  0  0  0
 10  8  1  0  0  0  0
 11 35  1  0  0  0  0
 12 36  1  0  0  0  0
 12 11  2  0  0  0  0
 13 12  1  0  0  0  0
 14 13  2  0  0  0  0
 14 15  1  0  0  0  0
 15 10  2  0  0  0  0
 16 13  1  0  0  0  0
 18 23  1  0  0  0  0
 19 20  1  0  0  0  0
 19 18  2  0  0  0  0
 20 21  2  0  0  0  0
 21 24  1  0  0  0  0
 21 22  1  0  0  0  0
 22 42  1  0  0  0  0
 23 22  2  0  0  0  0
 23 43  1  0  0  0  0
 24 26  2  0  0  0  0
 25 24  2  0  0  0  0
 34  7  1  0  0  0  0
 37 14  1  0  0  0  0
 38 15  1  0  0  0  0
 39 17  1  0  0  0  0
 40 19  1  0  0  0  0
 41 20  1  0  0  0  0
M  END
>  <Pose>
1

>  <Score>
-4.70

$$$$
