
 OpenBabel03212208273D

 45 48  0  0  1  0  0  0  0  0999 V2000
   88.7210   99.5390  -42.6580 S   0  0  0  0  0  0  0  0  0  0  0  0
   89.5400  101.1320  -42.2390 C   0  0  0  0  0  0  0  0  0  0  0  0
   91.0310  100.8660  -42.3860 C   0  0  0  0  0  0  0  0  0  0  0  0
   91.4270  100.6680  -43.8160 C   0  0  0  0  0  0  0  0  0  0  0  0
   90.8550   99.5170  -44.4440 N   0  0  2  0  0  0  0  0  0  0  0  0
   91.3280   98.4830  -45.3690 C   0  0  1  0  0  0  0  0  0  0  0  0
   90.0660   98.4340  -46.2520 C   0  0  0  0  0  0  0  0  0  0  0  0
   89.0150   98.4850  -45.2520 N   0  0  0  0  0  0  0  0  0  0  0  0
   89.4740   99.1090  -44.2440 C   0  0  1  0  0  0  0  0  0  0  0  0
   87.7100   97.8990  -45.4630 C   0  0  0  0  0  0  0  0  0  0  0  0
   87.4600   97.1660  -46.6190 C   0  0  0  0  0  0  0  0  0  0  0  0
   86.2260   96.5980  -46.8510 C   0  0  0  0  0  0  0  0  0  0  0  0
   85.1770   96.7190  -45.9640 C   0  0  0  0  0  0  0  0  0  0  0  0
   85.4160   97.4420  -44.8200 C   0  0  0  0  0  0  0  0  0  0  0  0
   86.6740   98.0200  -44.5890 C   0  0  0  0  0  0  0  0  0  0  0  0
   83.9460   96.1290  -46.2310 O   0  0  0  0  0  0  0  0  0  0  0  0
   83.6420   94.7730  -46.0690 C   0  0  0  0  0  0  0  0  0  0  0  0
   92.4120   98.9480  -46.0750 O   0  0  0  0  0  0  0  0  0  0  0  0
   91.5300   97.1790  -44.7140 C   0  0  0  0  0  0  0  0  0  0  0  0
   91.5380   96.9560  -43.3550 C   0  0  0  0  0  0  0  0  0  0  0  0
   91.7280   95.6850  -42.8390 C   0  0  0  0  0  0  0  0  0  0  0  0
   91.9120   94.6230  -43.6770 C   0  0  0  0  0  0  0  0  0  0  0  0
   91.9080   94.8280  -45.0390 C   0  0  0  0  0  0  0  0  0  0  0  0
   91.7180   96.0920  -45.5370 C   0  0  0  0  0  0  0  0  0  0  0  0
   92.1830   92.8350  -43.0250 B   0  0  0  0  0  0  0  0  0  0  0  0
   89.2810  101.3870  -41.2160 H   0  0  0  0  0  0  0  0  0  0  0  0
   89.1950  101.8810  -42.9910 H   0  0  0  0  0  0  0  0  0  0  0  0
   91.2730   99.9650  -41.7790 H   0  0  0  0  0  0  0  0  0  0  0  0
   91.6310  101.6910  -41.9670 H   0  0  0  0  0  0  0  0  0  0  0  0
   91.1360  101.5870  -44.3690 H   0  0  0  0  0  0  0  0  0  0  0  0
   92.5390  100.5550  -43.8310 H   0  0  0  0  0  0  0  0  0  0  0  0
   90.0590   99.4180  -46.7750 H   0  0  0  0  0  0  0  0  0  0  0  0
   90.0730   97.5820  -46.9080 H   0  0  0  0  0  0  0  0  0  0  0  0
   88.2390   97.0390  -47.3480 H   0  0  0  0  0  0  0  0  0  0  0  0
   86.0160   96.0190  -47.7560 H   0  0  0  0  0  0  0  0  0  0  0  0
   84.6440   97.5800  -44.0860 H   0  0  0  0  0  0  0  0  0  0  0  0
   86.8170   98.5880  -43.6760 H   0  0  0  0  0  0  0  0  0  0  0  0
   82.9840   94.4150  -46.9120 H   0  0  0  0  0  0  0  0  0  0  0  0
   84.4990   94.0930  -46.0480 H   0  0  0  0  0  0  0  0  0  0  0  0
   82.9950   94.6660  -45.1550 H   0  0  0  0  0  0  0  0  0  0  0  0
   92.5310   98.4950  -46.9440 H   0  0  0  0  0  0  0  0  0  0  0  0
   91.3930   97.8000  -42.7180 H   0  0  0  0  0  0  0  0  0  0  0  0
   91.7280   95.5260  -41.7680 H   0  0  0  0  0  0  0  0  0  0  0  0
   92.0540   93.9890  -45.7130 H   0  0  0  0  0  0  0  0  0  0  0  0
   91.7200   96.2100  -46.6230 H   0  0  0  0  0  0  0  0  0  0  0  0
  1  2  1  0  0  0  0
  2 26  1  0  0  0  0
  3  2  1  0  0  0  0
  3 29  1  0  0  0  0
  3 28  1  0  0  0  0
  4  3  1  0  0  0  0
  5  9  1  0  0  0  0
  5  4  1  6  0  0  0
  6 18  1  6  0  0  0
  6 19  1  0  0  0  0
  6  5  1  0  0  0  0
  7  6  1  0  0  0  0
  7  8  1  0  0  0  0
  8  9  1  0  0  0  0
  9  1  1  1  0  0  0
 10  8  1  0  0  0  0
 10 15  1  0  0  0  0
 11 10  2  0  0  0  0
 12 11  1  0  0  0  0
 12 13  2  0  0  0  0
 13 14  1  0  0  0  0
 14 15  2  0  0  0  0
 14 36  1  0  0  0  0
 15 37  1  0  0  0  0
 16 17  1  0  0  0  0
 16 13  1  0  0  0  0
 17 39  1  0  0  0  0
 17 40  1  0  0  0  0
 19 20  1  0  0  0  0
 20 21  2  0  0  0  0
 20 42  1  0  0  0  0
 21 43  1  0  0  0  0
 22 25  1  0  0  0  0
 22 21  1  0  0  0  0
 23 22  2  0  0  0  0
 24 23  1  0  0  0  0
 24 19  2  0  0  0  0
 27  2  1  0  0  0  0
 30  4  1  0  0  0  0
 31  4  1  0  0  0  0
 32  7  1  0  0  0  0
 33  7  1  0  0  0  0
 34 11  1  0  0  0  0
 35 12  1  0  0  0  0
 38 17  1  0  0  0  0
 41 18  1  0  0  0  0
 44 23  1  0  0  0  0
 45 24  1  0  0  0  0
M  END
>  <Pose>
1

>  <Score>
-4.67

$$$$
