
 OpenBabel03212208273D

 49 52  0  0  0  0  0  0  0  0999 V2000
   89.0800   98.6150  -46.7560 S   0  0  0  0  0  0  0  0  0  0  0  0
   88.0460   97.6670  -47.9140 C   0  0  0  0  0  0  0  0  0  0  0  0
   88.8830   96.4360  -48.0510 C   0  0  0  0  0  0  0  0  0  0  0  0
   89.8800   96.3340  -47.1110 N   0  0  0  0  0  0  0  0  0  0  0  0
   90.1790   97.2590  -46.3460 C   0  0  0  0  0  0  0  0  0  0  0  0
   91.4130   97.3830  -45.0580 S   0  0  0  0  0  0  0  0  0  0  0  0
   90.9010   96.6130  -43.5370 C   0  0  0  0  0  0  0  0  0  0  0  0
   91.6540   96.9570  -42.3210 C   0  0  0  0  0  0  0  0  0  0  0  0
   91.9950   98.1820  -41.9020 N   0  0  0  0  0  0  0  0  0  0  0  0
   92.6940   97.9940  -40.7680 N   0  0  0  0  0  0  0  0  0  0  0  0
   92.7930   96.7450  -40.4840 N   0  0  0  0  0  0  0  0  0  0  0  0
   92.1450   95.9870  -41.4410 C   0  0  0  0  0  0  0  0  0  0  0  0
   92.0840   94.5480  -41.4200 C   0  0  0  0  0  0  0  0  0  0  0  0
   93.0530   93.9370  -40.8170 O   0  0  0  0  0  0  0  0  0  0  0  0
   91.1150   93.7130  -41.9660 N   0  0  0  0  0  0  0  0  0  0  0  0
   91.4610   92.8260  -43.0450 N   0  0  0  0  0  0  0  0  0  0  0  0
   91.8100   93.2630  -44.1890 C   0  0  0  0  0  0  0  0  0  0  0  0
   92.1680   92.4000  -45.3070 C   0  0  0  0  0  0  0  0  0  0  0  0
   93.4060   91.8050  -45.3930 C   0  0  0  0  0  0  0  0  0  0  0  0
   93.7580   90.9800  -46.4420 C   0  0  0  0  0  0  0  0  0  0  0  0
   92.8750   90.7170  -47.4560 C   0  0  0  0  0  0  0  0  0  0  0  0
   91.6030   91.3080  -47.4010 C   0  0  0  0  0  0  0  0  0  0  0  0
   91.2810   92.1270  -46.3400 C   0  0  0  0  0  0  0  0  0  0  0  0
   90.7670   91.0020  -48.4490 O   0  0  0  0  0  0  0  0  0  0  0  0
   90.9710   91.3600  -49.7940 C   0  0  0  0  0  0  0  0  0  0  0  0
   93.2490   89.8850  -48.5010 O   0  0  0  0  0  0  0  0  0  0  0  0
   95.4900   90.1760  -46.5180 B   0  0  0  0  0  0  0  0  0  0  0  0
   91.7720   99.4790  -42.4500 C   0  0  0  0  0  0  0  0  0  0  0  0
   90.8450  100.3910  -42.0930 N   0  0  0  0  0  0  0  0  0  0  0  0
   90.9390  101.4690  -42.7780 O   0  0  0  0  0  0  0  0  0  0  0  0
   91.9200  101.3290  -43.6130 N   0  0  0  0  0  0  0  0  0  0  0  0
   92.4870  100.0950  -43.4550 C   0  0  0  0  0  0  0  0  0  0  0  0
   93.5930   99.5810  -44.1690 N   0  0  0  0  0  4  0  0  0  0  0  0
   87.0370   97.4850  -47.5190 H   0  0  0  0  0  0  0  0  0  0  0  0
   88.0640   98.2050  -48.8820 H   0  0  0  0  0  0  0  0  0  0  0  0
   89.2010   96.2720  -49.1110 H   0  0  0  0  0  0  0  0  0  0  0  0
   88.1660   95.5650  -47.8780 H   0  0  0  0  0  0  0  0  0  0  0  0
   90.9130   95.5210  -43.6960 H   0  0  0  0  0  0  0  0  0  0  0  0
   89.8210   96.8750  -43.2900 H   0  0  0  0  0  0  0  0  0  0  0  0
   90.1170   93.6240  -41.7070 H   0  0  0  0  0  0  0  0  0  0  0  0
   91.8440   94.3250  -44.3370 H   0  0  0  0  0  0  0  0  0  0  0  0
   94.1200   92.0050  -44.5940 H   0  0  0  0  0  0  0  0  0  0  0  0
   90.2980   92.5760  -46.3110 H   0  0  0  0  0  0  0  0  0  0  0  0
   89.9940   91.5840  -50.3090 H   0  0  0  0  0  0  0  0  0  0  0  0
   91.6730   92.1980  -49.8810 H   0  0  0  0  0  0  0  0  0  0  0  0
   91.3550   90.4490  -50.3320 H   0  0  0  0  0  0  0  0  0  0  0  0
   93.2300   99.1350  -45.0520 H   0  0  0  0  0  0  0  0  0  0  0  0
   94.1740   98.9070  -43.6400 H   0  0  0  0  0  0  0  0  0  0  0  0
   94.2010  100.3870  -44.4800 H   0  0  0  0  0  0  0  0  0  0  0  0
  1  5  1  0  0  0  0
  2 34  1  0  0  0  0
  2  1  1  0  0  0  0
  3  2  1  0  0  0  0
  3 37  1  0  0  0  0
  3  4  1  0  0  0  0
  4  5  2  0  0  0  0
  5  6  1  0  0  0  0
  6  7  1  0  0  0  0
  7 39  1  0  0  0  0
  7  8  1  0  0  0  0
  8  9  1  0  0  0  0
  8 12  2  0  0  0  0
  9 10  1  0  0  0  0
 10 11  2  0  0  0  0
 12 13  1  0  0  0  0
 12 11  1  0  0  0  0
 13 14  2  0  0  0  0
 15 40  1  0  0  0  0
 15 13  1  0  0  0  0
 16 15  1  0  0  0  0
 17 16  2  0  0  0  0
 18 17  1  0  0  0  0
 19 18  1  0  0  0  0
 19 42  1  0  0  0  0
 20 19  2  0  0  0  0
 21 22  2  0  0  0  0
 21 20  1  0  0  0  0
 22 23  1  0  0  0  0
 23 43  1  0  0  0  0
 23 18  2  0  0  0  0
 24 22  1  0  0  0  0
 25 24  1  0  0  0  0
 26 21  1  0  0  0  0
 27 20  1  0  0  0  0
 28 29  2  0  0  0  0
 28  9  1  0  0  0  0
 30 29  1  0  0  0  0
 31 32  2  0  0  0  0
 31 30  1  0  0  0  0
 32 28  1  0  0  0  0
 33 48  1  0  0  0  0
 33 32  1  0  0  0  0
 35  2  1  0  0  0  0
 36  3  1  0  0  0  0
 38  7  1  0  0  0  0
 41 17  1  0  0  0  0
 44 25  1  0  0  0  0
 45 25  1  0  0  0  0
 46 25  1  0  0  0  0
 47 33  1  0  0  0  0
 49 33  1  0  0  0  0
M  END
>  <Pose>
1

>  <Score>
-7.38

$$$$
