
 OpenBabel03212208273D

 43 46  0  0  1  0  0  0  0  0999 V2000
   91.6140   93.7840  -45.3200 Cl  0  0  0  0  0  0  0  0  0  0  0  0
   91.8470   94.3680  -43.6590 C   0  0  0  0  0  0  0  0  0  0  0  0
   91.4710   95.6940  -43.3880 C   0  0  0  0  0  0  0  0  0  0  0  0
   91.6490   96.1390  -42.1110 C   0  0  0  0  0  0  0  0  0  0  0  0
   92.1760   95.3020  -41.1440 C   0  0  0  0  0  0  0  0  0  0  0  0
   92.5470   93.9950  -41.4080 C   0  0  0  0  0  0  0  0  0  0  0  0
   92.3740   93.5240  -42.7060 C   0  0  0  0  0  0  0  0  0  0  0  0
   91.0330   96.5450  -44.5500 C   0  0  2  0  0  0  0  0  0  0  0  0
   92.2420   96.7290  -45.3420 N   0  0  0  0  0  0  0  0  0  0  0  0
   92.7890   97.9980  -45.4650 C   0  0  0  0  0  0  0  0  0  0  0  0
   92.5310   99.0260  -44.3830 C   0  0  0  0  0  0  0  0  0  0  0  0
   91.3320   98.8270  -43.6930 N   0  0  0  0  0  0  0  0  0  0  0  0
   90.4330   97.8180  -44.1650 C   0  0  0  0  0  0  0  0  0  0  0  0
   90.8990   99.5340  -42.5420 C   0  0  0  0  0  0  0  0  0  0  0  0
   89.5910   99.5330  -42.4310 O   0  0  0  0  0  0  0  0  0  0  0  0
   91.5820  100.2190  -41.5050 C   0  0  0  0  0  0  0  0  0  0  0  0
   92.9610   99.9410  -41.3450 C   0  0  0  0  0  0  0  0  0  0  0  0
   93.7090  100.6350  -40.4870 N   0  0  0  0  0  0  0  0  0  0  0  0
   93.1990  101.6170  -39.7420 C   0  0  0  0  0  0  0  0  0  0  0  0
   91.8720  101.9320  -39.8540 C   0  0  0  0  0  0  0  0  0  0  0  0
   91.0560  101.2310  -40.7390 C   0  0  0  0  0  0  0  0  0  0  0  0
   91.3220  103.0070  -39.0870 N   0  0  0  0  0  0  0  0  0  0  0  0
   92.1870  103.7330  -38.2120 C   0  0  0  0  0  0  0  0  0  0  0  0
   91.9830  104.9030  -37.8310 O   0  0  0  0  0  0  0  0  0  0  0  0
   93.4150  103.0270  -37.7320 C   0  0  0  0  0  0  0  0  0  0  0  0
   94.0000  102.3320  -38.8440 O   0  0  0  0  0  0  0  0  0  0  0  0
   91.3990   97.1810  -41.8390 H   0  0  0  0  0  0  0  0  0  0  0  0
   92.3140   95.6940  -40.1190 H   0  0  0  0  0  0  0  0  0  0  0  0
   92.9560   93.3680  -40.6040 H   0  0  0  0  0  0  0  0  0  0  0  0
   92.6400   92.5140  -42.9680 H   0  0  0  0  0  0  0  0  0  0  0  0
   90.3560   95.9060  -45.1750 H   0  0  0  0  0  0  0  0  0  0  0  0
   92.9420   95.9960  -45.1110 H   0  0  0  0  0  0  0  0  0  0  0  0
   93.9270   97.8810  -45.5120 H   0  0  0  0  0  0  0  0  0  0  0  0
   92.5240   98.4560  -46.4700 H   0  0  0  0  0  0  0  0  0  0  0  0
   92.2870  100.0340  -45.0050 H   0  0  0  0  0  0  0  0  0  0  0  0
   93.4450   99.3060  -43.8660 H   0  0  0  0  0  0  0  0  0  0  0  0
   89.5920   97.6940  -43.4190 H   0  0  0  0  0  0  0  0  0  0  0  0
   89.8580   98.2360  -45.0790 H   0  0  0  0  0  0  0  0  0  0  0  0
   93.3950   99.1420  -41.9420 H   0  0  0  0  0  0  0  0  0  0  0  0
   90.0650  101.5540  -40.7920 H   0  0  0  0  0  0  0  0  0  0  0  0
   90.3270  103.2710  -39.1560 H   0  0  0  0  0  0  0  0  0  0  0  0
   93.2060  102.2860  -36.9580 H   0  0  0  0  0  0  0  0  0  0  0  0
   94.1840  103.7290  -37.3620 H   0  0  0  0  0  0  0  0  0  0  0  0
  1  2  1  0  0  0  0
  2  3  2  0  0  0  0
  2  7  1  0  0  0  0
  3  4  1  0  0  0  0
  4 27  1  0  0  0  0
  4  5  2  0  0  0  0
  5 28  1  0  0  0  0
  6  5  1  0  0  0  0
  6 29  1  0  0  0  0
  7  6  2  0  0  0  0
  8 31  1  6  0  0  0
  8 13  1  0  0  0  0
  8  3  1  0  0  0  0
  9 32  1  0  0  0  0
  9  8  1  0  0  0  0
 10  9  1  0  0  0  0
 10 11  1  0  0  0  0
 11 36  1  0  0  0  0
 11 12  1  0  0  0  0
 12 14  1  0  0  0  0
 13 12  1  0  0  0  0
 13 37  1  0  0  0  0
 14 15  2  0  0  0  0
 14 16  1  0  0  0  0
 16 17  2  0  0  0  0
 16 21  1  0  0  0  0
 17 18  1  0  0  0  0
 18 19  2  0  0  0  0
 19 26  1  0  0  0  0
 20 19  1  0  0  0  0
 20 22  1  0  0  0  0
 21 20  2  0  0  0  0
 22 23  1  0  0  0  0
 23 24  2  0  0  0  0
 23 25  1  0  0  0  0
 25 43  1  0  0  0  0
 25 42  1  0  0  0  0
 26 25  1  0  0  0  0
 30  7  1  0  0  0  0
 33 10  1  0  0  0  0
 34 10  1  0  0  0  0
 35 11  1  0  0  0  0
 38 13  1  0  0  0  0
 39 17  1  0  0  0  0
 40 21  1  0  0  0  0
 41 22  1  0  0  0  0
M  END
>  <Pose>
1

>  <Score>
-4.54

$$$$
