
 OpenBabel03212208273D

 53 56  0  0  0  0  0  0  0  0999 V2000
   90.3850  104.6650  -35.8560 B   0  0  0  0  0  0  0  0  0  0  0  0
   91.9670  103.8310  -36.5040 C   0  0  0  0  0  0  0  0  0  0  0  0
   92.0420  103.3560  -37.7900 C   0  0  0  0  0  0  0  0  0  0  0  0
   93.2060  102.7480  -38.2570 C   0  0  0  0  0  0  0  0  0  0  0  0
   94.2460  102.6510  -37.3800 C   0  0  0  0  0  0  0  0  0  0  0  0
   94.1750  103.1320  -36.0720 C   0  0  0  0  0  0  0  0  0  0  0  0
   93.0330  103.7240  -35.6280 C   0  0  0  0  0  0  0  0  0  0  0  0
   93.2660  102.2370  -39.6130 C   0  0  0  0  0  0  0  0  0  0  0  0
   94.3450  102.3020  -40.3520 C   0  0  0  0  0  0  0  0  0  0  0  0
   92.0870  101.6150  -40.1670 N   0  0  0  0  0  0  0  0  0  0  0  0
   92.0640  100.2240  -40.2640 N   0  0  0  0  0  0  0  0  0  0  0  0
   92.4250   99.5460  -41.4520 C   0  0  0  0  0  0  0  0  0  0  0  0
   92.8830  100.2070  -42.4120 O   0  0  0  0  0  0  0  0  0  0  0  0
   92.2900   98.1100  -41.6060 C   0  0  0  0  0  0  0  0  0  0  0  0
   92.4500   97.2280  -40.6090 N   0  0  0  0  0  0  0  0  0  0  0  0
   92.2650   96.0410  -41.1280 N   0  0  0  0  0  0  0  0  0  0  0  0
   91.9910   96.1380  -42.4260 N   0  0  0  0  0  0  0  0  0  0  0  0
   91.9920   97.4120  -42.7860 C   0  0  0  0  0  0  0  0  0  0  0  0
   91.7220   98.0830  -44.0370 C   0  0  0  0  0  0  0  0  0  0  0  0
   90.3340   98.1270  -44.4570 N   0  0  0  0  0  0  0  0  0  0  0  0
   89.8170   99.4910  -44.3920 C   0  0  0  0  0  0  0  0  0  0  0  0
   90.7600  100.4830  -45.0360 C   0  0  0  0  0  0  0  0  0  0  0  0
   91.0230  100.0860  -46.4780 C   0  0  0  0  0  0  0  0  0  0  0  0
   90.2510   98.8500  -46.8440 C   0  0  0  0  0  0  0  0  0  0  0  0
   90.2420   97.7470  -45.8630 C   0  0  0  0  0  0  0  0  0  0  0  0
   91.7170   95.0230  -43.2540 C   0  0  0  0  0  0  0  0  0  0  0  0
   91.1990   95.1400  -44.5080 N   0  0  0  0  0  0  0  0  0  0  0  0
   91.0660   93.9450  -44.9900 O   0  0  0  0  0  0  0  0  0  0  0  0
   91.4540   93.0540  -44.1500 N   0  0  0  0  0  0  0  0  0  0  0  0
   91.8710   93.6840  -43.0440 C   0  0  0  0  0  0  0  0  0  0  0  0
   92.3780   93.1050  -41.8710 N   0  0  0  0  0  0  0  0  0  0  0  0
   91.1870  103.4580  -38.4510 H   0  0  0  0  0  0  0  0  0  0  0  0
   95.1780  102.1820  -37.6980 H   0  0  0  0  0  0  0  0  0  0  0  0
   95.0300  103.0340  -35.4000 H   0  0  0  0  0  0  0  0  0  0  0  0
   92.9780  104.0900  -34.6300 H   0  0  0  0  0  0  0  0  0  0  0  0
   95.2670  102.7340  -40.0260 H   0  0  0  0  0  0  0  0  0  0  0  0
   94.3570  101.9080  -41.3720 H   0  0  0  0  0  0  0  0  0  0  0  0
   91.3240  102.2490  -40.4590 H   0  0  0  0  0  0  0  0  0  0  0  0
   91.7580   99.7120  -39.3930 H   0  0  0  0  0  0  0  0  0  0  0  0
   92.0680   99.1550  -44.0590 H   0  0  0  0  0  0  0  0  0  0  0  0
   92.2800   97.5940  -44.8730 H   0  0  0  0  0  0  0  0  0  0  0  0
   89.6620   99.7660  -43.3370 H   0  0  0  0  0  0  0  0  0  0  0  0
   88.8500   99.4940  -44.9090 H   0  0  0  0  0  0  0  0  0  0  0  0
   91.7350  100.5400  -44.5250 H   0  0  0  0  0  0  0  0  0  0  0  0
   90.2610  101.4640  -44.9900 H   0  0  0  0  0  0  0  0  0  0  0  0
   90.6170  100.9050  -47.1130 H   0  0  0  0  0  0  0  0  0  0  0  0
   92.1020  100.0500  -46.7130 H   0  0  0  0  0  0  0  0  0  0  0  0
   89.1760   99.1820  -46.9650 H   0  0  0  0  0  0  0  0  0  0  0  0
   90.5640   98.5590  -47.8560 H   0  0  0  0  0  0  0  0  0  0  0  0
   91.1430   97.1050  -46.0720 H   0  0  0  0  0  0  0  0  0  0  0  0
   89.3590   97.0770  -45.9710 H   0  0  0  0  0  0  0  0  0  0  0  0
   92.7200   93.6190  -41.0300 H   0  0  0  0  0  0  0  0  0  0  0  0
   92.4300   92.0650  -41.8110 H   0  0  0  0  0  0  0  0  0  0  0  0
  2  1  1  0  0  0  0
  2  7  1  0  0  0  0
  3  2  2  0  0  0  0
  4  3  1  0  0  0  0
  4  5  2  0  0  0  0
  5  6  1  0  0  0  0
  6  7  2  0  0  0  0
  6 34  1  0  0  0  0
  7 35  1  0  0  0  0
  8  4  1  0  0  0  0
  9 36  1  0  0  0  0
  9  8  2  0  0  0  0
 10  8  1  0  0  0  0
 11 10  1  0  0  0  0
 11 39  1  0  0  0  0
 12 11  1  0  0  0  0
 13 12  2  0  0  0  0
 14 12  1  0  0  0  0
 14 15  1  0  0  0  0
 16 15  2  0  0  0  0
 17 16  1  0  0  0  0
 18 17  1  0  0  0  0
 18 14  2  0  0  0  0
 19 18  1  0  0  0  0
 20 21  1  0  0  0  0
 20 19  1  0  0  0  0
 21 42  1  0  0  0  0
 22 45  1  0  0  0  0
 22 44  1  0  0  0  0
 22 21  1  0  0  0  0
 23 22  1  0  0  0  0
 24 23  1  0  0  0  0
 24 25  1  0  0  0  0
 25 20  1  0  0  0  0
 26 30  1  0  0  0  0
 26 17  1  0  0  0  0
 27 26  2  0  0  0  0
 28 27  1  0  0  0  0
 28 29  1  0  0  0  0
 29 30  2  0  0  0  0
 30 31  1  0  0  0  0
 31 53  1  0  0  0  0
 31 52  1  0  0  0  0
 32  3  1  0  0  0  0
 33  5  1  0  0  0  0
 37  9  1  0  0  0  0
 38 10  1  0  0  0  0
 40 19  1  0  0  0  0
 41 19  1  0  0  0  0
 43 21  1  0  0  0  0
 46 23  1  0  0  0  0
 47 23  1  0  0  0  0
 48 24  1  0  0  0  0
 49 24  1  0  0  0  0
 50 25  1  0  0  0  0
 51 25  1  0  0  0  0
M  END
>  <Pose>
1

>  <Score>
-6.49

$$$$
