
 OpenBabel03212208273D

 39 42  0  0  1  0  0  0  0  0999 V2000
   93.2000  100.9280  -49.6380 B   0  0  0  0  0  0  0  0  0  0  0  0
   92.2880  100.2300  -48.0950 C   0  0  0  0  0  0  0  0  0  0  0  0
   90.9920   99.7930  -48.1790 C   0  0  0  0  0  0  0  0  0  0  0  0
   90.3550   99.2890  -47.0310 C   0  0  0  0  0  0  0  0  0  0  0  0
   91.0070   99.2270  -45.8350 C   0  0  0  0  0  0  0  0  0  0  0  0
   92.3050   99.6670  -45.7630 C   0  0  0  0  0  0  0  0  0  0  0  0
   92.9520  100.1740  -46.9040 C   0  0  0  0  0  0  0  0  0  0  0  0
   90.3760   98.7040  -44.6270 C   0  0  1  0  0  0  0  0  0  0  0  0
   90.8610   97.4210  -44.1680 C   0  0  0  0  0  0  0  0  0  0  0  0
   91.1940   97.2170  -42.8590 C   0  0  0  0  0  0  0  0  0  0  0  0
   91.0610   98.2450  -41.8690 N   0  0  0  0  0  0  0  0  0  0  0  0
   90.5580   99.4910  -42.3330 C   0  0  0  0  0  0  0  0  0  0  0  0
   90.2300   99.7100  -43.5760 C   0  0  0  0  0  0  0  0  0  0  0  0
   89.7100  101.1070  -43.6960 C   0  0  0  0  0  0  0  0  0  0  0  0
   89.3140  101.6030  -44.7930 O   0  0  0  0  0  0  0  0  0  0  0  0
   89.7730  101.6380  -42.4490 O   0  0  0  0  0  0  0  0  0  0  0  0
   90.3140  100.7540  -41.5270 C   0  0  0  0  0  0  0  0  0  0  0  0
   91.6620   95.9890  -42.4650 N   0  0  0  0  0  0  0  0  0  0  0  0
   91.7930   94.9940  -43.3500 C   0  0  0  0  0  0  0  0  0  0  0  0
   92.2260   93.8710  -42.9660 O   0  0  0  0  0  0  0  0  0  0  0  0
   91.4620   95.2050  -44.6350 N   0  0  0  0  0  0  0  0  0  0  0  0
   91.0020   96.3650  -45.0980 C   0  0  0  0  0  0  0  0  0  0  0  0
   90.6900   96.5700  -46.2970 O   0  0  0  0  0  0  0  0  0  0  0  0
   91.6230   94.0870  -45.5670 C   0  0  0  0  0  0  0  0  0  0  0  0
   92.0000   95.8350  -41.0580 C   0  0  0  0  0  0  0  0  0  0  0  0
   90.4930   99.8500  -49.1280 H   0  0  0  0  0  0  0  0  0  0  0  0
   89.3300   98.9700  -47.1830 H   0  0  0  0  0  0  0  0  0  0  0  0
   92.9170   99.6650  -44.8710 H   0  0  0  0  0  0  0  0  0  0  0  0
   93.9750  100.5250  -46.8640 H   0  0  0  0  0  0  0  0  0  0  0  0
   89.2850   98.4970  -44.9490 H   0  0  0  0  0  0  0  0  0  0  0  0
   91.3270   98.0500  -40.8870 H   0  0  0  0  0  0  0  0  0  0  0  0
   89.6490  100.5310  -40.6690 H   0  0  0  0  0  0  0  0  0  0  0  0
   91.2760  101.1730  -41.1620 H   0  0  0  0  0  0  0  0  0  0  0  0
   90.9760   94.2240  -46.4570 H   0  0  0  0  0  0  0  0  0  0  0  0
   91.3410   93.1490  -45.0810 H   0  0  0  0  0  0  0  0  0  0  0  0
   92.7020   94.0460  -45.8140 H   0  0  0  0  0  0  0  0  0  0  0  0
   92.2350   94.7880  -40.8210 H   0  0  0  0  0  0  0  0  0  0  0  0
   92.7930   96.5430  -40.8000 H   0  0  0  0  0  0  0  0  0  0  0  0
   91.0570   96.0680  -40.4840 H   0  0  0  0  0  0  0  0  0  0  0  0
  1  2  1  0  0  0  0
  2  7  1  0  0  0  0
  3  2  2  0  0  0  0
  3  4  1  0  0  0  0
  4  5  2  0  0  0  0
  5  6  1  0  0  0  0
  5  8  1  0  0  0  0
  6 28  1  0  0  0  0
  7 29  1  0  0  0  0
  7  6  2  0  0  0  0
  8 30  1  6  0  0  0
  8  9  1  0  0  0  0
  8 13  1  0  0  0  0
  9 10  2  0  0  0  0
 10 18  1  0  0  0  0
 10 11  1  0  0  0  0
 11 31  1  0  0  0  0
 12 11  1  0  0  0  0
 12 17  1  0  0  0  0
 13 12  2  0  0  0  0
 14 13  1  0  0  0  0
 14 16  1  0  0  0  0
 15 14  2  0  0  0  0
 16 17  1  0  0  0  0
 17 33  1  0  0  0  0
 17 32  1  0  0  0  0
 18 25  1  0  0  0  0
 19 20  2  0  0  0  0
 19 18  1  0  0  0  0
 21 19  1  0  0  0  0
 22 21  1  0  0  0  0
 22  9  1  0  0  0  0
 23 22  2  0  0  0  0
 24 35  1  0  0  0  0
 24 21  1  0  0  0  0
 25 37  1  0  0  0  0
 25 38  1  0  0  0  0
 25 39  1  0  0  0  0
 26  3  1  0  0  0  0
 27  4  1  0  0  0  0
 34 24  1  0  0  0  0
 36 24  1  0  0  0  0
M  END
>  <Pose>
1

>  <Score>
-4.39

$$$$
