
 OpenBabel03212208273D

 51 53  0  0  0  0  0  0  0  0999 V2000
   84.3410  101.8380  -41.3640 B   0  0  0  0  0  0  0  0  0  0  0  0
   85.1610  100.6400  -42.6040 C   0  0  0  0  0  0  0  0  0  0  0  0
   84.3650   99.7000  -43.2280 C   0  0  0  0  0  0  0  0  0  0  0  0
   84.9620   98.8420  -44.1180 C   0  0  0  0  0  0  0  0  0  0  0  0
   86.3170   98.9160  -44.3830 C   0  0  0  0  0  0  0  0  0  0  0  0
   87.1040   99.8400  -43.7700 C   0  0  0  0  0  0  0  0  0  0  0  0
   86.5120  100.7050  -42.8750 C   0  0  0  0  0  0  0  0  0  0  0  0
   88.5450   99.9200  -44.0510 C   0  0  0  0  0  0  0  0  0  0  0  0
   89.3040   98.9000  -43.9430 N   0  0  0  0  0  0  0  0  0  0  0  0
   90.7110   98.9760  -44.2180 N   0  0  0  0  0  0  0  0  0  0  0  0
   91.5130   97.9420  -43.6860 C   0  0  0  0  0  0  0  0  0  0  0  0
   91.8460   97.0450  -44.5510 O   0  0  0  0  0  0  0  0  0  0  0  0
   91.9710   97.8110  -42.3080 C   0  0  0  0  0  0  0  0  0  0  0  0
   92.1410   96.5720  -41.7470 N   0  0  0  0  0  0  0  0  0  0  0  0
   92.5550   96.7950  -40.5170 N   0  0  0  0  0  0  0  0  0  0  0  0
   92.6560   98.0580  -40.2640 N   0  0  0  0  0  0  0  0  0  0  0  0
   92.2950   98.7600  -41.3760 C   0  0  0  0  0  0  0  0  0  0  0  0
   92.2640  100.2100  -41.5610 C   0  0  0  0  0  0  0  0  0  0  0  0
   93.5780  100.8350  -41.5720 N   0  0  0  0  0  0  0  0  0  0  0  0
   93.5330  102.0860  -42.3190 C   0  0  0  0  0  0  0  0  0  0  0  0
   93.2310  103.2580  -41.4280 C   0  0  0  0  0  0  0  0  0  0  0  0
   92.5870  102.9230  -40.2520 O   0  0  0  0  0  0  0  0  0  0  0  0
   93.2780  102.0250  -39.4530 C   0  0  0  0  0  0  0  0  0  0  0  0
   94.1120  101.0600  -40.2510 C   0  0  0  0  0  0  0  0  0  0  0  0
   91.9190   95.3190  -42.3620 C   0  0  0  0  0  0  0  0  0  0  0  0
   91.2880   95.0260  -43.5260 N   0  0  0  0  0  0  0  0  0  0  0  0
   91.3140   93.7550  -43.7070 O   0  0  0  0  0  0  0  0  0  0  0  0
   91.9220   93.1330  -42.7480 N   0  0  0  0  0  0  0  0  0  0  0  0
   92.3230   94.0920  -41.8700 C   0  0  0  0  0  0  0  0  0  0  0  0
   93.0310   93.8300  -40.6700 N   0  0  0  0  0  0  0  0  0  0  0  0
   83.8590   97.5300  -44.9900 B   0  0  0  0  0  0  0  0  0  0  0  0
   83.0030   99.5950  -42.9870 O   0  0  0  0  0  0  0  0  0  0  0  0
   94.0850   99.4980  -51.0390 Cl  0  0  0  0  0  0  0  0  0  0  0  0
   86.7660   98.2270  -45.0900 H   0  0  0  0  0  0  0  0  0  0  0  0
   87.1390  101.4360  -42.3920 H   0  0  0  0  0  0  0  0  0  0  0  0
   88.9660  100.8470  -44.3500 H   0  0  0  0  0  0  0  0  0  0  0  0
   91.0480   99.7830  -44.7870 H   0  0  0  0  0  0  0  0  0  0  0  0
   91.8030  100.5240  -42.5200 H   0  0  0  0  0  0  0  0  0  0  0  0
   91.7210  100.7390  -40.7490 H   0  0  0  0  0  0  0  0  0  0  0  0
   94.5280  102.2350  -42.7720 H   0  0  0  0  0  0  0  0  0  0  0  0
   92.8080  101.9400  -43.1410 H   0  0  0  0  0  0  0  0  0  0  0  0
   92.5430  103.9240  -41.9890 H   0  0  0  0  0  0  0  0  0  0  0  0
   94.1410  103.8780  -41.2270 H   0  0  0  0  0  0  0  0  0  0  0  0
   92.5150  101.4200  -38.9050 H   0  0  0  0  0  0  0  0  0  0  0  0
   93.8450  102.5810  -38.6930 H   0  0  0  0  0  0  0  0  0  0  0  0
   94.3870  100.1380  -39.7450 H   0  0  0  0  0  0  0  0  0  0  0  0
   95.0930  101.5980  -40.4300 H   0  0  0  0  0  0  0  0  0  0  0  0
   94.0160   94.1490  -40.6060 H   0  0  0  0  0  0  0  0  0  0  0  0
   92.6240   93.3410  -39.8520 H   0  0  0  0  0  0  0  0  0  0  0  0
   82.4900   98.7360  -43.0820 H   0  0  0  0  0  0  0  0  0  0  0  0
   94.8650  100.2130  -51.9200 H   0  0  0  0  0  0  0  0  0  0  0  0
  2  1  1  0  0  0  0
  3 32  1  0  0  0  0
  3  2  2  0  0  0  0
  4  3  1  0  0  0  0
  5  4  2  0  0  0  0
  5  6  1  0  0  0  0
  6  7  2  0  0  0  0
  7  2  1  0  0  0  0
  7 35  1  0  0  0  0
  8  9  2  0  0  0  0
  8  6  1  0  0  0  0
 10  9  1  0  0  0  0
 10 11  1  0  0  0  0
 11 13  1  0  0  0  0
 12 11  2  0  0  0  0
 13 14  1  0  0  0  0
 13 17  2  0  0  0  0
 14 15  1  0  0  0  0
 15 16  2  0  0  0  0
 17 16  1  0  0  0  0
 18 17  1  0  0  0  0
 18 39  1  0  0  0  0
 19 18  1  0  0  0  0
 19 24  1  0  0  0  0
 20 19  1  0  0  0  0
 20 21  1  0  0  0  0
 21 43  1  0  0  0  0
 21 22  1  0  0  0  0
 22 23  1  0  0  0  0
 23 44  1  0  0  0  0
 23 45  1  0  0  0  0
 24 46  1  0  0  0  0
 24 23  1  0  0  0  0
 25 29  1  0  0  0  0
 25 14  1  0  0  0  0
 26 25  2  0  0  0  0
 27 26  1  0  0  0  0
 27 28  1  0  0  0  0
 28 29  2  0  0  0  0
 29 30  1  0  0  0  0
 30 48  1  0  0  0  0
 30 49  1  0  0  0  0
 31  4  1  0  0  0  0
 34  5  1  0  0  0  0
 36  8  1  0  0  0  0
 37 10  1  0  0  0  0
 38 18  1  0  0  0  0
 40 20  1  0  0  0  0
 41 20  1  0  0  0  0
 42 21  1  0  0  0  0
 47 24  1  0  0  0  0
 50 32  1  0  0  0  0
 51 33  1  0  0  0  0
M  END
>  <Pose>
1

>  <Score>
-6.80

$$$$
