
 OpenBabel03212208273D

 39 42  0  0  1  0  0  0  0  0999 V2000
   91.7650   93.0760  -45.4120 B   0  0  0  0  0  0  0  0  0  0  0  0
   91.7020   94.4220  -44.0680 C   0  0  0  0  0  0  0  0  0  0  0  0
   91.9560   94.0620  -42.7650 C   0  0  0  0  0  0  0  0  0  0  0  0
   91.9030   95.0550  -41.8140 C   0  0  0  0  0  0  0  0  0  0  0  0
   91.6050   96.3730  -42.1740 C   0  0  0  0  0  0  0  0  0  0  0  0
   91.3480   96.7500  -43.4770 C   0  0  0  0  0  0  0  0  0  0  0  0
   91.4030   95.7400  -44.4220 C   0  0  0  0  0  0  0  0  0  0  0  0
   91.0440   98.0890  -43.8440 N   0  0  0  0  0  0  0  0  0  0  0  0
   90.6070   99.1070  -42.9510 C   0  0  0  0  0  0  0  0  0  0  0  0
   89.9700   98.9610  -41.8860 O   0  0  0  0  0  0  0  0  0  0  0  0
   91.0280  100.4410  -43.4760 C   0  0  1  0  0  0  0  0  0  0  0  0
   92.4040  100.8100  -43.0310 C   0  0  1  0  0  0  0  0  0  0  0  0
   93.2340  100.0510  -43.8940 O   0  0  0  0  0  0  0  0  0  0  0  0
   92.7020  100.5620  -45.1050 C   0  0  1  0  0  0  0  0  0  0  0  0
   91.2660  100.1760  -44.9610 C   0  0  1  0  0  0  0  0  0  0  0  0
   91.1040   98.7120  -45.1210 C   0  0  0  0  0  0  0  0  0  0  0  0
   91.0320   98.1170  -46.2160 O   0  0  0  0  0  0  0  0  0  0  0  0
   92.8860  102.0220  -44.8490 C   0  0  0  0  0  0  0  0  0  0  0  0
   92.7090  102.1800  -43.5260 C   0  0  0  0  0  0  0  0  0  0  0  0
   93.3910  100.0550  -46.3000 C   0  0  0  0  0  0  0  0  0  0  0  0
   92.6980  100.5970  -41.6030 C   0  0  0  0  0  0  0  0  0  0  0  0
   93.9230  101.1450  -41.2330 O   0  0  0  0  0  0  0  0  0  0  0  0
   92.2770   92.6570  -42.3780 C   0  0  0  0  0  0  0  0  0  0  0  0
   92.0960   94.8170  -40.7720 H   0  0  0  0  0  0  0  0  0  0  0  0
   91.5760   97.1250  -41.3960 H   0  0  0  0  0  0  0  0  0  0  0  0
   91.2100   95.9950  -45.4630 H   0  0  0  0  0  0  0  0  0  0  0  0
   90.2650  101.2010  -43.3030 H   0  0  0  0  0  0  0  0  0  0  0  0
   90.5660  100.7490  -45.5970 H   0  0  0  0  0  0  0  0  0  0  0  0
   93.1090  102.7460  -45.5960 H   0  0  0  0  0  0  0  0  0  0  0  0
   92.7820  103.1130  -42.9820 H   0  0  0  0  0  0  0  0  0  0  0  0
   92.7480   99.7360  -47.1390 H   0  0  0  0  0  0  0  0  0  0  0  0
   94.0800  100.8310  -46.6990 H   0  0  0  0  0  0  0  0  0  0  0  0
   94.0500   99.1780  -46.0360 H   0  0  0  0  0  0  0  0  0  0  0  0
   92.7440   99.5170  -41.3820 H   0  0  0  0  0  0  0  0  0  0  0  0
   91.9420  101.0980  -40.9650 H   0  0  0  0  0  0  0  0  0  0  0  0
   94.6710  100.4860  -41.2650 H   0  0  0  0  0  0  0  0  0  0  0  0
   91.8290   92.0110  -43.1570 H   0  0  0  0  0  0  0  0  0  0  0  0
   93.3780   92.4640  -42.4310 H   0  0  0  0  0  0  0  0  0  0  0  0
   91.9550   92.4150  -41.3650 H   0  0  0  0  0  0  0  0  0  0  0  0
  1  2  1  0  0  0  0
  2  3  1  0  0  0  0
  3 23  1  0  0  0  0
  3  4  2  0  0  0  0
  4 24  1  0  0  0  0
  5  4  1  0  0  0  0
  5 25  1  0  0  0  0
  6  5  2  0  0  0  0
  7  2  2  0  0  0  0
  7  6  1  0  0  0  0
  8  6  1  0  0  0  0
  8  9  1  0  0  0  0
  9 10  2  0  0  0  0
 11 27  1  1  0  0  0
 11 12  1  0  0  0  0
 11  9  1  0  0  0  0
 12 21  1  1  0  0  0
 13 12  1  0  0  0  0
 14 20  1  6  0  0  0
 14 15  1  0  0  0  0
 14 18  1  0  0  0  0
 14 13  1  0  0  0  0
 15 28  1  6  0  0  0
 15 11  1  0  0  0  0
 16 15  1  0  0  0  0
 16  8  1  0  0  0  0
 17 16  2  0  0  0  0
 18 19  2  0  0  0  0
 19 12  1  0  0  0  0
 19 30  1  0  0  0  0
 20 33  1  0  0  0  0
 21 34  1  0  0  0  0
 21 22  1  0  0  0  0
 21 35  1  0  0  0  0
 23 39  1  0  0  0  0
 26  7  1  0  0  0  0
 29 18  1  0  0  0  0
 31 20  1  0  0  0  0
 32 20  1  0  0  0  0
 36 22  1  0  0  0  0
 37 23  1  0  0  0  0
 38 23  1  0  0  0  0
M  END
>  <Pose>
1

>  <Score>
-4.11

$$$$
