
 OpenBabel03212208273D

 48 51  0  0  0  0  0  0  0  0999 V2000
   93.7150  102.3030  -42.2890 B   0  0  0  0  0  0  0  0  0  0  0  0
   92.3940  100.9310  -42.4450 C   0  0  0  0  0  0  0  0  0  0  0  0
   92.5930   99.6880  -41.8490 C   0  0  0  0  0  0  0  0  0  0  0  0
   91.6380   98.7020  -41.9570 C   0  0  0  0  0  0  0  0  0  0  0  0
   90.4770   98.9330  -42.6530 C   0  0  0  0  0  0  0  0  0  0  0  0
   90.2960  100.1660  -43.2340 C   0  0  0  0  0  0  0  0  0  0  0  0
   91.2270  101.1770  -43.1520 C   0  0  0  0  0  0  0  0  0  0  0  0
   91.8260   97.4090  -41.3300 C   0  0  0  0  0  0  0  0  0  0  0  0
   91.7890   96.2840  -42.0460 C   0  0  0  0  0  0  0  0  0  0  0  0
   91.5760   96.1670  -43.4180 O   0  0  0  0  0  0  0  0  0  0  0  0
   91.6130   94.8550  -43.8030 C   0  0  0  0  0  0  0  0  0  0  0  0
   91.8500   94.0370  -42.7040 C   0  0  0  0  0  0  0  0  0  0  0  0
   91.9270   92.6680  -42.9100 C   0  0  0  0  0  0  0  0  0  0  0  0
   91.7710   92.1480  -44.1740 C   0  0  0  0  0  0  0  0  0  0  0  0
   91.5330   93.0010  -45.2550 C   0  0  0  0  0  0  0  0  0  0  0  0
   91.4520   94.3570  -45.0800 C   0  0  0  0  0  0  0  0  0  0  0  0
   91.1220   95.2000  -46.2300 C   0  0  0  0  0  0  0  0  0  0  0  0
   89.8050   95.7210  -46.2740 N   0  0  0  0  0  4  0  0  0  0  0  0
   89.3840   95.7810  -47.6650 C   0  0  0  0  0  0  0  0  0  0  0  0
   88.5770   96.9770  -48.0330 C   0  0  0  0  0  0  0  0  0  0  0  0
   89.1140   98.2260  -47.6200 N   0  0  0  0  0  0  0  0  0  0  0  0
   90.1480   98.0690  -46.6510 C   0  0  0  0  0  0  0  0  0  0  0  0
   89.7580   97.0260  -45.6580 C   0  0  0  0  0  0  0  0  0  0  0  0
   88.0500   99.0890  -47.1520 C   0  0  0  0  0  0  0  0  0  0  0  0
   91.3910   92.3800  -46.4860 O   0  0  0  0  0  0  0  0  0  0  0  0
   91.9710   94.9270  -41.5370 C   0  0  0  0  0  0  0  0  0  0  0  0
   92.1830   94.5400  -40.3580 O   0  0  0  0  0  0  0  0  0  0  0  0
   93.5290   99.5420  -41.3080 H   0  0  0  0  0  0  0  0  0  0  0  0
   89.7320   98.1530  -42.7400 H   0  0  0  0  0  0  0  0  0  0  0  0
   89.3540  100.3300  -43.7760 H   0  0  0  0  0  0  0  0  0  0  0  0
   91.0380  102.1470  -43.6210 H   0  0  0  0  0  0  0  0  0  0  0  0
   91.9940   97.3450  -40.2720 H   0  0  0  0  0  0  0  0  0  0  0  0
   92.1150   92.0650  -42.0340 H   0  0  0  0  0  0  0  0  0  0  0  0
   91.8410   91.0790  -44.2710 H   0  0  0  0  0  0  0  0  0  0  0  0
   91.8520   96.0810  -46.2070 H   0  0  0  0  0  0  0  0  0  0  0  0
   91.3800   94.6720  -47.1600 H   0  0  0  0  0  0  0  0  0  0  0  0
   89.1100   95.1350  -45.7210 H   0  0  0  0  0  0  0  0  0  0  0  0
   88.8070   94.8950  -47.9760 H   0  0  0  0  0  0  0  0  0  0  0  0
   90.2830   95.7560  -48.3500 H   0  0  0  0  0  0  0  0  0  0  0  0
   88.5340   96.9890  -49.1700 H   0  0  0  0  0  0  0  0  0  0  0  0
   87.4770   96.8800  -47.7600 H   0  0  0  0  0  0  0  0  0  0  0  0
   91.0730   97.6960  -47.1850 H   0  0  0  0  0  0  0  0  0  0  0  0
   90.4330   99.0270  -46.1460 H   0  0  0  0  0  0  0  0  0  0  0  0
   88.7280   97.2300  -45.2300 H   0  0  0  0  0  0  0  0  0  0  0  0
   90.4710   97.0860  -44.7980 H   0  0  0  0  0  0  0  0  0  0  0  0
   87.2160   98.5290  -46.6580 H   0  0  0  0  0  0  0  0  0  0  0  0
   88.3850   99.8960  -46.4680 H   0  0  0  0  0  0  0  0  0  0  0  0
   87.5620   99.5330  -48.0680 H   0  0  0  0  0  0  0  0  0  0  0  0
  2  1  1  0  0  0  0
  2  3  1  0  0  0  0
  3 28  1  0  0  0  0
  4  3  2  0  0  0  0
  4  8  1  0  0  0  0
  5  4  1  0  0  0  0
  6  7  1  0  0  0  0
  6  5  2  0  0  0  0
  7  2  2  0  0  0  0
  8 32  1  0  0  0  0
  9 26  1  0  0  0  0
  9  8  2  0  0  0  0
 10  9  1  0  0  0  0
 11 10  1  0  0  0  0
 11 12  1  0  0  0  0
 12 26  1  0  0  0  0
 13 12  2  0  0  0  0
 13 33  1  0  0  0  0
 14 13  1  0  0  0  0
 15 16  1  0  0  0  0
 15 14  2  0  0  0  0
 16 11  2  0  0  0  0
 17 35  1  0  0  0  0
 17 16  1  0  0  0  0
 18 17  1  0  0  0  0
 18 37  1  0  0  0  0
 18 23  1  0  0  0  0
 19 18  1  0  0  0  0
 20 41  1  0  0  0  0
 20 19  1  0  0  0  0
 20 21  1  0  0  0  0
 21 24  1  0  0  0  0
 21 22  1  0  0  0  0
 22 43  1  0  0  0  0
 22 23  1  0  0  0  0
 23 44  1  0  0  0  0
 23 45  1  0  0  0  0
 24 46  1  0  0  0  0
 24 47  1  0  0  0  0
 25 15  1  0  0  0  0
 26 27  2  0  0  0  0
 29  5  1  0  0  0  0
 30  6  1  0  0  0  0
 31  7  1  0  0  0  0
 34 14  1  0  0  0  0
 36 17  1  0  0  0  0
 38 19  1  0  0  0  0
 39 19  1  0  0  0  0
 40 20  1  0  0  0  0
 42 22  1  0  0  0  0
 48 24  1  0  0  0  0
M  END
>  <Pose>
1

>  <Score>
-5.04

$$$$
