
 OpenBabel03212208273D

 56 59  0  0  1  0  0  0  0  0999 V2000
   91.0770  102.2190  -41.2220 B   0  0  0  0  0  0  0  0  0  0  0  0
   89.4630  101.6230  -42.0290 C   0  0  0  0  0  0  0  0  0  0  0  0
   89.3350  100.2860  -42.3400 C   0  0  0  0  0  0  0  0  0  0  0  0
   88.1470   99.8990  -42.9230 C   0  0  0  0  0  0  0  0  0  0  0  0
   87.1270  100.7880  -43.1900 C   0  0  0  0  0  0  0  0  0  0  0  0
   87.2560  102.1260  -42.8790 C   0  0  0  0  0  0  0  0  0  0  0  0
   88.4360  102.5330  -42.2950 C   0  0  0  0  0  0  0  0  0  0  0  0
   86.2200  103.0210  -43.1520 O   0  0  0  0  0  0  0  0  0  0  0  0
   85.2150  103.3330  -42.2350 C   0  0  0  0  0  0  0  0  0  0  0  0
   85.9320  100.3890  -43.7800 O   0  0  0  0  0  0  0  0  0  0  0  0
   85.3660   99.1250  -43.6430 C   0  0  0  0  0  0  0  0  0  0  0  0
   90.4100   99.3420  -42.0590 C   0  0  0  0  0  0  0  0  0  0  0  0
   90.6440   98.2870  -42.7250 N   0  0  0  0  0  0  0  0  0  0  0  0
   91.6920   97.3930  -42.4300 N   0  0  0  0  0  0  0  0  0  0  0  0
   91.7060   96.1480  -43.1180 C   0  0  0  0  0  0  0  0  0  0  0  0
   91.5950   95.9710  -44.4600 N   0  0  0  0  0  0  0  0  0  0  0  0
   91.6510   94.6410  -44.7290 C   0  0  0  0  0  0  0  0  0  0  0  0
   91.5930   93.9140  -45.8500 N   0  0  0  0  0  0  0  0  0  0  0  0
   91.6760   92.5710  -45.8380 C   0  0  0  0  0  0  0  0  0  0  0  0
   91.8220   91.9360  -44.6540 N   0  0  0  0  0  0  0  0  0  0  0  0
   91.8880   92.5930  -43.5020 C   0  0  0  0  0  0  0  0  0  0  0  0
   91.8010   93.9710  -43.5210 C   0  0  0  0  0  0  0  0  0  0  0  0
   91.8290   94.9110  -42.5910 N   0  0  0  0  0  0  0  0  0  0  0  0
   92.0380   91.9650  -42.2610 O   0  0  0  0  0  0  0  0  0  0  0  0
   91.6110   91.8060  -47.0510 N   0  0  0  0  0  0  0  0  0  0  0  0
   91.4430   97.0150  -45.4250 C   0  0  2  0  0  0  0  0  0  0  0  0
   92.4910   97.9250  -45.4430 O   0  0  0  0  0  0  0  0  0  0  0  0
   92.0450   99.0930  -45.9910 C   0  0  1  0  0  0  0  0  0  0  0  0
   90.5580   99.0730  -46.0850 C   0  0  2  0  0  0  0  0  0  0  0  0
   90.2020   97.8590  -45.2240 C   0  0  1  0  0  0  0  0  0  0  0  0
   89.0590   97.2280  -45.7140 O   0  0  0  0  0  0  0  0  0  0  0  0
   90.1560   98.7300  -47.3920 O   0  0  0  0  0  0  0  0  0  0  0  0
   92.4370  100.2400  -45.0570 C   0  0  0  0  0  0  0  0  0  0  0  0
   93.1860  101.1910  -45.7580 O   0  0  0  0  0  0  0  0  0  0  0  0
   88.0410   98.8390  -43.1720 H   0  0  0  0  0  0  0  0  0  0  0  0
   88.5630  103.5780  -42.0400 H   0  0  0  0  0  0  0  0  0  0  0  0
   84.7310  104.3150  -42.4370 H   0  0  0  0  0  0  0  0  0  0  0  0
   85.6350  103.4320  -41.1940 H   0  0  0  0  0  0  0  0  0  0  0  0
   84.4050  102.5870  -42.1780 H   0  0  0  0  0  0  0  0  0  0  0  0
   84.2770   99.2170  -43.8550 H   0  0  0  0  0  0  0  0  0  0  0  0
   85.5870   98.6100  -42.7030 H   0  0  0  0  0  0  0  0  0  0  0  0
   85.7650   98.4630  -44.4650 H   0  0  0  0  0  0  0  0  0  0  0  0
   91.0670   99.5450  -41.2230 H   0  0  0  0  0  0  0  0  0  0  0  0
   92.4360   97.6030  -41.7470 H   0  0  0  0  0  0  0  0  0  0  0  0
   91.5110   91.1100  -42.1290 H   0  0  0  0  0  0  0  0  0  0  0  0
   91.0900   90.9290  -47.1560 H   0  0  0  0  0  0  0  0  0  0  0  0
   92.1370   92.1870  -47.8650 H   0  0  0  0  0  0  0  0  0  0  0  0
   91.3670   96.6000  -46.4530 H   0  0  0  0  0  0  0  0  0  0  0  0
   92.5350   99.2180  -46.9820 H   0  0  0  0  0  0  0  0  0  0  0  0
   90.0640   99.9860  -45.7240 H   0  0  0  0  0  0  0  0  0  0  0  0
   90.0570   98.1480  -44.1740 H   0  0  0  0  0  0  0  0  0  0  0  0
   88.9840   96.3170  -45.3290 H   0  0  0  0  0  0  0  0  0  0  0  0
   90.8060   98.1350  -47.8240 H   0  0  0  0  0  0  0  0  0  0  0  0
   93.0520   99.7950  -44.2560 H   0  0  0  0  0  0  0  0  0  0  0  0
   91.5070  100.6620  -44.6510 H   0  0  0  0  0  0  0  0  0  0  0  0
   94.0120  101.4340  -45.2670 H   0  0  0  0  0  0  0  0  0  0  0  0
  2  1  1  0  0  0  0
  3 12  1  0  0  0  0
  3  2  2  0  0  0  0
  4  3  1  0  0  0  0
  5  4  2  0  0  0  0
  5  6  1  0  0  0  0
  6  7  2  0  0  0  0
  7 36  1  0  0  0  0
  7  2  1  0  0  0  0
  8  6  1  0  0  0  0
  8  9  1  0  0  0  0
  9 39  1  0  0  0  0
  9 38  1  0  0  0  0
 10 11  1  0  0  0  0
 10  5  1  0  0  0  0
 11 41  1  0  0  0  0
 12 43  1  0  0  0  0
 13 14  1  0  0  0  0
 13 12  2  0  0  0  0
 14 44  1  0  0  0  0
 15 23  2  0  0  0  0
 15 14  1  0  0  0  0
 16 15  1  0  0  0  0
 17 16  1  0  0  0  0
 17 22  2  0  0  0  0
 18 19  2  0  0  0  0
 18 17  1  0  0  0  0
 19 20  1  0  0  0  0
 20 21  2  0  0  0  0
 21 24  1  0  0  0  0
 22 21  1  0  0  0  0
 22 23  1  0  0  0  0
 24 45  1  0  0  0  0
 25 19  1  0  0  0  0
 26 48  1  6  0  0  0
 26 30  1  0  0  0  0
 26 16  1  0  0  0  0
 27 26  1  0  0  0  0
 28 49  1  6  0  0  0
 28 27  1  0  0  0  0
 28 33  1  0  0  0  0
 29 28  1  0  0  0  0
 29 50  1  1  0  0  0
 29 30  1  0  0  0  0
 30 51  1  1  0  0  0
 31 52  1  0  0  0  0
 31 30  1  0  0  0  0
 32 29  1  0  0  0  0
 33 55  1  0  0  0  0
 33 54  1  0  0  0  0
 34 56  1  0  0  0  0
 34 33  1  0  0  0  0
 35  4  1  0  0  0  0
 37  9  1  0  0  0  0
 40 11  1  0  0  0  0
 42 11  1  0  0  0  0
 46 25  1  0  0  0  0
 47 25  1  0  0  0  0
 53 32  1  0  0  0  0
M  END
>  <Pose>
1

>  <Score>
-7.11

$$$$
