
 OpenBabel03212208273D

 33 36  0  0  1  0  0  0  0  0999 V2000
   91.8340   93.2970  -45.0050 B   0  0  0  0  0  0  0  0  0  0  0  0
   91.8170   94.5060  -43.5280 C   0  0  0  0  0  0  0  0  0  0  0  0
   91.7110   95.8620  -43.7050 C   0  0  0  0  0  0  0  0  0  0  0  0
   91.7090   96.7030  -42.6180 C   0  0  0  0  0  0  0  0  0  0  0  0
   91.8120   96.2140  -41.3230 C   0  0  0  0  0  0  0  0  0  0  0  0
   91.9200   94.8590  -41.1220 C   0  0  0  0  0  0  0  0  0  0  0  0
   91.9210   94.0110  -42.2350 C   0  0  0  0  0  0  0  0  0  0  0  0
   91.5880   96.4760  -45.0530 C   0  0  1  0  0  0  0  0  0  0  0  0
   90.3700   97.0800  -45.3680 C   0  0  1  0  0  0  0  0  0  0  0  0
   89.6030   98.2870  -44.9540 C   0  0  0  0  0  0  0  0  0  0  0  0
   90.1050   99.1280  -46.0700 N   0  0  0  0  0  0  0  0  0  0  0  0
   91.3600   98.8540  -46.2390 C   0  0  1  0  0  0  0  0  0  0  0  0
   91.7130   97.8660  -45.2680 C   0  0  2  0  0  0  0  0  0  0  0  0
   91.9940   98.5800  -43.9860 C   0  0  0  0  0  0  0  0  0  0  0  0
   92.2340   99.1250  -42.9640 N   0  0  0  0  0  0  0  0  0  0  0  0
   92.2270   99.4470  -47.2320 N   0  0  0  0  0  0  0  0  0  0  0  0
   88.2430   98.0270  -45.1550 O   0  0  0  0  0  0  0  0  0  0  0  0
   87.5900   98.3590  -43.9840 C   0  0  0  0  0  0  0  0  0  0  0  0
   88.5310   99.3800  -43.3670 C   0  0  0  0  0  0  0  0  0  0  0  0
   89.7690   98.7920  -43.7280 O   0  0  0  0  0  0  0  0  0  0  0  0
   89.9250   96.7690  -46.7740 C   0  0  0  0  0  0  0  0  0  0  0  0
   89.5920   96.5100  -47.8770 N   0  0  0  0  0  0  0  0  0  0  0  0
   91.6260   97.7970  -42.7000 H   0  0  0  0  0  0  0  0  0  0  0  0
   91.8120   96.8560  -40.4610 H   0  0  0  0  0  0  0  0  0  0  0  0
   91.9970   94.4670  -40.1380 H   0  0  0  0  0  0  0  0  0  0  0  0
   92.0030   92.9320  -42.1250 H   0  0  0  0  0  0  0  0  0  0  0  0
   92.1230   95.8180  -45.7960 H   0  0  0  0  0  0  0  0  0  0  0  0
   92.5170   98.9180  -48.0750 H   0  0  0  0  0  0  0  0  0  0  0  0
   92.5750  100.4170  -47.1180 H   0  0  0  0  0  0  0  0  0  0  0  0
   87.5490   97.4580  -43.3340 H   0  0  0  0  0  0  0  0  0  0  0  0
   86.5780   98.7790  -44.1660 H   0  0  0  0  0  0  0  0  0  0  0  0
   88.4120  100.3630  -43.8710 H   0  0  0  0  0  0  0  0  0  0  0  0
   88.4240   99.4630  -42.2770 H   0  0  0  0  0  0  0  0  0  0  0  0
  1  2  1  0  0  0  0
  2  7  1  0  0  0  0
  3  2  2  0  0  0  0
  3  4  1  0  0  0  0
  4  5  2  0  0  0  0
  5  6  1  0  0  0  0
  5 24  1  0  0  0  0
  6 25  1  0  0  0  0
  7 26  1  0  0  0  0
  7  6  2  0  0  0  0
  8 27  1  6  0  0  0
  8  3  1  0  0  0  0
  9 21  1  6  0  0  0
  9 13  1  0  0  0  0
  9  8  1  0  0  0  0
  9 10  1  0  0  0  0
 10 20  1  0  0  0  0
 11 10  1  0  0  0  0
 12 16  1  6  0  0  0
 12 11  1  0  0  0  0
 12 13  1  0  0  0  0
 13  8  1  0  0  0  0
 13 14  1  1  0  0  0
 14 15  3  0  0  0  0
 16 29  1  0  0  0  0
 17 10  1  0  0  0  0
 17 18  1  0  0  0  0
 18 19  1  0  0  0  0
 18 30  1  0  0  0  0
 19 33  1  0  0  0  0
 20 19  1  0  0  0  0
 22 21  3  0  0  0  0
 23  4  1  0  0  0  0
 28 16  1  0  0  0  0
 31 18  1  0  0  0  0
 32 19  1  0  0  0  0
M  END
>  <Pose>
1

>  <Score>
-3.99

$$$$
