
 OpenBabel03212208273D

 57 60  0  0  1  0  0  0  0  0999 V2000
   93.9160  103.7020  -50.0370 B   0  0  0  0  0  0  0  0  0  0  0  0
   93.4830  102.2840  -48.8400 C   0  0  0  0  0  0  0  0  0  0  0  0
   93.2170  101.0090  -49.3160 C   0  0  0  0  0  0  0  0  0  0  0  0
   92.9030   99.9740  -48.4710 C   0  0  0  0  0  0  0  0  0  0  0  0
   92.8500  100.2000  -47.1160 C   0  0  0  0  0  0  0  0  0  0  0  0
   93.1150  101.4780  -46.6180 C   0  0  0  0  0  0  0  0  0  0  0  0
   93.4280  102.5050  -47.4750 C   0  0  0  0  0  0  0  0  0  0  0  0
   92.5590   99.1590  -46.1540 C   0  0  1  0  0  0  0  0  0  0  0  0
   93.4670   98.9780  -45.2380 O   0  0  0  0  0  0  0  0  0  0  0  0
   91.4230   98.2740  -46.0290 C   0  0  1  0  0  0  0  0  0  0  0  0
   91.6010   97.3090  -44.9760 N   0  0  0  0  0  0  0  0  0  0  0  0
   91.7520   98.1900  -43.7950 C   0  0  2  0  0  0  0  0  0  0  0  0
   91.7640   97.3500  -42.6610 N   0  0  0  0  0  0  0  0  0  0  0  0
   91.7590   95.9950  -43.1220 C   0  0  0  0  0  0  0  0  0  0  0  0
   91.6620   95.9980  -44.5150 C   0  0  0  0  0  0  0  0  0  0  0  0
   91.6430   94.7900  -45.1800 C   0  0  0  0  0  0  0  0  0  0  0  0
   91.5550   94.8180  -46.4350 O   0  0  0  0  0  0  0  0  0  0  0  0
   91.7180   93.6500  -44.4840 N   0  0  0  0  0  0  0  0  0  0  0  0
   91.8090   93.6770  -43.1650 C   0  0  0  0  0  0  0  0  0  0  0  0
   91.8770   92.5800  -42.5470 O   0  0  0  0  0  0  0  0  0  0  0  0
   91.8320   94.8430  -42.4490 N   0  0  0  0  0  0  0  0  0  0  0  0
   91.9370   94.7360  -41.0110 C   0  0  0  0  0  0  0  0  0  0  0  0
   91.6940   92.3880  -45.2310 C   0  0  0  0  0  0  0  0  0  0  0  0
   91.8090   97.7260  -41.2720 C   0  0  0  0  0  0  0  0  0  0  0  0
   90.7230   99.2250  -43.9730 C   0  0  1  0  0  0  0  0  0  0  0  0
   90.2430   99.0480  -45.4200 C   0  0  1  0  0  0  0  0  0  0  0  0
   89.9980  100.3300  -46.0740 C   0  0  0  0  0  0  0  0  0  0  0  0
   89.9660  101.4010  -45.3820 O   0  0  0  0  0  0  0  0  0  0  0  0
   89.7970  100.4310  -47.4240 O   0  0  0  0  0  0  0  0  0  0  0  0
   89.0270   99.4870  -48.1710 C   0  0  0  0  0  0  0  0  0  0  0  0
   89.5980   99.2700  -43.0480 C   0  0  0  0  0  0  0  0  0  0  0  0
   88.4620   98.8760  -43.4210 O   0  0  0  0  0  0  0  0  0  0  0  0
   89.7340   99.7340  -41.7580 O   0  0  0  0  0  0  0  0  0  0  0  0
   90.4040  100.9440  -41.4770 C   0  0  0  0  0  0  0  0  0  0  0  0
   93.2530  100.8060  -50.3750 H   0  0  0  0  0  0  0  0  0  0  0  0
   92.6880   99.0210  -48.8770 H   0  0  0  0  0  0  0  0  0  0  0  0
   93.0810  101.6960  -45.5350 H   0  0  0  0  0  0  0  0  0  0  0  0
   93.6320  103.5040  -47.0640 H   0  0  0  0  0  0  0  0  0  0  0  0
   91.1090   97.7950  -46.9860 H   0  0  0  0  0  0  0  0  0  0  0  0
   92.7590   98.6830  -43.8380 H   0  0  0  0  0  0  0  0  0  0  0  0
   91.1840   95.3250  -40.4550 H   0  0  0  0  0  0  0  0  0  0  0  0
   91.6890   93.6650  -40.7060 H   0  0  0  0  0  0  0  0  0  0  0  0
   92.9790   94.8520  -40.6380 H   0  0  0  0  0  0  0  0  0  0  0  0
   90.7620   92.3030  -45.8290 H   0  0  0  0  0  0  0  0  0  0  0  0
   91.8330   91.5350  -44.5390 H   0  0  0  0  0  0  0  0  0  0  0  0
   92.5430   92.3960  -45.9490 H   0  0  0  0  0  0  0  0  0  0  0  0
   92.1450   98.8050  -41.1780 H   0  0  0  0  0  0  0  0  0  0  0  0
   90.8850   97.6380  -40.7140 H   0  0  0  0  0  0  0  0  0  0  0  0
   92.6530   97.1870  -40.7350 H   0  0  0  0  0  0  0  0  0  0  0  0
   91.2150  100.2550  -44.0040 H   0  0  0  0  0  0  0  0  0  0  0  0
   89.3540   98.3650  -45.4170 H   0  0  0  0  0  0  0  0  0  0  0  0
   87.9360   99.7070  -48.0530 H   0  0  0  0  0  0  0  0  0  0  0  0
   89.3470   99.5720  -49.2270 H   0  0  0  0  0  0  0  0  0  0  0  0
   89.2910   98.4880  -47.7360 H   0  0  0  0  0  0  0  0  0  0  0  0
   90.2400  101.1720  -40.3940 H   0  0  0  0  0  0  0  0  0  0  0  0
   91.4990  100.7330  -41.5750 H   0  0  0  0  0  0  0  0  0  0  0  0
   90.0770  101.7750  -42.1350 H   0  0  0  0  0  0  0  0  0  0  0  0
  1  2  1  0  0  0  0
  2  7  1  0  0  0  0
  3  2  2  0  0  0  0
  3  4  1  0  0  0  0
  4  5  2  0  0  0  0
  5  6  1  0  0  0  0
  5  8  1  0  0  0  0
  6 37  1  0  0  0  0
  7 38  1  0  0  0  0
  7  6  2  0  0  0  0
  8 10  1  0  0  0  0
  8  9  1  1  0  0  0
 10 39  1  6  0  0  0
 10 26  1  0  0  0  0
 10 11  1  0  0  0  0
 11 15  1  0  0  0  0
 11 12  1  0  0  0  0
 12 40  1  6  0  0  0
 12 13  1  0  0  0  0
 13 24  1  0  0  0  0
 14 13  1  0  0  0  0
 14 21  1  0  0  0  0
 15 14  2  0  0  0  0
 16 15  1  0  0  0  0
 16 18  1  0  0  0  0
 17 16  2  0  0  0  0
 18 19  1  0  0  0  0
 19 20  2  0  0  0  0
 19 21  1  0  0  0  0
 21 22  1  0  0  0  0
 22 42  1  0  0  0  0
 22 43  1  0  0  0  0
 22 41  1  0  0  0  0
 23 45  1  0  0  0  0
 23 18  1  0  0  0  0
 24 47  1  0  0  0  0
 24 49  1  0  0  0  0
 24 48  1  0  0  0  0
 25 50  1  1  0  0  0
 25 12  1  0  0  0  0
 25 31  1  0  0  0  0
 26 51  1  6  0  0  0
 26 25  1  0  0  0  0
 27 26  1  0  0  0  0
 27 28  2  0  0  0  0
 29 27  1  0  0  0  0
 30 52  1  0  0  0  0
 30 54  1  0  0  0  0
 30 29  1  0  0  0  0
 31 33  1  0  0  0  0
 32 31  2  0  0  0  0
 33 34  1  0  0  0  0
 34 55  1  0  0  0  0
 35  3  1  0  0  0  0
 36  4  1  0  0  0  0
 44 23  1  0  0  0  0
 46 23  1  0  0  0  0
 53 30  1  0  0  0  0
 56 34  1  0  0  0  0
 57 34  1  0  0  0  0
M  END
>  <Pose>
1

>  <Score>
-4.46

$$$$
