
 OpenBabel03212208273D

 52 55  0  0  1  0  0  0  0  0999 V2000
   84.9880   95.9570  -45.9180 B   0  0  0  0  0  0  0  0  0  0  0  0
   85.0830   97.6340  -44.9660 C   0  0  0  0  0  0  0  0  0  0  0  0
   85.8700   98.6520  -45.4440 C   0  0  0  0  0  0  0  0  0  0  0  0
   85.9920   99.8940  -44.8000 C   0  0  0  0  0  0  0  0  0  0  0  0
   85.2850  100.0850  -43.6520 C   0  0  0  0  0  0  0  0  0  0  0  0
   84.4830   99.0610  -43.1580 C   0  0  0  0  0  0  0  0  0  0  0  0
   84.3780   97.8410  -43.8040 C   0  0  0  0  0  0  0  0  0  0  0  0
   86.8580  100.9080  -45.4260 C   0  0  0  0  0  0  0  0  0  0  0  0
   86.6750  101.3170  -46.5790 O   0  0  0  0  0  0  0  0  0  0  0  0
   87.9400  101.4150  -44.6000 N   0  0  0  0  0  0  0  0  0  0  0  0
   88.8050  100.4770  -43.9270 C   0  0  2  0  0  0  0  0  0  0  0  0
   88.3220  100.5360  -42.4540 C   0  0  0  0  0  0  0  0  0  0  0  0
   90.2440  100.8820  -43.9150 C   0  0  0  0  0  0  0  0  0  0  0  0
   90.6040  101.7210  -43.0640 O   0  0  0  0  0  0  0  0  0  0  0  0
   91.1770  100.3440  -44.8090 N   0  0  0  0  0  0  0  0  0  0  0  0
   92.5970  100.4420  -44.8380 C   0  0  0  0  0  0  0  0  0  0  0  0
   93.0550   99.1180  -45.4700 C   0  0  0  0  0  0  0  0  0  0  0  0
   92.1000   97.9880  -45.1710 C   0  0  1  0  0  0  0  0  0  0  0  0
   92.5380   96.7590  -45.7750 N   0  0  0  0  0  0  0  0  0  0  0  0
   91.5080   95.7440  -45.5150 C   0  0  0  0  0  0  0  0  0  0  0  0
   91.4180   95.4030  -44.0600 C   0  0  0  0  0  0  0  0  0  0  0  0
   91.7170   96.5560  -43.1810 C   0  0  0  0  0  0  0  0  0  0  0  0
   91.7280   96.6470  -41.8480 N   0  0  0  0  0  0  0  0  0  0  0  0
   92.0580   97.9090  -41.5080 C   0  0  0  0  0  0  0  0  0  0  0  0
   92.2480   98.5910  -42.6450 N   0  0  0  0  0  0  0  0  0  0  0  0
   92.0520   97.8070  -43.7160 C   0  0  0  0  0  0  0  0  0  0  0  0
   90.7020   98.2290  -45.7630 C   0  0  0  0  0  0  0  0  0  0  0  0
   90.6600   99.6690  -46.0470 C   0  0  0  0  0  0  0  0  0  0  0  0
   86.4470   98.5110  -46.3470 H   0  0  0  0  0  0  0  0  0  0  0  0
   85.3580  101.0380  -43.1300 H   0  0  0  0  0  0  0  0  0  0  0  0
   83.9150   99.1880  -42.2760 H   0  0  0  0  0  0  0  0  0  0  0  0
   83.7680   97.0110  -43.4460 H   0  0  0  0  0  0  0  0  0  0  0  0
   88.0800  102.4180  -44.4940 H   0  0  0  0  0  0  0  0  0  0  0  0
   88.6400   99.4300  -44.2310 H   0  0  0  0  0  0  0  0  0  0  0  0
   88.4640  101.6450  -42.2150 H   0  0  0  0  0  0  0  0  0  0  0  0
   87.2750  100.3090  -42.3780 H   0  0  0  0  0  0  0  0  0  0  0  0
   88.9750   99.9460  -41.8070 H   0  0  0  0  0  0  0  0  0  0  0  0
   92.8460  101.2560  -45.5680 H   0  0  0  0  0  0  0  0  0  0  0  0
   93.0800  100.6410  -43.8890 H   0  0  0  0  0  0  0  0  0  0  0  0
   93.9900   98.8720  -44.9500 H   0  0  0  0  0  0  0  0  0  0  0  0
   93.3170   99.2300  -46.5270 H   0  0  0  0  0  0  0  0  0  0  0  0
   92.5610   96.8750  -46.8160 H   0  0  0  0  0  0  0  0  0  0  0  0
   90.5090   96.0140  -45.8520 H   0  0  0  0  0  0  0  0  0  0  0  0
   91.7970   94.7990  -46.0600 H   0  0  0  0  0  0  0  0  0  0  0  0
   92.0170   94.4880  -43.7880 H   0  0  0  0  0  0  0  0  0  0  0  0
   90.3540   95.0980  -43.8150 H   0  0  0  0  0  0  0  0  0  0  0  0
   91.5310   95.9210  -41.1240 H   0  0  0  0  0  0  0  0  0  0  0  0
   92.1650   98.3470  -40.5350 H   0  0  0  0  0  0  0  0  0  0  0  0
   89.9860   97.8470  -45.0360 H   0  0  0  0  0  0  0  0  0  0  0  0
   90.5960   97.7170  -46.7630 H   0  0  0  0  0  0  0  0  0  0  0  0
   89.7770  100.1610  -46.4040 H   0  0  0  0  0  0  0  0  0  0  0  0
   91.4320   99.8500  -46.8710 H   0  0  0  0  0  0  0  0  0  0  0  0
  1  2  1  0  0  0  0
  2  7  1  0  0  0  0
  3  2  2  0  0  0  0
  3  4  1  0  0  0  0
  4  5  2  0  0  0  0
  5  6  1  0  0  0  0
  5 30  1  0  0  0  0
  6 31  1  0  0  0  0
  7 32  1  0  0  0  0
  7  6  2  0  0  0  0
  8  4  1  0  0  0  0
  8 10  1  0  0  0  0
  9  8  2  0  0  0  0
 10 33  1  0  0  0  0
 10 11  1  0  0  0  0
 11 34  1  6  0  0  0
 11 13  1  0  0  0  0
 11 12  1  0  0  0  0
 12 36  1  0  0  0  0
 12 35  1  0  0  0  0
 12 37  1  0  0  0  0
 13 14  2  0  0  0  0
 15 13  1  0  0  0  0
 16 15  1  0  0  0  0
 16 39  1  0  0  0  0
 17 18  1  0  0  0  0
 17 40  1  0  0  0  0
 17 16  1  0  0  0  0
 18 26  1  1  0  0  0
 19 20  1  0  0  0  0
 19 18  1  0  0  0  0
 20 21  1  0  0  0  0
 21 46  1  0  0  0  0
 21 45  1  0  0  0  0
 21 22  1  0  0  0  0
 22 23  1  0  0  0  0
 23 24  1  0  0  0  0
 23 47  1  0  0  0  0
 24 48  1  0  0  0  0
 25 24  2  0  0  0  0
 26 22  2  0  0  0  0
 26 25  1  0  0  0  0
 27 18  1  0  0  0  0
 27 49  1  0  0  0  0
 28 27  1  0  0  0  0
 28 15  1  0  0  0  0
 29  3  1  0  0  0  0
 38 16  1  0  0  0  0
 41 17  1  0  0  0  0
 42 19  1  0  0  0  0
 43 20  1  0  0  0  0
 44 20  1  0  0  0  0
 50 27  1  0  0  0  0
 51 28  1  0  0  0  0
 52 28  1  0  0  0  0
M  END
>  <Pose>
1

>  <Score>
-5.00

$$$$
