
 OpenBabel03212208273D

 45 48  0  0  0  0  0  0  0  0999 V2000
   91.7480   91.3130  -46.8970 B   0  0  0  0  0  0  0  0  0  0  0  0
   91.6210   92.8830  -45.7920 C   0  0  0  0  0  0  0  0  0  0  0  0
   90.9650   94.0130  -46.2470 C   0  0  0  0  0  0  0  0  0  0  0  0
   90.8670   95.1270  -45.4810 N   0  0  0  0  0  0  0  0  0  0  0  0
   91.4030   95.1650  -44.2560 C   0  0  0  0  0  0  0  0  0  0  0  0
   91.3030   96.2710  -43.5010 N   0  0  0  0  0  0  0  0  0  0  0  0
   90.6700   97.3780  -43.9250 C   0  0  0  0  0  0  0  0  0  0  0  0
   90.1190   97.3410  -45.1820 C   0  0  0  0  0  0  0  0  0  0  0  0
   90.2140   96.1950  -45.9840 C   0  0  0  0  0  0  0  0  0  0  0  0
   89.6980   96.1940  -47.1300 O   0  0  0  0  0  0  0  0  0  0  0  0
   90.5940   98.5630  -43.0480 C   0  0  0  0  0  0  0  0  0  0  0  0
   89.8270   99.5290  -43.7140 O   0  0  0  0  0  0  0  0  0  0  0  0
   89.1380  100.4870  -42.9210 C   0  0  0  0  0  0  0  0  0  0  0  0
   89.9200  101.2220  -42.3320 O   0  0  0  0  0  0  0  0  0  0  0  0
   87.6880  100.4730  -42.9150 C   0  0  0  0  0  0  0  0  0  0  0  0
   87.0060   99.2900  -42.9870 N   0  0  0  0  0  0  0  0  0  0  0  0
   85.6850   99.2500  -42.9820 N   0  0  0  0  0  0  0  0  0  0  0  0
   84.9500  100.3720  -42.9060 C   0  0  0  0  0  0  0  0  0  0  0  0
   83.6740  100.3200  -42.9030 O   0  0  0  0  0  0  0  0  0  0  0  0
   85.5590  101.6020  -42.8320 C   0  0  0  0  0  0  0  0  0  0  0  0
   86.9560  101.6170  -42.8380 C   0  0  0  0  0  0  0  0  0  0  0  0
   87.5210  102.8660  -42.7600 C   0  0  0  0  0  0  0  0  0  0  0  0
   86.7510  104.0220  -42.6820 C   0  0  0  0  0  0  0  0  0  0  0  0
   85.3770  103.9700  -42.6790 C   0  0  0  0  0  0  0  0  0  0  0  0
   84.7890  102.7330  -42.7550 C   0  0  0  0  0  0  0  0  0  0  0  0
   84.9740   97.9910  -43.0600 C   0  0  0  0  0  0  0  0  0  0  0  0
   84.7750   97.5280  -44.4790 C   0  0  0  0  0  0  0  0  0  0  0  0
   85.5060   96.3930  -44.7780 O   0  0  0  0  0  0  0  0  0  0  0  0
   92.0560   94.0560  -43.7880 C   0  0  0  0  0  0  0  0  0  0  0  0
   92.1780   92.9040  -44.5370 C   0  0  0  0  0  0  0  0  0  0  0  0
   90.5350   93.9600  -47.2490 H   0  0  0  0  0  0  0  0  0  0  0  0
   89.5980   98.2010  -45.5770 H   0  0  0  0  0  0  0  0  0  0  0  0
   90.2180   98.3220  -42.0340 H   0  0  0  0  0  0  0  0  0  0  0  0
   91.6490   98.9120  -42.8740 H   0  0  0  0  0  0  0  0  0  0  0  0
   88.5700  102.9880  -42.7580 H   0  0  0  0  0  0  0  0  0  0  0  0
   87.2450  104.9840  -42.6230 H   0  0  0  0  0  0  0  0  0  0  0  0
   84.7680  104.8760  -42.6170 H   0  0  0  0  0  0  0  0  0  0  0  0
   83.7200  102.6690  -42.7530 H   0  0  0  0  0  0  0  0  0  0  0  0
   83.9720   98.0990  -42.6020 H   0  0  0  0  0  0  0  0  0  0  0  0
   85.5170   97.2150  -42.4990 H   0  0  0  0  0  0  0  0  0  0  0  0
   84.9950   98.3310  -45.2070 H   0  0  0  0  0  0  0  0  0  0  0  0
   83.7030   97.2710  -44.5880 H   0  0  0  0  0  0  0  0  0  0  0  0
   85.2750   95.7060  -44.1090 H   0  0  0  0  0  0  0  0  0  0  0  0
   92.5030   94.0690  -42.7840 H   0  0  0  0  0  0  0  0  0  0  0  0
   92.6930   92.0340  -44.1630 H   0  0  0  0  0  0  0  0  0  0  0  0
  1  2  1  0  0  0  0
  2 30  2  0  0  0  0
  3  2  1  0  0  0  0
  3  4  1  0  0  0  0
  4  5  1  0  0  0  0
  5 29  2  0  0  0  0
  5  6  1  0  0  0  0
  7  6  2  0  0  0  0
  7 11  1  0  0  0  0
  8  7  1  0  0  0  0
  9  4  1  0  0  0  0
  9  8  1  0  0  0  0
 10  9  2  0  0  0  0
 11 34  1  0  0  0  0
 11 33  1  0  0  0  0
 12 11  1  0  0  0  0
 12 13  1  0  0  0  0
 13 15  1  0  0  0  0
 13 14  2  0  0  0  0
 15 21  1  0  0  0  0
 16 17  1  0  0  0  0
 16 15  2  0  0  0  0
 17 18  1  0  0  0  0
 18 19  2  0  0  0  0
 18 20  1  0  0  0  0
 20 25  1  0  0  0  0
 21 20  2  0  0  0  0
 21 22  1  0  0  0  0
 22 35  1  0  0  0  0
 22 23  2  0  0  0  0
 23 24  1  0  0  0  0
 23 36  1  0  0  0  0
 24 37  1  0  0  0  0
 25 38  1  0  0  0  0
 25 24  2  0  0  0  0
 26 17  1  0  0  0  0
 26 39  1  0  0  0  0
 26 40  1  0  0  0  0
 27 26  1  0  0  0  0
 28 27  1  0  0  0  0
 28 43  1  0  0  0  0
 29 44  1  0  0  0  0
 30 45  1  0  0  0  0
 30 29  1  0  0  0  0
 31  3  1  0  0  0  0
 32  8  1  0  0  0  0
 41 27  1  0  0  0  0
 42 27  1  0  0  0  0
M  END
>  <Pose>
1

>  <Score>
-5.93

$$$$
