
 OpenBabel03212208273D

 55 57  0  0  1  0  0  0  0  0999 V2000
   83.5980  103.0130  -40.0810 Cl  0  0  0  0  0  0  0  0  0  0  0  0
   84.7260  102.6430  -41.3950 C   0  0  0  0  0  0  0  0  0  0  0  0
   84.8580  101.3410  -41.8200 C   0  0  0  0  0  0  0  0  0  0  0  0
   85.7300  101.0110  -42.8440 C   0  0  0  0  0  0  0  0  0  0  0  0
   86.0540   99.8570  -43.4470 N   0  0  0  0  0  0  0  0  0  0  0  0
   86.9960  100.1030  -44.4240 C   0  0  0  0  0  0  0  0  0  0  0  0
   87.2120  101.4130  -44.3820 N   0  0  0  0  0  0  0  0  0  0  0  0
   86.4570  102.0250  -43.4230 C   0  0  0  0  0  0  0  0  0  0  0  0
   86.3320  103.3320  -43.0040 C   0  0  0  0  0  0  0  0  0  0  0  0
   85.4640  103.6490  -41.9870 C   0  0  0  0  0  0  0  0  0  0  0  0
   88.0850  102.1930  -45.2410 C   0  0  0  0  0  0  0  0  0  0  0  0
   87.5450   99.0670  -45.3360 C   0  0  0  0  0  0  0  0  0  0  0  0
   88.9690   99.1670  -45.6840 C   0  0  0  0  0  0  0  0  0  0  0  0
   89.7170   97.9220  -45.8910 C   0  0  0  0  0  0  0  0  0  0  0  0
   89.3590   97.0510  -46.7160 O   0  0  0  0  0  0  0  0  0  0  0  0
   90.9100   97.6930  -45.1110 N   0  0  0  0  0  0  0  0  0  0  0  0
   91.1970   96.3610  -44.6530 C   0  0  0  0  0  0  0  0  0  0  0  0
   91.0560   96.3650  -43.1450 C   0  0  2  0  0  0  0  0  0  0  0  0
   91.4270   97.6580  -42.5150 C   0  0  1  0  0  0  0  0  0  0  0  0
   92.2840   98.5500  -43.3360 C   0  0  0  0  0  0  0  0  0  0  0  0
   91.8470   98.7230  -44.7540 C   0  0  0  0  0  0  0  0  0  0  0  0
   90.3110   98.3990  -42.0950 O   0  0  0  0  0  0  0  0  0  0  0  0
   92.2020   97.3330  -41.2310 C   0  0  0  0  0  0  0  0  0  0  0  0
   91.7930   95.2360  -42.6300 N   0  0  0  0  0  0  0  0  0  0  0  0
   91.9200   94.1150  -43.3670 C   0  0  0  0  0  0  0  0  0  0  0  0
   92.6140   93.0150  -42.9150 C   0  0  0  0  0  0  0  0  0  0  0  0
   93.1940   93.0740  -41.6680 C   0  0  0  0  0  0  0  0  0  0  0  0
   93.8500   92.0880  -41.1930 O   0  0  0  0  0  0  0  0  0  0  0  0
   93.0500   94.2030  -40.9570 N   0  0  0  0  0  0  0  0  0  0  0  0
   92.3730   95.2550  -41.4180 C   0  0  2  0  0  0  0  0  0  0  0  0
   92.2670   96.2960  -40.7070 O   0  0  0  0  0  0  0  0  0  0  0  0
   84.3000  100.5180  -41.3850 H   0  0  0  0  0  0  0  0  0  0  0  0
   86.9190  104.0860  -43.4870 H   0  0  0  0  0  0  0  0  0  0  0  0
   85.3400  104.6650  -41.6330 H   0  0  0  0  0  0  0  0  0  0  0  0
   88.4910  101.6160  -46.0790 H   0  0  0  0  0  0  0  0  0  0  0  0
   87.5950  103.1120  -45.6210 H   0  0  0  0  0  0  0  0  0  0  0  0
   88.9240  102.5530  -44.5890 H   0  0  0  0  0  0  0  0  0  0  0  0
   86.8810   99.0270  -46.2380 H   0  0  0  0  0  0  0  0  0  0  0  0
   87.3190   98.0870  -44.8110 H   0  0  0  0  0  0  0  0  0  0  0  0
   89.1650   99.9060  -46.5120 H   0  0  0  0  0  0  0  0  0  0  0  0
   89.4800   99.6650  -44.7920 H   0  0  0  0  0  0  0  0  0  0  0  0
   92.2030   96.0080  -44.9680 H   0  0  0  0  0  0  0  0  0  0  0  0
   90.4780   95.6420  -45.0980 H   0  0  0  0  0  0  0  0  0  0  0  0
   89.9700   96.1780  -42.9320 H   0  0  0  0  0  0  0  0  0  0  0  0
   92.2520   99.5740  -42.8610 H   0  0  0  0  0  0  0  0  0  0  0  0
   93.3630   98.2480  -43.2410 H   0  0  0  0  0  0  0  0  0  0  0  0
   92.7620   98.5630  -45.3960 H   0  0  0  0  0  0  0  0  0  0  0  0
   91.4900   99.7410  -44.9910 H   0  0  0  0  0  0  0  0  0  0  0  0
   90.0630   98.0830  -41.1700 H   0  0  0  0  0  0  0  0  0  0  0  0
   92.1400   98.2540  -40.6020 H   0  0  0  0  0  0  0  0  0  0  0  0
   91.6660   96.5450  -40.6530 H   0  0  0  0  0  0  0  0  0  0  0  0
   93.2520   97.1090  -41.4270 H   0  0  0  0  0  0  0  0  0  0  0  0
   91.4600   94.0670  -44.3600 H   0  0  0  0  0  0  0  0  0  0  0  0
   92.7150   92.1180  -43.5070 H   0  0  0  0  0  0  0  0  0  0  0  0
   93.4820   94.2900  -39.9890 H   0  0  0  0  0  0  0  0  0  0  0  0
  2  1  1  0  0  0  0
  3  2  1  0  0  0  0
  3 32  1  0  0  0  0
  4  3  2  0  0  0  0
  5  4  1  0  0  0  0
  6  7  1  0  0  0  0
  6  5  2  0  0  0  0
  7  8  1  0  0  0  0
  8  9  2  0  0  0  0
  8  4  1  0  0  0  0
  9 10  1  0  0  0  0
 10 34  1  0  0  0  0
 10  2  2  0  0  0  0
 11 37  1  0  0  0  0
 11  7  1  0  0  0  0
 12 39  1  0  0  0  0
 12  6  1  0  0  0  0
 13 12  1  0  0  0  0
 13 41  1  0  0  0  0
 14 13  1  0  0  0  0
 14 16  1  0  0  0  0
 15 14  2  0  0  0  0
 16 21  1  0  0  0  0
 16 17  1  0  0  0  0
 17 18  1  0  0  0  0
 18 44  1  1  0  0  0
 18 24  1  0  0  0  0
 18 19  1  0  0  0  0
 19 22  1  6  0  0  0
 20 46  1  0  0  0  0
 20 45  1  0  0  0  0
 20 19  1  0  0  0  0
 21 20  1  0  0  0  0
 22 49  1  0  0  0  0
 23 50  1  0  0  0  0
 24 30  1  0  0  0  0
 25 26  2  0  0  0  0
 25 24  1  0  0  0  0
 26 27  1  0  0  0  0
 27 28  2  0  0  0  0
 27 29  1  0  0  0  0
 29 55  1  0  0  0  0
 30 29  1  0  0  0  0
 30 31  1  1  0  0  0
 31 51  1  0  0  0  0
 33  9  1  0  0  0  0
 35 11  1  0  0  0  0
 36 11  1  0  0  0  0
 38 12  1  0  0  0  0
 40 13  1  0  0  0  0
 42 17  1  0  0  0  0
 43 17  1  0  0  0  0
 47 21  1  0  0  0  0
 48 21  1  0  0  0  0
 52 23  1  0  0  0  0
 53 25  1  0  0  0  0
 54 26  1  0  0  0  0
M  END
>  <Pose>
1

>  <Score>
-5.23

$$$$
