
 OpenBabel03212208273D

 49 52  0  0  0  0  0  0  0  0999 V2000
   87.0930   87.7080  -48.1040 B   0  0  0  0  0  0  0  0  0  0  0  0
   88.9450   87.4480  -48.4020 C   0  0  0  0  0  0  0  0  0  0  0  0
   89.7430   88.5430  -48.6820 C   0  0  0  0  0  0  0  0  0  0  0  0
   91.1010   88.4200  -48.9110 C   0  0  0  0  0  0  0  0  0  0  0  0
   91.6570   87.1500  -48.8490 C   0  0  0  0  0  0  0  0  0  0  0  0
   90.8570   86.0670  -48.5700 C   0  0  0  0  0  0  0  0  0  0  0  0
   89.5030   86.1710  -48.3410 C   0  0  0  0  0  0  0  0  0  0  0  0
   91.9670   89.5520  -49.2080 C   0  0  0  0  0  0  0  0  0  0  0  0
   91.6620   90.3350  -50.1450 O   0  0  0  0  0  0  0  0  0  0  0  0
   93.1520   89.8270  -48.4890 N   0  0  0  0  0  0  0  0  0  0  0  0
   93.1440   90.5870  -47.2580 C   0  0  0  0  0  0  0  0  0  0  0  0
   91.8690   91.3320  -47.0830 C   0  0  0  0  0  0  0  0  0  0  0  0
   91.1020   91.3900  -48.0750 O   0  0  0  0  0  0  0  0  0  0  0  0
   91.4920   91.9600  -45.8860 N   0  0  0  0  0  0  0  0  0  0  0  0
   91.0580   93.3340  -45.8350 C   0  0  0  0  0  0  0  0  0  0  0  0
   92.0800   94.0870  -45.0110 C   0  0  0  0  0  0  0  0  0  0  0  0
   92.3140   93.3650  -43.7060 C   0  0  0  0  0  0  0  0  0  0  0  0
   93.6970   92.9410  -43.6710 N   0  0  0  0  0  0  0  0  0  0  0  0
   94.1120   92.3520  -42.4460 C   0  0  0  0  0  0  0  0  0  0  0  0
   93.5960   92.9590  -41.1930 C   0  0  0  0  0  0  0  0  0  0  0  0
   92.7830   94.1780  -41.3870 C   0  0  0  0  0  0  0  0  0  0  0  0
   92.4880   95.2320  -40.5660 N   0  0  0  0  0  0  0  0  0  0  0  0
   91.6990   96.0550  -41.2670 C   0  0  0  0  0  0  0  0  0  0  0  0
   91.5010   95.5410  -42.4920 N   0  0  0  0  0  0  0  0  0  0  0  0
   92.1660   94.3630  -42.6040 C   0  0  0  0  0  0  0  0  0  0  0  0
   91.4000   92.2070  -43.4680 C   0  0  0  0  0  0  0  0  0  0  0  0
   91.5290   91.2320  -44.6430 C   0  0  0  0  0  0  0  0  0  0  0  0
   89.2810   89.4970  -48.7210 H   0  0  0  0  0  0  0  0  0  0  0  0
   92.7150   86.9650  -49.0150 H   0  0  0  0  0  0  0  0  0  0  0  0
   91.2740   85.0650  -48.5180 H   0  0  0  0  0  0  0  0  0  0  0  0
   88.8560   85.3540  -48.1220 H   0  0  0  0  0  0  0  0  0  0  0  0
   94.0560   89.4700  -48.8580 H   0  0  0  0  0  0  0  0  0  0  0  0
   93.9520   91.3470  -47.2570 H   0  0  0  0  0  0  0  0  0  0  0  0
   93.3310   89.8670  -46.4380 H   0  0  0  0  0  0  0  0  0  0  0  0
   90.0620   93.4140  -45.3290 H   0  0  0  0  0  0  0  0  0  0  0  0
   90.9160   93.7800  -46.8350 H   0  0  0  0  0  0  0  0  0  0  0  0
   91.7760   95.1430  -44.8440 H   0  0  0  0  0  0  0  0  0  0  0  0
   93.0150   94.1000  -45.6360 H   0  0  0  0  0  0  0  0  0  0  0  0
   93.8440   92.2350  -44.4390 H   0  0  0  0  0  0  0  0  0  0  0  0
   95.2390   92.4380  -42.4130 H   0  0  0  0  0  0  0  0  0  0  0  0
   93.9430   91.2420  -42.4210 H   0  0  0  0  0  0  0  0  0  0  0  0
   94.4230   93.2290  -40.4710 H   0  0  0  0  0  0  0  0  0  0  0  0
   92.9780   92.2260  -40.5990 H   0  0  0  0  0  0  0  0  0  0  0  0
   92.8410   95.3310  -39.5700 H   0  0  0  0  0  0  0  0  0  0  0  0
   91.2870   96.9840  -40.9090 H   0  0  0  0  0  0  0  0  0  0  0  0
   90.3660   92.4930  -43.2770 H   0  0  0  0  0  0  0  0  0  0  0  0
   91.7690   91.6580  -42.5840 H   0  0  0  0  0  0  0  0  0  0  0  0
   90.6920   90.5030  -44.6350 H   0  0  0  0  0  0  0  0  0  0  0  0
   92.4560   90.6760  -44.4890 H   0  0  0  0  0  0  0  0  0  0  0  0
  2  7  1  0  0  0  0
  2  1  1  0  0  0  0
  3  2  2  0  0  0  0
  4  5  2  0  0  0  0
  4  3  1  0  0  0  0
  5  6  1  0  0  0  0
  6 30  1  0  0  0  0
  6  7  2  0  0  0  0
  7 31  1  0  0  0  0
  8  4  1  0  0  0  0
  8 10  1  0  0  0  0
  9  8  2  0  0  0  0
 10 11  1  0  0  0  0
 11 33  1  0  0  0  0
 11 12  1  0  0  0  0
 11 34  1  0  0  0  0
 12 14  1  0  0  0  0
 13 12  2  0  0  0  0
 14 15  1  0  0  0  0
 14 27  1  0  0  0  0
 15 35  1  0  0  0  0
 15 16  1  0  0  0  0
 16 37  1  0  0  0  0
 16 17  1  0  0  0  0
 17 18  1  0  0  0  0
 17 26  1  0  0  0  0
 17 25  1  0  0  0  0
 18 19  1  0  0  0  0
 19 41  1  0  0  0  0
 19 40  1  0  0  0  0
 19 20  1  0  0  0  0
 20 43  1  0  0  0  0
 20 42  1  0  0  0  0
 21 20  1  0  0  0  0
 21 22  1  0  0  0  0
 22 44  1  0  0  0  0
 23 45  1  0  0  0  0
 23 22  1  0  0  0  0
 24 23  2  0  0  0  0
 25 24  1  0  0  0  0
 25 21  2  0  0  0  0
 26 46  1  0  0  0  0
 26 47  1  0  0  0  0
 27 48  1  0  0  0  0
 27 49  1  0  0  0  0
 27 26  1  0  0  0  0
 28  3  1  0  0  0  0
 29  5  1  0  0  0  0
 32 10  1  0  0  0  0
 36 15  1  0  0  0  0
 38 16  1  0  0  0  0
 39 18  1  0  0  0  0
M  END
>  <Pose>
1

>  <Score>
-6.65

$$$$
