
 OpenBabel03212208273D

 55 58  0  0  1  0  0  0  0  0999 V2000
   93.5110  101.9910  -43.6960 Cl  0  0  0  0  0  0  0  0  0  0  0  0
   92.5960  101.4400  -45.0960 C   0  0  0  0  0  0  0  0  0  0  0  0
   91.6610  100.4440  -45.0070 C   0  0  0  0  0  0  0  0  0  0  0  0
   90.9740  100.0510  -46.1340 C   0  0  0  0  0  0  0  0  0  0  0  0
   91.2550  100.6800  -47.3180 C   0  0  0  0  0  0  0  0  0  0  0  0
   92.2100  101.6980  -47.4050 C   0  0  0  0  0  0  0  0  0  0  0  0
   92.8840  102.0780  -46.2830 C   0  0  0  0  0  0  0  0  0  0  0  0
   90.4650  100.1860  -48.3930 N   0  0  0  0  0  0  0  0  0  0  0  0
   89.6440   99.1910  -47.8480 C   0  0  0  0  0  0  0  0  0  0  0  0
   88.7970   98.5550  -48.5580 O   0  0  0  0  0  0  0  0  0  0  0  0
   89.9290   99.0390  -46.4150 C   0  0  2  0  0  0  0  0  0  0  0  0
   88.7140   99.2970  -45.6950 N   0  0  0  0  0  0  0  0  0  0  0  0
   88.2580   98.0800  -45.1000 C   0  0  2  0  0  0  0  0  0  0  0  0
   89.0410   96.9640  -45.7140 C   0  0  0  0  0  0  0  0  0  0  0  0
   90.3120   97.6530  -46.1220 C   0  0  2  0  0  0  0  0  0  0  0  0
   91.4100   97.4650  -45.1390 C   0  0  0  0  0  0  0  0  0  0  0  0
   92.5030   98.0120  -45.4240 O   0  0  0  0  0  0  0  0  0  0  0  0
   91.2780   96.7310  -43.9550 N   0  0  0  0  0  0  0  0  0  0  0  0
   91.6290   95.4040  -43.7030 C   0  0  0  0  0  0  0  0  0  0  0  0
   91.7870   94.9820  -42.3900 C   0  0  0  0  0  0  0  0  0  0  0  0
   92.1310   93.6850  -42.0670 C   0  0  0  0  0  0  0  0  0  0  0  0
   92.3370   92.7410  -43.0420 C   0  0  0  0  0  0  0  0  0  0  0  0
   92.1890   93.1270  -44.3430 C   0  0  0  0  0  0  0  0  0  0  0  0
   91.8410   94.4390  -44.6550 C   0  0  0  0  0  0  0  0  0  0  0  0
   92.3860   92.2060  -45.3560 O   0  0  0  0  0  0  0  0  0  0  0  0
   91.4620   92.0200  -46.4120 C   0  0  0  0  0  0  0  0  0  0  0  0
   91.5970   95.8750  -41.3510 O   0  0  0  0  0  0  0  0  0  0  0  0
   92.3840   97.0060  -41.1360 C   0  0  0  0  0  0  0  0  0  0  0  0
   86.7600   97.8920  -45.2760 C   0  0  0  0  0  0  0  0  0  0  0  0
   86.0440   97.9470  -43.9940 C   0  0  0  0  0  0  0  0  0  0  0  0
   86.2810   98.8550  -43.1810 O   0  0  0  0  0  0  0  0  0  0  0  0
   85.0830   96.9660  -43.6870 N   0  0  0  0  0  0  0  0  0  0  0  0
   91.4730   99.9800  -44.0720 H   0  0  0  0  0  0  0  0  0  0  0  0
   92.4200  102.1890  -48.3600 H   0  0  0  0  0  0  0  0  0  0  0  0
   93.6280  102.8720  -46.3560 H   0  0  0  0  0  0  0  0  0  0  0  0
   90.4880  100.5010  -49.4000 H   0  0  0  0  0  0  0  0  0  0  0  0
   88.8350  100.0820  -45.0200 H   0  0  0  0  0  0  0  0  0  0  0  0
   88.4510   98.0690  -43.9980 H   0  0  0  0  0  0  0  0  0  0  0  0
   88.5610   96.5750  -46.6490 H   0  0  0  0  0  0  0  0  0  0  0  0
   89.2340   96.1270  -45.0060 H   0  0  0  0  0  0  0  0  0  0  0  0
   90.6700   97.1900  -47.0980 H   0  0  0  0  0  0  0  0  0  0  0  0
   90.8550   97.2790  -43.1440 H   0  0  0  0  0  0  0  0  0  0  0  0
   92.2500   93.3790  -41.0230 H   0  0  0  0  0  0  0  0  0  0  0  0
   92.6060   91.7300  -42.7920 H   0  0  0  0  0  0  0  0  0  0  0  0
   91.7470   94.6540  -45.6870 H   0  0  0  0  0  0  0  0  0  0  0  0
   91.1690   92.9770  -46.8830 H   0  0  0  0  0  0  0  0  0  0  0  0
   90.5800   91.5090  -45.9730 H   0  0  0  0  0  0  0  0  0  0  0  0
   91.8640   91.3650  -47.2010 H   0  0  0  0  0  0  0  0  0  0  0  0
   92.1410   97.7320  -41.9610 H   0  0  0  0  0  0  0  0  0  0  0  0
   92.0880   97.4730  -40.1740 H   0  0  0  0  0  0  0  0  0  0  0  0
   93.4680   96.8260  -41.1980 H   0  0  0  0  0  0  0  0  0  0  0  0
   86.5590   96.9460  -45.8250 H   0  0  0  0  0  0  0  0  0  0  0  0
   86.3540   98.7030  -45.9150 H   0  0  0  0  0  0  0  0  0  0  0  0
   85.1210   96.0610  -44.2030 H   0  0  0  0  0  0  0  0  0  0  0  0
   84.3240   97.0810  -42.9720 H   0  0  0  0  0  0  0  0  0  0  0  0
  2  3  1  0  0  0  0
  2  1  1  0  0  0  0
  3 33  1  0  0  0  0
  4  3  2  0  0  0  0
  5  4  1  0  0  0  0
  6  5  2  0  0  0  0
  6  7  1  0  0  0  0
  7  2  2  0  0  0  0
  8  9  1  0  0  0  0
  8  5  1  0  0  0  0
 10  9  2  0  0  0  0
 11  9  1  6  0  0  0
 11  4  1  0  0  0  0
 11 15  1  0  0  0  0
 11 12  1  0  0  0  0
 12 13  1  0  0  0  0
 12 37  1  0  0  0  0
 13 38  1  1  0  0  0
 14 13  1  0  0  0  0
 14 40  1  0  0  0  0
 15 41  1  6  0  0  0
 15 14  1  0  0  0  0
 15 16  1  0  0  0  0
 16 18  1  0  0  0  0
 17 16  2  0  0  0  0
 18 19  1  0  0  0  0
 18 42  1  0  0  0  0
 19 20  1  0  0  0  0
 20 21  2  0  0  0  0
 20 27  1  0  0  0  0
 21 43  1  0  0  0  0
 22 44  1  0  0  0  0
 22 21  1  0  0  0  0
 23 22  2  0  0  0  0
 24 23  1  0  0  0  0
 24 19  2  0  0  0  0
 25 23  1  0  0  0  0
 26 47  1  0  0  0  0
 26 25  1  0  0  0  0
 27 28  1  0  0  0  0
 28 50  1  0  0  0  0
 29 13  1  0  0  0  0
 29 30  1  0  0  0  0
 30 32  1  0  0  0  0
 30 31  2  0  0  0  0
 32 55  1  0  0  0  0
 34  6  1  0  0  0  0
 35  7  1  0  0  0  0
 36  8  1  0  0  0  0
 39 14  1  0  0  0  0
 45 24  1  0  0  0  0
 46 26  1  0  0  0  0
 48 26  1  0  0  0  0
 49 28  1  0  0  0  0
 51 28  1  0  0  0  0
 52 29  1  0  0  0  0
 53 29  1  0  0  0  0
 54 32  1  0  0  0  0
M  END
>  <Pose>
1

>  <Score>
-5.10

$$$$
