
 OpenBabel03212208273D

 32 35  0  0  0  0  0  0  0  0999 V2000
   91.9690   92.5390  -45.4200 B   0  0  0  0  0  0  0  0  0  0  0  0
   92.4830   93.1650  -43.6950 C   0  0  0  0  0  0  0  0  0  0  0  0
   91.8570   94.1280  -42.9080 C   0  0  0  0  0  0  0  0  0  0  0  0
   92.5560   94.2610  -41.7630 N   0  0  0  0  0  0  0  0  0  0  0  0
   93.5890   93.4200  -41.8120 N   0  0  0  0  0  0  0  0  0  0  0  0
   93.5770   92.7360  -42.9730 C   0  0  0  0  0  0  0  0  0  0  0  0
   94.5250   91.7040  -43.4550 C   0  0  0  0  0  0  0  0  0  0  0  0
   92.2560   95.1570  -40.6580 C   0  0  0  0  0  0  0  0  0  0  0  0
   92.0540   96.5570  -41.1230 C   0  0  0  0  0  0  0  0  0  0  0  0
   92.8390   97.6280  -40.9250 N   0  0  0  0  0  0  0  0  0  0  0  0
   92.3090   98.7170  -41.5070 N   0  0  0  0  0  0  0  0  0  0  0  0
   91.1590   98.3320  -42.0880 C   0  0  0  0  0  0  0  0  0  0  0  0
   91.0110   97.0150  -41.8490 N   0  0  0  0  0  0  0  0  0  0  0  0
   90.4240   99.2910  -42.7570 C   0  0  0  0  0  0  0  0  0  0  0  0
   90.8360  100.6080  -42.8410 C   0  0  0  0  0  0  0  0  0  0  0  0
   89.9420  101.3330  -43.5470 N   0  0  0  0  0  0  0  0  0  0  0  0
   88.9890  100.4900  -43.8980 N   0  0  0  0  0  0  0  0  0  0  0  0
   89.2350   99.2470  -43.4460 C   0  0  0  0  0  0  0  0  0  0  0  0
   90.0380  102.7610  -43.8440 C   0  0  0  0  0  0  0  0  0  0  0  0
   91.9950  100.9220  -42.2370 N   0  0  0  0  0  0  0  0  0  0  0  0
   92.7180   99.9980  -41.5830 C   0  0  0  0  0  0  0  0  0  0  0  0
   90.9570   94.6530  -43.2100 H   0  0  0  0  0  0  0  0  0  0  0  0
   95.4030   92.1340  -43.9810 H   0  0  0  0  0  0  0  0  0  0  0  0
   94.0490   90.9790  -44.1340 H   0  0  0  0  0  0  0  0  0  0  0  0
   94.9160   91.1910  -42.5330 H   0  0  0  0  0  0  0  0  0  0  0  0
   93.0560   95.1090  -39.8700 H   0  0  0  0  0  0  0  0  0  0  0  0
   91.3350   94.7730  -40.1290 H   0  0  0  0  0  0  0  0  0  0  0  0
   88.6580   98.3470  -43.5620 H   0  0  0  0  0  0  0  0  0  0  0  0
   89.4590  103.0180  -44.7560 H   0  0  0  0  0  0  0  0  0  0  0  0
   91.1040  103.0280  -44.1010 H   0  0  0  0  0  0  0  0  0  0  0  0
   89.6720  103.3900  -43.0260 H   0  0  0  0  0  0  0  0  0  0  0  0
   93.6570  100.2310  -41.0880 H   0  0  0  0  0  0  0  0  0  0  0  0
  1  2  1  0  0  0  0
  2  6  1  0  0  0  0
  2  3  2  0  0  0  0
  3  4  1  0  0  0  0
  4  8  1  0  0  0  0
  5  4  1  0  0  0  0
  6  5  2  0  0  0  0
  7  6  1  0  0  0  0
  7 25  1  0  0  0  0
  8 27  1  0  0  0  0
  8 26  1  0  0  0  0
  9 10  2  0  0  0  0
  9  8  1  0  0  0  0
 11 10  1  0  0  0  0
 12 13  2  0  0  0  0
 12 11  1  0  0  0  0
 13  9  1  0  0  0  0
 14 12  1  0  0  0  0
 15 14  2  0  0  0  0
 15 20  1  0  0  0  0
 16 15  1  0  0  0  0
 17 16  1  0  0  0  0
 17 18  2  0  0  0  0
 18 14  1  0  0  0  0
 19 16  1  0  0  0  0
 19 31  1  0  0  0  0
 20 21  2  0  0  0  0
 21 11  1  0  0  0  0
 21 32  1  0  0  0  0
 22  3  1  0  0  0  0
 23  7  1  0  0  0  0
 24  7  1  0  0  0  0
 28 18  1  0  0  0  0
 29 19  1  0  0  0  0
 30 19  1  0  0  0  0
M  END
>  <Pose>
1

>  <Score>
-5.16

$$$$
