
 OpenBabel03212208273D

 50 53  0  0  0  0  0  0  0  0999 V2000
   91.9810   89.0090  -45.2050 B   0  0  0  0  0  0  0  0  0  0  0  0
   91.6590   90.5390  -46.2750 C   0  0  0  0  0  0  0  0  0  0  0  0
   91.4890   90.4060  -47.6220 C   0  0  0  0  0  0  0  0  0  0  0  0
   91.2550   91.5490  -48.3820 C   0  0  0  0  0  0  0  0  0  0  0  0
   91.2010   92.7910  -47.7580 C   0  0  0  0  0  0  0  0  0  0  0  0
   91.3720   92.9330  -46.4070 C   0  0  0  0  0  0  0  0  0  0  0  0
   91.6020   91.7940  -45.6680 C   0  0  0  0  0  0  0  0  0  0  0  0
   91.7730   91.9500  -44.3010 O   0  0  0  0  0  0  0  0  0  0  0  0
   91.3120   94.2410  -45.7730 C   0  0  0  0  0  0  0  0  0  0  0  0
   91.4720   94.4290  -44.5120 N   0  0  0  0  0  0  0  0  0  0  0  0
   91.3950   95.7640  -43.9870 N   0  0  0  0  0  0  0  0  0  0  0  0
   91.6780   95.9310  -42.6380 C   0  0  0  0  0  0  0  0  0  0  0  0
   91.6070   94.8780  -41.9000 O   0  0  0  0  0  0  0  0  0  0  0  0
   92.0480   97.1390  -41.9260 C   0  0  0  0  0  0  0  0  0  0  0  0
   92.3950   97.2010  -40.5990 N   0  0  0  0  0  0  0  0  0  0  0  0
   92.6730   98.4350  -40.2820 N   0  0  0  0  0  0  0  0  0  0  0  0
   92.5380   99.2430  -41.3190 N   0  0  0  0  0  0  0  0  0  0  0  0
   92.1550   98.4690  -42.3480 C   0  0  0  0  0  0  0  0  0  0  0  0
   91.8440   98.9070  -43.7120 C   0  0  0  0  0  0  0  0  0  0  0  0
   90.4720   98.6200  -44.1400 N   0  0  0  0  0  0  0  0  0  0  0  0
   90.4940   98.2620  -45.5720 C   0  0  0  0  0  0  0  0  0  0  0  0
   91.3220   99.2440  -46.3250 C   0  0  0  0  0  0  0  0  0  0  0  0
   90.8700  100.5160  -46.0740 O   0  0  0  0  0  0  0  0  0  0  0  0
   89.6850  100.5720  -45.3880 C   0  0  0  0  0  0  0  0  0  0  0  0
   89.6920   99.8770  -44.0520 C   0  0  0  0  0  0  0  0  0  0  0  0
   92.7430  100.6440  -41.2650 C   0  0  0  0  0  0  0  0  0  0  0  0
   93.8690  101.3550  -41.4880 N   0  0  0  0  0  0  0  0  0  0  0  0
   93.6220  102.6300  -41.3450 O   0  0  0  0  0  0  0  0  0  0  0  0
   92.3660  102.8200  -41.0300 N   0  0  0  0  0  0  0  0  0  0  0  0
   91.7900  101.6070  -40.9730 C   0  0  0  0  0  0  0  0  0  0  0  0
   90.4300  101.3880  -40.6610 N   0  0  0  0  0  0  0  0  0  0  0  0
   91.0130   91.3980  -50.2560 B   0  0  0  0  0  0  0  0  0  0  0  0
   91.5380   89.1770  -48.2640 O   0  0  0  0  0  0  0  0  0  0  0  0
   91.0210   93.6690  -48.3430 H   0  0  0  0  0  0  0  0  0  0  0  0
   90.9730   91.9200  -43.6810 H   0  0  0  0  0  0  0  0  0  0  0  0
   91.1220   95.1210  -46.3830 H   0  0  0  0  0  0  0  0  0  0  0  0
   91.1260   96.5050  -44.6770 H   0  0  0  0  0  0  0  0  0  0  0  0
   92.5000   98.4410  -44.4500 H   0  0  0  0  0  0  0  0  0  0  0  0
   91.9330  100.0000  -43.7760 H   0  0  0  0  0  0  0  0  0  0  0  0
   90.8250   97.2200  -45.7110 H   0  0  0  0  0  0  0  0  0  0  0  0
   89.4460   98.3300  -45.9160 H   0  0  0  0  0  0  0  0  0  0  0  0
   92.3990   99.1860  -46.0920 H   0  0  0  0  0  0  0  0  0  0  0  0
   91.1570   99.0640  -47.4280 H   0  0  0  0  0  0  0  0  0  0  0  0
   89.5100  101.6670  -45.1620 H   0  0  0  0  0  0  0  0  0  0  0  0
   88.8370  100.2580  -46.0320 H   0  0  0  0  0  0  0  0  0  0  0  0
   88.6530   99.5950  -43.8380 H   0  0  0  0  0  0  0  0  0  0  0  0
   90.0790  100.5530  -43.2960 H   0  0  0  0  0  0  0  0  0  0  0  0
   89.7460  102.1430  -40.8510 H   0  0  0  0  0  0  0  0  0  0  0  0
   90.0870  100.5020  -40.2500 H   0  0  0  0  0  0  0  0  0  0  0  0
   91.3910   88.3200  -47.7570 H   0  0  0  0  0  0  0  0  0  0  0  0
  2  7  1  0  0  0  0
  2  1  1  0  0  0  0
  3  2  2  0  0  0  0
  4  5  2  0  0  0  0
  4  3  1  0  0  0  0
  5  6  1  0  0  0  0
  6  9  1  0  0  0  0
  6  7  2  0  0  0  0
  7  8  1  0  0  0  0
  8 35  1  0  0  0  0
  9 10  2  0  0  0  0
 10 11  1  0  0  0  0
 11 12  1  0  0  0  0
 12 14  1  0  0  0  0
 12 13  2  0  0  0  0
 14 15  1  0  0  0  0
 15 16  2  0  0  0  0
 17 26  1  0  0  0  0
 17 16  1  0  0  0  0
 18 14  2  0  0  0  0
 18 17  1  0  0  0  0
 19 18  1  0  0  0  0
 20 25  1  0  0  0  0
 20 19  1  0  0  0  0
 21 20  1  0  0  0  0
 22 42  1  0  0  0  0
 22 23  1  0  0  0  0
 22 21  1  0  0  0  0
 23 24  1  0  0  0  0
 24 44  1  0  0  0  0
 24 25  1  0  0  0  0
 25 46  1  0  0  0  0
 25 47  1  0  0  0  0
 26 30  1  0  0  0  0
 27 28  1  0  0  0  0
 27 26  2  0  0  0  0
 28 29  1  0  0  0  0
 29 30  2  0  0  0  0
 30 31  1  0  0  0  0
 31 49  1  0  0  0  0
 32  4  1  0  0  0  0
 33 50  1  0  0  0  0
 33  3  1  0  0  0  0
 34  5  1  0  0  0  0
 36  9  1  0  0  0  0
 37 11  1  0  0  0  0
 38 19  1  0  0  0  0
 39 19  1  0  0  0  0
 40 21  1  0  0  0  0
 41 21  1  0  0  0  0
 43 22  1  0  0  0  0
 45 24  1  0  0  0  0
 48 31  1  0  0  0  0
M  END
>  <Pose>
1

>  <Score>
-6.99

$$$$
