
 OpenBabel03212208273D

 54 57  0  0  0  0  0  0  0  0999 V2000
   92.4460  102.1230  -40.5970 Cl  0  0  0  0  0  0  0  0  0  0  0  0
   90.9120  102.3150  -41.4510 C   0  0  0  0  0  0  0  0  0  0  0  0
   90.6490  101.5320  -42.5540 C   0  0  0  0  0  0  0  0  0  0  0  0
   89.4530  101.7010  -43.1960 C   0  0  0  0  0  0  0  0  0  0  0  0
   88.5030  102.6210  -42.7810 C   0  0  0  0  0  0  0  0  0  0  0  0
   88.8070  103.3960  -41.6570 C   0  0  0  0  0  0  0  0  0  0  0  0
   90.0000  103.2440  -40.9960 C   0  0  0  0  0  0  0  0  0  0  0  0
   91.5710  100.5790  -43.0280 N   0  0  0  0  0  0  0  0  0  0  0  0
   92.0940  100.6400  -44.3680 C   0  0  0  0  0  0  0  0  0  0  0  0
   92.0500   99.3140  -45.0860 C   0  0  0  0  0  0  0  0  0  0  0  0
   91.8300   98.2820  -44.1090 N   0  0  0  0  0  0  0  0  0  0  0  0
   92.5760   98.3570  -42.8790 C   0  0  0  0  0  0  0  0  0  0  0  0
   91.9700   99.5230  -42.0860 C   0  0  0  0  0  0  0  0  0  0  0  0
   90.9290   97.2110  -44.2950 C   0  0  0  0  0  0  0  0  0  0  0  0
   89.6970   97.4160  -44.5010 O   0  0  0  0  0  0  0  0  0  0  0  0
   91.3590   95.8220  -44.2600 C   0  0  0  0  0  0  0  0  0  0  0  0
   91.4020   95.0760  -45.4050 C   0  0  0  0  0  0  0  0  0  0  0  0
   91.7930   93.7660  -45.4560 N   0  0  0  0  0  0  0  0  0  0  0  0
   92.1520   93.1920  -44.3120 C   0  0  0  0  0  0  0  0  0  0  0  0
   92.1420   93.8570  -43.1140 C   0  0  0  0  0  0  0  0  0  0  0  0
   91.7230   95.2460  -43.0780 C   0  0  0  0  0  0  0  0  0  0  0  0
   91.8130   95.6290  -41.7910 N   0  0  0  0  0  0  0  0  0  0  0  0
   92.2400   94.6210  -41.0490 N   0  0  0  0  0  0  0  0  0  0  0  0
   92.4500   93.5350  -41.8040 C   0  0  0  0  0  0  0  0  0  0  0  0
   92.8560   92.3830  -41.4620 O   0  0  0  0  0  0  0  0  0  0  0  0
   91.8370   93.0770  -46.7370 C   0  0  0  0  0  0  0  0  0  0  0  0
   91.0230   91.8660  -46.8460 C   0  0  0  0  0  0  0  0  0  0  0  0
   91.2640   90.7920  -47.8120 C   0  0  0  0  0  0  0  0  0  0  0  0
   92.5000   90.4600  -48.2170 O   0  0  0  0  0  0  0  0  0  0  0  0
   92.9560   89.2070  -48.2570 C   0  0  0  0  0  0  0  0  0  0  0  0
   89.2350  101.0990  -44.0580 H   0  0  0  0  0  0  0  0  0  0  0  0
   87.5770  102.7310  -43.3040 H   0  0  0  0  0  0  0  0  0  0  0  0
   88.0500  104.1050  -41.3540 H   0  0  0  0  0  0  0  0  0  0  0  0
   90.2080  103.8450  -40.1420 H   0  0  0  0  0  0  0  0  0  0  0  0
   93.1250  101.0490  -44.4080 H   0  0  0  0  0  0  0  0  0  0  0  0
   91.4600  101.3410  -44.9520 H   0  0  0  0  0  0  0  0  0  0  0  0
   91.3020   99.3000  -45.9010 H   0  0  0  0  0  0  0  0  0  0  0  0
   93.0490   99.1120  -45.5620 H   0  0  0  0  0  0  0  0  0  0  0  0
   93.6440   98.6750  -43.0620 H   0  0  0  0  0  0  0  0  0  0  0  0
   92.5470   97.4260  -42.2990 H   0  0  0  0  0  0  0  0  0  0  0  0
   92.6630   99.9040  -41.3260 H   0  0  0  0  0  0  0  0  0  0  0  0
   91.0330   99.1430  -41.6270 H   0  0  0  0  0  0  0  0  0  0  0  0
   91.1170   95.4960  -46.3850 H   0  0  0  0  0  0  0  0  0  0  0  0
   92.4990   92.1640  -44.2690 H   0  0  0  0  0  0  0  0  0  0  0  0
   92.4090   94.6110  -40.0040 H   0  0  0  0  0  0  0  0  0  0  0  0
   92.8700   93.0020  -47.1470 H   0  0  0  0  0  0  0  0  0  0  0  0
   91.3620   93.8390  -47.4540 H   0  0  0  0  0  0  0  0  0  0  0  0
   90.8760   91.4180  -45.7980 H   0  0  0  0  0  0  0  0  0  0  0  0
   89.9450   92.2270  -47.0440 H   0  0  0  0  0  0  0  0  0  0  0  0
   90.6470   89.8570  -47.5650 H   0  0  0  0  0  0  0  0  0  0  0  0
   90.7080   91.1210  -48.7730 H   0  0  0  0  0  0  0  0  0  0  0  0
   92.3590   88.5590  -48.9530 H   0  0  0  0  0  0  0  0  0  0  0  0
   93.0640   88.6540  -47.3190 H   0  0  0  0  0  0  0  0  0  0  0  0
   93.9780   89.2140  -48.7860 H   0  0  0  0  0  0  0  0  0  0  0  0
  2  7  1  0  0  0  0
  2  1  1  0  0  0  0
  3  2  2  0  0  0  0
  4  5  2  0  0  0  0
  4  3  1  0  0  0  0
  5  6  1  0  0  0  0
  6 33  1  0  0  0  0
  6  7  2  0  0  0  0
  7 34  1  0  0  0  0
  8  3  1  0  0  0  0
  8 13  1  0  0  0  0
  9  8  1  0  0  0  0
 10  9  1  0  0  0  0
 10 11  1  0  0  0  0
 11 12  1  0  0  0  0
 12 40  1  0  0  0  0
 12 13  1  0  0  0  0
 13 42  1  0  0  0  0
 13 41  1  0  0  0  0
 14 16  1  0  0  0  0
 14 11  1  0  0  0  0
 15 14  2  0  0  0  0
 16 21  2  0  0  0  0
 17 16  1  0  0  0  0
 18 17  1  0  0  0  0
 18 19  1  0  0  0  0
 19 44  1  0  0  0  0
 19 20  2  0  0  0  0
 20 21  1  0  0  0  0
 20 24  1  0  0  0  0
 21 22  1  0  0  0  0
 22 23  1  0  0  0  0
 23 45  1  0  0  0  0
 24 25  2  0  0  0  0
 24 23  1  0  0  0  0
 26 18  1  0  0  0  0
 27 26  1  0  0  0  0
 27 48  1  0  0  0  0
 28 50  1  0  0  0  0
 28 27  1  0  0  0  0
 29 28  1  0  0  0  0
 30 29  1  0  0  0  0
 30 53  1  0  0  0  0
 31  4  1  0  0  0  0
 32  5  1  0  0  0  0
 35  9  1  0  0  0  0
 36  9  1  0  0  0  0
 37 10  1  0  0  0  0
 38 10  1  0  0  0  0
 39 12  1  0  0  0  0
 43 17  1  0  0  0  0
 46 26  1  0  0  0  0
 47 26  1  0  0  0  0
 49 27  1  0  0  0  0
 51 28  1  0  0  0  0
 52 30  1  0  0  0  0
 54 30  1  0  0  0  0
M  END
>  <Pose>
1

>  <Score>
-6.10

$$$$
