
 OpenBabel03212208273D

 49 52  0  0  0  0  0  0  0  0999 V2000
   90.2600  102.3930  -46.8410 B   0  0  0  0  0  0  0  0  0  0  0  0
   90.5860  100.8740  -45.7220 C   0  0  0  0  0  0  0  0  0  0  0  0
   89.6170  100.3940  -44.8630 C   0  0  0  0  0  0  0  0  0  0  0  0
   89.8590   99.2890  -44.0520 C   0  0  0  0  0  0  0  0  0  0  0  0
   91.0730   98.6350  -44.0730 C   0  0  0  0  0  0  0  0  0  0  0  0
   92.0360   99.1190  -44.9300 C   0  0  0  0  0  0  0  0  0  0  0  0
   91.7980  100.2130  -45.7360 C   0  0  0  0  0  0  0  0  0  0  0  0
   91.3560   97.5030  -43.2580 N   0  0  0  0  0  0  0  0  0  0  0  0
   91.2260   96.1930  -43.5230 C   0  0  0  0  0  0  0  0  0  0  0  0
   90.7990   95.7670  -44.6270 O   0  0  0  0  0  0  0  0  0  0  0  0
   91.6180   95.4220  -42.4420 C   0  0  0  0  0  0  0  0  0  0  0  0
   91.9940   96.2810  -41.5030 C   0  0  0  0  0  0  0  0  0  0  0  0
   92.3730   95.5330  -40.4550 N   0  0  0  0  0  0  0  0  0  0  0  0
   92.2330   94.2530  -40.7470 N   0  0  0  0  0  0  0  0  0  0  0  0
   91.7700   94.1630  -41.9650 N   0  0  0  0  0  0  0  0  0  0  0  0
   91.4620   92.9630  -42.7050 C   0  0  0  0  0  0  0  0  0  0  0  0
   92.3910   92.8610  -43.8930 C   0  0  0  0  0  0  0  0  0  0  0  0
   93.6270   92.8930  -43.7050 O   0  0  0  0  0  0  0  0  0  0  0  0
   91.8670   92.7340  -45.1870 N   0  0  0  0  0  0  0  0  0  0  0  0
   92.1650   91.7040  -46.1010 C   0  0  0  0  0  0  0  0  0  0  0  0
   91.7590   91.6460  -47.4110 C   0  0  0  0  0  0  0  0  0  0  0  0
   92.0710   90.5980  -48.2510 C   0  0  0  0  0  0  0  0  0  0  0  0
   92.8270   89.5620  -47.7430 C   0  0  0  0  0  0  0  0  0  0  0  0
   93.2570   89.5820  -46.4270 C   0  0  0  0  0  0  0  0  0  0  0  0
   92.9350   90.6320  -45.6100 C   0  0  0  0  0  0  0  0  0  0  0  0
   93.1530   88.4950  -48.5750 O   0  0  0  0  0  0  0  0  0  0  0  0
   92.3310   87.3450  -48.5760 C   0  0  0  0  0  0  0  0  0  0  0  0
   91.6450   90.5670  -49.5770 O   0  0  0  0  0  0  0  0  0  0  0  0
   90.6470   91.5160  -49.9750 C   0  0  0  0  0  0  0  0  0  0  0  0
   91.8350   97.5590  -41.9950 C   0  0  0  0  0  0  0  0  0  0  0  0
   92.1000   98.6330  -41.3600 O   0  0  0  0  0  0  0  0  0  0  0  0
   88.6610  100.9170  -44.8530 H   0  0  0  0  0  0  0  0  0  0  0  0
   89.0970   98.9230  -43.3870 H   0  0  0  0  0  0  0  0  0  0  0  0
   92.9910   98.5970  -44.9410 H   0  0  0  0  0  0  0  0  0  0  0  0
   92.5820  100.5740  -46.4060 H   0  0  0  0  0  0  0  0  0  0  0  0
   92.7270   95.8730  -39.5390 H   0  0  0  0  0  0  0  0  0  0  0  0
   92.4520   93.4210  -40.1210 H   0  0  0  0  0  0  0  0  0  0  0  0
   90.4200   92.9560  -43.1030 H   0  0  0  0  0  0  0  0  0  0  0  0
   91.6390   92.0600  -42.1000 H   0  0  0  0  0  0  0  0  0  0  0  0
   91.1740   93.4890  -45.5010 H   0  0  0  0  0  0  0  0  0  0  0  0
   91.1730   92.4490  -47.8360 H   0  0  0  0  0  0  0  0  0  0  0  0
   93.8530   88.7460  -46.0570 H   0  0  0  0  0  0  0  0  0  0  0  0
   93.2840   90.6350  -44.5630 H   0  0  0  0  0  0  0  0  0  0  0  0
   91.2930   87.7030  -48.7760 H   0  0  0  0  0  0  0  0  0  0  0  0
   92.3600   86.8710  -47.5870 H   0  0  0  0  0  0  0  0  0  0  0  0
   92.6600   86.6660  -49.3960 H   0  0  0  0  0  0  0  0  0  0  0  0
   91.0630   92.5590  -49.9030 H   0  0  0  0  0  0  0  0  0  0  0  0
   90.3150   91.3210  -51.0140 H   0  0  0  0  0  0  0  0  0  0  0  0
   89.7640   91.4520  -49.3050 H   0  0  0  0  0  0  0  0  0  0  0  0
  1  2  1  0  0  0  0
  2  3  1  0  0  0  0
  3 32  1  0  0  0  0
  3  4  2  0  0  0  0
  4 33  1  0  0  0  0
  5  4  1  0  0  0  0
  5  8  1  0  0  0  0
  6  5  2  0  0  0  0
  7  2  2  0  0  0  0
  7  6  1  0  0  0  0
  8 30  1  0  0  0  0
  9  8  1  0  0  0  0
  9 11  1  0  0  0  0
 10  9  2  0  0  0  0
 11 15  1  0  0  0  0
 11 12  2  0  0  0  0
 12 13  1  0  0  0  0
 13 36  1  0  0  0  0
 14 13  1  0  0  0  0
 14 37  1  0  0  0  0
 15 14  1  0  0  0  0
 16 39  1  0  0  0  0
 16 15  1  0  0  0  0
 17 18  2  0  0  0  0
 17 16  1  0  0  0  0
 19 17  1  0  0  0  0
 20 25  1  0  0  0  0
 20 19  1  0  0  0  0
 21 20  2  0  0  0  0
 22 23  2  0  0  0  0
 22 21  1  0  0  0  0
 23 24  1  0  0  0  0
 24 42  1  0  0  0  0
 24 25  2  0  0  0  0
 25 43  1  0  0  0  0
 26 23  1  0  0  0  0
 27 26  1  0  0  0  0
 27 45  1  0  0  0  0
 28 22  1  0  0  0  0
 29 47  1  0  0  0  0
 29 28  1  0  0  0  0
 29 49  1  0  0  0  0
 30 12  1  0  0  0  0
 30 31  2  0  0  0  0
 34  6  1  0  0  0  0
 35  7  1  0  0  0  0
 38 16  1  0  0  0  0
 40 19  1  0  0  0  0
 41 21  1  0  0  0  0
 44 27  1  0  0  0  0
 46 27  1  0  0  0  0
 48 29  1  0  0  0  0
M  END
>  <Pose>
1

>  <Score>
-6.29

$$$$
