
 OpenBabel03212208273D

 52 55  0  0  0  0  0  0  0  0999 V2000
   93.0210  101.7980  -40.2290 Cl  0  0  0  0  0  0  0  0  0  0  0  0
   92.7800  100.6910  -41.5660 C   0  0  0  0  0  0  0  0  0  0  0  0
   92.3180   99.4100  -41.2940 C   0  0  0  0  0  0  0  0  0  0  0  0
   92.1050   98.4850  -42.3050 C   0  0  0  0  0  0  0  0  0  0  0  0
   92.3560   98.8350  -43.6130 C   0  0  0  0  0  0  0  0  0  0  0  0
   92.8190  100.1280  -43.8560 C   0  0  0  0  0  0  0  0  0  0  0  0
   93.0330  101.0540  -42.8720 C   0  0  0  0  0  0  0  0  0  0  0  0
   92.1510   97.9070  -44.7210 C   0  0  0  0  0  0  0  0  0  0  0  0
   92.6630   98.2070  -45.8290 O   0  0  0  0  0  0  0  0  0  0  0  0
   91.4220   96.7250  -44.5850 N   0  0  0  0  0  0  0  0  0  0  0  0
   91.9930   95.4000  -44.7280 C   0  0  0  0  0  0  0  0  0  0  0  0
   91.0910   94.5540  -45.5700 C   0  0  0  0  0  0  0  0  0  0  0  0
   91.5060   93.1340  -45.6060 C   0  0  0  0  0  0  0  0  0  0  0  0
   92.3180   92.7300  -44.7370 O   0  0  0  0  0  0  0  0  0  0  0  0
   91.0110   92.2450  -46.5890 N   0  0  0  0  0  0  0  0  0  0  0  0
   89.8210   92.5160  -47.3700 C   0  0  0  0  0  0  0  0  0  0  0  0
   89.1460   91.1840  -47.6620 C   0  0  0  0  0  0  0  0  0  0  0  0
   90.0520   90.3090  -48.5270 C   0  0  0  0  0  0  0  0  0  0  0  0
   89.8260   88.9520  -48.1210 N   0  0  0  0  0  0  0  0  0  0  0  0
   90.2310   88.0050  -49.1390 C   0  0  0  0  0  0  0  0  0  0  0  0
   89.2430   88.0890  -50.3000 C   0  0  0  0  0  0  0  0  0  0  0  0
   89.3170   89.4880  -50.8100 C   0  0  0  0  0  0  0  0  0  0  0  0
   89.0660   90.0210  -52.0430 N   0  0  0  0  0  0  0  0  0  0  0  0
   89.2840   91.3460  -51.9720 C   0  0  0  0  0  0  0  0  0  0  0  0
   89.6650   91.6360  -50.7150 N   0  0  0  0  0  0  0  0  0  0  0  0
   89.6970   90.5000  -49.9570 C   0  0  0  0  0  0  0  0  0  0  0  0
   91.5080   90.6580  -48.3020 C   0  0  0  0  0  0  0  0  0  0  0  0
   91.6990   90.9970  -46.8530 C   0  0  0  0  0  0  0  0  0  0  0  0
   92.1240   99.1410  -40.2650 H   0  0  0  0  0  0  0  0  0  0  0  0
   91.7380   97.4750  -42.0490 H   0  0  0  0  0  0  0  0  0  0  0  0
   93.0110  100.3920  -44.8860 H   0  0  0  0  0  0  0  0  0  0  0  0
   93.3910  102.0520  -43.0520 H   0  0  0  0  0  0  0  0  0  0  0  0
   90.3970   96.7460  -44.3670 H   0  0  0  0  0  0  0  0  0  0  0  0
   92.0100   94.9520  -43.7100 H   0  0  0  0  0  0  0  0  0  0  0  0
   93.0260   95.4460  -45.0980 H   0  0  0  0  0  0  0  0  0  0  0  0
   90.0380   94.6220  -45.1630 H   0  0  0  0  0  0  0  0  0  0  0  0
   91.0330   94.9730  -46.5760 H   0  0  0  0  0  0  0  0  0  0  0  0
   89.0970   93.0730  -46.7160 H   0  0  0  0  0  0  0  0  0  0  0  0
   90.0220   93.0790  -48.2790 H   0  0  0  0  0  0  0  0  0  0  0  0
   88.8530   90.6720  -46.7460 H   0  0  0  0  0  0  0  0  0  0  0  0
   88.2430   91.3990  -48.2670 H   0  0  0  0  0  0  0  0  0  0  0  0
   90.2980   88.7340  -47.2210 H   0  0  0  0  0  0  0  0  0  0  0  0
   91.2020   88.3510  -49.5480 H   0  0  0  0  0  0  0  0  0  0  0  0
   90.3480   86.9910  -48.7650 H   0  0  0  0  0  0  0  0  0  0  0  0
   89.5640   87.3520  -51.0550 H   0  0  0  0  0  0  0  0  0  0  0  0
   88.2080   87.8860  -49.9550 H   0  0  0  0  0  0  0  0  0  0  0  0
   88.7610   89.4270  -52.8470 H   0  0  0  0  0  0  0  0  0  0  0  0
   89.1570   92.0080  -52.8180 H   0  0  0  0  0  0  0  0  0  0  0  0
   92.1850   89.8360  -48.5550 H   0  0  0  0  0  0  0  0  0  0  0  0
   91.7920   91.5540  -48.9040 H   0  0  0  0  0  0  0  0  0  0  0  0
   92.7900   91.0780  -46.6740 H   0  0  0  0  0  0  0  0  0  0  0  0
   91.3000   90.1840  -46.1960 H   0  0  0  0  0  0  0  0  0  0  0  0
  2  3  1  0  0  0  0
  2  1  1  0  0  0  0
  3 29  1  0  0  0  0
  4 30  1  0  0  0  0
  4  3  2  0  0  0  0
  5  4  1  0  0  0  0
  6  5  2  0  0  0  0
  6  7  1  0  0  0  0
  7  2  2  0  0  0  0
  8 10  1  0  0  0  0
  8  5  1  0  0  0  0
  9  8  2  0  0  0  0
 10 33  1  0  0  0  0
 11 10  1  0  0  0  0
 11 34  1  0  0  0  0
 12 36  1  0  0  0  0
 12 11  1  0  0  0  0
 13 12  1  0  0  0  0
 13 14  2  0  0  0  0
 15 13  1  0  0  0  0
 16 38  1  0  0  0  0
 16 15  1  0  0  0  0
 17 16  1  0  0  0  0
 17 40  1  0  0  0  0
 18 27  1  0  0  0  0
 18 19  1  0  0  0  0
 18 17  1  0  0  0  0
 19 42  1  0  0  0  0
 20 44  1  0  0  0  0
 20 19  1  0  0  0  0
 21 46  1  0  0  0  0
 21 20  1  0  0  0  0
 22 21  1  0  0  0  0
 22 26  2  0  0  0  0
 23 24  1  0  0  0  0
 23 22  1  0  0  0  0
 24 25  2  0  0  0  0
 25 26  1  0  0  0  0
 26 18  1  0  0  0  0
 27 28  1  0  0  0  0
 28 51  1  0  0  0  0
 28 15  1  0  0  0  0
 28 52  1  0  0  0  0
 31  6  1  0  0  0  0
 32  7  1  0  0  0  0
 35 11  1  0  0  0  0
 37 12  1  0  0  0  0
 39 16  1  0  0  0  0
 41 17  1  0  0  0  0
 43 20  1  0  0  0  0
 45 21  1  0  0  0  0
 47 23  1  0  0  0  0
 48 24  1  0  0  0  0
 49 27  1  0  0  0  0
 50 27  1  0  0  0  0
M  END
>  <Pose>
1

>  <Score>
-5.33

$$$$
