
 OpenBabel03212208273D

 55 58  0  0  0  0  0  0  0  0999 V2000
   91.7950   97.3660  -41.7600 S   0  0  0  0  0  0  0  0  0  0  0  0
   90.8190   97.3320  -40.5790 O   0  0  0  0  0  0  0  0  0  0  0  0
   93.1400   97.6550  -41.0900 O   0  0  0  0  0  0  0  0  0  0  0  0
   91.3790   98.6270  -42.7430 N   0  0  0  0  0  0  0  0  0  0  0  0
   90.3230   99.4990  -42.5000 C   0  0  0  0  0  0  0  0  0  0  0  0
   89.0060   99.1460  -43.1130 C   0  0  0  0  0  0  0  0  0  0  0  0
   89.2440   98.2240  -44.3070 C   0  0  0  0  0  0  0  0  0  0  0  0
   90.4670   98.8440  -45.0020 C   0  0  0  0  0  0  0  0  0  0  0  0
   91.6580   98.4170  -44.1580 C   0  0  0  0  0  0  0  0  0  0  0  0
   88.0930   98.1580  -45.1910 C   0  0  0  0  0  0  0  0  0  0  0  0
   87.1170   98.9300  -45.0000 O   0  0  0  0  0  0  0  0  0  0  0  0
   88.0380   97.2550  -46.2580 N   0  0  0  0  0  0  0  0  0  0  0  0
   86.7940   96.9250  -46.9630 C   0  0  0  0  0  0  0  0  0  0  0  0
   87.1240   95.7750  -47.8920 C   0  0  0  0  0  0  0  0  0  0  0  0
   88.1140   96.1840  -48.8690 N   0  0  0  0  0  0  0  0  0  0  0  0
   89.3420   96.6190  -48.2280 C   0  0  0  0  0  0  0  0  0  0  0  0
   89.2150   96.5710  -46.7150 C   0  0  0  0  0  0  0  0  0  0  0  0
   88.3780   95.1230  -49.8170 C   0  0  0  0  0  0  0  0  0  0  0  0
   91.7880   95.7540  -42.4140 C   0  0  0  0  0  0  0  0  0  0  0  0
   91.7780   95.5810  -43.8090 C   0  0  0  0  0  0  0  0  0  0  0  0
   91.7220   94.3450  -44.3990 C   0  0  0  0  0  0  0  0  0  0  0  0
   91.6750   93.2300  -43.6210 C   0  0  0  0  0  0  0  0  0  0  0  0
   91.6840   93.3360  -42.2530 C   0  0  0  0  0  0  0  0  0  0  0  0
   91.7430   94.6070  -41.6780 C   0  0  0  0  0  0  0  0  0  0  0  0
   91.8310   94.6810  -39.9260 Cl  0  0  0  0  0  0  0  0  0  0  0  0
   91.6110   91.9420  -44.2570 N   0  0  0  0  0  0  0  0  0  0  0  0
   91.5980   91.8620  -45.6720 C   0  0  0  0  0  0  0  0  0  0  0  0
   91.9200   90.8160  -46.2730 O   0  0  0  0  0  0  0  0  0  0  0  0
   91.1840   93.0760  -46.4230 C   0  0  0  0  0  0  0  0  0  0  0  0
   91.7120   94.2130  -45.7930 O   0  0  0  0  0  0  0  0  0  0  0  0
   90.1970   99.7450  -41.4460 H   0  0  0  0  0  0  0  0  0  0  0  0
   90.6520  100.5160  -42.9480 H   0  0  0  0  0  0  0  0  0  0  0  0
   88.5440  100.0720  -43.5390 H   0  0  0  0  0  0  0  0  0  0  0  0
   88.2580   98.7180  -42.4410 H   0  0  0  0  0  0  0  0  0  0  0  0
   89.5370   97.2380  -43.9130 H   0  0  0  0  0  0  0  0  0  0  0  0
   90.5730   98.5510  -46.0400 H   0  0  0  0  0  0  0  0  0  0  0  0
   90.3340   99.9580  -44.8850 H   0  0  0  0  0  0  0  0  0  0  0  0
   92.5830   98.9120  -44.4950 H   0  0  0  0  0  0  0  0  0  0  0  0
   91.7850   97.3280  -44.3060 H   0  0  0  0  0  0  0  0  0  0  0  0
   86.5450   97.8320  -47.5910 H   0  0  0  0  0  0  0  0  0  0  0  0
   85.9960   96.6750  -46.2630 H   0  0  0  0  0  0  0  0  0  0  0  0
   87.4810   94.9250  -47.2470 H   0  0  0  0  0  0  0  0  0  0  0  0
   86.1980   95.4560  -48.4050 H   0  0  0  0  0  0  0  0  0  0  0  0
   89.5990   97.6420  -48.5290 H   0  0  0  0  0  0  0  0  0  0  0  0
   90.1330   95.8880  -48.4950 H   0  0  0  0  0  0  0  0  0  0  0  0
   89.1960   95.5140  -46.3510 H   0  0  0  0  0  0  0  0  0  0  0  0
   90.1040   97.0230  -46.2770 H   0  0  0  0  0  0  0  0  0  0  0  0
   88.9530   95.5570  -50.6550 H   0  0  0  0  0  0  0  0  0  0  0  0
   87.4280   94.7390  -50.2170 H   0  0  0  0  0  0  0  0  0  0  0  0
   89.0170   94.3160  -49.3780 H   0  0  0  0  0  0  0  0  0  0  0  0
   91.8150   96.4840  -44.4220 H   0  0  0  0  0  0  0  0  0  0  0  0
   91.6470   92.4640  -41.6400 H   0  0  0  0  0  0  0  0  0  0  0  0
   91.5760   91.0840  -43.6710 H   0  0  0  0  0  0  0  0  0  0  0  0
   91.5420   93.0340  -47.4760 H   0  0  0  0  0  0  0  0  0  0  0  0
   90.0900   93.1790  -46.4420 H   0  0  0  0  0  0  0  0  0  0  0  0
  1  3  2  0  0  0  0
  1  2  2  0  0  0  0
  4  5  1  0  0  0  0
  4  1  1  0  0  0  0
  5 31  1  0  0  0  0
  6  5  1  0  0  0  0
  6 34  1  0  0  0  0
  7 35  1  0  0  0  0
  7  6  1  0  0  0  0
  8 37  1  0  0  0  0
  8  7  1  0  0  0  0
  8  9  1  0  0  0  0
  9  4  1  0  0  0  0
 10 11  2  0  0  0  0
 10  7  1  0  0  0  0
 12 10  1  0  0  0  0
 13 41  1  0  0  0  0
 13 12  1  0  0  0  0
 14 42  1  0  0  0  0
 14 13  1  0  0  0  0
 15 16  1  0  0  0  0
 15 14  1  0  0  0  0
 16 17  1  0  0  0  0
 17 46  1  0  0  0  0
 17 47  1  0  0  0  0
 17 12  1  0  0  0  0
 18 50  1  0  0  0  0
 18 15  1  0  0  0  0
 19  1  1  0  0  0  0
 19 24  1  0  0  0  0
 20 19  2  0  0  0  0
 21 20  1  0  0  0  0
 21 22  2  0  0  0  0
 22 23  1  0  0  0  0
 23 24  2  0  0  0  0
 23 52  1  0  0  0  0
 24 25  1  0  0  0  0
 26 53  1  0  0  0  0
 26 22  1  0  0  0  0
 27 26  1  0  0  0  0
 28 27  2  0  0  0  0
 29 30  1  0  0  0  0
 29 27  1  0  0  0  0
 30 21  1  0  0  0  0
 32  5  1  0  0  0  0
 33  6  1  0  0  0  0
 36  8  1  0  0  0  0
 38  9  1  0  0  0  0
 39  9  1  0  0  0  0
 40 13  1  0  0  0  0
 43 14  1  0  0  0  0
 44 16  1  0  0  0  0
 45 16  1  0  0  0  0
 48 18  1  0  0  0  0
 49 18  1  0  0  0  0
 51 20  1  0  0  0  0
 54 29  1  0  0  0  0
 55 29  1  0  0  0  0
M  END
>  <Pose>
1

>  <Score>
-5.14

$$$$
