
 OpenBabel03212208273D

 56 59  0  0  0  0  0  0  0  0999 V2000
   91.9950   95.6950  -41.2210 Cl  0  0  0  0  0  0  0  0  0  0  0  0
   91.9280   94.8670  -42.7350 C   0  0  0  0  0  0  0  0  0  0  0  0
   91.6320   95.5860  -43.8730 C   0  0  0  0  0  0  0  0  0  0  0  0
   91.5960   94.8590  -45.0600 C   0  0  0  0  0  0  0  0  0  0  0  0
   91.8420   93.5000  -45.0840 C   0  0  0  0  0  0  0  0  0  0  0  0
   92.1330   92.8270  -43.9270 C   0  0  0  0  0  0  0  0  0  0  0  0
   92.1760   93.5080  -42.7510 C   0  0  0  0  0  0  0  0  0  0  0  0
   91.3730   96.9580  -43.9000 N   0  0  0  0  0  0  0  0  0  0  0  0
   92.3270   98.0060  -43.6110 C   0  0  0  0  0  0  0  0  0  0  0  0
   91.7960   99.3160  -44.1880 C   0  0  0  0  0  0  0  0  0  0  0  0
   91.2040   99.0630  -45.4920 N   0  0  0  0  0  0  0  0  0  0  0  0
   90.1330   98.0990  -45.5870 C   0  0  0  0  0  0  0  0  0  0  0  0
   90.0150   97.3990  -44.2540 C   0  0  0  0  0  0  0  0  0  0  0  0
   91.6530   99.7390  -46.6610 C   0  0  0  0  0  0  0  0  0  0  0  0
   92.8650   99.5930  -47.0100 O   0  0  0  0  0  0  0  0  0  0  0  0
   90.8020  100.6000  -47.4910 C   0  0  0  0  0  0  0  0  0  0  0  0
   89.5550  100.9900  -46.8360 N   0  0  0  0  0  0  0  0  0  0  0  0
   88.3490  100.4710  -46.9560 N   0  0  0  0  0  0  0  0  0  0  0  0
   87.4400  101.0880  -46.1980 C   0  0  0  0  0  0  0  0  0  0  0  0
   88.1140  102.0940  -45.5280 C   0  0  0  0  0  0  0  0  0  0  0  0
   89.4240  102.0100  -45.9430 C   0  0  0  0  0  0  0  0  0  0  0  0
   90.5130  102.8970  -45.4820 C   0  0  0  0  0  0  0  0  0  0  0  0
   86.0060  100.7620  -46.0940 C   0  0  0  0  0  0  0  0  0  0  0  0
   85.1590  101.4660  -46.6790 O   0  0  0  0  0  0  0  0  0  0  0  0
   85.6150   99.6430  -45.3260 N   0  0  0  0  0  0  0  0  0  0  0  0
   86.5330   98.6800  -44.7870 C   0  0  0  0  0  0  0  0  0  0  0  0
   85.7010   97.7370  -43.9080 C   0  0  0  0  0  0  0  0  0  0  0  0
   84.9590   98.4420  -42.9860 O   0  0  0  0  0  0  0  0  0  0  0  0
   84.0400   99.3000  -43.5430 C   0  0  0  0  0  0  0  0  0  0  0  0
   84.1930   99.4250  -45.0440 C   0  0  0  0  0  0  0  0  0  0  0  0
   91.3730   95.3370  -45.9920 H   0  0  0  0  0  0  0  0  0  0  0  0
   91.8100   92.9480  -46.0140 H   0  0  0  0  0  0  0  0  0  0  0  0
   92.3280   91.7440  -43.9570 H   0  0  0  0  0  0  0  0  0  0  0  0
   92.4080   92.9830  -41.8160 H   0  0  0  0  0  0  0  0  0  0  0  0
   92.4720   98.1750  -42.5340 H   0  0  0  0  0  0  0  0  0  0  0  0
   93.2770   97.8140  -44.1520 H   0  0  0  0  0  0  0  0  0  0  0  0
   92.6780   99.9670  -44.3520 H   0  0  0  0  0  0  0  0  0  0  0  0
   91.0750   99.7990  -43.5000 H   0  0  0  0  0  0  0  0  0  0  0  0
   89.1760   98.5560  -45.9050 H   0  0  0  0  0  0  0  0  0  0  0  0
   90.4420   97.2930  -46.3080 H   0  0  0  0  0  0  0  0  0  0  0  0
   89.7110   98.1550  -43.4870 H   0  0  0  0  0  0  0  0  0  0  0  0
   89.3120   96.5430  -44.2880 H   0  0  0  0  0  0  0  0  0  0  0  0
   90.5670  100.1390  -48.4710 H   0  0  0  0  0  0  0  0  0  0  0  0
   91.3530  101.5400  -47.6870 H   0  0  0  0  0  0  0  0  0  0  0  0
   87.6850  102.7910  -44.8280 H   0  0  0  0  0  0  0  0  0  0  0  0
   90.5750  102.8730  -44.3770 H   0  0  0  0  0  0  0  0  0  0  0  0
   91.4840  102.5610  -45.8930 H   0  0  0  0  0  0  0  0  0  0  0  0
   90.3470  103.9370  -45.8580 H   0  0  0  0  0  0  0  0  0  0  0  0
   87.3070   99.1680  -44.1590 H   0  0  0  0  0  0  0  0  0  0  0  0
   87.0370   98.0600  -45.5360 H   0  0  0  0  0  0  0  0  0  0  0  0
   85.1170   97.0410  -44.5310 H   0  0  0  0  0  0  0  0  0  0  0  0
   86.4460   97.1360  -43.3430 H   0  0  0  0  0  0  0  0  0  0  0  0
   82.9980   98.9340  -43.3450 H   0  0  0  0  0  0  0  0  0  0  0  0
   84.1390  100.3170  -43.1190 H   0  0  0  0  0  0  0  0  0  0  0  0
   83.6040  100.2880  -45.4070 H   0  0  0  0  0  0  0  0  0  0  0  0
   83.8580   98.4780  -45.5020 H   0  0  0  0  0  0  0  0  0  0  0  0
  2  1  1  0  0  0  0
  3  2  2  0  0  0  0
  4  3  1  0  0  0  0
  5  4  2  0  0  0  0
  5  6  1  0  0  0  0
  6  7  2  0  0  0  0
  7  2  1  0  0  0  0
  7 34  1  0  0  0  0
  8  3  1  0  0  0  0
  8  9  1  0  0  0  0
  9 35  1  0  0  0  0
 10  9  1  0  0  0  0
 10 38  1  0  0  0  0
 11 10  1  0  0  0  0
 12 11  1  0  0  0  0
 12 13  1  0  0  0  0
 13  8  1  0  0  0  0
 13 41  1  0  0  0  0
 14 11  1  0  0  0  0
 15 14  2  0  0  0  0
 16 17  1  0  0  0  0
 16 14  1  0  0  0  0
 17 21  1  0  0  0  0
 18 17  1  0  0  0  0
 18 19  2  0  0  0  0
 19 23  1  0  0  0  0
 19 20  1  0  0  0  0
 20 45  1  0  0  0  0
 21 20  2  0  0  0  0
 21 22  1  0  0  0  0
 22 46  1  0  0  0  0
 23 25  1  0  0  0  0
 24 23  2  0  0  0  0
 25 30  1  0  0  0  0
 25 26  1  0  0  0  0
 26 49  1  0  0  0  0
 26 27  1  0  0  0  0
 27 52  1  0  0  0  0
 27 28  1  0  0  0  0
 29 53  1  0  0  0  0
 29 54  1  0  0  0  0
 29 28  1  0  0  0  0
 30 29  1  0  0  0  0
 31  4  1  0  0  0  0
 32  5  1  0  0  0  0
 33  6  1  0  0  0  0
 36  9  1  0  0  0  0
 37 10  1  0  0  0  0
 39 12  1  0  0  0  0
 40 12  1  0  0  0  0
 42 13  1  0  0  0  0
 43 16  1  0  0  0  0
 44 16  1  0  0  0  0
 47 22  1  0  0  0  0
 48 22  1  0  0  0  0
 50 26  1  0  0  0  0
 51 27  1  0  0  0  0
 55 30  1  0  0  0  0
 56 30  1  0  0  0  0
M  END
>  <Pose>
1

>  <Score>
-3.98

$$$$
