
 OpenBabel03212208273D

 46 49  0  0  1  0  0  0  0  0999 V2000
   93.3250  102.9230  -39.1500 Cl  0  0  0  0  0  0  0  0  0  0  0  0
   92.9760  101.9090  -40.5430 C   0  0  0  0  0  0  0  0  0  0  0  0
   93.0230  100.5440  -40.3680 C   0  0  0  0  0  0  0  0  0  0  0  0
   92.7530   99.7650  -41.4450 N   0  0  0  0  0  0  0  0  0  0  0  0
   92.4480  100.2840  -42.6450 C   0  0  0  0  0  0  0  0  0  0  0  0
   92.1780   99.5170  -43.7190 N   0  0  0  0  0  0  0  0  0  0  0  0
   92.1930   98.1730  -43.6710 C   0  0  0  0  0  0  0  0  0  0  0  0
   92.5080   97.6370  -42.4350 C   0  0  0  0  0  0  0  0  0  0  0  0
   92.7840   98.4210  -41.3380 C   0  0  0  0  0  0  0  0  0  0  0  0
   93.0680   97.8850  -40.2220 O   0  0  0  0  0  0  0  0  0  0  0  0
   91.9060   97.3020  -44.8190 C   0  0  0  0  0  0  0  0  0  0  0  0
   90.8720   96.3690  -44.6530 N   0  0  0  0  0  0  0  0  0  0  0  0
   89.8030   96.3800  -45.5620 C   0  0  0  0  0  0  0  0  0  0  0  0
   89.8820   95.3870  -46.6740 C   0  0  0  0  0  0  0  0  0  0  0  0
   90.6400   94.2020  -46.2980 N   0  0  0  0  0  0  0  0  0  0  0  0
   90.8300   93.1200  -47.0510 N   0  0  0  0  0  0  0  0  0  0  0  0
   91.5750   92.2390  -46.3760 C   0  0  0  0  0  0  0  0  0  0  0  0
   91.8560   92.8030  -45.1570 C   0  0  0  0  0  0  0  0  0  0  0  0
   91.2530   94.0640  -45.1120 C   0  0  0  0  0  0  0  0  0  0  0  0
   91.2090   95.1190  -44.0690 C   0  0  0  0  0  0  0  0  0  0  0  0
   92.0150   90.8960  -46.8670 C   0  0  1  0  0  0  0  0  0  0  0  0
   90.8610   90.1460  -47.1490 O   0  0  0  0  0  0  0  0  0  0  0  0
   92.7490   91.0420  -48.1970 C   0  0  0  0  0  0  0  0  0  0  0  0
   92.9220   89.6560  -48.8020 C   0  0  0  0  0  0  0  0  0  0  0  0
   92.3980  101.6690  -42.8280 C   0  0  0  0  0  0  0  0  0  0  0  0
   92.6660  102.4850  -41.7580 C   0  0  0  0  0  0  0  0  0  0  0  0
   93.2630  100.1120  -39.4260 H   0  0  0  0  0  0  0  0  0  0  0  0
   92.5360   96.5450  -42.3380 H   0  0  0  0  0  0  0  0  0  0  0  0
   91.6670   97.9480  -45.7010 H   0  0  0  0  0  0  0  0  0  0  0  0
   92.8410   96.7510  -45.1320 H   0  0  0  0  0  0  0  0  0  0  0  0
   88.8550   96.1460  -44.9920 H   0  0  0  0  0  0  0  0  0  0  0  0
   89.6510   97.4180  -45.9300 H   0  0  0  0  0  0  0  0  0  0  0  0
   90.3200   95.8740  -47.5630 H   0  0  0  0  0  0  0  0  0  0  0  0
   88.8580   95.0450  -47.0020 H   0  0  0  0  0  0  0  0  0  0  0  0
   92.4340   92.3800  -44.3520 H   0  0  0  0  0  0  0  0  0  0  0  0
   90.4130   94.8710  -43.3060 H   0  0  0  0  0  0  0  0  0  0  0  0
   92.1780   95.2210  -43.5420 H   0  0  0  0  0  0  0  0  0  0  0  0
   92.6470   90.3670  -46.1450 H   0  0  0  0  0  0  0  0  0  0  0  0
   90.6340   89.5470  -46.3810 H   0  0  0  0  0  0  0  0  0  0  0  0
   93.7410   91.4390  -47.9750 H   0  0  0  0  0  0  0  0  0  0  0  0
   92.2330   91.7070  -48.8910 H   0  0  0  0  0  0  0  0  0  0  0  0
   92.3870   88.9070  -48.1960 H   0  0  0  0  0  0  0  0  0  0  0  0
   92.6000   89.6310  -49.8690 H   0  0  0  0  0  0  0  0  0  0  0  0
   94.0070   89.3530  -48.8140 H   0  0  0  0  0  0  0  0  0  0  0  0
   92.1480  102.0580  -43.8100 H   0  0  0  0  0  0  0  0  0  0  0  0
   92.6290  103.5570  -41.8960 H   0  0  0  0  0  0  0  0  0  0  0  0
  2  3  1  0  0  0  0
  2  1  1  0  0  0  0
  3 27  1  0  0  0  0
  4  9  1  0  0  0  0
  4  3  1  0  0  0  0
  5  4  1  0  0  0  0
  6  7  2  0  0  0  0
  6  5  1  0  0  0  0
  7  8  1  0  0  0  0
  8 28  1  0  0  0  0
  8  9  1  0  0  0  0
  9 10  2  0  0  0  0
 11 12  1  0  0  0  0
 11  7  1  0  0  0  0
 12 20  1  0  0  0  0
 13 31  1  0  0  0  0
 13 12  1  0  0  0  0
 14 15  1  0  0  0  0
 14 13  1  0  0  0  0
 15 19  1  0  0  0  0
 16 17  2  0  0  0  0
 16 15  1  0  0  0  0
 17 18  1  0  0  0  0
 18 19  2  0  0  0  0
 18 35  1  0  0  0  0
 19 20  1  0  0  0  0
 20 37  1  0  0  0  0
 20 36  1  0  0  0  0
 21 17  1  0  0  0  0
 21 38  1  1  0  0  0
 22 21  1  0  0  0  0
 22 39  1  0  0  0  0
 23 40  1  0  0  0  0
 23 21  1  0  0  0  0
 24 23  1  0  0  0  0
 24 42  1  0  0  0  0
 25  5  2  0  0  0  0
 25 26  1  0  0  0  0
 26  2  2  0  0  0  0
 29 11  1  0  0  0  0
 30 11  1  0  0  0  0
 32 13  1  0  0  0  0
 33 14  1  0  0  0  0
 34 14  1  0  0  0  0
 41 23  1  0  0  0  0
 43 24  1  0  0  0  0
 44 24  1  0  0  0  0
 45 25  1  0  0  0  0
 46 26  1  0  0  0  0
M  END
>  <Pose>
1

>  <Score>
-5.62

$$$$
