
 OpenBabel03212208273D

 45 48  0  0  1  0  0  0  0  0999 V2000
   92.6840   89.2020  -48.6480 Cl  0  0  0  0  0  0  0  0  0  0  0  0
   92.5170   90.4310  -47.3860 C   0  0  0  0  0  0  0  0  0  0  0  0
   91.4380   91.2530  -47.3510 C   0  0  0  0  0  0  0  0  0  0  0  0
   91.3360   92.2120  -46.3420 C   0  0  0  0  0  0  0  0  0  0  0  0
   92.2690   92.3930  -45.3520 C   0  0  0  0  0  0  0  0  0  0  0  0
   93.3640   91.5160  -45.4390 C   0  0  0  0  0  0  0  0  0  0  0  0
   93.4870   90.5610  -46.4260 C   0  0  0  0  0  0  0  0  0  0  0  0
   92.2210   93.3300  -44.2640 C   0  0  0  0  0  0  0  0  0  0  0  0
   92.4570   92.7570  -43.0940 O   0  0  0  0  0  0  0  0  0  0  0  0
   91.9730   94.7120  -44.2240 N   0  0  0  0  0  0  0  0  0  0  0  0
   91.6370   95.4410  -43.0540 C   0  0  0  0  0  0  0  0  0  0  0  0
   91.6680   96.9440  -43.3790 C   0  0  1  0  0  0  0  0  0  0  0  0
   90.7190   97.1270  -44.4460 N   0  0  0  0  0  0  0  0  0  0  0  0
   90.9600   96.4320  -45.6660 C   0  0  0  0  0  0  0  0  0  0  0  0
   92.0660   95.4090  -45.5060 C   0  0  0  0  0  0  0  0  0  0  0  0
   89.5990   97.9600  -44.2830 C   0  0  0  0  0  0  0  0  0  0  0  0
   89.0260   98.4020  -45.2950 O   0  0  0  0  0  0  0  0  0  0  0  0
   89.1410   98.2820  -42.9160 C   0  0  1  0  0  0  0  0  0  0  0  0
   90.3050   98.6520  -42.1650 N   0  0  0  0  0  0  0  0  0  0  0  0
   91.4210   97.7800  -42.2060 C   0  0  0  0  0  0  0  0  0  0  0  0
   92.2360   97.6980  -41.2340 O   0  0  0  0  0  0  0  0  0  0  0  0
   88.0220   99.2500  -42.8640 C   0  0  0  0  0  0  0  0  0  0  0  0
   86.7490   98.5680  -43.1470 C   0  0  0  0  0  0  0  0  0  0  0  0
   86.3570   97.9660  -44.2730 N   0  0  0  0  0  0  0  0  0  0  0  0
   85.1000   97.4630  -44.1000 C   0  0  0  0  0  0  0  0  0  0  0  0
   84.6930   97.7490  -42.8610 N   0  0  0  0  0  0  0  0  0  0  0  0
   85.6810   98.4220  -42.2610 C   0  0  0  0  0  0  0  0  0  0  0  0
   90.6830   91.1470  -48.1040 H   0  0  0  0  0  0  0  0  0  0  0  0
   90.4720   92.8420  -46.3790 H   0  0  0  0  0  0  0  0  0  0  0  0
   94.1470   91.6020  -44.6820 H   0  0  0  0  0  0  0  0  0  0  0  0
   94.3780   89.9280  -46.4040 H   0  0  0  0  0  0  0  0  0  0  0  0
   92.3320   95.2530  -42.2080 H   0  0  0  0  0  0  0  0  0  0  0  0
   90.6200   95.1550  -42.7370 H   0  0  0  0  0  0  0  0  0  0  0  0
   92.6850   97.1280  -43.7850 H   0  0  0  0  0  0  0  0  0  0  0  0
   91.2670   97.1710  -46.4350 H   0  0  0  0  0  0  0  0  0  0  0  0
   90.0790   95.8950  -46.0740 H   0  0  0  0  0  0  0  0  0  0  0  0
   92.0100   94.6570  -46.3050 H   0  0  0  0  0  0  0  0  0  0  0  0
   93.0360   95.9320  -45.5620 H   0  0  0  0  0  0  0  0  0  0  0  0
   88.7500   97.3450  -42.3970 H   0  0  0  0  0  0  0  0  0  0  0  0
   90.3540   99.5330  -41.5950 H   0  0  0  0  0  0  0  0  0  0  0  0
   88.0130   99.7750  -41.8830 H   0  0  0  0  0  0  0  0  0  0  0  0
   88.2190  100.0660  -43.6120 H   0  0  0  0  0  0  0  0  0  0  0  0
   84.5730   96.9260  -44.8900 H   0  0  0  0  0  0  0  0  0  0  0  0
   83.7920   97.5020  -42.4420 H   0  0  0  0  0  0  0  0  0  0  0  0
   85.7240   98.8210  -41.2570 H   0  0  0  0  0  0  0  0  0  0  0  0
  1  2  1  0  0  0  0
  2  3  2  0  0  0  0
  2  7  1  0  0  0  0
  3  4  1  0  0  0  0
  4  5  2  0  0  0  0
  5  8  1  0  0  0  0
  6  5  1  0  0  0  0
  6 30  1  0  0  0  0
  7 31  1  0  0  0  0
  7  6  2  0  0  0  0
  8 10  1  0  0  0  0
  8  9  2  0  0  0  0
 10 11  1  0  0  0  0
 11 33  1  0  0  0  0
 11 32  1  0  0  0  0
 12 34  1  6  0  0  0
 12 11  1  0  0  0  0
 12 20  1  0  0  0  0
 13 16  1  0  0  0  0
 13 12  1  0  0  0  0
 14 15  1  0  0  0  0
 14 13  1  0  0  0  0
 15 10  1  0  0  0  0
 16 18  1  0  0  0  0
 17 16  2  0  0  0  0
 18 22  1  0  0  0  0
 18 39  1  1  0  0  0
 18 19  1  0  0  0  0
 19 40  1  0  0  0  0
 20 19  1  0  0  0  0
 20 21  2  0  0  0  0
 22 41  1  0  0  0  0
 23 22  1  0  0  0  0
 23 27  2  0  0  0  0
 24 25  2  0  0  0  0
 24 23  1  0  0  0  0
 25 26  1  0  0  0  0
 26 44  1  0  0  0  0
 26 27  1  0  0  0  0
 27 45  1  0  0  0  0
 28  3  1  0  0  0  0
 29  4  1  0  0  0  0
 35 14  1  0  0  0  0
 36 14  1  0  0  0  0
 37 15  1  0  0  0  0
 38 15  1  0  0  0  0
 42 22  1  0  0  0  0
 43 25  1  0  0  0  0
M  END
>  <Pose>
1

>  <Score>
-5.18

$$$$
