
 OpenBabel03212208273D

 49 52  0  0  0  0  0  0  0  0999 V2000
   84.0430  103.4780  -39.3050 B   0  0  0  0  0  0  0  0  0  0  0  0
   84.1150  102.8290  -41.0750 C   0  0  0  0  0  0  0  0  0  0  0  0
   84.5700  101.5410  -41.3130 C   0  0  0  0  0  0  0  0  0  0  0  0
   84.6380  101.0420  -42.5870 C   0  0  0  0  0  0  0  0  0  0  0  0
   84.2690  101.7730  -43.6760 C   0  0  0  0  0  0  0  0  0  0  0  0
   83.8080  103.0720  -43.4450 C   0  0  0  0  0  0  0  0  0  0  0  0
   83.7370  103.5790  -42.1610 C   0  0  0  0  0  0  0  0  0  0  0  0
   85.0960   99.6330  -42.8560 C   0  0  0  0  0  0  0  0  0  0  0  0
   84.1290   98.8150  -43.0470 O   0  0  0  0  0  0  0  0  0  0  0  0
   86.3970   99.3900  -42.8690 N   0  0  0  0  0  0  0  0  0  0  0  0
   87.7590   99.1360  -42.8830 C   0  0  0  0  0  0  0  0  0  0  0  0
   88.4810  100.0380  -43.8510 C   0  0  0  0  0  0  0  0  0  0  0  0
   88.2140  101.2840  -43.7160 O   0  0  0  0  0  0  0  0  0  0  0  0
   89.3750   99.5840  -44.8300 N   0  0  0  0  0  0  0  0  0  0  0  0
   90.7020  100.0940  -44.9660 C   0  0  0  0  0  0  0  0  0  0  0  0
   91.6900   99.0390  -45.3780 C   0  0  0  0  0  0  0  0  0  0  0  0
   91.2650   97.6180  -45.0770 C   0  0  0  0  0  0  0  0  0  0  0  0
   92.2200   96.8070  -45.8200 N   0  0  0  0  0  0  0  0  0  0  0  0
   92.1940   95.4190  -45.5590 C   0  0  0  0  0  0  0  0  0  0  0  0
   91.5280   94.9580  -44.3140 C   0  0  0  0  0  0  0  0  0  0  0  0
   91.5660   96.0040  -43.2450 C   0  0  0  0  0  0  0  0  0  0  0  0
   91.7070   95.9190  -41.9230 N   0  0  0  0  0  0  0  0  0  0  0  0
   91.6680   97.1890  -41.4670 C   0  0  0  0  0  0  0  0  0  0  0  0
   91.5030   98.0500  -42.4950 N   0  0  0  0  0  0  0  0  0  0  0  0
   91.4360   97.3110  -43.6400 C   0  0  0  0  0  0  0  0  0  0  0  0
   89.8560   97.2980  -45.5070 C   0  0  0  0  0  0  0  0  0  0  0  0
   89.0100   98.5310  -45.7700 C   0  0  0  0  0  0  0  0  0  0  0  0
   84.8710  100.9280  -40.4950 H   0  0  0  0  0  0  0  0  0  0  0  0
   84.3310  101.3560  -44.6600 H   0  0  0  0  0  0  0  0  0  0  0  0
   83.5080  103.6830  -44.2770 H   0  0  0  0  0  0  0  0  0  0  0  0
   83.3790  104.5830  -41.9830 H   0  0  0  0  0  0  0  0  0  0  0  0
   86.4320   99.5800  -44.2390 H   0  0  0  0  0  0  0  0  0  0  0  0
   87.9710   98.0580  -43.2040 H   0  0  0  0  0  0  0  0  0  0  0  0
   88.2210   99.1790  -41.8660 H   0  0  0  0  0  0  0  0  0  0  0  0
   90.6560  100.8320  -45.8240 H   0  0  0  0  0  0  0  0  0  0  0  0
   91.0390  100.7070  -44.1100 H   0  0  0  0  0  0  0  0  0  0  0  0
   91.9030   99.1210  -46.4500 H   0  0  0  0  0  0  0  0  0  0  0  0
   92.6080   99.2190  -44.7790 H   0  0  0  0  0  0  0  0  0  0  0  0
   91.9960   97.0200  -46.8350 H   0  0  0  0  0  0  0  0  0  0  0  0
   93.2690   95.0710  -45.5030 H   0  0  0  0  0  0  0  0  0  0  0  0
   91.7740   94.8840  -46.4620 H   0  0  0  0  0  0  0  0  0  0  0  0
   90.4780   94.6580  -44.5370 H   0  0  0  0  0  0  0  0  0  0  0  0
   92.0180   94.0060  -43.9610 H   0  0  0  0  0  0  0  0  0  0  0  0
   91.7580   97.4340  -40.4270 H   0  0  0  0  0  0  0  0  0  0  0  0
   91.4410   99.0790  -42.4150 H   0  0  0  0  0  0  0  0  0  0  0  0
   89.3370   96.7500  -44.6650 H   0  0  0  0  0  0  0  0  0  0  0  0
   89.7990   96.6690  -46.4100 H   0  0  0  0  0  0  0  0  0  0  0  0
   89.1070   98.8790  -46.8250 H   0  0  0  0  0  0  0  0  0  0  0  0
   87.9590   98.2520  -45.5730 H   0  0  0  0  0  0  0  0  0  0  0  0
  2  1  1  0  0  0  0
  3  2  1  0  0  0  0
  3 28  1  0  0  0  0
  4  3  2  0  0  0  0
  5  6  2  0  0  0  0
  5  4  1  0  0  0  0
  6  7  1  0  0  0  0
  7 31  1  0  0  0  0
  7  2  2  0  0  0  0
  8  4  1  0  0  0  0
  9  8  2  0  0  0  0
 10  8  1  0  0  0  0
 11 10  1  0  0  0  0
 11 34  1  0  0  0  0
 12 13  2  0  0  0  0
 12 11  1  0  0  0  0
 14 12  1  0  0  0  0
 15 14  1  0  0  0  0
 15 36  1  0  0  0  0
 16 17  1  0  0  0  0
 16 15  1  0  0  0  0
 16 38  1  0  0  0  0
 17 25  1  0  0  0  0
 18 19  1  0  0  0  0
 18 17  1  0  0  0  0
 19 40  1  0  0  0  0
 19 20  1  0  0  0  0
 20 43  1  0  0  0  0
 20 21  1  0  0  0  0
 21 22  1  0  0  0  0
 22 23  2  0  0  0  0
 23 44  1  0  0  0  0
 24 45  1  0  0  0  0
 24 23  1  0  0  0  0
 25 21  2  0  0  0  0
 25 24  1  0  0  0  0
 26 17  1  0  0  0  0
 26 46  1  0  0  0  0
 27 49  1  0  0  0  0
 27 26  1  0  0  0  0
 27 14  1  0  0  0  0
 29  5  1  0  0  0  0
 30  6  1  0  0  0  0
 32 10  1  0  0  0  0
 33 11  1  0  0  0  0
 35 15  1  0  0  0  0
 37 16  1  0  0  0  0
 39 18  1  0  0  0  0
 41 19  1  0  0  0  0
 42 20  1  0  0  0  0
 47 26  1  0  0  0  0
 48 27  1  0  0  0  0
M  END
>  <Pose>
1

>  <Score>
-5.35

$$$$
