
 OpenBabel03212208273D

 45 48  0  0  1  0  0  0  0  0999 V2000
   90.6820   90.6000  -50.7440 Cl  0  0  0  0  0  0  0  0  0  0  0  0
   91.4190   90.7230  -49.1440 C   0  0  0  0  0  0  0  0  0  0  0  0
   90.9990   91.7000  -48.2730 C   0  0  0  0  0  0  0  0  0  0  0  0
   91.5570   91.8280  -47.0010 C   0  0  0  0  0  0  0  0  0  0  0  0
   92.5460   90.9240  -46.6690 C   0  0  0  0  0  0  0  0  0  0  0  0
   92.9620   89.9440  -47.5520 C   0  0  0  0  0  0  0  0  0  0  0  0
   92.4070   89.8220  -48.8090 C   0  0  0  0  0  0  0  0  0  0  0  0
   91.0960   92.8870  -46.0740 C   0  0  0  0  0  0  0  0  0  0  0  0
   92.2380   93.5500  -45.3540 C   0  0  0  0  0  0  0  0  0  0  0  0
   92.1230   94.9890  -45.2850 N   0  0  0  0  0  0  0  0  0  0  0  0
   91.0200   95.8360  -44.9160 C   0  0  2  0  0  0  0  0  0  0  0  0
   91.3220   97.0880  -45.7150 C   0  0  2  0  0  0  0  0  0  0  0  0
   92.7220   97.2080  -45.4980 O   0  0  0  0  0  0  0  0  0  0  0  0
   93.1860   95.8810  -45.5970 C   0  0  0  0  0  0  0  0  0  0  0  0
   94.3800   95.5850  -45.9200 O   0  0  0  0  0  0  0  0  0  0  0  0
   90.4970   98.0670  -44.9620 C   0  0  0  0  0  0  0  0  0  0  0  0
   90.9460   97.8060  -43.5760 N   0  0  0  0  0  0  0  0  0  0  0  0
   91.2140   96.4030  -43.4980 C   0  0  0  0  0  0  0  0  0  0  0  0
   91.0360   98.8460  -42.6460 C   0  0  0  0  0  0  0  0  0  0  0  0
   92.1150   98.9860  -41.9370 O   0  0  0  0  0  0  0  0  0  0  0  0
   90.0150   99.8370  -42.3640 C   0  0  0  0  0  0  0  0  0  0  0  0
   90.1830  101.0280  -41.7280 N   0  0  0  0  0  0  0  0  0  0  0  0
   89.0080  101.6500  -41.6720 C   0  0  0  0  0  0  0  0  0  0  0  0
   88.0850  100.8860  -42.2590 N   0  0  0  0  0  0  0  0  0  0  0  0
   88.6940   99.7600  -42.6940 C   0  0  0  0  0  0  0  0  0  0  0  0
   91.4360  101.5130  -41.2090 C   0  0  0  0  0  0  0  0  0  0  0  0
   90.2150   92.4190  -48.5290 H   0  0  0  0  0  0  0  0  0  0  0  0
   92.9890   91.0190  -45.6750 H   0  0  0  0  0  0  0  0  0  0  0  0
   93.7450   89.2470  -47.2590 H   0  0  0  0  0  0  0  0  0  0  0  0
   92.7210   89.0620  -49.5090 H   0  0  0  0  0  0  0  0  0  0  0  0
   90.4680   92.4000  -45.2990 H   0  0  0  0  0  0  0  0  0  0  0  0
   90.4270   93.6300  -46.5780 H   0  0  0  0  0  0  0  0  0  0  0  0
   93.1700   93.2420  -45.9080 H   0  0  0  0  0  0  0  0  0  0  0  0
   92.3700   93.1290  -44.3370 H   0  0  0  0  0  0  0  0  0  0  0  0
   90.0330   95.4250  -45.0760 H   0  0  0  0  0  0  0  0  0  0  0  0
   91.0700   96.9920  -46.7810 H   0  0  0  0  0  0  0  0  0  0  0  0
   90.6070   99.1040  -45.2510 H   0  0  0  0  0  0  0  0  0  0  0  0
   89.4450   97.7140  -44.9810 H   0  0  0  0  0  0  0  0  0  0  0  0
   90.6030   95.8360  -42.7870 H   0  0  0  0  0  0  0  0  0  0  0  0
   92.2960   96.2190  -43.2220 H   0  0  0  0  0  0  0  0  0  0  0  0
   88.7580  102.6270  -41.2340 H   0  0  0  0  0  0  0  0  0  0  0  0
   88.1330   98.9690  -43.2160 H   0  0  0  0  0  0  0  0  0  0  0  0
   92.1610  101.7730  -42.0060 H   0  0  0  0  0  0  0  0  0  0  0  0
   91.9120  100.7700  -40.5250 H   0  0  0  0  0  0  0  0  0  0  0  0
   91.2660  102.4230  -40.5980 H   0  0  0  0  0  0  0  0  0  0  0  0
  1  2  1  0  0  0  0
  2  7  2  0  0  0  0
  2  3  1  0  0  0  0
  3  4  2  0  0  0  0
  4  5  1  0  0  0  0
  4  8  1  0  0  0  0
  5 28  1  0  0  0  0
  6 29  1  0  0  0  0
  6  5  2  0  0  0  0
  7  6  1  0  0  0  0
  8  9  1  0  0  0  0
  8 31  1  0  0  0  0
  9 10  1  0  0  0  0
  9 34  1  0  0  0  0
 10 11  1  0  0  0  0
 11 35  1  6  0  0  0
 11 18  1  0  0  0  0
 12 36  1  6  0  0  0
 12 13  1  0  0  0  0
 12 16  1  0  0  0  0
 12 11  1  0  0  0  0
 14 13  1  0  0  0  0
 14 10  1  0  0  0  0
 15 14  2  0  0  0  0
 16 17  1  0  0  0  0
 17 18  1  0  0  0  0
 17 19  1  0  0  0  0
 18 40  1  0  0  0  0
 18 39  1  0  0  0  0
 19 21  1  0  0  0  0
 19 20  2  0  0  0  0
 21 22  1  0  0  0  0
 22 23  1  0  0  0  0
 22 26  1  0  0  0  0
 23 41  1  0  0  0  0
 24 23  2  0  0  0  0
 25 21  2  0  0  0  0
 25 24  1  0  0  0  0
 26 45  1  0  0  0  0
 26 44  1  0  0  0  0
 27  3  1  0  0  0  0
 30  7  1  0  0  0  0
 32  8  1  0  0  0  0
 33  9  1  0  0  0  0
 37 16  1  0  0  0  0
 38 16  1  0  0  0  0
 42 25  1  0  0  0  0
 43 26  1  0  0  0  0
M  END
>  <Pose>
1

>  <Score>
-4.24

$$$$
