
 OpenBabel03212208273D

 45 48  0  0  0  0  0  0  0  0999 V2000
   90.6140  102.1910  -42.9440 Cl  0  0  0  0  0  0  0  0  0  0  0  0
   90.9910  100.4970  -42.6020 C   0  0  0  0  0  0  0  0  0  0  0  0
   90.1180   99.5250  -43.0380 C   0  0  0  0  0  0  0  0  0  0  0  0
   90.4000   98.2020  -42.7780 C   0  0  0  0  0  0  0  0  0  0  0  0
   91.5390   97.8390  -42.0910 C   0  0  0  0  0  0  0  0  0  0  0  0
   92.3890   98.8500  -41.6730 C   0  0  0  0  0  0  0  0  0  0  0  0
   92.1440  100.1820  -41.9120 C   0  0  0  0  0  0  0  0  0  0  0  0
   91.8530   96.4760  -41.8100 N   0  0  0  0  0  0  0  0  0  0  0  0
   92.3130   95.9540  -40.6990 N   0  0  0  0  0  0  0  0  0  0  0  0
   92.4750   94.6080  -40.8570 C   0  0  0  0  0  0  0  0  0  0  0  0
   92.0930   94.2810  -42.1390 C   0  0  0  0  0  0  0  0  0  0  0  0
   91.7040   95.4930  -42.7150 C   0  0  0  0  0  0  0  0  0  0  0  0
   88.9010   99.8920  -43.7690 C   0  0  0  0  0  0  0  0  0  0  0  0
   89.0740  100.3990  -44.9070 O   0  0  0  0  0  0  0  0  0  0  0  0
   87.6080   99.6840  -43.2180 N   0  0  0  0  0  0  0  0  0  0  0  0
   86.4780  100.3470  -43.8300 C   0  0  0  0  0  0  0  0  0  0  0  0
   85.2560   99.4960  -43.5350 C   0  0  0  0  0  0  0  0  0  0  0  0
   85.5820   98.0190  -43.5330 C   0  0  0  0  0  0  0  0  0  0  0  0
   84.3270   97.3060  -43.4670 N   0  0  0  0  0  0  0  0  0  0  0  0
   83.8370   97.1410  -44.7890 C   0  0  0  0  0  0  0  0  0  0  0  0
   82.6460   96.8930  -45.1580 O   0  0  0  0  0  0  0  0  0  0  0  0
   84.9670   97.3120  -45.6500 N   0  0  0  0  0  0  0  0  0  0  0  0
   86.1180   97.5760  -44.8460 C   0  0  0  0  0  0  0  0  0  0  0  0
   87.3170   97.4470  -45.2140 O   0  0  0  0  0  0  0  0  0  0  0  0
   84.9940   97.2390  -47.1120 C   0  0  0  0  0  0  0  0  0  0  0  0
   86.5170   97.6440  -42.4220 C   0  0  0  0  0  0  0  0  0  0  0  0
   87.3440   98.8440  -42.0730 C   0  0  0  0  0  0  0  0  0  0  0  0
   89.7550   97.3900  -43.0920 H   0  0  0  0  0  0  0  0  0  0  0  0
   93.2890   98.5720  -41.1310 H   0  0  0  0  0  0  0  0  0  0  0  0
   92.8460  100.9540  -41.5600 H   0  0  0  0  0  0  0  0  0  0  0  0
   92.8330   93.8810  -40.1430 H   0  0  0  0  0  0  0  0  0  0  0  0
   92.0950   93.2940  -42.6010 H   0  0  0  0  0  0  0  0  0  0  0  0
   91.3430   95.5990  -43.7300 H   0  0  0  0  0  0  0  0  0  0  0  0
   86.3600  101.3540  -43.3810 H   0  0  0  0  0  0  0  0  0  0  0  0
   86.5880  100.3820  -44.9330 H   0  0  0  0  0  0  0  0  0  0  0  0
   84.8250   99.7870  -42.5570 H   0  0  0  0  0  0  0  0  0  0  0  0
   84.4630   99.6800  -44.2870 H   0  0  0  0  0  0  0  0  0  0  0  0
   83.8800   96.9800  -42.5890 H   0  0  0  0  0  0  0  0  0  0  0  0
   85.7330   97.9610  -47.5390 H   0  0  0  0  0  0  0  0  0  0  0  0
   83.9860   97.4480  -47.5120 H   0  0  0  0  0  0  0  0  0  0  0  0
   85.3270   96.2370  -47.4390 H   0  0  0  0  0  0  0  0  0  0  0  0
   87.1520   96.8090  -42.7910 H   0  0  0  0  0  0  0  0  0  0  0  0
   85.9030   97.3410  -41.5470 H   0  0  0  0  0  0  0  0  0  0  0  0
   86.7420   99.4660  -41.3530 H   0  0  0  0  0  0  0  0  0  0  0  0
   88.2780   98.5800  -41.5250 H   0  0  0  0  0  0  0  0  0  0  0  0
  1  2  1  0  0  0  0
  2  7  1  0  0  0  0
  3  4  1  0  0  0  0
  3  2  2  0  0  0  0
  4  5  2  0  0  0  0
  5  8  1  0  0  0  0
  5  6  1  0  0  0  0
  6 29  1  0  0  0  0
  7  6  2  0  0  0  0
  7 30  1  0  0  0  0
  8  9  1  0  0  0  0
 10  9  2  0  0  0  0
 10 31  1  0  0  0  0
 11 10  1  0  0  0  0
 12 11  2  0  0  0  0
 12  8  1  0  0  0  0
 13 15  1  0  0  0  0
 13  3  1  0  0  0  0
 14 13  2  0  0  0  0
 15 27  1  0  0  0  0
 16 17  1  0  0  0  0
 16 34  1  0  0  0  0
 16 15  1  0  0  0  0
 17 18  1  0  0  0  0
 17 36  1  0  0  0  0
 18 19  1  0  0  0  0
 18 26  1  0  0  0  0
 19 38  1  0  0  0  0
 20 19  1  0  0  0  0
 21 20  2  0  0  0  0
 22 23  1  0  0  0  0
 22 20  1  0  0  0  0
 23 18  1  0  0  0  0
 24 23  2  0  0  0  0
 25 22  1  0  0  0  0
 26 27  1  0  0  0  0
 26 43  1  0  0  0  0
 27 45  1  0  0  0  0
 27 44  1  0  0  0  0
 28  4  1  0  0  0  0
 32 11  1  0  0  0  0
 33 12  1  0  0  0  0
 35 16  1  0  0  0  0
 37 17  1  0  0  0  0
 39 25  1  0  0  0  0
 40 25  1  0  0  0  0
 41 25  1  0  0  0  0
 42 26  1  0  0  0  0
M  END
>  <Pose>
1

>  <Score>
-4.81

$$$$
