
 OpenBabel03212208273D

 32 35  0  0  1  0  0  0  0  0999 V2000
   88.6310   95.5900  -48.5910 Cl  0  0  0  0  0  0  0  0  0  0  0  0
   88.5050   96.5800  -47.1340 C   0  0  0  0  0  0  0  0  0  0  0  0
   89.6160   96.9680  -46.4260 C   0  0  0  0  0  0  0  0  0  0  0  0
   89.4900   97.7560  -45.2720 C   0  0  0  0  0  0  0  0  0  0  0  0
   88.2670   98.1600  -44.8160 C   0  0  0  0  0  0  0  0  0  0  0  0
   87.1240   97.7670  -45.5350 C   0  0  0  0  0  0  0  0  0  0  0  0
   87.2840   96.9970  -46.6600 C   0  0  0  0  0  0  0  0  0  0  0  0
   88.3670   98.9460  -43.6390 N   0  0  0  0  0  0  0  0  0  0  0  0
   89.7480   99.0390  -43.3350 C   0  0  0  0  0  0  0  0  0  0  0  0
   90.2090   99.6720  -42.3410 O   0  0  0  0  0  0  0  0  0  0  0  0
   90.5220   98.2930  -44.3520 C   0  0  1  0  0  0  0  0  0  0  0  0
   91.2460   97.1830  -43.6210 C   0  0  0  0  0  0  0  0  0  0  0  0
   92.3180   97.8720  -42.8270 C   0  0  0  0  0  0  0  0  0  0  0  0
   92.4610   97.7230  -41.6000 O   0  0  0  0  0  0  0  0  0  0  0  0
   93.1930   98.7350  -43.5630 N   0  0  0  0  0  0  0  0  0  0  0  0
   92.7120   99.3860  -44.7320 C   0  0  0  0  0  0  0  0  0  0  0  0
   93.2900  100.2360  -45.6240 N   0  0  0  0  0  0  0  0  0  0  0  0
   92.3990  100.5400  -46.5360 N   0  0  0  0  0  0  0  0  0  0  0  0
   91.2310   99.9250  -46.2940 C   0  0  0  0  0  0  0  0  0  0  0  0
   91.4160   99.1720  -45.1270 C   0  0  0  0  0  0  0  0  0  0  0  0
   87.2480   99.5340  -42.8970 C   0  0  0  0  0  0  0  0  0  0  0  0
   90.5840   96.6770  -46.7440 H   0  0  0  0  0  0  0  0  0  0  0  0
   86.1570   98.0900  -45.1710 H   0  0  0  0  0  0  0  0  0  0  0  0
   86.3890   96.6970  -47.2110 H   0  0  0  0  0  0  0  0  0  0  0  0
   91.6650   96.4200  -44.2790 H   0  0  0  0  0  0  0  0  0  0  0  0
   90.5330   96.7780  -42.8760 H   0  0  0  0  0  0  0  0  0  0  0  0
   94.1780   98.8940  -43.2560 H   0  0  0  0  0  0  0  0  0  0  0  0
   94.2830  100.5560  -45.5430 H   0  0  0  0  0  0  0  0  0  0  0  0
   90.3040   99.9560  -46.8380 H   0  0  0  0  0  0  0  0  0  0  0  0
   87.6690   99.9620  -41.9640 H   0  0  0  0  0  0  0  0  0  0  0  0
   86.6920  100.2640  -43.4950 H   0  0  0  0  0  0  0  0  0  0  0  0
   86.5080   98.7380  -42.6030 H   0  0  0  0  0  0  0  0  0  0  0  0
  1  2  1  0  0  0  0
  2  7  2  0  0  0  0
  2  3  1  0  0  0  0
  3  4  2  0  0  0  0
  4  5  1  0  0  0  0
  5  8  1  0  0  0  0
  6 23  1  0  0  0  0
  6  5  2  0  0  0  0
  7  6  1  0  0  0  0
  8  9  1  0  0  0  0
  8 21  1  0  0  0  0
  9 10  2  0  0  0  0
 11  4  1  6  0  0  0
 11 12  1  0  0  0  0
 11  9  1  0  0  0  0
 12 26  1  0  0  0  0
 12 13  1  0  0  0  0
 13 14  2  0  0  0  0
 15 27  1  0  0  0  0
 15 13  1  0  0  0  0
 16 15  1  0  0  0  0
 17 28  1  0  0  0  0
 17 16  1  0  0  0  0
 18 19  2  0  0  0  0
 18 17  1  0  0  0  0
 19 20  1  0  0  0  0
 20 16  2  0  0  0  0
 20 11  1  0  0  0  0
 21 32  1  0  0  0  0
 21 30  1  0  0  0  0
 22  3  1  0  0  0  0
 24  7  1  0  0  0  0
 25 12  1  0  0  0  0
 29 19  1  0  0  0  0
 31 21  1  0  0  0  0
M  END
>  <Pose>
1

>  <Score>
-4.83

$$$$
