
 OpenBabel03212208273D

 61 64  0  0  1  0  0  0  0  0999 V2000
   87.2150   87.4360  -51.9850 Cl  0  0  0  0  0  0  0  0  0  0  0  0
   88.2170   87.9340  -50.6160 C   0  0  0  0  0  0  0  0  0  0  0  0
   89.3020   87.1730  -50.2370 C   0  0  0  0  0  0  0  0  0  0  0  0
   90.0700   87.5600  -49.1870 C   0  0  0  0  0  0  0  0  0  0  0  0
   89.7670   88.7310  -48.4800 C   0  0  0  0  0  0  0  0  0  0  0  0
   88.6800   89.4740  -48.8750 C   0  0  0  0  0  0  0  0  0  0  0  0
   87.8840   89.0930  -49.9470 C   0  0  0  0  0  0  0  0  0  0  0  0
   90.5680   89.1430  -47.3780 N   0  0  0  0  0  0  0  0  0  0  0  0
   91.9620   88.7290  -47.3270 C   0  0  2  0  0  0  0  0  0  0  0  0
   91.9750   87.3100  -47.6000 N   0  0  0  0  0  0  0  0  0  0  0  0
   91.2370   86.8230  -48.7090 C   0  0  0  0  0  0  0  0  0  0  0  0
   91.5360   85.7660  -49.3230 O   0  0  0  0  0  0  0  0  0  0  0  0
   92.4850   88.9950  -45.9560 C   0  0  0  0  0  0  0  0  0  0  0  0
   93.0180   90.3980  -45.7780 C   0  0  0  0  0  0  0  0  0  0  0  0
   92.1020   91.3960  -46.2910 N   0  0  0  0  0  0  0  0  0  0  0  0
   91.7010   91.4590  -47.6820 C   0  0  0  0  0  0  0  0  0  0  0  0
   90.7970   92.2860  -47.9390 O   0  0  0  0  0  0  0  0  0  0  0  0
   92.1910   90.6990  -48.8450 C   0  0  0  0  0  0  0  0  0  0  0  0
   92.7700   89.3790  -48.4320 C   0  0  0  0  0  0  0  0  0  0  0  0
   91.5260   92.3580  -45.4430 C   0  0  0  0  0  0  0  0  0  0  0  0
   92.2620   93.5080  -44.9670 C   0  0  0  0  0  0  0  0  0  0  0  0
   93.1100   93.1660  -43.9970 O   0  0  0  0  0  0  0  0  0  0  0  0
   92.2210   94.8300  -45.3480 N   0  0  0  0  0  0  0  0  0  0  0  0
   90.9100   95.4180  -45.7280 C   0  0  0  0  0  0  0  0  0  0  0  0
   90.8880   96.7730  -45.0040 C   0  0  0  0  0  0  0  0  0  0  0  0
   91.7870   96.7890  -43.8990 N   0  0  0  0  0  0  0  0  0  0  0  0
   93.1810   96.7430  -44.2280 C   0  0  0  0  0  0  0  0  0  0  0  0
   93.2980   95.7380  -45.4090 C   0  0  0  0  0  0  0  0  0  0  0  0
   91.4540   97.6680  -42.8310 C   0  0  0  0  0  0  0  0  0  0  0  0
   91.8220   97.1320  -41.4620 C   0  0  0  0  0  0  0  0  0  0  0  0
   92.0250   99.0510  -42.9890 C   0  0  0  0  0  0  0  0  0  0  0  0
   89.5730   86.2620  -50.7530 H   0  0  0  0  0  0  0  0  0  0  0  0
   88.4530   90.3900  -48.3120 H   0  0  0  0  0  0  0  0  0  0  0  0
   87.0340   89.6860  -50.2470 H   0  0  0  0  0  0  0  0  0  0  0  0
   90.1080   89.7300  -46.6510 H   0  0  0  0  0  0  0  0  0  0  0  0
   92.5000   86.6240  -47.0240 H   0  0  0  0  0  0  0  0  0  0  0  0
   93.3710   88.3120  -45.8060 H   0  0  0  0  0  0  0  0  0  0  0  0
   91.7160   88.7190  -45.2280 H   0  0  0  0  0  0  0  0  0  0  0  0
   93.2920   90.5590  -44.7380 H   0  0  0  0  0  0  0  0  0  0  0  0
   93.9480   90.4540  -46.3770 H   0  0  0  0  0  0  0  0  0  0  0  0
   91.3410   90.5170  -49.5500 H   0  0  0  0  0  0  0  0  0  0  0  0
   92.9960   91.2700  -49.3940 H   0  0  0  0  0  0  0  0  0  0  0  0
   93.8380   89.4550  -48.1440 H   0  0  0  0  0  0  0  0  0  0  0  0
   92.7770   88.7260  -49.3550 H   0  0  0  0  0  0  0  0  0  0  0  0
   91.0900   91.8690  -44.4930 H   0  0  0  0  0  0  0  0  0  0  0  0
   90.5720   92.7160  -45.9360 H   0  0  0  0  0  0  0  0  0  0  0  0
   90.8890   95.5750  -46.8250 H   0  0  0  0  0  0  0  0  0  0  0  0
   90.0950   94.7620  -45.4320 H   0  0  0  0  0  0  0  0  0  0  0  0
   91.0620   97.5840  -45.7490 H   0  0  0  0  0  0  0  0  0  0  0  0
   89.8580   96.8820  -44.6070 H   0  0  0  0  0  0  0  0  0  0  0  0
   93.7290   96.2600  -43.3940 H   0  0  0  0  0  0  0  0  0  0  0  0
   93.6350   97.7000  -44.4920 H   0  0  0  0  0  0  0  0  0  0  0  0
   94.3080   95.3730  -45.4970 H   0  0  0  0  0  0  0  0  0  0  0  0
   93.1480   96.3530  -46.3700 H   0  0  0  0  0  0  0  0  0  0  0  0
   90.3440   97.7830  -42.8260 H   0  0  0  0  0  0  0  0  0  0  0  0
   91.2620   96.1820  -41.3060 H   0  0  0  0  0  0  0  0  0  0  0  0
   92.9000   97.0230  -41.3490 H   0  0  0  0  0  0  0  0  0  0  0  0
   91.4100   97.8540  -40.7170 H   0  0  0  0  0  0  0  0  0  0  0  0
   93.1040   99.1000  -42.7710 H   0  0  0  0  0  0  0  0  0  0  0  0
   91.7940   99.3910  -44.0410 H   0  0  0  0  0  0  0  0  0  0  0  0
   91.4730   99.7080  -42.2810 H   0  0  0  0  0  0  0  0  0  0  0  0
  1  2  1  0  0  0  0
  2  3  2  0  0  0  0
  2  7  1  0  0  0  0
  3  4  1  0  0  0  0
  4 11  1  0  0  0  0
  4  5  2  0  0  0  0
  5  8  1  0  0  0  0
  6  5  1  0  0  0  0
  6 33  1  0  0  0  0
  7  6  2  0  0  0  0
  8  9  1  0  0  0  0
  8 35  1  0  0  0  0
  9 19  1  6  0  0  0
  9 13  1  0  0  0  0
 10  9  1  0  0  0  0
 10 36  1  0  0  0  0
 11 10  1  0  0  0  0
 12 11  2  0  0  0  0
 13 37  1  0  0  0  0
 13 14  1  0  0  0  0
 13 38  1  0  0  0  0
 14 39  1  0  0  0  0
 15 14  1  0  0  0  0
 15 20  1  0  0  0  0
 16 15  1  0  0  0  0
 17 16  2  0  0  0  0
 18 19  1  0  0  0  0
 18 16  1  0  0  0  0
 19 43  1  0  0  0  0
 20 21  1  0  0  0  0
 20 45  1  0  0  0  0
 21 22  2  0  0  0  0
 23 21  1  0  0  0  0
 24 48  1  0  0  0  0
 24 23  1  0  0  0  0
 24 25  1  0  0  0  0
 25 50  1  0  0  0  0
 25 26  1  0  0  0  0
 26 29  1  0  0  0  0
 27 26  1  0  0  0  0
 27 51  1  0  0  0  0
 28 23  1  0  0  0  0
 28 27  1  0  0  0  0
 29 55  1  0  0  0  0
 29 30  1  0  0  0  0
 30 57  1  0  0  0  0
 30 56  1  0  0  0  0
 30 58  1  0  0  0  0
 31 29  1  0  0  0  0
 31 59  1  0  0  0  0
 31 61  1  0  0  0  0
 32  3  1  0  0  0  0
 34  7  1  0  0  0  0
 40 14  1  0  0  0  0
 41 18  1  0  0  0  0
 42 18  1  0  0  0  0
 44 19  1  0  0  0  0
 46 20  1  0  0  0  0
 47 24  1  0  0  0  0
 49 25  1  0  0  0  0
 52 27  1  0  0  0  0
 53 28  1  0  0  0  0
 54 28  1  0  0  0  0
 60 31  1  0  0  0  0
M  END
>  <Pose>
1

>  <Score>
-4.15

$$$$
