
 OpenBabel03212208273D

 40 43  0  0  0  0  0  0  0  0999 V2000
   91.8910   88.9480  -48.8460 Cl  0  0  0  0  0  0  0  0  0  0  0  0
   91.6190   90.4420  -47.9500 C   0  0  0  0  0  0  0  0  0  0  0  0
   92.1840   90.6660  -46.7130 C   0  0  0  0  0  0  0  0  0  0  0  0
   91.9360   91.8550  -46.0560 C   0  0  0  0  0  0  0  0  0  0  0  0
   92.3370   92.3590  -44.8570 N   0  0  0  0  0  0  0  0  0  0  0  0
   91.8020   93.5810  -44.6950 C   0  0  0  0  0  0  0  0  0  0  0  0
   91.0490   93.9030  -45.7680 N   0  0  0  0  0  0  0  0  0  0  0  0
   91.1370   92.8440  -46.5930 C   0  0  0  0  0  0  0  0  0  0  0  0
   90.5690   92.6300  -47.8270 C   0  0  0  0  0  0  0  0  0  0  0  0
   90.8210   91.4390  -48.4770 C   0  0  0  0  0  0  0  0  0  0  0  0
   90.3180   95.1400  -45.9470 C   0  0  0  0  0  0  0  0  0  0  0  0
   91.2460   96.3300  -46.0490 C   0  0  0  0  0  0  0  0  0  0  0  0
   90.9410   97.2330  -44.9450 N   0  0  0  0  0  0  0  0  0  0  0  0
   91.7550   97.3050  -43.8670 C   0  0  0  0  0  0  0  0  0  0  0  0
   91.4960   98.1460  -42.8080 C   0  0  0  0  0  0  0  0  0  0  0  0
   90.3090   98.9920  -42.8350 C   0  0  0  0  0  0  0  0  0  0  0  0
   90.3190   99.6900  -41.6910 N   0  0  0  0  0  0  0  0  0  0  0  0
   91.3930   99.3620  -40.9540 N   0  0  0  0  0  0  0  0  0  0  0  0
   92.1110   98.4370  -41.6090 C   0  0  0  0  0  0  0  0  0  0  0  0
   93.1720   97.9340  -41.1730 O   0  0  0  0  0  0  0  0  0  0  0  0
   89.4990   98.8930  -43.9540 C   0  0  0  0  0  0  0  0  0  0  0  0
   89.8570   98.0210  -44.9440 C   0  0  0  0  0  0  0  0  0  0  0  0
   88.3020   99.7240  -44.0170 C   0  0  0  0  0  0  0  0  0  0  0  0
   88.2490  100.6550  -44.8600 O   0  0  0  0  0  0  0  0  0  0  0  0
   87.2360   99.5180  -43.1810 O   0  0  0  0  0  0  0  0  0  0  0  0
   86.0630   98.8530  -43.6220 C   0  0  0  0  0  0  0  0  0  0  0  0
   92.8110   89.8970  -46.2850 H   0  0  0  0  0  0  0  0  0  0  0  0
   91.9720   94.1820  -43.8270 H   0  0  0  0  0  0  0  0  0  0  0  0
   89.9370   93.4150  -48.2470 H   0  0  0  0  0  0  0  0  0  0  0  0
   90.3790   91.2610  -49.4470 H   0  0  0  0  0  0  0  0  0  0  0  0
   89.6800   95.1200  -46.8550 H   0  0  0  0  0  0  0  0  0  0  0  0
   89.6480   95.2940  -45.0830 H   0  0  0  0  0  0  0  0  0  0  0  0
   91.1100   96.8940  -46.9780 H   0  0  0  0  0  0  0  0  0  0  0  0
   92.2870   95.9750  -45.9960 H   0  0  0  0  0  0  0  0  0  0  0  0
   92.6370   96.6850  -43.8310 H   0  0  0  0  0  0  0  0  0  0  0  0
   91.5870   99.7990  -40.0170 H   0  0  0  0  0  0  0  0  0  0  0  0
   89.2100   97.9470  -45.8290 H   0  0  0  0  0  0  0  0  0  0  0  0
   86.2400   98.4930  -44.6630 H   0  0  0  0  0  0  0  0  0  0  0  0
   85.1900   99.5520  -43.6060 H   0  0  0  0  0  0  0  0  0  0  0  0
   85.8710   97.9450  -43.0080 H   0  0  0  0  0  0  0  0  0  0  0  0
  1  2  1  0  0  0  0
  2  3  1  0  0  0  0
  3 27  1  0  0  0  0
  3  4  2  0  0  0  0
  4  5  1  0  0  0  0
  5  6  2  0  0  0  0
  6 28  1  0  0  0  0
  7  6  1  0  0  0  0
  8  4  1  0  0  0  0
  8  7  1  0  0  0  0
  9  8  2  0  0  0  0
 10  2  2  0  0  0  0
 10  9  1  0  0  0  0
 11  7  1  0  0  0  0
 11 32  1  0  0  0  0
 12 34  1  0  0  0  0
 12 11  1  0  0  0  0
 12 13  1  0  0  0  0
 13 22  1  0  0  0  0
 13 14  1  0  0  0  0
 14 35  1  0  0  0  0
 14 15  1  0  0  0  0
 15 19  1  0  0  0  0
 16 15  2  0  0  0  0
 16 17  1  0  0  0  0
 17 18  1  0  0  0  0
 18 36  1  0  0  0  0
 19 20  2  0  0  0  0
 19 18  1  0  0  0  0
 21 16  1  0  0  0  0
 22 21  2  0  0  0  0
 23 21  1  0  0  0  0
 23 25  1  0  0  0  0
 24 23  2  0  0  0  0
 26 39  1  0  0  0  0
 26 25  1  0  0  0  0
 26 40  1  0  0  0  0
 29  9  1  0  0  0  0
 30 10  1  0  0  0  0
 31 11  1  0  0  0  0
 33 12  1  0  0  0  0
 37 22  1  0  0  0  0
 38 26  1  0  0  0  0
M  END
>  <Pose>
1

>  <Score>
-5.37

$$$$
