
 OpenBabel03212208273D

 49 52  0  0  1  0  0  0  0  0999 V2000
   92.9670   87.9360  -48.6140 Cl  0  0  0  0  0  0  0  0  0  0  0  0
   92.2060   89.4710  -48.2710 C   0  0  0  0  0  0  0  0  0  0  0  0
   92.5190   90.1570  -47.1050 C   0  0  0  0  0  0  0  0  0  0  0  0
   91.9260   91.3750  -46.8200 C   0  0  0  0  0  0  0  0  0  0  0  0
   92.0140   92.2540  -45.8100 N   0  0  0  0  0  0  0  0  0  0  0  0
   91.1980   93.3250  -46.0160 C   0  0  0  0  0  0  0  0  0  0  0  0
   90.5960   93.0690  -47.2070 N   0  0  0  0  0  0  0  0  0  0  0  0
   91.0190   91.9010  -47.7080 C   0  0  0  0  0  0  0  0  0  0  0  0
   90.7120   91.2150  -48.8640 C   0  0  0  0  0  0  0  0  0  0  0  0
   91.2970   89.9940  -49.1650 C   0  0  0  0  0  0  0  0  0  0  0  0
   91.0570   94.4810  -45.1110 C   0  0  0  0  0  0  0  0  0  0  0  0
   91.6250   95.7270  -45.7200 C   0  0  0  0  0  0  0  0  0  0  0  0
   91.3090   96.9020  -44.8820 C   0  0  0  0  0  0  0  0  0  0  0  0
   91.7510   96.9320  -43.7080 O   0  0  0  0  0  0  0  0  0  0  0  0
   90.5350   97.9910  -45.3360 N   0  0  0  0  0  0  0  0  0  0  0  0
   89.2250   98.0270  -45.9540 C   0  0  0  0  0  0  0  0  0  0  0  0
   88.5910   99.1940  -45.3400 C   0  0  2  0  0  0  0  0  0  0  0  0
   89.6840   99.9630  -44.5950 C   0  0  1  0  0  0  0  0  0  0  0  0
   90.9400   99.3700  -45.2660 C   0  0  0  0  0  0  0  0  0  0  0  0
   89.6180  101.3200  -44.7910 O   0  0  0  0  0  0  0  0  0  0  0  0
   87.4190   99.0770  -44.5630 N   0  0  0  0  0  0  0  0  0  0  0  0
   86.4410   98.2500  -45.0210 C   0  0  0  0  0  0  0  0  0  0  0  0
   85.2630   98.0660  -44.3340 C   0  0  0  0  0  0  0  0  0  0  0  0
   85.0430   98.7250  -43.1470 C   0  0  0  0  0  0  0  0  0  0  0  0
   83.9670   98.5740  -42.4940 O   0  0  0  0  0  0  0  0  0  0  0  0
   86.0070   99.5410  -42.6940 N   0  0  0  0  0  0  0  0  0  0  0  0
   87.1300   99.6790  -43.4040 C   0  0  0  0  0  0  0  0  0  0  0  0
   87.9930  100.4480  -42.9350 O   0  0  0  0  0  0  0  0  0  0  0  0
   84.1950   97.1500  -44.8520 C   0  0  0  0  0  0  0  0  0  0  0  0
   93.2330   89.7580  -46.3920 H   0  0  0  0  0  0  0  0  0  0  0  0
   92.6480   92.0860  -44.9900 H   0  0  0  0  0  0  0  0  0  0  0  0
   90.0060   91.5960  -49.5830 H   0  0  0  0  0  0  0  0  0  0  0  0
   91.0360   89.4850  -50.0760 H   0  0  0  0  0  0  0  0  0  0  0  0
   91.6260   94.2610  -44.1770 H   0  0  0  0  0  0  0  0  0  0  0  0
   89.9670   94.6400  -44.8580 H   0  0  0  0  0  0  0  0  0  0  0  0
   92.7530   95.6470  -45.6990 H   0  0  0  0  0  0  0  0  0  0  0  0
   91.3660   95.8450  -46.7830 H   0  0  0  0  0  0  0  0  0  0  0  0
   88.7160   97.0580  -45.9480 H   0  0  0  0  0  0  0  0  0  0  0  0
   89.4480   98.2090  -47.0510 H   0  0  0  0  0  0  0  0  0  0  0  0
   88.3120   99.9170  -46.1750 H   0  0  0  0  0  0  0  0  0  0  0  0
   89.7580   99.6770  -43.5320 H   0  0  0  0  0  0  0  0  0  0  0  0
   91.8390   99.5360  -44.6370 H   0  0  0  0  0  0  0  0  0  0  0  0
   91.0210   99.8520  -46.2630 H   0  0  0  0  0  0  0  0  0  0  0  0
   89.3290  101.7410  -43.9420 H   0  0  0  0  0  0  0  0  0  0  0  0
   86.5320   97.6920  -45.9390 H   0  0  0  0  0  0  0  0  0  0  0  0
   85.8620  100.0660  -41.7770 H   0  0  0  0  0  0  0  0  0  0  0  0
   84.4660   96.7910  -45.8790 H   0  0  0  0  0  0  0  0  0  0  0  0
   83.9980   96.3300  -44.1680 H   0  0  0  0  0  0  0  0  0  0  0  0
   83.2470   97.7430  -44.9720 H   0  0  0  0  0  0  0  0  0  0  0  0
  1  2  1  0  0  0  0
  2  3  1  0  0  0  0
  3  4  2  0  0  0  0
  3 30  1  0  0  0  0
  4  5  1  0  0  0  0
  5 31  1  0  0  0  0
  6  5  1  0  0  0  0
  6 11  1  0  0  0  0
  7  6  2  0  0  0  0
  8  7  1  0  0  0  0
  8  4  1  0  0  0  0
  9  8  2  0  0  0  0
 10  9  1  0  0  0  0
 10  2  2  0  0  0  0
 11 35  1  0  0  0  0
 11 34  1  0  0  0  0
 12 36  1  0  0  0  0
 12 11  1  0  0  0  0
 12 13  1  0  0  0  0
 13 14  2  0  0  0  0
 15 19  1  0  0  0  0
 15 13  1  0  0  0  0
 16 38  1  0  0  0  0
 16 17  1  0  0  0  0
 16 15  1  0  0  0  0
 17 40  1  6  0  0  0
 17 18  1  0  0  0  0
 17 21  1  0  0  0  0
 18 41  1  1  0  0  0
 19 42  1  0  0  0  0
 19 18  1  0  0  0  0
 20 18  1  0  0  0  0
 20 44  1  0  0  0  0
 21 27  1  0  0  0  0
 22 21  1  0  0  0  0
 22 23  2  0  0  0  0
 23 24  1  0  0  0  0
 24 26  1  0  0  0  0
 24 25  2  0  0  0  0
 26 46  1  0  0  0  0
 27 28  2  0  0  0  0
 27 26  1  0  0  0  0
 29 23  1  0  0  0  0
 29 48  1  0  0  0  0
 32  9  1  0  0  0  0
 33 10  1  0  0  0  0
 37 12  1  0  0  0  0
 39 16  1  0  0  0  0
 43 19  1  0  0  0  0
 45 22  1  0  0  0  0
 47 29  1  0  0  0  0
 49 29  1  0  0  0  0
M  END
>  <Pose>
1

>  <Score>
-5.85

$$$$
