
 OpenBabel03212208273D

 55 58  0  0  1  0  0  0  0  0999 V2000
   88.7620   87.8610  -51.7900 Cl  0  0  0  0  0  0  0  0  0  0  0  0
   89.5930   89.0470  -50.8110 C   0  0  0  0  0  0  0  0  0  0  0  0
   89.7050   88.9260  -49.4370 C   0  0  0  0  0  0  0  0  0  0  0  0
   90.3610   89.8640  -48.6750 C   0  0  0  0  0  0  0  0  0  0  0  0
   90.6040   89.9780  -47.3630 N   0  0  0  0  0  0  0  0  0  0  0  0
   91.3080   91.1140  -47.1040 C   0  0  0  0  0  0  0  0  0  0  0  0
   91.4840   91.6820  -48.2880 N   0  0  0  0  0  0  0  0  0  0  0  0
   90.9290   90.9650  -49.2690 C   0  0  0  0  0  0  0  0  0  0  0  0
   90.8300   91.1080  -50.6350 C   0  0  0  0  0  0  0  0  0  0  0  0
   90.1680   90.1580  -51.4020 C   0  0  0  0  0  0  0  0  0  0  0  0
   91.7550   91.5420  -45.7570 C   0  0  0  0  0  0  0  0  0  0  0  0
   92.1350   92.9930  -45.8080 C   0  0  0  0  0  0  0  0  0  0  0  0
   91.4730   93.7140  -44.7070 C   0  0  0  0  0  0  0  0  0  0  0  0
   91.2170   93.1330  -43.6210 O   0  0  0  0  0  0  0  0  0  0  0  0
   91.1280   95.0840  -44.9030 N   0  0  0  0  0  0  0  0  0  0  0  0
   91.9610   96.0340  -45.6060 C   0  0  0  0  0  0  0  0  0  0  0  0
   91.8780   97.4170  -44.9370 C   0  0  1  0  0  0  0  0  0  0  0  0
   91.5300   97.1730  -43.5090 C   0  0  2  0  0  0  0  0  0  0  0  0
   90.0900   96.7250  -43.4170 C   0  0  0  0  0  0  0  0  0  0  0  0
   89.8720   95.5710  -44.3730 C   0  0  0  0  0  0  0  0  0  0  0  0
   91.8600   98.2120  -42.5980 N   0  0  0  0  0  0  0  0  0  0  0  0
   91.5690   99.5040  -42.8070 C   0  0  0  0  0  0  0  0  0  0  0  0
   91.9070  100.4940  -41.8930 C   0  0  0  0  0  0  0  0  0  0  0  0
   92.5610  100.1400  -40.7350 C   0  0  0  0  0  0  0  0  0  0  0  0
   92.8720  101.0410  -39.8960 O   0  0  0  0  0  0  0  0  0  0  0  0
   92.8510   98.8470  -40.5300 N   0  0  0  0  0  0  0  0  0  0  0  0
   92.5010   97.9270  -41.4450 C   0  0  0  0  0  0  0  0  0  0  0  0
   92.7800   96.6920  -41.2450 O   0  0  0  0  0  0  0  0  0  0  0  0
   91.5540  101.9270  -42.1810 C   0  0  0  0  0  0  0  0  0  0  0  0
   93.1570   97.9740  -45.0890 O   0  0  0  0  0  0  0  0  0  0  0  0
   90.8800   98.2160  -45.7140 C   0  0  0  0  0  0  0  0  0  0  0  0
   89.2470   88.0490  -49.0000 H   0  0  0  0  0  0  0  0  0  0  0  0
   90.3070   89.3010  -46.6080 H   0  0  0  0  0  0  0  0  0  0  0  0
   91.2810   91.9760  -51.0820 H   0  0  0  0  0  0  0  0  0  0  0  0
   90.1120   90.3070  -52.4690 H   0  0  0  0  0  0  0  0  0  0  0  0
   92.6840   90.9820  -45.4760 H   0  0  0  0  0  0  0  0  0  0  0  0
   90.9590   91.4090  -44.9950 H   0  0  0  0  0  0  0  0  0  0  0  0
   93.2480   93.0960  -45.7350 H   0  0  0  0  0  0  0  0  0  0  0  0
   91.8920   93.4320  -46.8070 H   0  0  0  0  0  0  0  0  0  0  0  0
   92.9910   95.6920  -45.6920 H   0  0  0  0  0  0  0  0  0  0  0  0
   91.5490   96.0880  -46.6570 H   0  0  0  0  0  0  0  0  0  0  0  0
   92.1360   96.2700  -43.1910 H   0  0  0  0  0  0  0  0  0  0  0  0
   89.8600   96.3140  -42.3960 H   0  0  0  0  0  0  0  0  0  0  0  0
   89.3620   97.5360  -43.5740 H   0  0  0  0  0  0  0  0  0  0  0  0
   89.2980   94.7440  -43.9110 H   0  0  0  0  0  0  0  0  0  0  0  0
   89.2930   95.9700  -45.2570 H   0  0  0  0  0  0  0  0  0  0  0  0
   91.0590   99.7570  -43.7150 H   0  0  0  0  0  0  0  0  0  0  0  0
   93.3450   98.5660  -39.6580 H   0  0  0  0  0  0  0  0  0  0  0  0
   92.3500  102.5530  -41.6880 H   0  0  0  0  0  0  0  0  0  0  0  0
   91.6820  102.0650  -43.2660 H   0  0  0  0  0  0  0  0  0  0  0  0
   90.5660  102.1860  -41.7930 H   0  0  0  0  0  0  0  0  0  0  0  0
   93.7980   97.2450  -45.3700 H   0  0  0  0  0  0  0  0  0  0  0  0
   90.4190   97.6340  -46.5650 H   0  0  0  0  0  0  0  0  0  0  0  0
   91.3720   99.0860  -46.2410 H   0  0  0  0  0  0  0  0  0  0  0  0
   90.0600   98.6400  -45.1380 H   0  0  0  0  0  0  0  0  0  0  0  0
  1  2  1  0  0  0  0
  2  3  1  0  0  0  0
  3 32  1  0  0  0  0
  3  4  2  0  0  0  0
  4  5  1  0  0  0  0
  5  6  1  0  0  0  0
  5 33  1  0  0  0  0
  6 11  1  0  0  0  0
  7  6  2  0  0  0  0
  8  4  1  0  0  0  0
  8  7  1  0  0  0  0
  9  8  2  0  0  0  0
 10  2  2  0  0  0  0
 10  9  1  0  0  0  0
 11 36  1  0  0  0  0
 11 37  1  0  0  0  0
 12 11  1  0  0  0  0
 12 38  1  0  0  0  0
 12 13  1  0  0  0  0
 13 14  2  0  0  0  0
 15 13  1  0  0  0  0
 15 20  1  0  0  0  0
 16 17  1  0  0  0  0
 16 15  1  0  0  0  0
 17 30  1  6  0  0  0
 17 18  1  0  0  0  0
 18 19  1  0  0  0  0
 18 42  1  1  0  0  0
 18 21  1  0  0  0  0
 19 43  1  0  0  0  0
 20 45  1  0  0  0  0
 20 19  1  0  0  0  0
 21 27  1  0  0  0  0
 22 21  1  0  0  0  0
 22 23  2  0  0  0  0
 23 24  1  0  0  0  0
 24 26  1  0  0  0  0
 24 25  2  0  0  0  0
 26 48  1  0  0  0  0
 27 28  2  0  0  0  0
 27 26  1  0  0  0  0
 29 23  1  0  0  0  0
 29 51  1  0  0  0  0
 29 49  1  0  0  0  0
 31 55  1  0  0  0  0
 31 17  1  0  0  0  0
 34  9  1  0  0  0  0
 35 10  1  0  0  0  0
 39 12  1  0  0  0  0
 40 16  1  0  0  0  0
 41 16  1  0  0  0  0
 44 19  1  0  0  0  0
 46 20  1  0  0  0  0
 47 22  1  0  0  0  0
 50 29  1  0  0  0  0
 52 30  1  0  0  0  0
 53 31  1  0  0  0  0
 54 31  1  0  0  0  0
M  END
>  <Pose>
1

>  <Score>
-6.22

$$$$
