
 OpenBabel03212208273D

 55 59  0  0  1  0  0  0  0  0999 V2000
   97.1360  105.3740  -42.2660 Cl  0  0  0  0  0  0  0  0  0  0  0  0
   95.6320  104.4640  -42.3430 C   0  0  0  0  0  0  0  0  0  0  0  0
   95.5570  103.1560  -41.9240 C   0  0  0  0  0  0  0  0  0  0  0  0
   94.3450  102.4690  -42.0010 C   0  0  0  0  0  0  0  0  0  0  0  0
   93.9700  101.2200  -41.6770 N   0  0  0  0  0  0  0  0  0  0  0  0
   92.6660  101.0250  -41.9430 C   0  0  0  0  0  0  0  0  0  0  0  0
   92.2200  102.1780  -42.4440 N   0  0  0  0  0  0  0  0  0  0  0  0
   93.2160  103.0860  -42.4950 C   0  0  0  0  0  0  0  0  0  0  0  0
   93.2920  104.3970  -42.9160 C   0  0  0  0  0  0  0  0  0  0  0  0
   94.5100  105.0720  -42.8330 C   0  0  0  0  0  0  0  0  0  0  0  0
   91.9300   99.7410  -41.7000 C   0  0  0  0  0  0  0  0  0  0  0  0
   90.9730   99.5000  -42.8460 C   0  0  0  0  0  0  0  0  0  0  0  0
   91.5660   98.5770  -43.8270 C   0  0  0  0  0  0  0  0  0  0  0  0
   92.7250   98.1570  -43.6470 O   0  0  0  0  0  0  0  0  0  0  0  0
   90.8360   98.1720  -44.9560 N   0  0  0  0  0  0  0  0  0  0  0  0
   90.0200   98.9030  -45.8730 C   0  0  0  0  0  0  0  0  0  0  0  0
   88.8020   97.9830  -46.1240 C   0  0  1  0  0  0  0  0  0  0  0  0
   89.4710   96.6560  -46.0540 C   0  0  2  0  0  0  0  0  0  0  0  0
   90.8170   96.8020  -45.4280 C   0  0  0  0  0  0  0  0  0  0  0  0
   89.6650   96.0690  -47.3030 O   0  0  0  0  0  0  0  0  0  0  0  0
   87.8320   98.2150  -45.0910 N   0  0  0  0  0  0  0  0  0  0  0  0
   86.5740   97.7480  -45.0160 C   0  0  0  0  0  0  0  0  0  0  0  0
   85.9870   98.2290  -43.8280 C   0  0  0  0  0  0  0  0  0  0  0  0
   86.9250   98.9780  -43.2270 N   0  0  0  0  0  0  0  0  0  0  0  0
   88.0310   98.9800  -43.9670 C   0  0  0  0  0  0  0  0  0  0  0  0
   84.6920   97.9060  -43.4910 C   0  0  0  0  0  0  0  0  0  0  0  0
   84.1940   98.3510  -42.4220 O   0  0  0  0  0  0  0  0  0  0  0  0
   84.0090   97.1180  -44.3290 N   0  0  0  0  0  0  0  0  0  0  0  0
   84.5730   96.6670  -45.4500 C   0  0  0  0  0  0  0  0  0  0  0  0
   83.9170   95.9260  -46.2290 O   0  0  0  0  0  0  0  0  0  0  0  0
   85.8540   96.9570  -45.8350 N   0  0  0  0  0  0  0  0  0  0  0  0
   86.3930   96.4390  -47.0520 C   0  0  0  0  0  0  0  0  0  0  0  0
   82.6290   96.7560  -43.9970 C   0  0  0  0  0  0  0  0  0  0  0  0
   96.4270  102.6570  -41.5340 H   0  0  0  0  0  0  0  0  0  0  0  0
   94.6370  100.5110  -41.2700 H   0  0  0  0  0  0  0  0  0  0  0  0
   92.4250  104.9050  -43.3070 H   0  0  0  0  0  0  0  0  0  0  0  0
   94.5770  106.1080  -43.1640 H   0  0  0  0  0  0  0  0  0  0  0  0
   91.3900   99.8390  -40.7420 H   0  0  0  0  0  0  0  0  0  0  0  0
   92.6410   98.8930  -41.6140 H   0  0  0  0  0  0  0  0  0  0  0  0
   90.6430  100.4540  -43.2810 H   0  0  0  0  0  0  0  0  0  0  0  0
   90.0490   99.0540  -42.3740 H   0  0  0  0  0  0  0  0  0  0  0  0
   90.6190   98.9480  -46.8340 H   0  0  0  0  0  0  0  0  0  0  0  0
   89.7550   99.9150  -45.6240 H   0  0  0  0  0  0  0  0  0  0  0  0
   88.5020   98.3210  -47.1360 H   0  0  0  0  0  0  0  0  0  0  0  0
   88.8860   95.9840  -45.3590 H   0  0  0  0  0  0  0  0  0  0  0  0
   91.0040   96.0780  -44.6080 H   0  0  0  0  0  0  0  0  0  0  0  0
   91.6240   96.6600  -46.2060 H   0  0  0  0  0  0  0  0  0  0  0  0
   90.5950   96.2140  -47.6370 H   0  0  0  0  0  0  0  0  0  0  0  0
   88.9500   99.4860  -43.7570 H   0  0  0  0  0  0  0  0  0  0  0  0
   86.9480   95.4850  -46.9500 H   0  0  0  0  0  0  0  0  0  0  0  0
   85.4690   96.0730  -47.6390 H   0  0  0  0  0  0  0  0  0  0  0  0
   86.8030   97.1620  -47.7620 H   0  0  0  0  0  0  0  0  0  0  0  0
   82.5670   95.6730  -43.7470 H   0  0  0  0  0  0  0  0  0  0  0  0
   82.2770   97.3620  -43.1430 H   0  0  0  0  0  0  0  0  0  0  0  0
   81.9980   96.9100  -44.8930 H   0  0  0  0  0  0  0  0  0  0  0  0
  2  1  1  0  0  0  0
  2  3  1  0  0  0  0
  3 34  1  0  0  0  0
  4  3  2  0  0  0  0
  4  5  1  0  0  0  0
  5 35  1  0  0  0  0
  6 11  1  0  0  0  0
  6  5  1  0  0  0  0
  7  6  2  0  0  0  0
  8  7  1  0  0  0  0
  8  4  1  0  0  0  0
  9 10  1  0  0  0  0
  9  8  2  0  0  0  0
 10  2  2  0  0  0  0
 11 39  1  0  0  0  0
 11 38  1  0  0  0  0
 12 41  1  0  0  0  0
 12 11  1  0  0  0  0
 13 14  2  0  0  0  0
 13 12  1  0  0  0  0
 15 13  1  0  0  0  0
 16 43  1  0  0  0  0
 16 15  1  0  0  0  0
 17 44  1  6  0  0  0
 17 18  1  0  0  0  0
 17 16  1  0  0  0  0
 17 21  1  0  0  0  0
 18 19  1  0  0  0  0
 18 45  1  1  0  0  0
 19 15  1  0  0  0  0
 19 46  1  0  0  0  0
 20 18  1  0  0  0  0
 21 22  1  0  0  0  0
 21 25  1  0  0  0  0
 22 23  2  0  0  0  0
 23 26  1  0  0  0  0
 23 24  1  0  0  0  0
 25 49  1  0  0  0  0
 25 24  2  0  0  0  0
 26 27  2  0  0  0  0
 28 33  1  0  0  0  0
 28 26  1  0  0  0  0
 29 28  1  0  0  0  0
 30 29  2  0  0  0  0
 31 29  1  0  0  0  0
 31 22  1  0  0  0  0
 32 50  1  0  0  0  0
 32 31  1  0  0  0  0
 33 53  1  0  0  0  0
 33 54  1  0  0  0  0
 36  9  1  0  0  0  0
 37 10  1  0  0  0  0
 40 12  1  0  0  0  0
 42 16  1  0  0  0  0
 47 19  1  0  0  0  0
 48 20  1  0  0  0  0
 51 32  1  0  0  0  0
 52 32  1  0  0  0  0
 55 33  1  0  0  0  0
M  END
>  <Pose>
1

>  <Score>
-5.67

$$$$
