
 OpenBabel03212208273D

 48 51  0  0  0  0  0  0  0  0999 V2000
   91.3240   96.3330  -45.1280 S   0  0  0  0  0  0  0  0  0  0  0  0
   90.6500   95.6590  -46.3150 O   0  0  0  0  0  0  0  0  0  0  0  0
   92.6780   96.7800  -45.6470 O   0  0  0  0  0  0  0  0  0  0  0  0
   90.4370   97.6970  -44.7130 N   0  0  0  0  0  0  0  0  0  0  0  0
   89.7040   97.6390  -43.4980 C   0  0  0  0  0  0  0  0  0  0  0  0
   90.0060   98.7820  -42.5620 C   0  0  0  0  0  0  0  0  0  0  0  0
   91.3680   99.2360  -42.6670 N   0  0  0  0  0  0  0  0  0  0  0  0
   91.9180   99.5250  -43.9690 C   0  0  0  0  0  0  0  0  0  0  0  0
   91.0010   98.9620  -45.0110 C   0  0  0  0  0  0  0  0  0  0  0  0
   92.1960   99.4130  -41.5310 C   0  0  0  0  0  0  0  0  0  0  0  0
   93.0240   98.5260  -41.2460 O   0  0  0  0  0  0  0  0  0  0  0  0
   92.1050  100.6170  -40.6750 C   0  0  0  0  0  0  0  0  0  0  0  0
   93.0930  101.5900  -41.0400 N   0  0  0  0  0  0  0  0  0  0  0  0
   93.1480  102.4480  -42.1710 C   0  0  0  0  0  0  0  0  0  0  0  0
   92.2810  102.4800  -43.0720 O   0  0  0  0  0  0  0  0  0  0  0  0
   94.3570  103.2500  -42.0810 C   0  0  0  0  0  0  0  0  0  0  0  0
   95.0370  102.9080  -40.9360 C   0  0  0  0  0  0  0  0  0  0  0  0
   96.2320  103.5480  -40.6360 C   0  0  0  0  0  0  0  0  0  0  0  0
   96.7530  104.5130  -41.4530 C   0  0  0  0  0  0  0  0  0  0  0  0
   96.0740  104.8690  -42.6170 C   0  0  0  0  0  0  0  0  0  0  0  0
   94.8820  104.2180  -42.8980 C   0  0  0  0  0  0  0  0  0  0  0  0
   94.2650  101.8690  -40.2660 C   0  0  0  0  0  0  0  0  0  0  0  0
   94.6320  101.3480  -39.1810 O   0  0  0  0  0  0  0  0  0  0  0  0
   91.5990   95.2020  -43.8590 C   0  0  0  0  0  0  0  0  0  0  0  0
   91.6690   93.8490  -44.1450 C   0  0  0  0  0  0  0  0  0  0  0  0
   91.8880   92.9010  -43.1670 C   0  0  0  0  0  0  0  0  0  0  0  0
   92.0410   93.3380  -41.8640 C   0  0  0  0  0  0  0  0  0  0  0  0
   91.9680   94.6890  -41.5930 C   0  0  0  0  0  0  0  0  0  0  0  0
   91.7500   95.6480  -42.5610 C   0  0  0  0  0  0  0  0  0  0  0  0
   92.3500   92.0680  -40.4490 B   0  0  0  0  0  0  0  0  0  0  0  0
   88.6100   97.7300  -43.7650 H   0  0  0  0  0  0  0  0  0  0  0  0
   89.8100   96.6480  -43.0090 H   0  0  0  0  0  0  0  0  0  0  0  0
   89.7850   98.4590  -41.5270 H   0  0  0  0  0  0  0  0  0  0  0  0
   89.3010   99.6300  -42.7660 H   0  0  0  0  0  0  0  0  0  0  0  0
   91.9390  100.6430  -44.1300 H   0  0  0  0  0  0  0  0  0  0  0  0
   92.9460   99.1340  -44.0200 H   0  0  0  0  0  0  0  0  0  0  0  0
   91.4770   98.9560  -46.0080 H   0  0  0  0  0  0  0  0  0  0  0  0
   90.1440   99.6940  -45.1080 H   0  0  0  0  0  0  0  0  0  0  0  0
   92.2960  100.2770  -39.6190 H   0  0  0  0  0  0  0  0  0  0  0  0
   91.0870  101.0670  -40.7220 H   0  0  0  0  0  0  0  0  0  0  0  0
   96.7440  103.2630  -39.7370 H   0  0  0  0  0  0  0  0  0  0  0  0
   97.6700  105.0050  -41.2240 H   0  0  0  0  0  0  0  0  0  0  0  0
   96.4340  105.6140  -43.2900 H   0  0  0  0  0  0  0  0  0  0  0  0
   94.3600  104.5000  -43.8050 H   0  0  0  0  0  0  0  0  0  0  0  0
   91.5540   93.4620  -45.1640 H   0  0  0  0  0  0  0  0  0  0  0  0
   91.9480   91.8370  -43.3620 H   0  0  0  0  0  0  0  0  0  0  0  0
   92.0870   95.0550  -40.5620 H   0  0  0  0  0  0  0  0  0  0  0  0
   91.7000   96.7080  -42.2940 H   0  0  0  0  0  0  0  0  0  0  0  0
  1  4  1  0  0  0  0
  1 24  1  0  0  0  0
  2  1  2  0  0  0  0
  3  1  2  0  0  0  0
  4  5  1  0  0  0  0
  5 32  1  0  0  0  0
  5  6  1  0  0  0  0
  6 33  1  0  0  0  0
  7  6  1  0  0  0  0
  7 10  1  0  0  0  0
  8  7  1  0  0  0  0
  9  4  1  0  0  0  0
  9  8  1  0  0  0  0
 10 11  2  0  0  0  0
 10 12  1  0  0  0  0
 12 39  1  0  0  0  0
 13 12  1  0  0  0  0
 13 22  1  0  0  0  0
 14 16  1  0  0  0  0
 14 13  1  0  0  0  0
 15 14  2  0  0  0  0
 16 17  1  0  0  0  0
 17 18  2  0  0  0  0
 17 22  1  0  0  0  0
 18 41  1  0  0  0  0
 19 42  1  0  0  0  0
 19 18  1  0  0  0  0
 20 19  2  0  0  0  0
 21 20  1  0  0  0  0
 21 16  2  0  0  0  0
 22 23  2  0  0  0  0
 24 29  1  0  0  0  0
 25 24  2  0  0  0  0
 25 26  1  0  0  0  0
 26 27  2  0  0  0  0
 27 28  1  0  0  0  0
 27 30  1  0  0  0  0
 28 47  1  0  0  0  0
 29 48  1  0  0  0  0
 29 28  2  0  0  0  0
 31  5  1  0  0  0  0
 34  6  1  0  0  0  0
 35  8  1  0  0  0  0
 36  8  1  0  0  0  0
 37  9  1  0  0  0  0
 38  9  1  0  0  0  0
 40 12  1  0  0  0  0
 43 20  1  0  0  0  0
 44 21  1  0  0  0  0
 45 25  1  0  0  0  0
 46 26  1  0  0  0  0
M  END
>  <Pose>
1

>  <Score>
-4.37

$$$$
