
 OpenBabel03212208273D

 51 55  0  0  1  0  0  0  0  0999 V2000
   94.5390  104.0160  -42.7560 Cl  0  0  0  0  0  0  0  0  0  0  0  0
   93.2880  103.0010  -42.0760 C   0  0  0  0  0  0  0  0  0  0  0  0
   93.0790  101.7590  -42.6750 C   0  0  0  0  0  0  0  0  0  0  0  0
   92.1030  100.9310  -42.1680 C   0  0  0  0  0  0  0  0  0  0  0  0
   91.3650  101.3810  -41.0720 C   0  0  0  0  0  0  0  0  0  0  0  0
   91.5780  102.6110  -40.4860 C   0  0  0  0  0  0  0  0  0  0  0  0
   92.5570  103.4390  -40.9940 C   0  0  0  0  0  0  0  0  0  0  0  0
   92.0340   99.6820  -42.9280 C   0  0  1  0  0  0  0  0  0  0  0  0
   92.2190   98.5060  -42.0990 N   0  0  0  0  0  0  0  0  0  0  0  0
   91.6200   97.4120  -42.8510 C   0  0  2  0  0  0  0  0  0  0  0  0
   90.4600   98.0030  -43.6030 C   0  0  1  0  0  0  0  0  0  0  0  0
   90.7100   99.4900  -43.6320 C   0  0  2  0  0  0  0  0  0  0  0  0
   90.7940   99.8600  -45.0670 C   0  0  0  0  0  0  0  0  0  0  0  0
   91.1310  101.0200  -45.4330 O   0  0  0  0  0  0  0  0  0  0  0  0
   90.4490   98.7410  -45.8660 N   0  0  0  0  0  0  0  0  0  0  0  0
   90.5620   97.5890  -45.0450 C   0  0  0  0  0  0  0  0  0  0  0  0
   90.7230   96.3860  -45.3970 O   0  0  0  0  0  0  0  0  0  0  0  0
   90.0580   98.7690  -47.2290 C   0  0  0  0  0  0  0  0  0  0  0  0
   88.9860   97.8420  -47.6470 C   0  0  2  0  0  0  0  0  0  0  0  0
   89.3920   96.7980  -48.4640 O   0  0  0  0  0  0  0  0  0  0  0  0
   88.2060   96.0720  -48.5780 C   0  0  0  0  0  0  0  0  0  0  0  0
   87.1260   97.1280  -48.8480 C   0  0  0  0  0  0  0  0  0  0  0  0
   87.8340   98.4140  -48.3870 C   0  0  0  0  0  0  0  0  0  0  0  0
   91.1940   96.3380  -41.8940 C   0  0  0  0  0  0  0  0  0  0  0  0
   92.3810   96.0140  -41.0390 C   0  0  0  0  0  0  0  0  0  0  0  0
   92.9440   96.9830  -40.4680 O   0  0  0  0  0  0  0  0  0  0  0  0
   92.8620   94.6910  -40.8690 N   0  0  0  0  0  0  0  0  0  0  0  0
   93.0780   99.8150  -43.9560 C   0  0  0  0  0  0  0  0  0  0  0  0
   93.3980   98.9580  -44.8590 O   0  0  0  0  0  0  0  0  0  0  0  0
   93.6820  101.0830  -43.7710 N   0  0  0  0  0  0  0  0  0  0  0  0
   90.5830  100.7710  -40.6310 H   0  0  0  0  0  0  0  0  0  0  0  0
   91.0050  102.9570  -39.6360 H   0  0  0  0  0  0  0  0  0  0  0  0
   92.7100  104.4010  -40.5210 H   0  0  0  0  0  0  0  0  0  0  0  0
   91.7720   98.6140  -41.1600 H   0  0  0  0  0  0  0  0  0  0  0  0
   92.3950   97.0500  -43.5480 H   0  0  0  0  0  0  0  0  0  0  0  0
   89.5010   97.7240  -43.1610 H   0  0  0  0  0  0  0  0  0  0  0  0
   89.9060  100.0220  -43.1260 H   0  0  0  0  0  0  0  0  0  0  0  0
   89.7100   99.8060  -47.5170 H   0  0  0  0  0  0  0  0  0  0  0  0
   90.9230   98.5990  -47.9370 H   0  0  0  0  0  0  0  0  0  0  0  0
   88.5800   97.3650  -46.7220 H   0  0  0  0  0  0  0  0  0  0  0  0
   87.9350   95.5600  -47.6420 H   0  0  0  0  0  0  0  0  0  0  0  0
   88.2470   95.3180  -49.3800 H   0  0  0  0  0  0  0  0  0  0  0  0
   86.9050   97.1290  -49.9110 H   0  0  0  0  0  0  0  0  0  0  0  0
   86.2360   96.9620  -48.1960 H   0  0  0  0  0  0  0  0  0  0  0  0
   88.0620   98.9630  -49.2990 H   0  0  0  0  0  0  0  0  0  0  0  0
   87.1350   98.9880  -47.7340 H   0  0  0  0  0  0  0  0  0  0  0  0
   90.9070   95.4520  -42.5020 H   0  0  0  0  0  0  0  0  0  0  0  0
   90.3470   96.6820  -41.2900 H   0  0  0  0  0  0  0  0  0  0  0  0
   92.7360   94.0210  -41.6520 H   0  0  0  0  0  0  0  0  0  0  0  0
   93.3340   94.3490  -40.0090 H   0  0  0  0  0  0  0  0  0  0  0  0
   94.4670  101.4800  -44.3560 H   0  0  0  0  0  0  0  0  0  0  0  0
  1  2  1  0  0  0  0
  2  7  1  0  0  0  0
  3  4  1  0  0  0  0
  3  2  2  0  0  0  0
  4  5  2  0  0  0  0
  5 31  1  0  0  0  0
  5  6  1  0  0  0  0
  6 32  1  0  0  0  0
  7 33  1  0  0  0  0
  7  6  2  0  0  0  0
  8 28  1  6  0  0  0
  8  4  1  0  0  0  0
  8  9  1  0  0  0  0
  9 34  1  0  0  0  0
 10 35  1  6  0  0  0
 10  9  1  0  0  0  0
 10 24  1  0  0  0  0
 11 36  1  1  0  0  0
 11 10  1  0  0  0  0
 12 11  1  0  0  0  0
 12 37  1  1  0  0  0
 12  8  1  0  0  0  0
 13 12  1  0  0  0  0
 14 13  2  0  0  0  0
 15 13  1  0  0  0  0
 15 16  1  0  0  0  0
 16 11  1  0  0  0  0
 17 16  2  0  0  0  0
 18 15  1  0  0  0  0
 19 18  1  0  0  0  0
 19 40  1  1  0  0  0
 20 19  1  0  0  0  0
 21 20  1  0  0  0  0
 21 41  1  0  0  0  0
 22 21  1  0  0  0  0
 22 23  1  0  0  0  0
 22 44  1  0  0  0  0
 23 46  1  0  0  0  0
 23 19  1  0  0  0  0
 24 48  1  0  0  0  0
 24 25  1  0  0  0  0
 25 27  1  0  0  0  0
 25 26  2  0  0  0  0
 27 50  1  0  0  0  0
 28 30  1  0  0  0  0
 29 28  2  0  0  0  0
 30  3  1  0  0  0  0
 38 18  1  0  0  0  0
 39 18  1  0  0  0  0
 42 21  1  0  0  0  0
 43 22  1  0  0  0  0
 45 23  1  0  0  0  0
 47 24  1  0  0  0  0
 49 27  1  0  0  0  0
 51 30  1  0  0  0  0
M  END
>  <Pose>
1

>  <Score>
-5.73

$$$$
