
 OpenBabel03212208273D

 39 42  0  0  0  0  0  0  0  0999 V2000
   91.2390  103.4510  -39.4000 B   0  0  0  0  0  0  0  0  0  0  0  0
   90.3260  102.8040  -40.9270 C   0  0  0  0  0  0  0  0  0  0  0  0
   90.4640  101.4540  -41.2530 C   0  0  0  0  0  0  0  0  0  0  0  0
   89.7700  101.0530  -42.3800 C   0  0  0  0  0  0  0  0  0  0  0  0
   88.9870  101.9280  -43.1360 C   0  0  0  0  0  0  0  0  0  0  0  0
   88.8890  103.2450  -42.7640 C   0  0  0  0  0  0  0  0  0  0  0  0
   89.5650  103.6900  -41.6490 C   0  0  0  0  0  0  0  0  0  0  0  0
   91.2660  100.6040  -40.4630 N   0  0  0  0  0  0  0  0  0  0  0  0
   92.6490  100.4270  -40.4950 C   0  0  0  0  0  0  0  0  0  0  0  0
   93.4130  101.3150  -40.9170 O   0  0  0  0  0  0  0  0  0  0  0  0
   93.2840   99.1660  -40.0280 C   0  0  0  0  0  0  0  0  0  0  0  0
   92.7640   98.0130  -40.7810 N   0  0  0  0  0  0  0  0  0  0  0  0
   92.5660   96.7860  -40.3280 N   0  0  0  0  0  0  0  0  0  0  0  0
   92.0880   96.0170  -41.2990 N   0  0  0  0  0  0  0  0  0  0  0  0
   91.9730   96.7710  -42.4130 C   0  0  0  0  0  0  0  0  0  0  0  0
   92.4000   97.9920  -42.0520 N   0  0  0  0  0  0  0  0  0  0  0  0
   91.4910   96.3400  -43.7170 C   0  0  0  0  0  0  0  0  0  0  0  0
   91.6580   95.0200  -44.0650 C   0  0  0  0  0  0  0  0  0  0  0  0
   91.1990   94.6110  -45.3060 C   0  0  0  0  0  0  0  0  0  0  0  0
   90.5930   95.4760  -46.1820 C   0  0  0  0  0  0  0  0  0  0  0  0
   90.4250   96.8010  -45.8350 C   0  0  0  0  0  0  0  0  0  0  0  0
   90.8840   97.2070  -44.5940 C   0  0  0  0  0  0  0  0  0  0  0  0
   92.2780   94.0620  -43.2080 N   0  0  0  0  0  0  0  0  0  0  0  0
   93.3220   93.3210  -43.5550 N   0  0  0  0  0  0  0  0  0  0  0  0
   93.6460   92.5460  -42.5440 N   0  0  0  0  0  0  0  0  0  0  0  0
   92.8000   92.7950  -41.5470 N   0  0  0  0  0  0  0  0  0  0  0  0
   91.9410   93.7480  -41.9650 C   0  0  0  0  0  0  0  0  0  0  0  0
   89.8020  100.0470  -42.7240 H   0  0  0  0  0  0  0  0  0  0  0  0
   88.4580  101.5900  -44.0060 H   0  0  0  0  0  0  0  0  0  0  0  0
   88.2990  103.9580  -43.3130 H   0  0  0  0  0  0  0  0  0  0  0  0
   89.4660  104.7310  -41.3850 H   0  0  0  0  0  0  0  0  0  0  0  0
   90.7450  100.0170  -39.7440 H   0  0  0  0  0  0  0  0  0  0  0  0
   93.1660   98.9960  -38.9510 H   0  0  0  0  0  0  0  0  0  0  0  0
   94.3860   99.1620  -40.2370 H   0  0  0  0  0  0  0  0  0  0  0  0
   91.3240   93.5730  -45.5910 H   0  0  0  0  0  0  0  0  0  0  0  0
   90.2270   95.1660  -47.1620 H   0  0  0  0  0  0  0  0  0  0  0  0
   89.9460   97.5010  -46.5180 H   0  0  0  0  0  0  0  0  0  0  0  0
   90.7410   98.2500  -44.3450 H   0  0  0  0  0  0  0  0  0  0  0  0
   91.1250   94.1900  -41.4120 H   0  0  0  0  0  0  0  0  0  0  0  0
  2  1  1  0  0  0  0
  3  2  1  0  0  0  0
  3  8  1  0  0  0  0
  4  3  2  0  0  0  0
  5  6  2  0  0  0  0
  5  4  1  0  0  0  0
  6  7  1  0  0  0  0
  7 31  1  0  0  0  0
  7  2  2  0  0  0  0
  8 32  1  0  0  0  0
  9  8  1  0  0  0  0
  9 11  1  0  0  0  0
 10  9  2  0  0  0  0
 11 33  1  0  0  0  0
 12 13  1  0  0  0  0
 12 11  1  0  0  0  0
 14 13  1  0  0  0  0
 15 16  1  0  0  0  0
 15 14  2  0  0  0  0
 16 12  1  0  0  0  0
 17 15  1  0  0  0  0
 18 17  1  0  0  0  0
 18 23  1  0  0  0  0
 19 18  2  0  0  0  0
 20 21  2  0  0  0  0
 20 19  1  0  0  0  0
 21 22  1  0  0  0  0
 22 38  1  0  0  0  0
 22 17  2  0  0  0  0
 23 27  1  0  0  0  0
 24 23  1  0  0  0  0
 24 25  2  0  0  0  0
 25 26  1  0  0  0  0
 27 26  2  0  0  0  0
 27 39  1  0  0  0  0
 28  4  1  0  0  0  0
 29  5  1  0  0  0  0
 30  6  1  0  0  0  0
 34 11  1  0  0  0  0
 35 19  1  0  0  0  0
 36 20  1  0  0  0  0
 37 21  1  0  0  0  0
M  END
>  <Pose>
1

>  <Score>
-5.63

$$$$
