
 OpenBabel03212208273D

 53 56  0  0  0  0  0  0  0  0999 V2000
   91.5520   92.0610  -46.2740 B   0  0  0  0  0  0  0  0  0  0  0  0
   91.6380   93.5170  -45.0300 C   0  0  0  0  0  0  0  0  0  0  0  0
   91.8110   93.2580  -43.6690 C   0  0  0  0  0  0  0  0  0  0  0  0
   91.8710   94.3310  -42.7850 C   0  0  0  0  0  0  0  0  0  0  0  0
   91.7630   95.6330  -43.2140 C   0  0  0  0  0  0  0  0  0  0  0  0
   91.8540   96.4890  -42.1550 N   0  0  0  0  0  0  0  0  0  0  0  0
   92.0160   95.7120  -41.0780 C   0  0  0  0  0  0  0  0  0  0  0  0
   92.0320   94.3740  -41.4170 C   0  0  0  0  0  0  0  0  0  0  0  0
   91.7790   97.9320  -42.2380 C   0  0  0  0  0  0  0  0  0  0  0  0
   92.4710   98.5940  -41.0800 C   0  0  0  0  0  0  0  0  0  0  0  0
   93.0800   97.8790  -40.2600 O   0  0  0  0  0  0  0  0  0  0  0  0
   92.4360   99.9870  -40.9180 N   0  0  0  0  0  0  0  0  0  0  0  0
   93.5930  100.7730  -40.5510 C   0  0  0  0  0  0  0  0  0  0  0  0
   93.7110  101.8890  -41.5760 C   0  0  0  0  0  0  0  0  0  0  0  0
   92.7970  101.7270  -42.6290 N   0  0  0  0  0  0  0  0  0  0  0  0
   91.4220  101.6250  -42.3580 C   0  0  0  0  0  0  0  0  0  0  0  0
   91.2060  100.7680  -41.1150 C   0  0  0  0  0  0  0  0  0  0  0  0
   93.2680  101.4960  -43.9310 C   0  0  0  0  0  0  0  0  0  0  0  0
   92.8360  102.5090  -44.9300 C   0  0  0  0  0  0  0  0  0  0  0  0
   92.4380  103.6110  -44.4760 O   0  0  0  0  0  0  0  0  0  0  0  0
   92.8510  102.2950  -46.3160 N   0  0  0  0  0  0  0  0  0  0  0  0
   93.6890  103.1100  -47.1740 C   0  0  0  0  0  0  0  0  0  0  0  0
   94.5420  102.1630  -47.9920 C   0  0  0  0  0  0  0  0  0  0  0  0
   93.6450  101.4690  -48.8170 O   0  0  0  0  0  0  0  0  0  0  0  0
   92.8270  100.6370  -48.0910 C   0  0  0  0  0  0  0  0  0  0  0  0
   92.0620  101.2830  -46.9890 C   0  0  0  0  0  0  0  0  0  0  0  0
   91.5930   95.8960  -44.5530 C   0  0  0  0  0  0  0  0  0  0  0  0
   91.5320   94.8280  -45.4420 C   0  0  0  0  0  0  0  0  0  0  0  0
   91.8910   92.2370  -43.3570 H   0  0  0  0  0  0  0  0  0  0  0  0
   92.1210   96.0880  -40.0650 H   0  0  0  0  0  0  0  0  0  0  0  0
   92.1440   93.5040  -40.7930 H   0  0  0  0  0  0  0  0  0  0  0  0
   92.2550   98.3220  -43.1640 H   0  0  0  0  0  0  0  0  0  0  0  0
   90.7270   98.2910  -42.1900 H   0  0  0  0  0  0  0  0  0  0  0  0
   94.5000  100.1740  -40.4400 H   0  0  0  0  0  0  0  0  0  0  0  0
   93.4320  101.2690  -39.5530 H   0  0  0  0  0  0  0  0  0  0  0  0
   94.7490  101.7830  -42.0090 H   0  0  0  0  0  0  0  0  0  0  0  0
   93.7190  102.8880  -41.0860 H   0  0  0  0  0  0  0  0  0  0  0  0
   90.8640  102.5630  -42.2970 H   0  0  0  0  0  0  0  0  0  0  0  0
   90.9360  101.0390  -43.1940 H   0  0  0  0  0  0  0  0  0  0  0  0
   91.1510  101.4630  -40.2540 H   0  0  0  0  0  0  0  0  0  0  0  0
   90.3550  100.0960  -41.2040 H   0  0  0  0  0  0  0  0  0  0  0  0
   94.3890  101.3950  -43.8980 H   0  0  0  0  0  0  0  0  0  0  0  0
   92.9100  100.4800  -44.2550 H   0  0  0  0  0  0  0  0  0  0  0  0
   93.0160  103.6280  -47.9170 H   0  0  0  0  0  0  0  0  0  0  0  0
   94.2720  103.8540  -46.6120 H   0  0  0  0  0  0  0  0  0  0  0  0
   95.1990  102.7650  -48.6650 H   0  0  0  0  0  0  0  0  0  0  0  0
   95.1110  101.5050  -47.3240 H   0  0  0  0  0  0  0  0  0  0  0  0
   92.0890  100.1930  -48.8020 H   0  0  0  0  0  0  0  0  0  0  0  0
   93.4570   99.7870  -47.7530 H   0  0  0  0  0  0  0  0  0  0  0  0
   91.1440  101.7470  -47.4020 H   0  0  0  0  0  0  0  0  0  0  0  0
   91.7170  100.4900  -46.2970 H   0  0  0  0  0  0  0  0  0  0  0  0
   91.5040   96.9120  -44.9310 H   0  0  0  0  0  0  0  0  0  0  0  0
   91.3980   95.0580  -46.4910 H   0  0  0  0  0  0  0  0  0  0  0  0
  1  2  1  0  0  0  0
  2  3  1  0  0  0  0
  3 29  1  0  0  0  0
  3  4  2  0  0  0  0
  4  8  1  0  0  0  0
  5  4  1  0  0  0  0
  5  6  1  0  0  0  0
  6  7  1  0  0  0  0
  7 30  1  0  0  0  0
  8  7  2  0  0  0  0
  8 31  1  0  0  0  0
  9 33  1  0  0  0  0
  9  6  1  0  0  0  0
  9 10  1  0  0  0  0
 10 12  1  0  0  0  0
 10 11  2  0  0  0  0
 12 13  1  0  0  0  0
 13 34  1  0  0  0  0
 13 35  1  0  0  0  0
 14 37  1  0  0  0  0
 14 13  1  0  0  0  0
 15 16  1  0  0  0  0
 15 14  1  0  0  0  0
 16 38  1  0  0  0  0
 16 17  1  0  0  0  0
 17 12  1  0  0  0  0
 17 40  1  0  0  0  0
 18 42  1  0  0  0  0
 18 15  1  0  0  0  0
 19 20  2  0  0  0  0
 19 18  1  0  0  0  0
 21 19  1  0  0  0  0
 22 45  1  0  0  0  0
 22 21  1  0  0  0  0
 23 47  1  0  0  0  0
 23 22  1  0  0  0  0
 24 25  1  0  0  0  0
 24 23  1  0  0  0  0
 25 49  1  0  0  0  0
 25 26  1  0  0  0  0
 26 21  1  0  0  0  0
 26 51  1  0  0  0  0
 27  5  2  0  0  0  0
 28  2  2  0  0  0  0
 28 27  1  0  0  0  0
 32  9  1  0  0  0  0
 36 14  1  0  0  0  0
 39 16  1  0  0  0  0
 41 17  1  0  0  0  0
 43 18  1  0  0  0  0
 44 22  1  0  0  0  0
 46 23  1  0  0  0  0
 48 25  1  0  0  0  0
 50 26  1  0  0  0  0
 52 27  1  0  0  0  0
 53 28  1  0  0  0  0
M  END
>  <Pose>
1

>  <Score>
-5.56

$$$$
