
 OpenBabel03212208273D

 47 50  0  0  1  0  0  0  0  0999 V2000
   84.3000  102.9760  -38.8860 Cl  0  0  0  0  0  0  0  0  0  0  0  0
   84.3520  102.8680  -40.6250 C   0  0  0  0  0  0  0  0  0  0  0  0
   84.8660  101.7610  -41.2540 C   0  0  0  0  0  0  0  0  0  0  0  0
   84.9200  101.6380  -42.6310 C   0  0  0  0  0  0  0  0  0  0  0  0
   84.4370  102.6630  -43.3860 C   0  0  0  0  0  0  0  0  0  0  0  0
   83.9050  103.8070  -42.7990 C   0  0  0  0  0  0  0  0  0  0  0  0
   83.8710  103.8910  -41.4210 C   0  0  0  0  0  0  0  0  0  0  0  0
   85.4750  100.4830  -43.2500 N   0  0  0  0  0  0  0  0  0  0  0  0
   84.8440   99.2310  -42.9830 C   0  0  0  0  0  0  0  0  0  0  0  0
   83.8300   99.1060  -42.2530 O   0  0  0  0  0  0  0  0  0  0  0  0
   85.3930   98.0580  -43.5780 N   0  0  0  0  0  0  0  0  0  0  0  0
   86.5520   98.1710  -44.4180 C   0  0  0  0  0  0  0  0  0  0  0  0
   86.8440   97.1340  -45.1030 O   0  0  0  0  0  0  0  0  0  0  0  0
   87.3620   99.4010  -44.4940 C   0  0  1  0  0  0  0  0  0  0  0  0
   86.6190  100.6170  -44.0820 C   0  0  0  0  0  0  0  0  0  0  0  0
   87.0320  101.7320  -44.4850 O   0  0  0  0  0  0  0  0  0  0  0  0
   88.6180   99.2600  -43.6670 C   0  0  0  0  0  0  0  0  0  0  0  0
   89.8390   99.4320  -44.1400 C   0  0  0  0  0  0  0  0  0  0  0  0
   90.7390   99.1920  -42.9900 C   0  0  1  0  0  0  0  0  0  0  0  0
   89.8990   99.5730  -41.8680 N   0  0  0  0  0  0  0  0  0  0  0  0
   88.6910   98.9560  -42.2750 N   0  0  0  0  0  0  0  0  0  0  0  0
   91.1130   97.7530  -42.9030 C   0  0  0  0  0  0  0  0  0  0  0  0
   91.4170   97.0900  -41.7480 C   0  0  0  0  0  0  0  0  0  0  0  0
   91.7200   95.7430  -41.7170 C   0  0  0  0  0  0  0  0  0  0  0  0
   91.7260   95.0020  -42.8850 C   0  0  0  0  0  0  0  0  0  0  0  0
   91.4130   95.6900  -44.0690 C   0  0  0  0  0  0  0  0  0  0  0  0
   91.1150   97.0320  -44.0810 C   0  0  0  0  0  0  0  0  0  0  0  0
   92.0180   93.6600  -42.8920 O   0  0  0  0  0  0  0  0  0  0  0  0
   92.1690   92.9360  -44.0960 C   0  0  0  0  0  0  0  0  0  0  0  0
   92.0280   95.1080  -40.5010 O   0  0  0  0  0  0  0  0  0  0  0  0
   85.2590  100.9210  -40.6700 H   0  0  0  0  0  0  0  0  0  0  0  0
   84.4630  102.5990  -44.4750 H   0  0  0  0  0  0  0  0  0  0  0  0
   83.5470  104.5730  -43.4520 H   0  0  0  0  0  0  0  0  0  0  0  0
   83.4590  104.7800  -40.9860 H   0  0  0  0  0  0  0  0  0  0  0  0
   84.9780   97.1030  -43.4230 H   0  0  0  0  0  0  0  0  0  0  0  0
   87.6090   99.5440  -45.5720 H   0  0  0  0  0  0  0  0  0  0  0  0
   90.0890   99.6930  -45.1540 H   0  0  0  0  0  0  0  0  0  0  0  0
   91.6560   99.8150  -43.0140 H   0  0  0  0  0  0  0  0  0  0  0  0
   90.2330   99.2720  -40.9490 H   0  0  0  0  0  0  0  0  0  0  0  0
   87.9910   98.4140  -41.7670 H   0  0  0  0  0  0  0  0  0  0  0  0
   91.4230   97.6210  -40.8300 H   0  0  0  0  0  0  0  0  0  0  0  0
   91.4300   95.0790  -44.9630 H   0  0  0  0  0  0  0  0  0  0  0  0
   90.8820   97.4860  -45.0510 H   0  0  0  0  0  0  0  0  0  0  0  0
   91.2920   93.1150  -44.7750 H   0  0  0  0  0  0  0  0  0  0  0  0
   92.1410   91.8260  -43.9040 H   0  0  0  0  0  0  0  0  0  0  0  0
   93.0800   93.1970  -44.6570 H   0  0  0  0  0  0  0  0  0  0  0  0
   92.8620   95.4050  -40.0060 H   0  0  0  0  0  0  0  0  0  0  0  0
  2  1  1  0  0  0  0
  3 31  1  0  0  0  0
  3  2  1  0  0  0  0
  4  3  2  0  0  0  0
  5  6  2  0  0  0  0
  5  4  1  0  0  0  0
  6  7  1  0  0  0  0
  7 34  1  0  0  0  0
  7  2  2  0  0  0  0
  8  9  1  0  0  0  0
  8  4  1  0  0  0  0
  9 10  2  0  0  0  0
 11 35  1  0  0  0  0
 11  9  1  0  0  0  0
 12 11  1  0  0  0  0
 13 12  2  0  0  0  0
 14 36  1  6  0  0  0
 14 12  1  0  0  0  0
 14 15  1  0  0  0  0
 14 17  1  0  0  0  0
 15  8  1  0  0  0  0
 16 15  2  0  0  0  0
 17 21  1  0  0  0  0
 18 17  2  0  0  0  0
 18 19  1  0  0  0  0
 19 38  1  6  0  0  0
 19 22  1  0  0  0  0
 19 20  1  0  0  0  0
 20 39  1  0  0  0  0
 21 20  1  0  0  0  0
 21 40  1  0  0  0  0
 22 23  1  0  0  0  0
 23 24  2  0  0  0  0
 23 41  1  0  0  0  0
 24 30  1  0  0  0  0
 25 24  1  0  0  0  0
 26 25  2  0  0  0  0
 27 26  1  0  0  0  0
 27 22  2  0  0  0  0
 28 25  1  0  0  0  0
 29 45  1  0  0  0  0
 29 28  1  0  0  0  0
 30 47  1  0  0  0  0
 32  5  1  0  0  0  0
 33  6  1  0  0  0  0
 37 18  1  0  0  0  0
 42 26  1  0  0  0  0
 43 27  1  0  0  0  0
 44 29  1  0  0  0  0
 46 29  1  0  0  0  0
M  END
>  <Pose>
1

>  <Score>
-6.54

$$$$
