
 OpenBabel03212208273D

 47 50  0  0  1  0  0  0  0  0999 V2000
   84.9620   98.3200  -43.5070 Cl  0  0  0  0  0  0  0  0  0  0  0  0
   85.9280   99.5280  -44.3110 C   0  0  0  0  0  0  0  0  0  0  0  0
   87.2840   99.3190  -44.4390 C   0  0  0  0  0  0  0  0  0  0  0  0
   88.1220  100.2420  -45.0750 C   0  0  0  0  0  0  0  0  0  0  0  0
   87.5180  101.3690  -45.5660 C   0  0  0  0  0  0  0  0  0  0  0  0
   86.1630  101.5860  -45.4420 C   0  0  0  0  0  0  0  0  0  0  0  0
   85.3340  100.6580  -44.8060 C   0  0  0  0  0  0  0  0  0  0  0  0
   89.5040   99.9230  -45.1660 N   0  0  0  0  0  0  0  0  0  0  0  0
   90.0700   99.0590  -46.1380 C   0  0  0  0  0  0  0  0  0  0  0  0
   89.3660   98.4810  -46.9780 O   0  0  0  0  0  0  0  0  0  0  0  0
   91.4870   98.8360  -46.1610 N   0  0  0  0  0  0  0  0  0  0  0  0
   92.3460   99.4770  -45.2190 C   0  0  0  0  0  0  0  0  0  0  0  0
   93.5550   99.6630  -45.4410 O   0  0  0  0  0  0  0  0  0  0  0  0
   91.7530   99.9370  -43.9130 C   0  0  1  0  0  0  0  0  0  0  0  0
   90.4390  100.5270  -44.2460 C   0  0  0  0  0  0  0  0  0  0  0  0
   90.0600  101.6330  -43.7170 O   0  0  0  0  0  0  0  0  0  0  0  0
   91.6550   98.7730  -42.9820 C   0  0  0  0  0  0  0  0  0  0  0  0
   90.6000   98.0540  -42.6590 C   0  0  0  0  0  0  0  0  0  0  0  0
   91.0180   97.0030  -41.6910 C   0  0  2  0  0  0  0  0  0  0  0  0
   92.2350   97.6310  -41.1170 N   0  0  0  0  0  0  0  0  0  0  0  0
   92.7740   98.2630  -42.2450 N   0  0  0  0  0  0  0  0  0  0  0  0
   91.5010   95.8150  -42.4450 C   0  0  0  0  0  0  0  0  0  0  0  0
   91.9740   94.6630  -41.7800 C   0  0  0  0  0  0  0  0  0  0  0  0
   92.3930   93.5410  -42.4250 C   0  0  0  0  0  0  0  0  0  0  0  0
   92.3630   93.5000  -43.8070 C   0  0  0  0  0  0  0  0  0  0  0  0
   91.9090   94.6050  -44.4880 C   0  0  0  0  0  0  0  0  0  0  0  0
   91.4880   95.7350  -43.8210 C   0  0  0  0  0  0  0  0  0  0  0  0
   92.7870   92.3600  -44.4830 O   0  0  0  0  0  0  0  0  0  0  0  0
   92.8590   92.4250  -41.7150 O   0  0  0  0  0  0  0  0  0  0  0  0
   94.2430   92.1530  -41.6800 C   0  0  0  0  0  0  0  0  0  0  0  0
   87.7680   98.4110  -44.0450 H   0  0  0  0  0  0  0  0  0  0  0  0
   88.1190  102.1040  -46.0560 H   0  0  0  0  0  0  0  0  0  0  0  0
   85.6830  102.4810  -45.8280 H   0  0  0  0  0  0  0  0  0  0  0  0
   84.2710  100.8310  -44.7140 H   0  0  0  0  0  0  0  0  0  0  0  0
   91.8760   98.2050  -46.8730 H   0  0  0  0  0  0  0  0  0  0  0  0
   92.3620  100.7460  -43.4650 H   0  0  0  0  0  0  0  0  0  0  0  0
   89.5870   98.1650  -43.0040 H   0  0  0  0  0  0  0  0  0  0  0  0
   90.2720   96.7760  -40.9360 H   0  0  0  0  0  0  0  0  0  0  0  0
   91.9660   98.3020  -40.3700 H   0  0  0  0  0  0  0  0  0  0  0  0
   93.7490   98.3560  -42.5090 H   0  0  0  0  0  0  0  0  0  0  0  0
   91.9860   94.7250  -40.7040 H   0  0  0  0  0  0  0  0  0  0  0  0
   91.9070   94.5370  -45.5640 H   0  0  0  0  0  0  0  0  0  0  0  0
   91.1330   96.5900  -44.3890 H   0  0  0  0  0  0  0  0  0  0  0  0
   92.1450   91.5850  -44.5860 H   0  0  0  0  0  0  0  0  0  0  0  0
   94.7850   92.9040  -41.0930 H   0  0  0  0  0  0  0  0  0  0  0  0
   94.3490   91.1580  -41.1800 H   0  0  0  0  0  0  0  0  0  0  0  0
   94.6050   92.0470  -42.7310 H   0  0  0  0  0  0  0  0  0  0  0  0
  2  1  1  0  0  0  0
  3  2  1  0  0  0  0
  3 31  1  0  0  0  0
  4  3  2  0  0  0  0
  5  6  2  0  0  0  0
  5  4  1  0  0  0  0
  6  7  1  0  0  0  0
  7 34  1  0  0  0  0
  7  2  2  0  0  0  0
  8  4  1  0  0  0  0
  8 15  1  0  0  0  0
  9  8  1  0  0  0  0
 10  9  2  0  0  0  0
 11  9  1  0  0  0  0
 11 12  1  0  0  0  0
 12 14  1  0  0  0  0
 13 12  2  0  0  0  0
 14 36  1  1  0  0  0
 14 17  1  0  0  0  0
 15 14  1  0  0  0  0
 15 16  2  0  0  0  0
 17 18  2  0  0  0  0
 17 21  1  0  0  0  0
 18 19  1  0  0  0  0
 19 20  1  0  0  0  0
 19 38  1  1  0  0  0
 20 39  1  0  0  0  0
 21 20  1  0  0  0  0
 22 23  1  0  0  0  0
 22 19  1  0  0  0  0
 23 41  1  0  0  0  0
 24 23  2  0  0  0  0
 24 29  1  0  0  0  0
 25 24  1  0  0  0  0
 26 27  1  0  0  0  0
 26 25  2  0  0  0  0
 27 22  2  0  0  0  0
 28 25  1  0  0  0  0
 29 30  1  0  0  0  0
 30 46  1  0  0  0  0
 30 45  1  0  0  0  0
 32  5  1  0  0  0  0
 33  6  1  0  0  0  0
 35 11  1  0  0  0  0
 37 18  1  0  0  0  0
 40 21  1  0  0  0  0
 42 26  1  0  0  0  0
 43 27  1  0  0  0  0
 44 28  1  0  0  0  0
 47 30  1  0  0  0  0
M  END
>  <Pose>
1

>  <Score>
-6.22

$$$$
