
 OpenBabel03212208273D

 47 50  0  0  0  0  0  0  0  0999 V2000
   88.1860   99.7870  -44.5870 S   0  0  0  0  0  0  0  0  0  0  0  0
   88.5080   99.8850  -46.0430 O   0  0  0  0  0  0  0  0  0  0  0  0
   88.3000   98.3480  -44.1710 O   0  0  0  0  0  0  0  0  0  0  0  0
   89.2900  100.6980  -43.6880 N   0  0  0  0  0  0  0  0  0  0  0  0
   90.6030  100.8070  -44.2480 C   0  0  0  0  0  0  0  0  0  0  0  0
   91.5030   99.6520  -43.8520 C   0  0  0  0  0  0  0  0  0  0  0  0
   91.4080   99.4520  -42.4310 N   0  0  0  0  0  0  0  0  0  0  0  0
   90.6330  100.4020  -41.6570 C   0  0  0  0  0  0  0  0  0  0  0  0
   89.2570  100.4740  -42.2830 C   0  0  0  0  0  0  0  0  0  0  0  0
   92.0400   98.3660  -41.7590 C   0  0  0  0  0  0  0  0  0  0  0  0
   92.6760   98.5330  -40.6930 O   0  0  0  0  0  0  0  0  0  0  0  0
   91.9630   97.0080  -42.3020 C   0  0  0  0  0  0  0  0  0  0  0  0
   92.0910   95.8490  -41.5990 N   0  0  0  0  0  0  0  0  0  0  0  0
   91.9620   94.8120  -42.4410 C   0  0  0  0  0  0  0  0  0  0  0  0
   91.7560   95.3150  -43.6580 N   0  0  0  0  0  0  0  0  0  0  0  0
   91.7530   96.6540  -43.6000 C   0  0  0  0  0  0  0  0  0  0  0  0
   91.5940   94.4670  -44.6910 C   0  0  0  0  0  0  0  0  0  0  0  0
   91.6260   93.1050  -44.5760 C   0  0  0  0  0  0  0  0  0  0  0  0
   91.8400   92.5610  -43.3150 C   0  0  0  0  0  0  0  0  0  0  0  0
   92.0050   93.4370  -42.2660 C   0  0  0  0  0  0  0  0  0  0  0  0
   91.4110   92.0260  -45.9500 Cl  0  0  0  0  0  0  0  0  0  0  0  0
   86.5490  100.2570  -44.3610 N   0  0  0  0  0  0  0  0  0  0  0  0
   86.2660  101.5630  -44.9260 C   0  0  0  0  0  0  0  0  0  0  0  0
   85.0590  102.1110  -44.2030 C   0  0  0  0  0  0  0  0  0  0  0  0
   84.1730  101.1020  -43.8420 O   0  0  0  0  0  0  0  0  0  0  0  0
   84.6910  100.2560  -42.8640 C   0  0  0  0  0  0  0  0  0  0  0  0
   86.2020  100.3360  -42.9540 C   0  0  0  0  0  0  0  0  0  0  0  0
   91.0750  101.7270  -43.8220 H   0  0  0  0  0  0  0  0  0  0  0  0
   90.5320  100.9520  -45.3280 H   0  0  0  0  0  0  0  0  0  0  0  0
   91.1950   98.7440  -44.4380 H   0  0  0  0  0  0  0  0  0  0  0  0
   92.5540   99.8540  -44.1430 H   0  0  0  0  0  0  0  0  0  0  0  0
   91.1550  101.3900  -41.7760 H   0  0  0  0  0  0  0  0  0  0  0  0
   90.5750  100.1160  -40.6050 H   0  0  0  0  0  0  0  0  0  0  0  0
   88.7130  101.3420  -41.8120 H   0  0  0  0  0  0  0  0  0  0  0  0
   88.7220   99.5530  -42.0360 H   0  0  0  0  0  0  0  0  0  0  0  0
   91.6030   97.2950  -44.4710 H   0  0  0  0  0  0  0  0  0  0  0  0
   91.4220   94.8620  -45.7020 H   0  0  0  0  0  0  0  0  0  0  0  0
   91.8790   91.4910  -43.1420 H   0  0  0  0  0  0  0  0  0  0  0  0
   92.1750   93.0560  -41.2580 H   0  0  0  0  0  0  0  0  0  0  0  0
   86.0930  101.5130  -46.0200 H   0  0  0  0  0  0  0  0  0  0  0  0
   87.1430  102.2100  -44.7050 H   0  0  0  0  0  0  0  0  0  0  0  0
   84.5030  102.7870  -44.8870 H   0  0  0  0  0  0  0  0  0  0  0  0
   85.3110  102.6710  -43.2880 H   0  0  0  0  0  0  0  0  0  0  0  0
   84.4290   99.1990  -43.1510 H   0  0  0  0  0  0  0  0  0  0  0  0
   84.3190  100.4910  -41.8520 H   0  0  0  0  0  0  0  0  0  0  0  0
   86.5630  101.2760  -42.4850 H   0  0  0  0  0  0  0  0  0  0  0  0
   86.6960   99.5100  -42.4080 H   0  0  0  0  0  0  0  0  0  0  0  0
  1 22  1  0  0  0  0
  1  3  2  0  0  0  0
  1  4  1  0  0  0  0
  2  1  2  0  0  0  0
  4  9  1  0  0  0  0
  5  6  1  0  0  0  0
  5 28  1  0  0  0  0
  5  4  1  0  0  0  0
  6  7  1  0  0  0  0
  7 10  1  0  0  0  0
  7  8  1  0  0  0  0
  8 33  1  0  0  0  0
  9 35  1  0  0  0  0
  9 34  1  0  0  0  0
  9  8  1  0  0  0  0
 10 11  2  0  0  0  0
 12 10  1  0  0  0  0
 12 13  1  0  0  0  0
 14 20  1  0  0  0  0
 14 13  2  0  0  0  0
 15 16  1  0  0  0  0
 15 14  1  0  0  0  0
 16 12  2  0  0  0  0
 17 18  2  0  0  0  0
 17 15  1  0  0  0  0
 18 19  1  0  0  0  0
 19 38  1  0  0  0  0
 19 20  2  0  0  0  0
 20 39  1  0  0  0  0
 21 18  1  0  0  0  0
 22 27  1  0  0  0  0
 23 41  1  0  0  0  0
 23 22  1  0  0  0  0
 23 24  1  0  0  0  0
 24 25  1  0  0  0  0
 24 43  1  0  0  0  0
 25 26  1  0  0  0  0
 26 45  1  0  0  0  0
 27 26  1  0  0  0  0
 27 46  1  0  0  0  0
 27 47  1  0  0  0  0
 29  5  1  0  0  0  0
 30  6  1  0  0  0  0
 31  6  1  0  0  0  0
 32  8  1  0  0  0  0
 36 16  1  0  0  0  0
 37 17  1  0  0  0  0
 40 23  1  0  0  0  0
 42 24  1  0  0  0  0
 44 26  1  0  0  0  0
M  END
>  <Pose>
1

>  <Score>
-4.65

$$$$
