
 OpenBabel03212208273D

 42 45  0  0  0  0  0  0  0  0999 V2000
   91.2350  101.8270  -44.6680 Cl  0  0  0  0  0  0  0  0  0  0  0  0
   91.3300  100.1960  -44.0000 C   0  0  0  0  0  0  0  0  0  0  0  0
   90.7080   99.1250  -44.5770 C   0  0  0  0  0  0  0  0  0  0  0  0
   90.7590   97.8380  -44.0840 C   0  0  0  0  0  0  0  0  0  0  0  0
   91.4960   97.6340  -42.9210 C   0  0  0  0  0  0  0  0  0  0  0  0
   92.1350   98.7280  -42.3240 C   0  0  0  0  0  0  0  0  0  0  0  0
   92.0540   99.9860  -42.8520 C   0  0  0  0  0  0  0  0  0  0  0  0
   91.5930   96.3440  -42.3590 N   0  0  0  0  0  0  0  0  0  0  0  0
   91.5050   96.0630  -41.0800 N   0  0  0  0  0  0  0  0  0  0  0  0
   91.6480   94.7460  -40.9680 N   0  0  0  0  0  0  0  0  0  0  0  0
   91.8300   94.1790  -42.1760 C   0  0  0  0  0  0  0  0  0  0  0  0
   91.7930   95.2000  -43.0380 C   0  0  0  0  0  0  0  0  0  0  0  0
   91.9790   94.6190  -44.2850 C   0  0  0  0  0  0  0  0  0  0  0  0
   92.0070   95.2640  -45.3580 O   0  0  0  0  0  0  0  0  0  0  0  0
   92.1280   93.2890  -44.2000 N   0  0  0  0  0  0  0  0  0  0  0  0
   92.0350   93.0130  -42.8850 C   0  0  0  0  0  0  0  0  0  0  0  0
   92.1230   91.8570  -42.3750 O   0  0  0  0  0  0  0  0  0  0  0  0
   92.3400   92.3380  -45.2390 C   0  0  0  0  0  0  0  0  0  0  0  0
   91.4700   92.1800  -46.3010 C   0  0  0  0  0  0  0  0  0  0  0  0
   91.6830   91.2580  -47.3040 C   0  0  0  0  0  0  0  0  0  0  0  0
   92.7920   90.4370  -47.2900 C   0  0  0  0  0  0  0  0  0  0  0  0
   93.6690   90.5840  -46.2360 C   0  0  0  0  0  0  0  0  0  0  0  0
   93.4470   91.5120  -45.2350 C   0  0  0  0  0  0  0  0  0  0  0  0
   92.9970   89.5090  -48.3070 O   0  0  0  0  0  0  0  0  0  0  0  0
   92.2360   88.3520  -48.4650 C   0  0  0  0  0  0  0  0  0  0  0  0
   90.8070   91.0990  -48.3730 O   0  0  0  0  0  0  0  0  0  0  0  0
   91.1490   91.7270  -49.5940 C   0  0  0  0  0  0  0  0  0  0  0  0
   90.1320   99.2920  -45.4870 H   0  0  0  0  0  0  0  0  0  0  0  0
   90.2540   97.0100  -44.5670 H   0  0  0  0  0  0  0  0  0  0  0  0
   92.7180   98.5780  -41.4090 H   0  0  0  0  0  0  0  0  0  0  0  0
   92.5500  100.8510  -42.3950 H   0  0  0  0  0  0  0  0  0  0  0  0
   91.3480   96.7490  -40.2830 H   0  0  0  0  0  0  0  0  0  0  0  0
   91.6200   94.2460  -40.0470 H   0  0  0  0  0  0  0  0  0  0  0  0
   90.6000   92.8180  -46.3190 H   0  0  0  0  0  0  0  0  0  0  0  0
   94.5390   89.9420  -46.2230 H   0  0  0  0  0  0  0  0  0  0  0  0
   94.1440   91.6190  -44.4110 H   0  0  0  0  0  0  0  0  0  0  0  0
   92.7440   87.5670  -49.0620 H   0  0  0  0  0  0  0  0  0  0  0  0
   91.9820   87.8710  -47.4830 H   0  0  0  0  0  0  0  0  0  0  0  0
   91.2800   88.6220  -48.9540 H   0  0  0  0  0  0  0  0  0  0  0  0
   92.1930   91.4960  -49.8650 H   0  0  0  0  0  0  0  0  0  0  0  0
   90.4680   91.4420  -50.4160 H   0  0  0  0  0  0  0  0  0  0  0  0
   91.0320   92.8220  -49.4550 H   0  0  0  0  0  0  0  0  0  0  0  0
  1  2  1  0  0  0  0
  2  7  1  0  0  0  0
  3  4  1  0  0  0  0
  3  2  2  0  0  0  0
  4  5  2  0  0  0  0
  5  8  1  0  0  0  0
  5  6  1  0  0  0  0
  6 30  1  0  0  0  0
  7 31  1  0  0  0  0
  7  6  2  0  0  0  0
  8  9  1  0  0  0  0
  9 10  1  0  0  0  0
  9 32  1  0  0  0  0
 10 33  1  0  0  0  0
 11 10  1  0  0  0  0
 12  8  1  0  0  0  0
 12 11  2  0  0  0  0
 13 15  1  0  0  0  0
 13 12  1  0  0  0  0
 14 13  2  0  0  0  0
 15 16  1  0  0  0  0
 16 17  2  0  0  0  0
 16 11  1  0  0  0  0
 18 23  1  0  0  0  0
 18 15  1  0  0  0  0
 19 18  2  0  0  0  0
 20 21  2  0  0  0  0
 20 19  1  0  0  0  0
 21 22  1  0  0  0  0
 22 35  1  0  0  0  0
 22 23  2  0  0  0  0
 23 36  1  0  0  0  0
 24 21  1  0  0  0  0
 25 24  1  0  0  0  0
 25 38  1  0  0  0  0
 26 20  1  0  0  0  0
 27 42  1  0  0  0  0
 27 26  1  0  0  0  0
 28  3  1  0  0  0  0
 29  4  1  0  0  0  0
 34 19  1  0  0  0  0
 37 25  1  0  0  0  0
 39 25  1  0  0  0  0
 40 27  1  0  0  0  0
 41 27  1  0  0  0  0
M  END
>  <Pose>
1

>  <Score>
-6.19

$$$$
