
 OpenBabel03162216073D

 38 42  0  0  1  0  0  0  0  0999 V2000
   95.9260  103.4360  -40.3140 B   0  0  0  0  0  0  0  0  0  0  0  0
   94.6120  102.2080  -40.9190 C   0  0  0  0  0  0  0  0  0  0  0  0
   94.1350  101.2490  -40.0590 C   0  0  0  0  0  0  0  0  0  0  0  0
   93.1800  100.3720  -40.5240 C   0  0  0  0  0  0  0  0  0  0  0  0
   92.6990  100.4270  -41.8130 C   0  0  0  0  0  0  0  0  0  0  0  0
   93.1800  101.3960  -42.6830 C   0  0  0  0  0  0  0  0  0  0  0  0
   94.1460  102.2840  -42.2080 C   0  0  0  0  0  0  0  0  0  0  0  0
   91.7040   99.5090  -42.2840 N   0  0  0  0  0  0  0  0  0  0  0  0
   91.9430   98.1170  -42.4170 C   0  0  0  0  0  0  0  0  0  0  0  0
   92.8730   97.5040  -41.8400 O   0  0  0  0  0  0  0  0  0  0  0  0
   90.9260   97.5340  -43.3340 C   0  0  2  0  0  0  0  0  0  0  0  0
   91.4150   97.4600  -44.7470 C   0  0  1  0  0  0  0  0  0  0  0  0
   90.2000   97.6330  -45.4470 O   0  0  0  0  0  0  0  0  0  0  0  0
   89.8800   98.9090  -44.9190 C   0  0  1  0  0  0  0  0  0  0  0  0
   89.8530   98.6170  -43.4590 C   0  0  2  0  0  0  0  0  0  0  0  0
   90.3630   99.7830  -42.6890 C   0  0  0  0  0  0  0  0  0  0  0  0
   89.7160  100.8070  -42.4520 O   0  0  0  0  0  0  0  0  0  0  0  0
   91.1440   99.6240  -45.2340 C   0  0  0  0  0  0  0  0  0  0  0  0
   92.1040   98.7220  -45.0610 C   0  0  0  0  0  0  0  0  0  0  0  0
   92.1160   96.2230  -45.1130 C   0  0  0  0  0  0  0  0  0  0  0  0
   91.5830   95.5800  -46.1970 O   0  0  0  0  0  0  0  0  0  0  0  0
   90.9950   94.4140  -45.7730 C   0  0  0  0  0  0  0  0  0  0  0  0
   91.2040   94.3480  -44.2960 C   0  0  0  0  0  0  0  0  0  0  0  0
   92.1630   95.3260  -44.0610 O   0  0  0  0  0  0  0  0  0  0  0  0
   94.4840  101.1610  -39.0260 H   0  0  0  0  0  0  0  0  0  0  0  0
   92.7770   99.5920  -39.8610 H   0  0  0  0  0  0  0  0  0  0  0  0
   92.7930  101.4280  -43.6870 H   0  0  0  0  0  0  0  0  0  0  0  0
   94.5210  103.0380  -42.8850 H   0  0  0  0  0  0  0  0  0  0  0  0
   90.5450   96.5930  -42.9400 H   0  0  0  0  0  0  0  0  0  0  0  0
   88.9890   99.3370  -45.3450 H   0  0  0  0  0  0  0  0  0  0  0  0
   88.8940   98.2690  -43.0750 H   0  0  0  0  0  0  0  0  0  0  0  0
   91.1860  100.6630  -45.5340 H   0  0  0  0  0  0  0  0  0  0  0  0
   93.1550   98.9780  -45.1540 H   0  0  0  0  0  0  0  0  0  0  0  0
   93.1800   96.4910  -45.3510 H   0  0  0  0  0  0  0  0  0  0  0  0
   91.4120   93.5080  -46.2550 H   0  0  0  0  0  0  0  0  0  0  0  0
   89.8940   94.4980  -45.9660 H   0  0  0  0  0  0  0  0  0  0  0  0
   91.5880   93.3300  -43.9930 H   0  0  0  0  0  0  0  0  0  0  0  0
   90.2840   94.5930  -43.7070 H   0  0  0  0  0  0  0  0  0  0  0  0
  2  1  1  0  0  0  0
  2  3  1  0  0  0  0
  3 25  1  0  0  0  0
  4  3  2  0  0  0  0
  4 26  1  0  0  0  0
  5  4  1  0  0  0  0
  6  7  1  0  0  0  0
  6  5  2  0  0  0  0
  7  2  2  0  0  0  0
  8  5  1  0  0  0  0
  9  8  1  0  0  0  0
  9 10  2  0  0  0  0
 11 29  1  1  0  0  0
 11  9  1  0  0  0  0
 12 20  1  6  0  0  0
 12 11  1  0  0  0  0
 13 14  1  0  0  0  0
 13 12  1  0  0  0  0
 14 30  1  6  0  0  0
 14 15  1  0  0  0  0
 15 11  1  0  0  0  0
 15 31  1  1  0  0  0
 15 16  1  0  0  0  0
 16 17  2  0  0  0  0
 16  8  1  0  0  0  0
 18 19  2  0  0  0  0
 18 14  1  0  0  0  0
 19 12  1  0  0  0  0
 20 24  1  0  0  0  0
 21 22  1  0  0  0  0
 21 20  1  0  0  0  0
 22 23  1  0  0  0  0
 23 24  1  0  0  0  0
 23 37  1  0  0  0  0
 23 38  1  0  0  0  0
 27  6  1  0  0  0  0
 28  7  1  0  0  0  0
 32 18  1  0  0  0  0
 33 19  1  0  0  0  0
 34 20  1  0  0  0  0
 35 22  1  0  0  0  0
 36 22  1  0  0  0  0
M  END
>  <Pose>
1

>  <Score>
-3.75

$$$$
