
 OpenBabel03212208273D

 38 42  0  0  1  0  0  0  0  0999 V2000
   91.7920   91.9360  -45.6540 B   0  0  0  0  0  0  0  0  0  0  0  0
   91.6100   93.6570  -44.8770 C   0  0  0  0  0  0  0  0  0  0  0  0
   91.2810   94.7280  -45.6730 C   0  0  0  0  0  0  0  0  0  0  0  0
   91.1540   95.9650  -45.0820 C   0  0  0  0  0  0  0  0  0  0  0  0
   91.3470   96.1570  -43.7320 C   0  0  0  0  0  0  0  0  0  0  0  0
   91.6790   95.0760  -42.9260 C   0  0  0  0  0  0  0  0  0  0  0  0
   91.8050   93.8230  -43.5290 C   0  0  0  0  0  0  0  0  0  0  0  0
   91.2090   97.4500  -43.1290 N   0  0  0  0  0  0  0  0  0  0  0  0
   90.1460   98.3360  -43.4420 C   0  0  0  0  0  0  0  0  0  0  0  0
   89.0690   97.9810  -43.9800 O   0  0  0  0  0  0  0  0  0  0  0  0
   90.5240   99.7150  -43.0330 C   0  0  2  0  0  0  0  0  0  0  0  0
   91.1230  100.4960  -44.1610 C   0  0  1  0  0  0  0  0  0  0  0  0
   92.0170  101.3270  -43.4500 O   0  0  0  0  0  0  0  0  0  0  0  0
   92.7920  100.2900  -42.8730 C   0  0  1  0  0  0  0  0  0  0  0  0
   91.7470   99.5290  -42.1330 C   0  0  2  0  0  0  0  0  0  0  0  0
   92.0520   98.0730  -42.1590 C   0  0  0  0  0  0  0  0  0  0  0  0
   92.8960   97.5180  -41.4510 O   0  0  0  0  0  0  0  0  0  0  0  0
   93.1400   99.5350  -44.1060 C   0  0  0  0  0  0  0  0  0  0  0  0
   92.0610   99.6190  -44.8790 C   0  0  0  0  0  0  0  0  0  0  0  0
   90.1720  101.2520  -44.9860 C   0  0  0  0  0  0  0  0  0  0  0  0
   89.4160  100.4740  -45.8180 O   0  0  0  0  0  0  0  0  0  0  0  0
   89.8040  100.7070  -47.1140 C   0  0  0  0  0  0  0  0  0  0  0  0
   90.8910  101.7290  -47.0520 C   0  0  0  0  0  0  0  0  0  0  0  0
   90.8050  102.2140  -45.7520 O   0  0  0  0  0  0  0  0  0  0  0  0
   91.1180   94.6300  -46.7500 H   0  0  0  0  0  0  0  0  0  0  0  0
   90.8920   96.8440  -45.6910 H   0  0  0  0  0  0  0  0  0  0  0  0
   91.8260   95.2410  -41.8730 H   0  0  0  0  0  0  0  0  0  0  0  0
   92.0640   92.9820  -42.9020 H   0  0  0  0  0  0  0  0  0  0  0  0
   89.6940  100.2110  -42.5330 H   0  0  0  0  0  0  0  0  0  0  0  0
   93.6290  100.6480  -42.3010 H   0  0  0  0  0  0  0  0  0  0  0  0
   91.5500   99.8810  -41.1200 H   0  0  0  0  0  0  0  0  0  0  0  0
   94.0940   99.0490  -44.2620 H   0  0  0  0  0  0  0  0  0  0  0  0
   91.9960   99.0980  -45.8290 H   0  0  0  0  0  0  0  0  0  0  0  0
   89.4810  101.8020  -44.2920 H   0  0  0  0  0  0  0  0  0  0  0  0
   88.9820  101.0680  -47.7640 H   0  0  0  0  0  0  0  0  0  0  0  0
   90.2420   99.7560  -47.5150 H   0  0  0  0  0  0  0  0  0  0  0  0
   90.7050  102.5550  -47.8000 H   0  0  0  0  0  0  0  0  0  0  0  0
   91.9120  101.3000  -47.2130 H   0  0  0  0  0  0  0  0  0  0  0  0
  1  2  1  0  0  0  0
  2  7  1  0  0  0  0
  3  4  1  0  0  0  0
  3  2  2  0  0  0  0
  4  5  2  0  0  0  0
  5  8  1  0  0  0  0
  5  6  1  0  0  0  0
  6 27  1  0  0  0  0
  7  6  2  0  0  0  0
  7 28  1  0  0  0  0
  8 16  1  0  0  0  0
  9  8  1  0  0  0  0
  9 11  1  0  0  0  0
 10  9  2  0  0  0  0
 11 29  1  1  0  0  0
 11 15  1  0  0  0  0
 12 20  1  6  0  0  0
 12 13  1  0  0  0  0
 12 11  1  0  0  0  0
 13 14  1  0  0  0  0
 14 30  1  1  0  0  0
 14 15  1  0  0  0  0
 15 31  1  1  0  0  0
 16 15  1  0  0  0  0
 16 17  2  0  0  0  0
 18 14  1  0  0  0  0
 19 12  1  0  0  0  0
 19 18  2  0  0  0  0
 20 34  1  0  0  0  0
 21 20  1  0  0  0  0
 22 23  1  0  0  0  0
 22 21  1  0  0  0  0
 23 24  1  0  0  0  0
 24 20  1  0  0  0  0
 25  3  1  0  0  0  0
 26  4  1  0  0  0  0
 32 18  1  0  0  0  0
 33 19  1  0  0  0  0
 35 22  1  0  0  0  0
 36 22  1  0  0  0  0
 37 23  1  0  0  0  0
 38 23  1  0  0  0  0
M  END
>  <Pose>
1

>  <Score>
-4.25

$$$$
