
 OpenBabel03212208273D

 57 60  0  0  1  0  0  0  0  0999 V2000
   92.1180   98.4450  -45.3730 S   0  0  0  0  0  0  0  0  0  0  0  0
   92.1170   98.9730  -46.7790 O   0  0  0  0  0  0  0  0  0  0  0  0
   93.5530   98.5360  -44.8990 O   0  0  0  0  0  0  0  0  0  0  0  0
   91.6840   96.7830  -45.3190 N   0  0  0  0  0  0  0  0  0  0  0  0
   90.4200   96.5480  -45.9700 C   0  0  0  0  0  0  0  0  0  0  0  0
   90.2840   95.0600  -46.1920 C   0  0  0  0  0  0  0  0  0  0  0  0
   91.3020   94.3700  -45.4420 N   0  0  0  0  0  0  0  0  0  0  0  0
   91.6520   94.7670  -44.0830 C   0  0  0  0  0  0  0  0  0  0  0  0
   91.5770   96.2910  -43.9600 C   0  0  0  0  0  0  0  0  0  0  0  0
   91.9910   93.2920  -46.0260 C   0  0  0  0  0  0  0  0  0  0  0  0
   93.1300   93.5050  -46.5680 O   0  0  0  0  0  0  0  0  0  0  0  0
   91.4030   91.9250  -46.0170 C   0  0  1  0  0  0  0  0  0  0  0  0
   90.8470   91.5230  -47.3530 C   0  0  0  0  0  0  0  0  0  0  0  0
   91.8250   90.6020  -47.9220 N   0  0  0  0  0  0  0  0  0  0  0  0
   92.9400   90.4940  -47.0560 C   0  0  0  0  0  0  0  0  0  0  0  0
   94.0870   90.1320  -47.4140 O   0  0  0  0  0  0  0  0  0  0  0  0
   92.4460   90.8840  -45.7180 C   0  0  0  0  0  0  0  0  0  0  0  0
   91.6690   89.9160  -49.1840 C   0  0  0  0  0  0  0  0  0  0  0  0
   90.4570   89.0620  -49.2020 C   0  0  0  0  0  0  0  0  0  0  0  0
   90.5820   87.7060  -48.9380 C   0  0  0  0  0  0  0  0  0  0  0  0
   89.4960   86.8460  -48.9380 C   0  0  0  0  0  0  0  0  0  0  0  0
   88.2600   87.3920  -49.2140 C   0  0  0  0  0  0  0  0  0  0  0  0
   88.1000   88.7410  -49.4810 C   0  0  0  0  0  0  0  0  0  0  0  0
   89.2110   89.5830  -49.4750 C   0  0  0  0  0  0  0  0  0  0  0  0
   92.1710   87.0770  -48.5970 Cl  0  0  0  0  0  0  0  0  0  0  0  0
   91.1200   99.4030  -44.3220 C   0  0  0  0  0  0  0  0  0  0  0  0
   91.1820   99.6110  -42.9630 C   0  0  0  0  0  0  0  0  0  0  0  0
   90.1530  100.4470  -42.6250 N   0  0  0  0  0  0  0  0  0  0  0  0
   89.5120  100.7270  -43.6970 O   0  0  0  0  0  0  0  0  0  0  0  0
   90.0310  100.1410  -44.7490 C   0  0  0  0  0  0  0  0  0  0  0  0
   89.4910  100.2910  -46.1180 C   0  0  0  0  0  0  0  0  0  0  0  0
   92.1930   99.0310  -42.0580 C   0  0  0  0  0  0  0  0  0  0  0  0
   89.5560   96.8590  -45.3190 H   0  0  0  0  0  0  0  0  0  0  0  0
   90.3180   97.1190  -46.9160 H   0  0  0  0  0  0  0  0  0  0  0  0
   89.2600   94.7020  -45.9090 H   0  0  0  0  0  0  0  0  0  0  0  0
   90.4500   94.8660  -47.2650 H   0  0  0  0  0  0  0  0  0  0  0  0
   91.0030   94.2520  -43.3500 H   0  0  0  0  0  0  0  0  0  0  0  0
   92.6880   94.4270  -43.9030 H   0  0  0  0  0  0  0  0  0  0  0  0
   92.3760   96.6210  -43.2990 H   0  0  0  0  0  0  0  0  0  0  0  0
   90.5980   96.5140  -43.4900 H   0  0  0  0  0  0  0  0  0  0  0  0
   90.5970   91.8980  -45.2220 H   0  0  0  0  0  0  0  0  0  0  0  0
   89.8590   91.0170  -47.2050 H   0  0  0  0  0  0  0  0  0  0  0  0
   90.7160   92.3980  -48.0590 H   0  0  0  0  0  0  0  0  0  0  0  0
   93.2610   91.2830  -45.0760 H   0  0  0  0  0  0  0  0  0  0  0  0
   91.9440   90.0090  -45.2490 H   0  0  0  0  0  0  0  0  0  0  0  0
   92.5500   89.2950  -49.4510 H   0  0  0  0  0  0  0  0  0  0  0  0
   91.5210   90.6870  -49.9850 H   0  0  0  0  0  0  0  0  0  0  0  0
   89.6600   85.8010  -48.7260 H   0  0  0  0  0  0  0  0  0  0  0  0
   87.3840   86.7350  -49.2210 H   0  0  0  0  0  0  0  0  0  0  0  0
   87.1160   89.1230  -49.6920 H   0  0  0  0  0  0  0  0  0  0  0  0
   89.0870   90.6350  -49.6840 H   0  0  0  0  0  0  0  0  0  0  0  0
   90.0380   99.5930  -46.7860 H   0  0  0  0  0  0  0  0  0  0  0  0
   88.4180   99.9440  -46.0680 H   0  0  0  0  0  0  0  0  0  0  0  0
   89.5260  101.3350  -46.4330 H   0  0  0  0  0  0  0  0  0  0  0  0
   92.2330   99.7230  -41.1640 H   0  0  0  0  0  0  0  0  0  0  0  0
   91.9290   98.0510  -41.6520 H   0  0  0  0  0  0  0  0  0  0  0  0
   93.2120   99.0000  -42.5370 H   0  0  0  0  0  0  0  0  0  0  0  0
  1  4  1  0  0  0  0
  1  3  2  0  0  0  0
  1 26  1  0  0  0  0
  2  1  2  0  0  0  0
  4  9  1  0  0  0  0
  5 33  1  0  0  0  0
  5  4  1  0  0  0  0
  6  5  1  0  0  0  0
  6 35  1  0  0  0  0
  6  7  1  0  0  0  0
  7  8  1  0  0  0  0
  8  9  1  0  0  0  0
  8 38  1  0  0  0  0
  8 37  1  0  0  0  0
  9 40  1  0  0  0  0
  9 39  1  0  0  0  0
 10 12  1  0  0  0  0
 10  7  1  0  0  0  0
 11 10  2  0  0  0  0
 12 17  1  0  0  0  0
 12 41  1  1  0  0  0
 13 42  1  0  0  0  0
 13 12  1  0  0  0  0
 14 13  1  0  0  0  0
 14 15  1  0  0  0  0
 15 17  1  0  0  0  0
 16 15  2  0  0  0  0
 17 45  1  0  0  0  0
 17 44  1  0  0  0  0
 18 14  1  0  0  0  0
 19 18  1  0  0  0  0
 19 20  1  0  0  0  0
 20 25  1  0  0  0  0
 21 20  2  0  0  0  0
 21 48  1  0  0  0  0
 22 21  1  0  0  0  0
 23 24  1  0  0  0  0
 23 22  2  0  0  0  0
 24 19  2  0  0  0  0
 26 27  1  0  0  0  0
 27 28  2  0  0  0  0
 27 32  1  0  0  0  0
 29 28  1  0  0  0  0
 30 26  2  0  0  0  0
 30 29  1  0  0  0  0
 31 53  1  0  0  0  0
 31 30  1  0  0  0  0
 32 56  1  0  0  0  0
 32 55  1  0  0  0  0
 34  5  1  0  0  0  0
 36  6  1  0  0  0  0
 43 13  1  0  0  0  0
 46 18  1  0  0  0  0
 47 18  1  0  0  0  0
 49 22  1  0  0  0  0
 50 23  1  0  0  0  0
 51 24  1  0  0  0  0
 52 31  1  0  0  0  0
 54 31  1  0  0  0  0
 57 32  1  0  0  0  0
M  END
>  <Pose>
1

>  <Score>
-5.11

$$$$
