
 OpenBabel03212208273D

 35 38  0  0  1  0  0  0  0  0999 V2000
   90.0590  103.0140  -41.1010 Cl  0  0  0  0  0  0  0  0  0  0  0  0
   90.9440  101.5000  -41.2640 C   0  0  0  0  0  0  0  0  0  0  0  0
   92.2710  101.4750  -40.8990 C   0  0  0  0  0  0  0  0  0  0  0  0
   92.9360  100.3160  -41.0270 N   0  0  0  0  0  0  0  0  0  0  0  0
   92.3520   99.1830  -41.4960 C   0  0  0  0  0  0  0  0  0  0  0  0
   91.0570   99.1950  -41.8540 N   0  0  0  0  0  0  0  0  0  0  0  0
   90.7190   97.9810  -42.2770 N   0  0  0  0  0  0  0  0  0  0  0  0
   91.7800   97.1520  -42.2050 C   0  0  0  0  0  0  0  0  0  0  0  0
   92.7810   97.9270  -41.7150 N   0  0  0  0  0  0  0  0  0  0  0  0
   91.8410   95.7740  -42.5620 N   0  0  0  0  0  0  0  0  0  0  0  0
   91.9340   95.2590  -43.8830 C   0  0  0  0  0  0  0  0  0  0  0  0
   92.3130   95.8530  -44.9250 O   0  0  0  0  0  0  0  0  0  0  0  0
   91.4970   93.8220  -43.8820 C   0  0  2  0  0  0  0  0  0  0  0  0
   91.4320   93.4240  -42.4510 C   0  0  1  0  0  0  0  0  0  0  0  0
   92.4250   92.3460  -42.0530 C   0  0  0  0  0  0  0  0  0  0  0  0
   93.7600   92.7870  -42.5720 C   0  0  0  0  0  0  0  0  0  0  0  0
   93.7890   93.1070  -43.8520 C   0  0  0  0  0  0  0  0  0  0  0  0
   92.5280   92.9980  -44.6230 C   0  0  0  0  0  0  0  0  0  0  0  0
   91.8210   94.6390  -41.7100 C   0  0  0  0  0  0  0  0  0  0  0  0
   92.1040   94.6830  -40.4690 O   0  0  0  0  0  0  0  0  0  0  0  0
   90.3550  100.3490  -41.7390 C   0  0  0  0  0  0  0  0  0  0  0  0
   89.1290  100.3640  -42.0770 O   0  0  0  0  0  0  0  0  0  0  0  0
   92.9320  102.7200  -40.3780 C   0  0  0  0  0  0  0  0  0  0  0  0
   93.9460  100.2910  -40.7510 H   0  0  0  0  0  0  0  0  0  0  0  0
   90.5160   93.7470  -44.4030 H   0  0  0  0  0  0  0  0  0  0  0  0
   90.3910   93.1090  -42.2250 H   0  0  0  0  0  0  0  0  0  0  0  0
   92.4640   92.2850  -40.9510 H   0  0  0  0  0  0  0  0  0  0  0  0
   92.1370   91.3930  -42.5280 H   0  0  0  0  0  0  0  0  0  0  0  0
   94.6120   92.8260  -41.9080 H   0  0  0  0  0  0  0  0  0  0  0  0
   94.6950   93.4350  -44.3210 H   0  0  0  0  0  0  0  0  0  0  0  0
   92.6780   93.3850  -45.6580 H   0  0  0  0  0  0  0  0  0  0  0  0
   92.1840   91.9370  -44.6490 H   0  0  0  0  0  0  0  0  0  0  0  0
   92.9150  103.5220  -41.1260 H   0  0  0  0  0  0  0  0  0  0  0  0
   92.4300  103.0550  -39.4350 H   0  0  0  0  0  0  0  0  0  0  0  0
   93.9960  102.5260  -40.1330 H   0  0  0  0  0  0  0  0  0  0  0  0
  2  1  1  0  0  0  0
  2  3  2  0  0  0  0
  3 23  1  0  0  0  0
  4  3  1  0  0  0  0
  4 24  1  0  0  0  0
  5  4  1  0  0  0  0
  6 21  1  0  0  0  0
  6  5  1  0  0  0  0
  7  8  2  0  0  0  0
  7  6  1  0  0  0  0
  8  9  1  0  0  0  0
  9  5  2  0  0  0  0
 10  8  1  0  0  0  0
 10 19  1  0  0  0  0
 11 13  1  0  0  0  0
 11 10  1  0  0  0  0
 12 11  2  0  0  0  0
 13 25  1  6  0  0  0
 13 14  1  0  0  0  0
 14 26  1  1  0  0  0
 14 15  1  0  0  0  0
 14 19  1  0  0  0  0
 15 27  1  0  0  0  0
 16 15  1  0  0  0  0
 16 29  1  0  0  0  0
 17 16  2  0  0  0  0
 18 13  1  0  0  0  0
 18 17  1  0  0  0  0
 19 20  2  0  0  0  0
 21  2  1  0  0  0  0
 22 21  2  0  0  0  0
 23 35  1  0  0  0  0
 23 34  1  0  0  0  0
 28 15  1  0  0  0  0
 30 17  1  0  0  0  0
 31 18  1  0  0  0  0
 32 18  1  0  0  0  0
 33 23  1  0  0  0  0
M  END
>  <Pose>
1

>  <Score>
-5.11

$$$$
