
 OpenBabel03212208273D

 47 50  0  0  1  0  0  0  0  0999 V2000
   86.7210   98.3650  -43.8460 Cl  0  0  0  0  0  0  0  0  0  0  0  0
   86.3530   97.7490  -45.4400 C   0  0  0  0  0  0  0  0  0  0  0  0
   87.3820   97.2060  -46.1790 C   0  0  0  0  0  0  0  0  0  0  0  0
   87.0880   96.7210  -47.4350 C   0  0  0  0  0  0  0  0  0  0  0  0
   85.8000   96.7730  -47.9520 C   0  0  0  0  0  0  0  0  0  0  0  0
   84.7650   97.3140  -47.2180 C   0  0  0  0  0  0  0  0  0  0  0  0
   85.0590   97.7990  -45.9620 C   0  0  0  0  0  0  0  0  0  0  0  0
   88.3970   96.0270  -48.3840 Cl  0  0  0  0  0  0  0  0  0  0  0  0
   88.7480   97.1430  -45.6530 C   0  0  0  0  0  0  0  0  0  0  0  0
   89.7460   97.6540  -46.2770 N   0  0  0  0  0  0  0  0  0  0  0  0
   91.0160   97.5490  -45.7060 N   0  0  0  0  0  0  0  0  0  0  0  0
   91.3060   96.6270  -44.6650 C   0  0  0  0  0  0  0  0  0  0  0  0
   91.5010   96.9410  -43.3750 N   0  0  0  0  0  0  0  0  0  0  0  0
   91.7450   95.7800  -42.7430 C   0  0  0  0  0  0  0  0  0  0  0  0
   92.0110   95.4720  -41.4510 N   0  0  0  0  0  0  0  0  0  0  0  0
   92.2250   94.2030  -41.0530 C   0  0  0  0  0  0  0  0  0  0  0  0
   92.1790   93.1950  -41.9500 N   0  0  0  0  0  0  0  0  0  0  0  0
   91.9210   93.4210  -43.2520 C   0  0  0  0  0  0  0  0  0  0  0  0
   91.7050   94.7300  -43.6350 C   0  0  0  0  0  0  0  0  0  0  0  0
   91.4260   95.2890  -44.8360 N   0  0  0  0  0  0  0  0  0  0  0  0
   91.8790   92.3440  -44.1680 N   0  0  0  0  0  0  0  0  0  0  0  0
   91.4750   98.2160  -42.7190 C   0  0  1  0  0  0  0  0  0  0  0  0
   92.5720   99.0090  -43.0420 O   0  0  0  0  0  0  0  0  0  0  0  0
   92.1560  100.2560  -42.5760 C   0  0  2  0  0  0  0  0  0  0  0  0
   90.8280  100.4060  -43.3030 C   0  0  1  0  0  0  0  0  0  0  0  0
   90.2500   99.0170  -43.1240 C   0  0  2  0  0  0  0  0  0  0  0  0
   89.3230   99.0920  -42.0820 O   0  0  0  0  0  0  0  0  0  0  0  0
   90.0280  101.3790  -42.7220 O   0  0  0  0  0  0  0  0  0  0  0  0
   93.1160  101.3590  -42.9320 C   0  0  0  0  0  0  0  0  0  0  0  0
   93.3510  101.4560  -44.2810 O   0  0  0  0  0  0  0  0  0  0  0  0
   85.5620   96.3940  -48.9370 H   0  0  0  0  0  0  0  0  0  0  0  0
   83.7470   97.3750  -47.5790 H   0  0  0  0  0  0  0  0  0  0  0  0
   84.2550   98.2330  -45.3620 H   0  0  0  0  0  0  0  0  0  0  0  0
   88.9330   96.6530  -44.7110 H   0  0  0  0  0  0  0  0  0  0  0  0
   91.7530   98.1910  -46.0830 H   0  0  0  0  0  0  0  0  0  0  0  0
   92.4390   93.9490  -40.0230 H   0  0  0  0  0  0  0  0  0  0  0  0
   92.5210   92.2900  -44.9770 H   0  0  0  0  0  0  0  0  0  0  0  0
   91.1850   91.5890  -44.0250 H   0  0  0  0  0  0  0  0  0  0  0  0
   91.4620   98.1320  -41.6090 H   0  0  0  0  0  0  0  0  0  0  0  0
   91.9530  100.1740  -41.5110 H   0  0  0  0  0  0  0  0  0  0  0  0
   91.0170  100.6120  -44.3910 H   0  0  0  0  0  0  0  0  0  0  0  0
   89.7930   98.6260  -44.0540 H   0  0  0  0  0  0  0  0  0  0  0  0
   89.7030   98.8030  -41.2280 H   0  0  0  0  0  0  0  0  0  0  0  0
   89.7560  101.0440  -41.8250 H   0  0  0  0  0  0  0  0  0  0  0  0
   94.0690  101.1400  -42.4040 H   0  0  0  0  0  0  0  0  0  0  0  0
   92.7230  102.2900  -42.4730 H   0  0  0  0  0  0  0  0  0  0  0  0
   94.2720  101.2070  -44.5150 H   0  0  0  0  0  0  0  0  0  0  0  0
  2  1  1  0  0  0  0
  3  9  1  0  0  0  0
  3  2  2  0  0  0  0
  4  3  1  0  0  0  0
  5  4  2  0  0  0  0
  5  6  1  0  0  0  0
  6  7  2  0  0  0  0
  7  2  1  0  0  0  0
  7 33  1  0  0  0  0
  8  4  1  0  0  0  0
  9 34  1  0  0  0  0
 10 11  1  0  0  0  0
 10  9  2  0  0  0  0
 11 12  1  0  0  0  0
 12 13  1  0  0  0  0
 13 14  1  0  0  0  0
 13 22  1  0  0  0  0
 14 15  1  0  0  0  0
 15 16  2  0  0  0  0
 16 36  1  0  0  0  0
 17 16  1  0  0  0  0
 18 17  2  0  0  0  0
 19 18  1  0  0  0  0
 19 14  2  0  0  0  0
 20 12  2  0  0  0  0
 20 19  1  0  0  0  0
 21 38  1  0  0  0  0
 21 18  1  0  0  0  0
 22 39  1  1  0  0  0
 23 22  1  0  0  0  0
 23 24  1  0  0  0  0
 24 40  1  1  0  0  0
 25 41  1  6  0  0  0
 25 26  1  0  0  0  0
 25 28  1  0  0  0  0
 25 24  1  0  0  0  0
 26 42  1  6  0  0  0
 26 22  1  0  0  0  0
 26 27  1  0  0  0  0
 27 43  1  0  0  0  0
 28 44  1  0  0  0  0
 29 24  1  0  0  0  0
 29 46  1  0  0  0  0
 29 45  1  0  0  0  0
 30 29  1  0  0  0  0
 31  5  1  0  0  0  0
 32  6  1  0  0  0  0
 35 11  1  0  0  0  0
 37 21  1  0  0  0  0
 47 30  1  0  0  0  0
M  END
>  <Pose>
1

>  <Score>
-7.01

$$$$
