
 OpenBabel03212208273D

 49 52  0  0  1  0  0  0  0  0999 V2000
   95.9490  103.4290  -40.6210 Cl  0  0  0  0  0  0  0  0  0  0  0  0
   94.5340  102.4270  -40.8660 C   0  0  0  0  0  0  0  0  0  0  0  0
   94.0950  101.5440  -39.8900 C   0  0  0  0  0  0  0  0  0  0  0  0
   92.9850  100.7700  -40.1090 C   0  0  0  0  0  0  0  0  0  0  0  0
   92.2470  100.8230  -41.3010 C   0  0  0  0  0  0  0  0  0  0  0  0
   92.7000  101.6990  -42.2480 C   0  0  0  0  0  0  0  0  0  0  0  0
   93.8240  102.4900  -42.0400 C   0  0  0  0  0  0  0  0  0  0  0  0
   91.1180   99.9960  -41.4770 N   0  0  0  0  0  0  0  0  0  0  0  0
   90.4840   99.6380  -42.6700 C   0  0  0  0  0  0  0  0  0  0  0  0
   89.2950   99.2290  -42.6500 O   0  0  0  0  0  0  0  0  0  0  0  0
   91.1860   99.7220  -44.0050 C   0  0  0  0  0  0  0  0  0  0  0  0
   91.2950   98.3600  -44.4960 N   0  0  0  0  0  0  0  0  0  0  0  0
   90.3350   98.1240  -45.5940 C   0  0  0  0  0  0  0  0  0  0  0  0
   90.1450   96.5940  -45.5380 C   0  0  0  0  0  0  0  0  0  0  0  0
   91.4860   96.1100  -45.1770 N   0  0  0  0  0  0  0  0  0  0  0  0
   92.5670   96.8080  -45.7970 C   0  0  0  0  0  0  0  0  0  0  0  0
   92.6300   98.1840  -45.1160 C   0  0  0  0  0  0  0  0  0  0  0  0
   91.5960   95.0470  -44.2680 C   0  0  2  0  0  0  0  0  0  0  0  0
   91.5330   93.7530  -44.7070 N   0  0  0  0  0  0  0  0  0  0  0  0
   91.6170   92.6920  -43.9060 C   0  0  0  0  0  0  0  0  0  0  0  0
   91.7700   92.8720  -42.5890 N   0  0  0  0  0  0  0  0  0  0  0  0
   91.8460   94.0810  -42.0430 C   0  0  0  0  0  0  0  0  0  0  0  0
   91.9930   94.5340  -40.7820 N   0  0  0  0  0  0  0  0  0  0  0  0
   91.9960   95.8410  -40.8530 N   0  0  0  0  0  0  0  0  0  0  0  0
   91.8560   96.2400  -42.1080 N   0  0  0  0  0  0  0  0  0  0  0  0
   91.7570   95.1860  -42.8960 C   0  0  0  0  0  0  0  0  0  0  0  0
   92.1230   93.7710  -39.5560 C   0  0  0  0  0  0  0  0  0  0  0  0
   93.4600   93.0660  -39.4850 C   0  0  0  0  0  0  0  0  0  0  0  0
   94.6590  101.5030  -38.9720 H   0  0  0  0  0  0  0  0  0  0  0  0
   92.6590  100.0910  -39.3390 H   0  0  0  0  0  0  0  0  0  0  0  0
   92.2220  101.8190  -43.2020 H   0  0  0  0  0  0  0  0  0  0  0  0
   94.1360  103.1710  -42.8340 H   0  0  0  0  0  0  0  0  0  0  0  0
   90.6790   99.6180  -40.5800 H   0  0  0  0  0  0  0  0  0  0  0  0
   90.6020  100.3890  -44.6410 H   0  0  0  0  0  0  0  0  0  0  0  0
   92.1700  100.1760  -43.7680 H   0  0  0  0  0  0  0  0  0  0  0  0
   90.7620   98.3430  -46.5810 H   0  0  0  0  0  0  0  0  0  0  0  0
   89.4150   98.6750  -45.4570 H   0  0  0  0  0  0  0  0  0  0  0  0
   89.4100   96.4330  -44.7310 H   0  0  0  0  0  0  0  0  0  0  0  0
   89.8120   96.1950  -46.4920 H   0  0  0  0  0  0  0  0  0  0  0  0
   92.3710   96.9540  -46.8920 H   0  0  0  0  0  0  0  0  0  0  0  0
   93.5480   96.3480  -45.6450 H   0  0  0  0  0  0  0  0  0  0  0  0
   93.4320   98.2230  -44.3940 H   0  0  0  0  0  0  0  0  0  0  0  0
   92.8120   98.9510  -45.9010 H   0  0  0  0  0  0  0  0  0  0  0  0
   91.5570   91.6830  -44.3420 H   0  0  0  0  0  0  0  0  0  0  0  0
   92.0220   94.4690  -38.7000 H   0  0  0  0  0  0  0  0  0  0  0  0
   91.3350   93.0010  -39.4350 H   0  0  0  0  0  0  0  0  0  0  0  0
   94.1750   93.7770  -39.0140 H   0  0  0  0  0  0  0  0  0  0  0  0
   93.3170   92.1490  -38.8810 H   0  0  0  0  0  0  0  0  0  0  0  0
   93.7970   92.7460  -40.5010 H   0  0  0  0  0  0  0  0  0  0  0  0
  2  1  1  0  0  0  0
  2  3  1  0  0  0  0
  3 29  1  0  0  0  0
  4  3  2  0  0  0  0
  4 30  1  0  0  0  0
  5  4  1  0  0  0  0
  6  7  1  0  0  0  0
  6  5  2  0  0  0  0
  7  2  2  0  0  0  0
  8  5  1  0  0  0  0
  8 33  1  0  0  0  0
  9 10  2  0  0  0  0
  9  8  1  0  0  0  0
 11 35  1  0  0  0  0
 11  9  1  0  0  0  0
 12 11  1  0  0  0  0
 13 14  1  0  0  0  0
 13 37  1  0  0  0  0
 13 12  1  0  0  0  0
 14 15  1  0  0  0  0
 14 38  1  0  0  0  0
 16 41  1  0  0  0  0
 16 15  1  0  0  0  0
 16 17  1  0  0  0  0
 17 12  1  0  0  0  0
 17 42  1  0  0  0  0
 18 15  1  1  0  0  0
 18 26  1  0  0  0  0
 19 18  1  0  0  0  0
 19 20  2  0  0  0  0
 20 21  1  0  0  0  0
 21 22  1  0  0  0  0
 22 23  1  0  0  0  0
 23 27  1  0  0  0  0
 24 23  1  0  0  0  0
 25 24  2  0  0  0  0
 26 25  1  0  0  0  0
 26 22  2  0  0  0  0
 27 28  1  0  0  0  0
 27 46  1  0  0  0  0
 27 45  1  0  0  0  0
 28 47  1  0  0  0  0
 28 48  1  0  0  0  0
 31  6  1  0  0  0  0
 32  7  1  0  0  0  0
 34 11  1  0  0  0  0
 36 13  1  0  0  0  0
 39 14  1  0  0  0  0
 40 16  1  0  0  0  0
 43 17  1  0  0  0  0
 44 20  1  0  0  0  0
 49 28  1  0  0  0  0
M  END
>  <Pose>
1

>  <Score>
-5.20

$$$$
