
 OpenBabel03212208273D

 49 52  0  0  1  0  0  0  0  0999 V2000
   91.2260   90.6340  -49.9770 Cl  0  0  0  0  0  0  0  0  0  0  0  0
   91.7980   90.4980  -48.3270 C   0  0  0  0  0  0  0  0  0  0  0  0
   92.4710   89.3720  -47.9180 C   0  0  0  0  0  0  0  0  0  0  0  0
   92.8840   89.3450  -46.6090 C   0  0  0  0  0  0  0  0  0  0  0  0
   92.6530   90.3880  -45.7090 C   0  0  0  0  0  0  0  0  0  0  0  0
   91.9830   91.5150  -46.1080 C   0  0  0  0  0  0  0  0  0  0  0  0
   91.5650   91.5280  -47.4520 C   0  0  0  0  0  0  0  0  0  0  0  0
   91.7020   92.6370  -45.2990 N   0  0  0  0  0  0  0  0  0  0  0  0
   92.3660   92.9100  -44.0920 C   0  0  0  0  0  0  0  0  0  0  0  0
   93.6020   92.9930  -44.0090 O   0  0  0  0  0  0  0  0  0  0  0  0
   91.6030   93.1210  -42.8150 C   0  0  0  0  0  0  0  0  0  0  0  0
   91.8830   94.3870  -42.2140 N   0  0  0  0  0  0  0  0  0  0  0  0
   92.3920   94.5360  -40.9710 C   0  0  0  0  0  0  0  0  0  0  0  0
   92.6310   95.7680  -40.4730 N   0  0  0  0  0  0  0  0  0  0  0  0
   92.3840   96.8890  -41.1590 C   0  0  0  0  0  0  0  0  0  0  0  0
   92.6180   98.1190  -40.6720 N   0  0  0  0  0  0  0  0  0  0  0  0
   92.3800   99.2610  -41.3410 C   0  0  0  0  0  0  0  0  0  0  0  0
   91.8670   99.1320  -42.5940 N   0  0  0  0  0  0  0  0  0  0  0  0
   91.6180   97.9220  -43.1200 C   0  0  0  0  0  0  0  0  0  0  0  0
   91.8660   96.7570  -42.4250 C   0  0  2  0  0  0  0  0  0  0  0  0
   91.6170   95.5040  -42.9470 C   0  0  0  0  0  0  0  0  0  0  0  0
   91.1440   95.4480  -44.1090 O   0  0  0  0  0  0  0  0  0  0  0  0
   92.6410  100.5380  -40.7920 N   0  0  0  0  0  0  0  0  0  0  0  0
   93.9890  100.8450  -40.3720 C   0  0  0  0  0  0  0  0  0  0  0  0
   94.3060  102.2900  -40.7550 C   0  0  0  0  0  0  0  0  0  0  0  0
   93.2980  103.1630  -40.3560 O   0  0  0  0  0  0  0  0  0  0  0  0
   92.1850  102.8770  -41.1470 C   0  0  0  0  0  0  0  0  0  0  0  0
   91.6250  101.5520  -40.6300 C   0  0  0  0  0  0  0  0  0  0  0  0
   92.7210   88.3050  -48.7910 O   0  0  0  0  0  0  0  0  0  0  0  0
   91.8740   87.1790  -48.7850 C   0  0  0  0  0  0  0  0  0  0  0  0
   93.4240   88.4540  -46.2600 H   0  0  0  0  0  0  0  0  0  0  0  0
   93.0030   90.2720  -44.7170 H   0  0  0  0  0  0  0  0  0  0  0  0
   91.0310   92.4340  -47.7620 H   0  0  0  0  0  0  0  0  0  0  0  0
   90.9350   93.3180  -45.6210 H   0  0  0  0  0  0  0  0  0  0  0  0
   90.5200   93.0380  -42.9660 H   0  0  0  0  0  0  0  0  0  0  0  0
   91.9090   92.3260  -42.1080 H   0  0  0  0  0  0  0  0  0  0  0  0
   92.5910   93.6280  -40.4180 H   0  0  0  0  0  0  0  0  0  0  0  0
   91.2050   97.8010  -44.1270 H   0  0  0  0  0  0  0  0  0  0  0  0
   94.1150  100.7440  -39.2720 H   0  0  0  0  0  0  0  0  0  0  0  0
   94.6810  100.2040  -40.9470 H   0  0  0  0  0  0  0  0  0  0  0  0
   95.2270  102.5920  -40.2190 H   0  0  0  0  0  0  0  0  0  0  0  0
   94.3990  102.3740  -41.8580 H   0  0  0  0  0  0  0  0  0  0  0  0
   92.5200  102.7430  -42.1860 H   0  0  0  0  0  0  0  0  0  0  0  0
   91.4130  103.6490  -41.1140 H   0  0  0  0  0  0  0  0  0  0  0  0
   91.3040  101.6680  -39.5740 H   0  0  0  0  0  0  0  0  0  0  0  0
   90.7830  101.2860  -41.3030 H   0  0  0  0  0  0  0  0  0  0  0  0
   90.8260   87.5480  -48.8640 H   0  0  0  0  0  0  0  0  0  0  0  0
   91.9450   86.5920  -47.8600 H   0  0  0  0  0  0  0  0  0  0  0  0
   92.0480   86.5760  -49.7000 H   0  0  0  0  0  0  0  0  0  0  0  0
  1  2  1  0  0  0  0
  2  3  2  0  0  0  0
  2  7  1  0  0  0  0
  3  4  1  0  0  0  0
  4 31  1  0  0  0  0
  4  5  2  0  0  0  0
  5 32  1  0  0  0  0
  6  5  1  0  0  0  0
  6  8  1  0  0  0  0
  7  6  2  0  0  0  0
  8  9  1  0  0  0  0
  9 10  2  0  0  0  0
  9 11  1  0  0  0  0
 11 12  1  0  0  0  0
 11 36  1  0  0  0  0
 12 13  1  0  0  0  0
 13 14  1  0  0  0  0
 13 37  1  0  0  0  0
 15 16  1  0  0  0  0
 15 14  2  0  0  0  0
 17 23  1  0  0  0  0
 17 16  2  0  0  0  0
 18 17  1  0  0  0  0
 19 18  2  0  0  0  0
 20 19  1  1  0  0  0
 20 15  1  0  0  0  0
 21 20  1  0  0  0  0
 21 12  1  0  0  0  0
 22 21  2  0  0  0  0
 23 28  1  0  0  0  0
 23 24  1  0  0  0  0
 24 39  1  0  0  0  0
 25 24  1  0  0  0  0
 25 26  1  0  0  0  0
 25 41  1  0  0  0  0
 27 44  1  0  0  0  0
 27 28  1  0  0  0  0
 27 26  1  0  0  0  0
 28 45  1  0  0  0  0
 29 30  1  0  0  0  0
 29  3  1  0  0  0  0
 30 48  1  0  0  0  0
 33  7  1  0  0  0  0
 34  8  1  0  0  0  0
 35 11  1  0  0  0  0
 38 19  1  0  0  0  0
 40 24  1  0  0  0  0
 42 25  1  0  0  0  0
 43 27  1  0  0  0  0
 46 28  1  0  0  0  0
 47 30  1  0  0  0  0
 49 30  1  0  0  0  0
M  END
>  <Pose>
1

>  <Score>
-6.75

$$$$
