
 OpenBabel03212208273D

 60 63  0  0  1  0  0  0  0  0999 V2000
   83.6310  100.6200  -42.8840 Cl  0  0  0  0  0  0  0  0  0  0  0  0
   84.6970   99.4290  -43.6300 C   0  0  0  0  0  0  0  0  0  0  0  0
   86.0450   99.5030  -43.4110 C   0  0  0  0  0  0  0  0  0  0  0  0
   86.8980   98.5900  -43.9780 C   0  0  0  0  0  0  0  0  0  0  0  0
   86.3300   97.5880  -44.7890 C   0  0  0  0  0  0  0  0  0  0  0  0
   84.9910   97.5310  -44.9950 C   0  0  0  0  0  0  0  0  0  0  0  0
   84.1420   98.4430  -44.4250 C   0  0  0  0  0  0  0  0  0  0  0  0
   88.1900   98.5740  -43.8300 O   0  0  0  0  0  0  0  0  0  0  0  0
   89.4060   98.3690  -44.2820 C   0  0  0  0  0  0  0  0  0  0  0  0
   90.5800   99.1280  -43.7320 C   0  0  1  0  0  0  0  0  0  0  0  0
   90.7780  100.2090  -44.6030 O   0  0  0  0  0  0  0  0  0  0  0  0
   89.9950  101.3000  -44.3430 C   0  0  0  0  0  0  0  0  0  0  0  0
   90.3680  102.0420  -43.0760 C   0  0  0  0  0  0  0  0  0  0  0  0
   90.7170  100.9590  -42.1200 N   0  0  0  0  0  0  0  0  0  0  0  0
   90.1050   99.7160  -42.3910 C   0  0  0  0  0  0  0  0  0  0  0  0
   91.5800  101.2580  -41.0860 C   0  0  0  0  0  0  0  0  0  0  0  0
   91.2580  100.9710  -39.8600 O   0  0  0  0  0  0  0  0  0  0  0  0
   92.8590  101.8820  -41.2370 C   0  0  0  0  0  0  0  0  0  0  0  0
   93.2560  102.4990  -42.3500 N   0  0  0  0  0  0  0  0  0  0  0  0
   94.4590  103.0900  -42.4990 C   0  0  0  0  0  0  0  0  0  0  0  0
   95.3600  103.0700  -41.4470 C   0  0  0  0  0  0  0  0  0  0  0  0
   95.0010  102.4670  -40.3260 N   0  0  0  0  0  0  0  0  0  0  0  0
   93.7970  101.8840  -40.1990 C   0  0  0  0  0  0  0  0  0  0  0  0
   96.6680  103.7350  -41.6670 C   0  0  0  0  0  0  0  0  0  0  0  0
   91.8390   98.3990  -43.6080 C   0  0  0  0  0  0  0  0  0  0  0  0
   91.9180   97.2940  -42.6510 C   0  0  0  0  0  0  0  0  0  0  0  0
   92.2850   97.4890  -41.4760 O   0  0  0  0  0  0  0  0  0  0  0  0
   91.5810   95.9620  -43.0240 N   0  0  0  0  0  0  0  0  0  0  0  0
   91.4020   94.9130  -42.0270 C   0  0  0  0  0  0  0  0  0  0  0  0
   92.1850   93.7080  -42.5030 C   0  0  0  0  0  0  0  0  0  0  0  0
   91.7180   93.3370  -43.7680 O   0  0  0  0  0  0  0  0  0  0  0  0
   92.1160   94.3050  -44.6890 C   0  0  0  0  0  0  0  0  0  0  0  0
   91.3960   95.5840  -44.4100 C   0  0  0  0  0  0  0  0  0  0  0  0
   86.4580  100.2910  -42.7990 H   0  0  0  0  0  0  0  0  0  0  0  0
   86.9620   96.8360  -45.2660 H   0  0  0  0  0  0  0  0  0  0  0  0
   84.5320   96.7640  -45.6170 H   0  0  0  0  0  0  0  0  0  0  0  0
   83.0820   98.4430  -44.5560 H   0  0  0  0  0  0  0  0  0  0  0  0
   89.6830   97.2410  -44.2760 H   0  0  0  0  0  0  0  0  0  0  0  0
   89.4260   98.5580  -45.4260 H   0  0  0  0  0  0  0  0  0  0  0  0
   90.1180  102.0130  -45.1750 H   0  0  0  0  0  0  0  0  0  0  0  0
   88.9320  101.0000  -44.3370 H   0  0  0  0  0  0  0  0  0  0  0  0
   89.4910  102.5990  -42.7410 H   0  0  0  0  0  0  0  0  0  0  0  0
   91.2820  102.6190  -43.2170 H   0  0  0  0  0  0  0  0  0  0  0  0
   89.0020   99.9580  -42.5870 H   0  0  0  0  0  0  0  0  0  0  0  0
   90.0790   98.9570  -41.6320 H   0  0  0  0  0  0  0  0  0  0  0  0
   94.6890  103.5660  -43.4430 H   0  0  0  0  0  0  0  0  0  0  0  0
   93.5320  101.3990  -39.2730 H   0  0  0  0  0  0  0  0  0  0  0  0
   97.1840  103.9500  -40.7020 H   0  0  0  0  0  0  0  0  0  0  0  0
   97.2690  103.0520  -42.3010 H   0  0  0  0  0  0  0  0  0  0  0  0
   96.5770  104.6930  -42.2140 H   0  0  0  0  0  0  0  0  0  0  0  0
   92.6870   99.1470  -43.3570 H   0  0  0  0  0  0  0  0  0  0  0  0
   92.1880   98.0520  -44.6270 H   0  0  0  0  0  0  0  0  0  0  0  0
   91.7550   95.2360  -41.0290 H   0  0  0  0  0  0  0  0  0  0  0  0
   90.3270   94.5980  -41.9870 H   0  0  0  0  0  0  0  0  0  0  0  0
   93.2520   93.9690  -42.5170 H   0  0  0  0  0  0  0  0  0  0  0  0
   92.0160   92.8230  -41.8470 H   0  0  0  0  0  0  0  0  0  0  0  0
   93.2030   94.5020  -44.6560 H   0  0  0  0  0  0  0  0  0  0  0  0
   91.7890   93.9520  -45.6970 H   0  0  0  0  0  0  0  0  0  0  0  0
   91.7800   96.3530  -45.1100 H   0  0  0  0  0  0  0  0  0  0  0  0
   90.3030   95.5210  -44.5960 H   0  0  0  0  0  0  0  0  0  0  0  0
  2  3  1  0  0  0  0
  2  1  1  0  0  0  0
  3 34  1  0  0  0  0
  4  8  1  0  0  0  0
  4  3  2  0  0  0  0
  5  4  1  0  0  0  0
  6  5  2  0  0  0  0
  6  7  1  0  0  0  0
  7  2  2  0  0  0  0
  9 38  1  0  0  0  0
  9  8  1  0  0  0  0
 10  9  1  6  0  0  0
 10 25  1  0  0  0  0
 10 15  1  0  0  0  0
 11 12  1  0  0  0  0
 11 10  1  0  0  0  0
 12 41  1  0  0  0  0
 12 13  1  0  0  0  0
 13 42  1  0  0  0  0
 13 14  1  0  0  0  0
 14 16  1  0  0  0  0
 15 14  1  0  0  0  0
 15 45  1  0  0  0  0
 16 17  2  0  0  0  0
 18 16  1  0  0  0  0
 18 23  1  0  0  0  0
 19 18  2  0  0  0  0
 20 19  1  0  0  0  0
 20 21  2  0  0  0  0
 21 22  1  0  0  0  0
 22 23  2  0  0  0  0
 23 47  1  0  0  0  0
 24 21  1  0  0  0  0
 24 48  1  0  0  0  0
 25 51  1  0  0  0  0
 25 26  1  0  0  0  0
 26 27  2  0  0  0  0
 28 26  1  0  0  0  0
 28 29  1  0  0  0  0
 29 54  1  0  0  0  0
 29 53  1  0  0  0  0
 30 29  1  0  0  0  0
 30 56  1  0  0  0  0
 31 30  1  0  0  0  0
 32 57  1  0  0  0  0
 32 33  1  0  0  0  0
 32 31  1  0  0  0  0
 33 28  1  0  0  0  0
 35  5  1  0  0  0  0
 36  6  1  0  0  0  0
 37  7  1  0  0  0  0
 39  9  1  0  0  0  0
 40 12  1  0  0  0  0
 43 13  1  0  0  0  0
 44 15  1  0  0  0  0
 46 20  1  0  0  0  0
 49 24  1  0  0  0  0
 50 24  1  0  0  0  0
 52 25  1  0  0  0  0
 55 30  1  0  0  0  0
 58 32  1  0  0  0  0
 59 33  1  0  0  0  0
 60 33  1  0  0  0  0
M  END
>  <Pose>
1

>  <Score>
-4.70

$$$$
