
 OpenBabel03212208273D

 39 42  0  0  0  0  0  0  0  0999 V2000
   90.2440   86.2240  -50.5800 Cl  0  0  0  0  0  0  0  0  0  0  0  0
   90.5410   87.6510  -49.6010 C   0  0  0  0  0  0  0  0  0  0  0  0
   89.5400   88.5730  -49.3550 C   0  0  0  0  0  0  0  0  0  0  0  0
   89.7940   89.6900  -48.5820 C   0  0  0  0  0  0  0  0  0  0  0  0
   91.0310   89.9350  -48.0320 C   0  0  0  0  0  0  0  0  0  0  0  0
   92.0340   89.0190  -48.2750 C   0  0  0  0  0  0  0  0  0  0  0  0
   91.7900   87.8950  -49.0480 C   0  0  0  0  0  0  0  0  0  0  0  0
   91.2870   91.1160  -47.2200 C   0  0  0  0  0  0  0  0  0  0  0  0
   90.8590   92.3580  -47.4910 N   0  0  0  0  0  0  0  0  0  0  0  0
   91.2580   93.1820  -46.5690 O   0  0  0  0  0  0  0  0  0  0  0  0
   91.9510   92.5180  -45.6760 C   0  0  0  0  0  0  0  0  0  0  0  0
   91.9760   91.2180  -46.0740 N   0  0  0  0  0  0  0  0  0  0  0  0
   92.5670   93.1220  -44.4790 C   0  0  0  0  0  0  0  0  0  0  0  0
   91.9930   94.4460  -44.2370 N   0  0  0  0  0  0  0  0  0  0  0  0
   92.2540   95.0570  -43.0630 C   0  0  0  0  0  0  0  0  0  0  0  0
   91.7410   96.2980  -42.7860 C   0  0  0  0  0  0  0  0  0  0  0  0
   90.8980   96.9640  -43.7850 C   0  0  0  0  0  0  0  0  0  0  0  0
   90.5390   98.1520  -43.2520 N   0  0  0  0  0  0  0  0  0  0  0  0
   91.0710   98.2720  -42.0530 N   0  0  0  0  0  0  0  0  0  0  0  0
   91.7980   97.1960  -41.7210 C   0  0  0  0  0  0  0  0  0  0  0  0
   92.4310   96.9930  -40.6570 O   0  0  0  0  0  0  0  0  0  0  0  0
   90.6590   96.3010  -44.9700 C   0  0  0  0  0  0  0  0  0  0  0  0
   91.2260   95.0680  -45.1310 C   0  0  0  0  0  0  0  0  0  0  0  0
   89.8230   96.9340  -45.9900 C   0  0  0  0  0  0  0  0  0  0  0  0
   89.3490   98.0640  -45.8090 O   0  0  0  0  0  0  0  0  0  0  0  0
   89.5390   96.2880  -47.1820 O   0  0  0  0  0  0  0  0  0  0  0  0
   88.4300   96.5960  -47.9920 C   0  0  0  0  0  0  0  0  0  0  0  0
   88.5530   88.3980  -49.7820 H   0  0  0  0  0  0  0  0  0  0  0  0
   89.0080   90.4090  -48.3910 H   0  0  0  0  0  0  0  0  0  0  0  0
   93.0110   89.2080  -47.8430 H   0  0  0  0  0  0  0  0  0  0  0  0
   92.5700   87.1760  -49.2410 H   0  0  0  0  0  0  0  0  0  0  0  0
   92.3140   92.4980  -43.6060 H   0  0  0  0  0  0  0  0  0  0  0  0
   93.6700   93.2450  -44.6020 H   0  0  0  0  0  0  0  0  0  0  0  0
   92.8740   94.5720  -42.3250 H   0  0  0  0  0  0  0  0  0  0  0  0
   90.9400   99.0990  -41.4420 H   0  0  0  0  0  0  0  0  0  0  0  0
   91.0260   94.5570  -46.0740 H   0  0  0  0  0  0  0  0  0  0  0  0
   87.7530   97.3330  -47.5390 H   0  0  0  0  0  0  0  0  0  0  0  0
   88.7540   97.0220  -48.9860 H   0  0  0  0  0  0  0  0  0  0  0  0
   87.9390   95.6340  -48.2470 H   0  0  0  0  0  0  0  0  0  0  0  0
  1  2  1  0  0  0  0
  2  3  2  0  0  0  0
  2  7  1  0  0  0  0
  3  4  1  0  0  0  0
  4 29  1  0  0  0  0
  4  5  2  0  0  0  0
  5  8  1  0  0  0  0
  6  5  1  0  0  0  0
  6 30  1  0  0  0  0
  7  6  2  0  0  0  0
  8 12  1  0  0  0  0
  9  8  2  0  0  0  0
  9 10  1  0  0  0  0
 10 11  1  0  0  0  0
 11 13  1  0  0  0  0
 12 11  2  0  0  0  0
 13 14  1  0  0  0  0
 13 32  1  0  0  0  0
 14 15  1  0  0  0  0
 15 16  1  0  0  0  0
 15 34  1  0  0  0  0
 16 20  1  0  0  0  0
 17 18  1  0  0  0  0
 17 16  2  0  0  0  0
 18 19  1  0  0  0  0
 19 20  1  0  0  0  0
 19 35  1  0  0  0  0
 20 21  2  0  0  0  0
 22 17  1  0  0  0  0
 23 22  2  0  0  0  0
 23 14  1  0  0  0  0
 24 25  2  0  0  0  0
 24 22  1  0  0  0  0
 26 24  1  0  0  0  0
 27 37  1  0  0  0  0
 27 26  1  0  0  0  0
 28  3  1  0  0  0  0
 31  7  1  0  0  0  0
 33 13  1  0  0  0  0
 36 23  1  0  0  0  0
 38 27  1  0  0  0  0
 39 27  1  0  0  0  0
M  END
>  <Pose>
1

>  <Score>
-5.31

$$$$
