
 OpenBabel03212208273D

 54 57  0  0  1  0  0  0  0  0999 V2000
   86.8240  103.9290  -42.9860 Cl  0  0  0  0  0  0  0  0  0  0  0  0
   85.6880  103.7610  -41.6690 C   0  0  0  0  0  0  0  0  0  0  0  0
   84.9020  102.6150  -41.6190 C   0  0  0  0  0  0  0  0  0  0  0  0
   84.0630  102.4970  -40.5430 C   0  0  0  0  0  0  0  0  0  0  0  0
   84.0000  103.4830  -39.5660 C   0  0  0  0  0  0  0  0  0  0  0  0
   84.7960  104.6470  -39.6130 C   0  0  0  0  0  0  0  0  0  0  0  0
   85.6350  104.7160  -40.7070 C   0  0  0  0  0  0  0  0  0  0  0  0
   84.9010  101.7150  -42.8020 C   0  0  0  0  0  0  0  0  0  0  0  0
   84.9830  100.3430  -42.4550 N   0  0  0  0  0  0  0  0  0  0  0  0
   84.3260   99.2720  -43.0650 C   0  0  0  0  0  0  0  0  0  0  0  0
   83.8880   98.3360  -42.4480 O   0  0  0  0  0  0  0  0  0  0  0  0
   84.1530   99.3230  -44.5870 C   0  0  0  0  0  0  0  0  0  0  0  0
   85.3730   98.8060  -45.1600 N   0  0  0  0  0  0  0  0  0  0  0  0
   86.6040   98.8820  -44.5220 C   0  0  0  0  0  0  0  0  0  0  0  0
   87.6020   97.9380  -45.3170 C   0  0  0  0  0  0  0  0  0  0  0  0
   87.0450   98.0190  -46.6420 N   0  0  0  0  0  0  0  0  0  0  0  0
   85.8920   97.0830  -46.7870 C   0  0  0  0  0  0  0  0  0  0  0  0
   85.0800   97.3850  -45.5590 C   0  0  0  0  0  0  0  0  0  0  0  0
   87.5410   98.7710  -47.6640 C   0  0  0  0  0  0  0  0  0  0  0  0
   86.7110   99.4640  -48.3460 O   0  0  0  0  0  0  0  0  0  0  0  0
   88.9620   98.8790  -48.1220 C   0  0  1  0  0  0  0  0  0  0  0  0
   89.3510   97.4930  -48.3980 O   0  0  0  0  0  0  0  0  0  0  0  0
   88.2520   96.7720  -48.9470 C   0  0  0  0  0  0  0  0  0  0  0  0
   87.3960   97.4590  -49.7680 C   0  0  0  0  0  0  0  0  0  0  0  0
   86.2910   96.8430  -50.3450 C   0  0  0  0  0  0  0  0  0  0  0  0
   86.1080   95.4980  -50.0440 C   0  0  0  0  0  0  0  0  0  0  0  0
   86.9530   94.7760  -49.2310 C   0  0  0  0  0  0  0  0  0  0  0  0
   88.0400   95.4240  -48.6790 C   0  0  0  0  0  0  0  0  0  0  0  0
   87.6410   98.8110  -50.0310 O   0  0  0  0  0  0  0  0  0  0  0  0
   88.8500   99.4580  -49.5580 C   0  0  0  0  0  0  0  0  0  0  0  0
   83.4050  101.6540  -40.4060 H   0  0  0  0  0  0  0  0  0  0  0  0
   83.3400  103.4430  -38.7040 H   0  0  0  0  0  0  0  0  0  0  0  0
   84.7270  105.3940  -38.8390 H   0  0  0  0  0  0  0  0  0  0  0  0
   86.2750  105.5750  -40.7460 H   0  0  0  0  0  0  0  0  0  0  0  0
   83.8590  101.8980  -43.2580 H   0  0  0  0  0  0  0  0  0  0  0  0
   85.6970  102.0220  -43.4870 H   0  0  0  0  0  0  0  0  0  0  0  0
   85.5480  100.0770  -41.5720 H   0  0  0  0  0  0  0  0  0  0  0  0
   83.3080   98.7010  -44.9060 H   0  0  0  0  0  0  0  0  0  0  0  0
   84.0160  100.3740  -44.8660 H   0  0  0  0  0  0  0  0  0  0  0  0
   86.7140   98.6140  -43.4900 H   0  0  0  0  0  0  0  0  0  0  0  0
   87.0700   99.8900  -44.7640 H   0  0  0  0  0  0  0  0  0  0  0  0
   87.4860   96.9310  -44.8940 H   0  0  0  0  0  0  0  0  0  0  0  0
   88.6100   98.3310  -45.2720 H   0  0  0  0  0  0  0  0  0  0  0  0
   86.3310   96.0800  -46.6360 H   0  0  0  0  0  0  0  0  0  0  0  0
   85.3990   97.1630  -47.7330 H   0  0  0  0  0  0  0  0  0  0  0  0
   85.4330   96.7970  -44.6940 H   0  0  0  0  0  0  0  0  0  0  0  0
   84.0040   97.3030  -45.6450 H   0  0  0  0  0  0  0  0  0  0  0  0
   89.6290   99.3990  -47.4830 H   0  0  0  0  0  0  0  0  0  0  0  0
   85.6120   97.4190  -50.9880 H   0  0  0  0  0  0  0  0  0  0  0  0
   85.2370   95.0230  -50.4800 H   0  0  0  0  0  0  0  0  0  0  0  0
   86.7570   93.7100  -49.0090 H   0  0  0  0  0  0  0  0  0  0  0  0
   88.7390   94.9100  -48.0320 H   0  0  0  0  0  0  0  0  0  0  0  0
   88.5490  100.5270  -49.3910 H   0  0  0  0  0  0  0  0  0  0  0  0
   89.7160   99.2900  -50.1570 H   0  0  0  0  0  0  0  0  0  0  0  0
  1  2  1  0  0  0  0
  2  3  2  0  0  0  0
  2  7  1  0  0  0  0
  3  4  1  0  0  0  0
  4 31  1  0  0  0  0
  4  5  2  0  0  0  0
  5 32  1  0  0  0  0
  6  5  1  0  0  0  0
  6 33  1  0  0  0  0
  7  6  2  0  0  0  0
  8  9  1  0  0  0  0
  8  3  1  0  0  0  0
  9 37  1  0  0  0  0
 10  9  1  0  0  0  0
 10 11  2  0  0  0  0
 12 10  1  0  0  0  0
 13 12  1  0  0  0  0
 13 14  1  0  0  0  0
 14 40  1  0  0  0  0
 15 43  1  0  0  0  0
 15 42  1  0  0  0  0
 15 14  1  0  0  0  0
 16 15  1  0  0  0  0
 17 16  1  0  0  0  0
 17 44  1  0  0  0  0
 17 18  1  0  0  0  0
 18 13  1  0  0  0  0
 18 46  1  0  0  0  0
 19 16  1  0  0  0  0
 20 19  2  0  0  0  0
 21 19  1  0  0  0  0
 21 48  1  1  0  0  0
 22 21  1  0  0  0  0
 23 28  1  0  0  0  0
 23 22  1  0  0  0  0
 24 23  2  0  0  0  0
 25 26  2  0  0  0  0
 25 24  1  0  0  0  0
 26 27  1  0  0  0  0
 27 51  1  0  0  0  0
 27 28  2  0  0  0  0
 28 52  1  0  0  0  0
 29 24  1  0  0  0  0
 29 30  1  0  0  0  0
 30 53  1  0  0  0  0
 30 21  1  0  0  0  0
 34  7  1  0  0  0  0
 35  8  1  0  0  0  0
 36  8  1  0  0  0  0
 38 12  1  0  0  0  0
 39 12  1  0  0  0  0
 41 14  1  0  0  0  0
 45 17  1  0  0  0  0
 47 18  1  0  0  0  0
 49 25  1  0  0  0  0
 50 26  1  0  0  0  0
 54 30  1  0  0  0  0
M  END
>  <Pose>
1

>  <Score>
-3.95

$$$$
