
 OpenBabel03212208273D

 47 51  0  0  1  0  0  0  0  0999 V2000
   96.5460  105.2830  -44.9120 Cl  0  0  0  0  0  0  0  0  0  0  0  0
   95.1980  104.1680  -44.7710 C   0  0  0  0  0  0  0  0  0  0  0  0
   94.8910  103.6180  -43.5500 C   0  0  0  0  0  0  0  0  0  0  0  0
   93.8260  102.7300  -43.4520 C   0  0  0  0  0  0  0  0  0  0  0  0
   93.0510  102.3670  -44.5190 C   0  0  0  0  0  0  0  0  0  0  0  0
   93.3800  102.9340  -45.7260 C   0  0  0  0  0  0  0  0  0  0  0  0
   94.4460  103.8300  -45.8540 C   0  0  0  0  0  0  0  0  0  0  0  0
   91.9810  101.4710  -44.4230 N   0  0  0  0  0  0  0  0  0  0  0  0
   90.6850  101.6630  -43.8150 C   0  0  0  0  0  0  0  0  0  0  0  0
   90.3070  102.6760  -43.2200 O   0  0  0  0  0  0  0  0  0  0  0  0
   89.8670  100.4590  -44.0110 C   0  0  2  0  0  0  0  0  0  0  0  0
   89.1480   99.9500  -42.7850 C   0  0  2  0  0  0  0  0  0  0  0  0
   90.0000   98.9750  -42.1470 N   0  0  0  0  0  0  0  0  0  0  0  0
   91.3080   99.1200  -42.7540 C   0  0  2  0  0  0  0  0  0  0  0  0
   90.9310   99.4020  -44.1950 C   0  0  2  0  0  0  0  0  0  0  0  0
   91.9680  100.1320  -44.9460 C   0  0  0  0  0  0  0  0  0  0  0  0
   92.6530   99.6300  -45.8410 O   0  0  0  0  0  0  0  0  0  0  0  0
   92.1340   97.8650  -42.6410 C   0  0  0  0  0  0  0  0  0  0  0  0
   92.5880   97.5660  -41.2860 C   0  0  0  0  0  0  0  0  0  0  0  0
   92.7560   96.3880  -40.9190 O   0  0  0  0  0  0  0  0  0  0  0  0
   92.8420   98.6200  -40.3770 N   0  0  0  0  0  0  0  0  0  0  0  0
   87.8870   99.3210  -43.3110 C   0  0  0  0  0  0  0  0  0  0  0  0
   86.8410  100.1090  -42.9250 C   0  0  0  0  0  0  0  0  0  0  0  0
   85.5210   99.8270  -43.3120 C   0  0  0  0  0  0  0  0  0  0  0  0
   85.2510   98.7280  -44.1000 C   0  0  0  0  0  0  0  0  0  0  0  0
   86.2990   97.9350  -44.4850 C   0  0  0  0  0  0  0  0  0  0  0  0
   87.5900   98.2270  -44.0980 C   0  0  0  0  0  0  0  0  0  0  0  0
   87.2750  101.1420  -42.0550 N   0  0  0  0  0  0  0  0  0  0  0  0
   88.6750  100.9810  -41.8840 C   0  0  0  0  0  0  0  0  0  0  0  0
   89.3480  101.6470  -41.0690 O   0  0  0  0  0  0  0  0  0  0  0  0
   95.4780  103.8740  -42.6660 H   0  0  0  0  0  0  0  0  0  0  0  0
   93.6420  102.3390  -42.4860 H   0  0  0  0  0  0  0  0  0  0  0  0
   92.8470  102.7270  -46.6250 H   0  0  0  0  0  0  0  0  0  0  0  0
   94.6930  104.2700  -46.8210 H   0  0  0  0  0  0  0  0  0  0  0  0
   89.2030  100.5340  -44.8970 H   0  0  0  0  0  0  0  0  0  0  0  0
   90.0250   99.1950  -41.1230 H   0  0  0  0  0  0  0  0  0  0  0  0
   91.8330  100.0260  -42.3790 H   0  0  0  0  0  0  0  0  0  0  0  0
   90.5790   98.4980  -44.7180 H   0  0  0  0  0  0  0  0  0  0  0  0
   93.0470   98.0340  -43.2870 H   0  0  0  0  0  0  0  0  0  0  0  0
   91.5690   97.0440  -43.1300 H   0  0  0  0  0  0  0  0  0  0  0  0
   92.1250   99.0290  -39.7300 H   0  0  0  0  0  0  0  0  0  0  0  0
   93.7940   99.0790  -40.2810 H   0  0  0  0  0  0  0  0  0  0  0  0
   84.6970  100.4600  -43.0020 H   0  0  0  0  0  0  0  0  0  0  0  0
   84.2160   98.5340  -44.3880 H   0  0  0  0  0  0  0  0  0  0  0  0
   86.1110   97.0730  -45.0950 H   0  0  0  0  0  0  0  0  0  0  0  0
   88.4080   97.5840  -44.4090 H   0  0  0  0  0  0  0  0  0  0  0  0
   86.6660  101.8960  -41.6120 H   0  0  0  0  0  0  0  0  0  0  0  0
  1  2  1  0  0  0  0
  2  3  1  0  0  0  0
  3  4  2  0  0  0  0
  3 31  1  0  0  0  0
  4 32  1  0  0  0  0
  5  8  1  0  0  0  0
  5  4  1  0  0  0  0
  6  5  2  0  0  0  0
  7  6  1  0  0  0  0
  7  2  2  0  0  0  0
  8  9  1  0  0  0  0
  9 10  2  0  0  0  0
 11 35  1  6  0  0  0
 11  9  1  0  0  0  0
 11 12  1  0  0  0  0
 12 22  1  6  0  0  0
 12 13  1  0  0  0  0
 12 29  1  0  0  0  0
 13 36  1  0  0  0  0
 14 18  1  0  0  0  0
 14 37  1  1  0  0  0
 14 13  1  0  0  0  0
 15 38  1  6  0  0  0
 15 11  1  0  0  0  0
 15 14  1  0  0  0  0
 16  8  1  0  0  0  0
 16 15  1  0  0  0  0
 17 16  2  0  0  0  0
 18 19  1  0  0  0  0
 19 20  2  0  0  0  0
 19 21  1  0  0  0  0
 21 42  1  0  0  0  0
 21 41  1  0  0  0  0
 22 23  1  0  0  0  0
 23 28  1  0  0  0  0
 24 43  1  0  0  0  0
 24 23  2  0  0  0  0
 25 24  1  0  0  0  0
 26 25  2  0  0  0  0
 26 27  1  0  0  0  0
 27 22  2  0  0  0  0
 28 29  1  0  0  0  0
 28 47  1  0  0  0  0
 29 30  2  0  0  0  0
 33  6  1  0  0  0  0
 34  7  1  0  0  0  0
 39 18  1  0  0  0  0
 40 18  1  0  0  0  0
 44 25  1  0  0  0  0
 45 26  1  0  0  0  0
 46 27  1  0  0  0  0
M  END
>  <Pose>
1

>  <Score>
-5.62

$$$$
