
 OpenBabel03212208273D

 57 61  0  0  1  0  0  0  0  0999 V2000
   82.8540   97.1170  -44.4000 Cl  0  0  0  0  0  0  0  0  0  0  0  0
   84.2880   98.0440  -43.9920 C   0  0  0  0  0  0  0  0  0  0  0  0
   85.5630   97.5520  -44.1940 C   0  0  0  0  0  0  0  0  0  0  0  0
   86.6750   98.2830  -43.8720 C   0  0  0  0  0  0  0  0  0  0  0  0
   86.5740   99.5610  -43.3250 C   0  0  0  0  0  0  0  0  0  0  0  0
   85.3110  100.0620  -43.1190 C   0  0  0  0  0  0  0  0  0  0  0  0
   84.2120   99.3080  -43.4510 C   0  0  0  0  0  0  0  0  0  0  0  0
   87.8010  100.3440  -43.0040 C   0  0  1  0  0  0  0  0  0  0  0  0
   87.5680  101.1030  -41.8860 O   0  0  0  0  0  0  0  0  0  0  0  0
   89.0390   99.4920  -42.9190 C   0  0  2  0  0  0  0  0  0  0  0  0
   89.9060  100.1480  -41.9490 N   0  0  0  0  0  0  0  0  0  0  0  0
   91.2600  100.0250  -42.4490 C   0  0  1  0  0  0  0  0  0  0  0  0
   91.0650  100.0830  -43.9370 C   0  0  2  0  0  0  0  0  0  0  0  0
   89.7820   99.3580  -44.1940 C   0  0  1  0  0  0  0  0  0  0  0  0
   90.1630   97.9540  -44.5110 C   0  0  0  0  0  0  0  0  0  0  0  0
   89.3990   96.9600  -44.5380 O   0  0  0  0  0  0  0  0  0  0  0  0
   91.5820   97.9670  -44.7790 N   0  0  0  0  0  0  0  0  0  0  0  0
   92.0450   99.3000  -44.7100 C   0  0  0  0  0  0  0  0  0  0  0  0
   93.1000   99.7630  -45.2090 O   0  0  0  0  0  0  0  0  0  0  0  0
   92.3810   96.8090  -45.0550 C   0  0  0  0  0  0  0  0  0  0  0  0
   91.7150   95.4990  -44.8600 C   0  0  0  0  0  0  0  0  0  0  0  0
   92.5680   94.2860  -44.9970 C   0  0  0  0  0  0  0  0  0  0  0  0
   91.9640   93.1310  -44.5180 O   0  0  0  0  0  0  0  0  0  0  0  0
   92.1170   93.0710  -43.1170 C   0  0  0  0  0  0  0  0  0  0  0  0
   92.1340  101.1220  -41.9680 C   0  0  0  0  0  0  0  0  0  0  0  0
   93.1310  100.5360  -41.2250 C   0  0  0  0  0  0  0  0  0  0  0  0
   94.1030  101.3440  -40.6510 C   0  0  0  0  0  0  0  0  0  0  0  0
   94.0430  102.7050  -40.8400 C   0  0  0  0  0  0  0  0  0  0  0  0
   93.0430  103.3050  -41.5870 C   0  0  0  0  0  0  0  0  0  0  0  0
   92.0840  102.4900  -42.1510 C   0  0  0  0  0  0  0  0  0  0  0  0
   92.9670   99.1070  -41.1760 N   0  0  0  0  0  0  0  0  0  0  0  0
   91.8090   98.7860  -41.9260 C   0  0  0  0  0  0  0  0  0  0  0  0
   91.3810   97.6300  -42.0770 O   0  0  0  0  0  0  0  0  0  0  0  0
   85.6760   96.5510  -44.6230 H   0  0  0  0  0  0  0  0  0  0  0  0
   87.6890   97.8830  -44.0370 H   0  0  0  0  0  0  0  0  0  0  0  0
   85.1440  101.0490  -42.7090 H   0  0  0  0  0  0  0  0  0  0  0  0
   83.1970   99.6910  -43.2940 H   0  0  0  0  0  0  0  0  0  0  0  0
   87.9370  101.0360  -43.9160 H   0  0  0  0  0  0  0  0  0  0  0  0
   87.0990  100.5360  -41.2220 H   0  0  0  0  0  0  0  0  0  0  0  0
   88.7680   98.4940  -42.4670 H   0  0  0  0  0  0  0  0  0  0  0  0
   89.7980   99.7230  -41.0220 H   0  0  0  0  0  0  0  0  0  0  0  0
   91.0300  101.1370  -44.2710 H   0  0  0  0  0  0  0  0  0  0  0  0
   89.2450   99.7550  -45.0710 H   0  0  0  0  0  0  0  0  0  0  0  0
   93.3010   96.8620  -44.4420 H   0  0  0  0  0  0  0  0  0  0  0  0
   92.7560   96.8260  -46.1200 H   0  0  0  0  0  0  0  0  0  0  0  0
   91.3310   95.4870  -43.7950 H   0  0  0  0  0  0  0  0  0  0  0  0
   90.7760   95.3840  -45.4630 H   0  0  0  0  0  0  0  0  0  0  0  0
   93.5490   94.3630  -44.5000 H   0  0  0  0  0  0  0  0  0  0  0  0
   92.7600   94.1400  -46.0880 H   0  0  0  0  0  0  0  0  0  0  0  0
   93.1840   93.0560  -42.8310 H   0  0  0  0  0  0  0  0  0  0  0  0
   91.6820   94.0020  -42.6920 H   0  0  0  0  0  0  0  0  0  0  0  0
   91.5550   92.2150  -42.6970 H   0  0  0  0  0  0  0  0  0  0  0  0
   94.9030  100.8800  -40.0560 H   0  0  0  0  0  0  0  0  0  0  0  0
   94.8120  103.3240  -40.3840 H   0  0  0  0  0  0  0  0  0  0  0  0
   93.0580  104.3800  -41.6920 H   0  0  0  0  0  0  0  0  0  0  0  0
   91.2850  102.9570  -42.7470 H   0  0  0  0  0  0  0  0  0  0  0  0
   93.6210   98.4740  -40.6620 H   0  0  0  0  0  0  0  0  0  0  0  0
  1  2  1  0  0  0  0
  2  7  1  0  0  0  0
  3  2  2  0  0  0  0
  3  4  1  0  0  0  0
  4  5  2  0  0  0  0
  5  6  1  0  0  0  0
  5  8  1  0  0  0  0
  6 36  1  0  0  0  0
  7 37  1  0  0  0  0
  7  6  2  0  0  0  0
  8 38  1  6  0  0  0
  8 10  1  0  0  0  0
  8  9  1  0  0  0  0
  9 39  1  0  0  0  0
 10 40  1  1  0  0  0
 10 11  1  0  0  0  0
 11 41  1  0  0  0  0
 12 25  1  1  0  0  0
 12 11  1  0  0  0  0
 12 32  1  0  0  0  0
 13 42  1  6  0  0  0
 13 12  1  0  0  0  0
 14 43  1  6  0  0  0
 14 13  1  0  0  0  0
 14 10  1  0  0  0  0
 15 14  1  0  0  0  0
 16 15  2  0  0  0  0
 17 18  1  0  0  0  0
 17 15  1  0  0  0  0
 18 13  1  0  0  0  0
 19 18  2  0  0  0  0
 20 21  1  0  0  0  0
 20 17  1  0  0  0  0
 20 44  1  0  0  0  0
 21 46  1  0  0  0  0
 22 21  1  0  0  0  0
 22 23  1  0  0  0  0
 22 48  1  0  0  0  0
 23 24  1  0  0  0  0
 24 50  1  0  0  0  0
 24 52  1  0  0  0  0
 24 51  1  0  0  0  0
 25 26  1  0  0  0  0
 26 31  1  0  0  0  0
 26 27  2  0  0  0  0
 27 53  1  0  0  0  0
 28 27  1  0  0  0  0
 28 54  1  0  0  0  0
 29 28  2  0  0  0  0
 30 25  2  0  0  0  0
 30 29  1  0  0  0  0
 31 57  1  0  0  0  0
 32 31  1  0  0  0  0
 33 32  2  0  0  0  0
 34  3  1  0  0  0  0
 35  4  1  0  0  0  0
 45 20  1  0  0  0  0
 47 21  1  0  0  0  0
 49 22  1  0  0  0  0
 55 29  1  0  0  0  0
 56 30  1  0  0  0  0
M  END
>  <Pose>
1

>  <Score>
-5.27

$$$$
