
 OpenBabel03212208273D

 48 51  0  0  1  0  0  0  0  0999 V2000
   84.0840   95.1820  -45.8620 Cl  0  0  0  0  0  0  0  0  0  0  0  0
   85.0410   96.6090  -45.5290 C   0  0  0  0  0  0  0  0  0  0  0  0
   86.2680   96.8020  -46.1550 C   0  0  0  0  0  0  0  0  0  0  0  0
   87.0120   97.9300  -45.8850 C   0  0  0  0  0  0  0  0  0  0  0  0
   86.5850   98.8960  -44.9990 C   0  0  0  0  0  0  0  0  0  0  0  0
   85.3710   98.7120  -44.3750 C   0  0  0  0  0  0  0  0  0  0  0  0
   84.6260   97.5860  -44.6450 C   0  0  0  0  0  0  0  0  0  0  0  0
   87.3550  100.1120  -44.6900 C   0  0  0  0  0  0  0  0  0  0  0  0
   87.9940  100.0210  -43.3380 C   0  0  0  0  0  0  0  0  0  0  0  0
   87.2010   99.9440  -42.3360 O   0  0  0  0  0  0  0  0  0  0  0  0
   89.3870  100.0190  -43.1820 N   0  0  0  0  0  0  0  0  0  0  0  0
   90.2190  101.0240  -43.7640 C   0  0  0  0  0  0  0  0  0  0  0  0
   91.6240  100.5760  -44.0520 C   0  0  0  0  0  0  0  0  0  0  0  0
   91.6670   99.1040  -44.2200 C   0  0  2  0  0  0  0  0  0  0  0  0
   90.8910   98.2790  -43.4270 C   0  0  0  0  0  0  0  0  0  0  0  0
   90.9270   96.9490  -43.5670 N   0  0  0  0  0  0  0  0  0  0  0  0
   91.7090   96.3310  -44.4770 C   0  0  2  0  0  0  0  0  0  0  0  0
   92.4710   97.1360  -45.2570 N   0  0  0  0  0  0  0  0  0  0  0  0
   92.4700   98.4760  -45.1540 C   0  0  0  0  0  0  0  0  0  0  0  0
   93.2630   99.2710  -45.9690 O   0  0  0  0  0  0  0  0  0  0  0  0
   91.7080   94.9300  -44.5850 N   0  0  0  0  0  0  0  0  0  0  0  0
   91.0690   94.2820  -45.6920 C   0  0  0  0  0  0  0  0  0  0  0  0
   91.7260   92.9010  -45.8180 C   0  0  0  0  0  0  0  0  0  0  0  0
   91.5080   92.1420  -44.6950 O   0  0  0  0  0  0  0  0  0  0  0  0
   91.7390   92.7600  -43.4960 C   0  0  0  0  0  0  0  0  0  0  0  0
   92.3490   94.1320  -43.5830 C   0  0  0  0  0  0  0  0  0  0  0  0
   90.0130   98.9770  -42.4160 C   0  0  0  0  0  0  0  0  0  0  0  0
   86.6080   96.0510  -46.8480 H   0  0  0  0  0  0  0  0  0  0  0  0
   87.9720   98.0900  -46.3690 H   0  0  0  0  0  0  0  0  0  0  0  0
   84.9760   99.4490  -43.6580 H   0  0  0  0  0  0  0  0  0  0  0  0
   83.6550   97.4300  -44.1510 H   0  0  0  0  0  0  0  0  0  0  0  0
   86.6510  100.9800  -44.7480 H   0  0  0  0  0  0  0  0  0  0  0  0
   88.1100  100.2420  -45.4950 H   0  0  0  0  0  0  0  0  0  0  0  0
   89.7460  101.5320  -44.6350 H   0  0  0  0  0  0  0  0  0  0  0  0
   90.3320  101.8590  -43.0010 H   0  0  0  0  0  0  0  0  0  0  0  0
   92.3390  100.8590  -43.2230 H   0  0  0  0  0  0  0  0  0  0  0  0
   92.0510  101.0760  -44.9540 H   0  0  0  0  0  0  0  0  0  0  0  0
   94.0120   99.8580  -45.5930 H   0  0  0  0  0  0  0  0  0  0  0  0
   91.2660   94.7900  -46.6640 H   0  0  0  0  0  0  0  0  0  0  0  0
   89.9640   94.1740  -45.5700 H   0  0  0  0  0  0  0  0  0  0  0  0
   92.8160   93.0930  -45.9050 H   0  0  0  0  0  0  0  0  0  0  0  0
   91.3870   92.3790  -46.7130 H   0  0  0  0  0  0  0  0  0  0  0  0
   90.8040   92.8240  -42.8950 H   0  0  0  0  0  0  0  0  0  0  0  0
   92.4610   92.1250  -42.9150 H   0  0  0  0  0  0  0  0  0  0  0  0
   93.4580   94.0420  -43.7560 H   0  0  0  0  0  0  0  0  0  0  0  0
   92.1940   94.6100  -42.5910 H   0  0  0  0  0  0  0  0  0  0  0  0
   89.2630   98.2740  -42.0090 H   0  0  0  0  0  0  0  0  0  0  0  0
   90.6360   99.3700  -41.5830 H   0  0  0  0  0  0  0  0  0  0  0  0
  1  2  1  0  0  0  0
  2  7  1  0  0  0  0
  3  4  1  0  0  0  0
  3  2  2  0  0  0  0
  4  5  2  0  0  0  0
  5  8  1  0  0  0  0
  5  6  1  0  0  0  0
  6 30  1  0  0  0  0
  7  6  2  0  0  0  0
  7 31  1  0  0  0  0
  8  9  1  0  0  0  0
  9 11  1  0  0  0  0
  9 10  2  0  0  0  0
 11 27  1  0  0  0  0
 12 11  1  0  0  0  0
 12 35  1  0  0  0  0
 13 12  1  0  0  0  0
 13 36  1  0  0  0  0
 14 19  1  1  0  0  0
 14 13  1  0  0  0  0
 14 15  1  0  0  0  0
 15 27  1  0  0  0  0
 16 15  2  0  0  0  0
 17 21  1  6  0  0  0
 17 16  1  0  0  0  0
 18 19  2  0  0  0  0
 18 17  1  0  0  0  0
 20 38  1  0  0  0  0
 20 19  1  0  0  0  0
 21 26  1  0  0  0  0
 22 40  1  0  0  0  0
 22 21  1  0  0  0  0
 23 22  1  0  0  0  0
 23 24  1  0  0  0  0
 24 25  1  0  0  0  0
 25 44  1  0  0  0  0
 25 43  1  0  0  0  0
 26 25  1  0  0  0  0
 26 46  1  0  0  0  0
 27 47  1  0  0  0  0
 27 48  1  0  0  0  0
 28  3  1  0  0  0  0
 29  4  1  0  0  0  0
 32  8  1  0  0  0  0
 33  8  1  0  0  0  0
 34 12  1  0  0  0  0
 37 13  1  0  0  0  0
 39 22  1  0  0  0  0
 41 23  1  0  0  0  0
 42 23  1  0  0  0  0
 45 26  1  0  0  0  0
M  END
>  <Pose>
1

>  <Score>
-5.08

$$$$
