
 OpenBabel03212208273D

 52 55  0  0  0  0  0  0  0  0999 V2000
   92.6180   92.6150  -42.4070 Cl  0  0  0  0  0  0  0  0  0  0  0  0
   92.0760   94.1030  -43.1200 C   0  0  0  0  0  0  0  0  0  0  0  0
   91.7590   95.2030  -42.3230 C   0  0  0  0  0  0  0  0  0  0  0  0
   91.3280   96.3850  -42.8980 C   0  0  0  0  0  0  0  0  0  0  0  0
   91.2000   96.5050  -44.2790 C   0  0  0  0  0  0  0  0  0  0  0  0
   91.5100   95.4290  -45.0640 C   0  0  0  0  0  0  0  0  0  0  0  0
   91.9450   94.2390  -44.4830 C   0  0  0  0  0  0  0  0  0  0  0  0
   90.7310   97.7930  -44.8560 C   0  0  0  0  0  0  0  0  0  0  0  0
   91.3980   98.9450  -44.2190 C   0  0  0  0  0  0  0  0  0  0  0  0
   92.6540   98.9130  -44.1300 O   0  0  0  0  0  0  0  0  0  0  0  0
   90.7160  100.0630  -43.7130 N   0  0  0  0  0  0  0  0  0  0  0  0
   89.8440   99.9510  -42.5300 C   0  0  0  0  0  0  0  0  0  0  0  0
   90.0140  101.2120  -41.6970 C   0  0  0  0  0  0  0  0  0  0  0  0
   91.3470  101.7130  -41.9680 N   0  0  0  0  0  0  0  0  0  0  0  0
   91.5300  102.3160  -43.2770 C   0  0  0  0  0  0  0  0  0  0  0  0
   90.7950  101.4040  -44.2750 C   0  0  0  0  0  0  0  0  0  0  0  0
   92.3990  101.6050  -41.0220 C   0  0  0  0  0  0  0  0  0  0  0  0
   93.3790  100.6430  -41.1820 C   0  0  0  0  0  0  0  0  0  0  0  0
   94.3720  100.5520  -40.2510 N   0  0  0  0  0  0  0  0  0  0  0  0
   94.4430  101.3430  -39.1970 N   0  0  0  0  0  0  0  0  0  0  0  0
   93.5070  102.3170  -38.9770 C   0  0  0  0  0  0  0  0  0  0  0  0
   92.5180  102.4040  -39.9090 C   0  0  0  0  0  0  0  0  0  0  0  0
   93.6410  103.1270  -37.8270 N   0  0  0  0  0  0  0  0  0  0  0  0
   94.9150  103.2430  -37.1410 C   0  0  0  0  0  0  0  0  0  0  0  0
   94.7190  103.1340  -35.6280 C   0  0  0  0  0  0  0  0  0  0  0  0
   93.6800  103.9310  -35.1910 O   0  0  0  0  0  0  0  0  0  0  0  0
   92.5110  103.4740  -35.7800 C   0  0  0  0  0  0  0  0  0  0  0  0
   92.5440  103.8720  -37.2660 C   0  0  0  0  0  0  0  0  0  0  0  0
   91.8570   95.1080  -41.2630 H   0  0  0  0  0  0  0  0  0  0  0  0
   91.0710   97.2620  -42.3060 H   0  0  0  0  0  0  0  0  0  0  0  0
   91.4270   95.4720  -46.1540 H   0  0  0  0  0  0  0  0  0  0  0  0
   92.1800   93.4090  -45.1270 H   0  0  0  0  0  0  0  0  0  0  0  0
   89.6260   97.8430  -44.6320 H   0  0  0  0  0  0  0  0  0  0  0  0
   90.8640   97.8000  -45.9560 H   0  0  0  0  0  0  0  0  0  0  0  0
   90.1770   99.0480  -41.9970 H   0  0  0  0  0  0  0  0  0  0  0  0
   88.7910   99.7940  -42.8420 H   0  0  0  0  0  0  0  0  0  0  0  0
   89.8290  101.0500  -40.6260 H   0  0  0  0  0  0  0  0  0  0  0  0
   89.2920  101.9820  -42.0480 H   0  0  0  0  0  0  0  0  0  0  0  0
   92.5700  102.4400  -43.5810 H   0  0  0  0  0  0  0  0  0  0  0  0
   90.9770  103.2770  -43.2680 H   0  0  0  0  0  0  0  0  0  0  0  0
   91.2370  101.4440  -45.2680 H   0  0  0  0  0  0  0  0  0  0  0  0
   89.7380  101.7490  -44.3750 H   0  0  0  0  0  0  0  0  0  0  0  0
   93.4110   99.9600  -41.9950 H   0  0  0  0  0  0  0  0  0  0  0  0
   91.7560  103.1520  -39.7780 H   0  0  0  0  0  0  0  0  0  0  0  0
   95.6310  102.4470  -37.4330 H   0  0  0  0  0  0  0  0  0  0  0  0
   95.3210  104.2550  -37.3210 H   0  0  0  0  0  0  0  0  0  0  0  0
   95.6520  103.4540  -35.1470 H   0  0  0  0  0  0  0  0  0  0  0  0
   94.5400  102.0890  -35.3220 H   0  0  0  0  0  0  0  0  0  0  0  0
   91.6030  103.8350  -35.2920 H   0  0  0  0  0  0  0  0  0  0  0  0
   92.5560  102.3490  -35.7910 H   0  0  0  0  0  0  0  0  0  0  0  0
   91.5710  103.7130  -37.7140 H   0  0  0  0  0  0  0  0  0  0  0  0
   92.8400  104.9570  -37.2890 H   0  0  0  0  0  0  0  0  0  0  0  0
  2  1  1  0  0  0  0
  2  3  1  0  0  0  0
  3 29  1  0  0  0  0
  4  3  2  0  0  0  0
  4 30  1  0  0  0  0
  5  4  1  0  0  0  0
  6  7  1  0  0  0  0
  6  5  2  0  0  0  0
  7  2  2  0  0  0  0
  8 33  1  0  0  0  0
  8  5  1  0  0  0  0
  8  9  1  0  0  0  0
  9 10  2  0  0  0  0
  9 11  1  0  0  0  0
 11 12  1  0  0  0  0
 12 35  1  0  0  0  0
 12 13  1  0  0  0  0
 13 37  1  0  0  0  0
 14 13  1  0  0  0  0
 14 17  1  0  0  0  0
 15 40  1  0  0  0  0
 15 14  1  0  0  0  0
 16 11  1  0  0  0  0
 16 15  1  0  0  0  0
 17 22  1  0  0  0  0
 18 17  2  0  0  0  0
 18 19  1  0  0  0  0
 19 20  2  0  0  0  0
 20 21  1  0  0  0  0
 21 23  1  0  0  0  0
 22 44  1  0  0  0  0
 22 21  2  0  0  0  0
 23 28  1  0  0  0  0
 23 24  1  0  0  0  0
 24 25  1  0  0  0  0
 25 48  1  0  0  0  0
 25 26  1  0  0  0  0
 25 47  1  0  0  0  0
 27 49  1  0  0  0  0
 27 26  1  0  0  0  0
 28 27  1  0  0  0  0
 31  6  1  0  0  0  0
 32  7  1  0  0  0  0
 34  8  1  0  0  0  0
 36 12  1  0  0  0  0
 38 13  1  0  0  0  0
 39 15  1  0  0  0  0
 41 16  1  0  0  0  0
 42 16  1  0  0  0  0
 43 18  1  0  0  0  0
 45 24  1  0  0  0  0
 46 24  1  0  0  0  0
 50 27  1  0  0  0  0
 51 28  1  0  0  0  0
 52 28  1  0  0  0  0
M  END
>  <Pose>
1

>  <Score>
-4.37

$$$$
