
 OpenBabel03212208273D

 37 40  0  0  0  0  0  0  0  0999 V2000
   92.6640   92.7390  -43.6960 F   0  0  0  0  0  0  0  0  0  0  0  0
   91.8870   93.2750  -44.6690 C   0  0  0  0  0  0  0  0  0  0  0  0
   91.5990   94.6110  -44.7150 N   0  0  0  0  0  0  0  0  0  0  0  0
   90.8170   94.7680  -45.7940 C   0  0  0  0  0  0  0  0  0  0  0  0
   90.6320   93.5780  -46.3870 N   0  0  0  0  0  0  0  0  0  0  0  0
   91.2880   92.6140  -45.7120 C   0  0  0  0  0  0  0  0  0  0  0  0
   91.3320   91.1670  -46.0530 C   0  0  0  0  0  0  0  0  0  0  0  0
   90.7830   90.4670  -45.1150 O   0  0  0  0  0  0  0  0  0  0  0  0
   91.8740   90.6330  -47.1950 N   0  0  0  0  0  0  0  0  0  0  0  0
   92.4130   90.1030  -48.3300 C   0  0  0  0  0  0  0  0  0  0  0  0
   91.7210   90.4760  -49.6170 C   0  0  0  0  0  0  0  0  0  0  0  0
   90.7360   89.7890  -50.2010 N   0  0  0  0  0  0  0  0  0  0  0  0
   90.3930   90.4340  -51.3030 N   0  0  0  0  0  0  0  0  0  0  0  0
   91.1300   91.5150  -51.4390 N   0  0  0  0  0  0  0  0  0  0  0  0
   91.9510   91.5340  -50.3890 N   0  0  0  0  0  0  0  0  0  0  0  0
   90.2020   88.5830  -49.6510 C   0  0  0  0  0  0  0  0  0  0  0  0
   88.8200   88.4720  -49.5380 C   0  0  0  0  0  0  0  0  0  0  0  0
   88.2370   87.3340  -48.9950 C   0  0  0  0  0  0  0  0  0  0  0  0
   89.0080   86.2790  -48.5520 C   0  0  0  0  0  0  0  0  0  0  0  0
   90.3770   86.3960  -48.6680 C   0  0  0  0  0  0  0  0  0  0  0  0
   90.9610   87.5280  -49.2060 C   0  0  0  0  0  0  0  0  0  0  0  0
   90.3770   96.0400  -46.0730 C   0  0  0  0  0  0  0  0  0  0  0  0
   90.7160   97.1400  -45.2830 C   0  0  0  0  0  0  0  0  0  0  0  0
   91.5160   96.9400  -44.1900 C   0  0  0  0  0  0  0  0  0  0  0  0
   91.9470   95.6440  -43.9290 C   0  0  0  0  0  0  0  0  0  0  0  0
   91.9880   98.2850  -43.1500 Cl  0  0  0  0  0  0  0  0  0  0  0  0
   91.9900   89.4140  -46.5880 H   0  0  0  0  0  0  0  0  0  0  0  0
   92.3780   88.9520  -48.3400 H   0  0  0  0  0  0  0  0  0  0  0  0
   93.5240   90.2760  -48.5130 H   0  0  0  0  0  0  0  0  0  0  0  0
   88.2040   89.2870  -49.8820 H   0  0  0  0  0  0  0  0  0  0  0  0
   87.1650   87.2340  -48.8990 H   0  0  0  0  0  0  0  0  0  0  0  0
   88.5490   85.3780  -48.1180 H   0  0  0  0  0  0  0  0  0  0  0  0
   90.9960   85.5570  -48.3140 H   0  0  0  0  0  0  0  0  0  0  0  0
   92.0400   87.5810  -49.2780 H   0  0  0  0  0  0  0  0  0  0  0  0
   89.7440   96.2460  -46.9240 H   0  0  0  0  0  0  0  0  0  0  0  0
   90.3570   98.1510  -45.5130 H   0  0  0  0  0  0  0  0  0  0  0  0
   92.5770   95.5090  -43.0660 H   0  0  0  0  0  0  0  0  0  0  0  0
  2  1  1  0  0  0  0
  3  2  1  0  0  0  0
  3 25  1  0  0  0  0
  4  3  1  0  0  0  0
  5  4  2  0  0  0  0
  5  6  1  0  0  0  0
  6  2  2  0  0  0  0
  7  6  1  0  0  0  0
  7  8  2  0  0  0  0
  9 27  1  0  0  0  0
  9  7  1  0  0  0  0
 10  9  1  0  0  0  0
 11 10  1  0  0  0  0
 12 16  1  0  0  0  0
 12 11  1  0  0  0  0
 13 12  1  0  0  0  0
 14 13  2  0  0  0  0
 14 15  1  0  0  0  0
 15 11  2  0  0  0  0
 16 17  2  0  0  0  0
 16 21  1  0  0  0  0
 17 18  1  0  0  0  0
 18 31  1  0  0  0  0
 18 19  2  0  0  0  0
 19 32  1  0  0  0  0
 20 19  1  0  0  0  0
 20 33  1  0  0  0  0
 21 20  2  0  0  0  0
 22  4  1  0  0  0  0
 22 23  2  0  0  0  0
 23 24  1  0  0  0  0
 24 25  2  0  0  0  0
 24 26  1  0  0  0  0
 25 37  1  0  0  0  0
 28 10  1  0  0  0  0
 29 10  1  0  0  0  0
 30 17  1  0  0  0  0
 34 21  1  0  0  0  0
 35 22  1  0  0  0  0
 36 23  1  0  0  0  0
M  END
>  <Pose>
1

>  <Score>
-6.35

$$$$
