
 OpenBabel03212208273D

 33 36  0  0  1  0  0  0  0  0999 V2000
   91.9310   92.4820  -45.4120 Cl  0  0  0  0  0  0  0  0  0  0  0  0
   91.8100   93.5330  -44.0180 C   0  0  0  0  0  0  0  0  0  0  0  0
   91.6330   94.8940  -44.1510 C   0  0  0  0  0  0  0  0  0  0  0  0
   91.5350   95.7360  -43.0550 C   0  0  0  0  0  0  0  0  0  0  0  0
   91.6230   95.1500  -41.8080 C   0  0  0  0  0  0  0  0  0  0  0  0
   91.8010   93.7800  -41.6720 C   0  0  0  0  0  0  0  0  0  0  0  0
   91.8960   92.9490  -42.7700 C   0  0  0  0  0  0  0  0  0  0  0  0
   91.3540   97.1400  -43.1910 N   0  0  0  0  0  0  0  0  0  0  0  0
   90.5560   97.8460  -44.1590 C   0  0  0  0  0  0  0  0  0  0  0  0
   89.9540   97.3050  -45.1170 O   0  0  0  0  0  0  0  0  0  0  0  0
   90.5580   99.2740  -43.8520 C   0  0  2  0  0  0  0  0  0  0  0  0
   91.3540  100.1260  -44.7840 C   0  0  1  0  0  0  0  0  0  0  0  0
   91.6750  101.2050  -43.9220 O   0  0  0  0  0  0  0  0  0  0  0  0
   92.4020  100.4420  -42.9720 C   0  0  1  0  0  0  0  0  0  0  0  0
   91.3600   99.4360  -42.5510 C   0  0  2  0  0  0  0  0  0  0  0  0
   91.9660   98.1170  -42.3560 C   0  0  0  0  0  0  0  0  0  0  0  0
   92.9020   97.8570  -41.5610 O   0  0  0  0  0  0  0  0  0  0  0  0
   93.3640   99.7530  -43.8560 C   0  0  0  0  0  0  0  0  0  0  0  0
   92.7090   99.5830  -45.0270 C   0  0  0  0  0  0  0  0  0  0  0  0
   90.6330  100.5830  -46.0020 C   0  0  0  0  0  0  0  0  0  0  0  0
   90.7310   99.6100  -46.9890 O   0  0  0  0  0  0  0  0  0  0  0  0
   91.5620   95.3630  -45.1320 H   0  0  0  0  0  0  0  0  0  0  0  0
   91.5480   95.7950  -40.9340 H   0  0  0  0  0  0  0  0  0  0  0  0
   91.8660   93.3330  -40.6840 H   0  0  0  0  0  0  0  0  0  0  0  0
   92.0360   91.8800  -42.6430 H   0  0  0  0  0  0  0  0  0  0  0  0
   89.5540   99.7180  -43.7460 H   0  0  0  0  0  0  0  0  0  0  0  0
   92.8200  101.0350  -42.1780 H   0  0  0  0  0  0  0  0  0  0  0  0
   90.7310   99.7670  -41.7220 H   0  0  0  0  0  0  0  0  0  0  0  0
   94.3660   99.4440  -43.6510 H   0  0  0  0  0  0  0  0  0  0  0  0
   93.1130   99.1430  -45.9280 H   0  0  0  0  0  0  0  0  0  0  0  0
   91.1660  101.4970  -46.3730 H   0  0  0  0  0  0  0  0  0  0  0  0
   89.5910  100.8830  -45.8160 H   0  0  0  0  0  0  0  0  0  0  0  0
   91.6680   99.3260  -47.0970 H   0  0  0  0  0  0  0  0  0  0  0  0
  1  2  1  0  0  0  0
  2  7  1  0  0  0  0
  3  2  2  0  0  0  0
  3  4  1  0  0  0  0
  4  5  2  0  0  0  0
  5  6  1  0  0  0  0
  5 23  1  0  0  0  0
  6 24  1  0  0  0  0
  7 25  1  0  0  0  0
  7  6  2  0  0  0  0
  8  4  1  0  0  0  0
  8 16  1  0  0  0  0
  9 11  1  0  0  0  0
  9  8  1  0  0  0  0
 10  9  2  0  0  0  0
 11 26  1  1  0  0  0
 11 15  1  0  0  0  0
 12 20  1  6  0  0  0
 12 13  1  0  0  0  0
 12 11  1  0  0  0  0
 13 14  1  0  0  0  0
 14 15  1  0  0  0  0
 14 27  1  1  0  0  0
 15 16  1  0  0  0  0
 15 28  1  1  0  0  0
 16 17  2  0  0  0  0
 18 29  1  0  0  0  0
 18 14  1  0  0  0  0
 19 12  1  0  0  0  0
 19 18  2  0  0  0  0
 20 32  1  0  0  0  0
 21 20  1  0  0  0  0
 22  3  1  0  0  0  0
 30 19  1  0  0  0  0
 31 20  1  0  0  0  0
 33 21  1  0  0  0  0
M  END
>  <Pose>
1

>  <Score>
-4.50

$$$$
