
 OpenBabel03212208273D

 41 44  0  0  0  0  0  0  0  0999 V2000
   89.6590  102.0220  -42.8510 Cl  0  0  0  0  0  0  0  0  0  0  0  0
   88.5550  100.7250  -43.2210 C   0  0  0  0  0  0  0  0  0  0  0  0
   87.1870  100.8650  -43.0490 C   0  0  0  0  0  0  0  0  0  0  0  0
   86.2980   99.8450  -43.3360 C   0  0  0  0  0  0  0  0  0  0  0  0
   86.8180   98.6570  -43.8130 C   0  0  0  0  0  0  0  0  0  0  0  0
   88.1850   98.5350  -43.9790 C   0  0  0  0  0  0  0  0  0  0  0  0
   89.0900   99.5430  -43.6970 C   0  0  0  0  0  0  0  0  0  0  0  0
   90.5570   99.3510  -43.9020 C   0  0  0  0  0  0  0  0  0  0  0  0
   91.1260   98.4930  -42.8130 C   0  0  0  0  0  0  0  0  0  0  0  0
   91.2560   99.0270  -41.6560 O   0  0  0  0  0  0  0  0  0  0  0  0
   91.5020   97.1470  -43.0610 N   0  0  0  0  0  0  0  0  0  0  0  0
   91.7770   96.7360  -44.3920 C   0  0  0  0  0  0  0  0  0  0  0  0
   91.0100   95.4330  -44.6550 C   0  0  0  0  0  0  0  0  0  0  0  0
   91.6520   94.4700  -43.6800 C   0  0  0  0  0  0  0  0  0  0  0  0
   91.9350   94.8930  -42.3980 C   0  0  0  0  0  0  0  0  0  0  0  0
   92.5240   94.0120  -41.5390 N   0  0  0  0  0  0  0  0  0  0  0  0
   92.8380   92.7560  -41.8910 C   0  0  0  0  0  0  0  0  0  0  0  0
   92.5560   92.3600  -43.1450 N   0  0  0  0  0  0  0  0  0  0  0  0
   91.9650   93.1940  -44.0520 C   0  0  0  0  0  0  0  0  0  0  0  0
   91.6740   92.7890  -45.3420 O   0  0  0  0  0  0  0  0  0  0  0  0
   91.6000   96.2590  -41.9510 C   0  0  0  0  0  0  0  0  0  0  0  0
   85.9310   97.6410  -44.1010 O   0  0  0  0  0  0  0  0  0  0  0  0
   84.5450   97.8130  -44.3170 C   0  0  0  0  0  0  0  0  0  0  0  0
   84.0020   99.1090  -43.8250 C   0  0  0  0  0  0  0  0  0  0  0  0
   84.9370   99.9330  -43.1830 O   0  0  0  0  0  0  0  0  0  0  0  0
   86.7590  101.7800  -42.6790 H   0  0  0  0  0  0  0  0  0  0  0  0
   88.5850   97.5950  -44.3550 H   0  0  0  0  0  0  0  0  0  0  0  0
   91.0130  100.3640  -43.8760 H   0  0  0  0  0  0  0  0  0  0  0  0
   90.7930   98.9240  -44.8780 H   0  0  0  0  0  0  0  0  0  0  0  0
   92.8700   96.5020  -44.5490 H   0  0  0  0  0  0  0  0  0  0  0  0
   91.5360   97.4930  -45.1630 H   0  0  0  0  0  0  0  0  0  0  0  0
   91.1150   95.0910  -45.6850 H   0  0  0  0  0  0  0  0  0  0  0  0
   89.9540   95.6280  -44.3880 H   0  0  0  0  0  0  0  0  0  0  0  0
   93.3090   92.0640  -41.1930 H   0  0  0  0  0  0  0  0  0  0  0  0
   90.7850   92.3330  -45.5080 H   0  0  0  0  0  0  0  0  0  0  0  0
   90.6540   96.2650  -41.3410 H   0  0  0  0  0  0  0  0  0  0  0  0
   92.3980   96.5550  -41.2270 H   0  0  0  0  0  0  0  0  0  0  0  0
   84.4050   97.7980  -45.4380 H   0  0  0  0  0  0  0  0  0  0  0  0
   83.9880   96.9260  -43.9570 H   0  0  0  0  0  0  0  0  0  0  0  0
   83.5400   99.7220  -44.6390 H   0  0  0  0  0  0  0  0  0  0  0  0
   83.1530   98.8790  -43.1220 H   0  0  0  0  0  0  0  0  0  0  0  0
  2  3  1  0  0  0  0
  2  1  1  0  0  0  0
  3 26  1  0  0  0  0
  4 25  1  0  0  0  0
  4  3  2  0  0  0  0
  5  4  1  0  0  0  0
  6  5  2  0  0  0  0
  6  7  1  0  0  0  0
  7  2  2  0  0  0  0
  8 28  1  0  0  0  0
  8  7  1  0  0  0  0
  8  9  1  0  0  0  0
  9 10  2  0  0  0  0
 11  9  1  0  0  0  0
 11 21  1  0  0  0  0
 12 11  1  0  0  0  0
 13 12  1  0  0  0  0
 13 33  1  0  0  0  0
 13 14  1  0  0  0  0
 14 15  2  0  0  0  0
 15 21  1  0  0  0  0
 15 16  1  0  0  0  0
 17 16  2  0  0  0  0
 17 34  1  0  0  0  0
 18 17  1  0  0  0  0
 19 14  1  0  0  0  0
 19 18  2  0  0  0  0
 20 19  1  0  0  0  0
 21 36  1  0  0  0  0
 21 37  1  0  0  0  0
 22  5  1  0  0  0  0
 23 22  1  0  0  0  0
 23 39  1  0  0  0  0
 23 24  1  0  0  0  0
 24 25  1  0  0  0  0
 24 41  1  0  0  0  0
 27  6  1  0  0  0  0
 29  8  1  0  0  0  0
 30 12  1  0  0  0  0
 31 12  1  0  0  0  0
 32 13  1  0  0  0  0
 35 20  1  0  0  0  0
 38 23  1  0  0  0  0
 40 24  1  0  0  0  0
M  END
>  <Pose>
1

>  <Score>
-4.80

$$$$
