
 OpenBabel03212208273D

 57 60  0  0  0  0  0  0  0  0999 V2000
   89.7720  101.1050  -51.1300 Cl  0  0  0  0  0  0  0  0  0  0  0  0
   89.8140  100.7310  -49.4240 C   0  0  0  0  0  0  0  0  0  0  0  0
   89.4410   99.4890  -48.9610 C   0  0  0  0  0  0  0  0  0  0  0  0
   89.4800   99.2140  -47.6190 C   0  0  0  0  0  0  0  0  0  0  0  0
   89.9010  100.2030  -46.7220 C   0  0  0  0  0  0  0  0  0  0  0  0
   90.2770  101.4560  -47.1790 C   0  0  0  0  0  0  0  0  0  0  0  0
   90.2240  101.6910  -48.5250 C   0  0  0  0  0  0  0  0  0  0  0  0
   89.9950  100.0840  -45.3440 O   0  0  0  0  0  0  0  0  0  0  0  0
   90.1430   98.9060  -44.5870 C   0  0  0  0  0  0  0  0  0  0  0  0
   88.9540   98.0070  -44.6930 C   0  0  0  0  0  0  0  0  0  0  0  0
   88.3810   97.8990  -46.0010 N   0  0  0  0  0  0  0  0  0  0  0  0
   89.0500   97.8350  -47.2740 C   0  0  0  0  0  0  0  0  0  0  0  0
   86.9480   97.8470  -46.1010 C   0  0  0  0  0  0  0  0  0  0  0  0
   86.4620   96.9250  -46.8000 O   0  0  0  0  0  0  0  0  0  0  0  0
   86.0950   98.8210  -45.4220 C   0  0  0  0  0  0  0  0  0  0  0  0
   85.8270  100.0420  -46.0900 N   0  0  0  0  0  0  0  0  0  0  0  0
   86.6700  101.1320  -45.5940 C   0  0  0  0  0  0  0  0  0  0  0  0
   86.3830  101.3240  -44.1520 C   0  0  0  0  0  0  0  0  0  0  0  0
   84.9450  101.3700  -43.7580 C   0  0  0  0  0  0  0  0  0  0  0  0
   83.9540  100.9290  -44.7610 C   0  0  0  0  0  0  0  0  0  0  0  0
   84.4550  100.4860  -46.0830 C   0  0  0  0  0  0  0  0  0  0  0  0
   84.7150  100.7020  -42.4540 C   0  0  0  0  0  0  0  0  0  0  0  0
   83.9470   99.7200  -42.3970 O   0  0  0  0  0  0  0  0  0  0  0  0
   85.3600  101.1780  -41.2920 N   0  0  0  0  0  0  0  0  0  0  0  0
   91.4390   98.2120  -44.9770 C   0  0  0  0  0  0  0  0  0  0  0  0
   92.5740   98.6790  -44.0840 C   0  0  0  0  0  0  0  0  0  0  0  0
   92.4140   98.2790  -42.7710 O   0  0  0  0  0  0  0  0  0  0  0  0
   91.0680   98.1330  -42.4580 C   0  0  0  0  0  0  0  0  0  0  0  0
   90.2970   99.2660  -43.1070 C   0  0  0  0  0  0  0  0  0  0  0  0
   89.1150   98.7180  -49.6430 H   0  0  0  0  0  0  0  0  0  0  0  0
   90.5930  102.1880  -46.4520 H   0  0  0  0  0  0  0  0  0  0  0  0
   90.5110  102.6610  -48.9230 H   0  0  0  0  0  0  0  0  0  0  0  0
   89.2540   96.9860  -44.3450 H   0  0  0  0  0  0  0  0  0  0  0  0
   88.1990   98.3730  -43.9480 H   0  0  0  0  0  0  0  0  0  0  0  0
   89.8930   97.1170  -47.2950 H   0  0  0  0  0  0  0  0  0  0  0  0
   88.3510   97.5040  -48.0800 H   0  0  0  0  0  0  0  0  0  0  0  0
   86.6280   99.0920  -44.4620 H   0  0  0  0  0  0  0  0  0  0  0  0
   85.1780   98.2810  -45.0640 H   0  0  0  0  0  0  0  0  0  0  0  0
   87.7190  100.8720  -45.7320 H   0  0  0  0  0  0  0  0  0  0  0  0
   86.3570  102.0470  -46.1470 H   0  0  0  0  0  0  0  0  0  0  0  0
   86.8690  100.5120  -43.5390 H   0  0  0  0  0  0  0  0  0  0  0  0
   86.9570  102.2460  -43.8340 H   0  0  0  0  0  0  0  0  0  0  0  0
   84.7370  102.4670  -43.5410 H   0  0  0  0  0  0  0  0  0  0  0  0
   83.1260  101.6930  -44.8760 H   0  0  0  0  0  0  0  0  0  0  0  0
   83.3920  100.0450  -44.3270 H   0  0  0  0  0  0  0  0  0  0  0  0
   83.8380   99.7620  -46.6240 H   0  0  0  0  0  0  0  0  0  0  0  0
   84.4470  101.4040  -46.7480 H   0  0  0  0  0  0  0  0  0  0  0  0
   85.2790  100.5560  -40.4350 H   0  0  0  0  0  0  0  0  0  0  0  0
   85.8890  102.0540  -41.2020 H   0  0  0  0  0  0  0  0  0  0  0  0
   91.7210   98.5260  -46.0120 H   0  0  0  0  0  0  0  0  0  0  0  0
   91.3670   97.1160  -44.8780 H   0  0  0  0  0  0  0  0  0  0  0  0
   93.5100   98.2160  -44.4650 H   0  0  0  0  0  0  0  0  0  0  0  0
   92.6680   99.7790  -44.1250 H   0  0  0  0  0  0  0  0  0  0  0  0
   90.7510   97.1440  -42.8640 H   0  0  0  0  0  0  0  0  0  0  0  0
   90.9140   98.0950  -41.3640 H   0  0  0  0  0  0  0  0  0  0  0  0
   90.9390  100.1690  -43.0260 H   0  0  0  0  0  0  0  0  0  0  0  0
   89.3230   99.4480  -42.6330 H   0  0  0  0  0  0  0  0  0  0  0  0
  1  2  1  0  0  0  0
  2  3  2  0  0  0  0
  2  7  1  0  0  0  0
  3  4  1  0  0  0  0
  4 12  1  0  0  0  0
  4  5  2  0  0  0  0
  5  8  1  0  0  0  0
  6  5  1  0  0  0  0
  6 31  1  0  0  0  0
  7  6  2  0  0  0  0
  8  9  1  0  0  0  0
  9 29  1  0  0  0  0
 10  9  1  0  0  0  0
 10 33  1  0  0  0  0
 10 34  1  0  0  0  0
 11 10  1  0  0  0  0
 12 11  1  0  0  0  0
 13 11  1  0  0  0  0
 13 15  1  0  0  0  0
 14 13  2  0  0  0  0
 15 38  1  0  0  0  0
 15 37  1  0  0  0  0
 16 21  1  0  0  0  0
 16 17  1  0  0  0  0
 16 15  1  0  0  0  0
 17 18  1  0  0  0  0
 18 42  1  0  0  0  0
 18 19  1  0  0  0  0
 18 41  1  0  0  0  0
 19 43  1  0  0  0  0
 19 22  1  0  0  0  0
 20 45  1  0  0  0  0
 20 19  1  0  0  0  0
 21 20  1  0  0  0  0
 22 23  2  0  0  0  0
 22 24  1  0  0  0  0
 24 49  1  0  0  0  0
 24 48  1  0  0  0  0
 25 51  1  0  0  0  0
 25  9  1  0  0  0  0
 25 26  1  0  0  0  0
 26 27  1  0  0  0  0
 27 28  1  0  0  0  0
 28 55  1  0  0  0  0
 29 56  1  0  0  0  0
 29 57  1  0  0  0  0
 29 28  1  0  0  0  0
 30  3  1  0  0  0  0
 32  7  1  0  0  0  0
 35 12  1  0  0  0  0
 36 12  1  0  0  0  0
 39 17  1  0  0  0  0
 40 17  1  0  0  0  0
 44 20  1  0  0  0  0
 46 21  1  0  0  0  0
 47 21  1  0  0  0  0
 50 25  1  0  0  0  0
 52 26  1  0  0  0  0
 53 26  1  0  0  0  0
 54 28  1  0  0  0  0
M  END
>  <Pose>
1

>  <Score>
-3.98

$$$$
