
 OpenBabel03212208273D

 43 46  0  0  0  0  0  0  0  0999 V2000
   91.5340   96.3560  -44.8580 S   0  0  0  0  0  0  0  0  0  0  0  0
   91.5840   96.3140  -43.3790 O   0  0  0  0  0  0  0  0  0  0  0  0
   92.6910   97.1730  -45.3870 O   0  0  0  0  0  0  0  0  0  0  0  0
   91.6210   94.7990  -45.5190 N   0  0  0  0  0  0  0  0  0  0  0  0
   90.4170   94.3480  -46.1460 C   0  0  0  0  0  0  0  0  0  0  0  0
   90.6120   93.1260  -47.0030 C   0  0  0  0  0  0  0  0  0  0  0  0
   91.5820   92.2110  -46.4450 N   0  0  0  0  0  0  0  0  0  0  0  0
   92.2540   92.4330  -45.1920 C   0  0  0  0  0  0  0  0  0  0  0  0
   92.2990   93.8380  -44.7250 C   0  0  0  0  0  0  0  0  0  0  0  0
   91.8840   91.0280  -47.1720 C   0  0  0  0  0  0  0  0  0  0  0  0
   93.0290   90.4720  -47.0810 O   0  0  0  0  0  0  0  0  0  0  0  0
   90.8910   90.4110  -48.0500 C   0  0  0  0  0  0  0  0  0  0  0  0
   90.0890   89.3570  -47.6610 C   0  0  0  0  0  0  0  0  0  0  0  0
   89.1940   88.8400  -48.5240 N   0  0  0  0  0  0  0  0  0  0  0  0
   89.0250   89.2960  -49.7780 C   0  0  0  0  0  0  0  0  0  0  0  0
   89.7990   90.3240  -50.1720 N   0  0  0  0  0  0  0  0  0  0  0  0
   89.6440   90.7960  -51.4260 C   0  0  0  0  0  0  0  0  0  0  0  0
   88.7260   90.2600  -52.3050 C   0  0  0  0  0  0  0  0  0  0  0  0
   87.9160   89.2050  -51.9300 C   0  0  0  0  0  0  0  0  0  0  0  0
   88.0910   88.7370  -50.6400 C   0  0  0  0  0  0  0  0  0  0  0  0
   90.7060   90.8690  -49.3390 C   0  0  0  0  0  0  0  0  0  0  0  0
   91.4280   91.8280  -49.7070 O   0  0  0  0  0  0  0  0  0  0  0  0
   90.0230   97.1140  -45.3890 C   0  0  0  0  0  0  0  0  0  0  0  0
   89.2320   97.0170  -46.8960 S   0  0  0  0  0  0  0  0  0  0  0  0
   87.8900   98.0130  -46.5620 C   0  0  0  0  0  0  0  0  0  0  0  0
   88.1030   98.3960  -45.2660 C   0  0  0  0  0  0  0  0  0  0  0  0
   89.2010   97.9350  -44.6590 C   0  0  0  0  0  0  0  0  0  0  0  0
   86.5270   98.4680  -47.6060 Cl  0  0  0  0  0  0  0  0  0  0  0  0
   89.6870   94.0850  -45.3540 H   0  0  0  0  0  0  0  0  0  0  0  0
   89.9990   95.1910  -46.7320 H   0  0  0  0  0  0  0  0  0  0  0  0
   89.6650   92.5930  -47.2070 H   0  0  0  0  0  0  0  0  0  0  0  0
   91.0090   93.4760  -47.9780 H   0  0  0  0  0  0  0  0  0  0  0  0
   93.3180   92.0850  -45.3480 H   0  0  0  0  0  0  0  0  0  0  0  0
   91.8560   91.7350  -44.4110 H   0  0  0  0  0  0  0  0  0  0  0  0
   91.8360   93.8720  -43.6950 H   0  0  0  0  0  0  0  0  0  0  0  0
   93.3560   94.2080  -44.5720 H   0  0  0  0  0  0  0  0  0  0  0  0
   90.2150   88.9800  -46.6540 H   0  0  0  0  0  0  0  0  0  0  0  0
   90.2730   91.6260  -51.7380 H   0  0  0  0  0  0  0  0  0  0  0  0
   88.6030   90.6430  -53.3170 H   0  0  0  0  0  0  0  0  0  0  0  0
   87.1850   88.7610  -52.5930 H   0  0  0  0  0  0  0  0  0  0  0  0
   87.4670   87.9110  -50.3250 H   0  0  0  0  0  0  0  0  0  0  0  0
   87.3740   99.0650  -44.7640 H   0  0  0  0  0  0  0  0  0  0  0  0
   89.4840   98.1740  -43.6080 H   0  0  0  0  0  0  0  0  0  0  0  0
  1  2  2  0  0  0  0
  3  1  2  0  0  0  0
  4  1  1  0  0  0  0
  4  9  1  0  0  0  0
  5  4  1  0  0  0  0
  5 29  1  0  0  0  0
  6  7  1  0  0  0  0
  6  5  1  0  0  0  0
  7  8  1  0  0  0  0
  8  9  1  0  0  0  0
  8 34  1  0  0  0  0
  9 36  1  0  0  0  0
  9 35  1  0  0  0  0
 10 11  2  0  0  0  0
 10  7  1  0  0  0  0
 12 13  2  0  0  0  0
 12 10  1  0  0  0  0
 13 37  1  0  0  0  0
 14 13  1  0  0  0  0
 15 14  2  0  0  0  0
 16 15  1  0  0  0  0
 16 21  1  0  0  0  0
 17 16  1  0  0  0  0
 18 19  1  0  0  0  0
 18 17  2  0  0  0  0
 19 20  2  0  0  0  0
 20 41  1  0  0  0  0
 20 15  1  0  0  0  0
 21 12  1  0  0  0  0
 22 21  2  0  0  0  0
 23  1  1  0  0  0  0
 23 27  2  0  0  0  0
 24 25  1  0  0  0  0
 24 23  1  0  0  0  0
 25 26  2  0  0  0  0
 26 42  1  0  0  0  0
 26 27  1  0  0  0  0
 27 43  1  0  0  0  0
 28 25  1  0  0  0  0
 30  5  1  0  0  0  0
 31  6  1  0  0  0  0
 32  6  1  0  0  0  0
 33  8  1  0  0  0  0
 38 17  1  0  0  0  0
 39 18  1  0  0  0  0
 40 19  1  0  0  0  0
M  END
>  <Pose>
1

>  <Score>
-4.45

$$$$
