
 OpenBabel03212208273D

 50 53  0  0  1  0  0  0  0  0999 V2000
   92.3750   93.1600  -43.6190 S   0  0  0  0  0  0  0  0  0  0  0  0
   93.7260   93.0400  -42.9310 O   0  0  0  0  0  0  0  0  0  0  0  0
   91.4290   92.3770  -42.7100 O   0  0  0  0  0  0  0  0  0  0  0  0
   92.3910   92.4510  -45.1350 N   0  0  0  0  0  0  0  0  0  0  0  0
   93.3320   92.8980  -46.0650 C   0  0  0  0  0  0  0  0  0  0  0  0
   93.4240   91.9950  -47.3030 C   0  0  0  0  0  0  0  0  0  0  0  0
   92.1350   91.5130  -47.7000 N   0  0  0  0  0  0  0  0  0  0  0  0
   91.2430   91.0270  -46.6700 C   0  0  0  0  0  0  0  0  0  0  0  0
   91.0830   92.1550  -45.6700 C   0  0  0  0  0  0  0  0  0  0  0  0
   91.7590   91.5180  -49.0490 C   0  0  0  0  0  0  0  0  0  0  0  0
   91.5550   92.6050  -49.6470 O   0  0  0  0  0  0  0  0  0  0  0  0
   91.5830   90.2570  -49.8370 C   0  0  0  0  0  0  0  0  0  0  0  0
   90.5050   90.3480  -50.8910 C   0  0  0  0  0  0  0  0  0  0  0  0
   89.5270   89.8260  -49.8400 C   0  0  0  0  0  0  0  0  0  0  0  0
   90.7370   89.2500  -49.0990 C   0  0  0  0  0  0  0  0  0  0  0  0
   91.8700   94.8340  -43.5400 C   0  0  0  0  0  0  0  0  0  0  0  0
   91.5730   95.5080  -44.7420 C   0  0  0  0  0  0  0  0  0  0  0  0
   91.2280   96.8400  -44.7500 C   0  0  0  0  0  0  0  0  0  0  0  0
   91.1530   97.5920  -43.6000 C   0  0  0  0  0  0  0  0  0  0  0  0
   91.4390   96.9400  -42.4260 C   0  0  0  0  0  0  0  0  0  0  0  0
   91.7910   95.5820  -42.3960 C   0  0  0  0  0  0  0  0  0  0  0  0
   92.0660   94.8070  -40.8550 Cl  0  0  0  0  0  0  0  0  0  0  0  0
   90.7950   98.9600  -43.6770 N   0  0  0  0  0  0  0  0  0  0  0  0
   90.5060   99.6020  -44.9130 C   0  0  0  0  0  0  0  0  0  0  0  0
   89.9450  100.7080  -45.0280 O   0  0  0  0  0  0  0  0  0  0  0  0
   90.9180   98.8720  -46.1410 C   0  0  2  0  0  0  0  0  0  0  0  0
   90.9390   97.4840  -45.9540 O   0  0  0  0  0  0  0  0  0  0  0  0
   92.2940   99.3110  -46.5890 C   0  0  0  0  0  0  0  0  0  0  0  0
   94.3490   92.8340  -45.6290 H   0  0  0  0  0  0  0  0  0  0  0  0
   93.1400   93.9200  -46.4180 H   0  0  0  0  0  0  0  0  0  0  0  0
   93.8700   92.5880  -48.1150 H   0  0  0  0  0  0  0  0  0  0  0  0
   94.0420   91.1130  -47.0430 H   0  0  0  0  0  0  0  0  0  0  0  0
   90.2790   90.6760  -47.0660 H   0  0  0  0  0  0  0  0  0  0  0  0
   91.7690   90.1840  -46.1400 H   0  0  0  0  0  0  0  0  0  0  0  0
   90.6820   93.0500  -46.1890 H   0  0  0  0  0  0  0  0  0  0  0  0
   90.4340   91.8450  -44.8480 H   0  0  0  0  0  0  0  0  0  0  0  0
   92.5550   89.8640  -50.2210 H   0  0  0  0  0  0  0  0  0  0  0  0
   90.6310   89.6540  -51.7320 H   0  0  0  0  0  0  0  0  0  0  0  0
   90.2610   91.3920  -51.2190 H   0  0  0  0  0  0  0  0  0  0  0  0
   89.0270   90.6320  -49.2780 H   0  0  0  0  0  0  0  0  0  0  0  0
   88.8170   89.0840  -50.2130 H   0  0  0  0  0  0  0  0  0  0  0  0
   90.9700   88.2000  -49.3790 H   0  0  0  0  0  0  0  0  0  0  0  0
   90.6920   89.3760  -48.0110 H   0  0  0  0  0  0  0  0  0  0  0  0
   91.6290   94.9320  -45.6470 H   0  0  0  0  0  0  0  0  0  0  0  0
   91.3940   97.4860  -41.4990 H   0  0  0  0  0  0  0  0  0  0  0  0
   90.7390   99.5260  -42.7990 H   0  0  0  0  0  0  0  0  0  0  0  0
   90.1950   99.1140  -46.9340 H   0  0  0  0  0  0  0  0  0  0  0  0
   92.5450  100.2730  -46.0590 H   0  0  0  0  0  0  0  0  0  0  0  0
   92.2940   99.4630  -47.6820 H   0  0  0  0  0  0  0  0  0  0  0  0
   93.0470   98.5610  -46.2830 H   0  0  0  0  0  0  0  0  0  0  0  0
  1 16  1  0  0  0  0
  1  2  2  0  0  0  0
  1  3  2  0  0  0  0
  4  1  1  0  0  0  0
  5 29  1  0  0  0  0
  5  4  1  0  0  0  0
  6 32  1  0  0  0  0
  6  5  1  0  0  0  0
  7  6  1  0  0  0  0
  7  8  1  0  0  0  0
  8 34  1  0  0  0  0
  8  9  1  0  0  0  0
  9  4  1  0  0  0  0
  9 36  1  0  0  0  0
 10  7  1  0  0  0  0
 11 10  2  0  0  0  0
 12 15  1  0  0  0  0
 12 10  1  0  0  0  0
 13 14  1  0  0  0  0
 13 12  1  0  0  0  0
 14 40  1  0  0  0  0
 14 15  1  0  0  0  0
 15 43  1  0  0  0  0
 16 21  1  0  0  0  0
 17 16  2  0  0  0  0
 18 17  1  0  0  0  0
 18 19  2  0  0  0  0
 19 20  1  0  0  0  0
 20 21  2  0  0  0  0
 20 45  1  0  0  0  0
 21 22  1  0  0  0  0
 23 19  1  0  0  0  0
 23 46  1  0  0  0  0
 24 23  1  0  0  0  0
 25 24  2  0  0  0  0
 26 47  1  6  0  0  0
 26 27  1  0  0  0  0
 26 24  1  0  0  0  0
 27 18  1  0  0  0  0
 28 50  1  0  0  0  0
 28 26  1  0  0  0  0
 28 48  1  0  0  0  0
 30  5  1  0  0  0  0
 31  6  1  0  0  0  0
 33  8  1  0  0  0  0
 35  9  1  0  0  0  0
 37 12  1  0  0  0  0
 38 13  1  0  0  0  0
 39 13  1  0  0  0  0
 41 14  1  0  0  0  0
 42 15  1  0  0  0  0
 44 17  1  0  0  0  0
 49 28  1  0  0  0  0
M  END
>  <Pose>
1

>  <Score>
-4.84

$$$$
