
 OpenBabel03212208273D

 37 40  0  0  1  0  0  0  0  0999 V2000
   91.3940   97.3330  -43.7230 Cl  0  0  0  0  0  0  0  0  0  0  0  0
   91.6840   95.6130  -43.4760 C   0  0  0  0  0  0  0  0  0  0  0  0
   91.9400   94.7800  -44.5610 C   0  0  0  0  0  0  0  0  0  0  0  0
   92.1630   93.4450  -44.3170 C   0  0  0  0  0  0  0  0  0  0  0  0
   92.1330   92.9370  -43.0080 C   0  0  0  0  0  0  0  0  0  0  0  0
   91.8810   93.7590  -41.9510 C   0  0  0  0  0  0  0  0  0  0  0  0
   91.6590   95.1040  -42.1950 C   0  0  0  0  0  0  0  0  0  0  0  0
   92.4300   92.5170  -45.3610 N   0  0  0  0  0  0  0  0  0  0  0  0
   93.5270   91.6370  -45.5750 C   0  0  0  0  0  0  0  0  0  0  0  0
   94.2980   91.2450  -44.6830 O   0  0  0  0  0  0  0  0  0  0  0  0
   93.5910   91.2790  -47.0030 C   0  0  1  0  0  0  0  0  0  0  0  0
   93.9780   90.0200  -47.3310 O   0  0  0  0  0  0  0  0  0  0  0  0
   93.2010   89.7470  -48.4410 N   0  0  0  0  0  0  0  0  0  0  0  0
   91.9030   90.3050  -48.2230 C   0  0  0  0  0  0  0  0  0  0  0  0
   92.1250   91.2580  -47.3250 C   0  0  0  0  0  0  0  0  0  0  0  0
   91.5320   92.2810  -46.4770 C   0  0  0  0  0  0  0  0  0  0  0  0
   90.4280   92.8320  -46.7180 O   0  0  0  0  0  0  0  0  0  0  0  0
   90.6480   89.9630  -48.8620 C   0  0  0  0  0  0  0  0  0  0  0  0
   89.9040   88.8470  -48.4700 C   0  0  0  0  0  0  0  0  0  0  0  0
   88.8010   88.7520  -49.2270 N   0  0  0  0  0  0  0  0  0  0  0  0
   88.8090   89.7670  -50.0930 N   0  0  0  0  0  0  0  0  0  0  0  0
   89.9220   90.5060  -49.8820 C   0  0  0  0  0  0  0  0  0  0  0  0
   90.3130   91.7150  -50.6500 C   0  0  0  0  0  0  0  0  0  0  0  0
   87.7370   87.7550  -49.1820 C   0  0  0  0  0  0  0  0  0  0  0  0
   91.9680   95.1630  -45.5880 H   0  0  0  0  0  0  0  0  0  0  0  0
   92.3160   91.8710  -42.8590 H   0  0  0  0  0  0  0  0  0  0  0  0
   91.8590   93.3380  -40.9270 H   0  0  0  0  0  0  0  0  0  0  0  0
   91.4510   95.7890  -41.3710 H   0  0  0  0  0  0  0  0  0  0  0  0
   94.1010   92.0800  -47.5820 H   0  0  0  0  0  0  0  0  0  0  0  0
   93.5430   89.2320  -49.2690 H   0  0  0  0  0  0  0  0  0  0  0  0
   90.1560   88.1540  -47.6850 H   0  0  0  0  0  0  0  0  0  0  0  0
   89.8910   92.6040  -50.1720 H   0  0  0  0  0  0  0  0  0  0  0  0
   89.8570   91.6650  -51.6670 H   0  0  0  0  0  0  0  0  0  0  0  0
   91.4030   91.7750  -50.8060 H   0  0  0  0  0  0  0  0  0  0  0  0
   87.6600   87.2180  -50.1520 H   0  0  0  0  0  0  0  0  0  0  0  0
   87.9940   86.9410  -48.4480 H   0  0  0  0  0  0  0  0  0  0  0  0
   86.7510   88.2050  -48.9620 H   0  0  0  0  0  0  0  0  0  0  0  0
  1  2  1  0  0  0  0
  2  7  1  0  0  0  0
  3  4  1  0  0  0  0
  3  2  2  0  0  0  0
  4  5  2  0  0  0  0
  5 26  1  0  0  0  0
  5  6  1  0  0  0  0
  6 27  1  0  0  0  0
  7  6  2  0  0  0  0
  7 28  1  0  0  0  0
  8  4  1  0  0  0  0
  9  8  1  0  0  0  0
  9 10  2  0  0  0  0
 11 29  1  6  0  0  0
 11  9  1  0  0  0  0
 12 11  1  0  0  0  0
 13 14  1  0  0  0  0
 13 12  1  0  0  0  0
 14 15  2  0  0  0  0
 15 11  1  0  0  0  0
 15 16  1  0  0  0  0
 16  8  1  0  0  0  0
 17 16  2  0  0  0  0
 18 19  2  0  0  0  0
 18 14  1  0  0  0  0
 19 31  1  0  0  0  0
 20 24  1  0  0  0  0
 20 19  1  0  0  0  0
 21 22  2  0  0  0  0
 21 20  1  0  0  0  0
 22 18  1  0  0  0  0
 23 32  1  0  0  0  0
 23 22  1  0  0  0  0
 24 37  1  0  0  0  0
 24 36  1  0  0  0  0
 25  3  1  0  0  0  0
 30 13  1  0  0  0  0
 33 23  1  0  0  0  0
 34 23  1  0  0  0  0
 35 24  1  0  0  0  0
M  END
>  <Pose>
1

>  <Score>
-4.81

$$$$
