
 OpenBabel03212208273D

 40 38  0  0  0  0  0  0  0  0999 V2000
   91.3970   91.5160  -47.0510 Cl  0  0  0  0  0  0  0  0  0  0  0  0
   91.5620   92.7050  -45.7710 C   0  0  0  0  0  0  0  0  0  0  0  0
   91.2760   94.0430  -45.9630 C   0  0  0  0  0  0  0  0  0  0  0  0
   91.4070   94.9560  -44.9650 N   0  0  0  0  0  0  0  0  0  0  0  0
   91.8220   94.6220  -43.7310 C   0  0  0  0  0  0  0  0  0  0  0  0
   91.9550   95.5190  -42.7360 N   0  0  0  0  0  0  0  0  0  0  0  0
   91.6790   96.8230  -42.9140 C   0  0  0  0  0  0  0  0  0  0  0  0
   91.2470   97.1790  -44.1930 C   0  0  0  0  0  0  0  0  0  0  0  0
   91.1140   96.2520  -45.2040 C   0  0  0  0  0  0  0  0  0  0  0  0
   90.7200   96.5830  -46.3690 O   0  0  0  0  0  0  0  0  0  0  0  0
   91.8110   97.8500  -41.8480 C   0  0  0  0  0  0  0  0  0  0  0  0
   91.4940   99.1220  -42.3830 N   0  0  0  0  0  0  0  0  0  0  0  0
   91.2070  100.1680  -41.4750 C   0  0  0  0  0  0  0  0  0  0  0  0
   90.2530  101.2220  -42.0140 C   0  0  0  0  0  0  0  0  0  0  0  0
   89.0950  100.4760  -42.5750 C   0  0  0  0  0  0  0  0  0  0  0  0
   89.4080   99.4200  -43.4050 C   0  0  0  0  0  0  0  0  0  0  0  0
   88.3970   98.7150  -43.9350 N   0  0  0  0  0  0  0  0  0  0  0  0
   87.0990   99.0440  -43.6520 C   0  0  0  0  0  0  0  0  0  0  0  0
   86.8310  100.0880  -42.8320 N   0  0  0  0  0  0  0  0  0  0  0  0
   87.8040  100.8360  -42.2660 C   0  0  0  0  0  0  0  0  0  0  0  0
   85.9700   98.2710  -44.2320 C   0  0  0  0  0  0  0  0  0  0  0  0
   90.8450   99.1470  -43.6500 C   0  0  0  0  0  0  0  0  0  0  0  0
   92.1170   93.2830  -43.5100 C   0  0  0  0  0  0  0  0  0  0  0  0
   91.9890   92.3410  -44.5110 C   0  0  0  0  0  0  0  0  0  0  0  0
   90.9370   94.3430  -46.9570 H   0  0  0  0  0  0  0  0  0  0  0  0
   91.0170   98.2160  -44.3710 H   0  0  0  0  0  0  0  0  0  0  0  0
   91.0870   97.5700  -41.0480 H   0  0  0  0  0  0  0  0  0  0  0  0
   92.8400   97.7990  -41.4590 H   0  0  0  0  0  0  0  0  0  0  0  0
   92.1060  100.6860  -41.0790 H   0  0  0  0  0  0  0  0  0  0  0  0
   90.6610   99.7280  -40.5900 H   0  0  0  0  0  0  0  0  0  0  0  0
   90.8040  101.7300  -42.8550 H   0  0  0  0  0  0  0  0  0  0  0  0
   89.9550  101.9080  -41.2240 H   0  0  0  0  0  0  0  0  0  0  0  0
   87.5550  101.6630  -41.6160 H   0  0  0  0  0  0  0  0  0  0  0  0
   86.3520   97.7100  -45.1060 H   0  0  0  0  0  0  0  0  0  0  0  0
   85.6450   97.5470  -43.4420 H   0  0  0  0  0  0  0  0  0  0  0  0
   85.1430   98.9370  -44.5420 H   0  0  0  0  0  0  0  0  0  0  0  0
   91.2800   99.8980  -44.3550 H   0  0  0  0  0  0  0  0  0  0  0  0
   90.9620   98.1470  -44.1180 H   0  0  0  0  0  0  0  0  0  0  0  0
   92.4540   93.0030  -42.5100 H   0  0  0  0  0  0  0  0  0  0  0  0
   92.2240   91.2880  -44.3280 H   0  0  0  0  0  0  0  0  0  0  0  0
  1  2  1  0  0  0  0
  2 24  2  0  0  0  0
  3  2  1  0  0  0  0
  3  4  1  0  0  0  0
  4  5  1  0  0  0  0
  5 23  2  0  0  0  0
  5  6  1  0  0  0  0
  7  6  2  0  0  0  0
  7 11  1  0  0  0  0
  8 38  1  0  0  0  0
  9  4  1  0  0  0  0
 10  9  2  0  0  0  0
 11 28  1  0  0  0  0
 11 27  1  0  0  0  0
 12 11  1  0  0  0  0
 12 13  1  0  0  0  0
 13 29  1  0  0  0  0
 13 30  1  0  0  0  0
 14 13  1  0  0  0  0
 14 32  1  0  0  0  0
 15 20  1  0  0  0  0
 15 14  1  0  0  0  0
 16 15  2  0  0  0  0
 17 18  2  0  0  0  0
 17 16  1  0  0  0  0
 18 19  1  0  0  0  0
 19 20  2  0  0  0  0
 20 33  1  0  0  0  0
 21 18  1  0  0  0  0
 21 35  1  0  0  0  0
 23 39  1  0  0  0  0
 24 40  1  0  0  0  0
 24 23  1  0  0  0  0
 25  3  1  0  0  0  0
 31 14  1  0  0  0  0
 34 21  1  0  0  0  0
 36 21  1  0  0  0  0
 37 22  1  0  0  0  0
M  END
>  <Pose>
1

>  <Score>
-4.59

$$$$
