
 OpenBabel03212208273D

 50 53  0  0  1  0  0  0  0  0999 V2000
   84.3070   98.8480  -43.3910 Cl  0  0  0  0  0  0  0  0  0  0  0  0
   85.6560   98.9180  -44.5220 C   0  0  0  0  0  0  0  0  0  0  0  0
   86.9590   98.9720  -43.9950 C   0  0  0  0  0  0  0  0  0  0  0  0
   88.0000   99.0200  -44.8740 C   0  0  0  0  0  0  0  0  0  0  0  0
   87.8010   99.0230  -46.2470 C   0  0  0  0  0  0  0  0  0  0  0  0
   86.5150   98.9720  -46.7330 C   0  0  0  0  0  0  0  0  0  0  0  0
   85.4350   98.9170  -45.8810 C   0  0  0  0  0  0  0  0  0  0  0  0
   86.3280   98.9780  -48.2260 C   0  0  0  0  0  0  0  0  0  0  0  0
   89.2580   98.9410  -44.0690 C   0  0  2  0  0  0  0  0  0  0  0  0
   90.3250   99.7260  -44.5470 N   0  0  0  0  0  0  0  0  0  0  0  0
   91.0520   98.9130  -45.4810 C   0  0  2  0  0  0  0  0  0  0  0  0
   90.5690   97.5230  -45.3940 C   0  0  2  0  0  0  0  0  0  0  0  0
   89.8040   97.5470  -44.0680 C   0  0  1  0  0  0  0  0  0  0  0  0
   90.8850   97.3410  -43.1220 C   0  0  0  0  0  0  0  0  0  0  0  0
   91.1350   97.8010  -41.9860 O   0  0  0  0  0  0  0  0  0  0  0  0
   91.7670   96.3870  -43.7720 N   0  0  0  0  0  0  0  0  0  0  0  0
   91.5570   96.4730  -45.1740 C   0  0  0  0  0  0  0  0  0  0  0  0
   92.1220   95.7730  -46.0250 O   0  0  0  0  0  0  0  0  0  0  0  0
   92.6990   95.4800  -43.1560 C   0  0  0  0  0  0  0  0  0  0  0  0
   92.1000   94.3320  -42.4340 C   0  0  0  0  0  0  0  0  0  0  0  0
   92.8010   93.7960  -41.3960 O   0  0  0  0  0  0  0  0  0  0  0  0
   93.7170   92.8250  -41.7430 C   0  0  0  0  0  0  0  0  0  0  0  0
   92.5530   99.0970  -45.3540 C   0  0  1  0  0  0  0  0  0  0  0  0
   93.1500   99.7310  -46.4020 O   0  0  0  0  0  0  0  0  0  0  0  0
   92.8730   99.6190  -43.9920 C   0  0  0  0  0  0  0  0  0  0  0  0
   88.8120   99.2580  -42.7140 C   0  0  0  0  0  0  0  0  0  0  0  0
   89.4600   99.6220  -41.6830 O   0  0  0  0  0  0  0  0  0  0  0  0
   87.4130   99.1060  -42.6540 N   0  0  0  0  0  0  0  0  0  0  0  0
   88.6070   99.0740  -46.9800 H   0  0  0  0  0  0  0  0  0  0  0  0
   84.4220   98.8750  -46.2970 H   0  0  0  0  0  0  0  0  0  0  0  0
   87.0600   98.2740  -48.6710 H   0  0  0  0  0  0  0  0  0  0  0  0
   86.5930   99.9910  -48.6460 H   0  0  0  0  0  0  0  0  0  0  0  0
   85.3170   98.6760  -48.5120 H   0  0  0  0  0  0  0  0  0  0  0  0
   90.0120  100.6270  -44.9820 H   0  0  0  0  0  0  0  0  0  0  0  0
   90.8470   99.2830  -46.5350 H   0  0  0  0  0  0  0  0  0  0  0  0
   89.7990   97.2400  -46.1520 H   0  0  0  0  0  0  0  0  0  0  0  0
   89.0190   96.7670  -44.0510 H   0  0  0  0  0  0  0  0  0  0  0  0
   93.3750   95.0660  -43.9410 H   0  0  0  0  0  0  0  0  0  0  0  0
   93.3680   96.0660  -42.4790 H   0  0  0  0  0  0  0  0  0  0  0  0
   91.9560   93.5100  -43.1930 H   0  0  0  0  0  0  0  0  0  0  0  0
   91.0580   94.5710  -42.1100 H   0  0  0  0  0  0  0  0  0  0  0  0
   94.4780   93.1830  -42.4390 H   0  0  0  0  0  0  0  0  0  0  0  0
   94.2210   92.4920  -40.8100 H   0  0  0  0  0  0  0  0  0  0  0  0
   93.1390   91.9790  -42.1990 H   0  0  0  0  0  0  0  0  0  0  0  0
   92.9460   98.0260  -45.3950 H   0  0  0  0  0  0  0  0  0  0  0  0
   94.0240  100.1480  -46.1890 H   0  0  0  0  0  0  0  0  0  0  0  0
   93.5810   98.8990  -43.4770 H   0  0  0  0  0  0  0  0  0  0  0  0
   93.4480  100.5690  -44.0120 H   0  0  0  0  0  0  0  0  0  0  0  0
   91.9590   99.6480  -43.3860 H   0  0  0  0  0  0  0  0  0  0  0  0
   86.7750   99.0860  -41.8190 H   0  0  0  0  0  0  0  0  0  0  0  0
  2  3  1  0  0  0  0
  2  1  1  0  0  0  0
  3 28  1  0  0  0  0
  4  3  2  0  0  0  0
  5  4  1  0  0  0  0
  6  5  2  0  0  0  0
  6  7  1  0  0  0  0
  7  2  2  0  0  0  0
  8  6  1  0  0  0  0
  9  4  1  6  0  0  0
  9 13  1  0  0  0  0
  9 26  1  0  0  0  0
 10  9  1  0  0  0  0
 11 35  1  6  0  0  0
 11 12  1  0  0  0  0
 11 23  1  0  0  0  0
 11 10  1  0  0  0  0
 12 36  1  6  0  0  0
 12 17  1  0  0  0  0
 12 13  1  0  0  0  0
 13 37  1  1  0  0  0
 13 14  1  0  0  0  0
 14 15  2  0  0  0  0
 16 19  1  0  0  0  0
 16 14  1  0  0  0  0
 17 16  1  0  0  0  0
 18 17  2  0  0  0  0
 19 39  1  0  0  0  0
 19 20  1  0  0  0  0
 20 41  1  0  0  0  0
 20 21  1  0  0  0  0
 22 21  1  0  0  0  0
 22 43  1  0  0  0  0
 23 45  1  6  0  0  0
 23 25  1  0  0  0  0
 24 46  1  0  0  0  0
 24 23  1  0  0  0  0
 25 47  1  0  0  0  0
 25 49  1  0  0  0  0
 26 28  1  0  0  0  0
 26 27  2  0  0  0  0
 28 50  1  0  0  0  0
 29  5  1  0  0  0  0
 30  7  1  0  0  0  0
 31  8  1  0  0  0  0
 32  8  1  0  0  0  0
 33  8  1  0  0  0  0
 34 10  1  0  0  0  0
 38 19  1  0  0  0  0
 40 20  1  0  0  0  0
 42 22  1  0  0  0  0
 44 22  1  0  0  0  0
 48 25  1  0  0  0  0
M  END
>  <Pose>
1

>  <Score>
-4.73

$$$$
