
 OpenBabel03212208273D

 55 58  0  0  0  0  0  0  0  0999 V2000
   88.8640   96.9070  -47.3000 B   0  0  0  0  0  0  0  0  0  0  0  0
   87.6850   97.4980  -45.9350 C   0  0  0  0  0  0  0  0  0  0  0  0
   87.9300   98.6690  -45.1950 C   0  0  0  0  0  0  0  0  0  0  0  0
   87.0630   99.0670  -44.2120 C   0  0  0  0  0  0  0  0  0  0  0  0
   85.9410   98.3150  -43.9520 C   0  0  0  0  0  0  0  0  0  0  0  0
   85.6980   97.1480  -44.6930 C   0  0  0  0  0  0  0  0  0  0  0  0
   86.5600   96.7530  -45.6640 C   0  0  0  0  0  0  0  0  0  0  0  0
   85.1210   98.7600  -42.9730 O   0  0  0  0  0  0  0  0  0  0  0  0
   84.0240   99.5970  -43.1050 C   0  0  0  0  0  0  0  0  0  0  0  0
   87.3030  100.3020  -43.4770 C   0  0  0  0  0  0  0  0  0  0  0  0
   88.3650  100.6170  -42.8090 C   0  0  0  0  0  0  0  0  0  0  0  0
   89.4880   99.8560  -42.6520 O   0  0  0  0  0  0  0  0  0  0  0  0
   90.4070  100.5550  -41.8710 C   0  0  0  0  0  0  0  0  0  0  0  0
   89.9350  101.7690  -41.4890 C   0  0  0  0  0  0  0  0  0  0  0  0
   90.7120  102.6370  -40.7130 C   0  0  0  0  0  0  0  0  0  0  0  0
   91.9760  102.3100  -40.2980 C   0  0  0  0  0  0  0  0  0  0  0  0
   92.4180  101.0410  -40.7140 C   0  0  0  0  0  0  0  0  0  0  0  0
   91.6940  100.1820  -41.4680 C   0  0  0  0  0  0  0  0  0  0  0  0
   92.1350   98.8310  -41.8630 C   0  0  0  0  0  0  0  0  0  0  0  0
   92.6850   98.8200  -43.1980 N   0  0  0  0  0  4  0  0  0  0  0  0
   93.0580  100.1730  -43.5720 C   0  0  0  0  0  0  0  0  0  0  0  0
   92.7730  100.5330  -44.9680 C   0  0  0  0  0  0  0  0  0  0  0  0
   92.8340   99.4700  -45.9200 N   0  0  0  0  0  0  0  0  0  0  0  0
   92.9560   98.1670  -45.4450 C   0  0  0  0  0  0  0  0  0  0  0  0
   92.1130   98.0010  -44.1530 C   0  0  0  0  0  0  0  0  0  0  0  0
   92.1620   99.6740  -47.1470 C   0  0  0  0  0  0  0  0  0  0  0  0
   92.9310  100.4110  -48.1860 C   0  0  0  0  0  0  0  0  0  0  0  0
   93.7160  100.7450  -40.2470 O   0  0  0  0  0  0  0  0  0  0  0  0
   88.5940  101.8640  -42.0770 C   0  0  0  0  0  0  0  0  0  0  0  0
   87.7960  102.8400  -41.9690 O   0  0  0  0  0  0  0  0  0  0  0  0
   88.8310   99.1980  -45.4590 H   0  0  0  0  0  0  0  0  0  0  0  0
   84.8070   96.5540  -44.4930 H   0  0  0  0  0  0  0  0  0  0  0  0
   86.3210   95.8430  -46.2110 H   0  0  0  0  0  0  0  0  0  0  0  0
   83.0890   99.1480  -42.6680 H   0  0  0  0  0  0  0  0  0  0  0  0
   83.7350   99.8830  -44.1310 H   0  0  0  0  0  0  0  0  0  0  0  0
   84.2170  100.5860  -42.5660 H   0  0  0  0  0  0  0  0  0  0  0  0
   86.5070  101.0890  -43.4700 H   0  0  0  0  0  0  0  0  0  0  0  0
   90.2390  103.5860  -40.4690 H   0  0  0  0  0  0  0  0  0  0  0  0
   92.5890  102.9500  -39.7090 H   0  0  0  0  0  0  0  0  0  0  0  0
   91.3530   98.0770  -41.6910 H   0  0  0  0  0  0  0  0  0  0  0  0
   92.9450   98.5450  -41.1110 H   0  0  0  0  0  0  0  0  0  0  0  0
   93.6830   98.3510  -43.0000 H   0  0  0  0  0  0  0  0  0  0  0  0
   94.1260  100.3650  -43.3010 H   0  0  0  0  0  0  0  0  0  0  0  0
   92.4890  100.8650  -42.9080 H   0  0  0  0  0  0  0  0  0  0  0  0
   91.8310  101.1290  -45.0420 H   0  0  0  0  0  0  0  0  0  0  0  0
   93.5750  101.2730  -45.2900 H   0  0  0  0  0  0  0  0  0  0  0  0
   92.7310   97.4020  -46.1750 H   0  0  0  0  0  0  0  0  0  0  0  0
   93.9990   97.9810  -45.0630 H   0  0  0  0  0  0  0  0  0  0  0  0
   92.3510   96.9150  -43.9070 H   0  0  0  0  0  0  0  0  0  0  0  0
   91.0510   98.0550  -44.3170 H   0  0  0  0  0  0  0  0  0  0  0  0
   91.9050   98.6560  -47.5650 H   0  0  0  0  0  0  0  0  0  0  0  0
   91.1800  100.1670  -46.9070 H   0  0  0  0  0  0  0  0  0  0  0  0
   93.8340  100.9050  -47.8210 H   0  0  0  0  0  0  0  0  0  0  0  0
   93.1850   99.7520  -49.0580 H   0  0  0  0  0  0  0  0  0  0  0  0
   92.2770  101.2120  -48.5750 H   0  0  0  0  0  0  0  0  0  0  0  0
  1  2  1  0  0  0  0
  2  7  2  0  0  0  0
  2  3  1  0  0  0  0
  3  4  2  0  0  0  0
  4  5  1  0  0  0  0
  4 10  1  0  0  0  0
  5  8  1  0  0  0  0
  6 32  1  0  0  0  0
  6  5  2  0  0  0  0
  7  6  1  0  0  0  0
  9  8  1  0  0  0  0
  9 34  1  0  0  0  0
  9 36  1  0  0  0  0
 10 37  1  0  0  0  0
 10 11  2  0  0  0  0
 11 12  1  0  0  0  0
 11 29  1  0  0  0  0
 12 13  1  0  0  0  0
 13 14  2  0  0  0  0
 13 18  1  0  0  0  0
 14 15  1  0  0  0  0
 15 38  1  0  0  0  0
 15 16  2  0  0  0  0
 16 39  1  0  0  0  0
 17 16  1  0  0  0  0
 17 28  1  0  0  0  0
 18 17  2  0  0  0  0
 19 40  1  0  0  0  0
 19 18  1  0  0  0  0
 19 41  1  0  0  0  0
 20 42  1  0  0  0  0
 20 19  1  0  0  0  0
 21 43  1  0  0  0  0
 21 20  1  0  0  0  0
 21 44  1  0  0  0  0
 22 21  1  0  0  0  0
 23 24  1  0  0  0  0
 23 22  1  0  0  0  0
 24 48  1  0  0  0  0
 24 25  1  0  0  0  0
 25 49  1  0  0  0  0
 25 20  1  0  0  0  0
 26 52  1  0  0  0  0
 26 23  1  0  0  0  0
 27 53  1  0  0  0  0
 27 26  1  0  0  0  0
 29 30  2  0  0  0  0
 29 14  1  0  0  0  0
 31  3  1  0  0  0  0
 33  7  1  0  0  0  0
 35  9  1  0  0  0  0
 45 22  1  0  0  0  0
 46 22  1  0  0  0  0
 47 24  1  0  0  0  0
 50 25  1  0  0  0  0
 51 26  1  0  0  0  0
 54 27  1  0  0  0  0
 55 27  1  0  0  0  0
M  END
>  <Pose>
1

>  <Score>
-4.84

$$$$
