
 OpenBabel03212208273D

 49 52  0  0  0  0  0  0  0  0999 V2000
   92.9100  101.4610  -42.9660 S   0  0  0  0  0  0  0  0  0  0  0  0
   93.1660   99.9940  -43.2850 O   0  0  0  0  0  0  0  0  0  0  0  0
   93.7920  102.2260  -43.9460 O   0  0  0  0  0  0  0  0  0  0  0  0
   91.3060  101.7930  -43.3370 N   0  0  0  0  0  0  0  0  0  0  0  0
   90.3350  100.9020  -42.7500 C   0  0  0  0  0  0  0  0  0  0  0  0
   89.5200  100.2860  -43.8860 C   0  0  0  0  0  0  0  0  0  0  0  0
   90.3790   99.9500  -44.9570 N   0  0  0  0  0  0  0  0  0  0  0  0
   90.8090  101.2140  -45.7040 C   0  0  0  0  0  0  0  0  0  0  0  0
   91.0180  102.2410  -44.6490 C   0  0  0  0  0  0  0  0  0  0  0  0
   90.9020   98.7630  -45.3810 C   0  0  0  0  0  0  0  0  0  0  0  0
   91.2540   98.8620  -46.7090 O   0  0  0  0  0  0  0  0  0  0  0  0
   91.2030   97.4660  -44.9180 C   0  0  0  0  0  0  0  0  0  0  0  0
   91.3780   96.8010  -43.8240 C   0  0  0  0  0  0  0  0  0  0  0  0
   91.2950   97.3670  -42.5430 N   0  0  0  0  0  0  0  0  0  0  0  0
   91.4230   96.6460  -41.3340 N   0  0  0  0  0  0  0  0  0  0  0  0
   91.6510   95.2670  -41.3900 C   0  0  0  0  0  0  0  0  0  0  0  0
   91.7680   94.6130  -40.3210 O   0  0  0  0  0  0  0  0  0  0  0  0
   91.7490   94.6170  -42.7080 C   0  0  0  0  0  0  0  0  0  0  0  0
   91.6220   95.3280  -43.8870 C   0  0  0  0  0  0  0  0  0  0  0  0
   91.7240   94.6500  -45.0590 C   0  0  0  0  0  0  0  0  0  0  0  0
   91.9520   93.2700  -45.0500 C   0  0  0  0  0  0  0  0  0  0  0  0
   92.0800   92.5590  -43.8840 C   0  0  0  0  0  0  0  0  0  0  0  0
   91.9750   93.2510  -42.6970 C   0  0  0  0  0  0  0  0  0  0  0  0
   93.4110  101.8700  -41.3730 C   0  0  0  0  0  0  0  0  0  0  0  0
   92.5040  102.2170  -40.4040 C   0  0  0  0  0  0  0  0  0  0  0  0
   92.9310  102.5420  -39.1290 C   0  0  0  0  0  0  0  0  0  0  0  0
   94.2630  102.5340  -38.7830 C   0  0  0  0  0  0  0  0  0  0  0  0
   95.1850  102.1860  -39.7580 C   0  0  0  0  0  0  0  0  0  0  0  0
   94.7410  101.8600  -41.0380 C   0  0  0  0  0  0  0  0  0  0  0  0
   94.7530  102.9550  -37.1540 Cl  0  0  0  0  0  0  0  0  0  0  0  0
   90.7590  100.1440  -42.0830 H   0  0  0  0  0  0  0  0  0  0  0  0
   89.6300  101.5160  -42.1570 H   0  0  0  0  0  0  0  0  0  0  0  0
   88.8770  101.1850  -44.2420 H   0  0  0  0  0  0  0  0  0  0  0  0
   88.7880   99.5600  -43.5880 H   0  0  0  0  0  0  0  0  0  0  0  0
   89.9250  101.4330  -46.3270 H   0  0  0  0  0  0  0  0  0  0  0  0
   91.6800  100.9750  -46.3300 H   0  0  0  0  0  0  0  0  0  0  0  0
   90.0740  102.8600  -44.5920 H   0  0  0  0  0  0  0  0  0  0  0  0
   91.8070  102.9740  -44.9340 H   0  0  0  0  0  0  0  0  0  0  0  0
   91.3410   96.7610  -45.8340 H   0  0  0  0  0  0  0  0  0  0  0  0
   91.1720   98.3740  -42.4210 H   0  0  0  0  0  0  0  0  0  0  0  0
   91.3410   97.1860  -40.4220 H   0  0  0  0  0  0  0  0  0  0  0  0
   91.6370   95.1400  -46.0130 H   0  0  0  0  0  0  0  0  0  0  0  0
   92.0260   92.7760  -46.0000 H   0  0  0  0  0  0  0  0  0  0  0  0
   92.2570   91.4870  -43.8610 H   0  0  0  0  0  0  0  0  0  0  0  0
   92.0680   92.7370  -41.7330 H   0  0  0  0  0  0  0  0  0  0  0  0
   91.4350  102.2520  -40.5750 H   0  0  0  0  0  0  0  0  0  0  0  0
   92.2210  102.8210  -38.3410 H   0  0  0  0  0  0  0  0  0  0  0  0
   96.2410  102.1750  -39.4970 H   0  0  0  0  0  0  0  0  0  0  0  0
   95.5380  101.5960  -41.7450 H   0  0  0  0  0  0  0  0  0  0  0  0
  1 24  1  0  0  0  0
  2  1  2  0  0  0  0
  3  1  2  0  0  0  0
  4  1  1  0  0  0  0
  4  5  1  0  0  0  0
  5 32  1  0  0  0  0
  5 31  1  0  0  0  0
  6 34  1  0  0  0  0
  6  5  1  0  0  0  0
  7  6  1  0  0  0  0
  8  7  1  0  0  0  0
  8  9  1  0  0  0  0
  9 37  1  0  0  0  0
  9  4  1  0  0  0  0
 10  7  1  0  0  0  0
 10 12  1  0  0  0  0
 11 10  2  0  0  0  0
 12 13  2  0  0  0  0
 13 14  1  0  0  0  0
 14 40  1  0  0  0  0
 14 15  1  0  0  0  0
 15 41  1  0  0  0  0
 16 15  1  0  0  0  0
 16 17  2  0  0  0  0
 18 23  1  0  0  0  0
 18 16  1  0  0  0  0
 19 13  1  0  0  0  0
 19 18  2  0  0  0  0
 20 21  2  0  0  0  0
 20 19  1  0  0  0  0
 21 22  1  0  0  0  0
 22 44  1  0  0  0  0
 22 23  2  0  0  0  0
 23 45  1  0  0  0  0
 24 29  2  0  0  0  0
 24 25  1  0  0  0  0
 25 26  2  0  0  0  0
 26 27  1  0  0  0  0
 26 47  1  0  0  0  0
 27 30  1  0  0  0  0
 28 48  1  0  0  0  0
 28 27  2  0  0  0  0
 29 28  1  0  0  0  0
 33  6  1  0  0  0  0
 35  8  1  0  0  0  0
 36  8  1  0  0  0  0
 38  9  1  0  0  0  0
 39 12  1  0  0  0  0
 42 20  1  0  0  0  0
 43 21  1  0  0  0  0
 46 25  1  0  0  0  0
 49 29  1  0  0  0  0
M  END
>  <Pose>
1

>  <Score>
-5.91

$$$$
