
 OpenBabel03212208273D

 44 46  0  0  0  0  0  0  0  0999 V2000
   90.1140   98.2920  -44.3920 Cl  0  0  0  0  0  0  0  0  0  0  0  0
   90.6340   96.6690  -44.7230 C   0  0  0  0  0  0  0  0  0  0  0  0
   91.4030   95.9720  -43.8270 C   0  0  0  0  0  0  0  0  0  0  0  0
   91.7840   94.6890  -44.1480 C   0  0  0  0  0  0  0  0  0  0  0  0
   91.4310   94.0660  -45.3250 C   0  0  0  0  0  0  0  0  0  0  0  0
   90.6590   94.7790  -46.2130 C   0  0  0  0  0  0  0  0  0  0  0  0
   90.2740   96.0650  -45.9010 C   0  0  0  0  0  0  0  0  0  0  0  0
   91.8470   92.7120  -45.6360 N   0  0  0  0  0  0  0  0  0  0  0  0
   91.0850   92.0270  -46.6220 C   0  0  0  0  0  0  0  0  0  0  0  0
   91.7550   91.0260  -47.4460 C   0  0  0  0  0  0  0  0  0  0  0  0
   92.9100   90.6580  -46.9460 O   0  0  0  0  0  0  0  0  0  0  0  0
   91.4030   90.4130  -48.6230 N   0  0  0  0  0  0  0  0  0  0  0  0
   90.6390   89.2140  -48.7580 C   0  0  0  0  0  0  0  0  0  0  0  0
   89.3960   89.5280  -49.5860 C   0  0  0  0  0  0  0  0  0  0  0  0
   89.8950   89.8960  -50.8550 O   0  0  0  0  0  0  0  0  0  0  0  0
   90.5050   91.1260  -50.7390 C   0  0  0  0  0  0  0  0  0  0  0  0
   91.7920   91.0210  -49.9140 C   0  0  0  0  0  0  0  0  0  0  0  0
   91.8230   96.5230  -42.6030 N   0  0  0  0  0  0  0  0  0  0  0  0
   92.0330   95.8290  -41.5030 N   0  0  0  0  0  0  0  0  0  0  0  0
   92.4290   96.6280  -40.5310 N   0  0  0  0  0  0  0  0  0  0  0  0
   92.4640   97.8430  -41.0390 N   0  0  0  0  0  0  0  0  0  0  0  0
   92.0840   97.7990  -42.3520 C   0  0  0  0  0  0  0  0  0  0  0  0
   92.0120   98.9950  -43.1900 C   0  0  0  0  0  0  0  0  0  0  0  0
   92.8920  100.1530  -43.0970 C   0  0  0  0  0  0  0  0  0  0  0  0
   93.1730   99.1390  -44.2180 C   0  0  0  0  0  0  0  0  0  0  0  0
   92.4040   94.1080  -43.4420 H   0  0  0  0  0  0  0  0  0  0  0  0
   90.3830   94.2840  -47.1410 H   0  0  0  0  0  0  0  0  0  0  0  0
   89.6580   96.5870  -46.6470 H   0  0  0  0  0  0  0  0  0  0  0  0
   92.6470   92.2790  -45.1650 H   0  0  0  0  0  0  0  0  0  0  0  0
   90.7050   92.8190  -47.3390 H   0  0  0  0  0  0  0  0  0  0  0  0
   90.1260   91.6180  -46.1930 H   0  0  0  0  0  0  0  0  0  0  0  0
   91.2610   88.5740  -49.4940 H   0  0  0  0  0  0  0  0  0  0  0  0
   90.4720   88.6080  -47.8840 H   0  0  0  0  0  0  0  0  0  0  0  0
   88.7480   88.6510  -49.6270 H   0  0  0  0  0  0  0  0  0  0  0  0
   88.8360   90.3890  -49.2250 H   0  0  0  0  0  0  0  0  0  0  0  0
   89.8040   91.8420  -50.2660 H   0  0  0  0  0  0  0  0  0  0  0  0
   90.7580   91.5240  -51.7300 H   0  0  0  0  0  0  0  0  0  0  0  0
   92.2460   92.0010  -49.7910 H   0  0  0  0  0  0  0  0  0  0  0  0
   92.4220   90.2620  -50.4170 H   0  0  0  0  0  0  0  0  0  0  0  0
   91.0260   99.1790  -43.7260 H   0  0  0  0  0  0  0  0  0  0  0  0
   92.4790  101.1580  -43.4180 H   0  0  0  0  0  0  0  0  0  0  0  0
   93.7570  100.2790  -42.4510 H   0  0  0  0  0  0  0  0  0  0  0  0
   92.9350   99.5200  -45.2190 H   0  0  0  0  0  0  0  0  0  0  0  0
   94.0120   98.4520  -44.1340 H   0  0  0  0  0  0  0  0  0  0  0  0
  2  3  1  0  0  0  0
  3 18  1  0  0  0  0
  4  3  2  0  0  0  0
  4 26  1  0  0  0  0
  5  4  1  0  0  0  0
  6  7  1  0  0  0  0
  6  5  2  0  0  0  0
  7  2  2  0  0  0  0
  8  5  1  0  0  0  0
  8 29  1  0  0  0  0
  9 31  1  0  0  0  0
  9  8  1  0  0  0  0
 10 11  2  0  0  0  0
 10  9  1  0  0  0  0
 12 10  1  0  0  0  0
 13 12  1  0  0  0  0
 13 33  1  0  0  0  0
 14 35  1  0  0  0  0
 14 13  1  0  0  0  0
 15 16  1  0  0  0  0
 15 14  1  0  0  0  0
 16 36  1  0  0  0  0
 16 17  1  0  0  0  0
 17 38  1  0  0  0  0
 17 12  1  0  0  0  0
 18 22  1  0  0  0  0
 18 19  1  0  0  0  0
 19 20  2  0  0  0  0
 21 20  1  0  0  0  0
 22 21  2  0  0  0  0
 23 24  1  0  0  0  0
 23 22  1  0  0  0  0
 24 42  1  0  0  0  0
 25 44  1  0  0  0  0
 25 23  1  0  0  0  0
 25 24  1  0  0  0  0
 27  6  1  0  0  0  0
 28  7  1  0  0  0  0
 30  9  1  0  0  0  0
 32 13  1  0  0  0  0
 34 14  1  0  0  0  0
 37 16  1  0  0  0  0
 39 17  1  0  0  0  0
 40 23  1  0  0  0  0
 41 24  1  0  0  0  0
 43 25  1  0  0  0  0
M  END
>  <Pose>
1

>  <Score>
-5.34

$$$$
