
 OpenBabel03212208273D

 45 48  0  0  0  0  0  0  0  0999 V2000
   89.9830   89.2170  -49.8330 S   0  0  0  0  0  0  0  0  0  0  0  0
   89.1190   90.2830  -49.1980 O   0  0  0  0  0  0  0  0  0  0  0  0
   89.6210   89.1340  -51.2680 O   0  0  0  0  0  0  0  0  0  0  0  0
   91.6360   89.6520  -49.6120 N   0  0  0  0  0  0  0  0  0  0  0  0
   91.9940   89.4490  -48.2550 C   0  0  0  0  0  0  0  0  0  0  0  0
   92.6720   90.5830  -47.5400 C   0  0  0  0  0  0  0  0  0  0  0  0
   92.1860   91.8200  -48.0550 N   0  0  0  0  0  0  0  0  0  0  0  0
   92.6460   91.8880  -49.4420 C   0  0  0  0  0  0  0  0  0  0  0  0
   91.8930   90.8830  -50.2320 C   0  0  0  0  0  0  0  0  0  0  0  0
   92.5760   92.9770  -47.3260 C   0  0  0  0  0  0  0  0  0  0  0  0
   91.4010   93.7700  -46.8660 C   0  0  0  0  0  0  0  0  0  0  0  0
   91.5580   94.2560  -45.5110 N   0  0  0  0  0  0  0  0  0  0  0  0
   91.4700   95.5160  -45.0890 N   0  0  0  0  0  0  0  0  0  0  0  0
   91.6590   95.5800  -43.7640 C   0  0  0  0  0  0  0  0  0  0  0  0
   91.8740   94.3300  -43.3350 N   0  0  0  0  0  0  0  0  0  0  0  0
   92.1010   94.0650  -42.0260 C   0  0  0  0  0  0  0  0  0  0  0  0
   92.1240   95.0570  -41.0720 C   0  0  0  0  0  0  0  0  0  0  0  0
   91.9060   96.3560  -41.4860 C   0  0  0  0  0  0  0  0  0  0  0  0
   91.6770   96.5940  -42.8240 C   0  0  0  0  0  0  0  0  0  0  0  0
   91.8090   93.5160  -44.4290 C   0  0  0  0  0  0  0  0  0  0  0  0
   91.9750   92.2770  -44.3340 O   0  0  0  0  0  0  0  0  0  0  0  0
   89.6640   87.6390  -49.0970 C   0  0  0  0  0  0  0  0  0  0  0  0
   90.7250   86.3280  -48.8470 S   0  0  0  0  0  0  0  0  0  0  0  0
   89.6480   85.2390  -48.1040 C   0  0  0  0  0  0  0  0  0  0  0  0
   88.4720   85.9390  -48.0710 C   0  0  0  0  0  0  0  0  0  0  0  0
   88.4800   87.1760  -48.5830 C   0  0  0  0  0  0  0  0  0  0  0  0
   89.9700   83.4530  -47.4560 B   0  0  0  0  0  0  0  0  0  0  0  0
   91.0380   89.2470  -47.6780 H   0  0  0  0  0  0  0  0  0  0  0  0
   92.6340   88.5140  -48.2050 H   0  0  0  0  0  0  0  0  0  0  0  0
   92.4910   90.4220  -46.4570 H   0  0  0  0  0  0  0  0  0  0  0  0
   93.7720   90.4570  -47.7720 H   0  0  0  0  0  0  0  0  0  0  0  0
   92.4980   92.8850  -49.8750 H   0  0  0  0  0  0  0  0  0  0  0  0
   93.7160   91.5740  -49.4120 H   0  0  0  0  0  0  0  0  0  0  0  0
   90.9370   91.3780  -50.5680 H   0  0  0  0  0  0  0  0  0  0  0  0
   92.4960   90.6810  -51.1620 H   0  0  0  0  0  0  0  0  0  0  0  0
   93.1850   92.7150  -46.4050 H   0  0  0  0  0  0  0  0  0  0  0  0
   93.2220   93.6190  -47.9920 H   0  0  0  0  0  0  0  0  0  0  0  0
   91.3080   94.6850  -47.5180 H   0  0  0  0  0  0  0  0  0  0  0  0
   90.4460   93.1810  -46.9110 H   0  0  0  0  0  0  0  0  0  0  0  0
   92.2720   93.0410  -41.7040 H   0  0  0  0  0  0  0  0  0  0  0  0
   92.3030   94.8630  -40.0240 H   0  0  0  0  0  0  0  0  0  0  0  0
   91.9210   97.1520  -40.7410 H   0  0  0  0  0  0  0  0  0  0  0  0
   91.5090   97.6100  -43.1340 H   0  0  0  0  0  0  0  0  0  0  0  0
   87.5670   85.4660  -47.6290 H   0  0  0  0  0  0  0  0  0  0  0  0
   87.5710   87.8260  -48.6030 H   0  0  0  0  0  0  0  0  0  0  0  0
  1  4  1  0  0  0  0
  1  2  2  0  0  0  0
  1 22  1  0  0  0  0
  3  1  2  0  0  0  0
  4  5  1  0  0  0  0
  5 29  1  0  0  0  0
  5 28  1  0  0  0  0
  5  6  1  0  0  0  0
  6 30  1  0  0  0  0
  7  6  1  0  0  0  0
  7 10  1  0  0  0  0
  8 33  1  0  0  0  0
  8  7  1  0  0  0  0
  9  4  1  0  0  0  0
  9  8  1  0  0  0  0
 10 11  1  0  0  0  0
 10 36  1  0  0  0  0
 11 12  1  0  0  0  0
 12 13  1  0  0  0  0
 12 20  1  0  0  0  0
 13 14  2  0  0  0  0
 14 15  1  0  0  0  0
 14 19  1  0  0  0  0
 15 16  1  0  0  0  0
 16 40  1  0  0  0  0
 16 17  2  0  0  0  0
 17 41  1  0  0  0  0
 18 17  1  0  0  0  0
 18 42  1  0  0  0  0
 19 18  2  0  0  0  0
 20 21  2  0  0  0  0
 20 15  1  0  0  0  0
 22 23  1  0  0  0  0
 22 26  2  0  0  0  0
 23 24  1  0  0  0  0
 24 25  2  0  0  0  0
 24 27  1  0  0  0  0
 25 44  1  0  0  0  0
 26 25  1  0  0  0  0
 31  6  1  0  0  0  0
 32  8  1  0  0  0  0
 34  9  1  0  0  0  0
 35  9  1  0  0  0  0
 37 10  1  0  0  0  0
 38 11  1  0  0  0  0
 39 11  1  0  0  0  0
 43 19  1  0  0  0  0
 45 26  1  0  0  0  0
M  END
>  <Pose>
1

>  <Score>
-4.88

$$$$
