
 OpenBabel03212208273D

 52 55  0  0  0  0  0  0  0  0999 V2000
   90.5550   88.8660  -49.2820 Cl  0  0  0  0  0  0  0  0  0  0  0  0
   90.8560   90.2430  -48.1940 C   0  0  0  0  0  0  0  0  0  0  0  0
   91.9990   90.3430  -47.4080 C   0  0  0  0  0  0  0  0  0  0  0  0
   92.1860   91.3820  -46.5140 C   0  0  0  0  0  0  0  0  0  0  0  0
   91.2010   92.3780  -46.3780 C   0  0  0  0  0  0  0  0  0  0  0  0
   90.1070   92.2590  -47.1580 C   0  0  0  0  0  0  0  0  0  0  0  0
   89.8960   91.2290  -48.0570 C   0  0  0  0  0  0  0  0  0  0  0  0
   91.4480   93.4210  -45.3620 C   0  0  0  0  0  0  0  0  0  0  0  0
   91.8210   93.1030  -44.0760 C   0  0  0  0  0  0  0  0  0  0  0  0
   91.9280   94.1340  -43.1320 C   0  0  0  0  0  0  0  0  0  0  0  0
   91.6730   95.4450  -43.4680 C   0  0  0  0  0  0  0  0  0  0  0  0
   91.7500   96.5350  -42.5990 C   0  0  0  0  0  0  0  0  0  0  0  0
   92.1170   96.1750  -41.2780 C   0  0  0  0  0  0  0  0  0  0  0  0
   92.3770   94.8620  -40.8980 C   0  0  0  0  0  0  0  0  0  0  0  0
   92.2760   93.8480  -41.8360 C   0  0  0  0  0  0  0  0  0  0  0  0
   92.2460   97.0990  -40.2600 O   0  0  0  0  0  0  0  0  0  0  0  0
   91.3490   97.8780  -42.8290 C   0  0  0  0  0  0  0  0  0  0  0  0
   90.0360   98.2820  -43.2630 N   0  0  0  0  0  4  0  0  0  0  0  0
   89.4080   99.2300  -42.3000 C   0  0  0  0  0  0  0  0  0  0  0  0
   90.4270  100.1930  -41.8020 C   0  0  0  0  0  0  0  0  0  0  0  0
   91.0480  101.0140  -42.8150 N   0  0  0  0  0  0  0  0  0  0  0  0
   91.1010  100.3830  -44.0900 C   0  0  0  0  0  0  0  0  0  0  0  0
   90.2400   99.2480  -44.3890 C   0  0  0  0  0  0  0  0  0  0  0  0
   92.3980  101.4140  -42.3880 C   0  0  0  0  0  0  0  0  0  0  0  0
   92.8750  100.6210  -41.1930 C   0  0  0  0  0  0  0  0  0  0  0  0
   94.1420  100.9970  -40.7720 O   0  0  0  0  0  0  0  0  0  0  0  0
   91.3320   95.6930  -44.6670 O   0  0  0  0  0  0  0  0  0  0  0  0
   91.2010   94.7820  -45.6360 C   0  0  0  0  0  0  0  0  0  0  0  0
   90.8710   95.0970  -46.7850 O   0  0  0  0  0  0  0  0  0  0  0  0
   92.7310   89.5630  -47.5180 H   0  0  0  0  0  0  0  0  0  0  0  0
   93.0810   91.4380  -45.9060 H   0  0  0  0  0  0  0  0  0  0  0  0
   89.3060   92.9900  -47.1190 H   0  0  0  0  0  0  0  0  0  0  0  0
   89.0040   91.1790  -48.6640 H   0  0  0  0  0  0  0  0  0  0  0  0
   92.0370   92.0960  -43.7690 H   0  0  0  0  0  0  0  0  0  0  0  0
   92.6990   94.5930  -39.9210 H   0  0  0  0  0  0  0  0  0  0  0  0
   92.4370   92.7960  -41.5300 H   0  0  0  0  0  0  0  0  0  0  0  0
   91.8990   98.0840  -43.9030 H   0  0  0  0  0  0  0  0  0  0  0  0
   91.8980   98.6040  -42.2770 H   0  0  0  0  0  0  0  0  0  0  0  0
   89.3910   97.6120  -43.6140 H   0  0  0  0  0  0  0  0  0  0  0  0
   88.8010   98.7660  -41.5460 H   0  0  0  0  0  0  0  0  0  0  0  0
   88.6650   99.8320  -42.9410 H   0  0  0  0  0  0  0  0  0  0  0  0
   91.1830   99.7010  -41.1790 H   0  0  0  0  0  0  0  0  0  0  0  0
   89.8650  100.9020  -41.1290 H   0  0  0  0  0  0  0  0  0  0  0  0
   92.1680  100.1590  -44.3210 H   0  0  0  0  0  0  0  0  0  0  0  0
   90.8380  101.1900  -44.8700 H   0  0  0  0  0  0  0  0  0  0  0  0
   90.6180   98.6400  -45.2440 H   0  0  0  0  0  0  0  0  0  0  0  0
   89.2050   99.6470  -44.6300 H   0  0  0  0  0  0  0  0  0  0  0  0
   92.3460  102.4760  -42.1400 H   0  0  0  0  0  0  0  0  0  0  0  0
   93.1620  101.2780  -43.1810 H   0  0  0  0  0  0  0  0  0  0  0  0
   92.7300   99.5500  -41.2640 H   0  0  0  0  0  0  0  0  0  0  0  0
   92.1470  100.9350  -40.3660 H   0  0  0  0  0  0  0  0  0  0  0  0
   94.8090  100.6680  -41.4550 H   0  0  0  0  0  0  0  0  0  0  0  0
  1  2  1  0  0  0  0
  2  7  2  0  0  0  0
  2  3  1  0  0  0  0
  3  4  2  0  0  0  0
  4  5  1  0  0  0  0
  4 31  1  0  0  0  0
  5  8  1  0  0  0  0
  6 32  1  0  0  0  0
  6  5  2  0  0  0  0
  7  6  1  0  0  0  0
  8  9  2  0  0  0  0
  9 34  1  0  0  0  0
  9 10  1  0  0  0  0
 10 15  1  0  0  0  0
 11 10  2  0  0  0  0
 11 12  1  0  0  0  0
 12 13  2  0  0  0  0
 13 14  1  0  0  0  0
 13 16  1  0  0  0  0
 14 35  1  0  0  0  0
 15 36  1  0  0  0  0
 15 14  2  0  0  0  0
 17 12  1  0  0  0  0
 17 38  1  0  0  0  0
 18 17  1  0  0  0  0
 18 19  1  0  0  0  0
 19 20  1  0  0  0  0
 19 40  1  0  0  0  0
 20 42  1  0  0  0  0
 20 43  1  0  0  0  0
 21 24  1  0  0  0  0
 21 20  1  0  0  0  0
 22 21  1  0  0  0  0
 23 22  1  0  0  0  0
 23 18  1  0  0  0  0
 24 48  1  0  0  0  0
 24 25  1  0  0  0  0
 25 26  1  0  0  0  0
 25 51  1  0  0  0  0
 27 11  1  0  0  0  0
 28  8  1  0  0  0  0
 28 27  1  0  0  0  0
 29 28  2  0  0  0  0
 30  3  1  0  0  0  0
 33  7  1  0  0  0  0
 37 17  1  0  0  0  0
 39 18  1  0  0  0  0
 41 19  1  0  0  0  0
 44 22  1  0  0  0  0
 45 22  1  0  0  0  0
 46 23  1  0  0  0  0
 47 23  1  0  0  0  0
 49 24  1  0  0  0  0
 50 25  1  0  0  0  0
 52 26  1  0  0  0  0
M  END
>  <Pose>
1

>  <Score>
-5.23

$$$$
