
 OpenBabel03212208273D

 43 46  0  0  0  0  0  0  0  0999 V2000
   95.4310  103.2890  -39.9540 B   0  0  0  0  0  0  0  0  0  0  0  0
   93.8540  102.2250  -40.1180 C   0  0  0  0  0  0  0  0  0  0  0  0
   92.6240  102.7890  -39.9910 C   0  0  0  0  0  0  0  0  0  0  0  0
   91.5150  102.0590  -40.1030 N   0  0  0  0  0  0  0  0  0  0  0  0
   91.6070  100.7430  -40.3460 C   0  0  0  0  0  0  0  0  0  0  0  0
   92.8390  100.1140  -40.4850 C   0  0  0  0  0  0  0  0  0  0  0  0
   93.9890  100.8610  -40.3710 C   0  0  0  0  0  0  0  0  0  0  0  0
   92.8450   98.6950  -40.7520 C   0  0  0  0  0  0  0  0  0  0  0  0
   93.1150   97.8800  -39.8540 O   0  0  0  0  0  0  0  0  0  0  0  0
   92.5290   98.1790  -42.1000 N   0  0  0  0  0  0  0  0  0  0  0  0
   91.7240   97.0380  -42.1340 C   0  0  0  0  0  0  0  0  0  0  0  0
   91.4270   96.2490  -43.3110 C   0  0  0  0  0  0  0  0  0  0  0  0
   91.8440   94.8810  -43.1440 C   0  0  0  0  0  0  0  0  0  0  0  0
   91.6590   93.9960  -44.1420 C   0  0  0  0  0  0  0  0  0  0  0  0
   91.0620   94.3830  -45.3560 C   0  0  0  0  0  0  0  0  0  0  0  0
   90.6560   95.6840  -45.5310 C   0  0  0  0  0  0  0  0  0  0  0  0
   90.8410   96.6150  -44.4970 C   0  0  0  0  0  0  0  0  0  0  0  0
   90.3230   98.0000  -44.6330 C   0  0  0  0  0  0  0  0  0  0  0  0
   89.2740   98.1560  -45.7290 C   0  0  0  0  0  0  0  0  0  0  0  0
   89.6800   97.5040  -46.9520 N   0  0  0  0  0  0  0  0  0  0  0  0
   90.0640   96.1320  -46.7880 C   0  0  0  0  0  0  0  0  0  0  0  0
   89.8630   95.3780  -47.7620 O   0  0  0  0  0  0  0  0  0  0  0  0
   89.6970   98.1800  -48.2320 C   0  0  0  0  0  0  0  0  0  0  0  0
   90.9140   93.4410  -46.3040 O   0  0  0  0  0  0  0  0  0  0  0  0
   92.1560   92.7610  -43.6980 O   0  0  0  0  0  0  0  0  0  0  0  0
   92.8850   92.9400  -42.5030 C   0  0  0  0  0  0  0  0  0  0  0  0
   92.4530   94.2160  -42.0760 O   0  0  0  0  0  0  0  0  0  0  0  0
   92.4790  103.8630  -39.7910 H   0  0  0  0  0  0  0  0  0  0  0  0
   90.7240  100.1160  -40.4440 H   0  0  0  0  0  0  0  0  0  0  0  0
   94.9580  100.4040  -40.4770 H   0  0  0  0  0  0  0  0  0  0  0  0
   92.9950   98.7350  -42.8310 H   0  0  0  0  0  0  0  0  0  0  0  0
   92.1530   96.3160  -41.3170 H   0  0  0  0  0  0  0  0  0  0  0  0
   90.7250   97.2900  -41.5780 H   0  0  0  0  0  0  0  0  0  0  0  0
   91.0970   98.7440  -44.8500 H   0  0  0  0  0  0  0  0  0  0  0  0
   89.7570   98.3000  -43.7180 H   0  0  0  0  0  0  0  0  0  0  0  0
   89.1590   99.2600  -45.8690 H   0  0  0  0  0  0  0  0  0  0  0  0
   88.3380   97.7050  -45.3330 H   0  0  0  0  0  0  0  0  0  0  0  0
   90.6050   98.8320  -48.2330 H   0  0  0  0  0  0  0  0  0  0  0  0
   88.8140   98.8370  -48.3280 H   0  0  0  0  0  0  0  0  0  0  0  0
   89.8100   97.4440  -49.0390 H   0  0  0  0  0  0  0  0  0  0  0  0
   90.3220   92.6860  -46.3690 H   0  0  0  0  0  0  0  0  0  0  0  0
   92.6580   92.1520  -41.7550 H   0  0  0  0  0  0  0  0  0  0  0  0
   93.9550   92.9150  -42.7640 H   0  0  0  0  0  0  0  0  0  0  0  0
  2  3  1  0  0  0  0
  2  1  1  0  0  0  0
  3 28  1  0  0  0  0
  4  3  2  0  0  0  0
  5  4  1  0  0  0  0
  6  7  1  0  0  0  0
  6  5  2  0  0  0  0
  7  2  2  0  0  0  0
  8  6  1  0  0  0  0
  8  9  2  0  0  0  0
 10  8  1  0  0  0  0
 11 10  1  0  0  0  0
 11 33  1  0  0  0  0
 11 32  1  0  0  0  0
 12 13  1  0  0  0  0
 12 11  1  0  0  0  0
 13 27  1  0  0  0  0
 14 25  1  0  0  0  0
 14 13  2  0  0  0  0
 15 14  1  0  0  0  0
 16 15  2  0  0  0  0
 16 17  1  0  0  0  0
 17 12  2  0  0  0  0
 18 17  1  0  0  0  0
 18 35  1  0  0  0  0
 19 37  1  0  0  0  0
 19 18  1  0  0  0  0
 20 21  1  0  0  0  0
 20 19  1  0  0  0  0
 21 16  1  0  0  0  0
 22 21  2  0  0  0  0
 23 20  1  0  0  0  0
 24 15  1  0  0  0  0
 25 26  1  0  0  0  0
 26 27  1  0  0  0  0
 26 42  1  0  0  0  0
 29  5  1  0  0  0  0
 30  7  1  0  0  0  0
 31 10  1  0  0  0  0
 34 18  1  0  0  0  0
 36 19  1  0  0  0  0
 38 23  1  0  0  0  0
 39 23  1  0  0  0  0
 40 23  1  0  0  0  0
 41 24  1  0  0  0  0
 43 26  1  0  0  0  0
M  END
>  <Pose>
1

>  <Score>
-5.91

$$$$
