
 OpenBabel03212208273D

 48 52  0  0  1  0  0  0  0  0999 V2000
   91.6940   91.1800  -46.3080 Cl  0  0  0  0  0  0  0  0  0  0  0  0
   91.7070   92.7170  -45.4370 C   0  0  0  0  0  0  0  0  0  0  0  0
   92.0750   92.7440  -44.1100 C   0  0  0  0  0  0  0  0  0  0  0  0
   92.0950   93.9220  -43.4050 C   0  0  0  0  0  0  0  0  0  0  0  0
   91.7490   95.1180  -44.0010 C   0  0  0  0  0  0  0  0  0  0  0  0
   91.3820   95.0730  -45.3290 C   0  0  0  0  0  0  0  0  0  0  0  0
   91.3570   93.9000  -46.0490 C   0  0  0  0  0  0  0  0  0  0  0  0
   91.7890   96.3030  -43.2200 N   0  0  0  0  0  0  0  0  0  0  0  0
   92.1680   96.3460  -41.8480 C   0  0  0  0  0  0  0  0  0  0  0  0
   92.1950   97.4590  -41.1530 C   0  0  0  0  0  0  0  0  0  0  0  0
   91.8590   98.7440  -41.6580 N   0  0  0  0  0  0  0  0  0  0  0  0
   90.7140   98.8490  -42.5310 C   0  0  0  0  0  0  0  0  0  0  0  0
   89.8140   99.9340  -41.9980 C   0  0  0  0  0  0  0  0  0  0  0  0
   90.5310  101.1310  -41.6040 N   0  0  2  0  0  0  0  0  0  0  0  0
   91.7010  100.9980  -40.7580 C   0  0  0  0  0  0  0  0  0  0  0  0
   92.6010   99.9470  -41.3540 C   0  0  0  0  0  0  0  0  0  0  0  0
   90.0790  102.4120  -42.0480 C   0  0  2  0  0  0  0  0  0  0  0  0
   89.2310  103.1080  -41.2660 N   0  0  0  0  0  0  0  0  0  0  0  0
   88.7750  104.3330  -41.6520 C   0  0  0  0  0  0  0  0  0  0  0  0
   89.1620  104.8750  -42.8270 N   0  0  0  0  0  0  0  0  0  0  0  0
   90.0020  104.2330  -43.6450 C   0  0  0  0  0  0  0  0  0  0  0  0
   90.5380  104.5320  -44.8420 N   0  0  0  0  0  0  0  0  0  0  0  0
   91.3100  103.5190  -45.1940 N   0  0  0  0  0  0  0  0  0  0  0  0
   91.2820  102.5540  -44.2310 C   0  0  0  0  0  0  0  0  0  0  0  0
   90.4600  102.9790  -43.2350 C   0  0  0  0  0  0  0  0  0  0  0  0
   90.3270  105.7470  -45.6350 C   0  0  0  0  0  0  0  0  0  0  0  0
   92.5270   95.1210  -41.2270 N   0  0  0  0  0  0  0  0  0  0  0  0
   92.4940   93.9330  -41.9830 C   0  0  0  0  0  0  0  0  0  0  0  0
   92.8020   92.7980  -41.4930 O   0  0  0  0  0  0  0  0  0  0  0  0
   92.3520   91.8030  -43.6310 H   0  0  0  0  0  0  0  0  0  0  0  0
   91.1070   95.9940  -45.8150 H   0  0  0  0  0  0  0  0  0  0  0  0
   91.0720   93.8640  -47.0840 H   0  0  0  0  0  0  0  0  0  0  0  0
   91.5290   97.2100  -43.6610 H   0  0  0  0  0  0  0  0  0  0  0  0
   92.4940   97.4210  -40.1080 H   0  0  0  0  0  0  0  0  0  0  0  0
   90.9940   99.1390  -43.5650 H   0  0  0  0  0  0  0  0  0  0  0  0
   90.1210   97.9120  -42.5430 H   0  0  0  0  0  0  0  0  0  0  0  0
   89.1340  100.2020  -42.8610 H   0  0  0  0  0  0  0  0  0  0  0  0
   89.1100   99.5760  -41.2140 H   0  0  0  0  0  0  0  0  0  0  0  0
   92.2490  101.9850  -40.7930 H   0  0  0  0  0  0  0  0  0  0  0  0
   91.4610  100.7220  -39.7170 H   0  0  0  0  0  0  0  0  0  0  0  0
   93.4930   99.7480  -40.7330 H   0  0  0  0  0  0  0  0  0  0  0  0
   92.9510  100.3670  -42.3420 H   0  0  0  0  0  0  0  0  0  0  0  0
   88.0910  104.8580  -40.9880 H   0  0  0  0  0  0  0  0  0  0  0  0
   91.8090  101.6110  -44.2360 H   0  0  0  0  0  0  0  0  0  0  0  0
   91.2620  106.0390  -46.1620 H   0  0  0  0  0  0  0  0  0  0  0  0
   90.0910  106.5990  -44.9480 H   0  0  0  0  0  0  0  0  0  0  0  0
   89.5450  105.5880  -46.4010 H   0  0  0  0  0  0  0  0  0  0  0  0
   92.8160   95.0700  -40.2240 H   0  0  0  0  0  0  0  0  0  0  0  0
  1  2  1  0  0  0  0
  2  3  1  0  0  0  0
  3 30  1  0  0  0  0
  3  4  2  0  0  0  0
  4 28  1  0  0  0  0
  5  4  1  0  0  0  0
  5  8  1  0  0  0  0
  6  5  2  0  0  0  0
  7  2  2  0  0  0  0
  7  6  1  0  0  0  0
  8  9  1  0  0  0  0
  9 27  1  0  0  0  0
  9 10  2  0  0  0  0
 10 34  1  0  0  0  0
 11 16  1  0  0  0  0
 11 10  1  0  0  0  0
 12 13  1  0  0  0  0
 12 11  1  0  0  0  0
 13 38  1  0  0  0  0
 14 13  1  1  0  0  0
 14 15  1  0  0  0  0
 15 40  1  0  0  0  0
 16 15  1  0  0  0  0
 16 41  1  0  0  0  0
 17 25  1  6  0  0  0
 17 14  1  0  0  0  0
 17 18  1  0  0  0  0
 19 18  2  0  0  0  0
 19 43  1  0  0  0  0
 20 19  1  0  0  0  0
 21 25  2  0  0  0  0
 21 20  1  0  0  0  0
 22 21  1  0  0  0  0
 23 22  1  0  0  0  0
 23 24  2  0  0  0  0
 24 25  1  0  0  0  0
 26 46  1  0  0  0  0
 26 22  1  0  0  0  0
 27 48  1  0  0  0  0
 28 29  2  0  0  0  0
 28 27  1  0  0  0  0
 31  6  1  0  0  0  0
 32  7  1  0  0  0  0
 33  8  1  0  0  0  0
 35 12  1  0  0  0  0
 36 12  1  0  0  0  0
 37 13  1  0  0  0  0
 39 15  1  0  0  0  0
 42 16  1  0  0  0  0
 44 24  1  0  0  0  0
 45 26  1  0  0  0  0
 47 26  1  0  0  0  0
M  END
>  <Pose>
1

>  <Score>
-5.28

$$$$
