
 OpenBabel03212208273D

 47 50  0  0  1  0  0  0  0  0999 V2000
   87.7920   98.4880  -45.2350 S   0  0  0  0  0  0  0  0  0  0  0  0
   87.1310   99.3270  -44.1990 O   0  0  0  0  0  0  0  0  0  0  0  0
   87.1850   97.1000  -45.2620 O   0  0  0  0  0  0  0  0  0  0  0  0
   89.4630   98.3250  -45.0010 N   0  0  0  0  0  0  0  0  0  0  0  0
   90.1040   97.5090  -45.9310 C   0  0  0  0  0  0  0  0  0  0  0  0
   91.4480   96.9860  -45.6780 C   0  0  1  0  0  0  0  0  0  0  0  0
   92.1230   97.7360  -44.5590 C   0  0  0  0  0  0  0  0  0  0  0  0
   91.2190   97.7440  -43.3790 C   0  0  0  0  0  0  0  0  0  0  0  0
   89.9540   98.4800  -43.7120 C   0  0  0  0  0  0  0  0  0  0  0  0
   91.5150   95.5300  -45.3780 C   0  0  0  0  0  0  0  0  0  0  0  0
   91.3890   94.5840  -46.3070 N   0  0  0  0  0  0  0  0  0  0  0  0
   91.4480   93.2760  -46.0020 C   0  0  0  0  0  0  0  0  0  0  0  0
   91.3530   92.1330  -46.7350 N   0  0  0  0  0  0  0  0  0  0  0  0
   91.4880   91.1360  -45.8880 N   0  0  0  0  0  0  0  0  0  0  0  0
   91.6640   91.5700  -44.6540 N   0  0  0  0  0  0  0  0  0  0  0  0
   91.6460   92.9080  -44.6780 C   0  0  0  0  0  0  0  0  0  0  0  0
   91.7780   93.8800  -43.7020 C   0  0  0  0  0  0  0  0  0  0  0  0
   91.7050   95.1540  -44.1100 N   0  0  0  0  0  0  0  0  0  0  0  0
   91.9760   93.5320  -42.3730 O   0  0  0  0  0  0  0  0  0  0  0  0
   91.1470   92.0470  -48.1470 C   0  0  0  0  0  0  0  0  0  0  0  0
   90.8070   90.6810  -48.6160 C   0  0  0  0  0  0  0  0  0  0  0  0
   91.7780   89.7140  -48.5740 C   0  0  0  0  0  0  0  0  0  0  0  0
   91.5430   88.4070  -48.9950 C   0  0  0  0  0  0  0  0  0  0  0  0
   90.3000   88.0510  -49.4730 C   0  0  0  0  0  0  0  0  0  0  0  0
   89.3190   89.0170  -49.5170 C   0  0  0  0  0  0  0  0  0  0  0  0
   89.5660   90.3210  -49.0930 C   0  0  0  0  0  0  0  0  0  0  0  0
   93.3800   90.0980  -47.9780 Cl  0  0  0  0  0  0  0  0  0  0  0  0
   87.4340   99.1920  -46.8510 C   0  0  0  0  0  0  0  0  0  0  0  0
   90.0810   98.0370  -46.9320 H   0  0  0  0  0  0  0  0  0  0  0  0
   89.4280   96.6170  -46.1160 H   0  0  0  0  0  0  0  0  0  0  0  0
   92.1000   97.1910  -46.5900 H   0  0  0  0  0  0  0  0  0  0  0  0
   93.1200   97.2950  -44.3510 H   0  0  0  0  0  0  0  0  0  0  0  0
   92.2960   98.8000  -44.8530 H   0  0  0  0  0  0  0  0  0  0  0  0
   91.7560   98.3490  -42.5820 H   0  0  0  0  0  0  0  0  0  0  0  0
   91.0240   96.7820  -42.9030 H   0  0  0  0  0  0  0  0  0  0  0  0
   89.2050   98.2110  -42.9230 H   0  0  0  0  0  0  0  0  0  0  0  0
   90.1570   99.5760  -43.5370 H   0  0  0  0  0  0  0  0  0  0  0  0
   91.3770   92.8500  -41.9340 H   0  0  0  0  0  0  0  0  0  0  0  0
   92.0320   92.3700  -48.7410 H   0  0  0  0  0  0  0  0  0  0  0  0
   90.2580   92.6870  -48.4100 H   0  0  0  0  0  0  0  0  0  0  0  0
   92.2990   87.6340  -48.9680 H   0  0  0  0  0  0  0  0  0  0  0  0
   90.1070   87.0230  -49.8070 H   0  0  0  0  0  0  0  0  0  0  0  0
   88.3280   88.7340  -49.8980 H   0  0  0  0  0  0  0  0  0  0  0  0
   88.7840   91.0650  -49.1360 H   0  0  0  0  0  0  0  0  0  0  0  0
   87.7410  100.2450  -46.8950 H   0  0  0  0  0  0  0  0  0  0  0  0
   87.9590   98.5490  -47.5860 H   0  0  0  0  0  0  0  0  0  0  0  0
   86.3300   99.1620  -46.9510 H   0  0  0  0  0  0  0  0  0  0  0  0
  1  4  1  0  0  0  0
  1  2  2  0  0  0  0
  3  1  2  0  0  0  0
  4  9  1  0  0  0  0
  5  6  1  0  0  0  0
  5  4  1  0  0  0  0
  6 31  1  6  0  0  0
  6 10  1  0  0  0  0
  6  7  1  0  0  0  0
  7 32  1  0  0  0  0
  7  8  1  0  0  0  0
  8 35  1  0  0  0  0
  8 34  1  0  0  0  0
  9 37  1  0  0  0  0
  9  8  1  0  0  0  0
  9 36  1  0  0  0  0
 10 18  1  0  0  0  0
 11 12  1  0  0  0  0
 11 10  2  0  0  0  0
 12 16  2  0  0  0  0
 13 12  1  0  0  0  0
 13 14  1  0  0  0  0
 14 15  2  0  0  0  0
 16 15  1  0  0  0  0
 16 17  1  0  0  0  0
 17 19  1  0  0  0  0
 18 17  2  0  0  0  0
 19 38  1  0  0  0  0
 20 13  1  0  0  0  0
 21 22  1  0  0  0  0
 21 20  1  0  0  0  0
 22 27  1  0  0  0  0
 23 41  1  0  0  0  0
 23 22  2  0  0  0  0
 24 23  1  0  0  0  0
 25 24  2  0  0  0  0
 25 26  1  0  0  0  0
 26 21  2  0  0  0  0
 28  1  1  0  0  0  0
 29  5  1  0  0  0  0
 30  5  1  0  0  0  0
 33  7  1  0  0  0  0
 39 20  1  0  0  0  0
 40 20  1  0  0  0  0
 42 24  1  0  0  0  0
 43 25  1  0  0  0  0
 44 26  1  0  0  0  0
 45 28  1  0  0  0  0
 46 28  1  0  0  0  0
 47 28  1  0  0  0  0
M  END
>  <Pose>
1

>  <Score>
-5.40

$$$$
