
 OpenBabel03212208273D

 56 59  0  0  0  0  0  0  0  0999 V2000
   89.6500  100.4530  -42.2780 B   0  0  0  0  0  0  0  0  0  0  0  0
   87.7940  100.2710  -42.6670 C   0  0  0  0  0  0  0  0  0  0  0  0
   87.3260   99.1080  -43.3020 C   0  0  0  0  0  0  0  0  0  0  0  0
   86.0080   99.0010  -43.5690 C   0  0  0  0  0  0  0  0  0  0  0  0
   85.1160   99.9950  -43.2320 C   0  0  0  0  0  0  0  0  0  0  0  0
   85.6040  101.1450  -42.5950 C   0  0  0  0  0  0  0  0  0  0  0  0
   86.9470  101.2920  -42.3110 C   0  0  0  0  0  0  0  0  0  0  0  0
   83.7670   99.8450  -43.5160 O   0  0  0  0  0  0  0  0  0  0  0  0
   82.7940   99.3520  -42.6620 C   0  0  0  0  0  0  0  0  0  0  0  0
   85.4870   97.7490  -44.1440 C   0  0  0  0  0  0  0  0  0  0  0  0
   86.0800   97.3580  -45.2800 C   0  0  0  0  0  0  0  0  0  0  0  0
   87.1050   98.0590  -45.9040 O   0  0  0  0  0  0  0  0  0  0  0  0
   87.5060   97.3490  -47.0440 C   0  0  0  0  0  0  0  0  0  0  0  0
   86.7930   96.2030  -47.2190 C   0  0  0  0  0  0  0  0  0  0  0  0
   87.0410   95.3440  -48.2650 C   0  0  0  0  0  0  0  0  0  0  0  0
   88.0460   95.6400  -49.1800 C   0  0  0  0  0  0  0  0  0  0  0  0
   88.7710   96.8190  -48.9960 C   0  0  0  0  0  0  0  0  0  0  0  0
   88.5210   97.6650  -47.9640 C   0  0  0  0  0  0  0  0  0  0  0  0
   89.1120   99.0120  -47.8160 C   0  0  0  0  0  0  0  0  0  0  0  0
   90.2060   99.0550  -46.9650 N   0  0  0  0  0  4  0  0  0  0  0  0
   89.8080   99.3170  -45.5460 C   0  0  0  0  0  0  0  0  0  0  0  0
   90.5690   98.2360  -44.7380 C   0  0  0  0  0  0  0  0  0  0  0  0
   91.5970   97.6730  -45.5540 N   0  0  0  0  0  0  0  0  0  0  0  0
   92.4080   98.6000  -46.2410 C   0  0  0  0  0  0  0  0  0  0  0  0
   91.4930   99.5390  -47.1420 C   0  0  0  0  0  0  0  0  0  0  0  0
   91.7200   96.3040  -45.6330 C   0  0  0  0  0  0  0  0  0  0  0  0
   90.5520   95.4570  -46.0280 C   0  0  0  0  0  0  0  0  0  0  0  0
   90.9200   94.1060  -46.1290 O   0  0  0  0  0  0  0  0  0  0  0  0
   89.7580   97.0440  -49.9550 O   0  0  0  0  0  0  0  0  0  0  0  0
   85.8350   96.1730  -46.0750 C   0  0  0  0  0  0  0  0  0  0  0  0
   84.9840   95.3030  -45.8490 O   0  0  0  0  0  0  0  0  0  0  0  0
   88.0770   98.3660  -43.5250 H   0  0  0  0  0  0  0  0  0  0  0  0
   84.9400  101.9490  -42.3160 H   0  0  0  0  0  0  0  0  0  0  0  0
   87.2870  102.2200  -41.8140 H   0  0  0  0  0  0  0  0  0  0  0  0
   82.6670   99.8840  -41.7200 H   0  0  0  0  0  0  0  0  0  0  0  0
   81.8080   99.3940  -43.1960 H   0  0  0  0  0  0  0  0  0  0  0  0
   82.9790   98.2610  -42.4260 H   0  0  0  0  0  0  0  0  0  0  0  0
   84.6900   97.1950  -43.7160 H   0  0  0  0  0  0  0  0  0  0  0  0
   86.4430   94.4390  -48.3620 H   0  0  0  0  0  0  0  0  0  0  0  0
   88.2200   94.9550  -49.9970 H   0  0  0  0  0  0  0  0  0  0  0  0
   89.3830   99.3680  -48.8720 H   0  0  0  0  0  0  0  0  0  0  0  0
   88.2890   99.7280  -47.5510 H   0  0  0  0  0  0  0  0  0  0  0  0
   90.3530   97.9220  -46.8530 H   0  0  0  0  0  0  0  0  0  0  0  0
   88.7200   99.1970  -45.4450 H   0  0  0  0  0  0  0  0  0  0  0  0
   90.1820  100.3180  -45.2820 H   0  0  0  0  0  0  0  0  0  0  0  0
   90.9720   98.7210  -43.8370 H   0  0  0  0  0  0  0  0  0  0  0  0
   89.8340   97.4850  -44.4660 H   0  0  0  0  0  0  0  0  0  0  0  0
   92.8380   99.2930  -45.5020 H   0  0  0  0  0  0  0  0  0  0  0  0
   93.1840   98.1550  -46.8250 H   0  0  0  0  0  0  0  0  0  0  0  0
   91.5470  100.5870  -46.7080 H   0  0  0  0  0  0  0  0  0  0  0  0
   91.9640   99.5680  -48.1190 H   0  0  0  0  0  0  0  0  0  0  0  0
   92.5460   96.0220  -46.3960 H   0  0  0  0  0  0  0  0  0  0  0  0
   92.1550   95.8750  -44.6790 H   0  0  0  0  0  0  0  0  0  0  0  0
   90.0180   95.7500  -46.9300 H   0  0  0  0  0  0  0  0  0  0  0  0
   89.7880   95.5020  -45.1930 H   0  0  0  0  0  0  0  0  0  0  0  0
   90.1190   93.5330  -45.8930 H   0  0  0  0  0  0  0  0  0  0  0  0
  2  7  1  0  0  0  0
  2  1  1  0  0  0  0
  3  2  2  0  0  0  0
  4  3  1  0  0  0  0
  4  5  2  0  0  0  0
  5  6  1  0  0  0  0
  6 33  1  0  0  0  0
  6  7  2  0  0  0  0
  7 34  1  0  0  0  0
  8  5  1  0  0  0  0
  8  9  1  0  0  0  0
  9 37  1  0  0  0  0
  9 35  1  0  0  0  0
 10 38  1  0  0  0  0
 10  4  1  0  0  0  0
 11 10  2  0  0  0  0
 12 11  1  0  0  0  0
 13 12  1  0  0  0  0
 14 13  1  0  0  0  0
 14 30  1  0  0  0  0
 15 14  2  0  0  0  0
 16 17  2  0  0  0  0
 16 15  1  0  0  0  0
 17 18  1  0  0  0  0
 18 19  1  0  0  0  0
 18 13  2  0  0  0  0
 19 42  1  0  0  0  0
 19 20  1  0  0  0  0
 20 43  1  0  0  0  0
 20 21  1  0  0  0  0
 21 44  1  0  0  0  0
 21 45  1  0  0  0  0
 21 22  1  0  0  0  0
 22 47  1  0  0  0  0
 22 46  1  0  0  0  0
 23 22  1  0  0  0  0
 24 23  1  0  0  0  0
 24 48  1  0  0  0  0
 25 20  1  0  0  0  0
 25 50  1  0  0  0  0
 25 24  1  0  0  0  0
 26 23  1  0  0  0  0
 26 53  1  0  0  0  0
 27 26  1  0  0  0  0
 27 55  1  0  0  0  0
 28 27  1  0  0  0  0
 28 56  1  0  0  0  0
 29 17  1  0  0  0  0
 30 31  2  0  0  0  0
 30 11  1  0  0  0  0
 32  3  1  0  0  0  0
 36  9  1  0  0  0  0
 39 15  1  0  0  0  0
 40 16  1  0  0  0  0
 41 19  1  0  0  0  0
 49 24  1  0  0  0  0
 51 25  1  0  0  0  0
 52 26  1  0  0  0  0
 54 27  1  0  0  0  0
M  END
>  <Pose>
1

>  <Score>
-4.36

$$$$
