
 OpenBabel03212208273D

 51 55  0  0  1  0  0  0  0  0999 V2000
   94.0230  101.9370  -38.6830 Cl  0  0  0  0  0  0  0  0  0  0  0  0
   93.7860  101.6990  -40.4010 C   0  0  0  0  0  0  0  0  0  0  0  0
   93.1110  100.6200  -40.9040 C   0  0  0  0  0  0  0  0  0  0  0  0
   92.9450  100.4690  -42.2830 C   0  0  0  0  0  0  0  0  0  0  0  0
   93.4730  101.4250  -43.0990 C   0  0  0  0  0  0  0  0  0  0  0  0
   94.1660  102.5330  -42.5860 C   0  0  0  0  0  0  0  0  0  0  0  0
   94.3290  102.6810  -41.2380 C   0  0  0  0  0  0  0  0  0  0  0  0
   93.1920  101.0750  -44.4510 N   0  0  0  0  0  0  0  0  0  0  0  0
   92.4680   99.8690  -44.4840 C   0  0  0  0  0  0  0  0  0  0  0  0
   92.0760   99.3040  -45.5540 O   0  0  0  0  0  0  0  0  0  0  0  0
   92.2790   99.4370  -43.0960 C   0  0  1  0  0  0  0  0  0  0  0  0
   92.9470   98.1870  -42.8090 N   0  0  0  0  0  0  0  0  0  0  0  0
   91.9850   97.1810  -42.4860 C   0  0  2  0  0  0  0  0  0  0  0  0
   90.6690   97.7750  -42.8010 C   0  0  1  0  0  0  0  0  0  0  0  0
   90.8230   99.2690  -42.7300 C   0  0  2  0  0  0  0  0  0  0  0  0
   89.9090   99.7380  -43.7940 C   0  0  0  0  0  0  0  0  0  0  0  0
   89.4100  100.8810  -43.9470 O   0  0  0  0  0  0  0  0  0  0  0  0
   89.6300   98.6570  -44.7100 N   0  0  0  0  0  0  0  0  0  0  0  0
   90.3820   97.5360  -44.2590 C   0  0  0  0  0  0  0  0  0  0  0  0
   90.7160   96.5610  -44.9710 O   0  0  0  0  0  0  0  0  0  0  0  0
   88.7540   98.7250  -45.8600 C   0  0  0  0  0  0  0  0  0  0  0  0
   87.3470   99.1290  -45.5100 C   0  0  1  0  0  0  0  0  0  0  0  0
   86.5730   99.1720  -46.6670 O   0  0  0  0  0  0  0  0  0  0  0  0
   85.9950   97.9320  -46.8160 C   0  0  0  0  0  0  0  0  0  0  0  0
   85.8430   97.3150  -45.4430 C   0  0  0  0  0  0  0  0  0  0  0  0
   86.6630   98.2230  -44.5480 C   0  0  0  0  0  0  0  0  0  0  0  0
   92.1210   96.6740  -41.0760 C   0  0  0  0  0  0  0  0  0  0  0  0
   92.1380   95.2290  -40.9440 C   0  0  0  0  0  0  0  0  0  0  0  0
   91.0660   94.5940  -40.8520 O   0  0  0  0  0  0  0  0  0  0  0  0
   93.3560   94.5150  -40.9160 N   0  0  0  0  0  0  0  0  0  0  0  0
   92.7010   99.8790  -40.2670 H   0  0  0  0  0  0  0  0  0  0  0  0
   94.5570  103.2490  -43.2770 H   0  0  0  0  0  0  0  0  0  0  0  0
   94.8630  103.5390  -40.8620 H   0  0  0  0  0  0  0  0  0  0  0  0
   93.4740  101.6260  -45.3170 H   0  0  0  0  0  0  0  0  0  0  0  0
   93.6160   98.2560  -42.0110 H   0  0  0  0  0  0  0  0  0  0  0  0
   92.1690   96.3350  -43.2120 H   0  0  0  0  0  0  0  0  0  0  0  0
   89.8180   97.4080  -42.1930 H   0  0  0  0  0  0  0  0  0  0  0  0
   90.5720   99.6910  -41.7410 H   0  0  0  0  0  0  0  0  0  0  0  0
   89.1660   99.4400  -46.6010 H   0  0  0  0  0  0  0  0  0  0  0  0
   88.7450   97.7260  -46.3770 H   0  0  0  0  0  0  0  0  0  0  0  0
   87.3630  100.1550  -45.0910 H   0  0  0  0  0  0  0  0  0  0  0  0
   84.9870   98.0870  -47.2630 H   0  0  0  0  0  0  0  0  0  0  0  0
   86.5470   97.2670  -47.5140 H   0  0  0  0  0  0  0  0  0  0  0  0
   84.7880   97.3720  -45.1260 H   0  0  0  0  0  0  0  0  0  0  0  0
   86.2490   96.2850  -45.4130 H   0  0  0  0  0  0  0  0  0  0  0  0
   87.3400   97.6720  -43.8880 H   0  0  0  0  0  0  0  0  0  0  0  0
   85.9800   98.7980  -43.8550 H   0  0  0  0  0  0  0  0  0  0  0  0
   93.1040   97.0700  -40.6930 H   0  0  0  0  0  0  0  0  0  0  0  0
   91.3560   97.1800  -40.4470 H   0  0  0  0  0  0  0  0  0  0  0  0
   93.8030   94.2280  -41.8180 H   0  0  0  0  0  0  0  0  0  0  0  0
   93.8560   94.2440  -40.0480 H   0  0  0  0  0  0  0  0  0  0  0  0
  2  1  1  0  0  0  0
  3  2  1  0  0  0  0
  3 31  1  0  0  0  0
  4  3  2  0  0  0  0
  5  6  2  0  0  0  0
  5  4  1  0  0  0  0
  6  7  1  0  0  0  0
  7 33  1  0  0  0  0
  7  2  2  0  0  0  0
  8  5  1  0  0  0  0
  9  8  1  0  0  0  0
 10  9  2  0  0  0  0
 11  9  1  6  0  0  0
 11 12  1  0  0  0  0
 11 15  1  0  0  0  0
 11  4  1  0  0  0  0
 12 13  1  0  0  0  0
 12 35  1  0  0  0  0
 13 36  1  6  0  0  0
 13 27  1  0  0  0  0
 14 15  1  0  0  0  0
 14 13  1  0  0  0  0
 14 37  1  1  0  0  0
 15 38  1  1  0  0  0
 16 15  1  0  0  0  0
 17 16  2  0  0  0  0
 18 19  1  0  0  0  0
 18 16  1  0  0  0  0
 19 14  1  0  0  0  0
 20 19  2  0  0  0  0
 21 22  1  0  0  0  0
 21 18  1  0  0  0  0
 22 41  1  1  0  0  0
 22 26  1  0  0  0  0
 23 22  1  0  0  0  0
 24 23  1  0  0  0  0
 24 25  1  0  0  0  0
 25 45  1  0  0  0  0
 25 44  1  0  0  0  0
 25 26  1  0  0  0  0
 26 46  1  0  0  0  0
 26 47  1  0  0  0  0
 27 28  1  0  0  0  0
 27 48  1  0  0  0  0
 27 49  1  0  0  0  0
 28 30  1  0  0  0  0
 28 29  2  0  0  0  0
 30 51  1  0  0  0  0
 32  6  1  0  0  0  0
 34  8  1  0  0  0  0
 39 21  1  0  0  0  0
 40 21  1  0  0  0  0
 42 24  1  0  0  0  0
 43 24  1  0  0  0  0
 50 30  1  0  0  0  0
M  END
>  <Pose>
1

>  <Score>
-5.92

$$$$
