
 OpenBabel03212208273D

 41 43  0  0  1  0  0  0  0  0999 V2000
   91.2920   96.8540  -43.8180 Cl  0  0  0  0  0  0  0  0  0  0  0  0
   91.4130   95.3170  -44.6720 C   0  0  0  0  0  0  0  0  0  0  0  0
   90.6200   95.0930  -45.7770 C   0  0  0  0  0  0  0  0  0  0  0  0
   90.7290   93.8860  -46.4310 C   0  0  0  0  0  0  0  0  0  0  0  0
   91.6090   92.8760  -46.0280 C   0  0  0  0  0  0  0  0  0  0  0  0
   92.3910   93.1080  -44.9330 C   0  0  0  0  0  0  0  0  0  0  0  0
   92.2930   94.3290  -44.2560 C   0  0  0  0  0  0  0  0  0  0  0  0
   91.6290   91.6600  -46.8010 C   0  0  0  0  0  0  0  0  0  0  0  0
   91.1840   90.5970  -46.2840 O   0  0  0  0  0  0  0  0  0  0  0  0
   92.1510   91.6790  -48.1310 N   0  0  0  0  0  0  0  0  0  0  0  0
   91.3180   91.1790  -49.1840 C   0  0  0  0  0  0  0  0  0  0  0  0
   91.5670   89.7990  -49.6450 C   0  0  2  0  0  0  0  0  0  0  0  0
   90.4640   89.0840  -50.2110 N   0  0  1  0  0  0  0  0  0  0  0  0
   91.0490   88.2830  -51.3140 C   0  0  0  0  0  0  0  0  0  0  0  0
   92.2930   87.6440  -50.6850 C   0  0  0  0  0  0  0  0  0  0  0  0
   92.1920   87.5580  -49.2420 N   0  0  1  0  0  0  0  0  0  0  0  0
   92.1990   88.8810  -48.6120 C   0  0  0  0  0  0  0  0  0  0  0  0
   90.8820   87.0030  -48.9460 C   0  0  0  0  0  0  0  0  0  0  0  0
   89.8800   88.0790  -49.3460 C   0  0  0  0  0  0  0  0  0  0  0  0
   89.7370   96.0770  -46.2000 O   0  0  0  0  0  0  0  0  0  0  0  0
   89.1840   96.0600  -47.5020 C   0  0  0  0  0  0  0  0  0  0  0  0
   90.0840   93.7470  -47.2990 H   0  0  0  0  0  0  0  0  0  0  0  0
   93.0850   92.3850  -44.5690 H   0  0  0  0  0  0  0  0  0  0  0  0
   92.9220   94.4890  -43.3920 H   0  0  0  0  0  0  0  0  0  0  0  0
   93.0900   92.0470  -48.2790 H   0  0  0  0  0  0  0  0  0  0  0  0
   90.2580   91.2770  -48.9080 H   0  0  0  0  0  0  0  0  0  0  0  0
   91.4950   91.8540  -50.0710 H   0  0  0  0  0  0  0  0  0  0  0  0
   92.3830   89.8920  -50.4390 H   0  0  0  0  0  0  0  0  0  0  0  0
   91.3390   89.0240  -52.0810 H   0  0  0  0  0  0  0  0  0  0  0  0
   90.3270   87.5370  -51.6520 H   0  0  0  0  0  0  0  0  0  0  0  0
   92.2910   86.5980  -51.0590 H   0  0  0  0  0  0  0  0  0  0  0  0
   93.2040   88.1350  -51.0420 H   0  0  0  0  0  0  0  0  0  0  0  0
   91.6300   88.8040  -47.6850 H   0  0  0  0  0  0  0  0  0  0  0  0
   93.2480   89.1980  -48.4240 H   0  0  0  0  0  0  0  0  0  0  0  0
   90.8450   86.8460  -47.8500 H   0  0  0  0  0  0  0  0  0  0  0  0
   90.7890   86.0800  -49.5280 H   0  0  0  0  0  0  0  0  0  0  0  0
   89.3050   88.4500  -48.5070 H   0  0  0  0  0  0  0  0  0  0  0  0
   89.1440   87.5220  -50.0100 H   0  0  0  0  0  0  0  0  0  0  0  0
   88.5790   95.1320  -47.5770 H   0  0  0  0  0  0  0  0  0  0  0  0
   89.9920   95.9710  -48.2760 H   0  0  0  0  0  0  0  0  0  0  0  0
   88.5560   96.9400  -47.6390 H   0  0  0  0  0  0  0  0  0  0  0  0
  2  7  1  0  0  0  0
  2  1  1  0  0  0  0
  3  2  2  0  0  0  0
  4  5  2  0  0  0  0
  4  3  1  0  0  0  0
  5  6  1  0  0  0  0
  6 23  1  0  0  0  0
  6  7  2  0  0  0  0
  7 24  1  0  0  0  0
  8  9  2  0  0  0  0
  8  5  1  0  0  0  0
 10  8  1  0  0  0  0
 11 26  1  0  0  0  0
 11 10  1  0  0  0  0
 12 28  1  6  0  0  0
 12 11  1  0  0  0  0
 12 17  1  0  0  0  0
 13 14  1  6  0  0  0
 13 12  1  0  0  0  0
 13 19  1  0  0  0  0
 14 15  1  0  0  0  0
 16 15  1  6  0  0  0
 16 18  1  0  0  0  0
 16 17  1  0  0  0  0
 17 34  1  0  0  0  0
 17 33  1  0  0  0  0
 18 35  1  0  0  0  0
 19 18  1  0  0  0  0
 19 37  1  0  0  0  0
 20  3  1  0  0  0  0
 21 20  1  0  0  0  0
 22  4  1  0  0  0  0
 25 10  1  0  0  0  0
 27 11  1  0  0  0  0
 29 14  1  0  0  0  0
 30 14  1  0  0  0  0
 31 15  1  0  0  0  0
 32 15  1  0  0  0  0
 36 18  1  0  0  0  0
 38 19  1  0  0  0  0
 39 21  1  0  0  0  0
 40 21  1  0  0  0  0
 41 21  1  0  0  0  0
M  END
>  <Pose>
1

>  <Score>
-4.10

$$$$
