
 OpenBabel03212208273D

 38 39  0  0  1  0  0  0  0  0999 V2000
   91.8760   92.8110  -43.4030 Cl  0  0  0  0  0  0  0  0  0  0  0  0
   91.8220   94.5280  -43.0720 C   0  0  0  0  0  0  0  0  0  0  0  0
   92.1760   95.0040  -41.8270 C   0  0  0  0  0  0  0  0  0  0  0  0
   92.1140   96.3680  -41.6400 C   0  0  0  0  0  0  0  0  0  0  0  0
   92.4180   96.9110  -40.5340 O   0  0  0  0  0  0  0  0  0  0  0  0
   91.7220   97.1650  -42.6450 N   0  0  0  0  0  0  0  0  0  0  0  0
   91.3760   96.7540  -43.8490 N   0  0  0  0  0  0  0  0  0  0  0  0
   90.9590   97.6550  -44.9100 C   0  0  1  0  0  0  0  0  0  0  0  0
   89.5780   98.2280  -44.6700 C   0  0  0  0  0  0  0  0  0  0  0  0
   89.6500   99.4070  -43.7150 C   0  0  0  0  0  0  0  0  0  0  0  0
   90.2050   98.9930  -42.3720 C   0  0  0  0  0  0  0  0  0  0  0  0
   91.6630   98.6180  -42.4210 C   0  0  2  0  0  0  0  0  0  0  0  0
   92.2620   99.2460  -43.6280 C   0  0  0  0  0  0  0  0  0  0  0  0
   91.9070   98.8280  -44.8380 C   0  0  0  0  0  0  0  0  0  0  0  0
   91.4290   95.4060  -44.0600 C   0  0  0  0  0  0  0  0  0  0  0  0
   91.0990   94.9780  -45.2180 O   0  0  0  0  0  0  0  0  0  0  0  0
   92.5870   94.1570  -40.7580 N   0  0  0  0  0  0  0  0  0  0  0  0
   93.6250   93.1670  -40.8550 C   0  0  0  0  0  0  0  0  0  0  0  0
   93.3340   92.1450  -41.9410 C   0  0  0  0  0  0  0  0  0  0  0  0
   94.9890   93.7210  -41.0970 C   0  0  0  0  0  0  0  0  0  0  0  0
   91.0170   97.1920  -45.8950 H   0  0  0  0  0  0  0  0  0  0  0  0
   88.8460   97.4760  -44.3510 H   0  0  0  0  0  0  0  0  0  0  0  0
   89.2230   98.6320  -45.6430 H   0  0  0  0  0  0  0  0  0  0  0  0
   88.6100   99.7450  -43.5390 H   0  0  0  0  0  0  0  0  0  0  0  0
   90.2810  100.1890  -44.1660 H   0  0  0  0  0  0  0  0  0  0  0  0
   89.5790   98.1130  -42.0420 H   0  0  0  0  0  0  0  0  0  0  0  0
   89.9910   99.7920  -41.6350 H   0  0  0  0  0  0  0  0  0  0  0  0
   92.2050   98.8930  -41.4950 H   0  0  0  0  0  0  0  0  0  0  0  0
   92.9950  100.0500  -43.5330 H   0  0  0  0  0  0  0  0  0  0  0  0
   92.2710   99.2940  -45.7460 H   0  0  0  0  0  0  0  0  0  0  0  0
   92.0530   94.3130  -39.8510 H   0  0  0  0  0  0  0  0  0  0  0  0
   93.6530   92.6010  -39.9030 H   0  0  0  0  0  0  0  0  0  0  0  0
   93.2870   92.6320  -42.9410 H   0  0  0  0  0  0  0  0  0  0  0  0
   94.1940   91.4520  -41.9620 H   0  0  0  0  0  0  0  0  0  0  0  0
   92.4220   91.5520  -41.7250 H   0  0  0  0  0  0  0  0  0  0  0  0
   95.6660   92.8470  -41.2570 H   0  0  0  0  0  0  0  0  0  0  0  0
   95.3910   94.3070  -40.2340 H   0  0  0  0  0  0  0  0  0  0  0  0
   95.0180   94.2960  -42.0320 H   0  0  0  0  0  0  0  0  0  0  0  0
  2  3  2  0  0  0  0
  3  4  1  0  0  0  0
  3 17  1  0  0  0  0
  4  5  2  0  0  0  0
  6 12  1  0  0  0  0
  6  4  1  0  0  0  0
  7  6  1  0  0  0  0
  8 21  1  6  0  0  0
  8 14  1  0  0  0  0
  8  9  1  0  0  0  0
  8  7  1  0  0  0  0
  9 22  1  0  0  0  0
  9 10  1  0  0  0  0
 10 24  1  0  0  0  0
 10 11  1  0  0  0  0
 11 26  1  0  0  0  0
 11 27  1  0  0  0  0
 12 11  1  0  0  0  0
 12 28  1  1  0  0  0
 13 29  1  0  0  0  0
 13 12  1  0  0  0  0
 14 13  2  0  0  0  0
 15  7  1  0  0  0  0
 15  2  1  0  0  0  0
 16 15  2  0  0  0  0
 17 31  1  0  0  0  0
 18 17  1  0  0  0  0
 18 32  1  0  0  0  0
 19 35  1  0  0  0  0
 19 18  1  0  0  0  0
 20 18  1  0  0  0  0
 20 37  1  0  0  0  0
 23  9  1  0  0  0  0
 25 10  1  0  0  0  0
 30 14  1  0  0  0  0
 33 19  1  0  0  0  0
 34 19  1  0  0  0  0
 36 20  1  0  0  0  0
 38 20  1  0  0  0  0
M  END
>  <Pose>
1

>  <Score>
-4.55

$$$$
