
 OpenBabel03212208273D

 59 62  0  0  1  0  0  0  0  0999 V2000
   90.9630   95.2960  -46.3960 Cl  0  0  0  0  0  0  0  0  0  0  0  0
   91.2540   95.7010  -44.6570 C   0  0  2  0  0  0  0  0  0  0  0  0
   91.8090   94.7640  -43.9010 C   0  0  2  0  0  0  0  0  0  0  0  0
   91.9770   95.1340  -42.4740 C   0  0  0  0  0  0  0  0  0  0  0  0
   91.6050   96.3040  -42.1150 N   0  0  0  0  0  0  0  0  0  0  0  0
   91.0550   97.2430  -42.9290 N   0  0  0  0  0  0  0  0  0  0  0  0
   90.8720   96.9590  -44.1890 C   0  0  0  0  0  0  0  0  0  0  0  0
   90.3750   97.7730  -45.0390 O   0  0  0  0  0  0  0  0  0  0  0  0
   90.9530   98.6000  -42.3930 C   0  0  0  0  0  0  0  0  0  0  0  0
   92.0200   99.2750  -41.8940 C   0  0  0  0  0  0  0  0  0  0  0  0
   91.9180  100.5940  -41.5090 C   0  0  0  0  0  0  0  0  0  0  0  0
   90.7090  101.2770  -41.6240 C   0  0  0  0  0  0  0  0  0  0  0  0
   89.6290  100.5560  -42.1320 C   0  0  0  0  0  0  0  0  0  0  0  0
   89.7500   99.2720  -42.5000 C   0  0  0  0  0  0  0  0  0  0  0  0
   92.5220   93.6550  -44.3300 N   0  0  0  0  0  0  0  0  0  0  0  0
   93.5600   93.4360  -45.2460 C   0  0  0  0  0  0  0  0  0  0  0  0
   93.0250   92.4060  -46.3070 C   0  0  0  0  0  0  0  0  0  0  0  0
   91.6760   92.1310  -46.2990 N   0  0  0  0  0  0  0  0  0  0  0  0
   90.9340   92.2710  -45.0750 C   0  0  0  0  0  0  0  0  0  0  0  0
   91.9180   92.3350  -43.8620 C   0  0  0  0  0  0  0  0  0  0  0  0
   91.3060   90.7420  -46.7300 C   0  0  0  0  0  0  0  0  0  0  0  0
   92.2370   90.2800  -47.7490 C   0  0  0  0  0  0  0  0  0  0  0  0
   92.9970   89.4650  -47.8270 O   0  0  0  0  0  0  0  0  0  0  0  0
   92.0900   91.2480  -49.1490 N   0  0  0  0  0  0  0  0  0  0  0  0
   91.4590   90.1620  -49.9790 C   0  0  0  0  0  0  0  0  0  0  0  0
   91.1210   90.2640  -51.1260 O   0  0  0  0  0  0  0  0  0  0  0  0
   91.3270   88.9530  -49.1990 N   0  0  0  0  0  0  0  0  0  0  0  0
   90.7660   87.7200  -49.6060 C   0  0  0  0  0  0  0  0  0  0  0  0
   90.7110   86.5930  -48.6580 C   0  0  0  0  0  0  0  0  0  0  0  0
   89.3600   86.6630  -47.9400 C   0  0  0  0  0  0  0  0  0  0  0  0
   88.4730   87.2080  -49.0350 C   0  0  0  0  0  0  0  0  0  0  0  0
   89.2900   88.0420  -49.9200 C   0  0  0  0  0  0  0  0  0  0  0  0
   92.4010   94.3170  -41.9330 H   0  0  0  0  0  0  0  0  0  0  0  0
   92.9720   98.7590  -41.7710 H   0  0  0  0  0  0  0  0  0  0  0  0
   92.7410  101.1380  -41.1580 H   0  0  0  0  0  0  0  0  0  0  0  0
   90.6780  102.3010  -41.3280 H   0  0  0  0  0  0  0  0  0  0  0  0
   88.7050  101.1280  -42.2320 H   0  0  0  0  0  0  0  0  0  0  0  0
   88.8900   98.7460  -42.8960 H   0  0  0  0  0  0  0  0  0  0  0  0
   94.0310   94.2830  -45.7280 H   0  0  0  0  0  0  0  0  0  0  0  0
   94.3920   92.9340  -44.6760 H   0  0  0  0  0  0  0  0  0  0  0  0
   93.6790   91.4980  -46.1240 H   0  0  0  0  0  0  0  0  0  0  0  0
   93.4470   92.7890  -47.2870 H   0  0  0  0  0  0  0  0  0  0  0  0
   90.3780   93.2350  -44.9710 H   0  0  0  0  0  0  0  0  0  0  0  0
   90.3580   91.3720  -44.8670 H   0  0  0  0  0  0  0  0  0  0  0  0
   91.4380   92.3900  -42.9320 H   0  0  0  0  0  0  0  0  0  0  0  0
   92.6620   91.5240  -44.0580 H   0  0  0  0  0  0  0  0  0  0  0  0
   91.3200   90.1890  -45.8000 H   0  0  0  0  0  0  0  0  0  0  0  0
   90.2900   90.7930  -47.1330 H   0  0  0  0  0  0  0  0  0  0  0  0
   92.4160   91.8020  -48.7190 H   0  0  0  0  0  0  0  0  0  0  0  0
   91.6860   89.0210  -48.1890 H   0  0  0  0  0  0  0  0  0  0  0  0
   91.3130   87.3310  -50.5470 H   0  0  0  0  0  0  0  0  0  0  0  0
   90.6780   85.6470  -49.2500 H   0  0  0  0  0  0  0  0  0  0  0  0
   91.5460   86.5390  -47.9290 H   0  0  0  0  0  0  0  0  0  0  0  0
   89.3990   87.3750  -47.0870 H   0  0  0  0  0  0  0  0  0  0  0  0
   89.0210   85.6460  -47.6100 H   0  0  0  0  0  0  0  0  0  0  0  0
   87.7270   87.8970  -48.4960 H   0  0  0  0  0  0  0  0  0  0  0  0
   87.8860   86.4330  -49.5670 H   0  0  0  0  0  0  0  0  0  0  0  0
   89.0650   88.0110  -51.0050 H   0  0  0  0  0  0  0  0  0  0  0  0
   89.1290   89.1380  -49.5660 H   0  0  0  0  0  0  0  0  0  0  0  0
  2  1  1  1  0  0  0
  2  7  1  0  0  0  0
  2  3  1  0  0  0  0
  3 15  1  6  0  0  0
  3  4  1  0  0  0  0
  4  5  2  0  0  0  0
  4 33  1  0  0  0  0
  6  9  1  0  0  0  0
  6  5  1  0  0  0  0
  7  6  1  0  0  0  0
  8  7  2  0  0  0  0
  9 10  1  0  0  0  0
 10 34  1  0  0  0  0
 10 11  2  0  0  0  0
 11 35  1  0  0  0  0
 12 11  1  0  0  0  0
 12 36  1  0  0  0  0
 13 12  2  0  0  0  0
 14  9  2  0  0  0  0
 14 13  1  0  0  0  0
 15 20  1  0  0  0  0
 16 40  1  0  0  0  0
 16 15  1  0  0  0  0
 17 18  1  0  0  0  0
 17 41  1  0  0  0  0
 17 16  1  0  0  0  0
 18 19  1  0  0  0  0
 19 43  1  0  0  0  0
 19 44  1  0  0  0  0
 19 20  1  0  0  0  0
 20 45  1  0  0  0  0
 21 18  1  0  0  0  0
 21 47  1  0  0  0  0
 22 21  1  0  0  0  0
 23 22  2  0  0  0  0
 24 49  1  0  0  0  0
 24 22  1  0  0  0  0
 25 27  1  0  0  0  0
 25 24  1  0  0  0  0
 26 25  2  0  0  0  0
 27 50  1  0  0  0  0
 28 27  1  0  0  0  0
 28 29  1  0  0  0  0
 29 30  1  0  0  0  0
 29 53  1  0  0  0  0
 30 55  1  0  0  0  0
 30 54  1  0  0  0  0
 31 56  1  0  0  0  0
 31 30  1  0  0  0  0
 32 28  1  0  0  0  0
 32 59  1  0  0  0  0
 32 31  1  0  0  0  0
 37 13  1  0  0  0  0
 38 14  1  0  0  0  0
 39 16  1  0  0  0  0
 42 17  1  0  0  0  0
 46 20  1  0  0  0  0
 48 21  1  0  0  0  0
 51 28  1  0  0  0  0
 52 29  1  0  0  0  0
 57 31  1  0  0  0  0
 58 32  1  0  0  0  0
M  END
>  <Pose>
1

>  <Score>
-4.92

$$$$
