
 OpenBabel03212208273D

 50 54  0  0  0  0  0  0  0  0999 V2000
   87.0580  100.2120  -45.1630 S   0  0  0  0  0  0  0  0  0  0  0  0
   87.4530   99.4560  -46.4270 O   0  0  0  0  0  0  0  0  0  0  0  0
   86.2780  101.4470  -45.5350 O   0  0  0  0  0  0  0  0  0  0  0  0
   88.4340  100.5610  -44.3040 N   0  0  0  0  0  0  0  0  0  0  0  0
   89.7050  100.3680  -44.8520 C   0  0  0  0  0  0  0  0  0  0  0  0
   90.7380  100.1100  -43.7500 C   0  0  0  0  0  0  0  0  0  0  0  0
   90.2550   99.0910  -42.9080 N   0  0  0  0  0  0  0  0  0  0  0  0
   89.0020   99.3620  -42.3130 C   0  0  0  0  0  0  0  0  0  0  0  0
   88.4090  100.6220  -42.9020 C   0  0  0  0  0  0  0  0  0  0  0  0
   91.2120   98.4430  -42.0700 C   0  0  0  0  0  0  0  0  0  0  0  0
   91.4260   97.0630  -42.5670 C   0  0  0  0  0  0  0  0  0  0  0  0
   91.6550   95.9960  -41.7210 C   0  0  0  0  0  0  0  0  0  0  0  0
   91.8570   94.7040  -42.1330 C   0  0  0  0  0  0  0  0  0  0  0  0
   92.0600   93.8020  -41.2550 O   0  0  0  0  0  0  0  0  0  0  0  0
   91.8380   94.4120  -43.4670 N   0  0  0  0  0  0  0  0  0  0  0  0
   92.0110   93.2580  -43.9790 N   0  0  0  0  0  0  0  0  0  0  0  0
   91.9800   93.0500  -45.2620 C   0  0  0  0  0  0  0  0  0  0  0  0
   91.6730   94.6590  -45.8090 S   0  0  0  0  0  0  0  0  0  0  0  0
   91.6160   95.4440  -44.2830 C   0  0  0  0  0  0  0  0  0  0  0  0
   91.4170   96.7160  -43.8730 N   0  0  0  0  0  0  0  0  0  0  0  0
   92.1490   91.8320  -46.0630 C   0  0  0  0  0  0  0  0  0  0  0  0
   91.4090   91.6910  -47.2170 C   0  0  0  0  0  0  0  0  0  0  0  0
   91.5230   90.5630  -48.0180 C   0  0  0  0  0  0  0  0  0  0  0  0
   92.3940   89.5550  -47.6610 C   0  0  0  0  0  0  0  0  0  0  0  0
   93.1490   89.6740  -46.5060 C   0  0  0  0  0  0  0  0  0  0  0  0
   93.0010   90.8110  -45.7440 C   0  0  0  0  0  0  0  0  0  0  0  0
   92.5480   88.1400  -48.6510 Cl  0  0  0  0  0  0  0  0  0  0  0  0
   86.0160   99.1220  -44.2770 C   0  0  0  0  0  0  0  0  0  0  0  0
   85.0790   99.4630  -43.3490 N   0  0  0  0  0  0  0  0  0  0  0  0
   84.4770   98.3700  -42.8770 C   0  0  0  0  0  0  0  0  0  0  0  0
   84.9910   97.2840  -43.4720 N   0  0  0  0  0  0  0  0  0  0  0  0
   85.9370   97.7510  -44.3320 C   0  0  0  0  0  0  0  0  0  0  0  0
   89.9900  101.3270  -45.3910 H   0  0  0  0  0  0  0  0  0  0  0  0
   89.8190   99.5330  -45.5800 H   0  0  0  0  0  0  0  0  0  0  0  0
   90.8200  101.0600  -43.1810 H   0  0  0  0  0  0  0  0  0  0  0  0
   91.7280   99.8720  -44.2000 H   0  0  0  0  0  0  0  0  0  0  0  0
   88.2980   98.5410  -42.5780 H   0  0  0  0  0  0  0  0  0  0  0  0
   89.0570   99.5010  -41.2030 H   0  0  0  0  0  0  0  0  0  0  0  0
   87.3470  100.7580  -42.5390 H   0  0  0  0  0  0  0  0  0  0  0  0
   88.9580  101.5210  -42.5470 H   0  0  0  0  0  0  0  0  0  0  0  0
   90.7880   98.3830  -41.0470 H   0  0  0  0  0  0  0  0  0  0  0  0
   92.1600   98.9850  -42.1210 H   0  0  0  0  0  0  0  0  0  0  0  0
   91.6670   96.2520  -40.6420 H   0  0  0  0  0  0  0  0  0  0  0  0
   90.7120   92.4480  -47.5440 H   0  0  0  0  0  0  0  0  0  0  0  0
   90.9560   90.4230  -48.9270 H   0  0  0  0  0  0  0  0  0  0  0  0
   93.8320   88.8840  -46.2260 H   0  0  0  0  0  0  0  0  0  0  0  0
   93.5920   90.8930  -44.8500 H   0  0  0  0  0  0  0  0  0  0  0  0
   83.6950   98.3650  -42.1300 H   0  0  0  0  0  0  0  0  0  0  0  0
   84.7220   96.3000  -43.3070 H   0  0  0  0  0  0  0  0  0  0  0  0
   86.5210   97.0960  -44.9500 H   0  0  0  0  0  0  0  0  0  0  0  0
  1  4  1  0  0  0  0
  1 28  1  0  0  0  0
  2  1  2  0  0  0  0
  3  1  2  0  0  0  0
  4  9  1  0  0  0  0
  5  4  1  0  0  0  0
  5  6  1  0  0  0  0
  6 35  1  0  0  0  0
  6  7  1  0  0  0  0
  7  8  1  0  0  0  0
  7 10  1  0  0  0  0
  8 38  1  0  0  0  0
  9 40  1  0  0  0  0
  9 39  1  0  0  0  0
  9  8  1  0  0  0  0
 10 41  1  0  0  0  0
 11 10  1  0  0  0  0
 11 12  2  0  0  0  0
 12 43  1  0  0  0  0
 13 12  1  0  0  0  0
 13 14  2  0  0  0  0
 15 13  1  0  0  0  0
 16 15  1  0  0  0  0
 17 16  2  0  0  0  0
 18 17  1  0  0  0  0
 18 19  1  0  0  0  0
 19 20  2  0  0  0  0
 19 15  1  0  0  0  0
 20 11  1  0  0  0  0
 21 26  1  0  0  0  0
 21 17  1  0  0  0  0
 22 21  2  0  0  0  0
 23 24  2  0  0  0  0
 23 22  1  0  0  0  0
 24 25  1  0  0  0  0
 25 46  1  0  0  0  0
 25 26  2  0  0  0  0
 26 47  1  0  0  0  0
 27 24  1  0  0  0  0
 28 29  1  0  0  0  0
 29 30  2  0  0  0  0
 30 48  1  0  0  0  0
 31 49  1  0  0  0  0
 31 30  1  0  0  0  0
 32 28  2  0  0  0  0
 32 31  1  0  0  0  0
 33  5  1  0  0  0  0
 34  5  1  0  0  0  0
 36  6  1  0  0  0  0
 37  8  1  0  0  0  0
 42 10  1  0  0  0  0
 44 22  1  0  0  0  0
 45 23  1  0  0  0  0
 50 32  1  0  0  0  0
M  END
>  <Pose>
1

>  <Score>
-6.51

$$$$
