
 OpenBabel03212208273D

 38 41  0  0  0  0  0  0  0  0999 V2000
   88.2730  103.5200  -42.5650 Cl  0  0  0  0  0  0  0  0  0  0  0  0
   89.4050  102.2060  -42.8080 C   0  0  0  0  0  0  0  0  0  0  0  0
   89.8230  101.3890  -41.7660 C   0  0  0  0  0  0  0  0  0  0  0  0
   90.7120  100.3600  -41.9160 C   0  0  0  0  0  0  0  0  0  0  0  0
   91.2330  100.0960  -43.1490 C   0  0  0  0  0  0  0  0  0  0  0  0
   90.8320  100.8980  -44.2170 C   0  0  0  0  0  0  0  0  0  0  0  0
   89.9340  101.9330  -44.0450 C   0  0  0  0  0  0  0  0  0  0  0  0
   92.1940   99.0270  -43.4660 C   0  0  0  0  0  0  0  0  0  0  0  0
   91.7330   98.2820  -44.6760 C   0  0  0  0  0  0  0  0  0  0  0  0
   90.6160   97.2910  -44.3050 C   0  0  0  0  0  0  0  0  0  0  0  0
   91.3080   96.3400  -43.4240 N   0  0  0  0  0  0  0  0  0  0  0  0
   91.7460   96.8930  -42.1810 C   0  0  0  0  0  0  0  0  0  0  0  0
   92.5610   98.1440  -42.3330 C   0  0  0  0  0  0  0  0  0  0  0  0
   91.4790   95.0040  -43.8620 C   0  0  0  0  0  0  0  0  0  0  0  0
   91.1390   94.6710  -45.1190 N   0  0  0  0  0  0  0  0  0  0  0  0
   91.2610   93.4680  -45.6470 N   0  0  0  0  0  0  0  0  0  0  0  0
   90.9980   92.9290  -46.8400 N   0  0  0  0  0  0  0  0  0  0  0  0
   91.3130   91.6520  -46.8500 N   0  0  0  0  0  0  0  0  0  0  0  0
   91.7820   91.3570  -45.6680 N   0  0  0  0  0  0  0  0  0  0  0  0
   91.7550   92.4780  -44.9070 C   0  0  0  0  0  0  0  0  0  0  0  0
   92.1280   92.7460  -43.6010 C   0  0  0  0  0  0  0  0  0  0  0  0
   91.9930   94.0090  -43.0650 C   0  0  0  0  0  0  0  0  0  0  0  0
   93.3710   99.7100  -43.8650 O   0  0  0  0  0  0  0  0  0  0  0  0
   89.4320  101.5780  -40.7820 H   0  0  0  0  0  0  0  0  0  0  0  0
   91.0320   99.7200  -41.1030 H   0  0  0  0  0  0  0  0  0  0  0  0
   91.1920  100.7620  -45.2210 H   0  0  0  0  0  0  0  0  0  0  0  0
   89.6280  102.5660  -44.9010 H   0  0  0  0  0  0  0  0  0  0  0  0
   91.3100   98.9630  -45.4420 H   0  0  0  0  0  0  0  0  0  0  0  0
   92.5260   97.6890  -45.1600 H   0  0  0  0  0  0  0  0  0  0  0  0
   90.2310   96.7980  -45.2080 H   0  0  0  0  0  0  0  0  0  0  0  0
   89.8280   97.7590  -43.6990 H   0  0  0  0  0  0  0  0  0  0  0  0
   90.8120   97.1770  -41.6080 H   0  0  0  0  0  0  0  0  0  0  0  0
   92.2960   96.1670  -41.5540 H   0  0  0  0  0  0  0  0  0  0  0  0
   93.6210   97.7830  -42.5180 H   0  0  0  0  0  0  0  0  0  0  0  0
   92.6190   98.6730  -41.3720 H   0  0  0  0  0  0  0  0  0  0  0  0
   92.5240   91.9210  -43.0340 H   0  0  0  0  0  0  0  0  0  0  0  0
   92.2830   94.2180  -42.0500 H   0  0  0  0  0  0  0  0  0  0  0  0
   94.1420   99.2340  -43.4270 H   0  0  0  0  0  0  0  0  0  0  0  0
  2  1  1  0  0  0  0
  2  3  1  0  0  0  0
  3 24  1  0  0  0  0
  4  3  2  0  0  0  0
  4 25  1  0  0  0  0
  5  4  1  0  0  0  0
  6  7  1  0  0  0  0
  6  5  2  0  0  0  0
  7  2  2  0  0  0  0
  8  5  1  0  0  0  0
  8 13  1  0  0  0  0
  9 10  1  0  0  0  0
  9  8  1  0  0  0  0
 10 31  1  0  0  0  0
 10 11  1  0  0  0  0
 11 12  1  0  0  0  0
 12 32  1  0  0  0  0
 12 33  1  0  0  0  0
 13 12  1  0  0  0  0
 13 35  1  0  0  0  0
 14 11  1  0  0  0  0
 14 22  1  0  0  0  0
 15 14  2  0  0  0  0
 16 15  1  0  0  0  0
 16 20  1  0  0  0  0
 17 16  1  0  0  0  0
 18 17  2  0  0  0  0
 18 19  1  0  0  0  0
 19 20  2  0  0  0  0
 20 21  1  0  0  0  0
 21 22  2  0  0  0  0
 21 36  1  0  0  0  0
 22 37  1  0  0  0  0
 23  8  1  0  0  0  0
 23 38  1  0  0  0  0
 26  6  1  0  0  0  0
 27  7  1  0  0  0  0
 28  9  1  0  0  0  0
 29  9  1  0  0  0  0
 30 10  1  0  0  0  0
 34 13  1  0  0  0  0
M  END
>  <Pose>
1

>  <Score>
-5.18

$$$$
