
 OpenBabel03212208273D

 45 48  0  0  1  0  0  0  0  0999 V2000
   93.3190  104.3170  -38.5360 Cl  0  0  0  0  0  0  0  0  0  0  0  0
   93.0130  102.8770  -39.4880 C   0  0  0  0  0  0  0  0  0  0  0  0
   91.7080  102.4460  -39.7310 C   0  0  0  0  0  0  0  0  0  0  0  0
   91.4510  101.3200  -40.4650 C   0  0  0  0  0  0  0  0  0  0  0  0
   92.4630  100.5310  -41.0160 C   0  0  0  0  0  0  0  0  0  0  0  0
   93.7540  100.9680  -40.7700 C   0  0  0  0  0  0  0  0  0  0  0  0
   94.0150  102.0980  -40.0330 C   0  0  0  0  0  0  0  0  0  0  0  0
   92.1710   99.3690  -41.7660 N   0  0  0  0  0  0  0  0  0  0  0  0
   92.5710   98.1090  -41.2060 C   0  0  0  0  0  0  0  0  0  0  0  0
   93.1220   98.0970  -40.0690 O   0  0  0  0  0  0  0  0  0  0  0  0
   92.3130   96.9540  -41.9840 N   0  0  0  0  0  0  0  0  0  0  0  0
   91.7730   96.9480  -43.1210 C   0  0  0  0  0  0  0  0  0  0  0  0
   91.3060   98.1610  -43.8770 C   0  0  1  0  0  0  0  0  0  0  0  0
   92.2020   98.2240  -45.0810 C   0  0  0  0  0  0  0  0  0  0  0  0
   91.7160   98.9020  -46.2190 N   0  0  0  0  0  4  0  0  0  0  0  0
   90.3510   98.6990  -46.5320 C   0  0  0  0  0  0  0  0  0  0  0  0
   89.4920   98.2560  -45.5770 C   0  0  0  0  0  0  0  0  0  0  0  0
   88.1560   98.0700  -45.9210 C   0  0  0  0  0  0  0  0  0  0  0  0
   87.7330   98.3340  -47.2080 C   0  0  0  0  0  0  0  0  0  0  0  0
   88.6110   98.7850  -48.1820 C   0  0  0  0  0  0  0  0  0  0  0  0
   89.9450   98.9680  -47.8240 C   0  0  0  0  0  0  0  0  0  0  0  0
   86.3050   98.1340  -47.6120 C   0  0  0  0  0  0  0  0  0  0  0  0
   89.8710   97.9570  -44.1790 C   0  0  0  0  0  0  0  0  0  0  0  0
   92.0270  100.3210  -46.2830 C   0  0  0  0  0  0  0  0  0  0  0  0
   91.5450   99.3590  -43.0360 C   0  0  0  0  0  0  0  0  0  0  0  0
   91.1720  100.5190  -43.4390 O   0  0  0  0  0  0  0  0  0  0  0  0
   91.5610   95.7330  -43.7990 O   0  0  0  0  0  0  0  0  0  0  0  0
   90.9100  103.0650  -39.2990 H   0  0  0  0  0  0  0  0  0  0  0  0
   90.4130  100.9880  -40.6530 H   0  0  0  0  0  0  0  0  0  0  0  0
   94.5310  100.3530  -41.2010 H   0  0  0  0  0  0  0  0  0  0  0  0
   95.0580  102.3990  -39.8660 H   0  0  0  0  0  0  0  0  0  0  0  0
   92.5550   97.1950  -45.3730 H   0  0  0  0  0  0  0  0  0  0  0  0
   93.1370   98.7520  -44.7370 H   0  0  0  0  0  0  0  0  0  0  0  0
   92.2370   98.4940  -47.0610 H   0  0  0  0  0  0  0  0  0  0  0  0
   87.4290   97.7150  -45.1980 H   0  0  0  0  0  0  0  0  0  0  0  0
   88.2980   99.0010  -49.2140 H   0  0  0  0  0  0  0  0  0  0  0  0
   90.6270   99.3220  -48.5960 H   0  0  0  0  0  0  0  0  0  0  0  0
   85.7550   97.4880  -46.8940 H   0  0  0  0  0  0  0  0  0  0  0  0
   86.2800   97.7280  -48.6590 H   0  0  0  0  0  0  0  0  0  0  0  0
   85.7970   99.1070  -47.6410 H   0  0  0  0  0  0  0  0  0  0  0  0
   89.5520   96.8800  -44.0250 H   0  0  0  0  0  0  0  0  0  0  0  0
   89.2170   98.5500  -43.5170 H   0  0  0  0  0  0  0  0  0  0  0  0
   92.8430  100.6210  -45.5910 H   0  0  0  0  0  0  0  0  0  0  0  0
   91.0900  100.9150  -46.1600 H   0  0  0  0  0  0  0  0  0  0  0  0
   92.4010  100.6100  -47.3130 H   0  0  0  0  0  0  0  0  0  0  0  0
  2  1  1  0  0  0  0
  3  2  1  0  0  0  0
  3 28  1  0  0  0  0
  4  3  2  0  0  0  0
  5  6  2  0  0  0  0
  5  4  1  0  0  0  0
  6  7  1  0  0  0  0
  7 31  1  0  0  0  0
  7  2  2  0  0  0  0
  8  9  1  0  0  0  0
  8  5  1  0  0  0  0
  9 10  2  0  0  0  0
 11  9  1  0  0  0  0
 12 11  1  0  0  0  0
 13 12  1  1  0  0  0
 13 25  1  0  0  0  0
 14 33  1  0  0  0  0
 14 13  1  0  0  0  0
 15 14  1  0  0  0  0
 16 15  1  0  0  0  0
 16 17  1  0  0  0  0
 17 23  1  0  0  0  0
 18 17  2  0  0  0  0
 18 35  1  0  0  0  0
 19 18  1  0  0  0  0
 20 21  1  0  0  0  0
 20 19  2  0  0  0  0
 21 16  2  0  0  0  0
 22 19  1  0  0  0  0
 22 38  1  0  0  0  0
 23 41  1  0  0  0  0
 23 13  1  0  0  0  0
 23 42  1  0  0  0  0
 24 15  1  0  0  0  0
 24 44  1  0  0  0  0
 24 43  1  0  0  0  0
 25  8  1  0  0  0  0
 26 25  2  0  0  0  0
 27 12  2  0  0  0  0
 29  4  1  0  0  0  0
 30  6  1  0  0  0  0
 32 14  1  0  0  0  0
 34 15  1  0  0  0  0
 36 20  1  0  0  0  0
 37 21  1  0  0  0  0
 39 22  1  0  0  0  0
 40 22  1  0  0  0  0
 45 24  1  0  0  0  0
M  END
>  <Pose>
1

>  <Score>
-4.71

$$$$
