
 OpenBabel03212208273D

 47 50  0  0  1  0  0  0  0  0999 V2000
   91.5160   92.1150  -45.9280 Cl  0  0  0  0  0  0  0  0  0  0  0  0
   91.6830   93.5830  -44.9820 C   0  0  0  0  0  0  0  0  0  0  0  0
   91.8460   93.5310  -43.6050 C   0  0  0  0  0  0  0  0  0  0  0  0
   91.9730   94.6890  -42.8980 C   0  0  0  0  0  0  0  0  0  0  0  0
   91.9470   95.9380  -43.5070 C   0  0  0  0  0  0  0  0  0  0  0  0
   91.7850   95.9840  -44.8740 C   0  0  0  0  0  0  0  0  0  0  0  0
   91.6520   94.8110  -45.6210 C   0  0  0  0  0  0  0  0  0  0  0  0
   92.0790   97.1420  -42.7650 N   0  0  0  0  0  0  0  0  0  0  0  0
   92.3840   97.1630  -41.3770 C   0  0  0  0  0  0  0  0  0  0  0  0
   92.5390   96.0560  -40.7820 O   0  0  0  0  0  0  0  0  0  0  0  0
   92.5120   98.3770  -40.6650 N   0  0  0  0  0  0  0  0  0  0  0  0
   92.3400   99.6170  -41.3230 C   0  0  0  0  0  0  0  0  0  0  0  0
   92.6270  100.7240  -40.7460 O   0  0  0  0  0  0  0  0  0  0  0  0
   91.8280   99.6940  -42.6910 C   0  0  1  0  0  0  0  0  0  0  0  0
   91.9120   98.4060  -43.3910 C   0  0  0  0  0  0  0  0  0  0  0  0
   91.8340   98.3830  -44.6680 O   0  0  0  0  0  0  0  0  0  0  0  0
   90.4420  100.2480  -42.6930 C   0  0  0  0  0  0  0  0  0  0  0  0
   89.7420  100.6710  -43.7120 C   0  0  0  0  0  0  0  0  0  0  0  0
   88.4300  101.1210  -43.1860 C   0  0  2  0  0  0  0  0  0  0  0  0
   88.6660  101.3060  -41.7700 N   0  0  0  0  0  0  0  0  0  0  0  0
   89.6810  100.3810  -41.4980 N   0  0  0  0  0  0  0  0  0  0  0  0
   87.3910  100.0760  -43.4040 C   0  0  0  0  0  0  0  0  0  0  0  0
   86.1180  100.1870  -42.8930 C   0  0  0  0  0  0  0  0  0  0  0  0
   85.1470   99.2220  -43.0890 C   0  0  0  0  0  0  0  0  0  0  0  0
   85.4360   98.0940  -43.8220 C   0  0  0  0  0  0  0  0  0  0  0  0
   86.7010   97.9650  -44.3410 C   0  0  0  0  0  0  0  0  0  0  0  0
   87.6610   98.9320  -44.1400 C   0  0  0  0  0  0  0  0  0  0  0  0
   84.4820   97.1180  -44.0290 O   0  0  0  0  0  0  0  0  0  0  0  0
   83.7830   97.0770  -45.2520 C   0  0  0  0  0  0  0  0  0  0  0  0
   83.8860   99.3900  -42.5500 O   0  0  0  0  0  0  0  0  0  0  0  0
   91.8700   92.5840  -43.1140 H   0  0  0  0  0  0  0  0  0  0  0  0
   92.1010   94.6410  -41.8100 H   0  0  0  0  0  0  0  0  0  0  0  0
   91.7650   96.9610  -45.3390 H   0  0  0  0  0  0  0  0  0  0  0  0
   91.5270   94.8980  -46.6970 H   0  0  0  0  0  0  0  0  0  0  0  0
   92.7380   98.3700  -39.6370 H   0  0  0  0  0  0  0  0  0  0  0  0
   92.4930  100.4250  -43.2370 H   0  0  0  0  0  0  0  0  0  0  0  0
   90.1030  100.6740  -44.7390 H   0  0  0  0  0  0  0  0  0  0  0  0
   88.1190  102.0760  -43.6740 H   0  0  0  0  0  0  0  0  0  0  0  0
   88.9680  102.2850  -41.5570 H   0  0  0  0  0  0  0  0  0  0  0  0
   89.8060   99.9080  -40.5660 H   0  0  0  0  0  0  0  0  0  0  0  0
   85.9120  101.0920  -42.3140 H   0  0  0  0  0  0  0  0  0  0  0  0
   86.9410   97.0690  -44.9270 H   0  0  0  0  0  0  0  0  0  0  0  0
   88.6740   98.8370  -44.5500 H   0  0  0  0  0  0  0  0  0  0  0  0
   84.4450   96.8770  -46.1160 H   0  0  0  0  0  0  0  0  0  0  0  0
   82.9820   96.3180  -45.1740 H   0  0  0  0  0  0  0  0  0  0  0  0
   83.2760   98.0570  -45.3760 H   0  0  0  0  0  0  0  0  0  0  0  0
   83.6850   99.1300  -41.6050 H   0  0  0  0  0  0  0  0  0  0  0  0
  1  2  1  0  0  0  0
  2  3  1  0  0  0  0
  3 31  1  0  0  0  0
  3  4  2  0  0  0  0
  4 32  1  0  0  0  0
  5  4  1  0  0  0  0
  5  8  1  0  0  0  0
  6  5  2  0  0  0  0
  7  2  2  0  0  0  0
  7  6  1  0  0  0  0
  8  9  1  0  0  0  0
  9 10  2  0  0  0  0
  9 11  1  0  0  0  0
 11 35  1  0  0  0  0
 12 13  2  0  0  0  0
 12 11  1  0  0  0  0
 14 36  1  6  0  0  0
 14 12  1  0  0  0  0
 15  8  1  0  0  0  0
 15 14  1  0  0  0  0
 16 15  2  0  0  0  0
 17 14  1  0  0  0  0
 17 21  1  0  0  0  0
 18 19  1  0  0  0  0
 18 17  2  0  0  0  0
 19 38  1  6  0  0  0
 19 20  1  0  0  0  0
 20 39  1  0  0  0  0
 20 21  1  0  0  0  0
 21 40  1  0  0  0  0
 22 19  1  0  0  0  0
 22 23  1  0  0  0  0
 23 41  1  0  0  0  0
 24 23  2  0  0  0  0
 24 30  1  0  0  0  0
 25 24  1  0  0  0  0
 26 27  1  0  0  0  0
 26 25  2  0  0  0  0
 27 22  2  0  0  0  0
 28 25  1  0  0  0  0
 29 45  1  0  0  0  0
 29 28  1  0  0  0  0
 30 47  1  0  0  0  0
 33  6  1  0  0  0  0
 34  7  1  0  0  0  0
 37 18  1  0  0  0  0
 42 26  1  0  0  0  0
 43 27  1  0  0  0  0
 44 29  1  0  0  0  0
 46 29  1  0  0  0  0
M  END
>  <Pose>
1

>  <Score>
-6.44

$$$$
