
 OpenBabel03212208273D

 43 46  0  0  1  0  0  0  0  0999 V2000
   85.2180   87.0990  -50.1830 Cl  0  0  0  0  0  0  0  0  0  0  0  0
   86.7570   87.6780  -49.6140 C   0  0  0  0  0  0  0  0  0  0  0  0
   87.2600   88.8490  -50.1630 C   0  0  0  0  0  0  0  0  0  0  0  0
   88.4810   89.3290  -49.7270 C   0  0  0  0  0  0  0  0  0  0  0  0
   89.2360   88.6960  -48.7590 C   0  0  0  0  0  0  0  0  0  0  0  0
   88.7170   87.5330  -48.2240 C   0  0  0  0  0  0  0  0  0  0  0  0
   87.5000   87.0220  -48.6360 C   0  0  0  0  0  0  0  0  0  0  0  0
   90.5070   89.2270  -48.3220 N   0  0  0  0  0  0  0  0  0  0  0  0
   91.6880   88.5450  -48.7740 C   0  0  0  0  0  0  0  0  0  0  0  0
   91.6160   87.5230  -49.5240 O   0  0  0  0  0  0  0  0  0  0  0  0
   92.9340   89.0700  -48.3410 N   0  0  0  0  0  0  0  0  0  0  0  0
   92.9870   90.2350  -47.4870 C   0  0  0  0  0  0  0  0  0  0  0  0
   94.0320   90.8970  -47.5120 O   0  0  0  0  0  0  0  0  0  0  0  0
   91.8410   90.5650  -46.6620 C   0  0  2  0  0  0  0  0  0  0  0  0
   90.6100   90.3680  -47.4850 C   0  0  0  0  0  0  0  0  0  0  0  0
   89.6350   91.1620  -47.4880 O   0  0  0  0  0  0  0  0  0  0  0  0
   91.8530   91.8260  -45.9570 C   0  0  0  0  0  0  0  0  0  0  0  0
   92.0800   93.0340  -46.4190 C   0  0  0  0  0  0  0  0  0  0  0  0
   91.9930   94.0490  -45.3410 C   0  0  2  0  0  0  0  0  0  0  0  0
   91.4210   93.3010  -44.2450 N   0  0  0  0  0  0  0  0  0  0  0  0
   91.6110   91.9530  -44.5400 N   0  0  0  0  0  0  0  0  0  0  0  0
   91.0770   95.1510  -45.6580 C   0  0  0  0  0  0  0  0  0  0  0  0
   91.0400   96.2390  -44.7980 C   0  0  0  0  0  0  0  0  0  0  0  0
   90.1940   97.2890  -45.0670 C   0  0  0  0  0  0  0  0  0  0  0  0
   89.3770   97.2930  -46.1730 C   0  0  0  0  0  0  0  0  0  0  0  0
   89.4010   96.2220  -47.0350 C   0  0  0  0  0  0  0  0  0  0  0  0
   90.2600   95.1580  -46.7590 C   0  0  0  0  0  0  0  0  0  0  0  0
   90.1480   98.3940  -44.2060 O   0  0  0  0  0  0  0  0  0  0  0  0
   86.6850   89.3780  -50.9370 H   0  0  0  0  0  0  0  0  0  0  0  0
   88.8710   90.2320  -50.1500 H   0  0  0  0  0  0  0  0  0  0  0  0
   89.2540   86.9980  -47.4700 H   0  0  0  0  0  0  0  0  0  0  0  0
   87.0640   86.1130  -48.2360 H   0  0  0  0  0  0  0  0  0  0  0  0
   93.7970   88.5930  -48.6560 H   0  0  0  0  0  0  0  0  0  0  0  0
   91.8010   89.7480  -45.8540 H   0  0  0  0  0  0  0  0  0  0  0  0
   92.3130   93.3510  -47.4380 H   0  0  0  0  0  0  0  0  0  0  0  0
   93.0170   94.4250  -45.0890 H   0  0  0  0  0  0  0  0  0  0  0  0
   90.4240   93.5470  -44.0620 H   0  0  0  0  0  0  0  0  0  0  0  0
   91.5750   91.2070  -43.8130 H   0  0  0  0  0  0  0  0  0  0  0  0
   91.6830   96.2460  -43.9210 H   0  0  0  0  0  0  0  0  0  0  0  0
   88.7060   98.1270  -46.3850 H   0  0  0  0  0  0  0  0  0  0  0  0
   88.7790   96.1620  -47.9290 H   0  0  0  0  0  0  0  0  0  0  0  0
   90.2900   94.3100  -47.4300 H   0  0  0  0  0  0  0  0  0  0  0  0
   89.9900   98.2440  -43.2250 H   0  0  0  0  0  0  0  0  0  0  0  0
  1  2  1  0  0  0  0
  2  7  1  0  0  0  0
  3  4  1  0  0  0  0
  3  2  2  0  0  0  0
  4  5  2  0  0  0  0
  5  8  1  0  0  0  0
  5  6  1  0  0  0  0
  6 31  1  0  0  0  0
  7 32  1  0  0  0  0
  7  6  2  0  0  0  0
  8 15  1  0  0  0  0
  9 11  1  0  0  0  0
  9  8  1  0  0  0  0
 10  9  2  0  0  0  0
 11 12  1  0  0  0  0
 12 14  1  0  0  0  0
 13 12  2  0  0  0  0
 14 17  1  0  0  0  0
 14 34  1  1  0  0  0
 15 14  1  0  0  0  0
 16 15  2  0  0  0  0
 17 21  1  0  0  0  0
 18 17  2  0  0  0  0
 18 19  1  0  0  0  0
 19 36  1  1  0  0  0
 19 20  1  0  0  0  0
 20 37  1  0  0  0  0
 21 20  1  0  0  0  0
 21 38  1  0  0  0  0
 22 19  1  0  0  0  0
 22 23  1  0  0  0  0
 23 39  1  0  0  0  0
 24 23  2  0  0  0  0
 24 28  1  0  0  0  0
 25 24  1  0  0  0  0
 26 27  1  0  0  0  0
 26 25  2  0  0  0  0
 27 22  2  0  0  0  0
 28 43  1  0  0  0  0
 29  3  1  0  0  0  0
 30  4  1  0  0  0  0
 33 11  1  0  0  0  0
 35 18  1  0  0  0  0
 40 25  1  0  0  0  0
 41 26  1  0  0  0  0
 42 27  1  0  0  0  0
M  END
>  <Pose>
1

>  <Score>
-5.46

$$$$
