
 OpenBabel03212208273D

 41 44  0  0  1  0  0  0  0  0999 V2000
   91.7730   92.2560  -45.4870 Cl  0  0  0  0  0  0  0  0  0  0  0  0
   91.4280   93.9620  -45.2560 C   0  0  0  0  0  0  0  0  0  0  0  0
   90.7130   94.6800  -46.1910 C   0  0  0  0  0  0  0  0  0  0  0  0
   90.4440   96.0310  -46.0050 C   0  0  0  0  0  0  0  0  0  0  0  0
   90.8800   96.7020  -44.8830 C   0  0  0  0  0  0  0  0  0  0  0  0
   91.5930   95.9810  -43.9510 C   0  0  0  0  0  0  0  0  0  0  0  0
   91.8610   94.6370  -44.1350 C   0  0  0  0  0  0  0  0  0  0  0  0
   90.6060   98.1080  -44.6740 N   0  0  0  0  0  0  0  0  0  0  0  0
   89.2780   98.5710  -44.5140 C   0  0  0  0  0  0  0  0  0  0  0  0
   88.3180   97.7610  -44.5460 O   0  0  0  0  0  0  0  0  0  0  0  0
   89.0510   99.9770  -44.3140 N   0  0  0  0  0  0  0  0  0  0  0  0
   90.1360  100.8950  -44.2770 C   0  0  0  0  0  0  0  0  0  0  0  0
   89.9130  102.1200  -44.4420 O   0  0  0  0  0  0  0  0  0  0  0  0
   91.5000  100.3930  -44.0480 C   0  0  2  0  0  0  0  0  0  0  0  0
   91.6630   99.0510  -44.6330 C   0  0  0  0  0  0  0  0  0  0  0  0
   92.7940   98.7080  -45.1240 O   0  0  0  0  0  0  0  0  0  0  0  0
   91.8170  100.3570  -42.5800 C   0  0  0  0  0  0  0  0  0  0  0  0
   91.4570  101.2040  -41.6510 C   0  0  0  0  0  0  0  0  0  0  0  0
   92.0030  100.7630  -40.3570 C   0  0  1  0  0  0  0  0  0  0  0  0
   92.4010   99.4040  -40.5930 N   0  0  0  0  0  0  0  0  0  0  0  0
   92.5900   99.3300  -41.9820 N   0  0  0  0  0  0  0  0  0  0  0  0
   93.1950  101.6050  -40.0790 C   0  0  0  0  0  0  0  0  0  0  0  0
   94.4510  101.1600  -40.4150 C   0  0  0  0  0  0  0  0  0  0  0  0
   95.5480  101.9270  -40.1610 N   0  0  0  0  0  0  0  0  0  0  0  0
   95.4650  103.1350  -39.5810 C   0  0  0  0  0  0  0  0  0  0  0  0
   94.2220  103.6110  -39.2320 C   0  0  0  0  0  0  0  0  0  0  0  0
   93.0820  102.8350  -39.4860 C   0  0  0  0  0  0  0  0  0  0  0  0
   90.3640   94.1720  -47.0750 H   0  0  0  0  0  0  0  0  0  0  0  0
   89.8840   96.6070  -46.7250 H   0  0  0  0  0  0  0  0  0  0  0  0
   91.9470   96.5010  -43.0540 H   0  0  0  0  0  0  0  0  0  0  0  0
   92.4290   94.0570  -43.4030 H   0  0  0  0  0  0  0  0  0  0  0  0
   88.0900  100.3610  -44.1920 H   0  0  0  0  0  0  0  0  0  0  0  0
   92.2760  101.0570  -44.4900 H   0  0  0  0  0  0  0  0  0  0  0  0
   90.8510  102.0810  -41.8340 H   0  0  0  0  0  0  0  0  0  0  0  0
   91.2570  100.8450  -39.5310 H   0  0  0  0  0  0  0  0  0  0  0  0
   91.7060   98.7270  -40.2670 H   0  0  0  0  0  0  0  0  0  0  0  0
   93.2100   98.6130  -42.4230 H   0  0  0  0  0  0  0  0  0  0  0  0
   94.5440  100.1790  -40.8890 H   0  0  0  0  0  0  0  0  0  0  0  0
   96.3640  103.7390  -39.3850 H   0  0  0  0  0  0  0  0  0  0  0  0
   94.1440  104.5810  -38.7660 H   0  0  0  0  0  0  0  0  0  0  0  0
   92.1280  103.2110  -39.2120 H   0  0  0  0  0  0  0  0  0  0  0  0
  1  2  1  0  0  0  0
  2  7  1  0  0  0  0
  3  4  1  0  0  0  0
  3  2  2  0  0  0  0
  4  5  2  0  0  0  0
  5  8  1  0  0  0  0
  5  6  1  0  0  0  0
  6 30  1  0  0  0  0
  7  6  2  0  0  0  0
  7 31  1  0  0  0  0
  8 15  1  0  0  0  0
  8  9  1  0  0  0  0
  9 11  1  0  0  0  0
 10  9  2  0  0  0  0
 11 12  1  0  0  0  0
 11 32  1  0  0  0  0
 12 14  1  0  0  0  0
 13 12  2  0  0  0  0
 14 33  1  6  0  0  0
 14 17  1  0  0  0  0
 15 14  1  0  0  0  0
 16 15  2  0  0  0  0
 17 21  1  0  0  0  0
 17 18  2  0  0  0  0
 18 19  1  0  0  0  0
 19 22  1  0  0  0  0
 19 35  1  1  0  0  0
 20 19  1  0  0  0  0
 20 36  1  0  0  0  0
 21 20  1  0  0  0  0
 22 27  1  0  0  0  0
 23 24  1  0  0  0  0
 23 22  2  0  0  0  0
 24 25  2  0  0  0  0
 25 39  1  0  0  0  0
 25 26  1  0  0  0  0
 26 40  1  0  0  0  0
 27 26  2  0  0  0  0
 27 41  1  0  0  0  0
 28  3  1  0  0  0  0
 29  4  1  0  0  0  0
 34 18  1  0  0  0  0
 37 21  1  0  0  0  0
 38 23  1  0  0  0  0
M  END
>  <Pose>
1

>  <Score>
-6.05

$$$$
