
 OpenBabel03212208273D

 58 62  0  0  1  0  0  0  0  0999 V2000
   93.1910  101.7170  -43.9020 Cl  0  0  0  0  0  0  0  0  0  0  0  0
   92.6480  100.0840  -44.2190 C   0  0  0  0  0  0  0  0  0  0  0  0
   92.3540   99.2240  -43.1810 C   0  0  0  0  0  0  0  0  0  0  0  0
   91.9240   97.9340  -43.4010 C   0  0  0  0  0  0  0  0  0  0  0  0
   91.7910   97.5110  -44.7040 C   0  0  0  0  0  0  0  0  0  0  0  0
   92.0840   98.3690  -45.7170 C   0  0  0  0  0  0  0  0  0  0  0  0
   92.5140   99.6610  -45.5200 C   0  0  0  0  0  0  0  0  0  0  0  0
   91.6100   97.0180  -42.2500 C   0  0  0  0  0  0  0  0  0  0  0  0
   91.7330   95.6340  -42.6740 N   0  0  0  0  0  0  0  0  0  0  0  0
   91.8280   94.5630  -41.7430 C   0  0  0  0  0  0  0  0  0  0  0  0
   91.8880   94.8210  -40.4980 O   0  0  0  0  0  0  0  0  0  0  0  0
   91.8590   93.1510  -42.1390 C   0  0  1  0  0  0  0  0  0  0  0  0
   92.0240   92.9210  -43.5360 N   0  0  1  0  0  0  0  0  0  0  0  0
   91.4480   93.8880  -44.4130 C   0  0  0  0  0  0  0  0  0  0  0  0
   90.0070   93.6560  -44.7970 C   0  0  0  0  0  0  0  0  0  0  0  0
   90.4140   93.3670  -46.1340 N   0  0  0  0  0  0  0  0  0  0  0  0
   91.7850   93.5330  -45.8520 C   0  0  0  0  0  0  0  0  0  0  0  0
   89.9350   92.1940  -46.7700 C   0  0  0  0  0  0  0  0  0  0  0  0
   90.8980   91.4750  -47.6110 C   0  0  0  0  0  0  0  0  0  0  0  0
   90.8130   91.5580  -48.9790 C   0  0  0  0  0  0  0  0  0  0  0  0
   91.7170   90.8830  -49.8030 C   0  0  0  0  0  0  0  0  0  0  0  0
   92.7080   90.1220  -49.2270 C   0  0  0  0  0  0  0  0  0  0  0  0
   92.8170   90.0220  -47.8610 C   0  0  0  0  0  0  0  0  0  0  0  0
   91.8990   90.7080  -47.0680 C   0  0  0  0  0  0  0  0  0  0  0  0
   91.6340   90.9630  -51.1790 O   0  0  0  0  0  0  0  0  0  0  0  0
   91.1310   92.1530  -51.7580 C   0  0  0  0  0  0  0  0  0  0  0  0
   91.7680   95.2940  -44.0550 C   0  0  1  0  0  0  0  0  0  0  0  0
   92.0600   96.1730  -44.9040 O   0  0  0  0  0  0  0  0  0  0  0  0
   93.4280   92.8030  -43.8090 C   0  0  0  0  0  0  0  0  0  0  0  0
   94.1660   92.8990  -42.5040 C   0  0  1  0  0  0  0  0  0  0  0  0
   93.1120   92.5410  -41.4960 C   0  0  0  0  0  0  0  0  0  0  0  0
   95.2690   92.0590  -42.4430 O   0  0  0  0  0  0  0  0  0  0  0  0
   92.4640   99.5740  -42.1430 H   0  0  0  0  0  0  0  0  0  0  0  0
   91.4570   96.5130  -44.8820 H   0  0  0  0  0  0  0  0  0  0  0  0
   91.9730   98.0210  -46.7430 H   0  0  0  0  0  0  0  0  0  0  0  0
   92.7430  100.3300  -46.3580 H   0  0  0  0  0  0  0  0  0  0  0  0
   90.5580   97.2260  -41.9590 H   0  0  0  0  0  0  0  0  0  0  0  0
   92.3290   97.2520  -41.4420 H   0  0  0  0  0  0  0  0  0  0  0  0
   90.9820   92.5870  -41.7420 H   0  0  0  0  0  0  0  0  0  0  0  0
   89.4730   92.8970  -44.2290 H   0  0  0  0  0  0  0  0  0  0  0  0
   89.4290   94.6270  -44.7990 H   0  0  0  0  0  0  0  0  0  0  0  0
   92.4740   92.6930  -45.9740 H   0  0  0  0  0  0  0  0  0  0  0  0
   92.2230   94.4390  -46.3630 H   0  0  0  0  0  0  0  0  0  0  0  0
   89.5220   91.5320  -45.9480 H   0  0  0  0  0  0  0  0  0  0  0  0
   89.0020   92.4740  -47.3460 H   0  0  0  0  0  0  0  0  0  0  0  0
   90.0590   92.1360  -49.4980 H   0  0  0  0  0  0  0  0  0  0  0  0
   93.3990   89.6060  -49.9000 H   0  0  0  0  0  0  0  0  0  0  0  0
   93.6150   89.4120  -47.4650 H   0  0  0  0  0  0  0  0  0  0  0  0
   92.0320   90.5930  -46.0020 H   0  0  0  0  0  0  0  0  0  0  0  0
   91.0950   91.9770  -52.8560 H   0  0  0  0  0  0  0  0  0  0  0  0
   90.1130   92.3930  -51.3680 H   0  0  0  0  0  0  0  0  0  0  0  0
   91.7840   93.0240  -51.5520 H   0  0  0  0  0  0  0  0  0  0  0  0
   93.8190   93.6130  -44.4750 H   0  0  0  0  0  0  0  0  0  0  0  0
   93.6280   91.8010  -44.2920 H   0  0  0  0  0  0  0  0  0  0  0  0
   94.4490   93.9730  -42.3250 H   0  0  0  0  0  0  0  0  0  0  0  0
   93.2990   92.9710  -40.4990 H   0  0  0  0  0  0  0  0  0  0  0  0
   92.9780   91.4540  -41.4860 H   0  0  0  0  0  0  0  0  0  0  0  0
   95.4880   91.7940  -43.3690 H   0  0  0  0  0  0  0  0  0  0  0  0
  2  1  1  0  0  0  0
  2  3  1  0  0  0  0
  3 33  1  0  0  0  0
  4  3  2  0  0  0  0
  4  8  1  0  0  0  0
  5  4  1  0  0  0  0
  6  7  1  0  0  0  0
  6  5  2  0  0  0  0
  7  2  2  0  0  0  0
  8 37  1  0  0  0  0
  8 38  1  0  0  0  0
  9  8  1  0  0  0  0
  9 10  1  0  0  0  0
 10 11  2  0  0  0  0
 12 10  1  0  0  0  0
 12 39  1  1  0  0  0
 12 31  1  0  0  0  0
 13 14  1  6  0  0  0
 13 12  1  0  0  0  0
 14 27  1  0  0  0  0
 15 14  1  0  0  0  0
 15 40  1  0  0  0  0
 16 17  1  0  0  0  0
 16 15  1  0  0  0  0
 17 14  1  0  0  0  0
 18 16  1  0  0  0  0
 18 44  1  0  0  0  0
 19 24  1  0  0  0  0
 19 18  1  0  0  0  0
 20 19  2  0  0  0  0
 21 22  2  0  0  0  0
 21 20  1  0  0  0  0
 22 23  1  0  0  0  0
 23 48  1  0  0  0  0
 23 24  2  0  0  0  0
 24 49  1  0  0  0  0
 25 21  1  0  0  0  0
 26 52  1  0  0  0  0
 26 51  1  0  0  0  0
 26 25  1  0  0  0  0
 27 28  1  6  0  0  0
 27  9  1  0  0  0  0
 28 34  1  0  0  0  0
 29 13  1  0  0  0  0
 29 30  1  0  0  0  0
 30 32  1  0  0  0  0
 30 55  1  1  0  0  0
 30 31  1  0  0  0  0
 31 57  1  0  0  0  0
 31 56  1  0  0  0  0
 35  6  1  0  0  0  0
 36  7  1  0  0  0  0
 41 15  1  0  0  0  0
 42 17  1  0  0  0  0
 43 17  1  0  0  0  0
 45 18  1  0  0  0  0
 46 20  1  0  0  0  0
 47 22  1  0  0  0  0
 50 26  1  0  0  0  0
 53 29  1  0  0  0  0
 54 29  1  0  0  0  0
 58 32  1  0  0  0  0
M  END
>  <Pose>
1

>  <Score>
-4.42

$$$$
