
 OpenBabel03212208273D

 52 55  0  0  1  0  0  0  0  0999 V2000
   83.6330   94.9610  -46.0320 Cl  0  0  0  0  0  0  0  0  0  0  0  0
   84.3630   96.4410  -45.4650 C   0  0  0  0  0  0  0  0  0  0  0  0
   83.8460   97.2110  -44.4540 C   0  0  0  0  0  0  0  0  0  0  0  0
   84.4600   98.3690  -44.0450 C   0  0  0  0  0  0  0  0  0  0  0  0
   85.6440   98.8170  -44.6430 C   0  0  0  0  0  0  0  0  0  0  0  0
   86.1580   98.0520  -45.6480 C   0  0  0  0  0  0  0  0  0  0  0  0
   85.5350   96.8930  -46.0510 C   0  0  0  0  0  0  0  0  0  0  0  0
   86.2440  100.0420  -44.1630 C   0  0  0  0  0  0  0  0  0  0  0  0
   85.9240  101.1450  -44.7180 O   0  0  0  0  0  0  0  0  0  0  0  0
   87.2190  100.1040  -43.0520 C   0  0  0  0  0  0  0  0  0  0  0  0
   88.5090   99.6170  -43.5500 N   0  0  0  0  0  0  0  0  0  0  0  0
   89.6470  100.2450  -43.7860 C   0  0  2  0  0  0  0  0  0  0  0  0
   90.5950   99.3820  -44.2420 N   0  0  0  0  0  0  0  0  0  0  0  0
   90.0540   98.1850  -44.2920 C   0  0  0  0  0  0  0  0  0  0  0  0
   88.7220   98.3380  -43.8530 C   0  0  0  0  0  0  0  0  0  0  0  0
   90.6130   96.9010  -44.7270 C   0  0  0  0  0  0  0  0  0  0  0  0
   90.3930   96.2950  -45.9210 C   0  0  0  0  0  0  0  0  0  0  0  0
   90.8990   95.0370  -46.2460 C   0  0  0  0  0  0  0  0  0  0  0  0
   91.6630   94.3450  -45.3470 C   0  0  0  0  0  0  0  0  0  0  0  0
   91.9060   94.9320  -44.1290 C   0  0  0  0  0  0  0  0  0  0  0  0
   91.3970   96.1750  -43.8230 C   0  0  0  0  0  0  0  0  0  0  0  0
   92.1870   93.0750  -45.6490 O   0  0  0  0  0  0  0  0  0  0  0  0
   91.4080   92.0440  -46.1930 C   0  0  0  0  0  0  0  0  0  0  0  0
   91.9170   99.7830  -44.6310 C   0  0  0  0  0  0  0  0  0  0  0  0
   92.7670  100.0820  -43.3980 C   0  0  0  0  0  0  0  0  0  0  0  0
   91.7940  100.7170  -42.3990 C   0  0  0  0  0  0  0  0  0  0  0  0
   91.2470  101.9720  -43.0200 C   0  0  0  0  0  0  0  0  0  0  0  0
   89.8250  101.7100  -43.5420 C   0  0  0  0  0  0  0  0  0  0  0  0
   82.9300   96.8960  -43.9670 H   0  0  0  0  0  0  0  0  0  0  0  0
   84.0150   98.9570  -43.2320 H   0  0  0  0  0  0  0  0  0  0  0  0
   87.0620   98.3360  -46.1500 H   0  0  0  0  0  0  0  0  0  0  0  0
   85.9810   96.3100  -46.8590 H   0  0  0  0  0  0  0  0  0  0  0  0
   87.3250  101.2010  -42.8070 H   0  0  0  0  0  0  0  0  0  0  0  0
   86.8970   99.5660  -42.1610 H   0  0  0  0  0  0  0  0  0  0  0  0
   88.0070   97.5150  -43.7800 H   0  0  0  0  0  0  0  0  0  0  0  0
   89.8460   96.7880  -46.6790 H   0  0  0  0  0  0  0  0  0  0  0  0
   90.6970   94.5870  -47.2150 H   0  0  0  0  0  0  0  0  0  0  0  0
   92.5100   94.3830  -43.4240 H   0  0  0  0  0  0  0  0  0  0  0  0
   91.5910   96.6270  -42.8610 H   0  0  0  0  0  0  0  0  0  0  0  0
   91.2580   92.2360  -47.2780 H   0  0  0  0  0  0  0  0  0  0  0  0
   91.8590   91.0400  -46.0020 H   0  0  0  0  0  0  0  0  0  0  0  0
   90.3760   91.9890  -45.7360 H   0  0  0  0  0  0  0  0  0  0  0  0
   92.3930   99.2570  -45.4280 H   0  0  0  0  0  0  0  0  0  0  0  0
   91.7890  100.8480  -45.0800 H   0  0  0  0  0  0  0  0  0  0  0  0
   93.2010   99.1530  -43.0140 H   0  0  0  0  0  0  0  0  0  0  0  0
   93.5460  100.8210  -43.5850 H   0  0  0  0  0  0  0  0  0  0  0  0
   90.9480   99.9950  -42.2330 H   0  0  0  0  0  0  0  0  0  0  0  0
   92.2540  100.8660  -41.4120 H   0  0  0  0  0  0  0  0  0  0  0  0
   91.2120  102.7380  -42.2120 H   0  0  0  0  0  0  0  0  0  0  0  0
   91.9010  102.4070  -43.8000 H   0  0  0  0  0  0  0  0  0  0  0  0
   89.7010  102.1940  -44.5460 H   0  0  0  0  0  0  0  0  0  0  0  0
   89.0570  102.1330  -42.8760 H   0  0  0  0  0  0  0  0  0  0  0  0
  1  2  1  0  0  0  0
  2  3  1  0  0  0  0
  3  4  2  0  0  0  0
  3 29  1  0  0  0  0
  4 30  1  0  0  0  0
  5  8  1  0  0  0  0
  5  4  1  0  0  0  0
  6  5  2  0  0  0  0
  7  6  1  0  0  0  0
  7  2  2  0  0  0  0
  8 10  1  0  0  0  0
  9  8  2  0  0  0  0
 10 33  1  0  0  0  0
 10 34  1  0  0  0  0
 11 10  1  0  0  0  0
 12 13  1  1  0  0  0
 12 11  1  0  0  0  0
 12 28  1  0  0  0  0
 14 13  1  0  0  0  0
 14 15  2  0  0  0  0
 15 35  1  0  0  0  0
 15 11  1  0  0  0  0
 16 14  1  0  0  0  0
 16 21  1  0  0  0  0
 17 16  2  0  0  0  0
 18 17  1  0  0  0  0
 18 19  2  0  0  0  0
 19 20  1  0  0  0  0
 20 21  2  0  0  0  0
 20 38  1  0  0  0  0
 21 39  1  0  0  0  0
 22 19  1  0  0  0  0
 23 41  1  0  0  0  0
 23 42  1  0  0  0  0
 23 22  1  0  0  0  0
 24 13  1  0  0  0  0
 24 25  1  0  0  0  0
 25 45  1  0  0  0  0
 25 26  1  0  0  0  0
 26 47  1  0  0  0  0
 26 48  1  0  0  0  0
 27 26  1  0  0  0  0
 27 49  1  0  0  0  0
 28 27  1  0  0  0  0
 28 52  1  0  0  0  0
 31  6  1  0  0  0  0
 32  7  1  0  0  0  0
 36 17  1  0  0  0  0
 37 18  1  0  0  0  0
 40 23  1  0  0  0  0
 43 24  1  0  0  0  0
 44 24  1  0  0  0  0
 46 25  1  0  0  0  0
 50 27  1  0  0  0  0
 51 28  1  0  0  0  0
M  END
>  <Pose>
1

>  <Score>
-4.27

$$$$
