
 OpenBabel03212208273D

 48 51  0  0  1  0  0  0  0  0999 V2000
   91.4570   95.5320  -44.8900 Cl  0  0  0  0  0  0  0  0  0  0  0  0
   91.4110   93.7870  -45.1160 C   0  0  0  0  0  0  0  0  0  0  0  0
   91.4050   92.9970  -43.9920 C   0  0  0  0  0  0  0  0  0  0  0  0
   91.3700   91.6280  -44.2050 C   0  0  0  0  0  0  0  0  0  0  0  0
   91.3440   91.1400  -45.4570 N   0  0  0  0  0  0  0  0  0  0  0  0
   91.3490   91.8900  -46.5470 N   0  0  0  0  0  0  0  0  0  0  0  0
   91.3840   93.2230  -46.3770 C   0  0  0  0  0  0  0  0  0  0  0  0
   91.3900   94.0020  -47.3720 O   0  0  0  0  0  0  0  0  0  0  0  0
   91.3210   91.3080  -47.8590 C   0  0  0  0  0  0  0  0  0  0  0  0
   92.0020   90.1360  -48.1160 C   0  0  0  0  0  0  0  0  0  0  0  0
   91.9820   89.5580  -49.3880 C   0  0  0  0  0  0  0  0  0  0  0  0
   91.2820   90.1520  -50.4070 C   0  0  0  0  0  0  0  0  0  0  0  0
   90.6000   91.3180  -50.1670 C   0  0  0  0  0  0  0  0  0  0  0  0
   90.6290   91.8730  -48.9110 C   0  0  0  0  0  0  0  0  0  0  0  0
   91.4340   93.5930  -42.7130 N   0  0  0  0  0  0  0  0  0  0  0  0
   90.2200   94.0730  -42.0630 C   0  0  0  0  0  0  0  0  0  0  0  0
   90.3750   95.6060  -42.0210 C   0  0  0  0  0  0  0  0  0  0  0  0
   91.6240   95.9640  -41.4260 N   0  0  0  0  0  0  0  0  0  0  0  0
   92.4530   94.8620  -40.8900 C   0  0  0  0  0  0  0  0  0  0  0  0
   92.6460   93.7830  -41.9360 C   0  0  0  0  0  0  0  0  0  0  0  0
   92.0940   97.2990  -41.3250 C   0  0  0  0  0  0  0  0  0  0  0  0
   92.8180   97.6730  -40.3540 O   0  0  0  0  0  0  0  0  0  0  0  0
   91.7790   98.3340  -42.3260 C   0  0  1  0  0  0  0  0  0  0  0  0
   90.4350   98.5020  -42.4520 O   0  0  0  0  0  0  0  0  0  0  0  0
   90.1880   99.8300  -42.7750 C   0  0  0  0  0  0  0  0  0  0  0  0
   91.1510  100.5430  -41.8350 C   0  0  0  0  0  0  0  0  0  0  0  0
   92.3840   99.6740  -41.9740 C   0  0  0  0  0  0  0  0  0  0  0  0
   91.3650   90.9960  -43.3250 H   0  0  0  0  0  0  0  0  0  0  0  0
   92.5710   89.6150  -47.3660 H   0  0  0  0  0  0  0  0  0  0  0  0
   92.5100   88.6380  -49.6120 H   0  0  0  0  0  0  0  0  0  0  0  0
   91.2500   89.7260  -51.4010 H   0  0  0  0  0  0  0  0  0  0  0  0
   90.0400   91.8170  -50.9320 H   0  0  0  0  0  0  0  0  0  0  0  0
   90.0950   92.7850  -48.7280 H   0  0  0  0  0  0  0  0  0  0  0  0
   90.1970   93.7040  -41.0250 H   0  0  0  0  0  0  0  0  0  0  0  0
   89.3190   93.8720  -42.6360 H   0  0  0  0  0  0  0  0  0  0  0  0
   90.3930   95.8940  -43.0960 H   0  0  0  0  0  0  0  0  0  0  0  0
   89.4780   96.0320  -41.5280 H   0  0  0  0  0  0  0  0  0  0  0  0
   91.8560   94.4210  -40.0690 H   0  0  0  0  0  0  0  0  0  0  0  0
   93.3950   95.2530  -40.5110 H   0  0  0  0  0  0  0  0  0  0  0  0
   92.9200   92.8370  -41.4140 H   0  0  0  0  0  0  0  0  0  0  0  0
   93.5120   94.0540  -42.5710 H   0  0  0  0  0  0  0  0  0  0  0  0
   92.2790   98.0050  -43.2670 H   0  0  0  0  0  0  0  0  0  0  0  0
   90.4100  100.0590  -43.8330 H   0  0  0  0  0  0  0  0  0  0  0  0
   89.1590  100.1260  -42.5390 H   0  0  0  0  0  0  0  0  0  0  0  0
   90.7840  100.4570  -40.8050 H   0  0  0  0  0  0  0  0  0  0  0  0
   91.3360  101.5800  -42.1680 H   0  0  0  0  0  0  0  0  0  0  0  0
   92.9820   99.6480  -41.0430 H   0  0  0  0  0  0  0  0  0  0  0  0
   92.9580  100.0900  -42.8260 H   0  0  0  0  0  0  0  0  0  0  0  0
  2  1  1  0  0  0  0
  2  3  2  0  0  0  0
  3 15  1  0  0  0  0
  4  3  1  0  0  0  0
  4 28  1  0  0  0  0
  5  4  2  0  0  0  0
  6  7  1  0  0  0  0
  6  5  1  0  0  0  0
  7  2  1  0  0  0  0
  8  7  2  0  0  0  0
  9  6  1  0  0  0  0
 10  9  1  0  0  0  0
 10 29  1  0  0  0  0
 11 10  2  0  0  0  0
 12 13  2  0  0  0  0
 12 11  1  0  0  0  0
 13 14  1  0  0  0  0
 14 33  1  0  0  0  0
 14  9  2  0  0  0  0
 15 16  1  0  0  0  0
 15 20  1  0  0  0  0
 16 17  1  0  0  0  0
 16 34  1  0  0  0  0
 17 37  1  0  0  0  0
 17 18  1  0  0  0  0
 18 21  1  0  0  0  0
 18 19  1  0  0  0  0
 19 39  1  0  0  0  0
 19 38  1  0  0  0  0
 20 40  1  0  0  0  0
 20 19  1  0  0  0  0
 21 22  2  0  0  0  0
 23 42  1  6  0  0  0
 23 27  1  0  0  0  0
 23 21  1  0  0  0  0
 24 23  1  0  0  0  0
 25 44  1  0  0  0  0
 25 24  1  0  0  0  0
 25 26  1  0  0  0  0
 26 45  1  0  0  0  0
 27 26  1  0  0  0  0
 27 47  1  0  0  0  0
 30 11  1  0  0  0  0
 31 12  1  0  0  0  0
 32 13  1  0  0  0  0
 35 16  1  0  0  0  0
 36 17  1  0  0  0  0
 41 20  1  0  0  0  0
 43 25  1  0  0  0  0
 46 26  1  0  0  0  0
 48 27  1  0  0  0  0
M  END
>  <Pose>
1

>  <Score>
-4.99

$$$$
