
 OpenBabel03212208273D

 53 56  0  0  1  0  0  0  0  0999 V2000
   91.4220   96.7120  -45.1250 Cl  0  0  0  0  0  0  0  0  0  0  0  0
   91.6750   95.1550  -44.3430 C   0  0  0  0  0  0  0  0  0  0  0  0
   91.7240   95.1330  -42.9690 C   0  0  0  0  0  0  0  0  0  0  0  0
   91.8220   93.9040  -42.3580 C   0  0  0  0  0  0  0  0  0  0  0  0
   91.9270   94.1790  -41.0400 N   0  0  0  0  0  0  0  0  0  0  0  0
   91.9140   95.4720  -40.8580 N   0  0  0  0  0  0  0  0  0  0  0  0
   91.7850   96.1580  -42.0520 C   0  0  0  0  0  0  0  0  0  0  0  0
   91.5990   97.5780  -42.2080 C   0  0  0  0  0  0  0  0  0  0  0  0
   91.4060   98.0800  -43.5770 N   0  0  0  0  0  0  0  0  0  0  0  0
   92.0160   99.4290  -43.6060 C   0  0  0  0  0  0  0  0  0  0  0  0
   90.8790  100.3010  -43.3270 C   0  0  2  0  0  0  0  0  0  0  0  0
   89.8780   99.7980  -44.3550 C   0  0  2  0  0  0  0  0  0  0  0  0
   90.1010   98.2560  -44.0520 C   0  0  0  0  0  0  0  0  0  0  0  0
   90.3980   99.9610  -45.7540 C   0  0  0  0  0  0  0  0  0  0  0  0
   89.3170  100.2790  -46.6180 O   0  0  0  0  0  0  0  0  0  0  0  0
   91.1210  101.7790  -43.5120 C   0  0  0  0  0  0  0  0  0  0  0  0
   91.8420  102.2640  -42.3780 N   0  0  0  0  0  0  0  0  0  0  0  0
   91.2930  101.8050  -41.1190 C   0  0  0  0  0  0  0  0  0  0  0  0
   92.2790  101.0300  -40.2760 C   0  0  0  0  0  0  0  0  0  0  0  0
   93.4640  101.6930  -40.0480 O   0  0  0  0  0  0  0  0  0  0  0  0
   93.8740  102.4560  -41.1370 C   0  0  0  0  0  0  0  0  0  0  0  0
   93.2450  101.9180  -42.3860 C   0  0  0  0  0  0  0  0  0  0  0  0
   91.9280   93.1540  -39.9810 C   0  0  0  0  0  0  0  0  0  0  0  0
   91.8820   92.7360  -43.0560 C   0  0  0  0  0  0  0  0  0  0  0  0
   91.8360   92.7780  -44.4530 C   0  0  0  0  0  0  0  0  0  0  0  0
   91.7340   94.0100  -45.0910 C   0  0  0  0  0  0  0  0  0  0  0  0
   91.0180   98.1630  -41.5410 H   0  0  0  0  0  0  0  0  0  0  0  0
   92.6800   98.0160  -42.0250 H   0  0  0  0  0  0  0  0  0  0  0  0
   92.9250   99.5200  -43.0180 H   0  0  0  0  0  0  0  0  0  0  0  0
   92.3740   99.5670  -44.6680 H   0  0  0  0  0  0  0  0  0  0  0  0
   90.4000  100.1760  -42.3680 H   0  0  0  0  0  0  0  0  0  0  0  0
   88.8690  100.0780  -44.1430 H   0  0  0  0  0  0  0  0  0  0  0  0
   89.2560   97.9960  -43.4670 H   0  0  0  0  0  0  0  0  0  0  0  0
   89.9640   97.7690  -45.0790 H   0  0  0  0  0  0  0  0  0  0  0  0
   90.6970   98.9120  -46.1500 H   0  0  0  0  0  0  0  0  0  0  0  0
   91.2320  100.5800  -45.9480 H   0  0  0  0  0  0  0  0  0  0  0  0
   88.9190  101.1550  -46.2420 H   0  0  0  0  0  0  0  0  0  0  0  0
   91.7650  101.8740  -44.3970 H   0  0  0  0  0  0  0  0  0  0  0  0
   90.1900  102.3310  -43.6920 H   0  0  0  0  0  0  0  0  0  0  0  0
   90.9140  102.6740  -40.5680 H   0  0  0  0  0  0  0  0  0  0  0  0
   90.4230  101.1070  -41.2910 H   0  0  0  0  0  0  0  0  0  0  0  0
   92.3900  100.0330  -40.7060 H   0  0  0  0  0  0  0  0  0  0  0  0
   91.7810  100.9170  -39.2780 H   0  0  0  0  0  0  0  0  0  0  0  0
   93.5520  103.4930  -40.9460 H   0  0  0  0  0  0  0  0  0  0  0  0
   94.9920  102.3950  -41.1990 H   0  0  0  0  0  0  0  0  0  0  0  0
   93.7420  102.3200  -43.2930 H   0  0  0  0  0  0  0  0  0  0  0  0
   93.2920  100.8120  -42.3570 H   0  0  0  0  0  0  0  0  0  0  0  0
   91.0400   92.4580  -40.1870 H   0  0  0  0  0  0  0  0  0  0  0  0
   91.6590   93.5930  -39.0070 H   0  0  0  0  0  0  0  0  0  0  0  0
   92.7990   92.5470  -40.0640 H   0  0  0  0  0  0  0  0  0  0  0  0
   92.0750   91.7460  -42.5850 H   0  0  0  0  0  0  0  0  0  0  0  0
   91.9260   91.9080  -45.0440 H   0  0  0  0  0  0  0  0  0  0  0  0
   91.6840   94.1100  -46.1490 H   0  0  0  0  0  0  0  0  0  0  0  0
  1  2  1  0  0  0  0
  2  3  1  0  0  0  0
  3  4  2  0  0  0  0
  3  7  1  0  0  0  0
  4  5  1  0  0  0  0
  5  6  1  0  0  0  0
  5 23  1  0  0  0  0
  7  6  2  0  0  0  0
  8  7  1  0  0  0  0
  8 28  1  0  0  0  0
  8 27  1  0  0  0  0
  9  8  1  0  0  0  0
 10  9  1  0  0  0  0
 10 11  1  0  0  0  0
 10 29  1  0  0  0  0
 11 31  1  1  0  0  0
 12 32  1  1  0  0  0
 12 13  1  0  0  0  0
 12 11  1  0  0  0  0
 13  9  1  0  0  0  0
 13 33  1  0  0  0  0
 14 12  1  0  0  0  0
 15 37  1  0  0  0  0
 15 14  1  0  0  0  0
 16 11  1  0  0  0  0
 16 17  1  0  0  0  0
 17 18  1  0  0  0  0
 18 40  1  0  0  0  0
 18 19  1  0  0  0  0
 19 20  1  0  0  0  0
 19 43  1  0  0  0  0
 21 44  1  0  0  0  0
 21 20  1  0  0  0  0
 22 17  1  0  0  0  0
 22 47  1  0  0  0  0
 22 21  1  0  0  0  0
 23 49  1  0  0  0  0
 24 51  1  0  0  0  0
 24  4  1  0  0  0  0
 25 24  2  0  0  0  0
 26 25  1  0  0  0  0
 26  2  2  0  0  0  0
 30 10  1  0  0  0  0
 34 13  1  0  0  0  0
 35 14  1  0  0  0  0
 36 14  1  0  0  0  0
 38 16  1  0  0  0  0
 39 16  1  0  0  0  0
 41 18  1  0  0  0  0
 42 19  1  0  0  0  0
 45 21  1  0  0  0  0
 46 22  1  0  0  0  0
 48 23  1  0  0  0  0
 50 23  1  0  0  0  0
 52 25  1  0  0  0  0
 53 26  1  0  0  0  0
M  END
>  <Pose>
1

>  <Score>
-3.74

$$$$
