
 OpenBabel03212208273D

 49 52  0  0  1  0  0  0  0  0999 V2000
   91.2170  100.5790  -45.3930 B   0  0  0  0  0  0  0  0  0  0  0  0
   91.5010   99.0890  -44.2440 C   0  0  0  0  0  0  0  0  0  0  0  0
   91.8550   99.2710  -42.9260 C   0  0  0  0  0  0  0  0  0  0  0  0
   92.0620   98.2150  -42.0890 C   0  0  0  0  0  0  0  0  0  0  0  0
   92.4080   98.0750  -40.7780 N   0  0  0  0  0  0  0  0  0  0  0  0
   92.4700   96.7880  -40.4720 N   0  0  0  0  0  0  0  0  0  0  0  0
   92.1750   96.0380  -41.5420 C   0  0  0  0  0  0  0  0  0  0  0  0
   91.9150   96.9370  -42.5700 C   0  0  0  0  0  0  0  0  0  0  0  0
   91.5600   96.7240  -43.8960 C   0  0  0  0  0  0  0  0  0  0  0  0
   91.3510   97.7920  -44.7390 C   0  0  0  0  0  0  0  0  0  0  0  0
   92.1110   94.6290  -41.6880 N   0  0  0  0  0  0  0  0  0  0  0  0
   90.9650   93.8370  -42.1320 C   0  0  0  0  0  0  0  0  0  0  0  0
   91.6040   92.7740  -42.9990 C   0  0  2  0  0  0  0  0  0  0  0  0
   92.8300   92.3870  -42.1810 C   0  0  0  0  0  0  0  0  0  0  0  0
   93.1330   93.6600  -41.4360 C   0  0  0  0  0  0  0  0  0  0  0  0
   94.1410   93.8550  -40.6940 O   0  0  0  0  0  0  0  0  0  0  0  0
   92.0140   93.3110  -44.3190 C   0  0  0  0  0  0  0  0  0  0  0  0
   93.2410   93.3650  -44.5810 O   0  0  0  0  0  0  0  0  0  0  0  0
   91.0810   93.7590  -45.2810 N   0  0  0  0  0  0  0  0  0  0  0  0
   90.3500   92.8620  -46.1390 C   0  0  0  0  0  0  0  0  0  0  0  0
   91.2710   92.3300  -47.2160 C   0  0  0  0  0  0  0  0  0  0  0  0
   91.3610   90.8900  -47.2170 N   0  0  0  0  0  0  0  0  0  0  0  0
   90.7550   90.4170  -48.4560 C   0  0  0  0  0  0  0  0  0  0  0  0
   91.7700   90.4630  -49.5950 C   0  0  0  0  0  0  0  0  0  0  0  0
   92.7900   89.5550  -49.4320 O   0  0  0  0  0  0  0  0  0  0  0  0
   92.9020   89.2230  -48.1020 C   0  0  0  0  0  0  0  0  0  0  0  0
   92.7290   90.4240  -47.1950 C   0  0  0  0  0  0  0  0  0  0  0  0
   91.9740  100.2710  -42.5310 H   0  0  0  0  0  0  0  0  0  0  0  0
   92.5780   98.9270  -40.1860 H   0  0  0  0  0  0  0  0  0  0  0  0
   91.4470   95.6930  -44.2660 H   0  0  0  0  0  0  0  0  0  0  0  0
   91.0710   97.6060  -45.7800 H   0  0  0  0  0  0  0  0  0  0  0  0
   90.2020   94.4320  -42.6450 H   0  0  0  0  0  0  0  0  0  0  0  0
   90.4970   93.3290  -41.2650 H   0  0  0  0  0  0  0  0  0  0  0  0
   90.9540   91.8870  -43.0760 H   0  0  0  0  0  0  0  0  0  0  0  0
   93.6760   92.2620  -42.8890 H   0  0  0  0  0  0  0  0  0  0  0  0
   92.6560   91.5430  -41.5200 H   0  0  0  0  0  0  0  0  0  0  0  0
   90.9320   94.7980  -45.3560 H   0  0  0  0  0  0  0  0  0  0  0  0
   89.5970   93.4990  -46.6820 H   0  0  0  0  0  0  0  0  0  0  0  0
   89.8030   92.0780  -45.6190 H   0  0  0  0  0  0  0  0  0  0  0  0
   92.3070   92.7080  -47.0160 H   0  0  0  0  0  0  0  0  0  0  0  0
   90.9910   92.7060  -48.2190 H   0  0  0  0  0  0  0  0  0  0  0  0
   90.3530   89.4080  -48.3940 H   0  0  0  0  0  0  0  0  0  0  0  0
   89.9470   91.1390  -48.7130 H   0  0  0  0  0  0  0  0  0  0  0  0
   91.1800   90.2070  -50.5210 H   0  0  0  0  0  0  0  0  0  0  0  0
   92.2080   91.4750  -49.7120 H   0  0  0  0  0  0  0  0  0  0  0  0
   92.2000   88.4300  -47.7820 H   0  0  0  0  0  0  0  0  0  0  0  0
   93.9350   88.8230  -47.9570 H   0  0  0  0  0  0  0  0  0  0  0  0
   93.0320   90.0770  -46.1750 H   0  0  0  0  0  0  0  0  0  0  0  0
   93.4520   91.2210  -47.4860 H   0  0  0  0  0  0  0  0  0  0  0  0
  1  2  1  0  0  0  0
  2  3  1  0  0  0  0
  3 28  1  0  0  0  0
  3  4  2  0  0  0  0
  4  5  1  0  0  0  0
  5  6  1  0  0  0  0
  5 29  1  0  0  0  0
  7  6  2  0  0  0  0
  8  4  1  0  0  0  0
  8  7  1  0  0  0  0
  9  8  2  0  0  0  0
 10  2  2  0  0  0  0
 10  9  1  0  0  0  0
 11  7  1  0  0  0  0
 11 15  1  0  0  0  0
 12 11  1  0  0  0  0
 12 33  1  0  0  0  0
 13 34  1  6  0  0  0
 13 14  1  0  0  0  0
 13 12  1  0  0  0  0
 14 36  1  0  0  0  0
 14 15  1  0  0  0  0
 15 16  2  0  0  0  0
 17 13  1  0  0  0  0
 18 17  2  0  0  0  0
 19 17  1  0  0  0  0
 20 39  1  0  0  0  0
 20 19  1  0  0  0  0
 21 40  1  0  0  0  0
 21 20  1  0  0  0  0
 22 21  1  0  0  0  0
 22 27  1  0  0  0  0
 23 42  1  0  0  0  0
 23 22  1  0  0  0  0
 24 25  1  0  0  0  0
 24 23  1  0  0  0  0
 25 26  1  0  0  0  0
 26 47  1  0  0  0  0
 26 46  1  0  0  0  0
 26 27  1  0  0  0  0
 27 48  1  0  0  0  0
 30  9  1  0  0  0  0
 31 10  1  0  0  0  0
 32 12  1  0  0  0  0
 35 14  1  0  0  0  0
 37 19  1  0  0  0  0
 38 20  1  0  0  0  0
 41 21  1  0  0  0  0
 43 23  1  0  0  0  0
 44 24  1  0  0  0  0
 45 24  1  0  0  0  0
 49 27  1  0  0  0  0
M  END
>  <Pose>
1

>  <Score>
-6.49

$$$$
