
 OpenBabel03212208273D

 40 43  0  0  1  0  0  0  0  0999 V2000
   94.5320  101.1680  -40.1670 Cl  0  0  0  0  0  0  0  0  0  0  0  0
   92.9930  100.9080  -40.9590 C   0  0  0  0  0  0  0  0  0  0  0  0
   92.6690   99.9660  -41.8880 N   0  0  0  0  0  0  0  0  0  0  0  0
   91.3960  100.0660  -42.2730 C   0  0  0  0  0  0  0  0  0  0  0  0
   90.9030  101.1450  -41.5280 C   0  0  0  0  0  0  0  0  0  0  0  0
   91.8820  101.6690  -40.7160 C   0  0  0  0  0  0  0  0  0  0  0  0
   91.7590  103.0160  -39.6060 Cl  0  0  0  0  0  0  0  0  0  0  0  0
   90.6330   99.3070  -43.2300 C   0  0  0  0  0  0  0  0  0  0  0  0
   89.4440   98.9700  -42.7670 O   0  0  0  0  0  0  0  0  0  0  0  0
   90.9480   98.8920  -44.5140 N   0  0  0  0  0  0  0  0  0  0  0  0
   89.8370   98.4410  -45.3870 C   0  0  0  0  0  0  0  0  0  0  0  0
   90.1340   97.0040  -45.7250 C   0  0  0  0  0  0  0  0  0  0  0  0
   91.4040   96.5330  -45.2720 N   0  0  0  0  0  0  0  0  0  0  0  0
   92.5930   97.3650  -45.1590 C   0  0  0  0  0  0  0  0  0  0  0  0
   92.2070   98.8360  -45.1610 C   0  0  0  0  0  0  0  0  0  0  0  0
   91.5590   95.1710  -44.8950 C   0  0  2  0  0  0  0  0  0  0  0  0
   91.6270   94.1960  -45.8210 N   0  0  0  0  0  0  0  0  0  0  0  0
   91.7720   92.8940  -45.4800 C   0  0  0  0  0  0  0  0  0  0  0  0
   91.8540   92.5350  -44.1880 N   0  0  0  0  0  0  0  0  0  0  0  0
   91.7950   93.4470  -43.2040 C   0  0  0  0  0  0  0  0  0  0  0  0
   91.8520   93.3520  -41.8630 N   0  0  0  0  0  0  0  0  0  0  0  0
   91.7440   94.5750  -41.3830 N   0  0  0  0  0  0  0  0  0  0  0  0
   91.6170   95.4730  -42.3880 C   0  0  0  0  0  0  0  0  0  0  0  0
   91.6450   94.7880  -43.5740 C   0  0  0  0  0  0  0  0  0  0  0  0
   92.0050   92.1410  -41.0550 C   0  0  0  0  0  0  0  0  0  0  0  0
   93.4000   99.2880  -42.1830 H   0  0  0  0  0  0  0  0  0  0  0  0
   89.8920  101.5700  -41.5370 H   0  0  0  0  0  0  0  0  0  0  0  0
   88.8790   98.5800  -44.8670 H   0  0  0  0  0  0  0  0  0  0  0  0
   89.8720   99.0740  -46.3090 H   0  0  0  0  0  0  0  0  0  0  0  0
   89.2810   96.4020  -45.3520 H   0  0  0  0  0  0  0  0  0  0  0  0
   90.0870   96.8960  -46.8480 H   0  0  0  0  0  0  0  0  0  0  0  0
   93.2830   97.1440  -45.9790 H   0  0  0  0  0  0  0  0  0  0  0  0
   93.0670   97.1290  -44.1930 H   0  0  0  0  0  0  0  0  0  0  0  0
   92.0460   99.0460  -46.2880 H   0  0  0  0  0  0  0  0  0  0  0  0
   93.0080   99.4730  -44.8470 H   0  0  0  0  0  0  0  0  0  0  0  0
   91.8230   92.1320  -46.2430 H   0  0  0  0  0  0  0  0  0  0  0  0
   91.5130   96.5250  -42.2750 H   0  0  0  0  0  0  0  0  0  0  0  0
   91.0270   91.9690  -40.5340 H   0  0  0  0  0  0  0  0  0  0  0  0
   92.8240   92.2320  -40.3280 H   0  0  0  0  0  0  0  0  0  0  0  0
   92.2010   91.2720  -41.6910 H   0  0  0  0  0  0  0  0  0  0  0  0
  2  6  2  0  0  0  0
  2  1  1  0  0  0  0
  3  2  1  0  0  0  0
  4  3  1  0  0  0  0
  4  5  2  0  0  0  0
  5  6  1  0  0  0  0
  6  7  1  0  0  0  0
  8  9  2  0  0  0  0
  8  4  1  0  0  0  0
 10  8  1  0  0  0  0
 11 28  1  0  0  0  0
 11 10  1  0  0  0  0
 12 11  1  0  0  0  0
 12 30  1  0  0  0  0
 12 13  1  0  0  0  0
 13 14  1  0  0  0  0
 14 33  1  0  0  0  0
 15 14  1  0  0  0  0
 15 35  1  0  0  0  0
 15 10  1  0  0  0  0
 16 13  1  1  0  0  0
 16 24  1  0  0  0  0
 17 18  2  0  0  0  0
 17 16  1  0  0  0  0
 18 19  1  0  0  0  0
 19 20  1  0  0  0  0
 20 21  1  0  0  0  0
 21 22  1  0  0  0  0
 21 25  1  0  0  0  0
 23 37  1  0  0  0  0
 23 22  2  0  0  0  0
 24 20  2  0  0  0  0
 24 23  1  0  0  0  0
 25 38  1  0  0  0  0
 25 39  1  0  0  0  0
 26  3  1  0  0  0  0
 27  5  1  0  0  0  0
 29 11  1  0  0  0  0
 31 12  1  0  0  0  0
 32 14  1  0  0  0  0
 34 15  1  0  0  0  0
 36 18  1  0  0  0  0
 40 25  1  0  0  0  0
M  END
>  <Pose>
1

>  <Score>
-5.82

$$$$
