
 OpenBabel03212208273D

 52 55  0  0  1  0  0  0  0  0999 V2000
   91.7900   93.7190  -45.2880 Cl  0  0  0  0  0  0  0  0  0  0  0  0
   91.7950   94.6960  -43.8230 C   0  0  0  0  0  0  0  0  0  0  0  0
   91.7390   96.0890  -43.9810 C   0  0  0  0  0  0  0  0  0  0  0  0
   91.7430   96.8440  -42.8400 C   0  0  0  0  0  0  0  0  0  0  0  0
   91.8020   96.2470  -41.5630 C   0  0  0  0  0  0  0  0  0  0  0  0
   91.8560   94.8840  -41.4210 C   0  0  0  0  0  0  0  0  0  0  0  0
   91.8520   94.1280  -42.5730 C   0  0  0  0  0  0  0  0  0  0  0  0
   91.6670   98.2570  -43.2350 C   0  0  2  0  0  0  0  0  0  0  0  0
   92.6700   99.0850  -42.6690 N   0  0  0  0  0  0  0  0  0  0  0  0
   92.2270  100.4000  -42.5150 C   0  0  1  0  0  0  0  0  0  0  0  0
   90.7190  100.3190  -42.6040 C   0  0  2  0  0  0  0  0  0  0  0  0
   90.3550   98.8780  -42.7590 C   0  0  1  0  0  0  0  0  0  0  0  0
   89.2860   98.7920  -43.7880 C   0  0  0  0  0  0  0  0  0  0  0  0
   88.6820   97.7340  -44.0830 O   0  0  0  0  0  0  0  0  0  0  0  0
   89.1020  100.0960  -44.3390 N   0  0  0  0  0  0  0  0  0  0  0  0
   90.1820  100.9070  -43.8510 C   0  0  0  0  0  0  0  0  0  0  0  0
   90.5880  101.9400  -44.4060 O   0  0  0  0  0  0  0  0  0  0  0  0
   88.0570  100.5480  -45.2050 C   0  0  0  0  0  0  0  0  0  0  0  0
   86.7620   99.8250  -45.1000 C   0  0  0  0  0  0  0  0  0  0  0  0
   86.1750   99.7060  -43.7380 C   0  0  0  0  0  0  0  0  0  0  0  0
   85.3780   98.4160  -43.5760 C   0  0  0  0  0  0  0  0  0  0  0  0
   92.7030  101.1950  -41.3620 C   0  0  0  0  0  0  0  0  0  0  0  0
   93.9340  101.9950  -41.5220 C   0  0  0  0  0  0  0  0  0  0  0  0
   94.9760  101.8470  -40.5010 C   0  0  0  0  0  0  0  0  0  0  0  0
   94.9290  100.9140  -39.6780 O   0  0  0  0  0  0  0  0  0  0  0  0
   96.0840  102.7380  -40.3910 N   0  0  0  0  0  0  0  0  0  0  0  0
   91.6590   98.2510  -44.7010 C   0  0  0  0  0  0  0  0  0  0  0  0
   91.6320   99.2370  -45.5030 O   0  0  0  0  0  0  0  0  0  0  0  0
   91.6870   96.9080  -45.1430 N   0  0  0  0  0  0  0  0  0  0  0  0
   91.8040   96.8800  -40.6800 H   0  0  0  0  0  0  0  0  0  0  0  0
   91.9020   94.3940  -40.4580 H   0  0  0  0  0  0  0  0  0  0  0  0
   91.8930   93.0520  -42.4850 H   0  0  0  0  0  0  0  0  0  0  0  0
   93.6320   98.9350  -43.0160 H   0  0  0  0  0  0  0  0  0  0  0  0
   92.5450  100.9690  -43.4430 H   0  0  0  0  0  0  0  0  0  0  0  0
   90.2140  100.8180  -41.7620 H   0  0  0  0  0  0  0  0  0  0  0  0
   89.9890   98.3990  -41.8510 H   0  0  0  0  0  0  0  0  0  0  0  0
   88.4070  100.4100  -46.2710 H   0  0  0  0  0  0  0  0  0  0  0  0
   87.8940  101.6510  -45.1220 H   0  0  0  0  0  0  0  0  0  0  0  0
   86.0100  100.4030  -45.7160 H   0  0  0  0  0  0  0  0  0  0  0  0
   86.8190   98.8410  -45.6300 H   0  0  0  0  0  0  0  0  0  0  0  0
   85.5100  100.5090  -43.4160 H   0  0  0  0  0  0  0  0  0  0  0  0
   87.0410   99.6800  -43.0170 H   0  0  0  0  0  0  0  0  0  0  0  0
   84.8170   98.1530  -44.4950 H   0  0  0  0  0  0  0  0  0  0  0  0
   84.6540   98.4960  -42.7330 H   0  0  0  0  0  0  0  0  0  0  0  0
   86.0460   97.5570  -43.3660 H   0  0  0  0  0  0  0  0  0  0  0  0
   91.8300  101.7930  -40.9860 H   0  0  0  0  0  0  0  0  0  0  0  0
   92.8900  100.4740  -40.5100 H   0  0  0  0  0  0  0  0  0  0  0  0
   94.4490  101.7600  -42.5070 H   0  0  0  0  0  0  0  0  0  0  0  0
   93.7340  103.0920  -41.6080 H   0  0  0  0  0  0  0  0  0  0  0  0
   95.9960  103.7260  -40.0940 H   0  0  0  0  0  0  0  0  0  0  0  0
   97.0280  102.3830  -40.6180 H   0  0  0  0  0  0  0  0  0  0  0  0
   91.6740   96.5380  -46.1230 H   0  0  0  0  0  0  0  0  0  0  0  0
  1  2  1  0  0  0  0
  2  7  1  0  0  0  0
  3  2  2  0  0  0  0
  3  4  1  0  0  0  0
  4  5  2  0  0  0  0
  5  6  1  0  0  0  0
  5 30  1  0  0  0  0
  6 31  1  0  0  0  0
  7 32  1  0  0  0  0
  7  6  2  0  0  0  0
  8 27  1  6  0  0  0
  8  4  1  0  0  0  0
  8 12  1  0  0  0  0
  8  9  1  0  0  0  0
  9 10  1  0  0  0  0
 10 34  1  6  0  0  0
 10 22  1  0  0  0  0
 11 10  1  0  0  0  0
 11 35  1  1  0  0  0
 12 11  1  0  0  0  0
 12 36  1  1  0  0  0
 13 12  1  0  0  0  0
 14 13  2  0  0  0  0
 15 16  1  0  0  0  0
 15 13  1  0  0  0  0
 16 11  1  0  0  0  0
 17 16  2  0  0  0  0
 18 38  1  0  0  0  0
 18 19  1  0  0  0  0
 18 15  1  0  0  0  0
 19 20  1  0  0  0  0
 20 21  1  0  0  0  0
 20 41  1  0  0  0  0
 20 42  1  0  0  0  0
 21 45  1  0  0  0  0
 21 44  1  0  0  0  0
 22 46  1  0  0  0  0
 22 47  1  0  0  0  0
 23 22  1  0  0  0  0
 23 24  1  0  0  0  0
 24 26  1  0  0  0  0
 24 25  2  0  0  0  0
 26 50  1  0  0  0  0
 28 27  2  0  0  0  0
 29 27  1  0  0  0  0
 29  3  1  0  0  0  0
 33  9  1  0  0  0  0
 37 18  1  0  0  0  0
 39 19  1  0  0  0  0
 40 19  1  0  0  0  0
 43 21  1  0  0  0  0
 48 23  1  0  0  0  0
 49 23  1  0  0  0  0
 51 26  1  0  0  0  0
 52 29  1  0  0  0  0
M  END
>  <Pose>
1

>  <Score>
-6.35

$$$$
