# created with PyMOL 2.3.2
@<TRIPOS>MOLECULE
2
50 53 1                 
SMALL
USER_CHARGES
@<TRIPOS>ATOM
1	  Br	-1.998	6.872	-5.266	Br	1	UNK0	0.000	
2	   C	-0.718	5.479	-4.937	C.2	1	UNK0	0.000	
3	   C	0.457	5.480	-5.664	C.2	1	UNK0	0.000	
4	   C	1.362	4.472	-5.412	C.2	1	UNK0	0.000	
5	   C	1.089	3.501	-4.463	C.2	1	UNK0	0.000	
6	   C	-0.083	3.496	-3.735	C.2	1	UNK0	0.000	
7	   C	-0.984	4.508	-3.993	C.2	1	UNK0	0.000	
8	   O	-2.178	4.500	-3.249	O.3	1	UNK0	0.000	
9	   C	-0.381	2.470	-2.727	C.2	1	UNK0	0.000	
10	   N	0.428	1.515	-2.459	N.2	1	UNK0	0.000	
11	   N	0.092	0.534	-1.463	N.pl3	1	UNK0	0.000	
12	   C	-0.338	-0.711	-1.936	C.2	1	UNK0	0.000	
13	   O	-0.378	-0.835	-3.235	O.2	1	UNK0	0.000	
14	   C	-0.746	-1.894	-1.217	C.2	1	UNK0	0.000	
15	   N	-1.046	-3.081	-1.851	N.2	1	UNK0	0.000	
16	   N	-1.382	-3.940	-0.943	N.2	1	UNK0	0.000	
17	   N	-1.312	-3.352	0.283	N.pl3	1	UNK0	0.000	
18	   C	-0.922	-2.086	0.147	C.2	1	UNK0	0.000	
19	   C	-0.713	-1.070	1.178	C.3	1	UNK0	0.000	
20	   N	-0.936	-1.392	2.537	N.4	1	UNK0	0.000	
21	   C	-2.224	-0.933	3.036	C.3	1	UNK0	0.000	
22	   C	-2.431	0.500	2.749	C.3	1	UNK0	0.000	
23	   O	-1.400	1.347	2.732	O.3	1	UNK0	0.000	
24	   C	-0.141	0.878	2.924	C.3	1	UNK0	0.000	
25	   C	-0.000	-0.532	3.332	C.3	1	UNK0	0.000	
26	   C	-1.632	-4.115	1.449	C.2	1	UNK0	0.000	
27	   N	-2.724	-4.169	2.201	N.2	1	UNK0	0.000	
28	   O	-2.519	-5.049	3.125	O.3	1	UNK0	0.000	
29	   N	-1.343	-5.585	3.027	N.2	1	UNK0	0.000	
30	   C	-0.725	-5.042	1.987	C.2	1	UNK0	0.000	
31	   N	0.573	-5.297	1.475	N.pl3	1	UNK0	0.000	
32	  Br	2.987	4.477	-6.420	Br	1	UNK0	0.000	
33	   O	0.699	6.475	-6.613	O.2	1	UNK0	0.000	
34	   H	1.817	2.710	-4.277	 H	1	UNK0	0.000	
35	   H	-2.863	5.223	-3.406	 H	1	UNK0	0.000	
36	   H	-1.300	2.518	-2.198	 H	1	UNK0	0.000	
37	   H	0.189	0.792	-0.495	 H	1	UNK0	0.000	
38	   H	-1.278	-0.110	0.922	 H	1	UNK0	0.000	
39	   H	0.379	-0.760	1.114	 H	1	UNK0	0.000	
40	   H	-0.744	-2.358	2.758	 H	1	UNK0	0.000	
41	   H	-2.158	-1.051	4.158	 H	1	UNK0	0.000	
42	   H	-3.079	-1.517	2.708	 H	1	UNK0	0.000	
43	   H	-3.189	0.880	3.498	 H	1	UNK0	0.000	
44	   H	-2.993	0.578	1.772	 H	1	UNK0	0.000	
45	   H	0.458	1.067	2.010	 H	1	UNK0	0.000	
46	   H	0.341	1.514	3.721	 H	1	UNK0	0.000	
47	   H	-0.240	-0.727	4.385	 H	1	UNK0	0.000	
48	   H	0.999	-0.930	3.108	 H	1	UNK0	0.000	
49	   H	0.832	-6.266	1.196	 H	1	UNK0	0.000	
50	   H	1.302	-4.535	1.363	 H	1	UNK0	0.000	
@<TRIPOS>BOND
1 1 2 1
2 2 3 2
3 2 7 1
4 3 4 1
5 3 33 1
6 4 5 2
7 4 32 1
8 5 6 1
9 6 7 2
10 6 9 1
11 7 8 1
12 9 10 2
13 10 11 1
14 11 12 1
15 12 13 2
16 12 14 1
17 14 15 1
18 14 18 2
19 15 16 2
20 16 17 1
21 17 18 1
22 17 26 1
23 18 19 1
24 19 20 1
25 20 21 1
26 20 25 1
27 21 22 1
28 22 23 1
29 23 24 1
30 24 25 1
31 26 27 2
32 26 30 1
33 27 28 1
34 28 29 1
35 29 30 2
36 30 31 1
37 5 34 1
38 8 35 1
39 9 36 1
40 11 37 1
41 19 38 1
42 19 39 1
43 20 40 1
44 21 41 1
45 21 42 1
46 22 43 1
47 22 44 1
48 24 45 1
49 24 46 1
50 25 47 1
51 25 48 1
52 31 49 1
53 31 50 1
@<TRIPOS>SUBSTRUCTURE
1	UNK0	1	GROUP	1 ****	UNK
