REMARK  8 active torsions:
REMARK  status: ('A' for Active; 'I' for Inactive)
REMARK    1  A    between atoms: C_6  and  C_9 
REMARK    2  A    between atoms: C_7  and  O_8 
REMARK    3  A    between atoms: N_10  and  N_11 
REMARK       I    between atoms: N_11  and  C_12 
REMARK    4  A    between atoms: C_12  and  C_14 
REMARK    5  A    between atoms: N_17  and  C_26 
REMARK    6  A    between atoms: C_18  and  C_19 
REMARK    7  A    between atoms: C_19  and  N_20 
REMARK    8  A    between atoms: C_30  and  N_31 
ROOT
ATOM      1  C   UNK d   1      -0.746  -1.894  -1.217  0.00  0.00     0.162 A 
ATOM      2  N   UNK d   1      -1.046  -3.081  -1.851  0.00  0.00    -0.125 NA
ATOM      3  N   UNK d   1      -1.382  -3.940  -0.943  0.00  0.00    -0.058 NA
ATOM      4  N   UNK d   1      -1.312  -3.352   0.283  0.00  0.00    -0.191 N 
ATOM      5  C   UNK d   1      -0.922  -2.086   0.147  0.00  0.00     0.101 A 
ENDROOT
BRANCH   1   6
ATOM      6  C   UNK d   1      -0.338  -0.711  -1.936  0.00  0.00     0.228 C 
ATOM      7  N   UNK d   1       0.092   0.534  -1.463  0.00  0.00    -0.253 N 
ATOM      8  H   UNK d   1       0.189   0.792  -0.495  0.00  0.00     0.191 HD
ATOM      9  O   UNK d   1      -0.378  -0.835  -3.235  0.00  0.00    -0.168 OA
BRANCH   7  10
ATOM     10  N   UNK d   1       0.428   1.515  -2.459  0.00  0.00    -0.184 NA
ATOM     11  C   UNK d   1      -0.381   2.470  -2.727  0.00  0.00     0.153 C 
BRANCH  11  12
ATOM     12  C   UNK d   1      -0.083   3.496  -3.735  0.00  0.00     0.019 A 
ATOM     13  C   UNK d   1       1.089   3.501  -4.463  0.00  0.00     0.038 A 
ATOM     14  C   UNK d   1       1.362   4.472  -5.412  0.00  0.00     0.049 A 
ATOM     15  C   UNK d   1       0.457   5.480  -5.664  0.00  0.00     0.144 A 
ATOM     16 Br   UNK d   1       2.987   4.477  -6.420  0.00  0.00    -0.048 Br
ATOM     17  C   UNK d   1      -0.718   5.479  -4.937  0.00  0.00     0.082 A 
ATOM     18  O   UNK d   1       0.699   6.475  -6.613  0.00  0.00    -0.189 OA
ATOM     19 Br   UNK d   1      -1.998   6.872  -5.266  0.00  0.00    -0.045 Br
ATOM     20  C   UNK d   1      -0.984   4.508  -3.993  0.00  0.00     0.097 A 
BRANCH  20  21
ATOM     21  O   UNK d   1      -2.178   4.500  -3.249  0.00  0.00    -0.358 OA
ATOM     22  H   UNK d   1      -2.863   5.223  -3.406  0.00  0.00     0.217 HD
ENDBRANCH  20  21
ENDBRANCH  11  12
ENDBRANCH   7  10
ENDBRANCH   1   6
BRANCH   5  23
ATOM     23  C   UNK d   1      -0.713  -1.070   1.178  0.00  0.00     0.296 C 
BRANCH  23  24
ATOM     24  N   UNK d   1      -0.936  -1.392   2.537  0.00  0.00    -0.062 N 
ATOM     25  C   UNK d   1      -2.224  -0.933   3.036  0.00  0.00     0.261 C 
ATOM     26  C   UNK d   1      -2.431   0.500   2.749  0.00  0.00     0.195 C 
ATOM     27  O   UNK d   1      -1.400   1.347   2.732  0.00  0.00    -0.388 OA
ATOM     28  C   UNK d   1      -0.141   0.878   2.924  0.00  0.00     0.195 C 
ATOM     29  C   UNK d   1      -0.000  -0.532   3.332  0.00  0.00     0.261 C 
ATOM     30  H   UNK d   1      -0.744  -2.358   2.758  0.00  0.00     0.280 HD
ENDBRANCH  23  24
ENDBRANCH   5  23
BRANCH   4  31
ATOM     31  C   UNK d   1      -1.632  -4.115   1.449  0.00  0.00     0.229 A 
ATOM     32  N   UNK d   1      -2.724  -4.169   2.201  0.00  0.00    -0.081 NA
ATOM     33  O   UNK d   1      -2.519  -5.049   3.125  0.00  0.00    -0.103 OA
ATOM     34  N   UNK d   1      -1.343  -5.585   3.027  0.00  0.00    -0.083 NA
ATOM     35  C   UNK d   1      -0.725  -5.042   1.987  0.00  0.00     0.201 A 
BRANCH  35  36
ATOM     36  N   UNK d   1       0.573  -5.297   1.475  0.00  0.00    -0.379 N 
ATOM     37  H   UNK d   1       0.832  -6.266   1.196  0.00  0.00     0.158 HD
ATOM     38  H   UNK d   1       1.302  -4.535   1.363  0.00  0.00     0.158 HD
ENDBRANCH  35  36
ENDBRANCH   4  31
TORSDOF 8
