REMARK  7 active torsions:
REMARK  status: ('A' for Active; 'I' for Inactive)
REMARK    1  A    between atoms: C_3  and  O_31 
REMARK    2  A    between atoms: C_6  and  C_9 
REMARK    3  A    between atoms: C_7  and  O_8 
REMARK    4  A    between atoms: N_10  and  N_11 
REMARK    5  A    between atoms: N_11  and  C_12 
REMARK    6  A    between atoms: C_14  and  N_24 
REMARK    7  A    between atoms: C_16  and  N_18 
ROOT
ATOM      1  C   UNK d   1       0.620  -0.553  -0.621  0.00  0.00     0.774 A 
ATOM      2  N   UNK d   1       0.346  -0.127   0.610  0.00  0.00     0.133 NA
ATOM      3  C   UNK d   1      -0.711  -0.597   1.333  0.00  0.00     0.756 A 
ATOM      4  N   UNK d   1      -1.466  -1.517   0.737  0.00  0.00     0.131 NA
ATOM      5  C   UNK d   1      -1.259  -2.005  -0.507  0.00  0.00     0.756 A 
ATOM      6  N   UNK d   1      -0.180  -1.480  -1.161  0.00  0.00     0.133 NA
ENDROOT
BRANCH   1   7
ATOM      7  N   UNK d   1       1.732  -0.038  -1.342  0.00  0.00    -0.105 N 
ATOM      8  H   UNK d   1       1.990  -0.328  -2.291  0.00  0.00     0.208 HD
BRANCH   7   9
ATOM      9  N   UNK d   1       2.549   0.937  -0.737  0.00  0.00    -0.171 NA
ATOM     10  C   UNK d   1       3.810   0.808  -0.609  0.00  0.00     0.153 C 
BRANCH  10  11
ATOM     11  C   UNK d   1       4.674   1.799   0.011  0.00  0.00     0.019 A 
ATOM     12  C   UNK d   1       6.026   1.568   0.104  0.00  0.00     0.038 A 
ATOM     13  C   UNK d   1       6.870   2.495   0.689  0.00  0.00     0.046 A 
ATOM     14  C   UNK d   1       6.391   3.681   1.201  0.00  0.00     0.103 A 
ATOM     15 Br   UNK d   1       8.750   2.149   0.805  0.00  0.00    -0.048 Br
ATOM     16  C   UNK d   1       5.034   3.922   1.112  0.00  0.00     0.079 A 
ATOM     17 Br   UNK d   1       4.377   5.569   1.824  0.00  0.00    -0.045 Br
ATOM     18  C   UNK d   1       4.196   2.987   0.524  0.00  0.00     0.097 A 
BRANCH  14  19
ATOM     19  O   UNK d   1       7.226   4.626   1.793  0.00  0.00    -0.358 OA
ATOM     20  H   UNK d   1       8.214   4.445   1.855  0.00  0.00     0.217 HD
ENDBRANCH  14  19
BRANCH  18  21
ATOM     21  O   UNK d   1       2.847   3.239   0.443  0.00  0.00    -0.358 OA
ATOM     22  H   UNK d   1       2.454   4.110   0.812  0.00  0.00     0.217 HD
ENDBRANCH  18  21
ENDBRANCH  10  11
ENDBRANCH   7   9
ENDBRANCH   1   7
BRANCH   3  23
ATOM     23  N   UNK d   1      -0.984  -0.132   2.637  0.00  0.00    -0.209 N 
ATOM     24  C   UNK d   1      -0.144   0.863   3.243  0.00  0.00     0.167 C 
ATOM     25  C   UNK d   1       0.174   0.388   4.652  0.00  0.00     0.188 C 
ATOM     26  O   UNK d   1      -0.961  -0.053   5.321  0.00  0.00    -0.388 OA
ATOM     27  C   UNK d   1      -1.570  -1.130   4.718  0.00  0.00     0.188 C 
ATOM     28  C   UNK d   1      -2.107  -0.655   3.362  0.00  0.00     0.167 C 
ENDBRANCH   3  23
BRANCH   5  29
ATOM     29  N   UNK d   1      -2.085  -2.979  -1.097  0.00  0.00    -0.209 N 
ATOM     30  C   UNK d   1      -3.208  -3.512  -0.391  0.00  0.00     0.167 C 
ATOM     31  C   UNK d   1      -3.098  -5.038  -0.454  0.00  0.00     0.188 C 
ATOM     32  O   UNK d   1      -1.942  -5.447  -1.083  0.00  0.00    -0.388 OA
ATOM     33  C   UNK d   1      -1.793  -4.974  -2.363  0.00  0.00     0.188 C 
ATOM     34  C   UNK d   1      -1.809  -3.451  -2.419  0.00  0.00     0.167 C 
ENDBRANCH   5  29
TORSDOF 7
