# created with PyMOL 2.3.2
@<TRIPOS>MOLECULE
4
52 55 1                 
SMALL
USER_CHARGES
@<TRIPOS>ATOM
1	  Br	4.377	5.569	1.824	Br	1	UNK0	0.000	
2	   C	5.034	3.922	1.112	C.2	1	UNK0	0.000	
3	   C	6.391	3.681	1.201	C.2	1	UNK0	0.000	
4	   C	6.870	2.495	0.689	C.2	1	UNK0	0.000	
5	   C	6.026	1.568	0.104	C.2	1	UNK0	0.000	
6	   C	4.674	1.799	0.011	C.2	1	UNK0	0.000	
7	   C	4.196	2.987	0.524	C.2	1	UNK0	0.000	
8	   O	2.847	3.239	0.443	O.3	1	UNK0	0.000	
9	   C	3.810	0.808	-0.609	C.2	1	UNK0	0.000	
10	   N	2.549	0.937	-0.737	N.2	1	UNK0	0.000	
11	   N	1.732	-0.038	-1.342	N.pl3	1	UNK0	0.000	
12	   C	0.620	-0.553	-0.621	C.2	1	UNK0	0.000	
13	   N	0.346	-0.127	0.610	N.2	1	UNK0	0.000	
14	   C	-0.711	-0.597	1.333	C.2	1	UNK0	0.000	
15	   N	-1.466	-1.517	0.737	N.2	1	UNK0	0.000	
16	   C	-1.259	-2.005	-0.507	C.2	1	UNK0	0.000	
17	   N	-0.180	-1.480	-1.161	N.2	1	UNK0	0.000	
18	   N	-2.085	-2.979	-1.097	N.pl3	1	UNK0	0.000	
19	   C	-3.208	-3.512	-0.391	C.3	1	UNK0	0.000	
20	   C	-3.098	-5.038	-0.454	C.3	1	UNK0	0.000	
21	   O	-1.942	-5.447	-1.083	O.3	1	UNK0	0.000	
22	   C	-1.793	-4.974	-2.363	C.3	1	UNK0	0.000	
23	   C	-1.809	-3.451	-2.419	C.3	1	UNK0	0.000	
24	   N	-0.984	-0.132	2.637	N.pl3	1	UNK0	0.000	
25	   C	-0.144	0.863	3.243	C.3	1	UNK0	0.000	
26	   C	0.174	0.388	4.652	C.3	1	UNK0	0.000	
27	   O	-0.961	-0.053	5.321	O.3	1	UNK0	0.000	
28	   C	-1.570	-1.130	4.718	C.3	1	UNK0	0.000	
29	   C	-2.107	-0.655	3.362	C.3	1	UNK0	0.000	
30	  Br	8.750	2.149	0.805	Br	1	UNK0	0.000	
31	   O	7.226	4.626	1.793	O.3	1	UNK0	0.000	
32	   H	6.425	0.630	-0.298	 H	1	UNK0	0.000	
33	   H	2.454	4.110	0.812	 H	1	UNK0	0.000	
34	   H	4.260	-0.096	-0.985	 H	1	UNK0	0.000	
35	   H	1.990	-0.328	-2.291	 H	1	UNK0	0.000	
36	   H	-4.128	-3.251	-0.966	 H	1	UNK0	0.000	
37	   H	-3.250	-3.148	0.651	 H	1	UNK0	0.000	
38	   H	-3.994	-5.500	-0.880	 H	1	UNK0	0.000	
39	   H	-3.032	-5.392	0.607	 H	1	UNK0	0.000	
40	   H	-2.534	-5.406	-3.068	 H	1	UNK0	0.000	
41	   H	-0.794	-5.293	-2.727	 H	1	UNK0	0.000	
42	   H	-0.849	-3.041	-2.792	 H	1	UNK0	0.000	
43	   H	-2.578	-3.153	-3.161	 H	1	UNK0	0.000	
44	   H	0.846	0.972	2.729	 H	1	UNK0	0.000	
45	   H	-0.662	1.839	3.340	 H	1	UNK0	0.000	
46	   H	0.958	-0.387	4.614	 H	1	UNK0	0.000	
47	   H	0.574	1.253	5.223	 H	1	UNK0	0.000	
48	   H	-0.811	-1.900	4.494	 H	1	UNK0	0.000	
49	   H	-2.378	-1.486	5.367	 H	1	UNK0	0.000	
50	   H	-2.783	0.208	3.605	 H	1	UNK0	0.000	
51	   H	-2.631	-1.466	2.832	 H	1	UNK0	0.000	
52	   H	8.214	4.445	1.855	 H	1	UNK0	0.000	
@<TRIPOS>BOND
1 1 2 1
2 2 3 2
3 2 7 1
4 3 4 1
5 3 31 1
6 4 5 2
7 4 30 1
8 5 6 1
9 6 7 2
10 6 9 1
11 7 8 1
12 9 10 2
13 10 11 1
14 11 12 1
15 12 13 2
16 12 17 1
17 13 14 1
18 14 15 2
19 14 24 1
20 15 16 1
21 16 17 2
22 16 18 1
23 18 19 1
24 18 23 1
25 19 20 1
26 20 21 1
27 21 22 1
28 22 23 1
29 24 25 1
30 24 29 1
31 25 26 1
32 26 27 1
33 27 28 1
34 28 29 1
35 5 32 1
36 8 33 1
37 9 34 1
38 11 35 1
39 19 36 1
40 19 37 1
41 20 38 1
42 20 39 1
43 22 40 1
44 22 41 1
45 23 42 1
46 23 43 1
47 25 44 1
48 25 45 1
49 26 46 1
50 26 47 1
51 28 48 1
52 28 49 1
53 29 50 1
54 29 51 1
55 31 52 1
@<TRIPOS>SUBSTRUCTURE
1	UNK0	1	GROUP	1 ****	UNK
