REMARK  10 active torsions:
REMARK  status: ('A' for Active; 'I' for Inactive)
REMARK    1  A    between atoms: C_3  and  O_10 
REMARK    2  A    between atoms: O_10  and  C_11 
REMARK    3  A    between atoms: C_11  and  C_12 
REMARK    4  A    between atoms: C_12  and  O_13 
REMARK    5  A    between atoms: C_12  and  C_14 
REMARK    6  A    between atoms: C_14  and  N_15 
REMARK    7  A    between atoms: C_19  and  N_20 
REMARK    8  A    between atoms: N_23  and  C_26 
REMARK    9  A    between atoms: C_26  and  C_27 
REMARK   10  A    between atoms: C_27  and  O_28 
ROOT
ATOM      1  N   UNK d   1       0.955  -1.823  -1.178  0.00  0.00    -0.171 N 
ATOM      2  C   UNK d   1       0.395  -1.906  -2.414  0.00  0.00     0.154 A 
ATOM      3  C   UNK d   1       0.508  -0.698  -3.049  0.00  0.00     0.184 A 
ATOM      4  N   UNK d   1       1.132   0.087  -2.195  0.00  0.00    -0.044 NA
ATOM      5  C   UNK d   1       1.425  -0.569  -1.039  0.00  0.00     0.707 A 
ATOM      6  N   UNK d   1       0.058  -0.447  -4.317  0.00  0.00    -0.284 N 
ATOM      7  C   UNK d   1      -0.524  -1.468  -4.958  0.00  0.00     0.352 A 
ATOM      8  O   UNK d   1      -0.939  -1.233  -6.128  0.00  0.00    -0.244 OA
ATOM      9  N   UNK d   1      -0.656  -2.677  -4.379  0.00  0.00    -0.164 NA
ATOM     10  C   UNK d   1      -0.220  -2.937  -3.136  0.00  0.00     0.236 A 
ATOM     11  O   UNK d   1      -0.362  -4.183  -2.570  0.00  0.00    -0.167 OA
ATOM     12  C   UNK d   1       0.224   0.882  -4.889  0.00  0.00     0.163 C 
ENDROOT
BRANCH   1  13
ATOM     13  C   UNK d   1       1.028  -2.875  -0.228  0.00  0.00     0.182 C 
BRANCH  13  14
ATOM     14  C   UNK d   1      -0.069  -3.198   0.669  0.00  0.00     0.161 C 
BRANCH  14  15
ATOM     15  C   UNK d   1      -0.707  -2.268   1.611  0.00  0.00     0.209 C 
BRANCH  15  16
ATOM     16  O   UNK d   1      -1.806  -1.604   0.991  0.00  0.00    -0.346 OA
BRANCH  16  17
ATOM     17  C   UNK d   1      -2.652  -0.730   1.579  0.00  0.00     0.103 A 
ATOM     18  C   UNK d   1      -3.790  -1.219   2.239  0.00  0.00     0.047 A 
ATOM     19 Br   UNK d   1      -4.058  -3.114   2.258  0.00  0.00    -0.048 Br
ATOM     20  C   UNK d   1      -4.683  -0.378   2.852  0.00  0.00     0.041 A 
ATOM     21  C   UNK d   1      -4.485   0.986   2.836  0.00  0.00     0.013 A 
ATOM     22  C   UNK d   1      -3.377   1.490   2.195  0.00  0.00     0.041 A 
ATOM     23 Br   UNK d   1      -5.778   2.076   3.713  0.00  0.00    -0.051 Br
ATOM     24  C   UNK d   1      -2.476   0.616   1.574  0.00  0.00     0.047 A 
ATOM     25 Br   UNK d   1      -1.000   1.398   0.705  0.00  0.00    -0.048 Br
ENDBRANCH  16  17
ENDBRANCH  15  16
ENDBRANCH  14  15
BRANCH  14  26
ATOM     26  O   UNK d   1      -1.088  -4.051   0.209  0.00  0.00    -0.392 OA
ATOM     27  H   UNK d   1      -0.761  -4.952   0.036  0.00  0.00     0.210 HD
ENDBRANCH  14  26
ENDBRANCH  13  14
ENDBRANCH   1  13
BRANCH   5  28
ATOM     28  N   UNK d   1       2.209   0.035   0.006  0.00  0.00    -0.212 N 
ATOM     29  C   UNK d   1       2.787  -0.600   1.127  0.00  0.00     0.169 C 
ATOM     30  C   UNK d   1       3.609   0.467   1.901  0.00  0.00     0.255 C 
ATOM     31  N   UNK d   1       2.628   1.446   2.328  0.00  0.00    -0.066 N 
ATOM     32  C   UNK d   1       2.420   2.261   1.116  0.00  0.00     0.255 C 
ATOM     33  H   UNK d   1       1.696   1.037   2.552  0.00  0.00     0.280 HD
ATOM     34  C   UNK d   1       2.476   1.473  -0.131  0.00  0.00     0.169 C 
BRANCH  31  35
ATOM     35  C   UNK d   1       3.137   2.283   3.396  0.00  0.00     0.260 C 
BRANCH  35  36
ATOM     36  C   UNK d   1       2.597   1.773   4.714  0.00  0.00     0.192 C 
BRANCH  36  37
ATOM     37  O   UNK d   1       3.017   0.450   4.899  0.00  0.00    -0.399 OA
ATOM     38  H   UNK d   1       2.234  -0.162   4.974  0.00  0.00     0.209 HD
ENDBRANCH  36  37
ENDBRANCH  35  36
ENDBRANCH  31  35
ENDBRANCH   5  28
TORSDOF 10
