REMARK  6 active torsions:
REMARK  status: ('A' for Active; 'I' for Inactive)
REMARK    1  A    between atoms: C_4  and  C_9 
REMARK    2  A    between atoms: N_10  and  N_11 
REMARK       I    between atoms: N_11  and  C_12 
REMARK    3  A    between atoms: C_12  and  C_14 
REMARK    4  A    between atoms: C_14  and  N_15 
REMARK    5  A    between atoms: C_19  and  C_20 
REMARK    6  A    between atoms: C_24  and  N_25 
ROOT
ATOM      1  N   UNK d   1       0.920  -0.482   2.042  0.00  0.00    -0.319 N 
ATOM      2  C   UNK d   1       0.334   0.526   2.741  0.00  0.00     0.065 A 
ATOM      3  C   UNK d   1       1.129   1.638   2.716  0.00  0.00     0.086 A 
ATOM      4  N   UNK d   1       2.204   1.289   1.992  0.00  0.00    -0.226 NA
ATOM      5  C   UNK d   1       2.079  -0.011   1.577  0.00  0.00     0.167 A 
ATOM      6  C   UNK d   1       0.703   2.773   3.374  0.00  0.00     0.034 A 
ATOM      7  C   UNK d   1      -0.502   2.817   4.056  0.00  0.00     0.002 A 
ATOM      8  C   UNK d   1      -1.285   1.676   4.064  0.00  0.00     0.002 A 
ATOM      9  C   UNK d   1      -0.861   0.539   3.406  0.00  0.00     0.032 A 
ENDROOT
BRANCH   1  10
ATOM     10  C   UNK d   1       0.415  -1.802   1.827  0.00  0.00     0.235 C 
BRANCH  10  11
ATOM     11  C   UNK d   1      -0.395  -1.993   0.649  0.00  0.00     0.256 C 
ATOM     12  N   UNK d   1      -0.695  -0.955  -0.267  0.00  0.00    -0.246 N 
ATOM     13  H   UNK d   1      -0.304  -0.010  -0.065  0.00  0.00     0.192 HD
ATOM     14  O   UNK d   1      -0.872  -3.124   0.395  0.00  0.00    -0.270 OA
BRANCH  12  15
ATOM     15  N   UNK d   1      -1.469  -1.109  -1.405  0.00  0.00    -0.184 NA
ATOM     16  C   UNK d   1      -2.538  -1.808  -1.451  0.00  0.00     0.153 C 
BRANCH  16  17
ATOM     17  C   UNK d   1      -3.270  -1.899  -2.699  0.00  0.00     0.022 A 
ATOM     18  C   UNK d   1      -2.818  -1.244  -3.803  0.00  0.00     0.136 A 
ATOM     19  C   UNK d   1      -3.522  -1.337  -4.985  0.00  0.00     0.049 A 
ATOM     20  O   UNK d   1      -1.661  -0.487  -3.751  0.00  0.00    -0.190 OA
ATOM     21 Br   UNK d   1      -2.874  -0.416  -6.512  0.00  0.00    -0.048 Br
ATOM     22  C   UNK d   1      -4.681  -2.091  -5.049  0.00  0.00     0.041 A 
ATOM     23  C   UNK d   1      -5.120  -2.744  -3.924  0.00  0.00     0.013 A 
ATOM     24  C   UNK d   1      -4.438  -2.669  -2.734  0.00  0.00     0.035 A 
ATOM     25 Br   UNK d   1      -6.723  -3.783  -4.028  0.00  0.00    -0.051 Br
ENDBRANCH  16  17
ENDBRANCH  12  15
ENDBRANCH  10  11
ENDBRANCH   1  10
BRANCH   5  26
ATOM     26  C   UNK d   1       3.074  -0.703   0.767  0.00  0.00     0.187 A 
ATOM     27  N   UNK d   1       2.988  -1.970   0.342  0.00  0.00    -0.097 NA
ATOM     28  O   UNK d   1       4.067  -2.257  -0.364  0.00  0.00    -0.104 OA
ATOM     29  N   UNK d   1       4.854  -1.229  -0.417  0.00  0.00    -0.077 NA
ATOM     30  C   UNK d   1       4.271  -0.229   0.280  0.00  0.00     0.285 A 
BRANCH  30  31
ATOM     31  N   UNK d   1       4.791   1.073   0.477  0.00  0.00    -0.028 N 
ATOM     32  H   UNK d   1       4.585   1.708  -0.306  0.00  0.00     0.283 HD
ATOM     33  H   UNK d   1       5.842   0.966   0.506  0.00  0.00     0.283 HD
ATOM     34  H   UNK d   1       4.503   1.491   1.400  0.00  0.00     0.283 HD
ENDBRANCH  30  31
ENDBRANCH   5  26
TORSDOF 6
