# created with PyMOL 2.3.2
@<TRIPOS>MOLECULE
6
43 46 1                 
SMALL
USER_CHARGES
@<TRIPOS>ATOM
1	  Br	-2.874	-0.416	-6.512	Br	1	UNK0	0.000	
2	   C	-3.522	-1.337	-4.985	C.2	1	UNK0	0.000	
3	   C	-2.818	-1.244	-3.803	C.2	1	UNK0	0.000	
4	   C	-3.270	-1.899	-2.699	C.2	1	UNK0	0.000	
5	   C	-4.438	-2.669	-2.734	C.2	1	UNK0	0.000	
6	   C	-5.120	-2.744	-3.924	C.2	1	UNK0	0.000	
7	   C	-4.681	-2.091	-5.049	C.2	1	UNK0	0.000	
8	  Br	-6.723	-3.783	-4.028	Br	1	UNK0	0.000	
9	   C	-2.538	-1.808	-1.451	C.2	1	UNK0	0.000	
10	   N	-1.469	-1.109	-1.405	N.2	1	UNK0	0.000	
11	   N	-0.695	-0.955	-0.267	N.pl3	1	UNK0	0.000	
12	   C	-0.395	-1.993	0.649	C.2	1	UNK0	0.000	
13	   O	-0.872	-3.124	0.395	O.2	1	UNK0	0.000	
14	   C	0.415	-1.802	1.827	C.3	1	UNK0	0.000	
15	   N	0.920	-0.482	2.042	N.pl3	1	UNK0	0.000	
16	   C	0.334	0.526	2.741	C.2	1	UNK0	0.000	
17	   C	1.129	1.638	2.716	C.2	1	UNK0	0.000	
18	   N	2.204	1.289	1.992	N.2	1	UNK0	0.000	
19	   C	2.079	-0.011	1.577	C.2	1	UNK0	0.000	
20	   C	3.074	-0.703	0.767	C.2	1	UNK0	0.000	
21	   N	2.988	-1.970	0.342	N.2	1	UNK0	0.000	
22	   O	4.067	-2.257	-0.364	O.3	1	UNK0	0.000	
23	   N	4.854	-1.229	-0.417	N.2	1	UNK0	0.000	
24	   C	4.271	-0.229	0.280	C.2	1	UNK0	0.000	
25	   N	4.791	1.073	0.477	N.4	1	UNK0	0.000	
26	   C	0.703	2.773	3.374	C.2	1	UNK0	0.000	
27	   C	-0.502	2.817	4.056	C.2	1	UNK0	0.000	
28	   C	-1.285	1.676	4.064	C.2	1	UNK0	0.000	
29	   C	-0.861	0.539	3.406	C.2	1	UNK0	0.000	
30	   O	-1.661	-0.487	-3.751	O.2	1	UNK0	0.000	
31	   H	-4.810	-3.193	-1.869	 H	1	UNK0	0.000	
32	   H	-5.191	-2.129	-5.997	 H	1	UNK0	0.000	
33	   H	-2.852	-2.308	-0.543	 H	1	UNK0	0.000	
34	   H	-0.304	-0.010	-0.065	 H	1	UNK0	0.000	
35	   H	-0.149	-2.062	2.777	 H	1	UNK0	0.000	
36	   H	1.247	-2.534	1.823	 H	1	UNK0	0.000	
37	   H	4.585	1.708	-0.306	 H	1	UNK0	0.000	
38	   H	5.842	0.966	0.506	 H	1	UNK0	0.000	
39	   H	4.503	1.491	1.400	 H	1	UNK0	0.000	
40	   H	1.343	3.654	3.349	 H	1	UNK0	0.000	
41	   H	-0.811	3.735	4.569	 H	1	UNK0	0.000	
42	   H	-2.228	1.707	4.597	 H	1	UNK0	0.000	
43	   H	-1.459	-0.369	3.398	 H	1	UNK0	0.000	
@<TRIPOS>BOND
1 1 2 1
2 2 3 2
3 2 7 1
4 3 4 1
5 3 30 1
6 4 5 2
7 4 9 1
8 5 6 1
9 6 7 2
10 6 8 1
11 9 10 2
12 10 11 1
13 11 12 1
14 12 13 2
15 12 14 1
16 14 15 1
17 15 16 1
18 15 19 1
19 16 17 2
20 16 29 1
21 17 18 1
22 17 26 1
23 18 19 2
24 19 20 1
25 20 21 2
26 20 24 1
27 21 22 1
28 22 23 1
29 23 24 2
30 24 25 1
31 26 27 2
32 27 28 1
33 28 29 2
34 5 31 1
35 7 32 1
36 9 33 1
37 11 34 1
38 14 35 1
39 14 36 1
40 25 37 1
41 25 38 1
42 25 39 1
43 26 40 1
44 27 41 1
45 28 42 1
46 29 43 1
@<TRIPOS>SUBSTRUCTURE
1	UNK0	1	GROUP	1 ****	UNK
