REMARK  9 active torsions:
REMARK  status: ('A' for Active; 'I' for Inactive)
REMARK    1  A    between atoms: C_4  and  O_29 
REMARK    2  A    between atoms: C_6  and  C_8 
REMARK    3  A    between atoms: C_8  and  N_9 
REMARK    4  A    between atoms: N_9  and  N_10 
REMARK       I    between atoms: N_10  and  C_11 
REMARK    5  A    between atoms: C_11  and  C_13 
REMARK    6  A    between atoms: C_13  and  N_14 
REMARK    7  A    between atoms: C_18  and  C_19 
REMARK    8  A    between atoms: C_23  and  N_24 
REMARK    9  A    between atoms: O_29  and  C_30 
ROOT
ATOM      1  N   UNK d   1       2.698  -1.754  -1.520  0.00  0.00    -0.319 N 
ATOM      2  C   UNK d   1       2.803  -2.715  -0.526  0.00  0.00     0.065 A 
ATOM      3  C   UNK d   1       3.684  -3.635  -0.957  0.00  0.00     0.086 A 
ATOM      4  N   UNK d   1       4.095  -3.247  -2.154  0.00  0.00    -0.226 NA
ATOM      5  C   UNK d   1       3.478  -2.060  -2.522  0.00  0.00     0.167 A 
ATOM      6  C   UNK d   1       4.035  -4.746  -0.206  0.00  0.00     0.034 A 
ATOM      7  C   UNK d   1       3.431  -4.870   1.022  0.00  0.00     0.002 A 
ATOM      8  C   UNK d   1       2.517  -3.957   1.512  0.00  0.00     0.002 A 
ATOM      9  C   UNK d   1       2.202  -2.858   0.715  0.00  0.00     0.032 A 
ENDROOT
BRANCH   1  10
ATOM     10  C   UNK d   1       1.857  -0.645  -1.332  0.00  0.00     0.236 C 
BRANCH  10  11
ATOM     11  C   UNK d   1       0.429  -0.901  -1.862  0.00  0.00     0.264 C 
ATOM     12  N   UNK d   1      -0.433   0.045  -1.413  0.00  0.00    -0.202 N 
ATOM     13  H   UNK d   1      -1.447  -0.596  -2.146  0.00  0.00     0.205 HD
ATOM     14  O   UNK d   1       0.359  -1.900  -2.575  0.00  0.00    -0.269 OA
BRANCH  12  15
ATOM     15  N   UNK d   1      -1.219   0.904  -1.007  0.00  0.00    -0.335 NA
BRANCH  15  16
ATOM     16  C   UNK d   1      -1.902   1.770  -0.584  0.00  0.00     0.220 C 
BRANCH  16  17
ATOM     17  C   UNK d   1      -1.661   2.967   0.145  0.00  0.00    -0.001 A 
ATOM     18  C   UNK d   1      -2.734   3.776   0.546  0.00  0.00     0.053 A 
ATOM     19  C   UNK d   1      -2.622   4.933   1.261  0.00  0.00     0.107 A 
ATOM     20  C   UNK d   1      -1.320   5.351   1.628  0.00  0.00     0.157 A 
ATOM     21  C   UNK d   1      -0.237   4.587   1.253  0.00  0.00     0.051 A 
ATOM     22  O   UNK d   1      -1.214   6.506   2.347  0.00  0.00    -0.188 OA
ATOM     23 Br   UNK d   1       1.519   5.105   1.754  0.00  0.00    -0.048 Br
ATOM     24  C   UNK d   1      -0.420   3.425   0.529  0.00  0.00     0.036 A 
BRANCH  19  25
ATOM     25  O   UNK d   1      -3.690   5.718   1.653  0.00  0.00    -0.348 OA
BRANCH  25  26
ATOM     26  C   UNK d   1      -5.007   5.409   1.349  0.00  0.00     0.171 C 
ATOM     27  C   UNK d   1      -5.523   4.104   1.886  0.00  0.00     0.034 C 
ENDBRANCH  25  26
ENDBRANCH  19  25
ENDBRANCH  16  17
ENDBRANCH  15  16
ENDBRANCH  12  15
ENDBRANCH  10  11
ENDBRANCH   1  10
BRANCH   5  28
ATOM     28  C   UNK d   1       3.856  -1.514  -3.813  0.00  0.00     0.187 A 
ATOM     29  N   UNK d   1       4.796  -2.131  -4.636  0.00  0.00    -0.097 NA
ATOM     30  O   UNK d   1       4.938  -1.479  -5.718  0.00  0.00    -0.104 OA
ATOM     31  N   UNK d   1       4.180  -0.457  -5.725  0.00  0.00    -0.077 NA
ATOM     32  C   UNK d   1       3.479  -0.444  -4.540  0.00  0.00     0.285 A 
BRANCH  32  33
ATOM     33  N   UNK d   1       2.529   0.557  -4.247  0.00  0.00    -0.028 N 
ATOM     34  H   UNK d   1       2.346   1.126  -5.157  0.00  0.00     0.283 HD
ATOM     35  H   UNK d   1       2.935   1.254  -3.611  0.00  0.00     0.283 HD
ATOM     36  H   UNK d   1       1.613   0.163  -4.048  0.00  0.00     0.283 HD
ENDBRANCH  32  33
ENDBRANCH   5  28
TORSDOF 9
