REMARK  10 active torsions:
REMARK  status: ('A' for Active; 'I' for Inactive)
REMARK    1  A    between atoms: C_3  and  O_34 
REMARK    2  A    between atoms: C_4  and  O_31 
REMARK    3  A    between atoms: C_6  and  C_8 
REMARK    4  A    between atoms: N_9  and  N_10 
REMARK       I    between atoms: N_10  and  C_11 
REMARK    5  A    between atoms: C_11  and  C_13 
REMARK    6  A    between atoms: N_16  and  C_25 
REMARK    7  A    between atoms: C_17  and  C_18 
REMARK    8  A    between atoms: C_18  and  N_19 
REMARK    9  A    between atoms: C_29  and  N_30 
REMARK   10  A    between atoms: O_31  and  C_32 
ROOT
ATOM      1  C   UNK d   1       0.227  -0.047   3.063  0.00  0.00     0.176 A 
ATOM      2  N   UNK d   1       0.296   0.213   4.375  0.00  0.00    -0.124 NA
ATOM      3  N   UNK d   1      -0.879   0.023   4.923  0.00  0.00    -0.058 NA
ATOM      4  N   UNK d   1      -1.775  -0.371   4.000  0.00  0.00    -0.191 N 
ATOM      5  C   UNK d   1      -1.112  -0.421   2.841  0.00  0.00     0.104 A 
ENDROOT
BRANCH   1   6
ATOM      6  C   UNK d   1       1.280   0.030   2.059  0.00  0.00     0.294 C 
ATOM      7  N   UNK d   1       2.597   0.421   2.389  0.00  0.00    -0.242 N 
ATOM      8  H   UNK d   1       2.809   0.662   3.400  0.00  0.00     0.192 HD
ATOM      9  O   UNK d   1       1.011  -0.257   0.876  0.00  0.00    -0.264 OA
BRANCH   7  10
ATOM     10  N   UNK d   1       3.634   0.514   1.494  0.00  0.00    -0.183 NA
ATOM     11  C   UNK d   1       3.560   1.002   0.311  0.00  0.00     0.150 C 
BRANCH  11  12
ATOM     12  C   UNK d   1       4.716   1.059  -0.569  0.00  0.00    -0.013 A 
ATOM     13  C   UNK d   1       4.671   1.579  -1.853  0.00  0.00     0.052 A 
ATOM     14  C   UNK d   1       5.780   1.620  -2.664  0.00  0.00     0.104 A 
ATOM     15  C   UNK d   1       6.958   1.122  -2.156  0.00  0.00     0.116 A 
ATOM     16  C   UNK d   1       7.040   0.593  -0.873  0.00  0.00     0.047 A 
ATOM     17 Br   UNK d   1       8.676  -0.094  -0.178  0.00  0.00    -0.048 Br
ATOM     18  C   UNK d   1       5.916   0.571  -0.101  0.00  0.00     0.035 A 
BRANCH  14  19
ATOM     19  O   UNK d   1       5.773   2.128  -3.941  0.00  0.00    -0.349 OA
BRANCH  19  20
ATOM     20  C   UNK d   1       4.688   2.670  -4.620  0.00  0.00     0.171 C 
ATOM     21  C   UNK d   1       3.533   1.741  -4.812  0.00  0.00     0.034 C 
ENDBRANCH  19  20
ENDBRANCH  14  19
BRANCH  15  22
ATOM     22  O   UNK d   1       8.114   1.138  -2.931  0.00  0.00    -0.357 OA
ATOM     23  H   UNK d   1       8.085   1.517  -3.870  0.00  0.00     0.218 HD
ENDBRANCH  15  22
ENDBRANCH  11  12
ENDBRANCH   7  10
ENDBRANCH   1   6
BRANCH   5  24
ATOM     24  C   UNK d   1      -1.610  -0.761   1.507  0.00  0.00     0.334 C 
BRANCH  24  25
ATOM     25  N   UNK d   1      -2.985  -1.181   1.410  0.00  0.00     0.098 N 
ATOM     26  C   UNK d   1      -3.246  -1.258  -0.033  0.00  0.00     0.299 C 
ATOM     27  C   UNK d   1      -2.408  -2.227  -0.768  0.00  0.00     0.198 C 
ATOM     28  O   UNK d   1      -2.090  -3.323   0.019  0.00  0.00    -0.388 OA
ATOM     29  C   UNK d   1      -3.145  -3.565   0.872  0.00  0.00     0.198 C 
ATOM     30  C   UNK d   1      -3.125  -2.525   1.975  0.00  0.00     0.299 C 
ENDBRANCH  24  25
ENDBRANCH   5  24
BRANCH   4  31
ATOM     31  C   UNK d   1      -3.149  -0.633   4.305  0.00  0.00     0.229 A 
ATOM     32  N   UNK d   1      -3.675  -1.612   5.058  0.00  0.00    -0.081 NA
ATOM     33  O   UNK d   1      -4.980  -1.482   5.082  0.00  0.00    -0.103 OA
ATOM     34  N   UNK d   1      -5.350  -0.446   4.368  0.00  0.00    -0.083 NA
ATOM     35  C   UNK d   1      -4.226   0.102   3.872  0.00  0.00     0.201 A 
BRANCH  35  36
ATOM     36  N   UNK d   1      -4.218   1.255   3.045  0.00  0.00    -0.379 N 
ATOM     37  H   UNK d   1      -4.332   1.230   2.011  0.00  0.00     0.158 HD
ATOM     38  H   UNK d   1      -4.093   2.214   3.460  0.00  0.00     0.158 HD
ENDBRANCH  35  36
ENDBRANCH   4  31
TORSDOF 10
