REMARK  9 active torsions:
REMARK  status: ('A' for Active; 'I' for Inactive)
REMARK    1  A    between atoms: C_3  and  O_33 
REMARK    2  A    between atoms: C_4  and  O_31 
REMARK    3  A    between atoms: C_6  and  C_8 
REMARK    4  A    between atoms: N_9  and  N_10 
REMARK       I    between atoms: N_10  and  C_11 
REMARK    5  A    between atoms: C_11  and  C_13 
REMARK    6  A    between atoms: N_16  and  C_25 
REMARK    7  A    between atoms: C_17  and  C_18 
REMARK    8  A    between atoms: C_18  and  N_19 
REMARK    9  A    between atoms: C_29  and  N_30 
ROOT
ATOM      1  C   UNK d   1       2.755   0.983  -1.686  0.00  0.00     0.170 A 
ATOM      2  N   UNK d   1       3.901   1.518  -1.451  0.00  0.00    -0.152 NA
ATOM      3  N   UNK d   1       3.752   2.591  -0.693  0.00  0.00     0.012 NA
ATOM      4  N   UNK d   1       2.462   2.756  -0.438  0.00  0.00    -0.215 N 
ATOM      5  C   UNK d   1       1.721   1.822  -1.017  0.00  0.00     0.098 A 
ENDROOT
BRANCH   1   6
ATOM      6  C   UNK d   1       2.282  -0.335  -2.046  0.00  0.00     0.293 C 
ATOM      7  N   UNK d   1       3.030  -1.510  -1.658  0.00  0.00    -0.242 N 
ATOM      8  H   UNK d   1       3.862  -1.845  -1.407  0.00  0.00     0.192 HD
ATOM      9  O   UNK d   1       1.198  -0.452  -2.616  0.00  0.00    -0.264 OA
BRANCH   7  10
ATOM     10  N   UNK d   1       1.904  -2.641  -1.661  0.00  0.00    -0.183 NA
ATOM     11  C   UNK d   1       1.382  -2.299  -0.468  0.00  0.00     0.150 C 
BRANCH  11  12
ATOM     12  C   UNK d   1       0.422  -2.579   0.463  0.00  0.00    -0.013 A 
ATOM     13  C   UNK d   1      -0.739  -3.318   0.324  0.00  0.00     0.052 A 
ATOM     14  C   UNK d   1      -1.644  -3.541   1.336  0.00  0.00     0.103 A 
ATOM     15  C   UNK d   1      -1.379  -2.999   2.563  0.00  0.00     0.116 A 
ATOM     16  C   UNK d   1      -0.236  -2.252   2.754  0.00  0.00     0.047 A 
ATOM     17 Br   UNK d   1       0.088  -1.479   4.493  0.00  0.00    -0.048 Br
ATOM     18  C   UNK d   1       0.641  -2.032   1.781  0.00  0.00     0.035 A 
BRANCH  14  19
ATOM     19  O   UNK d   1      -2.802  -4.291   1.098  0.00  0.00    -0.353 OA
ATOM     20  C   UNK d   1      -3.053  -4.772  -0.238  0.00  0.00     0.210 C 
ENDBRANCH  14  19
BRANCH  15  21
ATOM     21  O   UNK d   1      -2.260  -3.197   3.630  0.00  0.00    -0.357 OA
ATOM     22  H   UNK d   1      -1.998  -2.804   4.559  0.00  0.00     0.218 HD
ENDBRANCH  15  21
ENDBRANCH  11  12
ENDBRANCH   7  10
ENDBRANCH   1   6
BRANCH   5  23
ATOM     23  C   UNK d   1       0.339   1.441  -0.964  0.00  0.00     0.334 C 
BRANCH  23  24
ATOM     24  N   UNK d   1      -0.654   2.380  -1.490  0.00  0.00     0.098 N 
ATOM     25  C   UNK d   1      -1.826   2.444  -0.679  0.00  0.00     0.299 C 
ATOM     26  C   UNK d   1      -2.666   1.199  -0.684  0.00  0.00     0.198 C 
ATOM     27  O   UNK d   1      -3.339   1.099  -1.890  0.00  0.00    -0.388 OA
ATOM     28  C   UNK d   1      -2.662   1.802  -2.893  0.00  0.00     0.198 C 
ATOM     29  C   UNK d   1      -1.190   1.639  -2.713  0.00  0.00     0.299 C 
ENDBRANCH  23  24
ENDBRANCH   5  23
BRANCH   4  30
ATOM     30  C   UNK d   1       2.041   3.570   0.684  0.00  0.00     0.225 A 
ATOM     31  N   UNK d   1       1.922   4.817   0.876  0.00  0.00    -0.081 NA
ATOM     32  O   UNK d   1       1.539   5.107   2.120  0.00  0.00    -0.103 OA
ATOM     33  N   UNK d   1       1.412   3.984   2.729  0.00  0.00    -0.083 NA
ATOM     34  C   UNK d   1       1.701   2.957   1.929  0.00  0.00     0.201 A 
BRANCH  34  35
ATOM     35  N   UNK d   1       1.696   1.586   2.235  0.00  0.00    -0.379 N 
ATOM     36  H   UNK d   1       2.561   1.020   2.299  0.00  0.00     0.158 HD
ATOM     37  H   UNK d   1       0.786   1.049   2.435  0.00  0.00     0.158 HD
ENDBRANCH  34  35
ENDBRANCH   4  30
TORSDOF 9
