REMARK  9 active torsions:
REMARK  status: ('A' for Active; 'I' for Inactive)
REMARK    1  A    between atoms: C_3  and  O_32 
REMARK    2  A    between atoms: C_4  and  O_29 
REMARK    3  A    between atoms: C_6  and  C_8 
REMARK    4  A    between atoms: C_8  and  N_9 
REMARK    5  A    between atoms: N_9  and  N_10 
REMARK    6  A    between atoms: N_10  and  C_11 
REMARK    7  A    between atoms: C_13  and  N_23 
REMARK    8  A    between atoms: C_15  and  N_17 
REMARK    9  A    between atoms: O_29  and  C_30 
ROOT
ATOM      1  C   UNK d   1       1.885   2.368   0.419  0.00  0.00     0.783 A 
ATOM      2  N   UNK d   1       1.897   2.401  -0.900  0.00  0.00     0.133 NA
ATOM      3  C   UNK d   1       1.992   1.253  -1.630  0.00  0.00     0.756 A 
ATOM      4  N   UNK d   1       2.069   0.105  -0.916  0.00  0.00     0.131 NA
ATOM      5  C   UNK d   1       2.063   0.010   0.427  0.00  0.00     0.756 A 
ATOM      6  N   UNK d   1       1.971   1.186   1.088  0.00  0.00     0.133 NA
ENDROOT
BRANCH   1   7
ATOM      7  N   UNK d   1       1.574   3.532   1.281  0.00  0.00    -0.061 N 
ATOM      8  H   UNK d   1       2.235   4.283   1.243  0.00  0.00     0.221 HD
BRANCH   7   9
ATOM      9  N   UNK d   1       0.450   3.328   1.920  0.00  0.00    -0.323 NA
BRANCH   9  10
ATOM     10  C   UNK d   1      -0.539   3.156   2.503  0.00  0.00     0.221 C 
BRANCH  10  11
ATOM     11  C   UNK d   1      -1.793   2.500   2.079  0.00  0.00    -0.001 A 
ATOM     12  C   UNK d   1      -2.101   2.163   0.793  0.00  0.00     0.053 A 
ATOM     13  C   UNK d   1      -3.194   1.357   0.507  0.00  0.00     0.104 A 
ATOM     14  C   UNK d   1      -4.002   0.882   1.538  0.00  0.00     0.116 A 
ATOM     15  C   UNK d   1      -3.709   1.221   2.830  0.00  0.00     0.047 A 
ATOM     16 Br   UNK d   1      -4.806   0.550   4.254  0.00  0.00    -0.048 Br
ATOM     17  C   UNK d   1      -2.613   2.019   3.075  0.00  0.00     0.036 A 
BRANCH  13  18
ATOM     18  O   UNK d   1      -3.562   0.978  -0.746  0.00  0.00    -0.349 OA
BRANCH  18  19
ATOM     19  C   UNK d   1      -3.007   1.310  -1.969  0.00  0.00     0.171 C 
ATOM     20  C   UNK d   1      -3.677   0.598  -3.135  0.00  0.00     0.034 C 
ENDBRANCH  18  19
ENDBRANCH  13  18
BRANCH  14  21
ATOM     21  O   UNK d   1      -5.095   0.075   1.304  0.00  0.00    -0.357 OA
ATOM     22  H   UNK d   1      -5.678  -0.294   2.016  0.00  0.00     0.218 HD
ENDBRANCH  14  21
ENDBRANCH  10  11
ENDBRANCH   9  10
ENDBRANCH   7   9
ENDBRANCH   1   7
BRANCH   3  23
ATOM     23  N   UNK d   1       1.921   1.238  -3.043  0.00  0.00    -0.209 N 
ATOM     24  C   UNK d   1       1.556   2.468  -3.764  0.00  0.00     0.167 C 
ATOM     25  C   UNK d   1       0.493   2.020  -4.800  0.00  0.00     0.188 C 
ATOM     26  O   UNK d   1       1.184   1.237  -5.680  0.00  0.00    -0.388 OA
ATOM     27  C   UNK d   1       1.585   0.038  -5.161  0.00  0.00     0.188 C 
ATOM     28  C   UNK d   1       2.158   0.058  -3.782  0.00  0.00     0.167 C 
ENDBRANCH   3  23
BRANCH   5  29
ATOM     29  N   UNK d   1       1.994  -1.206   1.084  0.00  0.00    -0.209 N 
ATOM     30  C   UNK d   1       2.939  -1.842   1.918  0.00  0.00     0.167 C 
ATOM     31  C   UNK d   1       3.315  -3.157   1.229  0.00  0.00     0.188 C 
ATOM     32  O   UNK d   1       2.151  -3.858   1.004  0.00  0.00    -0.388 OA
ATOM     33  C   UNK d   1       1.235  -3.244   0.181  0.00  0.00     0.188 C 
ATOM     34  C   UNK d   1       0.718  -1.956   0.884  0.00  0.00     0.167 C 
ENDBRANCH   5  29
TORSDOF 9
