# created with PyMOL 2.3.2
@<TRIPOS>MOLECULE
23
64 67 1                 
SMALL
USER_CHARGES
@<TRIPOS>ATOM
1	  Br	-4.817	1.464	-3.964	Br	1	UNK0	0.000	
2	   C	-3.291	1.744	-2.874	C.2	1	UNK0	0.000	
3	   C	-3.153	2.968	-2.204	C.2	1	UNK0	0.000	
4	   C	-2.035	3.174	-1.406	C.2	1	UNK0	0.000	
5	   C	-1.117	2.183	-1.304	C.2	1	UNK0	0.000	
6	   C	-1.255	0.974	-1.967	C.2	1	UNK0	0.000	
7	   C	-2.349	0.741	-2.763	C.2	1	UNK0	0.000	
8	   C	-0.163	-0.014	-1.766	C.3	1	UNK0	0.000	
9	   N	1.089	0.693	-1.935	N.pl3	1	UNK0	0.000	
10	   C	1.735	0.896	-0.711	C.2	1	UNK0	0.000	
11	   O	2.755	1.576	-0.524	O.2	1	UNK0	0.000	
12	   C	0.988	0.162	0.311	C.2	1	UNK0	0.000	
13	   O	1.324	0.155	1.523	O.2	1	UNK0	0.000	
14	   C	-0.128	-0.494	-0.336	C.2	1	UNK0	0.000	
15	   C	-0.965	-1.309	0.247	C.2	1	UNK0	0.000	
16	   O	-2.034	-1.822	-0.470	O.2	1	UNK0	0.000	
17	   C	-0.813	-1.707	1.625	C.2	1	UNK0	0.000	
18	   C	-1.940	-1.485	2.427	C.2	1	UNK0	0.000	
19	   C	-1.951	-1.848	3.751	C.2	1	UNK0	0.000	
20	   C	-0.844	-2.439	4.314	C.2	1	UNK0	0.000	
21	   C	0.256	-2.647	3.503	C.2	1	UNK0	0.000	
22	   C	0.285	-2.291	2.172	C.2	1	UNK0	0.000	
23	   O	-1.130	-2.702	5.670	O.3	1	UNK0	0.000	
24	   C	-2.263	-1.927	6.049	C.3	1	UNK0	0.000	
25	   C	-3.037	-1.694	4.772	C.3	1	UNK0	0.000	
26	   C	-1.866	-0.570	6.599	C.3	1	UNK0	0.000	
27	   C	1.546	1.112	-3.244	C.3	1	UNK0	0.000	
28	   C	2.388	0.161	-3.984	C.3	1	UNK0	0.000	
29	   C	3.682	-0.243	-3.381	C.3	1	UNK0	0.000	
30	   N	4.601	0.847	-3.163	N.4	1	UNK0	0.000	
31	   C	5.395	1.053	-4.383	C.3	1	UNK0	0.000	
32	   C	5.523	0.430	-2.122	C.3	1	UNK0	0.000	
33	   O	-1.893	4.392	-0.736	O.3	1	UNK0	0.000	
34	   C	-0.801	4.692	0.090	C.3	1	UNK0	0.000	
35	   O	-4.091	3.963	-2.316	O.3	1	UNK0	0.000	
36	   H	-0.245	2.379	-0.665	 H	1	UNK0	0.000	
37	   H	-2.439	-0.213	-3.272	 H	1	UNK0	0.000	
38	   H	-0.228	-0.864	-2.474	 H	1	UNK0	0.000	
39	   H	-2.846	-1.015	2.007	 H	1	UNK0	0.000	
40	   H	1.155	-3.118	3.927	 H	1	UNK0	0.000	
41	   H	1.142	-2.478	1.537	 H	1	UNK0	0.000	
42	   H	-2.921	-2.439	6.765	 H	1	UNK0	0.000	
43	   H	-3.474	-0.652	4.734	 H	1	UNK0	0.000	
44	   H	-3.871	-2.385	4.621	 H	1	UNK0	0.000	
45	   H	-0.822	-0.337	6.277	 H	1	UNK0	0.000	
46	   H	-1.992	-0.530	7.703	 H	1	UNK0	0.000	
47	   H	-2.515	0.202	6.167	 H	1	UNK0	0.000	
48	   H	0.650	1.353	-3.851	 H	1	UNK0	0.000	
49	   H	2.063	2.117	-3.150	 H	1	UNK0	0.000	
50	   H	2.624	0.616	-4.990	 H	1	UNK0	0.000	
51	   H	1.818	-0.754	-4.230	 H	1	UNK0	0.000	
52	   H	3.615	-0.827	-2.454	 H	1	UNK0	0.000	
53	   H	4.188	-0.922	-4.122	 H	1	UNK0	0.000	
54	   H	4.172	1.726	-2.861	 H	1	UNK0	0.000	
55	   H	4.764	1.505	-5.194	 H	1	UNK0	0.000	
56	   H	6.241	1.746	-4.206	 H	1	UNK0	0.000	
57	   H	5.801	0.063	-4.706	 H	1	UNK0	0.000	
58	   H	5.574	1.162	-1.295	 H	1	UNK0	0.000	
59	   H	6.536	0.233	-2.537	 H	1	UNK0	0.000	
60	   H	5.200	-0.542	-1.653	 H	1	UNK0	0.000	
61	   H	-0.653	3.928	0.896	 H	1	UNK0	0.000	
62	   H	0.110	4.753	-0.574	 H	1	UNK0	0.000	
63	   H	-0.959	5.680	0.535	 H	1	UNK0	0.000	
64	   H	-3.974	4.821	-1.836	 H	1	UNK0	0.000	
@<TRIPOS>BOND
1 1 2 1
2 2 3 2
3 2 7 1
4 3 4 1
5 3 35 1
6 4 5 2
7 4 33 1
8 5 6 1
9 6 7 2
10 6 8 1
11 8 9 1
12 8 14 1
13 9 10 1
14 9 27 1
15 10 11 2
16 10 12 1
17 12 13 2
18 12 14 1
19 14 15 2
20 15 16 1
21 15 17 1
22 17 18 2
23 17 22 1
24 18 19 1
25 19 20 2
26 19 25 1
27 20 21 1
28 20 23 1
29 21 22 2
30 23 24 1
31 24 25 1
32 24 26 1
33 27 28 1
34 28 29 1
35 29 30 1
36 30 31 1
37 30 32 1
38 33 34 1
39 5 36 1
40 7 37 1
41 8 38 1
42 18 39 1
43 21 40 1
44 22 41 1
45 24 42 1
46 25 43 1
47 25 44 1
48 26 45 1
49 26 46 1
50 26 47 1
51 27 48 1
52 27 49 1
53 28 50 1
54 28 51 1
55 29 52 1
56 29 53 1
57 30 54 1
58 31 55 1
59 31 56 1
60 31 57 1
61 32 58 1
62 32 59 1
63 32 60 1
64 34 61 1
65 34 62 1
66 34 63 1
67 35 64 1
@<TRIPOS>SUBSTRUCTURE
1	UNK0	1	GROUP	1 ****	UNK
