REMARK  9 active torsions:
REMARK  status: ('A' for Active; 'I' for Inactive)
REMARK    1  A    between atoms: C_3  and  O_35 
REMARK    2  A    between atoms: C_4  and  O_33 
REMARK    3  A    between atoms: C_6  and  C_8 
REMARK    4  A    between atoms: N_9  and  C_27 
REMARK    5  A    between atoms: C_14  and  C_15 
REMARK    6  A    between atoms: C_15  and  C_17 
REMARK    7  A    between atoms: C_27  and  C_28 
REMARK    8  A    between atoms: C_28  and  C_29 
REMARK    9  A    between atoms: C_29  and  N_30 
ROOT
ATOM      1  C   UNK d   1      -0.163  -0.014  -1.766  0.00  0.00     0.161 C 
ATOM      2  N   UNK d   1       1.089   0.693  -1.935  0.00  0.00    -0.332 N 
ATOM      3  C   UNK d   1       1.735   0.896  -0.711  0.00  0.00     0.295 C 
ATOM      4  O   UNK d   1       2.755   1.576  -0.524  0.00  0.00    -0.264 OA
ATOM      5  C   UNK d   1       0.988   0.162   0.311  0.00  0.00     0.250 C 
ATOM      6  O   UNK d   1       1.324   0.155   1.523  0.00  0.00    -0.282 OA
ATOM      7  C   UNK d   1      -0.128  -0.494  -0.336  0.00  0.00     0.062 C 
ENDROOT
BRANCH   7   8
ATOM      8  C   UNK d   1      -0.965  -1.309   0.247  0.00  0.00     0.130 C 
ATOM      9  O   UNK d   1      -2.034  -1.822  -0.470  0.00  0.00    -0.190 OA
BRANCH   8  10
ATOM     10  C   UNK d   1      -0.813  -1.707   1.625  0.00  0.00     0.002 A 
ATOM     11  C   UNK d   1      -1.940  -1.485   2.427  0.00  0.00     0.024 A 
ATOM     12  C   UNK d   1      -1.951  -1.848   3.751  0.00  0.00    -0.021 A 
ATOM     13  C   UNK d   1      -0.844  -2.439   4.314  0.00  0.00     0.075 A 
ATOM     14  C   UNK d   1      -3.037  -1.694   4.772  0.00  0.00     0.073 C 
ATOM     15  C   UNK d   1       0.256  -2.647   3.503  0.00  0.00     0.038 A 
ATOM     16  O   UNK d   1      -1.130  -2.702   5.670  0.00  0.00    -0.345 OA
ATOM     17  C   UNK d   1       0.285  -2.291   2.172  0.00  0.00     0.017 A 
ATOM     18  C   UNK d   1      -2.263  -1.927   6.049  0.00  0.00     0.129 C 
ATOM     19  C   UNK d   1      -1.866  -0.570   6.599  0.00  0.00     0.040 C 
ENDBRANCH   8  10
ENDBRANCH   7   8
BRANCH   1  20
ATOM     20  C   UNK d   1      -1.255   0.974  -1.967  0.00  0.00    -0.026 A 
ATOM     21  C   UNK d   1      -1.117   2.183  -1.304  0.00  0.00     0.049 A 
ATOM     22  C   UNK d   1      -2.035   3.174  -1.406  0.00  0.00     0.103 A 
ATOM     23  C   UNK d   1      -3.153   2.968  -2.204  0.00  0.00     0.116 A 
ATOM     24  C   UNK d   1      -3.291   1.744  -2.874  0.00  0.00     0.047 A 
ATOM     25 Br   UNK d   1      -4.817   1.464  -3.964  0.00  0.00    -0.048 Br
ATOM     26  C   UNK d   1      -2.349   0.741  -2.763  0.00  0.00     0.031 A 
BRANCH  22  27
ATOM     27  O   UNK d   1      -1.893   4.392  -0.736  0.00  0.00    -0.353 OA
ATOM     28  C   UNK d   1      -0.801   4.692   0.090  0.00  0.00     0.210 C 
ENDBRANCH  22  27
BRANCH  23  29
ATOM     29  O   UNK d   1      -4.091   3.963  -2.316  0.00  0.00    -0.357 OA
ATOM     30  H   UNK d   1      -3.974   4.821  -1.836  0.00  0.00     0.218 HD
ENDBRANCH  23  29
ENDBRANCH   1  20
BRANCH   2  31
ATOM     31  C   UNK d   1       1.546   1.112  -3.244  0.00  0.00     0.129 C 
BRANCH  31  32
ATOM     32  C   UNK d   1       2.388   0.161  -3.984  0.00  0.00     0.048 C 
BRANCH  32  33
ATOM     33  C   UNK d   1       3.682  -0.243  -3.381  0.00  0.00     0.235 C 
BRANCH  33  34
ATOM     34  N   UNK d   1       4.601   0.847  -3.163  0.00  0.00    -0.079 N 
ATOM     35  C   UNK d   1       5.395   1.053  -4.383  0.00  0.00     0.269 C 
ATOM     36  C   UNK d   1       5.523   0.430  -2.122  0.00  0.00     0.269 C 
ATOM     37  H   UNK d   1       4.172   1.726  -2.861  0.00  0.00     0.278 HD
ENDBRANCH  33  34
ENDBRANCH  32  33
ENDBRANCH  31  32
ENDBRANCH   2  31
TORSDOF 9
