REMARK  3 active torsions:
REMARK  status: ('A' for Active; 'I' for Inactive)
REMARK    1  A    between atoms: C_3  and  O_25 
REMARK    2  A    between atoms: C_6  and  C_8 
REMARK    3  A    between atoms: C_10  and  C_21 
ROOT
ATOM      1  C   UNK d   1      -0.229  -1.463  -0.311  0.00  0.00     0.270 C 
ATOM      2  N   UNK d   1       0.100  -2.035  -1.550  0.00  0.00    -0.047 N 
ATOM      3  C   UNK d   1      -0.260  -1.370  -2.744  0.00  0.00     0.291 C 
ATOM      4  C   UNK d   1      -1.366  -0.358  -2.613  0.00  0.00     0.086 C 
ATOM      5  C   UNK d   1      -1.187   0.510  -1.425  0.00  0.00    -0.018 A 
ATOM      6  C   UNK d   1      -1.477   1.827  -1.191  0.00  0.00    -0.001 A 
ATOM      7  C   UNK d   1      -1.074   2.056   0.113  0.00  0.00     0.043 A 
ATOM      8  N   UNK d   1      -0.563   0.906   0.628  0.00  0.00    -0.356 N 
ATOM      9  C   UNK d   1      -0.631  -0.045  -0.313  0.00  0.00     0.052 A 
ATOM     10  C   UNK d   1      -1.259   3.330   0.606  0.00  0.00     0.030 A 
ATOM     11  C   UNK d   1      -1.818   4.330  -0.161  0.00  0.00     0.002 A 
ATOM     12  C   UNK d   1      -2.219   4.100  -1.461  0.00  0.00     0.001 A 
ATOM     13  C   UNK d   1      -2.041   2.825  -1.972  0.00  0.00     0.014 A 
ATOM     14  H   UNK d   1       1.130  -2.280  -1.610  0.00  0.00     0.279 HD
ATOM     15  H   UNK d   1      -0.345  -3.008  -1.584  0.00  0.00     0.279 HD
ATOM     16  H   UNK d   1      -0.202   0.868   1.606  0.00  0.00     0.166 HD
ENDROOT
BRANCH   1  17
ATOM     17  C   UNK d   1       0.939  -1.571   0.608  0.00  0.00    -0.019 A 
ATOM     18  C   UNK d   1       0.816  -2.019   1.906  0.00  0.00     0.031 A 
ATOM     19  C   UNK d   1       1.965  -2.072   2.665  0.00  0.00     0.046 A 
ATOM     20  C   UNK d   1       3.210  -1.707   2.198  0.00  0.00     0.100 A 
ATOM     21 Br   UNK d   1       1.830  -2.687   4.464  0.00  0.00    -0.048 Br
ATOM     22  C   UNK d   1       3.325  -1.262   0.903  0.00  0.00     0.046 A 
ATOM     23 Br   UNK d   1       5.024  -0.749   0.222  0.00  0.00    -0.048 Br
ATOM     24  C   UNK d   1       2.171  -1.200   0.116  0.00  0.00     0.031 A 
BRANCH  20  25
ATOM     25  O   UNK d   1       4.338  -1.791   3.039  0.00  0.00    -0.358 OA
ATOM     26  H   UNK d   1       5.231  -1.514   2.656  0.00  0.00     0.217 HD
ENDBRANCH  20  25
ENDBRANCH   1  17
BRANCH   3  27
ATOM     27  C   UNK d   1       0.891  -0.682  -3.391  0.00  0.00     0.205 C 
ATOM     28  O   UNK d   1       1.758  -1.375  -4.025  0.00  0.00    -0.646 OA
ATOM     29  O   UNK d   1       1.010   0.695  -3.296  0.00  0.00    -0.646 OA
ENDBRANCH   3  27
TORSDOF 3
