# created with PyMOL 2.3.2
@<TRIPOS>MOLECULE
26
39 42 1                 
SMALL
USER_CHARGES
@<TRIPOS>ATOM
1	  Br	5.024	-0.749	0.222	Br	1	UNK0	0.000	
2	   C	3.325	-1.262	0.903	C.2	1	UNK0	0.000	
3	   C	3.210	-1.707	2.198	C.2	1	UNK0	0.000	
4	   C	1.965	-2.072	2.665	C.2	1	UNK0	0.000	
5	   C	0.816	-2.019	1.906	C.2	1	UNK0	0.000	
6	   C	0.939	-1.571	0.608	C.2	1	UNK0	0.000	
7	   C	2.171	-1.200	0.116	C.2	1	UNK0	0.000	
8	   C	-0.229	-1.463	-0.311	C.3	1	UNK0	0.000	
9	   N	0.100	-2.035	-1.550	N.4	1	UNK0	0.000	
10	   C	-0.260	-1.370	-2.744	C.3	1	UNK0	0.000	
11	   C	-1.366	-0.358	-2.613	C.3	1	UNK0	0.000	
12	   C	-1.187	0.510	-1.425	C.2	1	UNK0	0.000	
13	   C	-1.477	1.827	-1.191	C.2	1	UNK0	0.000	
14	   C	-1.074	2.056	0.113	C.2	1	UNK0	0.000	
15	   N	-0.563	0.906	0.628	N.pl3	1	UNK0	0.000	
16	   C	-0.631	-0.045	-0.313	C.2	1	UNK0	0.000	
17	   C	-1.259	3.330	0.606	C.2	1	UNK0	0.000	
18	   C	-1.818	4.330	-0.161	C.2	1	UNK0	0.000	
19	   C	-2.219	4.100	-1.461	C.2	1	UNK0	0.000	
20	   C	-2.041	2.825	-1.972	C.2	1	UNK0	0.000	
21	   C	0.891	-0.682	-3.391	C.2	1	UNK0	0.000	
22	   O	1.758	-1.375	-4.025	O.co2	1	UNK0	0.000	
23	   O	1.010	0.695	-3.296	O.co2	1	UNK0	0.000	
24	  Br	1.830	-2.687	4.464	Br	1	UNK0	0.000	
25	   O	4.338	-1.791	3.039	O.3	1	UNK0	0.000	
26	   H	-0.158	-2.295	2.242	 H	1	UNK0	0.000	
27	   H	2.346	-0.836	-0.892	 H	1	UNK0	0.000	
28	   H	-1.062	-2.024	0.196	 H	1	UNK0	0.000	
29	   H	1.130	-2.280	-1.610	 H	1	UNK0	0.000	
30	   H	-0.345	-3.008	-1.584	 H	1	UNK0	0.000	
31	   H	-0.623	-2.103	-3.528	 H	1	UNK0	0.000	
32	   H	-2.375	-0.814	-2.550	 H	1	UNK0	0.000	
33	   H	-1.362	0.298	-3.508	 H	1	UNK0	0.000	
34	   H	-0.202	0.868	1.606	 H	1	UNK0	0.000	
35	   H	-0.955	3.536	1.618	 H	1	UNK0	0.000	
36	   H	-1.964	5.346	0.239	 H	1	UNK0	0.000	
37	   H	-2.654	4.909	-2.032	 H	1	UNK0	0.000	
38	   H	-2.346	2.618	-2.989	 H	1	UNK0	0.000	
39	   H	5.231	-1.514	2.656	 H	1	UNK0	0.000	
@<TRIPOS>BOND
1 1 2 1
2 2 3 2
3 2 7 1
4 3 4 1
5 3 25 1
6 4 5 2
7 4 24 1
8 5 6 1
9 6 7 2
10 6 8 1
11 8 9 1
12 8 16 1
13 9 10 1
14 10 11 1
15 10 21 1
16 11 12 1
17 12 13 1
18 12 16 2
19 13 14 2
20 13 20 1
21 14 15 1
22 14 17 1
23 15 16 1
24 17 18 2
25 18 19 1
26 19 20 2
27 21 22 2
28 21 23 1
29 5 26 1
30 7 27 1
31 8 28 1
32 9 29 1
33 9 30 1
34 10 31 1
35 11 32 1
36 11 33 1
37 15 34 1
38 17 35 1
39 18 36 1
40 19 37 1
41 20 38 1
42 25 39 1
@<TRIPOS>SUBSTRUCTURE
1	UNK0	1	GROUP	1 ****	UNK
