REMARK  6 active torsions:
REMARK  status: ('A' for Active; 'I' for Inactive)
REMARK    1  A    between atoms: C_3  and  O_19 
REMARK    2  A    between atoms: C_4  and  C_8 
REMARK    3  A    between atoms: C_8  and  N_9 
REMARK    4  A    between atoms: O_19  and  C_20 
REMARK    5  A    between atoms: C_20  and  C_21 
REMARK    6  A    between atoms: C_21  and  O_23 
ROOT
ATOM      1 Br   UNK d   1       2.578  -3.921  -0.763  0.00  0.00    -0.048 Br
ATOM      2  C   UNK d   1       2.346  -2.022  -0.935  0.00  0.00     0.044 A 
ATOM      3  C   UNK d   1       1.118  -1.472  -1.037  0.00  0.00     0.094 A 
ATOM      4  C   UNK d   1       0.962  -0.068  -1.228  0.00  0.00     0.003 A 
ATOM      5  C   UNK d   1       2.083   0.683  -1.311  0.00  0.00     0.012 A 
ATOM      6  C   UNK d   1       3.331   0.099  -1.216  0.00  0.00     0.002 A 
ATOM      7  C   UNK d   1       3.478  -1.241  -1.027  0.00  0.00     0.022 A 
ENDROOT
BRANCH   4   8
ATOM      8  C   UNK d   1      -0.380   0.304  -1.717  0.00  0.00     0.283 C 
BRANCH   8   9
ATOM      9  N   UNK d   1      -1.177   1.242  -1.039  0.00  0.00    -0.010 N 
ATOM     10  C   UNK d   1      -0.930   2.594  -1.097  0.00  0.00     0.512 C 
ATOM     11  N   UNK d   1      -1.968   3.374  -0.427  0.00  0.00     0.143 N 
ATOM     12  C   UNK d   1      -2.024   2.930   0.956  0.00  0.00     0.547 C 
ATOM     13  C   UNK d   1      -3.283   3.178  -0.986  0.00  0.00     0.284 C 
ATOM     14  N   UNK d   1      -2.247   1.503   1.063  0.00  0.00     0.143 N 
ATOM     15  C   UNK d   1      -1.298   0.727   0.368  0.00  0.00     0.512 C 
ATOM     16  C   UNK d   1      -3.579   1.220   0.570  0.00  0.00     0.284 C 
ATOM     17  C   UNK d   1      -3.609   1.692  -0.862  0.00  0.00     0.069 C 
ATOM     18  C   UNK d   1      -2.546   0.965  -1.599  0.00  0.00     0.250 C 
ENDBRANCH   8   9
ENDBRANCH   4   8
BRANCH   3  19
ATOM     19  O   UNK d   1       0.003  -2.228  -0.962  0.00  0.00    -0.340 OA
BRANCH  19  20
ATOM     20  C   UNK d   1      -0.368  -2.997   0.200  0.00  0.00     0.286 C 
BRANCH  20  21
ATOM     21  C   UNK d   1      -0.101  -2.405   1.508  0.00  0.00     0.282 C 
ATOM     22  O   UNK d   1      -0.944  -2.170   2.362  0.00  0.00    -0.263 OA
BRANCH  21  23
ATOM     23  O   UNK d   1       1.232  -2.115   1.820  0.00  0.00    -0.325 OA
ATOM     24  C   UNK d   1       1.632  -1.586   3.056  0.00  0.00     0.213 C 
ENDBRANCH  21  23
ENDBRANCH  20  21
ENDBRANCH  19  20
ENDBRANCH   3  19
TORSDOF 6
