REMARK  7 active torsions:
REMARK  status: ('A' for Active; 'I' for Inactive)
REMARK    1  A    between atoms: C_3  and  O_30 
REMARK    2  A    between atoms: C_5  and  O_29 
REMARK    3  A    between atoms: C_7  and  C_8 
REMARK    4  A    between atoms: N_9  and  N_10 
REMARK    5  A    between atoms: N_10  and  C_11 
REMARK    6  A    between atoms: C_13  and  N_23 
REMARK    7  A    between atoms: C_15  and  N_17 
ROOT
ATOM      1  C   UNK d   1       1.111   0.480  -0.623  0.00  0.00     0.774 A 
ATOM      2  N   UNK d   1      -0.071   0.641  -1.225  0.00  0.00     0.133 NA
ATOM      3  C   UNK d   1      -0.683  -0.367  -1.902  0.00  0.00     0.756 A 
ATOM      4  N   UNK d   1      -0.077  -1.563  -1.967  0.00  0.00     0.131 NA
ATOM      5  C   UNK d   1       1.110  -1.757  -1.373  0.00  0.00     0.756 A 
ATOM      6  N   UNK d   1       1.694  -0.720  -0.702  0.00  0.00     0.133 NA
ENDROOT
BRANCH   1   7
ATOM      7  N   UNK d   1       1.688   1.564   0.070  0.00  0.00    -0.105 N 
ATOM      8  H   UNK d   1       2.253   2.248  -0.475  0.00  0.00     0.208 HD
BRANCH   7   9
ATOM      9  N   UNK d   1       1.514   1.738   1.471  0.00  0.00    -0.172 NA
ATOM     10  C   UNK d   1       0.797   0.906   2.152  0.00  0.00     0.152 C 
BRANCH  10  11
ATOM     11  C   UNK d   1       0.563   0.998   3.572  0.00  0.00     0.006 A 
ATOM     12  C   UNK d   1       1.099   2.003   4.342  0.00  0.00     0.056 A 
ATOM     13 Br   UNK d   1       2.177   3.304   3.459  0.00  0.00    -0.047 Br
ATOM     14  C   UNK d   1       0.878   2.083   5.705  0.00  0.00     0.086 A 
ATOM     15  C   UNK d   1       0.090   1.124   6.323  0.00  0.00     0.074 A 
ATOM     16  C   UNK d   1      -0.458   0.107   5.574  0.00  0.00     0.069 A 
ATOM     17  C   UNK d   1      -0.213   0.061   4.210  0.00  0.00     0.051 A 
BRANCH  14  18
ATOM     18  O   UNK d   1       1.431   3.106   6.453  0.00  0.00    -0.359 OA
ATOM     19  H   UNK d   1       2.001   3.793   5.977  0.00  0.00     0.217 HD
ENDBRANCH  14  18
BRANCH  16  20
ATOM     20  O   UNK d   1      -1.238  -0.831   6.232  0.00  0.00    -0.361 OA
ATOM     21  H   UNK d   1      -2.237  -0.749   6.363  0.00  0.00     0.217 HD
ENDBRANCH  16  20
ENDBRANCH  10  11
ENDBRANCH   7   9
ENDBRANCH   1   7
BRANCH   3  22
ATOM     22  N   UNK d   1      -1.927  -0.089  -2.504  0.00  0.00    -0.209 N 
ATOM     23  C   UNK d   1      -2.428   1.259  -2.497  0.00  0.00     0.167 C 
ATOM     24  C   UNK d   1      -2.674   1.605  -3.974  0.00  0.00     0.188 C 
ATOM     25  O   UNK d   1      -3.651   0.708  -4.407  0.00  0.00    -0.388 OA
ATOM     26  C   UNK d   1      -3.170  -0.595  -4.479  0.00  0.00     0.188 C 
ATOM     27  C   UNK d   1      -2.724  -1.117  -3.128  0.00  0.00     0.167 C 
ENDBRANCH   3  22
BRANCH   5  28
ATOM     28  N   UNK d   1       1.762  -3.025  -1.439  0.00  0.00    -0.209 N 
ATOM     29  C   UNK d   1       1.263  -4.139  -2.209  0.00  0.00     0.167 C 
ATOM     30  C   UNK d   1       1.316  -5.418  -1.401  0.00  0.00     0.188 C 
ATOM     31  O   UNK d   1       1.805  -5.217  -0.119  0.00  0.00    -0.388 OA
ATOM     32  C   UNK d   1       3.090  -4.647  -0.205  0.00  0.00     0.188 C 
ATOM     33  C   UNK d   1       2.989  -3.215  -0.692  0.00  0.00     0.167 C 
ENDBRANCH   5  28
TORSDOF 7
