REMARK  4 active torsions:
REMARK  status: ('A' for Active; 'I' for Inactive)
REMARK    1  A    between atoms: C_5  and  N_8 
REMARK    2  A    between atoms: C_10  and  C_14 
REMARK       I    between atoms: C_14  and  N_16 
REMARK    3  A    between atoms: N_16  and  C_17 
REMARK    4  A    between atoms: C_17  and  C_18 
ROOT
ATOM      1  N   UNK d   1       1.638   1.385  -0.373  0.00  0.00    -0.317 N 
ATOM      2  C   UNK d   1       0.593   0.390  -0.321  0.00  0.00     0.146 C 
ATOM      3  C   UNK d   1      -0.408   0.939  -1.314  0.00  0.00     0.105 C 
ATOM      4  C   UNK d   1       0.503   1.325  -2.466  0.00  0.00     0.119 C 
ATOM      5  C   UNK d   1       1.643   1.890  -1.696  0.00  0.00     0.225 C 
ATOM      6  O   UNK d   1       2.478   2.694  -2.162  0.00  0.00    -0.273 OA
ENDROOT
BRANCH   3   7
ATOM      7  C   UNK d   1      -1.407  -0.073  -1.716  0.00  0.00     0.224 C 
ATOM      8  O   UNK d   1      -1.539  -0.417  -2.915  0.00  0.00    -0.273 OA
ATOM      9  N   UNK d   1      -2.223  -0.659  -0.726  0.00  0.00    -0.353 N 
ATOM     10  H   UNK d   1      -2.122  -0.380   0.266  0.00  0.00     0.162 HD
BRANCH   9  11
ATOM     11  C   UNK d   1      -3.209  -1.653  -1.073  0.00  0.00     0.203 C 
BRANCH  11  12
ATOM     12  C   UNK d   1      -2.576  -2.838  -1.717  0.00  0.00     0.148 A 
ATOM     13  N   UNK d   1      -1.936  -3.870  -1.112  0.00  0.00    -0.319 N 
ATOM     14  C   UNK d   1      -1.510  -4.739  -2.044  0.00  0.00     0.130 A 
ATOM     15  C   UNK d   1      -1.578  -4.305   0.226  0.00  0.00     0.132 C 
ATOM     16  N   UNK d   1      -1.906  -4.213  -3.231  0.00  0.00    -0.135 NA
ATOM     17  C   UNK d   1      -0.796  -5.895  -1.409  0.00  0.00     0.082 C 
ATOM     18  N   UNK d   1      -2.543  -3.076  -3.038  0.00  0.00    -0.133 NA
ATOM     19  C   UNK d   1      -0.539  -5.381  -0.010  0.00  0.00     0.028 C 
ENDBRANCH  11  12
ENDBRANCH   9  11
ENDBRANCH   3   7
BRANCH   1  20
ATOM     20  C   UNK d   1       2.463   1.729   0.732  0.00  0.00     0.037 A 
ATOM     21  C   UNK d   1       2.114   1.529   2.050  0.00  0.00     0.037 A 
ATOM     22  C   UNK d   1       2.896   1.852   3.125  0.00  0.00    -0.043 A 
ATOM     23  C   UNK d   1       4.135   2.426   2.866  0.00  0.00     0.017 A 
ATOM     24  C   UNK d   1       2.487   1.620   4.537  0.00  0.00     0.049 C 
ATOM     25 Br   UNK d   1       5.249   2.891   4.341  0.00  0.00    -0.051 Br
ATOM     26  C   UNK d   1       4.542   2.652   1.567  0.00  0.00     0.022 A 
ATOM     27  C   UNK d   1       3.716   2.308   0.515  0.00  0.00     0.031 A 
ENDBRANCH   1  20
TORSDOF 4
