# created with PyMOL 2.3.2
@<TRIPOS>MOLECULE
37
46 49 1                 
SMALL
USER_CHARGES
@<TRIPOS>ATOM
1	  Br	5.249	2.891	4.341	Br	1	UNK0	0.000	
2	   C	4.135	2.426	2.866	C.2	1	UNK0	0.000	
3	   C	2.896	1.852	3.125	C.2	1	UNK0	0.000	
4	   C	2.114	1.529	2.050	C.2	1	UNK0	0.000	
5	   C	2.463	1.729	0.732	C.2	1	UNK0	0.000	
6	   C	3.716	2.308	0.515	C.2	1	UNK0	0.000	
7	   C	4.542	2.652	1.567	C.2	1	UNK0	0.000	
8	   N	1.638	1.385	-0.373	N.pl3	1	UNK0	0.000	
9	   C	0.593	0.390	-0.321	C.3	1	UNK0	0.000	
10	   C	-0.408	0.939	-1.314	C.3	1	UNK0	0.000	
11	   C	0.503	1.325	-2.466	C.3	1	UNK0	0.000	
12	   C	1.643	1.890	-1.696	C.2	1	UNK0	0.000	
13	   O	2.478	2.694	-2.162	O.2	1	UNK0	0.000	
14	   C	-1.407	-0.073	-1.716	C.2	1	UNK0	0.000	
15	   O	-1.539	-0.417	-2.915	O.2	1	UNK0	0.000	
16	   N	-2.223	-0.659	-0.726	N.pl3	1	UNK0	0.000	
17	   C	-3.209	-1.653	-1.073	C.3	1	UNK0	0.000	
18	   C	-2.576	-2.838	-1.717	C.2	1	UNK0	0.000	
19	   N	-1.936	-3.870	-1.112	N.pl3	1	UNK0	0.000	
20	   C	-1.510	-4.739	-2.044	C.2	1	UNK0	0.000	
21	   N	-1.906	-4.213	-3.231	N.2	1	UNK0	0.000	
22	   N	-2.543	-3.076	-3.038	N.2	1	UNK0	0.000	
23	   C	-0.796	-5.895	-1.409	C.3	1	UNK0	0.000	
24	   C	-0.539	-5.381	-0.010	C.3	1	UNK0	0.000	
25	   C	-1.578	-4.305	0.226	C.3	1	UNK0	0.000	
26	   C	2.487	1.620	4.537	C.3	1	UNK0	0.000	
27	   H	1.139	1.078	2.271	 H	1	UNK0	0.000	
28	   H	4.092	2.511	-0.475	 H	1	UNK0	0.000	
29	   H	5.512	3.101	1.417	 H	1	UNK0	0.000	
30	   H	1.039	-0.573	-0.664	 H	1	UNK0	0.000	
31	   H	0.152	0.286	0.692	 H	1	UNK0	0.000	
32	   H	-0.846	1.846	-0.864	 H	1	UNK0	0.000	
33	   H	-0.035	2.109	-3.037	 H	1	UNK0	0.000	
34	   H	0.782	0.462	-3.071	 H	1	UNK0	0.000	
35	   H	-2.122	-0.380	0.266	 H	1	UNK0	0.000	
36	   H	-3.796	-1.991	-0.200	 H	1	UNK0	0.000	
37	   H	-3.959	-1.222	-1.792	 H	1	UNK0	0.000	
38	   H	-1.449	-6.779	-1.427	 H	1	UNK0	0.000	
39	   H	0.200	-6.060	-1.870	 H	1	UNK0	0.000	
40	   H	0.496	-4.995	0.112	 H	1	UNK0	0.000	
41	   H	-0.641	-6.234	0.682	 H	1	UNK0	0.000	
42	   H	-1.192	-3.466	0.827	 H	1	UNK0	0.000	
43	   H	-2.426	-4.765	0.773	 H	1	UNK0	0.000	
44	   H	1.528	1.070	4.562	 H	1	UNK0	0.000	
45	   H	3.286	1.115	5.113	 H	1	UNK0	0.000	
46	   H	2.260	2.636	4.955	 H	1	UNK0	0.000	
@<TRIPOS>BOND
1 1 2 1
2 2 3 2
3 2 7 1
4 3 4 1
5 3 26 1
6 4 5 2
7 5 6 1
8 5 8 1
9 6 7 2
10 8 9 1
11 8 12 1
12 9 10 1
13 10 11 1
14 10 14 1
15 11 12 1
16 12 13 2
17 14 15 2
18 14 16 1
19 16 17 1
20 17 18 1
21 18 19 1
22 18 22 2
23 19 20 1
24 19 25 1
25 20 21 2
26 20 23 1
27 21 22 1
28 23 24 1
29 24 25 1
30 4 27 1
31 6 28 1
32 7 29 1
33 9 30 1
34 9 31 1
35 10 32 1
36 11 33 1
37 11 34 1
38 16 35 1
39 17 36 1
40 17 37 1
41 23 38 1
42 23 39 1
43 24 40 1
44 24 41 1
45 25 42 1
46 25 43 1
47 26 44 1
48 26 45 1
49 26 46 1
@<TRIPOS>SUBSTRUCTURE
1	UNK0	1	GROUP	1 ****	UNK
