REMARK  3 active torsions:
REMARK  status: ('A' for Active; 'I' for Inactive)
REMARK    1  A    between atoms: C_3  and  N_9 
REMARK       I    between atoms: N_9  and  C_10 
REMARK    2  A    between atoms: C_10  and  C_12 
REMARK    3  A    between atoms: C_12  and  N_13 
ROOT
ATOM      1  N   UNK d   1       0.931  -0.978   0.155  0.00  0.00    -0.325 N 
ATOM      2  C   UNK d   1       0.234   0.229   0.229  0.00  0.00     0.248 C 
ATOM      3  O   UNK d   1      -0.912   0.287   0.697  0.00  0.00    -0.271 OA
ATOM      4  H   UNK d   1       1.908  -0.925  -0.262  0.00  0.00     0.169 HD
ENDROOT
BRANCH   2   5
ATOM      5  C   UNK d   1       0.883   1.460  -0.263  0.00  0.00     0.340 C 
BRANCH   5   6
ATOM      6  N   UNK d   1       0.114   2.657  -0.156  0.00  0.00    -0.054 N 
ATOM      7  C   UNK d   1       1.008   3.786  -0.457  0.00  0.00     0.268 C 
ATOM      8  C   UNK d   1       0.140   4.928  -0.924  0.00  0.00     0.300 C 
ATOM      9  N   UNK d   1      -1.056   4.894  -0.083  0.00  0.00     0.093 N 
ATOM     10  C   UNK d   1      -1.912   3.864  -0.664  0.00  0.00     0.300 C 
ATOM     11  C   UNK d   1      -0.690   4.433   1.247  0.00  0.00     0.300 C 
ATOM     12  C   UNK d   1      -1.027   2.693  -1.067  0.00  0.00     0.268 C 
ATOM     13  C   UNK d   1      -0.399   2.925   1.172  0.00  0.00     0.268 C 
ENDBRANCH   5   6
ENDBRANCH   2   5
BRANCH   1  14
ATOM     14  C   UNK d   1       0.510  -2.265   0.562  0.00  0.00     0.052 A 
ATOM     15  C   UNK d   1       1.357  -3.372   0.407  0.00  0.00     0.038 A 
ATOM     16 Br   UNK d   1       3.076  -3.016  -0.376  0.00  0.00    -0.049 Br
ATOM     17  C   UNK d   1       1.004  -4.645   0.783  0.00  0.00     0.028 A 
ATOM     18  C   UNK d   1      -0.221  -4.915   1.344  0.00  0.00    -0.061 A 
ATOM     19  C   UNK d   1      -1.068  -3.846   1.506  0.00  0.00     0.009 A 
ATOM     20  C   UNK d   1      -0.616  -6.296   1.757  0.00  0.00     0.048 C 
ATOM     21  C   UNK d   1      -0.716  -2.549   1.125  0.00  0.00     0.031 A 
ENDBRANCH   1  14
TORSDOF 3
