# created with PyMOL 2.3.2
@<TRIPOS>MOLECULE
39
41 43 1                 
SMALL
USER_CHARGES
@<TRIPOS>ATOM
1	  Br	3.076	-3.016	-0.376	Br	1	UNK0	0.000	
2	   C	1.357	-3.372	0.407	C.2	1	UNK0	0.000	
3	   C	0.510	-2.265	0.562	C.2	1	UNK0	0.000	
4	   C	-0.716	-2.549	1.125	C.2	1	UNK0	0.000	
5	   C	-1.068	-3.846	1.506	C.2	1	UNK0	0.000	
6	   C	-0.221	-4.915	1.344	C.2	1	UNK0	0.000	
7	   C	1.004	-4.645	0.783	C.2	1	UNK0	0.000	
8	   C	-0.616	-6.296	1.757	C.3	1	UNK0	0.000	
9	   N	0.931	-0.978	0.155	N.pl3	1	UNK0	0.000	
10	   C	0.234	0.229	0.229	C.2	1	UNK0	0.000	
11	   O	-0.912	0.287	0.697	O.2	1	UNK0	0.000	
12	   C	0.883	1.460	-0.263	C.3	1	UNK0	0.000	
13	   N	0.114	2.657	-0.156	N.4	1	UNK0	0.000	
14	   C	1.008	3.786	-0.457	C.3	1	UNK0	0.000	
15	   C	0.140	4.928	-0.924	C.3	1	UNK0	0.000	
16	   N	-1.056	4.894	-0.083	N.3	1	UNK0	0.000	
17	   C	-1.912	3.864	-0.664	C.3	1	UNK0	0.000	
18	   C	-1.027	2.693	-1.067	C.3	1	UNK0	0.000	
19	   C	-0.690	4.433	1.247	C.3	1	UNK0	0.000	
20	   C	-0.399	2.925	1.172	C.3	1	UNK0	0.000	
21	   H	-1.431	-1.748	1.281	 H	1	UNK0	0.000	
22	   H	-2.042	-4.054	1.951	 H	1	UNK0	0.000	
23	   H	1.699	-5.468	0.641	 H	1	UNK0	0.000	
24	   H	0.277	-6.932	1.931	 H	1	UNK0	0.000	
25	   H	-1.244	-6.785	1.009	 H	1	UNK0	0.000	
26	   H	-1.109	-6.189	2.747	 H	1	UNK0	0.000	
27	   H	1.908	-0.925	-0.262	 H	1	UNK0	0.000	
28	   H	1.141	1.357	-1.361	 H	1	UNK0	0.000	
29	   H	1.851	1.660	0.262	 H	1	UNK0	0.000	
30	   H	1.556	4.004	0.477	 H	1	UNK0	0.000	
31	   H	1.748	3.478	-1.224	 H	1	UNK0	0.000	
32	   H	-0.107	4.754	-1.985	 H	1	UNK0	0.000	
33	   H	0.662	5.917	-0.784	 H	1	UNK0	0.000	
34	   H	-2.365	4.257	-1.597	 H	1	UNK0	0.000	
35	   H	-2.697	3.528	0.056	 H	1	UNK0	0.000	
36	   H	-1.617	1.789	-0.906	 H	1	UNK0	0.000	
37	   H	-0.627	2.790	-2.088	 H	1	UNK0	0.000	
38	   H	0.184	5.013	1.573	 H	1	UNK0	0.000	
39	   H	-1.539	4.625	1.938	 H	1	UNK0	0.000	
40	   H	-1.383	2.424	1.317	 H	1	UNK0	0.000	
41	   H	0.322	2.718	1.969	 H	1	UNK0	0.000	
@<TRIPOS>BOND
1 1 2 1
2 2 3 2
3 2 7 1
4 3 4 1
5 3 9 1
6 4 5 2
7 5 6 1
8 6 7 2
9 6 8 1
10 9 10 1
11 10 11 2
12 10 12 1
13 12 13 1
14 13 14 1
15 13 18 1
16 13 20 1
17 14 15 1
18 15 16 1
19 16 17 1
20 16 19 1
21 17 18 1
22 19 20 1
23 4 21 1
24 5 22 1
25 7 23 1
26 8 24 1
27 8 25 1
28 8 26 1
29 9 27 1
30 12 28 1
31 12 29 1
32 14 30 1
33 14 31 1
34 15 32 1
35 15 33 1
36 17 34 1
37 17 35 1
38 18 36 1
39 18 37 1
40 19 38 1
41 19 39 1
42 20 40 1
43 20 41 1
@<TRIPOS>SUBSTRUCTURE
1	UNK0	1	GROUP	1 ****	UNK
