REMARK  2 active torsions:
REMARK  status: ('A' for Active; 'I' for Inactive)
REMARK    1  A    between atoms: C_3  and  C_8 
REMARK    2  A    between atoms: C_12  and  N_16 
ROOT
ATOM      1  C   UNK d   1      -0.154   0.703  -1.621  0.00  0.00     0.084 A 
ATOM      2  C   UNK d   1      -1.383   0.132  -1.286  0.00  0.00     0.166 A 
ATOM      3  C   UNK d   1      -2.166  -0.141  -0.050  0.00  0.00     0.295 C 
ATOM      4  N   UNK d   1      -2.973   1.101  -0.151  0.00  0.00    -0.209 NA
ATOM      5  C   UNK d   1      -2.187   2.053  -0.546  0.00  0.00     0.124 C 
ATOM      6  C   UNK d   1      -0.883   1.489  -0.702  0.00  0.00     0.146 A 
ATOM      7  C   UNK d   1      -0.244   1.459   0.648  0.00  0.00     0.080 C 
ATOM      8  N   UNK d   1       0.284   1.447   1.707  0.00  0.00    -0.196 NA
ATOM      9  O   UNK d   1      -2.993  -1.243  -0.294  0.00  0.00    -0.333 OA
ATOM     10  C   UNK d   1      -2.806  -2.128   0.750  0.00  0.00     0.199 C 
ATOM     11  C   UNK d   1      -2.336  -1.214   1.869  0.00  0.00     0.199 C 
ATOM     12  O   UNK d   1      -1.532  -0.326   1.112  0.00  0.00    -0.333 OA
ATOM     13  C   UNK d   1      -2.393   0.257  -2.397  0.00  0.00     0.080 C 
ATOM     14  N   UNK d   1      -3.171   0.368  -3.279  0.00  0.00    -0.196 NA
ENDROOT
BRANCH   1  15
ATOM     15  C   UNK d   1       1.069  -0.048  -1.236  0.00  0.00    -0.032 A 
ATOM     16  C   UNK d   1       2.321   0.508  -1.311  0.00  0.00     0.017 A 
ATOM     17 Br   UNK d   1       2.590   2.303  -1.902  0.00  0.00    -0.051 Br
ATOM     18  C   UNK d   1       3.414  -0.263  -0.939  0.00  0.00     0.019 A 
ATOM     19  C   UNK d   1       3.265  -1.581  -0.493  0.00  0.00     0.001 A 
ATOM     20  C   UNK d   1       2.002  -2.118  -0.426  0.00  0.00     0.001 A 
ATOM     21  C   UNK d   1       0.913  -1.342  -0.799  0.00  0.00     0.009 A 
ENDBRANCH   1  15
BRANCH   5  22
ATOM     22  N   UNK d   1      -2.576   3.425  -0.780  0.00  0.00    -0.386 N 
ATOM     23  H   UNK d   1      -3.287   3.890  -0.184  0.00  0.00     0.157 HD
ATOM     24  H   UNK d   1      -2.150   3.972  -1.551  0.00  0.00     0.157 HD
ENDBRANCH   5  22
TORSDOF 2
