REMARK  3 active torsions:
REMARK  status: ('A' for Active; 'I' for Inactive)
REMARK    1  A    between atoms: C_3  and  N_8 
REMARK    2  A    between atoms: C_12  and  C_20 
REMARK    3  A    between atoms: C_20  and  O_21 
ROOT
ATOM      1  N   UNK d   1      -1.084  -0.083  -0.491  0.00  0.00    -0.250 N 
ATOM      2  C   UNK d   1      -0.417   1.112  -0.864  0.00  0.00     0.239 C 
ATOM      3  O   UNK d   1       0.623   1.151  -1.545  0.00  0.00    -0.272 OA
ATOM      4  C   UNK d   1      -1.122   2.303  -0.337  0.00  0.00     0.135 C 
ATOM      5  C   UNK d   1      -0.324   3.065   0.663  0.00  0.00     0.113 C 
ATOM      6  O   UNK d   1      -1.170   3.197   1.796  0.00  0.00    -0.363 OA
ATOM      7  C   UNK d   1      -1.482   1.818   1.918  0.00  0.00     0.159 C 
ATOM      8  C   UNK d   1      -2.194   1.670   0.568  0.00  0.00     0.128 C 
ATOM      9  C   UNK d   1      -2.308   0.260   0.166  0.00  0.00     0.239 C 
ATOM     10  O   UNK d   1      -3.269  -0.520   0.343  0.00  0.00    -0.272 OA
ATOM     11  C   UNK d   1      -0.126   1.230   1.893  0.00  0.00     0.005 C 
ATOM     12  C   UNK d   1       0.655   2.105   1.260  0.00  0.00     0.012 C 
ENDROOT
BRANCH   1  13
ATOM     13  C   UNK d   1      -0.683  -1.432  -0.683  0.00  0.00     0.062 A 
ATOM     14  C   UNK d   1      -1.377  -2.334  -1.457  0.00  0.00     0.038 A 
ATOM     15 Br   UNK d   1      -2.980  -1.697  -2.316  0.00  0.00    -0.049 Br
ATOM     16  C   UNK d   1      -0.968  -3.638  -1.626  0.00  0.00     0.021 A 
ATOM     17  C   UNK d   1       0.167  -4.108  -1.021  0.00  0.00     0.002 A 
ATOM     18  C   UNK d   1       0.893  -3.224  -0.231  0.00  0.00     0.002 A 
ATOM     19  C   UNK d   1       0.468  -1.919  -0.073  0.00  0.00     0.031 A 
ENDBRANCH   1  13
BRANCH   5  20
ATOM     20  C   UNK d   1       0.266   4.342   0.235  0.00  0.00     0.207 C 
BRANCH  20  21
ATOM     21  O   UNK d   1       1.038   4.845   1.299  0.00  0.00    -0.398 OA
ATOM     22  H   UNK d   1       0.429   5.215   2.003  0.00  0.00     0.209 HD
ENDBRANCH  20  21
ENDBRANCH   5  20
TORSDOF 3
