REMARK  3 active torsions:
REMARK  status: ('A' for Active; 'I' for Inactive)
REMARK    1  A    between atoms: C_3  and  N_8 
REMARK    2  A    between atoms: C_13  and  C_17 
REMARK    3  A    between atoms: C_17  and  O_19 
ROOT
ATOM      1  N   UNK d   1       0.106   0.320  -0.582  0.00  0.00    -0.313 N 
ATOM      2  C   UNK d   1       0.916  -0.616  -1.385  0.00  0.00     0.175 C 
ATOM      3  C   UNK d   1       1.798  -1.183  -0.373  0.00  0.00     0.109 C 
ATOM      4  O   UNK d   1       1.286  -2.273   0.351  0.00  0.00    -0.364 OA
ATOM      5  C   UNK d   1       2.349  -2.334   1.291  0.00  0.00     0.160 C 
ATOM      6  C   UNK d   1       2.129  -0.955   1.928  0.00  0.00     0.134 C 
ATOM      7  C   UNK d   1       2.051  -0.107   0.697  0.00  0.00     0.135 C 
ATOM      8  C   UNK d   1       0.869   0.726   0.548  0.00  0.00     0.233 C 
ATOM      9  O   UNK d   1       0.547   1.673   1.295  0.00  0.00    -0.272 OA
ATOM     10  C   UNK d   1       3.525  -2.341   0.372  0.00  0.00     0.005 C 
ATOM     11  C   UNK d   1       3.109  -1.705  -0.746  0.00  0.00     0.012 C 
ENDROOT
BRANCH   1  12
ATOM     12  C   UNK d   1      -1.215   0.762  -0.853  0.00  0.00     0.054 A 
ATOM     13  C   UNK d   1      -1.741   0.794  -2.133  0.00  0.00     0.037 A 
ATOM     14 Br   UNK d   1      -0.737   0.248  -3.632  0.00  0.00    -0.049 Br
ATOM     15  C   UNK d   1      -3.046   1.235  -2.364  0.00  0.00     0.021 A 
ATOM     16  C   UNK d   1      -3.849   1.649  -1.335  0.00  0.00     0.002 A 
ATOM     17  C   UNK d   1      -3.351   1.626  -0.071  0.00  0.00     0.002 A 
ATOM     18  C   UNK d   1      -2.069   1.192   0.155  0.00  0.00     0.031 A 
ENDBRANCH   1  12
BRANCH   6  19
ATOM     19  C   UNK d   1       0.785  -1.046   2.582  0.00  0.00     0.266 C 
ATOM     20  O   UNK d   1       0.615  -0.877   3.798  0.00  0.00    -0.265 OA
BRANCH  19  21
ATOM     21  O   UNK d   1      -0.318  -1.334   1.788  0.00  0.00    -0.326 OA
ATOM     22  C   UNK d   1      -1.605  -1.423   2.411  0.00  0.00     0.213 C 
ENDBRANCH  19  21
ENDBRANCH   6  19
TORSDOF 3
