# created with PyMOL 2.3.2
@<TRIPOS>MOLECULE
81
35 38 1                 
SMALL
USER_CHARGES
@<TRIPOS>ATOM
1	  Br	2.899	-3.141	2.438	Br	1	UNK0	0.000	
2	   C	1.462	-1.946	2.102	C.2	1	UNK0	0.000	
3	   C	0.691	-1.889	0.970	C.2	1	UNK0	0.000	
4	   N	-0.197	-0.904	1.164	N.pl3	1	UNK0	0.000	
5	   N	-0.002	-0.366	2.352	N.2	1	UNK0	0.000	
6	   C	1.026	-0.985	2.976	C.2	1	UNK0	0.000	
7	   C	1.563	-0.666	4.348	C.3	1	UNK0	0.000	
8	   C	-1.205	-0.508	0.208	C.3	1	UNK0	0.000	
9	   C	-0.693	0.560	-0.719	C.2	1	UNK0	0.000	
10	   N	-0.069	0.385	-1.898	N.2	1	UNK0	0.000	
11	   N	0.231	1.575	-2.422	N.pl3	1	UNK0	0.000	
12	   C	-0.197	2.541	-1.584	C.2	1	UNK0	0.000	
13	   N	-0.760	1.892	-0.548	N.2	1	UNK0	0.000	
14	   C	0.006	3.865	-1.922	C.2	1	UNK0	0.000	
15	   C	0.635	4.240	-3.092	C.2	1	UNK0	0.000	
16	   N	0.702	5.584	-3.172	N.pl3	1	UNK0	0.000	
17	   N	0.133	6.068	-2.085	N.2	1	UNK0	0.000	
18	   C	-0.309	5.050	-1.289	C.2	1	UNK0	0.000	
19	   C	1.281	6.392	-4.233	C.3	1	UNK0	0.000	
20	   N	1.046	3.246	-3.900	N.2	1	UNK0	0.000	
21	   C	0.843	1.945	-3.561	C.2	1	UNK0	0.000	
22	   C	0.848	-2.776	-0.227	C.3	1	UNK0	0.000	
23	   H	2.647	-0.517	4.245	 H	1	UNK0	0.000	
24	   H	1.385	-1.484	5.053	 H	1	UNK0	0.000	
25	   H	1.129	0.300	4.678	 H	1	UNK0	0.000	
26	   H	-2.119	-0.134	0.747	 H	1	UNK0	0.000	
27	   H	-1.533	-1.361	-0.408	 H	1	UNK0	0.000	
28	   H	-0.808	5.135	-0.347	 H	1	UNK0	0.000	
29	   H	0.513	6.725	-4.970	 H	1	UNK0	0.000	
30	   H	1.880	7.235	-3.842	 H	1	UNK0	0.000	
31	   H	2.006	5.764	-4.825	 H	1	UNK0	0.000	
32	   H	1.178	1.137	-4.219	 H	1	UNK0	0.000	
33	   H	0.106	-3.576	-0.134	 H	1	UNK0	0.000	
34	   H	1.867	-3.211	-0.243	 H	1	UNK0	0.000	
35	   H	0.756	-2.193	-1.178	 H	1	UNK0	0.000	
@<TRIPOS>BOND
1 1 2 1
2 2 3 2
3 2 6 1
4 3 4 1
5 3 22 1
6 4 5 1
7 4 8 1
8 5 6 2
9 6 7 1
10 8 9 1
11 9 10 2
12 9 13 1
13 10 11 1
14 11 12 1
15 11 21 1
16 12 13 2
17 12 14 1
18 14 15 2
19 14 18 1
20 15 16 1
21 15 20 1
22 16 17 1
23 16 19 1
24 17 18 2
25 20 21 2
26 7 23 1
27 7 24 1
28 7 25 1
29 8 26 1
30 8 27 1
31 18 28 1
32 19 29 1
33 19 30 1
34 19 31 1
35 21 32 1
36 22 33 1
37 22 34 1
38 22 35 1
@<TRIPOS>SUBSTRUCTURE
1	UNK0	1	GROUP	1 ****	UNK
