REMARK  2 active torsions:
REMARK  status: ('A' for Active; 'I' for Inactive)
REMARK    1  A    between atoms: N_4  and  C_8 
REMARK    2  A    between atoms: C_8  and  C_9 
ROOT
ATOM      1  C   UNK d   1      -0.693   0.560  -0.719  0.00  0.00     0.168 A 
ATOM      2  N   UNK d   1      -0.069   0.385  -1.898  0.00  0.00    -0.148 NA
ATOM      3  N   UNK d   1       0.231   1.575  -2.422  0.00  0.00    -0.206 N 
ATOM      4  C   UNK d   1      -0.197   2.541  -1.584  0.00  0.00     0.169 A 
ATOM      5  N   UNK d   1      -0.760   1.892  -0.548  0.00  0.00    -0.209 NA
ATOM      6  C   UNK d   1       0.006   3.865  -1.922  0.00  0.00     0.079 A 
ATOM      7  C   UNK d   1       0.635   4.240  -3.092  0.00  0.00     0.162 A 
ATOM      8  N   UNK d   1       0.702   5.584  -3.172  0.00  0.00    -0.256 N 
ATOM      9  N   UNK d   1       0.133   6.068  -2.085  0.00  0.00    -0.182 NA
ATOM     10  C   UNK d   1      -0.309   5.050  -1.289  0.00  0.00     0.158 A 
ATOM     11  C   UNK d   1       1.281   6.392  -4.233  0.00  0.00     0.182 C 
ATOM     12  N   UNK d   1       1.046   3.246  -3.900  0.00  0.00    -0.222 NA
ATOM     13  C   UNK d   1       0.843   1.945  -3.561  0.00  0.00     0.239 A 
ENDROOT
BRANCH   1  14
ATOM     14  C   UNK d   1      -1.205  -0.508   0.208  0.00  0.00     0.233 C 
BRANCH  14  15
ATOM     15  N   UNK d   1      -0.197  -0.904   1.164  0.00  0.00    -0.265 N 
ATOM     16  C   UNK d   1       0.691  -1.889   0.970  0.00  0.00     0.046 A 
ATOM     17  C   UNK d   1       1.462  -1.946   2.102  0.00  0.00     0.060 A 
ATOM     18  C   UNK d   1       0.848  -2.776  -0.227  0.00  0.00     0.071 C 
ATOM     19 Br   UNK d   1       2.899  -3.141   2.438  0.00  0.00    -0.047 Br
ATOM     20  C   UNK d   1       1.026  -0.985   2.976  0.00  0.00     0.070 A 
ATOM     21  N   UNK d   1      -0.002  -0.366   2.352  0.00  0.00    -0.176 NA
ATOM     22  C   UNK d   1       1.563  -0.666   4.348  0.00  0.00     0.074 C 
ENDBRANCH  14  15
ENDBRANCH   1  14
TORSDOF 2
