# created with PyMOL 2.3.2
@<TRIPOS>MOLECULE
85
40 43 1                 
SMALL
USER_CHARGES
@<TRIPOS>ATOM
1	  Br	3.465	-3.093	0.697	Br	1	UNK0	0.000	
2	   C	2.467	-3.079	2.325	C.2	1	UNK0	0.000	
3	   C	1.350	-2.376	2.639	C.2	1	UNK0	0.000	
4	   N	1.001	-2.676	3.937	N.pl3	1	UNK0	0.000	
5	   N	1.886	-3.532	4.375	N.2	1	UNK0	0.000	
6	   C	2.808	-3.831	3.467	C.2	1	UNK0	0.000	
7	   C	-0.123	-2.148	4.665	C.3	1	UNK0	0.000	
8	   C	0.564	-1.450	1.797	C.2	1	UNK0	0.000	
9	   O	-0.354	-0.775	2.396	O.2	1	UNK0	0.000	
10	   N	0.767	-1.283	0.430	N.pl3	1	UNK0	0.000	
11	   C	0.038	-0.402	-0.408	C.2	1	UNK0	0.000	
12	   C	0.393	-0.376	-1.772	C.2	1	UNK0	0.000	
13	   N	1.344	-1.070	-2.454	N.2	1	UNK0	0.000	
14	   O	1.277	-0.691	-3.694	O.3	1	UNK0	0.000	
15	   N	0.347	0.199	-3.850	N.2	1	UNK0	0.000	
16	   C	-0.244	0.437	-2.672	C.2	1	UNK0	0.000	
17	   C	-1.272	1.282	-2.306	C.2	1	UNK0	0.000	
18	   C	-1.617	1.254	-0.968	C.2	1	UNK0	0.000	
19	   C	-0.976	0.431	-0.044	C.2	1	UNK0	0.000	
20	   N	-1.935	2.123	-3.218	N.pl3	1	UNK0	0.000	
21	   C	-3.020	2.966	-2.723	C.3	1	UNK0	0.000	
22	   C	-3.734	3.668	-3.845	C.3	1	UNK0	0.000	
23	   O	-3.928	2.943	-4.974	O.3	1	UNK0	0.000	
24	   C	-3.013	1.985	-5.300	C.3	1	UNK0	0.000	
25	   C	-1.693	2.283	-4.620	C.3	1	UNK0	0.000	
26	   H	3.653	-4.484	3.509	 H	1	UNK0	0.000	
27	   H	-1.055	-2.253	4.064	 H	1	UNK0	0.000	
28	   H	0.033	-1.073	4.861	 H	1	UNK0	0.000	
29	   H	-0.205	-2.669	5.629	 H	1	UNK0	0.000	
30	   H	1.532	-1.890	0.007	 H	1	UNK0	0.000	
31	   H	-2.420	1.908	-0.659	 H	1	UNK0	0.000	
32	   H	-1.296	0.461	0.977	 H	1	UNK0	0.000	
33	   H	-3.776	2.368	-2.171	 H	1	UNK0	0.000	
34	   H	-2.631	3.747	-2.028	 H	1	UNK0	0.000	
35	   H	-4.746	3.958	-3.444	 H	1	UNK0	0.000	
36	   H	-3.212	4.647	-4.018	 H	1	UNK0	0.000	
37	   H	-3.379	1.006	-4.893	 H	1	UNK0	0.000	
38	   H	-2.836	1.876	-6.395	 H	1	UNK0	0.000	
39	   H	-1.503	3.389	-4.771	 H	1	UNK0	0.000	
40	   H	-0.850	1.780	-5.055	 H	1	UNK0	0.000	
@<TRIPOS>BOND
1 1 2 1
2 2 3 2
3 2 6 1
4 3 4 1
5 3 8 1
6 4 5 1
7 4 7 1
8 5 6 2
9 8 9 2
10 8 10 1
11 10 11 1
12 11 12 1
13 11 19 2
14 12 13 2
15 12 16 1
16 13 14 1
17 14 15 1
18 15 16 2
19 16 17 1
20 17 18 2
21 17 20 1
22 18 19 1
23 20 21 1
24 20 25 1
25 21 22 1
26 22 23 1
27 23 24 1
28 24 25 1
29 6 26 1
30 7 27 1
31 7 28 1
32 7 29 1
33 10 30 1
34 18 31 1
35 19 32 1
36 21 33 1
37 21 34 1
38 22 35 1
39 22 36 1
40 24 37 1
41 24 38 1
42 25 39 1
43 25 40 1
@<TRIPOS>SUBSTRUCTURE
1	UNK0	1	GROUP	1 ****	UNK
