REMARK  3 active torsions:
REMARK  status: ('A' for Active; 'I' for Inactive)
REMARK    1  A    between atoms: C_3  and  C_8 
REMARK       I    between atoms: C_8  and  N_10 
REMARK    2  A    between atoms: N_10  and  C_11 
REMARK    3  A    between atoms: C_17  and  N_20 
ROOT
ATOM      1  C   UNK d   1       0.038  -0.402  -0.408  0.00  0.00     0.069 A 
ATOM      2  C   UNK d   1       0.393  -0.376  -1.772  0.00  0.00     0.146 A 
ATOM      3  N   UNK d   1       1.344  -1.070  -2.454  0.00  0.00    -0.101 NA
ATOM      4  O   UNK d   1       1.277  -0.691  -3.694  0.00  0.00    -0.106 OA
ATOM      5  N   UNK d   1       0.347   0.199  -3.850  0.00  0.00    -0.101 NA
ATOM      6  C   UNK d   1      -0.244   0.437  -2.672  0.00  0.00     0.146 A 
ATOM      7  C   UNK d   1      -1.272   1.282  -2.306  0.00  0.00     0.064 A 
ATOM      8  C   UNK d   1      -1.617   1.254  -0.968  0.00  0.00     0.034 A 
ATOM      9  C   UNK d   1      -0.976   0.431  -0.044  0.00  0.00     0.034 A 
ENDROOT
BRANCH   1  10
ATOM     10  N   UNK d   1       0.767  -1.283   0.430  0.00  0.00    -0.319 N 
ATOM     11  C   UNK d   1       0.564  -1.450   1.797  0.00  0.00     0.275 C 
ATOM     12  O   UNK d   1      -0.354  -0.775   2.396  0.00  0.00    -0.266 OA
ATOM     13  H   UNK d   1       1.532  -1.890   0.007  0.00  0.00     0.169 HD
BRANCH  11  14
ATOM     14  C   UNK d   1       1.350  -2.376   2.639  0.00  0.00     0.139 A 
ATOM     15  C   UNK d   1       2.467  -3.079   2.325  0.00  0.00     0.064 A 
ATOM     16 Br   UNK d   1       3.465  -3.093   0.697  0.00  0.00    -0.047 Br
ATOM     17  C   UNK d   1       2.808  -3.831   3.467  0.00  0.00     0.160 A 
ATOM     18  N   UNK d   1       1.886  -3.532   4.375  0.00  0.00    -0.183 NA
ATOM     19  N   UNK d   1       1.001  -2.676   3.937  0.00  0.00    -0.268 N 
ATOM     20  C   UNK d   1      -0.123  -2.148   4.665  0.00  0.00     0.180 C 
ENDBRANCH  11  14
ENDBRANCH   1  10
BRANCH   7  21
ATOM     21  N   UNK d   1      -1.935   2.123  -3.218  0.00  0.00    -0.375 N 
ATOM     22  C   UNK d   1      -3.020   2.966  -2.723  0.00  0.00     0.149 C 
ATOM     23  C   UNK d   1      -3.734   3.668  -3.845  0.00  0.00     0.187 C 
ATOM     24  O   UNK d   1      -3.928   2.943  -4.974  0.00  0.00    -0.388 OA
ATOM     25  C   UNK d   1      -3.013   1.985  -5.300  0.00  0.00     0.187 C 
ATOM     26  C   UNK d   1      -1.693   2.283  -4.620  0.00  0.00     0.149 C 
ENDBRANCH   7  21
TORSDOF 3
