REMARK  4 active torsions:
REMARK  status: ('A' for Active; 'I' for Inactive)
REMARK    1  A    between atoms: C_4  and  C_13 
REMARK    2  A    between atoms: C_5  and  N_8 
REMARK       I    between atoms: C_13  and  N_15 
REMARK    3  A    between atoms: N_15  and  C_16 
REMARK    4  A    between atoms: C_16  and  C_17 
ROOT
ATOM      1  C   UNK d   1      -0.568   0.885  -1.474  0.00  0.00     0.254 C 
ATOM      2  O   UNK d   1      -1.605   0.763  -2.203  0.00  0.00    -0.268 OA
ATOM      3  N   UNK d   1      -0.539   0.889  -0.100  0.00  0.00    -0.350 N 
ATOM      4  H   UNK d   1      -1.892   0.742  -0.058  0.00  0.00     0.163 HD
ENDROOT
BRANCH   1   5
ATOM      5  C   UNK d   1       0.735   1.038  -2.224  0.00  0.00     0.062 A 
ATOM      6  C   UNK d   1       1.727   1.868  -1.768  0.00  0.00     0.038 A 
ATOM      7  C   UNK d   1       2.908   1.977  -2.512  0.00  0.00     0.012 A 
ATOM      8 Br   UNK d   1       4.292   3.117  -1.905  0.00  0.00    -0.051 Br
ATOM      9  C   UNK d   1       3.069   1.266  -3.676  0.00  0.00     0.021 A 
ATOM     10  C   UNK d   1       2.070   0.431  -4.134  0.00  0.00     0.034 A 
ATOM     11  C   UNK d   1       0.887   0.324  -3.383  0.00  0.00     0.077 A 
BRANCH  11  12
ATOM     12  N   UNK d   1      -0.176  -0.519  -3.789  0.00  0.00    -0.205 N 
ATOM     13  N   UNK d   1      -0.394  -1.718  -3.284  0.00  0.00    -0.040 NA
ATOM     14  N   UNK d   1      -1.446  -2.277  -3.843  0.00  0.00    -0.023 NA
ATOM     15  N   UNK d   1      -1.935  -1.432  -4.736  0.00  0.00    -0.122 NA
ATOM     16  C   UNK d   1      -1.148  -0.352  -4.698  0.00  0.00     0.262 A 
ENDBRANCH  11  12
ENDBRANCH   1   5
BRANCH   3  17
ATOM     17  C   UNK d   1      -0.511   0.893   1.266  0.00  0.00     0.203 C 
BRANCH  17  18
ATOM     18  C   UNK d   1      -1.002  -0.399   1.898  0.00  0.00     0.152 A 
ATOM     19  N   UNK d   1      -0.614  -1.639   1.528  0.00  0.00    -0.290 N 
ATOM     20  C   UNK d   1      -1.229  -2.560   2.281  0.00  0.00     0.157 A 
ATOM     21  C   UNK d   1       0.258  -2.040   0.560  0.00  0.00     0.100 A 
ATOM     22  N   UNK d   1      -2.009  -1.874   3.131  0.00  0.00    -0.130 NA
ATOM     23  C   UNK d   1      -0.983  -3.925   2.082  0.00  0.00     0.053 A 
ATOM     24  N   UNK d   1      -1.873  -0.560   2.900  0.00  0.00    -0.132 NA
ATOM     25  C   UNK d   1      -0.109  -4.333   1.113  0.00  0.00     0.005 A 
ATOM     26  C   UNK d   1       0.525  -3.383   0.337  0.00  0.00     0.018 A 
ENDBRANCH  17  18
ENDBRANCH   3  17
TORSDOF 4
