REMARK  4 active torsions:
REMARK  status: ('A' for Active; 'I' for Inactive)
REMARK    1  A    between atoms: C_4  and  C_10 
REMARK    2  A    between atoms: C_5  and  O_8 
REMARK    3  A    between atoms: C_18  and  C_19 
REMARK    4  A    between atoms: C_19  and  N_20 
ROOT
ATOM      1  C   UNK d   1      -1.560  -3.443   2.669  0.00  0.00     0.055 C 
ATOM      2  C   UNK d   1      -0.398  -2.905   2.421  0.00  0.00     0.128 A 
ATOM      3  O   UNK d   1      -0.217  -1.676   1.806  0.00  0.00    -0.305 OA
ATOM      4  C   UNK d   1       1.122  -1.360   1.671  0.00  0.00     0.101 A 
ATOM      5  C   UNK d   1       1.910  -2.363   2.188  0.00  0.00     0.051 A 
ATOM      6  C   UNK d   1       3.284  -2.251   2.155  0.00  0.00     0.021 A 
ATOM      7  C   UNK d   1       3.859  -1.128   1.599  0.00  0.00     0.041 A 
ATOM      8  C   UNK d   1       3.030  -0.116   1.076  0.00  0.00     0.118 A 
ATOM      9  C   UNK d   1       1.672  -0.204   1.099  0.00  0.00     0.039 A 
ATOM     10  O   UNK d   1       3.753   0.963   0.543  0.00  0.00    -0.191 OA
ATOM     11  C   UNK d   1       0.967  -3.373   2.680  0.00  0.00     0.218 A 
ATOM     12  O   UNK d   1       1.262  -4.457   3.230  0.00  0.00    -0.284 OA
ENDROOT
BRANCH   1  13
ATOM     13  C   UNK d   1      -2.859  -2.873   2.354  0.00  0.00     0.001 A 
ATOM     14  C   UNK d   1      -3.907  -2.859   3.248  0.00  0.00     0.033 A 
ATOM     15  C   UNK d   1      -5.139  -2.342   2.968  0.00  0.00     0.011 A 
ATOM     16 Br   UNK d   1      -6.609  -2.307   4.179  0.00  0.00    -0.051 Br
ATOM     17  C   UNK d   1      -5.331  -1.801   1.700  0.00  0.00     0.022 A 
ATOM     18  C   UNK d   1      -4.311  -1.787   0.756  0.00  0.00     0.039 A 
ATOM     19  C   UNK d   1      -3.097  -2.320   1.092  0.00  0.00     0.078 A 
BRANCH  19  20
ATOM     20  O   UNK d   1      -2.064  -2.326   0.175  0.00  0.00    -0.355 OA
ATOM     21  C   UNK d   1      -2.250  -1.786  -1.107  0.00  0.00     0.210 C 
ENDBRANCH  19  20
ENDBRANCH   1  13
BRANCH   9  22
ATOM     22  C   UNK d   1       0.778   0.804   0.599  0.00  0.00     0.279 C 
BRANCH  22  23
ATOM     23  N   UNK d   1       1.227   1.996   0.005  0.00  0.00    -0.063 N 
ATOM     24  C   UNK d   1       1.540   1.919  -1.396  0.00  0.00     0.261 C 
ATOM     25  C   UNK d   1       0.340   2.036  -2.303  0.00  0.00     0.195 C 
ATOM     26  O   UNK d   1      -0.869   2.074  -1.622  0.00  0.00    -0.388 OA
ATOM     27  C   UNK d   1      -0.807   3.176  -0.776  0.00  0.00     0.195 C 
ATOM     28  C   UNK d   1       0.298   3.119   0.227  0.00  0.00     0.261 C 
ATOM     29  H   UNK d   1       2.085   2.320   0.497  0.00  0.00     0.280 HD
ENDBRANCH  22  23
ENDBRANCH   9  22
TORSDOF 4
