# created with PyMOL 2.3.2
@<TRIPOS>MOLECULE
107
54 57 1                 
SMALL
USER_CHARGES
@<TRIPOS>ATOM
1	  Br	6.688	2.152	3.051	Br	1	UNK0	0.000	
2	   C	4.804	2.227	2.772	C.2	1	UNK0	0.000	
3	   C	4.207	1.510	1.759	C.2	1	UNK0	0.000	
4	   C	2.849	1.563	1.558	C.2	1	UNK0	0.000	
5	   C	2.099	2.355	2.400	C.2	1	UNK0	0.000	
6	   C	2.692	3.088	3.431	C.2	1	UNK0	0.000	
7	   C	4.062	3.030	3.629	C.2	1	UNK0	0.000	
8	   O	0.728	2.391	2.174	O.3	1	UNK0	0.000	
9	   C	-0.174	3.150	2.945	C.3	1	UNK0	0.000	
10	   C	2.205	0.808	0.489	C.2	1	UNK0	0.000	
11	   N	2.847	0.056	-0.323	N.2	1	UNK0	0.000	
12	   N	2.247	-0.673	-1.351	N.pl3	1	UNK0	0.000	
13	   C	0.862	-0.997	-1.357	C.2	1	UNK0	0.000	
14	   N	0.365	-2.122	-0.799	N.2	1	UNK0	0.000	
15	   C	-0.944	-2.398	-0.822	C.2	1	UNK0	0.000	
16	   N	-1.771	-1.525	-1.418	N.2	1	UNK0	0.000	
17	   C	-1.340	-0.374	-2.000	C.2	1	UNK0	0.000	
18	   N	0.003	-0.159	-1.938	N.2	1	UNK0	0.000	
19	   N	-2.212	0.537	-2.623	N.pl3	1	UNK0	0.000	
20	   C	-3.623	0.297	-2.683	C.3	1	UNK0	0.000	
21	   C	-4.034	0.417	-4.149	C.3	1	UNK0	0.000	
22	   O	-3.632	1.669	-4.581	O.3	1	UNK0	0.000	
23	   C	-2.265	1.807	-4.633	C.3	1	UNK0	0.000	
24	   C	-1.693	1.734	-3.217	C.3	1	UNK0	0.000	
25	   N	-1.467	-3.581	-0.234	N.pl3	1	UNK0	0.000	
26	   C	-0.626	-4.557	0.423	C.3	1	UNK0	0.000	
27	   C	-1.042	-5.975	0.062	C.3	1	UNK0	0.000	
28	   O	-2.433	-6.111	0.133	O.3	1	UNK0	0.000	
29	   C	-3.072	-5.275	-0.751	C.3	1	UNK0	0.000	
30	   C	-2.887	-3.850	-0.276	C.3	1	UNK0	0.000	
31	   H	4.789	0.875	1.080	 H	1	UNK0	0.000	
32	   H	2.079	3.710	4.088	 H	1	UNK0	0.000	
33	   H	4.497	3.602	4.431	 H	1	UNK0	0.000	
34	   H	-0.521	2.490	3.780	 H	1	UNK0	0.000	
35	   H	0.244	4.106	3.296	 H	1	UNK0	0.000	
36	   H	-1.074	3.366	2.326	 H	1	UNK0	0.000	
37	   H	1.134	0.873	0.361	 H	1	UNK0	0.000	
38	   H	2.880	-0.979	-2.139	 H	1	UNK0	0.000	
39	   H	-3.890	-0.713	-2.277	 H	1	UNK0	0.000	
40	   H	-4.158	1.102	-2.129	 H	1	UNK0	0.000	
41	   H	-5.142	0.386	-4.153	 H	1	UNK0	0.000	
42	   H	-3.630	-0.406	-4.743	 H	1	UNK0	0.000	
43	   H	-1.780	0.978	-5.202	 H	1	UNK0	0.000	
44	   H	-2.018	2.783	-5.063	 H	1	UNK0	0.000	
45	   H	-0.589	1.769	-3.233	 H	1	UNK0	0.000	
46	   H	-2.122	2.615	-2.683	 H	1	UNK0	0.000	
47	   H	-0.850	-4.459	1.524	 H	1	UNK0	0.000	
48	   H	0.438	-4.426	0.207	 H	1	UNK0	0.000	
49	   H	-0.644	-6.196	-0.937	 H	1	UNK0	0.000	
50	   H	-0.637	-6.650	0.858	 H	1	UNK0	0.000	
51	   H	-2.640	-5.434	-1.760	 H	1	UNK0	0.000	
52	   H	-4.127	-5.561	-0.800	 H	1	UNK0	0.000	
53	   H	-3.279	-3.791	0.744	 H	1	UNK0	0.000	
54	   H	-3.414	-3.126	-0.918	 H	1	UNK0	0.000	
@<TRIPOS>BOND
1 1 2 1
2 2 3 2
3 2 7 1
4 3 4 1
5 4 5 2
6 4 10 1
7 5 6 1
8 5 8 1
9 6 7 2
10 8 9 1
11 10 11 2
12 11 12 1
13 12 13 1
14 13 14 2
15 13 18 1
16 14 15 1
17 15 16 2
18 15 25 1
19 16 17 1
20 17 18 2
21 17 19 1
22 19 20 1
23 19 24 1
24 20 21 1
25 21 22 1
26 22 23 1
27 23 24 1
28 25 26 1
29 25 30 1
30 26 27 1
31 27 28 1
32 28 29 1
33 29 30 1
34 3 31 1
35 6 32 1
36 7 33 1
37 9 34 1
38 9 35 1
39 9 36 1
40 10 37 1
41 12 38 1
42 20 39 1
43 20 40 1
44 21 41 1
45 21 42 1
46 23 43 1
47 23 44 1
48 24 45 1
49 24 46 1
50 26 47 1
51 26 48 1
52 27 49 1
53 27 50 1
54 29 51 1
55 29 52 1
56 30 53 1
57 30 54 1
@<TRIPOS>SUBSTRUCTURE
1	UNK0	1	GROUP	1 ****	UNK
