REMARK  5 active torsions:
REMARK  status: ('A' for Active; 'I' for Inactive)
REMARK    1  A    between atoms: C_4  and  C_10 
REMARK    2  A    between atoms: C_5  and  O_8 
REMARK    3  A    between atoms: N_15  and  C_25 
REMARK    4  A    between atoms: C_25  and  C_26 
REMARK    5  A    between atoms: C_26  and  O_27 
ROOT
ATOM      1  C   UNK d   1       1.419   0.486  -0.398  0.00  0.00     0.188 A 
ATOM      2  N   UNK d   1       0.119   0.563  -0.213  0.00  0.00    -0.106 N 
ATOM      3  C   UNK d   1      -0.160   1.046   1.039  0.00  0.00     0.736 A 
ATOM      4  N   UNK d   1       1.033   1.263   1.638  0.00  0.00     0.045 NA
ATOM      5  N   UNK d   1       1.967   0.939   0.810  0.00  0.00    -0.114 NA
ATOM      6  N   UNK d   1      -1.482   1.117   1.210  0.00  0.00    -0.168 N 
ATOM      7  C   UNK d   1      -2.049   0.677   0.075  0.00  0.00     0.165 A 
ATOM      8  C   UNK d   1      -1.062   0.318  -0.836  0.00  0.00     0.170 A 
ATOM      9  N   UNK d   1      -1.337  -0.171  -2.030  0.00  0.00    -0.287 N 
ATOM     10  C   UNK d   1      -2.662  -0.308  -2.350  0.00  0.00     0.330 A 
ATOM     11  O   UNK d   1      -3.037  -0.761  -3.461  0.00  0.00    -0.246 OA
ATOM     12  N   UNK d   1      -3.647   0.034  -1.493  0.00  0.00    -0.273 N 
ATOM     13  C   UNK d   1      -3.373   0.522  -0.289  0.00  0.00     0.280 A 
ATOM     14  O   UNK d   1      -4.244   0.858   0.553  0.00  0.00    -0.265 OA
ATOM     15  C   UNK d   1      -0.439  -0.654  -3.035  0.00  0.00     0.163 C 
ATOM     16  H   UNK d   1      -4.650  -0.075  -1.752  0.00  0.00     0.173 HD
ENDROOT
BRANCH   1  17
ATOM     17  C   UNK d   1       2.351   0.095  -1.417  0.00  0.00     0.047 A 
ATOM     18  C   UNK d   1       2.484   0.571  -2.686  0.00  0.00     0.037 A 
ATOM     19  C   UNK d   1       3.384   0.147  -3.620  0.00  0.00     0.012 A 
ATOM     20 Br   UNK d   1       3.402   0.952  -5.349  0.00  0.00    -0.051 Br
ATOM     21  C   UNK d   1       4.257  -0.850  -3.299  0.00  0.00     0.022 A 
ATOM     22  C   UNK d   1       4.194  -1.395  -2.026  0.00  0.00     0.039 A 
ATOM     23  C   UNK d   1       3.271  -0.936  -1.117  0.00  0.00     0.082 A 
BRANCH  23  24
ATOM     24  O   UNK d   1       3.241  -1.508   0.143  0.00  0.00    -0.355 OA
ATOM     25  C   UNK d   1       4.090  -2.529   0.566  0.00  0.00     0.210 C 
ENDBRANCH  23  24
ENDBRANCH   1  17
BRANCH   6  26
ATOM     26  C   UNK d   1      -2.189   1.572   2.371  0.00  0.00     0.174 C 
BRANCH  26  27
ATOM     27  C   UNK d   1      -2.444   0.401   3.297  0.00  0.00     0.187 C 
BRANCH  27  28
ATOM     28  O   UNK d   1      -1.225  -0.134   3.664  0.00  0.00    -0.394 OA
ATOM     29  C   UNK d   1      -1.380  -1.231   4.529  0.00  0.00     0.201 C 
ENDBRANCH  27  28
ENDBRANCH  26  27
ENDBRANCH   6  26
TORSDOF 5
