REMARK  4 active torsions:
REMARK  status: ('A' for Active; 'I' for Inactive)
REMARK    1  A    between atoms: C_4  and  C_8 
REMARK    2  A    between atoms: C_8  and  C_10 
REMARK    3  A    between atoms: C_10  and  N_11 
REMARK    4  A    between atoms: N_14  and  C_17 
ROOT
ATOM      1  N   UNK d   1       0.601   1.998  -0.544  0.00  0.00    -0.402 N 
ATOM      2  C   UNK d   1      -0.616   1.505  -1.073  0.00  0.00     0.137 C 
ATOM      3  C   UNK d   1      -0.514   0.736  -2.334  0.00  0.00     0.143 C 
ATOM      4  N   UNK d   1       0.454  -0.308  -2.226  0.00  0.00    -0.362 N 
ATOM      5  C   UNK d   1       1.470  -0.198  -1.219  0.00  0.00     0.143 C 
ATOM      6  C   UNK d   1       1.765   1.223  -0.798  0.00  0.00     0.137 C 
ENDROOT
BRANCH   4   7
ATOM      7  C   UNK d   1       0.460  -1.431  -3.095  0.00  0.00     0.135 A 
ATOM      8  C   UNK d   1      -0.397  -2.419  -2.845  0.00  0.00     0.125 A 
ATOM      9  N   UNK d   1      -1.389  -2.664  -1.864  0.00  0.00    -0.291 N 
ATOM     10  C   UNK d   1      -0.359  -3.569  -3.775  0.00  0.00     0.113 A 
ATOM     11  N   UNK d   1      -1.933  -3.926  -2.195  0.00  0.00    -0.300 N 
ATOM     12  C   UNK d   1      -1.760  -1.806  -0.765  0.00  0.00     0.178 C 
ATOM     13  C   UNK d   1      -1.278  -4.421  -3.347  0.00  0.00     0.053 A 
ATOM     14  H   UNK d   1      -2.694  -4.360  -1.632  0.00  0.00     0.187 HD
ATOM     15  C   UNK d   1      -1.541  -5.714  -4.033  0.00  0.00     0.072 C 
ATOM     16  N   UNK d   1       0.560  -3.574  -4.862  0.00  0.00    -0.240 NA
ATOM     17  C   UNK d   1       1.368  -2.592  -5.060  0.00  0.00     0.209 A 
ATOM     18  N   UNK d   1       1.377  -1.471  -4.208  0.00  0.00    -0.335 N 
ATOM     19  H   UNK d   1       2.007  -0.659  -4.326  0.00  0.00     0.168 HD
ENDBRANCH   4   7
BRANCH   1  20
ATOM     20  C   UNK d   1       0.534   2.640   0.710  0.00  0.00     0.200 C 
BRANCH  20  21
ATOM     21  C   UNK d   1       0.220   1.746   1.826  0.00  0.00     0.176 C 
ATOM     22  O   UNK d   1       0.066   0.518   1.601  0.00  0.00    -0.291 OA
BRANCH  21  23
ATOM     23  C   UNK d   1       0.094   2.305   3.168  0.00  0.00     0.013 A 
ATOM     24  C   UNK d   1       0.266   3.647   3.385  0.00  0.00     0.034 A 
ATOM     25  C   UNK d   1       0.154   4.212   4.649  0.00  0.00     0.011 A 
ATOM     26 Br   UNK d   1       0.392   6.076   4.947  0.00  0.00    -0.051 Br
ATOM     27  C   UNK d   1      -0.139   3.399   5.722  0.00  0.00     0.019 A 
ATOM     28  C   UNK d   1      -0.311   2.041   5.487  0.00  0.00     0.002 A 
ATOM     29  C   UNK d   1      -0.199   1.489   4.236  0.00  0.00     0.015 A 
ENDBRANCH  21  23
ENDBRANCH  20  21
ENDBRANCH   1  20
TORSDOF 4
