REMARK  3 active torsions:
REMARK  status: ('A' for Active; 'I' for Inactive)
REMARK    1  A    between atoms: C_4  and  C_8 
REMARK       I    between atoms: C_8  and  N_10 
REMARK    2  A    between atoms: N_10  and  C_11 
REMARK    3  A    between atoms: C_11  and  C_13 
REMARK       I    between atoms: C_13  and  N_15 
ROOT
ATOM      1  C   UNK d   1      -2.864  -0.863   0.557  0.00  0.00     0.242 C 
ATOM      2  O   UNK d   1      -4.094  -0.545   0.530  0.00  0.00    -0.271 OA
ATOM      3  N   UNK d   1      -1.926  -0.064   1.272  0.00  0.00    -0.350 N 
ATOM      4  C   UNK d   1      -0.504  -0.284   1.199  0.00  0.00     0.129 C 
ATOM      5  C   UNK d   1       0.007   0.998   0.499  0.00  0.00     0.068 C 
ATOM      6  C   UNK d   1      -0.090   2.070   1.551  0.00  0.00     0.204 C 
ATOM      7  N   UNK d   1       0.022   3.348   0.850  0.00  0.00     0.099 N 
ATOM      8  C   UNK d   1       1.209   3.468   0.089  0.00  0.00     0.277 C 
ATOM      9  C   UNK d   1       2.467   3.447   0.938  0.00  0.00     0.091 C 
ATOM     10  C   UNK d   1       2.319   2.572   2.116  0.00  0.00     0.062 A 
ATOM     11  N   UNK d   1       3.225   2.249   3.054  0.00  0.00    -0.246 NA
ATOM     12  C   UNK d   1       2.616   1.424   3.934  0.00  0.00     0.207 A 
ATOM     13  N   UNK d   1       1.334   1.245   3.526  0.00  0.00    -0.350 N 
ATOM     14  C   UNK d   1       1.120   1.945   2.395  0.00  0.00     0.074 A 
ATOM     15  C   UNK d   1      -1.354   2.082   2.336  0.00  0.00     0.068 C 
ATOM     16  C   UNK d   1      -2.362   1.012   2.088  0.00  0.00     0.129 C 
ATOM     17  H   UNK d   1      -0.137   4.166   1.492  0.00  0.00     0.317 HD
ATOM     18  H   UNK d   1       0.707   0.636   4.089  0.00  0.00     0.166 HD
ENDROOT
BRANCH   1  19
ATOM     19  C   UNK d   1      -2.481  -2.056  -0.184  0.00  0.00     0.173 C 
ATOM     20  C   UNK d   1      -1.985  -3.122   0.780  0.00  0.00     0.042 C 
BRANCH  19  21
ATOM     21  N   UNK d   1      -1.630  -1.809  -1.290  0.00  0.00    -0.344 N 
ATOM     22  C   UNK d   1      -1.270  -2.750  -2.250  0.00  0.00     0.252 C 
ATOM     23  O   UNK d   1      -1.608  -3.913  -2.386  0.00  0.00    -0.268 OA
ATOM     24  H   UNK d   1      -1.296  -0.804  -1.396  0.00  0.00     0.163 HD
BRANCH  22  25
ATOM     25  C   UNK d   1      -0.289  -2.221  -3.270  0.00  0.00     0.033 A 
ATOM     26  C   UNK d   1       0.936  -1.796  -2.803  0.00  0.00     0.036 A 
ATOM     27  C   UNK d   1       1.848  -1.270  -3.687  0.00  0.00     0.011 A 
ATOM     28 Br   UNK d   1       3.568  -0.687  -3.044  0.00  0.00    -0.051 Br
ATOM     29  C   UNK d   1       1.576  -1.149  -5.034  0.00  0.00     0.019 A 
ATOM     30  C   UNK d   1       0.319  -1.592  -5.451  0.00  0.00     0.002 A 
ATOM     31  C   UNK d   1      -0.601  -2.121  -4.588  0.00  0.00     0.017 A 
ENDBRANCH  22  25
ENDBRANCH  19  21
ENDBRANCH   1  19
TORSDOF 3
