# created with PyMOL 2.3.2
@<TRIPOS>MOLECULE
129
52 55 1                 
SMALL
USER_CHARGES
@<TRIPOS>ATOM
1	  Br	3.568	-0.687	-3.044	Br	1	UNK0	0.000	
2	   C	1.848	-1.270	-3.687	C.2	1	UNK0	0.000	
3	   C	0.936	-1.796	-2.803	C.2	1	UNK0	0.000	
4	   C	-0.289	-2.221	-3.270	C.2	1	UNK0	0.000	
5	   C	-0.601	-2.121	-4.588	C.2	1	UNK0	0.000	
6	   C	0.319	-1.592	-5.451	C.2	1	UNK0	0.000	
7	   C	1.576	-1.149	-5.034	C.2	1	UNK0	0.000	
8	   C	-1.270	-2.750	-2.250	C.2	1	UNK0	0.000	
9	   O	-1.608	-3.913	-2.386	O.2	1	UNK0	0.000	
10	   N	-1.630	-1.809	-1.290	N.pl3	1	UNK0	0.000	
11	   C	-2.481	-2.056	-0.184	C.3	1	UNK0	0.000	
12	   C	-1.985	-3.122	0.780	C.3	1	UNK0	0.000	
13	   C	-2.864	-0.863	0.557	C.2	1	UNK0	0.000	
14	   O	-4.094	-0.545	0.530	O.2	1	UNK0	0.000	
15	   N	-1.926	-0.064	1.272	N.pl3	1	UNK0	0.000	
16	   C	-0.504	-0.284	1.199	C.3	1	UNK0	0.000	
17	   C	0.007	0.998	0.499	C.3	1	UNK0	0.000	
18	   C	-0.090	2.070	1.551	C.3	1	UNK0	0.000	
19	   N	0.022	3.348	0.850	N.3	1	UNK0	0.000	
20	   C	1.209	3.468	0.089	C.3	1	UNK0	0.000	
21	   C	2.467	3.447	0.938	C.3	1	UNK0	0.000	
22	   C	2.319	2.572	2.116	C.2	1	UNK0	0.000	
23	   N	3.225	2.249	3.054	N.2	1	UNK0	0.000	
24	   C	2.616	1.424	3.934	C.2	1	UNK0	0.000	
25	   N	1.334	1.245	3.526	N.pl3	1	UNK0	0.000	
26	   C	1.120	1.945	2.395	C.2	1	UNK0	0.000	
27	   C	-1.354	2.082	2.336	C.3	1	UNK0	0.000	
28	   C	-2.362	1.012	2.088	C.3	1	UNK0	0.000	
29	   H	1.137	-1.888	-1.725	 H	1	UNK0	0.000	
30	   H	-1.598	-2.455	-4.946	 H	1	UNK0	0.000	
31	   H	0.105	-1.495	-6.519	 H	1	UNK0	0.000	
32	   H	2.306	-0.716	-5.706	 H	1	UNK0	0.000	
33	   H	-1.296	-0.804	-1.396	 H	1	UNK0	0.000	
34	   H	-3.388	-2.567	-0.630	 H	1	UNK0	0.000	
35	   H	-2.385	-2.891	1.817	 H	1	UNK0	0.000	
36	   H	-2.471	-4.138	0.545	 H	1	UNK0	0.000	
37	   H	-0.923	-3.218	0.846	 H	1	UNK0	0.000	
38	   H	-0.157	-1.112	0.563	 H	1	UNK0	0.000	
39	   H	0.025	-0.315	2.145	 H	1	UNK0	0.000	
40	   H	1.068	0.762	0.291	 H	1	UNK0	0.000	
41	   H	-0.499	1.191	-0.435	 H	1	UNK0	0.000	
42	   H	-0.137	4.166	1.492	 H	1	UNK0	0.000	
43	   H	1.231	2.725	-0.715	 H	1	UNK0	0.000	
44	   H	1.205	4.461	-0.409	 H	1	UNK0	0.000	
45	   H	2.708	4.479	1.314	 H	1	UNK0	0.000	
46	   H	3.297	3.104	0.281	 H	1	UNK0	0.000	
47	   H	3.092	0.987	4.820	 H	1	UNK0	0.000	
48	   H	0.707	0.636	4.089	 H	1	UNK0	0.000	
49	   H	-1.091	2.039	3.413	 H	1	UNK0	0.000	
50	   H	-1.887	3.073	2.217	 H	1	UNK0	0.000	
51	   H	-3.279	1.418	1.638	 H	1	UNK0	0.000	
52	   H	-2.698	0.546	3.068	 H	1	UNK0	0.000	
@<TRIPOS>BOND
1 1 2 1
2 2 3 2
3 2 7 1
4 3 4 1
5 4 5 2
6 4 8 1
7 5 6 1
8 6 7 2
9 8 9 2
10 8 10 1
11 10 11 1
12 11 12 1
13 11 13 1
14 13 14 2
15 13 15 1
16 15 16 1
17 15 28 1
18 16 17 1
19 17 18 1
20 18 19 1
21 18 26 1
22 18 27 1
23 19 20 1
24 20 21 1
25 21 22 1
26 22 23 1
27 22 26 2
28 23 24 2
29 24 25 1
30 25 26 1
31 27 28 1
32 3 29 1
33 5 30 1
34 6 31 1
35 7 32 1
36 10 33 1
37 11 34 1
38 12 35 1
39 12 36 1
40 12 37 1
41 16 38 1
42 16 39 1
43 17 40 1
44 17 41 1
45 19 42 1
46 20 43 1
47 20 44 1
48 21 45 1
49 21 46 1
50 24 47 1
51 25 48 1
52 27 49 1
53 27 50 1
54 28 51 1
55 28 52 1
@<TRIPOS>SUBSTRUCTURE
1	UNK0	1	GROUP	1 ****	UNK
