REMARK  3 active torsions:
REMARK  status: ('A' for Active; 'I' for Inactive)
REMARK    1  A    between atoms: C_4  and  C_8 
REMARK       I    between atoms: C_8  and  N_10 
REMARK    2  A    between atoms: N_10  and  C_11 
REMARK    3  A    between atoms: C_11  and  C_12 
REMARK       I    between atoms: C_12  and  N_14 
ROOT
ATOM      1  C   UNK d   1      -0.870  -0.881  -0.587  0.00  0.00     0.237 C 
ATOM      2  O   UNK d   1      -0.944  -1.327  -1.786  0.00  0.00    -0.272 OA
ATOM      3  N   UNK d   1      -0.883   0.494  -0.317  0.00  0.00    -0.351 N 
ATOM      4  C   UNK d   1      -0.798   1.027   1.005  0.00  0.00     0.129 C 
ATOM      5  C   UNK d   1      -0.012   2.306   1.066  0.00  0.00     0.068 C 
ATOM      6  C   UNK d   1       0.944   2.520  -0.087  0.00  0.00     0.204 C 
ATOM      7  N   UNK d   1       1.341   3.915   0.047  0.00  0.00     0.099 N 
ATOM      8  C   UNK d   1       2.402   4.343  -0.782  0.00  0.00     0.277 C 
ATOM      9  C   UNK d   1       3.270   3.305  -1.393  0.00  0.00     0.091 C 
ATOM     10  C   UNK d   1       3.314   2.061  -0.563  0.00  0.00     0.062 A 
ATOM     11  N   UNK d   1       4.296   1.198  -0.306  0.00  0.00    -0.246 NA
ATOM     12  C   UNK d   1       3.761   0.264   0.508  0.00  0.00     0.207 A 
ATOM     13  N   UNK d   1       2.462   0.544   0.752  0.00  0.00    -0.350 N 
ATOM     14  C   UNK d   1       2.158   1.689   0.075  0.00  0.00     0.074 A 
ATOM     15  C   UNK d   1       0.331   2.276  -1.442  0.00  0.00     0.068 C 
ATOM     16  C   UNK d   1      -0.962   1.483  -1.386  0.00  0.00     0.129 C 
ATOM     17  H   UNK d   1       0.448   4.452  -0.150  0.00  0.00     0.317 HD
ATOM     18  H   UNK d   1       1.825  -0.015   1.344  0.00  0.00     0.166 HD
ENDROOT
BRANCH   1  19
ATOM     19  C   UNK d   1      -0.770  -1.949   0.472  0.00  0.00     0.225 C 
BRANCH  19  20
ATOM     20  N   UNK d   1      -0.750  -3.218  -0.085  0.00  0.00    -0.348 N 
ATOM     21  C   UNK d   1      -0.731  -4.429  -0.617  0.00  0.00     0.252 C 
ATOM     22  O   UNK d   1      -1.623  -4.999  -1.339  0.00  0.00    -0.268 OA
ATOM     23  H   UNK d   1      -2.004  -2.987  -0.622  0.00  0.00     0.163 HD
BRANCH  21  24
ATOM     24  C   UNK d   1       0.476  -5.295  -0.371  0.00  0.00     0.033 A 
ATOM     25  C   UNK d   1       0.937  -5.536   0.896  0.00  0.00     0.036 A 
ATOM     26  C   UNK d   1       2.069  -6.308   1.108  0.00  0.00     0.011 A 
ATOM     27 Br   UNK d   1       2.665  -6.620   2.871  0.00  0.00    -0.051 Br
ATOM     28  C   UNK d   1       2.707  -6.817   0.004  0.00  0.00     0.019 A 
ATOM     29  C   UNK d   1       2.238  -6.572  -1.273  0.00  0.00     0.002 A 
ATOM     30  C   UNK d   1       1.095  -5.793  -1.478  0.00  0.00     0.017 A 
ENDBRANCH  21  24
ENDBRANCH  19  20
ENDBRANCH   1  19
TORSDOF 3
