# created with PyMOL 2.3.2
@<TRIPOS>MOLECULE
131
49 52 1                 
SMALL
USER_CHARGES
@<TRIPOS>ATOM
1	  Br	4.844	-6.740	-2.680	Br	1	UNK0	0.000	
2	   C	3.482	-6.257	-1.456	C.2	1	UNK0	0.000	
3	   C	3.251	-4.918	-1.197	C.2	1	UNK0	0.000	
4	   C	2.273	-4.500	-0.314	C.2	1	UNK0	0.000	
5	   C	1.512	-5.473	0.318	C.2	1	UNK0	0.000	
6	   C	1.747	-6.802	0.056	C.2	1	UNK0	0.000	
7	   C	2.717	-7.236	-0.820	C.2	1	UNK0	0.000	
8	   C	2.007	-3.099	-0.021	C.2	1	UNK0	0.000	
9	   O	1.099	-2.799	0.796	O.2	1	UNK0	0.000	
10	   N	2.726	-2.037	-0.615	N.pl3	1	UNK0	0.000	
11	   C	2.442	-0.652	-0.306	C.3	1	UNK0	0.000	
12	   C	1.042	-0.289	-0.651	C.2	1	UNK0	0.000	
13	   O	0.324	-1.194	-1.143	O.2	1	UNK0	0.000	
14	   N	0.498	0.990	-0.456	N.pl3	1	UNK0	0.000	
15	   C	1.260	2.079	0.103	C.3	1	UNK0	0.000	
16	   C	0.608	2.440	1.420	C.3	1	UNK0	0.000	
17	   C	-0.875	2.639	1.216	C.3	1	UNK0	0.000	
18	   N	-1.572	1.640	1.998	N.3	1	UNK0	0.000	
19	   C	-2.987	1.771	2.013	C.3	1	UNK0	0.000	
20	   C	-3.539	3.147	2.092	C.3	1	UNK0	0.000	
21	   C	-2.525	4.211	2.247	C.2	1	UNK0	0.000	
22	   N	-2.588	5.480	2.755	N.pl3	1	UNK0	0.000	
23	   C	-1.360	6.000	2.640	C.2	1	UNK0	0.000	
24	   N	-0.546	5.091	2.079	N.2	1	UNK0	0.000	
25	   C	-1.242	3.956	1.818	C.2	1	UNK0	0.000	
26	   C	-1.314	2.593	-0.212	C.3	1	UNK0	0.000	
27	   C	-0.870	1.258	-0.818	C.3	1	UNK0	0.000	
28	   H	3.854	-4.204	-1.700	 H	1	UNK0	0.000	
29	   H	0.723	-5.231	1.026	 H	1	UNK0	0.000	
30	   H	1.162	-7.578	0.541	 H	1	UNK0	0.000	
31	   H	2.925	-8.256	-1.046	 H	1	UNK0	0.000	
32	   H	3.481	-2.260	-1.293	 H	1	UNK0	0.000	
33	   H	3.094	0.026	-0.894	 H	1	UNK0	0.000	
34	   H	2.664	-0.514	0.770	 H	1	UNK0	0.000	
35	   H	1.223	2.972	-0.571	 H	1	UNK0	0.000	
36	   H	2.332	1.842	0.219	 H	1	UNK0	0.000	
37	   H	1.079	3.335	1.880	 H	1	UNK0	0.000	
38	   H	0.806	1.567	2.100	 H	1	UNK0	0.000	
39	   H	-1.336	0.691	1.605	 H	1	UNK0	0.000	
40	   H	-3.352	1.217	2.928	 H	1	UNK0	0.000	
41	   H	-3.481	1.217	1.169	 H	1	UNK0	0.000	
42	   H	-4.275	3.269	2.942	 H	1	UNK0	0.000	
43	   H	-4.164	3.398	1.187	 H	1	UNK0	0.000	
44	   H	-3.468	5.922	3.152	 H	1	UNK0	0.000	
45	   H	-1.068	6.990	2.949	 H	1	UNK0	0.000	
46	   H	-0.984	3.448	-0.802	 H	1	UNK0	0.000	
47	   H	-2.418	2.576	-0.228	 H	1	UNK0	0.000	
48	   H	-0.944	1.292	-1.925	 H	1	UNK0	0.000	
49	   H	-1.574	0.502	-0.461	 H	1	UNK0	0.000	
@<TRIPOS>BOND
1 1 2 1
2 2 3 2
3 2 7 1
4 3 4 1
5 4 5 2
6 4 8 1
7 5 6 1
8 6 7 2
9 8 9 2
10 8 10 1
11 10 11 1
12 11 12 1
13 12 13 2
14 12 14 1
15 14 15 1
16 14 27 1
17 15 16 1
18 16 17 1
19 17 18 1
20 17 25 1
21 17 26 1
22 18 19 1
23 19 20 1
24 20 21 1
25 21 22 1
26 21 25 2
27 22 23 1
28 23 24 2
29 24 25 1
30 26 27 1
31 3 28 1
32 5 29 1
33 6 30 1
34 7 31 1
35 10 32 1
36 11 33 1
37 11 34 1
38 15 35 1
39 15 36 1
40 16 37 1
41 16 38 1
42 18 39 1
43 19 40 1
44 19 41 1
45 20 42 1
46 20 43 1
47 22 44 1
48 23 45 1
49 26 46 1
50 26 47 1
51 27 48 1
52 27 49 1
@<TRIPOS>SUBSTRUCTURE
1	UNK0	1	GROUP	1 ****	UNK
