REMARK  3 active torsions:
REMARK  status: ('A' for Active; 'I' for Inactive)
REMARK    1  A    between atoms: C_4  and  C_8 
REMARK       I    between atoms: C_8  and  N_10 
REMARK    2  A    between atoms: N_10  and  C_11 
REMARK    3  A    between atoms: C_11  and  C_12 
REMARK       I    between atoms: C_12  and  N_14 
ROOT
ATOM      1  C   UNK d   1       1.042  -0.289  -0.651  0.00  0.00     0.237 C 
ATOM      2  O   UNK d   1       0.324  -1.194  -1.143  0.00  0.00    -0.272 OA
ATOM      3  N   UNK d   1       0.498   0.990  -0.456  0.00  0.00    -0.351 N 
ATOM      4  C   UNK d   1       1.260   2.079   0.103  0.00  0.00     0.129 C 
ATOM      5  C   UNK d   1       0.608   2.440   1.420  0.00  0.00     0.068 C 
ATOM      6  C   UNK d   1      -0.875   2.639   1.216  0.00  0.00     0.206 C 
ATOM      7  N   UNK d   1      -1.572   1.640   1.998  0.00  0.00     0.099 N 
ATOM      8  C   UNK d   1      -2.987   1.771   2.013  0.00  0.00     0.277 C 
ATOM      9  C   UNK d   1      -3.539   3.147   2.092  0.00  0.00     0.089 C 
ATOM     10  C   UNK d   1      -2.525   4.211   2.247  0.00  0.00     0.039 A 
ATOM     11  N   UNK d   1      -2.588   5.480   2.755  0.00  0.00    -0.352 N 
ATOM     12  C   UNK d   1      -1.360   6.000   2.640  0.00  0.00     0.207 A 
ATOM     13  N   UNK d   1      -0.546   5.091   2.079  0.00  0.00    -0.244 NA
ATOM     14  C   UNK d   1      -1.242   3.956   1.818  0.00  0.00     0.097 A 
ATOM     15  C   UNK d   1      -1.314   2.593  -0.212  0.00  0.00     0.068 C 
ATOM     16  C   UNK d   1      -0.870   1.258  -0.818  0.00  0.00     0.129 C 
ATOM     17  H   UNK d   1      -1.336   0.691   1.605  0.00  0.00     0.317 HD
ATOM     18  H   UNK d   1      -3.468   5.922   3.152  0.00  0.00     0.166 HD
ENDROOT
BRANCH   1  19
ATOM     19  C   UNK d   1       2.442  -0.652  -0.306  0.00  0.00     0.225 C 
BRANCH  19  20
ATOM     20  N   UNK d   1       2.726  -2.037  -0.615  0.00  0.00    -0.348 N 
ATOM     21  C   UNK d   1       2.007  -3.099  -0.021  0.00  0.00     0.252 C 
ATOM     22  O   UNK d   1       1.099  -2.799   0.796  0.00  0.00    -0.268 OA
ATOM     23  H   UNK d   1       3.481  -2.260  -1.293  0.00  0.00     0.163 HD
BRANCH  21  24
ATOM     24  C   UNK d   1       2.273  -4.500  -0.314  0.00  0.00     0.033 A 
ATOM     25  C   UNK d   1       3.251  -4.918  -1.197  0.00  0.00     0.036 A 
ATOM     26  C   UNK d   1       3.482  -6.257  -1.456  0.00  0.00     0.011 A 
ATOM     27 Br   UNK d   1       4.844  -6.740  -2.680  0.00  0.00    -0.051 Br
ATOM     28  C   UNK d   1       2.717  -7.236  -0.820  0.00  0.00     0.019 A 
ATOM     29  C   UNK d   1       1.747  -6.802   0.056  0.00  0.00     0.002 A 
ATOM     30  C   UNK d   1       1.512  -5.473   0.318  0.00  0.00     0.017 A 
ENDBRANCH  21  24
ENDBRANCH  19  20
ENDBRANCH   1  19
TORSDOF 3
