# created with PyMOL 2.3.2
@<TRIPOS>MOLECULE
136
48 51 1                 
SMALL
USER_CHARGES
@<TRIPOS>ATOM
1	  Br	-7.447	1.135	3.763	Br	1	UNK0	0.000	
2	   C	-5.731	0.326	4.013	C.2	1	UNK0	0.000	
3	   C	-4.773	0.431	3.043	C.2	1	UNK0	0.000	
4	   C	-3.524	-0.153	3.216	C.2	1	UNK0	0.000	
5	   C	-3.288	-0.829	4.372	C.2	1	UNK0	0.000	
6	   C	-4.266	-0.930	5.349	C.2	1	UNK0	0.000	
7	   C	-5.499	-0.351	5.176	C.2	1	UNK0	0.000	
8	   C	-2.511	-0.043	2.180	C.2	1	UNK0	0.000	
9	   O	-2.864	0.401	1.026	O.2	1	UNK0	0.000	
10	   N	-1.167	-0.405	2.402	N.pl3	1	UNK0	0.000	
11	   C	-0.241	-0.254	1.294	C.3	1	UNK0	0.000	
12	   C	0.412	-1.574	0.932	C.3	1	UNK0	0.000	
13	   N	1.648	-1.160	0.297	N.pl3	1	UNK0	0.000	
14	   C	1.856	0.266	0.446	C.3	1	UNK0	0.000	
15	   C	0.952	0.590	1.643	C.3	1	UNK0	0.000	
16	   C	3.266	0.502	0.752	C.2	1	UNK0	0.000	
17	   O	3.613	1.170	1.737	O.2	1	UNK0	0.000	
18	   N	4.236	-0.059	-0.118	N.pl3	1	UNK0	0.000	
19	   C	3.914	-1.252	-0.868	C.3	1	UNK0	0.000	
20	   C	2.654	-1.888	-0.422	C.2	1	UNK0	0.000	
21	   O	2.446	-3.104	-0.674	O.2	1	UNK0	0.000	
22	   C	3.936	-1.021	-2.364	C.3	1	UNK0	0.000	
23	   C	2.976	0.003	-2.808	C.2	1	UNK0	0.000	
24	   C	1.690	-0.366	-3.159	C.2	1	UNK0	0.000	
25	   C	0.787	0.585	-3.575	C.2	1	UNK0	0.000	
26	   C	1.105	1.927	-3.664	C.2	1	UNK0	0.000	
27	   C	2.386	2.298	-3.315	C.2	1	UNK0	0.000	
28	   C	3.306	1.357	-2.895	C.2	1	UNK0	0.000	
29	   H	-4.934	0.967	2.104	 H	1	UNK0	0.000	
30	   H	-2.317	-1.302	4.536	 H	1	UNK0	0.000	
31	   H	-4.080	-1.465	6.266	 H	1	UNK0	0.000	
32	   H	-6.288	-0.414	5.926	 H	1	UNK0	0.000	
33	   H	-0.877	-0.756	3.325	 H	1	UNK0	0.000	
34	   H	-0.714	0.133	0.394	 H	1	UNK0	0.000	
35	   H	0.652	-2.187	1.828	 H	1	UNK0	0.000	
36	   H	-0.221	-2.170	0.239	 H	1	UNK0	0.000	
37	   H	1.529	0.845	-0.443	 H	1	UNK0	0.000	
38	   H	0.763	1.673	1.589	 H	1	UNK0	0.000	
39	   H	1.480	0.261	2.545	 H	1	UNK0	0.000	
40	   H	5.187	0.356	-0.242	 H	1	UNK0	0.000	
41	   H	4.773	-1.962	-0.672	 H	1	UNK0	0.000	
42	   H	4.969	-0.756	-2.658	 H	1	UNK0	0.000	
43	   H	3.659	-1.974	-2.842	 H	1	UNK0	0.000	
44	   H	1.342	-1.392	-3.124	 H	1	UNK0	0.000	
45	   H	-0.220	0.303	-3.851	 H	1	UNK0	0.000	
46	   H	0.359	2.652	-3.999	 H	1	UNK0	0.000	
47	   H	2.637	3.358	-3.385	 H	1	UNK0	0.000	
48	   H	4.304	1.683	-2.629	 H	1	UNK0	0.000	
@<TRIPOS>BOND
1 1 2 1
2 2 3 2
3 2 7 1
4 3 4 1
5 4 5 2
6 4 8 1
7 5 6 1
8 6 7 2
9 8 9 2
10 8 10 1
11 10 11 1
12 11 12 1
13 11 15 1
14 12 13 1
15 13 14 1
16 13 20 1
17 14 15 1
18 14 16 1
19 16 17 2
20 16 18 1
21 18 19 1
22 19 20 1
23 19 22 1
24 20 21 2
25 22 23 1
26 23 24 2
27 23 28 1
28 24 25 1
29 25 26 2
30 26 27 1
31 27 28 2
32 3 29 1
33 5 30 1
34 6 31 1
35 7 32 1
36 10 33 1
37 11 34 1
38 12 35 1
39 12 36 1
40 14 37 1
41 15 38 1
42 15 39 1
43 18 40 1
44 19 41 1
45 22 42 1
46 22 43 1
47 24 44 1
48 25 45 1
49 26 46 1
50 27 47 1
51 28 48 1
@<TRIPOS>SUBSTRUCTURE
1	UNK0	1	GROUP	1 ****	UNK
