# created with PyMOL 2.3.2
@<TRIPOS>MOLECULE
137
42 45 1                 
SMALL
USER_CHARGES
@<TRIPOS>ATOM
1	  Br	1.394	1.127	-7.340	Br	1	UNK0	0.000	
2	   C	0.927	0.848	-5.519	C.2	1	UNK0	0.000	
3	   C	1.571	-0.068	-4.724	C.2	1	UNK0	0.000	
4	   C	1.219	-0.284	-3.414	C.2	1	UNK0	0.000	
5	   C	0.187	0.439	-2.873	C.2	1	UNK0	0.000	
6	   C	-0.492	1.376	-3.642	C.2	1	UNK0	0.000	
7	   C	-0.116	1.567	-4.942	C.2	1	UNK0	0.000	
8	   C	1.948	-1.304	-2.567	C.2	1	UNK0	0.000	
9	   O	2.636	-2.087	-3.292	O.2	1	UNK0	0.000	
10	   N	1.795	-1.272	-1.203	N.pl3	1	UNK0	0.000	
11	   C	1.652	-1.245	0.117	C.3	1	UNK0	0.000	
12	   C	0.230	-1.717	0.597	C.3	1	UNK0	0.000	
13	   N	0.179	-1.294	1.955	N.pl3	1	UNK0	0.000	
14	   C	1.158	-0.237	2.163	C.3	1	UNK0	0.000	
15	   C	1.584	0.152	0.807	C.3	1	UNK0	0.000	
16	   C	0.596	0.815	3.025	C.2	1	UNK0	0.000	
17	   O	0.836	2.008	2.769	O.2	1	UNK0	0.000	
18	   N	-0.209	0.474	4.135	N.pl3	1	UNK0	0.000	
19	   C	-1.043	-0.706	4.078	C.3	1	UNK0	0.000	
20	   C	-1.093	-1.238	5.496	C.3	1	UNK0	0.000	
21	   C	-0.356	-0.233	6.310	C.3	1	UNK0	0.000	
22	   C	-0.447	1.042	5.458	C.3	1	UNK0	0.000	
23	   C	-0.598	-1.677	3.084	C.2	1	UNK0	0.000	
24	   O	-0.906	-2.913	3.216	O.2	1	UNK0	0.000	
25	   H	2.392	-0.650	-5.123	 H	1	UNK0	0.000	
26	   H	-0.143	0.316	-1.865	 H	1	UNK0	0.000	
27	   H	-1.312	1.939	-3.180	 H	1	UNK0	0.000	
28	   H	-0.635	2.299	-5.564	 H	1	UNK0	0.000	
29	   H	2.644	-2.352	-1.103	 H	1	UNK0	0.000	
30	   H	2.305	-1.828	0.826	 H	1	UNK0	0.000	
31	   H	-0.467	-1.234	-0.084	 H	1	UNK0	0.000	
32	   H	0.198	-2.807	0.449	 H	1	UNK0	0.000	
33	   H	2.048	-0.642	2.708	 H	1	UNK0	0.000	
34	   H	2.581	0.626	0.736	 H	1	UNK0	0.000	
35	   H	0.827	0.715	0.239	 H	1	UNK0	0.000	
36	   H	-2.117	-0.424	3.849	 H	1	UNK0	0.000	
37	   H	-0.590	-2.253	5.533	 H	1	UNK0	0.000	
38	   H	-2.121	-1.327	5.892	 H	1	UNK0	0.000	
39	   H	0.707	-0.563	6.396	 H	1	UNK0	0.000	
40	   H	-0.778	-0.068	7.323	 H	1	UNK0	0.000	
41	   H	-1.436	1.477	5.573	 H	1	UNK0	0.000	
42	   H	0.322	1.722	5.809	 H	1	UNK0	0.000	
@<TRIPOS>BOND
1 1 2 1
2 2 3 2
3 2 7 1
4 3 4 1
5 4 5 2
6 4 8 1
7 5 6 1
8 6 7 2
9 8 9 2
10 8 10 1
11 10 11 1
12 11 12 1
13 11 15 1
14 12 13 1
15 13 14 1
16 13 23 1
17 14 15 1
18 14 16 1
19 16 17 2
20 16 18 1
21 18 19 1
22 18 22 1
23 19 20 1
24 19 23 1
25 20 21 1
26 21 22 1
27 23 24 2
28 3 25 1
29 5 26 1
30 6 27 1
31 7 28 1
32 10 29 1
33 11 30 1
34 12 31 1
35 12 32 1
36 14 33 1
37 15 34 1
38 15 35 1
39 19 36 1
40 20 37 1
41 20 38 1
42 21 39 1
43 21 40 1
44 22 41 1
45 22 42 1
@<TRIPOS>SUBSTRUCTURE
1	UNK0	1	GROUP	1 ****	UNK
