# created with PyMOL 2.3.2
@<TRIPOS>MOLECULE
138
42 45 1                 
SMALL
USER_CHARGES
@<TRIPOS>ATOM
1	  Br	3.777	4.525	-7.043	Br	1	UNK0	0.000	
2	   C	3.610	2.812	-6.236	C.2	1	UNK0	0.000	
3	   C	2.887	2.607	-5.089	C.2	1	UNK0	0.000	
4	   C	2.750	1.382	-4.486	C.2	1	UNK0	0.000	
5	   C	3.383	0.320	-5.086	C.2	1	UNK0	0.000	
6	   C	4.133	0.486	-6.260	C.2	1	UNK0	0.000	
7	   C	4.242	1.743	-6.833	C.2	1	UNK0	0.000	
8	   C	1.980	1.180	-3.271	C.2	1	UNK0	0.000	
9	   O	1.431	2.231	-2.787	O.2	1	UNK0	0.000	
10	   N	1.805	-0.057	-2.613	N.pl3	1	UNK0	0.000	
11	   C	1.031	-0.134	-1.430	C.3	1	UNK0	0.000	
12	   C	1.719	-0.743	-0.254	C.3	1	UNK0	0.000	
13	   N	0.596	-1.138	0.614	N.pl3	1	UNK0	0.000	
14	   C	-0.643	-1.071	-0.147	C.3	1	UNK0	0.000	
15	   C	-0.178	-1.071	-1.571	C.3	1	UNK0	0.000	
16	   C	-1.460	-2.224	0.221	C.2	1	UNK0	0.000	
17	   O	-2.170	-2.797	-0.614	O.2	1	UNK0	0.000	
18	   N	-1.441	-2.703	1.573	N.pl3	1	UNK0	0.000	
19	   C	-0.805	-1.844	2.542	C.3	1	UNK0	0.000	
20	   C	-0.767	-2.497	3.862	C.3	1	UNK0	0.000	
21	   C	-1.799	-3.597	3.710	C.3	1	UNK0	0.000	
22	   C	-1.913	-3.872	2.249	C.3	1	UNK0	0.000	
23	   C	0.557	-1.544	1.979	C.2	1	UNK0	0.000	
24	   O	1.594	-1.646	2.672	O.2	1	UNK0	0.000	
25	   H	2.383	3.446	-4.609	 H	1	UNK0	0.000	
26	   H	3.329	-0.678	-4.680	 H	1	UNK0	0.000	
27	   H	4.630	-0.349	-6.732	 H	1	UNK0	0.000	
28	   H	4.830	1.824	-7.737	 H	1	UNK0	0.000	
29	   H	2.251	-0.905	-3.007	 H	1	UNK0	0.000	
30	   H	0.608	0.839	-1.111	 H	1	UNK0	0.000	
31	   H	2.228	-1.678	-0.624	 H	1	UNK0	0.000	
32	   H	2.432	-0.100	0.259	 H	1	UNK0	0.000	
33	   H	-1.130	-0.096	0.115	 H	1	UNK0	0.000	
34	   H	0.130	-2.080	-1.852	 H	1	UNK0	0.000	
35	   H	-0.915	-0.609	-2.258	 H	1	UNK0	0.000	
36	   H	-1.322	-0.845	2.545	 H	1	UNK0	0.000	
37	   H	-1.163	-1.782	4.626	 H	1	UNK0	0.000	
38	   H	0.211	-2.864	4.197	 H	1	UNK0	0.000	
39	   H	-2.801	-3.230	4.075	 H	1	UNK0	0.000	
40	   H	-1.480	-4.449	4.324	 H	1	UNK0	0.000	
41	   H	-1.307	-4.780	2.026	 H	1	UNK0	0.000	
42	   H	-2.991	-4.100	2.004	 H	1	UNK0	0.000	
@<TRIPOS>BOND
1 1 2 1
2 2 3 2
3 2 7 1
4 3 4 1
5 4 5 2
6 4 8 1
7 5 6 1
8 6 7 2
9 8 9 2
10 8 10 1
11 10 11 1
12 11 12 1
13 11 15 1
14 12 13 1
15 13 14 1
16 13 23 1
17 14 15 1
18 14 16 1
19 16 17 2
20 16 18 1
21 18 19 1
22 18 22 1
23 19 20 1
24 19 23 1
25 20 21 1
26 21 22 1
27 23 24 2
28 3 25 1
29 5 26 1
30 6 27 1
31 7 28 1
32 10 29 1
33 11 30 1
34 12 31 1
35 12 32 1
36 14 33 1
37 15 34 1
38 15 35 1
39 19 36 1
40 20 37 1
41 20 38 1
42 21 39 1
43 21 40 1
44 22 41 1
45 22 42 1
@<TRIPOS>SUBSTRUCTURE
1	UNK0	1	GROUP	1 ****	UNK
