# created with PyMOL 2.3.2
@<TRIPOS>MOLECULE
141
35 38 1                 
SMALL
USER_CHARGES
@<TRIPOS>ATOM
1	  Br	-0.667	-4.515	5.796	Br	1	UNK0	0.000	
2	   C	-0.514	-2.701	5.239	C.2	1	UNK0	0.000	
3	   C	0.137	-2.426	4.062	C.2	1	UNK0	0.000	
4	   C	0.272	-1.116	3.609	C.2	1	UNK0	0.000	
5	   C	-0.258	-0.117	4.365	C.2	1	UNK0	0.000	
6	   C	-0.910	-0.399	5.545	C.2	1	UNK0	0.000	
7	   C	-1.056	-1.682	6.013	C.2	1	UNK0	0.000	
8	   C	0.972	-0.874	2.363	C.2	1	UNK0	0.000	
9	   O	1.748	-1.758	1.960	O.2	1	UNK0	0.000	
10	   N	0.781	0.313	1.635	N.pl3	1	UNK0	0.000	
11	   N	1.410	0.638	0.417	N.pl3	1	UNK0	0.000	
12	   C	1.281	1.953	-0.157	C.2	1	UNK0	0.000	
13	   O	0.635	2.947	0.303	O.2	1	UNK0	0.000	
14	   C	2.031	1.985	-1.398	C.3	1	UNK0	0.000	
15	   C	3.015	0.800	-1.338	C.3	1	UNK0	0.000	
16	   C	3.040	0.221	-2.715	C.3	1	UNK0	0.000	
17	   C	2.464	1.377	-3.557	C.3	1	UNK0	0.000	
18	   C	1.244	1.556	-2.628	C.3	1	UNK0	0.000	
19	   C	0.827	0.129	-2.514	C.2	1	UNK0	0.000	
20	   C	1.842	-0.689	-2.823	C.2	1	UNK0	0.000	
21	   C	2.211	-0.123	-0.444	C.2	1	UNK0	0.000	
22	   O	2.274	-1.372	-0.493	O.2	1	UNK0	0.000	
23	   H	0.551	-3.243	3.475	 H	1	UNK0	0.000	
24	   H	-0.181	0.904	4.065	 H	1	UNK0	0.000	
25	   H	-1.342	0.397	6.165	 H	1	UNK0	0.000	
26	   H	-1.550	-1.957	6.917	 H	1	UNK0	0.000	
27	   H	0.092	1.006	2.069	 H	1	UNK0	0.000	
28	   H	2.531	2.928	-1.625	 H	1	UNK0	0.000	
29	   H	3.973	1.061	-0.902	 H	1	UNK0	0.000	
30	   H	3.957	-0.178	-3.066	 H	1	UNK0	0.000	
31	   H	2.144	1.028	-4.546	 H	1	UNK0	0.000	
32	   H	3.106	2.256	-3.564	 H	1	UNK0	0.000	
33	   H	0.523	2.246	-2.995	 H	1	UNK0	0.000	
34	   H	-0.161	-0.239	-2.221	 H	1	UNK0	0.000	
35	   H	1.902	-1.711	-3.085	 H	1	UNK0	0.000	
@<TRIPOS>BOND
1 1 2 1
2 2 3 2
3 2 7 1
4 3 4 1
5 4 5 2
6 4 8 1
7 5 6 1
8 6 7 2
9 8 9 2
10 8 10 1
11 10 11 1
12 11 12 1
13 11 21 1
14 12 13 2
15 12 14 1
16 14 15 1
17 14 18 1
18 15 16 1
19 15 21 1
20 16 17 1
21 16 20 1
22 17 18 1
23 18 19 1
24 19 20 2
25 21 22 2
26 3 23 1
27 5 24 1
28 6 25 1
29 7 26 1
30 10 27 1
31 14 28 1
32 15 29 1
33 16 30 1
34 17 31 1
35 17 32 1
36 18 33 1
37 19 34 1
38 20 35 1
@<TRIPOS>SUBSTRUCTURE
1	UNK0	1	GROUP	1 ****	UNK
