REMARK  2 active torsions:
REMARK  status: ('A' for Active; 'I' for Inactive)
REMARK    1  A    between atoms: C_4  and  C_8 
REMARK       I    between atoms: C_8  and  N_10 
REMARK    2  A    between atoms: N_10  and  N_11 
ROOT
ATOM      1  N   UNK d   1       1.410   0.638   0.417  0.00  0.00    -0.187 N 
ATOM      2  C   UNK d   1       1.281   1.953  -0.157  0.00  0.00     0.251 C 
ATOM      3  O   UNK d   1       0.635   2.947   0.303  0.00  0.00    -0.271 OA
ATOM      4  C   UNK d   1       2.031   1.985  -1.398  0.00  0.00     0.101 C 
ATOM      5  C   UNK d   1       3.015   0.800  -1.338  0.00  0.00     0.101 C 
ATOM      6  C   UNK d   1       3.040   0.221  -2.715  0.00  0.00     0.022 C 
ATOM      7  C   UNK d   1       2.464   1.377  -3.557  0.00  0.00     0.018 C 
ATOM      8  C   UNK d   1       1.244   1.556  -2.628  0.00  0.00     0.022 C 
ATOM      9  C   UNK d   1       0.827   0.129  -2.514  0.00  0.00    -0.025 C 
ATOM     10  C   UNK d   1       1.842  -0.689  -2.823  0.00  0.00    -0.025 C 
ATOM     11  C   UNK d   1       2.211  -0.123  -0.444  0.00  0.00     0.251 C 
ATOM     12  O   UNK d   1       2.274  -1.372  -0.493  0.00  0.00    -0.271 OA
ENDROOT
BRANCH   1  13
ATOM     13  N   UNK d   1       0.781   0.313   1.635  0.00  0.00    -0.254 N 
ATOM     14  C   UNK d   1       0.972  -0.874   2.363  0.00  0.00     0.270 C 
ATOM     15  O   UNK d   1       1.748  -1.758   1.960  0.00  0.00    -0.266 OA
ATOM     16  H   UNK d   1       0.092   1.006   2.069  0.00  0.00     0.191 HD
BRANCH  14  17
ATOM     17  C   UNK d   1       0.272  -1.116   3.609  0.00  0.00     0.035 A 
ATOM     18  C   UNK d   1       0.137  -2.426   4.062  0.00  0.00     0.036 A 
ATOM     19  C   UNK d   1      -0.514  -2.701   5.239  0.00  0.00     0.011 A 
ATOM     20 Br   UNK d   1      -0.667  -4.515   5.796  0.00  0.00    -0.051 Br
ATOM     21  C   UNK d   1      -1.056  -1.682   6.013  0.00  0.00     0.019 A 
ATOM     22  C   UNK d   1      -0.910  -0.399   5.545  0.00  0.00     0.002 A 
ATOM     23  C   UNK d   1      -0.258  -0.117   4.365  0.00  0.00     0.017 A 
ENDBRANCH  14  17
ENDBRANCH   1  13
TORSDOF 2
