# created with PyMOL 2.3.2
@<TRIPOS>MOLECULE
152
44 47 1                 
SMALL
USER_CHARGES
@<TRIPOS>ATOM
1	  Br	1.452	2.439	-2.374	Br	1	UNK0	0.000	
2	   C	0.329	3.626	-1.388	C.2	1	UNK0	0.000	
3	   C	-0.176	3.178	-0.160	C.2	1	UNK0	0.000	
4	   C	-0.994	3.990	0.640	C.2	1	UNK0	0.000	
5	   C	-1.286	5.236	0.164	C.2	1	UNK0	0.000	
6	   C	-0.790	5.712	-1.069	C.2	1	UNK0	0.000	
7	   C	0.038	4.859	-1.845	C.2	1	UNK0	0.000	
8	   C	-1.176	3.641	2.075	C.2	1	UNK0	0.000	
9	   C	-1.102	2.364	2.467	C.2	1	UNK0	0.000	
10	   O	-0.883	1.309	1.683	O.3	1	UNK0	0.000	
11	   C	-0.841	0.127	2.465	C.2	1	UNK0	0.000	
12	   C	-1.031	0.407	3.776	C.2	1	UNK0	0.000	
13	   C	-0.943	-0.641	4.689	C.2	1	UNK0	0.000	
14	   C	-0.697	-1.909	4.264	C.2	1	UNK0	0.000	
15	   C	-0.539	-2.167	2.917	C.2	1	UNK0	0.000	
16	   C	-0.606	-1.182	1.961	C.2	1	UNK0	0.000	
17	   C	-0.923	-1.321	0.554	C.3	1	UNK0	0.000	
18	   N	-0.352	-1.560	-0.643	N.4	1	UNK0	0.000	
19	   C	0.027	-2.797	-1.170	C.3	1	UNK0	0.000	
20	   C	-1.029	-3.431	-2.102	C.3	1	UNK0	0.000	
21	   O	-1.236	-2.717	-3.258	O.3	1	UNK0	0.000	
22	   C	-1.205	-1.347	-2.974	C.3	1	UNK0	0.000	
23	   C	-1.470	-1.045	-1.594	C.3	1	UNK0	0.000	
24	   O	-0.299	-3.487	2.528	O.2	1	UNK0	0.000	
25	   C	-1.222	1.875	3.847	C.2	1	UNK0	0.000	
26	   O	-1.444	2.550	4.869	O.2	1	UNK0	0.000	
27	   H	0.116	2.228	0.150	 H	1	UNK0	0.000	
28	   H	-1.889	5.920	0.700	 H	1	UNK0	0.000	
29	   H	-0.969	6.675	-1.490	 H	1	UNK0	0.000	
30	   H	0.438	5.206	-2.770	 H	1	UNK0	0.000	
31	   H	-1.398	4.389	2.801	 H	1	UNK0	0.000	
32	   H	-1.082	-0.437	5.718	 H	1	UNK0	0.000	
33	   H	-0.613	-2.745	4.994	 H	1	UNK0	0.000	
34	   H	-1.550	-2.466	0.692	 H	1	UNK0	0.000	
35	   H	-2.013	-0.802	0.424	 H	1	UNK0	0.000	
36	   H	0.449	-0.842	-0.812	 H	1	UNK0	0.000	
37	   H	0.312	-3.564	-0.430	 H	1	UNK0	0.000	
38	   H	0.951	-2.676	-1.877	 H	1	UNK0	0.000	
39	   H	-1.944	-3.638	-1.510	 H	1	UNK0	0.000	
40	   H	-0.560	-4.412	-2.418	 H	1	UNK0	0.000	
41	   H	-0.323	-0.813	-3.339	 H	1	UNK0	0.000	
42	   H	-2.085	-0.895	-3.553	 H	1	UNK0	0.000	
43	   H	-2.387	-1.576	-1.151	 H	1	UNK0	0.000	
44	   H	-1.528	-0.018	-1.361	 H	1	UNK0	0.000	
@<TRIPOS>BOND
1 1 2 1
2 2 3 2
3 2 7 1
4 3 4 1
5 4 5 2
6 4 8 1
7 5 6 1
8 6 7 2
9 8 9 2
10 9 10 1
11 9 25 1
12 10 11 1
13 11 12 2
14 11 16 1
15 12 13 1
16 12 25 1
17 13 14 2
18 14 15 1
19 15 16 2
20 15 24 1
21 16 17 1
22 17 18 1
23 18 19 1
24 18 23 1
25 19 20 1
26 20 21 1
27 21 22 1
28 22 23 1
29 25 26 2
30 3 27 1
31 5 28 1
32 6 29 1
33 7 30 1
34 8 31 1
35 13 32 1
36 14 33 1
37 17 34 1
38 17 35 1
39 18 36 1
40 19 37 1
41 19 38 1
42 20 39 1
43 20 40 1
44 22 41 1
45 22 42 1
46 23 43 1
47 23 44 1
@<TRIPOS>SUBSTRUCTURE
1	UNK0	1	GROUP	1 ****	UNK
