REMARK  3 active torsions:
REMARK  status: ('A' for Active; 'I' for Inactive)
REMARK    1  A    between atoms: C_4  and  C_8 
REMARK    2  A    between atoms: C_16  and  C_17 
REMARK    3  A    between atoms: C_17  and  N_18 
ROOT
ATOM      1  C   UNK d   1      -1.176   3.641   2.075  0.00  0.00     0.053 C 
ATOM      2  C   UNK d   1      -1.102   2.364   2.467  0.00  0.00     0.127 A 
ATOM      3  O   UNK d   1      -0.883   1.309   1.683  0.00  0.00    -0.305 OA
ATOM      4  C   UNK d   1      -0.841   0.127   2.465  0.00  0.00     0.101 A 
ATOM      5  C   UNK d   1      -1.031   0.407   3.776  0.00  0.00     0.051 A 
ATOM      6  C   UNK d   1      -0.943  -0.641   4.689  0.00  0.00     0.021 A 
ATOM      7  C   UNK d   1      -0.697  -1.909   4.264  0.00  0.00     0.041 A 
ATOM      8  C   UNK d   1      -0.539  -2.167   2.917  0.00  0.00     0.118 A 
ATOM      9  C   UNK d   1      -0.606  -1.182   1.961  0.00  0.00     0.039 A 
ATOM     10  O   UNK d   1      -0.299  -3.487   2.528  0.00  0.00    -0.191 OA
ATOM     11  C   UNK d   1      -1.222   1.875   3.847  0.00  0.00     0.218 A 
ATOM     12  O   UNK d   1      -1.444   2.550   4.869  0.00  0.00    -0.284 OA
ENDROOT
BRANCH   1  13
ATOM     13  C   UNK d   1      -0.994   3.990   0.640  0.00  0.00    -0.032 A 
ATOM     14  C   UNK d   1      -0.176   3.178  -0.160  0.00  0.00     0.030 A 
ATOM     15  C   UNK d   1       0.329   3.626  -1.388  0.00  0.00     0.011 A 
ATOM     16 Br   UNK d   1       1.452   2.439  -2.374  0.00  0.00    -0.051 Br
ATOM     17  C   UNK d   1       0.038   4.859  -1.845  0.00  0.00     0.019 A 
ATOM     18  C   UNK d   1      -0.790   5.712  -1.069  0.00  0.00     0.002 A 
ATOM     19  C   UNK d   1      -1.286   5.236   0.164  0.00  0.00     0.011 A 
ENDBRANCH   1  13
BRANCH   9  20
ATOM     20  C   UNK d   1      -0.923  -1.321   0.554  0.00  0.00     0.279 C 
BRANCH  20  21
ATOM     21  N   UNK d   1      -0.352  -1.560  -0.643  0.00  0.00    -0.063 N 
ATOM     22  C   UNK d   1       0.027  -2.797  -1.170  0.00  0.00     0.261 C 
ATOM     23  C   UNK d   1      -1.029  -3.431  -2.102  0.00  0.00     0.195 C 
ATOM     24  O   UNK d   1      -1.236  -2.717  -3.258  0.00  0.00    -0.388 OA
ATOM     25  C   UNK d   1      -1.205  -1.347  -2.974  0.00  0.00     0.195 C 
ATOM     26  C   UNK d   1      -1.470  -1.045  -1.594  0.00  0.00     0.261 C 
ATOM     27  H   UNK d   1       0.449  -0.842  -0.812  0.00  0.00     0.280 HD
ENDBRANCH  20  21
ENDBRANCH   9  20
TORSDOF 3
