# created with PyMOL 2.3.2
@<TRIPOS>MOLECULE
153
52 55 1                 
SMALL
USER_CHARGES
@<TRIPOS>ATOM
1	  Br	-2.553	-0.071	6.679	Br	1	UNK0	0.000	
2	   C	-2.272	-1.781	5.858	C.2	1	UNK0	0.000	
3	   C	-1.438	-1.932	4.751	C.2	1	UNK0	0.000	
4	   C	-1.296	-3.180	4.176	C.2	1	UNK0	0.000	
5	   C	-1.990	-4.237	4.737	C.2	1	UNK0	0.000	
6	   C	-2.793	-4.044	5.823	C.2	1	UNK0	0.000	
7	   C	-2.984	-2.830	6.429	C.2	1	UNK0	0.000	
8	   C	-0.562	-3.461	2.927	C.2	1	UNK0	0.000	
9	   N	0.273	-2.613	2.395	N.2	1	UNK0	0.000	
10	   N	0.965	-2.745	1.285	N.pl3	1	UNK0	0.000	
11	   C	2.097	-2.959	0.553	C.2	1	UNK0	0.000	
12	   O	3.251	-3.207	0.966	O.2	1	UNK0	0.000	
13	   C	1.907	-2.904	-0.956	C.2	1	UNK0	0.000	
14	   N	2.151	-3.769	-1.880	N.2	1	UNK0	0.000	
15	   N	1.634	-3.359	-3.034	N.2	1	UNK0	0.000	
16	   N	1.015	-2.166	-2.833	N.pl3	1	UNK0	0.000	
17	   C	1.174	-1.829	-1.596	C.2	1	UNK0	0.000	
18	   C	0.826	-0.676	-0.772	C.3	1	UNK0	0.000	
19	   N	1.233	0.623	-1.059	N.3	1	UNK0	0.000	
20	   C	1.034	1.502	-2.054	C.3	1	UNK0	0.000	
21	   C	0.113	2.637	-1.529	C.3	1	UNK0	0.000	
22	   N	-0.647	2.101	-0.457	N.3	1	UNK0	0.000	
23	   C	0.175	1.873	0.693	C.3	1	UNK0	0.000	
24	   C	1.537	1.370	0.198	C.3	1	UNK0	0.000	
25	   C	-1.945	2.574	-0.220	C.3	1	UNK0	0.000	
26	   C	0.004	-1.782	-3.807	C.2	1	UNK0	0.000	
27	   N	-1.158	-2.638	-3.797	N.2	1	UNK0	0.000	
28	   O	-1.991	-2.273	-4.651	O.3	1	UNK0	0.000	
29	   N	-1.530	-1.235	-5.279	N.2	1	UNK0	0.000	
30	   C	-0.280	-0.938	-4.737	C.2	1	UNK0	0.000	
31	   N	0.446	0.161	-5.239	N.pl3	1	UNK0	0.000	
32	   H	-0.927	-1.088	4.351	 H	1	UNK0	0.000	
33	   H	-1.856	-5.209	4.274	 H	1	UNK0	0.000	
34	   H	-3.338	-4.901	6.280	 H	1	UNK0	0.000	
35	   H	-3.633	-2.724	7.274	 H	1	UNK0	0.000	
36	   H	-0.757	-4.336	2.346	 H	1	UNK0	0.000	
37	   H	0.091	-2.699	0.430	 H	1	UNK0	0.000	
38	   H	-0.404	-0.671	-0.919	 H	1	UNK0	0.000	
39	   H	0.838	-0.847	0.308	 H	1	UNK0	0.000	
40	   H	0.720	1.199	-3.033	 H	1	UNK0	0.000	
41	   H	2.044	2.049	-2.254	 H	1	UNK0	0.000	
42	   H	0.722	3.457	-1.195	 H	1	UNK0	0.000	
43	   H	-0.550	2.895	-2.360	 H	1	UNK0	0.000	
44	   H	-0.232	1.099	1.414	 H	1	UNK0	0.000	
45	   H	0.289	2.800	1.265	 H	1	UNK0	0.000	
46	   H	2.073	0.764	0.882	 H	1	UNK0	0.000	
47	   H	2.134	2.213	-0.095	 H	1	UNK0	0.000	
48	   H	-2.168	3.371	-0.988	 H	1	UNK0	0.000	
49	   H	-2.671	1.722	-0.413	 H	1	UNK0	0.000	
50	   H	-2.095	2.986	0.778	 H	1	UNK0	0.000	
51	   H	-0.113	1.084	-5.193	 H	1	UNK0	0.000	
52	   H	1.367	0.242	-5.624	 H	1	UNK0	0.000	
@<TRIPOS>BOND
1 1 2 1
2 2 3 2
3 2 7 1
4 3 4 1
5 4 5 2
6 4 8 1
7 5 6 1
8 6 7 2
9 8 9 2
10 9 10 1
11 10 11 1
12 11 12 2
13 11 13 1
14 13 14 1
15 13 17 2
16 14 15 2
17 15 16 1
18 16 17 1
19 16 26 1
20 17 18 1
21 18 19 1
22 19 20 1
23 19 24 1
24 20 21 1
25 21 22 1
26 22 23 1
27 22 25 1
28 23 24 1
29 26 27 2
30 26 30 1
31 27 28 1
32 28 29 1
33 29 30 2
34 30 31 1
35 3 32 1
36 5 33 1
37 6 34 1
38 7 35 1
39 8 36 1
40 10 37 1
41 18 38 1
42 18 39 1
43 20 40 1
44 20 41 1
45 21 42 1
46 21 43 1
47 23 44 1
48 23 45 1
49 24 46 1
50 24 47 1
51 25 48 1
52 25 49 1
53 25 50 1
54 31 51 1
55 31 52 1
@<TRIPOS>SUBSTRUCTURE
1	UNK0	1	GROUP	1 ****	UNK
