REMARK  7 active torsions:
REMARK  status: ('A' for Active; 'I' for Inactive)
REMARK    1  A    between atoms: C_4  and  C_8 
REMARK    2  A    between atoms: N_9  and  N_10 
REMARK       I    between atoms: N_10  and  C_11 
REMARK    3  A    between atoms: C_11  and  C_13 
REMARK    4  A    between atoms: N_16  and  C_26 
REMARK    5  A    between atoms: C_17  and  C_18 
REMARK    6  A    between atoms: C_18  and  N_19 
REMARK    7  A    between atoms: C_30  and  N_31 
ROOT
ATOM      1  C   UNK d   1       1.907  -2.904  -0.956  0.00  0.00     0.169 A 
ATOM      2  N   UNK d   1       2.151  -3.769  -1.880  0.00  0.00    -0.152 NA
ATOM      3  N   UNK d   1       1.634  -3.359  -3.034  0.00  0.00     0.012 NA
ATOM      4  N   UNK d   1       1.015  -2.166  -2.833  0.00  0.00    -0.215 N 
ATOM      5  C   UNK d   1       1.174  -1.829  -1.596  0.00  0.00     0.087 A 
ENDROOT
BRANCH   1   6
ATOM      6  C   UNK d   1       2.097  -2.959   0.553  0.00  0.00     0.293 C 
ATOM      7  N   UNK d   1       0.965  -2.745   1.285  0.00  0.00    -0.242 N 
ATOM      8  H   UNK d   1       0.091  -2.699   0.430  0.00  0.00     0.192 HD
ATOM      9  O   UNK d   1       3.251  -3.207   0.966  0.00  0.00    -0.264 OA
BRANCH   7  10
ATOM     10  N   UNK d   1       0.273  -2.613   2.395  0.00  0.00    -0.183 NA
ATOM     11  C   UNK d   1      -0.562  -3.461   2.927  0.00  0.00     0.150 C 
BRANCH  11  12
ATOM     12  C   UNK d   1      -1.296  -3.180   4.176  0.00  0.00    -0.016 A 
ATOM     13  C   UNK d   1      -1.438  -1.932   4.751  0.00  0.00     0.032 A 
ATOM     14  C   UNK d   1      -2.272  -1.781   5.858  0.00  0.00     0.011 A 
ATOM     15 Br   UNK d   1      -2.553  -0.071   6.679  0.00  0.00    -0.051 Br
ATOM     16  C   UNK d   1      -2.984  -2.830   6.429  0.00  0.00     0.019 A 
ATOM     17  C   UNK d   1      -2.793  -4.044   5.823  0.00  0.00     0.002 A 
ATOM     18  C   UNK d   1      -1.990  -4.237   4.737  0.00  0.00     0.013 A 
ENDBRANCH  11  12
ENDBRANCH   7  10
ENDBRANCH   1   6
BRANCH   5  19
ATOM     19  C   UNK d   1       0.826  -0.676  -0.772  0.00  0.00     0.178 C 
BRANCH  19  20
ATOM     20  N   UNK d   1       1.233   0.623  -1.059  0.00  0.00    -0.404 N 
ATOM     21  C   UNK d   1       1.034   1.502  -2.054  0.00  0.00     0.136 C 
ATOM     22  C   UNK d   1       0.113   2.637  -1.529  0.00  0.00     0.135 C 
ATOM     23  N   UNK d   1      -0.647   2.101  -0.457  0.00  0.00    -0.414 N 
ATOM     24  C   UNK d   1       0.175   1.873   0.693  0.00  0.00     0.135 C 
ATOM     25  C   UNK d   1      -1.945   2.574  -0.220  0.00  0.00     0.143 C 
ATOM     26  C   UNK d   1       1.537   1.370   0.198  0.00  0.00     0.136 C 
ENDBRANCH  19  20
ENDBRANCH   5  19
BRANCH   4  27
ATOM     27  C   UNK d   1       0.004  -1.782  -3.807  0.00  0.00     0.225 A 
ATOM     28  N   UNK d   1      -1.158  -2.638  -3.797  0.00  0.00    -0.081 NA
ATOM     29  O   UNK d   1      -1.991  -2.273  -4.651  0.00  0.00    -0.103 OA
ATOM     30  N   UNK d   1      -1.530  -1.235  -5.279  0.00  0.00    -0.083 NA
ATOM     31  C   UNK d   1      -0.280  -0.938  -4.737  0.00  0.00     0.201 A 
BRANCH  31  32
ATOM     32  N   UNK d   1       0.446   0.161  -5.239  0.00  0.00    -0.379 N 
ATOM     33  H   UNK d   1      -0.113   1.084  -5.193  0.00  0.00     0.158 HD
ATOM     34  H   UNK d   1       1.367   0.242  -5.624  0.00  0.00     0.158 HD
ENDBRANCH  31  32
ENDBRANCH   4  27
TORSDOF 7
