REMARK  5 active torsions:
REMARK  status: ('A' for Active; 'I' for Inactive)
REMARK    1  A    between atoms: C_4  and  C_8 
REMARK    2  A    between atoms: N_9  and  N_10 
REMARK    3  A    between atoms: N_10  and  C_11 
REMARK    4  A    between atoms: C_13  and  N_23 
REMARK    5  A    between atoms: C_15  and  N_17 
ROOT
ATOM      1  C   UNK d   1       0.590   1.392  -0.018  0.00  0.00     0.774 A 
ATOM      2  N   UNK d   1       0.280   1.914  -1.209  0.00  0.00     0.133 NA
ATOM      3  C   UNK d   1      -0.477   1.259  -2.133  0.00  0.00     0.756 A 
ATOM      4  N   UNK d   1      -0.904   0.030  -1.771  0.00  0.00     0.131 NA
ATOM      5  C   UNK d   1      -0.626  -0.548  -0.590  0.00  0.00     0.756 A 
ATOM      6  N   UNK d   1       0.133   0.175   0.270  0.00  0.00     0.133 NA
ENDROOT
BRANCH   1   7
ATOM      7  N   UNK d   1       1.385   2.132   0.901  0.00  0.00    -0.105 N 
ATOM      8  H   UNK d   1       1.731   3.082   0.653  0.00  0.00     0.208 HD
BRANCH   7   9
ATOM      9  N   UNK d   1       1.726   1.613   2.153  0.00  0.00    -0.172 NA
ATOM     10  C   UNK d   1       0.939   0.951   2.906  0.00  0.00     0.150 C 
BRANCH  10  11
ATOM     11  C   UNK d   1       1.322   0.423   4.209  0.00  0.00    -0.016 A 
ATOM     12  C   UNK d   1       2.591   0.604   4.731  0.00  0.00     0.032 A 
ATOM     13  C   UNK d   1       2.982   0.118   5.955  0.00  0.00     0.011 A 
ATOM     14 Br   UNK d   1       4.755   0.405   6.620  0.00  0.00    -0.051 Br
ATOM     15  C   UNK d   1       2.069  -0.589   6.710  0.00  0.00     0.019 A 
ATOM     16  C   UNK d   1       0.792  -0.797   6.233  0.00  0.00     0.002 A 
ATOM     17  C   UNK d   1       0.434  -0.288   4.987  0.00  0.00     0.013 A 
ENDBRANCH  10  11
ENDBRANCH   7   9
ENDBRANCH   1   7
BRANCH   3  18
ATOM     18  N   UNK d   1      -0.791   1.831  -3.385  0.00  0.00    -0.209 N 
ATOM     19  C   UNK d   1      -0.318   3.142  -3.733  0.00  0.00     0.167 C 
ATOM     20  C   UNK d   1       0.412   3.010  -5.065  0.00  0.00     0.188 C 
ATOM     21  O   UNK d   1      -0.525   2.531  -5.977  0.00  0.00    -0.388 OA
ATOM     22  C   UNK d   1      -0.907   1.230  -5.704  0.00  0.00     0.188 C 
ATOM     23  C   UNK d   1      -1.591   1.121  -4.345  0.00  0.00     0.167 C 
ENDBRANCH   3  18
BRANCH   5  24
ATOM     24  N   UNK d   1      -1.083  -1.829  -0.238  0.00  0.00    -0.209 N 
ATOM     25  C   UNK d   1      -1.890  -2.623  -1.125  0.00  0.00     0.167 C 
ATOM     26  C   UNK d   1      -1.417  -4.071  -0.938  0.00  0.00     0.188 C 
ATOM     27  O   UNK d   1      -0.090  -4.095  -0.516  0.00  0.00    -0.388 OA
ATOM     28  C   UNK d   1       0.102  -3.632   0.761  0.00  0.00     0.188 C 
ATOM     29  C   UNK d   1      -0.748  -2.385   1.042  0.00  0.00     0.167 C 
ENDBRANCH   5  24
TORSDOF 5
