# created with PyMOL 2.3.2
@<TRIPOS>MOLECULE
167
61 64 1                 
SMALL
USER_CHARGES
@<TRIPOS>ATOM
1	  Br	2.367	1.346	-5.455	Br	1	UNK0	0.000	
2	   C	1.096	1.021	-4.068	C.2	1	UNK0	0.000	
3	   C	1.338	1.250	-2.748	C.2	1	UNK0	0.000	
4	   C	0.445	1.027	-1.714	C.2	1	UNK0	0.000	
5	   C	-0.809	0.526	-2.053	C.2	1	UNK0	0.000	
6	   C	-1.089	0.283	-3.384	C.2	1	UNK0	0.000	
7	   C	-0.173	0.516	-4.395	C.2	1	UNK0	0.000	
8	   C	0.882	1.310	-0.343	C.3	1	UNK0	0.000	
9	   N	0.020	2.242	0.282	N.pl3	1	UNK0	0.000	
10	   C	-0.664	1.616	1.355	C.2	1	UNK0	0.000	
11	   O	-1.576	2.159	2.053	O.2	1	UNK0	0.000	
12	   C	-0.142	0.276	1.514	C.2	1	UNK0	0.000	
13	   O	-0.581	-0.505	2.401	O.2	1	UNK0	0.000	
14	   C	0.884	0.090	0.506	C.2	1	UNK0	0.000	
15	   C	1.613	-0.995	0.375	C.2	1	UNK0	0.000	
16	   O	2.510	-1.078	-0.665	O.2	1	UNK0	0.000	
17	   C	1.495	-2.092	1.303	C.2	1	UNK0	0.000	
18	   C	1.267	-3.425	0.918	C.2	1	UNK0	0.000	
19	   N	1.247	-4.199	2.010	N.pl3	1	UNK0	0.000	
20	   N	1.451	-3.409	3.048	N.2	1	UNK0	0.000	
21	   C	1.607	-2.133	2.665	C.2	1	UNK0	0.000	
22	   C	1.059	-5.606	2.064	C.2	1	UNK0	0.000	
23	   C	2.177	-6.429	2.089	C.2	1	UNK0	0.000	
24	   C	2.069	-7.804	2.152	C.2	1	UNK0	0.000	
25	   C	0.820	-8.425	2.194	C.2	1	UNK0	0.000	
26	   C	-0.294	-7.605	2.169	C.2	1	UNK0	0.000	
27	   C	-0.160	-6.242	2.106	C.2	1	UNK0	0.000	
28	   C	1.085	-3.861	-0.497	C.3	1	UNK0	0.000	
29	   C	-0.157	3.677	-0.078	C.3	1	UNK0	0.000	
30	   C	-1.305	3.818	-1.044	C.3	1	UNK0	0.000	
31	   C	-1.582	5.234	-1.439	C.3	1	UNK0	0.000	
32	   N	-1.908	6.132	-0.381	N.4	1	UNK0	0.000	
33	   C	-2.448	5.549	0.803	C.3	1	UNK0	0.000	
34	   C	-0.720	6.909	0.008	C.3	1	UNK0	0.000	
35	   H	2.346	1.645	-2.514	 H	1	UNK0	0.000	
36	   H	-1.528	0.337	-1.277	 H	1	UNK0	0.000	
37	   H	-2.076	-0.110	-3.645	 H	1	UNK0	0.000	
38	   H	-0.390	0.324	-5.440	 H	1	UNK0	0.000	
39	   H	1.910	1.754	-0.381	 H	1	UNK0	0.000	
40	   H	1.804	-1.279	3.316	 H	1	UNK0	0.000	
41	   H	3.153	-5.915	2.056	 H	1	UNK0	0.000	
42	   H	2.961	-8.418	2.174	 H	1	UNK0	0.000	
43	   H	0.763	-9.515	2.241	 H	1	UNK0	0.000	
44	   H	-1.264	-8.105	2.201	 H	1	UNK0	0.000	
45	   H	-1.057	-5.640	2.092	 H	1	UNK0	0.000	
46	   H	1.768	-3.292	-1.173	 H	1	UNK0	0.000	
47	   H	0.028	-3.802	-0.815	 H	1	UNK0	0.000	
48	   H	1.392	-4.930	-0.603	 H	1	UNK0	0.000	
49	   H	-0.262	4.286	0.838	 H	1	UNK0	0.000	
50	   H	0.766	3.983	-0.650	 H	1	UNK0	0.000	
51	   H	-0.927	3.324	-1.991	 H	1	UNK0	0.000	
52	   H	-2.179	3.227	-0.765	 H	1	UNK0	0.000	
53	   H	-2.435	5.283	-2.187	 H	1	UNK0	0.000	
54	   H	-0.697	5.645	-2.009	 H	1	UNK0	0.000	
55	   H	-2.593	6.866	-0.736	 H	1	UNK0	0.000	
56	   H	-1.863	5.832	1.720	 H	1	UNK0	0.000	
57	   H	-2.646	4.460	0.770	 H	1	UNK0	0.000	
58	   H	-3.463	6.010	0.986	 H	1	UNK0	0.000	
59	   H	-0.885	7.992	-0.116	 H	1	UNK0	0.000	
60	   H	0.109	6.590	-0.663	 H	1	UNK0	0.000	
61	   H	-0.408	6.638	1.042	 H	1	UNK0	0.000	
@<TRIPOS>BOND
1 1 2 1
2 2 3 2
3 2 7 1
4 3 4 1
5 4 5 2
6 4 8 1
7 5 6 1
8 6 7 2
9 8 9 1
10 8 14 1
11 9 10 1
12 9 29 1
13 10 11 2
14 10 12 1
15 12 13 2
16 12 14 1
17 14 15 2
18 15 16 1
19 15 17 1
20 17 18 2
21 17 21 1
22 18 19 1
23 18 28 1
24 19 20 1
25 19 22 1
26 20 21 2
27 22 23 2
28 22 27 1
29 23 24 1
30 24 25 2
31 25 26 1
32 26 27 2
33 29 30 1
34 30 31 1
35 31 32 1
36 32 33 1
37 32 34 1
38 3 35 1
39 5 36 1
40 6 37 1
41 7 38 1
42 8 39 1
43 21 40 1
44 23 41 1
45 24 42 1
46 25 43 1
47 26 44 1
48 27 45 1
49 28 46 1
50 28 47 1
51 28 48 1
52 29 49 1
53 29 50 1
54 30 51 1
55 30 52 1
56 31 53 1
57 31 54 1
58 32 55 1
59 33 56 1
60 33 57 1
61 33 58 1
62 34 59 1
63 34 60 1
64 34 61 1
@<TRIPOS>SUBSTRUCTURE
1	UNK0	1	GROUP	1 ****	UNK
