REMARK  7 active torsions:
REMARK  status: ('A' for Active; 'I' for Inactive)
REMARK    1  A    between atoms: C_4  and  C_8 
REMARK    2  A    between atoms: N_9  and  C_29 
REMARK    3  A    between atoms: C_15  and  C_17 
REMARK    4  A    between atoms: N_19  and  C_22 
REMARK    5  A    between atoms: C_29  and  C_30 
REMARK    6  A    between atoms: C_30  and  C_31 
REMARK    7  A    between atoms: C_31  and  N_32 
ROOT
ATOM      1  C   UNK d   1       0.882   1.310  -0.343  0.00  0.00     0.161 C 
ATOM      2  N   UNK d   1       0.020   2.242   0.282  0.00  0.00    -0.332 N 
ATOM      3  C   UNK d   1      -0.664   1.616   1.355  0.00  0.00     0.295 C 
ATOM      4  O   UNK d   1      -1.576   2.159   2.053  0.00  0.00    -0.264 OA
ATOM      5  C   UNK d   1      -0.142   0.276   1.514  0.00  0.00     0.250 C 
ATOM      6  O   UNK d   1      -0.581  -0.505   2.401  0.00  0.00    -0.282 OA
ATOM      7  C   UNK d   1       0.884   0.090   0.506  0.00  0.00     0.062 C 
ATOM      8  C   UNK d   1       1.613  -0.995   0.375  0.00  0.00     0.133 C 
ATOM      9  O   UNK d   1       2.510  -1.078  -0.665  0.00  0.00    -0.190 OA
ENDROOT
BRANCH   1  10
ATOM     10  C   UNK d   1       0.445   1.027  -1.714  0.00  0.00    -0.029 A 
ATOM     11  C   UNK d   1       1.338   1.250  -2.748  0.00  0.00     0.028 A 
ATOM     12  C   UNK d   1       1.096   1.021  -4.068  0.00  0.00     0.011 A 
ATOM     13 Br   UNK d   1       2.367   1.346  -5.455  0.00  0.00    -0.051 Br
ATOM     14  C   UNK d   1      -0.173   0.516  -4.395  0.00  0.00     0.019 A 
ATOM     15  C   UNK d   1      -1.089   0.283  -3.384  0.00  0.00     0.002 A 
ATOM     16  C   UNK d   1      -0.809   0.526  -2.053  0.00  0.00     0.009 A 
ENDBRANCH   1  10
BRANCH   8  17
ATOM     17  C   UNK d   1       1.495  -2.092   1.303  0.00  0.00     0.045 A 
ATOM     18  C   UNK d   1       1.267  -3.425   0.918  0.00  0.00     0.047 A 
ATOM     19  N   UNK d   1       1.247  -4.199   2.010  0.00  0.00    -0.238 N 
ATOM     20  C   UNK d   1       1.085  -3.861  -0.497  0.00  0.00     0.071 C 
ATOM     21  N   UNK d   1       1.451  -3.409   3.048  0.00  0.00    -0.179 NA
ATOM     22  C   UNK d   1       1.607  -2.133   2.665  0.00  0.00     0.155 A 
BRANCH  19  23
ATOM     23  C   UNK d   1       1.059  -5.606   2.064  0.00  0.00     0.058 A 
ATOM     24  C   UNK d   1       2.177  -6.429   2.089  0.00  0.00     0.031 A 
ATOM     25  C   UNK d   1       2.069  -7.804   2.152  0.00  0.00     0.002 A 
ATOM     26  C   UNK d   1       0.820  -8.425   2.194  0.00  0.00     0.000 A 
ATOM     27  C   UNK d   1      -0.294  -7.605   2.169  0.00  0.00     0.002 A 
ATOM     28  C   UNK d   1      -0.160  -6.242   2.106  0.00  0.00     0.031 A 
ENDBRANCH  19  23
ENDBRANCH   8  17
BRANCH   2  29
ATOM     29  C   UNK d   1      -0.157   3.677  -0.078  0.00  0.00     0.129 C 
BRANCH  29  30
ATOM     30  C   UNK d   1      -1.305   3.818  -1.044  0.00  0.00     0.048 C 
BRANCH  30  31
ATOM     31  C   UNK d   1      -1.582   5.234  -1.439  0.00  0.00     0.235 C 
BRANCH  31  32
ATOM     32  N   UNK d   1      -1.908   6.132  -0.381  0.00  0.00    -0.079 N 
ATOM     33  C   UNK d   1      -2.448   5.549   0.803  0.00  0.00     0.269 C 
ATOM     34  C   UNK d   1      -0.720   6.909   0.008  0.00  0.00     0.269 C 
ATOM     35  H   UNK d   1      -2.593   6.866  -0.736  0.00  0.00     0.278 HD
ENDBRANCH  31  32
ENDBRANCH  30  31
ENDBRANCH  29  30
ENDBRANCH   2  29
TORSDOF 7
