REMARK  7 active torsions:
REMARK  status: ('A' for Active; 'I' for Inactive)
REMARK    1  A    between atoms: C_4  and  C_8 
REMARK    2  A    between atoms: N_9  and  C_28 
REMARK    3  A    between atoms: C_15  and  C_17 
REMARK    4  A    between atoms: C_20  and  C_23 
REMARK    5  A    between atoms: C_23  and  O_25 
REMARK    6  A    between atoms: C_28  and  C_29 
REMARK    7  A    between atoms: C_29  and  N_30 
ROOT
ATOM      1  C   UNK d   1       1.803   0.761  -1.621  0.00  0.00     0.161 C 
ATOM      2  N   UNK d   1       1.243  -0.403  -2.280  0.00  0.00    -0.331 N 
ATOM      3  C   UNK d   1      -0.047  -0.020  -2.734  0.00  0.00     0.295 C 
ATOM      4  O   UNK d   1      -0.694  -0.508  -3.687  0.00  0.00    -0.264 OA
ATOM      5  C   UNK d   1      -0.497   1.086  -1.860  0.00  0.00     0.250 C 
ATOM      6  O   UNK d   1      -1.582   1.705  -1.917  0.00  0.00    -0.282 OA
ATOM      7  C   UNK d   1       0.589   1.300  -0.913  0.00  0.00     0.062 C 
ATOM      8  C   UNK d   1       0.472   1.802   0.278  0.00  0.00     0.132 C 
ATOM      9  O   UNK d   1       1.628   1.876   1.083  0.00  0.00    -0.190 OA
ENDROOT
BRANCH   1  10
ATOM     10  C   UNK d   1       2.257   1.714  -2.662  0.00  0.00    -0.029 A 
ATOM     11  C   UNK d   1       2.088   3.085  -2.519  0.00  0.00     0.028 A 
ATOM     12  C   UNK d   1       2.500   3.976  -3.487  0.00  0.00     0.011 A 
ATOM     13 Br   UNK d   1       2.237   5.847  -3.226  0.00  0.00    -0.051 Br
ATOM     14  C   UNK d   1       3.102   3.543  -4.648  0.00  0.00     0.019 A 
ATOM     15  C   UNK d   1       3.280   2.187  -4.813  0.00  0.00     0.002 A 
ATOM     16  C   UNK d   1       2.865   1.304  -3.839  0.00  0.00     0.009 A 
ENDBRANCH   1  10
BRANCH   8  17
ATOM     17  C   UNK d   1      -0.758   2.308   0.870  0.00  0.00     0.032 A 
ATOM     18  C   UNK d   1      -1.565   3.359   0.591  0.00  0.00     0.019 A 
ATOM     19  N   UNK d   1      -2.613   3.323   1.440  0.00  0.00    -0.354 N 
ATOM     20  C   UNK d   1      -1.355   4.436  -0.434  0.00  0.00     0.069 C 
ATOM     21  C   UNK d   1      -2.525   2.281   2.276  0.00  0.00     0.115 A 
ATOM     22  H   UNK d   1      -3.400   4.035   1.439  0.00  0.00     0.166 HD
ATOM     23  C   UNK d   1      -1.370   1.626   1.941  0.00  0.00    -0.014 A 
ATOM     24  C   UNK d   1      -0.852   0.393   2.607  0.00  0.00     0.052 C 
BRANCH  21  25
ATOM     25  C   UNK d   1      -3.478   1.912   3.342  0.00  0.00     0.310 C 
ATOM     26  O   UNK d   1      -3.252   0.909   4.035  0.00  0.00    -0.258 OA
BRANCH  25  27
ATOM     27  O   UNK d   1      -4.610   2.671   3.570  0.00  0.00    -0.321 OA
ATOM     28  C   UNK d   1      -5.561   2.379   4.568  0.00  0.00     0.213 C 
ENDBRANCH  25  27
ENDBRANCH  21  25
ENDBRANCH   8  17
BRANCH   2  29
ATOM     29  C   UNK d   1       1.869  -1.717  -2.448  0.00  0.00     0.155 C 
BRANCH  29  30
ATOM     30  C   UNK d   1       1.553  -2.625  -1.280  0.00  0.00     0.255 C 
BRANCH  30  31
ATOM     31  N   UNK d   1       0.160  -2.873  -1.099  0.00  0.00    -0.066 N 
ATOM     32  C   UNK d   1      -0.408  -2.219   0.074  0.00  0.00     0.261 C 
ATOM     33  C   UNK d   1      -1.901  -2.178  -0.109  0.00  0.00     0.195 C 
ATOM     34  O   UNK d   1      -2.281  -3.171  -0.977  0.00  0.00    -0.388 OA
ATOM     35  C   UNK d   1      -1.653  -4.386  -0.766  0.00  0.00     0.195 C 
ATOM     36  C   UNK d   1      -0.137  -4.290  -0.930  0.00  0.00     0.261 C 
ATOM     37  H   UNK d   1      -0.354  -2.582  -1.950  0.00  0.00     0.280 HD
ENDBRANCH  30  31
ENDBRANCH  29  30
ENDBRANCH   2  29
TORSDOF 7
