# created with PyMOL 2.3.2
@<TRIPOS>MOLECULE
169
63 66 1                 
SMALL
USER_CHARGES
@<TRIPOS>ATOM
1	  Br	2.237	5.847	-3.226	Br	1	UNK0	0.000	
2	   C	2.500	3.976	-3.487	C.2	1	UNK0	0.000	
3	   C	2.088	3.085	-2.519	C.2	1	UNK0	0.000	
4	   C	2.257	1.714	-2.662	C.2	1	UNK0	0.000	
5	   C	2.865	1.304	-3.839	C.2	1	UNK0	0.000	
6	   C	3.280	2.187	-4.813	C.2	1	UNK0	0.000	
7	   C	3.102	3.543	-4.648	C.2	1	UNK0	0.000	
8	   C	1.803	0.761	-1.621	C.3	1	UNK0	0.000	
9	   N	1.243	-0.403	-2.280	N.pl3	1	UNK0	0.000	
10	   C	-0.047	-0.020	-2.734	C.2	1	UNK0	0.000	
11	   O	-0.694	-0.508	-3.687	O.2	1	UNK0	0.000	
12	   C	-0.497	1.086	-1.860	C.2	1	UNK0	0.000	
13	   O	-1.582	1.705	-1.917	O.2	1	UNK0	0.000	
14	   C	0.589	1.300	-0.913	C.2	1	UNK0	0.000	
15	   C	0.472	1.802	0.278	C.2	1	UNK0	0.000	
16	   O	1.628	1.876	1.083	O.2	1	UNK0	0.000	
17	   C	-0.758	2.308	0.870	C.2	1	UNK0	0.000	
18	   C	-1.565	3.359	0.591	C.2	1	UNK0	0.000	
19	   N	-2.613	3.323	1.440	N.pl3	1	UNK0	0.000	
20	   C	-2.525	2.281	2.276	C.2	1	UNK0	0.000	
21	   C	-1.370	1.626	1.941	C.2	1	UNK0	0.000	
22	   C	-0.852	0.393	2.607	C.3	1	UNK0	0.000	
23	   C	-3.478	1.912	3.342	C.2	1	UNK0	0.000	
24	   O	-3.252	0.909	4.035	O.co2	1	UNK0	0.000	
25	   O	-4.610	2.671	3.570	O.3	1	UNK0	0.000	
26	   C	-5.561	2.379	4.568	C.3	1	UNK0	0.000	
27	   C	-1.355	4.436	-0.434	C.3	1	UNK0	0.000	
28	   C	1.869	-1.717	-2.448	C.3	1	UNK0	0.000	
29	   C	1.553	-2.625	-1.280	C.3	1	UNK0	0.000	
30	   N	0.160	-2.873	-1.099	N.4	1	UNK0	0.000	
31	   C	-0.408	-2.219	0.074	C.3	1	UNK0	0.000	
32	   C	-1.901	-2.178	-0.109	C.3	1	UNK0	0.000	
33	   O	-2.281	-3.171	-0.977	O.3	1	UNK0	0.000	
34	   C	-1.653	-4.386	-0.766	C.3	1	UNK0	0.000	
35	   C	-0.137	-4.290	-0.930	C.3	1	UNK0	0.000	
36	   H	1.621	3.431	-1.603	 H	1	UNK0	0.000	
37	   H	3.008	0.233	-3.973	 H	1	UNK0	0.000	
38	   H	3.756	1.849	-5.731	 H	1	UNK0	0.000	
39	   H	3.429	4.256	-5.419	 H	1	UNK0	0.000	
40	   H	2.602	0.508	-0.902	 H	1	UNK0	0.000	
41	   H	-3.400	4.035	1.439	 H	1	UNK0	0.000	
42	   H	-0.836	0.520	3.709	 H	1	UNK0	0.000	
43	   H	0.193	0.230	2.295	 H	1	UNK0	0.000	
44	   H	-1.467	-0.492	2.388	 H	1	UNK0	0.000	
45	   H	-5.093	2.053	5.524	 H	1	UNK0	0.000	
46	   H	-6.316	1.629	4.211	 H	1	UNK0	0.000	
47	   H	-6.127	3.330	4.749	 H	1	UNK0	0.000	
48	   H	-2.035	4.313	-1.294	 H	1	UNK0	0.000	
49	   H	-0.305	4.452	-0.758	 H	1	UNK0	0.000	
50	   H	-1.599	5.399	0.117	 H	1	UNK0	0.000	
51	   H	1.519	-2.205	-3.381	 H	1	UNK0	0.000	
52	   H	2.976	-1.613	-2.467	 H	1	UNK0	0.000	
53	   H	2.013	-2.168	-0.353	 H	1	UNK0	0.000	
54	   H	2.059	-3.600	-1.389	 H	1	UNK0	0.000	
55	   H	-0.354	-2.582	-1.950	 H	1	UNK0	0.000	
56	   H	-0.209	-2.912	0.942	 H	1	UNK0	0.000	
57	   H	0.053	-1.264	0.317	 H	1	UNK0	0.000	
58	   H	-2.465	-2.270	0.836	 H	1	UNK0	0.000	
59	   H	-2.208	-1.200	-0.565	 H	1	UNK0	0.000	
60	   H	-2.013	-5.063	-1.593	 H	1	UNK0	0.000	
61	   H	-1.933	-4.870	0.191	 H	1	UNK0	0.000	
62	   H	0.230	-4.904	-1.753	 H	1	UNK0	0.000	
63	   H	0.305	-4.626	0.044	 H	1	UNK0	0.000	
@<TRIPOS>BOND
1 1 2 1
2 2 3 2
3 2 7 1
4 3 4 1
5 4 5 2
6 4 8 1
7 5 6 1
8 6 7 2
9 8 9 1
10 8 14 1
11 9 10 1
12 9 28 1
13 10 11 2
14 10 12 1
15 12 13 2
16 12 14 1
17 14 15 2
18 15 16 1
19 15 17 1
20 17 18 2
21 17 21 1
22 18 19 1
23 18 27 1
24 19 20 1
25 20 21 2
26 20 23 1
27 21 22 1
28 23 24 2
29 23 25 1
30 25 26 1
31 28 29 1
32 29 30 1
33 30 31 1
34 30 35 1
35 31 32 1
36 32 33 1
37 33 34 1
38 34 35 1
39 3 36 1
40 5 37 1
41 6 38 1
42 7 39 1
43 8 40 1
44 19 41 1
45 22 42 1
46 22 43 1
47 22 44 1
48 26 45 1
49 26 46 1
50 26 47 1
51 27 48 1
52 27 49 1
53 27 50 1
54 28 51 1
55 28 52 1
56 29 53 1
57 29 54 1
58 30 55 1
59 31 56 1
60 31 57 1
61 32 58 1
62 32 59 1
63 34 60 1
64 34 61 1
65 35 62 1
66 35 63 1
@<TRIPOS>SUBSTRUCTURE
1	UNK0	1	GROUP	1 ****	UNK
