REMARK  7 active torsions:
REMARK  status: ('A' for Active; 'I' for Inactive)
REMARK    1  A    between atoms: C_4  and  C_8 
REMARK    2  A    between atoms: N_9  and  C_26 
REMARK    3  A    between atoms: C_15  and  C_17 
REMARK    4  A    between atoms: C_20  and  O_23 
REMARK    5  A    between atoms: C_26  and  C_27 
REMARK    6  A    between atoms: C_27  and  C_28 
REMARK    7  A    between atoms: C_28  and  N_29 
ROOT
ATOM      1  C   UNK d   1      -0.790   0.295  -1.725  0.00  0.00     0.161 C 
ATOM      2  N   UNK d   1       0.597   0.636  -1.477  0.00  0.00    -0.332 N 
ATOM      3  C   UNK d   1       0.734   1.310  -0.245  0.00  0.00     0.295 C 
ATOM      4  O   UNK d   1       1.662   2.030   0.205  0.00  0.00    -0.264 OA
ATOM      5  C   UNK d   1      -0.506   1.012   0.515  0.00  0.00     0.250 C 
ATOM      6  O   UNK d   1      -0.732   1.444   1.663  0.00  0.00    -0.282 OA
ATOM      7  C   UNK d   1      -1.329   0.163  -0.327  0.00  0.00     0.062 C 
ATOM      8  C   UNK d   1      -2.309  -0.602   0.080  0.00  0.00     0.130 C 
ATOM      9  O   UNK d   1      -2.969  -1.424  -0.850  0.00  0.00    -0.190 OA
ENDROOT
BRANCH   1  10
ATOM     10  C   UNK d   1      -1.512   1.324  -2.494  0.00  0.00    -0.029 A 
ATOM     11  C   UNK d   1      -1.390   2.666  -2.213  0.00  0.00     0.028 A 
ATOM     12  C   UNK d   1      -2.080   3.621  -2.951  0.00  0.00     0.011 A 
ATOM     13 Br   UNK d   1      -1.898   5.473  -2.543  0.00  0.00    -0.051 Br
ATOM     14  C   UNK d   1      -2.907   3.225  -3.990  0.00  0.00     0.019 A 
ATOM     15  C   UNK d   1      -3.022   1.879  -4.264  0.00  0.00     0.002 A 
ATOM     16  C   UNK d   1      -2.334   0.935  -3.528  0.00  0.00     0.009 A 
ENDBRANCH   1  10
BRANCH   8  17
ATOM     17  C   UNK d   1      -2.746  -0.631   1.450  0.00  0.00     0.002 A 
ATOM     18  C   UNK d   1      -2.697  -1.872   2.102  0.00  0.00     0.024 A 
ATOM     19  C   UNK d   1      -3.131  -2.001   3.392  0.00  0.00    -0.028 A 
ATOM     20  C   UNK d   1      -3.635  -0.923   4.109  0.00  0.00     0.074 A 
ATOM     21  C   UNK d   1      -3.072  -3.334   4.073  0.00  0.00     0.051 C 
ATOM     22  C   UNK d   1      -3.674   0.270   3.457  0.00  0.00     0.038 A 
ATOM     23  C   UNK d   1      -3.241   0.418   2.155  0.00  0.00     0.017 A 
BRANCH  20  24
ATOM     24  O   UNK d   1      -4.052  -1.136   5.407  0.00  0.00    -0.355 OA
ATOM     25  C   UNK d   1      -4.575  -0.072   6.188  0.00  0.00     0.210 C 
ENDBRANCH  20  24
ENDBRANCH   8  17
BRANCH   2  26
ATOM     26  C   UNK d   1       1.732   0.329  -2.362  0.00  0.00     0.129 C 
BRANCH  26  27
ATOM     27  C   UNK d   1       2.293  -1.024  -2.022  0.00  0.00     0.048 C 
BRANCH  27  28
ATOM     28  C   UNK d   1       2.802  -1.165  -0.628  0.00  0.00     0.236 C 
BRANCH  28  29
ATOM     29  N   UNK d   1       3.885  -0.260  -0.310  0.00  0.00    -0.067 N 
ATOM     30  C   UNK d   1       3.986  -0.021   1.116  0.00  0.00     0.261 C 
ATOM     31  C   UNK d   1       5.286  -0.552   1.657  0.00  0.00     0.195 C 
ATOM     32  O   UNK d   1       6.332   0.139   1.012  0.00  0.00    -0.388 OA
ATOM     33  C   UNK d   1       6.336  -0.144  -0.352  0.00  0.00     0.195 C 
ATOM     34  C   UNK d   1       5.116  -0.868  -0.824  0.00  0.00     0.261 C 
ATOM     35  H   UNK d   1       3.814   0.658  -0.797  0.00  0.00     0.280 HD
ENDBRANCH  28  29
ENDBRANCH  27  28
ENDBRANCH  26  27
ENDBRANCH   2  26
TORSDOF 7
