REMARK  5 active torsions:
REMARK  status: ('A' for Active; 'I' for Inactive)
REMARK    1  A    between atoms: C_4  and  C_8 
REMARK    2  A    between atoms: N_9  and  C_24 
REMARK    3  A    between atoms: C_15  and  C_17 
REMARK    4  A    between atoms: C_24  and  C_25 
REMARK    5  A    between atoms: C_25  and  N_26 
ROOT
ATOM      1  C   UNK d   1       0.518   0.738  -0.255  0.00  0.00     0.161 C 
ATOM      2  N   UNK d   1       0.306  -0.621   0.145  0.00  0.00    -0.331 N 
ATOM      3  C   UNK d   1      -1.011  -0.681   0.671  0.00  0.00     0.295 C 
ATOM      4  O   UNK d   1      -1.697  -1.723   0.818  0.00  0.00    -0.264 OA
ATOM      5  C   UNK d   1      -1.457   0.687   1.026  0.00  0.00     0.250 C 
ATOM      6  O   UNK d   1      -2.547   1.030   1.514  0.00  0.00    -0.282 OA
ATOM      7  C   UNK d   1      -0.342   1.548   0.680  0.00  0.00     0.062 C 
ATOM      8  C   UNK d   1      -0.089   2.761   1.120  0.00  0.00     0.130 C 
ATOM      9  O   UNK d   1       1.065   3.406   0.729  0.00  0.00    -0.190 OA
ENDROOT
BRANCH   2  10
ATOM     10  C   UNK d   1       1.240  -1.760   0.044  0.00  0.00     0.155 C 
BRANCH  10  11
ATOM     11  C   UNK d   1       1.013  -2.406  -1.294  0.00  0.00     0.255 C 
BRANCH  11  12
ATOM     12  N   UNK d   1       1.831  -3.531  -1.570  0.00  0.00    -0.066 N 
ATOM     13  C   UNK d   1       2.467  -4.141  -0.439  0.00  0.00     0.261 C 
ATOM     14  C   UNK d   1       1.674  -5.252   0.193  0.00  0.00     0.195 C 
ATOM     15  O   UNK d   1       1.066  -6.088  -0.717  0.00  0.00    -0.388 OA
ATOM     16  C   UNK d   1       0.245  -5.407  -1.585  0.00  0.00     0.195 C 
ATOM     17  C   UNK d   1       1.103  -4.467  -2.389  0.00  0.00     0.261 C 
ATOM     18  H   UNK d   1       2.615  -3.185  -2.201  0.00  0.00     0.280 HD
ENDBRANCH  11  12
ENDBRANCH  10  11
ENDBRANCH   2  10
BRANCH   1  19
ATOM     19  C   UNK d   1       0.121   0.994  -1.668  0.00  0.00    -0.029 A 
ATOM     20  C   UNK d   1      -1.062   0.525  -2.200  0.00  0.00     0.028 A 
ATOM     21  C   UNK d   1      -1.435   0.762  -3.519  0.00  0.00     0.011 A 
ATOM     22 Br   UNK d   1      -3.083   0.093  -4.215  0.00  0.00    -0.051 Br
ATOM     23  C   UNK d   1      -0.604   1.485  -4.316  0.00  0.00     0.019 A 
ATOM     24  C   UNK d   1       0.583   1.973  -3.832  0.00  0.00     0.002 A 
ATOM     25  C   UNK d   1       0.934   1.726  -2.522  0.00  0.00     0.009 A 
ENDBRANCH   1  19
BRANCH   8  26
ATOM     26  C   UNK d   1      -0.994   3.450   2.004  0.00  0.00     0.001 A 
ATOM     27  C   UNK d   1      -2.301   3.754   1.755  0.00  0.00     0.015 A 
ATOM     28  C   UNK d   1      -3.068   4.386   2.716  0.00  0.00     0.007 A 
ATOM     29  C   UNK d   1      -2.589   4.746   3.955  0.00  0.00    -0.062 A 
ATOM     30  C   UNK d   1      -1.268   4.439   4.205  0.00  0.00     0.007 A 
ATOM     31  C   UNK d   1      -3.437   5.427   4.973  0.00  0.00     0.048 C 
ATOM     32  C   UNK d   1      -0.489   3.812   3.264  0.00  0.00     0.015 A 
ENDBRANCH   8  26
TORSDOF 5
