REMARK  6 active torsions:
REMARK  status: ('A' for Active; 'I' for Inactive)
REMARK    1  A    between atoms: C_4  and  C_8 
REMARK    2  A    between atoms: N_9  and  C_24 
REMARK    3  A    between atoms: C_15  and  C_17 
REMARK    4  A    between atoms: C_24  and  C_25 
REMARK    5  A    between atoms: C_25  and  C_26 
REMARK    6  A    between atoms: C_26  and  N_27 
ROOT
ATOM      1  C   UNK d   1      -0.378  -0.900  -1.190  0.00  0.00     0.161 C 
ATOM      2  N   UNK d   1       0.800  -0.642  -2.002  0.00  0.00    -0.332 N 
ATOM      3  C   UNK d   1       0.795   0.767  -2.312  0.00  0.00     0.295 C 
ATOM      4  O   UNK d   1       1.450   1.297  -3.243  0.00  0.00    -0.264 OA
ATOM      5  C   UNK d   1      -0.088   1.407  -1.360  0.00  0.00     0.250 C 
ATOM      6  O   UNK d   1      -0.387   2.639  -1.271  0.00  0.00    -0.282 OA
ATOM      7  C   UNK d   1      -0.608   0.371  -0.478  0.00  0.00     0.062 C 
ATOM      8  C   UNK d   1      -1.193   0.582   0.692  0.00  0.00     0.130 C 
ATOM      9  O   UNK d   1      -1.658  -0.591   1.323  0.00  0.00    -0.190 OA
ENDROOT
BRANCH   2  10
ATOM     10  C   UNK d   1       1.714  -1.628  -2.481  0.00  0.00     0.129 C 
BRANCH  10  11
ATOM     11  C   UNK d   1       2.997  -1.823  -1.783  0.00  0.00     0.048 C 
BRANCH  11  12
ATOM     12  C   UNK d   1       3.016  -2.216  -0.353  0.00  0.00     0.236 C 
BRANCH  12  13
ATOM     13  N   UNK d   1       2.503  -1.298   0.607  0.00  0.00    -0.067 N 
ATOM     14  C   UNK d   1       1.729  -1.983   1.611  0.00  0.00     0.261 C 
ATOM     15  C   UNK d   1       2.539  -2.372   2.830  0.00  0.00     0.195 C 
ATOM     16  O   UNK d   1       2.973  -1.227   3.502  0.00  0.00    -0.388 OA
ATOM     17  C   UNK d   1       3.056  -0.140   2.630  0.00  0.00     0.195 C 
ATOM     18  C   UNK d   1       3.635  -0.651   1.340  0.00  0.00     0.261 C 
ATOM     19  H   UNK d   1       2.019  -0.509   0.186  0.00  0.00     0.280 HD
ENDBRANCH  12  13
ENDBRANCH  11  12
ENDBRANCH  10  11
ENDBRANCH   2  10
BRANCH   1  20
ATOM     20  C   UNK d   1      -1.524  -1.306  -2.042  0.00  0.00    -0.029 A 
ATOM     21  C   UNK d   1      -2.355  -2.328  -1.643  0.00  0.00     0.028 A 
ATOM     22  C   UNK d   1      -3.437  -2.745  -2.406  0.00  0.00     0.011 A 
ATOM     23 Br   UNK d   1      -4.594  -4.151  -1.863  0.00  0.00    -0.051 Br
ATOM     24  C   UNK d   1      -3.708  -2.128  -3.609  0.00  0.00     0.019 A 
ATOM     25  C   UNK d   1      -2.878  -1.106  -4.010  0.00  0.00     0.002 A 
ATOM     26  C   UNK d   1      -1.789  -0.693  -3.230  0.00  0.00     0.009 A 
ENDBRANCH   1  20
BRANCH   8  27
ATOM     27  C   UNK d   1      -1.361   1.885   1.314  0.00  0.00     0.001 A 
ATOM     28  C   UNK d   1      -0.370   2.824   1.475  0.00  0.00     0.016 A 
ATOM     29  C   UNK d   1      -0.597   4.061   2.044  0.00  0.00     0.024 A 
ATOM     30  C   UNK d   1      -1.854   4.409   2.484  0.00  0.00     0.034 A 
ATOM     31  C   UNK d   1      -2.862   3.478   2.331  0.00  0.00     0.024 A 
ATOM     32 Cl   UNK d   1      -2.170   5.986   3.215  0.00  0.00    -0.084 Cl
ATOM     33  C   UNK d   1      -2.625   2.243   1.760  0.00  0.00     0.016 A 
ENDBRANCH   8  27
TORSDOF 6
