REMARK  5 active torsions:
REMARK  status: ('A' for Active; 'I' for Inactive)
REMARK    1  A    between atoms: C_4  and  C_8 
REMARK    2  A    between atoms: N_9  and  C_28 
REMARK    3  A    between atoms: C_15  and  C_17 
REMARK    4  A    between atoms: C_28  and  C_29 
REMARK    5  A    between atoms: C_29  and  N_30 
ROOT
ATOM      1  C   UNK d   1       0.512   1.143  -1.549  0.00  0.00     0.161 C 
ATOM      2  N   UNK d   1       1.722   1.044  -0.810  0.00  0.00    -0.331 N 
ATOM      3  C   UNK d   1       1.538   2.017   0.271  0.00  0.00     0.295 C 
ATOM      4  O   UNK d   1       2.438   2.629   0.868  0.00  0.00    -0.264 OA
ATOM      5  C   UNK d   1       0.086   2.112   0.495  0.00  0.00     0.251 C 
ATOM      6  O   UNK d   1      -0.523   2.820   1.329  0.00  0.00    -0.282 OA
ATOM      7  C   UNK d   1      -0.516   1.193  -0.468  0.00  0.00     0.064 C 
ATOM      8  C   UNK d   1      -1.654   0.560  -0.345  0.00  0.00     0.149 C 
ATOM      9  O   UNK d   1      -2.007  -0.333  -1.380  0.00  0.00    -0.189 OA
ENDROOT
BRANCH   1  10
ATOM     10  C   UNK d   1       0.249   0.271  -2.654  0.00  0.00    -0.029 A 
ATOM     11  C   UNK d   1      -0.104   0.825  -3.901  0.00  0.00     0.028 A 
ATOM     12  C   UNK d   1      -0.384   0.066  -5.007  0.00  0.00     0.011 A 
ATOM     13 Br   UNK d   1      -0.856   0.890  -6.671  0.00  0.00    -0.051 Br
ATOM     14  C   UNK d   1      -0.335  -1.301  -4.957  0.00  0.00     0.019 A 
ATOM     15  C   UNK d   1       0.005  -1.889  -3.760  0.00  0.00     0.002 A 
ATOM     16  C   UNK d   1       0.282  -1.106  -2.660  0.00  0.00     0.009 A 
ENDBRANCH   1  10
BRANCH   8  17
ATOM     17  C   UNK d   1      -2.548   0.747   0.788  0.00  0.00     0.102 A 
ATOM     18  N   UNK d   1      -3.312   1.783   1.163  0.00  0.00    -0.302 N 
ATOM     19  C   UNK d   1      -3.929   1.494   2.312  0.00  0.00     0.140 A 
ATOM     20  C   UNK d   1      -3.495   2.967   0.515  0.00  0.00     0.099 A 
ATOM     21  N   UNK d   1      -3.545   0.241   2.672  0.00  0.00    -0.233 NA
ATOM     22  C   UNK d   1      -4.800   2.394   2.922  0.00  0.00    -0.015 A 
ATOM     23  C   UNK d   1      -2.697  -0.254   1.761  0.00  0.00     0.063 A 
ATOM     24  C   UNK d   1      -2.043  -1.593   1.777  0.00  0.00     0.073 C 
ATOM     25  C   UNK d   1      -5.004   3.603   2.286  0.00  0.00     0.012 A 
ATOM     26  C   UNK d   1      -5.456   2.020   4.199  0.00  0.00     0.052 C 
ATOM     27  C   UNK d   1      -4.351   3.870   1.097  0.00  0.00     0.018 A 
ENDBRANCH   8  17
BRANCH   2  28
ATOM     28  C   UNK d   1       2.951   0.285  -0.962  0.00  0.00     0.155 C 
BRANCH  28  29
ATOM     29  C   UNK d   1       3.024  -0.972  -0.166  0.00  0.00     0.255 C 
BRANCH  29  30
ATOM     30  N   UNK d   1       4.268  -1.691  -0.358  0.00  0.00    -0.066 N 
ATOM     31  C   UNK d   1       5.090  -1.654   0.831  0.00  0.00     0.261 C 
ATOM     32  C   UNK d   1       4.485  -2.566   1.903  0.00  0.00     0.195 C 
ATOM     33  O   UNK d   1       4.584  -3.866   1.395  0.00  0.00    -0.388 OA
ATOM     34  C   UNK d   1       3.641  -3.937   0.349  0.00  0.00     0.195 C 
ATOM     35  C   UNK d   1       4.034  -3.049  -0.808  0.00  0.00     0.261 C 
ATOM     36  H   UNK d   1       4.820  -1.218  -1.115  0.00  0.00     0.280 HD
ENDBRANCH  29  30
ENDBRANCH  28  29
ENDBRANCH   2  28
TORSDOF 5
