REMARK  6 active torsions:
REMARK  status: ('A' for Active; 'I' for Inactive)
REMARK    1  A    between atoms: C_4  and  C_8 
REMARK    2  A    between atoms: N_9  and  C_27 
REMARK    3  A    between atoms: C_15  and  C_17 
REMARK    4  A    between atoms: C_27  and  C_28 
REMARK    5  A    between atoms: C_28  and  C_29 
REMARK    6  A    between atoms: C_29  and  N_30 
ROOT
ATOM      1  C   UNK d   1       0.204   0.952   0.394  0.00  0.00     0.161 C 
ATOM      2  N   UNK d   1      -0.993   0.313  -0.117  0.00  0.00    -0.332 N 
ATOM      3  C   UNK d   1      -1.021   0.635  -1.514  0.00  0.00     0.295 C 
ATOM      4  O   UNK d   1      -2.014   0.689  -2.261  0.00  0.00    -0.264 OA
ATOM      5  C   UNK d   1       0.356   0.894  -1.917  0.00  0.00     0.251 C 
ATOM      6  O   UNK d   1       0.837   1.217  -3.044  0.00  0.00    -0.282 OA
ATOM      7  C   UNK d   1       1.169   0.712  -0.724  0.00  0.00     0.064 C 
ATOM      8  C   UNK d   1       2.460   0.446  -0.700  0.00  0.00     0.149 C 
ATOM      9  O   UNK d   1       3.050   0.377   0.570  0.00  0.00    -0.189 OA
ENDROOT
BRANCH   1  10
ATOM     10  C   UNK d   1       0.702   0.403   1.661  0.00  0.00    -0.029 A 
ATOM     11  C   UNK d   1       0.939  -0.912   1.882  0.00  0.00     0.028 A 
ATOM     12  C   UNK d   1       1.406  -1.352   3.121  0.00  0.00     0.011 A 
ATOM     13 Br   UNK d   1       1.726  -3.205   3.391  0.00  0.00    -0.051 Br
ATOM     14  C   UNK d   1       1.643  -0.467   4.163  0.00  0.00     0.019 A 
ATOM     15  C   UNK d   1       1.396   0.866   3.917  0.00  0.00     0.002 A 
ATOM     16  C   UNK d   1       0.940   1.300   2.708  0.00  0.00     0.009 A 
ENDBRANCH   1  10
BRANCH   8  17
ATOM     17  C   UNK d   1       3.292   0.218  -1.872  0.00  0.00     0.102 A 
ATOM     18  N   UNK d   1       3.102  -0.682  -2.848  0.00  0.00    -0.302 N 
ATOM     19  C   UNK d   1       4.063  -0.572  -3.801  0.00  0.00     0.134 A 
ATOM     20  C   UNK d   1       2.160  -1.655  -3.028  0.00  0.00     0.099 A 
ATOM     21  N   UNK d   1       4.867   0.441  -3.374  0.00  0.00    -0.233 NA
ATOM     22  C   UNK d   1       4.113  -1.391  -4.918  0.00  0.00     0.051 A 
ATOM     23  C   UNK d   1       4.442   0.940  -2.226  0.00  0.00     0.063 A 
ATOM     24  C   UNK d   1       4.971   2.032  -1.379  0.00  0.00     0.073 C 
ATOM     25  C   UNK d   1       3.157  -2.370  -5.093  0.00  0.00     0.005 A 
ATOM     26  C   UNK d   1       2.178  -2.477  -4.112  0.00  0.00     0.018 A 
ENDBRANCH   8  17
BRANCH   2  27
ATOM     27  C   UNK d   1      -1.985  -0.480   0.613  0.00  0.00     0.129 C 
BRANCH  27  28
ATOM     28  C   UNK d   1      -3.086   0.331   1.191  0.00  0.00     0.048 C 
BRANCH  28  29
ATOM     29  C   UNK d   1      -3.948   1.101   0.278  0.00  0.00     0.235 C 
BRANCH  29  30
ATOM     30  N   UNK d   1      -4.683   0.358  -0.685  0.00  0.00    -0.079 N 
ATOM     31  C   UNK d   1      -5.169   1.235  -1.723  0.00  0.00     0.269 C 
ATOM     32  C   UNK d   1      -5.885  -0.210  -0.046  0.00  0.00     0.269 C 
ATOM     33  H   UNK d   1      -4.183  -0.477  -1.061  0.00  0.00     0.278 HD
ENDBRANCH  29  30
ENDBRANCH  28  29
ENDBRANCH  27  28
ENDBRANCH   2  27
TORSDOF 6
