REMARK  6 active torsions:
REMARK  status: ('A' for Active; 'I' for Inactive)
REMARK    1  A    between atoms: C_4  and  C_8 
REMARK    2  A    between atoms: N_9  and  C_22 
REMARK    3  A    between atoms: C_15  and  C_17 
REMARK    4  A    between atoms: C_22  and  C_23 
REMARK    5  A    between atoms: C_23  and  C_24 
REMARK    6  A    between atoms: C_24  and  N_25 
ROOT
ATOM      1  C   UNK d   1      -1.669   1.207  -0.641  0.00  0.00     0.161 C 
ATOM      2  N   UNK d   1      -1.682   0.971   0.795  0.00  0.00    -0.332 N 
ATOM      3  C   UNK d   1      -1.092   2.179   1.331  0.00  0.00     0.295 C 
ATOM      4  O   UNK d   1      -1.262   2.645   2.478  0.00  0.00    -0.264 OA
ATOM      5  C   UNK d   1      -0.252   2.784   0.306  0.00  0.00     0.251 C 
ATOM      6  O   UNK d   1       0.445   3.831   0.319  0.00  0.00    -0.282 OA
ATOM      7  C   UNK d   1      -0.351   1.907  -0.860  0.00  0.00     0.064 C 
ATOM      8  C   UNK d   1       0.467   1.766  -1.863  0.00  0.00     0.153 C 
ATOM      9  O   UNK d   1       0.110   0.864  -2.888  0.00  0.00    -0.188 OA
ENDROOT
BRANCH   2  10
ATOM     10  C   UNK d   1      -2.159  -0.140   1.575  0.00  0.00     0.129 C 
BRANCH  10  11
ATOM     11  C   UNK d   1      -1.103  -1.181   1.867  0.00  0.00     0.048 C 
BRANCH  11  12
ATOM     12  C   UNK d   1      -0.583  -1.730   0.598  0.00  0.00     0.236 C 
BRANCH  12  13
ATOM     13  N   UNK d   1       0.417  -2.764   0.740  0.00  0.00    -0.067 N 
ATOM     14  C   UNK d   1       1.189  -2.957  -0.465  0.00  0.00     0.261 C 
ATOM     15  C   UNK d   1       2.484  -2.227  -0.503  0.00  0.00     0.195 C 
ATOM     16  O   UNK d   1       3.204  -2.231   0.673  0.00  0.00    -0.388 OA
ATOM     17  C   UNK d   1       2.457  -1.869   1.786  0.00  0.00     0.195 C 
ATOM     18  C   UNK d   1       1.206  -2.698   1.923  0.00  0.00     0.261 C 
ATOM     19  H   UNK d   1      -0.157  -3.662   0.828  0.00  0.00     0.280 HD
ENDBRANCH  12  13
ENDBRANCH  11  12
ENDBRANCH  10  11
ENDBRANCH   2  10
BRANCH   1  20
ATOM     20  C   UNK d   1      -2.722   2.188  -1.038  0.00  0.00    -0.029 A 
ATOM     21  C   UNK d   1      -3.997   2.091  -0.526  0.00  0.00     0.028 A 
ATOM     22  C   UNK d   1      -5.012   2.974  -0.861  0.00  0.00     0.011 A 
ATOM     23 Br   UNK d   1      -6.773   2.802  -0.121  0.00  0.00    -0.051 Br
ATOM     24  C   UNK d   1      -4.752   4.002  -1.744  0.00  0.00     0.019 A 
ATOM     25  C   UNK d   1      -3.479   4.118  -2.270  0.00  0.00     0.002 A 
ATOM     26  C   UNK d   1      -2.468   3.219  -1.922  0.00  0.00     0.009 A 
ENDBRANCH   1  20
BRANCH   8  27
ATOM     27  C   UNK d   1       1.709   2.515  -1.918  0.00  0.00     0.112 A 
ATOM     28  O   UNK d   1       2.127   3.137  -2.988  0.00  0.00    -0.320 OA
ATOM     29  C   UNK d   1       3.270   3.729  -2.775  0.00  0.00     0.142 A 
ATOM     30  C   UNK d   1       3.638   3.489  -1.486  0.00  0.00     0.027 A 
ATOM     31  C   UNK d   1       2.629   2.699  -0.923  0.00  0.00     0.042 A 
ENDBRANCH   8  27
TORSDOF 6
