# created with PyMOL 2.3.2
@<TRIPOS>MOLECULE
191
58 61 1                 
SMALL
USER_CHARGES
@<TRIPOS>ATOM
1	  Br	-0.548	-4.921	5.335	Br	1	UNK0	0.000	
2	   C	0.548	-4.202	3.925	C.2	1	UNK0	0.000	
3	   C	-0.022	-3.536	2.879	C.2	1	UNK0	0.000	
4	   C	0.713	-2.991	1.824	C.2	1	UNK0	0.000	
5	   C	2.076	-3.172	1.905	C.2	1	UNK0	0.000	
6	   C	2.669	-3.850	2.967	C.2	1	UNK0	0.000	
7	   C	1.901	-4.363	3.973	C.2	1	UNK0	0.000	
8	   C	0.048	-2.270	0.709	C.3	1	UNK0	0.000	
9	   N	0.523	-2.670	-0.600	N.pl3	1	UNK0	0.000	
10	   C	1.711	-1.885	-0.841	C.2	1	UNK0	0.000	
11	   O	2.632	-2.184	-1.639	O.2	1	UNK0	0.000	
12	   C	1.613	-0.701	0.018	C.2	1	UNK0	0.000	
13	   O	2.426	0.252	0.132	O.2	1	UNK0	0.000	
14	   C	0.364	-0.794	0.765	C.2	1	UNK0	0.000	
15	   C	-0.303	0.185	1.352	C.2	1	UNK0	0.000	
16	   O	-1.460	-0.103	2.031	O.2	1	UNK0	0.000	
17	   C	0.169	1.581	1.290	C.2	1	UNK0	0.000	
18	   O	0.670	2.166	0.236	O.3	1	UNK0	0.000	
19	   C	1.010	3.395	0.438	C.2	1	UNK0	0.000	
20	   C	0.715	3.677	1.750	C.2	1	UNK0	0.000	
21	   C	0.182	2.525	2.289	C.2	1	UNK0	0.000	
22	   C	0.989	4.942	2.222	C.2	1	UNK0	0.000	
23	   C	1.545	5.914	1.415	C.2	1	UNK0	0.000	
24	   C	1.828	5.583	0.086	C.2	1	UNK0	0.000	
25	   C	1.569	4.334	-0.419	C.2	1	UNK0	0.000	
26	   O	1.860	4.051	-1.729	O.3	1	UNK0	0.000	
27	   C	2.422	4.914	-2.665	C.3	1	UNK0	0.000	
28	   C	-0.030	-3.657	-1.495	C.3	1	UNK0	0.000	
29	   C	-0.980	-3.034	-2.489	C.3	1	UNK0	0.000	
30	   C	-2.146	-2.331	-1.894	C.3	1	UNK0	0.000	
31	   N	-3.052	-1.755	-2.838	N.4	1	UNK0	0.000	
32	   C	-4.440	-1.955	-2.412	C.3	1	UNK0	0.000	
33	   C	-2.880	-2.271	-4.161	C.3	1	UNK0	0.000	
34	   H	-1.093	-3.395	2.819	 H	1	UNK0	0.000	
35	   H	2.735	-2.803	1.165	 H	1	UNK0	0.000	
36	   H	3.740	-3.994	3.031	 H	1	UNK0	0.000	
37	   H	2.310	-4.903	4.826	 H	1	UNK0	0.000	
38	   H	-1.037	-2.465	0.825	 H	1	UNK0	0.000	
39	   H	-0.160	2.388	3.299	 H	1	UNK0	0.000	
40	   H	0.755	5.154	3.254	 H	1	UNK0	0.000	
41	   H	1.753	6.900	1.804	 H	1	UNK0	0.000	
42	   H	2.269	6.395	-0.509	 H	1	UNK0	0.000	
43	   H	2.117	5.973	-2.562	 H	1	UNK0	0.000	
44	   H	2.249	4.586	-3.718	 H	1	UNK0	0.000	
45	   H	3.526	4.908	-2.515	 H	1	UNK0	0.000	
46	   H	0.791	-4.157	-2.047	 H	1	UNK0	0.000	
47	   H	-0.616	-4.372	-0.879	 H	1	UNK0	0.000	
48	   H	-0.409	-2.301	-3.138	 H	1	UNK0	0.000	
49	   H	-1.299	-3.821	-3.233	 H	1	UNK0	0.000	
50	   H	-1.735	-1.550	-1.207	 H	1	UNK0	0.000	
51	   H	-2.710	-3.057	-1.255	 H	1	UNK0	0.000	
52	   H	-2.954	-0.701	-2.900	 H	1	UNK0	0.000	
53	   H	-5.072	-1.226	-2.950	 H	1	UNK0	0.000	
54	   H	-4.768	-2.999	-2.541	 H	1	UNK0	0.000	
55	   H	-4.519	-1.754	-1.307	 H	1	UNK0	0.000	
56	   H	-1.857	-2.036	-4.515	 H	1	UNK0	0.000	
57	   H	-3.022	-3.370	-4.191	 H	1	UNK0	0.000	
58	   H	-3.655	-1.806	-4.826	 H	1	UNK0	0.000	
@<TRIPOS>BOND
1 1 2 1
2 2 3 2
3 2 7 1
4 3 4 1
5 4 5 2
6 4 8 1
7 5 6 1
8 6 7 2
9 8 9 1
10 8 14 1
11 9 10 1
12 9 28 1
13 10 11 2
14 10 12 1
15 12 13 2
16 12 14 1
17 14 15 2
18 15 16 1
19 15 17 1
20 17 18 1
21 17 21 2
22 18 19 1
23 19 20 2
24 19 25 1
25 20 21 1
26 20 22 1
27 22 23 2
28 23 24 1
29 24 25 2
30 25 26 1
31 26 27 1
32 28 29 1
33 29 30 1
34 30 31 1
35 31 32 1
36 31 33 1
37 3 34 1
38 5 35 1
39 6 36 1
40 7 37 1
41 8 38 1
42 21 39 1
43 22 40 1
44 23 41 1
45 24 42 1
46 27 43 1
47 27 44 1
48 27 45 1
49 28 46 1
50 28 47 1
51 29 48 1
52 29 49 1
53 30 50 1
54 30 51 1
55 31 52 1
56 32 53 1
57 32 54 1
58 32 55 1
59 33 56 1
60 33 57 1
61 33 58 1
@<TRIPOS>SUBSTRUCTURE
1	UNK0	1	GROUP	1 ****	UNK
