REMARK  7 active torsions:
REMARK  status: ('A' for Active; 'I' for Inactive)
REMARK    1  A    between atoms: C_4  and  C_8 
REMARK    2  A    between atoms: N_9  and  C_28 
REMARK    3  A    between atoms: C_15  and  C_17 
REMARK    4  A    between atoms: C_25  and  O_26 
REMARK    5  A    between atoms: C_28  and  C_29 
REMARK    6  A    between atoms: C_29  and  C_30 
REMARK    7  A    between atoms: C_30  and  N_31 
ROOT
ATOM      1  C   UNK d   1       0.048  -2.270   0.709  0.00  0.00     0.161 C 
ATOM      2  N   UNK d   1       0.523  -2.670  -0.600  0.00  0.00    -0.332 N 
ATOM      3  C   UNK d   1       1.711  -1.885  -0.841  0.00  0.00     0.295 C 
ATOM      4  O   UNK d   1       2.632  -2.184  -1.639  0.00  0.00    -0.264 OA
ATOM      5  C   UNK d   1       1.613  -0.701   0.018  0.00  0.00     0.251 C 
ATOM      6  O   UNK d   1       2.426   0.252   0.132  0.00  0.00    -0.282 OA
ATOM      7  C   UNK d   1       0.364  -0.794   0.765  0.00  0.00     0.064 C 
ATOM      8  C   UNK d   1      -0.303   0.185   1.352  0.00  0.00     0.153 C 
ATOM      9  O   UNK d   1      -1.460  -0.103   2.031  0.00  0.00    -0.188 OA
ENDROOT
BRANCH   1  10
ATOM     10  C   UNK d   1       0.713  -2.991   1.824  0.00  0.00    -0.029 A 
ATOM     11  C   UNK d   1      -0.022  -3.536   2.879  0.00  0.00     0.028 A 
ATOM     12  C   UNK d   1       0.548  -4.202   3.925  0.00  0.00     0.011 A 
ATOM     13 Br   UNK d   1      -0.548  -4.921   5.335  0.00  0.00    -0.051 Br
ATOM     14  C   UNK d   1       1.901  -4.363   3.973  0.00  0.00     0.019 A 
ATOM     15  C   UNK d   1       2.669  -3.850   2.967  0.00  0.00     0.002 A 
ATOM     16  C   UNK d   1       2.076  -3.172   1.905  0.00  0.00     0.009 A 
ENDBRANCH   1  10
BRANCH   8  17
ATOM     17  C   UNK d   1       0.169   1.581   1.290  0.00  0.00     0.114 A 
ATOM     18  O   UNK d   1       0.670   2.166   0.236  0.00  0.00    -0.304 OA
ATOM     19  C   UNK d   1       1.010   3.395   0.438  0.00  0.00     0.119 A 
ATOM     20  C   UNK d   1       0.715   3.677   1.750  0.00  0.00     0.003 A 
ATOM     21  C   UNK d   1       1.569   4.334  -0.419  0.00  0.00     0.102 A 
ATOM     22  C   UNK d   1       0.182   2.525   2.289  0.00  0.00     0.054 A 
ATOM     23  C   UNK d   1       0.989   4.942   2.222  0.00  0.00     0.014 A 
ATOM     24  C   UNK d   1       1.545   5.914   1.415  0.00  0.00     0.004 A 
ATOM     25  C   UNK d   1       1.828   5.583   0.086  0.00  0.00     0.040 A 
BRANCH  21  26
ATOM     26  O   UNK d   1       1.860   4.051  -1.729  0.00  0.00    -0.353 OA
ATOM     27  C   UNK d   1       2.422   4.914  -2.665  0.00  0.00     0.210 C 
ENDBRANCH  21  26
ENDBRANCH   8  17
BRANCH   2  28
ATOM     28  C   UNK d   1      -0.030  -3.657  -1.495  0.00  0.00     0.129 C 
BRANCH  28  29
ATOM     29  C   UNK d   1      -0.980  -3.034  -2.489  0.00  0.00     0.048 C 
BRANCH  29  30
ATOM     30  C   UNK d   1      -2.146  -2.331  -1.894  0.00  0.00     0.235 C 
BRANCH  30  31
ATOM     31  N   UNK d   1      -3.052  -1.755  -2.838  0.00  0.00    -0.079 N 
ATOM     32  C   UNK d   1      -4.440  -1.955  -2.412  0.00  0.00     0.269 C 
ATOM     33  C   UNK d   1      -2.880  -2.271  -4.161  0.00  0.00     0.269 C 
ATOM     34  H   UNK d   1      -2.954  -0.701  -2.900  0.00  0.00     0.278 HD
ENDBRANCH  30  31
ENDBRANCH  29  30
ENDBRANCH  28  29
ENDBRANCH   2  28
TORSDOF 7
