REMARK  3 active torsions:
REMARK  status: ('A' for Active; 'I' for Inactive)
REMARK    1  A    between atoms: C_4  and  N_8 
REMARK       I    between atoms: N_8  and  C_9 
REMARK    2  A    between atoms: C_9  and  C_11 
REMARK    3  A    between atoms: N_13  and  C_15 
ROOT
ATOM      1  C   UNK d   1       0.494   0.207   2.101  0.00  0.00     0.114 C 
ATOM      2  C   UNK d   1       1.129  -0.167   0.787  0.00  0.00     0.140 C 
ATOM      3  N   UNK d   1       0.714  -1.568   0.952  0.00  0.00    -0.362 N 
ATOM      4  C   UNK d   1       0.543  -1.270   2.362  0.00  0.00     0.140 C 
ENDROOT
BRANCH   1   5
ATOM      5  C   UNK d   1      -0.894   0.772   1.968  0.00  0.00     0.229 C 
ATOM      6  N   UNK d   1      -1.086   1.942   1.217  0.00  0.00    -0.327 N 
ATOM      7  H   UNK d   1      -0.223   2.407   0.751  0.00  0.00     0.169 HD
ATOM      8  O   UNK d   1      -1.780   0.134   2.555  0.00  0.00    -0.273 OA
BRANCH   6   9
ATOM      9  C   UNK d   1      -2.323   2.582   1.008  0.00  0.00     0.035 A 
ATOM     10  C   UNK d   1      -2.366   3.746   0.226  0.00  0.00     0.048 A 
ATOM     11  C   UNK d   1      -3.530   4.433  -0.028  0.00  0.00     0.013 A 
ATOM     12 Br   UNK d   1      -3.542   6.011  -1.096  0.00  0.00    -0.051 Br
ATOM     13  C   UNK d   1      -4.707   3.983   0.492  0.00  0.00     0.019 A 
ATOM     14  C   UNK d   1      -4.694   2.858   1.253  0.00  0.00     0.004 A 
ATOM     15  C   UNK d   1      -3.517   2.153   1.516  0.00  0.00     0.029 A 
ENDBRANCH   6   9
ENDBRANCH   1   5
BRANCH   3  16
ATOM     16  C   UNK d   1       0.574  -2.664   0.057  0.00  0.00     0.162 A 
ATOM     17  N   UNK d   1      -0.614  -3.295  -0.132  0.00  0.00    -0.222 NA
ATOM     18  C   UNK d   1      -0.722  -4.345  -0.998  0.00  0.00     0.237 A 
ATOM     19  N   UNK d   1       0.335  -4.786  -1.687  0.00  0.00    -0.220 NA
ATOM     20  C   UNK d   1       1.532  -4.213  -1.550  0.00  0.00     0.183 A 
ATOM     21  N   UNK d   1       2.728  -4.466  -2.118  0.00  0.00    -0.236 N 
ATOM     22  C   UNK d   1       1.639  -3.152  -0.674  0.00  0.00     0.173 A 
ATOM     23  N   UNK d   1       3.570  -3.589  -1.616  0.00  0.00    -0.064 NA
ATOM     24  C   UNK d   1       3.060  -5.497  -3.098  0.00  0.00     0.183 C 
ATOM     25  N   UNK d   1       2.947  -2.786  -0.746  0.00  0.00    -0.124 NA
ENDBRANCH   3  16
TORSDOF 3
