# created with PyMOL 2.3.2
@<TRIPOS>MOLECULE
200
25 28 1                 
SMALL
USER_CHARGES
@<TRIPOS>ATOM
1	  Br	4.070	2.923	2.248	Br	1	UNK0	0.000	
2	   C	3.185	1.243	2.075	C.2	1	UNK0	0.000	
3	   C	2.183	1.041	1.140	C.2	1	UNK0	0.000	
4	   C	1.505	-0.134	0.958	C.2	1	UNK0	0.000	
5	   C	1.909	-1.174	1.822	C.2	1	UNK0	0.000	
6	   C	2.898	-1.009	2.760	C.2	1	UNK0	0.000	
7	   C	3.542	0.201	2.891	C.2	1	UNK0	0.000	
8	   N	0.481	-0.382	0.020	N.pl3	1	UNK0	0.000	
9	   C	-0.016	0.571	-0.900	C.2	1	UNK0	0.000	
10	   N	0.380	1.831	-1.044	N.2	1	UNK0	0.000	
11	   C	-0.121	2.704	-1.934	C.2	1	UNK0	0.000	
12	   N	0.098	3.988	-2.267	N.2	1	UNK0	0.000	
13	   O	-0.684	4.365	-3.229	O.3	1	UNK0	0.000	
14	   N	-1.421	3.360	-3.545	N.2	1	UNK0	0.000	
15	   C	-1.134	2.289	-2.787	C.2	1	UNK0	0.000	
16	   N	-1.567	1.024	-2.680	N.pl3	1	UNK0	0.000	
17	   N	-2.514	0.400	-3.376	N.2	1	UNK0	0.000	
18	   N	-2.587	-0.855	-2.907	N.2	1	UNK0	0.000	
19	   N	-1.686	-0.983	-1.931	N.2	1	UNK0	0.000	
20	   C	-1.044	0.178	-1.779	C.2	1	UNK0	0.000	
21	   H	1.951	1.888	0.534	 H	1	UNK0	0.000	
22	   H	1.427	-2.130	1.746	 H	1	UNK0	0.000	
23	   H	3.197	-1.821	3.419	 H	1	UNK0	0.000	
24	   H	4.318	0.336	3.625	 H	1	UNK0	0.000	
25	   H	0.075	-1.361	0.030	 H	1	UNK0	0.000	
@<TRIPOS>BOND
1 1 2 1
2 2 3 2
3 2 7 1
4 3 4 1
5 4 5 2
6 4 8 1
7 5 6 1
8 6 7 2
9 8 9 1
10 9 10 2
11 9 20 1
12 10 11 1
13 11 12 2
14 11 15 1
15 12 13 1
16 13 14 1
17 14 15 2
18 15 16 1
19 16 17 1
20 16 20 1
21 17 18 2
22 18 19 1
23 19 20 2
24 3 21 1
25 5 22 1
26 6 23 1
27 7 24 1
28 8 25 1
@<TRIPOS>SUBSTRUCTURE
1	UNK0	1	GROUP	1 ****	UNK
