REMARK  2 active torsions:
REMARK  status: ('A' for Active; 'I' for Inactive)
REMARK    1  A    between atoms: C_4  and  N_8 
REMARK    2  A    between atoms: N_8  and  C_9 
ROOT
ATOM      1  C   UNK d   1      -0.016   0.571  -0.900  0.00  0.00     0.180 A 
ATOM      2  N   UNK d   1       0.380   1.831  -1.044  0.00  0.00    -0.202 NA
ATOM      3  C   UNK d   1      -0.121   2.704  -1.934  0.00  0.00     0.231 A 
ATOM      4  N   UNK d   1       0.098   3.988  -2.267  0.00  0.00    -0.081 NA
ATOM      5  O   UNK d   1      -0.684   4.365  -3.229  0.00  0.00    -0.103 OA
ATOM      6  N   UNK d   1      -1.421   3.360  -3.545  0.00  0.00    -0.081 NA
ATOM      7  C   UNK d   1      -1.134   2.289  -2.787  0.00  0.00     0.229 A 
ATOM      8  N   UNK d   1      -1.567   1.024  -2.680  0.00  0.00    -0.196 N 
ATOM      9  N   UNK d   1      -2.514   0.400  -3.376  0.00  0.00     0.004 NA
ATOM     10  N   UNK d   1      -2.587  -0.855  -2.907  0.00  0.00     0.018 NA
ATOM     11  N   UNK d   1      -1.686  -0.983  -1.931  0.00  0.00    -0.138 NA
ATOM     12  C   UNK d   1      -1.044   0.178  -1.779  0.00  0.00     0.212 A 
ENDROOT
BRANCH   1  13
ATOM     13  N   UNK d   1       0.481  -0.382   0.020  0.00  0.00    -0.338 N 
ATOM     14  H   UNK d   1       0.075  -1.361   0.030  0.00  0.00     0.167 HD
BRANCH  13  15
ATOM     15  C   UNK d   1       1.505  -0.134   0.958  0.00  0.00     0.035 A 
ATOM     16  C   UNK d   1       2.183   1.041   1.140  0.00  0.00     0.048 A 
ATOM     17  C   UNK d   1       3.185   1.243   2.075  0.00  0.00     0.013 A 
ATOM     18 Br   UNK d   1       4.070   2.923   2.248  0.00  0.00    -0.051 Br
ATOM     19  C   UNK d   1       3.542   0.201   2.891  0.00  0.00     0.019 A 
ATOM     20  C   UNK d   1       2.898  -1.009   2.760  0.00  0.00     0.004 A 
ATOM     21  C   UNK d   1       1.909  -1.174   1.822  0.00  0.00     0.029 A 
ENDBRANCH  13  15
ENDBRANCH   1  13
TORSDOF 2
