REMARK  4 active torsions:
REMARK  status: ('A' for Active; 'I' for Inactive)
REMARK    1  A    between atoms: C_4  and  N_8 
REMARK    2  A    between atoms: C_11  and  C_13 
REMARK       I    between atoms: C_13  and  N_15 
REMARK    3  A    between atoms: N_15  and  C_16 
REMARK    4  A    between atoms: C_16  and  C_17 
ROOT
ATOM      1  C   UNK d   1      -0.382  -0.828  -1.678  0.00  0.00     0.273 C 
ATOM      2  O   UNK d   1      -0.511  -1.218  -0.491  0.00  0.00    -0.266 OA
ATOM      3  N   UNK d   1      -1.343  -1.220  -2.632  0.00  0.00    -0.348 N 
ATOM      4  H   UNK d   1      -1.219  -0.886  -3.614  0.00  0.00     0.163 HD
ENDROOT
BRANCH   1   5
ATOM      5  C   UNK d   1       0.761   0.015  -2.006  0.00  0.00     0.165 A 
ATOM      6  N   UNK d   1       1.088   0.542  -3.211  0.00  0.00    -0.125 NA
ATOM      7  N   UNK d   1       2.201   1.243  -3.068  0.00  0.00    -0.060 NA
ATOM      8  N   UNK d   1       2.617   1.201  -1.830  0.00  0.00    -0.224 N 
ATOM      9  C   UNK d   1       1.744   0.445  -1.144  0.00  0.00     0.159 A 
BRANCH   8  10
ATOM     10  C   UNK d   1       3.770   1.813  -1.236  0.00  0.00     0.060 A 
ATOM     11  C   UNK d   1       5.046   1.340  -1.423  0.00  0.00     0.050 A 
ATOM     12  C   UNK d   1       6.139   1.973  -0.822  0.00  0.00     0.013 A 
ATOM     13 Br   UNK d   1       7.911   1.319  -1.079  0.00  0.00    -0.051 Br
ATOM     14  C   UNK d   1       5.962   3.085  -0.028  0.00  0.00     0.019 A 
ATOM     15  C   UNK d   1       4.688   3.568   0.166  0.00  0.00     0.004 A 
ATOM     16  C   UNK d   1       3.603   2.926  -0.441  0.00  0.00     0.032 A 
ENDBRANCH   8  10
ENDBRANCH   1   5
BRANCH   3  17
ATOM     17  C   UNK d   1      -2.488  -2.054  -2.345  0.00  0.00     0.203 C 
BRANCH  17  18
ATOM     18  C   UNK d   1      -3.377  -1.417  -1.312  0.00  0.00     0.148 A 
ATOM     19  N   UNK d   1      -3.548  -1.776  -0.017  0.00  0.00    -0.319 N 
ATOM     20  C   UNK d   1      -4.425  -0.950   0.563  0.00  0.00     0.130 A 
ATOM     21  C   UNK d   1      -3.072  -2.781   0.918  0.00  0.00     0.132 C 
ATOM     22  N   UNK d   1      -4.798  -0.070  -0.397  0.00  0.00    -0.135 NA
ATOM     23  C   UNK d   1      -4.643  -1.319   2.009  0.00  0.00     0.082 C 
ATOM     24  N   UNK d   1      -4.169  -0.350  -1.521  0.00  0.00    -0.133 NA
ATOM     25  C   UNK d   1      -4.107  -2.735   2.026  0.00  0.00     0.028 C 
ENDBRANCH  17  18
ENDBRANCH   3  17
TORSDOF 4
