# created with PyMOL 2.3.2
@<TRIPOS>MOLECULE
205
37 40 1                 
SMALL
USER_CHARGES
@<TRIPOS>ATOM
1	  Br	-6.689	3.052	-2.551	Br	1	UNK0	0.000	
2	   C	-5.941	2.728	-0.827	C.2	1	UNK0	0.000	
3	   C	-4.594	2.567	-0.622	C.2	1	UNK0	0.000	
4	   C	-4.021	2.332	0.626	C.2	1	UNK0	0.000	
5	   C	-4.912	2.267	1.686	C.2	1	UNK0	0.000	
6	   C	-6.263	2.426	1.492	C.2	1	UNK0	0.000	
7	   C	-6.817	2.661	0.237	C.2	1	UNK0	0.000	
8	   N	-2.627	2.171	0.791	N.pl3	1	UNK0	0.000	
9	   C	-1.668	3.065	1.391	C.2	1	UNK0	0.000	
10	   O	-1.857	4.307	1.525	O.2	1	UNK0	0.000	
11	   C	-0.490	2.302	1.799	C.3	1	UNK0	0.000	
12	   O	0.735	2.897	1.680	O.3	1	UNK0	0.000	
13	   N	1.554	1.819	1.352	N.pl3	1	UNK0	0.000	
14	   C	0.845	0.984	0.468	C.2	1	UNK0	0.000	
15	   C	-0.445	1.258	0.708	C.2	1	UNK0	0.000	
16	   C	-1.846	1.040	0.367	C.2	1	UNK0	0.000	
17	   O	-2.298	0.027	-0.207	O.2	1	UNK0	0.000	
18	   C	1.351	-0.007	-0.469	C.2	1	UNK0	0.000	
19	   C	0.970	-1.352	-0.485	C.2	1	UNK0	0.000	
20	   N	1.600	-1.951	-1.476	N.pl3	1	UNK0	0.000	
21	   N	2.365	-1.053	-2.092	N.2	1	UNK0	0.000	
22	   C	2.234	0.124	-1.504	C.2	1	UNK0	0.000	
23	   C	1.501	-3.360	-1.853	C.3	1	UNK0	0.000	
24	   C	0.040	-2.008	0.464	C.3	1	UNK0	0.000	
25	   H	-3.897	2.613	-1.452	 H	1	UNK0	0.000	
26	   H	-4.511	2.085	2.678	 H	1	UNK0	0.000	
27	   H	-6.992	2.378	2.312	 H	1	UNK0	0.000	
28	   H	-7.878	2.782	0.097	 H	1	UNK0	0.000	
29	   H	-0.635	1.814	2.789	 H	1	UNK0	0.000	
30	   H	2.510	1.662	1.695	 H	1	UNK0	0.000	
31	   H	2.730	1.035	-1.783	 H	1	UNK0	0.000	
32	   H	1.245	-3.439	-2.941	 H	1	UNK0	0.000	
33	   H	2.420	-3.929	-1.631	 H	1	UNK0	0.000	
34	   H	0.659	-3.819	-1.279	 H	1	UNK0	0.000	
35	   H	-0.188	-1.341	1.331	 H	1	UNK0	0.000	
36	   H	-0.856	-2.312	-0.104	 H	1	UNK0	0.000	
37	   H	0.557	-2.914	0.827	 H	1	UNK0	0.000	
@<TRIPOS>BOND
1 1 2 1
2 2 3 2
3 2 7 1
4 3 4 1
5 4 5 2
6 4 8 1
7 5 6 1
8 6 7 2
9 8 9 1
10 8 16 1
11 9 10 2
12 9 11 1
13 11 12 1
14 11 15 1
15 12 13 1
16 13 14 1
17 14 15 2
18 14 18 1
19 15 16 1
20 16 17 2
21 18 19 2
22 18 22 1
23 19 20 1
24 19 24 1
25 20 21 1
26 20 23 1
27 21 22 2
28 3 25 1
29 5 26 1
30 6 27 1
31 7 28 1
32 11 29 1
33 13 30 1
34 22 31 1
35 23 32 1
36 23 33 1
37 23 34 1
38 24 35 1
39 24 36 1
40 24 37 1
@<TRIPOS>SUBSTRUCTURE
1	UNK0	1	GROUP	1 ****	UNK
