REMARK  2 active torsions:
REMARK  status: ('A' for Active; 'I' for Inactive)
REMARK    1  A    between atoms: C_4  and  N_8 
REMARK    2  A    between atoms: C_14  and  C_18 
ROOT
ATOM      1  N   UNK d   1      -2.627   2.171   0.791  0.00  0.00    -0.246 N 
ATOM      2  C   UNK d   1      -1.668   3.065   1.391  0.00  0.00     0.268 C 
ATOM      3  O   UNK d   1      -1.857   4.307   1.525  0.00  0.00    -0.269 OA
ATOM      4  C   UNK d   1      -0.490   2.302   1.799  0.00  0.00     0.285 C 
ATOM      5  O   UNK d   1       0.735   2.897   1.680  0.00  0.00    -0.260 OA
ATOM      6  N   UNK d   1       1.554   1.819   1.352  0.00  0.00    -0.264 N 
ATOM      7  C   UNK d   1       0.845   0.984   0.468  0.00  0.00     0.083 C 
ATOM      8  C   UNK d   1      -0.445   1.258   0.708  0.00  0.00     0.080 C 
ATOM      9  C   UNK d   1      -1.846   1.040   0.367  0.00  0.00     0.266 C 
ATOM     10  O   UNK d   1      -2.298   0.027  -0.207  0.00  0.00    -0.267 OA
ATOM     11  H   UNK d   1       2.510   1.662   1.695  0.00  0.00     0.194 HD
ENDROOT
BRANCH   1  12
ATOM     12  C   UNK d   1      -4.021   2.332   0.626  0.00  0.00     0.047 A 
ATOM     13  C   UNK d   1      -4.594   2.567  -0.622  0.00  0.00     0.049 A 
ATOM     14  C   UNK d   1      -5.941   2.728  -0.827  0.00  0.00     0.013 A 
ATOM     15 Br   UNK d   1      -6.689   3.052  -2.551  0.00  0.00    -0.051 Br
ATOM     16  C   UNK d   1      -6.817   2.661   0.237  0.00  0.00     0.019 A 
ATOM     17  C   UNK d   1      -6.263   2.426   1.492  0.00  0.00     0.004 A 
ATOM     18  C   UNK d   1      -4.912   2.267   1.686  0.00  0.00     0.030 A 
ENDBRANCH   1  12
BRANCH   7  19
ATOM     19  C   UNK d   1       1.351  -0.007  -0.469  0.00  0.00     0.036 A 
ATOM     20  C   UNK d   1       0.970  -1.352  -0.485  0.00  0.00     0.040 A 
ATOM     21  N   UNK d   1       1.600  -1.951  -1.476  0.00  0.00    -0.278 N 
ATOM     22  C   UNK d   1       0.040  -2.008   0.464  0.00  0.00     0.071 C 
ATOM     23  N   UNK d   1       2.365  -1.053  -2.092  0.00  0.00    -0.184 NA
ATOM     24  C   UNK d   1       1.501  -3.360  -1.853  0.00  0.00     0.179 C 
ATOM     25  C   UNK d   1       2.234   0.124  -1.504  0.00  0.00     0.154 A 
ENDBRANCH   7  19
TORSDOF 2
