# created with PyMOL 2.3.2
@<TRIPOS>MOLECULE
211
33 36 1                 
SMALL
USER_CHARGES
@<TRIPOS>ATOM
1	  Br	-0.956	-5.748	0.659	Br	1	UNK0	0.000	
2	   C	-1.293	-4.016	1.389	C.2	1	UNK0	0.000	
3	   C	-1.118	-2.911	0.619	C.2	1	UNK0	0.000	
4	   C	-1.334	-1.610	1.047	C.2	1	UNK0	0.000	
5	   C	-1.754	-1.461	2.349	C.2	1	UNK0	0.000	
6	   C	-1.943	-2.577	3.168	C.2	1	UNK0	0.000	
7	   C	-1.715	-3.852	2.694	C.2	1	UNK0	0.000	
8	   N	-1.128	-0.473	0.177	N.pl3	1	UNK0	0.000	
9	   C	-0.368	0.691	0.469	C.2	1	UNK0	0.000	
10	   O	-0.144	1.141	1.653	O.2	1	UNK0	0.000	
11	   C	0.109	1.279	-0.791	C.3	1	UNK0	0.000	
12	   C	1.475	0.736	-1.077	C.3	1	UNK0	0.000	
13	   O	1.136	-0.603	-1.400	O.3	1	UNK0	0.000	
14	   C	0.314	-0.290	-2.515	C.3	1	UNK0	0.000	
15	   C	-0.718	0.599	-1.846	C.3	1	UNK0	0.000	
16	   C	-1.646	-0.300	-1.131	C.2	1	UNK0	0.000	
17	   O	-2.694	-0.808	-1.609	O.2	1	UNK0	0.000	
18	   C	1.265	0.518	-3.312	C.2	1	UNK0	0.000	
19	   C	2.019	1.156	-2.397	C.2	1	UNK0	0.000	
20	   C	2.448	0.842	0.035	C.3	1	UNK0	0.000	
21	   O	2.715	2.192	0.269	O.3	1	UNK0	0.000	
22	   H	-0.783	-3.043	-0.416	 H	1	UNK0	0.000	
23	   H	-1.943	-0.486	2.757	 H	1	UNK0	0.000	
24	   H	-2.273	-2.493	4.193	 H	1	UNK0	0.000	
25	   H	-1.844	-4.742	3.279	 H	1	UNK0	0.000	
26	   H	0.053	2.382	-0.827	 H	1	UNK0	0.000	
27	   H	-0.087	-1.159	-3.004	 H	1	UNK0	0.000	
28	   H	-1.216	1.289	-2.541	 H	1	UNK0	0.000	
29	   H	1.364	0.603	-4.386	 H	1	UNK0	0.000	
30	   H	2.844	1.829	-2.617	 H	1	UNK0	0.000	
31	   H	2.059	0.439	0.992	 H	1	UNK0	0.000	
32	   H	3.391	0.335	-0.185	 H	1	UNK0	0.000	
33	   H	3.691	2.342	0.337	 H	1	UNK0	0.000	
@<TRIPOS>BOND
1 1 2 1
2 2 3 2
3 2 7 1
4 3 4 1
5 4 5 2
6 4 8 1
7 5 6 1
8 6 7 2
9 8 9 1
10 8 16 1
11 9 10 2
12 9 11 1
13 11 12 1
14 11 15 1
15 12 13 1
16 12 19 1
17 12 20 1
18 13 14 1
19 14 15 1
20 14 18 1
21 15 16 1
22 16 17 2
23 18 19 2
24 20 21 1
25 3 22 1
26 5 23 1
27 6 24 1
28 7 25 1
29 11 26 1
30 14 27 1
31 15 28 1
32 18 29 1
33 19 30 1
34 20 31 1
35 20 32 1
36 21 33 1
@<TRIPOS>SUBSTRUCTURE
1	UNK0	1	GROUP	1 ****	UNK
