REMARK  3 active torsions:
REMARK  status: ('A' for Active; 'I' for Inactive)
REMARK    1  A    between atoms: C_4  and  N_8 
REMARK    2  A    between atoms: C_12  and  C_20 
REMARK    3  A    between atoms: C_20  and  O_21 
ROOT
ATOM      1  N   UNK d   1      -1.128  -0.473   0.177  0.00  0.00    -0.252 N 
ATOM      2  C   UNK d   1      -0.368   0.691   0.469  0.00  0.00     0.239 C 
ATOM      3  O   UNK d   1      -0.144   1.141   1.653  0.00  0.00    -0.272 OA
ATOM      4  C   UNK d   1       0.109   1.279  -0.791  0.00  0.00     0.135 C 
ATOM      5  C   UNK d   1       1.475   0.736  -1.077  0.00  0.00     0.113 C 
ATOM      6  O   UNK d   1       1.136  -0.603  -1.400  0.00  0.00    -0.363 OA
ATOM      7  C   UNK d   1       0.314  -0.290  -2.515  0.00  0.00     0.159 C 
ATOM      8  C   UNK d   1      -0.718   0.599  -1.846  0.00  0.00     0.128 C 
ATOM      9  C   UNK d   1      -1.646  -0.300  -1.131  0.00  0.00     0.239 C 
ATOM     10  O   UNK d   1      -2.694  -0.808  -1.609  0.00  0.00    -0.272 OA
ATOM     11  C   UNK d   1       1.265   0.518  -3.312  0.00  0.00     0.005 C 
ATOM     12  C   UNK d   1       2.019   1.156  -2.397  0.00  0.00     0.012 C 
ENDROOT
BRANCH   1  13
ATOM     13  C   UNK d   1      -1.334  -1.610   1.047  0.00  0.00     0.046 A 
ATOM     14  C   UNK d   1      -1.118  -2.911   0.619  0.00  0.00     0.049 A 
ATOM     15  C   UNK d   1      -1.293  -4.016   1.389  0.00  0.00     0.013 A 
ATOM     16 Br   UNK d   1      -0.956  -5.748   0.659  0.00  0.00    -0.051 Br
ATOM     17  C   UNK d   1      -1.715  -3.852   2.694  0.00  0.00     0.019 A 
ATOM     18  C   UNK d   1      -1.943  -2.577   3.168  0.00  0.00     0.004 A 
ATOM     19  C   UNK d   1      -1.754  -1.461   2.349  0.00  0.00     0.030 A 
ENDBRANCH   1  13
BRANCH   5  20
ATOM     20  C   UNK d   1       2.448   0.842   0.035  0.00  0.00     0.207 C 
BRANCH  20  21
ATOM     21  O   UNK d   1       2.715   2.192   0.269  0.00  0.00    -0.398 OA
ATOM     22  H   UNK d   1       3.691   2.342   0.337  0.00  0.00     0.209 HD
ENDBRANCH  20  21
ENDBRANCH   5  20
TORSDOF 3
