REMARK  2 active torsions:
REMARK  status: ('A' for Active; 'I' for Inactive)
REMARK    1  A    between atoms: C_4  and  N_8 
REMARK    2  A    between atoms: C_14  and  C_18 
ROOT
ATOM      1  N   UNK d   1      -1.005   1.482  -2.526  0.00  0.00    -0.246 N 
ATOM      2  C   UNK d   1      -2.245   0.843  -2.151  0.00  0.00     0.268 C 
ATOM      3  O   UNK d   1      -2.953   0.093  -2.832  0.00  0.00    -0.269 OA
ATOM      4  C   UNK d   1      -2.551   1.247  -0.748  0.00  0.00     0.285 C 
ATOM      5  O   UNK d   1      -3.148   0.258   0.012  0.00  0.00    -0.260 OA
ATOM      6  N   UNK d   1      -2.680   0.556   1.270  0.00  0.00    -0.264 N 
ATOM      7  C   UNK d   1      -1.280   0.825   1.075  0.00  0.00     0.083 C 
ATOM      8  C   UNK d   1      -1.155   1.253  -0.158  0.00  0.00     0.080 C 
ATOM      9  C   UNK d   1      -0.331   1.735  -1.273  0.00  0.00     0.266 C 
ATOM     10  O   UNK d   1       0.770   2.270  -1.105  0.00  0.00    -0.267 OA
ATOM     11  H   UNK d   1      -3.187   0.587   2.161  0.00  0.00     0.194 HD
ENDROOT
BRANCH   1  12
ATOM     12  C   UNK d   1      -0.587   1.776  -3.844  0.00  0.00     0.047 A 
ATOM     13  C   UNK d   1      -1.458   1.618  -4.898  0.00  0.00     0.049 A 
ATOM     14  C   UNK d   1      -1.068   1.896  -6.212  0.00  0.00     0.013 A 
ATOM     15 Br   UNK d   1      -2.293   1.667  -7.650  0.00  0.00    -0.051 Br
ATOM     16  C   UNK d   1       0.202   2.339  -6.499  0.00  0.00     0.019 A 
ATOM     17  C   UNK d   1       1.076   2.498  -5.445  0.00  0.00     0.004 A 
ATOM     18  C   UNK d   1       0.681   2.218  -4.129  0.00  0.00     0.030 A 
ENDBRANCH   1  12
BRANCH   7  19
ATOM     19  C   UNK d   1      -0.197   0.663   2.007  0.00  0.00     0.036 A 
ATOM     20  C   UNK d   1      -0.312   1.000   3.354  0.00  0.00     0.127 A 
ATOM     21  N   UNK d   1       0.845   0.730   3.985  0.00  0.00    -0.284 N 
ATOM     22  N   UNK d   1       1.653   0.241   3.060  0.00  0.00    -0.177 NA
ATOM     23  C   UNK d   1       1.137   0.943   5.412  0.00  0.00     0.179 C 
ATOM     24  C   UNK d   1       1.082   0.178   1.859  0.00  0.00     0.065 A 
ATOM     25  C   UNK d   1       1.676  -0.324   0.574  0.00  0.00     0.073 C 
ENDBRANCH   7  19
TORSDOF 2
