REMARK  5 active torsions:
REMARK  status: ('A' for Active; 'I' for Inactive)
REMARK    1  A    between atoms: C_4  and  N_8 
REMARK    2  A    between atoms: C_10  and  C_14 
REMARK       I    between atoms: C_14  and  N_16 
REMARK    3  A    between atoms: N_19  and  C_22 
REMARK    4  A    between atoms: C_22  and  C_23 
REMARK    5  A    between atoms: C_23  and  N_24 
ROOT
ATOM      1  C   UNK d   1       0.215   1.710  -0.792  0.00  0.00     0.226 C 
ATOM      2  O   UNK d   1      -0.930   2.020  -1.206  0.00  0.00    -0.273 OA
ATOM      3  N   UNK d   1       0.609   1.935   0.544  0.00  0.00    -0.348 N 
ATOM      4  C   UNK d   1       1.926   1.587   1.059  0.00  0.00     0.156 C 
ATOM      5  C   UNK d   1       1.810   1.302   2.551  0.00  0.00     0.292 C 
ATOM      6  N   UNK d   1       0.493   0.831   2.932  0.00  0.00     0.093 N 
ATOM      7  C   UNK d   1      -0.444   1.888   2.780  0.00  0.00     0.292 C 
ATOM      8  C   UNK d   1      -0.373   2.550   1.446  0.00  0.00     0.156 C 
ENDROOT
BRANCH   1   9
ATOM      9  C   UNK d   1       1.142   1.104  -1.727  0.00  0.00     0.105 C 
ATOM     10  C   UNK d   1       0.501   0.848  -3.107  0.00  0.00     0.146 C 
ATOM     11  N   UNK d   1       1.693   0.324  -3.757  0.00  0.00    -0.317 N 
ATOM     12  C   UNK d   1       2.700   1.260  -3.389  0.00  0.00     0.225 C 
ATOM     13  C   UNK d   1       2.251   2.047  -2.207  0.00  0.00     0.119 C 
ATOM     14  O   UNK d   1       3.799   1.400  -3.973  0.00  0.00    -0.273 OA
BRANCH  11  15
ATOM     15  C   UNK d   1       1.732  -0.852  -4.540  0.00  0.00     0.038 A 
ATOM     16  C   UNK d   1       0.814  -1.032  -5.558  0.00  0.00     0.048 A 
ATOM     17  C   UNK d   1       0.796  -2.169  -6.358  0.00  0.00     0.013 A 
ATOM     18 Br   UNK d   1      -0.501  -2.317  -7.723  0.00  0.00    -0.051 Br
ATOM     19  C   UNK d   1       1.742  -3.165  -6.120  0.00  0.00     0.019 A 
ATOM     20  C   UNK d   1       2.676  -3.029  -5.116  0.00  0.00     0.004 A 
ATOM     21  C   UNK d   1       2.637  -1.875  -4.361  0.00  0.00     0.030 A 
ENDBRANCH  11  15
ENDBRANCH   1   9
BRANCH   6  22
ATOM     22  C   UNK d   1       0.169  -0.417   2.338  0.00  0.00     0.292 C 
BRANCH  22  23
ATOM     23  C   UNK d   1      -1.147  -0.993   2.795  0.00  0.00     0.159 C 
BRANCH  23  24
ATOM     24  N   UNK d   1      -1.218  -1.243   4.206  0.00  0.00    -0.348 N 
ATOM     25  C   UNK d   1      -1.641  -0.428   5.174  0.00  0.00     0.209 A 
ATOM     26  N   UNK d   1      -1.536  -1.052   6.367  0.00  0.00    -0.255 NA
ATOM     27  C   UNK d   1      -1.041  -2.277   6.155  0.00  0.00     0.135 A 
ATOM     28  C   UNK d   1      -0.845  -2.386   4.798  0.00  0.00     0.111 A 
ENDBRANCH  23  24
ENDBRANCH  22  23
ENDBRANCH   6  22
TORSDOF 5
