# created with PyMOL 2.3.2
@<TRIPOS>MOLECULE
219
45 48 1                 
SMALL
USER_CHARGES
@<TRIPOS>ATOM
1	  Br	-3.743	2.558	-2.455	Br	1	UNK0	0.000	
2	   C	-3.395	2.325	-0.592	C.2	1	UNK0	0.000	
3	   C	-2.123	2.304	-0.089	C.2	1	UNK0	0.000	
4	   C	-1.838	2.134	1.278	C.2	1	UNK0	0.000	
5	   C	-2.972	1.986	2.102	C.2	1	UNK0	0.000	
6	   C	-4.250	2.007	1.600	C.2	1	UNK0	0.000	
7	   C	-4.466	2.177	0.247	C.2	1	UNK0	0.000	
8	   O	-0.623	2.124	1.686	O.3	1	UNK0	0.000	
9	   C	0.569	2.101	2.187	C.3	1	UNK0	0.000	
10	   C	0.866	0.773	2.901	C.3	1	UNK0	0.000	
11	   N	0.769	-0.321	1.983	N.pl3	1	UNK0	0.000	
12	   C	0.996	-1.671	2.368	C.2	1	UNK0	0.000	
13	   O	1.289	-1.839	3.603	O.2	1	UNK0	0.000	
14	   C	0.917	-2.836	1.463	C.3	1	UNK0	0.000	
15	   N	0.581	-2.518	0.102	N.pl3	1	UNK0	0.000	
16	   C	1.585	-2.205	-0.878	C.2	1	UNK0	0.000	
17	   O	2.780	-1.873	-0.677	O.2	1	UNK0	0.000	
18	   C	0.971	-2.338	-2.199	C.3	1	UNK0	0.000	
19	   C	-0.493	-2.765	-1.972	C.3	1	UNK0	0.000	
20	   C	-1.326	-1.839	-2.786	C.3	1	UNK0	0.000	
21	   C	-0.340	-1.484	-3.919	C.3	1	UNK0	0.000	
22	   C	0.762	-1.043	-2.935	C.3	1	UNK0	0.000	
23	   C	-0.064	-0.138	-2.066	C.2	1	UNK0	0.000	
24	   C	-1.335	-0.525	-2.096	C.2	1	UNK0	0.000	
25	   C	-0.704	-2.464	-0.532	C.2	1	UNK0	0.000	
26	   O	-1.775	-2.208	0.045	O.2	1	UNK0	0.000	
27	   H	-1.266	2.422	-0.757	 H	1	UNK0	0.000	
28	   H	-2.767	1.856	3.146	 H	1	UNK0	0.000	
29	   H	-5.111	1.893	2.238	 H	1	UNK0	0.000	
30	   H	-5.474	2.191	-0.131	 H	1	UNK0	0.000	
31	   H	1.360	2.144	1.357	 H	1	UNK0	0.000	
32	   H	0.866	2.944	2.893	 H	1	UNK0	0.000	
33	   H	1.836	0.823	3.426	 H	1	UNK0	0.000	
34	   H	0.082	0.722	3.713	 H	1	UNK0	0.000	
35	   H	0.522	-0.126	0.990	 H	1	UNK0	0.000	
36	   H	0.087	-3.488	1.872	 H	1	UNK0	0.000	
37	   H	1.864	-3.453	1.520	 H	1	UNK0	0.000	
38	   H	1.488	-3.069	-2.866	 H	1	UNK0	0.000	
39	   H	-0.630	-3.835	-2.201	 H	1	UNK0	0.000	
40	   H	-2.268	-2.194	-3.135	 H	1	UNK0	0.000	
41	   H	-0.049	-2.358	-4.499	 H	1	UNK0	0.000	
42	   H	-0.696	-0.626	-4.503	 H	1	UNK0	0.000	
43	   H	1.610	-0.600	-3.399	 H	1	UNK0	0.000	
44	   H	0.271	0.712	-1.484	 H	1	UNK0	0.000	
45	   H	-2.240	-0.063	-1.733	 H	1	UNK0	0.000	
@<TRIPOS>BOND
1 1 2 1
2 2 3 2
3 2 7 1
4 3 4 1
5 4 5 2
6 4 8 1
7 5 6 1
8 6 7 2
9 8 9 1
10 9 10 1
11 10 11 1
12 11 12 1
13 12 13 2
14 12 14 1
15 14 15 1
16 15 16 1
17 15 25 1
18 16 17 2
19 16 18 1
20 18 19 1
21 18 22 1
22 19 20 1
23 19 25 1
24 20 21 1
25 20 24 1
26 21 22 1
27 22 23 1
28 23 24 2
29 25 26 2
30 3 27 1
31 5 28 1
32 6 29 1
33 7 30 1
34 9 31 1
35 9 32 1
36 10 33 1
37 10 34 1
38 11 35 1
39 14 36 1
40 14 37 1
41 18 38 1
42 19 39 1
43 20 40 1
44 21 41 1
45 21 42 1
46 22 43 1
47 23 44 1
48 24 45 1
@<TRIPOS>SUBSTRUCTURE
1	UNK0	1	GROUP	1 ****	UNK
