REMARK  6 active torsions:
REMARK  status: ('A' for Active; 'I' for Inactive)
REMARK    1  A    between atoms: C_4  and  O_8 
REMARK    2  A    between atoms: O_8  and  C_9 
REMARK    3  A    between atoms: C_9  and  C_10 
REMARK    4  A    between atoms: C_10  and  N_11 
REMARK       I    between atoms: N_11  and  C_12 
REMARK    5  A    between atoms: C_12  and  C_14 
REMARK    6  A    between atoms: C_14  and  N_15 
ROOT
ATOM      1  N   UNK d   1       0.769  -0.321   1.983  0.00  0.00    -0.358 N 
ATOM      2  C   UNK d   1       0.996  -1.671   2.368  0.00  0.00     0.236 C 
ATOM      3  O   UNK d   1       1.289  -1.839   3.603  0.00  0.00    -0.272 OA
ATOM      4  H   UNK d   1       0.522  -0.126   0.990  0.00  0.00     0.162 HD
ENDROOT
BRANCH   2   5
ATOM      5  C   UNK d   1       0.917  -2.836   1.463  0.00  0.00     0.237 C 
BRANCH   5   6
ATOM      6  N   UNK d   1       0.581  -2.518   0.102  0.00  0.00    -0.279 N 
ATOM      7  C   UNK d   1       1.585  -2.205  -0.878  0.00  0.00     0.232 C 
ATOM      8  O   UNK d   1       2.780  -1.873  -0.677  0.00  0.00    -0.272 OA
ATOM      9  C   UNK d   1       0.971  -2.338  -2.199  0.00  0.00     0.100 C 
ATOM     10  C   UNK d   1      -0.493  -2.765  -1.972  0.00  0.00     0.100 C 
ATOM     11  C   UNK d   1       0.762  -1.043  -2.935  0.00  0.00     0.022 C 
ATOM     12  C   UNK d   1      -1.326  -1.839  -2.786  0.00  0.00     0.022 C 
ATOM     13  C   UNK d   1      -0.704  -2.464  -0.532  0.00  0.00     0.232 C 
ATOM     14  C   UNK d   1      -0.340  -1.484  -3.919  0.00  0.00     0.018 C 
ATOM     15  C   UNK d   1      -1.335  -0.525  -2.096  0.00  0.00    -0.025 C 
ATOM     16  C   UNK d   1      -0.064  -0.138  -2.066  0.00  0.00    -0.025 C 
ATOM     17  O   UNK d   1      -1.775  -2.208   0.045  0.00  0.00    -0.272 OA
ENDBRANCH   5   6
ENDBRANCH   2   5
BRANCH   1  18
ATOM     18  C   UNK d   1       0.866   0.773   2.901  0.00  0.00     0.149 C 
BRANCH  18  19
ATOM     19  C   UNK d   1       0.569   2.101   2.187  0.00  0.00     0.195 C 
BRANCH  19  20
ATOM     20  O   UNK d   1      -0.623   2.124   1.686  0.00  0.00    -0.350 OA
BRANCH  20  21
ATOM     21  C   UNK d   1      -1.838   2.134   1.278  0.00  0.00     0.070 A 
ATOM     22  C   UNK d   1      -2.123   2.304  -0.089  0.00  0.00     0.055 A 
ATOM     23  C   UNK d   1      -3.395   2.325  -0.592  0.00  0.00     0.013 A 
ATOM     24 Br   UNK d   1      -3.743   2.558  -2.455  0.00  0.00    -0.051 Br
ATOM     25  C   UNK d   1      -4.466   2.177   0.247  0.00  0.00     0.019 A 
ATOM     26  C   UNK d   1      -4.250   2.007   1.600  0.00  0.00     0.004 A 
ATOM     27  C   UNK d   1      -2.972   1.986   2.102  0.00  0.00     0.037 A 
ENDBRANCH  20  21
ENDBRANCH  19  20
ENDBRANCH  18  19
ENDBRANCH   1  18
TORSDOF 6
