REMARK  4 active torsions:
REMARK  status: ('A' for Active; 'I' for Inactive)
REMARK    1  A    between atoms: C_5  and  C_8 
REMARK    2  A    between atoms: C_8  and  C_10 
REMARK    3  A    between atoms: C_10  and  N_11 
REMARK    4  A    between atoms: C_15  and  N_16 
ROOT
ATOM      1  N   UNK d   1       0.300   0.264  -0.864  0.00  0.00    -0.165 N 
ATOM      2  C   UNK d   1       0.550   1.359  -1.601  0.00  0.00     0.167 A 
ATOM      3  C   UNK d   1       1.430   1.045  -2.619  0.00  0.00     0.185 A 
ATOM      4  N   UNK d   1       1.689  -0.259  -2.463  0.00  0.00    -0.044 NA
ATOM      5  C   UNK d   1       1.019  -0.758  -1.409  0.00  0.00     0.708 A 
ATOM      6  N   UNK d   1       1.823   1.993  -3.489  0.00  0.00    -0.286 N 
ATOM      7  C   UNK d   1       1.369   3.254  -3.381  0.00  0.00     0.330 A 
ATOM      8  O   UNK d   1       1.710   4.169  -4.171  0.00  0.00    -0.246 OA
ATOM      9  N   UNK d   1       0.501   3.577  -2.383  0.00  0.00    -0.273 N 
ATOM     10  C   UNK d   1       0.079   2.665  -1.489  0.00  0.00     0.280 A 
ATOM     11  O   UNK d   1      -0.732   3.007  -0.568  0.00  0.00    -0.265 OA
ATOM     12  C   UNK d   1       2.745   1.696  -4.566  0.00  0.00     0.163 C 
ATOM     13  H   UNK d   1       0.171   4.569  -2.335  0.00  0.00     0.173 HD
ENDROOT
BRANCH   1  14
ATOM     14  C   UNK d   1      -0.564   0.162   0.278  0.00  0.00     0.232 C 
BRANCH  14  15
ATOM     15  C   UNK d   1       0.133   0.451   1.570  0.00  0.00     0.178 C 
ATOM     16  O   UNK d   1       1.333   0.770   1.586  0.00  0.00    -0.290 OA
BRANCH  15  17
ATOM     17  C   UNK d   1      -0.583   0.365   2.841  0.00  0.00     0.011 A 
ATOM     18  C   UNK d   1       0.040   0.620   4.038  0.00  0.00     0.016 A 
ATOM     19  C   UNK d   1      -0.641   0.535   5.241  0.00  0.00     0.020 A 
ATOM     20  C   UNK d   1      -1.983   0.187   5.293  0.00  0.00     0.011 A 
ATOM     21 Br   UNK d   1      -2.881   0.082   6.966  0.00  0.00    -0.051 Br
ATOM     22  C   UNK d   1      -2.610  -0.070   4.094  0.00  0.00     0.020 A 
ATOM     23  C   UNK d   1      -1.921   0.019   2.906  0.00  0.00     0.016 A 
ENDBRANCH  15  17
ENDBRANCH  14  15
ENDBRANCH   1  14
BRANCH   5  24
ATOM     24  N   UNK d   1       1.009  -2.082  -0.908  0.00  0.00    -0.212 N 
ATOM     25  C   UNK d   1       2.027  -2.484   0.008  0.00  0.00     0.171 C 
ATOM     26  C   UNK d   1       1.794  -3.732   0.775  0.00  0.00     0.292 C 
ATOM     27  N   UNK d   1       0.904  -4.679   0.171  0.00  0.00     0.087 N 
ATOM     28  C   UNK d   1      -0.316  -3.982  -0.187  0.00  0.00     0.292 C 
ATOM     29  C   UNK d   1       1.483  -5.393  -0.931  0.00  0.00     0.310 C 
ATOM     30  C   UNK d   1      -0.014  -2.995  -1.316  0.00  0.00     0.171 C 
ENDBRANCH   5  24
TORSDOF 4
