# created with PyMOL 2.3.2
@<TRIPOS>MOLECULE
231
58 61 1                 
SMALL
USER_CHARGES
@<TRIPOS>ATOM
1	  Br	-1.522	4.121	-6.672	Br	1	UNK0	0.000	
2	   C	-1.224	3.635	-4.862	C.2	1	UNK0	0.000	
3	   C	-1.160	4.625	-3.911	C.2	1	UNK0	0.000	
4	   C	-0.945	4.288	-2.600	C.2	1	UNK0	0.000	
5	   C	-0.789	2.957	-2.196	C.2	1	UNK0	0.000	
6	   C	-0.864	2.012	-3.199	C.2	1	UNK0	0.000	
7	   C	-1.079	2.314	-4.531	C.2	1	UNK0	0.000	
8	   C	-0.569	2.626	-0.800	C.2	1	UNK0	0.000	
9	   O	-0.544	3.550	0.039	O.2	1	UNK0	0.000	
10	   C	-0.382	1.243	-0.402	C.3	1	UNK0	0.000	
11	   C	-0.196	1.020	1.079	C.3	1	UNK0	0.000	
12	   N	0.293	-0.339	1.123	N.pl3	1	UNK0	0.000	
13	   C	1.088	-0.516	-0.045	C.2	1	UNK0	0.000	
14	   O	1.811	-1.527	-0.305	O.2	1	UNK0	0.000	
15	   C	0.927	0.678	-0.897	C.2	1	UNK0	0.000	
16	   O	1.695	1.081	-1.785	O.2	1	UNK0	0.000	
17	   C	0.072	-1.371	2.105	C.3	1	UNK0	0.000	
18	   C	-1.129	-2.221	1.821	C.3	1	UNK0	0.000	
19	   N	-1.106	-2.919	0.594	N.4	1	UNK0	0.000	
20	   C	-2.455	-3.435	0.339	C.3	1	UNK0	0.000	
21	   C	-2.826	-4.549	1.261	C.3	1	UNK0	0.000	
22	   O	-1.775	-5.098	1.954	O.3	1	UNK0	0.000	
23	   C	-0.683	-5.281	1.142	C.3	1	UNK0	0.000	
24	   C	-0.203	-4.010	0.495	C.3	1	UNK0	0.000	
25	   C	0.669	1.991	1.731	C.2	1	UNK0	0.000	
26	   C	0.167	2.965	2.606	C.2	1	UNK0	0.000	
27	   C	0.994	3.880	3.224	C.2	1	UNK0	0.000	
28	   C	2.359	3.870	3.004	C.2	1	UNK0	0.000	
29	   C	2.874	2.920	2.148	C.2	1	UNK0	0.000	
30	   C	2.030	2.008	1.534	C.2	1	UNK0	0.000	
31	   O	3.214	4.780	3.613	O.2	1	UNK0	0.000	
32	   O	0.505	4.844	4.088	O.3	1	UNK0	0.000	
33	   C	-0.855	4.981	4.412	C.3	1	UNK0	0.000	
34	   H	-1.280	5.645	-4.225	 H	1	UNK0	0.000	
35	   H	-0.886	5.026	-1.814	 H	1	UNK0	0.000	
36	   H	-0.758	0.961	-2.970	 H	1	UNK0	0.000	
37	   H	-1.135	1.568	-5.295	 H	1	UNK0	0.000	
38	   H	-1.164	0.551	-0.781	 H	1	UNK0	0.000	
39	   H	-1.209	1.114	1.528	 H	1	UNK0	0.000	
40	   H	-0.130	-0.841	3.075	 H	1	UNK0	0.000	
41	   H	0.931	-2.020	2.274	 H	1	UNK0	0.000	
42	   H	-2.075	-1.605	1.850	 H	1	UNK0	0.000	
43	   H	-1.234	-2.937	2.662	 H	1	UNK0	0.000	
44	   H	-0.916	-2.263	-0.214	 H	1	UNK0	0.000	
45	   H	-3.203	-2.621	0.303	 H	1	UNK0	0.000	
46	   H	-2.414	-3.865	-0.699	 H	1	UNK0	0.000	
47	   H	-3.546	-4.147	2.016	 H	1	UNK0	0.000	
48	   H	-3.328	-5.398	0.713	 H	1	UNK0	0.000	
49	   H	0.134	-5.774	1.746	 H	1	UNK0	0.000	
50	   H	-0.965	-6.065	0.387	 H	1	UNK0	0.000	
51	   H	0.820	-3.811	0.863	 H	1	UNK0	0.000	
52	   H	-0.079	-4.243	-0.604	 H	1	UNK0	0.000	
53	   H	-0.908	2.974	2.780	 H	1	UNK0	0.000	
54	   H	3.943	2.923	1.983	 H	1	UNK0	0.000	
55	   H	2.474	1.296	0.886	 H	1	UNK0	0.000	
56	   H	-1.504	4.992	3.497	 H	1	UNK0	0.000	
57	   H	-0.999	5.977	4.883	 H	1	UNK0	0.000	
58	   H	-1.231	4.224	5.110	 H	1	UNK0	0.000	
@<TRIPOS>BOND
1 1 2 1
2 2 3 2
3 2 7 1
4 3 4 1
5 4 5 2
6 5 6 1
7 5 8 1
8 6 7 2
9 8 9 2
10 8 10 1
11 10 11 1
12 10 15 1
13 11 12 1
14 11 25 1
15 12 13 1
16 12 17 1
17 13 14 2
18 13 15 1
19 15 16 2
20 17 18 1
21 18 19 1
22 19 20 1
23 19 24 1
24 20 21 1
25 21 22 1
26 22 23 1
27 23 24 1
28 25 26 2
29 25 30 1
30 26 27 1
31 27 28 2
32 27 32 1
33 28 29 1
34 28 31 1
35 29 30 2
36 32 33 1
37 3 34 1
38 4 35 1
39 6 36 1
40 7 37 1
41 10 38 1
42 11 39 1
43 17 40 1
44 17 41 1
45 18 42 1
46 18 43 1
47 19 44 1
48 20 45 1
49 20 46 1
50 21 47 1
51 21 48 1
52 23 49 1
53 23 50 1
54 24 51 1
55 24 52 1
56 26 53 1
57 29 54 1
58 30 55 1
59 33 56 1
60 33 57 1
61 33 58 1
@<TRIPOS>SUBSTRUCTURE
1	UNK0	1	GROUP	1 ****	UNK
