REMARK  7 active torsions:
REMARK  status: ('A' for Active; 'I' for Inactive)
REMARK    1  A    between atoms: C_5  and  C_8 
REMARK    2  A    between atoms: C_8  and  C_10 
REMARK    3  A    between atoms: C_11  and  C_25 
REMARK    4  A    between atoms: N_12  and  C_17 
REMARK    5  A    between atoms: C_17  and  C_18 
REMARK    6  A    between atoms: C_18  and  N_19 
REMARK    7  A    between atoms: C_27  and  O_32 
ROOT
ATOM      1  C   UNK d   1      -0.382   1.243  -0.402  0.00  0.00     0.167 C 
ATOM      2  C   UNK d   1      -0.196   1.020   1.079  0.00  0.00     0.140 C 
ATOM      3  N   UNK d   1       0.293  -0.339   1.123  0.00  0.00    -0.334 N 
ATOM      4  C   UNK d   1       1.088  -0.516  -0.045  0.00  0.00     0.291 C 
ATOM      5  O   UNK d   1       1.811  -1.527  -0.305  0.00  0.00    -0.264 OA
ATOM      6  C   UNK d   1       0.927   0.678  -0.897  0.00  0.00     0.230 C 
ATOM      7  O   UNK d   1       1.695   1.081  -1.785  0.00  0.00    -0.286 OA
ENDROOT
BRANCH   1   8
ATOM      8  C   UNK d   1      -0.569   2.626  -0.800  0.00  0.00     0.173 C 
ATOM      9  O   UNK d   1      -0.544   3.550   0.039  0.00  0.00    -0.291 OA
BRANCH   8  10
ATOM     10  C   UNK d   1      -0.789   2.957  -2.196  0.00  0.00     0.011 A 
ATOM     11  C   UNK d   1      -0.945   4.288  -2.600  0.00  0.00     0.016 A 
ATOM     12  C   UNK d   1      -1.160   4.625  -3.911  0.00  0.00     0.020 A 
ATOM     13  C   UNK d   1      -1.224   3.635  -4.862  0.00  0.00     0.011 A 
ATOM     14 Br   UNK d   1      -1.522   4.121  -6.672  0.00  0.00    -0.051 Br
ATOM     15  C   UNK d   1      -1.079   2.314  -4.531  0.00  0.00     0.020 A 
ATOM     16  C   UNK d   1      -0.864   2.012  -3.199  0.00  0.00     0.016 A 
ENDBRANCH   8  10
ENDBRANCH   1   8
BRANCH   2  17
ATOM     17  C   UNK d   1       0.669   1.991   1.731  0.00  0.00    -0.031 A 
ATOM     18  C   UNK d   1       0.167   2.965   2.606  0.00  0.00     0.049 A 
ATOM     19  C   UNK d   1       0.994   3.880   3.224  0.00  0.00     0.105 A 
ATOM     20  C   UNK d   1       2.359   3.870   3.004  0.00  0.00     0.140 A 
ATOM     21  C   UNK d   1       2.874   2.920   2.148  0.00  0.00     0.043 A 
ATOM     22  O   UNK d   1       3.214   4.780   3.613  0.00  0.00    -0.189 OA
ATOM     23  C   UNK d   1       2.030   2.008   1.534  0.00  0.00     0.012 A 
BRANCH  19  24
ATOM     24  O   UNK d   1       0.505   4.844   4.088  0.00  0.00    -0.353 OA
ATOM     25  C   UNK d   1      -0.855   4.981   4.412  0.00  0.00     0.210 C 
ENDBRANCH  19  24
ENDBRANCH   2  17
BRANCH   3  26
ATOM     26  C   UNK d   1       0.072  -1.371   2.105  0.00  0.00     0.154 C 
BRANCH  26  27
ATOM     27  C   UNK d   1      -1.129  -2.221   1.821  0.00  0.00     0.255 C 
BRANCH  27  28
ATOM     28  N   UNK d   1      -1.106  -2.919   0.594  0.00  0.00    -0.066 N 
ATOM     29  C   UNK d   1      -2.455  -3.435   0.339  0.00  0.00     0.261 C 
ATOM     30  C   UNK d   1      -2.826  -4.549   1.261  0.00  0.00     0.195 C 
ATOM     31  O   UNK d   1      -1.775  -5.098   1.954  0.00  0.00    -0.388 OA
ATOM     32  C   UNK d   1      -0.683  -5.281   1.142  0.00  0.00     0.195 C 
ATOM     33  C   UNK d   1      -0.203  -4.010   0.495  0.00  0.00     0.261 C 
ATOM     34  H   UNK d   1      -0.916  -2.263  -0.214  0.00  0.00     0.280 HD
ENDBRANCH  27  28
ENDBRANCH  26  27
ENDBRANCH   3  26
TORSDOF 7
