REMARK  3 active torsions:
REMARK  status: ('A' for Active; 'I' for Inactive)
REMARK    1  A    between atoms: C_5  and  C_8 
REMARK    2  A    between atoms: C_8  and  C_10 
REMARK    3  A    between atoms: N_21  and  C_24 
ROOT
ATOM      1  C   UNK d   1      -1.341   0.373   0.282  0.00  0.00     0.193 C 
ATOM      2  N   UNK d   1      -1.644   1.486   1.168  0.00  0.00    -0.283 N 
ATOM      3  N   UNK d   1      -1.885   1.670   2.514  0.00  0.00    -0.188 NA
ATOM      4  C   UNK d   1      -2.020   2.826   3.062  0.00  0.00     0.138 A 
ATOM      5  C   UNK d   1      -1.931   4.017   2.249  0.00  0.00     0.019 A 
ATOM      6  C   UNK d   1      -1.731   3.923   0.955  0.00  0.00     0.002 A 
ATOM      7  C   UNK d   1      -1.603   2.645   0.280  0.00  0.00     0.142 A 
ATOM      8  C   UNK d   1      -0.327   2.407  -0.447  0.00  0.00     0.122 C 
ATOM      9  C   UNK d   1      -0.092   0.893  -0.395  0.00  0.00     0.126 C 
ATOM     10  C   UNK d   1       1.107   0.750   0.428  0.00  0.00     0.234 C 
ATOM     11  O   UNK d   1       1.513  -0.324   0.952  0.00  0.00    -0.272 OA
ATOM     12  N   UNK d   1       1.737   2.011   0.543  0.00  0.00    -0.288 N 
ATOM     13  C   UNK d   1       0.839   3.049   0.172  0.00  0.00     0.234 C 
ATOM     14  O   UNK d   1       1.003   4.282   0.338  0.00  0.00    -0.272 OA
ENDROOT
BRANCH   1  15
ATOM     15  C   UNK d   1      -1.109  -0.866   1.037  0.00  0.00     0.184 C 
ATOM     16  O   UNK d   1      -1.117  -0.766   2.307  0.00  0.00    -0.290 OA
BRANCH  15  17
ATOM     17  C   UNK d   1      -0.877  -2.170   0.458  0.00  0.00     0.012 A 
ATOM     18  C   UNK d   1      -0.869  -2.385  -0.896  0.00  0.00     0.016 A 
ATOM     19  C   UNK d   1      -0.638  -3.648  -1.392  0.00  0.00     0.020 A 
ATOM     20  C   UNK d   1      -0.407  -4.745  -0.591  0.00  0.00     0.011 A 
ATOM     21 Br   UNK d   1      -0.093  -6.471  -1.344  0.00  0.00    -0.051 Br
ATOM     22  C   UNK d   1      -0.416  -4.525   0.769  0.00  0.00     0.020 A 
ATOM     23  C   UNK d   1      -0.646  -3.266   1.274  0.00  0.00     0.016 A 
ENDBRANCH  15  17
ENDBRANCH   1  15
BRANCH  12  24
ATOM     24  C   UNK d   1       3.097   2.239   0.972  0.00  0.00     0.130 C 
ATOM     25  C   UNK d   1       4.088   2.238  -0.152  0.00  0.00     0.027 C 
ENDBRANCH  12  24
TORSDOF 3
