# created with PyMOL 2.3.2
@<TRIPOS>MOLECULE
243
48 51 1                 
SMALL
USER_CHARGES
@<TRIPOS>ATOM
1	  Br	6.441	-4.402	-4.911	Br	1	UNK0	0.000	
2	   C	4.808	-3.542	-4.459	C.2	1	UNK0	0.000	
3	   C	4.503	-3.120	-3.181	C.2	1	UNK0	0.000	
4	   C	3.307	-2.498	-2.886	C.2	1	UNK0	0.000	
5	   C	2.351	-2.266	-3.853	C.2	1	UNK0	0.000	
6	   C	2.655	-2.687	-5.127	C.2	1	UNK0	0.000	
7	   C	3.843	-3.307	-5.432	C.2	1	UNK0	0.000	
8	   C	1.077	-1.604	-3.538	C.2	1	UNK0	0.000	
9	   O	0.279	-1.440	-4.522	O.2	1	UNK0	0.000	
10	   N	0.730	-1.170	-2.256	N.pl3	1	UNK0	0.000	
11	   C	-0.535	-0.527	-2.009	C.3	1	UNK0	0.000	
12	   C	-0.374	0.882	-1.493	C.3	1	UNK0	0.000	
13	   N	-0.401	0.740	-0.053	N.pl3	1	UNK0	0.000	
14	   C	-0.991	-0.538	0.309	C.3	1	UNK0	0.000	
15	   C	-1.251	-1.305	-0.940	C.3	1	UNK0	0.000	
16	   C	-0.021	-1.194	1.215	C.2	1	UNK0	0.000	
17	   O	0.305	-2.384	1.008	O.2	1	UNK0	0.000	
18	   N	0.504	-0.438	2.291	N.pl3	1	UNK0	0.000	
19	   C	0.467	1.005	2.351	C.3	1	UNK0	0.000	
20	   C	0.009	1.550	1.041	C.2	1	UNK0	0.000	
21	   O	-0.026	2.820	0.860	O.2	1	UNK0	0.000	
22	   C	-0.383	1.484	3.503	C.3	1	UNK0	0.000	
23	   C	-1.788	1.003	3.380	C.2	1	UNK0	0.000	
24	   C	-2.741	1.765	2.703	C.2	1	UNK0	0.000	
25	   C	-4.024	1.271	2.620	C.2	1	UNK0	0.000	
26	   C	-4.404	0.061	3.174	C.2	1	UNK0	0.000	
27	   C	-3.430	-0.654	3.831	C.2	1	UNK0	0.000	
28	   C	-2.131	-0.211	3.947	C.2	1	UNK0	0.000	
29	   H	5.266	-3.308	-2.420	 H	1	UNK0	0.000	
30	   H	3.147	-2.202	-1.878	 H	1	UNK0	0.000	
31	   H	1.940	-2.527	-5.915	 H	1	UNK0	0.000	
32	   H	4.078	-3.640	-6.450	 H	1	UNK0	0.000	
33	   H	1.378	-1.304	-1.462	 H	1	UNK0	0.000	
34	   H	-1.094	-0.463	-2.951	 H	1	UNK0	0.000	
35	   H	0.573	1.270	-1.879	 H	1	UNK0	0.000	
36	   H	-1.180	1.561	-1.796	 H	1	UNK0	0.000	
37	   H	-1.956	-0.351	0.825	 H	1	UNK0	0.000	
38	   H	-0.930	-2.352	-0.868	 H	1	UNK0	0.000	
39	   H	-2.333	-1.296	-1.178	 H	1	UNK0	0.000	
40	   H	0.940	-0.990	3.076	 H	1	UNK0	0.000	
41	   H	1.512	1.357	2.475	 H	1	UNK0	0.000	
42	   H	-0.373	2.586	3.580	 H	1	UNK0	0.000	
43	   H	0.036	1.022	4.419	 H	1	UNK0	0.000	
44	   H	-2.430	2.706	2.277	 H	1	UNK0	0.000	
45	   H	-4.788	1.857	2.090	 H	1	UNK0	0.000	
46	   H	-5.428	-0.278	3.077	 H	1	UNK0	0.000	
47	   H	-3.717	-1.614	4.274	 H	1	UNK0	0.000	
48	   H	-1.374	-0.778	4.464	 H	1	UNK0	0.000	
@<TRIPOS>BOND
1 1 2 1
2 2 3 2
3 2 7 1
4 3 4 1
5 4 5 2
6 5 6 1
7 5 8 1
8 6 7 2
9 8 9 2
10 8 10 1
11 10 11 1
12 11 12 1
13 11 15 1
14 12 13 1
15 13 14 1
16 13 20 1
17 14 15 1
18 14 16 1
19 16 17 2
20 16 18 1
21 18 19 1
22 19 20 1
23 19 22 1
24 20 21 2
25 22 23 1
26 23 24 2
27 23 28 1
28 24 25 1
29 25 26 2
30 26 27 1
31 27 28 2
32 3 29 1
33 4 30 1
34 6 31 1
35 7 32 1
36 10 33 1
37 11 34 1
38 12 35 1
39 12 36 1
40 14 37 1
41 15 38 1
42 15 39 1
43 18 40 1
44 19 41 1
45 22 42 1
46 22 43 1
47 24 44 1
48 25 45 1
49 26 46 1
50 27 47 1
51 28 48 1
@<TRIPOS>SUBSTRUCTURE
1	UNK0	1	GROUP	1 ****	UNK
