REMARK  4 active torsions:
REMARK  status: ('A' for Active; 'I' for Inactive)
REMARK    1  A    between atoms: C_5  and  C_8 
REMARK       I    between atoms: C_8  and  N_10 
REMARK    2  A    between atoms: N_10  and  C_11 
REMARK    3  A    between atoms: C_19  and  C_22 
REMARK    4  A    between atoms: C_22  and  C_23 
ROOT
ATOM      1  C   UNK d   1      -0.535  -0.527  -2.009  0.00  0.00     0.105 C 
ATOM      2  C   UNK d   1      -0.374   0.882  -1.493  0.00  0.00     0.152 C 
ATOM      3  N   UNK d   1      -0.401   0.740  -0.053  0.00  0.00    -0.335 N 
ATOM      4  C   UNK d   1      -0.991  -0.538   0.309  0.00  0.00     0.181 C 
ATOM      5  C   UNK d   1      -1.251  -1.305  -0.940  0.00  0.00     0.061 C 
ATOM      6  C   UNK d   1      -0.021  -1.194   1.215  0.00  0.00     0.241 C 
ATOM      7  O   UNK d   1       0.305  -2.384   1.008  0.00  0.00    -0.271 OA
ATOM      8  N   UNK d   1       0.504  -0.438   2.291  0.00  0.00    -0.346 N 
ATOM      9  C   UNK d   1       0.467   1.005   2.351  0.00  0.00     0.181 C 
ATOM     10  C   UNK d   1       0.009   1.550   1.041  0.00  0.00     0.243 C 
ATOM     11  O   UNK d   1      -0.026   2.820   0.860  0.00  0.00    -0.271 OA
ATOM     12  H   UNK d   1       0.940  -0.990   3.076  0.00  0.00     0.163 HD
ENDROOT
BRANCH   1  13
ATOM     13  N   UNK d   1       0.730  -1.170  -2.256  0.00  0.00    -0.351 N 
ATOM     14  C   UNK d   1       1.077  -1.604  -3.538  0.00  0.00     0.252 C 
ATOM     15  O   UNK d   1       0.279  -1.440  -4.522  0.00  0.00    -0.268 OA
ATOM     16  H   UNK d   1       1.378  -1.304  -1.462  0.00  0.00     0.163 HD
BRANCH  14  17
ATOM     17  C   UNK d   1       2.351  -2.266  -3.853  0.00  0.00     0.032 A 
ATOM     18  C   UNK d   1       3.307  -2.498  -2.886  0.00  0.00     0.018 A 
ATOM     19  C   UNK d   1       4.503  -3.120  -3.181  0.00  0.00     0.020 A 
ATOM     20  C   UNK d   1       4.808  -3.542  -4.459  0.00  0.00     0.011 A 
ATOM     21 Br   UNK d   1       6.441  -4.402  -4.911  0.00  0.00    -0.051 Br
ATOM     22  C   UNK d   1       3.843  -3.307  -5.432  0.00  0.00     0.020 A 
ATOM     23  C   UNK d   1       2.655  -2.687  -5.127  0.00  0.00     0.018 A 
ENDBRANCH  14  17
ENDBRANCH   1  13
BRANCH   9  24
ATOM     24  C   UNK d   1      -0.383   1.484   3.503  0.00  0.00     0.073 C 
BRANCH  24  25
ATOM     25  C   UNK d   1      -1.788   1.003   3.380  0.00  0.00    -0.056 A 
ATOM     26  C   UNK d   1      -2.741   1.765   2.703  0.00  0.00     0.007 A 
ATOM     27  C   UNK d   1      -4.024   1.271   2.620  0.00  0.00     0.001 A 
ATOM     28  C   UNK d   1      -4.404   0.061   3.174  0.00  0.00     0.000 A 
ATOM     29  C   UNK d   1      -3.430  -0.654   3.831  0.00  0.00     0.001 A 
ATOM     30  C   UNK d   1      -2.131  -0.211   3.947  0.00  0.00     0.007 A 
ENDBRANCH  24  25
ENDBRANCH   9  24
TORSDOF 4
