REMARK  2 active torsions:
REMARK  status: ('A' for Active; 'I' for Inactive)
REMARK    1  A    between atoms: C_5  and  C_8 
REMARK       I    between atoms: C_8  and  N_10 
REMARK    2  A    between atoms: N_10  and  C_11 
ROOT
ATOM      1  C   UNK d   1      -0.905   1.521  -1.362  0.00  0.00     0.105 C 
ATOM      2  C   UNK d   1      -0.349   2.405  -0.270  0.00  0.00     0.152 C 
ATOM      3  N   UNK d   1      -0.387   1.543   0.898  0.00  0.00    -0.335 N 
ATOM      4  C   UNK d   1      -1.427   0.549   0.719  0.00  0.00     0.181 C 
ATOM      5  C   UNK d   1      -1.934   0.653  -0.680  0.00  0.00     0.061 C 
ATOM      6  C   UNK d   1      -0.810  -0.768   1.019  0.00  0.00     0.243 C 
ATOM      7  O   UNK d   1      -0.963  -1.785   0.303  0.00  0.00    -0.271 OA
ATOM      8  N   UNK d   1       0.001  -0.914   2.170  0.00  0.00    -0.337 N 
ATOM      9  C   UNK d   1       0.721   0.196   2.759  0.00  0.00     0.179 C 
ATOM     10  C   UNK d   1       0.307   0.073   4.191  0.00  0.00     0.037 C 
ATOM     11  C   UNK d   1       0.359  -1.446   4.394  0.00  0.00     0.022 C 
ATOM     12  C   UNK d   1       0.305  -2.054   2.989  0.00  0.00     0.127 C 
ATOM     13  C   UNK d   1       0.346   1.480   2.115  0.00  0.00     0.243 C 
ATOM     14  O   UNK d   1       0.686   2.586   2.659  0.00  0.00    -0.271 OA
ENDROOT
BRANCH   1  15
ATOM     15  N   UNK d   1       0.074   0.669  -1.953  0.00  0.00    -0.351 N 
ATOM     16  C   UNK d   1       0.272   0.695  -3.357  0.00  0.00     0.252 C 
ATOM     17  O   UNK d   1      -0.412   1.464  -4.064  0.00  0.00    -0.268 OA
ATOM     18  H   UNK d   1       0.627   0.037  -1.321  0.00  0.00     0.163 HD
BRANCH  16  19
ATOM     19  C   UNK d   1       1.275  -0.172  -4.006  0.00  0.00     0.032 A 
ATOM     20  C   UNK d   1       1.431  -0.110  -5.373  0.00  0.00     0.018 A 
ATOM     21  C   UNK d   1       2.358  -0.906  -6.009  0.00  0.00     0.020 A 
ATOM     22  C   UNK d   1       3.166  -1.791  -5.316  0.00  0.00     0.011 A 
ATOM     23 Br   UNK d   1       4.422  -2.856  -6.260  0.00  0.00    -0.051 Br
ATOM     24  C   UNK d   1       3.010  -1.853  -3.944  0.00  0.00     0.020 A 
ATOM     25  C   UNK d   1       2.067  -1.041  -3.318  0.00  0.00     0.018 A 
ENDBRANCH  16  19
ENDBRANCH   1  15
TORSDOF 2
