# created with PyMOL 2.3.2
@<TRIPOS>MOLECULE
244
42 45 1                 
SMALL
USER_CHARGES
@<TRIPOS>ATOM
1	  Br	4.422	-2.856	-6.260	Br	1	UNK0	0.000	
2	   C	3.166	-1.791	-5.316	C.2	1	UNK0	0.000	
3	   C	2.358	-0.906	-6.009	C.2	1	UNK0	0.000	
4	   C	1.431	-0.110	-5.373	C.2	1	UNK0	0.000	
5	   C	1.275	-0.172	-4.006	C.2	1	UNK0	0.000	
6	   C	2.067	-1.041	-3.318	C.2	1	UNK0	0.000	
7	   C	3.010	-1.853	-3.944	C.2	1	UNK0	0.000	
8	   C	0.272	0.695	-3.357	C.2	1	UNK0	0.000	
9	   O	-0.412	1.464	-4.064	O.2	1	UNK0	0.000	
10	   N	0.074	0.669	-1.953	N.pl3	1	UNK0	0.000	
11	   C	-0.905	1.521	-1.362	C.3	1	UNK0	0.000	
12	   C	-0.349	2.405	-0.270	C.3	1	UNK0	0.000	
13	   N	-0.387	1.543	0.898	N.pl3	1	UNK0	0.000	
14	   C	-1.427	0.549	0.719	C.3	1	UNK0	0.000	
15	   C	-1.934	0.653	-0.680	C.3	1	UNK0	0.000	
16	   C	-0.810	-0.768	1.019	C.2	1	UNK0	0.000	
17	   O	-0.963	-1.785	0.303	O.2	1	UNK0	0.000	
18	   N	0.001	-0.914	2.170	N.pl3	1	UNK0	0.000	
19	   C	0.721	0.196	2.759	C.3	1	UNK0	0.000	
20	   C	0.307	0.073	4.191	C.3	1	UNK0	0.000	
21	   C	0.359	-1.446	4.394	C.3	1	UNK0	0.000	
22	   C	0.305	-2.054	2.989	C.3	1	UNK0	0.000	
23	   C	0.346	1.480	2.115	C.2	1	UNK0	0.000	
24	   O	0.686	2.586	2.659	O.2	1	UNK0	0.000	
25	   H	2.439	-0.818	-7.079	 H	1	UNK0	0.000	
26	   H	0.795	0.589	-5.931	 H	1	UNK0	0.000	
27	   H	1.992	-1.132	-2.265	 H	1	UNK0	0.000	
28	   H	3.632	-2.539	-3.385	 H	1	UNK0	0.000	
29	   H	0.627	0.037	-1.321	 H	1	UNK0	0.000	
30	   H	-1.396	2.117	-2.155	 H	1	UNK0	0.000	
31	   H	-1.021	3.266	-0.147	 H	1	UNK0	0.000	
32	   H	0.644	2.761	-0.527	 H	1	UNK0	0.000	
33	   H	-2.263	0.685	1.454	 H	1	UNK0	0.000	
34	   H	-2.109	-0.294	-1.190	 H	1	UNK0	0.000	
35	   H	-2.896	1.237	-0.692	 H	1	UNK0	0.000	
36	   H	1.821	0.063	2.690	 H	1	UNK0	0.000	
37	   H	1.026	0.586	4.840	 H	1	UNK0	0.000	
38	   H	-0.740	0.451	4.344	 H	1	UNK0	0.000	
39	   H	-0.492	-1.789	5.017	 H	1	UNK0	0.000	
40	   H	1.311	-1.758	4.845	 H	1	UNK0	0.000	
41	   H	1.275	-2.514	2.721	 H	1	UNK0	0.000	
42	   H	-0.468	-2.845	2.945	 H	1	UNK0	0.000	
@<TRIPOS>BOND
1 1 2 1
2 2 3 2
3 2 7 1
4 3 4 1
5 4 5 2
6 5 6 1
7 5 8 1
8 6 7 2
9 8 9 2
10 8 10 1
11 10 11 1
12 11 12 1
13 11 15 1
14 12 13 1
15 13 14 1
16 13 23 1
17 14 15 1
18 14 16 1
19 16 17 2
20 16 18 1
21 18 19 1
22 18 22 1
23 19 20 1
24 19 23 1
25 20 21 1
26 21 22 1
27 23 24 2
28 3 25 1
29 4 26 1
30 6 27 1
31 7 28 1
32 10 29 1
33 11 30 1
34 12 31 1
35 12 32 1
36 14 33 1
37 15 34 1
38 15 35 1
39 19 36 1
40 20 37 1
41 20 38 1
42 21 39 1
43 21 40 1
44 22 41 1
45 22 42 1
@<TRIPOS>SUBSTRUCTURE
1	UNK0	1	GROUP	1 ****	UNK
