REMARK  2 active torsions:
REMARK  status: ('A' for Active; 'I' for Inactive)
REMARK    1  A    between atoms: C_5  and  C_8 
REMARK       I    between atoms: C_8  and  N_10 
REMARK    2  A    between atoms: N_10  and  N_11 
ROOT
ATOM      1  N   UNK d   1      -0.411  -0.375   0.498  0.00  0.00    -0.187 N 
ATOM      2  C   UNK d   1      -0.530  -1.396   1.482  0.00  0.00     0.251 C 
ATOM      3  O   UNK d   1       0.494  -2.021   1.923  0.00  0.00    -0.271 OA
ATOM      4  C   UNK d   1      -1.952  -1.585   1.870  0.00  0.00     0.101 C 
ATOM      5  C   UNK d   1      -2.633  -0.451   1.128  0.00  0.00     0.101 C 
ATOM      6  C   UNK d   1      -2.763   0.572   2.236  0.00  0.00     0.022 C 
ATOM      7  C   UNK d   1      -3.400  -0.360   3.288  0.00  0.00     0.018 C 
ATOM      8  C   UNK d   1      -2.166  -1.281   3.326  0.00  0.00     0.022 C 
ATOM      9  C   UNK d   1      -1.145  -0.233   3.683  0.00  0.00    -0.025 C 
ATOM     10  C   UNK d   1      -1.456   0.802   2.912  0.00  0.00    -0.025 C 
ATOM     11  C   UNK d   1      -1.708  -0.015   0.067  0.00  0.00     0.251 C 
ATOM     12  O   UNK d   1      -2.034   0.558  -0.995  0.00  0.00    -0.271 OA
ENDROOT
BRANCH   1  13
ATOM     13  N   UNK d   1       0.761   0.235  -0.020  0.00  0.00    -0.254 N 
ATOM     14  C   UNK d   1       1.041   0.234  -1.403  0.00  0.00     0.270 C 
ATOM     15  O   UNK d   1       0.255  -0.310  -2.245  0.00  0.00    -0.266 OA
ATOM     16  H   UNK d   1       1.414   0.693   0.641  0.00  0.00     0.191 HD
BRANCH  14  17
ATOM     17  C   UNK d   1       2.239   0.858  -1.911  0.00  0.00     0.033 A 
ATOM     18  C   UNK d   1       3.313   1.057  -1.049  0.00  0.00     0.018 A 
ATOM     19  C   UNK d   1       4.474   1.660  -1.487  0.00  0.00     0.020 A 
ATOM     20  C   UNK d   1       4.593   2.076  -2.781  0.00  0.00     0.011 A 
ATOM     21 Br   UNK d   1       6.211   2.913  -3.363  0.00  0.00    -0.051 Br
ATOM     22  C   UNK d   1       3.526   1.884  -3.658  0.00  0.00     0.020 A 
ATOM     23  C   UNK d   1       2.377   1.284  -3.212  0.00  0.00     0.018 A 
ENDBRANCH  14  17
ENDBRANCH   1  13
TORSDOF 2
