# created with PyMOL 2.3.2
@<TRIPOS>MOLECULE
247
35 38 1                 
SMALL
USER_CHARGES
@<TRIPOS>ATOM
1	  Br	6.211	2.913	-3.363	Br	1	UNK0	0.000	
2	   C	4.593	2.076	-2.781	C.2	1	UNK0	0.000	
3	   C	4.474	1.660	-1.487	C.2	1	UNK0	0.000	
4	   C	3.313	1.057	-1.049	C.2	1	UNK0	0.000	
5	   C	2.239	0.858	-1.911	C.2	1	UNK0	0.000	
6	   C	2.377	1.284	-3.212	C.2	1	UNK0	0.000	
7	   C	3.526	1.884	-3.658	C.2	1	UNK0	0.000	
8	   C	1.041	0.234	-1.403	C.2	1	UNK0	0.000	
9	   O	0.255	-0.310	-2.245	O.2	1	UNK0	0.000	
10	   N	0.761	0.235	-0.020	N.pl3	1	UNK0	0.000	
11	   N	-0.411	-0.375	0.498	N.pl3	1	UNK0	0.000	
12	   C	-0.530	-1.396	1.482	C.2	1	UNK0	0.000	
13	   O	0.494	-2.021	1.923	O.2	1	UNK0	0.000	
14	   C	-1.952	-1.585	1.870	C.3	1	UNK0	0.000	
15	   C	-2.633	-0.451	1.128	C.3	1	UNK0	0.000	
16	   C	-2.763	0.572	2.236	C.3	1	UNK0	0.000	
17	   C	-3.400	-0.360	3.288	C.3	1	UNK0	0.000	
18	   C	-2.166	-1.281	3.326	C.3	1	UNK0	0.000	
19	   C	-1.145	-0.233	3.683	C.2	1	UNK0	0.000	
20	   C	-1.456	0.802	2.912	C.2	1	UNK0	0.000	
21	   C	-1.708	-0.015	0.067	C.2	1	UNK0	0.000	
22	   O	-2.034	0.558	-0.995	O.2	1	UNK0	0.000	
23	   H	5.277	1.797	-0.799	 H	1	UNK0	0.000	
24	   H	3.265	0.737	-0.014	 H	1	UNK0	0.000	
25	   H	1.541	1.136	-3.907	 H	1	UNK0	0.000	
26	   H	3.656	2.225	-4.678	 H	1	UNK0	0.000	
27	   H	1.414	0.693	0.641	 H	1	UNK0	0.000	
28	   H	-2.329	-2.582	1.574	 H	1	UNK0	0.000	
29	   H	-3.614	-0.762	0.782	 H	1	UNK0	0.000	
30	   H	-3.351	1.431	2.016	 H	1	UNK0	0.000	
31	   H	-3.548	0.171	4.234	 H	1	UNK0	0.000	
32	   H	-4.278	-0.855	2.882	 H	1	UNK0	0.000	
33	   H	-2.249	-2.094	4.001	 H	1	UNK0	0.000	
34	   H	-0.378	-0.391	4.414	 H	1	UNK0	0.000	
35	   H	-0.837	1.678	2.802	 H	1	UNK0	0.000	
@<TRIPOS>BOND
1 1 2 1
2 2 3 2
3 2 7 1
4 3 4 1
5 4 5 2
6 5 6 1
7 5 8 1
8 6 7 2
9 8 9 2
10 8 10 1
11 10 11 1
12 11 12 1
13 11 21 1
14 12 13 2
15 12 14 1
16 14 15 1
17 14 18 1
18 15 16 1
19 15 21 1
20 16 17 1
21 16 20 1
22 17 18 1
23 18 19 1
24 19 20 2
25 21 22 2
26 3 23 1
27 4 24 1
28 6 25 1
29 7 26 1
30 10 27 1
31 14 28 1
32 15 29 1
33 16 30 1
34 17 31 1
35 17 32 1
36 18 33 1
37 19 34 1
38 20 35 1
@<TRIPOS>SUBSTRUCTURE
1	UNK0	1	GROUP	1 ****	UNK
