REMARK  7 active torsions:
REMARK  status: ('A' for Active; 'I' for Inactive)
REMARK    1  A    between atoms: C_5  and  C_8 
REMARK    2  A    between atoms: C_8  and  C_9 
REMARK    3  A    between atoms: C_10  and  C_24 
REMARK    4  A    between atoms: N_11  and  C_16 
REMARK    5  A    between atoms: C_16  and  C_17 
REMARK    6  A    between atoms: C_17  and  C_18 
REMARK    7  A    between atoms: C_18  and  N_19 
ROOT
ATOM      1  C   UNK d   1      -0.488   1.206  -1.517  0.00  0.00     0.064 C 
ATOM      2  C   UNK d   1       0.889   0.700  -1.214  0.00  0.00     0.180 C 
ATOM      3  N   UNK d   1       0.614  -0.711  -0.970  0.00  0.00    -0.331 N 
ATOM      4  C   UNK d   1      -0.368  -1.060  -1.966  0.00  0.00     0.295 C 
ATOM      5  O   UNK d   1      -0.542  -2.207  -2.409  0.00  0.00    -0.264 OA
ATOM      6  C   UNK d   1      -1.092   0.166  -2.336  0.00  0.00     0.251 C 
ATOM      7  O   UNK d   1      -2.023   0.293  -3.174  0.00  0.00    -0.282 OA
ENDROOT
BRANCH   1   8
ATOM      8  C   UNK d   1      -1.034   2.342  -1.167  0.00  0.00     0.130 C 
ATOM      9  O   UNK d   1      -0.272   3.251  -0.407  0.00  0.00    -0.190 OA
BRANCH   8  10
ATOM     10  C   UNK d   1      -2.399   2.646  -1.560  0.00  0.00     0.001 A 
ATOM     11  C   UNK d   1      -2.690   3.887  -2.141  0.00  0.00     0.015 A 
ATOM     12  C   UNK d   1      -3.980   4.215  -2.497  0.00  0.00     0.020 A 
ATOM     13  C   UNK d   1      -5.040   3.355  -2.305  0.00  0.00     0.011 A 
ATOM     14 Br   UNK d   1      -6.832   3.785  -2.789  0.00  0.00    -0.051 Br
ATOM     15  C   UNK d   1      -4.775   2.128  -1.735  0.00  0.00     0.020 A 
ATOM     16  C   UNK d   1      -3.470   1.798  -1.375  0.00  0.00     0.015 A 
ENDBRANCH   8  10
ENDBRANCH   1   8
BRANCH   2  17
ATOM     17  C   UNK d   1       1.456   1.393  -0.031  0.00  0.00     0.061 A 
ATOM     18  N   UNK d   1       2.575   2.115  -0.202  0.00  0.00    -0.263 NA
ATOM     19  C   UNK d   1       3.169   2.790   0.785  0.00  0.00     0.117 A 
ATOM     20  C   UNK d   1       2.602   2.738   2.037  0.00  0.00     0.019 A 
ATOM     21  C   UNK d   1       1.456   2.011   2.258  0.00  0.00     0.003 A 
ATOM     22  C   UNK d   1       0.885   1.336   1.210  0.00  0.00     0.029 A 
ENDBRANCH   2  17
BRANCH   3  23
ATOM     23  C   UNK d   1       1.206  -1.550   0.031  0.00  0.00     0.129 C 
BRANCH  23  24
ATOM     24  C   UNK d   1       2.472  -2.229  -0.468  0.00  0.00     0.040 C 
BRANCH  24  25
ATOM     25  C   UNK d   1       3.013  -3.093   0.671  0.00  0.00     0.131 C 
BRANCH  25  26
ATOM     26  N   UNK d   1       2.055  -4.103   1.077  0.00  0.00    -0.352 N 
ATOM     27  C   UNK d   1       1.929  -5.360   0.591  0.00  0.00     0.182 A 
ATOM     28  N   UNK d   1       0.922  -5.976   1.233  0.00  0.00    -0.361 N 
ATOM     29  C   UNK d   1       0.385  -5.140   2.134  0.00  0.00     0.106 A 
ATOM     30  H   UNK d   1       0.587  -6.967   1.070  0.00  0.00     0.166 HD
ATOM     31  C   UNK d   1       1.110  -3.971   2.020  0.00  0.00     0.108 A 
ENDBRANCH  25  26
ENDBRANCH  24  25
ENDBRANCH  23  24
ENDBRANCH   3  23
TORSDOF 7
