# created with PyMOL 2.3.2
@<TRIPOS>MOLECULE
263
55 58 1                 
SMALL
USER_CHARGES
@<TRIPOS>ATOM
1	  Br	3.754	4.123	-5.878	Br	1	UNK0	0.000	
2	   C	2.774	2.759	-4.941	C.2	1	UNK0	0.000	
3	   C	3.469	1.964	-4.058	C.2	1	UNK0	0.000	
4	   C	2.795	0.988	-3.380	C.2	1	UNK0	0.000	
5	   C	1.428	0.797	-3.575	C.2	1	UNK0	0.000	
6	   C	0.754	1.586	-4.448	C.2	1	UNK0	0.000	
7	   C	1.422	2.575	-5.139	C.2	1	UNK0	0.000	
8	   C	0.834	-0.304	-2.835	C.2	1	UNK0	0.000	
9	   C	-0.123	-0.099	-1.969	C.2	1	UNK0	0.000	
10	   C	-0.836	-1.134	-1.138	C.3	1	UNK0	0.000	
11	   N	-1.149	-0.434	0.060	N.pl3	1	UNK0	0.000	
12	   C	-1.318	0.960	-0.294	C.2	1	UNK0	0.000	
13	   O	-1.913	1.847	0.364	O.2	1	UNK0	0.000	
14	   C	-0.668	1.182	-1.581	C.2	1	UNK0	0.000	
15	   O	-0.615	2.299	-2.198	O.2	1	UNK0	0.000	
16	   C	-1.358	-0.848	1.435	C.3	1	UNK0	0.000	
17	   C	-0.157	-0.769	2.321	C.3	1	UNK0	0.000	
18	   N	0.393	0.574	2.409	N.4	1	UNK0	0.000	
19	   C	1.766	0.540	2.923	C.3	1	UNK0	0.000	
20	   C	2.265	1.987	2.810	C.3	1	UNK0	0.000	
21	   O	1.503	2.861	3.546	O.3	1	UNK0	0.000	
22	   C	0.143	2.785	3.289	C.3	1	UNK0	0.000	
23	   C	-0.367	1.366	3.343	C.3	1	UNK0	0.000	
24	   C	-0.057	-2.361	-1.031	C.2	1	UNK0	0.000	
25	   C	1.165	-2.487	-0.427	C.2	1	UNK0	0.000	
26	   C	1.831	-3.683	-0.360	C.2	1	UNK0	0.000	
27	   C	1.267	-4.800	-0.914	C.2	1	UNK0	0.000	
28	   C	0.027	-4.735	-1.542	C.2	1	UNK0	0.000	
29	   C	-0.612	-3.523	-1.591	C.2	1	UNK0	0.000	
30	   N	3.086	-3.740	0.278	N.pl3	1	UNK0	0.000	
31	   O	3.624	-2.727	0.794	O.2	1	UNK0	0.000	
32	   O	3.739	-4.950	0.334	O.2	1	UNK0	0.000	
33	   O	1.279	-1.630	-3.034	O.2	1	UNK0	0.000	
34	   H	4.542	2.083	-3.878	 H	1	UNK0	0.000	
35	   H	3.345	0.345	-2.669	 H	1	UNK0	0.000	
36	   H	-0.318	1.417	-4.625	 H	1	UNK0	0.000	
37	   H	0.877	3.210	-5.841	 H	1	UNK0	0.000	
38	   H	-1.809	-1.331	-1.659	 H	1	UNK0	0.000	
39	   H	-1.675	-1.915	1.402	 H	1	UNK0	0.000	
40	   H	-2.174	-0.266	1.914	 H	1	UNK0	0.000	
41	   H	0.641	-1.476	2.150	 H	1	UNK0	0.000	
42	   H	-0.558	-1.040	3.363	 H	1	UNK0	0.000	
43	   H	0.444	1.069	1.515	 H	1	UNK0	0.000	
44	   H	2.431	-0.064	2.277	 H	1	UNK0	0.000	
45	   H	1.813	0.278	3.983	 H	1	UNK0	0.000	
46	   H	3.307	2.078	3.119	 H	1	UNK0	0.000	
47	   H	2.211	2.227	1.713	 H	1	UNK0	0.000	
48	   H	-0.360	3.328	4.142	 H	1	UNK0	0.000	
49	   H	-0.166	3.282	2.359	 H	1	UNK0	0.000	
50	   H	-1.423	1.355	3.022	 H	1	UNK0	0.000	
51	   H	-0.260	0.961	4.376	 H	1	UNK0	0.000	
52	   H	1.617	-1.613	0.003	 H	1	UNK0	0.000	
53	   H	1.739	-5.773	-0.895	 H	1	UNK0	0.000	
54	   H	-0.422	-5.628	-1.984	 H	1	UNK0	0.000	
55	   H	-1.592	-3.474	-2.088	 H	1	UNK0	0.000	
@<TRIPOS>BOND
1 1 2 1
2 2 3 2
3 2 7 1
4 3 4 1
5 4 5 2
6 5 6 1
7 5 8 1
8 6 7 2
9 8 9 2
10 8 33 1
11 9 10 1
12 9 14 1
13 10 11 1
14 10 24 1
15 11 12 1
16 11 16 1
17 12 13 2
18 12 14 1
19 14 15 2
20 16 17 1
21 17 18 1
22 18 19 1
23 18 23 1
24 19 20 1
25 20 21 1
26 21 22 1
27 22 23 1
28 24 25 2
29 24 29 1
30 25 26 1
31 26 27 2
32 26 30 1
33 27 28 1
34 28 29 2
35 30 31 2
36 30 32 1
37 3 34 1
38 4 35 1
39 6 36 1
40 7 37 1
41 10 38 1
42 16 39 1
43 16 40 1
44 17 41 1
45 17 42 1
46 18 43 1
47 19 44 1
48 19 45 1
49 20 46 1
50 20 47 1
51 22 48 1
52 22 49 1
53 23 50 1
54 23 51 1
55 25 52 1
56 27 53 1
57 28 54 1
58 29 55 1
@<TRIPOS>SUBSTRUCTURE
1	UNK0	1	GROUP	1 ****	UNK
