REMARK  6 active torsions:
REMARK  status: ('A' for Active; 'I' for Inactive)
REMARK    1  A    between atoms: C_5  and  C_8 
REMARK    2  A    between atoms: C_10  and  C_24 
REMARK    3  A    between atoms: N_11  and  C_16 
REMARK    4  A    between atoms: C_16  and  C_17 
REMARK    5  A    between atoms: C_17  and  N_18 
REMARK    6  A    between atoms: C_26  and  N_30 
ROOT
ATOM      1  C   UNK d   1       0.834  -0.304  -2.835  0.00  0.00     0.130 C 
ATOM      2  C   UNK d   1      -0.123  -0.099  -1.969  0.00  0.00     0.062 C 
ATOM      3  C   UNK d   1      -0.836  -1.134  -1.138  0.00  0.00     0.161 C 
ATOM      4  N   UNK d   1      -1.149  -0.434   0.060  0.00  0.00    -0.331 N 
ATOM      5  C   UNK d   1      -1.318   0.960  -0.294  0.00  0.00     0.295 C 
ATOM      6  O   UNK d   1      -1.913   1.847   0.364  0.00  0.00    -0.264 OA
ATOM      7  C   UNK d   1      -0.668   1.182  -1.581  0.00  0.00     0.250 C 
ATOM      8  O   UNK d   1      -0.615   2.299  -2.198  0.00  0.00    -0.282 OA
ATOM      9  O   UNK d   1       1.279  -1.630  -3.034  0.00  0.00    -0.190 OA
ENDROOT
BRANCH   1  10
ATOM     10  C   UNK d   1       1.428   0.797  -3.575  0.00  0.00     0.001 A 
ATOM     11  C   UNK d   1       2.795   0.988  -3.380  0.00  0.00     0.015 A 
ATOM     12  C   UNK d   1       3.469   1.964  -4.058  0.00  0.00     0.020 A 
ATOM     13  C   UNK d   1       2.774   2.759  -4.941  0.00  0.00     0.011 A 
ATOM     14 Br   UNK d   1       3.754   4.123  -5.878  0.00  0.00    -0.051 Br
ATOM     15  C   UNK d   1       1.422   2.575  -5.139  0.00  0.00     0.020 A 
ATOM     16  C   UNK d   1       0.754   1.586  -4.448  0.00  0.00     0.015 A 
ENDBRANCH   1  10
BRANCH   3  17
ATOM     17  C   UNK d   1      -0.057  -2.361  -1.031  0.00  0.00    -0.028 A 
ATOM     18  C   UNK d   1       1.165  -2.487  -0.427  0.00  0.00     0.045 A 
ATOM     19  C   UNK d   1       1.831  -3.683  -0.360  0.00  0.00     0.103 A 
ATOM     20  C   UNK d   1       1.267  -4.800  -0.914  0.00  0.00     0.036 A 
ATOM     21  C   UNK d   1       0.027  -4.735  -1.542  0.00  0.00     0.003 A 
ATOM     22  C   UNK d   1      -0.612  -3.523  -1.591  0.00  0.00     0.010 A 
BRANCH  19  23
ATOM     23  N   UNK d   1       3.086  -3.740   0.278  0.00  0.00    -0.116 N 
ATOM     24  O   UNK d   1       3.624  -2.727   0.794  0.00  0.00    -0.532 OA
ATOM     25  O   UNK d   1       3.739  -4.950   0.334  0.00  0.00    -0.532 OA
ENDBRANCH  19  23
ENDBRANCH   3  17
BRANCH   4  26
ATOM     26  C   UNK d   1      -1.358  -0.848   1.435  0.00  0.00     0.155 C 
BRANCH  26  27
ATOM     27  C   UNK d   1      -0.157  -0.769   2.321  0.00  0.00     0.255 C 
BRANCH  27  28
ATOM     28  N   UNK d   1       0.393   0.574   2.409  0.00  0.00    -0.066 N 
ATOM     29  C   UNK d   1       1.766   0.540   2.923  0.00  0.00     0.261 C 
ATOM     30  C   UNK d   1       2.265   1.987   2.810  0.00  0.00     0.195 C 
ATOM     31  O   UNK d   1       1.503   2.861   3.546  0.00  0.00    -0.388 OA
ATOM     32  C   UNK d   1       0.143   2.785   3.289  0.00  0.00     0.195 C 
ATOM     33  C   UNK d   1      -0.367   1.366   3.343  0.00  0.00     0.261 C 
ATOM     34  H   UNK d   1       0.444   1.069   1.515  0.00  0.00     0.280 HD
ENDBRANCH  27  28
ENDBRANCH  26  27
ENDBRANCH   4  26
TORSDOF 6
