# created with PyMOL 2.3.2
@<TRIPOS>MOLECULE
265
59 62 1                 
SMALL
USER_CHARGES
@<TRIPOS>ATOM
1	  Br	-6.598	0.446	-5.572	Br	1	UNK0	0.000	
2	   C	-5.253	0.315	-4.218	C.2	1	UNK0	0.000	
3	   C	-4.458	-0.809	-4.151	C.2	1	UNK0	0.000	
4	   C	-3.482	-0.920	-3.184	C.2	1	UNK0	0.000	
5	   C	-3.240	0.077	-2.230	C.2	1	UNK0	0.000	
6	   C	-4.043	1.190	-2.312	C.2	1	UNK0	0.000	
7	   C	-5.036	1.308	-3.293	C.2	1	UNK0	0.000	
8	   C	-2.219	-0.116	-1.211	C.2	1	UNK0	0.000	
9	   C	-1.235	0.728	-0.992	C.2	1	UNK0	0.000	
10	   C	-0.158	0.578	0.052	C.3	1	UNK0	0.000	
11	   N	0.630	1.759	-0.022	N.pl3	1	UNK0	0.000	
12	   C	0.220	2.590	-1.128	C.2	1	UNK0	0.000	
13	   O	0.721	3.650	-1.528	O.2	1	UNK0	0.000	
14	   C	-0.958	1.933	-1.739	C.2	1	UNK0	0.000	
15	   O	-1.595	2.375	-2.749	O.2	1	UNK0	0.000	
16	   C	1.715	2.155	0.835	C.3	1	UNK0	0.000	
17	   C	1.327	2.975	2.017	C.3	1	UNK0	0.000	
18	   N	0.421	2.346	2.931	N.4	1	UNK0	0.000	
19	   C	-0.951	2.792	2.802	C.3	1	UNK0	0.000	
20	   C	-1.795	1.900	3.689	C.3	1	UNK0	0.000	
21	   O	-1.419	2.214	5.017	O.3	1	UNK0	0.000	
22	   C	-0.115	1.733	5.164	C.3	1	UNK0	0.000	
23	   C	0.798	2.619	4.332	C.3	1	UNK0	0.000	
24	   C	0.615	-0.627	-0.380	C.2	1	UNK0	0.000	
25	   C	1.346	-0.546	-1.523	C.2	1	UNK0	0.000	
26	   C	2.074	-1.629	-1.971	C.2	1	UNK0	0.000	
27	   C	2.064	-2.799	-1.261	C.2	1	UNK0	0.000	
28	   C	1.327	-2.878	-0.108	C.2	1	UNK0	0.000	
29	   C	0.594	-1.794	0.347	C.2	1	UNK0	0.000	
30	   C	2.830	-3.957	-1.728	C.2	1	UNK0	0.000	
31	   O	3.496	-3.870	-2.791	O.co2	1	UNK0	0.000	
32	   O	2.861	-5.151	-1.061	O.3	1	UNK0	0.000	
33	   C	3.598	-6.265	-1.513	C.3	1	UNK0	0.000	
34	   O	-2.239	-1.261	-0.381	O.2	1	UNK0	0.000	
35	   H	-4.629	-1.602	-4.887	 H	1	UNK0	0.000	
36	   H	-2.875	-1.804	-3.148	 H	1	UNK0	0.000	
37	   H	-3.918	1.994	-1.578	 H	1	UNK0	0.000	
38	   H	-5.651	2.195	-3.333	 H	1	UNK0	0.000	
39	   H	-0.692	0.404	0.997	 H	1	UNK0	0.000	
40	   H	2.304	1.259	1.190	 H	1	UNK0	0.000	
41	   H	2.474	2.762	0.263	 H	1	UNK0	0.000	
42	   H	0.784	3.882	1.619	 H	1	UNK0	0.000	
43	   H	2.195	3.398	2.561	 H	1	UNK0	0.000	
44	   H	0.473	1.294	2.877	 H	1	UNK0	0.000	
45	   H	-1.316	2.802	1.756	 H	1	UNK0	0.000	
46	   H	-1.023	3.822	3.232	 H	1	UNK0	0.000	
47	   H	-2.872	2.143	3.557	 H	1	UNK0	0.000	
48	   H	-1.581	0.815	3.483	 H	1	UNK0	0.000	
49	   H	-0.086	0.721	4.673	 H	1	UNK0	0.000	
50	   H	0.196	1.705	6.225	 H	1	UNK0	0.000	
51	   H	0.586	3.705	4.504	 H	1	UNK0	0.000	
52	   H	1.868	2.389	4.510	 H	1	UNK0	0.000	
53	   H	1.381	0.347	-2.107	 H	1	UNK0	0.000	
54	   H	2.642	-1.552	-2.870	 H	1	UNK0	0.000	
55	   H	1.337	-3.828	0.442	 H	1	UNK0	0.000	
56	   H	0.023	-1.858	1.241	 H	1	UNK0	0.000	
57	   H	2.984	-7.015	-2.015	 H	1	UNK0	0.000	
58	   H	4.416	-5.945	-2.206	 H	1	UNK0	0.000	
59	   H	4.099	-6.775	-0.643	 H	1	UNK0	0.000	
@<TRIPOS>BOND
1 1 2 1
2 2 3 2
3 2 7 1
4 3 4 1
5 4 5 2
6 5 6 1
7 5 8 1
8 6 7 2
9 8 9 2
10 8 34 1
11 9 10 1
12 9 14 1
13 10 11 1
14 10 24 1
15 11 12 1
16 11 16 1
17 12 13 2
18 12 14 1
19 14 15 2
20 16 17 1
21 17 18 1
22 18 19 1
23 18 23 1
24 19 20 1
25 20 21 1
26 21 22 1
27 22 23 1
28 24 25 2
29 24 29 1
30 25 26 1
31 26 27 2
32 27 28 1
33 27 30 1
34 28 29 2
35 30 31 2
36 30 32 1
37 32 33 1
38 3 35 1
39 4 36 1
40 6 37 1
41 7 38 1
42 10 39 1
43 16 40 1
44 16 41 1
45 17 42 1
46 17 43 1
47 18 44 1
48 19 45 1
49 19 46 1
50 20 47 1
51 20 48 1
52 22 49 1
53 22 50 1
54 23 51 1
55 23 52 1
56 25 53 1
57 26 54 1
58 28 55 1
59 29 56 1
60 33 57 1
61 33 58 1
62 33 59 1
@<TRIPOS>SUBSTRUCTURE
1	UNK0	1	GROUP	1 ****	UNK
