REMARK  7 active torsions:
REMARK  status: ('A' for Active; 'I' for Inactive)
REMARK    1  A    between atoms: C_5  and  C_8 
REMARK    2  A    between atoms: C_10  and  C_24 
REMARK    3  A    between atoms: N_11  and  C_16 
REMARK    4  A    between atoms: C_16  and  C_17 
REMARK    5  A    between atoms: C_17  and  N_18 
REMARK    6  A    between atoms: C_27  and  C_30 
REMARK    7  A    between atoms: C_30  and  O_32 
ROOT
ATOM      1  C   UNK d   1      -2.219  -0.116  -1.211  0.00  0.00     0.130 C 
ATOM      2  C   UNK d   1      -1.235   0.728  -0.992  0.00  0.00     0.062 A 
ATOM      3  C   UNK d   1      -0.158   0.578   0.052  0.00  0.00     0.161 A 
ATOM      4  N   UNK d   1       0.630   1.759  -0.022  0.00  0.00    -0.331 N 
ATOM      5  C   UNK d   1       0.220   2.590  -1.128  0.00  0.00     0.295 A 
ATOM      6  O   UNK d   1       0.721   3.650  -1.528  0.00  0.00    -0.264 OA
ATOM      7  C   UNK d   1      -0.958   1.933  -1.739  0.00  0.00     0.250 A 
ATOM      8  O   UNK d   1      -1.595   2.375  -2.749  0.00  0.00    -0.282 OA
ATOM      9  O   UNK d   1      -2.239  -1.261  -0.381  0.00  0.00    -0.190 OA
ENDROOT
BRANCH   3  10
ATOM     10  C   UNK d   1       0.615  -0.627  -0.380  0.00  0.00    -0.030 A 
ATOM     11  C   UNK d   1       1.346  -0.546  -1.523  0.00  0.00     0.011 A 
ATOM     12  C   UNK d   1       2.074  -1.629  -1.971  0.00  0.00     0.018 A 
ATOM     13  C   UNK d   1       2.064  -2.799  -1.261  0.00  0.00     0.039 A 
ATOM     14  C   UNK d   1       1.327  -2.878  -0.108  0.00  0.00     0.018 A 
ATOM     15  C   UNK d   1       0.594  -1.794   0.347  0.00  0.00     0.011 A 
BRANCH  13  16
ATOM     16  C   UNK d   1       2.830  -3.957  -1.728  0.00  0.00     0.292 C 
ATOM     17  O   UNK d   1       3.496  -3.870  -2.791  0.00  0.00    -0.259 OA
BRANCH  16  18
ATOM     18  O   UNK d   1       2.861  -5.151  -1.061  0.00  0.00    -0.323 OA
ATOM     19  C   UNK d   1       3.598  -6.265  -1.513  0.00  0.00     0.213 C 
ENDBRANCH  16  18
ENDBRANCH  13  16
ENDBRANCH   3  10
BRANCH   4  20
ATOM     20  C   UNK d   1       1.715   2.155   0.835  0.00  0.00     0.155 C 
BRANCH  20  21
ATOM     21  C   UNK d   1       1.327   2.975   2.017  0.00  0.00     0.255 C 
BRANCH  21  22
ATOM     22  N   UNK d   1       0.421   2.346   2.931  0.00  0.00    -0.066 N 
ATOM     23  C   UNK d   1      -0.951   2.792   2.802  0.00  0.00     0.261 C 
ATOM     24  C   UNK d   1      -1.795   1.900   3.689  0.00  0.00     0.195 C 
ATOM     25  O   UNK d   1      -1.419   2.214   5.017  0.00  0.00    -0.388 OA
ATOM     26  C   UNK d   1      -0.115   1.733   5.164  0.00  0.00     0.195 C 
ATOM     27  C   UNK d   1       0.798   2.619   4.332  0.00  0.00     0.261 C 
ATOM     28  H   UNK d   1       0.473   1.294   2.877  0.00  0.00     0.280 HD
ENDBRANCH  21  22
ENDBRANCH  20  21
ENDBRANCH   4  20
BRANCH   1  29
ATOM     29  C   UNK d   1      -3.240   0.077  -2.230  0.00  0.00     0.001 A 
ATOM     30  C   UNK d   1      -3.482  -0.920  -3.184  0.00  0.00     0.015 A 
ATOM     31  C   UNK d   1      -4.458  -0.809  -4.151  0.00  0.00     0.020 A 
ATOM     32  C   UNK d   1      -5.253   0.315  -4.218  0.00  0.00     0.011 A 
ATOM     33 Br   UNK d   1      -6.598   0.446  -5.572  0.00  0.00    -0.051 Br
ATOM     34  C   UNK d   1      -5.036   1.308  -3.293  0.00  0.00     0.020 A 
ATOM     35  C   UNK d   1      -4.043   1.190  -2.312  0.00  0.00     0.015 A 
ENDBRANCH   1  29
TORSDOF 7
