REMARK  5 active torsions:
REMARK  status: ('A' for Active; 'I' for Inactive)
REMARK    1  A    between atoms: C_5  and  C_8 
REMARK    2  A    between atoms: C_10  and  C_24 
REMARK    3  A    between atoms: N_11  and  C_16 
REMARK    4  A    between atoms: C_16  and  C_17 
REMARK    5  A    between atoms: C_17  and  N_18 
ROOT
ATOM      1  C   UNK d   1       1.438  -2.746   2.127  0.00  0.00     0.130 C 
ATOM      2  C   UNK d   1       0.914  -2.099   1.104  0.00  0.00     0.062 C 
ATOM      3  C   UNK d   1       0.618  -0.647   0.939  0.00  0.00     0.161 C 
ATOM      4  N   UNK d   1       0.861  -0.424  -0.496  0.00  0.00    -0.331 N 
ATOM      5  C   UNK d   1       0.435  -1.617  -1.125  0.00  0.00     0.295 C 
ATOM      6  O   UNK d   1       0.104  -1.710  -2.314  0.00  0.00    -0.264 OA
ATOM      7  C   UNK d   1       0.453  -2.698  -0.146  0.00  0.00     0.250 C 
ATOM      8  O   UNK d   1       0.151  -3.912  -0.264  0.00  0.00    -0.282 OA
ATOM      9  O   UNK d   1       1.783  -1.989   3.264  0.00  0.00    -0.190 OA
ENDROOT
BRANCH   1  10
ATOM     10  C   UNK d   1       1.685  -4.177   2.167  0.00  0.00     0.001 A 
ATOM     11  C   UNK d   1       1.294  -4.945   3.241  0.00  0.00     0.015 A 
ATOM     12  C   UNK d   1       1.553  -6.306   3.297  0.00  0.00     0.020 A 
ATOM     13  C   UNK d   1       2.215  -6.942   2.272  0.00  0.00     0.011 A 
ATOM     14 Br   UNK d   1       2.577  -8.824   2.339  0.00  0.00    -0.051 Br
ATOM     15  C   UNK d   1       2.612  -6.187   1.194  0.00  0.00     0.020 A 
ATOM     16  C   UNK d   1       2.348  -4.815   1.144  0.00  0.00     0.015 A 
ENDBRANCH   1  10
BRANCH   3  17
ATOM     17  C   UNK d   1      -0.730  -0.257   1.358  0.00  0.00    -0.031 A 
ATOM     18  C   UNK d   1      -0.932   0.485   2.528  0.00  0.00     0.009 A 
ATOM     19  C   UNK d   1      -2.157   0.879   2.971  0.00  0.00     0.001 A 
ATOM     20  C   UNK d   1      -3.289   0.545   2.251  0.00  0.00     0.000 A 
ATOM     21  C   UNK d   1      -3.124  -0.179   1.105  0.00  0.00     0.001 A 
ATOM     22  C   UNK d   1      -1.865  -0.583   0.651  0.00  0.00     0.009 A 
ENDBRANCH   3  17
BRANCH   4  23
ATOM     23  C   UNK d   1       1.406   0.783  -1.001  0.00  0.00     0.155 C 
BRANCH  23  24
ATOM     24  C   UNK d   1       0.491   1.882  -1.355  0.00  0.00     0.255 C 
BRANCH  24  25
ATOM     25  N   UNK d   1      -0.485   1.599  -2.362  0.00  0.00    -0.066 N 
ATOM     26  C   UNK d   1       0.024   1.251  -3.642  0.00  0.00     0.261 C 
ATOM     27  C   UNK d   1      -0.184   2.416  -4.585  0.00  0.00     0.195 C 
ATOM     28  O   UNK d   1       0.062   3.642  -3.973  0.00  0.00    -0.388 OA
ATOM     29  C   UNK d   1      -0.867   3.941  -2.994  0.00  0.00     0.195 C 
ATOM     30  C   UNK d   1      -1.474   2.645  -2.505  0.00  0.00     0.261 C 
ATOM     31  H   UNK d   1      -1.019   0.752  -1.995  0.00  0.00     0.280 HD
ENDBRANCH  24  25
ENDBRANCH  23  24
ENDBRANCH   4  23
TORSDOF 5
