# created with PyMOL 2.3.2
@<TRIPOS>MOLECULE
274
53 56 1                 
SMALL
USER_CHARGES
@<TRIPOS>ATOM
1	  Br	2.577	-8.824	2.339	Br	1	UNK0	0.000	
2	   C	2.215	-6.942	2.272	C.2	1	UNK0	0.000	
3	   C	1.553	-6.306	3.297	C.2	1	UNK0	0.000	
4	   C	1.294	-4.945	3.241	C.2	1	UNK0	0.000	
5	   C	1.685	-4.177	2.167	C.2	1	UNK0	0.000	
6	   C	2.348	-4.815	1.144	C.2	1	UNK0	0.000	
7	   C	2.612	-6.187	1.194	C.2	1	UNK0	0.000	
8	   C	1.438	-2.746	2.127	C.2	1	UNK0	0.000	
9	   C	0.914	-2.099	1.104	C.2	1	UNK0	0.000	
10	   C	0.618	-0.647	0.939	C.3	1	UNK0	0.000	
11	   N	0.861	-0.424	-0.496	N.pl3	1	UNK0	0.000	
12	   C	0.435	-1.617	-1.125	C.2	1	UNK0	0.000	
13	   O	0.104	-1.710	-2.314	O.2	1	UNK0	0.000	
14	   C	0.453	-2.698	-0.146	C.2	1	UNK0	0.000	
15	   O	0.151	-3.912	-0.264	O.2	1	UNK0	0.000	
16	   C	1.406	0.783	-1.001	C.3	1	UNK0	0.000	
17	   C	0.491	1.882	-1.355	C.3	1	UNK0	0.000	
18	   N	-0.485	1.599	-2.362	N.4	1	UNK0	0.000	
19	   C	0.024	1.251	-3.642	C.3	1	UNK0	0.000	
20	   C	-0.184	2.416	-4.585	C.3	1	UNK0	0.000	
21	   O	0.062	3.642	-3.973	O.3	1	UNK0	0.000	
22	   C	-0.867	3.941	-2.994	C.3	1	UNK0	0.000	
23	   C	-1.474	2.645	-2.505	C.3	1	UNK0	0.000	
24	   C	-0.730	-0.257	1.358	C.2	1	UNK0	0.000	
25	   C	-0.932	0.485	2.528	C.2	1	UNK0	0.000	
26	   C	-2.157	0.879	2.971	C.2	1	UNK0	0.000	
27	   C	-3.289	0.545	2.251	C.2	1	UNK0	0.000	
28	   C	-3.124	-0.179	1.105	C.2	1	UNK0	0.000	
29	   C	-1.865	-0.583	0.651	C.2	1	UNK0	0.000	
30	   O	1.783	-1.989	3.264	O.2	1	UNK0	0.000	
31	   H	1.240	-6.893	4.145	 H	1	UNK0	0.000	
32	   H	0.773	-4.427	4.039	 H	1	UNK0	0.000	
33	   H	2.720	-4.320	0.259	 H	1	UNK0	0.000	
34	   H	3.135	-6.683	0.382	 H	1	UNK0	0.000	
35	   H	1.344	-0.068	1.547	 H	1	UNK0	0.000	
36	   H	2.172	1.140	-0.259	 H	1	UNK0	0.000	
37	   H	2.048	0.502	-1.890	 H	1	UNK0	0.000	
38	   H	1.137	2.708	-1.787	 H	1	UNK0	0.000	
39	   H	-0.025	2.357	-0.506	 H	1	UNK0	0.000	
40	   H	-1.019	0.752	-1.995	 H	1	UNK0	0.000	
41	   H	1.080	0.909	-3.632	 H	1	UNK0	0.000	
42	   H	-0.573	0.393	-4.069	 H	1	UNK0	0.000	
43	   H	-1.222	2.334	-4.974	 H	1	UNK0	0.000	
44	   H	0.496	2.258	-5.451	 H	1	UNK0	0.000	
45	   H	-1.676	4.576	-3.405	 H	1	UNK0	0.000	
46	   H	-0.402	4.521	-2.171	 H	1	UNK0	0.000	
47	   H	-2.039	2.803	-1.540	 H	1	UNK0	0.000	
48	   H	-2.257	2.364	-3.235	 H	1	UNK0	0.000	
49	   H	-0.058	0.760	3.111	 H	1	UNK0	0.000	
50	   H	-2.265	1.451	3.880	 H	1	UNK0	0.000	
51	   H	-4.262	0.863	2.611	 H	1	UNK0	0.000	
52	   H	-3.969	-0.464	0.508	 H	1	UNK0	0.000	
53	   H	-1.803	-1.145	-0.248	 H	1	UNK0	0.000	
@<TRIPOS>BOND
1 1 2 1
2 2 3 2
3 2 7 1
4 3 4 1
5 4 5 2
6 5 6 1
7 5 8 1
8 6 7 2
9 8 9 2
10 8 30 1
11 9 10 1
12 9 14 1
13 10 11 1
14 10 24 1
15 11 12 1
16 11 16 1
17 12 13 2
18 12 14 1
19 14 15 2
20 16 17 1
21 17 18 1
22 18 19 1
23 18 23 1
24 19 20 1
25 20 21 1
26 21 22 1
27 22 23 1
28 24 25 2
29 24 29 1
30 25 26 1
31 26 27 2
32 27 28 1
33 28 29 2
34 3 31 1
35 4 32 1
36 6 33 1
37 7 34 1
38 10 35 1
39 16 36 1
40 16 37 1
41 17 38 1
42 17 39 1
43 18 40 1
44 19 41 1
45 19 42 1
46 20 43 1
47 20 44 1
48 22 45 1
49 22 46 1
50 23 47 1
51 23 48 1
52 25 49 1
53 26 50 1
54 27 51 1
55 28 52 1
56 29 53 1
@<TRIPOS>SUBSTRUCTURE
1	UNK0	1	GROUP	1 ****	UNK
