REMARK  7 active torsions:
REMARK  status: ('A' for Active; 'I' for Inactive)
REMARK    1  A    between atoms: C_5  and  C_8 
REMARK    2  A    between atoms: C_8  and  O_9 
REMARK    3  A    between atoms: C_8  and  C_10 
REMARK    4  A    between atoms: C_10  and  N_11 
REMARK    5  A    between atoms: N_18  and  C_21 
REMARK    6  A    between atoms: C_19  and  N_20 
REMARK    7  A    between atoms: C_21  and  C_22 
ROOT
ATOM      1  N   UNK d   1      -0.006   0.043   0.081  0.00  0.00    -0.178 N 
ATOM      2  C   UNK d   1      -1.182  -0.294  -0.500  0.00  0.00     0.079 A 
ATOM      3  C   UNK d   1      -1.359   0.588  -1.554  0.00  0.00     0.079 A 
ATOM      4  C   UNK d   1      -2.499   0.477  -2.328  0.00  0.00     0.032 A 
ATOM      5  C   UNK d   1      -3.472  -0.498  -2.076  0.00  0.00     0.002 A 
ATOM      6  C   UNK d   1      -3.250  -1.358  -1.009  0.00  0.00     0.002 A 
ATOM      7  C   UNK d   1      -2.127  -1.270  -0.224  0.00  0.00     0.032 A 
ATOM      8  N   UNK d   1      -0.303   1.453  -1.620  0.00  0.00    -0.177 N 
ATOM      9  C   UNK d   1       0.511   1.087  -0.594  0.00  0.00     0.681 A 
ENDROOT
BRANCH   1  10
ATOM     10  C   UNK d   1       0.511  -0.663   1.217  0.00  0.00     0.184 C 
BRANCH  10  11
ATOM     11  C   UNK d   1       0.045  -0.106   2.528  0.00  0.00     0.170 C 
BRANCH  11  12
ATOM     12  C   UNK d   1       0.623  -0.896   3.679  0.00  0.00    -0.028 A 
ATOM     13  C   UNK d   1      -0.149  -1.820   4.338  0.00  0.00     0.011 A 
ATOM     14  C   UNK d   1       0.374  -2.540   5.379  0.00  0.00     0.019 A 
ATOM     15  C   UNK d   1       1.681  -2.321   5.751  0.00  0.00     0.011 A 
ATOM     16 Br   UNK d   1       2.421  -3.323   7.205  0.00  0.00    -0.051 Br
ATOM     17  C   UNK d   1       2.498  -1.409   5.125  0.00  0.00     0.019 A 
ATOM     18  C   UNK d   1       1.924  -0.705   4.078  0.00  0.00     0.011 A 
ENDBRANCH  11  12
BRANCH  11  19
ATOM     19  O   UNK d   1       0.384   1.217   2.735  0.00  0.00    -0.389 OA
ATOM     20  H   UNK d   1       1.346   1.385   2.707  0.00  0.00     0.210 HD
ENDBRANCH  11  19
ENDBRANCH  10  11
ENDBRANCH   1  10
BRANCH   9  21
ATOM     21  N   UNK d   1       1.625   1.683  -0.329  0.00  0.00    -0.234 N 
ATOM     22  H   UNK d   1       2.209   1.338   0.491  0.00  0.00     0.174 HD
ATOM     23  H   UNK d   1       2.025   2.480  -0.829  0.00  0.00     0.174 HD
ENDBRANCH   9  21
BRANCH   8  24
ATOM     24  C   UNK d   1      -0.169   2.482  -2.607  0.00  0.00     0.186 C 
BRANCH  24  25
ATOM     25  C   UNK d   1       0.576   2.043  -3.837  0.00  0.00    -0.039 A 
ATOM     26  C   UNK d   1       1.939   2.273  -3.913  0.00  0.00     0.009 A 
ATOM     27  C   UNK d   1       2.693   1.898  -5.008  0.00  0.00     0.001 A 
ATOM     28  C   UNK d   1       2.040   1.276  -6.043  0.00  0.00     0.000 A 
ATOM     29  C   UNK d   1       0.692   1.037  -5.994  0.00  0.00     0.001 A 
ATOM     30  C   UNK d   1      -0.027   1.421  -4.894  0.00  0.00     0.009 A 
ENDBRANCH  24  25
ENDBRANCH   8  24
TORSDOF 7
