# created with PyMOL 2.3.2
@<TRIPOS>MOLECULE
289
55 58 1                 
SMALL
USER_CHARGES
@<TRIPOS>ATOM
1	  Br	-3.850	-5.982	-4.530	Br	1	UNK0	0.000	
2	   C	-3.259	-4.266	-3.898	C.2	1	UNK0	0.000	
3	   C	-2.008	-3.787	-4.229	C.2	1	UNK0	0.000	
4	   C	-1.578	-2.551	-3.773	C.2	1	UNK0	0.000	
5	   C	-2.396	-1.785	-2.981	C.2	1	UNK0	0.000	
6	   C	-3.650	-2.248	-2.642	C.2	1	UNK0	0.000	
7	   C	-4.064	-3.481	-3.104	C.2	1	UNK0	0.000	
8	   C	-1.888	-0.483	-2.509	C.3	1	UNK0	0.000	
9	   N	-2.556	0.034	-1.361	N.3	1	UNK0	0.000	
10	   C	-2.518	-0.765	-0.210	C.3	1	UNK0	0.000	
11	   C	-1.712	-0.129	0.918	C.3	1	UNK0	0.000	
12	   N	-1.128	1.058	0.398	N.pl3	1	UNK0	0.000	
13	   C	-2.042	2.069	-0.076	C.3	1	UNK0	0.000	
14	   C	-2.742	1.424	-1.278	C.3	1	UNK0	0.000	
15	   C	0.259	1.271	0.312	C.2	1	UNK0	0.000	
16	   N	1.108	1.622	1.292	N.pl3	1	UNK0	0.000	
17	   C	2.350	1.770	0.774	C.2	1	UNK0	0.000	
18	   C	2.297	1.505	-0.577	C.2	1	UNK0	0.000	
19	   N	1.023	1.205	-0.830	N.2	1	UNK0	0.000	
20	   N	3.420	1.590	-1.314	N.pl3	1	UNK0	0.000	
21	   C	4.598	1.927	-0.772	C.2	1	UNK0	0.000	
22	   O	5.638	1.999	-1.502	O.2	1	UNK0	0.000	
23	   N	4.671	2.190	0.544	N.pl3	1	UNK0	0.000	
24	   C	3.572	2.114	1.307	C.2	1	UNK0	0.000	
25	   O	3.643	2.361	2.536	O.2	1	UNK0	0.000	
26	   C	3.324	1.306	-2.750	C.3	1	UNK0	0.000	
27	   C	0.837	1.786	2.695	C.3	1	UNK0	0.000	
28	   C	1.117	0.525	3.481	C.3	1	UNK0	0.000	
29	   O	0.858	0.637	4.832	O.3	1	UNK0	0.000	
30	   C	1.188	-0.619	5.392	C.3	1	UNK0	0.000	
31	   H	-1.379	-4.398	-4.847	 H	1	UNK0	0.000	
32	   H	-0.583	-2.247	-4.079	 H	1	UNK0	0.000	
33	   H	-4.331	-1.656	-2.011	 H	1	UNK0	0.000	
34	   H	-5.059	-3.828	-2.820	 H	1	UNK0	0.000	
35	   H	-1.838	0.252	-3.332	 H	1	UNK0	0.000	
36	   H	-0.818	-0.668	-2.192	 H	1	UNK0	0.000	
37	   H	-1.932	-1.706	-0.462	 H	1	UNK0	0.000	
38	   H	-3.503	-1.146	0.159	 H	1	UNK0	0.000	
39	   H	-2.481	0.104	1.723	 H	1	UNK0	0.000	
40	   H	-1.036	-0.849	1.399	 H	1	UNK0	0.000	
41	   H	-1.504	2.977	-0.358	 H	1	UNK0	0.000	
42	   H	-2.833	2.313	0.690	 H	1	UNK0	0.000	
43	   H	-2.281	1.895	-2.175	 H	1	UNK0	0.000	
44	   H	-3.804	1.742	-1.301	 H	1	UNK0	0.000	
45	   H	5.601	2.457	0.980	 H	1	UNK0	0.000	
46	   H	2.930	2.230	-3.234	 H	1	UNK0	0.000	
47	   H	4.266	0.978	-3.182	 H	1	UNK0	0.000	
48	   H	2.526	0.533	-2.866	 H	1	UNK0	0.000	
49	   H	1.410	2.606	3.172	 H	1	UNK0	0.000	
50	   H	-0.249	2.061	2.859	 H	1	UNK0	0.000	
51	   H	2.165	0.187	3.278	 H	1	UNK0	0.000	
52	   H	0.481	-0.292	3.099	 H	1	UNK0	0.000	
53	   H	2.279	-0.802	5.189	 H	1	UNK0	0.000	
54	   H	0.661	-1.447	4.902	 H	1	UNK0	0.000	
55	   H	0.998	-0.578	6.481	 H	1	UNK0	0.000	
@<TRIPOS>BOND
1 1 2 1
2 2 3 2
3 2 7 1
4 3 4 1
5 4 5 2
6 5 6 1
7 5 8 1
8 6 7 2
9 8 9 1
10 9 10 1
11 9 14 1
12 10 11 1
13 11 12 1
14 12 13 1
15 12 15 1
16 13 14 1
17 15 16 1
18 15 19 2
19 16 17 1
20 16 27 1
21 17 18 2
22 17 24 1
23 18 19 1
24 18 20 1
25 20 21 1
26 20 26 1
27 21 22 2
28 21 23 1
29 23 24 1
30 24 25 2
31 27 28 1
32 28 29 1
33 29 30 1
34 3 31 1
35 4 32 1
36 6 33 1
37 7 34 1
38 8 35 1
39 8 36 1
40 10 37 1
41 10 38 1
42 11 39 1
43 11 40 1
44 13 41 1
45 13 42 1
46 14 43 1
47 14 44 1
48 23 45 1
49 26 46 1
50 26 47 1
51 26 48 1
52 27 49 1
53 27 50 1
54 28 51 1
55 28 52 1
56 30 53 1
57 30 54 1
58 30 55 1
@<TRIPOS>SUBSTRUCTURE
1	UNK0	1	GROUP	1 ****	UNK
