REMARK  6 active torsions:
REMARK  status: ('A' for Active; 'I' for Inactive)
REMARK    1  A    between atoms: C_5  and  C_8 
REMARK    2  A    between atoms: C_8  and  N_9 
REMARK    3  A    between atoms: N_12  and  C_15 
REMARK    4  A    between atoms: N_16  and  C_27 
REMARK    5  A    between atoms: C_27  and  C_28 
REMARK    6  A    between atoms: C_28  and  O_29 
ROOT
ATOM      1  C   UNK d   1       0.259   1.271   0.312  0.00  0.00     0.707 A 
ATOM      2  N   UNK d   1       1.108   1.622   1.292  0.00  0.00    -0.170 N 
ATOM      3  C   UNK d   1       2.350   1.770   0.774  0.00  0.00     0.166 A 
ATOM      4  C   UNK d   1       2.297   1.505  -0.577  0.00  0.00     0.185 A 
ATOM      5  N   UNK d   1       1.023   1.205  -0.830  0.00  0.00    -0.044 NA
ATOM      6  N   UNK d   1       3.420   1.590  -1.314  0.00  0.00    -0.286 N 
ATOM      7  C   UNK d   1       4.598   1.927  -0.772  0.00  0.00     0.330 A 
ATOM      8  O   UNK d   1       5.638   1.999  -1.502  0.00  0.00    -0.246 OA
ATOM      9  N   UNK d   1       4.671   2.190   0.544  0.00  0.00    -0.273 N 
ATOM     10  C   UNK d   1       3.572   2.114   1.307  0.00  0.00     0.280 A 
ATOM     11  O   UNK d   1       3.643   2.361   2.536  0.00  0.00    -0.265 OA
ATOM     12  C   UNK d   1       3.324   1.306  -2.750  0.00  0.00     0.163 C 
ATOM     13  H   UNK d   1       5.601   2.457   0.980  0.00  0.00     0.173 HD
ENDROOT
BRANCH   1  14
ATOM     14  N   UNK d   1      -1.128   1.058   0.398  0.00  0.00    -0.213 N 
ATOM     15  C   UNK d   1      -1.712  -0.129   0.918  0.00  0.00     0.160 C 
ATOM     16  C   UNK d   1      -2.518  -0.765  -0.210  0.00  0.00     0.137 C 
ATOM     17  N   UNK d   1      -2.556   0.034  -1.361  0.00  0.00    -0.405 N 
ATOM     18  C   UNK d   1      -2.742   1.424  -1.278  0.00  0.00     0.137 C 
ATOM     19  C   UNK d   1      -2.042   2.069  -0.076  0.00  0.00     0.160 C 
BRANCH  17  20
ATOM     20  C   UNK d   1      -1.888  -0.483  -2.509  0.00  0.00     0.155 C 
BRANCH  20  21
ATOM     21  C   UNK d   1      -2.396  -1.785  -2.981  0.00  0.00    -0.041 A 
ATOM     22  C   UNK d   1      -1.578  -2.551  -3.773  0.00  0.00     0.010 A 
ATOM     23  C   UNK d   1      -2.008  -3.787  -4.229  0.00  0.00     0.019 A 
ATOM     24  C   UNK d   1      -3.259  -4.266  -3.898  0.00  0.00     0.011 A 
ATOM     25 Br   UNK d   1      -3.850  -5.982  -4.530  0.00  0.00    -0.051 Br
ATOM     26  C   UNK d   1      -4.064  -3.481  -3.104  0.00  0.00     0.019 A 
ATOM     27  C   UNK d   1      -3.650  -2.248  -2.642  0.00  0.00     0.010 A 
ENDBRANCH  20  21
ENDBRANCH  17  20
ENDBRANCH   1  14
BRANCH   2  28
ATOM     28  C   UNK d   1       0.837   1.786   2.695  0.00  0.00     0.174 C 
BRANCH  28  29
ATOM     29  C   UNK d   1       1.117   0.525   3.481  0.00  0.00     0.187 C 
BRANCH  29  30
ATOM     30  O   UNK d   1       0.858   0.637   4.832  0.00  0.00    -0.394 OA
ATOM     31  C   UNK d   1       1.188  -0.619   5.392  0.00  0.00     0.201 C 
ENDBRANCH  29  30
ENDBRANCH  28  29
ENDBRANCH   2  28
TORSDOF 6
