# created with PyMOL 2.3.2
@<TRIPOS>MOLECULE
293
44 47 1                 
SMALL
USER_CHARGES
@<TRIPOS>ATOM
1	  Br	-4.323	4.400	3.868	Br	1	UNK0	0.000	
2	   C	-3.815	2.546	3.849	C.2	1	UNK0	0.000	
3	   C	-3.545	1.872	5.018	C.2	1	UNK0	0.000	
4	   C	-3.177	0.540	5.005	C.2	1	UNK0	0.000	
5	   C	-3.064	-0.176	3.825	C.2	1	UNK0	0.000	
6	   C	-3.336	0.502	2.658	C.2	1	UNK0	0.000	
7	   C	-3.708	1.849	2.664	C.2	1	UNK0	0.000	
8	   C	-2.677	-1.583	3.849	C.2	1	UNK0	0.000	
9	   C	-1.852	-2.057	2.908	C.2	1	UNK0	0.000	
10	   O	-1.329	-1.279	1.888	O.3	1	UNK0	0.000	
11	   C	-0.502	-2.020	1.050	C.2	1	UNK0	0.000	
12	   C	-0.473	-3.301	1.512	C.2	1	UNK0	0.000	
13	   C	0.280	-4.254	0.858	C.2	1	UNK0	0.000	
14	   C	0.979	-3.857	-0.252	C.2	1	UNK0	0.000	
15	   C	0.951	-2.540	-0.729	C.2	1	UNK0	0.000	
16	   C	0.207	-1.578	-0.093	C.2	1	UNK0	0.000	
17	   C	0.078	-0.166	-0.473	C.3	1	UNK0	0.000	
18	   N	0.781	0.292	-1.608	N.4	1	UNK0	0.000	
19	   C	0.090	-0.007	-2.845	C.3	1	UNK0	0.000	
20	   C	-0.902	1.100	-3.151	C.3	1	UNK0	0.000	
21	   O	-0.197	2.173	-3.674	O.3	1	UNK0	0.000	
22	   C	1.045	2.224	-3.032	C.3	1	UNK0	0.000	
23	   C	0.905	1.760	-1.591	C.3	1	UNK0	0.000	
24	   O	1.692	-2.218	-1.867	O.2	1	UNK0	0.000	
25	   C	-1.326	-3.380	2.706	C.2	1	UNK0	0.000	
26	   O	-1.570	-4.378	3.431	O.2	1	UNK0	0.000	
27	   H	-3.635	2.441	5.937	 H	1	UNK0	0.000	
28	   H	-2.964	0.014	5.934	 H	1	UNK0	0.000	
29	   H	-3.265	-0.006	1.717	 H	1	UNK0	0.000	
30	   H	-3.923	2.394	1.753	 H	1	UNK0	0.000	
31	   H	-3.022	-2.292	4.600	 H	1	UNK0	0.000	
32	   H	0.315	-5.278	1.213	 H	1	UNK0	0.000	
33	   H	1.576	-4.576	-0.782	 H	1	UNK0	0.000	
34	   H	0.258	0.467	0.428	 H	1	UNK0	0.000	
35	   H	-1.024	-0.015	-0.698	 H	1	UNK0	0.000	
36	   H	1.764	-0.048	-1.626	 H	1	UNK0	0.000	
37	   H	0.762	-0.205	-3.700	 H	1	UNK0	0.000	
38	   H	-0.523	-0.921	-2.697	 H	1	UNK0	0.000	
39	   H	-1.431	1.362	-2.216	 H	1	UNK0	0.000	
40	   H	-1.627	0.665	-3.888	 H	1	UNK0	0.000	
41	   H	1.388	3.273	-3.095	 H	1	UNK0	0.000	
42	   H	1.805	1.605	-3.567	 H	1	UNK0	0.000	
43	   H	1.836	2.041	-1.054	 H	1	UNK0	0.000	
44	   H	0.048	2.257	-1.138	 H	1	UNK0	0.000	
@<TRIPOS>BOND
1 1 2 1
2 2 3 2
3 2 7 1
4 3 4 1
5 4 5 2
6 5 6 1
7 5 8 1
8 6 7 2
9 8 9 2
10 9 10 1
11 9 25 1
12 10 11 1
13 11 12 2
14 11 16 1
15 12 13 1
16 12 25 1
17 13 14 2
18 14 15 1
19 15 16 2
20 15 24 1
21 16 17 1
22 17 18 1
23 18 19 1
24 18 23 1
25 19 20 1
26 20 21 1
27 21 22 1
28 22 23 1
29 25 26 2
30 3 27 1
31 4 28 1
32 6 29 1
33 7 30 1
34 8 31 1
35 13 32 1
36 14 33 1
37 17 34 1
38 17 35 1
39 18 36 1
40 19 37 1
41 19 38 1
42 20 39 1
43 20 40 1
44 22 41 1
45 22 42 1
46 23 43 1
47 23 44 1
@<TRIPOS>SUBSTRUCTURE
1	UNK0	1	GROUP	1 ****	UNK
