REMARK  3 active torsions:
REMARK  status: ('A' for Active; 'I' for Inactive)
REMARK    1  A    between atoms: C_5  and  C_8 
REMARK    2  A    between atoms: C_16  and  C_17 
REMARK    3  A    between atoms: C_17  and  N_18 
ROOT
ATOM      1  C   UNK d   1      -2.677  -1.583   3.849  0.00  0.00     0.053 C 
ATOM      2  C   UNK d   1      -1.852  -2.057   2.908  0.00  0.00     0.127 A 
ATOM      3  O   UNK d   1      -1.329  -1.279   1.888  0.00  0.00    -0.305 OA
ATOM      4  C   UNK d   1      -0.502  -2.020   1.050  0.00  0.00     0.101 A 
ATOM      5  C   UNK d   1      -0.473  -3.301   1.512  0.00  0.00     0.051 A 
ATOM      6  C   UNK d   1       0.280  -4.254   0.858  0.00  0.00     0.021 A 
ATOM      7  C   UNK d   1       0.979  -3.857  -0.252  0.00  0.00     0.041 A 
ATOM      8  C   UNK d   1       0.951  -2.540  -0.729  0.00  0.00     0.118 A 
ATOM      9  C   UNK d   1       0.207  -1.578  -0.093  0.00  0.00     0.039 A 
ATOM     10  O   UNK d   1       1.692  -2.218  -1.867  0.00  0.00    -0.191 OA
ATOM     11  C   UNK d   1      -1.326  -3.380   2.706  0.00  0.00     0.218 A 
ATOM     12  O   UNK d   1      -1.570  -4.378   3.431  0.00  0.00    -0.284 OA
ENDROOT
BRANCH   1  13
ATOM     13  C   UNK d   1      -3.064  -0.176   3.825  0.00  0.00    -0.033 A 
ATOM     14  C   UNK d   1      -3.177   0.540   5.005  0.00  0.00     0.013 A 
ATOM     15  C   UNK d   1      -3.545   1.872   5.018  0.00  0.00     0.020 A 
ATOM     16  C   UNK d   1      -3.815   2.546   3.849  0.00  0.00     0.011 A 
ATOM     17 Br   UNK d   1      -4.323   4.400   3.868  0.00  0.00    -0.051 Br
ATOM     18  C   UNK d   1      -3.708   1.849   2.664  0.00  0.00     0.020 A 
ATOM     19  C   UNK d   1      -3.336   0.502   2.658  0.00  0.00     0.013 A 
ENDBRANCH   1  13
BRANCH   9  20
ATOM     20  C   UNK d   1       0.078  -0.166  -0.473  0.00  0.00     0.279 C 
BRANCH  20  21
ATOM     21  N   UNK d   1       0.781   0.292  -1.608  0.00  0.00    -0.063 N 
ATOM     22  C   UNK d   1       0.090  -0.007  -2.845  0.00  0.00     0.261 C 
ATOM     23  C   UNK d   1      -0.902   1.100  -3.151  0.00  0.00     0.195 C 
ATOM     24  O   UNK d   1      -0.197   2.173  -3.674  0.00  0.00    -0.388 OA
ATOM     25  C   UNK d   1       1.045   2.224  -3.032  0.00  0.00     0.195 C 
ATOM     26  C   UNK d   1       0.905   1.760  -1.591  0.00  0.00     0.261 C 
ATOM     27  H   UNK d   1       1.764  -0.048  -1.626  0.00  0.00     0.280 HD
ENDBRANCH  20  21
ENDBRANCH   9  20
TORSDOF 3
