REMARK  8 active torsions:
REMARK  status: ('A' for Active; 'I' for Inactive)
REMARK    1  A    between atoms: C_5  and  C_8 
REMARK    2  A    between atoms: N_9  and  N_10 
REMARK       I    between atoms: N_10  and  C_11 
REMARK    3  A    between atoms: C_11  and  C_13 
REMARK    4  A    between atoms: C_13  and  N_14 
REMARK    5  A    between atoms: C_16  and  C_25 
REMARK    6  A    between atoms: C_18  and  C_19 
REMARK    7  A    between atoms: C_23  and  N_24 
REMARK    8  A    between atoms: C_29  and  N_30 
ROOT
ATOM      1  N   UNK d   1       1.192  -2.276  -1.549  0.00  0.00    -0.239 N 
ATOM      2  N   UNK d   1       0.137  -2.383  -2.413  0.00  0.00    -0.147 NA
ATOM      3  C   UNK d   1       0.449  -1.755  -3.555  0.00  0.00     0.206 A 
ATOM      4  N   UNK d   1       1.679  -1.276  -3.377  0.00  0.00    -0.203 NA
ATOM      5  C   UNK d   1       2.155  -1.599  -2.116  0.00  0.00     0.184 A 
ENDROOT
BRANCH   1   6
ATOM      6  C   UNK d   1       1.112  -2.894  -0.240  0.00  0.00     0.257 C 
BRANCH   6   7
ATOM      7  C   UNK d   1       0.590  -1.943   0.776  0.00  0.00     0.257 C 
ATOM      8  N   UNK d   1       0.239  -0.618   0.421  0.00  0.00    -0.246 N 
ATOM      9  H   UNK d   1       0.341  -0.274  -0.582  0.00  0.00     0.192 HD
ATOM     10  O   UNK d   1       0.456  -2.313   1.964  0.00  0.00    -0.270 OA
BRANCH   8  11
ATOM     11  N   UNK d   1      -0.243   0.238   1.387  0.00  0.00    -0.184 NA
ATOM     12  C   UNK d   1       0.420   1.166   1.957  0.00  0.00     0.150 C 
BRANCH  12  13
ATOM     13  C   UNK d   1      -0.143   2.045   2.976  0.00  0.00    -0.017 A 
ATOM     14  C   UNK d   1      -1.452   1.922   3.392  0.00  0.00     0.014 A 
ATOM     15  C   UNK d   1      -1.965   2.767   4.360  0.00  0.00     0.020 A 
ATOM     16  C   UNK d   1      -1.197   3.761   4.948  0.00  0.00     0.011 A 
ATOM     17 Br   UNK d   1      -1.933   4.911   6.282  0.00  0.00    -0.051 Br
ATOM     18  C   UNK d   1       0.112   3.885   4.532  0.00  0.00     0.020 A 
ATOM     19  C   UNK d   1       0.612   3.036   3.566  0.00  0.00     0.014 A 
ENDBRANCH  12  13
ENDBRANCH   8  11
ENDBRANCH   6   7
ENDBRANCH   1   6
BRANCH   5  20
ATOM     20  C   UNK d   1       3.470  -1.199  -1.659  0.00  0.00     0.181 A 
ATOM     21  N   UNK d   1       4.339  -0.471  -2.467  0.00  0.00    -0.097 NA
ATOM     22  O   UNK d   1       5.418  -0.232  -1.831  0.00  0.00    -0.104 OA
ATOM     23  N   UNK d   1       5.357  -0.734  -0.661  0.00  0.00    -0.085 NA
ATOM     24  C   UNK d   1       4.145  -1.351  -0.517  0.00  0.00     0.186 A 
BRANCH  24  25
ATOM     25  N   UNK d   1       3.806  -1.980   0.687  0.00  0.00    -0.380 N 
ATOM     26  H   UNK d   1       4.067  -2.983   0.831  0.00  0.00     0.158 HD
ATOM     27  H   UNK d   1       3.310  -1.514   1.475  0.00  0.00     0.158 HD
ENDBRANCH  24  25
ENDBRANCH   5  20
BRANCH   3  28
ATOM     28  C   UNK d   1      -0.378  -1.619  -4.748  0.00  0.00     0.183 A 
ATOM     29  N   UNK d   1      -0.060  -0.991  -5.884  0.00  0.00    -0.097 NA
ATOM     30  O   UNK d   1      -1.071  -1.086  -6.730  0.00  0.00    -0.104 OA
ATOM     31  N   UNK d   1      -2.050  -1.757  -6.193  0.00  0.00    -0.085 NA
ATOM     32  C   UNK d   1      -1.645  -2.111  -4.935  0.00  0.00     0.186 A 
BRANCH  32  33
ATOM     33  N   UNK d   1      -2.444  -2.857  -4.031  0.00  0.00    -0.380 N 
ATOM     34  H   UNK d   1      -3.212  -3.483  -4.403  0.00  0.00     0.158 HD
ATOM     35  H   UNK d   1      -2.327  -2.833  -3.000  0.00  0.00     0.158 HD
ENDBRANCH  32  33
ENDBRANCH   3  28
TORSDOF 8
