# created with PyMOL 2.3.2
@<TRIPOS>MOLECULE
294
42 45 1                 
SMALL
USER_CHARGES
@<TRIPOS>ATOM
1	  Br	-1.933	4.911	6.282	Br	1	UNK0	0.000	
2	   C	-1.197	3.761	4.948	C.2	1	UNK0	0.000	
3	   C	-1.965	2.767	4.360	C.2	1	UNK0	0.000	
4	   C	-1.452	1.922	3.392	C.2	1	UNK0	0.000	
5	   C	-0.143	2.045	2.976	C.2	1	UNK0	0.000	
6	   C	0.612	3.036	3.566	C.2	1	UNK0	0.000	
7	   C	0.112	3.885	4.532	C.2	1	UNK0	0.000	
8	   C	0.420	1.166	1.957	C.2	1	UNK0	0.000	
9	   N	-0.243	0.238	1.387	N.2	1	UNK0	0.000	
10	   N	0.239	-0.618	0.421	N.pl3	1	UNK0	0.000	
11	   C	0.590	-1.943	0.776	C.2	1	UNK0	0.000	
12	   O	0.456	-2.313	1.964	O.2	1	UNK0	0.000	
13	   C	1.112	-2.894	-0.240	C.3	1	UNK0	0.000	
14	   N	1.192	-2.276	-1.549	N.pl3	1	UNK0	0.000	
15	   N	0.137	-2.383	-2.413	N.2	1	UNK0	0.000	
16	   C	0.449	-1.755	-3.555	C.2	1	UNK0	0.000	
17	   N	1.679	-1.276	-3.377	N.2	1	UNK0	0.000	
18	   C	2.155	-1.599	-2.116	C.2	1	UNK0	0.000	
19	   C	3.470	-1.199	-1.659	C.2	1	UNK0	0.000	
20	   N	4.339	-0.471	-2.467	N.2	1	UNK0	0.000	
21	   O	5.418	-0.232	-1.831	O.3	1	UNK0	0.000	
22	   N	5.357	-0.734	-0.661	N.2	1	UNK0	0.000	
23	   C	4.145	-1.351	-0.517	C.2	1	UNK0	0.000	
24	   N	3.806	-1.980	0.687	N.pl3	1	UNK0	0.000	
25	   C	-0.378	-1.619	-4.748	C.2	1	UNK0	0.000	
26	   N	-0.060	-0.991	-5.884	N.2	1	UNK0	0.000	
27	   O	-1.071	-1.086	-6.730	O.3	1	UNK0	0.000	
28	   N	-2.050	-1.757	-6.193	N.2	1	UNK0	0.000	
29	   C	-1.645	-2.111	-4.935	C.2	1	UNK0	0.000	
30	   N	-2.444	-2.857	-4.031	N.pl3	1	UNK0	0.000	
31	   H	-2.981	2.658	4.671	 H	1	UNK0	0.000	
32	   H	-2.068	1.139	2.934	 H	1	UNK0	0.000	
33	   H	1.651	3.117	3.221	 H	1	UNK0	0.000	
34	   H	0.752	4.662	4.977	 H	1	UNK0	0.000	
35	   H	1.451	1.311	1.672	 H	1	UNK0	0.000	
36	   H	0.341	-0.274	-0.582	 H	1	UNK0	0.000	
37	   H	1.925	-3.534	0.049	 H	1	UNK0	0.000	
38	   H	0.248	-3.672	-0.352	 H	1	UNK0	0.000	
39	   H	4.067	-2.983	0.831	 H	1	UNK0	0.000	
40	   H	3.310	-1.514	1.475	 H	1	UNK0	0.000	
41	   H	-3.212	-3.483	-4.403	 H	1	UNK0	0.000	
42	   H	-2.327	-2.833	-3.000	 H	1	UNK0	0.000	
@<TRIPOS>BOND
1 1 2 1
2 2 3 2
3 2 7 1
4 3 4 1
5 4 5 2
6 5 6 1
7 5 8 1
8 6 7 2
9 8 9 2
10 9 10 1
11 10 11 1
12 11 12 2
13 11 13 1
14 13 14 1
15 14 15 1
16 14 18 1
17 15 16 2
18 16 17 1
19 16 25 1
20 17 18 2
21 18 19 1
22 19 20 2
23 19 23 1
24 20 21 1
25 21 22 1
26 22 23 2
27 23 24 1
28 25 26 2
29 25 29 1
30 26 27 1
31 27 28 1
32 28 29 2
33 29 30 1
34 3 31 1
35 4 32 1
36 6 33 1
37 7 34 1
38 8 35 1
39 10 36 1
40 13 37 1
41 13 38 1
42 24 39 1
43 24 40 1
44 30 41 1
45 30 42 1
@<TRIPOS>SUBSTRUCTURE
1	UNK0	1	GROUP	1 ****	UNK
