# created with PyMOL 2.3.2
@<TRIPOS>MOLECULE
302
50 54 1                 
SMALL
USER_CHARGES
@<TRIPOS>ATOM
1	  Br	0.841	1.106	-7.921	Br	1	UNK0	0.000	
2	   C	0.247	1.032	-6.120	C.2	1	UNK0	0.000	
3	   C	0.987	0.358	-5.168	C.2	1	UNK0	0.000	
4	   C	0.549	0.306	-3.847	C.2	1	UNK0	0.000	
5	   C	-0.619	0.914	-3.446	C.2	1	UNK0	0.000	
6	   C	-1.350	1.584	-4.401	C.2	1	UNK0	0.000	
7	   C	-0.926	1.646	-5.731	C.2	1	UNK0	0.000	
8	   C	-1.079	0.859	-2.062	C.2	1	UNK0	0.000	
9	   N	-0.465	0.241	-1.032	N.pl3	1	UNK0	0.000	
10	   C	-1.186	0.404	0.105	C.cat	1	UNK0	0.000	
11	   N	-2.277	1.132	-0.189	N.pl3	1	UNK0	0.000	
12	   C	-2.216	1.413	-1.511	C.2	1	UNK0	0.000	
13	   C	-2.957	1.265	0.966	C.2	1	UNK0	0.000	
14	   C	-2.292	0.619	1.986	C.2	1	UNK0	0.000	
15	   C	-2.776	0.599	3.289	C.2	1	UNK0	0.000	
16	   C	-3.957	1.240	3.585	C.2	1	UNK0	0.000	
17	   C	-4.615	1.883	2.559	C.2	1	UNK0	0.000	
18	   C	-4.158	1.919	1.259	C.2	1	UNK0	0.000	
19	   N	-1.181	0.088	1.410	N.pl3	1	UNK0	0.000	
20	   C	-0.208	-0.679	2.160	C.3	1	UNK0	0.000	
21	   C	0.879	0.204	2.733	C.3	1	UNK0	0.000	
22	   N	1.826	-0.584	3.469	N.4	1	UNK0	0.000	
23	   C	3.148	-0.001	3.376	C.3	1	UNK0	0.000	
24	   C	4.219	-1.027	3.096	C.3	1	UNK0	0.000	
25	   O	4.098	-2.068	4.019	O.3	1	UNK0	0.000	
26	   C	2.861	-2.674	3.964	C.3	1	UNK0	0.000	
27	   C	1.914	-1.949	3.044	C.3	1	UNK0	0.000	
28	   H	1.911	-0.125	-5.476	 H	1	UNK0	0.000	
29	   H	1.150	-0.227	-3.140	 H	1	UNK0	0.000	
30	   H	-2.273	2.080	-4.148	 H	1	UNK0	0.000	
31	   H	-1.517	2.182	-6.476	 H	1	UNK0	0.000	
32	   H	0.430	-0.287	-1.077	 H	1	UNK0	0.000	
33	   H	-2.945	1.985	-2.067	 H	1	UNK0	0.000	
34	   H	-2.210	0.078	4.036	 H	1	UNK0	0.000	
35	   H	-4.371	1.245	4.606	 H	1	UNK0	0.000	
36	   H	-5.539	2.387	2.781	 H	1	UNK0	0.000	
37	   H	-4.652	2.410	0.455	 H	1	UNK0	0.000	
38	   H	-0.714	-1.190	3.014	 H	1	UNK0	0.000	
39	   H	0.214	-1.469	1.509	 H	1	UNK0	0.000	
40	   H	0.465	0.961	3.400	 H	1	UNK0	0.000	
41	   H	1.395	0.687	1.881	 H	1	UNK0	0.000	
42	   H	1.580	-0.593	4.491	 H	1	UNK0	0.000	
43	   H	3.179	0.779	2.564	 H	1	UNK0	0.000	
44	   H	3.439	0.527	4.311	 H	1	UNK0	0.000	
45	   H	5.194	-0.524	3.260	 H	1	UNK0	0.000	
46	   H	4.162	-1.369	2.049	 H	1	UNK0	0.000	
47	   H	3.030	-3.706	3.546	 H	1	UNK0	0.000	
48	   H	2.386	-2.780	4.965	 H	1	UNK0	0.000	
49	   H	0.903	-2.420	3.205	 H	1	UNK0	0.000	
50	   H	2.250	-2.077	2.006	 H	1	UNK0	0.000	
@<TRIPOS>BOND
1 1 2 1
2 2 3 2
3 2 7 1
4 3 4 1
5 4 5 2
6 5 6 1
7 5 8 1
8 6 7 2
9 8 9 1
10 8 12 2
11 9 10 2
12 10 11 1
13 10 19 1
14 11 12 1
15 11 13 1
16 13 14 2
17 13 18 1
18 14 15 1
19 14 19 1
20 15 16 2
21 16 17 1
22 17 18 2
23 19 20 1
24 20 21 1
25 21 22 1
26 22 23 1
27 22 27 1
28 23 24 1
29 24 25 1
30 25 26 1
31 26 27 1
32 3 28 1
33 4 29 1
34 6 30 1
35 7 31 1
36 9 32 1
37 12 33 1
38 15 34 1
39 16 35 1
40 17 36 1
41 18 37 1
42 20 38 1
43 20 39 1
44 21 40 1
45 21 41 1
46 22 42 1
47 23 43 1
48 23 44 1
49 24 45 1
50 24 46 1
51 26 47 1
52 26 48 1
53 27 49 1
54 27 50 1
@<TRIPOS>SUBSTRUCTURE
1	UNK0	1	GROUP	1 ****	UNK
