REMARK  4 active torsions:
REMARK  status: ('A' for Active; 'I' for Inactive)
REMARK    1  A    between atoms: C_5  and  C_8 
REMARK    2  A    between atoms: N_19  and  C_20 
REMARK    3  A    between atoms: C_20  and  C_21 
REMARK    4  A    between atoms: C_21  and  N_22 
ROOT
ATOM      1  C   UNK d   1      -1.079   0.859  -2.062  0.00  0.00     0.076 A 
ATOM      2  N   UNK d   1      -0.465   0.241  -1.032  0.00  0.00    -0.189 N 
ATOM      3  C   UNK d   1      -1.186   0.404   0.105  0.00  0.00     0.692 A 
ATOM      4  N   UNK d   1      -2.277   1.132  -0.189  0.00  0.00    -0.153 N 
ATOM      5  C   UNK d   1      -2.216   1.413  -1.511  0.00  0.00     0.146 A 
ATOM      6  C   UNK d   1      -2.957   1.265   0.966  0.00  0.00     0.084 A 
ATOM      7  C   UNK d   1      -2.292   0.619   1.986  0.00  0.00     0.079 A 
ATOM      8  C   UNK d   1      -2.776   0.599   3.289  0.00  0.00     0.032 A 
ATOM      9  C   UNK d   1      -3.957   1.240   3.585  0.00  0.00     0.002 A 
ATOM     10  C   UNK d   1      -4.615   1.883   2.559  0.00  0.00     0.002 A 
ATOM     11  C   UNK d   1      -4.158   1.919   1.259  0.00  0.00     0.033 A 
ATOM     12  N   UNK d   1      -1.181   0.088   1.410  0.00  0.00    -0.179 N 
ATOM     13  H   UNK d   1       0.430  -0.287  -1.077  0.00  0.00     0.184 HD
ENDROOT
BRANCH  12  14
ATOM     14  C   UNK d   1      -0.208  -0.679   2.160  0.00  0.00     0.175 C 
BRANCH  14  15
ATOM     15  C   UNK d   1       0.879   0.204   2.733  0.00  0.00     0.256 C 
BRANCH  15  16
ATOM     16  N   UNK d   1       1.826  -0.584   3.469  0.00  0.00    -0.066 N 
ATOM     17  C   UNK d   1       3.148  -0.001   3.376  0.00  0.00     0.261 C 
ATOM     18  C   UNK d   1       4.219  -1.027   3.096  0.00  0.00     0.195 C 
ATOM     19  O   UNK d   1       4.098  -2.068   4.019  0.00  0.00    -0.388 OA
ATOM     20  C   UNK d   1       2.861  -2.674   3.964  0.00  0.00     0.195 C 
ATOM     21  C   UNK d   1       1.914  -1.949   3.044  0.00  0.00     0.261 C 
ATOM     22  H   UNK d   1       1.580  -0.593   4.491  0.00  0.00     0.280 HD
ENDBRANCH  15  16
ENDBRANCH  14  15
ENDBRANCH  12  14
BRANCH   1  23
ATOM     23  C   UNK d   1      -0.619   0.914  -3.446  0.00  0.00    -0.007 A 
ATOM     24  C   UNK d   1       0.549   0.306  -3.847  0.00  0.00     0.015 A 
ATOM     25  C   UNK d   1       0.987   0.358  -5.168  0.00  0.00     0.020 A 
ATOM     26  C   UNK d   1       0.247   1.032  -6.120  0.00  0.00     0.011 A 
ATOM     27 Br   UNK d   1       0.841   1.106  -7.921  0.00  0.00    -0.051 Br
ATOM     28  C   UNK d   1      -0.926   1.646  -5.731  0.00  0.00     0.020 A 
ATOM     29  C   UNK d   1      -1.350   1.584  -4.401  0.00  0.00     0.015 A 
ENDBRANCH   1  23
TORSDOF 4
