REMARK  4 active torsions:
REMARK  status: ('A' for Active; 'I' for Inactive)
REMARK    1  A    between atoms: C_5  and  C_8 
REMARK    2  A    between atoms: N_13  and  C_23 
REMARK    3  A    between atoms: C_23  and  C_24 
REMARK    4  A    between atoms: C_24  and  O_25 
ROOT
ATOM      1  C   UNK d   1      -0.927  -1.502  -1.277  0.00  0.00     0.185 A 
ATOM      2  N   UNK d   1       0.150  -1.013  -0.676  0.00  0.00    -0.107 N 
ATOM      3  C   UNK d   1       0.757  -1.968   0.071  0.00  0.00     0.736 A 
ATOM      4  N   UNK d   1       0.027  -3.088  -0.086  0.00  0.00     0.045 NA
ATOM      5  N   UNK d   1      -0.966  -2.840  -0.876  0.00  0.00    -0.114 NA
ATOM      6  N   UNK d   1       1.851  -1.503   0.686  0.00  0.00    -0.168 N 
ATOM      7  C   UNK d   1       1.946  -0.222   0.314  0.00  0.00     0.165 A 
ATOM      8  C   UNK d   1       0.895   0.120  -0.548  0.00  0.00     0.170 A 
ATOM      9  N   UNK d   1       0.808   1.331  -1.074  0.00  0.00    -0.287 N 
ATOM     10  C   UNK d   1       1.775   2.238  -0.734  0.00  0.00     0.330 A 
ATOM     11  O   UNK d   1       1.727   3.398  -1.207  0.00  0.00    -0.246 OA
ATOM     12  N   UNK d   1       2.786   1.945   0.093  0.00  0.00    -0.273 N 
ATOM     13  C   UNK d   1       2.897   0.719   0.631  0.00  0.00     0.280 A 
ATOM     14  O   UNK d   1       3.834   0.406   1.411  0.00  0.00    -0.265 OA
ATOM     15  C   UNK d   1      -0.137   1.781  -2.063  0.00  0.00     0.163 C 
ATOM     16  H   UNK d   1       3.520   2.635   0.353  0.00  0.00     0.173 HD
ENDROOT
BRANCH   1  17
ATOM     17  C   UNK d   1      -1.959  -1.004  -2.166  0.00  0.00     0.013 A 
ATOM     18  C   UNK d   1      -2.295  -1.789  -3.271  0.00  0.00     0.017 A 
ATOM     19  C   UNK d   1      -3.344  -1.492  -4.084  0.00  0.00     0.020 A 
ATOM     20  C   UNK d   1      -4.118  -0.380  -3.826  0.00  0.00     0.011 A 
ATOM     21 Br   UNK d   1      -5.578   0.031  -4.960  0.00  0.00    -0.051 Br
ATOM     22  C   UNK d   1      -3.839   0.433  -2.750  0.00  0.00     0.020 A 
ATOM     23  C   UNK d   1      -2.769   0.084  -1.965  0.00  0.00     0.017 A 
ENDBRANCH   1  17
BRANCH   6  24
ATOM     24  C   UNK d   1       2.739  -2.226   1.568  0.00  0.00     0.174 C 
BRANCH  24  25
ATOM     25  C   UNK d   1       2.328  -2.124   3.021  0.00  0.00     0.187 C 
BRANCH  25  26
ATOM     26  O   UNK d   1       1.054  -2.635   3.237  0.00  0.00    -0.394 OA
ATOM     27  C   UNK d   1       0.774  -2.494   4.596  0.00  0.00     0.201 C 
ENDBRANCH  25  26
ENDBRANCH  24  25
ENDBRANCH   6  24
TORSDOF 4
