# created with PyMOL 2.3.2
@<TRIPOS>MOLECULE
305
41 44 1                 
SMALL
USER_CHARGES
@<TRIPOS>ATOM
1	  Br	-5.578	0.031	-4.960	Br	1	UNK0	0.000	
2	   C	-4.118	-0.380	-3.826	C.2	1	UNK0	0.000	
3	   C	-3.344	-1.492	-4.084	C.2	1	UNK0	0.000	
4	   C	-2.295	-1.789	-3.271	C.2	1	UNK0	0.000	
5	   C	-1.959	-1.004	-2.166	C.2	1	UNK0	0.000	
6	   C	-2.769	0.084	-1.965	C.2	1	UNK0	0.000	
7	   C	-3.839	0.433	-2.750	C.2	1	UNK0	0.000	
8	   C	-0.927	-1.502	-1.277	C.2	1	UNK0	0.000	
9	   N	0.150	-1.013	-0.676	N.pl3	1	UNK0	0.000	
10	   C	0.757	-1.968	0.071	C.2	1	UNK0	0.000	
11	   N	0.027	-3.088	-0.086	N.2	1	UNK0	0.000	
12	   N	-0.966	-2.840	-0.876	N.2	1	UNK0	0.000	
13	   N	1.851	-1.503	0.686	N.pl3	1	UNK0	0.000	
14	   C	1.946	-0.222	0.314	C.2	1	UNK0	0.000	
15	   C	0.895	0.120	-0.548	C.2	1	UNK0	0.000	
16	   N	0.808	1.331	-1.074	N.pl3	1	UNK0	0.000	
17	   C	1.775	2.238	-0.734	C.2	1	UNK0	0.000	
18	   O	1.727	3.398	-1.207	O.2	1	UNK0	0.000	
19	   N	2.786	1.945	0.093	N.pl3	1	UNK0	0.000	
20	   C	2.897	0.719	0.631	C.2	1	UNK0	0.000	
21	   O	3.834	0.406	1.411	O.2	1	UNK0	0.000	
22	   C	-0.137	1.781	-2.063	C.3	1	UNK0	0.000	
23	   C	2.739	-2.226	1.568	C.3	1	UNK0	0.000	
24	   C	2.328	-2.124	3.021	C.3	1	UNK0	0.000	
25	   O	1.054	-2.635	3.237	O.3	1	UNK0	0.000	
26	   C	0.774	-2.494	4.596	C.3	1	UNK0	0.000	
27	   H	-3.559	-2.137	-4.929	 H	1	UNK0	0.000	
28	   H	-1.694	-2.674	-3.493	 H	1	UNK0	0.000	
29	   H	-2.564	0.710	-1.075	 H	1	UNK0	0.000	
30	   H	-4.423	1.297	-2.530	 H	1	UNK0	0.000	
31	   H	3.520	2.635	0.353	 H	1	UNK0	0.000	
32	   H	-0.296	1.048	-2.869	 H	1	UNK0	0.000	
33	   H	-1.023	2.293	-1.666	 H	1	UNK0	0.000	
34	   H	0.364	2.640	-2.668	 H	1	UNK0	0.000	
35	   H	3.762	-1.885	1.476	 H	1	UNK0	0.000	
36	   H	2.670	-3.292	1.251	 H	1	UNK0	0.000	
37	   H	2.314	-1.043	3.312	 H	1	UNK0	0.000	
38	   H	3.082	-2.620	3.633	 H	1	UNK0	0.000	
39	   H	0.812	-1.412	4.881	 H	1	UNK0	0.000	
40	   H	1.456	-3.088	5.238	 H	1	UNK0	0.000	
41	   H	-0.266	-2.858	4.823	 H	1	UNK0	0.000	
@<TRIPOS>BOND
1 1 2 1
2 2 3 2
3 2 7 1
4 3 4 1
5 4 5 2
6 5 6 1
7 5 8 1
8 6 7 2
9 8 9 1
10 8 12 2
11 9 10 1
12 9 15 1
13 10 11 2
14 10 13 1
15 11 12 1
16 13 14 1
17 13 23 1
18 14 15 2
19 14 20 1
20 15 16 1
21 16 17 1
22 16 22 1
23 17 18 2
24 17 19 1
25 19 20 1
26 20 21 2
27 23 24 1
28 24 25 1
29 25 26 1
30 3 27 1
31 4 28 1
32 6 29 1
33 7 30 1
34 19 31 1
35 22 32 1
36 22 33 1
37 22 34 1
38 23 35 1
39 23 36 1
40 24 37 1
41 24 38 1
42 26 39 1
43 26 40 1
44 26 41 1
@<TRIPOS>SUBSTRUCTURE
1	UNK0	1	GROUP	1 ****	UNK
