# created with PyMOL 2.3.2
@<TRIPOS>MOLECULE
309
57 60 1                 
SMALL
USER_CHARGES
@<TRIPOS>ATOM
1	  Br	-7.123	3.704	1.033	Br	1	UNK0	0.000	
2	   C	-5.334	3.077	0.780	C.2	1	UNK0	0.000	
3	   C	-4.879	2.064	1.572	C.2	1	UNK0	0.000	
4	   C	-3.591	1.605	1.402	C.2	1	UNK0	0.000	
5	   C	-2.713	2.124	0.454	C.2	1	UNK0	0.000	
6	   C	-3.195	3.140	-0.329	C.2	1	UNK0	0.000	
7	   C	-4.504	3.625	-0.175	C.2	1	UNK0	0.000	
8	   C	-1.364	1.653	0.288	C.2	1	UNK0	0.000	
9	   C	-1.100	0.525	-0.451	C.2	1	UNK0	0.000	
10	   O	0.117	0.041	-0.609	O.3	1	UNK0	0.000	
11	   C	1.159	0.613	-0.062	C.2	1	UNK0	0.000	
12	   C	0.965	1.726	0.676	C.2	1	UNK0	0.000	
13	   C	2.042	2.349	1.267	C.2	1	UNK0	0.000	
14	   C	3.290	1.811	1.084	C.2	1	UNK0	0.000	
15	   C	3.481	0.649	0.312	C.2	1	UNK0	0.000	
16	   C	2.431	0.016	-0.283	C.2	1	UNK0	0.000	
17	   C	2.470	-1.162	-1.115	C.3	1	UNK0	0.000	
18	   N	3.648	-1.878	-1.390	N.4	1	UNK0	0.000	
19	   C	4.114	-2.611	-0.267	C.3	1	UNK0	0.000	
20	   C	5.558	-2.899	-0.143	C.3	1	UNK0	0.000	
21	   N	6.369	-2.068	-0.923	N.3	1	UNK0	0.000	
22	   C	5.989	-1.806	-2.242	C.3	1	UNK0	0.000	
23	   C	4.574	-1.325	-2.311	C.3	1	UNK0	0.000	
24	   C	7.535	-1.503	-0.387	C.3	1	UNK0	0.000	
25	   O	4.806	0.253	0.240	O.2	1	UNK0	0.000	
26	   C	-0.277	2.293	0.886	C.2	1	UNK0	0.000	
27	   O	-0.452	3.312	1.562	O.2	1	UNK0	0.000	
28	   C	-2.231	-0.164	-1.092	C.2	1	UNK0	0.000	
29	   O	-1.985	-1.193	-1.770	O.co2	1	UNK0	0.000	
30	   O	-3.523	0.250	-0.991	O.3	1	UNK0	0.000	
31	   C	-4.555	-0.459	-1.633	C.3	1	UNK0	0.000	
32	   C	-4.599	-1.861	-1.091	C.3	1	UNK0	0.000	
33	   H	-5.554	1.642	2.327	 H	1	UNK0	0.000	
34	   H	-3.240	0.817	2.020	 H	1	UNK0	0.000	
35	   H	-2.603	3.616	-1.095	 H	1	UNK0	0.000	
36	   H	-4.877	4.424	-0.790	 H	1	UNK0	0.000	
37	   H	1.870	3.247	1.858	 H	1	UNK0	0.000	
38	   H	4.140	2.290	1.538	 H	1	UNK0	0.000	
39	   H	1.981	-0.929	-2.142	 H	1	UNK0	0.000	
40	   H	1.712	-1.920	-0.719	 H	1	UNK0	0.000	
41	   H	3.227	-2.726	-2.021	 H	1	UNK0	0.000	
42	   H	3.768	-2.094	0.673	 H	1	UNK0	0.000	
43	   H	3.558	-3.614	-0.167	 H	1	UNK0	0.000	
44	   H	5.795	-3.993	-0.362	 H	1	UNK0	0.000	
45	   H	5.915	-2.806	0.933	 H	1	UNK0	0.000	
46	   H	6.109	-2.680	-2.941	 H	1	UNK0	0.000	
47	   H	6.669	-1.025	-2.671	 H	1	UNK0	0.000	
48	   H	4.542	-0.218	-2.285	 H	1	UNK0	0.000	
49	   H	4.258	-1.536	-3.394	 H	1	UNK0	0.000	
50	   H	7.618	-0.444	-0.712	 H	1	UNK0	0.000	
51	   H	7.429	-1.437	0.735	 H	1	UNK0	0.000	
52	   H	8.477	-2.064	-0.544	 H	1	UNK0	0.000	
53	   H	-5.543	0.058	-1.524	 H	1	UNK0	0.000	
54	   H	-4.387	-0.472	-2.751	 H	1	UNK0	0.000	
55	   H	-4.717	-2.616	-1.914	 H	1	UNK0	0.000	
56	   H	-3.705	-2.033	-0.466	 H	1	UNK0	0.000	
57	   H	-5.491	-1.901	-0.412	 H	1	UNK0	0.000	
@<TRIPOS>BOND
1 1 2 1
2 2 3 2
3 2 7 1
4 3 4 1
5 4 5 2
6 5 6 1
7 5 8 1
8 6 7 2
9 8 9 2
10 8 26 1
11 9 10 1
12 9 28 1
13 10 11 1
14 11 12 2
15 11 16 1
16 12 13 1
17 12 26 1
18 13 14 2
19 14 15 1
20 15 16 2
21 15 25 1
22 16 17 1
23 17 18 1
24 18 19 1
25 18 23 1
26 19 20 1
27 20 21 1
28 21 22 1
29 21 24 1
30 22 23 1
31 26 27 2
32 28 29 2
33 28 30 1
34 30 31 1
35 31 32 1
36 3 33 1
37 4 34 1
38 6 35 1
39 7 36 1
40 13 37 1
41 14 38 1
42 17 39 1
43 17 40 1
44 18 41 1
45 19 42 1
46 19 43 1
47 20 44 1
48 20 45 1
49 22 46 1
50 22 47 1
51 23 48 1
52 23 49 1
53 24 50 1
54 24 51 1
55 24 52 1
56 31 53 1
57 31 54 1
58 32 55 1
59 32 56 1
60 32 57 1
@<TRIPOS>SUBSTRUCTURE
1	UNK0	1	GROUP	1 ****	UNK
