REMARK  6 active torsions:
REMARK  status: ('A' for Active; 'I' for Inactive)
REMARK    1  A    between atoms: C_5  and  C_8 
REMARK    2  A    between atoms: C_9  and  C_28 
REMARK    3  A    between atoms: C_16  and  C_17 
REMARK    4  A    between atoms: C_17  and  N_18 
REMARK    5  A    between atoms: C_28  and  O_30 
REMARK    6  A    between atoms: O_30  and  C_31 
ROOT
ATOM      1  C   UNK d   1      -1.364   1.653   0.288  0.00  0.00     0.065 A 
ATOM      2  C   UNK d   1      -1.100   0.525  -0.451  0.00  0.00     0.166 A 
ATOM      3  O   UNK d   1       0.117   0.041  -0.609  0.00  0.00    -0.302 OA
ATOM      4  C   UNK d   1       1.159   0.613  -0.062  0.00  0.00     0.101 A 
ATOM      5  C   UNK d   1       0.965   1.726   0.676  0.00  0.00     0.050 A 
ATOM      6  C   UNK d   1       2.042   2.349   1.267  0.00  0.00     0.021 A 
ATOM      7  C   UNK d   1       3.290   1.811   1.084  0.00  0.00     0.041 A 
ATOM      8  C   UNK d   1       3.481   0.649   0.312  0.00  0.00     0.118 A 
ATOM      9  C   UNK d   1       2.431   0.016  -0.283  0.00  0.00     0.039 A 
ATOM     10  O   UNK d   1       4.806   0.253   0.240  0.00  0.00    -0.191 OA
ATOM     11  C   UNK d   1      -0.277   2.293   0.886  0.00  0.00     0.199 A 
ATOM     12  O   UNK d   1      -0.452   3.312   1.562  0.00  0.00    -0.286 OA
ENDROOT
BRANCH   9  13
ATOM     13  C   UNK d   1       2.470  -1.162  -1.115  0.00  0.00     0.279 C 
BRANCH  13  14
ATOM     14  N   UNK d   1       3.648  -1.878  -1.390  0.00  0.00    -0.064 N 
ATOM     15  C   UNK d   1       4.114  -2.611  -0.267  0.00  0.00     0.254 C 
ATOM     16  C   UNK d   1       5.558  -2.899  -0.143  0.00  0.00     0.144 C 
ATOM     17  N   UNK d   1       6.369  -2.068  -0.923  0.00  0.00    -0.413 N 
ATOM     18  C   UNK d   1       5.989  -1.806  -2.242  0.00  0.00     0.144 C 
ATOM     19  C   UNK d   1       7.535  -1.503  -0.387  0.00  0.00     0.143 C 
ATOM     20  C   UNK d   1       4.574  -1.325  -2.311  0.00  0.00     0.254 C 
ATOM     21  H   UNK d   1       3.227  -2.726  -2.021  0.00  0.00     0.280 HD
ENDBRANCH  13  14
ENDBRANCH   9  13
BRANCH   2  22
ATOM     22  C   UNK d   1      -2.231  -0.164  -1.092  0.00  0.00     0.318 C 
ATOM     23  O   UNK d   1      -1.985  -1.193  -1.770  0.00  0.00    -0.257 OA
BRANCH  22  24
ATOM     24  O   UNK d   1      -3.523   0.250  -0.991  0.00  0.00    -0.316 OA
BRANCH  24  25
ATOM     25  C   UNK d   1      -4.555  -0.459  -1.633  0.00  0.00     0.175 C 
ATOM     26  C   UNK d   1      -4.599  -1.861  -1.091  0.00  0.00     0.034 C 
ENDBRANCH  24  25
ENDBRANCH  22  24
ENDBRANCH   2  22
BRANCH   1  27
ATOM     27  C   UNK d   1      -2.713   2.124   0.454  0.00  0.00    -0.019 A 
ATOM     28  C   UNK d   1      -3.591   1.605   1.402  0.00  0.00     0.014 A 
ATOM     29  C   UNK d   1      -4.879   2.064   1.572  0.00  0.00     0.020 A 
ATOM     30  C   UNK d   1      -5.334   3.077   0.780  0.00  0.00     0.011 A 
ATOM     31 Br   UNK d   1      -7.123   3.704   1.033  0.00  0.00    -0.051 Br
ATOM     32  C   UNK d   1      -4.504   3.625  -0.175  0.00  0.00     0.020 A 
ATOM     33  C   UNK d   1      -3.195   3.140  -0.329  0.00  0.00     0.014 A 
ENDBRANCH   1  27
TORSDOF 6
