REMARK  6 active torsions:
REMARK  status: ('A' for Active; 'I' for Inactive)
REMARK    1  A    between atoms: C_5  and  C_8 
REMARK    2  A    between atoms: N_15  and  C_16 
REMARK    3  A    between atoms: C_16  and  C_17 
REMARK    4  A    between atoms: C_17  and  C_18 
REMARK    5  A    between atoms: C_18  and  N_19 
REMARK    6  A    between atoms: N_19  and  C_20 
ROOT
ATOM      1  C   UNK d   1       0.157   2.708  -0.952  0.00  0.00     0.078 A 
ATOM      2  C   UNK d   1       1.416   2.742  -0.330  0.00  0.00     0.146 A 
ATOM      3  N   UNK d   1       1.322   1.994   0.762  0.00  0.00    -0.153 N 
ATOM      4  C   UNK d   1       2.102   1.590   1.811  0.00  0.00     0.083 A 
ATOM      5  C   UNK d   1       1.287   0.804   2.586  0.00  0.00     0.077 A 
ATOM      6  N   UNK d   1       0.100   0.767   2.000  0.00  0.00    -0.189 N 
ATOM      7  C   UNK d   1       0.107   1.508   0.855  0.00  0.00     0.692 A 
ATOM      8  N   UNK d   1      -0.641   1.938  -0.204  0.00  0.00    -0.180 N 
ATOM      9  C   UNK d   1       1.753   0.209   3.762  0.00  0.00     0.032 A 
ATOM     10  C   UNK d   1       3.058   0.410   4.157  0.00  0.00     0.002 A 
ATOM     11  C   UNK d   1       3.855   1.202   3.362  0.00  0.00     0.002 A 
ATOM     12  C   UNK d   1       3.399   1.798   2.192  0.00  0.00     0.033 A 
ATOM     13  H   UNK d   1      -0.706   0.245   2.393  0.00  0.00     0.184 HD
ENDROOT
BRANCH   8  14
ATOM     14  C   UNK d   1      -2.016   1.567  -0.343  0.00  0.00     0.149 C 
BRANCH  14  15
ATOM     15  C   UNK d   1      -2.320   0.381  -1.166  0.00  0.00     0.048 C 
BRANCH  15  16
ATOM     16  C   UNK d   1      -1.811  -0.945  -0.729  0.00  0.00     0.234 C 
BRANCH  16  17
ATOM     17  N   UNK d   1      -2.400  -1.366   0.523  0.00  0.00    -0.071 N 
ATOM     18  H   UNK d   1      -2.464  -0.662   1.254  0.00  0.00     0.277 HD
ATOM     19  H   UNK d   1      -3.437  -1.580   0.287  0.00  0.00     0.277 HD
BRANCH  17  20
ATOM     20  C   UNK d   1      -1.874  -2.608   1.007  0.00  0.00     0.185 C 
ATOM     21  C   UNK d   1      -0.703  -3.147   0.235  0.00  0.00     0.033 C 
ATOM     22  C   UNK d   1      -0.619  -4.642   0.577  0.00  0.00     0.002 C 
ATOM     23  C   UNK d   1      -0.359  -4.780   2.037  0.00  0.00     0.000 C 
ATOM     24  C   UNK d   1      -1.338  -4.024   2.905  0.00  0.00     0.002 C 
ATOM     25  C   UNK d   1      -1.429  -2.559   2.463  0.00  0.00     0.033 C 
ENDBRANCH  17  20
ENDBRANCH  16  17
ENDBRANCH  15  16
ENDBRANCH  14  15
ENDBRANCH   8  14
BRANCH   1  26
ATOM     26  C   UNK d   1      -0.133   3.426  -2.174  0.00  0.00    -0.007 A 
ATOM     27  C   UNK d   1       0.852   4.222  -2.723  0.00  0.00     0.015 A 
ATOM     28  C   UNK d   1       0.658   4.922  -3.879  0.00  0.00     0.020 A 
ATOM     29  C   UNK d   1      -0.525   4.869  -4.550  0.00  0.00     0.011 A 
ATOM     30 Br   UNK d   1      -0.806   5.854  -6.181  0.00  0.00    -0.051 Br
ATOM     31  C   UNK d   1      -1.527   4.092  -4.040  0.00  0.00     0.020 A 
ATOM     32  C   UNK d   1      -1.310   3.372  -2.840  0.00  0.00     0.015 A 
ENDBRANCH   1  26
TORSDOF 6
