REMARK  8 active torsions:
REMARK  status: ('A' for Active; 'I' for Inactive)
REMARK    1  A    between atoms: C_5  and  C_8 
REMARK    2  A    between atoms: N_15  and  C_16 
REMARK    3  A    between atoms: C_16  and  C_17 
REMARK    4  A    between atoms: C_17  and  C_18 
REMARK    5  A    between atoms: C_18  and  N_19 
REMARK    6  A    between atoms: N_22  and  C_25 
REMARK    7  A    between atoms: C_25  and  C_26 
REMARK    8  A    between atoms: C_26  and  O_27 
ROOT
ATOM      1  C   UNK d   1       0.863   1.897   1.008  0.00  0.00     0.078 A 
ATOM      2  C   UNK d   1       0.748   1.362   2.305  0.00  0.00     0.146 A 
ATOM      3  N   UNK d   1      -0.348   0.603   2.411  0.00  0.00    -0.153 N 
ATOM      4  C   UNK d   1      -1.070  -0.170   3.259  0.00  0.00     0.083 A 
ATOM      5  C   UNK d   1      -2.148  -0.624   2.539  0.00  0.00     0.077 A 
ATOM      6  N   UNK d   1      -2.054  -0.118   1.278  0.00  0.00    -0.189 N 
ATOM      7  C   UNK d   1      -0.939   0.634   1.220  0.00  0.00     0.692 A 
ATOM      8  N   UNK d   1      -0.203   1.424   0.359  0.00  0.00    -0.180 N 
ATOM      9  C   UNK d   1      -3.055  -1.444   3.177  0.00  0.00     0.032 A 
ATOM     10  C   UNK d   1      -2.900  -1.810   4.508  0.00  0.00     0.002 A 
ATOM     11  C   UNK d   1      -1.823  -1.355   5.226  0.00  0.00     0.002 A 
ATOM     12  C   UNK d   1      -0.903  -0.523   4.577  0.00  0.00     0.033 A 
ATOM     13  H   UNK d   1      -2.742  -0.301   0.515  0.00  0.00     0.184 HD
ENDROOT
BRANCH   8  14
ATOM     14  C   UNK d   1      -0.604   1.671  -1.010  0.00  0.00     0.149 C 
BRANCH  14  15
ATOM     15  C   UNK d   1      -0.041   0.682  -2.003  0.00  0.00     0.051 C 
BRANCH  15  16
ATOM     16  C   UNK d   1      -0.491  -0.723  -1.690  0.00  0.00     0.274 C 
BRANCH  16  17
ATOM     17  N   UNK d   1      -0.013  -1.728  -2.599  0.00  0.00     0.091 N 
ATOM     18  C   UNK d   1      -0.604  -2.980  -2.154  0.00  0.00     0.300 C 
ATOM     19  C   UNK d   1       0.336  -4.125  -2.097  0.00  0.00     0.265 C 
ATOM     20  N   UNK d   1       1.618  -3.861  -1.503  0.00  0.00    -0.066 N 
ATOM     21  C   UNK d   1       1.979  -2.459  -1.505  0.00  0.00     0.265 C 
ATOM     22  H   UNK d   1       2.334  -4.318  -2.151  0.00  0.00     0.280 HD
ATOM     23  C   UNK d   1       1.401  -1.820  -2.751  0.00  0.00     0.300 C 
BRANCH  20  24
ATOM     24  C   UNK d   1       1.774  -4.519  -0.245  0.00  0.00     0.260 C 
BRANCH  24  25
ATOM     25  C   UNK d   1       1.597  -3.668   0.966  0.00  0.00     0.192 C 
BRANCH  25  26
ATOM     26  O   UNK d   1       0.336  -3.082   1.061  0.00  0.00    -0.399 OA
ATOM     27  H   UNK d   1      -0.351  -3.745   0.875  0.00  0.00     0.209 HD
ENDBRANCH  25  26
ENDBRANCH  24  25
ENDBRANCH  20  24
ENDBRANCH  16  17
ENDBRANCH  15  16
ENDBRANCH  14  15
ENDBRANCH   8  14
BRANCH   1  28
ATOM     28  C   UNK d   1       1.941   2.796   0.598  0.00  0.00    -0.007 A 
ATOM     29  C   UNK d   1       2.185   3.231  -0.665  0.00  0.00     0.015 A 
ATOM     30  C   UNK d   1       3.216   4.133  -0.976  0.00  0.00     0.020 A 
ATOM     31  C   UNK d   1       4.040   4.624   0.004  0.00  0.00     0.011 A 
ATOM     32 Br   UNK d   1       5.448   5.856  -0.418  0.00  0.00    -0.051 Br
ATOM     33  C   UNK d   1       3.812   4.197   1.282  0.00  0.00     0.020 A 
ATOM     34  C   UNK d   1       2.792   3.307   1.579  0.00  0.00     0.015 A 
ENDBRANCH   1  28
TORSDOF 8
