# created with PyMOL 2.3.2
@<TRIPOS>MOLECULE
324
61 65 1                 
SMALL
USER_CHARGES
@<TRIPOS>ATOM
1	  Br	5.448	5.856	-0.418	Br	1	UNK0	0.000	
2	   C	4.040	4.624	0.004	C.2	1	UNK0	0.000	
3	   C	3.216	4.133	-0.976	C.2	1	UNK0	0.000	
4	   C	2.185	3.231	-0.665	C.2	1	UNK0	0.000	
5	   C	1.941	2.796	0.598	C.2	1	UNK0	0.000	
6	   C	2.792	3.307	1.579	C.2	1	UNK0	0.000	
7	   C	3.812	4.197	1.282	C.2	1	UNK0	0.000	
8	   C	0.863	1.897	1.008	C.2	1	UNK0	0.000	
9	   C	0.748	1.362	2.305	C.2	1	UNK0	0.000	
10	   N	-0.348	0.603	2.411	N.pl3	1	UNK0	0.000	
11	   C	-1.070	-0.170	3.259	C.2	1	UNK0	0.000	
12	   C	-2.148	-0.624	2.539	C.2	1	UNK0	0.000	
13	   N	-2.054	-0.118	1.278	N.pl3	1	UNK0	0.000	
14	   C	-0.939	0.634	1.220	C.cat	1	UNK0	0.000	
15	   N	-0.203	1.424	0.359	N.pl3	1	UNK0	0.000	
16	   C	-0.604	1.671	-1.010	C.3	1	UNK0	0.000	
17	   C	-0.041	0.682	-2.003	C.3	1	UNK0	0.000	
18	   C	-0.491	-0.723	-1.690	C.3	1	UNK0	0.000	
19	   N	-0.013	-1.728	-2.599	N.3	1	UNK0	0.000	
20	   C	-0.604	-2.980	-2.154	C.3	1	UNK0	0.000	
21	   C	0.336	-4.125	-2.097	C.3	1	UNK0	0.000	
22	   N	1.618	-3.861	-1.503	N.4	1	UNK0	0.000	
23	   C	1.979	-2.459	-1.505	C.3	1	UNK0	0.000	
24	   C	1.401	-1.820	-2.751	C.3	1	UNK0	0.000	
25	   C	1.774	-4.519	-0.245	C.3	1	UNK0	0.000	
26	   C	1.597	-3.668	0.966	C.3	1	UNK0	0.000	
27	   O	0.336	-3.082	1.061	O.3	1	UNK0	0.000	
28	   C	-3.055	-1.444	3.177	C.2	1	UNK0	0.000	
29	   C	-2.900	-1.810	4.508	C.2	1	UNK0	0.000	
30	   C	-1.823	-1.355	5.226	C.2	1	UNK0	0.000	
31	   C	-0.903	-0.523	4.577	C.2	1	UNK0	0.000	
32	   H	3.364	4.446	-1.999	 H	1	UNK0	0.000	
33	   H	1.616	2.898	-1.498	 H	1	UNK0	0.000	
34	   H	2.628	2.988	2.594	 H	1	UNK0	0.000	
35	   H	4.441	4.565	2.072	 H	1	UNK0	0.000	
36	   H	1.469	1.548	3.108	 H	1	UNK0	0.000	
37	   H	-2.742	-0.301	0.515	 H	1	UNK0	0.000	
38	   H	-1.746	1.498	-1.075	 H	1	UNK0	0.000	
39	   H	-0.490	2.681	-1.352	 H	1	UNK0	0.000	
40	   H	-0.546	0.939	-2.981	 H	1	UNK0	0.000	
41	   H	1.024	0.762	-2.190	 H	1	UNK0	0.000	
42	   H	-1.599	-0.789	-1.693	 H	1	UNK0	0.000	
43	   H	-0.201	-0.959	-0.624	 H	1	UNK0	0.000	
44	   H	-1.179	-2.891	-1.217	 H	1	UNK0	0.000	
45	   H	-1.376	-3.227	-2.941	 H	1	UNK0	0.000	
46	   H	0.419	-4.585	-3.126	 H	1	UNK0	0.000	
47	   H	-0.178	-4.932	-1.496	 H	1	UNK0	0.000	
48	   H	2.334	-4.318	-2.151	 H	1	UNK0	0.000	
49	   H	3.089	-2.366	-1.577	 H	1	UNK0	0.000	
50	   H	1.640	-1.893	-0.643	 H	1	UNK0	0.000	
51	   H	1.629	-2.439	-3.659	 H	1	UNK0	0.000	
52	   H	1.889	-0.862	-2.905	 H	1	UNK0	0.000	
53	   H	2.772	-5.033	-0.130	 H	1	UNK0	0.000	
54	   H	1.030	-5.360	-0.175	 H	1	UNK0	0.000	
55	   H	1.659	-4.369	1.851	 H	1	UNK0	0.000	
56	   H	2.412	-2.938	1.126	 H	1	UNK0	0.000	
57	   H	-0.351	-3.745	0.875	 H	1	UNK0	0.000	
58	   H	-3.915	-1.822	2.647	 H	1	UNK0	0.000	
59	   H	-3.602	-2.448	5.011	 H	1	UNK0	0.000	
60	   H	-1.698	-1.637	6.262	 H	1	UNK0	0.000	
61	   H	-0.050	-0.156	5.124	 H	1	UNK0	0.000	
@<TRIPOS>BOND
1 1 2 1
2 2 3 2
3 2 7 1
4 3 4 1
5 4 5 2
6 5 6 1
7 5 8 1
8 6 7 2
9 8 9 2
10 8 15 1
11 9 10 1
12 10 11 1
13 10 14 1
14 11 12 2
15 11 31 1
16 12 13 1
17 12 28 1
18 13 14 2
19 14 15 1
20 15 16 1
21 16 17 1
22 17 18 1
23 18 19 1
24 19 20 1
25 19 24 1
26 20 21 1
27 21 22 1
28 22 23 1
29 22 25 1
30 23 24 1
31 25 26 1
32 26 27 1
33 28 29 2
34 29 30 1
35 30 31 2
36 3 32 1
37 4 33 1
38 6 34 1
39 7 35 1
40 9 36 1
41 13 37 1
42 16 38 1
43 16 39 1
44 17 40 1
45 17 41 1
46 18 42 1
47 18 43 1
48 20 44 1
49 20 45 1
50 21 46 1
51 21 47 1
52 22 48 1
53 23 49 1
54 23 50 1
55 24 51 1
56 24 52 1
57 25 53 1
58 25 54 1
59 26 55 1
60 26 56 1
61 27 57 1
62 28 58 1
63 29 59 1
64 30 60 1
65 31 61 1
@<TRIPOS>SUBSTRUCTURE
1	UNK0	1	GROUP	1 ****	UNK
