REMARK  8 active torsions:
REMARK  status: ('A' for Active; 'I' for Inactive)
REMARK    1  A    between atoms: C_5  and  C_8 
REMARK    2  A    between atoms: N_9  and  C_26 
REMARK    3  A    between atoms: C_14  and  C_15 
REMARK    4  A    between atoms: C_15  and  C_17 
REMARK    5  A    between atoms: C_20  and  O_23 
REMARK    6  A    between atoms: C_26  and  C_27 
REMARK    7  A    between atoms: C_27  and  C_28 
REMARK    8  A    between atoms: C_28  and  N_29 
ROOT
ATOM      1  C   UNK d   1       1.000   0.354   0.997  0.00  0.00     0.161 A 
ATOM      2  N   UNK d   1       0.259  -0.756   1.531  0.00  0.00    -0.332 N 
ATOM      3  C   UNK d   1      -0.044  -1.700   0.522  0.00  0.00     0.295 A 
ATOM      4  O   UNK d   1      -0.700  -2.782   0.629  0.00  0.00    -0.264 OA
ATOM      5  C   UNK d   1       0.539  -1.239  -0.758  0.00  0.00     0.250 A 
ATOM      6  O   UNK d   1       0.451  -1.844  -1.850  0.00  0.00    -0.282 OA
ATOM      7  C   UNK d   1       1.196   0.014  -0.451  0.00  0.00     0.062 A 
ENDROOT
BRANCH   7   8
ATOM      8  C   UNK d   1       1.817   0.735  -1.358  0.00  0.00     0.130 C 
ATOM      9  O   UNK d   1       2.362   1.971  -0.951  0.00  0.00    -0.190 OA
BRANCH   8  10
ATOM     10  C   UNK d   1       2.007   0.382  -2.742  0.00  0.00     0.002 A 
ATOM     11  C   UNK d   1       2.571  -0.749  -3.219  0.00  0.00     0.024 A 
ATOM     12  C   UNK d   1       2.660  -0.978  -4.576  0.00  0.00    -0.028 A 
ATOM     13  C   UNK d   1       2.191  -0.093  -5.523  0.00  0.00     0.074 A 
ATOM     14  C   UNK d   1       3.294  -2.250  -5.056  0.00  0.00     0.051 C 
ATOM     15  C   UNK d   1       1.620   1.055  -5.010  0.00  0.00     0.038 A 
ATOM     16  C   UNK d   1       1.517   1.313  -3.671  0.00  0.00     0.017 A 
BRANCH  13  17
ATOM     17  O   UNK d   1       2.284  -0.330  -6.889  0.00  0.00    -0.355 OA
ATOM     18  C   UNK d   1       1.779   0.624  -7.812  0.00  0.00     0.210 C 
ENDBRANCH  13  17
ENDBRANCH   8  10
ENDBRANCH   7   8
BRANCH   1  19
ATOM     19  C   UNK d   1       2.271   0.589   1.687  0.00  0.00    -0.030 A 
ATOM     20  C   UNK d   1       3.112  -0.458   1.997  0.00  0.00     0.011 A 
ATOM     21  C   UNK d   1       4.325  -0.237   2.657  0.00  0.00     0.019 A 
ATOM     22  C   UNK d   1       4.709   1.036   3.015  0.00  0.00     0.011 A 
ATOM     23 Br   UNK d   1       6.381   1.302   3.923  0.00  0.00    -0.051 Br
ATOM     24  C   UNK d   1       3.880   2.080   2.711  0.00  0.00     0.019 A 
ATOM     25  C   UNK d   1       2.691   1.845   2.062  0.00  0.00     0.011 A 
ENDBRANCH   1  19
BRANCH   2  26
ATOM     26  C   UNK d   1      -0.124  -0.866   2.927  0.00  0.00     0.129 C 
BRANCH  26  27
ATOM     27  C   UNK d   1      -1.451  -0.228   3.234  0.00  0.00     0.048 C 
BRANCH  27  28
ATOM     28  C   UNK d   1      -2.562  -0.849   2.444  0.00  0.00     0.236 C 
BRANCH  28  29
ATOM     29  N   UNK d   1      -3.843  -0.261   2.708  0.00  0.00    -0.067 N 
ATOM     30  C   UNK d   1      -3.810   1.186   2.765  0.00  0.00     0.261 C 
ATOM     31  C   UNK d   1      -5.267   1.659   2.803  0.00  0.00     0.195 C 
ATOM     32  O   UNK d   1      -6.124   0.591   3.023  0.00  0.00    -0.388 OA
ATOM     33  C   UNK d   1      -5.725  -0.127   4.172  0.00  0.00     0.195 C 
ATOM     34  C   UNK d   1      -4.405  -0.838   3.896  0.00  0.00     0.261 C 
ATOM     35  H   UNK d   1      -4.496  -0.506   1.905  0.00  0.00     0.280 HD
ENDBRANCH  28  29
ENDBRANCH  27  28
ENDBRANCH  26  27
ENDBRANCH   2  26
TORSDOF 8
