# created with PyMOL 2.3.2
@<TRIPOS>MOLECULE
346
63 66 1                 
SMALL
USER_CHARGES
@<TRIPOS>ATOM
1	  Br	6.381	1.302	3.923	Br	1	UNK0	0.000	
2	   C	4.709	1.036	3.015	C.2	1	UNK0	0.000	
3	   C	4.325	-0.237	2.657	C.2	1	UNK0	0.000	
4	   C	3.112	-0.458	1.997	C.2	1	UNK0	0.000	
5	   C	2.271	0.589	1.687	C.2	1	UNK0	0.000	
6	   C	2.691	1.845	2.062	C.2	1	UNK0	0.000	
7	   C	3.880	2.080	2.711	C.2	1	UNK0	0.000	
8	   C	1.000	0.354	0.997	C.3	1	UNK0	0.000	
9	   N	0.259	-0.756	1.531	N.pl3	1	UNK0	0.000	
10	   C	-0.044	-1.700	0.522	C.2	1	UNK0	0.000	
11	   O	-0.700	-2.782	0.629	O.2	1	UNK0	0.000	
12	   C	0.539	-1.239	-0.758	C.2	1	UNK0	0.000	
13	   O	0.451	-1.844	-1.850	O.2	1	UNK0	0.000	
14	   C	1.196	0.014	-0.451	C.2	1	UNK0	0.000	
15	   C	1.817	0.735	-1.358	C.2	1	UNK0	0.000	
16	   O	2.362	1.971	-0.951	O.2	1	UNK0	0.000	
17	   C	2.007	0.382	-2.742	C.2	1	UNK0	0.000	
18	   C	2.571	-0.749	-3.219	C.2	1	UNK0	0.000	
19	   C	2.660	-0.978	-4.576	C.2	1	UNK0	0.000	
20	   C	2.191	-0.093	-5.523	C.2	1	UNK0	0.000	
21	   C	1.620	1.055	-5.010	C.2	1	UNK0	0.000	
22	   C	1.517	1.313	-3.671	C.2	1	UNK0	0.000	
23	   O	2.284	-0.330	-6.889	O.3	1	UNK0	0.000	
24	   C	1.779	0.624	-7.812	C.3	1	UNK0	0.000	
25	   C	3.294	-2.250	-5.056	C.3	1	UNK0	0.000	
26	   C	-0.124	-0.866	2.927	C.3	1	UNK0	0.000	
27	   C	-1.451	-0.228	3.234	C.3	1	UNK0	0.000	
28	   C	-2.562	-0.849	2.444	C.3	1	UNK0	0.000	
29	   N	-3.843	-0.261	2.708	N.4	1	UNK0	0.000	
30	   C	-3.810	1.186	2.765	C.3	1	UNK0	0.000	
31	   C	-5.267	1.659	2.803	C.3	1	UNK0	0.000	
32	   O	-6.124	0.591	3.023	O.3	1	UNK0	0.000	
33	   C	-5.725	-0.127	4.172	C.3	1	UNK0	0.000	
34	   C	-4.405	-0.838	3.896	C.3	1	UNK0	0.000	
35	   H	4.974	-1.068	2.895	 H	1	UNK0	0.000	
36	   H	2.808	-1.454	1.715	 H	1	UNK0	0.000	
37	   H	2.010	2.674	1.808	 H	1	UNK0	0.000	
38	   H	4.159	3.078	2.980	 H	1	UNK0	0.000	
39	   H	0.364	1.253	1.116	 H	1	UNK0	0.000	
40	   H	2.975	-1.466	-2.497	 H	1	UNK0	0.000	
41	   H	1.248	1.761	-5.771	 H	1	UNK0	0.000	
42	   H	1.054	2.239	-3.342	 H	1	UNK0	0.000	
43	   H	2.311	1.592	-7.618	 H	1	UNK0	0.000	
44	   H	1.971	0.350	-8.850	 H	1	UNK0	0.000	
45	   H	0.695	0.837	-7.593	 H	1	UNK0	0.000	
46	   H	4.090	-2.594	-4.365	 H	1	UNK0	0.000	
47	   H	3.669	-2.064	-6.078	 H	1	UNK0	0.000	
48	   H	2.458	-2.983	-5.148	 H	1	UNK0	0.000	
49	   H	0.651	-0.361	3.554	 H	1	UNK0	0.000	
50	   H	-0.177	-1.925	3.255	 H	1	UNK0	0.000	
51	   H	-1.366	0.865	3.027	 H	1	UNK0	0.000	
52	   H	-1.651	-0.405	4.308	 H	1	UNK0	0.000	
53	   H	-2.396	-0.757	1.351	 H	1	UNK0	0.000	
54	   H	-2.596	-1.934	2.670	 H	1	UNK0	0.000	
55	   H	-4.496	-0.506	1.905	 H	1	UNK0	0.000	
56	   H	-3.374	1.571	1.842	 H	1	UNK0	0.000	
57	   H	-3.337	1.538	3.689	 H	1	UNK0	0.000	
58	   H	-5.416	2.450	3.550	 H	1	UNK0	0.000	
59	   H	-5.567	2.090	1.808	 H	1	UNK0	0.000	
60	   H	-6.524	-0.897	4.313	 H	1	UNK0	0.000	
61	   H	-5.697	0.497	5.068	 H	1	UNK0	0.000	
62	   H	-3.683	-0.678	4.727	 H	1	UNK0	0.000	
63	   H	-4.591	-1.916	3.684	 H	1	UNK0	0.000	
@<TRIPOS>BOND
1 1 2 1
2 2 3 2
3 2 7 1
4 3 4 1
5 4 5 2
6 5 6 1
7 5 8 1
8 6 7 2
9 8 9 1
10 8 14 1
11 9 10 1
12 9 26 1
13 10 11 2
14 10 12 1
15 12 13 2
16 12 14 1
17 14 15 2
18 15 16 1
19 15 17 1
20 17 18 2
21 17 22 1
22 18 19 1
23 19 20 2
24 19 25 1
25 20 21 1
26 20 23 1
27 21 22 2
28 23 24 1
29 26 27 1
30 27 28 1
31 28 29 1
32 29 30 1
33 29 34 1
34 30 31 1
35 31 32 1
36 32 33 1
37 33 34 1
38 3 35 1
39 4 36 1
40 6 37 1
41 7 38 1
42 8 39 1
43 18 40 1
44 21 41 1
45 22 42 1
46 24 43 1
47 24 44 1
48 24 45 1
49 25 46 1
50 25 47 1
51 25 48 1
52 26 49 1
53 26 50 1
54 27 51 1
55 27 52 1
56 28 53 1
57 28 54 1
58 29 55 1
59 30 56 1
60 30 57 1
61 31 58 1
62 31 59 1
63 33 60 1
64 33 61 1
65 34 62 1
66 34 63 1
@<TRIPOS>SUBSTRUCTURE
1	UNK0	1	GROUP	1 ****	UNK
