REMARK  7 active torsions:
REMARK  status: ('A' for Active; 'I' for Inactive)
REMARK    1  A    between atoms: C_5  and  C_8 
REMARK    2  A    between atoms: N_9  and  C_25 
REMARK    3  A    between atoms: C_15  and  C_17 
REMARK    4  A    between atoms: C_19  and  O_23 
REMARK    5  A    between atoms: C_25  and  C_26 
REMARK    6  A    between atoms: C_26  and  C_27 
REMARK    7  A    between atoms: C_27  and  N_28 
ROOT
ATOM      1  C   UNK d   1       0.583   1.105   2.204  0.00  0.00     0.161 C 
ATOM      2  N   UNK d   1      -0.196  -0.115   2.146  0.00  0.00    -0.332 N 
ATOM      3  C   UNK d   1       0.515  -1.005   1.283  0.00  0.00     0.295 C 
ATOM      4  O   UNK d   1       0.467  -2.260   1.290  0.00  0.00    -0.264 OA
ATOM      5  C   UNK d   1       1.303  -0.155   0.397  0.00  0.00     0.250 C 
ATOM      6  O   UNK d   1       2.088  -0.479  -0.529  0.00  0.00    -0.282 OA
ATOM      7  C   UNK d   1       1.031   1.230   0.768  0.00  0.00     0.062 C 
ATOM      8  C   UNK d   1       1.189   2.295   0.021  0.00  0.00     0.130 C 
ATOM      9  O   UNK d   1       0.906   3.528   0.635  0.00  0.00    -0.190 OA
ENDROOT
BRANCH   2  10
ATOM     10  C   UNK d   1      -1.468  -0.404   2.830  0.00  0.00     0.129 C 
BRANCH  10  11
ATOM     11  C   UNK d   1      -2.654   0.006   1.944  0.00  0.00     0.048 C 
BRANCH  11  12
ATOM     12  C   UNK d   1      -2.594  -0.761   0.654  0.00  0.00     0.236 C 
BRANCH  12  13
ATOM     13  N   UNK d   1      -3.716  -0.383  -0.171  0.00  0.00    -0.067 N 
ATOM     14  C   UNK d   1      -4.901  -1.145   0.069  0.00  0.00     0.261 C 
ATOM     15  C   UNK d   1      -4.817  -2.541  -0.447  0.00  0.00     0.195 C 
ATOM     16  O   UNK d   1      -4.512  -2.552  -1.797  0.00  0.00    -0.388 OA
ATOM     17  C   UNK d   1      -3.264  -1.948  -1.954  0.00  0.00     0.195 C 
ATOM     18  C   UNK d   1      -3.411  -0.484  -1.587  0.00  0.00     0.261 C 
ATOM     19  H   UNK d   1      -3.927   0.626   0.009  0.00  0.00     0.280 HD
ENDBRANCH  12  13
ENDBRANCH  11  12
ENDBRANCH  10  11
ENDBRANCH   2  10
BRANCH   1  20
ATOM     20  C   UNK d   1       1.715   0.969   3.110  0.00  0.00    -0.030 A 
ATOM     21  C   UNK d   1       1.573   0.328   4.316  0.00  0.00     0.011 A 
ATOM     22  C   UNK d   1       2.647   0.201   5.201  0.00  0.00     0.019 A 
ATOM     23  C   UNK d   1       3.877   0.722   4.875  0.00  0.00     0.011 A 
ATOM     24 Br   UNK d   1       5.340   0.548   6.087  0.00  0.00    -0.051 Br
ATOM     25  C   UNK d   1       4.032   1.364   3.675  0.00  0.00     0.019 A 
ATOM     26  C   UNK d   1       2.958   1.480   2.811  0.00  0.00     0.011 A 
ENDBRANCH   1  20
BRANCH   8  27
ATOM     27  C   UNK d   1       1.624   2.244  -1.371  0.00  0.00     0.004 A 
ATOM     28  C   UNK d   1       1.081   1.408  -2.320  0.00  0.00     0.051 A 
ATOM     29  C   UNK d   1       1.502   1.339  -3.636  0.00  0.00     0.069 A 
ATOM     30  C   UNK d   1       2.525   2.151  -4.034  0.00  0.00     0.037 A 
ATOM     31  C   UNK d   1       3.104   3.014  -3.108  0.00  0.00     0.004 A 
ATOM     32  C   UNK d   1       2.658   3.055  -1.804  0.00  0.00     0.014 A 
BRANCH  29  33
ATOM     33  O   UNK d   1       0.844   0.444  -4.449  0.00  0.00    -0.356 OA
ATOM     34  C   UNK d   1       1.072   0.188  -5.792  0.00  0.00     0.210 C 
ENDBRANCH  29  33
ENDBRANCH   8  27
TORSDOF 7
