# created with PyMOL 2.3.2
@<TRIPOS>MOLECULE
347
60 63 1                 
SMALL
USER_CHARGES
@<TRIPOS>ATOM
1	  Br	5.340	0.548	6.087	Br	1	UNK0	0.000	
2	   C	3.877	0.722	4.875	C.2	1	UNK0	0.000	
3	   C	2.647	0.201	5.201	C.2	1	UNK0	0.000	
4	   C	1.573	0.328	4.316	C.2	1	UNK0	0.000	
5	   C	1.715	0.969	3.110	C.2	1	UNK0	0.000	
6	   C	2.958	1.480	2.811	C.2	1	UNK0	0.000	
7	   C	4.032	1.364	3.675	C.2	1	UNK0	0.000	
8	   C	0.583	1.105	2.204	C.3	1	UNK0	0.000	
9	   N	-0.196	-0.115	2.146	N.pl3	1	UNK0	0.000	
10	   C	0.515	-1.005	1.283	C.2	1	UNK0	0.000	
11	   O	0.467	-2.260	1.290	O.2	1	UNK0	0.000	
12	   C	1.303	-0.155	0.397	C.2	1	UNK0	0.000	
13	   O	2.088	-0.479	-0.529	O.2	1	UNK0	0.000	
14	   C	1.031	1.230	0.768	C.2	1	UNK0	0.000	
15	   C	1.189	2.295	0.021	C.2	1	UNK0	0.000	
16	   O	0.906	3.528	0.635	O.2	1	UNK0	0.000	
17	   C	1.624	2.244	-1.371	C.2	1	UNK0	0.000	
18	   C	1.081	1.408	-2.320	C.2	1	UNK0	0.000	
19	   C	1.502	1.339	-3.636	C.2	1	UNK0	0.000	
20	   C	2.525	2.151	-4.034	C.2	1	UNK0	0.000	
21	   C	3.104	3.014	-3.108	C.2	1	UNK0	0.000	
22	   C	2.658	3.055	-1.804	C.2	1	UNK0	0.000	
23	   O	0.844	0.444	-4.449	O.3	1	UNK0	0.000	
24	   C	1.072	0.188	-5.792	C.3	1	UNK0	0.000	
25	   C	-1.468	-0.404	2.830	C.3	1	UNK0	0.000	
26	   C	-2.654	0.006	1.944	C.3	1	UNK0	0.000	
27	   C	-2.594	-0.761	0.654	C.3	1	UNK0	0.000	
28	   N	-3.716	-0.383	-0.171	N.4	1	UNK0	0.000	
29	   C	-4.901	-1.145	0.069	C.3	1	UNK0	0.000	
30	   C	-4.817	-2.541	-0.447	C.3	1	UNK0	0.000	
31	   O	-4.512	-2.552	-1.797	O.3	1	UNK0	0.000	
32	   C	-3.264	-1.948	-1.954	C.3	1	UNK0	0.000	
33	   C	-3.411	-0.484	-1.587	C.3	1	UNK0	0.000	
34	   H	2.557	-0.299	6.151	 H	1	UNK0	0.000	
35	   H	0.644	-0.094	4.619	 H	1	UNK0	0.000	
36	   H	3.042	1.980	1.855	 H	1	UNK0	0.000	
37	   H	4.988	1.782	3.407	 H	1	UNK0	0.000	
38	   H	-0.030	1.979	2.493	 H	1	UNK0	0.000	
39	   H	0.263	0.774	-2.022	 H	1	UNK0	0.000	
40	   H	2.873	2.114	-5.061	 H	1	UNK0	0.000	
41	   H	3.916	3.635	-3.488	 H	1	UNK0	0.000	
42	   H	3.154	3.756	-1.114	 H	1	UNK0	0.000	
43	   H	0.120	0.064	-6.381	 H	1	UNK0	0.000	
44	   H	1.712	0.960	-6.228	 H	1	UNK0	0.000	
45	   H	1.578	-0.796	-5.883	 H	1	UNK0	0.000	
46	   H	-1.530	0.229	3.714	 H	1	UNK0	0.000	
47	   H	-1.465	-1.483	3.005	 H	1	UNK0	0.000	
48	   H	-3.605	-0.212	2.424	 H	1	UNK0	0.000	
49	   H	-2.607	1.094	1.727	 H	1	UNK0	0.000	
50	   H	-1.620	-0.495	0.181	 H	1	UNK0	0.000	
51	   H	-2.622	-1.829	0.858	 H	1	UNK0	0.000	
52	   H	-3.927	0.626	0.009	 H	1	UNK0	0.000	
53	   H	-5.116	-1.148	1.161	 H	1	UNK0	0.000	
54	   H	-5.758	-0.616	-0.417	 H	1	UNK0	0.000	
55	   H	-3.994	-3.092	0.074	 H	1	UNK0	0.000	
56	   H	-5.779	-3.058	-0.228	 H	1	UNK0	0.000	
57	   H	-2.876	-2.026	-2.988	 H	1	UNK0	0.000	
58	   H	-2.495	-2.395	-1.286	 H	1	UNK0	0.000	
59	   H	-4.290	-0.109	-2.147	 H	1	UNK0	0.000	
60	   H	-2.512	0.085	-1.864	 H	1	UNK0	0.000	
@<TRIPOS>BOND
1 1 2 1
2 2 3 2
3 2 7 1
4 3 4 1
5 4 5 2
6 5 6 1
7 5 8 1
8 6 7 2
9 8 9 1
10 8 14 1
11 9 10 1
12 9 25 1
13 10 11 2
14 10 12 1
15 12 13 2
16 12 14 1
17 14 15 2
18 15 16 1
19 15 17 1
20 17 18 2
21 17 22 1
22 18 19 1
23 19 20 2
24 19 23 1
25 20 21 1
26 21 22 2
27 23 24 1
28 25 26 1
29 26 27 1
30 27 28 1
31 28 29 1
32 28 33 1
33 29 30 1
34 30 31 1
35 31 32 1
36 32 33 1
37 3 34 1
38 4 35 1
39 6 36 1
40 7 37 1
41 8 38 1
42 18 39 1
43 20 40 1
44 21 41 1
45 22 42 1
46 24 43 1
47 24 44 1
48 24 45 1
49 25 46 1
50 25 47 1
51 26 48 1
52 26 49 1
53 27 50 1
54 27 51 1
55 28 52 1
56 29 53 1
57 29 54 1
58 30 55 1
59 30 56 1
60 32 57 1
61 32 58 1
62 33 59 1
63 33 60 1
@<TRIPOS>SUBSTRUCTURE
1	UNK0	1	GROUP	1 ****	UNK
