REMARK  5 active torsions:
REMARK  status: ('A' for Active; 'I' for Inactive)
REMARK    1  A    between atoms: C_5  and  C_8 
REMARK    2  A    between atoms: N_9  and  C_24 
REMARK    3  A    between atoms: C_15  and  C_17 
REMARK    4  A    between atoms: C_24  and  C_25 
REMARK    5  A    between atoms: C_25  and  N_26 
ROOT
ATOM      1  C   UNK d   1       1.088  -2.545  -0.881  0.00  0.00     0.161 C 
ATOM      2  N   UNK d   1       1.334  -1.889  -2.092  0.00  0.00    -0.331 N 
ATOM      3  C   UNK d   1       2.459  -0.986  -1.772  0.00  0.00     0.295 C 
ATOM      4  O   UNK d   1       3.366  -0.592  -2.556  0.00  0.00    -0.264 OA
ATOM      5  C   UNK d   1       2.273  -0.662  -0.354  0.00  0.00     0.250 C 
ATOM      6  O   UNK d   1       2.982   0.093   0.379  0.00  0.00    -0.282 OA
ATOM      7  C   UNK d   1       1.065  -1.397   0.068  0.00  0.00     0.062 C 
ATOM      8  C   UNK d   1       0.203  -1.059   1.000  0.00  0.00     0.130 C 
ATOM      9  O   UNK d   1      -0.929  -1.833   1.226  0.00  0.00    -0.190 OA
ENDROOT
BRANCH   2  10
ATOM     10  C   UNK d   1       0.835  -1.901  -3.459  0.00  0.00     0.155 C 
BRANCH  10  11
ATOM     11  C   UNK d   1      -0.103  -0.767  -3.780  0.00  0.00     0.255 C 
BRANCH  11  12
ATOM     12  N   UNK d   1      -1.251  -0.710  -2.936  0.00  0.00    -0.066 N 
ATOM     13  C   UNK d   1      -2.406  -1.258  -3.622  0.00  0.00     0.261 C 
ATOM     14  C   UNK d   1      -3.585  -1.220  -2.686  0.00  0.00     0.195 C 
ATOM     15  O   UNK d   1      -3.917   0.135  -2.525  0.00  0.00    -0.388 OA
ATOM     16  C   UNK d   1      -2.862   0.753  -1.895  0.00  0.00     0.195 C 
ATOM     17  C   UNK d   1      -1.589   0.708  -2.700  0.00  0.00     0.261 C 
ATOM     18  H   UNK d   1      -1.110  -1.166  -2.023  0.00  0.00     0.280 HD
ENDBRANCH  11  12
ENDBRANCH  10  11
ENDBRANCH   2  10
BRANCH   1  19
ATOM     19  C   UNK d   1       0.250  -3.656  -0.641  0.00  0.00    -0.030 A 
ATOM     20  C   UNK d   1       0.619  -4.531   0.392  0.00  0.00     0.011 A 
ATOM     21  C   UNK d   1      -0.111  -5.642   0.704  0.00  0.00     0.019 A 
ATOM     22  C   UNK d   1      -1.257  -5.951   0.004  0.00  0.00     0.011 A 
ATOM     23 Br   UNK d   1      -2.303  -7.501   0.418  0.00  0.00    -0.051 Br
ATOM     24  C   UNK d   1      -1.623  -5.098  -1.009  0.00  0.00     0.019 A 
ATOM     25  C   UNK d   1      -0.873  -3.964  -1.324  0.00  0.00     0.011 A 
ENDBRANCH   1  19
BRANCH   8  26
ATOM     26  C   UNK d   1       0.369   0.111   1.848  0.00  0.00     0.001 A 
ATOM     27  C   UNK d   1       1.418   0.358   2.677  0.00  0.00     0.015 A 
ATOM     28  C   UNK d   1       1.477   1.540   3.402  0.00  0.00     0.007 A 
ATOM     29  C   UNK d   1       0.475   2.477   3.292  0.00  0.00    -0.062 A 
ATOM     30  C   UNK d   1      -0.603   2.265   2.465  0.00  0.00     0.007 A 
ATOM     31  C   UNK d   1       0.504   3.760   4.056  0.00  0.00     0.048 C 
ATOM     32  C   UNK d   1      -0.640   1.076   1.750  0.00  0.00     0.015 A 
ENDBRANCH   8  26
TORSDOF 5
