# created with PyMOL 2.3.2
@<TRIPOS>MOLECULE
351
53 56 1                 
SMALL
USER_CHARGES
@<TRIPOS>ATOM
1	  Br	-0.468	-3.467	5.423	Br	1	UNK0	0.000	
2	   C	-0.201	-2.719	3.695	C.2	1	UNK0	0.000	
3	   C	-0.923	-1.649	3.218	C.2	1	UNK0	0.000	
4	   C	-0.697	-1.124	1.937	C.2	1	UNK0	0.000	
5	   C	0.253	-1.662	1.116	C.2	1	UNK0	0.000	
6	   C	0.961	-2.733	1.621	C.2	1	UNK0	0.000	
7	   C	0.753	-3.260	2.875	C.2	1	UNK0	0.000	
8	   C	0.511	-1.183	-0.188	C.3	1	UNK0	0.000	
9	   N	-0.494	-1.063	-1.180	N.pl3	1	UNK0	0.000	
10	   C	0.222	-0.493	-2.317	C.2	1	UNK0	0.000	
11	   O	-0.067	-0.655	-3.534	O.2	1	UNK0	0.000	
12	   C	1.318	0.288	-1.746	C.2	1	UNK0	0.000	
13	   O	2.193	0.962	-2.349	O.2	1	UNK0	0.000	
14	   C	1.201	0.137	-0.294	C.2	1	UNK0	0.000	
15	   C	1.577	0.992	0.640	C.2	1	UNK0	0.000	
16	   O	1.333	0.720	1.977	O.2	1	UNK0	0.000	
17	   C	2.263	2.245	0.357	C.2	1	UNK0	0.000	
18	   C	1.600	3.390	0.819	C.2	1	UNK0	0.000	
19	   C	2.131	4.650	0.669	C.2	1	UNK0	0.000	
20	   C	3.364	4.773	0.038	C.2	1	UNK0	0.000	
21	   C	4.010	3.643	-0.413	C.2	1	UNK0	0.000	
22	   C	3.469	2.384	-0.257	C.2	1	UNK0	0.000	
23	  Cl	4.029	6.380	-0.148	Cl	1	UNK0	0.000	
24	   C	-1.913	-1.425	-1.238	C.3	1	UNK0	0.000	
25	   C	-2.852	-0.295	-0.948	C.3	1	UNK0	0.000	
26	   N	-4.241	-0.692	-1.005	N.4	1	UNK0	0.000	
27	   C	-4.825	-0.501	-2.303	C.3	1	UNK0	0.000	
28	   C	-5.023	0.939	-2.676	C.3	1	UNK0	0.000	
29	   O	-5.715	1.647	-1.692	O.3	1	UNK0	0.000	
30	   C	-4.931	1.570	-0.531	C.3	1	UNK0	0.000	
31	   C	-4.979	0.131	-0.064	C.3	1	UNK0	0.000	
32	   H	-1.666	-1.233	3.865	 H	1	UNK0	0.000	
33	   H	-1.321	-0.282	1.698	 H	1	UNK0	0.000	
34	   H	1.748	-3.233	1.034	 H	1	UNK0	0.000	
35	   H	1.331	-4.103	3.237	 H	1	UNK0	0.000	
36	   H	1.285	-1.897	-0.659	 H	1	UNK0	0.000	
37	   H	0.641	3.321	1.313	 H	1	UNK0	0.000	
38	   H	1.588	5.511	1.040	 H	1	UNK0	0.000	
39	   H	4.963	3.773	-0.898	 H	1	UNK0	0.000	
40	   H	4.009	1.505	-0.593	 H	1	UNK0	0.000	
41	   H	-2.086	-2.187	-0.421	 H	1	UNK0	0.000	
42	   H	-2.181	-1.835	-2.226	 H	1	UNK0	0.000	
43	   H	-2.723	0.434	-1.792	 H	1	UNK0	0.000	
44	   H	-2.655	0.286	-0.043	 H	1	UNK0	0.000	
45	   H	-4.386	-1.681	-0.724	 H	1	UNK0	0.000	
46	   H	-4.298	-1.010	-3.116	 H	1	UNK0	0.000	
47	   H	-5.852	-0.961	-2.257	 H	1	UNK0	0.000	
48	   H	-4.070	1.444	-2.944	 H	1	UNK0	0.000	
49	   H	-5.678	0.956	-3.581	 H	1	UNK0	0.000	
50	   H	-5.315	2.241	0.264	 H	1	UNK0	0.000	
51	   H	-3.930	1.912	-0.798	 H	1	UNK0	0.000	
52	   H	-4.570	0.028	0.972	 H	1	UNK0	0.000	
53	   H	-6.060	-0.166	-0.075	 H	1	UNK0	0.000	
@<TRIPOS>BOND
1 1 2 1
2 2 3 2
3 2 7 1
4 3 4 1
5 4 5 2
6 5 6 1
7 5 8 1
8 6 7 2
9 8 9 1
10 8 14 1
11 9 10 1
12 9 24 1
13 10 11 2
14 10 12 1
15 12 13 2
16 12 14 1
17 14 15 2
18 15 16 1
19 15 17 1
20 17 18 2
21 17 22 1
22 18 19 1
23 19 20 2
24 20 21 1
25 20 23 1
26 21 22 2
27 24 25 1
28 25 26 1
29 26 27 1
30 26 31 1
31 27 28 1
32 28 29 1
33 29 30 1
34 30 31 1
35 3 32 1
36 4 33 1
37 6 34 1
38 7 35 1
39 8 36 1
40 18 37 1
41 19 38 1
42 21 39 1
43 22 40 1
44 24 41 1
45 24 42 1
46 25 43 1
47 25 44 1
48 26 45 1
49 27 46 1
50 27 47 1
51 28 48 1
52 28 49 1
53 30 50 1
54 30 51 1
55 31 52 1
56 31 53 1
@<TRIPOS>SUBSTRUCTURE
1	UNK0	1	GROUP	1 ****	UNK
