REMARK  5 active torsions:
REMARK  status: ('A' for Active; 'I' for Inactive)
REMARK    1  A    between atoms: C_5  and  C_8 
REMARK    2  A    between atoms: N_9  and  C_24 
REMARK    3  A    between atoms: C_15  and  C_17 
REMARK    4  A    between atoms: C_24  and  C_25 
REMARK    5  A    between atoms: C_25  and  N_26 
ROOT
ATOM      1  C   UNK d   1       0.511  -1.183  -0.188  0.00  0.00     0.161 C 
ATOM      2  N   UNK d   1      -0.494  -1.063  -1.180  0.00  0.00    -0.331 N 
ATOM      3  C   UNK d   1       0.222  -0.493  -2.317  0.00  0.00     0.295 C 
ATOM      4  O   UNK d   1      -0.067  -0.655  -3.534  0.00  0.00    -0.264 OA
ATOM      5  C   UNK d   1       1.318   0.288  -1.746  0.00  0.00     0.250 C 
ATOM      6  O   UNK d   1       2.193   0.962  -2.349  0.00  0.00    -0.282 OA
ATOM      7  C   UNK d   1       1.201   0.137  -0.294  0.00  0.00     0.062 C 
ATOM      8  C   UNK d   1       1.577   0.992   0.640  0.00  0.00     0.130 C 
ATOM      9  O   UNK d   1       1.333   0.720   1.977  0.00  0.00    -0.190 OA
ENDROOT
BRANCH   2  10
ATOM     10  C   UNK d   1      -1.913  -1.425  -1.238  0.00  0.00     0.155 C 
BRANCH  10  11
ATOM     11  C   UNK d   1      -2.852  -0.295  -0.948  0.00  0.00     0.255 C 
BRANCH  11  12
ATOM     12  N   UNK d   1      -4.241  -0.692  -1.005  0.00  0.00    -0.066 N 
ATOM     13  C   UNK d   1      -4.825  -0.501  -2.303  0.00  0.00     0.261 C 
ATOM     14  C   UNK d   1      -5.023   0.939  -2.676  0.00  0.00     0.195 C 
ATOM     15  O   UNK d   1      -5.715   1.647  -1.692  0.00  0.00    -0.388 OA
ATOM     16  C   UNK d   1      -4.931   1.570  -0.531  0.00  0.00     0.195 C 
ATOM     17  C   UNK d   1      -4.979   0.131  -0.064  0.00  0.00     0.261 C 
ATOM     18  H   UNK d   1      -4.386  -1.681  -0.724  0.00  0.00     0.280 HD
ENDBRANCH  11  12
ENDBRANCH  10  11
ENDBRANCH   2  10
BRANCH   1  19
ATOM     19  C   UNK d   1       0.253  -1.662   1.116  0.00  0.00    -0.030 A 
ATOM     20  C   UNK d   1      -0.697  -1.124   1.937  0.00  0.00     0.011 A 
ATOM     21  C   UNK d   1      -0.923  -1.649   3.218  0.00  0.00     0.019 A 
ATOM     22  C   UNK d   1      -0.201  -2.719   3.695  0.00  0.00     0.011 A 
ATOM     23 Br   UNK d   1      -0.468  -3.467   5.423  0.00  0.00    -0.051 Br
ATOM     24  C   UNK d   1       0.753  -3.260   2.875  0.00  0.00     0.019 A 
ATOM     25  C   UNK d   1       0.961  -2.733   1.621  0.00  0.00     0.011 A 
ENDBRANCH   1  19
BRANCH   8  26
ATOM     26  C   UNK d   1       2.263   2.245   0.357  0.00  0.00     0.001 A 
ATOM     27  C   UNK d   1       1.600   3.390   0.819  0.00  0.00     0.016 A 
ATOM     28  C   UNK d   1       2.131   4.650   0.669  0.00  0.00     0.024 A 
ATOM     29  C   UNK d   1       3.364   4.773   0.038  0.00  0.00     0.034 A 
ATOM     30  C   UNK d   1       4.010   3.643  -0.413  0.00  0.00     0.024 A 
ATOM     31 Cl   UNK d   1       4.029   6.380  -0.148  0.00  0.00    -0.084 Cl
ATOM     32  C   UNK d   1       3.469   2.384  -0.257  0.00  0.00     0.016 A 
ENDBRANCH   8  26
TORSDOF 5
