REMARK  6 active torsions:
REMARK  status: ('A' for Active; 'I' for Inactive)
REMARK    1  A    between atoms: C_5  and  C_8 
REMARK    2  A    between atoms: N_9  and  C_23 
REMARK    3  A    between atoms: C_15  and  C_17 
REMARK    4  A    between atoms: C_23  and  C_24 
REMARK    5  A    between atoms: C_24  and  C_25 
REMARK    6  A    between atoms: C_25  and  N_26 
ROOT
ATOM      1  C   UNK d   1      -1.872  -1.083   2.284  0.00  0.00     0.161 C 
ATOM      2  N   UNK d   1      -0.702  -0.411   2.751  0.00  0.00    -0.332 N 
ATOM      3  C   UNK d   1      -1.107   0.964   2.977  0.00  0.00     0.295 C 
ATOM      4  O   UNK d   1      -0.492   1.777   3.715  0.00  0.00    -0.264 OA
ATOM      5  C   UNK d   1      -2.315   1.204   2.211  0.00  0.00     0.250 C 
ATOM      6  O   UNK d   1      -2.984   2.279   2.133  0.00  0.00    -0.282 OA
ATOM      7  C   UNK d   1      -2.622  -0.040   1.535  0.00  0.00     0.062 C 
ATOM      8  C   UNK d   1      -3.384  -0.173   0.464  0.00  0.00     0.130 C 
ATOM      9  O   UNK d   1      -3.505  -1.485  -0.055  0.00  0.00    -0.190 OA
ENDROOT
BRANCH   2  10
ATOM     10  C   UNK d   1       0.646  -0.890   3.063  0.00  0.00     0.129 C 
BRANCH  10  11
ATOM     11  C   UNK d   1       1.654  -0.695   1.982  0.00  0.00     0.048 C 
BRANCH  11  12
ATOM     12  C   UNK d   1       1.813   0.771   1.610  0.00  0.00     0.236 C 
BRANCH  12  13
ATOM     13  N   UNK d   1       2.792   0.943   0.562  0.00  0.00    -0.067 N 
ATOM     14  C   UNK d   1       2.715  -0.091  -0.445  0.00  0.00     0.261 C 
ATOM     15  C   UNK d   1       3.473   0.431  -1.668  0.00  0.00     0.195 C 
ATOM     16  O   UNK d   1       2.675   1.378  -2.309  0.00  0.00    -0.388 OA
ATOM     17  C   UNK d   1       2.016   2.198  -1.394  0.00  0.00     0.195 C 
ATOM     18  C   UNK d   1       2.733   2.230  -0.060  0.00  0.00     0.261 C 
ATOM     19  H   UNK d   1       3.732   0.853   1.017  0.00  0.00     0.280 HD
ENDBRANCH  12  13
ENDBRANCH  11  12
ENDBRANCH  10  11
ENDBRANCH   2  10
BRANCH   1  20
ATOM     20  C   UNK d   1      -1.711  -2.322   1.549  0.00  0.00    -0.030 A 
ATOM     21  C   UNK d   1      -1.040  -2.506   0.388  0.00  0.00     0.011 A 
ATOM     22  C   UNK d   1      -0.931  -3.744  -0.216  0.00  0.00     0.019 A 
ATOM     23  C   UNK d   1      -1.506  -4.868   0.336  0.00  0.00     0.011 A 
ATOM     24 Br   UNK d   1      -1.368  -6.588  -0.481  0.00  0.00    -0.051 Br
ATOM     25  C   UNK d   1      -2.198  -4.717   1.518  0.00  0.00     0.019 A 
ATOM     26  C   UNK d   1      -2.293  -3.475   2.102  0.00  0.00     0.011 A 
ENDBRANCH   1  20
BRANCH   8  27
ATOM     27  C   UNK d   1      -4.087   0.916  -0.184  0.00  0.00     0.004 A 
ATOM     28  C   UNK d   1      -3.776   1.134  -1.532  0.00  0.00     0.033 A 
ATOM     29  C   UNK d   1      -4.400   2.108  -2.283  0.00  0.00     0.117 A 
ATOM     30  N   UNK d   1      -5.341   2.883  -1.714  0.00  0.00    -0.273 NA
ATOM     31  C   UNK d   1      -5.661   2.695  -0.417  0.00  0.00     0.117 A 
ATOM     32  C   UNK d   1      -5.038   1.714   0.352  0.00  0.00     0.033 A 
ENDBRANCH   8  27
TORSDOF 6
