# created with PyMOL 2.3.2
@<TRIPOS>MOLECULE
354
55 58 1                 
SMALL
USER_CHARGES
@<TRIPOS>ATOM
1	  Br	-1.368	-6.588	-0.481	Br	1	UNK0	0.000	
2	   C	-1.506	-4.868	0.336	C.2	1	UNK0	0.000	
3	   C	-0.931	-3.744	-0.216	C.2	1	UNK0	0.000	
4	   C	-1.040	-2.506	0.388	C.2	1	UNK0	0.000	
5	   C	-1.711	-2.322	1.549	C.2	1	UNK0	0.000	
6	   C	-2.293	-3.475	2.102	C.2	1	UNK0	0.000	
7	   C	-2.198	-4.717	1.518	C.2	1	UNK0	0.000	
8	   C	-1.872	-1.083	2.284	C.3	1	UNK0	0.000	
9	   N	-0.702	-0.411	2.751	N.pl3	1	UNK0	0.000	
10	   C	-1.107	0.964	2.977	C.2	1	UNK0	0.000	
11	   O	-0.492	1.777	3.715	O.2	1	UNK0	0.000	
12	   C	-2.315	1.204	2.211	C.2	1	UNK0	0.000	
13	   O	-2.984	2.279	2.133	O.2	1	UNK0	0.000	
14	   C	-2.622	-0.040	1.535	C.2	1	UNK0	0.000	
15	   C	-3.384	-0.173	0.464	C.2	1	UNK0	0.000	
16	   O	-3.505	-1.485	-0.055	O.2	1	UNK0	0.000	
17	   C	-4.087	0.916	-0.184	C.2	1	UNK0	0.000	
18	   C	-3.776	1.134	-1.532	C.2	1	UNK0	0.000	
19	   C	-4.400	2.108	-2.283	C.2	1	UNK0	0.000	
20	   N	-5.341	2.883	-1.714	N.2	1	UNK0	0.000	
21	   C	-5.661	2.695	-0.417	C.2	1	UNK0	0.000	
22	   C	-5.038	1.714	0.352	C.2	1	UNK0	0.000	
23	   C	0.646	-0.890	3.063	C.3	1	UNK0	0.000	
24	   C	1.654	-0.695	1.982	C.3	1	UNK0	0.000	
25	   C	1.813	0.771	1.610	C.3	1	UNK0	0.000	
26	   N	2.792	0.943	0.562	N.4	1	UNK0	0.000	
27	   C	2.715	-0.091	-0.445	C.3	1	UNK0	0.000	
28	   C	3.473	0.431	-1.668	C.3	1	UNK0	0.000	
29	   O	2.675	1.378	-2.309	O.3	1	UNK0	0.000	
30	   C	2.016	2.198	-1.394	C.3	1	UNK0	0.000	
31	   C	2.733	2.230	-0.060	C.3	1	UNK0	0.000	
32	   H	-0.391	-3.873	-1.143	 H	1	UNK0	0.000	
33	   H	-0.580	-1.633	-0.095	 H	1	UNK0	0.000	
34	   H	-2.849	-3.419	3.029	 H	1	UNK0	0.000	
35	   H	-2.669	-5.592	1.985	 H	1	UNK0	0.000	
36	   H	-2.500	-1.260	3.201	 H	1	UNK0	0.000	
37	   H	-3.027	0.537	-2.032	 H	1	UNK0	0.000	
38	   H	-4.166	2.283	-3.323	 H	1	UNK0	0.000	
39	   H	-6.422	3.320	0.047	 H	1	UNK0	0.000	
40	   H	-5.356	1.589	1.372	 H	1	UNK0	0.000	
41	   H	0.562	-1.969	3.275	 H	1	UNK0	0.000	
42	   H	1.041	-0.418	3.986	 H	1	UNK0	0.000	
43	   H	2.670	-1.097	2.300	 H	1	UNK0	0.000	
44	   H	1.381	-1.238	1.074	 H	1	UNK0	0.000	
45	   H	0.856	1.133	1.233	 H	1	UNK0	0.000	
46	   H	2.182	1.294	2.506	 H	1	UNK0	0.000	
47	   H	3.732	0.853	1.017	 H	1	UNK0	0.000	
48	   H	3.208	-1.030	-0.155	 H	1	UNK0	0.000	
49	   H	1.676	-0.298	-0.735	 H	1	UNK0	0.000	
50	   H	3.783	-0.382	-2.322	 H	1	UNK0	0.000	
51	   H	4.365	0.955	-1.274	 H	1	UNK0	0.000	
52	   H	1.987	3.243	-1.762	 H	1	UNK0	0.000	
53	   H	0.979	1.824	-1.236	 H	1	UNK0	0.000	
54	   H	2.212	2.930	0.590	 H	1	UNK0	0.000	
55	   H	3.749	2.655	-0.265	 H	1	UNK0	0.000	
@<TRIPOS>BOND
1 1 2 1
2 2 3 2
3 2 7 1
4 3 4 1
5 4 5 2
6 5 6 1
7 5 8 1
8 6 7 2
9 8 9 1
10 8 14 1
11 9 10 1
12 9 23 1
13 10 11 2
14 10 12 1
15 12 13 2
16 12 14 1
17 14 15 2
18 15 16 1
19 15 17 1
20 17 18 2
21 17 22 1
22 18 19 1
23 19 20 2
24 20 21 1
25 21 22 2
26 23 24 1
27 24 25 1
28 25 26 1
29 26 27 1
30 26 31 1
31 27 28 1
32 28 29 1
33 29 30 1
34 30 31 1
35 3 32 1
36 4 33 1
37 6 34 1
38 7 35 1
39 8 36 1
40 18 37 1
41 19 38 1
42 21 39 1
43 22 40 1
44 23 41 1
45 23 42 1
46 24 43 1
47 24 44 1
48 25 45 1
49 25 46 1
50 26 47 1
51 27 48 1
52 27 49 1
53 28 50 1
54 28 51 1
55 30 52 1
56 30 53 1
57 31 54 1
58 31 55 1
@<TRIPOS>SUBSTRUCTURE
1	UNK0	1	GROUP	1 ****	UNK
