REMARK  6 active torsions:
REMARK  status: ('A' for Active; 'I' for Inactive)
REMARK    1  A    between atoms: C_5  and  C_8 
REMARK    2  A    between atoms: N_9  and  C_27 
REMARK    3  A    between atoms: C_15  and  C_17 
REMARK    4  A    between atoms: C_27  and  C_28 
REMARK    5  A    between atoms: C_28  and  C_29 
REMARK    6  A    between atoms: C_29  and  N_30 
ROOT
ATOM      1  C   UNK d   1       1.658   0.980   0.466  0.00  0.00     0.161 C 
ATOM      2  N   UNK d   1       2.065  -0.347   0.964  0.00  0.00    -0.332 N 
ATOM      3  C   UNK d   1       0.971  -0.776   1.767  0.00  0.00     0.295 C 
ATOM      4  O   UNK d   1       1.067  -1.610   2.713  0.00  0.00    -0.264 OA
ATOM      5  C   UNK d   1      -0.240  -0.101   1.312  0.00  0.00     0.251 C 
ATOM      6  O   UNK d   1      -1.392  -0.233   1.774  0.00  0.00    -0.282 OA
ATOM      7  C   UNK d   1       0.189   0.744   0.213  0.00  0.00     0.064 C 
ATOM      8  C   UNK d   1      -0.518   1.178  -0.799  0.00  0.00     0.149 C 
ATOM      9  O   UNK d   1       0.062   1.943  -1.801  0.00  0.00    -0.189 OA
ENDROOT
BRANCH   1  10
ATOM     10  C   UNK d   1       1.750   1.994   1.540  0.00  0.00    -0.030 A 
ATOM     11  C   UNK d   1       2.755   1.955   2.477  0.00  0.00     0.011 A 
ATOM     12  C   UNK d   1       2.866   2.908   3.488  0.00  0.00     0.019 A 
ATOM     13  C   UNK d   1       1.947   3.938   3.573  0.00  0.00     0.011 A 
ATOM     14 Br   UNK d   1       2.082   5.262   4.959  0.00  0.00    -0.051 Br
ATOM     15  C   UNK d   1       0.945   3.974   2.636  0.00  0.00     0.019 A 
ATOM     16  C   UNK d   1       0.845   3.028   1.643  0.00  0.00     0.011 A 
ENDBRANCH   1  10
BRANCH   8  17
ATOM     17  C   UNK d   1      -1.934   0.888  -0.922  0.00  0.00     0.102 A 
ATOM     18  N   UNK d   1      -2.996   1.286  -0.192  0.00  0.00    -0.302 N 
ATOM     19  C   UNK d   1      -4.127   0.734  -0.655  0.00  0.00     0.134 A 
ATOM     20  C   UNK d   1      -3.105   2.129   0.867  0.00  0.00     0.099 A 
ATOM     21  N   UNK d   1      -3.765  -0.033  -1.706  0.00  0.00    -0.233 NA
ATOM     22  C   UNK d   1      -5.381   0.987  -0.098  0.00  0.00     0.051 A 
ATOM     23  C   UNK d   1      -2.463   0.026  -1.907  0.00  0.00     0.063 A 
ATOM     24  C   UNK d   1      -1.626  -0.651  -2.949  0.00  0.00     0.073 C 
ATOM     25  C   UNK d   1      -5.497   1.839   0.976  0.00  0.00     0.005 A 
ATOM     26  C   UNK d   1      -4.327   2.398   1.436  0.00  0.00     0.018 A 
ENDBRANCH   8  17
BRANCH   2  27
ATOM     27  C   UNK d   1       3.309  -1.017   0.690  0.00  0.00     0.129 C 
BRANCH  27  28
ATOM     28  C   UNK d   1       3.422  -1.878  -0.506  0.00  0.00     0.048 C 
BRANCH  28  29
ATOM     29  C   UNK d   1       2.556  -3.064  -0.666  0.00  0.00     0.235 C 
BRANCH  29  30
ATOM     30  N   UNK d   1       1.145  -2.856  -0.790  0.00  0.00    -0.079 N 
ATOM     31  C   UNK d   1       0.739  -3.460  -2.091  0.00  0.00     0.269 C 
ATOM     32  C   UNK d   1       0.441  -3.645   0.200  0.00  0.00     0.269 C 
ATOM     33  H   UNK d   1       0.816  -1.891  -0.768  0.00  0.00     0.278 HD
ENDBRANCH  29  30
ENDBRANCH  28  29
ENDBRANCH  27  28
ENDBRANCH   2  27
TORSDOF 6
