REMARK  6 active torsions:
REMARK  status: ('A' for Active; 'I' for Inactive)
REMARK    1  A    between atoms: C_5  and  C_8 
REMARK    2  A    between atoms: N_9  and  C_27 
REMARK    3  A    between atoms: C_15  and  C_17 
REMARK    4  A    between atoms: C_27  and  C_28 
REMARK    5  A    between atoms: C_28  and  C_29 
REMARK    6  A    between atoms: C_29  and  N_30 
ROOT
ATOM      1  C   UNK d   1       0.936  -2.669  -0.084  0.00  0.00     0.161 C 
ATOM      2  N   UNK d   1      -0.001  -2.267  -1.047  0.00  0.00    -0.332 N 
ATOM      3  C   UNK d   1      -1.167  -1.942  -0.243  0.00  0.00     0.295 C 
ATOM      4  O   UNK d   1      -2.396  -1.966  -0.593  0.00  0.00    -0.264 OA
ATOM      5  C   UNK d   1      -0.695  -1.566   1.085  0.00  0.00     0.251 C 
ATOM      6  O   UNK d   1      -1.335  -1.207   2.125  0.00  0.00    -0.282 OA
ATOM      7  C   UNK d   1       0.760  -1.684   1.014  0.00  0.00     0.064 C 
ATOM      8  C   UNK d   1       1.669  -1.095   1.768  0.00  0.00     0.149 C 
ATOM      9  O   UNK d   1       3.015  -1.378   1.581  0.00  0.00    -0.189 OA
ENDROOT
BRANCH   1  10
ATOM     10  C   UNK d   1       2.289  -3.009  -0.398  0.00  0.00    -0.030 A 
ATOM     11  C   UNK d   1       2.885  -4.153   0.050  0.00  0.00     0.011 A 
ATOM     12  C   UNK d   1       4.199  -4.422  -0.270  0.00  0.00     0.019 A 
ATOM     13  C   UNK d   1       4.958  -3.564  -1.044  0.00  0.00     0.011 A 
ATOM     14 Br   UNK d   1       6.776  -3.937  -1.486  0.00  0.00    -0.051 Br
ATOM     15  C   UNK d   1       4.347  -2.409  -1.493  0.00  0.00     0.019 A 
ATOM     16  C   UNK d   1       3.035  -2.158  -1.163  0.00  0.00     0.011 A 
ENDBRANCH   1  10
BRANCH   8  17
ATOM     17  C   UNK d   1       1.327  -0.138   2.809  0.00  0.00     0.102 A 
ATOM     18  N   UNK d   1       0.589   0.979   2.694  0.00  0.00    -0.302 N 
ATOM     19  C   UNK d   1       0.467   1.581   3.900  0.00  0.00     0.134 A 
ATOM     20  C   UNK d   1      -0.028   1.619   1.658  0.00  0.00     0.099 A 
ATOM     21  N   UNK d   1       1.144   0.818   4.773  0.00  0.00    -0.233 NA
ATOM     22  C   UNK d   1      -0.233   2.756   4.073  0.00  0.00     0.051 A 
ATOM     23  C   UNK d   1       1.681  -0.232   4.156  0.00  0.00     0.063 A 
ATOM     24  C   UNK d   1       2.508  -1.339   4.706  0.00  0.00     0.073 C 
ATOM     25  C   UNK d   1      -0.845   3.377   3.010  0.00  0.00     0.005 A 
ATOM     26  C   UNK d   1      -0.729   2.779   1.775  0.00  0.00     0.018 A 
ENDBRANCH   8  17
BRANCH   2  27
ATOM     27  C   UNK d   1      -0.119  -2.135  -2.463  0.00  0.00     0.129 C 
BRANCH  27  28
ATOM     28  C   UNK d   1       0.190  -0.916  -3.178  0.00  0.00     0.048 C 
BRANCH  28  29
ATOM     29  C   UNK d   1      -0.582   0.331  -2.816  0.00  0.00     0.236 C 
BRANCH  29  30
ATOM     30  N   UNK d   1      -0.169   1.468  -3.633  0.00  0.00    -0.067 N 
ATOM     31  C   UNK d   1       1.133   1.974  -3.313  0.00  0.00     0.261 C 
ATOM     32  C   UNK d   1       1.155   3.010  -2.228  0.00  0.00     0.195 C 
ATOM     33  O   UNK d   1      -0.010   3.084  -1.512  0.00  0.00    -0.388 OA
ATOM     34  C   UNK d   1      -1.151   3.230  -2.257  0.00  0.00     0.195 C 
ATOM     35  C   UNK d   1      -1.113   2.543  -3.582  0.00  0.00     0.261 C 
ATOM     36  H   UNK d   1      -0.123   1.114  -4.621  0.00  0.00     0.280 HD
ENDBRANCH  29  30
ENDBRANCH  28  29
ENDBRANCH  27  28
ENDBRANCH   2  27
TORSDOF 6
