# created with PyMOL 2.3.2
@<TRIPOS>MOLECULE
364
54 57 1                 
SMALL
USER_CHARGES
@<TRIPOS>ATOM
1	  Br	-4.050	-4.697	3.776	Br	1	UNK0	0.000	
2	   C	-3.162	-3.494	2.586	C.2	1	UNK0	0.000	
3	   C	-2.803	-2.259	3.045	C.2	1	UNK0	0.000	
4	   C	-2.164	-1.383	2.199	C.2	1	UNK0	0.000	
5	   C	-1.848	-1.664	0.889	C.2	1	UNK0	0.000	
6	   C	-2.228	-2.934	0.452	C.2	1	UNK0	0.000	
7	   C	-2.868	-3.822	1.284	C.2	1	UNK0	0.000	
8	   C	-1.155	-0.690	0.003	C.3	1	UNK0	0.000	
9	   N	-1.710	0.631	0.111	N.pl3	1	UNK0	0.000	
10	   C	-0.797	1.416	0.858	C.2	1	UNK0	0.000	
11	   O	-1.028	2.567	1.327	O.2	1	UNK0	0.000	
12	   C	0.462	0.681	1.003	C.2	1	UNK0	0.000	
13	   O	1.504	1.055	1.596	O.2	1	UNK0	0.000	
14	   C	0.286	-0.587	0.318	C.2	1	UNK0	0.000	
15	   C	1.252	-1.434	0.001	C.2	1	UNK0	0.000	
16	   O	0.887	-2.579	-0.734	O.2	1	UNK0	0.000	
17	   C	2.647	-1.306	0.342	C.2	1	UNK0	0.000	
18	   N	3.306	-1.283	1.507	N.pl3	1	UNK0	0.000	
19	   C	4.623	-1.099	1.310	C.2	1	UNK0	0.000	
20	   N	4.811	-1.003	-0.017	N.2	1	UNK0	0.000	
21	   C	3.635	-1.124	-0.635	C.2	1	UNK0	0.000	
22	   C	3.431	-1.073	-2.110	C.3	1	UNK0	0.000	
23	   C	5.555	-1.050	2.341	C.2	1	UNK0	0.000	
24	   C	5.108	-1.198	3.625	C.2	1	UNK0	0.000	
25	   C	3.754	-1.389	3.831	C.2	1	UNK0	0.000	
26	   C	2.871	-1.429	2.777	C.2	1	UNK0	0.000	
27	   C	-2.996	1.098	-0.452	C.3	1	UNK0	0.000	
28	   C	-2.782	1.635	-1.851	C.3	1	UNK0	0.000	
29	   N	-3.974	2.105	-2.465	N.4	1	UNK0	0.000	
30	   C	-3.649	3.340	-3.179	C.3	1	UNK0	0.000	
31	   C	-4.589	1.195	-3.381	C.3	1	UNK0	0.000	
32	   H	-3.013	-1.944	4.078	 H	1	UNK0	0.000	
33	   H	-1.897	-0.417	2.599	 H	1	UNK0	0.000	
34	   H	-2.017	-3.233	-0.565	 H	1	UNK0	0.000	
35	   H	-3.157	-4.802	0.932	 H	1	UNK0	0.000	
36	   H	-1.334	-1.049	-1.036	 H	1	UNK0	0.000	
37	   H	3.168	-2.076	-2.515	 H	1	UNK0	0.000	
38	   H	2.571	-0.370	-2.273	 H	1	UNK0	0.000	
39	   H	4.305	-0.634	-2.589	 H	1	UNK0	0.000	
40	   H	6.602	-0.895	2.080	 H	1	UNK0	0.000	
41	   H	5.830	-1.161	4.431	 H	1	UNK0	0.000	
42	   H	3.369	-1.511	4.845	 H	1	UNK0	0.000	
43	   H	1.805	-1.577	2.909	 H	1	UNK0	0.000	
44	   H	-3.439	1.872	0.203	 H	1	UNK0	0.000	
45	   H	-3.647	0.215	-0.475	 H	1	UNK0	0.000	
46	   H	-2.327	0.797	-2.440	 H	1	UNK0	0.000	
47	   H	-1.974	2.414	-1.794	 H	1	UNK0	0.000	
48	   H	-4.709	2.372	-1.751	 H	1	UNK0	0.000	
49	   H	-2.974	3.143	-4.023	 H	1	UNK0	0.000	
50	   H	-4.594	3.855	-3.512	 H	1	UNK0	0.000	
51	   H	-3.137	4.074	-2.520	 H	1	UNK0	0.000	
52	   H	-5.069	1.798	-4.191	 H	1	UNK0	0.000	
53	   H	-3.867	0.523	-3.889	 H	1	UNK0	0.000	
54	   H	-5.431	0.635	-2.903	 H	1	UNK0	0.000	
@<TRIPOS>BOND
1 1 2 1
2 2 3 2
3 2 7 1
4 3 4 1
5 4 5 2
6 5 6 1
7 5 8 1
8 6 7 2
9 8 9 1
10 8 14 1
11 9 10 1
12 9 27 1
13 10 11 2
14 10 12 1
15 12 13 2
16 12 14 1
17 14 15 2
18 15 16 1
19 15 17 1
20 17 18 1
21 17 21 2
22 18 19 1
23 18 26 1
24 19 20 2
25 19 23 1
26 20 21 1
27 21 22 1
28 23 24 2
29 24 25 1
30 25 26 2
31 27 28 1
32 28 29 1
33 29 30 1
34 29 31 1
35 3 32 1
36 4 33 1
37 6 34 1
38 7 35 1
39 8 36 1
40 22 37 1
41 22 38 1
42 22 39 1
43 23 40 1
44 24 41 1
45 25 42 1
46 26 43 1
47 27 44 1
48 27 45 1
49 28 46 1
50 28 47 1
51 29 48 1
52 30 49 1
53 30 50 1
54 30 51 1
55 31 52 1
56 31 53 1
57 31 54 1
@<TRIPOS>SUBSTRUCTURE
1	UNK0	1	GROUP	1 ****	UNK
