REMARK  5 active torsions:
REMARK  status: ('A' for Active; 'I' for Inactive)
REMARK    1  A    between atoms: C_5  and  C_8 
REMARK    2  A    between atoms: N_9  and  C_27 
REMARK    3  A    between atoms: C_15  and  C_17 
REMARK    4  A    between atoms: C_27  and  C_28 
REMARK    5  A    between atoms: C_28  and  N_29 
ROOT
ATOM      1  C   UNK d   1      -1.155  -0.690   0.003  0.00  0.00     0.161 C 
ATOM      2  N   UNK d   1      -1.710   0.631   0.111  0.00  0.00    -0.331 N 
ATOM      3  C   UNK d   1      -0.797   1.416   0.858  0.00  0.00     0.295 C 
ATOM      4  O   UNK d   1      -1.028   2.567   1.327  0.00  0.00    -0.264 OA
ATOM      5  C   UNK d   1       0.462   0.681   1.003  0.00  0.00     0.251 C 
ATOM      6  O   UNK d   1       1.504   1.055   1.596  0.00  0.00    -0.282 OA
ATOM      7  C   UNK d   1       0.286  -0.587   0.318  0.00  0.00     0.064 C 
ATOM      8  C   UNK d   1       1.252  -1.434   0.001  0.00  0.00     0.149 C 
ATOM      9  O   UNK d   1       0.887  -2.579  -0.734  0.00  0.00    -0.189 OA
ENDROOT
BRANCH   1  10
ATOM     10  C   UNK d   1      -1.848  -1.664   0.889  0.00  0.00    -0.030 A 
ATOM     11  C   UNK d   1      -2.164  -1.383   2.199  0.00  0.00     0.011 A 
ATOM     12  C   UNK d   1      -2.803  -2.259   3.045  0.00  0.00     0.019 A 
ATOM     13  C   UNK d   1      -3.162  -3.494   2.586  0.00  0.00     0.011 A 
ATOM     14 Br   UNK d   1      -4.050  -4.697   3.776  0.00  0.00    -0.051 Br
ATOM     15  C   UNK d   1      -2.868  -3.822   1.284  0.00  0.00     0.019 A 
ATOM     16  C   UNK d   1      -2.228  -2.934   0.452  0.00  0.00     0.011 A 
ENDBRANCH   1  10
BRANCH   8  17
ATOM     17  C   UNK d   1       2.647  -1.306   0.342  0.00  0.00     0.102 A 
ATOM     18  N   UNK d   1       3.306  -1.283   1.507  0.00  0.00    -0.302 N 
ATOM     19  C   UNK d   1       4.623  -1.099   1.310  0.00  0.00     0.134 A 
ATOM     20  C   UNK d   1       2.871  -1.429   2.777  0.00  0.00     0.099 A 
ATOM     21  N   UNK d   1       4.811  -1.003  -0.017  0.00  0.00    -0.233 NA
ATOM     22  C   UNK d   1       5.555  -1.050   2.341  0.00  0.00     0.051 A 
ATOM     23  C   UNK d   1       3.635  -1.124  -0.635  0.00  0.00     0.063 A 
ATOM     24  C   UNK d   1       3.431  -1.073  -2.110  0.00  0.00     0.073 C 
ATOM     25  C   UNK d   1       5.108  -1.198   3.625  0.00  0.00     0.005 A 
ATOM     26  C   UNK d   1       3.754  -1.389   3.831  0.00  0.00     0.018 A 
ENDBRANCH   8  17
BRANCH   2  27
ATOM     27  C   UNK d   1      -2.996   1.098  -0.452  0.00  0.00     0.155 C 
BRANCH  27  28
ATOM     28  C   UNK d   1      -2.782   1.635  -1.851  0.00  0.00     0.254 C 
BRANCH  28  29
ATOM     29  N   UNK d   1      -3.974   2.105  -2.465  0.00  0.00    -0.077 N 
ATOM     30  C   UNK d   1      -3.649   3.340  -3.179  0.00  0.00     0.269 C 
ATOM     31  C   UNK d   1      -4.589   1.195  -3.381  0.00  0.00     0.269 C 
ATOM     32  H   UNK d   1      -4.709   2.372  -1.751  0.00  0.00     0.279 HD
ENDBRANCH  28  29
ENDBRANCH  27  28
ENDBRANCH   2  27
TORSDOF 5
