REMARK  4 active torsions:
REMARK  status: ('A' for Active; 'I' for Inactive)
REMARK    1  A    between atoms: C_5  and  N_8 
REMARK       I    between atoms: N_8  and  C_9 
REMARK    2  A    between atoms: C_9  and  C_11 
REMARK    3  A    between atoms: C_11  and  N_12 
REMARK    4  A    between atoms: N_18  and  C_19 
ROOT
ATOM      1  N   UNK d   1      -1.896   0.422   0.250  0.00  0.00    -0.205 N 
ATOM      2  N   UNK d   1      -1.292   0.515  -0.931  0.00  0.00     0.023 NA
ATOM      3  C   UNK d   1      -0.805   1.701  -1.396  0.00  0.00     0.729 A 
ATOM      4  N   UNK d   1      -0.939   2.805  -0.645  0.00  0.00    -0.138 N 
ATOM      5  C   UNK d   1      -0.381   3.952  -1.327  0.00  0.00     0.172 A 
ATOM      6  C   UNK d   1       0.157   3.461  -2.638  0.00  0.00     0.169 A 
ATOM      7  N   UNK d   1      -0.100   2.034  -2.586  0.00  0.00    -0.178 N 
ATOM      8  C   UNK d   1      -1.538   2.774   0.553  0.00  0.00     0.332 A 
ATOM      9  O   UNK d   1      -1.662   3.807   1.253  0.00  0.00    -0.261 OA
ATOM     10  C   UNK d   1      -2.011   1.548   0.976  0.00  0.00     0.333 A 
ATOM     11  O   UNK d   1      -2.582   1.469   2.093  0.00  0.00    -0.260 OA
ENDROOT
BRANCH   1  12
ATOM     12  C   UNK d   1      -2.397  -0.857   0.780  0.00  0.00     0.258 C 
BRANCH  12  13
ATOM     13  C   UNK d   1      -1.319  -1.611   1.418  0.00  0.00     0.242 C 
ATOM     14  N   UNK d   1      -0.660  -1.322   2.619  0.00  0.00    -0.326 N 
ATOM     15  H   UNK d   1      -0.971  -0.446   3.127  0.00  0.00     0.169 HD
ATOM     16  O   UNK d   1      -0.970  -2.664   0.750  0.00  0.00    -0.271 OA
BRANCH  14  17
ATOM     17  C   UNK d   1       0.364  -2.081   3.192  0.00  0.00     0.034 A 
ATOM     18  C   UNK d   1       0.704  -3.377   2.895  0.00  0.00     0.031 A 
ATOM     19  C   UNK d   1       1.772  -4.045   3.510  0.00  0.00     0.021 A 
ATOM     20  C   UNK d   1       2.548  -3.429   4.456  0.00  0.00     0.011 A 
ATOM     21 Br   UNK d   1       4.010  -4.323   5.301  0.00  0.00    -0.051 Br
ATOM     22  C   UNK d   1       2.225  -2.124   4.772  0.00  0.00     0.021 A 
ATOM     23  C   UNK d   1       1.181  -1.479   4.169  0.00  0.00     0.031 A 
ENDBRANCH  14  17
ENDBRANCH  12  13
ENDBRANCH   1  12
BRANCH   7  24
ATOM     24  C   UNK d   1       0.316   1.144  -3.604  0.00  0.00     0.051 A 
ATOM     25  C   UNK d   1      -0.154  -0.135  -3.737  0.00  0.00     0.030 A 
ATOM     26  C   UNK d   1       0.285  -0.987  -4.735  0.00  0.00     0.002 A 
ATOM     27  C   UNK d   1       1.232  -0.547  -5.640  0.00  0.00     0.000 A 
ATOM     28  C   UNK d   1       1.711   0.720  -5.526  0.00  0.00     0.002 A 
ATOM     29  C   UNK d   1       1.269   1.562  -4.528  0.00  0.00     0.030 A 
ENDBRANCH   7  24
TORSDOF 4
