# created with PyMOL 2.3.2
@<TRIPOS>MOLECULE
382
44 47 1                 
SMALL
USER_CHARGES
@<TRIPOS>ATOM
1	  Br	2.139	-2.458	-7.052	Br	1	UNK0	0.000	
2	   C	1.824	-2.487	-5.178	C.2	1	UNK0	0.000	
3	   C	2.793	-2.171	-4.260	C.2	1	UNK0	0.000	
4	   C	2.512	-2.209	-2.901	C.2	1	UNK0	0.000	
5	   C	1.278	-2.556	-2.395	C.2	1	UNK0	0.000	
6	   C	0.309	-2.873	-3.366	C.2	1	UNK0	0.000	
7	   C	0.582	-2.837	-4.696	C.2	1	UNK0	0.000	
8	   N	0.947	-2.635	-1.023	N.pl3	1	UNK0	0.000	
9	   C	1.854	-2.757	0.038	C.2	1	UNK0	0.000	
10	   O	3.084	-2.817	-0.169	O.2	1	UNK0	0.000	
11	   C	1.344	-2.822	1.468	C.3	1	UNK0	0.000	
12	   N	1.571	-1.536	2.097	N.pl3	1	UNK0	0.000	
13	   N	2.679	-1.206	2.761	N.pl3	1	UNK0	0.000	
14	   N	2.572	0.025	3.205	N.pl3	1	UNK0	0.000	
15	   C	1.367	0.514	2.826	C.2	1	UNK0	0.000	
16	   C	0.761	-0.464	2.142	C.2	1	UNK0	0.000	
17	   C	-0.456	0.071	1.775	C.2	1	UNK0	0.000	
18	   O	-1.312	-0.579	1.104	O.2	1	UNK0	0.000	
19	   N	-0.605	1.331	2.212	N.pl3	1	UNK0	0.000	
20	   C	0.549	1.618	2.879	C.2	1	UNK0	0.000	
21	   O	0.761	2.733	3.429	O.2	1	UNK0	0.000	
22	   C	-1.719	2.219	2.039	C.2	1	UNK0	0.000	
23	   C	-2.694	2.330	3.007	C.2	1	UNK0	0.000	
24	   C	-3.763	3.190	2.853	C.2	1	UNK0	0.000	
25	   C	-3.913	3.979	1.727	C.2	1	UNK0	0.000	
26	   C	-2.939	3.870	0.757	C.2	1	UNK0	0.000	
27	   C	-1.868	3.006	0.917	C.2	1	UNK0	0.000	
28	   C	-5.075	4.899	1.595	C.3	1	UNK0	0.000	
29	   H	3.769	-1.894	-4.612	 H	1	UNK0	0.000	
30	   H	3.305	-1.941	-2.184	 H	1	UNK0	0.000	
31	   H	-0.683	-3.151	-2.971	 H	1	UNK0	0.000	
32	   H	-0.200	-3.092	-5.415	 H	1	UNK0	0.000	
33	   H	-0.097	-2.594	-0.797	 H	1	UNK0	0.000	
34	   H	1.893	-3.590	2.021	 H	1	UNK0	0.000	
35	   H	0.243	-3.011	1.414	 H	1	UNK0	0.000	
36	   H	3.482	-1.857	2.885	 H	1	UNK0	0.000	
37	   H	3.266	0.583	3.762	 H	1	UNK0	0.000	
38	   H	-2.590	1.717	3.896	 H	1	UNK0	0.000	
39	   H	-4.543	3.287	3.617	 H	1	UNK0	0.000	
40	   H	-3.035	4.485	-0.144	 H	1	UNK0	0.000	
41	   H	-1.100	2.918	0.154	 H	1	UNK0	0.000	
42	   H	-6.048	4.361	1.657	 H	1	UNK0	0.000	
43	   H	-5.036	5.325	0.563	 H	1	UNK0	0.000	
44	   H	-5.030	5.741	2.303	 H	1	UNK0	0.000	
@<TRIPOS>BOND
1 1 2 1
2 2 3 2
3 2 7 1
4 3 4 1
5 4 5 2
6 5 6 1
7 5 8 1
8 6 7 2
9 8 9 1
10 9 10 2
11 9 11 1
12 11 12 1
13 12 13 1
14 12 16 1
15 13 14 1
16 14 15 1
17 15 16 2
18 15 20 1
19 16 17 1
20 17 18 2
21 17 19 1
22 19 20 1
23 19 22 1
24 20 21 2
25 22 23 2
26 22 27 1
27 23 24 1
28 24 25 2
29 25 26 1
30 25 28 1
31 26 27 2
32 3 29 1
33 4 30 1
34 6 31 1
35 7 32 1
36 8 33 1
37 11 34 1
38 11 35 1
39 13 36 1
40 14 37 1
41 23 38 1
42 24 39 1
43 26 40 1
44 27 41 1
45 28 42 1
46 28 43 1
47 28 44 1
@<TRIPOS>SUBSTRUCTURE
1	UNK0	1	GROUP	1 ****	UNK
