REMARK  4 active torsions:
REMARK  status: ('A' for Active; 'I' for Inactive)
REMARK    1  A    between atoms: C_5  and  N_8 
REMARK       I    between atoms: N_8  and  C_9 
REMARK    2  A    between atoms: C_9  and  C_11 
REMARK    3  A    between atoms: C_11  and  N_12 
REMARK    4  A    between atoms: N_19  and  C_22 
ROOT
ATOM      1  N   UNK d   1       1.571  -1.536   2.097  0.00  0.00    -0.261 N 
ATOM      2  N   UNK d   1       2.679  -1.206   2.761  0.00  0.00    -0.239 N 
ATOM      3  N   UNK d   1       2.572   0.025   3.205  0.00  0.00    -0.279 N 
ATOM      4  C   UNK d   1       1.367   0.514   2.826  0.00  0.00     0.152 A 
ATOM      5  C   UNK d   1       0.761  -0.464   2.142  0.00  0.00     0.155 A 
ATOM      6  C   UNK d   1      -0.456   0.071   1.775  0.00  0.00     0.286 A 
ATOM      7  O   UNK d   1      -1.312  -0.579   1.104  0.00  0.00    -0.265 OA
ATOM      8  N   UNK d   1      -0.605   1.331   2.212  0.00  0.00    -0.241 N 
ATOM      9  C   UNK d   1       0.549   1.618   2.879  0.00  0.00     0.286 A 
ATOM     10  O   UNK d   1       0.761   2.733   3.429  0.00  0.00    -0.265 OA
ATOM     11  H   UNK d   1       3.482  -1.857   2.885  0.00  0.00     0.208 HD
ATOM     12  H   UNK d   1       3.266   0.583   3.762  0.00  0.00     0.189 HD
ENDROOT
BRANCH   1  13
ATOM     13  C   UNK d   1       1.344  -2.822   1.468  0.00  0.00     0.254 C 
BRANCH  13  14
ATOM     14  C   UNK d   1       1.854  -2.757   0.038  0.00  0.00     0.242 C 
ATOM     15  N   UNK d   1       0.947  -2.635  -1.023  0.00  0.00    -0.326 N 
ATOM     16  H   UNK d   1      -0.097  -2.594  -0.797  0.00  0.00     0.169 HD
ATOM     17  O   UNK d   1       3.084  -2.817  -0.169  0.00  0.00    -0.271 OA
BRANCH  15  18
ATOM     18  C   UNK d   1       1.278  -2.556  -2.395  0.00  0.00     0.034 A 
ATOM     19  C   UNK d   1       2.512  -2.209  -2.901  0.00  0.00     0.031 A 
ATOM     20  C   UNK d   1       2.793  -2.171  -4.260  0.00  0.00     0.021 A 
ATOM     21  C   UNK d   1       1.824  -2.487  -5.178  0.00  0.00     0.011 A 
ATOM     22 Br   UNK d   1       2.139  -2.458  -7.052  0.00  0.00    -0.051 Br
ATOM     23  C   UNK d   1       0.582  -2.837  -4.696  0.00  0.00     0.021 A 
ATOM     24  C   UNK d   1       0.309  -2.873  -3.366  0.00  0.00     0.031 A 
ENDBRANCH  15  18
ENDBRANCH  13  14
ENDBRANCH   1  13
BRANCH   8  25
ATOM     25  C   UNK d   1      -1.719   2.219   2.039  0.00  0.00     0.046 A 
ATOM     26  C   UNK d   1      -2.694   2.330   3.007  0.00  0.00     0.031 A 
ATOM     27  C   UNK d   1      -3.763   3.190   2.853  0.00  0.00     0.009 A 
ATOM     28  C   UNK d   1      -3.913   3.979   1.727  0.00  0.00    -0.062 A 
ATOM     29  C   UNK d   1      -2.939   3.870   0.757  0.00  0.00     0.009 A 
ATOM     30  C   UNK d   1      -5.075   4.899   1.595  0.00  0.00     0.048 C 
ATOM     31  C   UNK d   1      -1.868   3.006   0.917  0.00  0.00     0.031 A 
ENDBRANCH   8  25
TORSDOF 4
