REMARK  4 active torsions:
REMARK  status: ('A' for Active; 'I' for Inactive)
REMARK    1  A    between atoms: C_5  and  N_8 
REMARK       I    between atoms: N_8  and  C_9 
REMARK    2  A    between atoms: C_9  and  C_11 
REMARK    3  A    between atoms: C_18  and  N_23 
REMARK    4  A    between atoms: C_20  and  N_22 
ROOT
ATOM      1  C   UNK d   1      -0.269   1.612   0.091  0.00  0.00     0.127 C 
ATOM      2  C   UNK d   1      -0.185   1.840  -1.389  0.00  0.00     0.122 C 
ATOM      3  C   UNK d   1       0.032   0.624  -2.183  0.00  0.00     0.224 C 
ATOM      4  O   UNK d   1      -0.447   0.587  -3.349  0.00  0.00    -0.273 OA
ATOM      5  N   UNK d   1       0.757  -0.464  -1.638  0.00  0.00    -0.310 N 
ATOM      6  C   UNK d   1       0.988  -0.533  -0.247  0.00  0.00     0.160 A 
ATOM      7  N   UNK d   1       1.703  -1.587   0.256  0.00  0.00    -0.044 NA
ATOM      8  C   UNK d   1       1.970  -1.708   1.558  0.00  0.00     0.728 A 
ATOM      9  N   UNK d   1       1.511  -0.754   2.378  0.00  0.00    -0.045 NA
ATOM     10  C   UNK d   1       0.792   0.316   1.929  0.00  0.00     0.151 A 
ATOM     11  C   UNK d   1       0.503   0.465   0.587  0.00  0.00     0.048 A 
ATOM     12  H   UNK d   1       1.139  -1.242  -2.250  0.00  0.00     0.170 HD
ENDROOT
BRANCH   1  13
ATOM     13  C   UNK d   1      -1.776   1.463   0.392  0.00  0.00     0.231 C 
ATOM     14  N   UNK d   1      -2.635   2.334  -0.110  0.00  0.00    -0.327 N 
ATOM     15  H   UNK d   1      -3.634   1.784   0.635  0.00  0.00     0.169 HD
ATOM     16  O   UNK d   1      -1.965   0.429   1.148  0.00  0.00    -0.272 OA
BRANCH  14  17
ATOM     17  C   UNK d   1      -3.528   3.237  -0.630  0.00  0.00     0.034 A 
ATOM     18  C   UNK d   1      -3.028   4.555  -0.877  0.00  0.00     0.031 A 
ATOM     19  C   UNK d   1      -3.792   5.504  -1.453  0.00  0.00     0.021 A 
ATOM     20  C   UNK d   1      -5.088   5.253  -1.829  0.00  0.00     0.011 A 
ATOM     21 Br   UNK d   1      -6.160   6.615  -2.654  0.00  0.00    -0.051 Br
ATOM     22  C   UNK d   1      -5.609   3.997  -1.607  0.00  0.00     0.021 A 
ATOM     23  C   UNK d   1      -4.832   3.028  -1.022  0.00  0.00     0.031 A 
ENDBRANCH  14  17
ENDBRANCH   1  13
BRANCH  10  24
ATOM     24  N   UNK d   1       0.315   1.298   2.843  0.00  0.00    -0.383 N 
ATOM     25  H   UNK d   1      -0.018   2.222   2.552  0.00  0.00     0.157 HD
ATOM     26  H   UNK d   1       0.310   1.066   3.869  0.00  0.00     0.157 HD
ENDBRANCH  10  24
BRANCH   8  27
ATOM     27  N   UNK d   1       2.725  -2.832   2.066  0.00  0.00    -0.210 N 
ATOM     28  C   UNK d   1       3.056  -2.818   3.448  0.00  0.00     0.167 C 
ATOM     29  C   UNK d   1       3.425  -4.161   4.009  0.00  0.00     0.188 C 
ATOM     30  O   UNK d   1       3.282  -5.184   3.078  0.00  0.00    -0.388 OA
ATOM     31  C   UNK d   1       3.927  -4.891   1.884  0.00  0.00     0.188 C 
ATOM     32  C   UNK d   1       3.084  -3.887   1.141  0.00  0.00     0.167 C 
ENDBRANCH   8  27
TORSDOF 4
