# created with PyMOL 2.3.2
@<TRIPOS>MOLECULE
385
47 50 1                 
SMALL
USER_CHARGES
@<TRIPOS>ATOM
1	  Br	-6.160	6.615	-2.654	Br	1	UNK0	0.000	
2	   C	-5.088	5.253	-1.829	C.2	1	UNK0	0.000	
3	   C	-3.792	5.504	-1.453	C.2	1	UNK0	0.000	
4	   C	-3.028	4.555	-0.877	C.2	1	UNK0	0.000	
5	   C	-3.528	3.237	-0.630	C.2	1	UNK0	0.000	
6	   C	-4.832	3.028	-1.022	C.2	1	UNK0	0.000	
7	   C	-5.609	3.997	-1.607	C.2	1	UNK0	0.000	
8	   N	-2.635	2.334	-0.110	N.pl3	1	UNK0	0.000	
9	   C	-1.776	1.463	0.392	C.2	1	UNK0	0.000	
10	   O	-1.965	0.429	1.148	O.2	1	UNK0	0.000	
11	   C	-0.269	1.612	0.091	C.3	1	UNK0	0.000	
12	   C	-0.185	1.840	-1.389	C.3	1	UNK0	0.000	
13	   C	0.032	0.624	-2.183	C.2	1	UNK0	0.000	
14	   O	-0.447	0.587	-3.349	O.2	1	UNK0	0.000	
15	   N	0.757	-0.464	-1.638	N.pl3	1	UNK0	0.000	
16	   C	0.988	-0.533	-0.247	C.2	1	UNK0	0.000	
17	   N	1.703	-1.587	0.256	N.2	1	UNK0	0.000	
18	   C	1.970	-1.708	1.558	C.2	1	UNK0	0.000	
19	   N	1.511	-0.754	2.378	N.2	1	UNK0	0.000	
20	   C	0.792	0.316	1.929	C.2	1	UNK0	0.000	
21	   C	0.503	0.465	0.587	C.2	1	UNK0	0.000	
22	   N	0.315	1.298	2.843	N.pl3	1	UNK0	0.000	
23	   N	2.725	-2.832	2.066	N.pl3	1	UNK0	0.000	
24	   C	3.056	-2.818	3.448	C.3	1	UNK0	0.000	
25	   C	3.425	-4.161	4.009	C.3	1	UNK0	0.000	
26	   O	3.282	-5.184	3.078	O.3	1	UNK0	0.000	
27	   C	3.927	-4.891	1.884	C.3	1	UNK0	0.000	
28	   C	3.084	-3.887	1.141	C.3	1	UNK0	0.000	
29	   H	-3.382	6.506	-1.636	 H	1	UNK0	0.000	
30	   H	-1.994	4.748	-0.581	 H	1	UNK0	0.000	
31	   H	-5.283	2.029	-0.872	 H	1	UNK0	0.000	
32	   H	-6.645	3.796	-1.904	 H	1	UNK0	0.000	
33	   H	-3.634	1.784	0.635	 H	1	UNK0	0.000	
34	   H	0.049	2.580	0.594	 H	1	UNK0	0.000	
35	   H	0.651	2.570	-1.574	 H	1	UNK0	0.000	
36	   H	-1.140	2.325	-1.721	 H	1	UNK0	0.000	
37	   H	1.139	-1.242	-2.250	 H	1	UNK0	0.000	
38	   H	-0.018	2.222	2.552	 H	1	UNK0	0.000	
39	   H	0.310	1.066	3.869	 H	1	UNK0	0.000	
40	   H	3.950	-2.137	3.550	 H	1	UNK0	0.000	
41	   H	2.229	-2.310	4.009	 H	1	UNK0	0.000	
42	   H	4.472	-4.174	4.402	 H	1	UNK0	0.000	
43	   H	2.760	-4.388	4.859	 H	1	UNK0	0.000	
44	   H	3.976	-5.869	1.322	 H	1	UNK0	0.000	
45	   H	4.956	-4.528	2.067	 H	1	UNK0	0.000	
46	   H	3.607	-3.480	0.247	 H	1	UNK0	0.000	
47	   H	2.178	-4.423	0.751	 H	1	UNK0	0.000	
@<TRIPOS>BOND
1 1 2 1
2 2 3 2
3 2 7 1
4 3 4 1
5 4 5 2
6 5 6 1
7 5 8 1
8 6 7 2
9 8 9 1
10 9 10 2
11 9 11 1
12 11 12 1
13 11 21 1
14 12 13 1
15 13 14 2
16 13 15 1
17 15 16 1
18 16 17 2
19 16 21 1
20 17 18 1
21 18 19 2
22 18 23 1
23 19 20 1
24 20 21 2
25 20 22 1
26 23 24 1
27 23 28 1
28 24 25 1
29 25 26 1
30 26 27 1
31 27 28 1
32 3 29 1
33 4 30 1
34 6 31 1
35 7 32 1
36 8 33 1
37 11 34 1
38 12 35 1
39 12 36 1
40 15 37 1
41 22 38 1
42 22 39 1
43 24 40 1
44 24 41 1
45 25 42 1
46 25 43 1
47 27 44 1
48 27 45 1
49 28 46 1
50 28 47 1
@<TRIPOS>SUBSTRUCTURE
1	UNK0	1	GROUP	1 ****	UNK
