# created with PyMOL 2.3.2
@<TRIPOS>MOLECULE
386
52 55 1                 
SMALL
USER_CHARGES
@<TRIPOS>ATOM
1	  Br	-1.031	2.639	6.627	Br	1	UNK0	0.000	
2	   C	0.096	2.389	5.127	C.2	1	UNK0	0.000	
3	   C	0.559	1.122	4.818	C.2	1	UNK0	0.000	
4	   C	1.368	0.861	3.763	C.2	1	UNK0	0.000	
5	   C	1.754	1.963	2.934	C.2	1	UNK0	0.000	
6	   C	1.277	3.208	3.268	C.2	1	UNK0	0.000	
7	   C	0.455	3.450	4.346	C.2	1	UNK0	0.000	
8	   N	2.514	1.609	1.847	N.pl3	1	UNK0	0.000	
9	   C	3.260	1.263	0.780	C.2	1	UNK0	0.000	
10	   O	4.257	1.918	0.249	O.2	1	UNK0	0.000	
11	   C	3.033	0.002	0.024	C.3	1	UNK0	0.000	
12	   C	4.267	-0.528	-0.682	C.3	1	UNK0	0.000	
13	   C	3.997	-1.945	-1.072	C.2	1	UNK0	0.000	
14	   O	4.801	-2.825	-0.822	O.2	1	UNK0	0.000	
15	   N	2.785	-2.191	-1.733	N.pl3	1	UNK0	0.000	
16	   C	1.701	-1.291	-1.617	C.2	1	UNK0	0.000	
17	   N	0.566	-1.464	-2.324	N.2	1	UNK0	0.000	
18	   C	-0.466	-0.620	-2.346	C.2	1	UNK0	0.000	
19	   N	-0.316	0.491	-1.579	N.2	1	UNK0	0.000	
20	   C	0.797	0.730	-0.839	C.2	1	UNK0	0.000	
21	   C	1.848	-0.135	-0.814	C.2	1	UNK0	0.000	
22	   O	0.870	1.897	-0.083	O.3	1	UNK0	0.000	
23	   N	-1.667	-0.850	-3.057	N.pl3	1	UNK0	0.000	
24	   C	-2.095	-2.095	-3.640	C.3	1	UNK0	0.000	
25	   C	-3.601	-2.227	-3.434	C.3	1	UNK0	0.000	
26	   C	-4.068	-1.523	-2.194	C.3	1	UNK0	0.000	
27	   C	-3.759	-0.068	-2.241	C.3	1	UNK0	0.000	
28	   C	-2.613	0.259	-3.226	C.3	1	UNK0	0.000	
29	   C	-3.572	-2.181	-0.962	C.2	1	UNK0	0.000	
30	   O	-2.858	-3.196	-1.094	O.2	1	UNK0	0.000	
31	   N	-3.865	-1.729	0.344	N.pl3	1	UNK0	0.000	
32	   H	0.259	0.273	5.463	 H	1	UNK0	0.000	
33	   H	1.731	-0.141	3.529	 H	1	UNK0	0.000	
34	   H	1.540	4.066	2.647	 H	1	UNK0	0.000	
35	   H	0.091	4.442	4.588	 H	1	UNK0	0.000	
36	   H	3.315	2.668	2.075	 H	1	UNK0	0.000	
37	   H	2.947	-0.767	0.905	 H	1	UNK0	0.000	
38	   H	5.155	-0.541	-0.021	 H	1	UNK0	0.000	
39	   H	4.506	0.049	-1.579	 H	1	UNK0	0.000	
40	   H	2.626	-3.039	-2.341	 H	1	UNK0	0.000	
41	   H	1.042	2.808	-0.503	 H	1	UNK0	0.000	
42	   H	-1.610	-2.961	-3.157	 H	1	UNK0	0.000	
43	   H	-1.913	-2.198	-4.723	 H	1	UNK0	0.000	
44	   H	-4.138	-1.928	-4.348	 H	1	UNK0	0.000	
45	   H	-3.823	-3.315	-3.316	 H	1	UNK0	0.000	
46	   H	-5.188	-1.615	-2.161	 H	1	UNK0	0.000	
47	   H	-3.421	0.290	-1.227	 H	1	UNK0	0.000	
48	   H	-4.621	0.569	-2.505	 H	1	UNK0	0.000	
49	   H	-3.020	0.295	-4.236	 H	1	UNK0	0.000	
50	   H	-2.177	1.210	-2.868	 H	1	UNK0	0.000	
51	   H	-3.949	-0.724	0.583	 H	1	UNK0	0.000	
52	   H	-4.003	-2.435	1.097	 H	1	UNK0	0.000	
@<TRIPOS>BOND
1 1 2 1
2 2 3 2
3 2 7 1
4 3 4 1
5 4 5 2
6 5 6 1
7 5 8 1
8 6 7 2
9 8 9 1
10 9 10 2
11 9 11 1
12 11 12 1
13 11 21 1
14 12 13 1
15 13 14 2
16 13 15 1
17 15 16 1
18 16 17 2
19 16 21 1
20 17 18 1
21 18 19 2
22 18 23 1
23 19 20 1
24 20 21 2
25 20 22 1
26 23 24 1
27 23 28 1
28 24 25 1
29 25 26 1
30 26 27 1
31 26 29 1
32 27 28 1
33 29 30 2
34 29 31 1
35 3 32 1
36 4 33 1
37 6 34 1
38 7 35 1
39 8 36 1
40 11 37 1
41 12 38 1
42 12 39 1
43 15 40 1
44 22 41 1
45 24 42 1
46 24 43 1
47 25 44 1
48 25 45 1
49 26 46 1
50 27 47 1
51 27 48 1
52 28 49 1
53 28 50 1
54 31 51 1
55 31 52 1
@<TRIPOS>SUBSTRUCTURE
1	UNK0	1	GROUP	1 ****	UNK
