REMARK  5 active torsions:
REMARK  status: ('A' for Active; 'I' for Inactive)
REMARK    1  A    between atoms: C_5  and  N_8 
REMARK    2  A    between atoms: C_9  and  C_11 
REMARK    3  A    between atoms: C_18  and  N_23 
REMARK    4  A    between atoms: C_20  and  O_22 
REMARK    5  A    between atoms: C_26  and  C_29 
REMARK       I    between atoms: C_29  and  N_31 
ROOT
ATOM      1  C   UNK d   1       3.033   0.002   0.024  0.00  0.00     0.113 C 
ATOM      2  C   UNK d   1       4.267  -0.528  -0.682  0.00  0.00     0.121 C 
ATOM      3  C   UNK d   1       3.997  -1.945  -1.072  0.00  0.00     0.224 C 
ATOM      4  O   UNK d   1       4.801  -2.825  -0.822  0.00  0.00    -0.273 OA
ATOM      5  N   UNK d   1       2.785  -2.191  -1.733  0.00  0.00    -0.310 N 
ATOM      6  C   UNK d   1       1.701  -1.291  -1.617  0.00  0.00     0.160 A 
ATOM      7  N   UNK d   1       0.566  -1.464  -2.324  0.00  0.00    -0.044 NA
ATOM      8  C   UNK d   1      -0.466  -0.620  -2.346  0.00  0.00     0.729 A 
ATOM      9  N   UNK d   1      -0.316   0.491  -1.579  0.00  0.00    -0.038 NA
ATOM     10  C   UNK d   1       0.797   0.730  -0.839  0.00  0.00     0.192 A 
ATOM     11  C   UNK d   1       1.848  -0.135  -0.814  0.00  0.00     0.054 A 
ATOM     12  H   UNK d   1       2.626  -3.039  -2.341  0.00  0.00     0.170 HD
ENDROOT
BRANCH   1  13
ATOM     13  C   UNK d   1       3.260   1.263   0.780  0.00  0.00     0.165 C 
ATOM     14  N   UNK d   1       2.514   1.609   1.847  0.00  0.00    -0.338 N 
ATOM     15  H   UNK d   1       3.315   2.668   2.075  0.00  0.00     0.168 HD
ATOM     16  O   UNK d   1       4.257   1.918   0.249  0.00  0.00    -0.176 OA
BRANCH  14  17
ATOM     17  C   UNK d   1       1.754   1.963   2.934  0.00  0.00     0.033 A 
ATOM     18  C   UNK d   1       1.368   0.861   3.763  0.00  0.00     0.031 A 
ATOM     19  C   UNK d   1       0.559   1.122   4.818  0.00  0.00     0.021 A 
ATOM     20  C   UNK d   1       0.096   2.389   5.127  0.00  0.00     0.011 A 
ATOM     21 Br   UNK d   1      -1.031   2.639   6.627  0.00  0.00    -0.051 Br
ATOM     22  C   UNK d   1       0.455   3.450   4.346  0.00  0.00     0.021 A 
ATOM     23  C   UNK d   1       1.277   3.208   3.268  0.00  0.00     0.031 A 
ENDBRANCH  14  17
ENDBRANCH   1  13
BRANCH  10  24
ATOM     24  O   UNK d   1       0.870   1.897  -0.083  0.00  0.00    -0.344 OA
ATOM     25  H   UNK d   1       1.042   2.808  -0.503  0.00  0.00     0.219 HD
ENDBRANCH  10  24
BRANCH   8  26
ATOM     26  N   UNK d   1      -1.667  -0.850  -3.057  0.00  0.00    -0.214 N 
ATOM     27  C   UNK d   1      -2.095  -2.095  -3.640  0.00  0.00     0.142 C 
ATOM     28  C   UNK d   1      -3.601  -2.227  -3.434  0.00  0.00     0.034 C 
ATOM     29  C   UNK d   1      -4.068  -1.523  -2.194  0.00  0.00     0.081 C 
ATOM     30  C   UNK d   1      -3.759  -0.068  -2.241  0.00  0.00     0.034 C 
ATOM     31  C   UNK d   1      -2.613   0.259  -3.226  0.00  0.00     0.142 C 
BRANCH  29  32
ATOM     32  C   UNK d   1      -3.572  -2.181  -0.962  0.00  0.00     0.219 C 
ATOM     33  O   UNK d   1      -2.858  -3.196  -1.094  0.00  0.00    -0.273 OA
ATOM     34  N   UNK d   1      -3.865  -1.729   0.344  0.00  0.00    -0.370 N 
ATOM     35  H   UNK d   1      -3.949  -0.724   0.583  0.00  0.00     0.159 HD
ATOM     36  H   UNK d   1      -4.003  -2.435   1.097  0.00  0.00     0.159 HD
ENDBRANCH  29  32
ENDBRANCH   8  26
TORSDOF 5
