# created with PyMOL 2.3.2
@<TRIPOS>MOLECULE
393
42 45 1                 
SMALL
USER_CHARGES
@<TRIPOS>ATOM
1	  Br	3.066	6.906	1.182	Br	1	UNK0	0.000	
2	   C	1.890	5.408	1.008	C.2	1	UNK0	0.000	
3	   C	0.669	5.546	0.382	C.2	1	UNK0	0.000	
4	   C	-0.167	4.454	0.265	C.2	1	UNK0	0.000	
5	   C	0.156	3.201	0.751	C.2	1	UNK0	0.000	
6	   C	1.384	3.078	1.375	C.2	1	UNK0	0.000	
7	   C	2.231	4.161	1.499	C.2	1	UNK0	0.000	
8	   N	-0.728	2.085	0.617	N.pl3	1	UNK0	0.000	
9	   N	-1.956	2.025	1.069	N.2	1	UNK0	0.000	
10	   C	-2.549	0.846	0.795	C.2	1	UNK0	0.000	
11	   C	-1.618	0.108	0.117	C.2	1	UNK0	0.000	
12	   C	-0.493	0.899	0.018	C.2	1	UNK0	0.000	
13	   N	0.751	0.535	-0.622	N.pl3	1	UNK0	0.000	
14	   C	1.175	0.853	-1.836	C.2	1	UNK0	0.000	
15	   C	2.417	0.310	-2.071	C.2	1	UNK0	0.000	
16	   C	2.740	-0.370	-0.921	C.2	1	UNK0	0.000	
17	   C	1.696	-0.218	-0.036	C.2	1	UNK0	0.000	
18	   C	-1.820	-1.246	-0.384	C.2	1	UNK0	0.000	
19	   O	-2.276	-1.350	-1.548	O.2	1	UNK0	0.000	
20	   N	-1.531	-2.406	0.367	N.pl3	1	UNK0	0.000	
21	   C	-1.768	-3.701	-0.224	C.3	1	UNK0	0.000	
22	   C	-0.440	-4.368	-0.425	C.3	1	UNK0	0.000	
23	   N	0.595	-3.806	0.435	N.pl3	1	UNK0	0.000	
24	   C	0.296	-3.122	1.647	C.2	1	UNK0	0.000	
25	   O	1.121	-3.138	2.593	O.2	1	UNK0	0.000	
26	   C	-1.005	-2.416	1.713	C.3	1	UNK0	0.000	
27	   H	0.383	6.531	-0.014	 H	1	UNK0	0.000	
28	   H	-1.120	4.588	-0.229	 H	1	UNK0	0.000	
29	   H	1.641	2.092	1.758	 H	1	UNK0	0.000	
30	   H	3.181	4.056	1.985	 H	1	UNK0	0.000	
31	   H	-3.572	0.585	1.082	 H	1	UNK0	0.000	
32	   H	0.628	1.457	-2.554	 H	1	UNK0	0.000	
33	   H	3.024	0.399	-2.985	 H	1	UNK0	0.000	
34	   H	3.653	-0.925	-0.744	 H	1	UNK0	0.000	
35	   H	1.654	-0.648	0.979	 H	1	UNK0	0.000	
36	   H	-2.398	-3.665	-1.122	 H	1	UNK0	0.000	
37	   H	-2.328	-4.329	0.529	 H	1	UNK0	0.000	
38	   H	-0.134	-4.295	-1.487	 H	1	UNK0	0.000	
39	   H	-0.476	-5.461	-0.181	 H	1	UNK0	0.000	
40	   H	1.606	-3.923	0.125	 H	1	UNK0	0.000	
41	   H	-1.705	-2.993	2.350	 H	1	UNK0	0.000	
42	   H	-0.930	-1.411	2.156	 H	1	UNK0	0.000	
@<TRIPOS>BOND
1 1 2 1
2 2 3 2
3 2 7 1
4 3 4 1
5 4 5 2
6 5 6 1
7 5 8 1
8 6 7 2
9 8 9 1
10 8 12 1
11 9 10 2
12 10 11 1
13 11 12 2
14 11 18 1
15 12 13 1
16 13 14 1
17 13 17 1
18 14 15 2
19 15 16 1
20 16 17 2
21 18 19 2
22 18 20 1
23 20 21 1
24 20 26 1
25 21 22 1
26 22 23 1
27 23 24 1
28 24 25 2
29 24 26 1
30 3 27 1
31 4 28 1
32 6 29 1
33 7 30 1
34 10 31 1
35 14 32 1
36 15 33 1
37 16 34 1
38 17 35 1
39 21 36 1
40 21 37 1
41 22 38 1
42 22 39 1
43 23 40 1
44 26 41 1
45 26 42 1
@<TRIPOS>SUBSTRUCTURE
1	UNK0	1	GROUP	1 ****	UNK
