REMARK  3 active torsions:
REMARK  status: ('A' for Active; 'I' for Inactive)
REMARK    1  A    between atoms: C_5  and  N_8 
REMARK    2  A    between atoms: C_11  and  C_18 
REMARK    3  A    between atoms: C_12  and  N_13 
REMARK       I    between atoms: C_18  and  N_20 
ROOT
ATOM      1  N   UNK d   1      -0.728   2.085   0.617  0.00  0.00    -0.216 N 
ATOM      2  N   UNK d   1      -1.956   2.025   1.069  0.00  0.00    -0.177 NA
ATOM      3  C   UNK d   1      -2.549   0.846   0.795  0.00  0.00     0.160 A 
ATOM      4  C   UNK d   1      -1.618   0.108   0.117  0.00  0.00     0.097 A 
ATOM      5  C   UNK d   1      -0.493   0.899   0.018  0.00  0.00     0.153 A 
ENDROOT
BRANCH   4   6
ATOM      6  C   UNK d   1      -1.820  -1.246  -0.384  0.00  0.00     0.259 C 
ATOM      7  O   UNK d   1      -2.276  -1.350  -1.548  0.00  0.00    -0.267 OA
ATOM      8  N   UNK d   1      -1.531  -2.406   0.367  0.00  0.00    -0.338 N 
ATOM      9  C   UNK d   1      -1.768  -3.701  -0.224  0.00  0.00     0.146 C 
ATOM     10  C   UNK d   1      -1.005  -2.416   1.713  0.00  0.00     0.228 C 
ATOM     11  C   UNK d   1      -0.440  -4.368  -0.425  0.00  0.00     0.142 C 
ATOM     12  N   UNK d   1       0.595  -3.806   0.435  0.00  0.00    -0.358 N 
ATOM     13  C   UNK d   1       0.296  -3.122   1.647  0.00  0.00     0.235 C 
ATOM     14  H   UNK d   1       1.606  -3.923   0.125  0.00  0.00     0.162 HD
ATOM     15  O   UNK d   1       1.121  -3.138   2.593  0.00  0.00    -0.272 OA
ENDBRANCH   4   6
BRANCH   5  16
ATOM     16  N   UNK d   1       0.751   0.535  -0.622  0.00  0.00    -0.317 N 
ATOM     17  C   UNK d   1       1.175   0.853  -1.836  0.00  0.00     0.098 A 
ATOM     18  C   UNK d   1       2.417   0.310  -2.071  0.00  0.00     0.019 A 
ATOM     19  C   UNK d   1       2.740  -0.370  -0.921  0.00  0.00     0.019 A 
ATOM     20  C   UNK d   1       1.696  -0.218  -0.036  0.00  0.00     0.098 A 
ENDBRANCH   5  16
BRANCH   1  21
ATOM     21  C   UNK d   1       0.156   3.201   0.751  0.00  0.00     0.060 A 
ATOM     22  C   UNK d   1      -0.167   4.454   0.265  0.00  0.00     0.033 A 
ATOM     23  C   UNK d   1       0.669   5.546   0.382  0.00  0.00     0.021 A 
ATOM     24  C   UNK d   1       1.890   5.408   1.008  0.00  0.00     0.011 A 
ATOM     25 Br   UNK d   1       3.066   6.906   1.182  0.00  0.00    -0.051 Br
ATOM     26  C   UNK d   1       2.231   4.161   1.499  0.00  0.00     0.021 A 
ATOM     27  C   UNK d   1       1.384   3.078   1.375  0.00  0.00     0.033 A 
ENDBRANCH   1  21
TORSDOF 3
