REMARK  3 active torsions:
REMARK  status: ('A' for Active; 'I' for Inactive)
REMARK    1  A    between atoms: C_5  and  N_8 
REMARK    2  A    between atoms: N_15  and  C_18 
REMARK    3  A    between atoms: C_18  and  C_19 
REMARK       I    between atoms: C_19  and  N_21 
ROOT
ATOM      1  N   UNK d   1       3.383  -0.170   3.905  0.00  0.00    -0.218 N 
ATOM      2  N   UNK d   1       2.870   0.720   4.737  0.00  0.00     0.012 NA
ATOM      3  N   UNK d   1       1.890   1.403   4.170  0.00  0.00    -0.150 NA
ATOM      4  C   UNK d   1       1.731   0.957   2.895  0.00  0.00     0.190 A 
ATOM      5  C   UNK d   1       2.688  -0.033   2.762  0.00  0.00     0.185 A 
ATOM      6  N   UNK d   1       2.757  -0.656   1.580  0.00  0.00    -0.222 NA
ATOM      7  C   UNK d   1       1.927  -0.324   0.576  0.00  0.00     0.215 A 
ATOM      8  N   UNK d   1       0.989   0.643   0.698  0.00  0.00    -0.298 N 
ATOM      9  C   UNK d   1       0.886   1.292   1.864  0.00  0.00     0.283 A 
ATOM     10  O   UNK d   1       0.020   2.187   1.980  0.00  0.00    -0.265 OA
ENDROOT
BRANCH   8  11
ATOM     11  C   UNK d   1       0.140   0.931  -0.443  0.00  0.00     0.236 C 
BRANCH  11  12
ATOM     12  C   UNK d   1      -1.098   0.072  -0.399  0.00  0.00     0.238 C 
ATOM     13  O   UNK d   1      -1.276  -0.749   0.540  0.00  0.00    -0.272 OA
ATOM     14  N   UNK d   1      -2.084   0.169  -1.409  0.00  0.00    -0.346 N 
ATOM     15  C   UNK d   1      -3.273  -0.649  -1.378  0.00  0.00     0.157 C 
ATOM     16  C   UNK d   1      -1.916   1.097  -2.503  0.00  0.00     0.157 C 
ATOM     17  C   UNK d   1      -3.477  -1.184  -2.785  0.00  0.00     0.136 C 
ATOM     18  O   UNK d   1      -3.534  -0.204  -3.742  0.00  0.00    -0.378 OA
ATOM     19  C   UNK d   1      -4.839  -1.886  -2.779  0.00  0.00     0.041 C 
ATOM     20  C   UNK d   1      -3.202   1.054  -3.303  0.00  0.00     0.136 C 
ATOM     21  C   UNK d   1      -3.148   2.076  -4.400  0.00  0.00     0.041 C 
ENDBRANCH  11  12
ENDBRANCH   8  11
BRANCH   1  22
ATOM     22  C   UNK d   1       4.450  -1.091   4.144  0.00  0.00     0.057 A 
ATOM     23  C   UNK d   1       5.451  -0.777   5.039  0.00  0.00     0.032 A 
ATOM     24  C   UNK d   1       6.489  -1.666   5.276  0.00  0.00     0.021 A 
ATOM     25  C   UNK d   1       6.567  -2.886   4.638  0.00  0.00     0.011 A 
ATOM     26 Br   UNK d   1       8.011  -4.096   4.983  0.00  0.00    -0.051 Br
ATOM     27  C   UNK d   1       5.566  -3.200   3.743  0.00  0.00     0.021 A 
ATOM     28  C   UNK d   1       4.535  -2.314   3.509  0.00  0.00     0.032 A 
ENDBRANCH   1  22
TORSDOF 3
