# created with PyMOL 2.3.2
@<TRIPOS>MOLECULE
399
47 50 1                 
SMALL
USER_CHARGES
@<TRIPOS>ATOM
1	  Br	-0.395	3.264	6.514	Br	1	UNK0	0.000	
2	   C	0.142	2.080	5.108	C.2	1	UNK0	0.000	
3	   C	-0.749	1.243	4.494	C.2	1	UNK0	0.000	
4	   C	-0.350	0.380	3.468	C.2	1	UNK0	0.000	
5	   C	0.944	0.338	3.036	C.2	1	UNK0	0.000	
6	   C	1.837	1.171	3.646	C.2	1	UNK0	0.000	
7	   C	1.448	2.040	4.677	C.2	1	UNK0	0.000	
8	   N	1.356	-0.541	1.987	N.pl3	1	UNK0	0.000	
9	   C	0.594	-1.514	1.281	C.2	1	UNK0	0.000	
10	   O	-0.581	-1.840	1.554	O.2	1	UNK0	0.000	
11	   C	1.368	-2.099	0.176	C.3	1	UNK0	0.000	
12	   C	2.803	-1.859	0.631	C.3	1	UNK0	0.000	
13	   C	2.682	-0.596	1.426	C.2	1	UNK0	0.000	
14	   O	3.635	0.200	1.517	O.2	1	UNK0	0.000	
15	   N	1.145	-1.497	-1.119	N.4	1	UNK0	0.000	
16	   C	0.077	-2.138	-1.848	C.3	1	UNK0	0.000	
17	   C	-1.257	-1.432	-1.750	C.3	1	UNK0	0.000	
18	   N	-1.102	-0.002	-1.832	N.pl3	1	UNK0	0.000	
19	   C	0.217	0.434	-2.226	C.3	1	UNK0	0.000	
20	   C	1.132	-0.079	-1.098	C.3	1	UNK0	0.000	
21	   C	-2.120	0.912	-1.541	C.2	1	UNK0	0.000	
22	   C	-2.103	2.256	-1.855	C.2	1	UNK0	0.000	
23	   C	-3.130	3.124	-1.521	C.2	1	UNK0	0.000	
24	   C	-4.228	2.661	-0.847	C.2	1	UNK0	0.000	
25	   C	-4.297	1.325	-0.507	C.2	1	UNK0	0.000	
26	   C	-3.259	0.478	-0.852	C.2	1	UNK0	0.000	
27	   O	-5.296	3.481	-0.481	O.2	1	UNK0	0.000	
28	   H	-1.767	1.259	4.816	 H	1	UNK0	0.000	
29	   H	-1.112	-0.230	3.053	 H	1	UNK0	0.000	
30	   H	2.867	1.224	3.396	 H	1	UNK0	0.000	
31	   H	2.159	2.696	5.153	 H	1	UNK0	0.000	
32	   H	1.269	-3.209	0.123	 H	1	UNK0	0.000	
33	   H	3.176	-2.696	1.243	 H	1	UNK0	0.000	
34	   H	3.432	-1.707	-0.264	 H	1	UNK0	0.000	
35	   H	2.025	-1.770	-1.675	 H	1	UNK0	0.000	
36	   H	-0.055	-3.161	-1.435	 H	1	UNK0	0.000	
37	   H	0.322	-2.263	-2.927	 H	1	UNK0	0.000	
38	   H	-1.844	-1.748	-2.662	 H	1	UNK0	0.000	
39	   H	-1.772	-1.819	-0.883	 H	1	UNK0	0.000	
40	   H	0.505	-0.106	-3.151	 H	1	UNK0	0.000	
41	   H	0.355	1.492	-2.371	 H	1	UNK0	0.000	
42	   H	0.726	0.262	-0.114	 H	1	UNK0	0.000	
43	   H	2.149	0.317	-1.216	 H	1	UNK0	0.000	
44	   H	-1.226	2.641	-2.404	 H	1	UNK0	0.000	
45	   H	-3.048	4.145	-1.796	 H	1	UNK0	0.000	
46	   H	-5.152	0.927	0.029	 H	1	UNK0	0.000	
47	   H	-3.288	-0.580	-0.595	 H	1	UNK0	0.000	
@<TRIPOS>BOND
1 1 2 1
2 2 3 2
3 2 7 1
4 3 4 1
5 4 5 2
6 5 6 1
7 5 8 1
8 6 7 2
9 8 9 1
10 8 13 1
11 9 10 2
12 9 11 1
13 11 12 1
14 11 15 1
15 12 13 1
16 13 14 2
17 15 16 1
18 15 20 1
19 16 17 1
20 17 18 1
21 18 19 1
22 18 21 1
23 19 20 1
24 21 22 2
25 21 26 1
26 22 23 1
27 23 24 2
28 24 25 1
29 24 27 1
30 25 26 2
31 3 28 1
32 4 29 1
33 6 30 1
34 7 31 1
35 11 32 1
36 12 33 1
37 12 34 1
38 15 35 1
39 16 36 1
40 16 37 1
41 17 38 1
42 17 39 1
43 19 40 1
44 19 41 1
45 20 42 1
46 20 43 1
47 22 44 1
48 23 45 1
49 25 46 1
50 26 47 1
@<TRIPOS>SUBSTRUCTURE
1	UNK0	1	GROUP	1 ****	UNK
