REMARK  3 active torsions:
REMARK  status: ('A' for Active; 'I' for Inactive)
REMARK    1  A    between atoms: C_5  and  N_8 
REMARK    2  A    between atoms: C_11  and  N_15 
REMARK    3  A    between atoms: N_18  and  C_21 
ROOT
ATOM      1  N   UNK d   1       1.356  -0.541   1.987  0.00  0.00    -0.251 N 
ATOM      2  C   UNK d   1       0.594  -1.514   1.281  0.00  0.00     0.262 C 
ATOM      3  O   UNK d   1      -0.581  -1.840   1.554  0.00  0.00    -0.270 OA
ATOM      4  C   UNK d   1       1.368  -2.099   0.176  0.00  0.00     0.289 C 
ATOM      5  C   UNK d   1       2.803  -1.859   0.631  0.00  0.00     0.146 C 
ATOM      6  C   UNK d   1       2.682  -0.596   1.426  0.00  0.00     0.233 C 
ATOM      7  O   UNK d   1       3.635   0.200   1.517  0.00  0.00    -0.273 OA
ENDROOT
BRANCH   4   8
ATOM      8  N   UNK d   1       1.145  -1.497  -1.119  0.00  0.00    -0.055 N 
ATOM      9  C   UNK d   1       0.077  -2.138  -1.848  0.00  0.00     0.255 C 
ATOM     10  C   UNK d   1      -1.257  -1.432  -1.750  0.00  0.00     0.150 C 
ATOM     11  N   UNK d   1      -1.102  -0.002  -1.832  0.00  0.00    -0.378 N 
ATOM     12  C   UNK d   1       0.217   0.434  -2.226  0.00  0.00     0.150 C 
ATOM     13  C   UNK d   1       1.132  -0.079  -1.098  0.00  0.00     0.255 C 
ATOM     14  H   UNK d   1       2.025  -1.770  -1.675  0.00  0.00     0.281 HD
BRANCH  11  15
ATOM     15  C   UNK d   1      -2.120   0.912  -1.541  0.00  0.00     0.030 A 
ATOM     16  C   UNK d   1      -2.103   2.256  -1.855  0.00  0.00     0.032 A 
ATOM     17  C   UNK d   1      -3.130   3.124  -1.521  0.00  0.00     0.042 A 
ATOM     18  C   UNK d   1      -4.228   2.661  -0.847  0.00  0.00     0.107 A 
ATOM     19  C   UNK d   1      -4.297   1.325  -0.507  0.00  0.00     0.042 A 
ATOM     20  O   UNK d   1      -5.296   3.481  -0.481  0.00  0.00    -0.192 OA
ATOM     21  C   UNK d   1      -3.259   0.478  -0.852  0.00  0.00     0.032 A 
ENDBRANCH  11  15
ENDBRANCH   4   8
BRANCH   1  22
ATOM     22  C   UNK d   1       0.944   0.338   3.036  0.00  0.00     0.045 A 
ATOM     23  C   UNK d   1      -0.350   0.380   3.468  0.00  0.00     0.031 A 
ATOM     24  C   UNK d   1      -0.749   1.243   4.494  0.00  0.00     0.021 A 
ATOM     25  C   UNK d   1       0.142   2.080   5.108  0.00  0.00     0.011 A 
ATOM     26 Br   UNK d   1      -0.395   3.264   6.514  0.00  0.00    -0.051 Br
ATOM     27  C   UNK d   1       1.448   2.040   4.677  0.00  0.00     0.021 A 
ATOM     28  C   UNK d   1       1.837   1.171   3.646  0.00  0.00     0.031 A 
ENDBRANCH   1  22
TORSDOF 3
