REMARK  4 active torsions:
REMARK  status: ('A' for Active; 'I' for Inactive)
REMARK    1  A    between atoms: C_5  and  N_8 
REMARK    2  A    between atoms: C_11  and  N_15 
REMARK    3  A    between atoms: C_18  and  N_21 
REMARK    4  A    between atoms: C_18  and  C_27 
REMARK       I    between atoms: C_27  and  N_29 
ROOT
ATOM      1  N   UNK d   1       0.854   2.024  -1.675  0.00  0.00    -0.399 N 
ATOM      2  C   UNK d   1       0.484   1.728  -0.350  0.00  0.00     0.120 C 
ATOM      3  C   UNK d   1      -1.017   2.003  -0.188  0.00  0.00     0.060 C 
ATOM      4  C   UNK d   1      -1.842   1.027  -0.997  0.00  0.00     0.112 C 
ATOM      5  C   UNK d   1      -1.205   0.810  -2.310  0.00  0.00     0.060 C 
ATOM      6  C   UNK d   1      -0.181   1.871  -2.626  0.00  0.00     0.120 C 
ENDROOT
BRANCH   1   7
ATOM      7  C   UNK d   1       2.162   1.740  -2.107  0.00  0.00     0.181 C 
ATOM      8  C   UNK d   1       2.412   0.278  -2.018  0.00  0.00     0.254 C 
ATOM      9  N   UNK d   1       3.369   0.064  -0.975  0.00  0.00    -0.251 N 
ATOM     10  O   UNK d   1       1.863  -0.586  -2.744  0.00  0.00    -0.270 OA
ATOM     11  C   UNK d   1       4.112   1.274  -0.898  0.00  0.00     0.233 C 
ATOM     12  C   UNK d   1       3.244   2.415  -1.294  0.00  0.00     0.138 C 
ATOM     13  O   UNK d   1       5.340   1.347  -0.539  0.00  0.00    -0.273 OA
BRANCH   9  14
ATOM     14  C   UNK d   1       3.530  -1.121  -0.191  0.00  0.00     0.045 A 
ATOM     15  C   UNK d   1       4.451  -1.151   0.822  0.00  0.00     0.031 A 
ATOM     16  C   UNK d   1       4.622  -2.302   1.601  0.00  0.00     0.021 A 
ATOM     17  C   UNK d   1       3.880  -3.440   1.385  0.00  0.00     0.011 A 
ATOM     18 Br   UNK d   1       4.105  -5.017   2.443  0.00  0.00    -0.051 Br
ATOM     19  C   UNK d   1       2.953  -3.410   0.366  0.00  0.00     0.021 A 
ATOM     20  C   UNK d   1       2.792  -2.265  -0.398  0.00  0.00     0.031 A 
ENDBRANCH   9  14
ENDBRANCH   1   7
BRANCH   4  21
ATOM     21  N   UNK d   1      -2.080  -0.112  -0.211  0.00  0.00    -0.396 N 
ATOM     22  C   UNK d   1      -2.809   0.027   0.979  0.00  0.00     0.118 C 
ATOM     23  C   UNK d   1      -1.936  -0.554   2.105  0.00  0.00     0.019 C 
ATOM     24  C   UNK d   1      -1.816  -2.035   1.808  0.00  0.00     0.003 C 
ATOM     25  C   UNK d   1      -2.189  -2.393   0.408  0.00  0.00     0.019 C 
ATOM     26  C   UNK d   1      -1.687  -1.371  -0.623  0.00  0.00     0.118 C 
ENDBRANCH   4  21
BRANCH   4  27
ATOM     27  C   UNK d   1      -3.164   1.713  -1.221  0.00  0.00     0.243 C 
ATOM     28  O   UNK d   1      -3.209   2.797  -1.877  0.00  0.00    -0.271 OA
ATOM     29  N   UNK d   1      -4.388   1.202  -0.728  0.00  0.00    -0.368 N 
ATOM     30  H   UNK d   1      -4.929   1.747  -0.046  0.00  0.00     0.159 HD
ATOM     31  H   UNK d   1      -4.750   0.283  -1.047  0.00  0.00     0.159 HD
ENDBRANCH   4  27
TORSDOF 4
