REMARK  6 active torsions:
REMARK  status: ('A' for Active; 'I' for Inactive)
REMARK    1  A    between atoms: C_5  and  N_8 
REMARK    2  A    between atoms: N_15  and  C_16 
REMARK    3  A    between atoms: C_16  and  C_17 
REMARK       I    between atoms: C_17  and  N_19 
REMARK    4  A    between atoms: N_19  and  C_20 
REMARK    5  A    between atoms: C_22  and  O_28 
REMARK    6  A    between atoms: C_23  and  O_26 
ROOT
ATOM      1  N   UNK d   1      -0.489  -1.582  -3.167  0.00  0.00    -0.241 N 
ATOM      2  C   UNK d   1       0.336  -1.010  -2.275  0.00  0.00     0.286 A 
ATOM      3  O   UNK d   1       1.344  -1.602  -1.811  0.00  0.00    -0.265 OA
ATOM      4  C   UNK d   1      -0.078   0.274  -1.962  0.00  0.00     0.155 A 
ATOM      5  C   UNK d   1      -1.175   0.485  -2.678  0.00  0.00     0.152 A 
ATOM      6  N   UNK d   1      -1.576   1.729  -2.374  0.00  0.00    -0.279 N 
ATOM      7  N   UNK d   1      -0.746   2.263  -1.496  0.00  0.00    -0.239 N 
ATOM      8  N   UNK d   1       0.183   1.384  -1.230  0.00  0.00    -0.261 N 
ATOM      9  C   UNK d   1      -1.434  -0.649  -3.419  0.00  0.00     0.286 A 
ATOM     10  O   UNK d   1      -2.414  -0.798  -4.222  0.00  0.00    -0.265 OA
ATOM     11  H   UNK d   1      -2.406   2.229  -2.750  0.00  0.00     0.189 HD
ATOM     12  H   UNK d   1      -0.800   3.234  -1.066  0.00  0.00     0.208 HD
ENDROOT
BRANCH   8  13
ATOM     13  C   UNK d   1       1.300   1.527  -0.327  0.00  0.00     0.254 C 
BRANCH  13  14
ATOM     14  C   UNK d   1       0.887   1.059   1.049  0.00  0.00     0.242 C 
ATOM     15  O   UNK d   1       1.062  -0.139   1.364  0.00  0.00    -0.271 OA
ATOM     16  N   UNK d   1       0.315   1.962   1.957  0.00  0.00    -0.326 N 
ATOM     17  H   UNK d   1       0.196   2.972   1.619  0.00  0.00     0.169 HD
BRANCH  16  18
ATOM     18  C   UNK d   1      -0.107   1.660   3.267  0.00  0.00     0.037 A 
ATOM     19  C   UNK d   1       0.170   0.507   3.957  0.00  0.00     0.069 A 
ATOM     20  C   UNK d   1      -0.289   0.264   5.235  0.00  0.00     0.103 A 
ATOM     21  C   UNK d   1      -1.062   1.232   5.841  0.00  0.00     0.101 A 
ATOM     22  C   UNK d   1      -1.364   2.411   5.179  0.00  0.00     0.042 A 
ATOM     23  C   UNK d   1      -0.899   2.630   3.911  0.00  0.00     0.032 A 
BRANCH  20  24
ATOM     24  O   UNK d   1       0.009  -0.917   5.911  0.00  0.00    -0.353 OA
ATOM     25  C   UNK d   1       0.817  -1.885   5.229  0.00  0.00     0.210 C 
ENDBRANCH  20  24
BRANCH  21  26
ATOM     26  O   UNK d   1      -1.535   1.007   7.131  0.00  0.00    -0.353 OA
ATOM     27  C   UNK d   1      -2.328   1.996   7.757  0.00  0.00     0.210 C 
ENDBRANCH  21  26
ENDBRANCH  16  18
ENDBRANCH  13  14
ENDBRANCH   8  13
BRANCH   1  28
ATOM     28  C   UNK d   1      -0.443  -2.875  -3.759  0.00  0.00     0.046 A 
ATOM     29  C   UNK d   1      -0.730  -3.102  -5.089  0.00  0.00     0.031 A 
ATOM     30  C   UNK d   1      -0.675  -4.381  -5.635  0.00  0.00     0.021 A 
ATOM     31  C   UNK d   1      -0.332  -5.472  -4.861  0.00  0.00     0.011 A 
ATOM     32 Br   UNK d   1      -0.255  -7.235  -5.605  0.00  0.00    -0.051 Br
ATOM     33  C   UNK d   1      -0.047  -5.236  -3.531  0.00  0.00     0.021 A 
ATOM     34  C   UNK d   1      -0.101  -3.967  -2.992  0.00  0.00     0.031 A 
ENDBRANCH   1  28
TORSDOF 6
