REMARK  6 active torsions:
REMARK  status: ('A' for Active; 'I' for Inactive)
REMARK    1  A    between atoms: C_5  and  N_8 
REMARK    2  A    between atoms: N_15  and  C_16 
REMARK    3  A    between atoms: C_16  and  C_17 
REMARK       I    between atoms: C_17  and  N_19 
REMARK    4  A    between atoms: N_19  and  C_20 
REMARK    5  A    between atoms: C_22  and  O_28 
REMARK    6  A    between atoms: C_24  and  O_26 
ROOT
ATOM      1  N   UNK d   1      -1.267  -0.050   3.640  0.00  0.00    -0.241 N 
ATOM      2  C   UNK d   1      -0.532   0.319   2.588  0.00  0.00     0.286 A 
ATOM      3  O   UNK d   1      -0.761   1.360   1.886  0.00  0.00    -0.265 OA
ATOM      4  C   UNK d   1       0.510  -0.538   2.320  0.00  0.00     0.155 A 
ATOM      5  C   UNK d   1       0.404  -1.488   3.269  0.00  0.00     0.152 A 
ATOM      6  N   UNK d   1       1.423  -2.348   3.028  0.00  0.00    -0.279 N 
ATOM      7  N   UNK d   1       2.121  -1.943   1.982  0.00  0.00    -0.239 N 
ATOM      8  N   UNK d   1       1.565  -0.832   1.544  0.00  0.00    -0.261 N 
ATOM      9  C   UNK d   1      -0.672  -1.203   4.077  0.00  0.00     0.286 A 
ATOM     10  O   UNK d   1      -1.097  -1.846   5.067  0.00  0.00    -0.265 OA
ATOM     11  H   UNK d   1       1.606  -3.204   3.602  0.00  0.00     0.189 HD
ATOM     12  H   UNK d   1       2.961  -2.465   1.614  0.00  0.00     0.208 HD
ENDROOT
BRANCH   8  13
ATOM     13  C   UNK d   1       2.031  -0.074   0.419  0.00  0.00     0.254 C 
BRANCH  13  14
ATOM     14  C   UNK d   1       1.439  -0.481  -0.853  0.00  0.00     0.242 C 
ATOM     15  O   UNK d   1       0.466  -1.287  -0.924  0.00  0.00    -0.271 OA
ATOM     16  N   UNK d   1       1.987   0.048  -2.043  0.00  0.00    -0.326 N 
ATOM     17  H   UNK d   1       2.811   0.724  -2.007  0.00  0.00     0.169 HD
BRANCH  16  18
ATOM     18  C   UNK d   1       1.425  -0.336  -3.287  0.00  0.00     0.040 A 
ATOM     19  C   UNK d   1       2.269  -0.953  -4.177  0.00  0.00     0.066 A 
ATOM     20  C   UNK d   1       1.799  -1.336  -5.439  0.00  0.00     0.073 A 
ATOM     21  C   UNK d   1       0.496  -1.092  -5.784  0.00  0.00     0.073 A 
ATOM     22  C   UNK d   1      -0.372  -0.466  -4.892  0.00  0.00     0.073 A 
ATOM     23  C   UNK d   1       0.124  -0.101  -3.650  0.00  0.00     0.066 A 
BRANCH  20  24
ATOM     24  O   UNK d   1       2.728  -1.948  -6.246  0.00  0.00    -0.356 OA
ATOM     25  C   UNK d   1       2.475  -2.410  -7.522  0.00  0.00     0.210 C 
ENDBRANCH  20  24
BRANCH  22  26
ATOM     26  O   UNK d   1      -1.668  -0.249  -5.310  0.00  0.00    -0.356 OA
ATOM     27  C   UNK d   1      -2.694   0.359  -4.589  0.00  0.00     0.210 C 
ENDBRANCH  22  26
ENDBRANCH  16  18
ENDBRANCH  13  14
ENDBRANCH   8  13
BRANCH   1  28
ATOM     28  C   UNK d   1      -2.414   0.574   4.224  0.00  0.00     0.046 A 
ATOM     29  C   UNK d   1      -2.278   1.488   5.240  0.00  0.00     0.031 A 
ATOM     30  C   UNK d   1      -3.408   2.098   5.807  0.00  0.00     0.021 A 
ATOM     31  C   UNK d   1      -4.673   1.798   5.362  0.00  0.00     0.011 A 
ATOM     32 Br   UNK d   1      -6.227   2.637   6.136  0.00  0.00    -0.051 Br
ATOM     33  C   UNK d   1      -4.806   0.882   4.344  0.00  0.00     0.021 A 
ATOM     34  C   UNK d   1      -3.693   0.289   3.796  0.00  0.00     0.031 A 
ENDBRANCH   1  28
TORSDOF 6
