# created with PyMOL 2.3.2
@<TRIPOS>MOLECULE
412
49 52 1                 
SMALL
USER_CHARGES
@<TRIPOS>ATOM
1	  Br	-6.227	2.637	6.136	Br	1	UNK0	0.000	
2	   C	-4.673	1.798	5.362	C.2	1	UNK0	0.000	
3	   C	-3.408	2.098	5.807	C.2	1	UNK0	0.000	
4	   C	-2.278	1.488	5.240	C.2	1	UNK0	0.000	
5	   C	-2.414	0.574	4.224	C.2	1	UNK0	0.000	
6	   C	-3.693	0.289	3.796	C.2	1	UNK0	0.000	
7	   C	-4.806	0.882	4.344	C.2	1	UNK0	0.000	
8	   N	-1.267	-0.050	3.640	N.pl3	1	UNK0	0.000	
9	   C	-0.532	0.319	2.588	C.2	1	UNK0	0.000	
10	   O	-0.761	1.360	1.886	O.2	1	UNK0	0.000	
11	   C	0.510	-0.538	2.320	C.2	1	UNK0	0.000	
12	   C	0.404	-1.488	3.269	C.2	1	UNK0	0.000	
13	   N	1.423	-2.348	3.028	N.pl3	1	UNK0	0.000	
14	   N	2.121	-1.943	1.982	N.pl3	1	UNK0	0.000	
15	   N	1.565	-0.832	1.544	N.pl3	1	UNK0	0.000	
16	   C	2.031	-0.074	0.419	C.3	1	UNK0	0.000	
17	   C	1.439	-0.481	-0.853	C.2	1	UNK0	0.000	
18	   O	0.466	-1.287	-0.924	O.2	1	UNK0	0.000	
19	   N	1.987	0.048	-2.043	N.pl3	1	UNK0	0.000	
20	   C	1.425	-0.336	-3.287	C.2	1	UNK0	0.000	
21	   C	2.269	-0.953	-4.177	C.2	1	UNK0	0.000	
22	   C	1.799	-1.336	-5.439	C.2	1	UNK0	0.000	
23	   C	0.496	-1.092	-5.784	C.2	1	UNK0	0.000	
24	   C	-0.372	-0.466	-4.892	C.2	1	UNK0	0.000	
25	   C	0.124	-0.101	-3.650	C.2	1	UNK0	0.000	
26	   O	-1.668	-0.249	-5.310	O.3	1	UNK0	0.000	
27	   C	-2.694	0.359	-4.589	C.3	1	UNK0	0.000	
28	   O	2.728	-1.948	-6.246	O.3	1	UNK0	0.000	
29	   C	2.475	-2.410	-7.522	C.3	1	UNK0	0.000	
30	   C	-0.672	-1.203	4.077	C.2	1	UNK0	0.000	
31	   O	-1.097	-1.846	5.067	O.2	1	UNK0	0.000	
32	   H	-3.295	2.813	6.604	 H	1	UNK0	0.000	
33	   H	-1.293	1.744	5.605	 H	1	UNK0	0.000	
34	   H	-3.774	-0.439	2.987	 H	1	UNK0	0.000	
35	   H	-5.809	0.647	3.998	 H	1	UNK0	0.000	
36	   H	1.606	-3.204	3.602	 H	1	UNK0	0.000	
37	   H	2.961	-2.465	1.614	 H	1	UNK0	0.000	
38	   H	1.855	1.026	0.554	 H	1	UNK0	0.000	
39	   H	3.151	-0.148	0.301	 H	1	UNK0	0.000	
40	   H	2.811	0.724	-2.007	 H	1	UNK0	0.000	
41	   H	3.312	-1.146	-3.894	 H	1	UNK0	0.000	
42	   H	0.156	-1.398	-6.764	 H	1	UNK0	0.000	
43	   H	-0.549	0.383	-2.951	 H	1	UNK0	0.000	
44	   H	-3.675	-0.086	-4.875	 H	1	UNK0	0.000	
45	   H	-2.797	1.452	-4.859	 H	1	UNK0	0.000	
46	   H	-2.591	0.280	-3.491	 H	1	UNK0	0.000	
47	   H	3.355	-2.212	-8.180	 H	1	UNK0	0.000	
48	   H	1.597	-1.970	-7.989	 H	1	UNK0	0.000	
49	   H	2.392	-3.537	-7.465	 H	1	UNK0	0.000	
@<TRIPOS>BOND
1 1 2 1
2 2 3 2
3 2 7 1
4 3 4 1
5 4 5 2
6 5 6 1
7 5 8 1
8 6 7 2
9 8 9 1
10 8 30 1
11 9 10 2
12 9 11 1
13 11 12 2
14 11 15 1
15 12 13 1
16 12 30 1
17 13 14 1
18 14 15 1
19 15 16 1
20 16 17 1
21 17 18 2
22 17 19 1
23 19 20 1
24 20 21 2
25 20 25 1
26 21 22 1
27 22 23 2
28 22 28 1
29 23 24 1
30 24 25 2
31 24 26 1
32 26 27 1
33 28 29 1
34 30 31 2
35 3 32 1
36 4 33 1
37 6 34 1
38 7 35 1
39 13 36 1
40 14 37 1
41 16 38 1
42 16 39 1
43 19 40 1
44 21 41 1
45 23 42 1
46 25 43 1
47 27 44 1
48 27 45 1
49 27 46 1
50 29 47 1
51 29 48 1
52 29 49 1
@<TRIPOS>SUBSTRUCTURE
1	UNK0	1	GROUP	1 ****	UNK
