REMARK  7 active torsions:
REMARK  status: ('A' for Active; 'I' for Inactive)
REMARK    1  A    between atoms: C_5  and  N_8 
REMARK    2  A    between atoms: N_15  and  C_16 
REMARK    3  A    between atoms: C_16  and  C_17 
REMARK       I    between atoms: C_17  and  N_19 
REMARK    4  A    between atoms: N_19  and  C_20 
REMARK    5  A    between atoms: C_23  and  C_26 
REMARK    6  A    between atoms: C_26  and  O_28 
REMARK    7  A    between atoms: O_28  and  C_29 
ROOT
ATOM      1  N   UNK d   1      -0.925   0.165   4.087  0.00  0.00    -0.241 N 
ATOM      2  C   UNK d   1      -1.766   0.142   3.022  0.00  0.00     0.286 A 
ATOM      3  O   UNK d   1      -2.354   1.145   2.510  0.00  0.00    -0.265 OA
ATOM      4  C   UNK d   1      -1.896  -1.157   2.562  0.00  0.00     0.155 A 
ATOM      5  C   UNK d   1      -1.129  -1.897   3.359  0.00  0.00     0.152 A 
ATOM      6  N   UNK d   1      -1.239  -3.177   2.929  0.00  0.00    -0.279 N 
ATOM      7  N   UNK d   1      -2.065  -3.177   1.887  0.00  0.00    -0.239 N 
ATOM      8  N   UNK d   1      -2.489  -1.954   1.633  0.00  0.00    -0.261 N 
ATOM      9  C   UNK d   1      -0.527  -1.097   4.301  0.00  0.00     0.286 A 
ATOM     10  O   UNK d   1       0.257  -1.456   5.207  0.00  0.00    -0.265 OA
ATOM     11  H   UNK d   1      -0.758  -3.999   3.347  0.00  0.00     0.189 HD
ATOM     12  H   UNK d   1      -2.334  -4.023   1.355  0.00  0.00     0.208 HD
ENDROOT
BRANCH   8  13
ATOM     13  C   UNK d   1      -3.398  -1.489   0.592  0.00  0.00     0.254 C 
BRANCH  13  14
ATOM     14  C   UNK d   1      -2.598  -1.132  -0.637  0.00  0.00     0.242 C 
ATOM     15  O   UNK d   1      -3.320  -0.721  -1.579  0.00  0.00    -0.271 OA
ATOM     16  N   UNK d   1      -1.212  -1.277  -0.631  0.00  0.00    -0.326 N 
ATOM     17  H   UNK d   1      -0.791  -1.646   0.280  0.00  0.00     0.169 HD
BRANCH  16  18
ATOM     18  C   UNK d   1      -0.315  -0.991  -1.690  0.00  0.00     0.034 A 
ATOM     19  C   UNK d   1      -0.676  -0.510  -2.926  0.00  0.00     0.030 A 
ATOM     20  C   UNK d   1       0.274  -0.252  -3.924  0.00  0.00     0.020 A 
ATOM     21  C   UNK d   1       1.614  -0.469  -3.709  0.00  0.00     0.039 A 
ATOM     22  C   UNK d   1       1.986  -0.949  -2.477  0.00  0.00     0.020 A 
ATOM     23  C   UNK d   1       1.048  -1.203  -1.495  0.00  0.00     0.030 A 
BRANCH  21  24
ATOM     24  C   UNK d   1       2.567  -0.186  -4.777  0.00  0.00     0.293 C 
ATOM     25  O   UNK d   1       3.786  -0.393  -4.553  0.00  0.00    -0.259 OA
BRANCH  24  26
ATOM     26  O   UNK d   1       2.225   0.292  -6.011  0.00  0.00    -0.318 OA
BRANCH  26  27
ATOM     27  C   UNK d   1       3.103   0.576  -7.062  0.00  0.00     0.174 C 
ATOM     28  C   UNK d   1       2.240   1.083  -8.226  0.00  0.00     0.034 C 
ENDBRANCH  26  27
ENDBRANCH  24  26
ENDBRANCH  21  24
ENDBRANCH  16  18
ENDBRANCH  13  14
ENDBRANCH   8  13
BRANCH   1  29
ATOM     29  C   UNK d   1      -0.579   1.353   4.795  0.00  0.00     0.046 A 
ATOM     30  C   UNK d   1       0.481   2.129   4.352  0.00  0.00     0.031 A 
ATOM     31  C   UNK d   1       0.839   3.268   5.003  0.00  0.00     0.021 A 
ATOM     32  C   UNK d   1       0.169   3.703   6.127  0.00  0.00     0.011 A 
ATOM     33 Br   UNK d   1       0.635   5.289   7.067  0.00  0.00    -0.051 Br
ATOM     34  C   UNK d   1      -0.882   2.923   6.556  0.00  0.00     0.021 A 
ATOM     35  C   UNK d   1      -1.254   1.774   5.912  0.00  0.00     0.031 A 
ENDBRANCH   1  29
TORSDOF 7
