# created with PyMOL 2.3.2
@<TRIPOS>MOLECULE
414
50 53 1                 
SMALL
USER_CHARGES
@<TRIPOS>ATOM
1	  Br	0.635	5.289	7.067	Br	1	UNK0	0.000	
2	   C	0.169	3.703	6.127	C.2	1	UNK0	0.000	
3	   C	0.839	3.268	5.003	C.2	1	UNK0	0.000	
4	   C	0.481	2.129	4.352	C.2	1	UNK0	0.000	
5	   C	-0.579	1.353	4.795	C.2	1	UNK0	0.000	
6	   C	-1.254	1.774	5.912	C.2	1	UNK0	0.000	
7	   C	-0.882	2.923	6.556	C.2	1	UNK0	0.000	
8	   N	-0.925	0.165	4.087	N.pl3	1	UNK0	0.000	
9	   C	-1.766	0.142	3.022	C.2	1	UNK0	0.000	
10	   O	-2.354	1.145	2.510	O.2	1	UNK0	0.000	
11	   C	-1.896	-1.157	2.562	C.2	1	UNK0	0.000	
12	   C	-1.129	-1.897	3.359	C.2	1	UNK0	0.000	
13	   N	-1.239	-3.177	2.929	N.pl3	1	UNK0	0.000	
14	   N	-2.065	-3.177	1.887	N.pl3	1	UNK0	0.000	
15	   N	-2.489	-1.954	1.633	N.pl3	1	UNK0	0.000	
16	   C	-3.398	-1.489	0.592	C.3	1	UNK0	0.000	
17	   C	-2.598	-1.132	-0.637	C.2	1	UNK0	0.000	
18	   O	-3.320	-0.721	-1.579	O.2	1	UNK0	0.000	
19	   N	-1.212	-1.277	-0.631	N.pl3	1	UNK0	0.000	
20	   C	-0.315	-0.991	-1.690	C.2	1	UNK0	0.000	
21	   C	-0.676	-0.510	-2.926	C.2	1	UNK0	0.000	
22	   C	0.274	-0.252	-3.924	C.2	1	UNK0	0.000	
23	   C	1.614	-0.469	-3.709	C.2	1	UNK0	0.000	
24	   C	1.986	-0.949	-2.477	C.2	1	UNK0	0.000	
25	   C	1.048	-1.203	-1.495	C.2	1	UNK0	0.000	
26	   C	2.567	-0.186	-4.777	C.2	1	UNK0	0.000	
27	   O	3.786	-0.393	-4.553	O.co2	1	UNK0	0.000	
28	   O	2.225	0.292	-6.011	O.3	1	UNK0	0.000	
29	   C	3.103	0.576	-7.062	C.3	1	UNK0	0.000	
30	   C	2.240	1.083	-8.226	C.3	1	UNK0	0.000	
31	   C	-0.527	-1.097	4.301	C.2	1	UNK0	0.000	
32	   O	0.257	-1.456	5.207	O.2	1	UNK0	0.000	
33	   H	1.668	3.875	4.657	 H	1	UNK0	0.000	
34	   H	1.042	1.816	3.457	 H	1	UNK0	0.000	
35	   H	-2.086	1.192	6.285	 H	1	UNK0	0.000	
36	   H	-1.413	3.271	7.451	 H	1	UNK0	0.000	
37	   H	-0.758	-3.999	3.347	 H	1	UNK0	0.000	
38	   H	-2.334	-4.023	1.355	 H	1	UNK0	0.000	
39	   H	-4.175	-2.241	0.361	 H	1	UNK0	0.000	
40	   H	-3.916	-0.597	1.003	 H	1	UNK0	0.000	
41	   H	-0.791	-1.646	0.280	 H	1	UNK0	0.000	
42	   H	-1.712	-0.332	-3.122	 H	1	UNK0	0.000	
43	   H	-0.052	0.130	-4.894	 H	1	UNK0	0.000	
44	   H	3.052	-1.117	-2.317	 H	1	UNK0	0.000	
45	   H	1.383	-1.587	-0.521	 H	1	UNK0	0.000	
46	   H	3.828	1.382	-6.837	 H	1	UNK0	0.000	
47	   H	3.680	-0.297	-7.421	 H	1	UNK0	0.000	
48	   H	1.862	2.111	-7.954	 H	1	UNK0	0.000	
49	   H	1.346	0.452	-8.364	 H	1	UNK0	0.000	
50	   H	2.792	1.115	-9.167	 H	1	UNK0	0.000	
@<TRIPOS>BOND
1 1 2 1
2 2 3 2
3 2 7 1
4 3 4 1
5 4 5 2
6 5 6 1
7 5 8 1
8 6 7 2
9 8 9 1
10 8 31 1
11 9 10 2
12 9 11 1
13 11 12 2
14 11 15 1
15 12 13 1
16 12 31 1
17 13 14 1
18 14 15 1
19 15 16 1
20 16 17 1
21 17 18 2
22 17 19 1
23 19 20 1
24 20 21 2
25 20 25 1
26 21 22 1
27 22 23 2
28 23 24 1
29 23 26 1
30 24 25 2
31 26 27 2
32 26 28 1
33 28 29 1
34 29 30 1
35 31 32 2
36 3 33 1
37 4 34 1
38 6 35 1
39 7 36 1
40 13 37 1
41 14 38 1
42 16 39 1
43 16 40 1
44 19 41 1
45 21 42 1
46 22 43 1
47 24 44 1
48 25 45 1
49 29 46 1
50 29 47 1
51 30 48 1
52 30 49 1
53 30 50 1
@<TRIPOS>SUBSTRUCTURE
1	UNK0	1	GROUP	1 ****	UNK
