REMARK  6 active torsions:
REMARK  status: ('A' for Active; 'I' for Inactive)
REMARK    1  A    between atoms: C_5  and  N_8 
REMARK    2  A    between atoms: N_15  and  C_16 
REMARK    3  A    between atoms: C_16  and  C_17 
REMARK       I    between atoms: C_17  and  N_19 
REMARK    4  A    between atoms: N_19  and  C_20 
REMARK    5  A    between atoms: C_23  and  O_26 
REMARK    6  A    between atoms: O_26  and  C_27 
ROOT
ATOM      1  N   UNK d   1      -1.444  -1.473  -3.223  0.00  0.00    -0.241 N 
ATOM      2  C   UNK d   1      -1.794  -1.152  -1.946  0.00  0.00     0.286 A 
ATOM      3  O   UNK d   1      -1.369  -1.759  -0.934  0.00  0.00    -0.265 OA
ATOM      4  C   UNK d   1      -2.666  -0.085  -1.928  0.00  0.00     0.155 A 
ATOM      5  C   UNK d   1      -2.853   0.251  -3.196  0.00  0.00     0.152 A 
ATOM      6  N   UNK d   1      -3.704   1.293  -3.210  0.00  0.00    -0.279 N 
ATOM      7  N   UNK d   1      -4.024   1.578  -1.956  0.00  0.00    -0.239 N 
ATOM      8  N   UNK d   1      -3.402   0.748  -1.140  0.00  0.00    -0.261 N 
ATOM      9  C   UNK d   1      -2.108  -0.594  -3.987  0.00  0.00     0.286 A 
ATOM     10  O   UNK d   1      -2.033  -0.577  -5.256  0.00  0.00    -0.265 OA
ATOM     11  H   UNK d   1      -4.064   1.808  -4.032  0.00  0.00     0.189 HD
ATOM     12  H   UNK d   1      -4.681   2.359  -1.664  0.00  0.00     0.208 HD
ENDROOT
BRANCH   8  13
ATOM     13  C   UNK d   1      -3.472   0.693   0.291  0.00  0.00     0.254 C 
BRANCH  13  14
ATOM     14  C   UNK d   1      -2.419   1.532   0.976  0.00  0.00     0.242 C 
ATOM     15  O   UNK d   1      -2.645   2.761   1.010  0.00  0.00    -0.271 OA
ATOM     16  N   UNK d   1      -1.275   0.966   1.535  0.00  0.00    -0.326 N 
ATOM     17  H   UNK d   1      -1.196  -0.106   1.432  0.00  0.00     0.169 HD
BRANCH  16  18
ATOM     18  C   UNK d   1      -0.203   1.572   2.212  0.00  0.00     0.034 A 
ATOM     19  C   UNK d   1       0.770   0.784   2.827  0.00  0.00     0.032 A 
ATOM     20  C   UNK d   1       1.821   1.332   3.512  0.00  0.00     0.039 A 
ATOM     21  C   UNK d   1       1.948   2.718   3.616  0.00  0.00     0.068 A 
ATOM     22  C   UNK d   1       0.975   3.466   2.999  0.00  0.00     0.039 A 
ATOM     23  C   UNK d   1      -0.082   2.921   2.308  0.00  0.00     0.032 A 
BRANCH  21  24
ATOM     24  O   UNK d   1       3.017   3.226   4.317  0.00  0.00    -0.352 OA
BRANCH  24  25
ATOM     25  C   UNK d   1       3.313   4.568   4.530  0.00  0.00     0.171 C 
ATOM     26  C   UNK d   1       3.547   5.353   3.285  0.00  0.00     0.034 C 
ENDBRANCH  24  25
ENDBRANCH  21  24
ENDBRANCH  16  18
ENDBRANCH  13  14
ENDBRANCH   8  13
BRANCH   1  27
ATOM     27  C   UNK d   1      -0.572  -2.514  -3.654  0.00  0.00     0.046 A 
ATOM     28  C   UNK d   1       0.267  -2.407  -4.744  0.00  0.00     0.031 A 
ATOM     29  C   UNK d   1       1.098  -3.446  -5.135  0.00  0.00     0.021 A 
ATOM     30  C   UNK d   1       1.126  -4.642  -4.449  0.00  0.00     0.011 A 
ATOM     31 Br   UNK d   1       2.258  -6.087  -4.971  0.00  0.00    -0.051 Br
ATOM     32  C   UNK d   1       0.281  -4.746  -3.351  0.00  0.00     0.021 A 
ATOM     33  C   UNK d   1      -0.546  -3.712  -2.963  0.00  0.00     0.031 A 
ENDBRANCH   1  27
TORSDOF 6
