REMARK  3 active torsions:
REMARK  status: ('A' for Active; 'I' for Inactive)
REMARK    1  A    between atoms: C_5  and  N_8 
REMARK    2  A    between atoms: N_15  and  C_16 
REMARK    3  A    between atoms: C_19  and  N_22 
ROOT
ATOM      1  N   UNK d   1      -0.752  -0.064  -1.858  0.00  0.00    -0.241 N 
ATOM      2  C   UNK d   1      -0.787   0.072  -0.514  0.00  0.00     0.286 A 
ATOM      3  O   UNK d   1      -1.785   0.394   0.207  0.00  0.00    -0.265 OA
ATOM      4  C   UNK d   1       0.453  -0.190   0.039  0.00  0.00     0.160 A 
ATOM      5  C   UNK d   1       1.239  -0.488  -0.998  0.00  0.00     0.152 A 
ATOM      6  N   UNK d   1       2.455  -0.746  -0.459  0.00  0.00    -0.278 N 
ATOM      7  N   UNK d   1       2.373  -0.601   0.853  0.00  0.00    -0.234 N 
ATOM      8  N   UNK d   1       1.142  -0.256   1.192  0.00  0.00    -0.234 N 
ATOM      9  C   UNK d   1       0.509  -0.413  -2.165  0.00  0.00     0.286 A 
ATOM     10  O   UNK d   1       0.900  -0.624  -3.340  0.00  0.00    -0.265 OA
ATOM     11  H   UNK d   1       3.307  -1.015  -1.017  0.00  0.00     0.189 HD
ATOM     12  H   UNK d   1       3.143  -0.729   1.560  0.00  0.00     0.209 HD
ENDROOT
BRANCH   8  13
ATOM     13  C   UNK d   1       0.654  -0.007   2.516  0.00  0.00     0.058 A 
ATOM     14  C   UNK d   1      -0.095  -0.951   3.188  0.00  0.00     0.034 A 
ATOM     15  C   UNK d   1      -0.581  -0.739   4.472  0.00  0.00     0.038 A 
ATOM     16  C   UNK d   1      -0.320   0.449   5.121  0.00  0.00     0.103 A 
ATOM     17  C   UNK d   1       0.428   1.394   4.452  0.00  0.00     0.038 A 
ATOM     18  C   UNK d   1       0.912   1.179   3.171  0.00  0.00     0.034 A 
BRANCH  16  19
ATOM     19  N   UNK d   1      -0.805   0.696   6.438  0.00  0.00    -0.116 N 
ATOM     20  O   UNK d   1      -1.483  -0.141   7.063  0.00  0.00    -0.532 OA
ATOM     21  O   UNK d   1      -0.523   1.882   7.038  0.00  0.00    -0.532 OA
ENDBRANCH  16  19
ENDBRANCH   8  13
BRANCH   1  22
ATOM     22  C   UNK d   1      -1.854   0.131  -2.754  0.00  0.00     0.046 A 
ATOM     23  C   UNK d   1      -3.150  -0.199  -2.417  0.00  0.00     0.031 A 
ATOM     24  C   UNK d   1      -4.199   0.002  -3.310  0.00  0.00     0.021 A 
ATOM     25  C   UNK d   1      -3.975   0.539  -4.561  0.00  0.00     0.011 A 
ATOM     26 Br   UNK d   1      -5.404   0.824  -5.803  0.00  0.00    -0.051 Br
ATOM     27  C   UNK d   1      -2.680   0.871  -4.901  0.00  0.00     0.021 A 
ATOM     28  C   UNK d   1      -1.645   0.667  -4.008  0.00  0.00     0.031 A 
ENDBRANCH   1  22
TORSDOF 3
