# created with PyMOL 2.3.2
@<TRIPOS>MOLECULE
425
38 42 1                 
SMALL
USER_CHARGES
@<TRIPOS>ATOM
1	  Br	-7.367	-2.584	0.879	Br	1	UNK0	0.000	
2	   C	-5.496	-2.633	0.571	C.2	1	UNK0	0.000	
3	   C	-4.968	-1.952	-0.499	C.2	1	UNK0	0.000	
4	   C	-3.606	-2.004	-0.698	C.2	1	UNK0	0.000	
5	   C	-2.769	-2.713	0.135	C.2	1	UNK0	0.000	
6	   C	-3.301	-3.401	1.217	C.2	1	UNK0	0.000	
7	   C	-4.682	-3.345	1.416	C.2	1	UNK0	0.000	
8	   N	-1.353	-2.757	-0.082	N.pl3	1	UNK0	0.000	
9	   C	-0.414	-2.278	0.868	C.2	1	UNK0	0.000	
10	   O	-0.670	-2.099	2.083	O.2	1	UNK0	0.000	
11	   C	0.886	-2.035	0.187	C.3	1	UNK0	0.000	
12	   C	1.038	-0.611	-0.251	C.3	1	UNK0	0.000	
13	   O	1.830	-0.783	-1.408	O.3	1	UNK0	0.000	
14	   C	0.918	-1.604	-2.118	C.3	1	UNK0	0.000	
15	   C	0.751	-2.737	-1.165	C.3	1	UNK0	0.000	
16	   C	-0.643	-3.254	-1.216	C.2	1	UNK0	0.000	
17	   O	-1.089	-3.989	-2.101	O.2	1	UNK0	0.000	
18	   C	-0.291	-0.743	-2.043	C.2	1	UNK0	0.000	
19	   C	-0.237	-0.175	-0.842	C.2	1	UNK0	0.000	
20	   C	1.648	0.294	0.731	C.3	1	UNK0	0.000	
21	   O	0.899	0.477	1.861	O.3	1	UNK0	0.000	
22	   C	0.417	1.762	1.868	C.3	1	UNK0	0.000	
23	   C	0.934	2.414	0.628	C.3	1	UNK0	0.000	
24	   O	1.919	1.537	0.188	O.3	1	UNK0	0.000	
25	   H	-5.588	-1.375	-1.191	 H	1	UNK0	0.000	
26	   H	-3.151	-1.470	-1.546	 H	1	UNK0	0.000	
27	   H	-2.635	-3.950	1.860	 H	1	UNK0	0.000	
28	   H	-5.096	-3.881	2.258	 H	1	UNK0	0.000	
29	   H	1.713	-2.412	0.787	 H	1	UNK0	0.000	
30	   H	1.248	-1.850	-3.112	 H	1	UNK0	0.000	
31	   H	1.482	-3.539	-1.269	 H	1	UNK0	0.000	
32	   H	-1.014	-0.654	-2.843	 H	1	UNK0	0.000	
33	   H	-1.034	0.463	-0.474	 H	1	UNK0	0.000	
34	   H	2.637	-0.145	1.031	 H	1	UNK0	0.000	
35	   H	0.725	2.345	2.758	 H	1	UNK0	0.000	
36	   H	-0.700	1.707	1.793	 H	1	UNK0	0.000	
37	   H	1.376	3.426	0.864	 H	1	UNK0	0.000	
38	   H	0.159	2.520	-0.173	 H	1	UNK0	0.000	
@<TRIPOS>BOND
1 1 2 1
2 2 3 2
3 2 7 1
4 3 4 1
5 4 5 2
6 5 6 1
7 5 8 1
8 6 7 2
9 8 9 1
10 8 16 1
11 9 10 2
12 9 11 1
13 11 12 1
14 11 15 1
15 12 13 1
16 12 19 1
17 12 20 1
18 13 14 1
19 14 15 1
20 14 18 1
21 15 16 1
22 16 17 2
23 18 19 2
24 20 21 1
25 20 24 1
26 21 22 1
27 22 23 1
28 23 24 1
29 3 25 1
30 4 26 1
31 6 27 1
32 7 28 1
33 11 29 1
34 14 30 1
35 15 31 1
36 18 32 1
37 19 33 1
38 20 34 1
39 22 35 1
40 22 36 1
41 23 37 1
42 23 38 1
@<TRIPOS>SUBSTRUCTURE
1	UNK0	1	GROUP	1 ****	UNK
