REMARK  2 active torsions:
REMARK  status: ('A' for Active; 'I' for Inactive)
REMARK    1  A    between atoms: C_5  and  N_8 
REMARK    2  A    between atoms: C_12  and  C_20 
ROOT
ATOM      1  N   UNK d   1      -1.353  -2.757  -0.082  0.00  0.00    -0.252 N 
ATOM      2  C   UNK d   1      -0.414  -2.278   0.868  0.00  0.00     0.239 C 
ATOM      3  O   UNK d   1      -0.670  -2.099   2.083  0.00  0.00    -0.272 OA
ATOM      4  C   UNK d   1       0.886  -2.035   0.187  0.00  0.00     0.138 C 
ATOM      5  C   UNK d   1       1.038  -0.611  -0.251  0.00  0.00     0.142 C 
ATOM      6  O   UNK d   1       1.830  -0.783  -1.408  0.00  0.00    -0.360 OA
ATOM      7  C   UNK d   1       0.918  -1.604  -2.118  0.00  0.00     0.160 C 
ATOM      8  C   UNK d   1       0.751  -2.737  -1.165  0.00  0.00     0.128 C 
ATOM      9  C   UNK d   1      -0.643  -3.254  -1.216  0.00  0.00     0.239 C 
ATOM     10  O   UNK d   1      -1.089  -3.989  -2.101  0.00  0.00    -0.272 OA
ATOM     11  C   UNK d   1      -0.291  -0.743  -2.043  0.00  0.00     0.005 C 
ATOM     12  C   UNK d   1      -0.237  -0.175  -0.842  0.00  0.00     0.015 C 
ENDROOT
BRANCH   1  13
ATOM     13  C   UNK d   1      -2.769  -2.713   0.135  0.00  0.00     0.045 A 
ATOM     14  C   UNK d   1      -3.606  -2.004  -0.698  0.00  0.00     0.031 A 
ATOM     15  C   UNK d   1      -4.968  -1.952  -0.499  0.00  0.00     0.021 A 
ATOM     16  C   UNK d   1      -5.496  -2.633   0.571  0.00  0.00     0.011 A 
ATOM     17 Br   UNK d   1      -7.367  -2.584   0.879  0.00  0.00    -0.051 Br
ATOM     18  C   UNK d   1      -4.682  -3.345   1.416  0.00  0.00     0.021 A 
ATOM     19  C   UNK d   1      -3.301  -3.401   1.217  0.00  0.00     0.031 A 
ENDBRANCH   1  13
BRANCH   5  20
ATOM     20  C   UNK d   1       1.648   0.294   0.731  0.00  0.00     0.298 C 
ATOM     21  O   UNK d   1       0.899   0.477   1.861  0.00  0.00    -0.356 OA
ATOM     22  C   UNK d   1       0.417   1.762   1.868  0.00  0.00     0.197 C 
ATOM     23  C   UNK d   1       0.934   2.414   0.628  0.00  0.00     0.197 C 
ATOM     24  O   UNK d   1       1.919   1.537   0.188  0.00  0.00    -0.356 OA
ENDBRANCH   5  20
TORSDOF 2
