REMARK  5 active torsions:
REMARK  status: ('A' for Active; 'I' for Inactive)
REMARK    1  A    between atoms: C_5  and  N_8 
REMARK    2  A    between atoms: C_14  and  C_18 
REMARK    3  A    between atoms: C_18  and  O_20 
REMARK    4  A    between atoms: O_20  and  C_21 
REMARK    5  A    between atoms: C_21  and  C_22 
ROOT
ATOM      1  N   UNK d   1       3.476  -1.403   0.861  0.00  0.00    -0.247 N 
ATOM      2  C   UNK d   1       3.169  -2.723   0.372  0.00  0.00     0.255 C 
ATOM      3  O   UNK d   1       3.236  -3.798   1.033  0.00  0.00    -0.270 OA
ATOM      4  C   UNK d   1       2.763  -2.572  -1.044  0.00  0.00     0.210 C 
ATOM      5  N   UNK d   1       1.745  -3.508  -1.479  0.00  0.00    -0.222 NA
ATOM      6  N   UNK d   1       1.020  -2.645  -2.358  0.00  0.00    -0.314 N 
ATOM      7  C   UNK d   1       0.921  -1.357  -1.750  0.00  0.00     0.132 C 
ATOM      8  C   UNK d   1       1.973  -1.287  -0.942  0.00  0.00     0.073 C 
ATOM      9  C   UNK d   1       2.724  -0.507   0.034  0.00  0.00     0.266 C 
ATOM     10  O   UNK d   1       2.656   0.753   0.066  0.00  0.00    -0.267 OA
ATOM     11  H   UNK d   1       1.108  -3.629  -0.642  0.00  0.00     0.147 HD
ATOM     12  H   UNK d   1       0.626  -2.901  -3.284  0.00  0.00     0.181 HD
ENDROOT
BRANCH   7  13
ATOM     13  C   UNK d   1      -0.096  -0.333  -1.962  0.00  0.00     0.312 C 
ATOM     14  O   UNK d   1      -0.067   0.762  -1.353  0.00  0.00    -0.258 OA
BRANCH  13  15
ATOM     15  O   UNK d   1      -1.150  -0.511  -2.846  0.00  0.00    -0.312 OA
BRANCH  15  16
ATOM     16  C   UNK d   1      -2.137   0.492  -3.043  0.00  0.00     0.217 C 
BRANCH  16  17
ATOM     17  C   UNK d   1      -2.833   0.764  -1.741  0.00  0.00    -0.034 A 
ATOM     18  C   UNK d   1      -2.974  -0.248  -0.793  0.00  0.00     0.009 A 
ATOM     19  C   UNK d   1      -3.597  -0.041   0.408  0.00  0.00     0.001 A 
ATOM     20  C   UNK d   1      -4.109   1.222   0.693  0.00  0.00     0.000 A 
ATOM     21  C   UNK d   1      -3.968   2.219  -0.247  0.00  0.00     0.001 A 
ATOM     22  C   UNK d   1      -3.329   1.997  -1.469  0.00  0.00     0.009 A 
ENDBRANCH  16  17
ENDBRANCH  15  16
ENDBRANCH  13  15
ENDBRANCH   7  13
BRANCH   1  23
ATOM     23  C   UNK d   1       4.327  -1.036   1.927  0.00  0.00     0.045 A 
ATOM     24  C   UNK d   1       3.837  -0.262   2.986  0.00  0.00     0.031 A 
ATOM     25  C   UNK d   1       4.586   0.134   4.047  0.00  0.00     0.021 A 
ATOM     26  C   UNK d   1       5.905  -0.238   4.099  0.00  0.00     0.011 A 
ATOM     27 Br   UNK d   1       6.990   0.310   5.595  0.00  0.00    -0.051 Br
ATOM     28  C   UNK d   1       6.427  -1.002   3.073  0.00  0.00     0.021 A 
ATOM     29  C   UNK d   1       5.646  -1.394   2.002  0.00  0.00     0.031 A 
ENDBRANCH   1  23
TORSDOF 5
