# created with PyMOL 2.3.2
@<TRIPOS>MOLECULE
428
45 48 1                 
SMALL
USER_CHARGES
@<TRIPOS>ATOM
1	  Br	-0.570	-6.948	0.502	Br	1	UNK0	0.000	
2	   C	-0.906	-5.092	0.219	C.2	1	UNK0	0.000	
3	   C	0.059	-4.323	-0.374	C.2	1	UNK0	0.000	
4	   C	-0.179	-2.970	-0.583	C.2	1	UNK0	0.000	
5	   C	-1.363	-2.375	-0.210	C.2	1	UNK0	0.000	
6	   C	-2.320	-3.167	0.385	C.2	1	UNK0	0.000	
7	   C	-2.107	-4.518	0.604	C.2	1	UNK0	0.000	
8	   N	-1.519	-0.987	-0.465	N.pl3	1	UNK0	0.000	
9	   C	-2.642	-0.508	-1.228	C.2	1	UNK0	0.000	
10	   O	-3.489	-1.332	-1.671	O.2	1	UNK0	0.000	
11	   N	-2.730	0.883	-1.438	N.2	1	UNK0	0.000	
12	   C	-1.892	1.729	-1.002	C.2	1	UNK0	0.000	
13	   C	-0.680	1.424	-0.202	C.3	1	UNK0	0.000	
14	   C	0.498	2.011	-0.900	C.3	1	UNK0	0.000	
15	   N	1.603	2.389	-0.096	N.4	1	UNK0	0.000	
16	   C	1.573	1.947	1.242	C.2	1	UNK0	0.000	
17	   C	0.354	1.817	1.919	C.2	1	UNK0	0.000	
18	   C	0.345	1.387	3.216	C.2	1	UNK0	0.000	
19	   C	1.482	1.064	3.921	C.2	1	UNK0	0.000	
20	   C	2.680	1.193	3.250	C.2	1	UNK0	0.000	
21	   C	2.722	1.628	1.932	C.2	1	UNK0	0.000	
22	   C	1.432	0.599	5.327	C.3	1	UNK0	0.000	
23	   C	-0.848	2.175	1.122	C.3	1	UNK0	0.000	
24	   C	1.865	3.837	-0.152	C.3	1	UNK0	0.000	
25	   C	-0.580	-0.034	0.022	C.2	1	UNK0	0.000	
26	   O	0.391	-0.524	0.688	O.2	1	UNK0	0.000	
27	   O	-2.104	3.095	-1.287	O.2	1	UNK0	0.000	
28	   H	0.986	-4.800	-0.664	 H	1	UNK0	0.000	
29	   H	0.626	-2.418	-1.058	 H	1	UNK0	0.000	
30	   H	-3.265	-2.732	0.691	 H	1	UNK0	0.000	
31	   H	-2.836	-5.164	1.066	 H	1	UNK0	0.000	
32	   H	0.780	1.319	-1.728	 H	1	UNK0	0.000	
33	   H	0.136	2.942	-1.430	 H	1	UNK0	0.000	
34	   H	2.474	1.958	-0.529	 H	1	UNK0	0.000	
35	   H	-0.623	1.298	3.709	 H	1	UNK0	0.000	
36	   H	3.600	0.950	3.771	 H	1	UNK0	0.000	
37	   H	3.671	1.722	1.429	 H	1	UNK0	0.000	
38	   H	2.363	0.742	5.869	 H	1	UNK0	0.000	
39	   H	0.544	1.055	5.807	 H	1	UNK0	0.000	
40	   H	1.220	-0.508	5.274	 H	1	UNK0	0.000	
41	   H	-1.785	1.899	1.625	 H	1	UNK0	0.000	
42	   H	-0.785	3.249	0.870	 H	1	UNK0	0.000	
43	   H	1.319	4.379	0.639	 H	1	UNK0	0.000	
44	   H	1.621	4.201	-1.166	 H	1	UNK0	0.000	
45	   H	2.947	4.000	0.030	 H	1	UNK0	0.000	
@<TRIPOS>BOND
1 1 2 1
2 2 3 2
3 2 7 1
4 3 4 1
5 4 5 2
6 5 6 1
7 5 8 1
8 6 7 2
9 8 9 1
10 8 25 1
11 9 10 2
12 9 11 1
13 11 12 2
14 12 13 1
15 12 27 1
16 13 14 1
17 13 23 1
18 13 25 1
19 14 15 1
20 15 16 1
21 15 24 1
22 16 17 2
23 16 21 1
24 17 18 1
25 17 23 1
26 18 19 2
27 19 20 1
28 19 22 1
29 20 21 2
30 25 26 2
31 3 28 1
32 4 29 1
33 6 30 1
34 7 31 1
35 14 32 1
36 14 33 1
37 15 34 1
38 18 35 1
39 20 36 1
40 21 37 1
41 22 38 1
42 22 39 1
43 22 40 1
44 23 41 1
45 23 42 1
46 24 43 1
47 24 44 1
48 24 45 1
@<TRIPOS>SUBSTRUCTURE
1	UNK0	1	GROUP	1 ****	UNK
