REMARK  1 active torsions:
REMARK  status: ('A' for Active; 'I' for Inactive)
REMARK    1  A    between atoms: C_5  and  N_8 
ROOT
ATOM      1  N   UNK d   1      -1.519  -0.987  -0.465  0.00  0.00    -0.231 N 
ATOM      2  C   UNK d   1      -2.642  -0.508  -1.228  0.00  0.00     0.357 A 
ATOM      3  O   UNK d   1      -3.489  -1.332  -1.671  0.00  0.00    -0.244 OA
ATOM      4  N   UNK d   1      -2.730   0.883  -1.438  0.00  0.00    -0.169 NA
ATOM      5  C   UNK d   1      -1.892   1.729  -1.002  0.00  0.00     0.202 A 
ATOM      6  C   UNK d   1      -0.680   1.424  -0.202  0.00  0.00     0.140 A 
ATOM      7  C   UNK d   1       0.498   2.011  -0.900  0.00  0.00     0.269 C 
ATOM      8  N   UNK d   1       1.603   2.389  -0.096  0.00  0.00    -0.043 N 
ATOM      9  C   UNK d   1       1.573   1.947   1.242  0.00  0.00     0.140 A 
ATOM     10  C   UNK d   1       0.354   1.817   1.919  0.00  0.00    -0.021 A 
ATOM     11  C   UNK d   1       0.345   1.387   3.216  0.00  0.00     0.016 A 
ATOM     12  C   UNK d   1       1.482   1.064   3.921  0.00  0.00    -0.061 A 
ATOM     13  C   UNK d   1       2.680   1.193   3.250  0.00  0.00     0.009 A 
ATOM     14  C   UNK d   1       2.722   1.628   1.932  0.00  0.00     0.038 A 
ATOM     15  C   UNK d   1       1.432   0.599   5.327  0.00  0.00     0.048 C 
ATOM     16  C   UNK d   1      -0.848   2.175   1.122  0.00  0.00     0.070 C 
ATOM     17  C   UNK d   1       1.865   3.837  -0.152  0.00  0.00     0.276 C 
ATOM     18  C   UNK d   1      -0.580  -0.034   0.022  0.00  0.00     0.251 A 
ATOM     19  O   UNK d   1       0.391  -0.524   0.688  0.00  0.00    -0.271 OA
ATOM     20  O   UNK d   1      -2.104   3.095  -1.287  0.00  0.00    -0.173 OA
ATOM     21  H   UNK d   1       2.474   1.958  -0.529  0.00  0.00     0.286 HD
ENDROOT
BRANCH   1  22
ATOM     22  C   UNK d   1      -1.363  -2.375  -0.210  0.00  0.00     0.047 A 
ATOM     23  C   UNK d   1      -0.179  -2.970  -0.583  0.00  0.00     0.031 A 
ATOM     24  C   UNK d   1       0.059  -4.323  -0.374  0.00  0.00     0.021 A 
ATOM     25  C   UNK d   1      -0.906  -5.092   0.219  0.00  0.00     0.011 A 
ATOM     26 Br   UNK d   1      -0.570  -6.948   0.502  0.00  0.00    -0.051 Br
ATOM     27  C   UNK d   1      -2.107  -4.518   0.604  0.00  0.00     0.021 A 
ATOM     28  C   UNK d   1      -2.320  -3.167   0.385  0.00  0.00     0.031 A 
ENDBRANCH   1  22
TORSDOF 1
