# created with PyMOL 2.3.2
@<TRIPOS>MOLECULE
429
50 53 1                 
SMALL
USER_CHARGES
@<TRIPOS>ATOM
1	  Br	-6.492	2.559	0.534	Br	1	UNK0	0.000	
2	   C	-4.614	2.565	0.163	C.2	1	UNK0	0.000	
3	   C	-4.137	2.201	-1.085	C.2	1	UNK0	0.000	
4	   C	-2.780	2.209	-1.344	C.2	1	UNK0	0.000	
5	   C	-1.855	2.573	-0.386	C.2	1	UNK0	0.000	
6	   C	-2.314	2.938	0.862	C.2	1	UNK0	0.000	
7	   C	-3.673	2.925	1.103	C.2	1	UNK0	0.000	
8	   N	-0.490	2.564	-0.694	N.pl3	1	UNK0	0.000	
9	   C	-0.030	3.198	-1.889	C.2	1	UNK0	0.000	
10	   O	-0.902	3.753	-2.631	O.2	1	UNK0	0.000	
11	   N	1.351	3.188	-2.203	N.pl3	1	UNK0	0.000	
12	   C	2.344	2.573	-1.388	C.2	1	UNK0	0.000	
13	   O	3.569	2.581	-1.694	O.2	1	UNK0	0.000	
14	   C	1.905	1.910	-0.147	C.2	1	UNK0	0.000	
15	   C	2.780	1.319	0.652	C.2	1	UNK0	0.000	
16	   N	2.326	0.688	1.841	N.pl3	1	UNK0	0.000	
17	   N	2.194	-0.679	2.022	N.pl3	1	UNK0	0.000	
18	   C	1.611	-1.567	1.076	C.2	1	UNK0	0.000	
19	   N	1.470	-2.886	1.243	N.pl3	1	UNK0	0.000	
20	   C	0.879	-3.415	0.159	C.2	1	UNK0	0.000	
21	   C	0.640	-2.374	-0.728	C.2	1	UNK0	0.000	
22	   N	1.102	-1.281	-0.123	N.2	1	UNK0	0.000	
23	   N	0.053	-2.583	-1.920	N.pl3	1	UNK0	0.000	
24	   C	-0.306	-3.823	-2.253	C.2	1	UNK0	0.000	
25	   O	-0.863	-4.063	-3.368	O.2	1	UNK0	0.000	
26	   N	-0.102	-4.888	-1.432	N.pl3	1	UNK0	0.000	
27	   C	0.490	-4.667	-0.235	C.2	1	UNK0	0.000	
28	   O	0.680	-5.642	0.521	O.2	1	UNK0	0.000	
29	   C	-0.510	-6.209	-1.837	C.3	1	UNK0	0.000	
30	   C	-0.160	-1.459	-2.783	C.3	1	UNK0	0.000	
31	   C	1.860	-3.722	2.384	C.3	1	UNK0	0.000	
32	   C	0.477	1.938	0.148	C.2	1	UNK0	0.000	
33	   O	0.055	1.385	1.196	O.2	1	UNK0	0.000	
34	   H	-4.880	1.921	-1.819	 H	1	UNK0	0.000	
35	   H	-2.493	1.906	-2.356	 H	1	UNK0	0.000	
36	   H	-1.627	3.239	1.668	 H	1	UNK0	0.000	
37	   H	-3.993	3.217	2.093	 H	1	UNK0	0.000	
38	   H	1.646	3.664	-3.087	 H	1	UNK0	0.000	
39	   H	3.825	1.298	0.434	 H	1	UNK0	0.000	
40	   H	2.078	1.341	2.633	 H	1	UNK0	0.000	
41	   H	2.570	-1.045	2.945	 H	1	UNK0	0.000	
42	   H	-1.132	-6.127	-2.752	 H	1	UNK0	0.000	
43	   H	-1.161	-6.688	-1.072	 H	1	UNK0	0.000	
44	   H	0.380	-6.838	-2.016	 H	1	UNK0	0.000	
45	   H	0.627	-1.353	-3.556	 H	1	UNK0	0.000	
46	   H	-1.164	-1.562	-3.245	 H	1	UNK0	0.000	
47	   H	-0.175	-0.518	-2.195	 H	1	UNK0	0.000	
48	   H	0.948	-3.850	3.035	 H	1	UNK0	0.000	
49	   H	2.168	-4.720	2.071	 H	1	UNK0	0.000	
50	   H	2.611	-3.184	2.994	 H	1	UNK0	0.000	
@<TRIPOS>BOND
1 1 2 1
2 2 3 2
3 2 7 1
4 3 4 1
5 4 5 2
6 5 6 1
7 5 8 1
8 6 7 2
9 8 9 1
10 8 32 1
11 9 10 2
12 9 11 1
13 11 12 1
14 12 13 2
15 12 14 1
16 14 15 2
17 14 32 1
18 15 16 1
19 16 17 1
20 17 18 1
21 18 19 1
22 18 22 2
23 19 20 1
24 19 31 1
25 20 21 2
26 20 27 1
27 21 22 1
28 21 23 1
29 23 24 1
30 23 30 1
31 24 25 2
32 24 26 1
33 26 27 1
34 26 29 1
35 27 28 2
36 32 33 2
37 3 34 1
38 4 35 1
39 6 36 1
40 7 37 1
41 11 38 1
42 15 39 1
43 16 40 1
44 17 41 1
45 29 42 1
46 29 43 1
47 29 44 1
48 30 45 1
49 30 46 1
50 30 47 1
51 31 48 1
52 31 49 1
53 31 50 1
@<TRIPOS>SUBSTRUCTURE
1	UNK0	1	GROUP	1 ****	UNK
