REMARK  4 active torsions:
REMARK  status: ('A' for Active; 'I' for Inactive)
REMARK    1  A    between atoms: C_5  and  N_8 
REMARK    2  A    between atoms: C_15  and  N_16 
REMARK    3  A    between atoms: N_16  and  N_17 
REMARK    4  A    between atoms: N_17  and  C_18 
ROOT
ATOM      1  N   UNK d   1      -0.490   2.564  -0.694  0.00  0.00    -0.229 N 
ATOM      2  C   UNK d   1      -0.030   3.198  -1.889  0.00  0.00     0.337 A 
ATOM      3  O   UNK d   1      -0.902   3.753  -2.631  0.00  0.00    -0.246 OA
ATOM      4  N   UNK d   1       1.351   3.188  -2.203  0.00  0.00    -0.274 N 
ATOM      5  C   UNK d   1       2.344   2.573  -1.388  0.00  0.00     0.266 A 
ATOM      6  O   UNK d   1       3.569   2.581  -1.694  0.00  0.00    -0.267 OA
ATOM      7  C   UNK d   1       1.905   1.910  -0.147  0.00  0.00     0.117 A 
ATOM      8  C   UNK d   1       2.780   1.319   0.652  0.00  0.00     0.130 C 
ATOM      9  C   UNK d   1       0.477   1.938   0.148  0.00  0.00     0.273 A 
ATOM     10  O   UNK d   1       0.055   1.385   1.196  0.00  0.00    -0.266 OA
ATOM     11  H   UNK d   1       1.646   3.664  -3.087  0.00  0.00     0.173 HD
ENDROOT
BRANCH   8  12
ATOM     12  N   UNK d   1       2.326   0.688   1.841  0.00  0.00    -0.296 N 
ATOM     13  H   UNK d   1       2.078   1.341   2.633  0.00  0.00     0.186 HD
BRANCH  12  14
ATOM     14  N   UNK d   1       2.194  -0.679   2.022  0.00  0.00    -0.130 N 
ATOM     15  H   UNK d   1       2.570  -1.045   2.945  0.00  0.00     0.205 HD
BRANCH  14  16
ATOM     16  C   UNK d   1       1.611  -1.567   1.076  0.00  0.00     0.723 A 
ATOM     17  N   UNK d   1       1.470  -2.886   1.243  0.00  0.00    -0.175 N 
ATOM     18  C   UNK d   1       0.879  -3.415   0.159  0.00  0.00     0.166 A 
ATOM     19  C   UNK d   1       1.860  -3.722   2.384  0.00  0.00     0.176 C 
ATOM     20  C   UNK d   1       0.640  -2.374  -0.728  0.00  0.00     0.186 A 
ATOM     21  C   UNK d   1       0.490  -4.667  -0.235  0.00  0.00     0.282 A 
ATOM     22  N   UNK d   1       1.102  -1.281  -0.123  0.00  0.00    -0.042 NA
ATOM     23  N   UNK d   1       0.053  -2.583  -1.920  0.00  0.00    -0.285 N 
ATOM     24  C   UNK d   1      -0.306  -3.823  -2.253  0.00  0.00     0.332 A 
ATOM     25  C   UNK d   1      -0.160  -1.459  -2.783  0.00  0.00     0.163 C 
ATOM     26  O   UNK d   1      -0.863  -4.063  -3.368  0.00  0.00    -0.246 OA
ATOM     27  N   UNK d   1      -0.102  -4.888  -1.432  0.00  0.00    -0.269 N 
ATOM     28  C   UNK d   1      -0.510  -6.209  -1.837  0.00  0.00     0.164 C 
ATOM     29  O   UNK d   1       0.680  -5.642   0.521  0.00  0.00    -0.265 OA
ENDBRANCH  14  16
ENDBRANCH  12  14
ENDBRANCH   8  12
BRANCH   1  30
ATOM     30  C   UNK d   1      -1.855   2.573  -0.386  0.00  0.00     0.047 A 
ATOM     31  C   UNK d   1      -2.780   2.209  -1.344  0.00  0.00     0.031 A 
ATOM     32  C   UNK d   1      -4.137   2.201  -1.085  0.00  0.00     0.021 A 
ATOM     33  C   UNK d   1      -4.614   2.565   0.163  0.00  0.00     0.011 A 
ATOM     34 Br   UNK d   1      -6.492   2.559   0.534  0.00  0.00    -0.051 Br
ATOM     35  C   UNK d   1      -3.673   2.925   1.103  0.00  0.00     0.021 A 
ATOM     36  C   UNK d   1      -2.314   2.938   0.862  0.00  0.00     0.031 A 
ENDBRANCH   1  30
TORSDOF 4
