# created with PyMOL 2.3.2
@<TRIPOS>MOLECULE
436
44 47 1                 
SMALL
USER_CHARGES
@<TRIPOS>ATOM
1	  Br	1.574	3.197	6.341	Br	1	UNK0	0.000	
2	   C	0.640	2.501	4.858	C.2	1	UNK0	0.000	
3	   C	1.242	2.310	3.632	C.2	1	UNK0	0.000	
4	   C	0.529	1.793	2.549	C.2	1	UNK0	0.000	
5	   C	-0.799	1.464	2.697	C.2	1	UNK0	0.000	
6	   C	-1.366	1.668	3.934	C.2	1	UNK0	0.000	
7	   C	-0.692	2.173	5.013	C.2	1	UNK0	0.000	
8	   N	-1.604	0.937	1.662	N.pl3	1	UNK0	0.000	
9	   C	-2.978	0.576	1.949	C.3	1	UNK0	0.000	
10	   C	-3.688	-0.034	0.763	C.3	1	UNK0	0.000	
11	   C	-2.717	-1.047	0.137	C.3	1	UNK0	0.000	
12	   N	-1.679	-0.247	-0.459	N.pl3	1	UNK0	0.000	
13	   C	-1.146	0.734	0.331	C.2	1	UNK0	0.000	
14	   N	-0.202	1.380	-0.373	N.2	1	UNK0	0.000	
15	   C	-0.159	0.790	-1.594	C.2	1	UNK0	0.000	
16	   C	-1.087	-0.238	-1.657	C.2	1	UNK0	0.000	
17	   C	-1.230	-0.989	-2.807	C.2	1	UNK0	0.000	
18	   O	-2.096	-1.927	-2.824	O.2	1	UNK0	0.000	
19	   N	-0.457	-0.716	-3.873	N.pl3	1	UNK0	0.000	
20	   C	0.435	0.286	-3.785	C.2	1	UNK0	0.000	
21	   O	1.139	0.508	-4.807	O.2	1	UNK0	0.000	
22	   N	0.590	1.024	-2.686	N.pl3	1	UNK0	0.000	
23	   C	1.566	2.102	-2.626	C.3	1	UNK0	0.000	
24	   C	-0.599	-1.501	-5.087	C.3	1	UNK0	0.000	
25	   C	0.334	-2.673	-5.009	C.2	1	UNK0	0.000	
26	   O	0.394	-3.503	-5.946	O.2	1	UNK0	0.000	
27	   N	1.168	-2.876	-3.886	N.pl3	1	UNK0	0.000	
28	   H	2.288	2.562	3.491	 H	1	UNK0	0.000	
29	   H	1.041	1.658	1.608	 H	1	UNK0	0.000	
30	   H	-2.425	1.420	4.104	 H	1	UNK0	0.000	
31	   H	-1.192	2.310	5.960	 H	1	UNK0	0.000	
32	   H	-2.984	-0.217	2.752	 H	1	UNK0	0.000	
33	   H	-3.553	1.436	2.364	 H	1	UNK0	0.000	
34	   H	-3.921	0.765	0.007	 H	1	UNK0	0.000	
35	   H	-4.581	-0.559	1.091	 H	1	UNK0	0.000	
36	   H	-3.217	-1.714	-0.566	 H	1	UNK0	0.000	
37	   H	-2.264	-1.586	1.016	 H	1	UNK0	0.000	
38	   H	1.365	2.773	-1.793	 H	1	UNK0	0.000	
39	   H	2.589	1.692	-2.663	 H	1	UNK0	0.000	
40	   H	1.428	2.678	-3.585	 H	1	UNK0	0.000	
41	   H	-0.372	-0.887	-5.972	 H	1	UNK0	0.000	
42	   H	-1.628	-1.885	-5.138	 H	1	UNK0	0.000	
43	   H	2.137	-3.260	-3.964	 H	1	UNK0	0.000	
44	   H	0.842	-2.645	-2.915	 H	1	UNK0	0.000	
@<TRIPOS>BOND
1 1 2 1
2 2 3 2
3 2 7 1
4 3 4 1
5 4 5 2
6 5 6 1
7 5 8 1
8 6 7 2
9 8 9 1
10 8 13 1
11 9 10 1
12 10 11 1
13 11 12 1
14 12 13 1
15 12 16 1
16 13 14 2
17 14 15 1
18 15 16 2
19 15 22 1
20 16 17 1
21 17 18 2
22 17 19 1
23 19 20 1
24 19 24 1
25 20 21 2
26 20 22 1
27 22 23 1
28 24 25 1
29 25 26 2
30 25 27 1
31 3 28 1
32 4 29 1
33 6 30 1
34 7 31 1
35 9 32 1
36 9 33 1
37 10 34 1
38 10 35 1
39 11 36 1
40 11 37 1
41 23 38 1
42 23 39 1
43 23 40 1
44 24 41 1
45 24 42 1
46 27 43 1
47 27 44 1
@<TRIPOS>SUBSTRUCTURE
1	UNK0	1	GROUP	1 ****	UNK
