REMARK  3 active torsions:
REMARK  status: ('A' for Active; 'I' for Inactive)
REMARK    1  A    between atoms: C_5  and  N_8 
REMARK    2  A    between atoms: N_19  and  C_24 
REMARK    3  A    between atoms: C_24  and  C_25 
REMARK       I    between atoms: C_25  and  N_27 
ROOT
ATOM      1  N   UNK d   1      -1.604   0.937   1.662  0.00  0.00    -0.181 N 
ATOM      2  C   UNK d   1      -2.978   0.576   1.949  0.00  0.00     0.149 C 
ATOM      3  C   UNK d   1      -3.688  -0.034   0.763  0.00  0.00     0.042 C 
ATOM      4  C   UNK d   1      -2.717  -1.047   0.137  0.00  0.00     0.150 C 
ATOM      5  N   UNK d   1      -1.679  -0.247  -0.459  0.00  0.00    -0.172 N 
ATOM      6  C   UNK d   1      -1.146   0.734   0.331  0.00  0.00     0.712 A 
ATOM      7  N   UNK d   1      -0.202   1.380  -0.373  0.00  0.00    -0.043 NA
ATOM      8  C   UNK d   1      -0.159   0.790  -1.594  0.00  0.00     0.185 A 
ATOM      9  C   UNK d   1      -1.087  -0.238  -1.657  0.00  0.00     0.166 A 
ATOM     10  C   UNK d   1      -1.230  -0.989  -2.807  0.00  0.00     0.283 A 
ATOM     11  O   UNK d   1      -2.096  -1.927  -2.824  0.00  0.00    -0.265 OA
ATOM     12  N   UNK d   1      -0.457  -0.716  -3.873  0.00  0.00    -0.255 N 
ATOM     13  C   UNK d   1       0.435   0.286  -3.785  0.00  0.00     0.333 A 
ATOM     14  O   UNK d   1       1.139   0.508  -4.807  0.00  0.00    -0.246 OA
ATOM     15  N   UNK d   1       0.590   1.024  -2.686  0.00  0.00    -0.285 N 
ATOM     16  C   UNK d   1       1.566   2.102  -2.626  0.00  0.00     0.163 C 
ENDROOT
BRANCH   1  17
ATOM     17  C   UNK d   1      -0.799   1.464   2.697  0.00  0.00     0.051 A 
ATOM     18  C   UNK d   1       0.529   1.793   2.549  0.00  0.00     0.031 A 
ATOM     19  C   UNK d   1       1.242   2.310   3.632  0.00  0.00     0.021 A 
ATOM     20  C   UNK d   1       0.640   2.501   4.858  0.00  0.00     0.011 A 
ATOM     21 Br   UNK d   1       1.574   3.197   6.341  0.00  0.00    -0.051 Br
ATOM     22  C   UNK d   1      -0.692   2.173   5.013  0.00  0.00     0.021 A 
ATOM     23  C   UNK d   1      -1.366   1.668   3.934  0.00  0.00     0.031 A 
ENDBRANCH   1  17
BRANCH  12  24
ATOM     24  C   UNK d   1      -0.599  -1.501  -5.087  0.00  0.00     0.239 C 
BRANCH  24  25
ATOM     25  C   UNK d   1       0.334  -2.673  -5.009  0.00  0.00     0.233 C 
ATOM     26  O   UNK d   1       0.394  -3.503  -5.946  0.00  0.00    -0.272 OA
ATOM     27  N   UNK d   1       1.168  -2.876  -3.886  0.00  0.00    -0.369 N 
ATOM     28  H   UNK d   1       2.137  -3.260  -3.964  0.00  0.00     0.159 HD
ATOM     29  H   UNK d   1       0.842  -2.645  -2.915  0.00  0.00     0.159 HD
ENDBRANCH  24  25
ENDBRANCH  12  24
TORSDOF 3
