# created with PyMOL 2.3.2
@<TRIPOS>MOLECULE
439
47 51 1                 
SMALL
USER_CHARGES
@<TRIPOS>ATOM
1	  Br	1.805	-7.290	-1.262	Br	1	UNK0	0.000	
2	   C	1.733	-5.381	-1.484	C.2	1	UNK0	0.000	
3	   C	2.827	-4.593	-1.286	C.2	1	UNK0	0.000	
4	   C	2.735	-3.214	-1.457	C.2	1	UNK0	0.000	
5	   C	1.552	-2.608	-1.826	C.2	1	UNK0	0.000	
6	   C	0.467	-3.436	-2.017	C.2	1	UNK0	0.000	
7	   C	0.531	-4.801	-1.855	C.2	1	UNK0	0.000	
8	   N	1.494	-1.196	-1.992	N.pl3	1	UNK0	0.000	
9	   N	1.553	-0.506	-3.126	N.pl3	1	UNK0	0.000	
10	   C	1.464	0.814	-2.879	C.2	1	UNK0	0.000	
11	   C	1.490	1.786	-3.782	C.2	1	UNK0	0.000	
12	   C	1.342	0.998	-1.517	C.2	1	UNK0	0.000	
13	   C	1.226	2.142	-0.837	C.2	1	UNK0	0.000	
14	   N	1.112	2.066	0.579	N.pl3	1	UNK0	0.000	
15	   C	-0.043	2.548	1.280	C.3	1	UNK0	0.000	
16	   C	0.105	2.343	2.754	C.3	1	UNK0	0.000	
17	   N	-1.040	2.932	3.434	N.3	1	UNK0	0.000	
18	   C	-1.059	4.355	3.118	C.3	1	UNK0	0.000	
19	   N	-1.270	4.587	1.710	N.3	1	UNK0	0.000	
20	   C	-2.481	3.896	1.278	C.3	1	UNK0	0.000	
21	   N	-2.417	2.479	1.556	N.3	1	UNK0	0.000	
22	   C	-2.244	2.286	2.977	C.3	1	UNK0	0.000	
23	   C	-1.321	1.875	0.837	C.3	1	UNK0	0.000	
24	   C	-0.166	4.042	0.964	C.3	1	UNK0	0.000	
25	   C	1.365	-0.289	-1.001	C.2	1	UNK0	0.000	
26	   O	1.276	-0.553	0.220	O.2	1	UNK0	0.000	
27	   H	3.759	-5.046	-0.998	 H	1	UNK0	0.000	
28	   H	3.605	-2.594	-1.299	 H	1	UNK0	0.000	
29	   H	-0.466	-2.978	-2.306	 H	1	UNK0	0.000	
30	   H	-0.321	-5.460	-2.004	 H	1	UNK0	0.000	
31	   H	1.653	-0.927	-4.071	 H	1	UNK0	0.000	
32	   H	1.589	1.545	-4.831	 H	1	UNK0	0.000	
33	   H	1.415	2.825	-3.530	 H	1	UNK0	0.000	
34	   H	1.224	3.069	-1.382	 H	1	UNK0	0.000	
35	   H	1.894	1.648	1.104	 H	1	UNK0	0.000	
36	   H	1.053	2.768	3.099	 H	1	UNK0	0.000	
37	   H	0.118	1.245	2.941	 H	1	UNK0	0.000	
38	   H	-0.092	4.782	3.414	 H	1	UNK0	0.000	
39	   H	-1.909	4.827	3.664	 H	1	UNK0	0.000	
40	   H	-2.668	4.123	0.223	 H	1	UNK0	0.000	
41	   H	-3.309	4.336	1.872	 H	1	UNK0	0.000	
42	   H	-2.130	1.196	3.209	 H	1	UNK0	0.000	
43	   H	-3.093	2.711	3.538	 H	1	UNK0	0.000	
44	   H	-1.274	0.797	1.092	 H	1	UNK0	0.000	
45	   H	-1.489	1.976	-0.257	 H	1	UNK0	0.000	
46	   H	0.782	4.498	1.317	 H	1	UNK0	0.000	
47	   H	-0.318	4.139	-0.129	 H	1	UNK0	0.000	
@<TRIPOS>BOND
1 1 2 1
2 2 3 2
3 2 7 1
4 3 4 1
5 4 5 2
6 5 6 1
7 5 8 1
8 6 7 2
9 8 9 1
10 8 25 1
11 9 10 1
12 10 11 2
13 10 12 1
14 12 13 2
15 12 25 1
16 13 14 1
17 14 15 1
18 15 16 1
19 15 23 1
20 15 24 1
21 16 17 1
22 17 18 1
23 17 22 1
24 18 19 1
25 19 20 1
26 19 24 1
27 20 21 1
28 21 22 1
29 21 23 1
30 25 26 2
31 3 27 1
32 4 28 1
33 6 29 1
34 7 30 1
35 9 31 1
36 11 32 1
37 11 33 1
38 13 34 1
39 14 35 1
40 16 36 1
41 16 37 1
42 18 38 1
43 18 39 1
44 20 40 1
45 20 41 1
46 22 42 1
47 22 43 1
48 23 44 1
49 23 45 1
50 24 46 1
51 24 47 1
@<TRIPOS>SUBSTRUCTURE
1	UNK0	1	GROUP	1 ****	UNK
