REMARK  4 active torsions:
REMARK  status: ('A' for Active; 'I' for Inactive)
REMARK    1  A    between atoms: C_5  and  N_8 
REMARK    2  A    between atoms: C_12  and  C_13 
REMARK    3  A    between atoms: C_13  and  N_14 
REMARK    4  A    between atoms: N_14  and  C_15 
ROOT
ATOM      1  N   UNK d   1       1.494  -1.196  -1.992  0.00  0.00    -0.220 N 
ATOM      2  N   UNK d   1       1.553  -0.506  -3.126  0.00  0.00    -0.291 N 
ATOM      3  C   UNK d   1       1.464   0.814  -2.879  0.00  0.00     0.056 A 
ATOM      4  C   UNK d   1       1.490   1.786  -3.782  0.00  0.00     0.045 C 
ATOM      5  C   UNK d   1       1.342   0.998  -1.517  0.00  0.00     0.076 A 
ATOM      6  C   UNK d   1       1.365  -0.289  -1.001  0.00  0.00     0.280 A 
ATOM      7  O   UNK d   1       1.276  -0.553   0.220  0.00  0.00    -0.265 OA
ATOM      8  H   UNK d   1       1.653  -0.927  -4.071  0.00  0.00     0.187 HD
ENDROOT
BRANCH   5   9
ATOM      9  C   UNK d   1       1.226   2.142  -0.837  0.00  0.00     0.103 C 
BRANCH   9  10
ATOM     10  N   UNK d   1       1.112   2.066   0.579  0.00  0.00    -0.384 N 
ATOM     11  H   UNK d   1       1.894   1.648   1.104  0.00  0.00     0.159 HD
BRANCH  10  12
ATOM     12  C   UNK d   1      -0.043   2.548   1.280  0.00  0.00     0.109 C 
ATOM     13  C   UNK d   1       0.105   2.343   2.754  0.00  0.00     0.311 C 
ATOM     14  N   UNK d   1      -1.040   2.932   3.434  0.00  0.00     0.147 N 
ATOM     15  C   UNK d   1      -1.059   4.355   3.118  0.00  0.00     0.547 C 
ATOM     16  C   UNK d   1      -2.244   2.286   2.977  0.00  0.00     0.547 C 
ATOM     17  N   UNK d   1      -1.270   4.587   1.710  0.00  0.00     0.147 N 
ATOM     18  C   UNK d   1      -2.481   3.896   1.278  0.00  0.00     0.547 C 
ATOM     19  C   UNK d   1      -0.166   4.042   0.964  0.00  0.00     0.311 C 
ATOM     20  N   UNK d   1      -2.417   2.479   1.556  0.00  0.00     0.147 N 
ATOM     21  C   UNK d   1      -1.321   1.875   0.837  0.00  0.00     0.311 C 
ENDBRANCH  10  12
ENDBRANCH   9  10
ENDBRANCH   5   9
BRANCH   1  22
ATOM     22  C   UNK d   1       1.552  -2.608  -1.826  0.00  0.00     0.060 A 
ATOM     23  C   UNK d   1       2.735  -3.214  -1.457  0.00  0.00     0.033 A 
ATOM     24  C   UNK d   1       2.827  -4.593  -1.286  0.00  0.00     0.021 A 
ATOM     25  C   UNK d   1       1.733  -5.381  -1.484  0.00  0.00     0.011 A 
ATOM     26 Br   UNK d   1       1.805  -7.290  -1.262  0.00  0.00    -0.051 Br
ATOM     27  C   UNK d   1       0.531  -4.801  -1.855  0.00  0.00     0.021 A 
ATOM     28  C   UNK d   1       0.467  -3.436  -2.017  0.00  0.00     0.033 A 
ENDBRANCH   1  22
TORSDOF 4
