# created with PyMOL 2.3.2
@<TRIPOS>MOLECULE
441
49 52 1                 
SMALL
USER_CHARGES
@<TRIPOS>ATOM
1	  Br	0.576	3.223	9.508	Br	1	UNK0	0.000	
2	   C	0.405	2.566	7.712	C.2	1	UNK0	0.000	
3	   C	0.744	3.379	6.653	C.2	1	UNK0	0.000	
4	   C	0.619	2.900	5.346	C.2	1	UNK0	0.000	
5	   C	0.163	1.627	5.099	C.2	1	UNK0	0.000	
6	   C	-0.169	0.832	6.168	C.2	1	UNK0	0.000	
7	   C	-0.052	1.289	7.460	C.2	1	UNK0	0.000	
8	   O	0.044	1.164	3.807	O.3	1	UNK0	0.000	
9	   C	-0.423	-0.134	3.578	C.3	1	UNK0	0.000	
10	   C	-0.495	-0.482	2.147	C.2	1	UNK0	0.000	
11	   O	-0.156	0.350	1.287	O.2	1	UNK0	0.000	
12	   N	-0.947	-1.760	1.761	N.pl3	1	UNK0	0.000	
13	   C	-1.043	-2.164	0.397	C.2	1	UNK0	0.000	
14	   N	-0.703	-1.331	-0.604	N.2	1	UNK0	0.000	
15	   C	-0.801	-1.741	-1.858	C.2	1	UNK0	0.000	
16	   N	-0.526	-1.108	-3.006	N.pl3	1	UNK0	0.000	
17	   C	-0.806	-1.995	-3.988	C.2	1	UNK0	0.000	
18	   N	-1.242	-3.143	-3.461	N.2	1	UNK0	0.000	
19	   C	-1.258	-3.036	-2.131	C.2	1	UNK0	0.000	
20	   C	-1.609	-3.897	-1.108	C.2	1	UNK0	0.000	
21	   N	-1.490	-3.428	0.137	N.2	1	UNK0	0.000	
22	   O	-2.055	-5.169	-1.436	O.3	1	UNK0	0.000	
23	   C	-0.046	0.196	-3.260	C.3	1	UNK0	0.000	
24	   O	1.326	0.202	-3.544	O.3	1	UNK0	0.000	
25	   C	1.889	0.557	-2.321	C.3	1	UNK0	0.000	
26	   C	1.071	1.798	-1.996	C.3	1	UNK0	0.000	
27	   C	-0.324	1.236	-2.259	C.3	1	UNK0	0.000	
28	   O	-1.163	2.253	-2.767	O.3	1	UNK0	0.000	
29	   O	1.244	2.250	-0.718	O.3	1	UNK0	0.000	
30	   C	3.356	0.857	-2.428	C.3	1	UNK0	0.000	
31	   O	3.651	1.888	-3.278	O.3	1	UNK0	0.000	
32	   H	1.100	4.373	6.855	 H	1	UNK0	0.000	
33	   H	0.902	3.592	4.571	 H	1	UNK0	0.000	
34	   H	-0.539	-0.191	6.052	 H	1	UNK0	0.000	
35	   H	-0.308	0.680	8.320	 H	1	UNK0	0.000	
36	   H	-1.476	-0.183	3.970	 H	1	UNK0	0.000	
37	   H	0.132	-0.900	4.157	 H	1	UNK0	0.000	
38	   H	-1.236	-2.470	2.494	 H	1	UNK0	0.000	
39	   H	-0.703	-1.830	-5.070	 H	1	UNK0	0.000	
40	   H	-2.703	-5.221	-2.230	 H	1	UNK0	0.000	
41	   H	-0.508	0.546	-4.235	 H	1	UNK0	0.000	
42	   H	1.664	-0.173	-1.519	 H	1	UNK0	0.000	
43	   H	1.256	2.586	-2.756	 H	1	UNK0	0.000	
44	   H	-0.746	0.938	-1.315	 H	1	UNK0	0.000	
45	   H	-1.398	2.814	-1.986	 H	1	UNK0	0.000	
46	   H	2.157	2.039	-0.341	 H	1	UNK0	0.000	
47	   H	3.868	-0.096	-2.666	 H	1	UNK0	0.000	
48	   H	3.702	1.136	-1.401	 H	1	UNK0	0.000	
49	   H	3.651	2.734	-2.759	 H	1	UNK0	0.000	
@<TRIPOS>BOND
1 1 2 1
2 2 3 2
3 2 7 1
4 3 4 1
5 4 5 2
6 5 6 1
7 5 8 1
8 6 7 2
9 8 9 1
10 9 10 1
11 10 11 2
12 10 12 1
13 12 13 1
14 13 14 2
15 13 21 1
16 14 15 1
17 15 16 1
18 15 19 2
19 16 17 1
20 16 23 1
21 17 18 2
22 18 19 1
23 19 20 1
24 20 21 2
25 20 22 1
26 23 24 1
27 23 27 1
28 24 25 1
29 25 26 1
30 25 30 1
31 26 27 1
32 26 29 1
33 27 28 1
34 30 31 1
35 3 32 1
36 4 33 1
37 6 34 1
38 7 35 1
39 9 36 1
40 9 37 1
41 12 38 1
42 17 39 1
43 22 40 1
44 23 41 1
45 25 42 1
46 26 43 1
47 27 44 1
48 28 45 1
49 29 46 1
50 30 47 1
51 30 48 1
52 31 49 1
@<TRIPOS>SUBSTRUCTURE
1	UNK0	1	GROUP	1 ****	UNK
