REMARK  10 active torsions:
REMARK  status: ('A' for Active; 'I' for Inactive)
REMARK    1  A    between atoms: C_5  and  O_8 
REMARK    2  A    between atoms: O_8  and  C_9 
REMARK    3  A    between atoms: C_9  and  C_10 
REMARK       I    between atoms: C_10  and  N_12 
REMARK    4  A    between atoms: N_12  and  C_13 
REMARK    5  A    between atoms: N_16  and  C_23 
REMARK    6  A    between atoms: C_20  and  O_22 
REMARK    7  A    between atoms: C_25  and  C_30 
REMARK    8  A    between atoms: C_26  and  O_29 
REMARK    9  A    between atoms: C_27  and  O_28 
REMARK   10  A    between atoms: C_30  and  O_31 
ROOT
ATOM      1  C   UNK d   1      -1.043  -2.164   0.397  0.00  0.00     0.733 A 
ATOM      2  N   UNK d   1      -0.703  -1.331  -0.604  0.00  0.00    -0.042 NA
ATOM      3  C   UNK d   1      -0.801  -1.741  -1.858  0.00  0.00     0.185 A 
ATOM      4  N   UNK d   1      -0.526  -1.108  -3.006  0.00  0.00    -0.293 N 
ATOM      5  C   UNK d   1      -0.806  -1.995  -3.988  0.00  0.00     0.214 A 
ATOM      6  N   UNK d   1      -1.242  -3.143  -3.461  0.00  0.00    -0.235 NA
ATOM      7  C   UNK d   1      -1.258  -3.036  -2.131  0.00  0.00     0.158 A 
ATOM      8  C   UNK d   1      -1.609  -3.897  -1.108  0.00  0.00     0.214 A 
ATOM      9  N   UNK d   1      -1.490  -3.428   0.137  0.00  0.00    -0.036 NA
ENDROOT
BRANCH   1  10
ATOM     10  N   UNK d   1      -0.947  -1.760   1.761  0.00  0.00    -0.154 N 
ATOM     11  C   UNK d   1      -0.495  -0.482   2.147  0.00  0.00     0.260 C 
ATOM     12  O   UNK d   1      -0.156   0.350   1.287  0.00  0.00    -0.270 OA
ATOM     13  H   UNK d   1      -1.236  -2.470   2.494  0.00  0.00     0.187 HD
BRANCH  11  14
ATOM     14  C   UNK d   1      -0.423  -0.134   3.578  0.00  0.00     0.279 C 
BRANCH  14  15
ATOM     15  O   UNK d   1       0.044   1.164   3.807  0.00  0.00    -0.342 OA
BRANCH  15  16
ATOM     16  C   UNK d   1       0.163   1.627   5.099  0.00  0.00     0.069 A 
ATOM     17  C   UNK d   1       0.619   2.900   5.346  0.00  0.00     0.038 A 
ATOM     18  C   UNK d   1       0.744   3.379   6.653  0.00  0.00     0.022 A 
ATOM     19  C   UNK d   1       0.405   2.566   7.712  0.00  0.00     0.011 A 
ATOM     20 Br   UNK d   1       0.576   3.223   9.508  0.00  0.00    -0.051 Br
ATOM     21  C   UNK d   1      -0.052   1.289   7.460  0.00  0.00     0.022 A 
ATOM     22  C   UNK d   1      -0.169   0.832   6.168  0.00  0.00     0.038 A 
ENDBRANCH  15  16
ENDBRANCH  14  15
ENDBRANCH  11  14
ENDBRANCH   1  10
BRANCH   8  23
ATOM     23  O   UNK d   1      -2.055  -5.169  -1.436  0.00  0.00    -0.343 OA
ATOM     24  H   UNK d   1      -2.703  -5.221  -2.230  0.00  0.00     0.219 HD
ENDBRANCH   8  23
BRANCH   4  25
ATOM     25  C   UNK d   1      -0.046   0.196  -3.260  0.00  0.00     0.262 C 
ATOM     26  O   UNK d   1       1.326   0.202  -3.544  0.00  0.00    -0.353 OA
ATOM     27  C   UNK d   1       1.889   0.557  -2.321  0.00  0.00     0.179 C 
ATOM     28  C   UNK d   1       1.071   1.798  -1.996  0.00  0.00     0.182 C 
ATOM     29  C   UNK d   1      -0.324   1.236  -2.259  0.00  0.00     0.198 C 
BRANCH  27  30
ATOM     30  C   UNK d   1       3.356   0.857  -2.428  0.00  0.00     0.198 C 
BRANCH  30  31
ATOM     31  O   UNK d   1       3.651   1.888  -3.278  0.00  0.00    -0.398 OA
ATOM     32  H   UNK d   1       3.651   2.734  -2.759  0.00  0.00     0.209 HD
ENDBRANCH  30  31
ENDBRANCH  27  30
BRANCH  28  33
ATOM     33  O   UNK d   1       1.244   2.250  -0.718  0.00  0.00    -0.390 OA
ATOM     34  H   UNK d   1       2.157   2.039  -0.341  0.00  0.00     0.210 HD
ENDBRANCH  28  33
BRANCH  29  35
ATOM     35  O   UNK d   1      -1.163   2.253  -2.767  0.00  0.00    -0.388 OA
ATOM     36  H   UNK d   1      -1.398   2.814  -1.986  0.00  0.00     0.210 HD
ENDBRANCH  29  35
ENDBRANCH   4  25
TORSDOF 10
