REMARK  7 active torsions:
REMARK  status: ('A' for Active; 'I' for Inactive)
REMARK    1  A    between atoms: C_5  and  O_8 
REMARK    2  A    between atoms: O_8  and  C_9 
REMARK    3  A    between atoms: C_9  and  C_10 
REMARK    4  A    between atoms: C_10  and  O_11 
REMARK    5  A    between atoms: C_10  and  C_12 
REMARK    6  A    between atoms: C_12  and  N_13 
REMARK    7  A    between atoms: C_17  and  N_18 
ROOT
ATOM      1  N   UNK d   1      -1.863   0.474   0.554  0.00  0.00    -0.170 N 
ATOM      2  C   UNK d   1      -2.679  -0.408  -0.068  0.00  0.00     0.166 A 
ATOM      3  C   UNK d   1      -2.175  -0.653  -1.325  0.00  0.00     0.185 A 
ATOM      4  N   UNK d   1      -1.088   0.085  -1.414  0.00  0.00    -0.044 NA
ATOM      5  C   UNK d   1      -0.857   0.804  -0.271  0.00  0.00     0.707 A 
ATOM      6  N   UNK d   1      -2.753  -1.499  -2.227  0.00  0.00    -0.286 N 
ATOM      7  C   UNK d   1      -3.874  -2.119  -1.855  0.00  0.00     0.330 A 
ATOM      8  O   UNK d   1      -4.421  -2.905  -2.675  0.00  0.00    -0.246 OA
ATOM      9  N   UNK d   1      -4.389  -1.899  -0.638  0.00  0.00    -0.273 N 
ATOM     10  C   UNK d   1      -3.839  -1.067   0.277  0.00  0.00     0.280 A 
ATOM     11  O   UNK d   1      -4.339  -0.882   1.396  0.00  0.00    -0.265 OA
ATOM     12  C   UNK d   1      -2.135  -1.701  -3.538  0.00  0.00     0.163 C 
ATOM     13  H   UNK d   1      -5.265  -2.401  -0.384  0.00  0.00     0.173 HD
ENDROOT
BRANCH   1  14
ATOM     14  C   UNK d   1      -2.004   0.950   1.913  0.00  0.00     0.182 C 
BRANCH  14  15
ATOM     15  C   UNK d   1      -1.244   0.177   2.951  0.00  0.00     0.161 C 
BRANCH  15  16
ATOM     16  C   UNK d   1      -1.605  -1.265   3.118  0.00  0.00     0.209 C 
BRANCH  16  17
ATOM     17  O   UNK d   1      -1.346  -2.040   2.086  0.00  0.00    -0.349 OA
BRANCH  17  18
ATOM     18  C   UNK d   1      -0.597  -2.631   1.187  0.00  0.00     0.069 A 
ATOM     19  C   UNK d   1       0.773  -2.495   1.086  0.00  0.00     0.038 A 
ATOM     20  C   UNK d   1       1.508  -3.141   0.116  0.00  0.00     0.022 A 
ATOM     21  C   UNK d   1       0.863  -3.948  -0.782  0.00  0.00     0.011 A 
ATOM     22 Br   UNK d   1       1.882  -4.836  -2.117  0.00  0.00    -0.051 Br
ATOM     23  C   UNK d   1      -0.506  -4.105  -0.706  0.00  0.00     0.022 A 
ATOM     24  C   UNK d   1      -1.233  -3.472   0.246  0.00  0.00     0.038 A 
ENDBRANCH  17  18
ENDBRANCH  16  17
ENDBRANCH  15  16
BRANCH  15  25
ATOM     25  O   UNK d   1       0.142   0.243   2.750  0.00  0.00    -0.392 OA
ATOM     26  H   UNK d   1       0.606   0.067   3.631  0.00  0.00     0.210 HD
ENDBRANCH  15  25
ENDBRANCH  14  15
ENDBRANCH   1  14
BRANCH   5  27
ATOM     27  N   UNK d   1       0.224   1.745  -0.125  0.00  0.00    -0.212 N 
ATOM     28  C   UNK d   1       1.360   1.482  -1.036  0.00  0.00     0.171 C 
ATOM     29  C   UNK d   1       2.339   2.581  -1.132  0.00  0.00     0.292 C 
ATOM     30  N   UNK d   1       2.522   3.298   0.105  0.00  0.00     0.087 N 
ATOM     31  C   UNK d   1       1.263   3.905   0.401  0.00  0.00     0.292 C 
ATOM     32  C   UNK d   1       3.069   2.483   1.139  0.00  0.00     0.310 C 
ATOM     33  C   UNK d   1       0.205   2.860   0.754  0.00  0.00     0.171 C 
ENDBRANCH   5  27
TORSDOF 7
