# created with PyMOL 2.3.2
@<TRIPOS>MOLECULE
444
56 59 1                 
SMALL
USER_CHARGES
@<TRIPOS>ATOM
1	  Br	1.882	-4.836	-2.117	Br	1	UNK0	0.000	
2	   C	0.863	-3.948	-0.782	C.2	1	UNK0	0.000	
3	   C	1.508	-3.141	0.116	C.2	1	UNK0	0.000	
4	   C	0.773	-2.495	1.086	C.2	1	UNK0	0.000	
5	   C	-0.597	-2.631	1.187	C.2	1	UNK0	0.000	
6	   C	-1.233	-3.472	0.246	C.2	1	UNK0	0.000	
7	   C	-0.506	-4.105	-0.706	C.2	1	UNK0	0.000	
8	   O	-1.346	-2.040	2.086	O.3	1	UNK0	0.000	
9	   C	-1.605	-1.265	3.118	C.3	1	UNK0	0.000	
10	   C	-1.244	0.177	2.951	C.3	1	UNK0	0.000	
11	   O	0.142	0.243	2.750	O.3	1	UNK0	0.000	
12	   C	-2.004	0.950	1.913	C.3	1	UNK0	0.000	
13	   N	-1.863	0.474	0.554	N.pl3	1	UNK0	0.000	
14	   C	-2.679	-0.408	-0.068	C.2	1	UNK0	0.000	
15	   C	-2.175	-0.653	-1.325	C.2	1	UNK0	0.000	
16	   N	-1.088	0.085	-1.414	N.2	1	UNK0	0.000	
17	   C	-0.857	0.804	-0.271	C.2	1	UNK0	0.000	
18	   N	0.224	1.745	-0.125	N.pl3	1	UNK0	0.000	
19	   C	1.360	1.482	-1.036	C.3	1	UNK0	0.000	
20	   C	2.339	2.581	-1.132	C.3	1	UNK0	0.000	
21	   N	2.522	3.298	0.105	N.3	1	UNK0	0.000	
22	   C	1.263	3.905	0.401	C.3	1	UNK0	0.000	
23	   C	0.205	2.860	0.754	C.3	1	UNK0	0.000	
24	   C	3.069	2.483	1.139	C.3	1	UNK0	0.000	
25	   N	-2.753	-1.499	-2.227	N.pl3	1	UNK0	0.000	
26	   C	-3.874	-2.119	-1.855	C.2	1	UNK0	0.000	
27	   O	-4.421	-2.905	-2.675	O.2	1	UNK0	0.000	
28	   N	-4.389	-1.899	-0.638	N.pl3	1	UNK0	0.000	
29	   C	-3.839	-1.067	0.277	C.2	1	UNK0	0.000	
30	   O	-4.339	-0.882	1.396	O.2	1	UNK0	0.000	
31	   C	-2.135	-1.701	-3.538	C.3	1	UNK0	0.000	
32	   H	2.588	-3.009	0.060	 H	1	UNK0	0.000	
33	   H	1.332	-1.884	1.770	 H	1	UNK0	0.000	
34	   H	-2.302	-3.586	0.317	 H	1	UNK0	0.000	
35	   H	-1.025	-4.748	-1.429	 H	1	UNK0	0.000	
36	   H	-2.711	-1.317	3.470	 H	1	UNK0	0.000	
37	   H	-1.038	-1.586	4.081	 H	1	UNK0	0.000	
38	   H	-1.498	0.698	3.931	 H	1	UNK0	0.000	
39	   H	0.606	0.067	3.631	 H	1	UNK0	0.000	
40	   H	-1.889	2.041	2.031	 H	1	UNK0	0.000	
41	   H	-3.095	0.797	2.209	 H	1	UNK0	0.000	
42	   H	1.803	0.494	-0.769	 H	1	UNK0	0.000	
43	   H	0.916	1.323	-2.062	 H	1	UNK0	0.000	
44	   H	3.276	2.184	-1.542	 H	1	UNK0	0.000	
45	   H	1.948	3.349	-1.863	 H	1	UNK0	0.000	
46	   H	1.374	4.593	1.278	 H	1	UNK0	0.000	
47	   H	0.941	4.512	-0.444	 H	1	UNK0	0.000	
48	   H	-0.761	3.416	0.535	 H	1	UNK0	0.000	
49	   H	0.366	2.673	1.820	 H	1	UNK0	0.000	
50	   H	4.153	2.761	1.276	 H	1	UNK0	0.000	
51	   H	2.565	2.561	2.118	 H	1	UNK0	0.000	
52	   H	3.099	1.390	0.893	 H	1	UNK0	0.000	
53	   H	-5.265	-2.401	-0.384	 H	1	UNK0	0.000	
54	   H	-2.480	-2.622	-4.014	 H	1	UNK0	0.000	
55	   H	-1.046	-1.832	-3.356	 H	1	UNK0	0.000	
56	   H	-2.333	-0.843	-4.201	 H	1	UNK0	0.000	
@<TRIPOS>BOND
1 1 2 1
2 2 3 2
3 2 7 1
4 3 4 1
5 4 5 2
6 5 6 1
7 5 8 1
8 6 7 2
9 8 9 1
10 9 10 1
11 10 11 1
12 10 12 1
13 12 13 1
14 13 14 1
15 13 17 1
16 14 15 2
17 14 29 1
18 15 16 1
19 15 25 1
20 16 17 2
21 17 18 1
22 18 19 1
23 18 23 1
24 19 20 1
25 20 21 1
26 21 22 1
27 21 24 1
28 22 23 1
29 25 26 1
30 25 31 1
31 26 27 2
32 26 28 1
33 28 29 1
34 29 30 2
35 3 32 1
36 4 33 1
37 6 34 1
38 7 35 1
39 9 36 1
40 9 37 1
41 10 38 1
42 11 39 1
43 12 40 1
44 12 41 1
45 19 42 1
46 19 43 1
47 20 44 1
48 20 45 1
49 22 46 1
50 22 47 1
51 23 48 1
52 23 49 1
53 24 50 1
54 24 51 1
55 24 52 1
56 28 53 1
57 31 54 1
58 31 55 1
59 31 56 1
@<TRIPOS>SUBSTRUCTURE
1	UNK0	1	GROUP	1 ****	UNK
