REMARK  2 active torsions:
REMARK  status: ('A' for Active; 'I' for Inactive)
REMARK    1  A    between atoms: C_7  and  C_8 
REMARK    2  A    between atoms: C_8  and  N_9 
ROOT
ATOM      1  C   UNK d   1      -0.006  -1.071   0.279  0.00  0.00     0.284 C 
ENDROOT
BRANCH   1   2
ATOM      2  C   UNK d   1      -0.051  -0.595  -1.104  0.00  0.00    -0.012 A 
ATOM      3  C   UNK d   1      -1.242  -0.797  -1.822  0.00  0.00     0.021 A 
ATOM      4 Br   UNK d   1      -2.836  -1.502  -1.033  0.00  0.00    -0.050 Br
ATOM      5  C   UNK d   1      -1.214  -0.470  -3.165  0.00  0.00     0.059 A 
ATOM      6  C   UNK d   1      -0.070   0.034  -3.750  0.00  0.00     0.106 A 
ATOM      7  C   UNK d   1       1.111   0.243  -3.078  0.00  0.00     0.105 A 
ATOM      8  O   UNK d   1       0.137   0.419  -5.110  0.00  0.00    -0.323 OA
ATOM      9  C   UNK d   1       1.077  -0.084  -1.750  0.00  0.00     0.050 A 
ATOM     10  O   UNK d   1       1.987   0.737  -4.031  0.00  0.00    -0.323 OA
ATOM     11  C   UNK d   1       1.567   0.222  -5.325  0.00  0.00     0.352 C 
ENDBRANCH   1   2
BRANCH   1  12
ATOM     12  N   UNK d   1      -0.092  -0.163   1.345  0.00  0.00     0.016 N 
ATOM     13  C   UNK d   1      -0.815  -1.000   2.369  0.00  0.00     0.517 C 
ATOM     14  N   UNK d   1      -1.323  -0.282   3.460  0.00  0.00     0.171 N 
ATOM     15  C   UNK d   1      -2.197   0.750   2.930  0.00  0.00     0.551 C 
ATOM     16  C   UNK d   1      -0.158   0.261   4.168  0.00  0.00     0.551 C 
ATOM     17  N   UNK d   1      -1.375   1.653   2.163  0.00  0.00     0.171 N 
ATOM     18  C   UNK d   1      -0.868   1.023   0.987  0.00  0.00     0.517 C 
ATOM     19  C   UNK d   1      -0.242   2.202   2.917  0.00  0.00     0.551 C 
ATOM     20  N   UNK d   1       0.616   1.082   3.268  0.00  0.00     0.171 N 
ATOM     21  C   UNK d   1       1.039   0.329   2.068  0.00  0.00     0.517 C 
ENDBRANCH   1  12
TORSDOF 2
