# created with PyMOL 2.3.2
@<TRIPOS>MOLECULE
454
39 43 1                 
SMALL
USER_CHARGES
@<TRIPOS>ATOM
1	  Br	-2.836	-1.502	-1.033	Br	1	UNK0	0.000	
2	   C	-1.242	-0.797	-1.822	C.2	1	UNK0	0.000	
3	   C	-1.214	-0.470	-3.165	C.2	1	UNK0	0.000	
4	   C	-0.070	0.034	-3.750	C.2	1	UNK0	0.000	
5	   C	1.111	0.243	-3.078	C.2	1	UNK0	0.000	
6	   C	1.077	-0.084	-1.750	C.2	1	UNK0	0.000	
7	   C	-0.051	-0.595	-1.104	C.2	1	UNK0	0.000	
8	   C	-0.006	-1.071	0.279	C.3	1	UNK0	0.000	
9	   N	-0.092	-0.163	1.345	N.4	1	UNK0	0.000	
10	   C	-0.815	-1.000	2.369	C.3	1	UNK0	0.000	
11	   N	-1.323	-0.282	3.460	N.3	1	UNK0	0.000	
12	   C	-2.197	0.750	2.930	C.3	1	UNK0	0.000	
13	   N	-1.375	1.653	2.163	N.3	1	UNK0	0.000	
14	   C	-0.868	1.023	0.987	C.3	1	UNK0	0.000	
15	   C	-0.242	2.202	2.917	C.3	1	UNK0	0.000	
16	   N	0.616	1.082	3.268	N.3	1	UNK0	0.000	
17	   C	1.039	0.329	2.068	C.3	1	UNK0	0.000	
18	   C	-0.158	0.261	4.168	C.3	1	UNK0	0.000	
19	   O	1.987	0.737	-4.031	O.3	1	UNK0	0.000	
20	   C	1.567	0.222	-5.325	C.3	1	UNK0	0.000	
21	   O	0.137	0.419	-5.110	O.3	1	UNK0	0.000	
22	   H	-2.130	-0.659	-3.671	 H	1	UNK0	0.000	
23	   H	2.030	0.079	-1.167	 H	1	UNK0	0.000	
24	   H	1.042	-1.563	0.412	 H	1	UNK0	0.000	
25	   H	-0.676	-1.967	0.317	 H	1	UNK0	0.000	
26	   H	0.023	-1.681	2.712	 H	1	UNK0	0.000	
27	   H	-1.555	-1.639	1.901	 H	1	UNK0	0.000	
28	   H	-2.815	1.263	3.673	 H	1	UNK0	0.000	
29	   H	-2.847	0.211	2.178	 H	1	UNK0	0.000	
30	   H	-1.675	0.866	0.301	 H	1	UNK0	0.000	
31	   H	-0.073	1.726	0.583	 H	1	UNK0	0.000	
32	   H	0.217	2.967	2.306	 H	1	UNK0	0.000	
33	   H	-0.672	2.570	3.868	 H	1	UNK0	0.000	
34	   H	1.756	-0.447	2.432	 H	1	UNK0	0.000	
35	   H	1.590	1.074	1.429	 H	1	UNK0	0.000	
36	   H	0.385	-0.570	4.589	 H	1	UNK0	0.000	
37	   H	-0.575	0.962	4.925	 H	1	UNK0	0.000	
38	   H	1.629	-0.904	-5.364	 H	1	UNK0	0.000	
39	   H	1.957	0.764	-6.156	 H	1	UNK0	0.000	
@<TRIPOS>BOND
1 1 2 1
2 2 3 2
3 2 7 1
4 3 4 1
5 4 5 2
6 4 21 1
7 5 6 1
8 5 19 1
9 6 7 2
10 7 8 1
11 8 9 1
12 9 10 1
13 9 14 1
14 9 17 1
15 10 11 1
16 11 12 1
17 11 18 1
18 12 13 1
19 13 14 1
20 13 15 1
21 15 16 1
22 16 17 1
23 16 18 1
24 19 20 1
25 20 21 1
26 3 22 1
27 6 23 1
28 8 24 1
29 8 25 1
30 10 26 1
31 10 27 1
32 12 28 1
33 12 29 1
34 14 30 1
35 14 31 1
36 15 32 1
37 15 33 1
38 17 34 1
39 17 35 1
40 18 36 1
41 18 37 1
42 20 38 1
43 20 39 1
@<TRIPOS>SUBSTRUCTURE
1	UNK0	1	GROUP	1 ****	UNK
