# created with PyMOL 2.3.2
@<TRIPOS>MOLECULE
455
49 52 1                 
SMALL
USER_CHARGES
@<TRIPOS>ATOM
1	  Br	-3.417	4.430	0.300	Br	1	UNK0	0.000	
2	   C	-1.784	3.971	-0.578	C.2	1	UNK0	0.000	
3	   C	-0.890	4.951	-0.944	C.2	1	UNK0	0.000	
4	   C	0.288	4.637	-1.575	C.2	1	UNK0	0.000	
5	   C	0.547	3.320	-1.829	C.2	1	UNK0	0.000	
6	   C	-0.361	2.330	-1.457	C.2	1	UNK0	0.000	
7	   C	-1.551	2.619	-0.822	C.2	1	UNK0	0.000	
8	   C	-2.524	1.583	-0.394	C.3	1	UNK0	0.000	
9	   N	-2.072	0.266	-0.798	N.3	1	UNK0	0.000	
10	   C	-2.984	-0.762	-0.232	C.3	1	UNK0	0.000	
11	   C	-2.265	-2.071	-0.541	C.3	1	UNK0	0.000	
12	   N	-1.182	-1.933	-1.444	N.3	1	UNK0	0.000	
13	   C	-1.521	-1.175	-2.620	C.3	1	UNK0	0.000	
14	   C	-2.252	0.079	-2.239	C.3	1	UNK0	0.000	
15	   C	0.106	-1.702	-0.909	C.3	1	UNK0	0.000	
16	   C	0.704	-2.797	-0.168	C.2	1	UNK0	0.000	
17	   O	0.099	-3.879	-0.015	O.2	1	UNK0	0.000	
18	   N	1.992	-2.672	0.402	N.pl3	1	UNK0	0.000	
19	   C	2.624	-3.750	1.153	C.3	1	UNK0	0.000	
20	   C	3.625	-3.453	2.190	C.3	1	UNK0	0.000	
21	   C	4.109	-3.946	0.860	C.3	1	UNK0	0.000	
22	   O	1.731	2.982	-2.465	O.3	1	UNK0	0.000	
23	   C	2.565	3.915	-3.102	C.3	1	UNK0	0.000	
24	   C	2.490	5.255	-2.443	C.3	1	UNK0	0.000	
25	   O	1.216	5.596	-1.959	O.3	1	UNK0	0.000	
26	   H	-1.077	6.009	-0.750	 H	1	UNK0	0.000	
27	   H	-0.073	1.334	-1.683	 H	1	UNK0	0.000	
28	   H	-3.542	1.779	-0.750	 H	1	UNK0	0.000	
29	   H	-2.541	1.592	0.724	 H	1	UNK0	0.000	
30	   H	-3.169	-0.607	0.828	 H	1	UNK0	0.000	
31	   H	-3.931	-0.671	-0.802	 H	1	UNK0	0.000	
32	   H	-3.040	-2.727	-1.039	 H	1	UNK0	0.000	
33	   H	-2.006	-2.615	0.389	 H	1	UNK0	0.000	
34	   H	-2.113	-1.814	-3.320	 H	1	UNK0	0.000	
35	   H	-0.585	-0.938	-3.206	 H	1	UNK0	0.000	
36	   H	-2.058	0.957	-2.843	 H	1	UNK0	0.000	
37	   H	-3.351	-0.149	-2.420	 H	1	UNK0	0.000	
38	   H	0.810	-1.369	-1.708	 H	1	UNK0	0.000	
39	   H	0.049	-0.814	-0.216	 H	1	UNK0	0.000	
40	   H	2.570	-1.787	0.314	 H	1	UNK0	0.000	
41	   H	1.992	-4.637	1.248	 H	1	UNK0	0.000	
42	   H	3.931	-2.412	2.451	 H	1	UNK0	0.000	
43	   H	3.733	-4.162	3.035	 H	1	UNK0	0.000	
44	   H	4.592	-3.206	0.194	 H	1	UNK0	0.000	
45	   H	4.388	-5.013	0.750	 H	1	UNK0	0.000	
46	   H	2.315	3.934	-4.175	 H	1	UNK0	0.000	
47	   H	3.619	3.541	-2.964	 H	1	UNK0	0.000	
48	   H	3.220	5.283	-1.586	 H	1	UNK0	0.000	
49	   H	2.757	6.023	-3.206	 H	1	UNK0	0.000	
@<TRIPOS>BOND
1 1 2 1
2 2 3 2
3 2 7 1
4 3 4 1
5 4 5 2
6 4 25 1
7 5 6 1
8 5 22 1
9 6 7 2
10 7 8 1
11 8 9 1
12 9 10 1
13 9 14 1
14 10 11 1
15 11 12 1
16 12 13 1
17 12 15 1
18 13 14 1
19 15 16 1
20 16 17 2
21 16 18 1
22 18 19 1
23 19 20 1
24 19 21 1
25 20 21 1
26 22 23 1
27 23 24 1
28 24 25 1
29 3 26 1
30 6 27 1
31 8 28 1
32 8 29 1
33 10 30 1
34 10 31 1
35 11 32 1
36 11 33 1
37 13 34 1
38 13 35 1
39 14 36 1
40 14 37 1
41 15 38 1
42 15 39 1
43 18 40 1
44 19 41 1
45 20 42 1
46 20 43 1
47 21 44 1
48 21 45 1
49 23 46 1
50 23 47 1
51 24 48 1
52 24 49 1
@<TRIPOS>SUBSTRUCTURE
1	UNK0	1	GROUP	1 ****	UNK
