REMARK  5 active torsions:
REMARK  status: ('A' for Active; 'I' for Inactive)
REMARK    1  A    between atoms: C_7  and  C_8 
REMARK    2  A    between atoms: C_8  and  N_9 
REMARK    3  A    between atoms: N_12  and  C_15 
REMARK    4  A    between atoms: C_15  and  C_16 
REMARK       I    between atoms: C_16  and  N_18 
REMARK    5  A    between atoms: N_18  and  C_19 
ROOT
ATOM      1  N   UNK d   1      -2.072   0.266  -0.798  0.00  0.00     0.095 N 
ATOM      2  C   UNK d   1      -2.984  -0.762  -0.232  0.00  0.00     0.292 C 
ATOM      3  C   UNK d   1      -2.265  -2.071  -0.541  0.00  0.00     0.147 C 
ATOM      4  N   UNK d   1      -1.182  -1.933  -1.444  0.00  0.00    -0.401 N 
ATOM      5  C   UNK d   1      -1.521  -1.175  -2.620  0.00  0.00     0.147 C 
ATOM      6  C   UNK d   1      -2.252   0.079  -2.239  0.00  0.00     0.292 C 
ENDROOT
BRANCH   1   7
ATOM      7  C   UNK d   1      -2.524   1.583  -0.394  0.00  0.00     0.312 C 
BRANCH   7   8
ATOM      8  C   UNK d   1      -1.551   2.619  -0.822  0.00  0.00    -0.010 A 
ATOM      9  C   UNK d   1      -1.784   3.971  -0.578  0.00  0.00     0.021 A 
ATOM     10 Br   UNK d   1      -3.417   4.430   0.300  0.00  0.00    -0.050 Br
ATOM     11  C   UNK d   1      -0.890   4.951  -0.944  0.00  0.00     0.059 A 
ATOM     12  C   UNK d   1       0.288   4.637  -1.575  0.00  0.00     0.103 A 
ATOM     13  C   UNK d   1       0.547   3.320  -1.829  0.00  0.00     0.102 A 
ATOM     14  O   UNK d   1       1.216   5.596  -1.959  0.00  0.00    -0.346 OA
ATOM     15  C   UNK d   1      -0.361   2.330  -1.457  0.00  0.00     0.050 A 
ATOM     16  O   UNK d   1       1.731   2.982  -2.465  0.00  0.00    -0.346 OA
ATOM     17  C   UNK d   1       2.565   3.915  -3.102  0.00  0.00     0.202 C 
ATOM     18  C   UNK d   1       2.490   5.255  -2.443  0.00  0.00     0.202 C 
ENDBRANCH   7   8
ENDBRANCH   1   7
BRANCH   4  19
ATOM     19  C   UNK d   1       0.106  -1.702  -0.909  0.00  0.00     0.219 C 
BRANCH  19  20
ATOM     20  C   UNK d   1       0.704  -2.797  -0.168  0.00  0.00     0.235 C 
ATOM     21  O   UNK d   1       0.099  -3.879  -0.015  0.00  0.00    -0.272 OA
ATOM     22  N   UNK d   1       1.992  -2.672   0.402  0.00  0.00    -0.355 N 
ATOM     23  H   UNK d   1       2.570  -1.787   0.314  0.00  0.00     0.162 HD
BRANCH  22  24
ATOM     24  C   UNK d   1       2.624  -3.750   1.153  0.00  0.00     0.084 A 
ATOM     25  C   UNK d   1       3.625  -3.453   2.190  0.00  0.00     0.027 A 
ATOM     26  C   UNK d   1       4.109  -3.946   0.860  0.00  0.00     0.027 A 
ENDBRANCH  22  24
ENDBRANCH  19  20
ENDBRANCH   4  19
TORSDOF 5
