REMARK  6 active torsions:
REMARK  status: ('A' for Active; 'I' for Inactive)
REMARK    1  A    between atoms: C_7  and  C_8 
REMARK    2  A    between atoms: C_8  and  O_9 
REMARK    3  A    between atoms: O_9  and  C_10 
REMARK    4  A    between atoms: C_13  and  C_16 
REMARK    5  A    between atoms: N_18  and  C_21 
REMARK    6  A    between atoms: C_21  and  C_22 
REMARK       I    between atoms: C_22  and  N_24 
ROOT
ATOM      1  C   UNK d   1      -1.914   1.952   1.736  0.00  0.00     0.069 A 
ATOM      2  C   UNK d   1      -1.635   1.198   2.884  0.00  0.00     0.038 A 
ATOM      3  C   UNK d   1      -1.259  -0.125   2.836  0.00  0.00     0.018 A 
ATOM      4  C   UNK d   1      -1.141  -0.775   1.627  0.00  0.00     0.015 A 
ATOM      5  C   UNK d   1      -1.413  -0.049   0.487  0.00  0.00     0.018 A 
ATOM      6  C   UNK d   1      -1.794   1.293   0.533  0.00  0.00     0.038 A 
ENDROOT
BRANCH   1   7
ATOM      7  O   UNK d   1      -2.292   3.279   1.842  0.00  0.00    -0.347 OA
BRANCH   7   8
ATOM      8  C   UNK d   1      -2.563   4.103   0.748  0.00  0.00     0.215 C 
BRANCH   8   9
ATOM      9  C   UNK d   1      -1.400   4.356  -0.120  0.00  0.00    -0.014 A 
ATOM     10  C   UNK d   1      -1.540   5.119  -1.287  0.00  0.00     0.022 A 
ATOM     11 Br   UNK d   1      -3.297   5.754  -1.709  0.00  0.00    -0.050 Br
ATOM     12  C   UNK d   1      -0.462   5.397  -2.090  0.00  0.00     0.059 A 
ATOM     13  C   UNK d   1       0.797   4.931  -1.770  0.00  0.00     0.106 A 
ATOM     14  C   UNK d   1       0.963   4.178  -0.627  0.00  0.00     0.105 A 
ATOM     15  O   UNK d   1       2.053   5.044  -2.370  0.00  0.00    -0.323 OA
ATOM     16  C   UNK d   1      -0.137   3.901   0.183  0.00  0.00     0.050 A 
ATOM     17  O   UNK d   1       2.302   3.849  -0.553  0.00  0.00    -0.323 OA
ATOM     18  C   UNK d   1       3.054   4.629  -1.466  0.00  0.00     0.352 C 
ENDBRANCH   8   9
ENDBRANCH   7   8
ENDBRANCH   1   7
BRANCH   4  19
ATOM     19  C   UNK d   1      -0.742  -2.183   1.560  0.00  0.00     0.198 A 
ATOM     20  N   UNK d   1      -0.580  -2.961   0.477  0.00  0.00    -0.136 NA
ATOM     21  N   UNK d   1      -0.208  -4.181   0.878  0.00  0.00    -0.182 N 
ATOM     22  N   UNK d   1      -0.135  -4.182   2.201  0.00  0.00     0.025 NA
ATOM     23  N   UNK d   1      -0.460  -2.968   2.612  0.00  0.00    -0.136 NA
BRANCH  21  24
ATOM     24  C   UNK d   1       0.079  -5.343   0.063  0.00  0.00     0.272 C 
BRANCH  24  25
ATOM     25  C   UNK d   1       1.513  -5.372  -0.299  0.00  0.00     0.236 C 
ATOM     26  O   UNK d   1       1.951  -6.299  -0.999  0.00  0.00    -0.272 OA
ATOM     27  N   UNK d   1       2.362  -4.342   0.160  0.00  0.00    -0.369 N 
ATOM     28  H   UNK d   1       2.198  -3.830   1.071  0.00  0.00     0.159 HD
ATOM     29  H   UNK d   1       3.190  -4.059  -0.406  0.00  0.00     0.159 HD
ENDBRANCH  24  25
ENDBRANCH  21  24
ENDBRANCH   4  19
TORSDOF 6
