REMARK  5 active torsions:
REMARK  status: ('A' for Active; 'I' for Inactive)
REMARK    1  A    between atoms: C_7  and  C_8 
REMARK    2  A    between atoms: N_9  and  N_10 
REMARK    3  A    between atoms: N_10  and  C_11 
REMARK    4  A    between atoms: C_13  and  N_19 
REMARK    5  A    between atoms: C_15  and  O_17 
ROOT
ATOM      1  C   UNK d   1       0.164   1.723  -0.961  0.00  0.00     0.762 A 
ATOM      2  N   UNK d   1       1.291   1.322  -0.350  0.00  0.00     0.132 NA
ATOM      3  C   UNK d   1       1.641   1.741   0.896  0.00  0.00     0.744 A 
ATOM      4  N   UNK d   1       0.793   2.582   1.486  0.00  0.00    -0.017 NA
ATOM      5  C   UNK d   1      -0.338   3.017   0.936  0.00  0.00     0.302 A 
ATOM      6  N   UNK d   1      -0.643   2.565  -0.317  0.00  0.00    -0.016 NA
ENDROOT
BRANCH   1   7
ATOM      7  N   UNK d   1      -0.052   1.232  -2.267  0.00  0.00    -0.105 N 
ATOM      8  H   UNK d   1       0.114   1.870  -3.075  0.00  0.00     0.208 HD
BRANCH   7   9
ATOM      9  N   UNK d   1      -0.475  -0.058  -2.519  0.00  0.00    -0.172 NA
ATOM     10  C   UNK d   1      -1.119  -0.836  -1.758  0.00  0.00     0.152 C 
BRANCH  10  11
ATOM     11  C   UNK d   1      -1.490  -2.174  -2.171  0.00  0.00     0.003 A 
ATOM     12  C   UNK d   1      -2.189  -3.025  -1.344  0.00  0.00     0.025 A 
ATOM     13 Br   UNK d   1      -2.689  -2.433   0.385  0.00  0.00    -0.050 Br
ATOM     14  C   UNK d   1      -2.524  -4.298  -1.766  0.00  0.00     0.059 A 
ATOM     15  C   UNK d   1      -2.176  -4.778  -3.030  0.00  0.00     0.106 A 
ATOM     16  C   UNK d   1      -1.469  -3.925  -3.874  0.00  0.00     0.105 A 
ATOM     17  O   UNK d   1      -2.369  -5.973  -3.704  0.00  0.00    -0.323 OA
ATOM     18  C   UNK d   1      -1.146  -2.659  -3.431  0.00  0.00     0.054 A 
ATOM     19  O   UNK d   1      -1.250  -4.623  -5.040  0.00  0.00    -0.323 OA
ATOM     20  C   UNK d   1      -1.641  -5.975  -4.904  0.00  0.00     0.352 C 
ENDBRANCH  10  11
ENDBRANCH   7   9
ENDBRANCH   1   7
BRANCH   3  21
ATOM     21  N   UNK d   1       2.826   1.267   1.463  0.00  0.00    -0.209 N 
ATOM     22  C   UNK d   1       3.514   0.121   0.918  0.00  0.00     0.167 C 
ATOM     23  C   UNK d   1       4.939   0.048   1.425  0.00  0.00     0.188 C 
ATOM     24  O   UNK d   1       5.551   1.239   1.640  0.00  0.00    -0.388 OA
ATOM     25  C   UNK d   1       4.833   2.273   2.155  0.00  0.00     0.188 C 
ATOM     26  C   UNK d   1       3.420   1.914   2.605  0.00  0.00     0.167 C 
ENDBRANCH   3  21
BRANCH   5  27
ATOM     27  O   UNK d   1      -1.199   3.892   1.576  0.00  0.00    -0.323 OA
ATOM     28  C   UNK d   1      -2.379   4.321   0.951  0.00  0.00     0.213 C 
ENDBRANCH   5  27
TORSDOF 5
