# created with PyMOL 2.3.2
@<TRIPOS>MOLECULE
467
44 47 1                 
SMALL
USER_CHARGES
@<TRIPOS>ATOM
1	  Br	-2.689	-2.433	0.385	Br	1	UNK0	0.000	
2	   C	-2.189	-3.025	-1.344	C.2	1	UNK0	0.000	
3	   C	-2.524	-4.298	-1.766	C.2	1	UNK0	0.000	
4	   C	-2.176	-4.778	-3.030	C.2	1	UNK0	0.000	
5	   C	-1.469	-3.925	-3.874	C.2	1	UNK0	0.000	
6	   C	-1.146	-2.659	-3.431	C.2	1	UNK0	0.000	
7	   C	-1.490	-2.174	-2.171	C.2	1	UNK0	0.000	
8	   C	-1.119	-0.836	-1.758	C.2	1	UNK0	0.000	
9	   N	-0.475	-0.058	-2.519	N.2	1	UNK0	0.000	
10	   N	-0.052	1.232	-2.267	N.pl3	1	UNK0	0.000	
11	   C	0.164	1.723	-0.961	C.2	1	UNK0	0.000	
12	   N	1.291	1.322	-0.350	N.2	1	UNK0	0.000	
13	   C	1.641	1.741	0.896	C.2	1	UNK0	0.000	
14	   N	0.793	2.582	1.486	N.2	1	UNK0	0.000	
15	   C	-0.338	3.017	0.936	C.2	1	UNK0	0.000	
16	   N	-0.643	2.565	-0.317	N.2	1	UNK0	0.000	
17	   O	-1.199	3.892	1.576	O.3	1	UNK0	0.000	
18	   C	-2.379	4.321	0.951	C.3	1	UNK0	0.000	
19	   N	2.826	1.267	1.463	N.pl3	1	UNK0	0.000	
20	   C	3.514	0.121	0.918	C.3	1	UNK0	0.000	
21	   C	4.939	0.048	1.425	C.3	1	UNK0	0.000	
22	   O	5.551	1.239	1.640	O.3	1	UNK0	0.000	
23	   C	4.833	2.273	2.155	C.3	1	UNK0	0.000	
24	   C	3.420	1.914	2.605	C.3	1	UNK0	0.000	
25	   O	-1.250	-4.623	-5.040	O.3	1	UNK0	0.000	
26	   C	-1.641	-5.975	-4.904	C.3	1	UNK0	0.000	
27	   O	-2.369	-5.973	-3.704	O.3	1	UNK0	0.000	
28	   H	-3.082	-4.966	-1.095	 H	1	UNK0	0.000	
29	   H	-0.587	-2.026	-4.139	 H	1	UNK0	0.000	
30	   H	-1.393	-0.491	-0.780	 H	1	UNK0	0.000	
31	   H	0.114	1.870	-3.075	 H	1	UNK0	0.000	
32	   H	-2.214	5.383	0.625	 H	1	UNK0	0.000	
33	   H	-3.242	4.364	1.663	 H	1	UNK0	0.000	
34	   H	-2.671	3.651	0.116	 H	1	UNK0	0.000	
35	   H	3.472	0.026	-0.174	 H	1	UNK0	0.000	
36	   H	2.994	-0.797	1.335	 H	1	UNK0	0.000	
37	   H	5.033	-0.601	2.343	 H	1	UNK0	0.000	
38	   H	5.521	-0.508	0.631	 H	1	UNK0	0.000	
39	   H	5.383	2.845	2.940	 H	1	UNK0	0.000	
40	   H	4.672	3.010	1.312	 H	1	UNK0	0.000	
41	   H	3.499	1.123	3.394	 H	1	UNK0	0.000	
42	   H	2.923	2.816	2.950	 H	1	UNK0	0.000	
43	   H	-0.788	-6.684	-4.903	 H	1	UNK0	0.000	
44	   H	-2.338	-6.183	-5.751	 H	1	UNK0	0.000	
@<TRIPOS>BOND
1 1 2 1
2 2 3 2
3 2 7 1
4 3 4 1
5 4 5 2
6 4 27 1
7 5 6 1
8 5 25 1
9 6 7 2
10 7 8 1
11 8 9 2
12 9 10 1
13 10 11 1
14 11 12 2
15 11 16 1
16 12 13 1
17 13 14 2
18 13 19 1
19 14 15 1
20 15 16 2
21 15 17 1
22 17 18 1
23 19 20 1
24 19 24 1
25 20 21 1
26 21 22 1
27 22 23 1
28 23 24 1
29 25 26 1
30 26 27 1
31 3 28 1
32 6 29 1
33 8 30 1
34 10 31 1
35 18 32 1
36 18 33 1
37 18 34 1
38 20 35 1
39 20 36 1
40 21 37 1
41 21 38 1
42 23 39 1
43 23 40 1
44 24 41 1
45 24 42 1
46 26 43 1
47 26 44 1
@<TRIPOS>SUBSTRUCTURE
1	UNK0	1	GROUP	1 ****	UNK
