REMARK  4 active torsions:
REMARK  status: ('A' for Active; 'I' for Inactive)
REMARK    1  A    between atoms: C_7  and  N_8 
REMARK       I    between atoms: N_8  and  C_9 
REMARK    2  A    between atoms: C_9  and  C_11 
REMARK    3  A    between atoms: C_11  and  N_12 
REMARK    4  A    between atoms: N_15  and  C_18 
ROOT
ATOM      1  N   UNK d   1      -2.350   1.492   2.020  0.00  0.00    -0.401 N 
ATOM      2  C   UNK d   1      -2.716   1.300   0.698  0.00  0.00     0.137 C 
ATOM      3  C   UNK d   1      -2.011   2.011  -0.392  0.00  0.00     0.144 C 
ATOM      4  N   UNK d   1      -1.313   3.136   0.161  0.00  0.00    -0.362 N 
ATOM      5  C   UNK d   1      -0.415   2.800   1.237  0.00  0.00     0.144 C 
ATOM      6  C   UNK d   1      -1.274   2.330   2.382  0.00  0.00     0.137 C 
ENDROOT
BRANCH   1   7
ATOM      7  C   UNK d   1      -2.558   0.371   2.907  0.00  0.00     0.220 C 
BRANCH   7   8
ATOM      8  C   UNK d   1      -1.618  -0.770   2.589  0.00  0.00     0.239 C 
ATOM      9  N   UNK d   1      -1.712  -1.931   3.384  0.00  0.00    -0.324 N 
ATOM     10  H   UNK d   1      -2.444  -1.933   4.162  0.00  0.00     0.169 HD
ATOM     11  O   UNK d   1      -0.828  -0.598   1.646  0.00  0.00    -0.271 OA
BRANCH   9  12
ATOM     12  C   UNK d   1      -0.917  -3.093   3.235  0.00  0.00     0.055 A 
ATOM     13  C   UNK d   1      -1.131  -4.153   4.128  0.00  0.00     0.040 A 
ATOM     14 Br   UNK d   1      -2.464  -3.959   5.465  0.00  0.00    -0.049 Br
ATOM     15  C   UNK d   1      -0.378  -5.298   4.018  0.00  0.00     0.061 A 
ATOM     16  C   UNK d   1       0.579  -5.448   3.064  0.00  0.00     0.103 A 
ATOM     17  C   UNK d   1       0.812  -4.424   2.172  0.00  0.00     0.104 A 
ATOM     18  O   UNK d   1       1.362  -6.585   2.917  0.00  0.00    -0.346 OA
ATOM     19  C   UNK d   1       0.058  -3.249   2.265  0.00  0.00     0.070 A 
ATOM     20  O   UNK d   1       1.782  -4.598   1.218  0.00  0.00    -0.346 OA
ATOM     21  C   UNK d   1       2.868  -5.483   1.346  0.00  0.00     0.202 C 
ATOM     22  C   UNK d   1       2.722  -6.437   2.488  0.00  0.00     0.202 C 
ENDBRANCH   9  12
ENDBRANCH   7   8
ENDBRANCH   1   7
BRANCH   4  23
ATOM     23  C   UNK d   1      -1.432   4.476  -0.243  0.00  0.00     0.142 A 
ATOM     24  N   UNK d   1      -1.827   5.481   0.579  0.00  0.00    -0.224 NA
ATOM     25  C   UNK d   1      -1.930   6.756   0.163  0.00  0.00     0.237 A 
ATOM     26  N   UNK d   1      -1.641   7.098  -1.105  0.00  0.00    -0.222 NA
ATOM     27  C   UNK d   1      -1.240   6.165  -1.992  0.00  0.00     0.162 A 
ATOM     28  N   UNK d   1      -0.891   6.219  -3.303  0.00  0.00    -0.256 N 
ATOM     29  C   UNK d   1      -1.140   4.869  -1.553  0.00  0.00     0.076 A 
ATOM     30  N   UNK d   1      -0.585   4.983  -3.654  0.00  0.00    -0.182 NA
ATOM     31  C   UNK d   1      -0.869   7.424  -4.134  0.00  0.00     0.182 C 
ATOM     32  C   UNK d   1      -0.719   4.130  -2.636  0.00  0.00     0.158 A 
ENDBRANCH   4  23
TORSDOF 4
