# created with PyMOL 2.3.2
@<TRIPOS>MOLECULE
469
53 57 1                 
SMALL
USER_CHARGES
@<TRIPOS>ATOM
1	  Br	-2.464	-3.959	5.465	Br	1	UNK0	0.000	
2	   C	-1.131	-4.153	4.128	C.2	1	UNK0	0.000	
3	   C	-0.378	-5.298	4.018	C.2	1	UNK0	0.000	
4	   C	0.579	-5.448	3.064	C.2	1	UNK0	0.000	
5	   C	0.812	-4.424	2.172	C.2	1	UNK0	0.000	
6	   C	0.058	-3.249	2.265	C.2	1	UNK0	0.000	
7	   C	-0.917	-3.093	3.235	C.2	1	UNK0	0.000	
8	   N	-1.712	-1.931	3.384	N.pl3	1	UNK0	0.000	
9	   C	-1.618	-0.770	2.589	C.2	1	UNK0	0.000	
10	   O	-0.828	-0.598	1.646	O.2	1	UNK0	0.000	
11	   C	-2.558	0.371	2.907	C.3	1	UNK0	0.000	
12	   N	-2.350	1.492	2.020	N.3	1	UNK0	0.000	
13	   C	-2.716	1.300	0.698	C.3	1	UNK0	0.000	
14	   C	-2.011	2.011	-0.392	C.3	1	UNK0	0.000	
15	   N	-1.313	3.136	0.161	N.pl3	1	UNK0	0.000	
16	   C	-0.415	2.800	1.237	C.3	1	UNK0	0.000	
17	   C	-1.274	2.330	2.382	C.3	1	UNK0	0.000	
18	   C	-1.432	4.476	-0.243	C.2	1	UNK0	0.000	
19	   N	-1.827	5.481	0.579	N.2	1	UNK0	0.000	
20	   C	-1.930	6.756	0.163	C.2	1	UNK0	0.000	
21	   N	-1.641	7.098	-1.105	N.2	1	UNK0	0.000	
22	   C	-1.240	6.165	-1.992	C.2	1	UNK0	0.000	
23	   N	-0.891	6.219	-3.303	N.pl3	1	UNK0	0.000	
24	   N	-0.585	4.983	-3.654	N.2	1	UNK0	0.000	
25	   C	-0.719	4.130	-2.636	C.2	1	UNK0	0.000	
26	   C	-1.140	4.869	-1.553	C.2	1	UNK0	0.000	
27	   C	-0.869	7.424	-4.134	C.3	1	UNK0	0.000	
28	   O	1.782	-4.598	1.218	O.3	1	UNK0	0.000	
29	   C	2.868	-5.483	1.346	C.3	1	UNK0	0.000	
30	   C	2.722	-6.437	2.488	C.3	1	UNK0	0.000	
31	   O	1.362	-6.585	2.917	O.3	1	UNK0	0.000	
32	   H	-0.555	-6.109	4.714	 H	1	UNK0	0.000	
33	   H	0.265	-2.477	1.557	 H	1	UNK0	0.000	
34	   H	-2.444	-1.933	4.162	 H	1	UNK0	0.000	
35	   H	-3.574	-0.036	2.749	 H	1	UNK0	0.000	
36	   H	-2.450	0.637	3.976	 H	1	UNK0	0.000	
37	   H	-2.664	0.194	0.460	 H	1	UNK0	0.000	
38	   H	-3.824	1.510	0.590	 H	1	UNK0	0.000	
39	   H	-1.270	1.358	-0.916	 H	1	UNK0	0.000	
40	   H	-2.736	2.294	-1.182	 H	1	UNK0	0.000	
41	   H	0.224	3.633	1.536	 H	1	UNK0	0.000	
42	   H	0.234	1.929	0.954	 H	1	UNK0	0.000	
43	   H	-1.656	3.199	2.957	 H	1	UNK0	0.000	
44	   H	-0.606	1.771	3.074	 H	1	UNK0	0.000	
45	   H	-2.256	7.476	0.909	 H	1	UNK0	0.000	
46	   H	-0.552	3.063	-2.583	 H	1	UNK0	0.000	
47	   H	0.050	7.494	-4.745	 H	1	UNK0	0.000	
48	   H	-1.727	7.446	-4.844	 H	1	UNK0	0.000	
49	   H	-0.994	8.302	-3.464	 H	1	UNK0	0.000	
50	   H	3.013	-6.017	0.368	 H	1	UNK0	0.000	
51	   H	3.794	-4.862	1.515	 H	1	UNK0	0.000	
52	   H	3.271	-6.018	3.378	 H	1	UNK0	0.000	
53	   H	3.174	-7.416	2.286	 H	1	UNK0	0.000	
@<TRIPOS>BOND
1 1 2 1
2 2 3 2
3 2 7 1
4 3 4 1
5 4 5 2
6 4 31 1
7 5 6 1
8 5 28 1
9 6 7 2
10 7 8 1
11 8 9 1
12 9 10 2
13 9 11 1
14 11 12 1
15 12 13 1
16 12 17 1
17 13 14 1
18 14 15 1
19 15 16 1
20 15 18 1
21 16 17 1
22 18 19 2
23 18 26 1
24 19 20 1
25 20 21 2
26 21 22 1
27 22 23 1
28 22 26 2
29 23 24 1
30 23 27 1
31 24 25 2
32 25 26 1
33 28 29 1
34 29 30 1
35 30 31 1
36 3 32 1
37 6 33 1
38 8 34 1
39 11 35 1
40 11 36 1
41 13 37 1
42 13 38 1
43 14 39 1
44 14 40 1
45 16 41 1
46 16 42 1
47 17 43 1
48 17 44 1
49 20 45 1
50 25 46 1
51 27 47 1
52 27 48 1
53 27 49 1
54 29 50 1
55 29 51 1
56 30 52 1
57 30 53 1
@<TRIPOS>SUBSTRUCTURE
1	UNK0	1	GROUP	1 ****	UNK
