REMARK  3 active torsions:
REMARK  status: ('A' for Active; 'I' for Inactive)
REMARK    1  A    between atoms: C_11  and  C_13 
REMARK       I    between atoms: C_13  and  N_15 
REMARK    2  A    between atoms: N_18  and  C_21 
REMARK    3  A    between atoms: C_21  and  C_22 
ROOT
ATOM      1  C   UNK d   1       0.167   1.002   1.123  0.00  0.00     0.277 C 
ATOM      2  O   UNK d   1       0.929   1.784   1.762  0.00  0.00    -0.265 OA
ATOM      3  N   UNK d   1      -0.040   1.212  -0.255  0.00  0.00    -0.343 N 
ATOM      4  C   UNK d   1       0.625   2.316  -0.899  0.00  0.00     0.145 C 
ATOM      5  C   UNK d   1       1.444   1.890  -2.099  0.00  0.00     0.137 C 
ATOM      6  N   UNK d   1       0.827   0.759  -2.685  0.00  0.00    -0.404 N 
ATOM      7  C   UNK d   1      -0.577   0.769  -2.556  0.00  0.00     0.137 C 
ATOM      8  C   UNK d   1      -0.882   0.394  -1.094  0.00  0.00     0.145 C 
ENDROOT
BRANCH   1   9
ATOM      9  C   UNK d   1      -0.468  -0.095   1.864  0.00  0.00     0.147 A 
ATOM     10  C   UNK d   1      -0.224  -0.247   3.209  0.00  0.00     0.098 A 
ATOM     11  C   UNK d   1      -0.798  -1.262   3.945  0.00  0.00     0.187 A 
ATOM     12  C   UNK d   1      -1.644  -2.153   3.310  0.00  0.00     0.048 A 
ATOM     13  O   UNK d   1      -0.566  -1.394   5.192  0.00  0.00    -0.287 OA
ATOM     14  C   UNK d   1      -1.848  -1.949   1.959  0.00  0.00     0.091 A 
ATOM     15  C   UNK d   1      -2.229  -3.174   4.018  0.00  0.00     0.020 A 
ATOM     16  C   UNK d   1      -2.697  -2.846   1.327  0.00  0.00     0.057 A 
ATOM     17  O   UNK d   1      -1.275  -0.965   1.310  0.00  0.00    -0.304 OA
ATOM     18  C   UNK d   1      -3.301  -3.884   2.016  0.00  0.00     0.013 A 
ATOM     19 Br   UNK d   1      -4.462  -5.096   1.110  0.00  0.00    -0.051 Br
ATOM     20  C   UNK d   1      -3.066  -4.048   3.368  0.00  0.00     0.020 A 
ENDBRANCH   1   9
BRANCH   6  21
ATOM     21  C   UNK d   1       1.490  -0.476  -2.556  0.00  0.00     0.181 C 
BRANCH  21  22
ATOM     22  C   UNK d   1       2.829  -0.540  -3.135  0.00  0.00     0.108 A 
ATOM     23  N   UNK d   1       3.455   0.468  -3.764  0.00  0.00    -0.106 NA
ATOM     24  O   UNK d   1       4.607   0.032  -4.131  0.00  0.00    -0.106 OA
ATOM     25  N   UNK d   1       4.780  -1.217  -3.777  0.00  0.00    -0.108 NA
ATOM     26  C   UNK d   1       3.663  -1.624  -3.135  0.00  0.00     0.088 A 
ATOM     27  C   UNK d   1       3.404  -2.975  -2.553  0.00  0.00     0.075 C 
ENDBRANCH  21  22
ENDBRANCH   6  21
TORSDOF 3
