# created with PyMOL 2.3.2
@<TRIPOS>MOLECULE
471
44 47 1                 
SMALL
USER_CHARGES
@<TRIPOS>ATOM
1	  Br	-4.462	-5.096	1.110	Br	1	UNK0	0.000	
2	   C	-3.301	-3.884	2.016	C.2	1	UNK0	0.000	
3	   C	-2.697	-2.846	1.327	C.2	1	UNK0	0.000	
4	   C	-1.848	-1.949	1.959	C.2	1	UNK0	0.000	
5	   C	-1.644	-2.153	3.310	C.2	1	UNK0	0.000	
6	   C	-2.229	-3.174	4.018	C.2	1	UNK0	0.000	
7	   C	-3.066	-4.048	3.368	C.2	1	UNK0	0.000	
8	   C	-0.798	-1.262	3.945	C.2	1	UNK0	0.000	
9	   O	-0.566	-1.394	5.192	O.2	1	UNK0	0.000	
10	   C	-0.224	-0.247	3.209	C.2	1	UNK0	0.000	
11	   C	-0.468	-0.095	1.864	C.2	1	UNK0	0.000	
12	   O	-1.275	-0.965	1.310	O.3	1	UNK0	0.000	
13	   C	0.167	1.002	1.123	C.2	1	UNK0	0.000	
14	   O	0.929	1.784	1.762	O.2	1	UNK0	0.000	
15	   N	-0.040	1.212	-0.255	N.pl3	1	UNK0	0.000	
16	   C	0.625	2.316	-0.899	C.3	1	UNK0	0.000	
17	   C	1.444	1.890	-2.099	C.3	1	UNK0	0.000	
18	   N	0.827	0.759	-2.685	N.3	1	UNK0	0.000	
19	   C	-0.577	0.769	-2.556	C.3	1	UNK0	0.000	
20	   C	-0.882	0.394	-1.094	C.3	1	UNK0	0.000	
21	   C	1.490	-0.476	-2.556	C.3	1	UNK0	0.000	
22	   C	2.829	-0.540	-3.135	C.2	1	UNK0	0.000	
23	   N	3.455	0.468	-3.764	N.2	1	UNK0	0.000	
24	   O	4.607	0.032	-4.131	O.3	1	UNK0	0.000	
25	   N	4.780	-1.217	-3.777	N.2	1	UNK0	0.000	
26	   C	3.663	-1.624	-3.135	C.2	1	UNK0	0.000	
27	   C	3.404	-2.975	-2.553	C.3	1	UNK0	0.000	
28	   H	-2.893	-2.735	0.278	 H	1	UNK0	0.000	
29	   H	-2.022	-3.272	5.074	 H	1	UNK0	0.000	
30	   H	-3.538	-4.864	3.918	 H	1	UNK0	0.000	
31	   H	0.438	0.446	3.723	 H	1	UNK0	0.000	
32	   H	1.257	2.891	-0.169	 H	1	UNK0	0.000	
33	   H	-0.159	3.043	-1.268	 H	1	UNK0	0.000	
34	   H	2.500	1.689	-1.781	 H	1	UNK0	0.000	
35	   H	1.498	2.748	-2.832	 H	1	UNK0	0.000	
36	   H	-0.945	1.806	-2.691	 H	1	UNK0	0.000	
37	   H	-1.131	0.081	-3.197	 H	1	UNK0	0.000	
38	   H	-1.950	0.586	-0.863	 H	1	UNK0	0.000	
39	   H	-0.722	-0.690	-0.938	 H	1	UNK0	0.000	
40	   H	0.860	-1.281	-2.987	 H	1	UNK0	0.000	
41	   H	1.567	-0.725	-1.459	 H	1	UNK0	0.000	
42	   H	2.689	-2.900	-1.690	 H	1	UNK0	0.000	
43	   H	2.951	-3.600	-3.326	 H	1	UNK0	0.000	
44	   H	4.340	-3.394	-2.125	 H	1	UNK0	0.000	
@<TRIPOS>BOND
1 1 2 1
2 2 3 2
3 2 7 1
4 3 4 1
5 4 5 2
6 4 12 1
7 5 6 1
8 5 8 1
9 6 7 2
10 8 9 2
11 8 10 1
12 10 11 2
13 11 12 1
14 11 13 1
15 13 14 2
16 13 15 1
17 15 16 1
18 15 20 1
19 16 17 1
20 17 18 1
21 18 19 1
22 18 21 1
23 19 20 1
24 21 22 1
25 22 23 2
26 22 26 1
27 23 24 1
28 24 25 1
29 25 26 2
30 26 27 1
31 3 28 1
32 6 29 1
33 7 30 1
34 10 31 1
35 16 32 1
36 16 33 1
37 17 34 1
38 17 35 1
39 19 36 1
40 19 37 1
41 20 38 1
42 20 39 1
43 21 40 1
44 21 41 1
45 27 42 1
46 27 43 1
47 27 44 1
@<TRIPOS>SUBSTRUCTURE
1	UNK0	1	GROUP	1 ****	UNK
