REMARK  5 active torsions:
REMARK  status: ('A' for Active; 'I' for Inactive)
REMARK    1  A    between atoms: N_10  and  C_13 
REMARK    2  A    between atoms: C_13  and  C_14 
REMARK    3  A    between atoms: C_14  and  C_15 
REMARK    4  A    between atoms: C_15  and  C_16 
REMARK       I    between atoms: C_16  and  N_18 
REMARK    5  A    between atoms: N_21  and  C_24 
ROOT
ATOM      1  C   UNK d   1      -0.898   0.753  -0.826  0.00  0.00     0.104 C 
ENDROOT
BRANCH   1   2
ATOM      2  C   UNK d   1       0.074   1.885  -1.003  0.00  0.00     0.029 C 
BRANCH   2   3
ATOM      3  C   UNK d   1       0.820   1.714  -2.274  0.00  0.00     0.136 C 
BRANCH   3   4
ATOM      4  N   UNK d   1       1.779   2.766  -2.530  0.00  0.00    -0.280 N 
ATOM      5  C   UNK d   1       3.128   2.709  -2.091  0.00  0.00     0.261 A 
ATOM      6  C   UNK d   1       3.797   3.925  -2.519  0.00  0.00     0.048 A 
ATOM      7  O   UNK d   1       3.700   1.780  -1.435  0.00  0.00    -0.267 OA
ATOM      8  C   UNK d   1       2.864   4.685  -3.197  0.00  0.00     0.049 A 
ATOM      9  C   UNK d   1       5.091   4.378  -2.362  0.00  0.00     0.019 A 
ATOM     10  C   UNK d   1       3.275   5.904  -3.704  0.00  0.00     0.037 A 
ATOM     11  C   UNK d   1       1.576   3.975  -3.218  0.00  0.00     0.261 A 
ATOM     12  C   UNK d   1       4.572   6.347  -3.541  0.00  0.00     0.011 A 
ATOM     13 Br   UNK d   1       5.069   8.039  -4.269  0.00  0.00    -0.051 Br
ATOM     14  C   UNK d   1       5.509   5.593  -2.866  0.00  0.00     0.020 A 
ATOM     15  O   UNK d   1       0.516   4.395  -3.758  0.00  0.00    -0.267 OA
ENDBRANCH   3   4
ENDBRANCH   2   3
ENDBRANCH   1   2
BRANCH   1  16
ATOM     16  C   UNK d   1      -0.268  -0.584  -0.734  0.00  0.00     0.219 C 
ATOM     17  O   UNK d   1       0.974  -0.764  -0.640  0.00  0.00    -0.273 OA
ATOM     18  N   UNK d   1      -1.078  -1.776  -0.748  0.00  0.00    -0.349 N 
ATOM     19  C   UNK d   1      -0.473  -3.085  -0.657  0.00  0.00     0.145 C 
ATOM     20  C   UNK d   1      -2.524  -1.724  -0.853  0.00  0.00     0.145 C 
ATOM     21  C   UNK d   1      -1.183  -4.006   0.278  0.00  0.00     0.144 C 
ATOM     22  N   UNK d   1      -2.346  -3.431   0.911  0.00  0.00    -0.362 N 
ATOM     23  C   UNK d   1      -3.168  -2.403   0.331  0.00  0.00     0.144 C 
BRANCH  22  24
ATOM     24  C   UNK d   1      -2.707  -3.919   2.207  0.00  0.00     0.143 A 
ATOM     25  N   UNK d   1      -1.982  -4.886   2.832  0.00  0.00    -0.241 NA
ATOM     26  C   UNK d   1      -2.284  -5.367   4.037  0.00  0.00     0.138 A 
ATOM     27  C   UNK d   1      -3.394  -4.864   4.699  0.00  0.00     0.135 A 
ATOM     28  N   UNK d   1      -4.138  -3.900   4.105  0.00  0.00    -0.268 NA
ATOM     29  C   UNK d   1      -3.802  -3.440   2.889  0.00  0.00     0.166 A 
ENDBRANCH  22  24
ENDBRANCH   1  16
TORSDOF 5
