# created with PyMOL 2.3.2
@<TRIPOS>MOLECULE
473
49 52 1                 
SMALL
USER_CHARGES
@<TRIPOS>ATOM
1	  Br	5.069	8.039	-4.269	Br	1	UNK0	0.000	
2	   C	4.572	6.347	-3.541	C.2	1	UNK0	0.000	
3	   C	3.275	5.904	-3.704	C.2	1	UNK0	0.000	
4	   C	2.864	4.685	-3.197	C.2	1	UNK0	0.000	
5	   C	3.797	3.925	-2.519	C.2	1	UNK0	0.000	
6	   C	5.091	4.378	-2.362	C.2	1	UNK0	0.000	
7	   C	5.509	5.593	-2.866	C.2	1	UNK0	0.000	
8	   C	3.128	2.709	-2.091	C.2	1	UNK0	0.000	
9	   O	3.700	1.780	-1.435	O.2	1	UNK0	0.000	
10	   N	1.779	2.766	-2.530	N.pl3	1	UNK0	0.000	
11	   C	1.576	3.975	-3.218	C.2	1	UNK0	0.000	
12	   O	0.516	4.395	-3.758	O.2	1	UNK0	0.000	
13	   C	0.820	1.714	-2.274	C.3	1	UNK0	0.000	
14	   C	0.074	1.885	-1.003	C.3	1	UNK0	0.000	
15	   C	-0.898	0.753	-0.826	C.3	1	UNK0	0.000	
16	   C	-0.268	-0.584	-0.734	C.2	1	UNK0	0.000	
17	   O	0.974	-0.764	-0.640	O.2	1	UNK0	0.000	
18	   N	-1.078	-1.776	-0.748	N.pl3	1	UNK0	0.000	
19	   C	-0.473	-3.085	-0.657	C.3	1	UNK0	0.000	
20	   C	-1.183	-4.006	0.278	C.3	1	UNK0	0.000	
21	   N	-2.346	-3.431	0.911	N.pl3	1	UNK0	0.000	
22	   C	-3.168	-2.403	0.331	C.3	1	UNK0	0.000	
23	   C	-2.524	-1.724	-0.853	C.3	1	UNK0	0.000	
24	   C	-2.707	-3.919	2.207	C.2	1	UNK0	0.000	
25	   N	-1.982	-4.886	2.832	N.2	1	UNK0	0.000	
26	   C	-2.284	-5.367	4.037	C.2	1	UNK0	0.000	
27	   C	-3.394	-4.864	4.699	C.2	1	UNK0	0.000	
28	   N	-4.138	-3.900	4.105	N.2	1	UNK0	0.000	
29	   C	-3.802	-3.440	2.889	C.2	1	UNK0	0.000	
30	   H	2.512	6.474	-4.232	 H	1	UNK0	0.000	
31	   H	5.787	3.745	-1.822	 H	1	UNK0	0.000	
32	   H	6.529	5.916	-2.724	 H	1	UNK0	0.000	
33	   H	1.370	0.761	-2.262	 H	1	UNK0	0.000	
34	   H	0.085	1.734	-3.134	 H	1	UNK0	0.000	
35	   H	-0.409	2.871	-0.890	 H	1	UNK0	0.000	
36	   H	0.781	1.829	-0.121	 H	1	UNK0	0.000	
37	   H	-1.543	0.895	0.073	 H	1	UNK0	0.000	
38	   H	-1.599	0.726	-1.687	 H	1	UNK0	0.000	
39	   H	0.608	-2.998	-0.434	 H	1	UNK0	0.000	
40	   H	-0.522	-3.518	-1.696	 H	1	UNK0	0.000	
41	   H	-1.546	-4.929	-0.258	 H	1	UNK0	0.000	
42	   H	-0.489	-4.388	1.061	 H	1	UNK0	0.000	
43	   H	-4.115	-2.841	0.007	 H	1	UNK0	0.000	
44	   H	-3.290	-1.613	1.120	 H	1	UNK0	0.000	
45	   H	-2.893	-0.689	-0.994	 H	1	UNK0	0.000	
46	   H	-2.780	-2.334	-1.768	 H	1	UNK0	0.000	
47	   H	-1.695	-6.137	4.519	 H	1	UNK0	0.000	
48	   H	-3.665	-5.227	5.666	 H	1	UNK0	0.000	
49	   H	-4.416	-2.673	2.446	 H	1	UNK0	0.000	
@<TRIPOS>BOND
1 1 2 1
2 2 3 2
3 2 7 1
4 3 4 1
5 4 5 2
6 4 11 1
7 5 6 1
8 5 8 1
9 6 7 2
10 8 9 2
11 8 10 1
12 10 11 1
13 10 13 1
14 11 12 2
15 13 14 1
16 14 15 1
17 15 16 1
18 16 17 2
19 16 18 1
20 18 19 1
21 18 23 1
22 19 20 1
23 20 21 1
24 21 22 1
25 21 24 1
26 22 23 1
27 24 25 2
28 24 29 1
29 25 26 1
30 26 27 2
31 27 28 1
32 28 29 2
33 3 30 1
34 6 31 1
35 7 32 1
36 13 33 1
37 13 34 1
38 14 35 1
39 14 36 1
40 15 37 1
41 15 38 1
42 19 39 1
43 19 40 1
44 20 41 1
45 20 42 1
46 22 43 1
47 22 44 1
48 23 45 1
49 23 46 1
50 26 47 1
51 27 48 1
52 29 49 1
@<TRIPOS>SUBSTRUCTURE
1	UNK0	1	GROUP	1 ****	UNK
