REMARK  5 active torsions:
REMARK  status: ('A' for Active; 'I' for Inactive)
REMARK    1  A    between atoms: N_8  and  C_28 
REMARK    2  A    between atoms: N_12  and  N_13 
REMARK       I    between atoms: N_13  and  C_14 
REMARK    3  A    between atoms: C_14  and  C_16 
REMARK    4  A    between atoms: C_16  and  N_17 
REMARK    5  A    between atoms: C_20  and  C_22 
ROOT
ATOM      1  C   UNK d   1      -1.419   5.174  -2.806  0.00  0.00     0.225 C 
ATOM      2  C   UNK d   1      -2.479   6.161  -2.674  0.00  0.00    -0.097 C 
ATOM      3  C   UNK d   1      -3.345   6.990  -2.569  0.00  0.00     0.014 C 
ENDROOT
BRANCH   1   4
ATOM      4  N   UNK d   1      -1.595   4.109  -1.839  0.00  0.00    -0.300 N 
ATOM      5  C   UNK d   1      -1.098   3.998  -0.510  0.00  0.00     0.051 A 
ATOM      6  C   UNK d   1      -1.514   2.793   0.069  0.00  0.00     0.028 A 
ATOM      7  C   UNK d   1      -0.313   4.856   0.246  0.00  0.00     0.032 A 
ATOM      8  C   UNK d   1      -1.131   2.502   1.361  0.00  0.00     0.035 A 
ATOM      9  C   UNK d   1      -2.319   2.065  -0.901  0.00  0.00     0.157 A 
ATOM     10  C   UNK d   1      -0.338   3.376   2.114  0.00  0.00     0.011 A 
ATOM     11 Br   UNK d   1       0.186   2.968   3.895  0.00  0.00    -0.051 Br
ATOM     12  C   UNK d   1       0.059   4.548   1.533  0.00  0.00     0.021 A 
ATOM     13  C   UNK d   1      -2.346   2.933  -2.098  0.00  0.00     0.280 A 
ATOM     14  N   UNK d   1      -2.888   0.917  -0.762  0.00  0.00    -0.166 NA
ATOM     15  O   UNK d   1      -2.972   2.586  -3.137  0.00  0.00    -0.265 OA
BRANCH  14  16
ATOM     16  N   UNK d   1      -2.796   0.178   0.420  0.00  0.00    -0.245 N 
ATOM     17  C   UNK d   1      -1.921  -0.927   0.562  0.00  0.00     0.258 C 
ATOM     18  O   UNK d   1      -1.199  -1.261  -0.405  0.00  0.00    -0.270 OA
ATOM     19  H   UNK d   1      -3.403   0.451   1.219  0.00  0.00     0.192 HD
BRANCH  17  20
ATOM     20  C   UNK d   1      -1.865  -1.663   1.817  0.00  0.00     0.274 C 
BRANCH  20  21
ATOM     21  N   UNK d   1      -0.919  -2.762   1.790  0.00  0.00    -0.182 N 
ATOM     22  N   UNK d   1      -1.156  -4.012   1.431  0.00  0.00     0.025 NA
ATOM     23  N   UNK d   1      -0.054  -4.737   1.532  0.00  0.00    -0.136 NA
ATOM     24  C   UNK d   1       0.931  -3.935   1.971  0.00  0.00     0.198 A 
ATOM     25  N   UNK d   1       0.365  -2.730   2.118  0.00  0.00    -0.136 NA
BRANCH  24  26
ATOM     26  C   UNK d   1       2.310  -4.344   2.218  0.00  0.00     0.015 A 
ATOM     27  C   UNK d   1       2.693  -5.650   2.000  0.00  0.00     0.015 A 
ATOM     28  C   UNK d   1       4.012  -6.045   2.235  0.00  0.00     0.001 A 
ATOM     29  C   UNK d   1       4.962  -5.157   2.686  0.00  0.00     0.000 A 
ATOM     30  C   UNK d   1       4.580  -3.845   2.905  0.00  0.00     0.001 A 
ATOM     31  C   UNK d   1       3.267  -3.461   2.669  0.00  0.00     0.015 A 
ENDBRANCH  24  26
ENDBRANCH  20  21
ENDBRANCH  17  20
ENDBRANCH  14  16
ENDBRANCH   1   4
TORSDOF 5
