# created with PyMOL 2.3.2
@<TRIPOS>MOLECULE
483
44 47 1                 
SMALL
USER_CHARGES
@<TRIPOS>ATOM
1	  Br	0.186	2.968	3.895	Br	1	UNK0	0.000	
2	   C	-0.338	3.376	2.114	C.2	1	UNK0	0.000	
3	   C	-1.131	2.502	1.361	C.2	1	UNK0	0.000	
4	   C	-1.514	2.793	0.069	C.2	1	UNK0	0.000	
5	   C	-1.098	3.998	-0.510	C.2	1	UNK0	0.000	
6	   C	-0.313	4.856	0.246	C.2	1	UNK0	0.000	
7	   C	0.059	4.548	1.533	C.2	1	UNK0	0.000	
8	   N	-1.595	4.109	-1.839	N.pl3	1	UNK0	0.000	
9	   C	-2.346	2.933	-2.098	C.2	1	UNK0	0.000	
10	   O	-2.972	2.586	-3.137	O.2	1	UNK0	0.000	
11	   C	-2.319	2.065	-0.901	C.2	1	UNK0	0.000	
12	   N	-2.888	0.917	-0.762	N.2	1	UNK0	0.000	
13	   N	-2.796	0.178	0.420	N.pl3	1	UNK0	0.000	
14	   C	-1.921	-0.927	0.562	C.2	1	UNK0	0.000	
15	   O	-1.199	-1.261	-0.405	O.2	1	UNK0	0.000	
16	   C	-1.865	-1.663	1.817	C.3	1	UNK0	0.000	
17	   N	-0.919	-2.762	1.790	N.pl3	1	UNK0	0.000	
18	   N	-1.156	-4.012	1.431	N.2	1	UNK0	0.000	
19	   N	-0.054	-4.737	1.532	N.2	1	UNK0	0.000	
20	   C	0.931	-3.935	1.971	C.2	1	UNK0	0.000	
21	   N	0.365	-2.730	2.118	N.2	1	UNK0	0.000	
22	   C	2.310	-4.344	2.218	C.2	1	UNK0	0.000	
23	   C	2.693	-5.650	2.000	C.2	1	UNK0	0.000	
24	   C	4.012	-6.045	2.235	C.2	1	UNK0	0.000	
25	   C	4.962	-5.157	2.686	C.2	1	UNK0	0.000	
26	   C	4.580	-3.845	2.905	C.2	1	UNK0	0.000	
27	   C	3.267	-3.461	2.669	C.2	1	UNK0	0.000	
28	   C	-1.419	5.174	-2.806	C.3	1	UNK0	0.000	
29	   C	-2.479	6.161	-2.674	C.1	1	UNK0	0.000	
30	   C	-3.345	6.990	-2.569	C.1	1	UNK0	0.000	
31	   H	-1.434	1.579	1.842	 H	1	UNK0	0.000	
32	   H	0.031	5.796	-0.159	 H	1	UNK0	0.000	
33	   H	0.680	5.225	2.132	 H	1	UNK0	0.000	
34	   H	-3.403	0.451	1.219	 H	1	UNK0	0.000	
35	   H	-2.866	-2.045	2.093	 H	1	UNK0	0.000	
36	   H	-1.580	-0.947	2.626	 H	1	UNK0	0.000	
37	   H	1.959	-6.372	1.644	 H	1	UNK0	0.000	
38	   H	4.317	-7.077	2.064	 H	1	UNK0	0.000	
39	   H	5.991	-5.490	2.863	 H	1	UNK0	0.000	
40	   H	5.324	-3.139	3.260	 H	1	UNK0	0.000	
41	   H	2.952	-2.434	2.836	 H	1	UNK0	0.000	
42	   H	-0.440	5.697	-2.675	 H	1	UNK0	0.000	
43	   H	-1.381	4.714	-3.823	 H	1	UNK0	0.000	
44	   H	-4.113	7.738	-2.464	 H	1	UNK0	0.000	
@<TRIPOS>BOND
1 1 2 1
2 2 3 2
3 2 7 1
4 3 4 1
5 4 5 2
6 4 11 1
7 5 6 1
8 5 8 1
9 6 7 2
10 8 9 1
11 8 28 1
12 9 10 2
13 9 11 1
14 11 12 2
15 12 13 1
16 13 14 1
17 14 15 2
18 14 16 1
19 16 17 1
20 17 18 1
21 17 21 1
22 18 19 2
23 19 20 1
24 20 21 2
25 20 22 1
26 22 23 2
27 22 27 1
28 23 24 1
29 24 25 2
30 25 26 1
31 26 27 2
32 28 29 1
33 29 30 3
34 3 31 1
35 6 32 1
36 7 33 1
37 13 34 1
38 16 35 1
39 16 36 1
40 23 37 1
41 24 38 1
42 25 39 1
43 26 40 1
44 27 41 1
45 28 42 1
46 28 43 1
47 30 44 1
@<TRIPOS>SUBSTRUCTURE
1	UNK0	1	GROUP	1 ****	UNK
