REMARK  8 active torsions:
REMARK  status: ('A' for Active; 'I' for Inactive)
REMARK    1  A    between atoms: N_8  and  C_28 
REMARK    2  A    between atoms: C_11  and  N_12 
REMARK       I    between atoms: N_13  and  C_14 
REMARK    3  A    between atoms: C_14  and  C_16 
REMARK    4  A    between atoms: C_16  and  O_17 
REMARK    5  A    between atoms: O_17  and  N_18 
REMARK    6  A    between atoms: C_19  and  C_20 
REMARK    7  A    between atoms: C_23  and  O_26 
REMARK    8  A    between atoms: C_28  and  N_29 
ROOT
ATOM      1 Br   UNK d   1       2.828   0.041   4.378  0.00  0.00    -0.051 Br
ATOM      2  C   UNK d   1       1.257   0.074   3.293  0.00  0.00     0.011 A 
ATOM      3  C   UNK d   1       1.270   0.613   1.998  0.00  0.00     0.035 A 
ATOM      4  C   UNK d   1       0.091   0.575   1.311  0.00  0.00     0.028 A 
ATOM      5  C   UNK d   1      -1.082   0.051   1.813  0.00  0.00     0.052 A 
ATOM      6  C   UNK d   1      -1.093  -0.472   3.086  0.00  0.00     0.032 A 
ATOM      7  C   UNK d   1       0.101  -0.457   3.822  0.00  0.00     0.021 A 
ATOM      8  N   UNK d   1      -2.149   0.145   0.878  0.00  0.00    -0.295 N 
ATOM      9  C   UNK d   1      -1.595   0.789  -0.299  0.00  0.00     0.281 A 
ATOM     10  O   UNK d   1      -2.226   1.034  -1.348  0.00  0.00    -0.265 OA
ATOM     11  C   UNK d   1      -0.206   1.059  -0.001  0.00  0.00     0.157 A 
ENDROOT
BRANCH  11  12
ATOM     12  N   UNK d   1       0.631   1.751  -0.673  0.00  0.00    -0.166 NA
ATOM     13  N   UNK d   1       1.686   2.247  -0.715  0.00  0.00    -0.244 N 
ATOM     14  C   UNK d   1       2.962   2.854  -0.746  0.00  0.00     0.264 C 
ATOM     15  H   UNK d   1       1.577   2.747   0.576  0.00  0.00     0.192 HD
ATOM     16  O   UNK d   1       3.619   3.424   0.096  0.00  0.00    -0.269 OA
BRANCH  14  17
ATOM     17  C   UNK d   1       3.548   2.731  -2.171  0.00  0.00     0.308 C 
BRANCH  17  18
ATOM     18  O   UNK d   1       2.670   1.791  -2.827  0.00  0.00    -0.247 OA
BRANCH  18  19
ATOM     19  N   UNK d   1       2.875   0.433  -2.450  0.00  0.00    -0.145 NA
ATOM     20  C   UNK d   1       2.072  -0.488  -2.816  0.00  0.00     0.157 C 
BRANCH  20  21
ATOM     21  C   UNK d   1       2.293  -1.856  -2.407  0.00  0.00    -0.016 A 
ATOM     22  C   UNK d   1       3.235  -2.272  -1.527  0.00  0.00     0.015 A 
ATOM     23  C   UNK d   1       3.334  -3.672  -1.321  0.00  0.00     0.037 A 
ATOM     24  C   UNK d   1       2.592  -4.620  -1.890  0.00  0.00     0.068 A 
ATOM     25  C   UNK d   1       1.663  -4.154  -2.757  0.00  0.00     0.037 A 
ATOM     26  C   UNK d   1       1.426  -2.875  -3.091  0.00  0.00     0.015 A 
BRANCH  24  27
ATOM     27  O   UNK d   1       2.795  -5.971  -1.587  0.00  0.00    -0.356 OA
ATOM     28  C   UNK d   1       2.050  -6.984  -2.253  0.00  0.00     0.210 C 
ENDBRANCH  24  27
ENDBRANCH  20  21
ENDBRANCH  18  19
ENDBRANCH  17  18
ENDBRANCH  14  17
ENDBRANCH  11  12
BRANCH   8  29
ATOM     29  C   UNK d   1      -3.528  -0.313   0.922  0.00  0.00     0.253 C 
BRANCH  29  30
ATOM     30  N   UNK d   1      -4.388   0.672   1.361  0.00  0.00    -0.392 N 
ATOM     31  C   UNK d   1      -5.739   0.290   1.277  0.00  0.00     0.145 C 
ATOM     32  C   UNK d   1      -6.466   0.687   2.564  0.00  0.00     0.187 C 
ATOM     33  O   UNK d   1      -5.647   0.128   3.583  0.00  0.00    -0.388 OA
ATOM     34  C   UNK d   1      -4.506   0.926   3.741  0.00  0.00     0.187 C 
ATOM     35  C   UNK d   1      -3.965   1.457   2.450  0.00  0.00     0.145 C 
ENDBRANCH  29  30
ENDBRANCH   8  29
TORSDOF 8
