# created with PyMOL 2.3.2
@<TRIPOS>MOLECULE
484
58 61 1                 
SMALL
USER_CHARGES
@<TRIPOS>ATOM
1	  Br	2.828	0.041	4.378	Br	1	UNK0	0.000	
2	   C	1.257	0.074	3.293	C.2	1	UNK0	0.000	
3	   C	1.270	0.613	1.998	C.2	1	UNK0	0.000	
4	   C	0.091	0.575	1.311	C.2	1	UNK0	0.000	
5	   C	-1.082	0.051	1.813	C.2	1	UNK0	0.000	
6	   C	-1.093	-0.472	3.086	C.2	1	UNK0	0.000	
7	   C	0.101	-0.457	3.822	C.2	1	UNK0	0.000	
8	   N	-2.149	0.145	0.878	N.pl3	1	UNK0	0.000	
9	   C	-1.595	0.789	-0.299	C.2	1	UNK0	0.000	
10	   O	-2.226	1.034	-1.348	O.2	1	UNK0	0.000	
11	   C	-0.206	1.059	-0.001	C.2	1	UNK0	0.000	
12	   N	0.631	1.751	-0.673	N.2	1	UNK0	0.000	
13	   N	1.686	2.247	-0.715	N.pl3	1	UNK0	0.000	
14	   C	2.962	2.854	-0.746	C.2	1	UNK0	0.000	
15	   O	3.619	3.424	0.096	O.2	1	UNK0	0.000	
16	   C	3.548	2.731	-2.171	C.3	1	UNK0	0.000	
17	   O	2.670	1.791	-2.827	O.3	1	UNK0	0.000	
18	   N	2.875	0.433	-2.450	N.2	1	UNK0	0.000	
19	   C	2.072	-0.488	-2.816	C.2	1	UNK0	0.000	
20	   C	2.293	-1.856	-2.407	C.2	1	UNK0	0.000	
21	   C	3.235	-2.272	-1.527	C.2	1	UNK0	0.000	
22	   C	3.334	-3.672	-1.321	C.2	1	UNK0	0.000	
23	   C	2.592	-4.620	-1.890	C.2	1	UNK0	0.000	
24	   C	1.663	-4.154	-2.757	C.2	1	UNK0	0.000	
25	   C	1.426	-2.875	-3.091	C.2	1	UNK0	0.000	
26	   O	2.795	-5.971	-1.587	O.3	1	UNK0	0.000	
27	   C	2.050	-6.984	-2.253	C.3	1	UNK0	0.000	
28	   C	-3.528	-0.313	0.922	C.3	1	UNK0	0.000	
29	   N	-4.388	0.672	1.361	N.3	1	UNK0	0.000	
30	   C	-5.739	0.290	1.277	C.3	1	UNK0	0.000	
31	   C	-6.466	0.687	2.564	C.3	1	UNK0	0.000	
32	   O	-5.647	0.128	3.583	O.3	1	UNK0	0.000	
33	   C	-4.506	0.926	3.741	C.3	1	UNK0	0.000	
34	   C	-3.965	1.457	2.450	C.3	1	UNK0	0.000	
35	   H	2.181	0.962	1.673	 H	1	UNK0	0.000	
36	   H	-1.974	-0.910	3.546	 H	1	UNK0	0.000	
37	   H	0.085	-0.840	4.818	 H	1	UNK0	0.000	
38	   H	1.577	2.747	0.576	 H	1	UNK0	0.000	
39	   H	3.085	3.736	-2.579	 H	1	UNK0	0.000	
40	   H	4.544	2.720	-2.288	 H	1	UNK0	0.000	
41	   H	1.217	-0.272	-3.453	 H	1	UNK0	0.000	
42	   H	3.872	-1.594	-1.013	 H	1	UNK0	0.000	
43	   H	4.111	-3.966	-0.590	 H	1	UNK0	0.000	
44	   H	1.044	-4.959	-3.239	 H	1	UNK0	0.000	
45	   H	0.715	-2.463	-3.743	 H	1	UNK0	0.000	
46	   H	2.465	-7.160	-3.281	 H	1	UNK0	0.000	
47	   H	2.248	-7.950	-1.688	 H	1	UNK0	0.000	
48	   H	0.960	-6.813	-2.258	 H	1	UNK0	0.000	
49	   H	-3.494	-1.236	1.538	 H	1	UNK0	0.000	
50	   H	-3.751	-0.703	-0.115	 H	1	UNK0	0.000	
51	   H	-6.259	0.715	0.386	 H	1	UNK0	0.000	
52	   H	-5.808	-0.803	1.161	 H	1	UNK0	0.000	
53	   H	-7.416	0.167	2.567	 H	1	UNK0	0.000	
54	   H	-6.558	1.762	2.683	 H	1	UNK0	0.000	
55	   H	-3.726	0.372	4.277	 H	1	UNK0	0.000	
56	   H	-4.819	1.793	4.373	 H	1	UNK0	0.000	
57	   H	-4.323	2.555	2.312	 H	1	UNK0	0.000	
58	   H	-2.875	1.541	2.494	 H	1	UNK0	0.000	
@<TRIPOS>BOND
1 1 2 1
2 2 3 2
3 2 7 1
4 3 4 1
5 4 5 2
6 4 11 1
7 5 6 1
8 5 8 1
9 6 7 2
10 8 9 1
11 8 28 1
12 9 10 2
13 9 11 1
14 11 12 2
15 12 13 1
16 13 14 1
17 14 15 2
18 14 16 1
19 16 17 1
20 17 18 1
21 18 19 2
22 19 20 1
23 20 21 2
24 20 25 1
25 21 22 1
26 22 23 2
27 23 24 1
28 23 26 1
29 24 25 2
30 26 27 1
31 28 29 1
32 29 30 1
33 29 34 1
34 30 31 1
35 31 32 1
36 32 33 1
37 33 34 1
38 3 35 1
39 6 36 1
40 7 37 1
41 13 38 1
42 16 39 1
43 16 40 1
44 19 41 1
45 21 42 1
46 22 43 1
47 24 44 1
48 25 45 1
49 27 46 1
50 27 47 1
51 27 48 1
52 28 49 1
53 28 50 1
54 30 51 1
55 30 52 1
56 31 53 1
57 31 54 1
58 33 55 1
59 33 56 1
60 34 57 1
61 34 58 1
@<TRIPOS>SUBSTRUCTURE
1	UNK0	1	GROUP	1 ****	UNK
