REMARK  7 active torsions:
REMARK  status: ('A' for Active; 'I' for Inactive)
REMARK    1  A    between atoms: N_8  and  C_26 
REMARK    2  A    between atoms: N_12  and  N_13 
REMARK       I    between atoms: N_13  and  C_14 
REMARK    3  A    between atoms: C_14  and  C_16 
REMARK    4  A    between atoms: C_16  and  O_17 
REMARK    5  A    between atoms: O_17  and  C_18 
REMARK    6  A    between atoms: C_19  and  O_24 
REMARK    7  A    between atoms: C_26  and  N_27 
ROOT
ATOM      1 Br   UNK d   1      -4.295  -6.548   2.565  0.00  0.00    -0.051 Br
ATOM      2  C   UNK d   1      -2.873  -5.317   2.168  0.00  0.00     0.011 A 
ATOM      3  C   UNK d   1      -3.057  -3.956   2.250  0.00  0.00     0.035 A 
ATOM      4  C   UNK d   1      -2.060  -3.027   1.972  0.00  0.00     0.028 A 
ATOM      5  C   UNK d   1      -0.803  -3.504   1.589  0.00  0.00     0.052 A 
ATOM      6  C   UNK d   1      -0.618  -4.869   1.507  0.00  0.00     0.032 A 
ATOM      7  C   UNK d   1      -1.631  -5.781   1.790  0.00  0.00     0.021 A 
ATOM      8  N   UNK d   1       0.086  -2.404   1.349  0.00  0.00    -0.295 N 
ATOM      9  C   UNK d   1      -0.658  -1.218   1.594  0.00  0.00     0.281 A 
ATOM     10  O   UNK d   1      -0.217  -0.052   1.488  0.00  0.00    -0.265 OA
ATOM     11  C   UNK d   1      -2.007  -1.577   1.987  0.00  0.00     0.157 A 
ATOM     12  N   UNK d   1      -2.969  -0.780   2.289  0.00  0.00    -0.166 NA
ENDROOT
BRANCH  12  13
ATOM     13  N   UNK d   1      -2.842   0.604   2.280  0.00  0.00    -0.244 N 
ATOM     14  C   UNK d   1      -3.783   1.390   1.583  0.00  0.00     0.261 C 
ATOM     15  O   UNK d   1      -4.762   0.860   0.952  0.00  0.00    -0.269 OA
ATOM     16  H   UNK d   1      -2.060   1.046   2.783  0.00  0.00     0.192 HD
BRANCH  14  17
ATOM     17  C   UNK d   1      -3.724   2.872   1.522  0.00  0.00     0.280 C 
BRANCH  17  18
ATOM     18  O   UNK d   1      -2.597   3.349   2.256  0.00  0.00    -0.339 OA
BRANCH  18  19
ATOM     19  C   UNK d   1      -2.348   4.709   2.331  0.00  0.00     0.102 A 
ATOM     20  C   UNK d   1      -1.261   5.176   3.039  0.00  0.00     0.101 A 
ATOM     21  C   UNK d   1      -1.017   6.544   3.110  0.00  0.00     0.039 A 
ATOM     22  C   UNK d   1      -1.857   7.440   2.477  0.00  0.00     0.003 A 
ATOM     23  C   UNK d   1      -2.928   6.963   1.781  0.00  0.00     0.003 A 
ATOM     24  C   UNK d   1      -3.170   5.601   1.711  0.00  0.00     0.039 A 
BRANCH  20  25
ATOM     25  O   UNK d   1      -0.408   4.313   3.679  0.00  0.00    -0.353 OA
ATOM     26  C   UNK d   1       0.697   4.801   4.397  0.00  0.00     0.210 C 
ENDBRANCH  20  25
ENDBRANCH  18  19
ENDBRANCH  17  18
ENDBRANCH  14  17
ENDBRANCH  12  13
BRANCH   8  27
ATOM     27  C   UNK d   1       1.474  -2.532   0.938  0.00  0.00     0.253 C 
BRANCH  27  28
ATOM     28  N   UNK d   1       1.683  -2.551  -0.465  0.00  0.00    -0.393 N 
ATOM     29  C   UNK d   1       1.041  -3.603  -1.176  0.00  0.00     0.148 C 
ATOM     30  C   UNK d   1       1.390  -3.584  -2.667  0.00  0.00     0.291 C 
ATOM     31  N   UNK d   1       2.504  -2.693  -2.821  0.00  0.00     0.087 N 
ATOM     32  C   UNK d   1       2.177  -1.331  -2.533  0.00  0.00     0.291 C 
ATOM     33  C   UNK d   1       3.239  -2.885  -4.038  0.00  0.00     0.310 C 
ATOM     34  C   UNK d   1       1.638  -1.273  -1.115  0.00  0.00     0.148 C 
ENDBRANCH  27  28
ENDBRANCH   8  27
TORSDOF 7
