# created with PyMOL 2.3.2
@<TRIPOS>MOLECULE
485
59 62 1                 
SMALL
USER_CHARGES
@<TRIPOS>ATOM
1	  Br	-4.295	-6.548	2.565	Br	1	UNK0	0.000	
2	   C	-2.873	-5.317	2.168	C.2	1	UNK0	0.000	
3	   C	-3.057	-3.956	2.250	C.2	1	UNK0	0.000	
4	   C	-2.060	-3.027	1.972	C.2	1	UNK0	0.000	
5	   C	-0.803	-3.504	1.589	C.2	1	UNK0	0.000	
6	   C	-0.618	-4.869	1.507	C.2	1	UNK0	0.000	
7	   C	-1.631	-5.781	1.790	C.2	1	UNK0	0.000	
8	   N	0.086	-2.404	1.349	N.pl3	1	UNK0	0.000	
9	   C	-0.658	-1.218	1.594	C.2	1	UNK0	0.000	
10	   O	-0.217	-0.052	1.488	O.2	1	UNK0	0.000	
11	   C	-2.007	-1.577	1.987	C.2	1	UNK0	0.000	
12	   N	-2.969	-0.780	2.289	N.2	1	UNK0	0.000	
13	   N	-2.842	0.604	2.280	N.pl3	1	UNK0	0.000	
14	   C	-3.783	1.390	1.583	C.2	1	UNK0	0.000	
15	   O	-4.762	0.860	0.952	O.2	1	UNK0	0.000	
16	   C	-3.724	2.872	1.522	C.3	1	UNK0	0.000	
17	   O	-2.597	3.349	2.256	O.3	1	UNK0	0.000	
18	   C	-2.348	4.709	2.331	C.2	1	UNK0	0.000	
19	   C	-1.261	5.176	3.039	C.2	1	UNK0	0.000	
20	   C	-1.017	6.544	3.110	C.2	1	UNK0	0.000	
21	   C	-1.857	7.440	2.477	C.2	1	UNK0	0.000	
22	   C	-2.928	6.963	1.781	C.2	1	UNK0	0.000	
23	   C	-3.170	5.601	1.711	C.2	1	UNK0	0.000	
24	   O	-0.408	4.313	3.679	O.3	1	UNK0	0.000	
25	   C	0.697	4.801	4.397	C.3	1	UNK0	0.000	
26	   C	1.474	-2.532	0.938	C.3	1	UNK0	0.000	
27	   N	1.683	-2.551	-0.465	N.3	1	UNK0	0.000	
28	   C	1.041	-3.603	-1.176	C.3	1	UNK0	0.000	
29	   C	1.390	-3.584	-2.667	C.3	1	UNK0	0.000	
30	   N	2.504	-2.693	-2.821	N.3	1	UNK0	0.000	
31	   C	2.177	-1.331	-2.533	C.3	1	UNK0	0.000	
32	   C	1.638	-1.273	-1.115	C.3	1	UNK0	0.000	
33	   C	3.239	-2.885	-4.038	C.3	1	UNK0	0.000	
34	   H	-4.038	-3.589	2.549	 H	1	UNK0	0.000	
35	   H	0.349	-5.291	1.212	 H	1	UNK0	0.000	
36	   H	-1.493	-6.848	1.728	 H	1	UNK0	0.000	
37	   H	-2.060	1.046	2.783	 H	1	UNK0	0.000	
38	   H	-3.637	3.259	0.494	 H	1	UNK0	0.000	
39	   H	-4.637	3.318	1.955	 H	1	UNK0	0.000	
40	   H	-0.154	6.900	3.673	 H	1	UNK0	0.000	
41	   H	-1.689	8.517	2.517	 H	1	UNK0	0.000	
42	   H	-3.585	7.640	1.287	 H	1	UNK0	0.000	
43	   H	-4.030	5.282	1.147	 H	1	UNK0	0.000	
44	   H	1.352	5.454	3.780	 H	1	UNK0	0.000	
45	   H	0.307	5.465	5.212	 H	1	UNK0	0.000	
46	   H	1.234	3.926	4.821	 H	1	UNK0	0.000	
47	   H	2.114	-1.766	1.439	 H	1	UNK0	0.000	
48	   H	1.831	-3.513	1.348	 H	1	UNK0	0.000	
49	   H	1.429	-4.572	-0.800	 H	1	UNK0	0.000	
50	   H	-0.061	-3.626	-1.044	 H	1	UNK0	0.000	
51	   H	1.668	-4.580	-3.040	 H	1	UNK0	0.000	
52	   H	0.481	-3.259	-3.209	 H	1	UNK0	0.000	
53	   H	1.440	-0.880	-3.222	 H	1	UNK0	0.000	
54	   H	3.122	-0.740	-2.638	 H	1	UNK0	0.000	
55	   H	0.571	-0.924	-1.132	 H	1	UNK0	0.000	
56	   H	2.283	-0.569	-0.554	 H	1	UNK0	0.000	
57	   H	4.344	-2.787	-3.858	 H	1	UNK0	0.000	
58	   H	2.944	-2.196	-4.851	 H	1	UNK0	0.000	
59	   H	3.089	-3.950	-4.350	 H	1	UNK0	0.000	
@<TRIPOS>BOND
1 1 2 1
2 2 3 2
3 2 7 1
4 3 4 1
5 4 5 2
6 4 11 1
7 5 6 1
8 5 8 1
9 6 7 2
10 8 9 1
11 8 26 1
12 9 10 2
13 9 11 1
14 11 12 2
15 12 13 1
16 13 14 1
17 14 15 2
18 14 16 1
19 16 17 1
20 17 18 1
21 18 19 2
22 18 23 1
23 19 20 1
24 19 24 1
25 20 21 2
26 21 22 1
27 22 23 2
28 24 25 1
29 26 27 1
30 27 28 1
31 27 32 1
32 28 29 1
33 29 30 1
34 30 31 1
35 30 33 1
36 31 32 1
37 3 34 1
38 6 35 1
39 7 36 1
40 13 37 1
41 16 38 1
42 16 39 1
43 20 40 1
44 21 41 1
45 22 42 1
46 23 43 1
47 25 44 1
48 25 45 1
49 25 46 1
50 26 47 1
51 26 48 1
52 28 49 1
53 28 50 1
54 29 51 1
55 29 52 1
56 31 53 1
57 31 54 1
58 32 55 1
59 32 56 1
60 33 57 1
61 33 58 1
62 33 59 1
@<TRIPOS>SUBSTRUCTURE
1	UNK0	1	GROUP	1 ****	UNK
