# created with PyMOL 2.3.2
@<TRIPOS>MOLECULE
500
45 48 1                 
SMALL
USER_CHARGES
@<TRIPOS>ATOM
1	  Br	3.517	-0.947	-3.154	Br	1	UNK0	0.000	
2	   C	2.830	-0.245	-1.498	C.2	1	UNK0	0.000	
3	   C	1.500	-0.067	-1.250	C.2	1	UNK0	0.000	
4	   C	1.053	0.465	-0.068	C.2	1	UNK0	0.000	
5	   C	1.995	0.811	0.859	C.2	1	UNK0	0.000	
6	   C	3.366	0.636	0.631	C.2	1	UNK0	0.000	
7	   C	3.804	0.101	-0.563	C.2	1	UNK0	0.000	
8	   N	1.400	1.382	2.008	N.pl3	1	UNK0	0.000	
9	   C	0.023	1.400	1.798	C.2	1	UNK0	0.000	
10	   O	-0.804	1.866	2.625	O.2	1	UNK0	0.000	
11	   C	-0.287	0.785	0.455	C.3	1	UNK0	0.000	
12	   C	-1.161	-0.339	0.753	C.2	1	UNK0	0.000	
13	   C	-2.457	-0.328	0.336	C.2	1	UNK0	0.000	
14	   N	-3.014	-1.494	0.768	N.2	1	UNK0	0.000	
15	   N	-2.116	-2.189	1.417	N.pl3	1	UNK0	0.000	
16	   C	-0.932	-1.535	1.452	C.2	1	UNK0	0.000	
17	   C	0.307	-2.048	2.090	C.3	1	UNK0	0.000	
18	   C	1.202	-2.686	1.100	C.2	1	UNK0	0.000	
19	   O	2.413	-2.968	1.288	O.co2	1	UNK0	0.000	
20	   O	0.664	-2.997	-0.129	O.3	1	UNK0	0.000	
21	   C	1.332	-3.616	-1.196	C.3	1	UNK0	0.000	
22	   C	0.407	-3.717	-2.386	C.3	1	UNK0	0.000	
23	   O	-3.016	0.740	-0.394	O.3	1	UNK0	0.000	
24	   C	-2.181	1.804	-0.675	C.2	1	UNK0	0.000	
25	   C	-0.934	1.849	-0.299	C.2	1	UNK0	0.000	
26	   C	-0.131	3.027	-0.641	C.1	1	UNK0	0.000	
27	   N	0.503	3.938	-0.925	N.1	1	UNK0	0.000	
28	   N	-2.753	2.903	-1.424	N.pl3	1	UNK0	0.000	
29	   C	2.109	1.866	3.210	C.3	1	UNK0	0.000	
30	   H	0.794	-0.347	-1.994	 H	1	UNK0	0.000	
31	   H	4.120	0.902	1.356	 H	1	UNK0	0.000	
32	   H	4.858	-0.040	-0.754	 H	1	UNK0	0.000	
33	   H	-2.248	-3.139	1.871	 H	1	UNK0	0.000	
34	   H	0.890	-1.249	2.579	 H	1	UNK0	0.000	
35	   H	0.060	-2.771	2.908	 H	1	UNK0	0.000	
36	   H	1.577	-4.692	-0.920	 H	1	UNK0	0.000	
37	   H	2.275	-3.102	-1.422	 H	1	UNK0	0.000	
38	   H	-0.625	-3.398	-2.055	 H	1	UNK0	0.000	
39	   H	0.307	-4.737	-2.753	 H	1	UNK0	0.000	
40	   H	0.680	-2.985	-3.183	 H	1	UNK0	0.000	
41	   H	-3.614	2.821	-1.992	 H	1	UNK0	0.000	
42	   H	-2.269	3.814	-1.382	 H	1	UNK0	0.000	
43	   H	2.406	0.977	3.826	 H	1	UNK0	0.000	
44	   H	2.988	2.475	2.919	 H	1	UNK0	0.000	
45	   H	1.403	2.451	3.815	 H	1	UNK0	0.000	
@<TRIPOS>BOND
1 1 2 1
2 2 3 2
3 2 7 1
4 3 4 1
5 4 5 2
6 4 11 1
7 5 6 1
8 5 8 1
9 6 7 2
10 8 9 1
11 8 29 1
12 9 10 2
13 9 11 1
14 11 12 1
15 11 25 1
16 12 13 1
17 12 16 2
18 13 14 2
19 13 23 1
20 14 15 1
21 15 16 1
22 16 17 1
23 17 18 1
24 18 19 2
25 18 20 1
26 20 21 1
27 21 22 1
28 23 24 1
29 24 25 2
30 24 28 1
31 25 26 1
32 26 27 3
33 3 30 1
34 6 31 1
35 7 32 1
36 15 33 1
37 17 34 1
38 17 35 1
39 21 36 1
40 21 37 1
41 22 38 1
42 22 39 1
43 22 40 1
44 28 41 1
45 28 42 1
46 29 43 1
47 29 44 1
48 29 45 1
@<TRIPOS>SUBSTRUCTURE
1	UNK0	1	GROUP	1 ****	UNK
