REMARK  5 active torsions:
REMARK  status: ('A' for Active; 'I' for Inactive)
REMARK    1  A    between atoms: C_16  and  C_17 
REMARK    2  A    between atoms: C_17  and  C_18 
REMARK    3  A    between atoms: C_18  and  O_20 
REMARK    4  A    between atoms: O_20  and  C_21 
REMARK    5  A    between atoms: C_24  and  N_28 
ROOT
ATOM      1 Br   UNK d   1       3.517  -0.947  -3.154  0.00  0.00    -0.051 Br
ATOM      2  C   UNK d   1       2.830  -0.245  -1.498  0.00  0.00     0.011 A 
ATOM      3  C   UNK d   1       1.500  -0.067  -1.250  0.00  0.00     0.030 A 
ATOM      4  C   UNK d   1       1.053   0.465  -0.068  0.00  0.00    -0.002 A 
ATOM      5  C   UNK d   1       1.995   0.811   0.859  0.00  0.00     0.045 A 
ATOM      6  C   UNK d   1       3.366   0.636   0.631  0.00  0.00     0.031 A 
ATOM      7  C   UNK d   1       3.804   0.101  -0.563  0.00  0.00     0.021 A 
ATOM      8  N   UNK d   1       1.400   1.382   2.008  0.00  0.00    -0.320 N 
ATOM      9  C   UNK d   1       0.023   1.400   1.798  0.00  0.00     0.247 A 
ATOM     10  O   UNK d   1      -0.804   1.866   2.625  0.00  0.00    -0.271 OA
ATOM     11  C   UNK d   1      -0.287   0.785   0.455  0.00  0.00     0.145 A 
ATOM     12  C   UNK d   1      -1.161  -0.339   0.753  0.00  0.00     0.049 A 
ATOM     13  C   UNK d   1      -2.457  -0.328   0.336  0.00  0.00     0.200 A 
ATOM     14  N   UNK d   1      -3.014  -1.494   0.768  0.00  0.00    -0.148 NA
ATOM     15  N   UNK d   1      -2.116  -2.189   1.417  0.00  0.00    -0.279 N 
ATOM     16  C   UNK d   1      -0.932  -1.535   1.452  0.00  0.00     0.050 A 
ATOM     17  O   UNK d   1      -3.016   0.740  -0.394  0.00  0.00    -0.272 OA
ATOM     18  C   UNK d   1      -2.181   1.804  -0.675  0.00  0.00     0.162 A 
ATOM     19  C   UNK d   1      -0.934   1.849  -0.299  0.00  0.00     0.100 A 
ATOM     20  C   UNK d   1      -0.131   3.027  -0.641  0.00  0.00     0.101 C 
ATOM     21  N   UNK d   1       0.503   3.938  -0.925  0.00  0.00    -0.191 NA
ATOM     22  C   UNK d   1       2.109   1.866   3.210  0.00  0.00     0.159 C 
ATOM     23  H   UNK d   1      -2.248  -3.139   1.871  0.00  0.00     0.189 HD
ENDROOT
BRANCH  18  24
ATOM     24  N   UNK d   1      -2.753   2.903  -1.424  0.00  0.00    -0.379 N 
ATOM     25  H   UNK d   1      -3.614   2.821  -1.992  0.00  0.00     0.158 HD
ATOM     26  H   UNK d   1      -2.269   3.814  -1.382  0.00  0.00     0.158 HD
ENDBRANCH  18  24
BRANCH  16  27
ATOM     27  C   UNK d   1       0.307  -2.048   2.090  0.00  0.00     0.170 C 
BRANCH  27  28
ATOM     28  C   UNK d   1       1.202  -2.686   1.100  0.00  0.00     0.264 C 
ATOM     29  O   UNK d   1       2.413  -2.968   1.288  0.00  0.00    -0.265 OA
BRANCH  28  30
ATOM     30  O   UNK d   1       0.664  -2.997  -0.129  0.00  0.00    -0.322 OA
BRANCH  30  31
ATOM     31  C   UNK d   1       1.332  -3.616  -1.196  0.00  0.00     0.174 C 
ATOM     32  C   UNK d   1       0.407  -3.717  -2.386  0.00  0.00     0.034 C 
ENDBRANCH  30  31
ENDBRANCH  28  30
ENDBRANCH  27  28
ENDBRANCH  16  27
TORSDOF 5
