# created with PyMOL 2.3.2
@<TRIPOS>MOLECULE
504
41 44 1                 
SMALL
USER_CHARGES
@<TRIPOS>ATOM
1	  Br	3.212	-0.166	-3.474	Br	1	UNK0	0.000	
2	   C	1.570	0.223	-2.601	C.2	1	UNK0	0.000	
3	   C	1.482	0.496	-1.257	C.2	1	UNK0	0.000	
4	   C	0.238	0.772	-0.691	C.2	1	UNK0	0.000	
5	   C	-0.914	0.788	-1.403	C.2	1	UNK0	0.000	
6	   C	-0.824	0.511	-2.770	C.2	1	UNK0	0.000	
7	   C	0.396	0.236	-3.346	C.2	1	UNK0	0.000	
8	   N	-2.036	1.095	-0.598	N.pl3	1	UNK0	0.000	
9	   C	-1.573	1.288	0.718	C.2	1	UNK0	0.000	
10	   O	-2.282	1.578	1.721	O.2	1	UNK0	0.000	
11	   C	-0.096	1.094	0.734	C.3	1	UNK0	0.000	
12	   C	0.266	-0.054	1.603	C.2	1	UNK0	0.000	
13	   C	1.130	0.039	2.548	C.2	1	UNK0	0.000	
14	   N	1.832	1.276	2.853	N.pl3	1	UNK0	0.000	
15	   C	1.497	2.376	2.033	C.2	1	UNK0	0.000	
16	   C	0.622	2.304	1.068	C.2	1	UNK0	0.000	
17	   C	0.379	3.523	0.306	C.1	1	UNK0	0.000	
18	   N	0.171	4.481	-0.311	N.1	1	UNK0	0.000	
19	   N	2.168	3.640	2.292	N.pl3	1	UNK0	0.000	
20	   C	1.253	-1.292	3.219	C.3	1	UNK0	0.000	
21	   O	0.375	-2.121	2.552	O.3	1	UNK0	0.000	
22	   C	-0.268	-1.454	1.554	C.2	1	UNK0	0.000	
23	   O	-1.139	-1.862	0.728	O.co2	1	UNK0	0.000	
24	   C	0.951	-1.156	4.699	C.3	1	UNK0	0.000	
25	   C	2.653	-1.852	3.046	C.3	1	UNK0	0.000	
26	   C	-3.442	1.201	-1.017	C.3	1	UNK0	0.000	
27	   H	2.390	0.487	-0.677	 H	1	UNK0	0.000	
28	   H	-1.748	0.524	-3.338	 H	1	UNK0	0.000	
29	   H	0.420	0.026	-4.410	 H	1	UNK0	0.000	
30	   H	2.519	1.295	3.626	 H	1	UNK0	0.000	
31	   H	1.588	4.407	2.689	 H	1	UNK0	0.000	
32	   H	3.169	3.770	2.090	 H	1	UNK0	0.000	
33	   H	-0.092	-1.478	4.943	 H	1	UNK0	0.000	
34	   H	1.702	-1.734	5.268	 H	1	UNK0	0.000	
35	   H	1.069	-0.092	4.957	 H	1	UNK0	0.000	
36	   H	2.708	-2.401	2.086	 H	1	UNK0	0.000	
37	   H	2.912	-2.522	3.886	 H	1	UNK0	0.000	
38	   H	3.413	-1.046	3.029	 H	1	UNK0	0.000	
39	   H	-3.754	2.275	-0.906	 H	1	UNK0	0.000	
40	   H	-3.531	0.963	-2.100	 H	1	UNK0	0.000	
41	   H	-4.094	0.555	-0.429	 H	1	UNK0	0.000	
@<TRIPOS>BOND
1 1 2 1
2 2 3 2
3 2 7 1
4 3 4 1
5 4 5 2
6 4 11 1
7 5 6 1
8 5 8 1
9 6 7 2
10 8 9 1
11 8 26 1
12 9 10 2
13 9 11 1
14 11 12 1
15 11 16 1
16 12 13 2
17 12 22 1
18 13 14 1
19 13 20 1
20 14 15 1
21 15 16 2
22 15 19 1
23 16 17 1
24 17 18 3
25 20 21 1
26 20 24 1
27 20 25 1
28 21 22 1
29 22 23 2
30 3 27 1
31 6 28 1
32 7 29 1
33 14 30 1
34 19 31 1
35 19 32 1
36 24 33 1
37 24 34 1
38 24 35 1
39 25 36 1
40 25 37 1
41 25 38 1
42 26 39 1
43 26 40 1
44 26 41 1
@<TRIPOS>SUBSTRUCTURE
1	UNK0	1	GROUP	1 ****	UNK
