REMARK  1 active torsions:
REMARK  status: ('A' for Active; 'I' for Inactive)
REMARK    1  A    between atoms: C_15  and  N_19 
ROOT
ATOM      1 Br   UNK d   1       3.212  -0.166  -3.474  0.00  0.00    -0.051 Br
ATOM      2  C   UNK d   1       1.570   0.223  -2.601  0.00  0.00     0.011 A 
ATOM      3  C   UNK d   1       1.482   0.496  -1.257  0.00  0.00     0.030 A 
ATOM      4  C   UNK d   1       0.238   0.772  -0.691  0.00  0.00    -0.002 A 
ATOM      5  C   UNK d   1      -0.914   0.788  -1.403  0.00  0.00     0.045 A 
ATOM      6  C   UNK d   1      -0.824   0.511  -2.770  0.00  0.00     0.031 A 
ATOM      7  C   UNK d   1       0.396   0.236  -3.346  0.00  0.00     0.021 A 
ATOM      8  N   UNK d   1      -2.036   1.095  -0.598  0.00  0.00    -0.320 N 
ATOM      9  C   UNK d   1      -1.573   1.288   0.718  0.00  0.00     0.247 A 
ATOM     10  O   UNK d   1      -2.282   1.578   1.721  0.00  0.00    -0.271 OA
ATOM     11  C   UNK d   1      -0.096   1.094   0.734  0.00  0.00     0.146 A 
ATOM     12  C   UNK d   1       0.266  -0.054   1.603  0.00  0.00     0.071 A 
ATOM     13  C   UNK d   1       1.130   0.039   2.548  0.00  0.00     0.060 A 
ATOM     14  N   UNK d   1       1.832   1.276   2.853  0.00  0.00    -0.342 N 
ATOM     15  C   UNK d   1       1.497   2.376   2.033  0.00  0.00     0.118 A 
ATOM     16  C   UNK d   1       0.622   2.304   1.068  0.00  0.00     0.093 A 
ATOM     17  C   UNK d   1       0.379   3.523   0.306  0.00  0.00     0.101 C 
ATOM     18  N   UNK d   1       0.171   4.481  -0.311  0.00  0.00    -0.191 NA
ATOM     19  C   UNK d   1       1.253  -1.292   3.219  0.00  0.00     0.106 A 
ATOM     20  O   UNK d   1       0.375  -2.121   2.552  0.00  0.00    -0.301 OA
ATOM     21  C   UNK d   1      -0.268  -1.454   1.554  0.00  0.00     0.294 A 
ATOM     22  O   UNK d   1      -1.139  -1.862   0.728  0.00  0.00    -0.259 OA
ATOM     23  C   UNK d   1       0.951  -1.156   4.699  0.00  0.00     0.053 C 
ATOM     24  C   UNK d   1       2.653  -1.852   3.046  0.00  0.00     0.053 C 
ATOM     25  C   UNK d   1      -3.442   1.201  -1.017  0.00  0.00     0.159 C 
ATOM     26  H   UNK d   1       2.519   1.295   3.626  0.00  0.00     0.167 HD
ENDROOT
BRANCH  15  27
ATOM     27  N   UNK d   1       2.168   3.640   2.292  0.00  0.00    -0.384 N 
ATOM     28  H   UNK d   1       1.588   4.407   2.689  0.00  0.00     0.157 HD
ATOM     29  H   UNK d   1       3.169   3.770   2.090  0.00  0.00     0.157 HD
ENDBRANCH  15  27
TORSDOF 1
