REMARK  3 active torsions:
REMARK  status: ('A' for Active; 'I' for Inactive)
REMARK    1  A    between atoms: C_15  and  N_19 
REMARK    2  A    between atoms: C_23  and  C_25 
REMARK    3  A    between atoms: C_25  and  O_26 
ROOT
ATOM      1 Br   UNK d   1       4.024  -3.350  -2.029  0.00  0.00    -0.051 Br
ATOM      2  C   UNK d   1       2.453  -2.303  -2.270  0.00  0.00     0.011 A 
ATOM      3  C   UNK d   1       2.066  -1.413  -1.292  0.00  0.00     0.030 A 
ATOM      4  C   UNK d   1       0.916  -0.632  -1.445  0.00  0.00     0.000 A 
ATOM      5  C   UNK d   1       0.199  -0.783  -2.588  0.00  0.00     0.045 A 
ATOM      6  C   UNK d   1       0.596  -1.695  -3.588  0.00  0.00     0.031 A 
ATOM      7  C   UNK d   1       1.729  -2.459  -3.430  0.00  0.00     0.021 A 
ATOM      8  N   UNK d   1      -0.921   0.092  -2.548  0.00  0.00    -0.320 N 
ATOM      9  C   UNK d   1      -0.913   0.819  -1.344  0.00  0.00     0.249 A 
ATOM     10  O   UNK d   1      -1.743   1.682  -0.963  0.00  0.00    -0.271 OA
ATOM     11  C   UNK d   1       0.282   0.389  -0.559  0.00  0.00     0.163 A 
ATOM     12  C   UNK d   1      -0.117  -0.198   0.725  0.00  0.00     0.119 A 
ATOM     13  C   UNK d   1       0.371   0.266   1.903  0.00  0.00     0.159 A 
ATOM     14  O   UNK d   1       1.277   1.331   1.919  0.00  0.00    -0.286 OA
ATOM     15  C   UNK d   1       1.684   1.919   0.738  0.00  0.00     0.161 A 
ATOM     16  C   UNK d   1       1.232   1.494  -0.403  0.00  0.00     0.102 A 
ATOM     17  C   UNK d   1       1.719   2.179  -1.609  0.00  0.00     0.101 C 
ATOM     18  N   UNK d   1       2.102   2.703  -2.545  0.00  0.00    -0.191 NA
ATOM     19  C   UNK d   1      -0.037  -0.325   3.102  0.00  0.00     0.210 A 
ATOM     20  O   UNK d   1       0.419   0.112   4.179  0.00  0.00    -0.285 OA
ATOM     21  C   UNK d   1      -0.929  -1.371   3.070  0.00  0.00     0.092 A 
ATOM     22  C   UNK d   1      -1.391  -1.801   1.844  0.00  0.00     0.080 A 
ATOM     23  O   UNK d   1      -0.979  -1.217   0.770  0.00  0.00    -0.312 OA
ATOM     24  C   UNK d   1      -1.912   0.181  -3.638  0.00  0.00     0.159 C 
ENDROOT
BRANCH  15  25
ATOM     25  N   UNK d   1       2.617   3.008   0.833  0.00  0.00    -0.379 N 
ATOM     26  H   UNK d   1       3.451   2.989   0.249  0.00  0.00     0.158 HD
ATOM     27  H   UNK d   1       2.413   3.765   1.484  0.00  0.00     0.158 HD
ENDBRANCH  15  25
BRANCH  22  28
ATOM     28  C   UNK d   1      -2.374  -2.951   1.783  0.00  0.00     0.229 C 
BRANCH  28  29
ATOM     29  O   UNK d   1      -3.672  -2.444   1.844  0.00  0.00    -0.394 OA
ATOM     30  H   UNK d   1      -3.660  -1.574   2.345  0.00  0.00     0.209 HD
ENDBRANCH  28  29
ENDBRANCH  22  28
TORSDOF 3
