# created with PyMOL 2.3.2
@<TRIPOS>MOLECULE
505
39 42 1                 
SMALL
USER_CHARGES
@<TRIPOS>ATOM
1	  Br	4.024	-3.350	-2.029	Br	1	UNK0	0.000	
2	   C	2.453	-2.303	-2.270	C.2	1	UNK0	0.000	
3	   C	2.066	-1.413	-1.292	C.2	1	UNK0	0.000	
4	   C	0.916	-0.632	-1.445	C.2	1	UNK0	0.000	
5	   C	0.199	-0.783	-2.588	C.2	1	UNK0	0.000	
6	   C	0.596	-1.695	-3.588	C.2	1	UNK0	0.000	
7	   C	1.729	-2.459	-3.430	C.2	1	UNK0	0.000	
8	   N	-0.921	0.092	-2.548	N.pl3	1	UNK0	0.000	
9	   C	-0.913	0.819	-1.344	C.2	1	UNK0	0.000	
10	   O	-1.743	1.682	-0.963	O.2	1	UNK0	0.000	
11	   C	0.282	0.389	-0.559	C.3	1	UNK0	0.000	
12	   C	-0.117	-0.198	0.725	C.2	1	UNK0	0.000	
13	   C	0.371	0.266	1.903	C.2	1	UNK0	0.000	
14	   O	1.277	1.331	1.919	O.3	1	UNK0	0.000	
15	   C	1.684	1.919	0.738	C.2	1	UNK0	0.000	
16	   C	1.232	1.494	-0.403	C.2	1	UNK0	0.000	
17	   C	1.719	2.179	-1.609	C.1	1	UNK0	0.000	
18	   N	2.102	2.703	-2.545	N.1	1	UNK0	0.000	
19	   N	2.617	3.008	0.833	N.pl3	1	UNK0	0.000	
20	   C	-0.037	-0.325	3.102	C.2	1	UNK0	0.000	
21	   O	0.419	0.112	4.179	O.2	1	UNK0	0.000	
22	   C	-0.929	-1.371	3.070	C.2	1	UNK0	0.000	
23	   C	-1.391	-1.801	1.844	C.2	1	UNK0	0.000	
24	   O	-0.979	-1.217	0.770	O.3	1	UNK0	0.000	
25	   C	-2.374	-2.951	1.783	C.3	1	UNK0	0.000	
26	   O	-3.672	-2.444	1.844	O.3	1	UNK0	0.000	
27	   C	-1.912	0.181	-3.638	C.3	1	UNK0	0.000	
28	   H	2.614	-1.266	-0.368	 H	1	UNK0	0.000	
29	   H	0.014	-1.809	-4.502	 H	1	UNK0	0.000	
30	   H	2.036	-3.165	-4.206	 H	1	UNK0	0.000	
31	   H	3.451	2.989	0.249	 H	1	UNK0	0.000	
32	   H	2.413	3.765	1.484	 H	1	UNK0	0.000	
33	   H	-1.285	-1.872	3.957	 H	1	UNK0	0.000	
34	   H	-2.247	-3.536	0.872	 H	1	UNK0	0.000	
35	   H	-2.259	-3.590	2.703	 H	1	UNK0	0.000	
36	   H	-3.660	-1.574	2.345	 H	1	UNK0	0.000	
37	   H	-1.499	-0.259	-4.565	 H	1	UNK0	0.000	
38	   H	-2.807	-0.383	-3.328	 H	1	UNK0	0.000	
39	   H	-2.129	1.260	-3.847	 H	1	UNK0	0.000	
@<TRIPOS>BOND
1 1 2 1
2 2 3 2
3 2 7 1
4 3 4 1
5 4 5 2
6 4 11 1
7 5 6 1
8 5 8 1
9 6 7 2
10 8 9 1
11 8 27 1
12 9 10 2
13 9 11 1
14 11 12 1
15 11 16 1
16 12 13 2
17 12 24 1
18 13 14 1
19 13 20 1
20 14 15 1
21 15 16 2
22 15 19 1
23 16 17 1
24 17 18 3
25 20 21 2
26 20 22 1
27 22 23 2
28 23 24 1
29 23 25 1
30 25 26 1
31 3 28 1
32 6 29 1
33 7 30 1
34 19 31 1
35 19 32 1
36 22 33 1
37 25 34 1
38 25 35 1
39 26 36 1
40 27 37 1
41 27 38 1
42 27 39 1
@<TRIPOS>SUBSTRUCTURE
1	UNK0	1	GROUP	1 ****	UNK
