REMARK  4 active torsions:
REMARK  status: ('A' for Active; 'I' for Inactive)
REMARK    1  A    between atoms: C_12  and  N_13 
REMARK    2  A    between atoms: N_13  and  N_14 
REMARK       I    between atoms: N_14  and  C_15 
REMARK    3  A    between atoms: C_15  and  C_17 
REMARK    4  A    between atoms: C_17  and  N_18 
ROOT
ATOM      1  N   UNK d   1      -2.688  -0.323   1.270  0.00  0.00    -0.269 N 
ATOM      2  C   UNK d   1      -1.311  -0.653   1.387  0.00  0.00     0.254 C 
ATOM      3  O   UNK d   1      -0.605  -0.504   0.377  0.00  0.00    -0.270 OA
ATOM      4  H   UNK d   1      -3.282  -0.462   2.116  0.00  0.00     0.190 HD
ENDROOT
BRANCH   1   5
ATOM      5  N   UNK d   1      -3.266   0.159   0.110  0.00  0.00    -0.308 N 
ATOM      6  H   UNK d   1      -4.240   0.567   0.142  0.00  0.00     0.186 HD
BRANCH   5   7
ATOM      7  C   UNK d   1      -2.643   0.151  -1.145  0.00  0.00     0.125 C 
ATOM      8  C   UNK d   1      -1.842   1.089  -1.602  0.00  0.00     0.061 A 
ATOM      9  C   UNK d   1      -1.407   2.332  -0.956  0.00  0.00     0.009 A 
ATOM     10  C   UNK d   1      -1.181   1.097  -2.917  0.00  0.00     0.258 A 
ATOM     11  C   UNK d   1      -1.679   2.888   0.275  0.00  0.00     0.034 A 
ATOM     12  C   UNK d   1      -0.564   3.036  -1.783  0.00  0.00     0.046 A 
ATOM     13  C   UNK d   1      -1.143   4.104   0.698  0.00  0.00     0.011 A 
ATOM     14 Br   UNK d   1      -1.568   4.805   2.428  0.00  0.00    -0.051 Br
ATOM     15  C   UNK d   1      -0.307   4.776  -0.156  0.00  0.00     0.021 A 
ATOM     16  C   UNK d   1      -0.007   4.262  -1.391  0.00  0.00     0.032 A 
ATOM     17  N   UNK d   1      -0.420   2.289  -2.983  0.00  0.00    -0.322 N 
ATOM     18  H   UNK d   1       0.161   2.568  -3.808  0.00  0.00     0.169 HD
ATOM     19  O   UNK d   1      -1.302   0.195  -3.781  0.00  0.00    -0.267 OA
ENDBRANCH   5   7
ENDBRANCH   1   5
BRANCH   2  20
ATOM     20  C   UNK d   1      -0.700  -1.152   2.639  0.00  0.00     0.236 C 
BRANCH  20  21
ATOM     21  N   UNK d   1      -0.144  -2.415   2.492  0.00  0.00    -0.316 N 
ATOM     22  C   UNK d   1       1.100  -2.820   2.241  0.00  0.00     0.149 A 
ATOM     23  C   UNK d   1       1.108  -4.204   2.130  0.00  0.00     0.170 A 
ATOM     24  N   UNK d   1       2.230  -2.095   2.112  0.00  0.00    -0.287 N 
ATOM     25  N   UNK d   1      -0.160  -4.614   2.322  0.00  0.00    -0.234 NA
ATOM     26  C   UNK d   1       2.291  -4.870   1.879  0.00  0.00     0.283 A 
ATOM     27  C   UNK d   1      -0.905  -3.554   2.538  0.00  0.00     0.212 A 
ATOM     28  O   UNK d   1       2.266  -6.124   1.781  0.00  0.00    -0.265 OA
ATOM     29  N   UNK d   1       3.389  -4.140   1.753  0.00  0.00    -0.269 N 
ATOM     30  C   UNK d   1       3.370  -2.800   1.865  0.00  0.00     0.332 A 
ATOM     31  C   UNK d   1       4.677  -4.800   1.482  0.00  0.00     0.164 C 
ATOM     32  O   UNK d   1       4.433  -2.147   1.740  0.00  0.00    -0.246 OA
ATOM     33  C   UNK d   1       2.249  -0.668   2.262  0.00  0.00     0.163 C 
ENDBRANCH  20  21
ENDBRANCH   2  20
TORSDOF 4
