# created with PyMOL 2.3.2
@<TRIPOS>MOLECULE
526
41 44 1                 
SMALL
USER_CHARGES
@<TRIPOS>ATOM
1	  Br	2.093	7.501	3.435	Br	1	UNK0	0.000	
2	   C	1.808	5.695	3.944	C.2	1	UNK0	0.000	
3	   C	1.726	4.688	3.025	C.2	1	UNK0	0.000	
4	   C	1.515	3.381	3.407	C.2	1	UNK0	0.000	
5	   C	1.378	3.017	4.709	C.2	1	UNK0	0.000	
6	   C	1.461	4.042	5.657	C.2	1	UNK0	0.000	
7	   C	1.671	5.345	5.282	C.2	1	UNK0	0.000	
8	   N	1.170	1.628	4.847	N.pl3	1	UNK0	0.000	
9	   C	1.164	1.026	3.550	C.2	1	UNK0	0.000	
10	   O	1.015	-0.148	3.205	O.2	1	UNK0	0.000	
11	   C	1.387	2.159	2.603	C.2	1	UNK0	0.000	
12	   N	1.447	1.967	1.429	N.2	1	UNK0	0.000	
13	   N	1.365	0.989	0.503	N.pl3	1	UNK0	0.000	
14	   C	2.419	0.071	0.340	C.2	1	UNK0	0.000	
15	   O	3.455	0.202	1.084	O.2	1	UNK0	0.000	
16	   C	2.483	-1.057	-0.594	C.3	1	UNK0	0.000	
17	   N	1.331	-1.260	-1.426	N.pl3	1	UNK0	0.000	
18	   C	1.276	-2.313	-2.382	C.2	1	UNK0	0.000	
19	   O	2.327	-3.062	-2.450	O.2	1	UNK0	0.000	
20	   C	0.185	-2.609	-3.259	C.2	1	UNK0	0.000	
21	   C	-1.154	-2.373	-2.985	C.2	1	UNK0	0.000	
22	   C	-2.139	-2.670	-3.864	C.2	1	UNK0	0.000	
23	   C	-1.853	-3.230	-5.093	C.2	1	UNK0	0.000	
24	   C	-0.554	-3.483	-5.403	C.2	1	UNK0	0.000	
25	   C	0.481	-3.179	-4.506	C.2	1	UNK0	0.000	
26	   O	-3.059	-3.418	-5.788	O.3	1	UNK0	0.000	
27	   C	-3.867	-2.324	-5.291	C.3	1	UNK0	0.000	
28	   O	-3.577	-2.534	-3.863	O.3	1	UNK0	0.000	
29	   H	1.827	4.911	1.988	 H	1	UNK0	0.000	
30	   H	1.355	3.784	6.676	 H	1	UNK0	0.000	
31	   H	1.747	6.166	5.977	 H	1	UNK0	0.000	
32	   H	1.032	1.087	5.734	 H	1	UNK0	0.000	
33	   H	0.510	0.902	-0.111	 H	1	UNK0	0.000	
34	   H	3.343	-0.857	-1.289	 H	1	UNK0	0.000	
35	   H	2.718	-1.993	-0.041	 H	1	UNK0	0.000	
36	   H	0.505	-0.644	-1.380	 H	1	UNK0	0.000	
37	   H	-1.424	-1.933	-2.008	 H	1	UNK0	0.000	
38	   H	-0.315	-3.935	-6.383	 H	1	UNK0	0.000	
39	   H	1.481	-3.368	-4.732	 H	1	UNK0	0.000	
40	   H	-4.903	-2.375	-5.514	 H	1	UNK0	0.000	
41	   H	-3.411	-1.380	-5.597	 H	1	UNK0	0.000	
@<TRIPOS>BOND
1 1 2 1
2 2 3 2
3 2 7 1
4 3 4 1
5 4 5 2
6 4 11 1
7 5 6 1
8 5 8 1
9 6 7 2
10 8 9 1
11 9 10 2
12 9 11 1
13 11 12 2
14 12 13 1
15 13 14 1
16 14 15 2
17 14 16 1
18 16 17 1
19 17 18 1
20 18 19 2
21 18 20 1
22 20 21 2
23 20 25 1
24 21 22 1
25 22 23 2
26 22 28 1
27 23 24 1
28 23 26 1
29 24 25 2
30 26 27 1
31 27 28 1
32 3 29 1
33 6 30 1
34 7 31 1
35 8 32 1
36 13 33 1
37 16 34 1
38 16 35 1
39 17 36 1
40 21 37 1
41 24 38 1
42 25 39 1
43 27 40 1
44 27 41 1
@<TRIPOS>SUBSTRUCTURE
1	UNK0	1	GROUP	1 ****	UNK
