REMARK  4 active torsions:
REMARK  status: ('A' for Active; 'I' for Inactive)
REMARK    1  A    between atoms: N_12  and  N_13 
REMARK       I    between atoms: N_13  and  C_14 
REMARK    2  A    between atoms: C_14  and  C_16 
REMARK    3  A    between atoms: C_16  and  N_17 
REMARK       I    between atoms: N_17  and  C_18 
REMARK    4  A    between atoms: C_18  and  C_20 
ROOT
ATOM      1  N   UNK d   1       1.365   0.989   0.503  0.00  0.00    -0.245 N 
ATOM      2  C   UNK d   1       2.419   0.071   0.340  0.00  0.00     0.255 C 
ATOM      3  O   UNK d   1       3.455   0.202   1.084  0.00  0.00    -0.270 OA
ATOM      4  H   UNK d   1       0.510   0.902  -0.111  0.00  0.00     0.192 HD
ENDROOT
BRANCH   2   5
ATOM      5  C   UNK d   1       2.483  -1.057  -0.594  0.00  0.00     0.227 C 
BRANCH   5   6
ATOM      6  N   UNK d   1       1.331  -1.260  -1.426  0.00  0.00    -0.348 N 
ATOM      7  C   UNK d   1       1.276  -2.313  -2.382  0.00  0.00     0.252 C 
ATOM      8  O   UNK d   1       2.327  -3.062  -2.450  0.00  0.00    -0.268 OA
ATOM      9  H   UNK d   1       0.505  -0.644  -1.380  0.00  0.00     0.163 HD
BRANCH   7  10
ATOM     10  C   UNK d   1       0.185  -2.609  -3.259  0.00  0.00     0.034 A 
ATOM     11  C   UNK d   1      -1.154  -2.373  -2.985  0.00  0.00     0.056 A 
ATOM     12  C   UNK d   1      -2.139  -2.670  -3.864  0.00  0.00     0.106 A 
ATOM     13  C   UNK d   1      -1.853  -3.230  -5.093  0.00  0.00     0.105 A 
ATOM     14  O   UNK d   1      -3.577  -2.534  -3.863  0.00  0.00    -0.323 OA
ATOM     15  C   UNK d   1      -0.554  -3.483  -5.403  0.00  0.00     0.041 A 
ATOM     16  O   UNK d   1      -3.059  -3.418  -5.788  0.00  0.00    -0.323 OA
ATOM     17  C   UNK d   1       0.481  -3.179  -4.506  0.00  0.00     0.020 A 
ATOM     18  C   UNK d   1      -3.867  -2.324  -5.291  0.00  0.00     0.352 C 
ENDBRANCH   7  10
ENDBRANCH   5   6
ENDBRANCH   2   5
BRANCH   1  19
ATOM     19  N   UNK d   1       1.447   1.967   1.429  0.00  0.00    -0.166 NA
ATOM     20  C   UNK d   1       1.387   2.159   2.603  0.00  0.00     0.157 A 
ATOM     21  C   UNK d   1       1.515   3.381   3.407  0.00  0.00     0.028 A 
ATOM     22  C   UNK d   1       1.164   1.026   3.550  0.00  0.00     0.277 A 
ATOM     23  C   UNK d   1       1.726   4.688   3.025  0.00  0.00     0.035 A 
ATOM     24  C   UNK d   1       1.378   3.017   4.709  0.00  0.00     0.048 A 
ATOM     25  C   UNK d   1       1.808   5.695   3.944  0.00  0.00     0.011 A 
ATOM     26 Br   UNK d   1       2.093   7.501   3.435  0.00  0.00    -0.051 Br
ATOM     27  C   UNK d   1       1.671   5.345   5.282  0.00  0.00     0.021 A 
ATOM     28  C   UNK d   1       1.461   4.042   5.657  0.00  0.00     0.032 A 
ATOM     29  N   UNK d   1       1.170   1.628   4.847  0.00  0.00    -0.321 N 
ATOM     30  H   UNK d   1       1.032   1.087   5.734  0.00  0.00     0.169 HD
ATOM     31  O   UNK d   1       1.015  -0.148   3.205  0.00  0.00    -0.266 OA
ENDBRANCH   1  19
TORSDOF 4
