REMARK  2 active torsions:
REMARK  status: ('A' for Active; 'I' for Inactive)
REMARK    1  A    between atoms: N_18  and  C_21 
REMARK    2  A    between atoms: C_21  and  C_22 
ROOT
ATOM      1 Br   UNK d   1      -4.356   4.365   0.760  0.00  0.00    -0.051 Br
ATOM      2  C   UNK d   1      -2.714   3.886  -0.084  0.00  0.00     0.011 A 
ATOM      3  C   UNK d   1      -1.982   2.770   0.304  0.00  0.00     0.031 A 
ATOM      4  C   UNK d   1      -0.804   2.432  -0.306  0.00  0.00     0.019 A 
ATOM      5  C   UNK d   1      -0.364   3.251  -1.335  0.00  0.00     0.044 A 
ATOM      6  C   UNK d   1      -1.085   4.360  -1.725  0.00  0.00     0.031 A 
ATOM      7  C   UNK d   1      -2.267   4.690  -1.104  0.00  0.00     0.021 A 
ATOM      8  N   UNK d   1       0.870   2.758  -1.863  0.00  0.00    -0.324 N 
ATOM      9  C   UNK d   1       1.231   1.592  -1.154  0.00  0.00     0.267 A 
ATOM     10  O   UNK d   1       2.251   0.925  -1.379  0.00  0.00    -0.270 OA
ATOM     11  C   UNK d   1       0.177   1.362  -0.143  0.00  0.00     0.281 A 
ATOM     12  N   UNK d   1       0.823   1.289   1.133  0.00  0.00     0.118 N 
ATOM     13  C   UNK d   1       1.442  -0.035   1.142  0.00  0.00     0.239 C 
ATOM     14  C   UNK d   1       0.546  -0.924   0.344  0.00  0.00     0.128 C 
ATOM     15  C   UNK d   1      -0.453  -0.003  -0.266  0.00  0.00     0.147 C 
ATOM     16  C   UNK d   1      -0.594  -0.459  -1.645  0.00  0.00     0.235 C 
ATOM     17  O   UNK d   1      -1.439  -0.057  -2.476  0.00  0.00    -0.272 OA
ATOM     18  N   UNK d   1       0.379  -1.437  -1.915  0.00  0.00    -0.285 N 
ATOM     19  C   UNK d   1       1.263  -1.585  -0.793  0.00  0.00     0.233 C 
ATOM     20  O   UNK d   1       2.391  -2.136  -0.742  0.00  0.00    -0.272 OA
ATOM     21  C   UNK d   1       1.398  -0.494   2.592  0.00  0.00     0.038 C 
ATOM     22  C   UNK d   1       0.772   0.644   3.371  0.00  0.00     0.032 C 
ATOM     23  C   UNK d   1      -0.075   1.295   2.269  0.00  0.00     0.275 C 
ATOM     24  H   UNK d   1       1.409   3.212  -2.658  0.00  0.00     0.169 HD
ENDROOT
BRANCH  18  25
ATOM     25  C   UNK d   1       0.500  -2.194  -3.121  0.00  0.00     0.166 C 
BRANCH  25  26
ATOM     26  C   UNK d   1      -0.256  -3.472  -3.147  0.00  0.00     0.140 C 
ATOM     27  O   UNK d   1      -1.628  -3.317  -2.985  0.00  0.00    -0.384 OA
ATOM     28  C   UNK d   1      -2.085  -4.615  -2.801  0.00  0.00     0.168 C 
ATOM     29  C   UNK d   1      -1.062  -5.362  -2.004  0.00  0.00     0.029 C 
ATOM     30  C   UNK d   1       0.193  -4.506  -2.172  0.00  0.00     0.035 C 
ENDBRANCH  25  26
ENDBRANCH  18  25
TORSDOF 2
