REMARK  4 active torsions:
REMARK  status: ('A' for Active; 'I' for Inactive)
REMARK    1  A    between atoms: C_19  and  N_26 
REMARK    2  A    between atoms: C_20  and  C_21 
REMARK    3  A    between atoms: C_21  and  O_23 
REMARK    4  A    between atoms: O_23  and  C_24 
ROOT
ATOM      1 Br   UNK d   1       3.330   3.856  -1.783  0.00  0.00    -0.051 Br
ATOM      2  C   UNK d   1       2.710   2.702  -0.397  0.00  0.00     0.011 A 
ATOM      3  C   UNK d   1       2.410   1.408  -0.746  0.00  0.00     0.030 A 
ATOM      4  C   UNK d   1       1.952   0.523   0.236  0.00  0.00    -0.002 A 
ATOM      5  C   UNK d   1       1.813   0.963   1.512  0.00  0.00     0.043 A 
ATOM      6  C   UNK d   1       2.115   2.285   1.891  0.00  0.00     0.031 A 
ATOM      7  C   UNK d   1       2.563   3.132   0.905  0.00  0.00     0.021 A 
ATOM      8  N   UNK d   1       1.335  -0.073   2.350  0.00  0.00    -0.325 N 
ATOM      9  C   UNK d   1       1.167  -1.211   1.559  0.00  0.00     0.245 A 
ATOM     10  O   UNK d   1       0.740  -2.369   1.940  0.00  0.00    -0.271 OA
ATOM     11  C   UNK d   1       1.570  -0.878   0.160  0.00  0.00     0.141 A 
ATOM     12  C   UNK d   1       2.601  -1.819  -0.192  0.00  0.00     0.048 A 
ATOM     13  C   UNK d   1       2.400  -2.760  -1.131  0.00  0.00     0.176 A 
ATOM     14  N   UNK d   1       3.564  -3.484  -1.226  0.00  0.00    -0.256 N 
ATOM     15  N   UNK d   1       4.433  -2.991  -0.370  0.00  0.00    -0.177 NA
ATOM     16  C   UNK d   1       3.913  -1.964   0.303  0.00  0.00     0.063 A 
ATOM     17  C   UNK d   1       4.550  -1.125   1.359  0.00  0.00     0.073 C 
ATOM     18  O   UNK d   1       1.191  -2.904  -1.836  0.00  0.00    -0.275 OA
ATOM     19  C   UNK d   1       0.183  -2.005  -1.511  0.00  0.00     0.158 A 
ATOM     20  C   UNK d   1       0.320  -1.077  -0.613  0.00  0.00     0.095 A 
ATOM     21  H   UNK d   1       1.130  -0.031   3.389  0.00  0.00     0.169 HD
ATOM     22  H   UNK d   1       3.727  -4.291  -1.870  0.00  0.00     0.191 HD
ENDROOT
BRANCH  20  23
ATOM     23  C   UNK d   1      -0.826  -0.162  -0.340  0.00  0.00     0.295 C 
ATOM     24  O   UNK d   1      -1.873  -0.332  -0.990  0.00  0.00    -0.259 OA
BRANCH  23  25
ATOM     25  O   UNK d   1      -0.778   0.844   0.586  0.00  0.00    -0.318 OA
BRANCH  25  26
ATOM     26  C   UNK d   1      -1.838   1.725   0.871  0.00  0.00     0.174 C 
ATOM     27  C   UNK d   1      -3.018   0.874   1.352  0.00  0.00     0.034 C 
ENDBRANCH  25  26
ENDBRANCH  23  25
ENDBRANCH  20  23
BRANCH  19  28
ATOM     28  N   UNK d   1      -1.089  -2.089  -2.192  0.00  0.00    -0.379 N 
ATOM     29  H   UNK d   1      -1.860  -2.562  -1.715  0.00  0.00     0.158 HD
ATOM     30  H   UNK d   1      -1.186  -1.678  -3.121  0.00  0.00     0.158 HD
ENDBRANCH  19  28
TORSDOF 4
