REMARK  1 active torsions:
REMARK  status: ('A' for Active; 'I' for Inactive)
REMARK    1  A    between atoms: C_15  and  N_19 
ROOT
ATOM      1 Br   UNK d   1      -0.745   2.753  -4.904  0.00  0.00    -0.051 Br
ATOM      2  C   UNK d   1      -0.468   0.992  -4.249  0.00  0.00     0.011 A 
ATOM      3  C   UNK d   1      -0.482   0.697  -2.882  0.00  0.00     0.030 A 
ATOM      4  C   UNK d   1      -0.282  -0.576  -2.418  0.00  0.00    -0.002 A 
ATOM      5  C   UNK d   1      -0.061  -1.585  -3.309  0.00  0.00     0.043 A 
ATOM      6  C   UNK d   1      -0.037  -1.340  -4.689  0.00  0.00     0.031 A 
ATOM      7  C   UNK d   1      -0.242  -0.053  -5.125  0.00  0.00     0.021 A 
ATOM      8  N   UNK d   1       0.123  -2.820  -2.638  0.00  0.00    -0.325 N 
ATOM      9  C   UNK d   1       0.012  -2.570  -1.259  0.00  0.00     0.246 A 
ATOM     10  O   UNK d   1       0.111  -3.394  -0.312  0.00  0.00    -0.271 OA
ATOM     11  C   UNK d   1      -0.251  -1.129  -1.052  0.00  0.00     0.146 A 
ATOM     12  C   UNK d   1       0.869  -0.526  -0.259  0.00  0.00     0.071 A 
ATOM     13  C   UNK d   1       0.736   0.126   0.866  0.00  0.00     0.060 A 
ATOM     14  N   UNK d   1      -0.566   0.287   1.396  0.00  0.00    -0.342 N 
ATOM     15  C   UNK d   1      -1.689  -0.250   0.715  0.00  0.00     0.118 A 
ATOM     16  C   UNK d   1      -1.559  -0.904  -0.413  0.00  0.00     0.093 A 
ATOM     17  C   UNK d   1      -2.770  -1.427  -1.053  0.00  0.00     0.101 C 
ATOM     18  N   UNK d   1      -3.714  -1.852  -1.568  0.00  0.00    -0.191 NA
ATOM     19  C   UNK d   1       2.080   0.556   1.323  0.00  0.00     0.106 A 
ATOM     20  O   UNK d   1       3.005   0.100   0.370  0.00  0.00    -0.301 OA
ATOM     21  C   UNK d   1       2.299  -0.567  -0.612  0.00  0.00     0.294 A 
ATOM     22  O   UNK d   1       2.816  -1.118  -1.644  0.00  0.00    -0.259 OA
ATOM     23  C   UNK d   1       2.450  -0.128   2.641  0.00  0.00     0.053 C 
ATOM     24  C   UNK d   1       2.145   2.068   1.487  0.00  0.00     0.053 C 
ATOM     25  H   UNK d   1       0.310  -3.758  -3.113  0.00  0.00     0.169 HD
ATOM     26  H   UNK d   1      -0.734   0.803   2.298  0.00  0.00     0.167 HD
ENDROOT
BRANCH  15  27
ATOM     27  N   UNK d   1      -3.017  -0.072   1.279  0.00  0.00    -0.384 N 
ATOM     28  H   UNK d   1      -3.882  -0.098   0.715  0.00  0.00     0.157 HD
ATOM     29  H   UNK d   1      -3.088   0.087   2.297  0.00  0.00     0.157 HD
ENDBRANCH  15  27
TORSDOF 1
