# created with PyMOL 2.3.2
@<TRIPOS>MOLECULE
558
38 41 1                 
SMALL
USER_CHARGES
@<TRIPOS>ATOM
1	  Br	-0.745	2.753	-4.904	Br	1	UNK0	0.000	
2	   C	-0.468	0.992	-4.249	C.2	1	UNK0	0.000	
3	   C	-0.482	0.697	-2.882	C.2	1	UNK0	0.000	
4	   C	-0.282	-0.576	-2.418	C.2	1	UNK0	0.000	
5	   C	-0.061	-1.585	-3.309	C.2	1	UNK0	0.000	
6	   C	-0.037	-1.340	-4.689	C.2	1	UNK0	0.000	
7	   C	-0.242	-0.053	-5.125	C.2	1	UNK0	0.000	
8	   N	0.123	-2.820	-2.638	N.pl3	1	UNK0	0.000	
9	   C	0.012	-2.570	-1.259	C.2	1	UNK0	0.000	
10	   O	0.111	-3.394	-0.312	O.2	1	UNK0	0.000	
11	   C	-0.251	-1.129	-1.052	C.3	1	UNK0	0.000	
12	   C	0.869	-0.526	-0.259	C.2	1	UNK0	0.000	
13	   C	0.736	0.126	0.866	C.2	1	UNK0	0.000	
14	   N	-0.566	0.287	1.396	N.pl3	1	UNK0	0.000	
15	   C	-1.689	-0.250	0.715	C.2	1	UNK0	0.000	
16	   C	-1.559	-0.904	-0.413	C.2	1	UNK0	0.000	
17	   C	-2.770	-1.427	-1.053	C.1	1	UNK0	0.000	
18	   N	-3.714	-1.852	-1.568	N.1	1	UNK0	0.000	
19	   N	-3.017	-0.072	1.279	N.pl3	1	UNK0	0.000	
20	   C	2.080	0.556	1.323	C.3	1	UNK0	0.000	
21	   O	3.005	0.100	0.370	O.3	1	UNK0	0.000	
22	   C	2.299	-0.567	-0.612	C.2	1	UNK0	0.000	
23	   O	2.816	-1.118	-1.644	O.co2	1	UNK0	0.000	
24	   C	2.450	-0.128	2.641	C.3	1	UNK0	0.000	
25	   C	2.145	2.068	1.487	C.3	1	UNK0	0.000	
26	   H	-0.661	1.534	-2.218	 H	1	UNK0	0.000	
27	   H	0.133	-2.108	-5.420	 H	1	UNK0	0.000	
28	   H	-0.224	0.140	-6.197	 H	1	UNK0	0.000	
29	   H	0.310	-3.758	-3.113	 H	1	UNK0	0.000	
30	   H	-0.734	0.803	2.298	 H	1	UNK0	0.000	
31	   H	-3.882	-0.098	0.715	 H	1	UNK0	0.000	
32	   H	-3.088	0.087	2.297	 H	1	UNK0	0.000	
33	   H	3.559	-0.095	2.693	 H	1	UNK0	0.000	
34	   H	2.068	0.424	3.505	 H	1	UNK0	0.000	
35	   H	2.153	-1.181	2.602	 H	1	UNK0	0.000	
36	   H	2.272	2.347	2.559	 H	1	UNK0	0.000	
37	   H	3.035	2.415	0.897	 H	1	UNK0	0.000	
38	   H	1.250	2.531	1.045	 H	1	UNK0	0.000	
@<TRIPOS>BOND
1 1 2 1
2 2 3 2
3 2 7 1
4 3 4 1
5 4 5 2
6 4 11 1
7 5 6 1
8 5 8 1
9 6 7 2
10 8 9 1
11 9 10 2
12 9 11 1
13 11 12 1
14 11 16 1
15 12 13 2
16 12 22 1
17 13 14 1
18 13 20 1
19 14 15 1
20 15 16 2
21 15 19 1
22 16 17 1
23 17 18 3
24 20 21 1
25 20 24 1
26 20 25 1
27 21 22 1
28 22 23 2
29 3 26 1
30 6 27 1
31 7 28 1
32 8 29 1
33 14 30 1
34 19 31 1
35 19 32 1
36 24 33 1
37 24 34 1
38 24 35 1
39 25 36 1
40 25 37 1
41 25 38 1
@<TRIPOS>SUBSTRUCTURE
1	UNK0	1	GROUP	1 ****	UNK
