REMARK  3 active torsions:
REMARK  status: ('A' for Active; 'I' for Inactive)
REMARK    1  A    between atoms: C_13  and  C_25 
REMARK    2  A    between atoms: N_18  and  C_21 
REMARK    3  A    between atoms: C_25  and  C_26 
REMARK       I    between atoms: C_26  and  N_28 
ROOT
ATOM      1 Br   UNK d   1       3.781   0.055   4.675  0.00  0.00    -0.051 Br
ATOM      2  C   UNK d   1       2.559   1.326   3.916  0.00  0.00     0.011 A 
ATOM      3  C   UNK d   1       1.984   1.130   2.674  0.00  0.00     0.031 A 
ATOM      4  C   UNK d   1       1.105   2.038   2.120  0.00  0.00     0.019 A 
ATOM      5  C   UNK d   1       0.827   3.160   2.873  0.00  0.00     0.044 A 
ATOM      6  C   UNK d   1       1.404   3.361   4.123  0.00  0.00     0.031 A 
ATOM      7  C   UNK d   1       2.268   2.449   4.647  0.00  0.00     0.021 A 
ATOM      8  N   UNK d   1      -0.092   3.989   2.144  0.00  0.00    -0.324 N 
ATOM      9  C   UNK d   1      -0.393   3.369   0.906  0.00  0.00     0.267 A 
ATOM     10  O   UNK d   1      -1.161   3.856   0.044  0.00  0.00    -0.270 OA
ATOM     11  C   UNK d   1       0.350   2.093   0.847  0.00  0.00     0.279 A 
ATOM     12  N   UNK d   1       1.208   2.046  -0.306  0.00  0.00     0.114 N 
ATOM     13  C   UNK d   1       0.318   1.677  -1.387  0.00  0.00     0.245 C 
ATOM     14  C   UNK d   1      -0.547   0.603  -0.783  0.00  0.00     0.128 C 
ATOM     15  C   UNK d   1      -0.615   0.974   0.679  0.00  0.00     0.147 C 
ATOM     16  C   UNK d   1      -0.292  -0.260   1.409  0.00  0.00     0.235 C 
ATOM     17  O   UNK d   1      -0.352  -0.437   2.652  0.00  0.00    -0.272 OA
ATOM     18  N   UNK d   1       0.120  -1.285   0.476  0.00  0.00    -0.279 N 
ATOM     19  C   UNK d   1       0.075  -0.738  -0.832  0.00  0.00     0.234 C 
ATOM     20  O   UNK d   1       0.505  -1.324  -1.854  0.00  0.00    -0.272 OA
ATOM     21  H   UNK d   1      -0.452   4.897   2.510  0.00  0.00     0.169 HD
ATOM     22  H   UNK d   1       1.900   1.290  -0.179  0.00  0.00     0.318 HD
ENDROOT
BRANCH  13  23
ATOM     23  C   UNK d   1       1.107   1.217  -2.583  0.00  0.00     0.139 C 
BRANCH  23  24
ATOM     24  C   UNK d   1       0.215   0.838  -3.691  0.00  0.00     0.217 C 
ATOM     25  O   UNK d   1       0.728   0.428  -4.768  0.00  0.00    -0.274 OA
ATOM     26  N   UNK d   1      -1.201   0.897  -3.643  0.00  0.00    -0.370 N 
ATOM     27  H   UNK d   1      -1.753   1.696  -3.299  0.00  0.00     0.159 HD
ATOM     28  H   UNK d   1      -1.724   0.050  -3.989  0.00  0.00     0.159 HD
ENDBRANCH  23  24
ENDBRANCH  13  23
BRANCH  18  29
ATOM     29  C   UNK d   1       0.512  -2.635   0.796  0.00  0.00     0.032 C 
ATOM     30  C   UNK d   1       0.875  -3.425  -0.438  0.00  0.00     0.038 C 
ATOM     31  C   UNK d   1       1.711  -2.589   1.748  0.00  0.00     0.038 C 
ATOM     32  C   UNK d   1      -0.614  -3.374   1.485  0.00  0.00     0.038 C 
ENDBRANCH  18  29
TORSDOF 3
