# created with PyMOL 2.3.2
@<TRIPOS>MOLECULE
559
49 52 1                 
SMALL
USER_CHARGES
@<TRIPOS>ATOM
1	  Br	3.781	0.055	4.675	Br	1	UNK0	0.000	
2	   C	2.559	1.326	3.916	C.2	1	UNK0	0.000	
3	   C	1.984	1.130	2.674	C.2	1	UNK0	0.000	
4	   C	1.105	2.038	2.120	C.2	1	UNK0	0.000	
5	   C	0.827	3.160	2.873	C.2	1	UNK0	0.000	
6	   C	1.404	3.361	4.123	C.2	1	UNK0	0.000	
7	   C	2.268	2.449	4.647	C.2	1	UNK0	0.000	
8	   N	-0.092	3.989	2.144	N.pl3	1	UNK0	0.000	
9	   C	-0.393	3.369	0.906	C.2	1	UNK0	0.000	
10	   O	-1.161	3.856	0.044	O.2	1	UNK0	0.000	
11	   C	0.350	2.093	0.847	C.3	1	UNK0	0.000	
12	   N	1.208	2.046	-0.306	N.3	1	UNK0	0.000	
13	   C	0.318	1.677	-1.387	C.3	1	UNK0	0.000	
14	   C	-0.547	0.603	-0.783	C.3	1	UNK0	0.000	
15	   C	-0.615	0.974	0.679	C.3	1	UNK0	0.000	
16	   C	-0.292	-0.260	1.409	C.2	1	UNK0	0.000	
17	   O	-0.352	-0.437	2.652	O.2	1	UNK0	0.000	
18	   N	0.120	-1.285	0.476	N.pl3	1	UNK0	0.000	
19	   C	0.075	-0.738	-0.832	C.2	1	UNK0	0.000	
20	   O	0.505	-1.324	-1.854	O.2	1	UNK0	0.000	
21	   C	0.512	-2.635	0.796	C.3	1	UNK0	0.000	
22	   C	0.875	-3.425	-0.438	C.3	1	UNK0	0.000	
23	   C	1.711	-2.589	1.748	C.3	1	UNK0	0.000	
24	   C	-0.614	-3.374	1.485	C.3	1	UNK0	0.000	
25	   C	1.107	1.217	-2.583	C.3	1	UNK0	0.000	
26	   C	0.215	0.838	-3.691	C.2	1	UNK0	0.000	
27	   O	0.728	0.428	-4.768	O.2	1	UNK0	0.000	
28	   N	-1.201	0.897	-3.643	N.pl3	1	UNK0	0.000	
29	   H	2.261	0.228	2.159	 H	1	UNK0	0.000	
30	   H	1.179	4.246	4.707	 H	1	UNK0	0.000	
31	   H	2.705	2.637	5.633	 H	1	UNK0	0.000	
32	   H	-0.452	4.897	2.510	 H	1	UNK0	0.000	
33	   H	1.900	1.290	-0.179	 H	1	UNK0	0.000	
34	   H	-0.302	2.541	-1.730	 H	1	UNK0	0.000	
35	   H	-1.569	0.570	-1.188	 H	1	UNK0	0.000	
36	   H	-1.632	1.331	0.956	 H	1	UNK0	0.000	
37	   H	-0.013	-3.459	-1.101	 H	1	UNK0	0.000	
38	   H	1.078	-4.491	-0.169	 H	1	UNK0	0.000	
39	   H	1.787	-3.027	-0.932	 H	1	UNK0	0.000	
40	   H	2.482	-1.980	1.235	 H	1	UNK0	0.000	
41	   H	2.086	-3.596	1.958	 H	1	UNK0	0.000	
42	   H	1.354	-2.044	2.654	 H	1	UNK0	0.000	
43	   H	-0.507	-4.453	1.262	 H	1	UNK0	0.000	
44	   H	-0.611	-3.251	2.578	 H	1	UNK0	0.000	
45	   H	-1.568	-2.985	1.089	 H	1	UNK0	0.000	
46	   H	1.663	2.135	-2.938	 H	1	UNK0	0.000	
47	   H	1.890	0.485	-2.352	 H	1	UNK0	0.000	
48	   H	-1.753	1.696	-3.299	 H	1	UNK0	0.000	
49	   H	-1.724	0.050	-3.989	 H	1	UNK0	0.000	
@<TRIPOS>BOND
1 1 2 1
2 2 3 2
3 2 7 1
4 3 4 1
5 4 5 2
6 4 11 1
7 5 6 1
8 5 8 1
9 6 7 2
10 8 9 1
11 9 10 2
12 9 11 1
13 11 12 1
14 11 15 1
15 12 13 1
16 13 14 1
17 13 25 1
18 14 15 1
19 14 19 1
20 15 16 1
21 16 17 2
22 16 18 1
23 18 19 1
24 18 21 1
25 19 20 2
26 21 22 1
27 21 23 1
28 21 24 1
29 25 26 1
30 26 27 2
31 26 28 1
32 3 29 1
33 6 30 1
34 7 31 1
35 8 32 1
36 12 33 1
37 13 34 1
38 14 35 1
39 15 36 1
40 22 37 1
41 22 38 1
42 22 39 1
43 23 40 1
44 23 41 1
45 23 42 1
46 24 43 1
47 24 44 1
48 24 45 1
49 25 46 1
50 25 47 1
51 28 48 1
52 28 49 1
@<TRIPOS>SUBSTRUCTURE
1	UNK0	1	GROUP	1 ****	UNK
