# created with PyMOL 2.3.2
@<TRIPOS>MOLECULE
566
49 52 1                 
SMALL
USER_CHARGES
@<TRIPOS>ATOM
1	  Br	-0.704	4.785	-4.369	Br	1	UNK0	0.000	
2	   C	-1.507	3.419	-3.306	C.2	1	UNK0	0.000	
3	   C	-0.826	2.855	-2.257	C.2	1	UNK0	0.000	
4	   C	-1.408	1.847	-1.467	C.2	1	UNK0	0.000	
5	   C	-2.673	1.394	-1.717	C.2	1	UNK0	0.000	
6	   C	-3.369	1.971	-2.789	C.2	1	UNK0	0.000	
7	   C	-2.781	2.955	-3.549	C.2	1	UNK0	0.000	
8	   N	-3.042	0.381	-0.792	N.pl3	1	UNK0	0.000	
9	   C	-1.948	0.191	0.083	C.2	1	UNK0	0.000	
10	   O	-1.979	-0.662	1.031	O.2	1	UNK0	0.000	
11	   C	-0.882	1.099	-0.304	C.3	1	UNK0	0.000	
12	   N	-0.457	1.983	0.764	N.3	1	UNK0	0.000	
13	   C	0.598	1.274	1.465	C.3	1	UNK0	0.000	
14	   C	1.373	0.667	0.331	C.3	1	UNK0	0.000	
15	   C	0.346	0.299	-0.685	C.3	1	UNK0	0.000	
16	   C	0.151	-1.153	-0.549	C.2	1	UNK0	0.000	
17	   O	-0.802	-1.875	-0.991	O.2	1	UNK0	0.000	
18	   N	1.230	-1.710	0.191	N.pl3	1	UNK0	0.000	
19	   C	1.989	-0.628	0.692	C.2	1	UNK0	0.000	
20	   O	3.061	-0.711	1.365	O.2	1	UNK0	0.000	
21	   C	1.507	-3.118	0.397	C.3	1	UNK0	0.000	
22	   C	0.841	-3.658	1.621	C.3	1	UNK0	0.000	
23	   C	1.218	-5.142	1.712	C.3	1	UNK0	0.000	
24	   C	0.745	-5.880	0.490	C.3	1	UNK0	0.000	
25	   C	1.394	2.249	2.274	C.3	1	UNK0	0.000	
26	   O	0.524	2.858	3.187	O.3	1	UNK0	0.000	
27	   C	1.940	3.339	1.385	C.3	1	UNK0	0.000	
28	   H	0.193	3.174	-2.004	 H	1	UNK0	0.000	
29	   H	-4.380	1.612	-2.992	 H	1	UNK0	0.000	
30	   H	-3.311	3.409	-4.382	 H	1	UNK0	0.000	
31	   H	-3.975	-0.105	-0.804	 H	1	UNK0	0.000	
32	   H	-1.236	2.267	1.385	 H	1	UNK0	0.000	
33	   H	0.212	0.451	2.087	 H	1	UNK0	0.000	
34	   H	2.118	1.366	-0.101	 H	1	UNK0	0.000	
35	   H	0.708	0.567	-1.709	 H	1	UNK0	0.000	
36	   H	1.197	-3.739	-0.464	 H	1	UNK0	0.000	
37	   H	2.609	-3.245	0.502	 H	1	UNK0	0.000	
38	   H	-0.271	-3.653	1.488	 H	1	UNK0	0.000	
39	   H	1.058	-3.130	2.547	 H	1	UNK0	0.000	
40	   H	2.339	-5.154	1.722	 H	1	UNK0	0.000	
41	   H	0.868	-5.585	2.656	 H	1	UNK0	0.000	
42	   H	-0.190	-5.481	0.070	 H	1	UNK0	0.000	
43	   H	1.512	-5.822	-0.329	 H	1	UNK0	0.000	
44	   H	0.661	-6.956	0.739	 H	1	UNK0	0.000	
45	   H	2.230	1.733	2.791	 H	1	UNK0	0.000	
46	   H	0.682	3.836	3.228	 H	1	UNK0	0.000	
47	   H	2.879	2.992	0.910	 H	1	UNK0	0.000	
48	   H	1.165	3.598	0.652	 H	1	UNK0	0.000	
49	   H	2.216	4.196	2.053	 H	1	UNK0	0.000	
@<TRIPOS>BOND
1 1 2 1
2 2 3 2
3 2 7 1
4 3 4 1
5 4 5 2
6 4 11 1
7 5 6 1
8 5 8 1
9 6 7 2
10 8 9 1
11 9 10 2
12 9 11 1
13 11 12 1
14 11 15 1
15 12 13 1
16 13 14 1
17 13 25 1
18 14 15 1
19 14 19 1
20 15 16 1
21 16 17 2
22 16 18 1
23 18 19 1
24 18 21 1
25 19 20 2
26 21 22 1
27 22 23 1
28 23 24 1
29 25 26 1
30 25 27 1
31 3 28 1
32 6 29 1
33 7 30 1
34 8 31 1
35 12 32 1
36 13 33 1
37 14 34 1
38 15 35 1
39 21 36 1
40 21 37 1
41 22 38 1
42 22 39 1
43 23 40 1
44 23 41 1
45 24 42 1
46 24 43 1
47 24 44 1
48 25 45 1
49 26 46 1
50 27 47 1
51 27 48 1
52 27 49 1
@<TRIPOS>SUBSTRUCTURE
1	UNK0	1	GROUP	1 ****	UNK
