REMARK  5 active torsions:
REMARK  status: ('A' for Active; 'I' for Inactive)
REMARK    1  A    between atoms: C_13  and  C_25 
REMARK    2  A    between atoms: N_18  and  C_21 
REMARK    3  A    between atoms: C_21  and  C_22 
REMARK    4  A    between atoms: C_22  and  C_23 
REMARK    5  A    between atoms: C_25  and  O_26 
ROOT
ATOM      1 Br   UNK d   1      -0.704   4.785  -4.369  0.00  0.00    -0.051 Br
ATOM      2  C   UNK d   1      -1.507   3.419  -3.306  0.00  0.00     0.011 A 
ATOM      3  C   UNK d   1      -0.826   2.855  -2.257  0.00  0.00     0.031 A 
ATOM      4  C   UNK d   1      -1.408   1.847  -1.467  0.00  0.00     0.019 A 
ATOM      5  C   UNK d   1      -2.673   1.394  -1.717  0.00  0.00     0.044 A 
ATOM      6  C   UNK d   1      -3.369   1.971  -2.789  0.00  0.00     0.031 A 
ATOM      7  C   UNK d   1      -2.781   2.955  -3.549  0.00  0.00     0.021 A 
ATOM      8  N   UNK d   1      -3.042   0.381  -0.792  0.00  0.00    -0.324 N 
ATOM      9  C   UNK d   1      -1.948   0.191   0.083  0.00  0.00     0.267 A 
ATOM     10  O   UNK d   1      -1.979  -0.662   1.031  0.00  0.00    -0.270 OA
ATOM     11  C   UNK d   1      -0.882   1.099  -0.304  0.00  0.00     0.279 A 
ATOM     12  N   UNK d   1      -0.457   1.983   0.764  0.00  0.00     0.116 N 
ATOM     13  C   UNK d   1       0.598   1.274   1.465  0.00  0.00     0.264 C 
ATOM     14  C   UNK d   1       1.373   0.667   0.331  0.00  0.00     0.130 C 
ATOM     15  C   UNK d   1       0.346   0.299  -0.685  0.00  0.00     0.147 C 
ATOM     16  C   UNK d   1       0.151  -1.153  -0.549  0.00  0.00     0.234 C 
ATOM     17  O   UNK d   1      -0.802  -1.875  -0.991  0.00  0.00    -0.272 OA
ATOM     18  N   UNK d   1       1.230  -1.710   0.191  0.00  0.00    -0.288 N 
ATOM     19  C   UNK d   1       1.989  -0.628   0.692  0.00  0.00     0.233 C 
ATOM     20  O   UNK d   1       3.061  -0.711   1.365  0.00  0.00    -0.272 OA
ATOM     21  H   UNK d   1      -3.975  -0.105  -0.804  0.00  0.00     0.169 HD
ATOM     22  H   UNK d   1      -1.236   2.267   1.385  0.00  0.00     0.318 HD
ENDROOT
BRANCH  13  23
ATOM     23  C   UNK d   1       1.394   2.249   2.274  0.00  0.00     0.148 C 
ATOM     24  C   UNK d   1       1.940   3.339   1.385  0.00  0.00     0.041 C 
BRANCH  23  25
ATOM     25  O   UNK d   1       0.524   2.858   3.187  0.00  0.00    -0.394 OA
ATOM     26  H   UNK d   1       0.682   3.836   3.228  0.00  0.00     0.210 HD
ENDBRANCH  23  25
ENDBRANCH  13  23
BRANCH  18  27
ATOM     27  C   UNK d   1       1.507  -3.118   0.397  0.00  0.00     0.135 C 
BRANCH  27  28
ATOM     28  C   UNK d   1       0.841  -3.658   1.621  0.00  0.00     0.020 C 
BRANCH  28  29
ATOM     29  C   UNK d   1       1.218  -5.142   1.712  0.00  0.00    -0.003 C 
ATOM     30  C   UNK d   1       0.745  -5.880   0.490  0.00  0.00     0.005 C 
ENDBRANCH  28  29
ENDBRANCH  27  28
ENDBRANCH  18  27
TORSDOF 5
