# created with PyMOL 2.3.2
@<TRIPOS>MOLECULE
571
53 57 1                 
SMALL
USER_CHARGES
@<TRIPOS>ATOM
1	  Br	-1.149	-2.926	2.449	Br	1	UNK0	0.000	
2	   C	0.170	-2.467	1.147	C.2	1	UNK0	0.000	
3	   C	-0.129	-1.753	0.008	C.2	1	UNK0	0.000	
4	   C	0.843	-1.424	-0.949	C.2	1	UNK0	0.000	
5	   C	2.129	-1.843	-0.710	C.2	1	UNK0	0.000	
6	   C	2.438	-2.562	0.436	C.2	1	UNK0	0.000	
7	   C	1.475	-2.880	1.368	C.2	1	UNK0	0.000	
8	   N	2.992	-1.454	-1.761	N.pl3	1	UNK0	0.000	
9	   C	2.216	-0.757	-2.710	C.2	1	UNK0	0.000	
10	   O	2.707	-0.281	-3.772	O.2	1	UNK0	0.000	
11	   C	0.820	-0.712	-2.227	C.3	1	UNK0	0.000	
12	   N	-0.073	-1.377	-3.181	N.3	1	UNK0	0.000	
13	   C	-1.329	-0.666	-3.097	C.3	1	UNK0	0.000	
14	   C	-1.050	0.709	-2.633	C.3	1	UNK0	0.000	
15	   C	0.402	0.710	-2.191	C.3	1	UNK0	0.000	
16	   C	0.419	1.395	-0.904	C.2	1	UNK0	0.000	
17	   O	1.402	1.506	-0.130	O.2	1	UNK0	0.000	
18	   N	-0.883	1.950	-0.619	N.pl3	1	UNK0	0.000	
19	   C	-1.775	1.153	-1.426	C.2	1	UNK0	0.000	
20	   O	-2.953	0.897	-1.135	O.2	1	UNK0	0.000	
21	   C	-1.235	3.046	0.226	C.3	1	UNK0	0.000	
22	   C	-1.527	2.708	1.659	C.3	1	UNK0	0.000	
23	   C	-0.400	2.117	2.401	C.2	1	UNK0	0.000	
24	   C	0.522	2.953	3.019	C.2	1	UNK0	0.000	
25	   C	1.548	2.422	3.726	C.2	1	UNK0	0.000	
26	   C	1.726	1.076	3.867	C.2	1	UNK0	0.000	
27	   C	0.800	0.251	3.247	C.2	1	UNK0	0.000	
28	   C	-0.242	0.762	2.528	C.2	1	UNK0	0.000	
29	   C	-2.055	-0.729	-4.420	C.3	1	UNK0	0.000	
30	   O	-3.254	-0.048	-4.333	O.3	1	UNK0	0.000	
31	   C	-1.200	-0.250	-5.568	C.3	1	UNK0	0.000	
32	   H	-1.152	-1.443	-0.138	 H	1	UNK0	0.000	
33	   H	3.455	-2.899	0.636	 H	1	UNK0	0.000	
34	   H	1.699	-3.444	2.275	 H	1	UNK0	0.000	
35	   H	4.029	-1.651	-1.820	 H	1	UNK0	0.000	
36	   H	-0.192	-2.390	-2.951	 H	1	UNK0	0.000	
37	   H	-1.965	-1.190	-2.361	 H	1	UNK0	0.000	
38	   H	-1.225	1.494	-3.403	 H	1	UNK0	0.000	
39	   H	0.964	1.353	-2.912	 H	1	UNK0	0.000	
40	   H	-0.375	3.782	0.173	 H	1	UNK0	0.000	
41	   H	-2.142	3.572	-0.176	 H	1	UNK0	0.000	
42	   H	-2.401	2.009	1.728	 H	1	UNK0	0.000	
43	   H	-1.902	3.640	2.176	 H	1	UNK0	0.000	
44	   H	0.415	4.036	2.930	 H	1	UNK0	0.000	
45	   H	2.251	3.128	4.196	 H	1	UNK0	0.000	
46	   H	2.538	0.645	4.428	 H	1	UNK0	0.000	
47	   H	0.939	-0.825	3.362	 H	1	UNK0	0.000	
48	   H	-0.960	0.126	2.047	 H	1	UNK0	0.000	
49	   H	-2.281	-1.803	-4.610	 H	1	UNK0	0.000	
50	   H	-3.718	0.005	-5.190	 H	1	UNK0	0.000	
51	   H	-0.506	-1.018	-5.936	 H	1	UNK0	0.000	
52	   H	-0.655	0.674	-5.345	 H	1	UNK0	0.000	
53	   H	-1.894	-0.018	-6.414	 H	1	UNK0	0.000	
@<TRIPOS>BOND
1 1 2 1
2 2 3 2
3 2 7 1
4 3 4 1
5 4 5 2
6 4 11 1
7 5 6 1
8 5 8 1
9 6 7 2
10 8 9 1
11 9 10 2
12 9 11 1
13 11 12 1
14 11 15 1
15 12 13 1
16 13 14 1
17 13 29 1
18 14 15 1
19 14 19 1
20 15 16 1
21 16 17 2
22 16 18 1
23 18 19 1
24 18 21 1
25 19 20 2
26 21 22 1
27 22 23 1
28 23 24 2
29 23 28 1
30 24 25 1
31 25 26 2
32 26 27 1
33 27 28 2
34 29 30 1
35 29 31 1
36 3 32 1
37 6 33 1
38 7 34 1
39 8 35 1
40 12 36 1
41 13 37 1
42 14 38 1
43 15 39 1
44 21 40 1
45 21 41 1
46 22 42 1
47 22 43 1
48 24 44 1
49 25 45 1
50 26 46 1
51 27 47 1
52 28 48 1
53 29 49 1
54 30 50 1
55 31 51 1
56 31 52 1
57 31 53 1
@<TRIPOS>SUBSTRUCTURE
1	UNK0	1	GROUP	1 ****	UNK
