REMARK  5 active torsions:
REMARK  status: ('A' for Active; 'I' for Inactive)
REMARK    1  A    between atoms: C_13  and  C_29 
REMARK    2  A    between atoms: N_18  and  C_21 
REMARK    3  A    between atoms: C_21  and  C_22 
REMARK    4  A    between atoms: C_22  and  C_23 
REMARK    5  A    between atoms: C_29  and  O_30 
ROOT
ATOM      1 Br   UNK d   1      -1.149  -2.926   2.449  0.00  0.00    -0.051 Br
ATOM      2  C   UNK d   1       0.170  -2.467   1.147  0.00  0.00     0.011 A 
ATOM      3  C   UNK d   1      -0.129  -1.753   0.008  0.00  0.00     0.031 A 
ATOM      4  C   UNK d   1       0.843  -1.424  -0.949  0.00  0.00     0.019 A 
ATOM      5  C   UNK d   1       2.129  -1.843  -0.710  0.00  0.00     0.044 A 
ATOM      6  C   UNK d   1       2.438  -2.562   0.436  0.00  0.00     0.031 A 
ATOM      7  C   UNK d   1       1.475  -2.880   1.368  0.00  0.00     0.021 A 
ATOM      8  N   UNK d   1       2.992  -1.454  -1.761  0.00  0.00    -0.324 N 
ATOM      9  C   UNK d   1       2.216  -0.757  -2.710  0.00  0.00     0.267 A 
ATOM     10  O   UNK d   1       2.707  -0.281  -3.772  0.00  0.00    -0.270 OA
ATOM     11  C   UNK d   1       0.820  -0.712  -2.227  0.00  0.00     0.279 A 
ATOM     12  N   UNK d   1      -0.073  -1.377  -3.181  0.00  0.00     0.116 N 
ATOM     13  C   UNK d   1      -1.329  -0.666  -3.097  0.00  0.00     0.264 C 
ATOM     14  C   UNK d   1      -1.050   0.709  -2.633  0.00  0.00     0.130 C 
ATOM     15  C   UNK d   1       0.402   0.710  -2.191  0.00  0.00     0.147 C 
ATOM     16  C   UNK d   1       0.419   1.395  -0.904  0.00  0.00     0.234 C 
ATOM     17  O   UNK d   1       1.402   1.506  -0.130  0.00  0.00    -0.272 OA
ATOM     18  N   UNK d   1      -0.883   1.950  -0.619  0.00  0.00    -0.287 N 
ATOM     19  C   UNK d   1      -1.775   1.153  -1.426  0.00  0.00     0.233 C 
ATOM     20  O   UNK d   1      -2.953   0.897  -1.135  0.00  0.00    -0.272 OA
ATOM     21  H   UNK d   1       4.029  -1.651  -1.820  0.00  0.00     0.169 HD
ATOM     22  H   UNK d   1      -0.192  -2.390  -2.951  0.00  0.00     0.318 HD
ENDROOT
BRANCH  13  23
ATOM     23  C   UNK d   1      -2.055  -0.729  -4.420  0.00  0.00     0.148 C 
ATOM     24  C   UNK d   1      -1.200  -0.250  -5.568  0.00  0.00     0.041 C 
BRANCH  23  25
ATOM     25  O   UNK d   1      -3.254  -0.048  -4.333  0.00  0.00    -0.394 OA
ATOM     26  H   UNK d   1      -3.718   0.005  -5.190  0.00  0.00     0.210 HD
ENDBRANCH  23  25
ENDBRANCH  13  23
BRANCH  18  27
ATOM     27  C   UNK d   1      -1.235   3.046   0.226  0.00  0.00     0.139 C 
BRANCH  27  28
ATOM     28  C   UNK d   1      -1.527   2.708   1.659  0.00  0.00     0.059 C 
BRANCH  28  29
ATOM     29  C   UNK d   1      -0.400   2.117   2.401  0.00  0.00    -0.057 A 
ATOM     30  C   UNK d   1       0.522   2.953   3.019  0.00  0.00     0.007 A 
ATOM     31  C   UNK d   1       1.548   2.422   3.726  0.00  0.00     0.001 A 
ATOM     32  C   UNK d   1       1.726   1.076   3.867  0.00  0.00     0.000 A 
ATOM     33  C   UNK d   1       0.800   0.251   3.247  0.00  0.00     0.001 A 
ATOM     34  C   UNK d   1      -0.242   0.762   2.528  0.00  0.00     0.007 A 
ENDBRANCH  28  29
ENDBRANCH  27  28
ENDBRANCH  18  27
TORSDOF 5
