REMARK  3 active torsions:
REMARK  status: ('A' for Active; 'I' for Inactive)
REMARK    1  A    between atoms: N_18  and  C_21 
REMARK    2  A    between atoms: C_21  and  C_22 
REMARK    3  A    between atoms: C_22  and  C_23 
ROOT
ATOM      1 Br   UNK d   1       3.521   2.179   3.622  0.00  0.00    -0.051 Br
ATOM      2  C   UNK d   1       2.733   2.894   2.036  0.00  0.00     0.011 A 
ATOM      3  C   UNK d   1       1.670   2.292   1.411  0.00  0.00     0.031 A 
ATOM      4  C   UNK d   1       1.065   2.789   0.243  0.00  0.00     0.019 A 
ATOM      5  C   UNK d   1       1.585   3.937  -0.275  0.00  0.00     0.044 A 
ATOM      6  C   UNK d   1       2.676   4.568   0.352  0.00  0.00     0.031 A 
ATOM      7  C   UNK d   1       3.246   4.056   1.494  0.00  0.00     0.021 A 
ATOM      8  N   UNK d   1       0.876   4.330  -1.442  0.00  0.00    -0.324 N 
ATOM      9  C   UNK d   1      -0.137   3.375  -1.657  0.00  0.00     0.267 A 
ATOM     10  O   UNK d   1      -0.996   3.398  -2.613  0.00  0.00    -0.270 OA
ATOM     11  C   UNK d   1      -0.033   2.357  -0.596  0.00  0.00     0.279 A 
ATOM     12  N   UNK d   1      -1.310   2.484   0.129  0.00  0.00     0.113 N 
ATOM     13  C   UNK d   1      -2.179   1.430  -0.293  0.00  0.00     0.232 C 
ATOM     14  C   UNK d   1      -1.263   0.331  -0.688  0.00  0.00     0.127 C 
ATOM     15  C   UNK d   1       0.029   0.970  -1.120  0.00  0.00     0.147 C 
ATOM     16  C   UNK d   1       1.042   0.082  -0.597  0.00  0.00     0.234 C 
ATOM     17  O   UNK d   1       2.260   0.084  -0.943  0.00  0.00    -0.272 OA
ATOM     18  N   UNK d   1       0.451  -0.786   0.360  0.00  0.00    -0.288 N 
ATOM     19  C   UNK d   1      -0.916  -0.447   0.543  0.00  0.00     0.233 C 
ATOM     20  O   UNK d   1      -1.607  -0.762   1.532  0.00  0.00    -0.272 OA
ATOM     21  C   UNK d   1      -3.155   1.812  -1.381  0.00  0.00     0.043 C 
ATOM     22  H   UNK d   1       1.059   5.180  -2.052  0.00  0.00     0.169 HD
ATOM     23  H   UNK d   1      -1.154   2.474   1.161  0.00  0.00     0.318 HD
ENDROOT
BRANCH  18  24
ATOM     24  C   UNK d   1       1.192  -1.850   1.024  0.00  0.00     0.135 C 
BRANCH  24  25
ATOM     25  C   UNK d   1       1.125  -3.140   0.264  0.00  0.00     0.020 C 
BRANCH  25  26
ATOM     26  C   UNK d   1      -0.279  -3.653   0.089  0.00  0.00    -0.003 C 
ATOM     27  C   UNK d   1      -0.167  -4.963  -0.699  0.00  0.00     0.005 C 
ENDBRANCH  25  26
ENDBRANCH  24  25
ENDBRANCH  18  24
TORSDOF 3
