# created with PyMOL 2.3.2
@<TRIPOS>MOLECULE
578
45 48 1                 
SMALL
USER_CHARGES
@<TRIPOS>ATOM
1	  Br	3.521	2.179	3.622	Br	1	UNK0	0.000	
2	   C	2.733	2.894	2.036	C.2	1	UNK0	0.000	
3	   C	1.670	2.292	1.411	C.2	1	UNK0	0.000	
4	   C	1.065	2.789	0.243	C.2	1	UNK0	0.000	
5	   C	1.585	3.937	-0.275	C.2	1	UNK0	0.000	
6	   C	2.676	4.568	0.352	C.2	1	UNK0	0.000	
7	   C	3.246	4.056	1.494	C.2	1	UNK0	0.000	
8	   N	0.876	4.330	-1.442	N.pl3	1	UNK0	0.000	
9	   C	-0.137	3.375	-1.657	C.2	1	UNK0	0.000	
10	   O	-0.996	3.398	-2.613	O.2	1	UNK0	0.000	
11	   C	-0.033	2.357	-0.596	C.3	1	UNK0	0.000	
12	   N	-1.310	2.484	0.129	N.3	1	UNK0	0.000	
13	   C	-2.179	1.430	-0.293	C.3	1	UNK0	0.000	
14	   C	-1.263	0.331	-0.688	C.3	1	UNK0	0.000	
15	   C	0.029	0.970	-1.120	C.3	1	UNK0	0.000	
16	   C	1.042	0.082	-0.597	C.2	1	UNK0	0.000	
17	   O	2.260	0.084	-0.943	O.2	1	UNK0	0.000	
18	   N	0.451	-0.786	0.360	N.pl3	1	UNK0	0.000	
19	   C	-0.916	-0.447	0.543	C.2	1	UNK0	0.000	
20	   O	-1.607	-0.762	1.532	O.2	1	UNK0	0.000	
21	   C	1.192	-1.850	1.024	C.3	1	UNK0	0.000	
22	   C	1.125	-3.140	0.264	C.3	1	UNK0	0.000	
23	   C	-0.279	-3.653	0.089	C.3	1	UNK0	0.000	
24	   C	-0.167	-4.963	-0.699	C.3	1	UNK0	0.000	
25	   C	-3.155	1.812	-1.381	C.3	1	UNK0	0.000	
26	   H	1.290	1.393	1.854	 H	1	UNK0	0.000	
27	   H	3.062	5.489	-0.100	 H	1	UNK0	0.000	
28	   H	4.088	4.529	1.992	 H	1	UNK0	0.000	
29	   H	1.059	5.180	-2.052	 H	1	UNK0	0.000	
30	   H	-1.154	2.474	1.161	 H	1	UNK0	0.000	
31	   H	-2.762	1.086	0.623	 H	1	UNK0	0.000	
32	   H	-1.682	-0.339	-1.472	 H	1	UNK0	0.000	
33	   H	0.061	1.057	-2.249	 H	1	UNK0	0.000	
34	   H	2.255	-1.570	1.120	 H	1	UNK0	0.000	
35	   H	0.774	-1.987	2.051	 H	1	UNK0	0.000	
36	   H	1.687	-3.897	0.832	 H	1	UNK0	0.000	
37	   H	1.554	-2.966	-0.746	 H	1	UNK0	0.000	
38	   H	-0.914	-2.927	-0.470	 H	1	UNK0	0.000	
39	   H	-0.747	-3.848	1.055	 H	1	UNK0	0.000	
40	   H	-1.116	-5.189	-1.221	 H	1	UNK0	0.000	
41	   H	0.705	-4.915	-1.373	 H	1	UNK0	0.000	
42	   H	0.084	-5.749	0.071	 H	1	UNK0	0.000	
43	   H	-4.151	1.315	-1.172	 H	1	UNK0	0.000	
44	   H	-3.350	2.880	-1.321	 H	1	UNK0	0.000	
45	   H	-2.866	1.418	-2.369	 H	1	UNK0	0.000	
@<TRIPOS>BOND
1 1 2 1
2 2 3 2
3 2 7 1
4 3 4 1
5 4 5 2
6 4 11 1
7 5 6 1
8 5 8 1
9 6 7 2
10 8 9 1
11 9 10 2
12 9 11 1
13 11 12 1
14 11 15 1
15 12 13 1
16 13 14 1
17 13 25 1
18 14 15 1
19 14 19 1
20 15 16 1
21 16 17 2
22 16 18 1
23 18 19 1
24 18 21 1
25 19 20 2
26 21 22 1
27 22 23 1
28 23 24 1
29 3 26 1
30 6 27 1
31 7 28 1
32 8 29 1
33 12 30 1
34 13 31 1
35 14 32 1
36 15 33 1
37 21 34 1
38 21 35 1
39 22 36 1
40 22 37 1
41 23 38 1
42 23 39 1
43 24 40 1
44 24 41 1
45 24 42 1
46 25 43 1
47 25 44 1
48 25 45 1
@<TRIPOS>SUBSTRUCTURE
1	UNK0	1	GROUP	1 ****	UNK
