REMARK  5 active torsions:
REMARK  status: ('A' for Active; 'I' for Inactive)
REMARK    1  A    between atoms: C_13  and  C_25 
REMARK    2  A    between atoms: N_18  and  C_21 
REMARK    3  A    between atoms: C_21  and  C_22 
REMARK    4  A    between atoms: C_22  and  O_23 
REMARK    5  A    between atoms: C_25  and  C_26 
REMARK       I    between atoms: C_26  and  N_28 
ROOT
ATOM      1 Br   UNK d   1       5.998  -1.275   2.196  0.00  0.00    -0.051 Br
ATOM      2  C   UNK d   1       4.494  -2.021   1.291  0.00  0.00     0.011 A 
ATOM      3  C   UNK d   1       3.332  -1.317   1.066  0.00  0.00     0.031 A 
ATOM      4  C   UNK d   1       2.236  -1.868   0.403  0.00  0.00     0.019 A 
ATOM      5  C   UNK d   1       2.307  -3.163  -0.046  0.00  0.00     0.044 A 
ATOM      6  C   UNK d   1       3.463  -3.897   0.166  0.00  0.00     0.031 A 
ATOM      7  C   UNK d   1       4.549  -3.319   0.834  0.00  0.00     0.021 A 
ATOM      8  N   UNK d   1       1.086  -3.525  -0.698  0.00  0.00    -0.324 N 
ATOM      9  C   UNK d   1       0.213  -2.409  -0.655  0.00  0.00     0.267 A 
ATOM     10  O   UNK d   1      -0.929  -2.414  -1.154  0.00  0.00    -0.270 OA
ATOM     11  C   UNK d   1       0.891  -1.331   0.047  0.00  0.00     0.279 A 
ATOM     12  N   UNK d   1       1.015  -0.215  -0.890  0.00  0.00     0.114 N 
ATOM     13  C   UNK d   1       0.800   0.969  -0.113  0.00  0.00     0.245 C 
ATOM     14  C   UNK d   1      -0.248   0.571   0.861  0.00  0.00     0.128 C 
ATOM     15  C   UNK d   1       0.191  -0.816   1.269  0.00  0.00     0.147 C 
ATOM     16  C   UNK d   1      -1.042  -1.501   1.632  0.00  0.00     0.235 C 
ATOM     17  O   UNK d   1      -1.127  -2.548   2.309  0.00  0.00    -0.272 OA
ATOM     18  N   UNK d   1      -2.127  -0.767   1.078  0.00  0.00    -0.286 N 
ATOM     19  C   UNK d   1      -1.587   0.311   0.277  0.00  0.00     0.233 C 
ATOM     20  O   UNK d   1      -2.211   0.822  -0.667  0.00  0.00    -0.272 OA
ATOM     21  H   UNK d   1       0.897  -4.473  -1.128  0.00  0.00     0.169 HD
ATOM     22  H   UNK d   1       0.261  -0.264  -1.616  0.00  0.00     0.318 HD
ENDROOT
BRANCH  13  23
ATOM     23  C   UNK d   1       0.491   2.177  -0.929  0.00  0.00     0.139 C 
BRANCH  23  24
ATOM     24  C   UNK d   1       1.604   2.460  -1.842  0.00  0.00     0.217 C 
ATOM     25  O   UNK d   1       2.621   1.710  -1.839  0.00  0.00    -0.274 OA
ATOM     26  N   UNK d   1       1.554   3.571  -2.735  0.00  0.00    -0.370 N 
ATOM     27  H   UNK d   1       2.051   3.533  -3.648  0.00  0.00     0.159 HD
ATOM     28  H   UNK d   1       1.016   4.420  -2.466  0.00  0.00     0.159 HD
ENDBRANCH  23  24
ENDBRANCH  13  23
BRANCH  18  29
ATOM     29  C   UNK d   1      -3.510  -1.074   1.302  0.00  0.00     0.161 C 
BRANCH  29  30
ATOM     30  C   UNK d   1      -4.120  -2.026   0.328  0.00  0.00     0.187 C 
BRANCH  30  31
ATOM     31  O   UNK d   1      -3.501  -3.265   0.311  0.00  0.00    -0.394 OA
ATOM     32  C   UNK d   1      -4.096  -4.125  -0.609  0.00  0.00     0.201 C 
ENDBRANCH  30  31
ENDBRANCH  29  30
ENDBRANCH  18  29
TORSDOF 5
