REMARK  0 active torsions:
REMARK  status: ('A' for Active; 'I' for Inactive)
ROOT
ATOM      1 Br   UNK d   1       4.243  -4.413   0.103  0.00  0.00    -0.051 Br
ATOM      2  C   UNK d   1       3.066  -3.151   0.911  0.00  0.00     0.012 A 
ATOM      3  C   UNK d   1       2.012  -2.687   0.179  0.00  0.00     0.038 A 
ATOM      4  C   UNK d   1       1.141  -1.769   0.741  0.00  0.00     0.062 A 
ATOM      5  C   UNK d   1       1.337  -1.322   2.042  0.00  0.00     0.078 A 
ATOM      6  C   UNK d   1       2.398  -1.782   2.795  0.00  0.00     0.034 A 
ATOM      7  C   UNK d   1       3.238  -2.693   2.195  0.00  0.00     0.021 A 
ATOM      8  N   UNK d   1       0.516  -0.391   2.718  0.00  0.00    -0.195 N 
ATOM      9  N   UNK d   1       0.483  -0.343   4.055  0.00  0.00    -0.039 NA
ATOM     10  N   UNK d   1      -0.358   0.608   4.359  0.00  0.00    -0.023 NA
ATOM     11  N   UNK d   1      -0.852   1.157   3.261  0.00  0.00    -0.111 NA
ATOM     12  C   UNK d   1      -0.291   0.516   2.195  0.00  0.00     0.182 A 
ATOM     13  C   UNK d   1      -0.632   0.891   0.779  0.00  0.00     0.102 C 
ATOM     14  N   UNK d   1      -0.802  -0.303  -0.045  0.00  0.00    -0.340 N 
ATOM     15  C   UNK d   1       0.084  -1.404  -0.210  0.00  0.00     0.255 C 
ATOM     16  O   UNK d   1      -0.043  -2.119  -1.243  0.00  0.00    -0.268 OA
ATOM     17  C   UNK d   1       0.575   1.607   0.236  0.00  0.00     0.076 C 
ATOM     18  C   UNK d   1       0.182   2.437  -0.942  0.00  0.00     0.056 C 
ATOM     19  O   UNK d   1      -0.700   3.385  -0.495  0.00  0.00    -0.381 OA
ATOM     20  C   UNK d   1      -1.904   2.910  -0.050  0.00  0.00     0.171 C 
ATOM     21  C   UNK d   1      -1.882   1.692   0.769  0.00  0.00     0.066 C 
ATOM     22  C   UNK d   1       1.413   3.188  -1.465  0.00  0.00     0.045 C 
ATOM     23  C   UNK d   1      -0.340   1.628  -2.099  0.00  0.00     0.045 C 
ATOM     24  H   UNK d   1      -1.704  -0.378  -0.606  0.00  0.00     0.164 HD
ENDROOT
TORSDOF 0
