REMARK  0 active torsions:
REMARK  status: ('A' for Active; 'I' for Inactive)
ROOT
ATOM      1 Br   UNK d   1       6.094  -0.047   3.945  0.00  0.00    -0.051 Br
ATOM      2  C   UNK d   1       4.868   0.071   2.472  0.00  0.00     0.012 A 
ATOM      3  C   UNK d   1       3.600  -0.460   2.575  0.00  0.00     0.038 A 
ATOM      4  C   UNK d   1       2.723  -0.372   1.514  0.00  0.00     0.061 A 
ATOM      5  C   UNK d   1       3.054   0.236   0.318  0.00  0.00     0.072 A 
ATOM      6  C   UNK d   1       4.339   0.766   0.231  0.00  0.00     0.034 A 
ATOM      7  C   UNK d   1       5.221   0.683   1.288  0.00  0.00     0.021 A 
ATOM      8  N   UNK d   1       2.287   0.409  -0.851  0.00  0.00    -0.218 N 
ATOM      9  N   UNK d   1       2.801   0.775  -2.014  0.00  0.00     0.032 NA
ATOM     10  N   UNK d   1       1.810   0.843  -2.889  0.00  0.00    -0.052 NA
ATOM     11  N   UNK d   1       0.692   0.524  -2.282  0.00  0.00    -0.116 NA
ATOM     12  C   UNK d   1       0.955   0.241  -0.982  0.00  0.00     0.176 A 
ATOM     13  C   UNK d   1      -0.123  -0.146  -0.070  0.00  0.00     0.100 C 
ATOM     14  N   UNK d   1       0.233  -0.987   1.020  0.00  0.00    -0.340 N 
ATOM     15  C   UNK d   1       1.423  -0.986   1.792  0.00  0.00     0.255 C 
ATOM     16  O   UNK d   1       1.424  -1.590   2.898  0.00  0.00    -0.268 OA
ATOM     17  C   UNK d   1      -0.813   1.084   0.540  0.00  0.00     0.069 C 
ATOM     18  C   UNK d   1      -2.273   0.768   0.744  0.00  0.00     0.275 C 
ATOM     19  N   UNK d   1      -2.922   0.864  -0.544  0.00  0.00     0.084 N 
ATOM     20  C   UNK d   1      -2.154   0.128  -1.513  0.00  0.00     0.275 C 
ATOM     21  C   UNK d   1      -1.196  -0.856  -0.888  0.00  0.00     0.069 C 
ATOM     22  C   UNK d   1      -3.012   2.282  -0.889  0.00  0.00     0.309 C 
ATOM     23  H   UNK d   1      -0.479  -1.698   1.285  0.00  0.00     0.164 HD
ENDROOT
TORSDOF 0
