REMARK  1 active torsions:
REMARK  status: ('A' for Active; 'I' for Inactive)
REMARK    1  A    between atoms: C_9  and  N_23 
ROOT
ATOM      1 Br   UNK d   1       4.647   0.353  -1.437  0.00  0.00    -0.051 Br
ATOM      2  C   UNK d   1       2.750   0.369  -1.528  0.00  0.00     0.011 A 
ATOM      3  C   UNK d   1       2.034   0.566  -0.380  0.00  0.00     0.031 A 
ATOM      4  C   UNK d   1       0.637   0.577  -0.448  0.00  0.00     0.005 A 
ATOM      5  C   UNK d   1       0.038   0.393  -1.650  0.00  0.00     0.086 A 
ATOM      6  C   UNK d   1       0.780   0.190  -2.832  0.00  0.00     0.039 A 
ATOM      7  C   UNK d   1       2.152   0.179  -2.761  0.00  0.00     0.022 A 
ATOM      8  O   UNK d   1      -1.340   0.396  -1.770  0.00  0.00    -0.292 OA
ATOM      9  C   UNK d   1      -2.100   0.591  -0.637  0.00  0.00     0.160 A 
ATOM     10  C   UNK d   1      -1.592   0.776   0.558  0.00  0.00     0.100 A 
ATOM     11  C   UNK d   1      -0.153   0.789   0.783  0.00  0.00     0.145 A 
ATOM     12  C   UNK d   1       0.269  -0.135   1.863  0.00  0.00     0.041 A 
ATOM     13  C   UNK d   1       0.813   0.602   2.878  0.00  0.00     0.160 A 
ATOM     14  N   UNK d   1       1.200  -0.252   3.871  0.00  0.00    -0.156 NA
ATOM     15  N   UNK d   1       0.894  -1.469   3.458  0.00  0.00    -0.280 N 
ATOM     16  C   UNK d   1       0.327  -1.446   2.245  0.00  0.00     0.036 A 
ATOM     17  C   UNK d   1      -0.131  -2.662   1.507  0.00  0.00     0.070 C 
ATOM     18  N   UNK d   1       0.796   1.980   2.573  0.00  0.00    -0.308 N 
ATOM     19  C   UNK d   1       0.214   2.124   1.303  0.00  0.00     0.247 A 
ATOM     20  O   UNK d   1       0.018   3.198   0.674  0.00  0.00    -0.271 OA
ATOM     21  C   UNK d   1      -2.455   0.974   1.698  0.00  0.00     0.101 C 
ATOM     22  N   UNK d   1      -3.142   1.152   2.613  0.00  0.00    -0.191 NA
ATOM     23  H   UNK d   1       1.094  -2.318   4.051  0.00  0.00     0.189 HD
ATOM     24  H   UNK d   1       1.168   2.758   3.213  0.00  0.00     0.170 HD
ENDROOT
BRANCH   9  25
ATOM     25  N   UNK d   1      -3.530   0.591  -0.778  0.00  0.00    -0.379 N 
ATOM     26  H   UNK d   1      -3.968   0.079  -1.574  0.00  0.00     0.158 HD
ATOM     27  H   UNK d   1      -4.158   1.089  -0.108  0.00  0.00     0.158 HD
ENDBRANCH   9  25
TORSDOF 1
