# created with PyMOL 2.3.2
@<TRIPOS>MOLECULE
592
33 36 1                 
SMALL
USER_CHARGES
@<TRIPOS>ATOM
1	  Br	4.647	0.353	-1.437	Br	1	UNK0	0.000	
2	   C	2.750	0.369	-1.528	C.2	1	UNK0	0.000	
3	   C	2.034	0.566	-0.380	C.2	1	UNK0	0.000	
4	   C	0.637	0.577	-0.448	C.2	1	UNK0	0.000	
5	   C	0.038	0.393	-1.650	C.2	1	UNK0	0.000	
6	   C	0.780	0.190	-2.832	C.2	1	UNK0	0.000	
7	   C	2.152	0.179	-2.761	C.2	1	UNK0	0.000	
8	   O	-1.340	0.396	-1.770	O.3	1	UNK0	0.000	
9	   C	-2.100	0.591	-0.637	C.2	1	UNK0	0.000	
10	   C	-1.592	0.776	0.558	C.2	1	UNK0	0.000	
11	   C	-0.153	0.789	0.783	C.3	1	UNK0	0.000	
12	   C	0.269	-0.135	1.863	C.2	1	UNK0	0.000	
13	   C	0.813	0.602	2.878	C.2	1	UNK0	0.000	
14	   N	1.200	-0.252	3.871	N.2	1	UNK0	0.000	
15	   N	0.894	-1.469	3.458	N.pl3	1	UNK0	0.000	
16	   C	0.327	-1.446	2.245	C.2	1	UNK0	0.000	
17	   C	-0.131	-2.662	1.507	C.3	1	UNK0	0.000	
18	   N	0.796	1.980	2.573	N.pl3	1	UNK0	0.000	
19	   C	0.214	2.124	1.303	C.2	1	UNK0	0.000	
20	   O	0.018	3.198	0.674	O.2	1	UNK0	0.000	
21	   C	-2.455	0.974	1.698	C.1	1	UNK0	0.000	
22	   N	-3.142	1.152	2.613	N.1	1	UNK0	0.000	
23	   N	-3.530	0.591	-0.778	N.pl3	1	UNK0	0.000	
24	   H	2.466	0.717	0.596	 H	1	UNK0	0.000	
25	   H	0.272	0.045	-3.781	 H	1	UNK0	0.000	
26	   H	2.784	0.030	-3.625	 H	1	UNK0	0.000	
27	   H	1.094	-2.318	4.051	 H	1	UNK0	0.000	
28	   H	-0.508	-2.389	0.517	 H	1	UNK0	0.000	
29	   H	-0.901	-3.184	2.127	 H	1	UNK0	0.000	
30	   H	0.700	-3.401	1.381	 H	1	UNK0	0.000	
31	   H	1.168	2.758	3.213	 H	1	UNK0	0.000	
32	   H	-3.968	0.079	-1.574	 H	1	UNK0	0.000	
33	   H	-4.158	1.089	-0.108	 H	1	UNK0	0.000	
@<TRIPOS>BOND
1 1 2 1
2 2 3 2
3 2 7 1
4 3 4 1
5 4 5 2
6 4 11 1
7 5 6 1
8 5 8 1
9 6 7 2
10 8 9 1
11 9 10 2
12 9 23 1
13 10 11 1
14 10 21 1
15 11 12 1
16 11 19 1
17 12 13 1
18 12 16 2
19 13 14 2
20 13 18 1
21 14 15 1
22 15 16 1
23 16 17 1
24 18 19 1
25 19 20 2
26 21 22 3
27 3 24 1
28 6 25 1
29 7 26 1
30 15 27 1
31 17 28 1
32 17 29 1
33 17 30 1
34 18 31 1
35 23 32 1
36 23 33 1
@<TRIPOS>SUBSTRUCTURE
1	UNK0	1	GROUP	1 ****	UNK
