REMARK  3 active torsions:
REMARK  status: ('A' for Active; 'I' for Inactive)
REMARK    1  A    between atoms: C_11  and  C_13 
REMARK    2  A    between atoms: C_23  and  C_24 
REMARK    3  A    between atoms: C_24  and  N_25 
ROOT
ATOM      1  C   UNK d   1       0.391   1.378  -0.417  0.00  0.00    -0.001 A 
ATOM      2  C   UNK d   1       0.129   2.052   0.765  0.00  0.00     0.096 A 
ATOM      3  C   UNK d   1      -0.299   1.363   1.880  0.00  0.00     0.289 A 
ATOM      4  O   UNK d   1      -0.521   2.051   2.926  0.00  0.00    -0.260 OA
ATOM      5  O   UNK d   1      -0.461   0.076   1.844  0.00  0.00    -0.274 OA
ATOM      6  C   UNK d   1      -0.236  -0.605   0.787  0.00  0.00     0.101 A 
ATOM      7  C   UNK d   1       0.203   0.018  -0.397  0.00  0.00     0.010 A 
ATOM      8  C   UNK d   1       0.447  -0.737  -1.507  0.00  0.00     0.018 A 
ATOM      9  C   UNK d   1       0.241  -2.118  -1.417  0.00  0.00     0.041 A 
ATOM     10  C   UNK d   1      -0.194  -2.698  -0.242  0.00  0.00     0.118 A 
ATOM     11  C   UNK d   1      -0.447  -1.967   0.897  0.00  0.00     0.039 A 
ATOM     12  O   UNK d   1      -0.375  -4.098  -0.260  0.00  0.00    -0.191 OA
ENDROOT
BRANCH   1  13
ATOM     13  C   UNK d   1       0.787   2.100  -1.625  0.00  0.00     0.052 A 
ATOM     14  C   UNK d   1       1.849   2.979  -1.607  0.00  0.00     0.299 A 
ATOM     15  O   UNK d   1       2.177   3.636  -2.663  0.00  0.00    -0.274 OA
ATOM     16  O   UNK d   1       2.458   3.082  -0.497  0.00  0.00    -0.259 OA
ATOM     17  C   UNK d   1       1.533   3.520  -3.826  0.00  0.00     0.089 A 
ATOM     18  C   UNK d   1       0.461   2.655  -3.910  0.00  0.00     0.000 A 
ATOM     19  C   UNK d   1       1.949   4.267  -4.918  0.00  0.00     0.039 A 
ATOM     20  C   UNK d   1      -0.188   2.555  -5.127  0.00  0.00     0.033 A 
ATOM     21  C   UNK d   1       0.086   1.942  -2.799  0.00  0.00     0.032 A 
ATOM     22  C   UNK d   1       0.181   3.273  -6.250  0.00  0.00     0.011 A 
ATOM     23 Br   UNK d   1      -0.739   3.080  -7.895  0.00  0.00    -0.051 Br
ATOM     24  C   UNK d   1       1.275   4.139  -6.110  0.00  0.00     0.022 A 
ENDBRANCH   1  13
BRANCH  11  25
ATOM     25  C   UNK d   1      -0.993  -2.629   2.051  0.00  0.00     0.278 C 
BRANCH  25  26
ATOM     26  N   UNK d   1      -0.518  -2.451   3.362  0.00  0.00    -0.075 N 
ATOM     27  C   UNK d   1       0.885  -2.192   3.532  0.00  0.00     0.269 C 
ATOM     28  C   UNK d   1      -1.369  -1.522   4.149  0.00  0.00     0.269 C 
ATOM     29  H   UNK d   1      -0.656  -3.374   3.867  0.00  0.00     0.279 HD
ENDBRANCH  25  26
ENDBRANCH  11  25
TORSDOF 3
