# created with PyMOL 2.3.2
@<TRIPOS>MOLECULE
610
51 54 1                 
SMALL
USER_CHARGES
@<TRIPOS>ATOM
1	  Br	-1.039	-1.610	-6.563	Br	1	UNK0	0.000	
2	   C	-0.686	-0.482	-5.065	C.2	1	UNK0	0.000	
3	   C	-0.058	-0.985	-3.929	C.2	1	UNK0	0.000	
4	   C	0.200	-0.165	-2.839	C.2	1	UNK0	0.000	
5	   C	-0.167	1.163	-2.874	C.2	1	UNK0	0.000	
6	   N	0.088	1.967	-1.811	N.2	1	UNK0	0.000	
7	   C	0.697	1.506	-0.704	C.2	1	UNK0	0.000	
8	   N	1.046	0.214	-0.688	N.2	1	UNK0	0.000	
9	   C	0.824	-0.640	-1.704	C.2	1	UNK0	0.000	
10	   C	1.244	-2.027	-1.586	C.2	1	UNK0	0.000	
11	   C	2.571	-2.339	-1.324	C.2	1	UNK0	0.000	
12	   C	3.004	-3.641	-1.192	C.2	1	UNK0	0.000	
13	   C	2.126	-4.698	-1.315	C.2	1	UNK0	0.000	
14	   C	0.798	-4.384	-1.577	C.2	1	UNK0	0.000	
15	   C	0.374	-3.080	-1.708	C.2	1	UNK0	0.000	
16	  Cl	3.718	-1.007	-1.162	Cl	1	UNK0	0.000	
17	   N	0.952	2.386	0.398	N.4	1	UNK0	0.000	
18	   C	1.611	1.671	1.457	C.3	1	UNK0	0.000	
19	   C	0.720	0.766	2.238	C.3	1	UNK0	0.000	
20	   N	-0.682	1.014	1.985	N.pl3	1	UNK0	0.000	
21	   C	-1.076	2.394	1.804	C.3	1	UNK0	0.000	
22	   C	-0.205	3.113	0.821	C.3	1	UNK0	0.000	
23	   C	-1.569	-0.088	1.931	C.2	1	UNK0	0.000	
24	   O	-1.154	-1.256	2.097	O.2	1	UNK0	0.000	
25	   C	-3.004	0.224	1.669	C.3	1	UNK0	0.000	
26	   C	-3.841	-1.019	1.640	C.3	1	UNK0	0.000	
27	   C	-3.429	-1.974	0.600	C.2	1	UNK0	0.000	
28	   O	-2.469	-1.736	-0.162	O.co2	1	UNK0	0.000	
29	   O	-4.117	-3.162	0.462	O.co2	1	UNK0	0.000	
30	   C	-0.793	1.641	-4.018	C.2	1	UNK0	0.000	
31	   C	-1.058	0.845	-5.111	C.2	1	UNK0	0.000	
32	   H	0.232	-2.009	-3.900	 H	1	UNK0	0.000	
33	   H	4.038	-3.883	-0.989	 H	1	UNK0	0.000	
34	   H	2.458	-5.726	-1.212	 H	1	UNK0	0.000	
35	   H	0.094	-5.196	-1.678	 H	1	UNK0	0.000	
36	   H	-0.669	-2.910	-1.905	 H	1	UNK0	0.000	
37	   H	1.674	3.072	0.024	 H	1	UNK0	0.000	
38	   H	2.455	1.108	1.018	 H	1	UNK0	0.000	
39	   H	2.053	2.445	2.136	 H	1	UNK0	0.000	
40	   H	0.871	0.954	3.338	 H	1	UNK0	0.000	
41	   H	1.005	-0.285	2.034	 H	1	UNK0	0.000	
42	   H	-2.148	2.491	1.534	 H	1	UNK0	0.000	
43	   H	-0.905	2.877	2.811	 H	1	UNK0	0.000	
44	   H	0.160	4.083	1.256	 H	1	UNK0	0.000	
45	   H	-0.793	3.375	-0.090	 H	1	UNK0	0.000	
46	   H	-3.372	0.862	2.499	 H	1	UNK0	0.000	
47	   H	-3.132	0.811	0.737	 H	1	UNK0	0.000	
48	   H	-4.891	-0.710	1.408	 H	1	UNK0	0.000	
49	   H	-3.861	-1.493	2.642	 H	1	UNK0	0.000	
50	   H	-1.080	2.668	-4.048	 H	1	UNK0	0.000	
51	   H	-1.545	1.199	-6.011	 H	1	UNK0	0.000	
@<TRIPOS>BOND
1 1 2 1
2 2 3 2
3 2 31 1
4 3 4 1
5 4 5 2
6 4 9 1
7 5 6 1
8 5 30 1
9 6 7 2
10 7 8 1
11 7 17 1
12 8 9 2
13 9 10 1
14 10 11 2
15 10 15 1
16 11 12 1
17 11 16 1
18 12 13 2
19 13 14 1
20 14 15 2
21 17 18 1
22 17 22 1
23 18 19 1
24 19 20 1
25 20 21 1
26 20 23 1
27 21 22 1
28 23 24 2
29 23 25 1
30 25 26 1
31 26 27 1
32 27 28 2
33 27 29 1
34 30 31 2
35 3 32 1
36 12 33 1
37 13 34 1
38 14 35 1
39 15 36 1
40 17 37 1
41 18 38 1
42 18 39 1
43 19 40 1
44 19 41 1
45 21 42 1
46 21 43 1
47 22 44 1
48 22 45 1
49 25 46 1
50 25 47 1
51 26 48 1
52 26 49 1
53 30 50 1
54 31 51 1
@<TRIPOS>SUBSTRUCTURE
1	UNK0	1	GROUP	1 ****	UNK
