REMARK  5 active torsions:
REMARK  status: ('A' for Active; 'I' for Inactive)
REMARK    1  A    between atoms: C_7  and  N_17 
REMARK    2  A    between atoms: C_9  and  C_10 
REMARK       I    between atoms: N_20  and  C_23 
REMARK    3  A    between atoms: C_23  and  C_25 
REMARK    4  A    between atoms: C_25  and  C_26 
REMARK    5  A    between atoms: C_26  and  C_27 
ROOT
ATOM      1 Br   UNK d   1      -1.039  -1.610  -6.563  0.00  0.00    -0.051 Br
ATOM      2  C   UNK d   1      -0.686  -0.482  -5.065  0.00  0.00     0.011 A 
ATOM      3  C   UNK d   1      -0.058  -0.985  -3.929  0.00  0.00     0.035 A 
ATOM      4  C   UNK d   1       0.200  -0.165  -2.839  0.00  0.00     0.024 A 
ATOM      5  C   UNK d   1      -0.167   1.163  -2.874  0.00  0.00     0.073 A 
ATOM      6  N   UNK d   1       0.088   1.967  -1.811  0.00  0.00    -0.207 NA
ATOM      7  C   UNK d   1       0.697   1.506  -0.704  0.00  0.00     0.327 A 
ATOM      8  N   UNK d   1       1.046   0.214  -0.688  0.00  0.00    -0.206 NA
ATOM      9  C   UNK d   1       0.824  -0.640  -1.704  0.00  0.00     0.085 A 
ATOM     10  C   UNK d   1      -0.793   1.641  -4.018  0.00  0.00     0.034 A 
ATOM     11  C   UNK d   1      -1.058   0.845  -5.111  0.00  0.00     0.021 A 
ENDROOT
BRANCH   7  12
ATOM     12  N   UNK d   1       0.952   2.386   0.398  0.00  0.00    -0.004 N 
ATOM     13  C   UNK d   1       1.611   1.671   1.457  0.00  0.00     0.265 C 
ATOM     14  C   UNK d   1       0.720   0.766   2.238  0.00  0.00     0.154 C 
ATOM     15  N   UNK d   1      -0.682   1.014   1.985  0.00  0.00    -0.349 N 
ATOM     16  C   UNK d   1      -1.076   2.394   1.804  0.00  0.00     0.154 C 
ATOM     17  C   UNK d   1      -1.569  -0.088   1.931  0.00  0.00     0.220 C 
ATOM     18  C   UNK d   1      -0.205   3.113   0.821  0.00  0.00     0.265 C 
ATOM     19  O   UNK d   1      -1.154  -1.256   2.097  0.00  0.00    -0.273 OA
ATOM     20  H   UNK d   1       1.674   3.072   0.024  0.00  0.00     0.290 HD
BRANCH  17  21
ATOM     21  C   UNK d   1      -3.004   0.224   1.669  0.00  0.00     0.113 C 
BRANCH  21  22
ATOM     22  C   UNK d   1      -3.841  -1.019   1.640  0.00  0.00     0.122 C 
BRANCH  22  23
ATOM     23  C   UNK d   1      -3.429  -1.974   0.600  0.00  0.00     0.172 C 
ATOM     24  O   UNK d   1      -2.469  -1.736  -0.162  0.00  0.00    -0.648 OA
ATOM     25  O   UNK d   1      -4.117  -3.162   0.462  0.00  0.00    -0.648 OA
ENDBRANCH  22  23
ENDBRANCH  21  22
ENDBRANCH  17  21
ENDBRANCH   7  12
BRANCH   9  26
ATOM     26  C   UNK d   1       1.244  -2.027  -1.586  0.00  0.00     0.015 A 
ATOM     27  C   UNK d   1       2.571  -2.339  -1.324  0.00  0.00     0.046 A 
ATOM     28  C   UNK d   1       3.004  -3.641  -1.192  0.00  0.00     0.025 A 
ATOM     29 Cl   UNK d   1       3.718  -1.007  -1.162  0.00  0.00    -0.083 Cl
ATOM     30  C   UNK d   1       2.126  -4.698  -1.315  0.00  0.00     0.002 A 
ATOM     31  C   UNK d   1       0.798  -4.384  -1.577  0.00  0.00     0.001 A 
ATOM     32  C   UNK d   1       0.374  -3.080  -1.708  0.00  0.00     0.015 A 
ENDBRANCH   9  26
TORSDOF 5
