# created with PyMOL 2.3.2
@<TRIPOS>MOLECULE
611
54 57 1                 
SMALL
USER_CHARGES
@<TRIPOS>ATOM
1	  Br	0.455	5.719	5.730	Br	1	UNK0	0.000	
2	   C	-0.098	4.362	4.502	C.2	1	UNK0	0.000	
3	   C	0.721	3.299	4.165	C.2	1	UNK0	0.000	
4	   C	0.352	2.306	3.284	C.2	1	UNK0	0.000	
5	   C	-0.896	2.347	2.690	C.2	1	UNK0	0.000	
6	   N	-1.276	1.384	1.814	N.2	1	UNK0	0.000	
7	   C	-0.477	0.356	1.482	C.2	1	UNK0	0.000	
8	   N	0.737	0.314	2.060	N.2	1	UNK0	0.000	
9	   C	1.164	1.250	2.940	C.2	1	UNK0	0.000	
10	   C	2.489	1.157	3.534	C.2	1	UNK0	0.000	
11	   C	3.638	1.121	2.759	C.2	1	UNK0	0.000	
12	   C	4.902	1.013	3.311	C.2	1	UNK0	0.000	
13	   C	4.993	0.940	4.706	C.2	1	UNK0	0.000	
14	   C	3.870	0.973	5.506	C.2	1	UNK0	0.000	
15	   C	2.649	1.079	4.920	C.2	1	UNK0	0.000	
16	  Cl	3.495	1.214	1.011	Cl	1	UNK0	0.000	
17	   N	-0.910	-0.637	0.559	N.4	1	UNK0	0.000	
18	   C	-2.250	-0.361	0.091	C.3	1	UNK0	0.000	
19	   C	-2.481	-1.132	-1.170	C.3	1	UNK0	0.000	
20	   N	-1.454	-2.147	-1.287	N.pl3	1	UNK0	0.000	
21	   C	-1.136	-2.911	-0.094	C.3	1	UNK0	0.000	
22	   C	-0.900	-1.973	1.096	C.3	1	UNK0	0.000	
23	   C	-0.825	-2.341	-2.528	C.2	1	UNK0	0.000	
24	   O	0.065	-3.224	-2.603	O.2	1	UNK0	0.000	
25	   C	-1.169	-1.557	-3.716	C.3	1	UNK0	0.000	
26	   C	-0.324	-1.993	-4.878	C.3	1	UNK0	0.000	
27	   C	-0.629	-1.220	-6.142	C.3	1	UNK0	0.000	
28	   C	-2.030	-1.363	-6.585	C.2	1	UNK0	0.000	
29	   O	-2.891	-0.653	-6.014	O.co2	1	UNK0	0.000	
30	   O	-2.352	-2.256	-7.596	O.co2	1	UNK0	0.000	
31	   C	-1.719	3.401	3.020	C.2	1	UNK0	0.000	
32	   C	-1.341	4.400	3.909	C.2	1	UNK0	0.000	
33	   H	1.696	3.289	4.630	 H	1	UNK0	0.000	
34	   H	5.800	0.986	2.700	 H	1	UNK0	0.000	
35	   H	5.996	0.854	5.137	 H	1	UNK0	0.000	
36	   H	3.954	0.917	6.597	 H	1	UNK0	0.000	
37	   H	1.766	1.100	5.541	 H	1	UNK0	0.000	
38	   H	-0.251	-0.614	-0.247	 H	1	UNK0	0.000	
39	   H	-2.317	0.735	-0.068	 H	1	UNK0	0.000	
40	   H	-2.948	-0.632	0.911	 H	1	UNK0	0.000	
41	   H	-2.446	-0.414	-2.016	 H	1	UNK0	0.000	
42	   H	-3.491	-1.594	-1.168	 H	1	UNK0	0.000	
43	   H	-2.042	-3.503	0.152	 H	1	UNK0	0.000	
44	   H	-0.315	-3.617	-0.234	 H	1	UNK0	0.000	
45	   H	-1.638	-2.129	1.890	 H	1	UNK0	0.000	
46	   H	0.088	-2.230	1.499	 H	1	UNK0	0.000	
47	   H	-2.240	-1.709	-4.036	 H	1	UNK0	0.000	
48	   H	-1.089	-0.465	-3.538	 H	1	UNK0	0.000	
49	   H	0.765	-1.825	-4.675	 H	1	UNK0	0.000	
50	   H	-0.433	-3.067	-5.085	 H	1	UNK0	0.000	
51	   H	0.027	-1.621	-6.939	 H	1	UNK0	0.000	
52	   H	-0.346	-0.147	-5.990	 H	1	UNK0	0.000	
53	   H	-2.697	3.435	2.556	 H	1	UNK0	0.000	
54	   H	-1.978	5.228	4.175	 H	1	UNK0	0.000	
@<TRIPOS>BOND
1 1 2 1
2 2 3 2
3 2 32 1
4 3 4 1
5 4 5 2
6 4 9 1
7 5 6 1
8 5 31 1
9 6 7 2
10 7 8 1
11 7 17 1
12 8 9 2
13 9 10 1
14 10 11 2
15 10 15 1
16 11 12 1
17 11 16 1
18 12 13 2
19 13 14 1
20 14 15 2
21 17 18 1
22 17 22 1
23 18 19 1
24 19 20 1
25 20 21 1
26 20 23 1
27 21 22 1
28 23 24 2
29 23 25 1
30 25 26 1
31 26 27 1
32 27 28 1
33 28 29 2
34 28 30 1
35 31 32 2
36 3 33 1
37 12 34 1
38 13 35 1
39 14 36 1
40 15 37 1
41 17 38 1
42 18 39 1
43 18 40 1
44 19 41 1
45 19 42 1
46 21 43 1
47 21 44 1
48 22 45 1
49 22 46 1
50 25 47 1
51 25 48 1
52 26 49 1
53 26 50 1
54 27 51 1
55 27 52 1
56 31 53 1
57 32 54 1
@<TRIPOS>SUBSTRUCTURE
1	UNK0	1	GROUP	1 ****	UNK
