REMARK  6 active torsions:
REMARK  status: ('A' for Active; 'I' for Inactive)
REMARK    1  A    between atoms: C_7  and  N_17 
REMARK    2  A    between atoms: C_9  and  C_10 
REMARK       I    between atoms: N_20  and  C_23 
REMARK    3  A    between atoms: C_23  and  C_25 
REMARK    4  A    between atoms: C_25  and  C_26 
REMARK    5  A    between atoms: C_26  and  C_27 
REMARK    6  A    between atoms: C_27  and  C_28 
ROOT
ATOM      1 Br   UNK d   1       0.455   5.719   5.730  0.00  0.00    -0.051 Br
ATOM      2  C   UNK d   1      -0.098   4.362   4.502  0.00  0.00     0.011 A 
ATOM      3  C   UNK d   1       0.721   3.299   4.165  0.00  0.00     0.035 A 
ATOM      4  C   UNK d   1       0.352   2.306   3.284  0.00  0.00     0.024 A 
ATOM      5  C   UNK d   1      -0.896   2.347   2.690  0.00  0.00     0.073 A 
ATOM      6  N   UNK d   1      -1.276   1.384   1.814  0.00  0.00    -0.207 NA
ATOM      7  C   UNK d   1      -0.477   0.356   1.482  0.00  0.00     0.327 A 
ATOM      8  N   UNK d   1       0.737   0.314   2.060  0.00  0.00    -0.206 NA
ATOM      9  C   UNK d   1       1.164   1.250   2.940  0.00  0.00     0.085 A 
ATOM     10  C   UNK d   1      -1.719   3.401   3.020  0.00  0.00     0.034 A 
ATOM     11  C   UNK d   1      -1.341   4.400   3.909  0.00  0.00     0.021 A 
ENDROOT
BRANCH   7  12
ATOM     12  N   UNK d   1      -0.910  -0.637   0.559  0.00  0.00    -0.004 N 
ATOM     13  C   UNK d   1      -2.250  -0.361   0.091  0.00  0.00     0.265 C 
ATOM     14  C   UNK d   1      -2.481  -1.132  -1.170  0.00  0.00     0.154 C 
ATOM     15  N   UNK d   1      -1.454  -2.147  -1.287  0.00  0.00    -0.349 N 
ATOM     16  C   UNK d   1      -1.136  -2.911  -0.094  0.00  0.00     0.154 C 
ATOM     17  C   UNK d   1      -0.825  -2.341  -2.528  0.00  0.00     0.219 C 
ATOM     18  C   UNK d   1      -0.900  -1.973   1.096  0.00  0.00     0.265 C 
ATOM     19  O   UNK d   1       0.065  -3.224  -2.603  0.00  0.00    -0.273 OA
ATOM     20  H   UNK d   1      -0.251  -0.614  -0.247  0.00  0.00     0.290 HD
BRANCH  17  21
ATOM     21  C   UNK d   1      -1.169  -1.557  -3.716  0.00  0.00     0.103 C 
BRANCH  21  22
ATOM     22  C   UNK d   1      -0.324  -1.993  -4.878  0.00  0.00     0.020 C 
BRANCH  22  23
ATOM     23  C   UNK d   1      -0.629  -1.220  -6.142  0.00  0.00     0.113 C 
BRANCH  23  24
ATOM     24  C   UNK d   1      -2.030  -1.363  -6.585  0.00  0.00     0.172 C 
ATOM     25  O   UNK d   1      -2.891  -0.653  -6.014  0.00  0.00    -0.648 OA
ATOM     26  O   UNK d   1      -2.352  -2.256  -7.596  0.00  0.00    -0.648 OA
ENDBRANCH  23  24
ENDBRANCH  22  23
ENDBRANCH  21  22
ENDBRANCH  17  21
ENDBRANCH   7  12
BRANCH   9  27
ATOM     27  C   UNK d   1       2.489   1.157   3.534  0.00  0.00     0.015 A 
ATOM     28  C   UNK d   1       3.638   1.121   2.759  0.00  0.00     0.046 A 
ATOM     29  C   UNK d   1       4.902   1.013   3.311  0.00  0.00     0.025 A 
ATOM     30 Cl   UNK d   1       3.495   1.214   1.011  0.00  0.00    -0.083 Cl
ATOM     31  C   UNK d   1       4.993   0.940   4.706  0.00  0.00     0.002 A 
ATOM     32  C   UNK d   1       3.870   0.973   5.506  0.00  0.00     0.001 A 
ATOM     33  C   UNK d   1       2.649   1.079   4.920  0.00  0.00     0.015 A 
ENDBRANCH   9  27
TORSDOF 6
