REMARK  3 active torsions:
REMARK  status: ('A' for Active; 'I' for Inactive)
REMARK    1  A    between atoms: C_7  and  C_9 
REMARK       I    between atoms: C_9  and  N_11 
REMARK       I    between atoms: N_14  and  C_17 
REMARK    2  A    between atoms: C_17  and  C_19 
REMARK    3  A    between atoms: C_19  and  N_20 
ROOT
ATOM      1  C   UNK d   1       0.071   2.531  -0.974  0.00  0.00     0.270 C 
ATOM      2  O   UNK d   1       1.077   3.289  -1.251  0.00  0.00    -0.266 OA
ATOM      3  N   UNK d   1       0.161   1.820   0.223  0.00  0.00    -0.344 N 
ATOM      4  C   UNK d   1      -0.814   0.902   0.747  0.00  0.00     0.146 C 
ATOM      5  C   UNK d   1      -0.354   0.257   2.061  0.00  0.00     0.145 C 
ATOM      6  N   UNK d   1       1.008  -0.224   1.888  0.00  0.00    -0.348 N 
ATOM      7  C   UNK d   1       1.994   0.614   1.204  0.00  0.00     0.145 C 
ATOM      8  C   UNK d   1       1.358   2.002   1.087  0.00  0.00     0.146 C 
ATOM      9  C   UNK d   1       1.402  -1.493   2.366  0.00  0.00     0.248 C 
ATOM     10  O   UNK d   1       0.528  -2.185   2.941  0.00  0.00    -0.271 OA
ENDROOT
BRANCH   1  11
ATOM     11  C   UNK d   1      -1.036   2.486  -1.909  0.00  0.00     0.102 A 
ATOM     12  N   UNK d   1      -2.197   1.826  -1.891  0.00  0.00    -0.351 N 
ATOM     13  C   UNK d   1      -2.933   2.089  -3.015  0.00  0.00     0.043 A 
ATOM     14  H   UNK d   1      -2.555   1.193  -1.161  0.00  0.00     0.166 HD
ATOM     15  C   UNK d   1      -2.225   2.957  -3.800  0.00  0.00    -0.006 A 
ATOM     16  C   UNK d   1      -4.172   1.653  -3.445  0.00  0.00     0.031 A 
ATOM     17  C   UNK d   1      -2.761   3.387  -5.017  0.00  0.00     0.032 A 
ATOM     18  C   UNK d   1      -1.061   3.206  -3.130  0.00  0.00     0.049 A 
ATOM     19  C   UNK d   1      -3.989   2.959  -5.451  0.00  0.00     0.011 A 
ATOM     20 Br   UNK d   1      -4.734   3.542  -7.120  0.00  0.00    -0.051 Br
ATOM     21  C   UNK d   1      -4.696   2.085  -4.655  0.00  0.00     0.021 A 
ENDBRANCH   1  11
BRANCH   9  22
ATOM     22  C   UNK d   1       2.774  -1.935   2.173  0.00  0.00     0.374 C 
BRANCH  22  23
ATOM     23  N   UNK d   1       3.069  -3.256   2.682  0.00  0.00     0.101 N 
ATOM     24  C   UNK d   1       4.502  -3.516   2.527  0.00  0.00     0.299 C 
ATOM     25  C   UNK d   1       4.775  -4.296   1.288  0.00  0.00     0.198 C 
ATOM     26  O   UNK d   1       3.901  -3.925   0.269  0.00  0.00    -0.388 OA
ATOM     27  C   UNK d   1       2.598  -4.349   0.540  0.00  0.00     0.198 C 
ATOM     28  C   UNK d   1       2.305  -4.300   2.022  0.00  0.00     0.299 C 
ENDBRANCH  22  23
ENDBRANCH   9  22
TORSDOF 3
