REMARK  3 active torsions:
REMARK  status: ('A' for Active; 'I' for Inactive)
REMARK    1  A    between atoms: N_11  and  C_14 
REMARK    2  A    between atoms: C_14  and  C_15 
REMARK    3  A    between atoms: C_15  and  N_16 
ROOT
ATOM      1 Br   UNK d   1       6.067  -3.237   5.890  0.00  0.00    -0.051 Br
ATOM      2  C   UNK d   1       5.673  -2.398   4.229  0.00  0.00     0.011 A 
ATOM      3  C   UNK d   1       4.412  -1.913   3.950  0.00  0.00     0.035 A 
ATOM      4  C   UNK d   1       4.110  -1.302   2.750  0.00  0.00     0.023 A 
ATOM      5  C   UNK d   1       5.116  -1.182   1.810  0.00  0.00     0.045 A 
ATOM      6  N   UNK d   1       4.553  -0.561   0.758  0.00  0.00    -0.349 N 
ATOM      7  C   UNK d   1       3.246  -0.287   0.996  0.00  0.00     0.131 A 
ATOM      8  C   UNK d   1       2.946  -0.751   2.259  0.00  0.00     0.103 A 
ATOM      9  N   UNK d   1       1.690  -0.590   2.720  0.00  0.00    -0.240 NA
ATOM     10  C   UNK d   1       0.731   0.007   1.987  0.00  0.00     0.213 A 
ATOM     11  N   UNK d   1       0.994   0.468   0.757  0.00  0.00    -0.305 N 
ATOM     12  C   UNK d   1       2.238   0.317   0.279  0.00  0.00     0.277 A 
ATOM     13  O   UNK d   1       2.503   0.743  -0.873  0.00  0.00    -0.265 OA
ATOM     14  C   UNK d   1       6.375  -1.673   2.102  0.00  0.00     0.032 A 
ATOM     15  C   UNK d   1       6.686  -2.286   3.299  0.00  0.00     0.021 A 
ATOM     16  H   UNK d   1       5.031  -0.313  -0.128  0.00  0.00     0.166 HD
ENDROOT
BRANCH  11  17
ATOM     17  C   UNK d   1      -0.051   1.120  -0.051  0.00  0.00     0.152 C 
BRANCH  17  18
ATOM     18  C   UNK d   1      -0.774   0.119  -0.867  0.00  0.00     0.137 C 
BRANCH  18  19
ATOM     19  N   UNK d   1      -1.814   0.603  -1.700  0.00  0.00    -0.408 N 
ATOM     20  C   UNK d   1      -2.961   1.098  -1.021  0.00  0.00     0.147 C 
ATOM     21  C   UNK d   1      -4.069   0.091  -0.902  0.00  0.00     0.289 C 
ATOM     22  N   UNK d   1      -4.187  -0.747  -2.076  0.00  0.00     0.086 N 
ATOM     23  C   UNK d   1      -3.498  -0.160  -3.213  0.00  0.00     0.289 C 
ATOM     24  H   UNK d   1      -3.855  -1.723  -1.902  0.00  0.00     0.316 HD
ATOM     25  C   UNK d   1      -2.028  -0.168  -2.872  0.00  0.00     0.147 C 
ENDBRANCH  18  19
ENDBRANCH  17  18
ENDBRANCH  11  17
TORSDOF 3
