# created with PyMOL 2.3.2
@<TRIPOS>MOLECULE
617
41 44 1                 
SMALL
USER_CHARGES
@<TRIPOS>ATOM
1	  Br	6.067	-3.237	5.890	Br	1	UNK0	0.000	
2	   C	5.673	-2.398	4.229	C.2	1	UNK0	0.000	
3	   C	4.412	-1.913	3.950	C.2	1	UNK0	0.000	
4	   C	4.110	-1.302	2.750	C.2	1	UNK0	0.000	
5	   C	5.116	-1.182	1.810	C.2	1	UNK0	0.000	
6	   N	4.553	-0.561	0.758	N.pl3	1	UNK0	0.000	
7	   C	3.246	-0.287	0.996	C.2	1	UNK0	0.000	
8	   C	2.946	-0.751	2.259	C.2	1	UNK0	0.000	
9	   N	1.690	-0.590	2.720	N.2	1	UNK0	0.000	
10	   C	0.731	0.007	1.987	C.2	1	UNK0	0.000	
11	   N	0.994	0.468	0.757	N.pl3	1	UNK0	0.000	
12	   C	2.238	0.317	0.279	C.2	1	UNK0	0.000	
13	   O	2.503	0.743	-0.873	O.2	1	UNK0	0.000	
14	   C	-0.051	1.120	-0.051	C.3	1	UNK0	0.000	
15	   C	-0.774	0.119	-0.867	C.3	1	UNK0	0.000	
16	   N	-1.814	0.603	-1.700	N.3	1	UNK0	0.000	
17	   C	-2.961	1.098	-1.021	C.3	1	UNK0	0.000	
18	   C	-4.069	0.091	-0.902	C.3	1	UNK0	0.000	
19	   N	-4.187	-0.747	-2.076	N.3	1	UNK0	0.000	
20	   C	-3.498	-0.160	-3.213	C.3	1	UNK0	0.000	
21	   C	-2.028	-0.168	-2.872	C.3	1	UNK0	0.000	
22	   C	6.375	-1.673	2.102	C.2	1	UNK0	0.000	
23	   C	6.686	-2.286	3.299	C.2	1	UNK0	0.000	
24	   H	3.616	-2.002	4.680	 H	1	UNK0	0.000	
25	   H	5.031	-0.313	-0.128	 H	1	UNK0	0.000	
26	   H	-0.279	0.129	2.376	 H	1	UNK0	0.000	
27	   H	0.502	1.844	-0.691	 H	1	UNK0	0.000	
28	   H	-0.651	1.697	0.646	 H	1	UNK0	0.000	
29	   H	-0.055	-0.457	-1.483	 H	1	UNK0	0.000	
30	   H	-1.234	-0.634	-0.163	 H	1	UNK0	0.000	
31	   H	-2.701	1.489	-0.018	 H	1	UNK0	0.000	
32	   H	-3.368	1.951	-1.605	 H	1	UNK0	0.000	
33	   H	-5.055	0.562	-0.718	 H	1	UNK0	0.000	
34	   H	-3.864	-0.578	-0.043	 H	1	UNK0	0.000	
35	   H	-3.855	-1.723	-1.902	 H	1	UNK0	0.000	
36	   H	-3.842	0.878	-3.318	 H	1	UNK0	0.000	
37	   H	-3.739	-0.805	-4.082	 H	1	UNK0	0.000	
38	   H	-1.469	0.344	-3.705	 H	1	UNK0	0.000	
39	   H	-1.667	-1.214	-2.801	 H	1	UNK0	0.000	
40	   H	7.167	-1.578	1.360	 H	1	UNK0	0.000	
41	   H	7.683	-2.672	3.527	 H	1	UNK0	0.000	
@<TRIPOS>BOND
1 1 2 1
2 2 3 2
3 2 23 1
4 3 4 1
5 4 5 2
6 4 8 1
7 5 6 1
8 5 22 1
9 6 7 1
10 7 8 2
11 7 12 1
12 8 9 1
13 9 10 2
14 10 11 1
15 11 12 1
16 11 14 1
17 12 13 2
18 14 15 1
19 15 16 1
20 16 17 1
21 16 21 1
22 17 18 1
23 18 19 1
24 19 20 1
25 20 21 1
26 22 23 2
27 3 24 1
28 6 25 1
29 10 26 1
30 14 27 1
31 14 28 1
32 15 29 1
33 15 30 1
34 17 31 1
35 17 32 1
36 18 33 1
37 18 34 1
38 19 35 1
39 20 36 1
40 20 37 1
41 21 38 1
42 21 39 1
43 22 40 1
44 23 41 1
@<TRIPOS>SUBSTRUCTURE
1	UNK0	1	GROUP	1 ****	UNK
