REMARK  1 active torsions:
REMARK  status: ('A' for Active; 'I' for Inactive)
REMARK    1  A    between atoms: C_10  and  C_15 
REMARK       I    between atoms: C_15  and  N_17 
ROOT
ATOM      1 Br   UNK d   1       2.381   5.151  -1.512  0.00  0.00    -0.051 Br
ATOM      2  C   UNK d   1       1.193   4.005  -0.562  0.00  0.00     0.012 A 
ATOM      3  C   UNK d   1       0.174   4.567   0.178  0.00  0.00     0.028 A 
ATOM      4  C   UNK d   1      -0.716   3.751   0.888  0.00  0.00    -0.027 A 
ATOM      5  C   UNK d   1      -0.544   2.406   0.823  0.00  0.00     0.055 A 
ATOM      6  C   UNK d   1       0.458   1.799   0.098  0.00  0.00     0.044 A 
ATOM      7  C   UNK d   1       1.317   2.618  -0.588  0.00  0.00     0.037 A 
ATOM      8  C   UNK d   1       0.516   0.431   0.121  0.00  0.00     0.201 A 
ATOM      9  O   UNK d   1       1.414  -0.129  -0.529  0.00  0.00    -0.286 OA
ATOM     10  C   UNK d   1      -0.384  -0.345   0.836  0.00  0.00     0.098 A 
ATOM     11  C   UNK d   1      -1.362   0.324   1.540  0.00  0.00     0.112 A 
ATOM     12  N   UNK d   1      -1.428   1.694   1.524  0.00  0.00    -0.354 N 
ATOM     13  C   UNK d   1      -2.329   2.631   2.157  0.00  0.00     0.133 A 
ATOM     14  C   UNK d   1      -1.880   4.009   1.753  0.00  0.00     0.061 A 
ENDROOT
BRANCH  10  15
ATOM     15  C   UNK d   1      -0.309  -1.802   0.849  0.00  0.00     0.259 C 
ATOM     16  O   UNK d   1       0.380  -2.370   1.727  0.00  0.00    -0.267 OA
ATOM     17  N   UNK d   1      -1.012  -2.582  -0.128  0.00  0.00    -0.344 N 
ATOM     18  C   UNK d   1      -0.954  -4.028  -0.138  0.00  0.00     0.152 C 
ATOM     19  C   UNK d   1      -1.815  -1.947  -1.154  0.00  0.00     0.152 C 
ATOM     20  C   UNK d   1      -0.511  -4.425  -1.552  0.00  0.00     0.187 C 
ATOM     21  O   UNK d   1      -1.341  -3.831  -2.472  0.00  0.00    -0.388 OA
ATOM     22  C   UNK d   1      -1.270  -2.454  -2.492  0.00  0.00     0.187 C 
ENDBRANCH  10  15
TORSDOF 1
