REMARK  8 active torsions:
REMARK  status: ('A' for Active; 'I' for Inactive)
REMARK    1  A    between atoms: N_5  and  C_23 
REMARK    2  A    between atoms: C_6  and  C_17 
REMARK    3  A    between atoms: C_7  and  C_12 
REMARK    4  A    between atoms: C_10  and  O_11 
REMARK    5  A    between atoms: C_12  and  O_14 
REMARK    6  A    between atoms: O_14  and  C_15 
REMARK    7  A    between atoms: C_17  and  N_18 
REMARK    8  A    between atoms: C_23  and  C_24 
ROOT
ATOM      1 Br   UNK d   1      -0.553  -5.114   3.134  0.00  0.00    -0.048 Br
ATOM      2  C   UNK d   1      -0.024  -3.548   2.229  0.00  0.00     0.046 A 
ATOM      3  C   UNK d   1      -0.930  -2.800   1.495  0.00  0.00     0.052 A 
ATOM      4  C   UNK d   1      -0.569  -1.672   0.817  0.00  0.00     0.048 A 
ATOM      5  N   UNK d   1      -1.326  -0.788   0.100  0.00  0.00    -0.343 N 
ATOM      6  C   UNK d   1      -0.508   0.200  -0.303  0.00  0.00     0.055 A 
ATOM      7  C   UNK d   1       0.812  -0.078   0.144  0.00  0.00     0.076 A 
ATOM      8  C   UNK d   1       0.714  -1.252   0.846  0.00  0.00     0.012 A 
ATOM      9  C   UNK d   1       1.647  -1.988   1.581  0.00  0.00     0.052 A 
ATOM     10  C   UNK d   1       1.294  -3.135   2.277  0.00  0.00     0.084 A 
ENDROOT
BRANCH   5  11
ATOM     11  C   UNK d   1      -2.683  -1.143  -0.359  0.00  0.00     0.167 C 
BRANCH  11  12
ATOM     12  C   UNK d   1      -2.474  -1.899  -1.691  0.00  0.00    -0.040 A 
ATOM     13  C   UNK d   1      -3.613  -2.349  -2.293  0.00  0.00     0.009 A 
ATOM     14  C   UNK d   1      -3.503  -3.035  -3.514  0.00  0.00     0.001 A 
ATOM     15  C   UNK d   1      -2.307  -3.264  -4.126  0.00  0.00     0.000 A 
ATOM     16  C   UNK d   1      -1.172  -2.781  -3.474  0.00  0.00     0.001 A 
ATOM     17  C   UNK d   1      -1.267  -2.100  -2.254  0.00  0.00     0.009 A 
ENDBRANCH  11  12
ENDBRANCH   5  11
BRANCH   6  18
ATOM     18  C   UNK d   1      -0.822   1.438  -1.016  0.00  0.00     0.292 C 
BRANCH  18  19
ATOM     19  N   UNK d   1      -1.668   2.404  -0.387  0.00  0.00    -0.066 N 
ATOM     20  C   UNK d   1      -2.791   2.246   0.355  0.00  0.00     0.235 C 
ATOM     21  C   UNK d   1      -3.714   3.457   0.076  0.00  0.00     0.029 C 
ATOM     22  C   UNK d   1      -2.672   4.496  -0.331  0.00  0.00     0.029 C 
ATOM     23  C   UNK d   1      -1.804   3.613  -1.217  0.00  0.00     0.235 C 
ATOM     24  H   UNK d   1      -0.876   2.859   0.360  0.00  0.00     0.280 HD
ENDBRANCH  18  19
ENDBRANCH   6  18
BRANCH   7  25
ATOM     25  C   UNK d   1       2.055   0.616  -0.218  0.00  0.00     0.296 C 
ATOM     26  O   UNK d   1       3.120   0.210   0.320  0.00  0.00    -0.259 OA
BRANCH  25  27
ATOM     27  O   UNK d   1       2.159   1.647  -1.091  0.00  0.00    -0.318 OA
BRANCH  27  28
ATOM     28  C   UNK d   1       3.248   2.367  -1.545  0.00  0.00     0.174 C 
ATOM     29  C   UNK d   1       4.275   1.546  -2.315  0.00  0.00     0.034 C 
ENDBRANCH  27  28
ENDBRANCH  25  27
ENDBRANCH   7  25
BRANCH  10  30
ATOM     30  O   UNK d   1       2.207  -3.892   3.033  0.00  0.00    -0.359 OA
ATOM     31  H   UNK d   1       1.870  -4.728   3.532  0.00  0.00     0.217 HD
ENDBRANCH  10  30
TORSDOF 8
