# created with PyMOL 2.3.2
@<TRIPOS>MOLECULE
625
55 58 1                 
SMALL
USER_CHARGES
@<TRIPOS>ATOM
1	  Br	-0.553	-5.114	3.134	Br	1	UNK0	0.000	
2	   C	-0.024	-3.548	2.229	C.2	1	UNK0	0.000	
3	   C	-0.930	-2.800	1.495	C.2	1	UNK0	0.000	
4	   C	-0.569	-1.672	0.817	C.2	1	UNK0	0.000	
5	   N	-1.326	-0.788	0.100	N.pl3	1	UNK0	0.000	
6	   C	-0.508	0.200	-0.303	C.2	1	UNK0	0.000	
7	   C	0.812	-0.078	0.144	C.2	1	UNK0	0.000	
8	   C	0.714	-1.252	0.846	C.2	1	UNK0	0.000	
9	   C	1.647	-1.988	1.581	C.2	1	UNK0	0.000	
10	   C	1.294	-3.135	2.277	C.2	1	UNK0	0.000	
11	   O	2.207	-3.892	3.033	O.3	1	UNK0	0.000	
12	   C	2.055	0.616	-0.218	C.2	1	UNK0	0.000	
13	   O	3.120	0.210	0.320	O.co2	1	UNK0	0.000	
14	   O	2.159	1.647	-1.091	O.3	1	UNK0	0.000	
15	   C	3.248	2.367	-1.545	C.3	1	UNK0	0.000	
16	   C	4.275	1.546	-2.315	C.3	1	UNK0	0.000	
17	   C	-0.822	1.438	-1.016	C.3	1	UNK0	0.000	
18	   N	-1.668	2.404	-0.387	N.4	1	UNK0	0.000	
19	   C	-2.791	2.246	0.355	C.3	1	UNK0	0.000	
20	   C	-3.714	3.457	0.076	C.3	1	UNK0	0.000	
21	   C	-2.672	4.496	-0.331	C.3	1	UNK0	0.000	
22	   C	-1.804	3.613	-1.217	C.3	1	UNK0	0.000	
23	   C	-2.683	-1.143	-0.359	C.3	1	UNK0	0.000	
24	   C	-2.474	-1.899	-1.691	C.2	1	UNK0	0.000	
25	   C	-3.613	-2.349	-2.293	C.2	1	UNK0	0.000	
26	   C	-3.503	-3.035	-3.514	C.2	1	UNK0	0.000	
27	   C	-2.307	-3.264	-4.126	C.2	1	UNK0	0.000	
28	   C	-1.172	-2.781	-3.474	C.2	1	UNK0	0.000	
29	   C	-1.267	-2.100	-2.254	C.2	1	UNK0	0.000	
30	   H	-1.974	-3.104	1.458	 H	1	UNK0	0.000	
31	   H	2.686	-1.649	1.631	 H	1	UNK0	0.000	
32	   H	1.870	-4.728	3.532	 H	1	UNK0	0.000	
33	   H	2.860	3.132	-2.282	 H	1	UNK0	0.000	
34	   H	3.769	2.904	-0.746	 H	1	UNK0	0.000	
35	   H	4.927	2.219	-2.914	 H	1	UNK0	0.000	
36	   H	4.943	0.970	-1.647	 H	1	UNK0	0.000	
37	   H	3.787	0.815	-3.011	 H	1	UNK0	0.000	
38	   H	0.106	1.957	-1.289	 H	1	UNK0	0.000	
39	   H	-1.382	1.152	-1.986	 H	1	UNK0	0.000	
40	   H	-0.876	2.859	0.360	 H	1	UNK0	0.000	
41	   H	-2.606	2.382	1.506	 H	1	UNK0	0.000	
42	   H	-3.418	1.363	0.292	 H	1	UNK0	0.000	
43	   H	-4.287	3.721	0.958	 H	1	UNK0	0.000	
44	   H	-4.280	3.221	-0.809	 H	1	UNK0	0.000	
45	   H	-2.154	4.790	0.595	 H	1	UNK0	0.000	
46	   H	-3.120	5.336	-0.839	 H	1	UNK0	0.000	
47	   H	-2.377	3.357	-2.116	 H	1	UNK0	0.000	
48	   H	-0.833	4.071	-1.457	 H	1	UNK0	0.000	
49	   H	-3.365	-0.363	-0.551	 H	1	UNK0	0.000	
50	   H	-3.073	-1.916	0.315	 H	1	UNK0	0.000	
51	   H	-4.594	-2.194	-1.868	 H	1	UNK0	0.000	
52	   H	-4.392	-3.411	-4.015	 H	1	UNK0	0.000	
53	   H	-2.235	-3.794	-5.073	 H	1	UNK0	0.000	
54	   H	-0.224	-2.934	-3.943	 H	1	UNK0	0.000	
55	   H	-0.375	-1.757	-1.795	 H	1	UNK0	0.000	
@<TRIPOS>BOND
1 1 2 1
2 2 3 2
3 2 10 1
4 3 4 1
5 4 5 1
6 4 8 2
7 5 6 1
8 5 23 1
9 6 7 2
10 6 17 1
11 7 8 1
12 7 12 1
13 8 9 1
14 9 10 2
15 10 11 1
16 12 13 2
17 12 14 1
18 14 15 1
19 15 16 1
20 17 18 1
21 18 19 1
22 18 22 1
23 19 20 1
24 20 21 1
25 21 22 1
26 23 24 1
27 24 25 2
28 24 29 1
29 25 26 1
30 26 27 2
31 27 28 1
32 28 29 2
33 3 30 1
34 9 31 1
35 11 32 1
36 15 33 1
37 15 34 1
38 16 35 1
39 16 36 1
40 16 37 1
41 17 38 1
42 17 39 1
43 18 40 1
44 19 41 1
45 19 42 1
46 20 43 1
47 20 44 1
48 21 45 1
49 21 46 1
50 22 47 1
51 22 48 1
52 23 49 1
53 23 50 1
54 25 51 1
55 26 52 1
56 27 53 1
57 28 54 1
58 29 55 1
@<TRIPOS>SUBSTRUCTURE
1	UNK0	1	GROUP	1 ****	UNK
