REMARK  7 active torsions:
REMARK  status: ('A' for Active; 'I' for Inactive)
REMARK    1  A    between atoms: C_6  and  O_28 
REMARK    2  A    between atoms: C_10  and  N_11 
REMARK       I    between atoms: N_11  and  C_12 
REMARK    3  A    between atoms: C_12  and  C_14 
REMARK    4  A    between atoms: C_14  and  N_15 
REMARK    5  A    between atoms: N_18  and  C_21 
REMARK    6  A    between atoms: C_21  and  C_22 
REMARK       I    between atoms: C_22  and  N_24 
REMARK    7  A    between atoms: N_24  and  C_25 
ROOT
ATOM      1  N   UNK d   1      -0.883  -1.003   2.441  0.00  0.00    -0.324 N 
ATOM      2  C   UNK d   1      -0.404  -0.494   3.655  0.00  0.00     0.239 C 
ATOM      3  O   UNK d   1      -0.258  -1.254   4.646  0.00  0.00    -0.271 OA
ATOM      4  H   UNK d   1      -0.955  -0.287   1.655  0.00  0.00     0.169 HD
ENDROOT
BRANCH   2   5
ATOM      5  C   UNK d   1      -0.044   0.912   3.868  0.00  0.00     0.220 C 
BRANCH   5   6
ATOM      6  N   UNK d   1      -0.213   1.812   2.798  0.00  0.00    -0.401 N 
ATOM      7  C   UNK d   1      -1.533   2.147   2.403  0.00  0.00     0.136 C 
ATOM      8  C   UNK d   1      -1.583   2.729   0.990  0.00  0.00     0.136 C 
ATOM      9  N   UNK d   1      -0.691   3.807   0.934  0.00  0.00    -0.401 N 
ATOM     10  C   UNK d   1       0.144   4.057   2.043  0.00  0.00     0.136 C 
ATOM     11  C   UNK d   1       0.748   2.859   2.712  0.00  0.00     0.136 C 
BRANCH   9  12
ATOM     12  C   UNK d   1      -0.336   4.263  -0.333  0.00  0.00     0.219 C 
BRANCH  12  13
ATOM     13  C   UNK d   1       0.530   3.426  -1.164  0.00  0.00     0.235 C 
ATOM     14  O   UNK d   1       0.794   3.904  -2.335  0.00  0.00    -0.272 OA
ATOM     15  N   UNK d   1       1.096   2.196  -0.848  0.00  0.00    -0.355 N 
ATOM     16  H   UNK d   1       0.929   1.763   0.083  0.00  0.00     0.162 HD
BRANCH  15  17
ATOM     17  C   UNK d   1       1.951   1.448  -1.765  0.00  0.00     0.084 A 
ATOM     18  C   UNK d   1       2.967   0.512  -1.258  0.00  0.00     0.027 A 
ATOM     19  C   UNK d   1       1.706  -0.040  -1.896  0.00  0.00     0.027 A 
ENDBRANCH  15  17
ENDBRANCH  12  13
ENDBRANCH   9  12
ENDBRANCH   5   6
ENDBRANCH   2   5
BRANCH   1  20
ATOM     20  C   UNK d   1      -1.253  -2.335   2.152  0.00  0.00     0.054 A 
ATOM     21  C   UNK d   1      -1.747  -2.638   0.893  0.00  0.00     0.040 A 
ATOM     22 Br   UNK d   1      -1.916  -1.198  -0.363  0.00  0.00    -0.049 Br
ATOM     23  C   UNK d   1      -2.124  -3.904   0.507  0.00  0.00     0.055 A 
ATOM     24  C   UNK d   1      -2.026  -4.958   1.382  0.00  0.00     0.089 A 
ATOM     25  N   UNK d   1      -2.293  -6.277   1.341  0.00  0.00    -0.207 NA
ATOM     26  C   UNK d   1      -1.542  -4.681   2.629  0.00  0.00     0.066 A 
ATOM     27  C   UNK d   1      -1.996  -6.853   2.521  0.00  0.00     0.244 A 
ATOM     28  N   UNK d   1      -1.537  -5.854   3.295  0.00  0.00    -0.319 N 
ATOM     29  H   UNK d   1      -1.212  -5.961   4.296  0.00  0.00     0.169 HD
ATOM     30  C   UNK d   1      -1.156  -3.393   3.027  0.00  0.00     0.063 A 
BRANCH  27  31
ATOM     31  O   UNK d   1      -2.141  -8.214   2.855  0.00  0.00    -0.331 OA
ATOM     32  H   UNK d   1      -1.304  -8.792   2.702  0.00  0.00     0.221 HD
ENDBRANCH  27  31
ENDBRANCH   1  20
TORSDOF 7
