# created with PyMOL 2.3.2
@<TRIPOS>MOLECULE
626
51 54 1                 
SMALL
USER_CHARGES
@<TRIPOS>ATOM
1	  Br	-1.916	-1.198	-0.363	Br	1	UNK0	0.000	
2	   C	-1.747	-2.638	0.893	C.2	1	UNK0	0.000	
3	   C	-2.124	-3.904	0.507	C.2	1	UNK0	0.000	
4	   C	-2.026	-4.958	1.382	C.2	1	UNK0	0.000	
5	   N	-2.293	-6.277	1.341	N.2	1	UNK0	0.000	
6	   C	-1.996	-6.853	2.521	C.2	1	UNK0	0.000	
7	   N	-1.537	-5.854	3.295	N.pl3	1	UNK0	0.000	
8	   C	-1.542	-4.681	2.629	C.2	1	UNK0	0.000	
9	   C	-1.156	-3.393	3.027	C.2	1	UNK0	0.000	
10	   C	-1.253	-2.335	2.152	C.2	1	UNK0	0.000	
11	   N	-0.883	-1.003	2.441	N.pl3	1	UNK0	0.000	
12	   C	-0.404	-0.494	3.655	C.2	1	UNK0	0.000	
13	   O	-0.258	-1.254	4.646	O.2	1	UNK0	0.000	
14	   C	-0.044	0.912	3.868	C.3	1	UNK0	0.000	
15	   N	-0.213	1.812	2.798	N.3	1	UNK0	0.000	
16	   C	-1.533	2.147	2.403	C.3	1	UNK0	0.000	
17	   C	-1.583	2.729	0.990	C.3	1	UNK0	0.000	
18	   N	-0.691	3.807	0.934	N.3	1	UNK0	0.000	
19	   C	0.144	4.057	2.043	C.3	1	UNK0	0.000	
20	   C	0.748	2.859	2.712	C.3	1	UNK0	0.000	
21	   C	-0.336	4.263	-0.333	C.3	1	UNK0	0.000	
22	   C	0.530	3.426	-1.164	C.2	1	UNK0	0.000	
23	   O	0.794	3.904	-2.335	O.2	1	UNK0	0.000	
24	   N	1.096	2.196	-0.848	N.pl3	1	UNK0	0.000	
25	   C	1.951	1.448	-1.765	C.3	1	UNK0	0.000	
26	   C	2.967	0.512	-1.258	C.3	1	UNK0	0.000	
27	   C	1.706	-0.040	-1.896	C.3	1	UNK0	0.000	
28	   O	-2.141	-8.214	2.855	O.3	1	UNK0	0.000	
29	   H	-2.505	-4.109	-0.483	 H	1	UNK0	0.000	
30	   H	-1.212	-5.961	4.296	 H	1	UNK0	0.000	
31	   H	-0.789	-3.252	4.016	 H	1	UNK0	0.000	
32	   H	-0.955	-0.287	1.655	 H	1	UNK0	0.000	
33	   H	-0.707	1.265	4.718	 H	1	UNK0	0.000	
34	   H	0.998	1.032	4.257	 H	1	UNK0	0.000	
35	   H	-1.835	3.031	3.056	 H	1	UNK0	0.000	
36	   H	-2.267	1.378	2.595	 H	1	UNK0	0.000	
37	   H	-2.629	3.122	0.876	 H	1	UNK0	0.000	
38	   H	-1.352	1.949	0.279	 H	1	UNK0	0.000	
39	   H	0.906	4.840	1.817	 H	1	UNK0	0.000	
40	   H	-0.505	4.545	2.835	 H	1	UNK0	0.000	
41	   H	1.706	2.545	2.240	 H	1	UNK0	0.000	
42	   H	1.013	3.164	3.756	 H	1	UNK0	0.000	
43	   H	-1.314	4.471	-0.898	 H	1	UNK0	0.000	
44	   H	0.081	5.333	-0.273	 H	1	UNK0	0.000	
45	   H	0.929	1.763	0.083	 H	1	UNK0	0.000	
46	   H	2.164	1.938	-2.735	 H	1	UNK0	0.000	
47	   H	3.898	0.326	-1.850	 H	1	UNK0	0.000	
48	   H	3.094	0.269	-0.204	 H	1	UNK0	0.000	
49	   H	0.966	-0.540	-1.235	 H	1	UNK0	0.000	
50	   H	1.778	-0.514	-2.905	 H	1	UNK0	0.000	
51	   H	-1.304	-8.792	2.702	 H	1	UNK0	0.000	
@<TRIPOS>BOND
1 1 2 1
2 2 3 2
3 2 10 1
4 3 4 1
5 4 5 1
6 4 8 2
7 5 6 2
8 6 7 1
9 6 28 1
10 7 8 1
11 8 9 1
12 9 10 2
13 10 11 1
14 11 12 1
15 12 13 2
16 12 14 1
17 14 15 1
18 15 16 1
19 15 20 1
20 16 17 1
21 17 18 1
22 18 19 1
23 18 21 1
24 19 20 1
25 21 22 1
26 22 23 2
27 22 24 1
28 24 25 1
29 25 26 1
30 25 27 1
31 26 27 1
32 3 29 1
33 7 30 1
34 9 31 1
35 11 32 1
36 14 33 1
37 14 34 1
38 16 35 1
39 16 36 1
40 17 37 1
41 17 38 1
42 19 39 1
43 19 40 1
44 20 41 1
45 20 42 1
46 21 43 1
47 21 44 1
48 24 45 1
49 25 46 1
50 26 47 1
51 26 48 1
52 27 49 1
53 27 50 1
54 28 51 1
@<TRIPOS>SUBSTRUCTURE
1	UNK0	1	GROUP	1 ****	UNK
