REMARK  5 active torsions:
REMARK  status: ('A' for Active; 'I' for Inactive)
REMARK    1  A    between atoms: C_7  and  N_11 
REMARK    2  A    between atoms: C_13  and  C_17 
REMARK       I    between atoms: C_17  and  N_19 
REMARK    3  A    between atoms: N_19  and  C_20 
REMARK    4  A    between atoms: C_20  and  C_21 
REMARK    5  A    between atoms: C_21  and  C_22 
ROOT
ATOM      1  N   UNK d   1      -1.309   0.694   2.311  0.00  0.00    -0.301 N 
ATOM      2  C   UNK d   1      -0.000   0.948   1.670  0.00  0.00     0.148 C 
ATOM      3  C   UNK d   1       0.485  -0.450   1.321  0.00  0.00     0.105 C 
ATOM      4  C   UNK d   1      -0.082  -1.291   2.445  0.00  0.00     0.119 C 
ATOM      5  C   UNK d   1      -1.160  -0.494   3.085  0.00  0.00     0.226 C 
ATOM      6  O   UNK d   1      -1.813  -0.786   4.096  0.00  0.00    -0.273 OA
ENDROOT
BRANCH   3   7
ATOM      7  C   UNK d   1       1.954  -0.363   1.304  0.00  0.00     0.223 C 
ATOM      8  O   UNK d   1       2.662  -1.224   1.876  0.00  0.00    -0.273 OA
ATOM      9  N   UNK d   1       2.552   0.728   0.617  0.00  0.00    -0.360 N 
ATOM     10  H   UNK d   1       1.927   1.423   0.164  0.00  0.00     0.162 HD
BRANCH   9  11
ATOM     11  C   UNK d   1       3.988   0.885   0.544  0.00  0.00     0.128 C 
BRANCH  11  12
ATOM     12  C   UNK d   1       4.665  -0.265  -0.171  0.00  0.00     0.080 C 
BRANCH  12  13
ATOM     13  C   UNK d   1       4.191  -0.368  -1.565  0.00  0.00     0.052 A 
ATOM     14  N   UNK d   1       4.768   0.265  -2.599  0.00  0.00    -0.247 NA
ATOM     15  C   UNK d   1       4.123  -0.023  -3.730  0.00  0.00     0.207 A 
ATOM     16  N   UNK d   1       3.101  -0.865  -3.418  0.00  0.00    -0.359 N 
ATOM     17  C   UNK d   1       3.153  -1.068  -2.098  0.00  0.00     0.116 A 
ATOM     18  H   UNK d   1       2.442  -1.237  -4.139  0.00  0.00     0.166 HD
ENDBRANCH  12  13
ENDBRANCH  11  12
ENDBRANCH   9  11
ENDBRANCH   3   7
BRANCH   1  19
ATOM     19  C   UNK d   1      -2.414   1.536   2.089  0.00  0.00     0.139 A 
ATOM     20  N   UNK d   1      -3.016   2.415   2.903  0.00  0.00    -0.261 N 
ATOM     21  N   UNK d   1      -4.033   3.015   2.291  0.00  0.00    -0.172 NA
ATOM     22  H   UNK d   1      -2.752   2.626   3.885  0.00  0.00     0.191 HD
ATOM     23  C   UNK d   1      -4.142   2.550   1.034  0.00  0.00     0.092 A 
ATOM     24  C   UNK d   1      -5.008   2.836   0.004  0.00  0.00     0.053 A 
ATOM     25  C   UNK d   1      -3.143   1.627   0.887  0.00  0.00     0.040 A 
ATOM     26  C   UNK d   1      -4.828   2.151  -1.196  0.00  0.00     0.013 A 
ATOM     27 Br   UNK d   1      -5.976   2.473  -2.695  0.00  0.00    -0.051 Br
ATOM     28  C   UNK d   1      -3.809   1.218  -1.328  0.00  0.00     0.020 A 
ATOM     29  C   UNK d   1      -2.958   0.949  -0.285  0.00  0.00     0.019 A 
ENDBRANCH   1  19
TORSDOF 5
