# created with PyMOL 2.3.2
@<TRIPOS>MOLECULE
648
58 61 1                 
SMALL
USER_CHARGES
@<TRIPOS>ATOM
1	  Br	2.743	-2.958	-4.406	Br	1	UNK0	0.000	
2	   C	3.926	-2.236	-3.072	C.2	1	UNK0	0.000	
3	   C	5.184	-1.735	-3.269	C.2	1	UNK0	0.000	
4	   N	5.643	-1.343	-2.076	N.pl3	1	UNK0	0.000	
5	   N	4.732	-1.580	-1.170	N.2	1	UNK0	0.000	
6	   C	3.613	-2.144	-1.712	C.2	1	UNK0	0.000	
7	   C	2.395	-2.553	-1.060	C.2	1	UNK0	0.000	
8	   O	1.507	-3.078	-1.824	O.2	1	UNK0	0.000	
9	   N	2.098	-2.437	0.272	N.pl3	1	UNK0	0.000	
10	   C	2.946	-1.868	1.273	C.3	1	UNK0	0.000	
11	   C	2.379	-0.551	1.691	C.3	1	UNK0	0.000	
12	   N	0.936	-0.507	1.504	N.pl3	1	UNK0	0.000	
13	   C	0.119	-1.672	1.426	C.3	1	UNK0	0.000	
14	   C	0.804	-2.893	0.820	C.3	1	UNK0	0.000	
15	   C	0.419	0.823	1.343	C.2	1	UNK0	0.000	
16	   O	1.292	1.787	1.294	O.2	1	UNK0	0.000	
17	   C	-0.959	1.154	1.233	C.2	1	UNK0	0.000	
18	   N	-1.409	2.422	0.888	N.pl3	1	UNK0	0.000	
19	   N	-2.701	2.453	0.924	N.2	1	UNK0	0.000	
20	   C	-3.204	1.274	1.278	C.2	1	UNK0	0.000	
21	   C	-2.082	0.444	1.476	C.2	1	UNK0	0.000	
22	   C	-4.589	0.863	1.421	C.2	1	UNK0	0.000	
23	   O	-4.787	-0.345	1.804	O.2	1	UNK0	0.000	
24	   N	-5.696	1.661	1.178	N.pl3	1	UNK0	0.000	
25	   C	-7.025	1.082	1.399	C.3	1	UNK0	0.000	
26	   C	-7.791	1.306	0.112	C.3	1	UNK0	0.000	
27	   O	-7.954	2.700	0.014	O.3	1	UNK0	0.000	
28	   C	-6.759	3.289	-0.293	C.3	1	UNK0	0.000	
29	   C	-5.643	3.009	0.705	C.3	1	UNK0	0.000	
30	   C	-0.570	3.543	0.536	C.3	1	UNK0	0.000	
31	   C	6.970	-0.761	-1.916	C.3	1	UNK0	0.000	
32	   C	6.975	0.737	-2.064	C.3	1	UNK0	0.000	
33	   H	5.696	-1.679	-4.229	 H	1	UNK0	0.000	
34	   H	2.894	-2.530	2.192	 H	1	UNK0	0.000	
35	   H	3.997	-1.708	0.982	 H	1	UNK0	0.000	
36	   H	2.800	0.294	1.076	 H	1	UNK0	0.000	
37	   H	2.641	-0.405	2.767	 H	1	UNK0	0.000	
38	   H	-0.655	-1.427	0.623	 H	1	UNK0	0.000	
39	   H	-0.420	-1.963	2.323	 H	1	UNK0	0.000	
40	   H	0.228	-3.405	0.060	 H	1	UNK0	0.000	
41	   H	1.046	-3.573	1.648	 H	1	UNK0	0.000	
42	   H	-2.182	-0.570	1.800	 H	1	UNK0	0.000	
43	   H	-7.467	1.663	2.236	 H	1	UNK0	0.000	
44	   H	-6.988	0.017	1.638	 H	1	UNK0	0.000	
45	   H	-7.178	0.964	-0.734	 H	1	UNK0	0.000	
46	   H	-8.789	0.817	0.166	 H	1	UNK0	0.000	
47	   H	-6.417	2.925	-1.286	 H	1	UNK0	0.000	
48	   H	-6.903	4.378	-0.401	 H	1	UNK0	0.000	
49	   H	-4.698	3.169	0.152	 H	1	UNK0	0.000	
50	   H	-5.737	3.711	1.543	 H	1	UNK0	0.000	
51	   H	-0.097	4.001	1.406	 H	1	UNK0	0.000	
52	   H	0.183	3.241	-0.229	 H	1	UNK0	0.000	
53	   H	-1.190	4.318	0.046	 H	1	UNK0	0.000	
54	   H	7.407	-1.029	-0.927	 H	1	UNK0	0.000	
55	   H	7.666	-1.181	-2.680	 H	1	UNK0	0.000	
56	   H	6.061	1.177	-1.607	 H	1	UNK0	0.000	
57	   H	7.841	1.131	-1.491	 H	1	UNK0	0.000	
58	   H	7.114	1.009	-3.126	 H	1	UNK0	0.000	
@<TRIPOS>BOND
1 1 2 1
2 2 3 2
3 2 6 1
4 3 4 1
5 4 5 1
6 4 31 1
7 5 6 2
8 6 7 1
9 7 8 2
10 7 9 1
11 9 10 1
12 9 14 1
13 10 11 1
14 11 12 1
15 12 13 1
16 12 15 1
17 13 14 1
18 15 16 2
19 15 17 1
20 17 18 1
21 17 21 2
22 18 19 1
23 18 30 1
24 19 20 2
25 20 21 1
26 20 22 1
27 22 23 2
28 22 24 1
29 24 25 1
30 24 29 1
31 25 26 1
32 26 27 1
33 27 28 1
34 28 29 1
35 31 32 1
36 3 33 1
37 10 34 1
38 10 35 1
39 11 36 1
40 11 37 1
41 13 38 1
42 13 39 1
43 14 40 1
44 14 41 1
45 21 42 1
46 25 43 1
47 25 44 1
48 26 45 1
49 26 46 1
50 28 47 1
51 28 48 1
52 29 49 1
53 29 50 1
54 30 51 1
55 30 52 1
56 30 53 1
57 31 54 1
58 31 55 1
59 32 56 1
60 32 57 1
61 32 58 1
@<TRIPOS>SUBSTRUCTURE
1	UNK0	1	GROUP	1 ****	UNK
