REMARK  5 active torsions:
REMARK  status: ('A' for Active; 'I' for Inactive)
REMARK    1  A    between atoms: N_4  and  C_7 
REMARK    2  A    between atoms: C_7  and  C_8 
REMARK       I    between atoms: C_8  and  N_10 
REMARK    3  A    between atoms: N_10  and  C_11 
REMARK    4  A    between atoms: C_11  and  C_12 
REMARK    5  A    between atoms: C_15  and  O_24 
ROOT
ATOM      1  C   UNK d   1      -0.823  -0.312   0.328  0.00  0.00     0.003 A 
ATOM      2  C   UNK d   1      -0.589   0.608  -0.662  0.00  0.00     0.116 A 
ATOM      3  C   UNK d   1      -1.524   1.577  -0.977  0.00  0.00     0.140 A 
ATOM      4  C   UNK d   1      -2.724   1.648  -0.305  0.00  0.00     0.120 A 
ATOM      5  C   UNK d   1      -2.978   0.709   0.713  0.00  0.00     0.075 A 
ATOM      6  C   UNK d   1      -2.051  -0.250   1.025  0.00  0.00    -0.027 A 
ATOM      7  C   UNK d   1      -2.323  -1.215   2.093  0.00  0.00     0.060 C 
ATOM      8  C   UNK d   1      -3.733  -1.438   2.471  0.00  0.00     0.130 C 
ATOM      9  N   UNK d   1      -4.568  -0.248   2.367  0.00  0.00    -0.352 N 
ATOM     10  C   UNK d   1      -4.273   0.736   1.385  0.00  0.00     0.256 C 
ATOM     11  O   UNK d   1      -5.144   1.617   1.114  0.00  0.00    -0.267 OA
ATOM     12  C   UNK d   1      -5.683  -0.152   3.281  0.00  0.00     0.152 C 
ATOM     13  O   UNK d   1      -0.980   2.330  -1.999  0.00  0.00    -0.320 OA
ATOM     14  C   UNK d   1       0.361   1.971  -2.217  0.00  0.00     0.352 C 
ATOM     15  O   UNK d   1       0.544   0.756  -1.495  0.00  0.00    -0.322 OA
ENDROOT
BRANCH   1  16
ATOM     16  C   UNK d   1       0.138  -1.386   0.658  0.00  0.00     0.164 C 
BRANCH  16  17
ATOM     17  N   UNK d   1       1.501  -0.912   0.816  0.00  0.00    -0.355 N 
ATOM     18  C   UNK d   1       1.992   0.079   1.638  0.00  0.00     0.237 C 
ATOM     19  O   UNK d   1       1.230   0.743   2.412  0.00  0.00    -0.272 OA
ATOM     20  H   UNK d   1       2.196  -1.434   0.194  0.00  0.00     0.162 HD
BRANCH  18  21
ATOM     21  C   UNK d   1       3.441   0.416   1.653  0.00  0.00     0.253 C 
BRANCH  21  22
ATOM     22  N   UNK d   1       4.115  -0.573   0.790  0.00  0.00    -0.271 N 
ATOM     23  C   UNK d   1       4.334  -0.486  -0.518  0.00  0.00     0.133 A 
ATOM     24  C   UNK d   1       4.994  -1.625  -0.918  0.00  0.00     0.047 A 
ATOM     25 Br   UNK d   1       5.574  -2.081  -2.679  0.00  0.00    -0.048 Br
ATOM     26  C   UNK d   1       5.173  -2.418   0.192  0.00  0.00     0.159 A 
ATOM     27  N   UNK d   1       4.621  -1.732   1.204  0.00  0.00    -0.183 NA
ENDBRANCH  21  22
ENDBRANCH  18  21
ENDBRANCH  16  17
ENDBRANCH   1  16
BRANCH   4  28
ATOM     28  O   UNK d   1      -3.682   2.604  -0.591  0.00  0.00    -0.352 OA
ATOM     29  C   UNK d   1      -3.694   3.850   0.074  0.00  0.00     0.210 C 
ENDBRANCH   4  28
TORSDOF 5
