# created with PyMOL 2.3.2
@<TRIPOS>MOLECULE
653
47 50 1                 
SMALL
USER_CHARGES
@<TRIPOS>ATOM
1	  Br	5.574	-2.081	-2.679	Br	1	UNK0	0.000	
2	   C	4.994	-1.625	-0.918	C.2	1	UNK0	0.000	
3	   C	4.334	-0.486	-0.518	C.2	1	UNK0	0.000	
4	   N	4.115	-0.573	0.790	N.pl3	1	UNK0	0.000	
5	   N	4.621	-1.732	1.204	N.2	1	UNK0	0.000	
6	   C	5.173	-2.418	0.192	C.2	1	UNK0	0.000	
7	   C	3.441	0.416	1.653	C.3	1	UNK0	0.000	
8	   C	1.992	0.079	1.638	C.2	1	UNK0	0.000	
9	   O	1.230	0.743	2.412	O.2	1	UNK0	0.000	
10	   N	1.501	-0.912	0.816	N.pl3	1	UNK0	0.000	
11	   C	0.138	-1.386	0.658	C.3	1	UNK0	0.000	
12	   C	-0.823	-0.312	0.328	C.2	1	UNK0	0.000	
13	   C	-0.589	0.608	-0.662	C.2	1	UNK0	0.000	
14	   C	-1.524	1.577	-0.977	C.2	1	UNK0	0.000	
15	   C	-2.724	1.648	-0.305	C.2	1	UNK0	0.000	
16	   C	-2.978	0.709	0.713	C.2	1	UNK0	0.000	
17	   C	-2.051	-0.250	1.025	C.2	1	UNK0	0.000	
18	   C	-2.323	-1.215	2.093	C.3	1	UNK0	0.000	
19	   C	-3.733	-1.438	2.471	C.3	1	UNK0	0.000	
20	   N	-4.568	-0.248	2.367	N.pl3	1	UNK0	0.000	
21	   C	-4.273	0.736	1.385	C.2	1	UNK0	0.000	
22	   O	-5.144	1.617	1.114	O.2	1	UNK0	0.000	
23	   C	-5.683	-0.152	3.281	C.3	1	UNK0	0.000	
24	   O	-3.682	2.604	-0.591	O.3	1	UNK0	0.000	
25	   C	-3.694	3.850	0.074	C.3	1	UNK0	0.000	
26	   O	-0.980	2.330	-1.999	O.3	1	UNK0	0.000	
27	   C	0.361	1.971	-2.217	C.3	1	UNK0	0.000	
28	   O	0.544	0.756	-1.495	O.3	1	UNK0	0.000	
29	   H	4.061	0.325	-1.197	 H	1	UNK0	0.000	
30	   H	5.662	-3.378	0.186	 H	1	UNK0	0.000	
31	   H	3.617	1.422	1.198	 H	1	UNK0	0.000	
32	   H	3.837	0.416	2.667	 H	1	UNK0	0.000	
33	   H	2.196	-1.434	0.194	 H	1	UNK0	0.000	
34	   H	-0.110	-1.714	1.724	 H	1	UNK0	0.000	
35	   H	0.043	-2.275	0.031	 H	1	UNK0	0.000	
36	   H	-1.697	-1.061	2.998	 H	1	UNK0	0.000	
37	   H	-1.956	-2.218	1.699	 H	1	UNK0	0.000	
38	   H	-4.204	-2.208	1.791	 H	1	UNK0	0.000	
39	   H	-3.766	-1.869	3.509	 H	1	UNK0	0.000	
40	   H	-6.092	-1.176	3.456	 H	1	UNK0	0.000	
41	   H	-5.294	0.229	4.243	 H	1	UNK0	0.000	
42	   H	-6.468	0.548	2.937	 H	1	UNK0	0.000	
43	   H	-3.305	3.664	1.114	 H	1	UNK0	0.000	
44	   H	-4.716	4.269	0.167	 H	1	UNK0	0.000	
45	   H	-3.044	4.607	-0.441	 H	1	UNK0	0.000	
46	   H	1.084	2.709	-1.802	 H	1	UNK0	0.000	
47	   H	0.548	1.723	-3.285	 H	1	UNK0	0.000	
@<TRIPOS>BOND
1 1 2 1
2 2 3 2
3 2 6 1
4 3 4 1
5 4 5 1
6 4 7 1
7 5 6 2
8 7 8 1
9 8 9 2
10 8 10 1
11 10 11 1
12 11 12 1
13 12 13 2
14 12 17 1
15 13 14 1
16 13 28 1
17 14 15 2
18 14 26 1
19 15 16 1
20 15 24 1
21 16 17 2
22 16 21 1
23 17 18 1
24 18 19 1
25 19 20 1
26 20 21 1
27 20 23 1
28 21 22 2
29 24 25 1
30 26 27 1
31 27 28 1
32 3 29 1
33 6 30 1
34 7 31 1
35 7 32 1
36 10 33 1
37 11 34 1
38 11 35 1
39 18 36 1
40 18 37 1
41 19 38 1
42 19 39 1
43 23 40 1
44 23 41 1
45 23 42 1
46 25 43 1
47 25 44 1
48 25 45 1
49 27 46 1
50 27 47 1
@<TRIPOS>SUBSTRUCTURE
1	UNK0	1	GROUP	1 ****	UNK
