REMARK  3 active torsions:
REMARK  status: ('A' for Active; 'I' for Inactive)
REMARK    1  A    between atoms: N_4  and  C_7 
REMARK    2  A    between atoms: C_7  and  N_8 
REMARK    3  A    between atoms: C_10  and  C_13 
ROOT
ATOM      1  C   UNK d   1       0.613  -0.702   1.556  0.00  0.00     0.202 A 
ATOM      2  N   UNK d   1       0.122  -1.818   2.118  0.00  0.00    -0.142 NA
ATOM      3  N   UNK d   1      -0.252  -1.574   3.374  0.00  0.00    -0.206 N 
ATOM      4  C   UNK d   1       0.006  -0.259   3.628  0.00  0.00     0.170 A 
ATOM      5  N   UNK d   1       0.535   0.251   2.499  0.00  0.00    -0.205 NA
ATOM      6  C   UNK d   1      -0.299   0.239   4.877  0.00  0.00     0.078 A 
ATOM      7  C   UNK d   1      -0.854  -0.541   5.876  0.00  0.00     0.160 A 
ATOM      8  N   UNK d   1      -1.038   0.213   6.973  0.00  0.00    -0.261 N 
ATOM      9  N   UNK d   1      -0.615   1.433   6.683  0.00  0.00    -0.184 NA
ATOM     10  C   UNK d   1      -0.157   1.490   5.415  0.00  0.00     0.158 A 
ATOM     11  N   UNK d   1      -1.090  -1.829   5.580  0.00  0.00    -0.222 NA
ATOM     12  C   UNK d   1      -0.792  -2.310   4.362  0.00  0.00     0.239 A 
ATOM     13  H   UNK d   1      -1.436  -0.079   7.891  0.00  0.00     0.191 HD
ENDROOT
BRANCH   1  14
ATOM     14  C   UNK d   1       1.123  -0.572   0.192  0.00  0.00     0.128 A 
ATOM     15  N   UNK d   1       1.205  -1.519  -0.758  0.00  0.00    -0.167 NA
ATOM     16  N   UNK d   1       1.723  -1.032  -1.872  0.00  0.00    -0.261 N 
ATOM     17  C   UNK d   1       2.003   0.270  -1.692  0.00  0.00     0.117 A 
ATOM     18  C   UNK d   1       1.628   0.573  -0.387  0.00  0.00     0.056 A 
BRANCH  16  19
ATOM     19  C   UNK d   1       1.952  -1.793  -3.103  0.00  0.00     0.300 C 
BRANCH  19  20
ATOM     20  N   UNK d   1       0.800  -1.742  -3.979  0.00  0.00    -0.260 N 
ATOM     21  C   UNK d   1       0.569  -0.826  -4.934  0.00  0.00     0.135 A 
ATOM     22  C   UNK d   1      -0.633  -1.129  -5.541  0.00  0.00     0.047 A 
ATOM     23 Br   UNK d   1      -1.457  -0.178  -6.953  0.00  0.00    -0.048 Br
ATOM     24  C   UNK d   1      -1.112  -2.258  -4.915  0.00  0.00     0.159 A 
ATOM     25  N   UNK d   1      -0.206  -2.598  -3.970  0.00  0.00    -0.182 NA
ENDBRANCH  19  20
ENDBRANCH  16  19
ENDBRANCH   1  14
TORSDOF 3
