# created with PyMOL 2.3.2
@<TRIPOS>MOLECULE
662
33 37 1                 
SMALL
USER_CHARGES
@<TRIPOS>ATOM
1	  Br	-1.457	-0.178	-6.953	Br	1	UNK0	0.000	
2	   C	-0.633	-1.129	-5.541	C.2	1	UNK0	0.000	
3	   C	0.569	-0.826	-4.934	C.2	1	UNK0	0.000	
4	   N	0.800	-1.742	-3.979	N.pl3	1	UNK0	0.000	
5	   N	-0.206	-2.598	-3.970	N.2	1	UNK0	0.000	
6	   C	-1.112	-2.258	-4.915	C.2	1	UNK0	0.000	
7	   C	1.952	-1.793	-3.103	C.3	1	UNK0	0.000	
8	   N	1.723	-1.032	-1.872	N.pl3	1	UNK0	0.000	
9	   N	1.205	-1.519	-0.758	N.2	1	UNK0	0.000	
10	   C	1.123	-0.572	0.192	C.2	1	UNK0	0.000	
11	   C	1.628	0.573	-0.387	C.2	1	UNK0	0.000	
12	   C	2.003	0.270	-1.692	C.2	1	UNK0	0.000	
13	   C	0.613	-0.702	1.556	C.2	1	UNK0	0.000	
14	   N	0.122	-1.818	2.118	N.2	1	UNK0	0.000	
15	   N	-0.252	-1.574	3.374	N.pl3	1	UNK0	0.000	
16	   C	0.006	-0.259	3.628	C.2	1	UNK0	0.000	
17	   N	0.535	0.251	2.499	N.2	1	UNK0	0.000	
18	   C	-0.299	0.239	4.877	C.2	1	UNK0	0.000	
19	   C	-0.854	-0.541	5.876	C.2	1	UNK0	0.000	
20	   N	-1.038	0.213	6.973	N.pl3	1	UNK0	0.000	
21	   N	-0.615	1.433	6.683	N.2	1	UNK0	0.000	
22	   C	-0.157	1.490	5.415	C.2	1	UNK0	0.000	
23	   N	-1.090	-1.829	5.580	N.2	1	UNK0	0.000	
24	   C	-0.792	-2.310	4.362	C.2	1	UNK0	0.000	
25	   H	1.183	0.006	-5.206	 H	1	UNK0	0.000	
26	   H	-2.031	-2.754	-5.153	 H	1	UNK0	0.000	
27	   H	2.868	-1.389	-3.591	 H	1	UNK0	0.000	
28	   H	2.207	-2.860	-2.840	 H	1	UNK0	0.000	
29	   H	1.706	1.526	0.109	 H	1	UNK0	0.000	
30	   H	2.436	0.928	-2.432	 H	1	UNK0	0.000	
31	   H	-1.436	-0.079	7.891	 H	1	UNK0	0.000	
32	   H	0.256	2.350	4.881	 H	1	UNK0	0.000	
33	   H	-0.997	-3.352	4.163	 H	1	UNK0	0.000	
@<TRIPOS>BOND
1 1 2 1
2 2 3 2
3 2 6 1
4 3 4 1
5 4 5 1
6 4 7 1
7 5 6 2
8 7 8 1
9 8 9 1
10 8 12 1
11 9 10 2
12 10 11 1
13 10 13 1
14 11 12 2
15 13 14 2
16 13 17 1
17 14 15 1
18 15 16 1
19 15 24 1
20 16 17 2
21 16 18 1
22 18 19 2
23 18 22 1
24 19 20 1
25 19 23 1
26 20 21 1
27 21 22 2
28 23 24 2
29 3 25 1
30 6 26 1
31 7 27 1
32 7 28 1
33 11 29 1
34 12 30 1
35 20 31 1
36 22 32 1
37 24 33 1
@<TRIPOS>SUBSTRUCTURE
1	UNK0	1	GROUP	1 ****	UNK
