# created with PyMOL 2.3.2
@<TRIPOS>MOLECULE
663
42 45 1                 
SMALL
USER_CHARGES
@<TRIPOS>ATOM
1	  Br	-3.501	-7.315	2.874	Br	1	UNK0	0.000	
2	   C	-2.288	-5.820	2.848	C.2	1	UNK0	0.000	
3	   C	-2.125	-4.893	1.842	C.2	1	UNK0	0.000	
4	   N	-1.181	-4.005	2.202	N.pl3	1	UNK0	0.000	
5	   N	-0.765	-4.364	3.398	N.2	1	UNK0	0.000	
6	   C	-1.399	-5.451	3.833	C.2	1	UNK0	0.000	
7	   C	-0.694	-2.886	1.476	C.2	1	UNK0	0.000	
8	   C	0.573	-2.891	0.946	C.2	1	UNK0	0.000	
9	   C	1.068	-1.826	0.242	C.2	1	UNK0	0.000	
10	   C	0.321	-0.653	0.008	C.2	1	UNK0	0.000	
11	   C	-0.945	-0.660	0.545	C.2	1	UNK0	0.000	
12	   C	-1.441	-1.759	1.264	C.2	1	UNK0	0.000	
13	   C	0.932	0.443	-0.709	C.2	1	UNK0	0.000	
14	   O	2.203	0.303	-0.914	O.2	1	UNK0	0.000	
15	   N	0.369	1.607	-1.204	N.pl3	1	UNK0	0.000	
16	   C	-0.990	2.077	-1.217	C.3	1	UNK0	0.000	
17	   C	-1.126	3.078	-0.086	C.3	1	UNK0	0.000	
18	   C	0.134	3.911	0.036	C.3	1	UNK0	0.000	
19	   N	-0.276	5.263	0.347	N.pl3	1	UNK0	0.000	
20	   C	-0.451	5.353	1.753	C.2	1	UNK0	0.000	
21	   O	-1.121	6.217	2.407	O.2	1	UNK0	0.000	
22	   N	0.286	4.263	2.329	N.pl3	1	UNK0	0.000	
23	   C	0.894	3.533	1.242	C.2	1	UNK0	0.000	
24	   O	1.865	2.757	1.372	O.2	1	UNK0	0.000	
25	   C	0.953	3.940	-1.214	C.3	1	UNK0	0.000	
26	   C	1.302	2.614	-1.800	C.3	1	UNK0	0.000	
27	   H	-2.672	-4.885	0.908	 H	1	UNK0	0.000	
28	   H	-1.284	-5.996	4.780	 H	1	UNK0	0.000	
29	   H	1.159	-3.799	1.123	 H	1	UNK0	0.000	
30	   H	2.064	-1.870	-0.158	 H	1	UNK0	0.000	
31	   H	-1.571	0.208	0.435	 H	1	UNK0	0.000	
32	   H	-2.445	-1.724	1.670	 H	1	UNK0	0.000	
33	   H	-1.086	2.762	-2.153	 H	1	UNK0	0.000	
34	   H	-1.778	1.363	-1.331	 H	1	UNK0	0.000	
35	   H	-1.999	3.713	-0.234	 H	1	UNK0	0.000	
36	   H	-1.248	2.512	0.851	 H	1	UNK0	0.000	
37	   H	-0.428	6.056	-0.306	 H	1	UNK0	0.000	
38	   H	0.395	4.001	3.333	 H	1	UNK0	0.000	
39	   H	1.929	4.435	-0.932	 H	1	UNK0	0.000	
40	   H	0.512	4.626	-1.975	 H	1	UNK0	0.000	
41	   H	1.048	2.609	-2.880	 H	1	UNK0	0.000	
42	   H	2.340	2.299	-1.683	 H	1	UNK0	0.000	
@<TRIPOS>BOND
1 1 2 1
2 2 3 2
3 2 6 1
4 3 4 1
5 4 5 1
6 4 7 1
7 5 6 2
8 7 8 2
9 7 12 1
10 8 9 1
11 9 10 2
12 10 11 1
13 10 13 1
14 11 12 2
15 13 14 2
16 13 15 1
17 15 16 1
18 15 26 1
19 16 17 1
20 17 18 1
21 18 19 1
22 18 23 1
23 18 25 1
24 19 20 1
25 20 21 2
26 20 22 1
27 22 23 1
28 23 24 2
29 25 26 1
30 3 27 1
31 6 28 1
32 8 29 1
33 9 30 1
34 11 31 1
35 12 32 1
36 16 33 1
37 16 34 1
38 17 35 1
39 17 36 1
40 19 37 1
41 22 38 1
42 25 39 1
43 25 40 1
44 26 41 1
45 26 42 1
@<TRIPOS>SUBSTRUCTURE
1	UNK0	1	GROUP	1 ****	UNK
