REMARK  2 active torsions:
REMARK  status: ('A' for Active; 'I' for Inactive)
REMARK    1  A    between atoms: N_4  and  C_7 
REMARK    2  A    between atoms: C_10  and  C_13 
REMARK       I    between atoms: C_13  and  N_15 
ROOT
ATOM      1  C   UNK d   1       0.932   0.443  -0.709  0.00  0.00     0.253 C 
ATOM      2  O   UNK d   1       2.203   0.303  -0.914  0.00  0.00    -0.267 OA
ATOM      3  N   UNK d   1       0.369   1.607  -1.204  0.00  0.00    -0.348 N 
ATOM      4  C   UNK d   1      -0.990   2.077  -1.217  0.00  0.00     0.129 C 
ATOM      5  C   UNK d   1      -1.126   3.078  -0.086  0.00  0.00     0.061 C 
ATOM      6  C   UNK d   1       0.134   3.911   0.036  0.00  0.00     0.118 C 
ATOM      7  N   UNK d   1      -0.276   5.263   0.347  0.00  0.00    -0.324 N 
ATOM      8  C   UNK d   1      -0.451   5.353   1.753  0.00  0.00     0.323 C 
ATOM      9  O   UNK d   1      -1.121   6.217   2.407  0.00  0.00    -0.247 OA
ATOM     10  N   UNK d   1       0.286   4.263   2.329  0.00  0.00    -0.277 N 
ATOM     11  C   UNK d   1       0.894   3.533   1.242  0.00  0.00     0.254 C 
ATOM     12  O   UNK d   1       1.865   2.757   1.372  0.00  0.00    -0.270 OA
ATOM     13  C   UNK d   1       0.953   3.940  -1.214  0.00  0.00     0.061 C 
ATOM     14  C   UNK d   1       1.302   2.614  -1.800  0.00  0.00     0.129 C 
ATOM     15  H   UNK d   1      -0.428   6.056  -0.306  0.00  0.00     0.165 HD
ATOM     16  H   UNK d   1       0.395   4.001   3.333  0.00  0.00     0.173 HD
ENDROOT
BRANCH   1  17
ATOM     17  C   UNK d   1       0.321  -0.653   0.008  0.00  0.00     0.032 A 
ATOM     18  C   UNK d   1       1.068  -1.826   0.242  0.00  0.00     0.019 A 
ATOM     19  C   UNK d   1       0.573  -2.891   0.946  0.00  0.00     0.032 A 
ATOM     20  C   UNK d   1      -0.694  -2.886   1.476  0.00  0.00     0.058 A 
ATOM     21  C   UNK d   1      -1.441  -1.759   1.264  0.00  0.00     0.032 A 
ATOM     22  C   UNK d   1      -0.945  -0.660   0.545  0.00  0.00     0.019 A 
BRANCH  20  23
ATOM     23  N   UNK d   1      -1.181  -4.005   2.202  0.00  0.00    -0.244 N 
ATOM     24  C   UNK d   1      -2.125  -4.893   1.842  0.00  0.00     0.139 A 
ATOM     25  C   UNK d   1      -2.288  -5.820   2.848  0.00  0.00     0.047 A 
ATOM     26 Br   UNK d   1      -3.501  -7.315   2.874  0.00  0.00    -0.048 Br
ATOM     27  C   UNK d   1      -1.399  -5.451   3.833  0.00  0.00     0.159 A 
ATOM     28  N   UNK d   1      -0.765  -4.364   3.398  0.00  0.00    -0.179 NA
ENDBRANCH  20  23
ENDBRANCH   1  17
TORSDOF 2
