REMARK  4 active torsions:
REMARK  status: ('A' for Active; 'I' for Inactive)
REMARK    1  A    between atoms: C_5  and  N_8 
REMARK    2  A    between atoms: N_8  and  C_9 
REMARK    3  A    between atoms: C_10  and  N_22 
REMARK    4  A    between atoms: N_13  and  C_16 
ROOT
ATOM      1  C   UNK d   1       0.358   0.459  -0.860  0.00  0.00     0.136 A 
ATOM      2  C   UNK d   1       1.409   0.238  -0.127  0.00  0.00     0.140 A 
ATOM      3  C   UNK d   1       1.745  -1.177  -0.294  0.00  0.00     0.285 A 
ATOM      4  O   UNK d   1       2.724  -1.745   0.283  0.00  0.00    -0.265 OA
ATOM      5  N   UNK d   1       0.826  -1.823  -1.187  0.00  0.00    -0.241 N 
ATOM      6  C   UNK d   1      -0.071  -0.777  -1.558  0.00  0.00     0.284 A 
ATOM      7  O   UNK d   1      -1.052  -0.887  -2.340  0.00  0.00    -0.265 OA
ENDROOT
BRANCH   1   8
ATOM      8  N   UNK d   1      -0.360   1.664  -1.046  0.00  0.00    -0.335 N 
ATOM      9  H   UNK d   1       0.124   2.529  -1.285  0.00  0.00     0.168 HD
BRANCH   8  10
ATOM     10  C   UNK d   1      -1.765   1.634  -0.888  0.00  0.00     0.127 A 
ATOM     11  N   UNK d   1      -2.414   0.494  -0.529  0.00  0.00    -0.242 NA
ATOM     12  C   UNK d   1      -3.741   0.410  -0.382  0.00  0.00     0.138 A 
ATOM     13  C   UNK d   1      -4.544   1.500  -0.591  0.00  0.00     0.028 A 
ATOM     14 Br   UNK d   1      -6.444   1.412  -0.400  0.00  0.00    -0.050 Br
ATOM     15  C   UNK d   1      -3.954   2.688  -0.956  0.00  0.00     0.024 A 
ATOM     16  C   UNK d   1      -2.594   2.743  -1.097  0.00  0.00     0.052 A 
ENDBRANCH   8  10
ENDBRANCH   1   8
BRANCH   2  17
ATOM     17  N   UNK d   1       2.137   1.158   0.689  0.00  0.00    -0.326 N 
ATOM     18  C   UNK d   1       1.490   2.159   1.313  0.00  0.00     0.097 A 
ATOM     19  C   UNK d   1       2.177   3.086   2.116  0.00  0.00     0.018 A 
ATOM     20  C   UNK d   1       3.546   2.978   2.274  0.00  0.00     0.003 A 
ATOM     21  C   UNK d   1       4.186   1.944   1.625  0.00  0.00     0.018 A 
ATOM     22  C   UNK d   1       3.479   1.061   0.852  0.00  0.00     0.097 A 
ENDBRANCH   2  17
BRANCH   5  23
ATOM     23  C   UNK d   1       0.819  -3.184  -1.587  0.00  0.00     0.046 A 
ATOM     24  C   UNK d   1       1.876  -4.035  -1.389  0.00  0.00     0.030 A 
ATOM     25  C   UNK d   1       1.827  -5.388  -1.785  0.00  0.00     0.002 A 
ATOM     26  C   UNK d   1       0.700  -5.897  -2.389  0.00  0.00     0.000 A 
ATOM     27  C   UNK d   1      -0.360  -5.050  -2.589  0.00  0.00     0.002 A 
ATOM     28  C   UNK d   1      -0.294  -3.714  -2.191  0.00  0.00     0.030 A 
ENDBRANCH   5  23
TORSDOF 4
