# created with PyMOL 2.3.2
@<TRIPOS>MOLECULE
666
41 44 1                 
SMALL
USER_CHARGES
@<TRIPOS>ATOM
1	  Br	-6.444	1.412	-0.400	Br	1	UNK0	0.000	
2	   C	-4.544	1.500	-0.591	C.2	1	UNK0	0.000	
3	   C	-3.741	0.410	-0.382	C.2	1	UNK0	0.000	
4	   N	-2.414	0.494	-0.529	N.2	1	UNK0	0.000	
5	   C	-1.765	1.634	-0.888	C.2	1	UNK0	0.000	
6	   C	-2.594	2.743	-1.097	C.2	1	UNK0	0.000	
7	   C	-3.954	2.688	-0.956	C.2	1	UNK0	0.000	
8	   N	-0.360	1.664	-1.046	N.pl3	1	UNK0	0.000	
9	   C	0.358	0.459	-0.860	C.2	1	UNK0	0.000	
10	   C	1.409	0.238	-0.127	C.2	1	UNK0	0.000	
11	   C	1.745	-1.177	-0.294	C.2	1	UNK0	0.000	
12	   O	2.724	-1.745	0.283	O.2	1	UNK0	0.000	
13	   N	0.826	-1.823	-1.187	N.pl3	1	UNK0	0.000	
14	   C	-0.071	-0.777	-1.558	C.2	1	UNK0	0.000	
15	   O	-1.052	-0.887	-2.340	O.2	1	UNK0	0.000	
16	   C	0.819	-3.184	-1.587	C.2	1	UNK0	0.000	
17	   C	1.876	-4.035	-1.389	C.2	1	UNK0	0.000	
18	   C	1.827	-5.388	-1.785	C.2	1	UNK0	0.000	
19	   C	0.700	-5.897	-2.389	C.2	1	UNK0	0.000	
20	   C	-0.360	-5.050	-2.589	C.2	1	UNK0	0.000	
21	   C	-0.294	-3.714	-2.191	C.2	1	UNK0	0.000	
22	   N	2.137	1.158	0.689	N.pl3	1	UNK0	0.000	
23	   C	1.490	2.159	1.313	C.2	1	UNK0	0.000	
24	   C	2.177	3.086	2.116	C.2	1	UNK0	0.000	
25	   C	3.546	2.978	2.274	C.2	1	UNK0	0.000	
26	   C	4.186	1.944	1.625	C.2	1	UNK0	0.000	
27	   C	3.479	1.061	0.852	C.2	1	UNK0	0.000	
28	   H	-4.200	-0.520	-0.092	 H	1	UNK0	0.000	
29	   H	-2.095	3.666	-1.382	 H	1	UNK0	0.000	
30	   H	-4.603	3.551	-1.119	 H	1	UNK0	0.000	
31	   H	0.124	2.529	-1.285	 H	1	UNK0	0.000	
32	   H	2.772	-3.659	-0.920	 H	1	UNK0	0.000	
33	   H	2.692	-6.023	-1.607	 H	1	UNK0	0.000	
34	   H	0.674	-6.944	-2.690	 H	1	UNK0	0.000	
35	   H	-1.250	-5.442	-3.066	 H	1	UNK0	0.000	
36	   H	-1.167	-3.110	-2.376	 H	1	UNK0	0.000	
37	   H	0.416	2.224	1.176	 H	1	UNK0	0.000	
38	   H	1.608	3.880	2.605	 H	1	UNK0	0.000	
39	   H	4.095	3.693	2.895	 H	1	UNK0	0.000	
40	   H	5.252	1.852	1.739	 H	1	UNK0	0.000	
41	   H	3.982	0.231	0.330	 H	1	UNK0	0.000	
@<TRIPOS>BOND
1 1 2 1
2 2 3 2
3 2 7 1
4 3 4 1
5 4 5 2
6 5 6 1
7 5 8 1
8 6 7 2
9 8 9 1
10 9 10 2
11 9 14 1
12 10 11 1
13 10 22 1
14 11 12 2
15 11 13 1
16 13 14 1
17 13 16 1
18 14 15 2
19 16 17 2
20 16 21 1
21 17 18 1
22 18 19 2
23 19 20 1
24 20 21 2
25 22 23 2
26 22 27 1
27 23 24 1
28 24 25 2
29 25 26 1
30 26 27 2
31 3 28 1
32 6 29 1
33 7 30 1
34 8 31 1
35 17 32 1
36 18 33 1
37 19 34 1
38 20 35 1
39 21 36 1
40 23 37 1
41 24 38 1
42 25 39 1
43 26 40 1
44 27 41 1
@<TRIPOS>SUBSTRUCTURE
1	UNK0	1	GROUP	1 ****	UNK
