REMARK  3 active torsions:
REMARK  status: ('A' for Active; 'I' for Inactive)
REMARK    1  A    between atoms: C_5  and  N_8 
REMARK    2  A    between atoms: C_10  and  C_12 
REMARK    3  A    between atoms: C_12  and  N_13 
ROOT
ATOM      1  C   UNK d   1      -1.503   0.057  -0.650  0.00  0.00     0.160 C 
ENDROOT
BRANCH   1   2
ATOM      2  C   UNK d   1      -0.637  -1.122  -0.336  0.00  0.00     0.043 C 
ATOM      3  C   UNK d   1      -1.172  -2.470  -0.777  0.00  0.00     0.149 C 
ATOM      4  N   UNK d   1       0.203  -2.823  -0.983  0.00  0.00    -0.213 N 
ATOM      5  C   UNK d   1       0.399  -1.464  -1.401  0.00  0.00     0.149 C 
BRANCH   4   6
ATOM      6  C   UNK d   1       0.982  -3.976  -0.838  0.00  0.00     0.724 A 
ATOM      7  N   UNK d   1       2.303  -4.034  -1.113  0.00  0.00    -0.074 NA
ATOM      8  C   UNK d   1       3.060  -5.115  -0.982  0.00  0.00     0.157 A 
ATOM      9  C   UNK d   1       2.496  -6.288  -0.534  0.00  0.00     0.047 A 
ATOM     10 Br   UNK d   1       3.562  -7.864  -0.335  0.00  0.00    -0.048 Br
ATOM     11  C   UNK d   1       1.149  -6.269  -0.242  0.00  0.00     0.157 A 
ATOM     12  N   UNK d   1       0.429  -5.143  -0.393  0.00  0.00    -0.074 NA
ENDBRANCH   4   6
ENDBRANCH   1   2
BRANCH   1  13
ATOM     13  N   UNK d   1      -0.840   1.237  -0.161  0.00  0.00    -0.257 N 
ATOM     14  N   UNK d   1      -1.072   1.689   1.138  0.00  0.00    -0.296 N 
ATOM     15  C   UNK d   1      -0.441   2.848   1.665  0.00  0.00     0.051 A 
ATOM     16  H   UNK d   1      -1.750   1.124   1.728  0.00  0.00     0.187 HD
ATOM     17  C   UNK d   1      -0.696   3.232   2.901  0.00  0.00    -0.051 A 
ATOM     18  C   UNK d   1       0.483   3.612   0.850  0.00  0.00     0.036 A 
ATOM     19  C   UNK d   1      -1.331   3.160   4.232  0.00  0.00     0.041 A 
ATOM     20  C   UNK d   1      -0.407   4.255   3.981  0.00  0.00     0.041 A 
ATOM     21  C   UNK d   1       0.718   3.202  -0.386  0.00  0.00     0.078 A 
ATOM     22  C   UNK d   1       0.068   1.998  -0.943  0.00  0.00     0.262 A 
ATOM     23  O   UNK d   1       0.309   1.629  -2.123  0.00  0.00    -0.267 OA
ENDBRANCH   1  13
TORSDOF 3
