# created with PyMOL 2.3.2
@<TRIPOS>MOLECULE
680
40 43 1                 
SMALL
USER_CHARGES
@<TRIPOS>ATOM
1	  Br	-3.567	-5.143	1.274	Br	1	UNK0	0.000	
2	   C	-3.121	-4.644	-0.508	C.2	1	UNK0	0.000	
3	   C	-3.540	-5.435	-1.551	C.2	1	UNK0	0.000	
4	   N	-3.232	-5.093	-2.828	N.2	1	UNK0	0.000	
5	   C	-2.520	-3.993	-3.096	C.2	1	UNK0	0.000	
6	   C	-2.052	-3.130	-2.096	C.2	1	UNK0	0.000	
7	   C	-2.386	-3.510	-0.816	C.2	1	UNK0	0.000	
8	   C	-1.301	-1.947	-2.444	C.2	1	UNK0	0.000	
9	   O	-1.163	-1.737	-3.705	O.2	1	UNK0	0.000	
10	   N	-0.715	-1.016	-1.566	N.pl3	1	UNK0	0.000	
11	   C	-0.556	-0.792	-0.163	C.3	1	UNK0	0.000	
12	   C	0.734	-0.024	-0.503	C.3	1	UNK0	0.000	
13	   C	0.021	0.248	-1.773	C.3	1	UNK0	0.000	
14	   N	0.948	1.082	0.389	N.pl3	1	UNK0	0.000	
15	   C	2.133	1.409	1.139	C.2	1	UNK0	0.000	
16	   O	3.287	1.066	0.829	O.2	1	UNK0	0.000	
17	   C	1.655	2.218	2.313	C.3	1	UNK0	0.000	
18	   C	0.582	3.045	1.645	C.3	1	UNK0	0.000	
19	   C	-0.400	3.580	2.650	C.3	1	UNK0	0.000	
20	   C	-1.033	2.449	3.380	C.2	1	UNK0	0.000	
21	   C	-0.281	1.406	3.666	C.2	1	UNK0	0.000	
22	   C	1.141	1.254	3.327	C.3	1	UNK0	0.000	
23	   C	-0.014	2.085	0.696	C.2	1	UNK0	0.000	
24	   O	-1.188	2.185	0.262	O.2	1	UNK0	0.000	
25	   H	-4.116	-6.324	-1.326	 H	1	UNK0	0.000	
26	   H	-2.299	-3.762	-4.124	 H	1	UNK0	0.000	
27	   H	-2.083	-2.913	0.007	 H	1	UNK0	0.000	
28	   H	-0.241	-1.645	0.475	 H	1	UNK0	0.000	
29	   H	-1.340	-0.144	0.305	 H	1	UNK0	0.000	
30	   H	1.574	-0.713	-0.639	 H	1	UNK0	0.000	
31	   H	-0.723	1.069	-1.758	 H	1	UNK0	0.000	
32	   H	0.613	0.242	-2.705	 H	1	UNK0	0.000	
33	   H	2.471	2.855	2.709	 H	1	UNK0	0.000	
34	   H	1.069	3.905	1.143	 H	1	UNK0	0.000	
35	   H	-1.126	4.218	2.130	 H	1	UNK0	0.000	
36	   H	0.185	4.177	3.386	 H	1	UNK0	0.000	
37	   H	-2.090	2.531	3.647	 H	1	UNK0	0.000	
38	   H	-0.756	0.577	4.204	 H	1	UNK0	0.000	
39	   H	1.291	0.180	3.016	 H	1	UNK0	0.000	
40	   H	1.716	1.347	4.273	 H	1	UNK0	0.000	
@<TRIPOS>BOND
1 1 2 1
2 2 3 2
3 2 7 1
4 3 4 1
5 4 5 2
6 5 6 1
7 6 7 2
8 6 8 1
9 8 9 2
10 8 10 1
11 10 11 1
12 10 13 1
13 11 12 1
14 12 13 1
15 12 14 1
16 14 15 1
17 14 23 1
18 15 16 2
19 15 17 1
20 17 18 1
21 17 22 1
22 18 19 1
23 18 23 1
24 19 20 1
25 20 21 2
26 21 22 1
27 23 24 2
28 3 25 1
29 5 26 1
30 7 27 1
31 11 28 1
32 11 29 1
33 12 30 1
34 13 31 1
35 13 32 1
36 17 33 1
37 18 34 1
38 19 35 1
39 19 36 1
40 20 37 1
41 21 38 1
42 22 39 1
43 22 40 1
@<TRIPOS>SUBSTRUCTURE
1	UNK0	1	GROUP	1 ****	UNK
