REMARK  2 active torsions:
REMARK  status: ('A' for Active; 'I' for Inactive)
REMARK    1  A    between atoms: C_6  and  C_8 
REMARK       I    between atoms: C_8  and  N_10 
REMARK    2  A    between atoms: C_12  and  N_14 
ROOT
ATOM      1  C   UNK d   1      -1.301  -1.947  -2.444  0.00  0.00     0.255 C 
ATOM      2  O   UNK d   1      -1.163  -1.737  -3.705  0.00  0.00    -0.267 OA
ATOM      3  N   UNK d   1      -0.715  -1.016  -1.566  0.00  0.00    -0.344 N 
ATOM      4  C   UNK d   1      -0.556  -0.792  -0.163  0.00  0.00     0.153 C 
ATOM      5  C   UNK d   1       0.734  -0.024  -0.503  0.00  0.00     0.132 C 
ATOM      6  C   UNK d   1       0.021   0.248  -1.773  0.00  0.00     0.153 C 
ENDROOT
BRANCH   5   7
ATOM      7  N   UNK d   1       0.948   1.082   0.389  0.00  0.00    -0.280 N 
ATOM      8  C   UNK d   1       2.133   1.409   1.139  0.00  0.00     0.232 C 
ATOM      9  O   UNK d   1       3.287   1.066   0.829  0.00  0.00    -0.272 OA
ATOM     10  C   UNK d   1       1.655   2.218   2.313  0.00  0.00     0.095 C 
ATOM     11  C   UNK d   1       0.582   3.045   1.645  0.00  0.00     0.095 C 
ATOM     12  C   UNK d   1       1.141   1.254   3.327  0.00  0.00     0.041 C 
ATOM     13  C   UNK d   1      -0.400   3.580   2.650  0.00  0.00     0.041 C 
ATOM     14  C   UNK d   1      -0.014   2.085   0.696  0.00  0.00     0.232 C 
ATOM     15  C   UNK d   1      -1.033   2.449   3.380  0.00  0.00    -0.030 C 
ATOM     16  C   UNK d   1      -0.281   1.406   3.666  0.00  0.00    -0.030 C 
ATOM     17  O   UNK d   1      -1.188   2.185   0.262  0.00  0.00    -0.272 OA
ENDBRANCH   5   7
BRANCH   1  18
ATOM     18  C   UNK d   1      -2.052  -3.130  -2.096  0.00  0.00     0.051 A 
ATOM     19  C   UNK d   1      -2.520  -3.993  -3.096  0.00  0.00     0.133 A 
ATOM     20  N   UNK d   1      -3.232  -5.093  -2.828  0.00  0.00    -0.271 NA
ATOM     21  C   UNK d   1      -3.540  -5.435  -1.551  0.00  0.00     0.135 A 
ATOM     22  C   UNK d   1      -3.121  -4.644  -0.508  0.00  0.00     0.029 A 
ATOM     23 Br   UNK d   1      -3.567  -5.143   1.274  0.00  0.00    -0.050 Br
ATOM     24  C   UNK d   1      -2.386  -3.510  -0.816  0.00  0.00     0.039 A 
ENDBRANCH   1  18
TORSDOF 2
