REMARK  3 active torsions:
REMARK  status: ('A' for Active; 'I' for Inactive)
REMARK    1  A    between atoms: C_6  and  C_8 
REMARK       I    between atoms: C_8  and  N_10 
REMARK    2  A    between atoms: C_12  and  O_14 
REMARK    3  A    between atoms: O_14  and  C_15 
ROOT
ATOM      1  C   UNK d   1       1.243  -1.276  -0.075  0.00  0.00     0.255 C 
ATOM      2  O   UNK d   1       2.455  -0.990   0.175  0.00  0.00    -0.267 OA
ATOM      3  N   UNK d   1       0.667  -0.782  -1.252  0.00  0.00    -0.343 N 
ATOM      4  C   UNK d   1      -0.572  -0.807  -1.983  0.00  0.00     0.160 C 
ATOM      5  C   UNK d   1       0.052  -0.123  -3.190  0.00  0.00     0.166 C 
ATOM      6  C   UNK d   1       1.236   0.092  -2.297  0.00  0.00     0.160 C 
ENDROOT
BRANCH   5   7
ATOM      7  O   UNK d   1      -0.581   1.025  -3.662  0.00  0.00    -0.325 OA
BRANCH   7   8
ATOM      8  C   UNK d   1      -0.783   2.192  -2.954  0.00  0.00     0.186 A 
ATOM      9  C   UNK d   1      -1.912   2.363  -2.271  0.00  0.00     0.087 A 
ATOM     10  C   UNK d   1      -2.184   3.572  -1.504  0.00  0.00     0.044 A 
ATOM     11  C   UNK d   1      -3.316   3.708  -0.836  0.00  0.00     0.043 C 
ATOM     12  N   UNK d   1      -1.191   4.588  -1.506  0.00  0.00    -0.189 N 
ATOM     13  C   UNK d   1       0.017   4.376  -2.253  0.00  0.00     0.731 A 
ATOM     14  H   UNK d   1      -1.373   5.450  -0.965  0.00  0.00     0.184 HD
ATOM     15  N   UNK d   1       0.207   3.240  -2.939  0.00  0.00    -0.038 N 
ATOM     16  N   UNK d   1       1.097   5.142  -2.435  0.00  0.00    -0.054 NA
ATOM     17  N   UNK d   1       1.398   3.297  -3.544  0.00  0.00    -0.143 NA
ATOM     18  C   UNK d   1       1.943   4.477  -3.228  0.00  0.00     0.275 A 
ENDBRANCH   7   8
ENDBRANCH   5   7
BRANCH   1  19
ATOM     19  C   UNK d   1       0.531  -2.095   0.874  0.00  0.00     0.051 A 
ATOM     20  C   UNK d   1      -0.786  -2.473   0.802  0.00  0.00     0.133 A 
ATOM     21  N   UNK d   1      -1.385  -3.261   1.742  0.00  0.00    -0.271 NA
ATOM     22  C   UNK d   1      -0.728  -3.727   2.810  0.00  0.00     0.135 A 
ATOM     23  C   UNK d   1       0.598  -3.382   2.937  0.00  0.00     0.029 A 
ATOM     24 Br   UNK d   1       1.573  -4.034   4.460  0.00  0.00    -0.050 Br
ATOM     25  C   UNK d   1       1.213  -2.590   2.001  0.00  0.00     0.039 A 
ENDBRANCH   1  19
TORSDOF 3
