# created with PyMOL 2.3.2
@<TRIPOS>MOLECULE
681
37 40 1                 
SMALL
USER_CHARGES
@<TRIPOS>ATOM
1	  Br	1.573	-4.034	4.460	Br	1	UNK0	0.000	
2	   C	0.598	-3.382	2.937	C.2	1	UNK0	0.000	
3	   C	-0.728	-3.727	2.810	C.2	1	UNK0	0.000	
4	   N	-1.385	-3.261	1.742	N.2	1	UNK0	0.000	
5	   C	-0.786	-2.473	0.802	C.2	1	UNK0	0.000	
6	   C	0.531	-2.095	0.874	C.2	1	UNK0	0.000	
7	   C	1.213	-2.590	2.001	C.2	1	UNK0	0.000	
8	   C	1.243	-1.276	-0.075	C.2	1	UNK0	0.000	
9	   O	2.455	-0.990	0.175	O.2	1	UNK0	0.000	
10	   N	0.667	-0.782	-1.252	N.pl3	1	UNK0	0.000	
11	   C	-0.572	-0.807	-1.983	C.3	1	UNK0	0.000	
12	   C	0.052	-0.123	-3.190	C.3	1	UNK0	0.000	
13	   C	1.236	0.092	-2.297	C.3	1	UNK0	0.000	
14	   O	-0.581	1.025	-3.662	O.3	1	UNK0	0.000	
15	   C	-0.783	2.192	-2.954	C.2	1	UNK0	0.000	
16	   C	-1.912	2.363	-2.271	C.2	1	UNK0	0.000	
17	   C	-2.184	3.572	-1.504	C.2	1	UNK0	0.000	
18	   C	-3.316	3.708	-0.836	C.2	1	UNK0	0.000	
19	   N	-1.191	4.588	-1.506	N.pl3	1	UNK0	0.000	
20	   C	0.017	4.376	-2.253	C.2	1	UNK0	0.000	
21	   N	0.207	3.240	-2.939	N.pl3	1	UNK0	0.000	
22	   N	1.398	3.297	-3.544	N.2	1	UNK0	0.000	
23	   C	1.943	4.477	-3.228	C.2	1	UNK0	0.000	
24	   N	1.097	5.142	-2.435	N.2	1	UNK0	0.000	
25	   H	-1.231	-4.362	3.555	 H	1	UNK0	0.000	
26	   H	-1.365	-2.112	-0.045	 H	1	UNK0	0.000	
27	   H	2.255	-2.328	2.116	 H	1	UNK0	0.000	
28	   H	-0.911	-1.833	-2.283	 H	1	UNK0	0.000	
29	   H	-1.338	-0.215	-1.468	 H	1	UNK0	0.000	
30	   H	0.234	-0.841	-4.031	 H	1	UNK0	0.000	
31	   H	1.333	1.092	-1.880	 H	1	UNK0	0.000	
32	   H	2.178	-0.286	-2.713	 H	1	UNK0	0.000	
33	   H	-2.656	1.552	-2.306	 H	1	UNK0	0.000	
34	   H	-3.482	4.609	-0.284	 H	1	UNK0	0.000	
35	   H	-4.055	2.946	-0.838	 H	1	UNK0	0.000	
36	   H	-1.373	5.450	-0.965	 H	1	UNK0	0.000	
37	   H	2.917	4.871	-3.545	 H	1	UNK0	0.000	
@<TRIPOS>BOND
1 1 2 1
2 2 3 2
3 2 7 1
4 3 4 1
5 4 5 2
6 5 6 1
7 6 7 2
8 6 8 1
9 8 9 2
10 8 10 1
11 10 11 1
12 10 13 1
13 11 12 1
14 12 13 1
15 12 14 1
16 14 15 1
17 15 16 2
18 15 21 1
19 16 17 1
20 17 18 2
21 17 19 1
22 19 20 1
23 20 21 1
24 20 24 2
25 21 22 1
26 22 23 2
27 23 24 1
28 3 25 1
29 5 26 1
30 7 27 1
31 11 28 1
32 11 29 1
33 12 30 1
34 13 31 1
35 13 32 1
36 16 33 1
37 18 34 1
38 18 35 1
39 19 36 1
40 23 37 1
@<TRIPOS>SUBSTRUCTURE
1	UNK0	1	GROUP	1 ****	UNK
