REMARK  2 active torsions:
REMARK  status: ('A' for Active; 'I' for Inactive)
REMARK    1  A    between atoms: C_6  and  C_8 
REMARK    2  A    between atoms: C_21  and  N_22 
ROOT
ATOM      1 Br   UNK d   1       1.993  -1.320   2.008  0.00  0.00    -0.050 Br
ATOM      2  C   UNK d   1       2.449  -0.035   0.701  0.00  0.00     0.029 A 
ATOM      3  C   UNK d   1       3.776   0.142   0.344  0.00  0.00     0.135 A 
ATOM      4  N   UNK d   1       4.049   1.066  -0.589  0.00  0.00    -0.271 NA
ATOM      5  C   UNK d   1       3.118   1.822  -1.191  0.00  0.00     0.134 A 
ATOM      6  C   UNK d   1       1.806   1.641  -0.831  0.00  0.00     0.059 A 
ATOM      7  C   UNK d   1       1.440   0.707   0.124  0.00  0.00     0.040 A 
ENDROOT
BRANCH   6   8
ATOM      8  C   UNK d   1       0.768   2.441  -1.461  0.00  0.00     0.210 C 
ATOM      9  O   UNK d   1       1.064   3.303  -2.336  0.00  0.00    -0.644 OA
ATOM     10  O   UNK d   1      -0.565   2.287  -1.124  0.00  0.00    -0.644 OA
ENDBRANCH   6   8
TORSDOF 2
