# created with PyMOL 2.3.2
@<TRIPOS>MOLECULE
683
48 50 1                 
SMALL
USER_CHARGES
@<TRIPOS>ATOM
1	  Br	1.993	-1.320	2.008	Br	1	UNK0	0.000	
2	   C	2.449	-0.035	0.701	C.2	1	UNK0	0.000	
3	   C	3.776	0.142	0.344	C.2	1	UNK0	0.000	
4	   N	4.049	1.066	-0.589	N.2	1	UNK0	0.000	
5	   C	3.118	1.822	-1.191	C.2	1	UNK0	0.000	
6	   C	1.806	1.641	-0.831	C.2	1	UNK0	0.000	
7	   C	1.440	0.707	0.124	C.2	1	UNK0	0.000	
8	   C	0.768	2.441	-1.461	C.2	1	UNK0	0.000	
9	   O	1.064	3.303	-2.336	O.co2	1	UNK0	0.000	
10	   O	-0.565	2.287	-1.124	O.co2	1	UNK0	0.000	
11	   N	3.033	-0.836	-0.371	N.4	1	UNK0	0.000	
12	   C	3.914	0.303	-0.172	C.3	1	UNK0	0.000	
13	   C	3.197	1.472	0.465	C.3	1	UNK0	0.000	
14	   C	2.595	2.361	-0.609	C.3	1	UNK0	0.000	
15	   C	1.363	1.721	-1.208	C.3	1	UNK0	0.000	
16	   C	0.933	0.598	-0.360	C.2	1	UNK0	0.000	
17	   C	1.675	-0.504	-0.009	C.2	1	UNK0	0.000	
18	   N	1.131	-1.439	0.774	N.2	1	UNK0	0.000	
19	   C	-0.120	-1.344	1.233	C.2	1	UNK0	0.000	
20	   C	-0.879	-0.253	0.895	C.2	1	UNK0	0.000	
21	   C	-0.343	0.729	0.087	C.2	1	UNK0	0.000	
22	   N	-1.156	1.863	-0.255	N.pl3	1	UNK0	0.000	
23	   C	-2.188	-0.103	1.345	C.2	1	UNK0	0.000	
24	   C	-2.708	-1.088	2.147	C.2	1	UNK0	0.000	
25	   C	-1.947	-2.180	2.485	C.2	1	UNK0	0.000	
26	   C	-0.637	-2.320	2.029	C.2	1	UNK0	0.000	
27	   C	3.475	-1.899	0.525	C.3	1	UNK0	0.000	
28	   H	4.531	-0.461	0.820	 H	1	UNK0	0.000	
29	   H	3.414	2.543	-1.929	 H	1	UNK0	0.000	
30	   H	0.430	0.543	0.424	 H	1	UNK0	0.000	
31	   H	3.076	-1.161	-1.364	 H	1	UNK0	0.000	
32	   H	4.382	0.651	-1.105	 H	1	UNK0	0.000	
33	   H	4.760	0.043	0.516	 H	1	UNK0	0.000	
34	   H	3.948	2.094	0.997	 H	1	UNK0	0.000	
35	   H	2.424	1.060	1.135	 H	1	UNK0	0.000	
36	   H	2.368	3.333	-0.168	 H	1	UNK0	0.000	
37	   H	3.347	2.478	-1.405	 H	1	UNK0	0.000	
38	   H	0.571	2.491	-1.311	 H	1	UNK0	0.000	
39	   H	1.565	1.373	-2.262	 H	1	UNK0	0.000	
40	   H	-0.890	2.803	0.078	 H	1	UNK0	0.000	
41	   H	-2.018	1.753	-0.837	 H	1	UNK0	0.000	
42	   H	-2.759	0.766	1.062	 H	1	UNK0	0.000	
43	   H	-3.724	-1.014	2.522	 H	1	UNK0	0.000	
44	   H	-2.348	-2.954	3.112	 H	1	UNK0	0.000	
45	   H	-0.020	-3.170	2.281	 H	1	UNK0	0.000	
46	   H	4.577	-1.921	0.490	 H	1	UNK0	0.000	
47	   H	2.994	-2.855	0.271	 H	1	UNK0	0.000	
48	   H	3.188	-1.601	1.565	 H	1	UNK0	0.000	
@<TRIPOS>BOND
1 1 2 1
2 2 3 2
3 2 7 1
4 3 4 1
5 4 5 2
6 5 6 1
7 6 7 2
8 6 8 1
9 8 9 2
10 8 10 1
11 11 12 1
12 11 17 1
13 11 27 1
14 12 13 1
15 13 14 1
16 14 15 1
17 15 16 1
18 16 17 2
19 16 21 1
20 17 18 1
21 18 19 2
22 19 20 1
23 19 26 1
24 20 21 2
25 20 23 1
26 21 22 1
27 23 24 2
28 24 25 1
29 25 26 2
30 3 28 1
31 5 29 1
32 7 30 1
33 11 31 1
34 12 32 1
35 12 33 1
36 13 34 1
37 13 35 1
38 14 36 1
39 14 37 1
40 15 38 1
41 15 39 1
42 22 40 1
43 22 41 1
44 23 42 1
45 24 43 1
46 25 44 1
47 26 45 1
48 27 46 1
49 27 47 1
50 27 48 1
@<TRIPOS>SUBSTRUCTURE
1	UNK0	1	GROUP	1 ****	UNK
