REMARK  2 active torsions:
REMARK  status: ('A' for Active; 'I' for Inactive)
REMARK    1  A    between atoms: C_6  and  C_8 
REMARK    2  A    between atoms: C_20  and  N_21 
ROOT
ATOM      1 Br   UNK d   1      -0.214  -3.690  -0.924  0.00  0.00    -0.050 Br
ATOM      2  C   UNK d   1       0.196  -1.945  -0.278  0.00  0.00     0.029 A 
ATOM      3  C   UNK d   1       0.238  -0.847  -1.110  0.00  0.00     0.135 A 
ATOM      4  N   UNK d   1       0.527   0.387  -0.661  0.00  0.00    -0.271 NA
ATOM      5  C   UNK d   1       0.783   0.554   0.645  0.00  0.00     0.134 A 
ATOM      6  C   UNK d   1       0.761  -0.491   1.541  0.00  0.00     0.059 A 
ATOM      7  C   UNK d   1       0.464  -1.738   1.057  0.00  0.00     0.040 A 
ENDROOT
BRANCH   6   8
ATOM      8  C   UNK d   1       1.041  -0.293   2.958  0.00  0.00     0.210 C 
ATOM      9  O   UNK d   1       1.010  -1.275   3.739  0.00  0.00    -0.644 OA
ATOM     10  O   UNK d   1       1.337   0.989   3.397  0.00  0.00    -0.644 OA
ENDBRANCH   6   8
TORSDOF 2
