REMARK  4 active torsions:
REMARK  status: ('A' for Active; 'I' for Inactive)
REMARK    1  A    between atoms: C_11  and  C_14 
REMARK    2  A    between atoms: C_11  and  C_21 
REMARK    3  A    between atoms: C_14  and  N_15 
REMARK    4  A    between atoms: C_21  and  N_22 
ROOT
ATOM      1 Br   UNK d   1       0.265  -5.531   2.929  0.00  0.00    -0.048 Br
ATOM      2  C   UNK d   1       1.134  -4.746   1.433  0.00  0.00     0.046 A 
ATOM      3  C   UNK d   1       0.712  -3.514   0.971  0.00  0.00     0.100 A 
ATOM      4  C   UNK d   1       1.309  -2.880  -0.129  0.00  0.00     0.047 A 
ATOM      5  C   UNK d   1       2.350  -3.501  -0.773  0.00  0.00     0.037 A 
ATOM      6  C   UNK d   1       2.777  -4.733  -0.316  0.00  0.00     0.013 A 
ATOM      7  C   UNK d   1       2.191  -5.356   0.764  0.00  0.00     0.041 A 
ATOM      8 Br   UNK d   1       4.218  -5.622  -1.185  0.00  0.00    -0.051 Br
ATOM      9  C   UNK d   1       0.819  -1.586  -0.588  0.00  0.00     0.176 C 
ATOM     10  O   UNK d   1       1.074  -1.296  -1.789  0.00  0.00    -0.291 OA
ATOM     11  C   UNK d   1       0.079  -0.676   0.279  0.00  0.00     0.095 C 
ATOM     12  C   UNK d   1      -0.210  -1.398   1.622  0.00  0.00     0.197 C 
ATOM     13  O   UNK d   1      -0.320  -2.770   1.516  0.00  0.00    -0.347 OA
ENDROOT
BRANCH  11  14
ATOM     14  C   UNK d   1       0.732   0.566   0.680  0.00  0.00     0.256 C 
BRANCH  14  15
ATOM     15  N   UNK d   1       1.210   1.564  -0.159  0.00  0.00    -0.070 N 
ATOM     16  C   UNK d   1       0.372   2.143  -1.162  0.00  0.00     0.235 C 
ATOM     17  C   UNK d   1       0.955   3.551  -1.447  0.00  0.00     0.028 C 
ATOM     18  C   UNK d   1       2.225   3.300  -2.233  0.00  0.00     0.003 C 
ATOM     19  C   UNK d   1       2.700   1.871  -2.091  0.00  0.00     0.028 C 
ATOM     20  C   UNK d   1       2.559   1.369  -0.670  0.00  0.00     0.235 C 
ATOM     21  H   UNK d   1       1.354   2.406   0.512  0.00  0.00     0.279 HD
ENDBRANCH  14  15
ENDBRANCH  11  14
BRANCH  11  22
ATOM     22  C   UNK d   1      -1.248  -0.366  -0.396  0.00  0.00     0.256 C 
BRANCH  22  23
ATOM     23  N   UNK d   1      -2.054  -1.541  -0.619  0.00  0.00    -0.070 N 
ATOM     24  C   UNK d   1      -2.657  -1.424  -1.939  0.00  0.00     0.235 C 
ATOM     25  C   UNK d   1      -3.381  -0.122  -2.031  0.00  0.00     0.028 C 
ATOM     26  C   UNK d   1      -4.369   0.130  -0.952  0.00  0.00     0.003 C 
ATOM     27  C   UNK d   1      -4.002  -0.400   0.391  0.00  0.00     0.028 C 
ATOM     28  C   UNK d   1      -3.185  -1.668   0.282  0.00  0.00     0.235 C 
ATOM     29  H   UNK d   1      -1.500  -2.410  -0.519  0.00  0.00     0.279 HD
ENDBRANCH  22  23
ENDBRANCH  11  22
TORSDOF 4
