# created with PyMOL 2.3.2
@<TRIPOS>MOLECULE
695
31 34 1                 
SMALL
USER_CHARGES
@<TRIPOS>ATOM
1	  Br	2.700	-0.925	-3.812	Br	1	UNK0	0.000	
2	   C	1.590	-0.541	-2.292	C.2	1	UNK0	0.000	
3	   C	1.491	-1.510	-1.316	C.2	1	UNK0	0.000	
4	   C	0.698	-1.236	-0.229	C.2	1	UNK0	0.000	
5	   C	0.024	-0.017	-0.134	C.2	1	UNK0	0.000	
6	   C	0.116	0.956	-1.102	C.2	1	UNK0	0.000	
7	   C	0.926	0.666	-2.204	C.2	1	UNK0	0.000	
8	   C	-0.587	2.262	-1.026	C.3	1	UNK0	0.000	
9	   N	-1.135	2.435	0.297	N.pl3	1	UNK0	0.000	
10	   C	-0.227	2.470	1.414	C.2	1	UNK0	0.000	
11	   N	1.095	2.345	1.235	N.2	1	UNK0	0.000	
12	   C	1.936	2.379	2.284	C.2	1	UNK0	0.000	
13	   C	1.465	2.544	3.583	C.2	1	UNK0	0.000	
14	   N	0.149	2.668	3.753	N.pl3	1	UNK0	0.000	
15	   C	-0.703	2.634	2.696	C.2	1	UNK0	0.000	
16	   N	-1.950	2.782	3.172	N.2	1	UNK0	0.000	
17	   N	-1.915	2.908	4.488	N.2	1	UNK0	0.000	
18	   C	-0.628	2.837	4.838	C.2	1	UNK0	0.000	
19	   O	0.766	-2.358	0.599	O.3	1	UNK0	0.000	
20	   C	1.157	-3.468	-0.224	C.3	1	UNK0	0.000	
21	   O	2.031	-2.789	-1.137	O.3	1	UNK0	0.000	
22	   H	-0.586	0.152	0.729	 H	1	UNK0	0.000	
23	   H	1.040	1.386	-2.997	 H	1	UNK0	0.000	
24	   H	-1.457	2.234	-1.737	 H	1	UNK0	0.000	
25	   H	0.072	3.105	-1.321	 H	1	UNK0	0.000	
26	   H	-2.151	2.534	0.461	 H	1	UNK0	0.000	
27	   H	3.001	2.281	2.168	 H	1	UNK0	0.000	
28	   H	2.139	2.570	4.416	 H	1	UNK0	0.000	
29	   H	-0.292	2.910	5.872	 H	1	UNK0	0.000	
30	   H	1.663	-4.249	0.340	 H	1	UNK0	0.000	
31	   H	0.278	-3.806	-0.806	 H	1	UNK0	0.000	
@<TRIPOS>BOND
1 1 2 1
2 2 3 2
3 2 7 1
4 3 4 1
5 3 21 1
6 4 5 2
7 4 19 1
8 5 6 1
9 6 7 2
10 6 8 1
11 8 9 1
12 9 10 1
13 10 11 2
14 10 15 1
15 11 12 1
16 12 13 2
17 13 14 1
18 14 15 1
19 14 18 1
20 15 16 2
21 16 17 1
22 17 18 2
23 19 20 1
24 20 21 1
25 5 22 1
26 7 23 1
27 8 24 1
28 8 25 1
29 9 26 1
30 12 27 1
31 13 28 1
32 18 29 1
33 20 30 1
34 20 31 1
@<TRIPOS>SUBSTRUCTURE
1	UNK0	1	GROUP	1 ****	UNK
