REMARK  3 active torsions:
REMARK  status: ('A' for Active; 'I' for Inactive)
REMARK    1  A    between atoms: C_6  and  C_8 
REMARK    2  A    between atoms: C_8  and  N_9 
REMARK    3  A    between atoms: N_9  and  C_10 
ROOT
ATOM      1  C   UNK d   1      -0.587   2.262  -1.026  0.00  0.00     0.160 C 
ENDROOT
BRANCH   1   2
ATOM      2  C   UNK d   1       0.116   0.956  -1.102  0.00  0.00    -0.036 A 
ATOM      3  C   UNK d   1       0.024  -0.017  -0.134  0.00  0.00     0.048 A 
ATOM      4  C   UNK d   1       0.698  -1.236  -0.229  0.00  0.00     0.106 A 
ATOM      5  C   UNK d   1       1.491  -1.510  -1.316  0.00  0.00     0.122 A 
ATOM      6  O   UNK d   1       0.766  -2.358   0.599  0.00  0.00    -0.323 OA
ATOM      7  C   UNK d   1       1.590  -0.541  -2.292  0.00  0.00     0.047 A 
ATOM      8  O   UNK d   1       2.031  -2.789  -1.137  0.00  0.00    -0.322 OA
ATOM      9 Br   UNK d   1       2.700  -0.925  -3.812  0.00  0.00    -0.048 Br
ATOM     10  C   UNK d   1       0.926   0.666  -2.204  0.00  0.00     0.031 A 
ATOM     11  C   UNK d   1       1.157  -3.468  -0.224  0.00  0.00     0.352 C 
ENDBRANCH   1   2
BRANCH   1  12
ATOM     12  N   UNK d   1      -1.135   2.435   0.297  0.00  0.00    -0.367 N 
ATOM     13  H   UNK d   1      -2.151   2.534   0.461  0.00  0.00     0.161 HD
BRANCH  12  14
ATOM     14  C   UNK d   1      -0.227   2.470   1.414  0.00  0.00     0.172 A 
ATOM     15  N   UNK d   1       1.095   2.345   1.235  0.00  0.00    -0.239 NA
ATOM     16  C   UNK d   1       1.936   2.379   2.284  0.00  0.00     0.136 A 
ATOM     17  C   UNK d   1       1.465   2.544   3.583  0.00  0.00     0.119 A 
ATOM     18  N   UNK d   1       0.149   2.668   3.753  0.00  0.00    -0.294 N 
ATOM     19  C   UNK d   1      -0.703   2.634   2.696  0.00  0.00     0.203 A 
ATOM     20  C   UNK d   1      -0.628   2.837   4.838  0.00  0.00     0.240 A 
ATOM     21  N   UNK d   1      -1.950   2.782   3.172  0.00  0.00    -0.126 NA
ATOM     22  N   UNK d   1      -1.915   2.908   4.488  0.00  0.00    -0.143 NA
ENDBRANCH  12  14
ENDBRANCH   1  12
TORSDOF 3
