REMARK  5 active torsions:
REMARK  status: ('A' for Active; 'I' for Inactive)
REMARK    1  A    between atoms: C_9  and  O_25 
REMARK    2  A    between atoms: C_10  and  C_13 
REMARK    3  A    between atoms: C_10  and  C_19 
REMARK    4  A    between atoms: C_13  and  N_14 
REMARK    5  A    between atoms: C_19  and  N_20 
ROOT
ATOM      1 Br   UNK d   1       1.544  -5.049   0.329  0.00  0.00    -0.048 Br
ATOM      2  C   UNK d   1       0.458  -3.760   1.202  0.00  0.00     0.045 A 
ATOM      3  C   UNK d   1      -0.029  -2.668   0.471  0.00  0.00     0.095 A 
ATOM      4  C   UNK d   1      -0.819  -1.717   1.041  0.00  0.00     0.007 A 
ATOM      5  C   UNK d   1      -1.142  -1.841   2.381  0.00  0.00     0.019 A 
ATOM      6  C   UNK d   1      -0.663  -2.921   3.114  0.00  0.00    -0.060 A 
ATOM      7  C   UNK d   1       0.134  -3.881   2.535  0.00  0.00     0.028 A 
ATOM      8  C   UNK d   1      -0.988  -3.091   4.559  0.00  0.00     0.048 C 
ATOM      9  C   UNK d   1      -1.359  -0.589   0.234  0.00  0.00     0.168 C 
ATOM     10  C   UNK d   1      -0.524  -0.123  -0.904  0.00  0.00     0.060 C 
ATOM     11  C   UNK d   1       0.609  -1.131  -1.213  0.00  0.00     0.191 C 
ATOM     12  O   UNK d   1       0.246  -2.459  -0.873  0.00  0.00    -0.348 OA
ENDROOT
BRANCH  10  13
ATOM     13  C   UNK d   1       0.241   1.150  -0.595  0.00  0.00     0.251 C 
BRANCH  13  14
ATOM     14  N   UNK d   1       1.140   1.054   0.535  0.00  0.00    -0.070 N 
ATOM     15  C   UNK d   1       0.719   1.993   1.575  0.00  0.00     0.235 C 
ATOM     16  C   UNK d   1       1.905   2.303   2.411  0.00  0.00     0.029 C 
ATOM     17  C   UNK d   1       3.044   1.691   1.668  0.00  0.00     0.029 C 
ATOM     18  C   UNK d   1       2.463   1.585   0.252  0.00  0.00     0.235 C 
ATOM     19  H   UNK d   1       1.277   0.106   0.914  0.00  0.00     0.279 HD
ENDBRANCH  13  14
ENDBRANCH  10  13
BRANCH  10  20
ATOM     20  C   UNK d   1      -1.282  -0.052  -2.175  0.00  0.00     0.251 C 
BRANCH  20  21
ATOM     21  N   UNK d   1      -2.370   0.711  -2.510  0.00  0.00    -0.070 N 
ATOM     22  C   UNK d   1      -3.456  -0.149  -3.032  0.00  0.00     0.235 C 
ATOM     23  C   UNK d   1      -4.729   0.469  -2.601  0.00  0.00     0.029 C 
ATOM     24  C   UNK d   1      -4.422   1.283  -1.403  0.00  0.00     0.029 C 
ATOM     25  C   UNK d   1      -2.930   1.574  -1.554  0.00  0.00     0.235 C 
ATOM     26  H   UNK d   1      -2.178   1.300  -3.435  0.00  0.00     0.279 HD
ENDBRANCH  20  21
ENDBRANCH  10  20
BRANCH   9  27
ATOM     27  O   UNK d   1      -2.634  -1.082  -0.162  0.00  0.00    -0.390 OA
ATOM     28  H   UNK d   1      -3.285  -0.993   0.555  0.00  0.00     0.210 HD
ENDBRANCH   9  27
TORSDOF 5
