REMARK  7 active torsions:
REMARK  status: ('A' for Active; 'I' for Inactive)
REMARK    1  A    between atoms: C_7  and  O_8 
REMARK    2  A    between atoms: O_8  and  C_9 
REMARK    3  A    between atoms: C_9  and  C_10 
REMARK    4  A    between atoms: C_10  and  O_11 
REMARK    5  A    between atoms: C_10  and  C_12 
REMARK    6  A    between atoms: C_12  and  N_13 
REMARK       I    between atoms: N_16  and  C_19 
REMARK    7  A    between atoms: C_19  and  C_21 
ROOT
ATOM      1  C   UNK d   1       0.890  -1.377  -3.481  0.00  0.00     0.168 C 
ENDROOT
BRANCH   1   2
ATOM      2  C   UNK d   1      -0.515  -1.694  -3.035  0.00  0.00     0.209 C 
BRANCH   2   3
ATOM      3  O   UNK d   1      -1.394  -0.603  -3.230  0.00  0.00    -0.347 OA
BRANCH   3   4
ATOM      4  C   UNK d   1      -2.726  -0.771  -2.856  0.00  0.00     0.087 A 
ATOM      5  C   UNK d   1      -3.658   0.237  -3.008  0.00  0.00     0.055 A 
ATOM      6 Br   UNK d   1      -3.073   1.887  -3.753  0.00  0.00    -0.047 Br
ATOM      7  C   UNK d   1      -4.982   0.091  -2.644  0.00  0.00    -0.006 A 
ATOM      8  C   UNK d   1      -5.434  -1.094  -2.102  0.00  0.00    -0.024 A 
ATOM      9  C   UNK d   1      -5.911   1.105  -2.799  0.00  0.00     0.014 A 
ATOM     10  C   UNK d   1      -4.510  -2.107  -1.946  0.00  0.00     0.015 A 
ATOM     11  C   UNK d   1      -6.762  -1.240  -1.737  0.00  0.00     0.012 A 
ATOM     12  C   UNK d   1      -3.188  -1.953  -2.313  0.00  0.00     0.039 A 
ATOM     13  C   UNK d   1      -7.687  -0.228  -1.893  0.00  0.00     0.001 A 
ATOM     14  C   UNK d   1      -7.235   0.959  -2.435  0.00  0.00     0.001 A 
ENDBRANCH   3   4
ENDBRANCH   2   3
ENDBRANCH   1   2
BRANCH   1  15
ATOM     15  O   UNK d   1       1.761  -2.420  -3.301  0.00  0.00    -0.392 OA
ATOM     16  H   UNK d   1       1.519  -3.043  -2.592  0.00  0.00     0.210 HD
ENDBRANCH   1  15
BRANCH   1  17
ATOM     17  C   UNK d   1       1.375  -0.117  -2.852  0.00  0.00     0.268 C 
BRANCH  17  18
ATOM     18  N   UNK d   1       1.574  -0.214  -1.423  0.00  0.00    -0.066 N 
ATOM     19  C   UNK d   1       1.494   1.136  -0.894  0.00  0.00     0.254 C 
ATOM     20  C   UNK d   1       1.939   1.205   0.574  0.00  0.00     0.152 C 
ATOM     21  N   UNK d   1       3.264   0.707   0.674  0.00  0.00    -0.356 N 
ATOM     22  C   UNK d   1       3.835   0.207  -0.594  0.00  0.00     0.152 C 
ATOM     23  C   UNK d   1       4.026   0.665   1.847  0.00  0.00     0.187 C 
ATOM     24  C   UNK d   1       2.888  -0.789  -1.176  0.00  0.00     0.254 C 
ATOM     25  O   UNK d   1       5.232   0.151   1.667  0.00  0.00    -0.171 OA
ATOM     26  H   UNK d   1       0.853  -0.787  -0.936  0.00  0.00     0.280 HD
BRANCH  23  27
ATOM     27  C   UNK d   1       3.749   1.067   3.188  0.00  0.00     0.018 A 
ATOM     28  C   UNK d   1       2.593   1.626   3.653  0.00  0.00     0.016 A 
ATOM     29  C   UNK d   1       2.388   1.996   4.975  0.00  0.00     0.001 A 
ATOM     30  C   UNK d   1       3.369   1.808   5.895  0.00  0.00     0.000 A 
ATOM     31  C   UNK d   1       4.550   1.245   5.457  0.00  0.00     0.001 A 
ATOM     32  C   UNK d   1       4.753   0.880   4.150  0.00  0.00     0.016 A 
ENDBRANCH  23  27
ENDBRANCH  17  18
ENDBRANCH   1  17
TORSDOF 7
