# created with PyMOL 2.3.2
@<TRIPOS>MOLECULE
706
46 49 1                 
SMALL
USER_CHARGES
@<TRIPOS>ATOM
1	  Br	2.425	-5.071	1.709	Br	1	UNK0	0.000	
2	   C	2.660	-3.674	0.400	C.2	1	UNK0	0.000	
3	   N	2.417	-2.360	0.563	N.pl3	1	UNK0	0.000	
4	   C	2.703	-1.708	-0.575	C.2	1	UNK0	0.000	
5	   C	3.142	-2.648	-1.487	C.2	1	UNK0	0.000	
6	   N	3.102	-3.831	-0.860	N.2	1	UNK0	0.000	
7	   N	3.498	-2.237	-2.721	N.pl3	1	UNK0	0.000	
8	   C	3.445	-0.942	-3.104	C.2	1	UNK0	0.000	
9	   O	3.789	-0.598	-4.274	O.2	1	UNK0	0.000	
10	   N	3.023	0.000	-2.241	N.pl3	1	UNK0	0.000	
11	   C	2.666	-0.399	-1.008	C.2	1	UNK0	0.000	
12	   O	2.275	0.467	-0.199	O.2	1	UNK0	0.000	
13	   C	2.976	1.383	-2.675	C.3	1	UNK0	0.000	
14	   C	3.956	-3.230	-3.671	C.3	1	UNK0	0.000	
15	   C	1.940	-1.804	1.784	C.3	1	UNK0	0.000	
16	   C	0.469	-1.761	1.984	C.3	1	UNK0	0.000	
17	   N	-0.300	-1.008	1.051	N.pl3	1	UNK0	0.000	
18	   C	-0.615	0.306	1.169	C.2	1	UNK0	0.000	
19	   C	-1.372	0.691	0.090	C.2	1	UNK0	0.000	
20	   N	-1.496	-0.414	-0.664	N.2	1	UNK0	0.000	
21	   C	-0.852	-1.438	-0.087	C.2	1	UNK0	0.000	
22	  Br	-0.713	-3.248	-0.736	Br	1	UNK0	0.000	
23	   N	-1.842	1.956	-0.077	N.pl3	1	UNK0	0.000	
24	   C	-1.532	2.848	0.881	C.2	1	UNK0	0.000	
25	   O	-1.962	4.025	0.738	O.2	1	UNK0	0.000	
26	   N	-0.795	2.528	1.959	N.pl3	1	UNK0	0.000	
27	   C	-0.339	1.286	2.114	C.2	1	UNK0	0.000	
28	   O	0.356	0.921	3.100	O.2	1	UNK0	0.000	
29	   C	-0.489	3.526	2.962	C.3	1	UNK0	0.000	
30	   C	-2.642	2.329	-1.236	C.3	1	UNK0	0.000	
31	   H	2.297	1.970	-2.029	 H	1	UNK0	0.000	
32	   H	3.974	1.876	-2.628	 H	1	UNK0	0.000	
33	   H	2.618	1.387	-3.726	 H	1	UNK0	0.000	
34	   H	3.553	-2.942	-4.679	 H	1	UNK0	0.000	
35	   H	3.559	-4.217	-3.419	 H	1	UNK0	0.000	
36	   H	5.067	-3.202	-3.730	 H	1	UNK0	0.000	
37	   H	2.357	-2.333	2.693	 H	1	UNK0	0.000	
38	   H	2.398	-0.775	1.868	 H	1	UNK0	0.000	
39	   H	0.294	-1.387	3.027	 H	1	UNK0	0.000	
40	   H	0.035	-2.809	2.027	 H	1	UNK0	0.000	
41	   H	-0.218	3.068	3.935	 H	1	UNK0	0.000	
42	   H	0.394	4.160	2.667	 H	1	UNK0	0.000	
43	   H	-1.375	4.176	3.178	 H	1	UNK0	0.000	
44	   H	-2.272	1.853	-2.168	 H	1	UNK0	0.000	
45	   H	-3.721	2.122	-1.062	 H	1	UNK0	0.000	
46	   H	-2.505	3.422	-1.380	 H	1	UNK0	0.000	
@<TRIPOS>BOND
1 1 2 1
2 2 3 1
3 2 6 2
4 3 4 1
5 3 15 1
6 4 5 2
7 4 11 1
8 5 6 1
9 5 7 1
10 7 8 1
11 7 14 1
12 8 9 2
13 8 10 1
14 10 11 1
15 10 13 1
16 11 12 2
17 15 16 1
18 16 17 1
19 17 18 1
20 17 21 1
21 18 19 2
22 18 27 1
23 19 20 1
24 19 23 1
25 20 21 2
26 21 22 1
27 23 24 1
28 23 30 1
29 24 25 2
30 24 26 1
31 26 27 1
32 26 29 1
33 27 28 2
34 13 31 1
35 13 32 1
36 13 33 1
37 14 34 1
38 14 35 1
39 14 36 1
40 15 37 1
41 15 38 1
42 16 39 1
43 16 40 1
44 29 41 1
45 29 42 1
46 29 43 1
47 30 44 1
48 30 45 1
49 30 46 1
@<TRIPOS>SUBSTRUCTURE
1	UNK0	1	GROUP	1 ****	UNK
