REMARK  3 active torsions:
REMARK  status: ('A' for Active; 'I' for Inactive)
REMARK    1  A    between atoms: N_3  and  C_15 
REMARK    2  A    between atoms: C_15  and  C_16 
REMARK    3  A    between atoms: C_16  and  N_17 
ROOT
ATOM      1  C   UNK d   1       1.940  -1.804   1.784  0.00  0.00     0.152 C 
ENDROOT
BRANCH   1   2
ATOM      2  N   UNK d   1       2.417  -2.360   0.563  0.00  0.00    -0.316 N 
ATOM      3  C   UNK d   1       2.660  -3.674   0.400  0.00  0.00     0.180 A 
ATOM      4 Br   UNK d   1       2.425  -5.071   1.709  0.00  0.00    -0.008 Br
ATOM      5  N   UNK d   1       3.102  -3.831  -0.860  0.00  0.00    -0.203 NA
ATOM      6  C   UNK d   1       3.142  -2.648  -1.487  0.00  0.00     0.169 A 
ATOM      7  C   UNK d   1       2.703  -1.708  -0.575  0.00  0.00     0.152 A 
ATOM      8  N   UNK d   1       3.498  -2.237  -2.721  0.00  0.00    -0.286 N 
ATOM      9  C   UNK d   1       2.666  -0.399  -1.008  0.00  0.00     0.282 A 
ATOM     10  N   UNK d   1       3.023   0.000  -2.241  0.00  0.00    -0.269 N 
ATOM     11  O   UNK d   1       2.275   0.467  -0.199  0.00  0.00    -0.265 OA
ATOM     12  C   UNK d   1       3.445  -0.942  -3.104  0.00  0.00     0.332 A 
ATOM     13  C   UNK d   1       2.976   1.383  -2.675  0.00  0.00     0.164 C 
ATOM     14  O   UNK d   1       3.789  -0.598  -4.274  0.00  0.00    -0.246 OA
ATOM     15  C   UNK d   1       3.956  -3.230  -3.671  0.00  0.00     0.163 C 
ENDBRANCH   1   2
BRANCH   1  16
ATOM     16  C   UNK d   1       0.469  -1.761   1.984  0.00  0.00     0.152 C 
BRANCH  16  17
ATOM     17  N   UNK d   1      -0.300  -1.008   1.051  0.00  0.00    -0.316 N 
ATOM     18  C   UNK d   1      -0.615   0.306   1.169  0.00  0.00     0.152 A 
ATOM     19  C   UNK d   1      -1.372   0.691   0.090  0.00  0.00     0.169 A 
ATOM     20  C   UNK d   1      -0.339   1.286   2.114  0.00  0.00     0.282 A 
ATOM     21  N   UNK d   1      -1.496  -0.414  -0.664  0.00  0.00    -0.203 NA
ATOM     22  N   UNK d   1      -1.842   1.956  -0.077  0.00  0.00    -0.286 N 
ATOM     23  C   UNK d   1      -0.852  -1.438  -0.087  0.00  0.00     0.180 A 
ATOM     24 Br   UNK d   1      -0.713  -3.248  -0.736  0.00  0.00    -0.008 Br
ATOM     25  C   UNK d   1      -1.532   2.848   0.881  0.00  0.00     0.332 A 
ATOM     26  C   UNK d   1      -2.642   2.329  -1.236  0.00  0.00     0.163 C 
ATOM     27  O   UNK d   1      -1.962   4.025   0.738  0.00  0.00    -0.246 OA
ATOM     28  N   UNK d   1      -0.795   2.528   1.959  0.00  0.00    -0.269 N 
ATOM     29  C   UNK d   1      -0.489   3.526   2.962  0.00  0.00     0.164 C 
ATOM     30  O   UNK d   1       0.356   0.921   3.100  0.00  0.00    -0.265 OA
ENDBRANCH  16  17
ENDBRANCH   1  16
TORSDOF 3
