REMARK  4 active torsions:
REMARK  status: ('A' for Active; 'I' for Inactive)
REMARK    1  A    between atoms: N_3  and  C_14 
REMARK    2  A    between atoms: C_14  and  C_15 
REMARK    3  A    between atoms: C_15  and  C_16 
REMARK    4  A    between atoms: C_16  and  N_17 
ROOT
ATOM      1  C   UNK d   1      -0.080   0.577   1.735  0.00  0.00     0.041 C 
ENDROOT
BRANCH   1   2
ATOM      2  C   UNK d   1       0.883  -0.097   2.668  0.00  0.00     0.133 C 
BRANCH   2   3
ATOM      3  N   UNK d   1       1.016  -1.522   2.445  0.00  0.00    -0.318 N 
ATOM      4  C   UNK d   1       0.200  -2.477   2.987  0.00  0.00     0.180 A 
ATOM      5 Br   UNK d   1      -1.272  -2.056   4.119  0.00  0.00    -0.008 Br
ATOM      6  N   UNK d   1       0.596  -3.699   2.602  0.00  0.00    -0.203 NA
ATOM      7  C   UNK d   1       1.677  -3.576   1.802  0.00  0.00     0.169 A 
ATOM      8  C   UNK d   1       1.918  -2.214   1.721  0.00  0.00     0.152 A 
ATOM      9  N   UNK d   1       2.419  -4.513   1.187  0.00  0.00    -0.286 N 
ATOM     10  C   UNK d   1       2.978  -1.806   0.971  0.00  0.00     0.280 A 
ATOM     11  N   UNK d   1       3.728  -2.758   0.349  0.00  0.00    -0.273 N 
ATOM     12  O   UNK d   1       3.244  -0.591   0.865  0.00  0.00    -0.265 OA
ATOM     13  C   UNK d   1       3.457  -4.072   0.454  0.00  0.00     0.330 A 
ATOM     14  H   UNK d   1       4.528  -2.400  -0.215  0.00  0.00     0.173 HD
ATOM     15  O   UNK d   1       4.192  -4.923  -0.151  0.00  0.00    -0.246 OA
ATOM     16  C   UNK d   1       2.159  -5.934   1.276  0.00  0.00     0.163 C 
ENDBRANCH   2   3
ENDBRANCH   1   2
BRANCH   1  17
ATOM     17  C   UNK d   1       0.274   0.463   0.280  0.00  0.00     0.133 C 
BRANCH  17  18
ATOM     18  N   UNK d   1      -0.731   1.135  -0.532  0.00  0.00    -0.318 N 
ATOM     19  C   UNK d   1      -1.861   0.619  -1.067  0.00  0.00     0.152 A 
ATOM     20  C   UNK d   1      -2.542   1.587  -1.768  0.00  0.00     0.169 A 
ATOM     21  C   UNK d   1      -2.402  -0.639  -1.024  0.00  0.00     0.280 A 
ATOM     22  N   UNK d   1      -1.803   2.706  -1.650  0.00  0.00    -0.203 NA
ATOM     23  N   UNK d   1      -3.704   1.365  -2.410  0.00  0.00    -0.286 N 
ATOM     24  C   UNK d   1      -0.713   2.425  -0.904  0.00  0.00     0.180 A 
ATOM     25 Br   UNK d   1       0.680   3.636  -0.414  0.00  0.00    -0.008 Br
ATOM     26  C   UNK d   1      -4.202   0.106  -2.341  0.00  0.00     0.330 A 
ATOM     27  C   UNK d   1      -4.392   2.425  -3.143  0.00  0.00     0.163 C 
ATOM     28  O   UNK d   1      -5.298  -0.107  -2.944  0.00  0.00    -0.246 OA
ATOM     29  N   UNK d   1      -3.566  -0.873  -1.664  0.00  0.00    -0.273 N 
ATOM     30  H   UNK d   1      -3.996  -1.819  -1.645  0.00  0.00     0.173 HD
ATOM     31  O   UNK d   1      -1.786  -1.527  -0.386  0.00  0.00    -0.265 OA
ENDBRANCH  17  18
ENDBRANCH   1  17
TORSDOF 4
