REMARK  3 active torsions:
REMARK  status: ('A' for Active; 'I' for Inactive)
REMARK    1  A    between atoms: N_3  and  C_14 
REMARK    2  A    between atoms: C_14  and  C_15 
REMARK    3  A    between atoms: C_15  and  N_16 
ROOT
ATOM      1  C   UNK d   1       0.483   3.137  -0.615  0.00  0.00     0.152 C 
ENDROOT
BRANCH   1   2
ATOM      2  N   UNK d   1      -0.141   2.592   0.542  0.00  0.00    -0.316 N 
ATOM      3  C   UNK d   1      -1.379   2.914   0.986  0.00  0.00     0.180 A 
ATOM      4 Br   UNK d   1      -2.511   4.166   0.093  0.00  0.00    -0.008 Br
ATOM      5  N   UNK d   1      -1.641   2.224   2.107  0.00  0.00    -0.203 NA
ATOM      6  C   UNK d   1      -0.586   1.439   2.422  0.00  0.00     0.169 A 
ATOM      7  C   UNK d   1       0.349   1.687   1.421  0.00  0.00     0.152 A 
ATOM      8  N   UNK d   1      -0.324   0.575   3.419  0.00  0.00    -0.286 N 
ATOM      9  C   UNK d   1       1.536   1.002   1.524  0.00  0.00     0.280 A 
ATOM     10  N   UNK d   1       1.796   0.131   2.533  0.00  0.00    -0.273 N 
ATOM     11  O   UNK d   1       2.398   1.221   0.623  0.00  0.00    -0.265 OA
ATOM     12  C   UNK d   1       0.854  -0.071   3.472  0.00  0.00     0.330 A 
ATOM     13  H   UNK d   1       2.716  -0.359   2.555  0.00  0.00     0.173 HD
ATOM     14  O   UNK d   1       1.110  -0.890   4.411  0.00  0.00    -0.246 OA
ATOM     15  C   UNK d   1      -1.290   0.312   4.461  0.00  0.00     0.163 C 
ENDBRANCH   1   2
BRANCH   1  16
ATOM     16  C   UNK d   1       0.228   2.450  -1.909  0.00  0.00     0.152 C 
BRANCH  16  17
ATOM     17  N   UNK d   1       0.643   1.099  -2.049  0.00  0.00    -0.316 N 
ATOM     18  C   UNK d   1      -0.074  -0.011  -1.808  0.00  0.00     0.152 A 
ATOM     19  C   UNK d   1       0.710  -1.117  -2.062  0.00  0.00     0.169 A 
ATOM     20  C   UNK d   1      -1.371  -0.260  -1.387  0.00  0.00     0.280 A 
ATOM     21  N   UNK d   1       1.897  -0.614  -2.458  0.00  0.00    -0.203 NA
ATOM     22  N   UNK d   1       0.214  -2.343  -1.900  0.00  0.00    -0.286 N 
ATOM     23  C   UNK d   1       1.887   0.714  -2.461  0.00  0.00     0.180 A 
ATOM     24 Br   UNK d   1       3.328   1.898  -2.945  0.00  0.00    -0.008 Br
ATOM     25  C   UNK d   1      -1.045  -2.517  -1.490  0.00  0.00     0.330 A 
ATOM     26  C   UNK d   1       1.024  -3.510  -2.161  0.00  0.00     0.163 C 
ATOM     27  O   UNK d   1      -1.547  -3.678  -1.324  0.00  0.00    -0.246 OA
ATOM     28  N   UNK d   1      -1.872  -1.491  -1.222  0.00  0.00    -0.273 N 
ATOM     29  H   UNK d   1      -2.859  -1.663  -0.901  0.00  0.00     0.173 HD
ATOM     30  O   UNK d   1      -2.134   0.701  -1.143  0.00  0.00    -0.265 OA
ENDBRANCH  16  17
ENDBRANCH   1  16
TORSDOF 3
