# created with PyMOL 2.3.2
@<TRIPOS>MOLECULE
709
40 43 1                 
SMALL
USER_CHARGES
@<TRIPOS>ATOM
1	  Br	-2.511	4.166	0.093	Br	1	UNK0	0.000	
2	   C	-1.379	2.914	0.986	C.2	1	UNK0	0.000	
3	   N	-0.141	2.592	0.542	N.pl3	1	UNK0	0.000	
4	   C	0.349	1.687	1.421	C.2	1	UNK0	0.000	
5	   C	-0.586	1.439	2.422	C.2	1	UNK0	0.000	
6	   N	-1.641	2.224	2.107	N.2	1	UNK0	0.000	
7	   N	-0.324	0.575	3.419	N.pl3	1	UNK0	0.000	
8	   C	0.854	-0.071	3.472	C.2	1	UNK0	0.000	
9	   O	1.110	-0.890	4.411	O.2	1	UNK0	0.000	
10	   N	1.796	0.131	2.533	N.pl3	1	UNK0	0.000	
11	   C	1.536	1.002	1.524	C.2	1	UNK0	0.000	
12	   O	2.398	1.221	0.623	O.2	1	UNK0	0.000	
13	   C	-1.290	0.312	4.461	C.3	1	UNK0	0.000	
14	   C	0.483	3.137	-0.615	C.3	1	UNK0	0.000	
15	   C	0.228	2.450	-1.909	C.3	1	UNK0	0.000	
16	   N	0.643	1.099	-2.049	N.pl3	1	UNK0	0.000	
17	   C	-0.074	-0.011	-1.808	C.2	1	UNK0	0.000	
18	   C	0.710	-1.117	-2.062	C.2	1	UNK0	0.000	
19	   N	1.897	-0.614	-2.458	N.2	1	UNK0	0.000	
20	   C	1.887	0.714	-2.461	C.2	1	UNK0	0.000	
21	  Br	3.328	1.898	-2.945	Br	1	UNK0	0.000	
22	   N	0.214	-2.343	-1.900	N.pl3	1	UNK0	0.000	
23	   C	-1.045	-2.517	-1.490	C.2	1	UNK0	0.000	
24	   O	-1.547	-3.678	-1.324	O.2	1	UNK0	0.000	
25	   N	-1.872	-1.491	-1.222	N.pl3	1	UNK0	0.000	
26	   C	-1.371	-0.260	-1.387	C.2	1	UNK0	0.000	
27	   O	-2.134	0.701	-1.143	O.2	1	UNK0	0.000	
28	   C	1.024	-3.510	-2.161	C.3	1	UNK0	0.000	
29	   H	2.716	-0.359	2.555	 H	1	UNK0	0.000	
30	   H	-0.854	0.641	5.439	 H	1	UNK0	0.000	
31	   H	-1.514	-0.765	4.442	 H	1	UNK0	0.000	
32	   H	-2.234	0.868	4.239	 H	1	UNK0	0.000	
33	   H	1.571	3.319	-0.442	 H	1	UNK0	0.000	
34	   H	0.082	4.193	-0.753	 H	1	UNK0	0.000	
35	   H	0.613	3.112	-2.731	 H	1	UNK0	0.000	
36	   H	-0.899	2.461	-2.048	 H	1	UNK0	0.000	
37	   H	-2.859	-1.663	-0.901	 H	1	UNK0	0.000	
38	   H	1.780	-3.217	-2.914	 H	1	UNK0	0.000	
39	   H	1.510	-3.923	-1.275	 H	1	UNK0	0.000	
40	   H	0.425	-4.326	-2.638	 H	1	UNK0	0.000	
@<TRIPOS>BOND
1 1 2 1
2 2 3 1
3 2 6 2
4 3 4 1
5 3 14 1
6 4 5 2
7 4 11 1
8 5 6 1
9 5 7 1
10 7 8 1
11 7 13 1
12 8 9 2
13 8 10 1
14 10 11 1
15 11 12 2
16 14 15 1
17 15 16 1
18 16 17 1
19 16 20 1
20 17 18 2
21 17 26 1
22 18 19 1
23 18 22 1
24 19 20 2
25 20 21 1
26 22 23 1
27 22 28 1
28 23 24 2
29 23 25 1
30 25 26 1
31 26 27 2
32 10 29 1
33 13 30 1
34 13 31 1
35 13 32 1
36 14 33 1
37 14 34 1
38 15 35 1
39 15 36 1
40 25 37 1
41 28 38 1
42 28 39 1
43 28 40 1
@<TRIPOS>SUBSTRUCTURE
1	UNK0	1	GROUP	1 ****	UNK
