# created with PyMOL 2.3.2
@<TRIPOS>MOLECULE
716
50 54 1                 
SMALL
USER_CHARGES
@<TRIPOS>ATOM
1	  Br	2.596	-2.899	-5.326	Br	1	UNK0	0.000	
2	   C	2.849	-1.415	-4.138	C.2	1	UNK0	0.000	
3	   N	1.950	-0.872	-3.297	N.2	1	UNK0	0.000	
4	   N	2.484	0.144	-2.631	N.pl3	1	UNK0	0.000	
5	   C	3.752	0.235	-3.072	C.2	1	UNK0	0.000	
6	   N	3.994	-0.710	-3.993	N.2	1	UNK0	0.000	
7	   C	1.836	0.990	-1.630	C.3	1	UNK0	0.000	
8	   C	1.249	0.117	-0.544	C.3	1	UNK0	0.000	
9	   C	0.776	0.980	0.589	C.3	1	UNK0	0.000	
10	   C	-0.393	1.807	0.036	C.3	1	UNK0	0.000	
11	   C	0.103	2.624	-1.130	C.3	1	UNK0	0.000	
12	   C	0.693	1.780	-2.230	C.3	1	UNK0	0.000	
13	   C	1.117	3.603	-0.630	C.3	1	UNK0	0.000	
14	   C	2.278	2.834	-0.040	C.3	1	UNK0	0.000	
15	   C	2.848	1.961	-1.107	C.3	1	UNK0	0.000	
16	   C	1.792	1.952	1.089	C.3	1	UNK0	0.000	
17	   C	0.287	0.167	1.723	C.2	1	UNK0	0.000	
18	   O	0.868	0.289	2.831	O.2	1	UNK0	0.000	
19	   N	-0.810	-0.728	1.564	N.pl3	1	UNK0	0.000	
20	   C	-1.347	-1.547	2.592	C.2	1	UNK0	0.000	
21	   C	-2.400	-2.402	2.429	C.2	1	UNK0	0.000	
22	   N	-2.617	-3.001	3.624	N.pl3	1	UNK0	0.000	
23	   N	-1.742	-2.542	4.493	N.2	1	UNK0	0.000	
24	   C	-0.941	-1.646	3.907	C.2	1	UNK0	0.000	
25	   C	-3.629	-3.990	3.951	C.3	1	UNK0	0.000	
26	   C	-3.211	-2.705	1.267	C.2	1	UNK0	0.000	
27	   O	-3.002	-2.145	0.162	O.2	1	UNK0	0.000	
28	   N	-4.283	-3.638	1.283	N.pl3	1	UNK0	0.000	
29	   H	4.474	0.963	-2.734	 H	1	UNK0	0.000	
30	   H	0.324	-0.347	-0.996	 H	1	UNK0	0.000	
31	   H	1.891	-0.711	-0.246	 H	1	UNK0	0.000	
32	   H	-0.786	2.493	0.792	 H	1	UNK0	0.000	
33	   H	-1.211	1.171	-0.323	 H	1	UNK0	0.000	
34	   H	-0.750	3.182	-1.556	 H	1	UNK0	0.000	
35	   H	-0.064	1.139	-2.714	 H	1	UNK0	0.000	
36	   H	1.087	2.464	-2.997	 H	1	UNK0	0.000	
37	   H	0.655	4.290	0.119	 H	1	UNK0	0.000	
38	   H	1.484	4.242	-1.452	 H	1	UNK0	0.000	
39	   H	3.066	3.492	0.353	 H	1	UNK0	0.000	
40	   H	3.191	2.585	-1.944	 H	1	UNK0	0.000	
41	   H	3.716	1.419	-0.678	 H	1	UNK0	0.000	
42	   H	2.654	1.387	1.501	 H	1	UNK0	0.000	
43	   H	1.305	2.612	1.825	 H	1	UNK0	0.000	
44	   H	-1.235	-0.772	0.619	 H	1	UNK0	0.000	
45	   H	-0.116	-1.090	4.365	 H	1	UNK0	0.000	
46	   H	-3.362	-4.467	4.914	 H	1	UNK0	0.000	
47	   H	-3.515	-4.815	3.194	 H	1	UNK0	0.000	
48	   H	-4.652	-3.564	3.969	 H	1	UNK0	0.000	
49	   H	-4.102	-4.605	0.885	 H	1	UNK0	0.000	
50	   H	-5.234	-3.448	1.653	 H	1	UNK0	0.000	
@<TRIPOS>BOND
1 1 2 1
2 2 3 2
3 2 6 1
4 3 4 1
5 4 5 1
6 4 7 1
7 5 6 2
8 7 8 1
9 7 12 1
10 7 15 1
11 8 9 1
12 9 10 1
13 9 16 1
14 9 17 1
15 10 11 1
16 11 12 1
17 11 13 1
18 13 14 1
19 14 15 1
20 14 16 1
21 17 18 2
22 17 19 1
23 19 20 1
24 20 21 2
25 20 24 1
26 21 22 1
27 21 26 1
28 22 23 1
29 22 25 1
30 23 24 2
31 26 27 2
32 26 28 1
33 5 29 1
34 8 30 1
35 8 31 1
36 10 32 1
37 10 33 1
38 11 34 1
39 12 35 1
40 12 36 1
41 13 37 1
42 13 38 1
43 14 39 1
44 15 40 1
45 15 41 1
46 16 42 1
47 16 43 1
48 19 44 1
49 24 45 1
50 25 46 1
51 25 47 1
52 25 48 1
53 28 49 1
54 28 50 1
@<TRIPOS>SUBSTRUCTURE
1	UNK0	1	GROUP	1 ****	UNK
