REMARK  4 active torsions:
REMARK  status: ('A' for Active; 'I' for Inactive)
REMARK    1  A    between atoms: N_4  and  C_7 
REMARK    2  A    between atoms: C_9  and  C_17 
REMARK       I    between atoms: C_17  and  N_19 
REMARK    3  A    between atoms: N_19  and  C_20 
REMARK    4  A    between atoms: C_21  and  C_26 
REMARK       I    between atoms: C_26  and  N_28 
ROOT
ATOM      1  C   UNK d   1       1.836   0.990  -1.630  0.00  0.00     0.059 C 
ATOM      2  C   UNK d   1       1.249   0.117  -0.544  0.00  0.00     0.052 C 
ATOM      3  C   UNK d   1       0.776   0.980   0.589  0.00  0.00     0.044 C 
ATOM      4  C   UNK d   1      -0.393   1.807   0.036  0.00  0.00     0.024 C 
ATOM      5  C   UNK d   1       0.103   2.624  -1.130  0.00  0.00    -0.011 C 
ATOM      6  C   UNK d   1       0.693   1.780  -2.230  0.00  0.00     0.038 C 
ATOM      7  C   UNK d   1       1.117   3.603  -0.630  0.00  0.00     0.009 C 
ATOM      8  C   UNK d   1       2.278   2.834  -0.040  0.00  0.00    -0.011 C 
ATOM      9  C   UNK d   1       2.848   1.961  -1.107  0.00  0.00     0.038 C 
ATOM     10  C   UNK d   1       1.792   1.952   1.089  0.00  0.00     0.024 C 
ENDROOT
BRANCH   3  11
ATOM     11  C   UNK d   1       0.287   0.167   1.723  0.00  0.00     0.231 C 
ATOM     12  O   UNK d   1       0.868   0.289   2.831  0.00  0.00    -0.272 OA
ATOM     13  N   UNK d   1      -0.810  -0.728   1.564  0.00  0.00    -0.323 N 
ATOM     14  H   UNK d   1      -1.235  -0.772   0.619  0.00  0.00     0.169 HD
BRANCH  13  15
ATOM     15  C   UNK d   1      -1.347  -1.547   2.592  0.00  0.00     0.088 A 
ATOM     16  C   UNK d   1      -2.400  -2.402   2.429  0.00  0.00     0.148 A 
ATOM     17  N   UNK d   1      -2.617  -3.001   3.624  0.00  0.00    -0.267 N 
ATOM     18  N   UNK d   1      -1.742  -2.542   4.493  0.00  0.00    -0.182 NA
ATOM     19  C   UNK d   1      -3.629  -3.990   3.951  0.00  0.00     0.180 C 
ATOM     20  C   UNK d   1      -0.941  -1.646   3.907  0.00  0.00     0.171 A 
BRANCH  16  21
ATOM     21  C   UNK d   1      -3.211  -2.705   1.267  0.00  0.00     0.270 C 
ATOM     22  O   UNK d   1      -3.002  -2.145   0.162  0.00  0.00    -0.266 OA
ATOM     23  N   UNK d   1      -4.283  -3.638   1.283  0.00  0.00    -0.365 N 
ATOM     24  H   UNK d   1      -4.102  -4.605   0.885  0.00  0.00     0.159 HD
ATOM     25  H   UNK d   1      -5.234  -3.448   1.653  0.00  0.00     0.159 HD
ENDBRANCH  16  21
ENDBRANCH  13  15
ENDBRANCH   3  11
BRANCH   1  26
ATOM     26  N   UNK d   1       2.484   0.144  -2.631  0.00  0.00    -0.251 N 
ATOM     27  N   UNK d   1       1.950  -0.872  -3.297  0.00  0.00    -0.142 NA
ATOM     28  C   UNK d   1       2.849  -1.415  -4.138  0.00  0.00     0.217 A 
ATOM     29 Br   UNK d   1       2.596  -2.899  -5.326  0.00  0.00    -0.005 Br
ATOM     30  N   UNK d   1       3.994  -0.710  -3.993  0.00  0.00    -0.215 NA
ATOM     31  C   UNK d   1       3.752   0.235  -3.072  0.00  0.00     0.232 A 
ENDBRANCH   1  26
TORSDOF 4
