REMARK  2 active torsions:
REMARK  status: ('A' for Active; 'I' for Inactive)
REMARK    1  A    between atoms: C_9  and  N_11 
REMARK    2  A    between atoms: C_12  and  C_17 
ROOT
ATOM      1  N   UNK d   1       2.043  -2.196  -0.697  0.00  0.00    -0.348 N 
ATOM      2  C   UNK d   1       0.825  -2.932  -0.829  0.00  0.00     0.189 C 
ATOM      3  C   UNK d   1       0.729  -4.082   0.098  0.00  0.00     0.201 C 
ATOM      4  O   UNK d   1       1.855  -4.420   0.798  0.00  0.00    -0.387 OA
ATOM      5  C   UNK d   1       3.023  -4.259   0.061  0.00  0.00     0.187 C 
ATOM      6  C   UNK d   1       3.266  -2.833  -0.316  0.00  0.00     0.151 C 
ENDROOT
BRANCH   1   7
ATOM      7  C   UNK d   1       2.112  -0.786  -0.958  0.00  0.00     0.145 A 
ATOM      8  N   UNK d   1       2.479  -0.366  -2.208  0.00  0.00    -0.223 NA
ATOM      9  C   UNK d   1       2.508   0.941  -2.523  0.00  0.00     0.237 A 
ATOM     10  N   UNK d   1       2.175   1.874  -1.613  0.00  0.00    -0.222 NA
ATOM     11  C   UNK d   1       1.807   1.539  -0.372  0.00  0.00     0.164 A 
ATOM     12  N   UNK d   1       1.454   2.287   0.689  0.00  0.00    -0.255 N 
ATOM     13  C   UNK d   1       1.779   0.177  -0.047  0.00  0.00     0.095 A 
ATOM     14  N   UNK d   1       1.207   1.444   1.665  0.00  0.00    -0.163 NA
ATOM     15  C   UNK d   1       1.358   3.733   0.762  0.00  0.00     0.182 C 
ATOM     16  C   UNK d   1       1.390   0.164   1.271  0.00  0.00     0.141 A 
ATOM     17 Br   UNK d   1       1.196  -1.407   2.328  0.00  0.00    -0.026 Br
ENDBRANCH   1   7
BRANCH   2  18
ATOM     18  C   UNK d   1      -0.358  -2.043  -0.796  0.00  0.00     0.198 A 
ATOM     19  N   UNK d   1      -0.491  -0.890  -1.453  0.00  0.00    -0.207 NA
ATOM     20  C   UNK d   1      -1.727  -0.408  -1.137  0.00  0.00     0.152 A 
ATOM     21  N   UNK d   1      -2.282  -1.301  -0.298  0.00  0.00    -0.112 NA
ATOM     22  C   UNK d   1      -2.349   0.848  -1.615  0.00  0.00     0.096 C 
ATOM     23  O   UNK d   1      -1.439  -2.274  -0.109  0.00  0.00    -0.194 OA
ENDBRANCH   2  18
TORSDOF 2
