# created with PyMOL 2.3.2
@<TRIPOS>MOLECULE
727
35 38 1                 
SMALL
USER_CHARGES
@<TRIPOS>ATOM
1	  Br	-1.021	-0.972	-4.405	Br	1	UNK0	0.000	
2	   C	-2.317	-1.094	-3.016	C.2	1	UNK0	0.000	
3	   N	-3.626	-1.450	-3.171	N.2	1	UNK0	0.000	
4	   N	-4.205	-1.445	-1.994	N.pl3	1	UNK0	0.000	
5	   C	-3.318	-1.093	-1.049	C.2	1	UNK0	0.000	
6	   N	-3.388	-0.948	0.284	N.2	1	UNK0	0.000	
7	   C	-2.331	-0.592	1.009	C.2	1	UNK0	0.000	
8	   N	-1.165	-0.369	0.410	N.2	1	UNK0	0.000	
9	   C	-0.983	-0.488	-0.947	C.2	1	UNK0	0.000	
10	   C	-2.084	-0.858	-1.678	C.2	1	UNK0	0.000	
11	   N	0.250	-0.204	-1.534	N.pl3	1	UNK0	0.000	
12	   C	0.472	1.030	-2.255	C.3	1	UNK0	0.000	
13	   C	1.392	1.909	-1.382	C.3	1	UNK0	0.000	
14	   C	2.391	1.051	-0.709	C.2	1	UNK0	0.000	
15	   N	3.447	1.461	0.031	N.pl3	1	UNK0	0.000	
16	   C	4.099	0.366	0.457	C.2	1	UNK0	0.000	
17	   N	3.493	-0.733	0.012	N.2	1	UNK0	0.000	
18	   C	2.433	-0.311	-0.712	C.2	1	UNK0	0.000	
19	   C	1.395	-1.074	-1.447	C.3	1	UNK0	0.000	
20	   C	3.849	2.809	0.341	C.3	1	UNK0	0.000	
21	   C	-5.604	-1.762	-1.671	C.3	1	UNK0	0.000	
22	   H	-2.420	-0.486	2.067	 H	1	UNK0	0.000	
23	   H	-0.435	1.620	-2.435	 H	1	UNK0	0.000	
24	   H	0.976	0.865	-3.237	 H	1	UNK0	0.000	
25	   H	0.805	2.461	-0.624	 H	1	UNK0	0.000	
26	   H	1.838	2.652	-2.067	 H	1	UNK0	0.000	
27	   H	5.004	0.336	1.083	 H	1	UNK0	0.000	
28	   H	1.165	-2.050	-0.978	 H	1	UNK0	0.000	
29	   H	1.808	-1.218	-2.489	 H	1	UNK0	0.000	
30	   H	4.152	2.911	1.405	 H	1	UNK0	0.000	
31	   H	4.752	3.080	-0.258	 H	1	UNK0	0.000	
32	   H	3.013	3.527	0.167	 H	1	UNK0	0.000	
33	   H	-5.638	-2.560	-0.904	 H	1	UNK0	0.000	
34	   H	-6.130	-2.053	-2.597	 H	1	UNK0	0.000	
35	   H	-6.108	-0.846	-1.287	 H	1	UNK0	0.000	
@<TRIPOS>BOND
1 1 2 1
2 2 3 2
3 2 10 1
4 3 4 1
5 4 5 1
6 4 21 1
7 5 6 1
8 5 10 2
9 6 7 2
10 7 8 1
11 8 9 2
12 9 10 1
13 9 11 1
14 11 12 1
15 11 19 1
16 12 13 1
17 13 14 1
18 14 15 1
19 14 18 2
20 15 16 1
21 15 20 1
22 16 17 2
23 17 18 1
24 18 19 1
25 7 22 1
26 12 23 1
27 12 24 1
28 13 25 1
29 13 26 1
30 16 27 1
31 19 28 1
32 19 29 1
33 20 30 1
34 20 31 1
35 20 32 1
36 21 33 1
37 21 34 1
38 21 35 1
@<TRIPOS>SUBSTRUCTURE
1	UNK0	1	GROUP	1 ****	UNK
