REMARK  1 active torsions:
REMARK  status: ('A' for Active; 'I' for Inactive)
REMARK    1  A    between atoms: C_9  and  N_11 
ROOT
ATOM      1 Br   UNK d   1      -1.021  -0.972  -4.405  0.00  0.00    -0.026 Br
ATOM      2  C   UNK d   1      -2.317  -1.094  -3.016  0.00  0.00     0.141 A 
ATOM      3  N   UNK d   1      -3.626  -1.450  -3.171  0.00  0.00    -0.163 NA
ATOM      4  N   UNK d   1      -4.205  -1.445  -1.994  0.00  0.00    -0.255 N 
ATOM      5  C   UNK d   1      -3.318  -1.093  -1.049  0.00  0.00     0.164 A 
ATOM      6  N   UNK d   1      -3.388  -0.948   0.284  0.00  0.00    -0.222 NA
ATOM      7  C   UNK d   1      -2.331  -0.592   1.009  0.00  0.00     0.237 A 
ATOM      8  N   UNK d   1      -1.165  -0.369   0.410  0.00  0.00    -0.223 NA
ATOM      9  C   UNK d   1      -0.983  -0.488  -0.947  0.00  0.00     0.144 A 
ATOM     10  C   UNK d   1      -2.084  -0.858  -1.678  0.00  0.00     0.095 A 
ATOM     11  C   UNK d   1      -5.604  -1.762  -1.671  0.00  0.00     0.182 C 
ENDROOT
BRANCH   9  12
ATOM     12  N   UNK d   1       0.250  -0.204  -1.534  0.00  0.00    -0.359 N 
ATOM     13  C   UNK d   1       0.472   1.030  -2.255  0.00  0.00     0.131 C 
ATOM     14  C   UNK d   1       1.392   1.909  -1.382  0.00  0.00     0.079 C 
ATOM     15  C   UNK d   1       2.391   1.051  -0.709  0.00  0.00     0.040 A 
ATOM     16  N   UNK d   1       3.447   1.461   0.031  0.00  0.00    -0.347 N 
ATOM     17  C   UNK d   1       2.433  -0.311  -0.712  0.00  0.00     0.076 A 
ATOM     18  C   UNK d   1       4.099   0.366   0.457  0.00  0.00     0.209 A 
ATOM     19  C   UNK d   1       3.849   2.809   0.341  0.00  0.00     0.157 C 
ATOM     20  N   UNK d   1       3.493  -0.733   0.012  0.00  0.00    -0.245 NA
ATOM     21  C   UNK d   1       1.395  -1.074  -1.447  0.00  0.00     0.185 C 
ENDBRANCH   9  12
TORSDOF 1
