# created with PyMOL 2.3.2
@<TRIPOS>MOLECULE
729
53 56 1                 
SMALL
USER_CHARGES
@<TRIPOS>ATOM
1	  Br	1.832	0.884	4.697	Br	1	UNK0	0.000	
2	   C	0.186	-0.011	4.988	C.2	1	UNK0	0.000	
3	   N	-0.375	-0.372	6.156	N.2	1	UNK0	0.000	
4	   N	-1.511	-0.991	5.978	N.pl3	1	UNK0	0.000	
5	   C	-1.732	-1.054	4.651	C.2	1	UNK0	0.000	
6	   N	-2.722	-1.578	3.908	N.2	1	UNK0	0.000	
7	   C	-2.720	-1.528	2.573	C.2	1	UNK0	0.000	
8	   N	-1.707	-0.939	1.949	N.2	1	UNK0	0.000	
9	   C	-0.664	-0.382	2.609	C.2	1	UNK0	0.000	
10	   C	-0.669	-0.437	3.998	C.2	1	UNK0	0.000	
11	   N	0.371	0.262	1.922	N.pl3	1	UNK0	0.000	
12	   C	0.495	1.692	1.912	C.3	1	UNK0	0.000	
13	   C	0.098	2.115	0.495	C.3	1	UNK0	0.000	
14	   N	0.207	0.987	-0.437	N.3	1	UNK0	0.000	
15	   C	1.448	0.254	-0.174	C.3	1	UNK0	0.000	
16	   C	1.354	-0.467	1.158	C.3	1	UNK0	0.000	
17	   C	0.292	1.563	-1.770	C.3	1	UNK0	0.000	
18	   C	-1.007	2.387	-1.985	C.3	1	UNK0	0.000	
19	   C	0.354	0.513	-2.802	C.2	1	UNK0	0.000	
20	   O	1.043	0.859	-3.850	O.2	1	UNK0	0.000	
21	   N	-0.225	-0.766	-2.791	N.pl3	1	UNK0	0.000	
22	   C	-1.049	-1.365	-1.785	C.3	1	UNK0	0.000	
23	   C	-0.678	-2.793	-1.443	C.3	1	UNK0	0.000	
24	   C	-0.187	-3.597	-2.597	C.3	1	UNK0	0.000	
25	   C	0.782	-2.825	-3.467	C.3	1	UNK0	0.000	
26	   C	0.027	-1.623	-3.972	C.3	1	UNK0	0.000	
27	   C	-2.433	-1.544	6.960	C.3	1	UNK0	0.000	
28	   H	-3.557	-1.974	1.990	 H	1	UNK0	0.000	
29	   H	1.606	1.926	1.925	 H	1	UNK0	0.000	
30	   H	-0.065	2.232	2.670	 H	1	UNK0	0.000	
31	   H	-0.976	2.376	0.535	 H	1	UNK0	0.000	
32	   H	0.645	3.010	0.149	 H	1	UNK0	0.000	
33	   H	1.543	-0.508	-0.961	 H	1	UNK0	0.000	
34	   H	2.316	0.919	-0.142	 H	1	UNK0	0.000	
35	   H	1.152	-1.525	1.029	 H	1	UNK0	0.000	
36	   H	2.333	-0.345	1.712	 H	1	UNK0	0.000	
37	   H	1.153	2.228	-1.860	 H	1	UNK0	0.000	
38	   H	-1.826	1.951	-1.382	 H	1	UNK0	0.000	
39	   H	-1.316	2.330	-3.041	 H	1	UNK0	0.000	
40	   H	-0.835	3.438	-1.719	 H	1	UNK0	0.000	
41	   H	-2.092	-1.394	-2.243	 H	1	UNK0	0.000	
42	   H	-1.139	-0.821	-0.853	 H	1	UNK0	0.000	
43	   H	-1.625	-3.280	-1.084	 H	1	UNK0	0.000	
44	   H	0.005	-2.820	-0.585	 H	1	UNK0	0.000	
45	   H	-1.038	-3.950	-3.205	 H	1	UNK0	0.000	
46	   H	0.339	-4.483	-2.213	 H	1	UNK0	0.000	
47	   H	1.664	-2.530	-2.847	 H	1	UNK0	0.000	
48	   H	1.098	-3.487	-4.289	 H	1	UNK0	0.000	
49	   H	0.563	-1.085	-4.759	 H	1	UNK0	0.000	
50	   H	-0.947	-1.969	-4.364	 H	1	UNK0	0.000	
51	   H	-2.475	-2.661	6.891	 H	1	UNK0	0.000	
52	   H	-3.440	-1.172	6.707	 H	1	UNK0	0.000	
53	   H	-2.107	-1.314	7.986	 H	1	UNK0	0.000	
@<TRIPOS>BOND
1 1 2 1
2 2 3 2
3 2 10 1
4 3 4 1
5 4 5 1
6 4 27 1
7 5 6 1
8 5 10 2
9 6 7 2
10 7 8 1
11 8 9 2
12 9 10 1
13 9 11 1
14 11 12 1
15 11 16 1
16 12 13 1
17 13 14 1
18 14 15 1
19 14 17 1
20 15 16 1
21 17 18 1
22 17 19 1
23 19 20 2
24 19 21 1
25 21 22 1
26 21 26 1
27 22 23 1
28 23 24 1
29 24 25 1
30 25 26 1
31 7 28 1
32 12 29 1
33 12 30 1
34 13 31 1
35 13 32 1
36 15 33 1
37 15 34 1
38 16 35 1
39 16 36 1
40 17 37 1
41 18 38 1
42 18 39 1
43 18 40 1
44 22 41 1
45 22 42 1
46 23 43 1
47 23 44 1
48 24 45 1
49 24 46 1
50 25 47 1
51 25 48 1
52 26 49 1
53 26 50 1
54 27 51 1
55 27 52 1
56 27 53 1
@<TRIPOS>SUBSTRUCTURE
1	UNK0	1	GROUP	1 ****	UNK
