REMARK  1 active torsions:
REMARK  status: ('A' for Active; 'I' for Inactive)
REMARK    1  A    between atoms: N_8  and  C_11 
ROOT
ATOM      1  C   UNK d   1      -1.146  -0.391   0.532  0.00  0.00     0.148 A 
ATOM      2  C   UNK d   1      -2.022  -0.259   1.502  0.00  0.00     0.080 A 
ATOM      3  C   UNK d   1      -3.455  -0.516   1.291  0.00  0.00     0.043 A 
ATOM      4  C   UNK d   1      -4.347  -0.387   2.257  0.00  0.00     0.043 C 
ATOM      5  N   UNK d   1      -3.813  -0.913  -0.024  0.00  0.00    -0.189 N 
ATOM      6  C   UNK d   1      -2.842  -1.052  -1.070  0.00  0.00     0.730 A 
ATOM      7  N   UNK d   1      -1.543  -0.789  -0.765  0.00  0.00    -0.044 N 
ATOM      8  N   UNK d   1      -0.859  -0.991  -1.897  0.00  0.00    -0.143 NA
ATOM      9  C   UNK d   1      -1.674  -1.368  -2.893  0.00  0.00     0.275 A 
ATOM     10  N   UNK d   1      -2.909  -1.403  -2.366  0.00  0.00    -0.054 NA
ATOM     11  H   UNK d   1      -4.814  -1.110  -0.238  0.00  0.00     0.184 HD
ENDROOT
BRANCH   1  12
ATOM     12  N   UNK d   1       0.214  -0.132   0.790  0.00  0.00    -0.357 N 
ATOM     13  C   UNK d   1       0.992  -1.171   1.418  0.00  0.00     0.203 C 
ATOM     14  C   UNK d   1       2.438  -1.012   1.082  0.00  0.00     0.124 A 
ATOM     15  N   UNK d   1       2.953   0.194   0.850  0.00  0.00    -0.325 N 
ATOM     16  N   UNK d   1       3.449  -1.910   0.947  0.00  0.00    -0.243 NA
ATOM     17  C   UNK d   1       4.257   0.078   0.574  0.00  0.00     0.101 A 
ATOM     18  C   UNK d   1       2.140   1.392   0.913  0.00  0.00     0.151 C 
ATOM     19 Br   UNK d   1       5.511   1.468   0.160  0.00  0.00    -0.029 Br
ATOM     20  C   UNK d   1       4.584  -1.261   0.632  0.00  0.00     0.156 A 
ATOM     21  C   UNK d   1       0.745   1.157   0.413  0.00  0.00     0.145 C 
ENDBRANCH   1  12
TORSDOF 1
