# created with PyMOL 2.3.2
@<TRIPOS>MOLECULE
737
32 35 1                 
SMALL
USER_CHARGES
@<TRIPOS>ATOM
1	  Br	5.511	1.468	0.160	Br	1	UNK0	0.000	
2	   C	4.257	0.078	0.574	C.2	1	UNK0	0.000	
3	   N	2.953	0.194	0.850	N.pl3	1	UNK0	0.000	
4	   C	2.438	-1.012	1.082	C.2	1	UNK0	0.000	
5	   N	3.449	-1.910	0.947	N.2	1	UNK0	0.000	
6	   C	4.584	-1.261	0.632	C.2	1	UNK0	0.000	
7	   C	0.992	-1.171	1.418	C.3	1	UNK0	0.000	
8	   N	0.214	-0.132	0.790	N.pl3	1	UNK0	0.000	
9	   C	0.745	1.157	0.413	C.3	1	UNK0	0.000	
10	   C	2.140	1.392	0.913	C.3	1	UNK0	0.000	
11	   C	-1.146	-0.391	0.532	C.2	1	UNK0	0.000	
12	   C	-2.022	-0.259	1.502	C.2	1	UNK0	0.000	
13	   C	-3.455	-0.516	1.291	C.2	1	UNK0	0.000	
14	   C	-4.347	-0.387	2.257	C.2	1	UNK0	0.000	
15	   N	-3.813	-0.913	-0.024	N.pl3	1	UNK0	0.000	
16	   C	-2.842	-1.052	-1.070	C.2	1	UNK0	0.000	
17	   N	-1.543	-0.789	-0.765	N.pl3	1	UNK0	0.000	
18	   N	-0.859	-0.991	-1.897	N.2	1	UNK0	0.000	
19	   C	-1.674	-1.368	-2.893	C.2	1	UNK0	0.000	
20	   N	-2.909	-1.403	-2.366	N.2	1	UNK0	0.000	
21	   H	5.574	-1.702	0.457	 H	1	UNK0	0.000	
22	   H	0.660	-2.188	1.129	 H	1	UNK0	0.000	
23	   H	0.852	-1.058	2.526	 H	1	UNK0	0.000	
24	   H	0.083	1.932	0.885	 H	1	UNK0	0.000	
25	   H	0.650	1.269	-0.669	 H	1	UNK0	0.000	
26	   H	2.580	2.202	0.294	 H	1	UNK0	0.000	
27	   H	2.170	1.756	1.960	 H	1	UNK0	0.000	
28	   H	-1.740	0.047	2.514	 H	1	UNK0	0.000	
29	   H	-4.081	-0.085	3.263	 H	1	UNK0	0.000	
30	   H	-5.399	-0.577	2.100	 H	1	UNK0	0.000	
31	   H	-4.814	-1.110	-0.238	 H	1	UNK0	0.000	
32	   H	-1.383	-1.600	-3.930	 H	1	UNK0	0.000	
@<TRIPOS>BOND
1 1 2 1
2 2 3 1
3 2 6 2
4 3 4 1
5 3 10 1
6 4 5 2
7 4 7 1
8 5 6 1
9 7 8 1
10 8 9 1
11 8 11 1
12 9 10 1
13 11 12 2
14 11 17 1
15 12 13 1
16 13 14 2
17 13 15 1
18 15 16 1
19 16 17 1
20 16 20 2
21 17 18 1
22 18 19 2
23 19 20 1
24 6 21 1
25 7 22 1
26 7 23 1
27 9 24 1
28 9 25 1
29 10 26 1
30 10 27 1
31 12 28 1
32 14 29 1
33 14 30 1
34 15 31 1
35 19 32 1
@<TRIPOS>SUBSTRUCTURE
1	UNK0	1	GROUP	1 ****	UNK
