# created with PyMOL 2.3.2
@<TRIPOS>MOLECULE
743
49 52 1                 
SMALL
USER_CHARGES
@<TRIPOS>ATOM
1	  Br	-8.639	2.421	3.921	Br	1	UNK0	0.000	
2	   C	-6.847	1.982	3.374	C.2	1	UNK0	0.000	
3	   O	-5.977	1.220	3.966	O.3	1	UNK0	0.000	
4	   C	-4.863	1.144	3.317	C.2	1	UNK0	0.000	
5	   C	-4.981	1.931	2.165	C.2	1	UNK0	0.000	
6	   C	-6.255	2.455	2.225	C.2	1	UNK0	0.000	
7	   C	-3.694	0.389	3.692	C.2	1	UNK0	0.000	
8	   O	-3.722	-0.285	4.764	O.2	1	UNK0	0.000	
9	   N	-2.500	0.357	2.922	N.pl3	1	UNK0	0.000	
10	   C	-1.352	-0.399	3.315	C.3	1	UNK0	0.000	
11	   C	-0.207	-0.289	2.356	C.3	1	UNK0	0.000	
12	   C	-0.539	-0.760	1.002	C.2	1	UNK0	0.000	
13	   O	-1.725	-1.196	0.824	O.2	1	UNK0	0.000	
14	   N	0.389	-0.745	-0.074	N.pl3	1	UNK0	0.000	
15	   C	-0.015	-1.224	-1.367	C.3	1	UNK0	0.000	
16	   C	0.635	-0.511	-2.513	C.3	1	UNK0	0.000	
17	   C	1.948	0.123	-2.159	C.3	1	UNK0	0.000	
18	   N	2.809	0.181	-3.301	N.3	1	UNK0	0.000	
19	   C	4.096	0.731	-3.042	C.3	1	UNK0	0.000	
20	   C	4.109	1.959	-2.193	C.3	1	UNK0	0.000	
21	   C	2.753	2.386	-1.763	C.2	1	UNK0	0.000	
22	   N	2.285	3.564	-1.348	N.2	1	UNK0	0.000	
23	   C	0.979	3.449	-1.070	C.2	1	UNK0	0.000	
24	   N	0.596	2.187	-1.306	N.pl3	1	UNK0	0.000	
25	   C	1.681	1.528	-1.732	C.2	1	UNK0	0.000	
26	   C	2.576	-0.598	-0.977	C.3	1	UNK0	0.000	
27	   C	1.723	-0.230	0.219	C.3	1	UNK0	0.000	
28	   H	-4.246	2.091	1.409	 H	1	UNK0	0.000	
29	   H	-6.735	3.129	1.501	 H	1	UNK0	0.000	
30	   H	-2.474	0.908	2.043	 H	1	UNK0	0.000	
31	   H	-1.023	-0.166	4.345	 H	1	UNK0	0.000	
32	   H	-1.679	-1.480	3.357	 H	1	UNK0	0.000	
33	   H	0.040	0.806	2.267	 H	1	UNK0	0.000	
34	   H	0.695	-0.766	2.788	 H	1	UNK0	0.000	
35	   H	-1.121	-1.170	-1.423	 H	1	UNK0	0.000	
36	   H	0.258	-2.299	-1.427	 H	1	UNK0	0.000	
37	   H	-0.051	0.293	-2.849	 H	1	UNK0	0.000	
38	   H	0.787	-1.170	-3.396	 H	1	UNK0	0.000	
39	   H	2.926	-0.789	-3.668	 H	1	UNK0	0.000	
40	   H	4.537	1.022	-4.040	 H	1	UNK0	0.000	
41	   H	4.805	-0.032	-2.640	 H	1	UNK0	0.000	
42	   H	4.723	1.767	-1.272	 H	1	UNK0	0.000	
43	   H	4.589	2.831	-2.684	 H	1	UNK0	0.000	
44	   H	0.287	4.212	-0.710	 H	1	UNK0	0.000	
45	   H	-0.386	1.780	-1.180	 H	1	UNK0	0.000	
46	   H	3.635	-0.329	-0.840	 H	1	UNK0	0.000	
47	   H	2.464	-1.715	-1.093	 H	1	UNK0	0.000	
48	   H	1.634	0.856	0.367	 H	1	UNK0	0.000	
49	   H	2.167	-0.753	1.089	 H	1	UNK0	0.000	
@<TRIPOS>BOND
1 1 2 1
2 2 3 1
3 2 6 2
4 3 4 1
5 4 5 2
6 4 7 1
7 5 6 1
8 7 8 2
9 7 9 1
10 9 10 1
11 10 11 1
12 11 12 1
13 12 13 2
14 12 14 1
15 14 15 1
16 14 27 1
17 15 16 1
18 16 17 1
19 17 18 1
20 17 25 1
21 17 26 1
22 18 19 1
23 19 20 1
24 20 21 1
25 21 22 1
26 21 25 2
27 22 23 2
28 23 24 1
29 24 25 1
30 26 27 1
31 5 28 1
32 6 29 1
33 9 30 1
34 10 31 1
35 10 32 1
36 11 33 1
37 11 34 1
38 15 35 1
39 15 36 1
40 16 37 1
41 16 38 1
42 18 39 1
43 19 40 1
44 19 41 1
45 20 42 1
46 20 43 1
47 23 44 1
48 24 45 1
49 26 46 1
50 26 47 1
51 27 48 1
52 27 49 1
@<TRIPOS>SUBSTRUCTURE
1	UNK0	1	GROUP	1 ****	UNK
