REMARK  4 active torsions:
REMARK  status: ('A' for Active; 'I' for Inactive)
REMARK    1  A    between atoms: C_4  and  C_7 
REMARK       I    between atoms: C_7  and  N_9 
REMARK    2  A    between atoms: N_9  and  C_10 
REMARK    3  A    between atoms: C_10  and  C_11 
REMARK    4  A    between atoms: C_11  and  C_12 
REMARK       I    between atoms: C_12  and  N_14 
ROOT
ATOM      1  C   UNK d   1      -0.539  -0.760   1.002  0.00  0.00     0.221 C 
ATOM      2  O   UNK d   1      -1.725  -1.196   0.824  0.00  0.00    -0.273 OA
ATOM      3  N   UNK d   1       0.389  -0.745  -0.074  0.00  0.00    -0.352 N 
ATOM      4  C   UNK d   1      -0.015  -1.224  -1.367  0.00  0.00     0.129 C 
ATOM      5  C   UNK d   1       0.635  -0.511  -2.513  0.00  0.00     0.068 C 
ATOM      6  C   UNK d   1       1.948   0.123  -2.159  0.00  0.00     0.204 C 
ATOM      7  N   UNK d   1       2.809   0.181  -3.301  0.00  0.00     0.099 N 
ATOM      8  C   UNK d   1       4.096   0.731  -3.042  0.00  0.00     0.277 C 
ATOM      9  C   UNK d   1       4.109   1.959  -2.193  0.00  0.00     0.091 C 
ATOM     10  C   UNK d   1       2.753   2.386  -1.763  0.00  0.00     0.062 A 
ATOM     11  N   UNK d   1       2.285   3.564  -1.348  0.00  0.00    -0.246 NA
ATOM     12  C   UNK d   1       0.979   3.449  -1.070  0.00  0.00     0.207 A 
ATOM     13  N   UNK d   1       0.596   2.187  -1.306  0.00  0.00    -0.350 N 
ATOM     14  C   UNK d   1       1.681   1.528  -1.732  0.00  0.00     0.074 A 
ATOM     15  C   UNK d   1       2.576  -0.598  -0.977  0.00  0.00     0.068 C 
ATOM     16  C   UNK d   1       1.723  -0.230   0.219  0.00  0.00     0.129 C 
ATOM     17  H   UNK d   1       2.926  -0.789  -3.668  0.00  0.00     0.317 HD
ATOM     18  H   UNK d   1      -0.386   1.780  -1.180  0.00  0.00     0.166 HD
ENDROOT
BRANCH   1  19
ATOM     19  C   UNK d   1      -0.207  -0.289   2.356  0.00  0.00     0.122 C 
BRANCH  19  20
ATOM     20  C   UNK d   1      -1.352  -0.399   3.315  0.00  0.00     0.132 C 
BRANCH  20  21
ATOM     21  N   UNK d   1      -2.500   0.357   2.922  0.00  0.00    -0.355 N 
ATOM     22  C   UNK d   1      -3.694   0.389   3.692  0.00  0.00     0.275 C 
ATOM     23  O   UNK d   1      -3.722  -0.285   4.764  0.00  0.00    -0.265 OA
ATOM     24  H   UNK d   1      -2.474   0.908   2.043  0.00  0.00     0.162 HD
BRANCH  22  25
ATOM     25  C   UNK d   1      -4.863   1.144   3.317  0.00  0.00     0.144 A 
ATOM     26  O   UNK d   1      -5.977   1.220   3.966  0.00  0.00    -0.298 OA
ATOM     27  C   UNK d   1      -6.847   1.982   3.374  0.00  0.00     0.122 A 
ATOM     28 Br   UNK d   1      -8.639   2.421   3.921  0.00  0.00    -0.023 Br
ATOM     29  C   UNK d   1      -6.255   2.455   2.225  0.00  0.00     0.048 A 
ATOM     30  C   UNK d   1      -4.981   1.931   2.165  0.00  0.00     0.046 A 
ENDBRANCH  22  25
ENDBRANCH  20  21
ENDBRANCH  19  20
ENDBRANCH   1  19
TORSDOF 4
