REMARK  3 active torsions:
REMARK  status: ('A' for Active; 'I' for Inactive)
REMARK    1  A    between atoms: C_4  and  C_7 
REMARK       I    between atoms: C_7  and  N_9 
REMARK    2  A    between atoms: N_9  and  C_10 
REMARK    3  A    between atoms: C_10  and  C_12 
REMARK       I    between atoms: C_12  and  N_14 
ROOT
ATOM      1  C   UNK d   1      -0.583   0.104   0.944  0.00  0.00     0.242 C 
ATOM      2  O   UNK d   1      -0.803   1.309   1.317  0.00  0.00    -0.271 OA
ATOM      3  N   UNK d   1       0.595  -0.497   1.402  0.00  0.00    -0.350 N 
ATOM      4  C   UNK d   1       0.968  -1.855   1.063  0.00  0.00     0.129 C 
ATOM      5  C   UNK d   1       2.256  -1.802   0.301  0.00  0.00     0.068 C 
ATOM      6  C   UNK d   1       3.306  -1.016   1.020  0.00  0.00     0.206 C 
ATOM      7  N   UNK d   1       4.470  -1.865   1.204  0.00  0.00     0.099 N 
ATOM      8  C   UNK d   1       5.016  -2.164  -0.107  0.00  0.00     0.277 C 
ATOM      9  C   UNK d   1       5.865  -0.950  -0.501  0.00  0.00     0.089 C 
ATOM     10  C   UNK d   1       4.948   0.214  -0.452  0.00  0.00     0.039 A 
ATOM     11  N   UNK d   1       5.069   1.425  -1.029  0.00  0.00    -0.352 N 
ATOM     12  C   UNK d   1       3.982   2.137  -0.693  0.00  0.00     0.207 A 
ATOM     13  N   UNK d   1       3.201   1.366   0.085  0.00  0.00    -0.244 NA
ATOM     14  C   UNK d   1       3.772   0.162   0.255  0.00  0.00     0.097 A 
ATOM     15  C   UNK d   1       2.785  -0.598   2.395  0.00  0.00     0.068 C 
ATOM     16  C   UNK d   1       1.531   0.203   2.263  0.00  0.00     0.129 C 
ATOM     17  H   UNK d   1       4.200  -2.797   1.626  0.00  0.00     0.317 HD
ATOM     18  H   UNK d   1       5.842   1.798  -1.636  0.00  0.00     0.166 HD
ENDROOT
BRANCH   1  19
ATOM     19  C   UNK d   1      -1.609  -0.497   0.075  0.00  0.00     0.173 C 
ATOM     20  C   UNK d   1      -1.116  -1.018  -1.226  0.00  0.00     0.042 C 
BRANCH  19  21
ATOM     21  N   UNK d   1      -2.716   0.405  -0.171  0.00  0.00    -0.342 N 
ATOM     22  C   UNK d   1      -4.032   0.149   0.254  0.00  0.00     0.276 C 
ATOM     23  O   UNK d   1      -4.285  -0.903   0.876  0.00  0.00    -0.265 OA
ATOM     24  H   UNK d   1      -2.516   1.285  -0.689  0.00  0.00     0.163 HD
BRANCH  22  25
ATOM     25  C   UNK d   1      -5.100   1.096  -0.025  0.00  0.00     0.144 A 
ATOM     26  O   UNK d   1      -4.947   2.247  -0.681  0.00  0.00    -0.298 OA
ATOM     27  C   UNK d   1      -6.089   2.878  -0.772  0.00  0.00     0.122 A 
ATOM     28 Br   UNK d   1      -6.366   4.578  -1.632  0.00  0.00    -0.023 Br
ATOM     29  C   UNK d   1      -7.075   2.128  -0.151  0.00  0.00     0.048 A 
ATOM     30  C   UNK d   1      -6.432   1.009   0.314  0.00  0.00     0.046 A 
ENDBRANCH  22  25
ENDBRANCH  19  21
ENDBRANCH   1  19
TORSDOF 3
