# created with PyMOL 2.3.2
@<TRIPOS>MOLECULE
746
49 52 1                 
SMALL
USER_CHARGES
@<TRIPOS>ATOM
1	  Br	-6.366	4.578	-1.632	Br	1	UNK0	0.000	
2	   C	-6.089	2.878	-0.772	C.2	1	UNK0	0.000	
3	   O	-4.947	2.247	-0.681	O.3	1	UNK0	0.000	
4	   C	-5.100	1.096	-0.025	C.2	1	UNK0	0.000	
5	   C	-6.432	1.009	0.314	C.2	1	UNK0	0.000	
6	   C	-7.075	2.128	-0.151	C.2	1	UNK0	0.000	
7	   C	-4.032	0.149	0.254	C.2	1	UNK0	0.000	
8	   O	-4.285	-0.903	0.876	O.2	1	UNK0	0.000	
9	   N	-2.716	0.405	-0.171	N.pl3	1	UNK0	0.000	
10	   C	-1.609	-0.497	0.075	C.3	1	UNK0	0.000	
11	   C	-1.116	-1.018	-1.226	C.3	1	UNK0	0.000	
12	   C	-0.583	0.104	0.944	C.2	1	UNK0	0.000	
13	   O	-0.803	1.309	1.317	O.2	1	UNK0	0.000	
14	   N	0.595	-0.497	1.402	N.pl3	1	UNK0	0.000	
15	   C	0.968	-1.855	1.063	C.3	1	UNK0	0.000	
16	   C	2.256	-1.802	0.301	C.3	1	UNK0	0.000	
17	   C	3.306	-1.016	1.020	C.3	1	UNK0	0.000	
18	   N	4.470	-1.865	1.204	N.3	1	UNK0	0.000	
19	   C	5.016	-2.164	-0.107	C.3	1	UNK0	0.000	
20	   C	5.865	-0.950	-0.501	C.3	1	UNK0	0.000	
21	   C	4.948	0.214	-0.452	C.2	1	UNK0	0.000	
22	   N	5.069	1.425	-1.029	N.pl3	1	UNK0	0.000	
23	   C	3.982	2.137	-0.693	C.2	1	UNK0	0.000	
24	   N	3.201	1.366	0.085	N.2	1	UNK0	0.000	
25	   C	3.772	0.162	0.255	C.2	1	UNK0	0.000	
26	   C	2.785	-0.598	2.395	C.3	1	UNK0	0.000	
27	   C	1.531	0.203	2.263	C.3	1	UNK0	0.000	
28	   H	-6.863	0.188	0.853	 H	1	UNK0	0.000	
29	   H	-8.130	2.388	-0.060	 H	1	UNK0	0.000	
30	   H	-2.516	1.285	-0.689	 H	1	UNK0	0.000	
31	   H	-2.034	-1.377	0.642	 H	1	UNK0	0.000	
32	   H	-1.731	-0.584	-2.042	 H	1	UNK0	0.000	
33	   H	-1.209	-2.116	-1.362	 H	1	UNK0	0.000	
34	   H	-0.077	-0.686	-1.457	 H	1	UNK0	0.000	
35	   H	0.172	-2.408	0.559	 H	1	UNK0	0.000	
36	   H	1.151	-2.433	2.018	 H	1	UNK0	0.000	
37	   H	2.601	-2.871	0.187	 H	1	UNK0	0.000	
38	   H	2.065	-1.430	-0.726	 H	1	UNK0	0.000	
39	   H	4.200	-2.797	1.626	 H	1	UNK0	0.000	
40	   H	5.583	-3.097	-0.143	 H	1	UNK0	0.000	
41	   H	4.202	-2.201	-0.883	 H	1	UNK0	0.000	
42	   H	6.614	-0.800	0.317	 H	1	UNK0	0.000	
43	   H	6.335	-1.090	-1.479	 H	1	UNK0	0.000	
44	   H	5.842	1.798	-1.636	 H	1	UNK0	0.000	
45	   H	3.751	3.145	-0.980	 H	1	UNK0	0.000	
46	   H	3.591	0.022	2.852	 H	1	UNK0	0.000	
47	   H	2.676	-1.512	2.989	 H	1	UNK0	0.000	
48	   H	1.042	0.207	3.282	 H	1	UNK0	0.000	
49	   H	1.692	1.242	1.959	 H	1	UNK0	0.000	
@<TRIPOS>BOND
1 1 2 1
2 2 3 1
3 2 6 2
4 3 4 1
5 4 5 2
6 4 7 1
7 5 6 1
8 7 8 2
9 7 9 1
10 9 10 1
11 10 11 1
12 10 12 1
13 12 13 2
14 12 14 1
15 14 15 1
16 14 27 1
17 15 16 1
18 16 17 1
19 17 18 1
20 17 25 1
21 17 26 1
22 18 19 1
23 19 20 1
24 20 21 1
25 21 22 1
26 21 25 2
27 22 23 1
28 23 24 2
29 24 25 1
30 26 27 1
31 5 28 1
32 6 29 1
33 9 30 1
34 10 31 1
35 11 32 1
36 11 33 1
37 11 34 1
38 15 35 1
39 15 36 1
40 16 37 1
41 16 38 1
42 18 39 1
43 19 40 1
44 19 41 1
45 20 42 1
46 20 43 1
47 22 44 1
48 23 45 1
49 26 46 1
50 26 47 1
51 27 48 1
52 27 49 1
@<TRIPOS>SUBSTRUCTURE
1	UNK0	1	GROUP	1 ****	UNK
