# created with PyMOL 2.3.2
@<TRIPOS>MOLECULE
754
49 52 1                 
SMALL
USER_CHARGES
@<TRIPOS>ATOM
1	  Br	6.183	-0.832	-3.462	Br	1	UNK0	0.000	
2	   C	5.605	0.188	-1.924	C.2	1	UNK0	0.000	
3	   O	4.490	0.801	-1.752	O.3	1	UNK0	0.000	
4	   C	4.430	1.390	-0.596	C.2	1	UNK0	0.000	
5	   C	5.619	1.137	0.049	C.2	1	UNK0	0.000	
6	   C	6.373	0.368	-0.800	C.2	1	UNK0	0.000	
7	   C	3.326	2.187	-0.032	C.2	1	UNK0	0.000	
8	   O	3.461	2.673	1.100	O.2	1	UNK0	0.000	
9	   N	2.127	2.405	-0.754	N.pl3	1	UNK0	0.000	
10	   C	1.066	3.197	-0.166	C.3	1	UNK0	0.000	
11	   C	-0.213	2.411	-0.010	C.3	1	UNK0	0.000	
12	   N	-0.217	1.406	-1.086	N.pl3	1	UNK0	0.000	
13	   C	0.349	1.814	-2.326	C.3	1	UNK0	0.000	
14	   C	1.868	1.880	-2.081	C.3	1	UNK0	0.000	
15	   C	-0.781	0.144	-0.779	C.2	1	UNK0	0.000	
16	   N	-1.342	-0.109	0.436	N.2	1	UNK0	0.000	
17	   C	-1.878	-1.301	0.741	C.2	1	UNK0	0.000	
18	   N	-1.873	-2.299	-0.169	N.2	1	UNK0	0.000	
19	   C	-1.342	-2.141	-1.394	C.2	1	UNK0	0.000	
20	   C	-0.790	-0.883	-1.678	C.2	1	UNK0	0.000	
21	   C	-1.326	-3.226	-2.412	C.3	1	UNK0	0.000	
22	   N	-2.451	-1.514	2.020	N.pl3	1	UNK0	0.000	
23	   C	-3.044	-2.766	2.423	C.3	1	UNK0	0.000	
24	   C	-2.447	-3.224	3.720	C.3	1	UNK0	0.000	
25	   O	-1.661	-2.250	4.333	O.3	1	UNK0	0.000	
26	   C	-2.327	-1.028	4.365	C.3	1	UNK0	0.000	
27	   C	-2.450	-0.434	2.983	C.3	1	UNK0	0.000	
28	   H	5.913	1.484	1.054	 H	1	UNK0	0.000	
29	   H	7.378	-0.014	-0.601	 H	1	UNK0	0.000	
30	   H	0.872	4.127	-0.736	 H	1	UNK0	0.000	
31	   H	1.355	3.521	0.877	 H	1	UNK0	0.000	
32	   H	-0.293	1.914	0.956	 H	1	UNK0	0.000	
33	   H	-1.113	3.055	-0.231	 H	1	UNK0	0.000	
34	   H	0.136	1.092	-3.116	 H	1	UNK0	0.000	
35	   H	0.002	2.844	-2.593	 H	1	UNK0	0.000	
36	   H	2.223	0.868	-2.249	 H	1	UNK0	0.000	
37	   H	2.364	2.552	-2.807	 H	1	UNK0	0.000	
38	   H	-0.371	-0.783	-2.663	 H	1	UNK0	0.000	
39	   H	-0.283	-3.484	-2.684	 H	1	UNK0	0.000	
40	   H	-1.916	-4.061	-2.037	 H	1	UNK0	0.000	
41	   H	-1.827	-2.817	-3.320	 H	1	UNK0	0.000	
42	   H	-2.852	-3.563	1.654	 H	1	UNK0	0.000	
43	   H	-4.153	-2.652	2.535	 H	1	UNK0	0.000	
44	   H	-3.265	-3.481	4.448	 H	1	UNK0	0.000	
45	   H	-1.835	-4.138	3.582	 H	1	UNK0	0.000	
46	   H	-1.768	-0.329	5.010	 H	1	UNK0	0.000	
47	   H	-3.338	-1.162	4.837	 H	1	UNK0	0.000	
48	   H	-1.613	0.281	2.808	 H	1	UNK0	0.000	
49	   H	-3.427	0.109	2.928	 H	1	UNK0	0.000	
@<TRIPOS>BOND
1 1 2 1
2 2 3 1
3 2 6 2
4 3 4 1
5 4 5 2
6 4 7 1
7 5 6 1
8 7 8 2
9 7 9 1
10 9 10 1
11 9 14 1
12 10 11 1
13 11 12 1
14 12 13 1
15 12 15 1
16 13 14 1
17 15 16 2
18 15 20 1
19 16 17 1
20 17 18 2
21 17 22 1
22 18 19 1
23 19 20 2
24 19 21 1
25 22 23 1
26 22 27 1
27 23 24 1
28 24 25 1
29 25 26 1
30 26 27 1
31 5 28 1
32 6 29 1
33 10 30 1
34 10 31 1
35 11 32 1
36 11 33 1
37 13 34 1
38 13 35 1
39 14 36 1
40 14 37 1
41 20 38 1
42 21 39 1
43 21 40 1
44 21 41 1
45 23 42 1
46 23 43 1
47 24 44 1
48 24 45 1
49 26 46 1
50 26 47 1
51 27 48 1
52 27 49 1
@<TRIPOS>SUBSTRUCTURE
1	UNK0	1	GROUP	1 ****	UNK
