REMARK  3 active torsions:
REMARK  status: ('A' for Active; 'I' for Inactive)
REMARK    1  A    between atoms: C_4  and  C_7 
REMARK       I    between atoms: C_7  and  N_9 
REMARK    2  A    between atoms: N_12  and  C_15 
REMARK    3  A    between atoms: C_17  and  N_22 
ROOT
ATOM      1  C   UNK d   1       3.326   2.187  -0.032  0.00  0.00     0.277 C 
ATOM      2  O   UNK d   1       3.461   2.673   1.100  0.00  0.00    -0.265 OA
ATOM      3  N   UNK d   1       2.127   2.405  -0.754  0.00  0.00    -0.343 N 
ATOM      4  C   UNK d   1       1.066   3.197  -0.166  0.00  0.00     0.146 C 
ATOM      5  C   UNK d   1      -0.213   2.411  -0.010  0.00  0.00     0.144 C 
ATOM      6  N   UNK d   1      -0.217   1.406  -1.086  0.00  0.00    -0.362 N 
ATOM      7  C   UNK d   1       0.349   1.814  -2.326  0.00  0.00     0.144 C 
ATOM      8  C   UNK d   1       1.868   1.880  -2.081  0.00  0.00     0.146 C 
ENDROOT
BRANCH   6   9
ATOM      9  C   UNK d   1      -0.781   0.144  -0.779  0.00  0.00     0.146 A 
ATOM     10  N   UNK d   1      -1.342  -0.109   0.436  0.00  0.00    -0.045 NA
ATOM     11  C   UNK d   1      -1.878  -1.301   0.741  0.00  0.00     0.726 A 
ATOM     12  N   UNK d   1      -1.873  -2.299  -0.169  0.00  0.00    -0.068 NA
ATOM     13  C   UNK d   1      -1.342  -2.141  -1.394  0.00  0.00     0.053 A 
ATOM     14  C   UNK d   1      -0.790  -0.883  -1.678  0.00  0.00     0.078 A 
ATOM     15  C   UNK d   1      -1.326  -3.226  -2.412  0.00  0.00     0.071 C 
BRANCH  11  16
ATOM     16  N   UNK d   1      -2.451  -1.514   2.020  0.00  0.00    -0.210 N 
ATOM     17  C   UNK d   1      -3.044  -2.766   2.423  0.00  0.00     0.167 C 
ATOM     18  C   UNK d   1      -2.447  -3.224   3.720  0.00  0.00     0.188 C 
ATOM     19  O   UNK d   1      -1.661  -2.250   4.333  0.00  0.00    -0.388 OA
ATOM     20  C   UNK d   1      -2.327  -1.028   4.365  0.00  0.00     0.188 C 
ATOM     21  C   UNK d   1      -2.450  -0.434   2.983  0.00  0.00     0.167 C 
ENDBRANCH  11  16
ENDBRANCH   6   9
BRANCH   1  22
ATOM     22  C   UNK d   1       4.430   1.390  -0.596  0.00  0.00     0.144 A 
ATOM     23  O   UNK d   1       4.490   0.801  -1.752  0.00  0.00    -0.298 OA
ATOM     24  C   UNK d   1       5.605   0.188  -1.924  0.00  0.00     0.122 A 
ATOM     25 Br   UNK d   1       6.183  -0.832  -3.462  0.00  0.00    -0.023 Br
ATOM     26  C   UNK d   1       6.373   0.368  -0.800  0.00  0.00     0.048 A 
ATOM     27  C   UNK d   1       5.619   1.137   0.049  0.00  0.00     0.046 A 
ENDBRANCH   1  22
TORSDOF 3
