# created with PyMOL 2.3.2
@<TRIPOS>MOLECULE
755
53 56 1                 
SMALL
USER_CHARGES
@<TRIPOS>ATOM
1	  Br	-7.675	1.313	-0.763	Br	1	UNK0	0.000	
2	   C	-6.143	2.434	-0.545	C.2	1	UNK0	0.000	
3	   O	-4.928	2.159	-0.947	O.3	1	UNK0	0.000	
4	   C	-4.081	3.116	-0.660	C.2	1	UNK0	0.000	
5	   C	-4.805	4.093	-0.020	C.2	1	UNK0	0.000	
6	   C	-6.108	3.673	0.058	C.2	1	UNK0	0.000	
7	   C	-2.632	3.138	-0.966	C.2	1	UNK0	0.000	
8	   O	-1.949	4.118	-0.633	O.2	1	UNK0	0.000	
9	   N	-2.046	2.033	-1.638	N.pl3	1	UNK0	0.000	
10	   C	-2.858	0.883	-2.027	C.3	1	UNK0	0.000	
11	   C	-1.975	-0.185	-2.669	C.3	1	UNK0	0.000	
12	   N	-0.850	-0.403	-1.781	N.pl3	1	UNK0	0.000	
13	   C	-0.015	0.716	-1.439	C.3	1	UNK0	0.000	
14	   C	-0.636	1.983	-1.969	C.3	1	UNK0	0.000	
15	   C	-0.561	-1.701	-1.246	C.2	1	UNK0	0.000	
16	   N	-1.301	-2.773	-1.562	N.2	1	UNK0	0.000	
17	   C	-1.008	-3.972	-1.046	C.2	1	UNK0	0.000	
18	   N	0.026	-4.147	-0.200	N.2	1	UNK0	0.000	
19	   C	0.808	-3.113	0.158	C.2	1	UNK0	0.000	
20	   C	0.490	-1.886	-0.385	C.2	1	UNK0	0.000	
21	   N	1.906	-3.246	1.043	N.pl3	1	UNK0	0.000	
22	   C	2.695	-2.088	1.410	C.3	1	UNK0	0.000	
23	   C	3.568	-2.491	2.580	C.3	1	UNK0	0.000	
24	   N	4.441	-3.554	2.161	N.3	1	UNK0	0.000	
25	   C	3.801	-4.619	1.455	C.3	1	UNK0	0.000	
26	   C	2.300	-4.516	1.622	C.3	1	UNK0	0.000	
27	   C	5.600	-3.009	1.501	C.3	1	UNK0	0.000	
28	   C	-1.833	-5.153	-1.403	C.3	1	UNK0	0.000	
29	   H	-4.429	5.029	0.359	 H	1	UNK0	0.000	
30	   H	-6.968	4.199	0.505	 H	1	UNK0	0.000	
31	   H	-3.661	1.182	-2.719	 H	1	UNK0	0.000	
32	   H	-3.336	0.462	-1.117	 H	1	UNK0	0.000	
33	   H	-2.537	-1.111	-2.802	 H	1	UNK0	0.000	
34	   H	-1.617	0.237	-3.634	 H	1	UNK0	0.000	
35	   H	0.135	0.766	-0.333	 H	1	UNK0	0.000	
36	   H	0.978	0.592	-1.956	 H	1	UNK0	0.000	
37	   H	-0.091	2.871	-1.625	 H	1	UNK0	0.000	
38	   H	-0.568	1.940	-3.084	 H	1	UNK0	0.000	
39	   H	1.090	-1.024	-0.128	 H	1	UNK0	0.000	
40	   H	3.321	-1.780	0.562	 H	1	UNK0	0.000	
41	   H	1.987	-1.278	1.683	 H	1	UNK0	0.000	
42	   H	4.172	-1.606	2.847	 H	1	UNK0	0.000	
43	   H	2.934	-2.773	3.437	 H	1	UNK0	0.000	
44	   H	4.134	-5.605	1.838	 H	1	UNK0	0.000	
45	   H	4.029	-4.586	0.378	 H	1	UNK0	0.000	
46	   H	2.064	-4.472	2.714	 H	1	UNK0	0.000	
47	   H	1.768	-5.347	1.120	 H	1	UNK0	0.000	
48	   H	5.671	-1.924	1.611	 H	1	UNK0	0.000	
49	   H	6.509	-3.472	1.967	 H	1	UNK0	0.000	
50	   H	5.579	-3.283	0.425	 H	1	UNK0	0.000	
51	   H	-1.170	-6.039	-1.476	 H	1	UNK0	0.000	
52	   H	-2.605	-5.325	-0.625	 H	1	UNK0	0.000	
53	   H	-2.276	-5.010	-2.404	 H	1	UNK0	0.000	
@<TRIPOS>BOND
1 1 2 1
2 2 3 1
3 2 6 2
4 3 4 1
5 4 5 2
6 4 7 1
7 5 6 1
8 7 8 2
9 7 9 1
10 9 10 1
11 9 14 1
12 10 11 1
13 11 12 1
14 12 13 1
15 12 15 1
16 13 14 1
17 15 16 2
18 15 20 1
19 16 17 1
20 17 18 2
21 17 28 1
22 18 19 1
23 19 20 2
24 19 21 1
25 21 22 1
26 21 26 1
27 22 23 1
28 23 24 1
29 24 25 1
30 24 27 1
31 25 26 1
32 5 29 1
33 6 30 1
34 10 31 1
35 10 32 1
36 11 33 1
37 11 34 1
38 13 35 1
39 13 36 1
40 14 37 1
41 14 38 1
42 20 39 1
43 22 40 1
44 22 41 1
45 23 42 1
46 23 43 1
47 25 44 1
48 25 45 1
49 26 46 1
50 26 47 1
51 27 48 1
52 27 49 1
53 27 50 1
54 28 51 1
55 28 52 1
56 28 53 1
@<TRIPOS>SUBSTRUCTURE
1	UNK0	1	GROUP	1 ****	UNK
