REMARK  3 active torsions:
REMARK  status: ('A' for Active; 'I' for Inactive)
REMARK    1  A    between atoms: C_4  and  C_7 
REMARK       I    between atoms: C_7  and  N_9 
REMARK    2  A    between atoms: N_12  and  C_15 
REMARK    3  A    between atoms: C_19  and  N_21 
ROOT
ATOM      1  C   UNK d   1      -2.632   3.138  -0.966  0.00  0.00     0.277 C 
ATOM      2  O   UNK d   1      -1.949   4.118  -0.633  0.00  0.00    -0.265 OA
ATOM      3  N   UNK d   1      -2.046   2.033  -1.638  0.00  0.00    -0.343 N 
ATOM      4  C   UNK d   1      -2.858   0.883  -2.027  0.00  0.00     0.146 C 
ATOM      5  C   UNK d   1      -1.975  -0.185  -2.669  0.00  0.00     0.144 C 
ATOM      6  N   UNK d   1      -0.850  -0.403  -1.781  0.00  0.00    -0.363 N 
ATOM      7  C   UNK d   1      -0.015   0.716  -1.439  0.00  0.00     0.144 C 
ATOM      8  C   UNK d   1      -0.636   1.983  -1.969  0.00  0.00     0.146 C 
ENDROOT
BRANCH   6   9
ATOM      9  C   UNK d   1      -0.561  -1.701  -1.246  0.00  0.00     0.131 A 
ATOM     10  N   UNK d   1      -1.301  -2.773  -1.562  0.00  0.00    -0.216 NA
ATOM     11  C   UNK d   1      -1.008  -3.972  -1.046  0.00  0.00     0.126 A 
ATOM     12  N   UNK d   1       0.026  -4.147  -0.200  0.00  0.00    -0.216 NA
ATOM     13  C   UNK d   1      -1.833  -5.153  -1.403  0.00  0.00     0.093 C 
ATOM     14  C   UNK d   1       0.808  -3.113   0.158  0.00  0.00     0.131 A 
ATOM     15  C   UNK d   1       0.490  -1.886  -0.385  0.00  0.00     0.100 A 
BRANCH  14  16
ATOM     16  N   UNK d   1       1.906  -3.246   1.043  0.00  0.00    -0.362 N 
ATOM     17  C   UNK d   1       2.695  -2.088   1.410  0.00  0.00     0.154 C 
ATOM     18  C   UNK d   1       3.568  -2.491   2.580  0.00  0.00     0.291 C 
ATOM     19  N   UNK d   1       4.441  -3.554   2.161  0.00  0.00     0.087 N 
ATOM     20  C   UNK d   1       3.801  -4.619   1.455  0.00  0.00     0.291 C 
ATOM     21  C   UNK d   1       5.600  -3.009   1.501  0.00  0.00     0.310 C 
ATOM     22  C   UNK d   1       2.300  -4.516   1.622  0.00  0.00     0.154 C 
ENDBRANCH  14  16
ENDBRANCH   6   9
BRANCH   1  23
ATOM     23  C   UNK d   1      -4.081   3.116  -0.660  0.00  0.00     0.144 A 
ATOM     24  O   UNK d   1      -4.928   2.159  -0.947  0.00  0.00    -0.298 OA
ATOM     25  C   UNK d   1      -6.143   2.434  -0.545  0.00  0.00     0.122 A 
ATOM     26 Br   UNK d   1      -7.675   1.313  -0.763  0.00  0.00    -0.023 Br
ATOM     27  C   UNK d   1      -6.108   3.673   0.058  0.00  0.00     0.048 A 
ATOM     28  C   UNK d   1      -4.805   4.093  -0.020  0.00  0.00     0.046 A 
ENDBRANCH   1  23
TORSDOF 3
