# created with PyMOL 2.3.2
@<TRIPOS>MOLECULE
767
43 46 1                 
SMALL
USER_CHARGES
@<TRIPOS>ATOM
1	  Br	0.627	5.671	3.268	Br	1	UNK0	0.000	
2	   C	0.576	3.956	4.077	C.2	1	UNK0	0.000	
3	   O	0.107	2.843	3.601	O.3	1	UNK0	0.000	
4	   C	0.238	1.847	4.440	C.2	1	UNK0	0.000	
5	   C	0.850	2.362	5.568	C.2	1	UNK0	0.000	
6	   C	1.076	3.714	5.358	C.2	1	UNK0	0.000	
7	   C	-0.170	0.460	4.252	C.2	1	UNK0	0.000	
8	   N	-0.035	-0.567	5.121	N.2	1	UNK0	0.000	
9	   O	-0.521	-1.653	4.591	O.3	1	UNK0	0.000	
10	   C	-0.983	-1.405	3.392	C.2	1	UNK0	0.000	
11	   N	-0.765	-0.101	3.185	N.2	1	UNK0	0.000	
12	   C	-1.593	-2.415	2.536	C.2	1	UNK0	0.000	
13	   O	-1.700	-3.619	2.950	O.2	1	UNK0	0.000	
14	   N	-2.082	-2.107	1.236	N.pl3	1	UNK0	0.000	
15	   C	-2.677	-3.096	0.403	C.3	1	UNK0	0.000	
16	   C	-3.124	-2.549	-0.936	C.3	1	UNK0	0.000	
17	   N	-2.003	-1.995	-1.682	N.pl3	1	UNK0	0.000	
18	   C	-2.237	-1.436	-2.950	C.2	1	UNK0	0.000	
19	   O	-3.457	-1.466	-3.345	O.2	1	UNK0	0.000	
20	   C	-1.280	-0.840	-3.847	C.2	1	UNK0	0.000	
21	   C	-1.747	-0.231	-5.011	C.2	1	UNK0	0.000	
22	   C	-0.858	0.353	-5.878	C.2	1	UNK0	0.000	
23	   C	0.475	0.339	-5.607	C.2	1	UNK0	0.000	
24	   C	1.376	0.935	-6.493	C.2	1	UNK0	0.000	
25	   C	0.955	1.546	-7.649	C.2	1	UNK0	0.000	
26	   C	-0.390	1.556	-7.917	C.2	1	UNK0	0.000	
27	   C	-1.291	0.973	-7.054	C.2	1	UNK0	0.000	
28	   O	0.880	-0.237	-4.512	O.3	1	UNK0	0.000	
29	   C	0.075	-0.820	-3.631	C.2	1	UNK0	0.000	
30	   O	0.595	-1.340	-2.616	O.co2	1	UNK0	0.000	
31	   H	1.086	1.781	6.425	 H	1	UNK0	0.000	
32	   H	1.541	4.416	6.045	 H	1	UNK0	0.000	
33	   H	-1.998	-1.132	0.893	 H	1	UNK0	0.000	
34	   H	-3.609	-3.454	0.921	 H	1	UNK0	0.000	
35	   H	-2.034	-3.990	0.289	 H	1	UNK0	0.000	
36	   H	-3.501	-3.409	-1.528	 H	1	UNK0	0.000	
37	   H	-3.954	-1.828	-0.822	 H	1	UNK0	0.000	
38	   H	-1.040	-2.000	-1.300	 H	1	UNK0	0.000	
39	   H	-2.814	-0.210	-5.246	 H	1	UNK0	0.000	
40	   H	2.425	0.907	-6.248	 H	1	UNK0	0.000	
41	   H	1.683	1.994	-8.305	 H	1	UNK0	0.000	
42	   H	-0.731	2.032	-8.821	 H	1	UNK0	0.000	
43	   H	-2.350	0.976	-7.256	 H	1	UNK0	0.000	
@<TRIPOS>BOND
1 1 2 1
2 2 3 1
3 2 6 2
4 3 4 1
5 4 5 2
6 4 7 1
7 5 6 1
8 7 8 2
9 7 11 1
10 8 9 1
11 9 10 1
12 10 11 2
13 10 12 1
14 12 13 2
15 12 14 1
16 14 15 1
17 15 16 1
18 16 17 1
19 17 18 1
20 18 19 2
21 18 20 1
22 20 21 2
23 20 29 1
24 21 22 1
25 22 23 2
26 22 27 1
27 23 24 1
28 23 28 1
29 24 25 2
30 25 26 1
31 26 27 2
32 28 29 1
33 29 30 2
34 5 31 1
35 6 32 1
36 14 33 1
37 15 34 1
38 15 35 1
39 16 36 1
40 16 37 1
41 17 38 1
42 21 39 1
43 24 40 1
44 25 41 1
45 26 42 1
46 27 43 1
@<TRIPOS>SUBSTRUCTURE
1	UNK0	1	GROUP	1 ****	UNK
