REMARK  6 active torsions:
REMARK  status: ('A' for Active; 'I' for Inactive)
REMARK    1  A    between atoms: C_4  and  C_7 
REMARK    2  A    between atoms: C_10  and  C_12 
REMARK       I    between atoms: C_12  and  N_14 
REMARK    3  A    between atoms: N_14  and  C_15 
REMARK    4  A    between atoms: C_15  and  C_16 
REMARK    5  A    between atoms: C_16  and  N_17 
REMARK       I    between atoms: N_17  and  C_18 
REMARK    6  A    between atoms: C_18  and  C_20 
ROOT
ATOM      1  C   UNK d   1      -2.677  -3.096   0.403  0.00  0.00     0.142 C 
ENDROOT
BRANCH   1   2
ATOM      2  N   UNK d   1      -2.082  -2.107   1.236  0.00  0.00    -0.352 N 
ATOM      3  C   UNK d   1      -1.593  -2.415   2.536  0.00  0.00     0.297 C 
ATOM      4  O   UNK d   1      -1.700  -3.619   2.950  0.00  0.00    -0.264 OA
ATOM      5  H   UNK d   1      -1.998  -1.132   0.893  0.00  0.00     0.162 HD
BRANCH   3   6
ATOM      6  C   UNK d   1      -0.983  -1.405   3.392  0.00  0.00     0.264 A 
ATOM      7  O   UNK d   1      -0.521  -1.653   4.591  0.00  0.00    -0.185 OA
ATOM      8  N   UNK d   1      -0.035  -0.567   5.121  0.00  0.00    -0.103 NA
ATOM      9  C   UNK d   1      -0.170   0.460   4.252  0.00  0.00     0.213 A 
ATOM     10  N   UNK d   1      -0.765  -0.101   3.185  0.00  0.00    -0.193 NA
BRANCH   9  11
ATOM     11  C   UNK d   1       0.238   1.847   4.440  0.00  0.00     0.127 A 
ATOM     12  O   UNK d   1       0.107   2.843   3.601  0.00  0.00    -0.299 OA
ATOM     13  C   UNK d   1       0.576   3.956   4.077  0.00  0.00     0.122 A 
ATOM     14 Br   UNK d   1       0.627   5.671   3.268  0.00  0.00    -0.023 Br
ATOM     15  C   UNK d   1       1.076   3.714   5.358  0.00  0.00     0.048 A 
ATOM     16  C   UNK d   1       0.850   2.362   5.568  0.00  0.00     0.045 A 
ENDBRANCH   9  11
ENDBRANCH   3   6
ENDBRANCH   1   2
BRANCH   1  17
ATOM     17  C   UNK d   1      -3.124  -2.549  -0.936  0.00  0.00     0.142 C 
BRANCH  17  18
ATOM     18  N   UNK d   1      -2.003  -1.995  -1.682  0.00  0.00    -0.355 N 
ATOM     19  C   UNK d   1      -2.237  -1.436  -2.950  0.00  0.00     0.257 C 
ATOM     20  O   UNK d   1      -3.457  -1.466  -3.345  0.00  0.00    -0.267 OA
ATOM     21  H   UNK d   1      -1.040  -2.000  -1.300  0.00  0.00     0.162 HD
BRANCH  19  22
ATOM     22  C   UNK d   1      -1.280  -0.840  -3.847  0.00  0.00     0.108 A 
ATOM     23  C   UNK d   1      -1.747  -0.231  -5.011  0.00  0.00     0.037 A 
ATOM     24  C   UNK d   1      -0.858   0.353  -5.878  0.00  0.00    -0.001 A 
ATOM     25  C   UNK d   1       0.475   0.339  -5.607  0.00  0.00     0.089 A 
ATOM     26  C   UNK d   1      -1.291   0.973  -7.054  0.00  0.00     0.014 A 
ATOM     27  C   UNK d   1       1.376   0.935  -6.493  0.00  0.00     0.038 A 
ATOM     28  O   UNK d   1       0.880  -0.237  -4.512  0.00  0.00    -0.274 OA
ATOM     29  C   UNK d   1       0.955   1.546  -7.649  0.00  0.00     0.003 A 
ATOM     30  C   UNK d   1      -0.390   1.556  -7.917  0.00  0.00     0.001 A 
ATOM     31  C   UNK d   1       0.075  -0.820  -3.631  0.00  0.00     0.304 A 
ATOM     32  O   UNK d   1       0.595  -1.340  -2.616  0.00  0.00    -0.259 OA
ENDBRANCH  19  22
ENDBRANCH  17  18
ENDBRANCH   1  17
TORSDOF 6
