REMARK  3 active torsions:
REMARK  status: ('A' for Active; 'I' for Inactive)
REMARK    1  A    between atoms: C_4  and  C_9 
REMARK       I    between atoms: C_9  and  N_11 
REMARK    2  A    between atoms: N_14  and  C_17 
REMARK    3  A    between atoms: C_17  and  C_18 
ROOT
ATOM      1  C   UNK d   1      -4.050   0.324   0.752  0.00  0.00     0.189 C 
ATOM      2  O   UNK d   1      -4.459  -0.778   1.352  0.00  0.00    -0.171 OA
ATOM      3  N   UNK d   1      -2.688   0.575   0.827  0.00  0.00    -0.355 N 
ATOM      4  C   UNK d   1      -1.821  -0.387   1.554  0.00  0.00     0.155 C 
ATOM      5  C   UNK d   1      -0.730  -0.856   0.621  0.00  0.00     0.292 C 
ATOM      6  N   UNK d   1       0.001   0.253   0.150  0.00  0.00     0.095 N 
ATOM      7  C   UNK d   1      -0.501   1.485   0.655  0.00  0.00     0.292 C 
ATOM      8  C   UNK d   1      -1.990   1.673   0.277  0.00  0.00     0.155 C 
ENDROOT
BRANCH   1   9
ATOM      9  C   UNK d   1      -5.144   1.045   0.130  0.00  0.00     0.042 A 
ATOM     10  C   UNK d   1      -4.986   2.220  -0.554  0.00  0.00     0.043 A 
ATOM     11  C   UNK d   1      -6.103   2.841  -1.121  0.00  0.00     0.087 A 
ATOM     12 Br   UNK d   1      -5.956   4.459  -2.075  0.00  0.00    -0.045 Br
ATOM     13  C   UNK d   1      -7.334   2.250  -0.974  0.00  0.00     0.305 A 
ATOM     14  O   UNK d   1      -7.446   1.145  -0.325  0.00  0.00    -0.286 OA
ATOM     15  O   UNK d   1      -8.370   2.768  -1.466  0.00  0.00    -0.258 OA
ATOM     16  C   UNK d   1      -6.442   0.533   0.217  0.00  0.00     0.162 A 
ENDBRANCH   1   9
BRANCH   6  17
ATOM     17  C   UNK d   1       1.423   0.161   0.247  0.00  0.00     0.311 C 
BRANCH  17  18
ATOM     18  C   UNK d   1       2.044  -0.938  -0.514  0.00  0.00    -0.027 A 
ATOM     19  C   UNK d   1       1.464  -1.583  -1.557  0.00  0.00     0.048 A 
ATOM     20  C   UNK d   1       2.122  -2.600  -2.203  0.00  0.00     0.105 A 
ATOM     21  C   UNK d   1       3.374  -2.966  -1.789  0.00  0.00     0.105 A 
ATOM     22  O   UNK d   1       1.798  -3.436  -3.283  0.00  0.00    -0.323 OA
ATOM     23  C   UNK d   1       3.983  -2.326  -0.733  0.00  0.00     0.040 A 
ATOM     24  O   UNK d   1       3.838  -4.004  -2.579  0.00  0.00    -0.323 OA
ATOM     25  C   UNK d   1       3.310  -1.324  -0.113  0.00  0.00     0.012 A 
ATOM     26  C   UNK d   1       2.702  -4.524  -3.255  0.00  0.00     0.352 C 
ENDBRANCH  17  18
ENDBRANCH   6  17
TORSDOF 3
