REMARK  7 active torsions:
REMARK  status: ('A' for Active; 'I' for Inactive)
REMARK    1  A    between atoms: N_4  and  C_10 
REMARK    2  A    between atoms: C_11  and  O_33 
REMARK       I    between atoms: N_18  and  C_21 
REMARK    3  A    between atoms: C_21  and  C_23 
REMARK    4  A    between atoms: C_25  and  O_29 
REMARK    5  A    between atoms: O_29  and  C_30 
REMARK    6  A    between atoms: C_30  and  C_31 
REMARK    7  A    between atoms: C_31  and  N_32 
ROOT
ATOM      1  C   UNK d   1       0.382  -1.769  -3.927  0.00  0.00     0.152 C 
ATOM      2  C   UNK d   1       0.128  -2.940  -2.969  0.00  0.00     0.080 C 
ATOM      3  C   UNK d   1      -0.840  -2.512  -1.920  0.00  0.00     0.077 C 
ATOM      4  C   UNK d   1      -0.217  -1.393  -1.116  0.00  0.00     0.067 C 
ATOM      5  O   UNK d   1       0.829  -0.779  -1.779  0.00  0.00    -0.378 OA
ATOM      6  C   UNK d   1       0.568  -0.528  -3.119  0.00  0.00     0.197 C 
ATOM      7  C   UNK d   1      -1.305  -0.467  -0.710  0.00  0.00     0.058 C 
ATOM      8  C   UNK d   1      -0.692   0.656   0.141  0.00  0.00     0.128 C 
ATOM      9  N   UNK d   1      -0.235   0.075   1.360  0.00  0.00    -0.359 N 
ATOM     10  C   UNK d   1      -0.267  -1.426   1.385  0.00  0.00     0.128 C 
ATOM     11  C   UNK d   1       0.346  -2.001   0.151  0.00  0.00     0.058 C 
ATOM     12  C   UNK d   1       0.221   0.754   2.473  0.00  0.00     0.187 C 
ATOM     13  O   UNK d   1       0.570  -0.005   3.491  0.00  0.00    -0.171 OA
ATOM     14  C   UNK d   1      -0.281  -4.170  -3.713  0.00  0.00     0.048 C 
ENDROOT
BRANCH   2  15
ATOM     15  O   UNK d   1       1.348  -3.205  -2.342  0.00  0.00    -0.388 OA
ATOM     16  H   UNK d   1       2.122  -2.828  -2.831  0.00  0.00     0.210 HD
ENDBRANCH   2  15
BRANCH   1  17
ATOM     17  N   UNK d   1      -0.592  -1.693  -4.968  0.00  0.00    -0.298 N 
ATOM     18  C   UNK d   1      -1.756  -1.026  -4.870  0.00  0.00     0.121 A 
ATOM     19  C   UNK d   1      -2.673  -0.972  -5.889  0.00  0.00     0.094 A 
ATOM     20 Br   UNK d   1      -4.279   0.010  -5.610  0.00  0.00    -0.044 Br
ATOM     21  C   UNK d   1      -2.412  -1.620  -7.071  0.00  0.00     0.268 A 
ATOM     22  N   UNK d   1      -1.249  -2.286  -7.169  0.00  0.00    -0.274 N 
ATOM     23  O   UNK d   1      -3.257  -1.566  -7.998  0.00  0.00    -0.267 OA
ATOM     24  C   UNK d   1      -0.386  -2.319  -6.166  0.00  0.00     0.329 A 
ATOM     25  H   UNK d   1      -1.065  -2.773  -8.071  0.00  0.00     0.173 HD
ATOM     26  O   UNK d   1       0.687  -2.968  -6.336  0.00  0.00    -0.246 OA
ENDBRANCH   1  17
BRANCH  12  27
ATOM     27  C   UNK d   1       0.382   2.144   2.714  0.00  0.00     0.020 A 
ATOM     28  C   UNK d   1       0.776   2.600   3.985  0.00  0.00     0.052 A 
ATOM     29  C   UNK d   1       0.980   3.897   4.334  0.00  0.00     0.069 A 
ATOM     30  C   UNK d   1       0.777   4.859   3.323  0.00  0.00     0.037 A 
ATOM     31  C   UNK d   1       0.398   4.445   2.092  0.00  0.00     0.004 A 
ATOM     32  C   UNK d   1       0.194   3.094   1.763  0.00  0.00     0.016 A 
BRANCH  29  33
ATOM     33  O   UNK d   1       1.358   4.300   5.580  0.00  0.00    -0.349 OA
BRANCH  33  34
ATOM     34  C   UNK d   1       1.588   3.612   6.734  0.00  0.00     0.205 C 
BRANCH  34  35
ATOM     35  C   UNK d   1       0.366   2.949   7.271  0.00  0.00     0.293 C 
BRANCH  35  36
ATOM     36  N   UNK d   1      -0.655   3.959   7.553  0.00  0.00     0.080 N 
ATOM     37  H   UNK d   1      -1.176   4.232   6.707  0.00  0.00     0.312 HD
ATOM     38  H   UNK d   1      -0.302   4.736   8.120  0.00  0.00     0.312 HD
ENDBRANCH  35  36
ENDBRANCH  34  35
ENDBRANCH  33  34
ENDBRANCH  29  33
ENDBRANCH  12  27
TORSDOF 7
