# created with PyMOL 2.3.2
@<TRIPOS>MOLECULE
776
63 66 1                 
SMALL
USER_CHARGES
@<TRIPOS>ATOM
1	  Br	-4.279	0.010	-5.610	Br	1	UNK0	0.000	
2	   C	-2.673	-0.972	-5.889	C.2	1	UNK0	0.000	
3	   C	-1.756	-1.026	-4.870	C.2	1	UNK0	0.000	
4	   N	-0.592	-1.693	-4.968	N.pl3	1	UNK0	0.000	
5	   C	-0.386	-2.319	-6.166	C.2	1	UNK0	0.000	
6	   O	0.687	-2.968	-6.336	O.2	1	UNK0	0.000	
7	   N	-1.249	-2.286	-7.169	N.pl3	1	UNK0	0.000	
8	   C	-2.412	-1.620	-7.071	C.2	1	UNK0	0.000	
9	   O	-3.257	-1.566	-7.998	O.2	1	UNK0	0.000	
10	   C	0.382	-1.769	-3.927	C.3	1	UNK0	0.000	
11	   C	0.128	-2.940	-2.969	C.3	1	UNK0	0.000	
12	   C	-0.840	-2.512	-1.920	C.3	1	UNK0	0.000	
13	   C	-0.217	-1.393	-1.116	C.3	1	UNK0	0.000	
14	   O	0.829	-0.779	-1.779	O.3	1	UNK0	0.000	
15	   C	0.568	-0.528	-3.119	C.3	1	UNK0	0.000	
16	   C	-1.305	-0.467	-0.710	C.3	1	UNK0	0.000	
17	   C	-0.692	0.656	0.141	C.3	1	UNK0	0.000	
18	   N	-0.235	0.075	1.360	N.pl3	1	UNK0	0.000	
19	   C	-0.267	-1.426	1.385	C.3	1	UNK0	0.000	
20	   C	0.346	-2.001	0.151	C.3	1	UNK0	0.000	
21	   C	0.221	0.754	2.473	C.2	1	UNK0	0.000	
22	   O	0.570	-0.005	3.491	O.2	1	UNK0	0.000	
23	   C	0.382	2.144	2.714	C.2	1	UNK0	0.000	
24	   C	0.776	2.600	3.985	C.2	1	UNK0	0.000	
25	   C	0.980	3.897	4.334	C.2	1	UNK0	0.000	
26	   C	0.777	4.859	3.323	C.2	1	UNK0	0.000	
27	   C	0.398	4.445	2.092	C.2	1	UNK0	0.000	
28	   C	0.194	3.094	1.763	C.2	1	UNK0	0.000	
29	   O	1.358	4.300	5.580	O.3	1	UNK0	0.000	
30	   C	1.588	3.612	6.734	C.3	1	UNK0	0.000	
31	   C	0.366	2.949	7.271	C.3	1	UNK0	0.000	
32	   N	-0.655	3.959	7.553	N.3	1	UNK0	0.000	
33	   O	1.348	-3.205	-2.342	O.3	1	UNK0	0.000	
34	   C	-0.281	-4.170	-3.713	C.3	1	UNK0	0.000	
35	   H	-1.964	-0.524	-3.961	 H	1	UNK0	0.000	
36	   H	-1.065	-2.773	-8.071	 H	1	UNK0	0.000	
37	   H	1.364	-2.042	-4.419	 H	1	UNK0	0.000	
38	   H	-1.844	-2.248	-2.302	 H	1	UNK0	0.000	
39	   H	-1.018	-3.412	-1.260	 H	1	UNK0	0.000	
40	   H	-0.237	0.203	-3.171	 H	1	UNK0	0.000	
41	   H	1.487	0.010	-3.501	 H	1	UNK0	0.000	
42	   H	-2.031	-0.993	-0.080	 H	1	UNK0	0.000	
43	   H	-1.870	-0.032	-1.559	 H	1	UNK0	0.000	
44	   H	-1.556	1.367	0.305	 H	1	UNK0	0.000	
45	   H	0.078	1.118	-0.495	 H	1	UNK0	0.000	
46	   H	-1.276	-1.789	1.575	 H	1	UNK0	0.000	
47	   H	0.335	-1.713	2.278	 H	1	UNK0	0.000	
48	   H	1.456	-1.815	0.236	 H	1	UNK0	0.000	
49	   H	0.207	-3.107	0.168	 H	1	UNK0	0.000	
50	   H	0.946	1.846	4.724	 H	1	UNK0	0.000	
51	   H	0.943	5.883	3.614	 H	1	UNK0	0.000	
52	   H	0.245	5.204	1.321	 H	1	UNK0	0.000	
53	   H	-0.090	2.929	0.754	 H	1	UNK0	0.000	
54	   H	1.928	4.341	7.541	 H	1	UNK0	0.000	
55	   H	2.411	2.848	6.597	 H	1	UNK0	0.000	
56	   H	-0.109	2.191	6.666	 H	1	UNK0	0.000	
57	   H	0.610	2.532	8.293	 H	1	UNK0	0.000	
58	   H	-1.176	4.232	6.707	 H	1	UNK0	0.000	
59	   H	-0.302	4.736	8.120	 H	1	UNK0	0.000	
60	   H	2.122	-2.828	-2.831	 H	1	UNK0	0.000	
61	   H	-1.053	-4.006	-4.477	 H	1	UNK0	0.000	
62	   H	0.640	-4.627	-4.142	 H	1	UNK0	0.000	
63	   H	-0.661	-4.902	-2.966	 H	1	UNK0	0.000	
@<TRIPOS>BOND
1 1 2 1
2 2 3 2
3 2 8 1
4 3 4 1
5 4 5 1
6 4 10 1
7 5 6 2
8 5 7 1
9 7 8 1
10 8 9 2
11 10 11 1
12 10 15 1
13 11 12 1
14 11 33 1
15 11 34 1
16 12 13 1
17 13 14 1
18 13 16 1
19 13 20 1
20 14 15 1
21 16 17 1
22 17 18 1
23 18 19 1
24 18 21 1
25 19 20 1
26 21 22 2
27 21 23 1
28 23 24 2
29 23 28 1
30 24 25 1
31 25 26 2
32 25 29 1
33 26 27 1
34 27 28 2
35 29 30 1
36 30 31 1
37 31 32 1
38 3 35 1
39 7 36 1
40 10 37 1
41 12 38 1
42 12 39 1
43 15 40 1
44 15 41 1
45 16 42 1
46 16 43 1
47 17 44 1
48 17 45 1
49 19 46 1
50 19 47 1
51 20 48 1
52 20 49 1
53 24 50 1
54 26 51 1
55 27 52 1
56 28 53 1
57 30 54 1
58 30 55 1
59 31 56 1
60 31 57 1
61 32 58 1
62 32 59 1
63 33 60 1
64 34 61 1
65 34 62 1
66 34 63 1
@<TRIPOS>SUBSTRUCTURE
1	UNK0	1	GROUP	1 ****	UNK
