REMARK  7 active torsions:
REMARK  status: ('A' for Active; 'I' for Inactive)
REMARK    1  A    between atoms: N_4  and  C_10 
REMARK    2  A    between atoms: C_11  and  O_33 
REMARK       I    between atoms: N_18  and  C_21 
REMARK    3  A    between atoms: C_21  and  C_23 
REMARK    4  A    between atoms: C_23  and  N_24 
REMARK    5  A    between atoms: C_23  and  C_25 
REMARK    6  A    between atoms: C_25  and  C_26 
REMARK    7  A    between atoms: C_29  and  O_32 
ROOT
ATOM      1  C   UNK d   1       3.147  -0.293  -1.687  0.00  0.00     0.152 C 
ATOM      2  C   UNK d   1       1.750  -0.766  -1.622  0.00  0.00     0.080 C 
ATOM      3  C   UNK d   1       0.722   0.246  -2.142  0.00  0.00     0.077 C 
ATOM      4  C   UNK d   1       0.877   1.570  -1.436  0.00  0.00     0.067 C 
ATOM      5  O   UNK d   1       2.139   1.717  -0.892  0.00  0.00    -0.378 OA
ATOM      6  C   UNK d   1       3.162   1.210  -1.632  0.00  0.00     0.197 C 
ATOM      7  C   UNK d   1      -0.204   1.648  -0.373  0.00  0.00     0.058 C 
ATOM      8  C   UNK d   1      -1.400   2.400  -0.892  0.00  0.00     0.129 C 
ATOM      9  N   UNK d   1      -1.624   2.022  -2.264  0.00  0.00    -0.350 N 
ATOM     10  C   UNK d   1      -0.618   2.469  -3.216  0.00  0.00     0.129 C 
ATOM     11  C   UNK d   1       0.671   2.668  -2.452  0.00  0.00     0.058 C 
ATOM     12  C   UNK d   1      -2.754   1.290  -2.637  0.00  0.00     0.253 C 
ATOM     13  O   UNK d   1      -2.840   1.010  -3.888  0.00  0.00    -0.271 OA
ATOM     14  C   UNK d   1       1.308  -1.299  -0.298  0.00  0.00     0.048 C 
ENDROOT
BRANCH   2  15
ATOM     15  O   UNK d   1       1.637  -1.851  -2.529  0.00  0.00    -0.388 OA
ATOM     16  H   UNK d   1       2.042  -1.639  -3.402  0.00  0.00     0.210 HD
ENDBRANCH   2  15
BRANCH   1  17
ATOM     17  N   UNK d   1       4.026  -0.865  -0.687  0.00  0.00    -0.298 N 
ATOM     18  C   UNK d   1       4.147  -0.274   0.497  0.00  0.00     0.121 A 
ATOM     19  C   UNK d   1       4.979  -0.789   1.464  0.00  0.00     0.094 A 
ATOM     20 Br   UNK d   1       5.138   0.082   3.169  0.00  0.00    -0.044 Br
ATOM     21  C   UNK d   1       5.690  -1.937   1.183  0.00  0.00     0.268 A 
ATOM     22  N   UNK d   1       5.526  -2.490  -0.033  0.00  0.00    -0.274 N 
ATOM     23  O   UNK d   1       6.468  -2.450   2.040  0.00  0.00    -0.267 OA
ATOM     24  C   UNK d   1       4.710  -1.972  -0.964  0.00  0.00     0.329 A 
ATOM     25  H   UNK d   1       6.073  -3.376  -0.255  0.00  0.00     0.173 HD
ATOM     26  O   UNK d   1       4.621  -2.568  -2.088  0.00  0.00    -0.246 OA
ENDBRANCH   1  17
BRANCH  12  27
ATOM     27  C   UNK d   1      -3.854   0.800  -1.813  0.00  0.00     0.313 C 
BRANCH  27  28
ATOM     28  N   UNK d   1      -4.965   0.300  -2.624  0.00  0.00     0.092 N 
ATOM     29  H   UNK d   1      -5.110   0.894  -3.469  0.00  0.00     0.313 HD
ATOM     30  H   UNK d   1      -5.847   0.374  -2.059  0.00  0.00     0.313 HD
ENDBRANCH  27  28
BRANCH  27  31
ATOM     31  C   UNK d   1      -3.499  -0.321  -0.862  0.00  0.00     0.083 C 
BRANCH  31  32
ATOM     32  C   UNK d   1      -4.777  -0.668  -0.136  0.00  0.00    -0.056 A 
ATOM     33  C   UNK d   1      -5.107  -0.023   1.027  0.00  0.00     0.010 A 
ATOM     34  C   UNK d   1      -6.294  -0.374   1.664  0.00  0.00     0.037 A 
ATOM     35  C   UNK d   1      -7.131  -1.341   1.156  0.00  0.00     0.065 A 
ATOM     36  C   UNK d   1      -6.764  -1.968  -0.018  0.00  0.00     0.037 A 
ATOM     37  C   UNK d   1      -5.593  -1.643  -0.672  0.00  0.00     0.010 A 
BRANCH  35  38
ATOM     38  O   UNK d   1      -8.297  -1.648   1.831  0.00  0.00    -0.361 OA
ATOM     39  H   UNK d   1      -8.366  -2.364   2.554  0.00  0.00     0.217 HD
ENDBRANCH  35  38
ENDBRANCH  31  32
ENDBRANCH  27  31
ENDBRANCH  12  27
TORSDOF 7
