# created with PyMOL 2.3.2
@<TRIPOS>MOLECULE
783
63 66 1                 
SMALL
USER_CHARGES
@<TRIPOS>ATOM
1	  Br	5.138	0.082	3.169	Br	1	UNK0	0.000	
2	   C	4.979	-0.789	1.464	C.2	1	UNK0	0.000	
3	   C	4.147	-0.274	0.497	C.2	1	UNK0	0.000	
4	   N	4.026	-0.865	-0.687	N.pl3	1	UNK0	0.000	
5	   C	4.710	-1.972	-0.964	C.2	1	UNK0	0.000	
6	   O	4.621	-2.568	-2.088	O.2	1	UNK0	0.000	
7	   N	5.526	-2.490	-0.033	N.pl3	1	UNK0	0.000	
8	   C	5.690	-1.937	1.183	C.2	1	UNK0	0.000	
9	   O	6.468	-2.450	2.040	O.2	1	UNK0	0.000	
10	   C	3.147	-0.293	-1.687	C.3	1	UNK0	0.000	
11	   C	1.750	-0.766	-1.622	C.3	1	UNK0	0.000	
12	   C	0.722	0.246	-2.142	C.3	1	UNK0	0.000	
13	   C	0.877	1.570	-1.436	C.3	1	UNK0	0.000	
14	   O	2.139	1.717	-0.892	O.3	1	UNK0	0.000	
15	   C	3.162	1.210	-1.632	C.3	1	UNK0	0.000	
16	   C	-0.204	1.648	-0.373	C.3	1	UNK0	0.000	
17	   C	-1.400	2.400	-0.892	C.3	1	UNK0	0.000	
18	   N	-1.624	2.022	-2.264	N.pl3	1	UNK0	0.000	
19	   C	-0.618	2.469	-3.216	C.3	1	UNK0	0.000	
20	   C	0.671	2.668	-2.452	C.3	1	UNK0	0.000	
21	   C	-2.754	1.290	-2.637	C.2	1	UNK0	0.000	
22	   O	-2.840	1.010	-3.888	O.2	1	UNK0	0.000	
23	   C	-3.854	0.800	-1.813	C.3	1	UNK0	0.000	
24	   N	-4.965	0.300	-2.624	N.3	1	UNK0	0.000	
25	   C	-3.499	-0.321	-0.862	C.3	1	UNK0	0.000	
26	   C	-4.777	-0.668	-0.136	C.2	1	UNK0	0.000	
27	   C	-5.107	-0.023	1.027	C.2	1	UNK0	0.000	
28	   C	-6.294	-0.374	1.664	C.2	1	UNK0	0.000	
29	   C	-7.131	-1.341	1.156	C.2	1	UNK0	0.000	
30	   C	-6.764	-1.968	-0.018	C.2	1	UNK0	0.000	
31	   C	-5.593	-1.643	-0.672	C.2	1	UNK0	0.000	
32	   O	-8.297	-1.648	1.831	O.3	1	UNK0	0.000	
33	   O	1.637	-1.851	-2.529	O.3	1	UNK0	0.000	
34	   C	1.308	-1.299	-0.298	C.3	1	UNK0	0.000	
35	   H	3.606	0.635	0.770	 H	1	UNK0	0.000	
36	   H	6.073	-3.376	-0.255	 H	1	UNK0	0.000	
37	   H	3.620	-0.580	-2.680	 H	1	UNK0	0.000	
38	   H	0.835	0.402	-3.221	 H	1	UNK0	0.000	
39	   H	-0.280	-0.148	-1.947	 H	1	UNK0	0.000	
40	   H	4.133	1.602	-1.247	 H	1	UNK0	0.000	
41	   H	3.048	1.587	-2.692	 H	1	UNK0	0.000	
42	   H	-0.527	0.651	-0.040	 H	1	UNK0	0.000	
43	   H	0.146	2.212	0.520	 H	1	UNK0	0.000	
44	   H	-2.279	2.260	-0.229	 H	1	UNK0	0.000	
45	   H	-1.164	3.492	-0.802	 H	1	UNK0	0.000	
46	   H	-0.434	1.775	-4.032	 H	1	UNK0	0.000	
47	   H	-0.913	3.443	-3.643	 H	1	UNK0	0.000	
48	   H	0.719	3.668	-1.970	 H	1	UNK0	0.000	
49	   H	1.474	2.666	-3.210	 H	1	UNK0	0.000	
50	   H	-4.249	1.638	-1.204	 H	1	UNK0	0.000	
51	   H	-5.110	0.894	-3.469	 H	1	UNK0	0.000	
52	   H	-5.847	0.374	-2.059	 H	1	UNK0	0.000	
53	   H	-3.162	-1.228	-1.359	 H	1	UNK0	0.000	
54	   H	-2.760	-0.036	-0.115	 H	1	UNK0	0.000	
55	   H	-4.444	0.730	1.410	 H	1	UNK0	0.000	
56	   H	-6.556	0.132	2.579	 H	1	UNK0	0.000	
57	   H	-7.404	-2.722	-0.422	 H	1	UNK0	0.000	
58	   H	-5.297	-2.128	-1.593	 H	1	UNK0	0.000	
59	   H	-8.366	-2.364	2.554	 H	1	UNK0	0.000	
60	   H	2.042	-1.639	-3.402	 H	1	UNK0	0.000	
61	   H	1.400	-0.612	0.546	 H	1	UNK0	0.000	
62	   H	0.243	-1.594	-0.380	 H	1	UNK0	0.000	
63	   H	1.851	-2.273	-0.109	 H	1	UNK0	0.000	
@<TRIPOS>BOND
1 1 2 1
2 2 3 2
3 2 8 1
4 3 4 1
5 4 5 1
6 4 10 1
7 5 6 2
8 5 7 1
9 7 8 1
10 8 9 2
11 10 11 1
12 10 15 1
13 11 12 1
14 11 33 1
15 11 34 1
16 12 13 1
17 13 14 1
18 13 16 1
19 13 20 1
20 14 15 1
21 16 17 1
22 17 18 1
23 18 19 1
24 18 21 1
25 19 20 1
26 21 22 2
27 21 23 1
28 23 24 1
29 23 25 1
30 25 26 1
31 26 27 2
32 26 31 1
33 27 28 1
34 28 29 2
35 29 30 1
36 29 32 1
37 30 31 2
38 3 35 1
39 7 36 1
40 10 37 1
41 12 38 1
42 12 39 1
43 15 40 1
44 15 41 1
45 16 42 1
46 16 43 1
47 17 44 1
48 17 45 1
49 19 46 1
50 19 47 1
51 20 48 1
52 20 49 1
53 23 50 1
54 24 51 1
55 24 52 1
56 25 53 1
57 25 54 1
58 27 55 1
59 28 56 1
60 30 57 1
61 31 58 1
62 32 59 1
63 33 60 1
64 34 61 1
65 34 62 1
66 34 63 1
@<TRIPOS>SUBSTRUCTURE
1	UNK0	1	GROUP	1 ****	UNK
