REMARK  6 active torsions:
REMARK  status: ('A' for Active; 'I' for Inactive)
REMARK    1  A    between atoms: N_4  and  C_10 
REMARK    2  A    between atoms: C_11  and  O_34 
REMARK       I    between atoms: N_18  and  C_21 
REMARK    3  A    between atoms: C_21  and  C_23 
REMARK    4  A    between atoms: C_23  and  N_24 
REMARK    5  A    between atoms: C_23  and  C_28 
REMARK       I    between atoms: N_24  and  C_25 
REMARK    6  A    between atoms: C_28  and  C_29 
ROOT
ATOM      1  C   UNK d   1       1.358  -2.661  -0.891  0.00  0.00     0.152 C 
ATOM      2  C   UNK d   1       1.304  -2.179   0.568  0.00  0.00     0.080 C 
ATOM      3  C   UNK d   1       1.498  -0.660   0.462  0.00  0.00     0.077 C 
ATOM      4  C   UNK d   1       2.724  -0.337  -0.346  0.00  0.00     0.067 C 
ATOM      5  O   UNK d   1       3.418  -1.496  -0.597  0.00  0.00    -0.378 OA
ATOM      6  C   UNK d   1       2.734  -2.434  -1.366  0.00  0.00     0.197 C 
ATOM      7  C   UNK d   1       3.609   0.519   0.550  0.00  0.00     0.058 C 
ATOM      8  C   UNK d   1       3.186   1.963   0.453  0.00  0.00     0.129 C 
ATOM      9  N   UNK d   1       1.793   2.058  -0.015  0.00  0.00    -0.350 N 
ATOM     10  C   UNK d   1       1.573   1.647  -1.370  0.00  0.00     0.129 C 
ATOM     11  C   UNK d   1       2.467   0.430  -1.594  0.00  0.00     0.058 C 
ATOM     12  C   UNK d   1       0.753   2.481   0.812  0.00  0.00     0.243 C 
ATOM     13  O   UNK d   1       0.966   2.762   2.055  0.00  0.00    -0.271 OA
ATOM     14  C   UNK d   1       2.370  -2.825   1.395  0.00  0.00     0.048 C 
ENDROOT
BRANCH   2  15
ATOM     15  O   UNK d   1       0.081  -2.427   1.152  0.00  0.00    -0.388 OA
ATOM     16  H   UNK d   1       0.197  -2.490   2.134  0.00  0.00     0.210 HD
ENDBRANCH   2  15
BRANCH   1  17
ATOM     17  N   UNK d   1       0.750  -3.916  -1.075  0.00  0.00    -0.298 N 
ATOM     18  C   UNK d   1       1.390  -5.083  -1.178  0.00  0.00     0.121 A 
ATOM     19  C   UNK d   1       0.711  -6.288  -1.359  0.00  0.00     0.094 A 
ATOM     20 Br   UNK d   1       1.717  -7.887  -1.494  0.00  0.00    -0.044 Br
ATOM     21  C   UNK d   1      -0.664  -6.292  -1.437  0.00  0.00     0.268 A 
ATOM     22  N   UNK d   1      -1.295  -5.109  -1.332  0.00  0.00    -0.274 N 
ATOM     23  O   UNK d   1      -1.309  -7.378  -1.603  0.00  0.00    -0.267 OA
ATOM     24  C   UNK d   1      -0.614  -3.964  -1.157  0.00  0.00     0.329 A 
ATOM     25  H   UNK d   1      -2.347  -5.059  -1.385  0.00  0.00     0.173 HD
ATOM     26  O   UNK d   1      -1.265  -2.888  -1.066  0.00  0.00    -0.246 OA
ENDBRANCH   1  17
BRANCH  12  27
ATOM     27  C   UNK d   1      -0.619   2.635   0.354  0.00  0.00     0.182 C 
BRANCH  27  28
ATOM     28  N   UNK d   1      -1.516   2.842   1.465  0.00  0.00    -0.348 N 
ATOM     29  C   UNK d   1      -1.854   4.031   2.100  0.00  0.00     0.214 C 
ATOM     30  O   UNK d   1      -1.409   5.161   1.811  0.00  0.00    -0.274 OA
ATOM     31  C   UNK d   1      -2.842   4.039   3.252  0.00  0.00     0.117 C 
ATOM     32  H   UNK d   1      -1.968   1.950   1.836  0.00  0.00     0.163 HD
ENDBRANCH  27  28
BRANCH  27  33
ATOM     33  C   UNK d   1      -0.764   3.834  -0.635  0.00  0.00     0.095 C 
BRANCH  33  34
ATOM     34  C   UNK d   1      -2.159   3.936  -1.099  0.00  0.00     0.053 A 
ATOM     35  N   UNK d   1      -3.173   4.620  -0.593  0.00  0.00    -0.247 NA
ATOM     36  C   UNK d   1      -4.307   4.446  -1.326  0.00  0.00     0.207 A 
ATOM     37  N   UNK d   1      -3.978   3.615  -2.333  0.00  0.00    -0.359 N 
ATOM     38  C   UNK d   1      -2.673   3.292  -2.212  0.00  0.00     0.116 A 
ATOM     39  H   UNK d   1      -4.661   3.300  -3.064  0.00  0.00     0.166 HD
ENDBRANCH  33  34
ENDBRANCH  27  33
ENDBRANCH  12  27
TORSDOF 6
