REMARK  3 active torsions:
REMARK  status: ('A' for Active; 'I' for Inactive)
REMARK    1  A    between atoms: C_7  and  C_9 
REMARK    2  A    between atoms: C_9  and  N_10 
REMARK       I    between atoms: N_10  and  C_11 
REMARK    3  A    between atoms: C_11  and  C_13 
ROOT
ATOM      1  N   UNK d   1       1.306  -1.372   2.166  0.00  0.00    -0.355 N 
ATOM      2  C   UNK d   1       0.764  -1.967   1.016  0.00  0.00     0.223 C 
ATOM      3  O   UNK d   1      -0.458  -1.869   0.779  0.00  0.00    -0.273 OA
ATOM      4  H   UNK d   1       2.323  -1.460   2.353  0.00  0.00     0.162 HD
ENDROOT
BRANCH   1   5
ATOM      5  C   UNK d   1       0.442  -0.647   3.071  0.00  0.00     0.183 C 
BRANCH   5   6
ATOM      6  C   UNK d   1       0.086   0.686   2.522  0.00  0.00     0.070 A 
ATOM      7  N   UNK d   1       0.788   1.830   2.621  0.00  0.00    -0.232 NA
ATOM      8  C   UNK d   1       0.127   2.817   1.992  0.00  0.00     0.134 A 
ATOM      9  N   UNK d   1      -1.010   2.310   1.482  0.00  0.00    -0.314 N 
ATOM     10  C   UNK d   1       0.441   4.162   1.819  0.00  0.00     0.052 A 
ATOM     11  C   UNK d   1      -1.845   3.140   0.795  0.00  0.00     0.117 A 
ATOM     12  C   UNK d   1      -1.046   1.003   1.801  0.00  0.00     0.127 A 
ATOM     13  C   UNK d   1      -1.563   4.475   0.607  0.00  0.00     0.027 A 
ATOM     14 Br   UNK d   1      -2.739   5.637  -0.360  0.00  0.00    -0.050 Br
ATOM     15  C   UNK d   1      -0.399   4.999   1.128  0.00  0.00     0.024 A 
ENDBRANCH   5   6
ENDBRANCH   1   5
BRANCH   2  16
ATOM     16  C   UNK d   1       1.627  -2.710   0.079  0.00  0.00     0.096 C 
ATOM     17  C   UNK d   1       0.817  -3.247  -1.074  0.00  0.00     0.145 C 
ATOM     18  N   UNK d   1       0.228  -2.104  -1.745  0.00  0.00    -0.320 N 
ATOM     19  C   UNK d   1       0.917  -0.956  -1.850  0.00  0.00     0.130 A 
ATOM     20  C   UNK d   1      -0.951  -1.914  -2.338  0.00  0.00     0.126 A 
ATOM     21  N   UNK d   1       0.128  -0.086  -2.512  0.00  0.00    -0.135 NA
ATOM     22  C   UNK d   1       2.274  -0.742  -1.324  0.00  0.00     0.081 C 
ATOM     23  N   UNK d   1      -1.000  -0.661  -2.808  0.00  0.00    -0.135 NA
ATOM     24  C   UNK d   1       2.738  -1.813  -0.402  0.00  0.00     0.023 C 
ATOM     25  C   UNK d   1      -2.083  -2.879  -2.495  0.00  0.00     0.093 C 
ENDBRANCH   2  16
TORSDOF 3
