# created with PyMOL 2.3.2
@<TRIPOS>MOLECULE
789
37 40 1                 
SMALL
USER_CHARGES
@<TRIPOS>ATOM
1	  Br	-6.268	0.748	-4.747	Br	1	UNK0	0.000	
2	   C	-5.297	-0.418	-3.568	C.2	1	UNK0	0.000	
3	   C	-4.095	-0.041	-3.011	C.2	1	UNK0	0.000	
4	   N	-3.397	-0.854	-2.176	N.pl3	1	UNK0	0.000	
5	   N	-2.250	-0.734	-1.526	N.2	1	UNK0	0.000	
6	   C	-1.968	-1.830	-0.808	C.2	1	UNK0	0.000	
7	   C	-3.047	-2.680	-1.052	C.2	1	UNK0	0.000	
8	   C	-3.933	-2.059	-1.909	C.2	1	UNK0	0.000	
9	   N	-5.119	-2.441	-2.452	N.2	1	UNK0	0.000	
10	   C	-5.826	-1.656	-3.279	C.2	1	UNK0	0.000	
11	   C	-0.814	-2.125	0.053	C.2	1	UNK0	0.000	
12	   O	-0.754	-3.239	0.640	O.2	1	UNK0	0.000	
13	   N	0.247	-1.206	0.254	N.pl3	1	UNK0	0.000	
14	   C	1.338	-1.551	1.090	C.3	1	UNK0	0.000	
15	   C	2.008	-0.386	1.717	C.3	1	UNK0	0.000	
16	   N	1.481	0.903	1.371	N.3	1	UNK0	0.000	
17	   C	1.274	1.026	-0.060	C.3	1	UNK0	0.000	
18	   C	0.159	0.062	-0.418	C.3	1	UNK0	0.000	
19	   C	2.441	1.817	1.911	C.3	1	UNK0	0.000	
20	   C	3.783	1.163	1.696	C.3	1	UNK0	0.000	
21	   C	3.466	-0.264	1.308	C.3	1	UNK0	0.000	
22	   H	-3.702	0.934	-3.253	 H	1	UNK0	0.000	
23	   H	-3.121	-3.662	-0.609	 H	1	UNK0	0.000	
24	   H	-6.780	-1.972	-3.711	 H	1	UNK0	0.000	
25	   H	2.083	-2.146	0.507	 H	1	UNK0	0.000	
26	   H	0.989	-2.276	1.889	 H	1	UNK0	0.000	
27	   H	1.963	-0.464	2.828	 H	1	UNK0	0.000	
28	   H	0.912	2.054	-0.250	 H	1	UNK0	0.000	
29	   H	2.185	0.877	-0.652	 H	1	UNK0	0.000	
30	   H	0.142	-0.121	-1.512	 H	1	UNK0	0.000	
31	   H	-0.833	0.562	-0.183	 H	1	UNK0	0.000	
32	   H	2.229	1.896	3.015	 H	1	UNK0	0.000	
33	   H	2.392	2.826	1.458	 H	1	UNK0	0.000	
34	   H	4.335	1.709	0.904	 H	1	UNK0	0.000	
35	   H	4.407	1.207	2.614	 H	1	UNK0	0.000	
36	   H	4.087	-1.002	1.834	 H	1	UNK0	0.000	
37	   H	3.532	-0.409	0.213	 H	1	UNK0	0.000	
@<TRIPOS>BOND
1 1 2 1
2 2 3 2
3 2 10 1
4 3 4 1
5 4 5 1
6 4 8 1
7 5 6 2
8 6 7 1
9 6 11 1
10 7 8 2
11 8 9 1
12 9 10 2
13 11 12 2
14 11 13 1
15 13 14 1
16 13 18 1
17 14 15 1
18 15 16 1
19 15 21 1
20 16 17 1
21 16 19 1
22 17 18 1
23 19 20 1
24 20 21 1
25 3 22 1
26 7 23 1
27 10 24 1
28 14 25 1
29 14 26 1
30 15 27 1
31 17 28 1
32 17 29 1
33 18 30 1
34 18 31 1
35 19 32 1
36 19 33 1
37 20 34 1
38 20 35 1
39 21 36 1
40 21 37 1
@<TRIPOS>SUBSTRUCTURE
1	UNK0	1	GROUP	1 ****	UNK
