REMARK  1 active torsions:
REMARK  status: ('A' for Active; 'I' for Inactive)
REMARK    1  A    between atoms: C_6  and  C_11 
REMARK       I    between atoms: C_11  and  N_13 
ROOT
ATOM      1  C   UNK d   1      -0.814  -2.125   0.053  0.00  0.00     0.274 C 
ATOM      2  O   UNK d   1      -0.754  -3.239   0.640  0.00  0.00    -0.266 OA
ATOM      3  N   UNK d   1       0.247  -1.206   0.254  0.00  0.00    -0.343 N 
ATOM      4  C   UNK d   1       1.338  -1.551   1.090  0.00  0.00     0.161 C 
ATOM      5  C   UNK d   1       2.008  -0.386   1.717  0.00  0.00     0.241 C 
ATOM      6  N   UNK d   1       1.481   0.903   1.371  0.00  0.00     0.096 N 
ATOM      7  C   UNK d   1       1.274   1.026  -0.060  0.00  0.00     0.292 C 
ATOM      8  C   UNK d   1       0.159   0.062  -0.418  0.00  0.00     0.156 C 
ATOM      9  C   UNK d   1       2.441   1.817   1.911  0.00  0.00     0.273 C 
ATOM     10  C   UNK d   1       3.783   1.163   1.696  0.00  0.00     0.032 C 
ATOM     11  C   UNK d   1       3.466  -0.264   1.308  0.00  0.00     0.039 C 
ENDROOT
BRANCH   1  12
ATOM     12  C   UNK d   1      -1.968  -1.830  -0.808  0.00  0.00     0.148 A 
ATOM     13  N   UNK d   1      -2.250  -0.734  -1.526  0.00  0.00    -0.161 NA
ATOM     14  N   UNK d   1      -3.397  -0.854  -2.176  0.00  0.00    -0.225 N 
ATOM     15  C   UNK d   1      -4.095  -0.041  -3.011  0.00  0.00     0.141 A 
ATOM     16  C   UNK d   1      -3.933  -2.059  -1.909  0.00  0.00     0.152 A 
ATOM     17  C   UNK d   1      -5.297  -0.418  -3.568  0.00  0.00     0.046 A 
ATOM     18 Br   UNK d   1      -6.268   0.748  -4.747  0.00  0.00    -0.048 Br
ATOM     19  C   UNK d   1      -5.826  -1.656  -3.279  0.00  0.00     0.139 A 
ATOM     20  N   UNK d   1      -5.119  -2.441  -2.452  0.00  0.00    -0.240 NA
ATOM     21  C   UNK d   1      -3.047  -2.680  -1.052  0.00  0.00     0.091 A 
ENDBRANCH   1  12
TORSDOF 1
