# created with PyMOL 2.3.2
@<TRIPOS>MOLECULE
790
39 42 1                 
SMALL
USER_CHARGES
@<TRIPOS>ATOM
1	  Br	-4.455	-0.196	-2.310	Br	1	UNK0	0.000	
2	   C	-3.037	-0.527	-1.083	C.2	1	UNK0	0.000	
3	   C	-2.583	-1.790	-0.867	C.2	1	UNK0	0.000	
4	   N	-1.595	-2.027	-0.013	N.pl3	1	UNK0	0.000	
5	   N	-0.993	-3.159	0.356	N.2	1	UNK0	0.000	
6	   C	-0.045	-2.853	1.257	C.2	1	UNK0	0.000	
7	   C	-0.041	-1.494	1.469	C.2	1	UNK0	0.000	
8	   C	-1.042	-0.993	0.644	C.2	1	UNK0	0.000	
9	   N	-1.479	0.260	0.442	N.2	1	UNK0	0.000	
10	   C	-2.471	0.522	-0.412	C.2	1	UNK0	0.000	
11	   C	0.796	-0.711	2.344	C.2	1	UNK0	0.000	
12	   O	0.397	-0.516	3.528	O.2	1	UNK0	0.000	
13	   N	2.030	-0.176	1.893	N.pl3	1	UNK0	0.000	
14	   C	2.418	-0.451	0.501	C.3	1	UNK0	0.000	
15	   C	3.336	0.716	0.137	C.3	1	UNK0	0.000	
16	   N	2.762	1.873	0.757	N.pl3	1	UNK0	0.000	
17	   C	3.167	2.008	2.187	C.3	1	UNK0	0.000	
18	   C	2.889	0.616	2.761	C.3	1	UNK0	0.000	
19	   C	1.887	2.800	0.215	C.2	1	UNK0	0.000	
20	   O	1.539	3.797	0.974	O.2	1	UNK0	0.000	
21	   C	1.274	2.841	-1.102	C.2	1	UNK0	0.000	
22	   O	0.478	3.827	-1.539	O.3	1	UNK0	0.000	
23	   C	0.065	3.618	-2.742	C.2	1	UNK0	0.000	
24	   C	0.580	2.432	-3.202	C.2	1	UNK0	0.000	
25	   C	1.343	1.954	-2.149	C.2	1	UNK0	0.000	
26	   H	-3.035	-2.630	-1.403	 H	1	UNK0	0.000	
27	   H	0.600	-3.587	1.726	 H	1	UNK0	0.000	
28	   H	-2.845	1.519	-0.597	 H	1	UNK0	0.000	
29	   H	1.537	-0.375	-0.140	 H	1	UNK0	0.000	
30	   H	2.968	-1.393	0.453	 H	1	UNK0	0.000	
31	   H	3.621	0.777	-0.896	 H	1	UNK0	0.000	
32	   H	4.333	0.476	0.668	 H	1	UNK0	0.000	
33	   H	2.591	2.793	2.684	 H	1	UNK0	0.000	
34	   H	4.255	2.218	2.144	 H	1	UNK0	0.000	
35	   H	3.826	0.069	2.954	 H	1	UNK0	0.000	
36	   H	2.343	0.768	3.709	 H	1	UNK0	0.000	
37	   H	-0.597	4.265	-3.339	 H	1	UNK0	0.000	
38	   H	0.433	1.955	-4.174	 H	1	UNK0	0.000	
39	   H	1.874	1.014	-2.203	 H	1	UNK0	0.000	
@<TRIPOS>BOND
1 1 2 1
2 2 3 2
3 2 10 1
4 3 4 1
5 4 5 1
6 4 8 1
7 5 6 2
8 6 7 1
9 7 8 2
10 7 11 1
11 8 9 1
12 9 10 2
13 11 12 2
14 11 13 1
15 13 14 1
16 13 18 1
17 14 15 1
18 15 16 1
19 16 17 1
20 16 19 1
21 17 18 1
22 19 20 2
23 19 21 1
24 21 22 1
25 21 25 2
26 22 23 1
27 23 24 2
28 24 25 1
29 3 26 1
30 6 27 1
31 10 28 1
32 14 29 1
33 14 30 1
34 15 31 1
35 15 32 1
36 17 33 1
37 17 34 1
38 18 35 1
39 18 36 1
40 23 37 1
41 24 38 1
42 25 39 1
@<TRIPOS>SUBSTRUCTURE
1	UNK0	1	GROUP	1 ****	UNK
