REMARK  2 active torsions:
REMARK  status: ('A' for Active; 'I' for Inactive)
REMARK    1  A    between atoms: C_7  and  C_11 
REMARK       I    between atoms: C_11  and  N_13 
REMARK       I    between atoms: N_16  and  C_19 
REMARK    2  A    between atoms: C_19  and  C_21 
ROOT
ATOM      1  C   UNK d   1       0.796  -0.711   2.344  0.00  0.00     0.259 C 
ATOM      2  O   UNK d   1       0.397  -0.516   3.528  0.00  0.00    -0.267 OA
ATOM      3  N   UNK d   1       2.030  -0.176   1.893  0.00  0.00    -0.345 N 
ATOM      4  C   UNK d   1       2.418  -0.451   0.501  0.00  0.00     0.146 C 
ATOM      5  C   UNK d   1       3.336   0.716   0.137  0.00  0.00     0.145 C 
ATOM      6  N   UNK d   1       2.762   1.873   0.757  0.00  0.00    -0.354 N 
ATOM      7  C   UNK d   1       3.167   2.008   2.187  0.00  0.00     0.145 C 
ATOM      8  C   UNK d   1       2.889   0.616   2.761  0.00  0.00     0.146 C 
ATOM      9  C   UNK d   1       1.887   2.800   0.215  0.00  0.00     0.211 C 
ATOM     10  O   UNK d   1       1.539   3.797   0.974  0.00  0.00    -0.169 OA
ENDROOT
BRANCH   1  11
ATOM     11  C   UNK d   1      -0.041  -1.494   1.469  0.00  0.00     0.099 A 
ATOM     12  C   UNK d   1      -0.045  -2.853   1.257  0.00  0.00     0.160 A 
ATOM     13  N   UNK d   1      -0.993  -3.159   0.356  0.00  0.00    -0.178 NA
ATOM     14  N   UNK d   1      -1.595  -2.027  -0.013  0.00  0.00    -0.225 N 
ATOM     15  C   UNK d   1      -2.583  -1.790  -0.867  0.00  0.00     0.141 A 
ATOM     16  C   UNK d   1      -1.042  -0.993   0.644  0.00  0.00     0.167 A 
ATOM     17  C   UNK d   1      -3.037  -0.527  -1.083  0.00  0.00     0.046 A 
ATOM     18 Br   UNK d   1      -4.455  -0.196  -2.310  0.00  0.00    -0.048 Br
ATOM     19  C   UNK d   1      -2.471   0.522  -0.412  0.00  0.00     0.139 A 
ATOM     20  N   UNK d   1      -1.479   0.260   0.442  0.00  0.00    -0.239 NA
ENDBRANCH   1  11
BRANCH   9  21
ATOM     21  C   UNK d   1       1.274   2.841  -1.102  0.00  0.00     0.128 A 
ATOM     22  O   UNK d   1       0.478   3.827  -1.539  0.00  0.00    -0.318 OA
ATOM     23  C   UNK d   1       0.065   3.618  -2.742  0.00  0.00     0.142 A 
ATOM     24  C   UNK d   1       0.580   2.432  -3.202  0.00  0.00     0.027 A 
ATOM     25  C   UNK d   1       1.343   1.954  -2.149  0.00  0.00     0.043 A 
ENDBRANCH   9  21
TORSDOF 2
