REMARK  5 active torsions:
REMARK  status: ('A' for Active; 'I' for Inactive)
REMARK    1  A    between atoms: C_7  and  C_11 
REMARK    2  A    between atoms: C_11  and  O_12 
REMARK    3  A    between atoms: O_12  and  C_13 
REMARK    4  A    between atoms: C_13  and  C_15 
REMARK    5  A    between atoms: C_15  and  N_16 
ROOT
ATOM      1  O   UNK d   1       0.139   0.619  -1.545  0.00  0.00    -0.314 OA
ENDROOT
BRANCH   1   2
ATOM      2  C   UNK d   1       1.032  -0.237  -2.208  0.00  0.00     0.238 C 
BRANCH   2   3
ATOM      3  C   UNK d   1       2.030  -0.871  -1.308  0.00  0.00     0.066 A 
ATOM      4  N   UNK d   1       1.720  -1.949  -0.549  0.00  0.00    -0.233 NA
ATOM      5  C   UNK d   1       2.605  -2.543   0.270  0.00  0.00     0.137 A 
ATOM      6  N   UNK d   1       3.871  -2.107   0.397  0.00  0.00    -0.272 N 
ATOM      7  C   UNK d   1       2.250  -3.655   1.038  0.00  0.00     0.052 A 
ATOM      8  C   UNK d   1       4.747  -2.716   1.225  0.00  0.00     0.121 A 
ATOM      9  C   UNK d   1       4.226  -1.034  -0.340  0.00  0.00     0.255 A 
ATOM     10  C   UNK d   1       4.426  -3.813   1.994  0.00  0.00     0.027 A 
ATOM     11 Br   UNK d   1       5.710  -4.639   3.155  0.00  0.00    -0.050 Br
ATOM     12  C   UNK d   1       3.135  -4.284   1.886  0.00  0.00     0.024 A 
ATOM     13  C   UNK d   1       3.323  -0.406  -1.193  0.00  0.00     0.104 A 
ATOM     14  O   UNK d   1       5.392  -0.624  -0.229  0.00  0.00    -0.268 OA
ENDBRANCH   2   3
ENDBRANCH   1   2
BRANCH   1  15
ATOM     15  C   UNK d   1       0.490   1.743  -0.827  0.00  0.00     0.277 C 
ATOM     16  O   UNK d   1       1.692   2.064  -0.733  0.00  0.00    -0.263 OA
BRANCH  15  17
ATOM     17  C   UNK d   1      -0.581   2.540  -0.186  0.00  0.00     0.246 C 
BRANCH  17  18
ATOM     18  N   UNK d   1      -1.872   1.968  -0.440  0.00  0.00    -0.271 N 
ATOM     19  C   UNK d   1      -2.528   1.006   0.356  0.00  0.00     0.262 A 
ATOM     20  O   UNK d   1      -2.145   0.456   1.421  0.00  0.00    -0.267 OA
ATOM     21  C   UNK d   1      -3.831   0.698  -0.272  0.00  0.00     0.048 A 
ATOM     22  C   UNK d   1      -3.935   1.460  -1.404  0.00  0.00     0.048 A 
ATOM     23  C   UNK d   1      -4.846  -0.167   0.100  0.00  0.00     0.018 A 
ATOM     24  C   UNK d   1      -5.036   1.400  -2.209  0.00  0.00     0.018 A 
ATOM     25  C   UNK d   1      -2.717   2.264  -1.528  0.00  0.00     0.262 A 
ATOM     26  C   UNK d   1      -6.057   0.549  -1.862  0.00  0.00     0.001 A 
ATOM     27  C   UNK d   1      -5.953  -0.220  -0.719  0.00  0.00     0.001 A 
ATOM     28  O   UNK d   1      -2.493   3.082  -2.472  0.00  0.00    -0.267 OA
ENDBRANCH  17  18
ENDBRANCH  15  17
ENDBRANCH   1  15
TORSDOF 5
