REMARK  5 active torsions:
REMARK  status: ('A' for Active; 'I' for Inactive)
REMARK    1  A    between atoms: C_7  and  C_11 
REMARK    2  A    between atoms: C_11  and  O_12 
REMARK    3  A    between atoms: O_12  and  C_13 
REMARK    4  A    between atoms: C_13  and  C_15 
REMARK    5  A    between atoms: C_15  and  N_16 
ROOT
ATOM      1  C   UNK d   1       1.465   1.861  -1.276  0.00  0.00     0.277 C 
ATOM      2  O   UNK d   1       1.168   2.993  -1.738  0.00  0.00    -0.263 OA
ENDROOT
BRANCH   1   3
ATOM      3  O   UNK d   1       0.856   0.756  -1.821  0.00  0.00    -0.314 OA
BRANCH   3   4
ATOM      4  C   UNK d   1      -0.086   0.837  -2.874  0.00  0.00     0.238 C 
BRANCH   4   5
ATOM      5  C   UNK d   1      -1.238   1.655  -2.419  0.00  0.00     0.066 A 
ATOM      6  N   UNK d   1      -1.302   2.151  -1.171  0.00  0.00    -0.233 NA
ATOM      7  C   UNK d   1      -2.348   2.899  -0.745  0.00  0.00     0.137 A 
ATOM      8  N   UNK d   1      -3.379   3.177  -1.569  0.00  0.00    -0.272 N 
ATOM      9  C   UNK d   1      -2.365   3.384   0.548  0.00  0.00     0.052 A 
ATOM     10  C   UNK d   1      -4.426   3.917  -1.167  0.00  0.00     0.121 A 
ATOM     11  C   UNK d   1      -3.360   2.701  -2.834  0.00  0.00     0.255 A 
ATOM     12  C   UNK d   1      -4.449   4.404   0.122  0.00  0.00     0.027 A 
ATOM     13 Br   UNK d   1      -5.940   5.455   0.689  0.00  0.00    -0.050 Br
ATOM     14  C   UNK d   1      -3.415   4.146   1.009  0.00  0.00     0.024 A 
ATOM     15  C   UNK d   1      -2.280   1.929  -3.274  0.00  0.00     0.104 A 
ATOM     16  O   UNK d   1      -4.306   2.954  -3.598  0.00  0.00    -0.268 OA
ENDBRANCH   4   5
ENDBRANCH   3   4
ENDBRANCH   1   3
BRANCH   1  17
ATOM     17  C   UNK d   1       2.458   1.816  -0.171  0.00  0.00     0.247 C 
BRANCH  17  18
ATOM     18  N   UNK d   1       2.721   0.481   0.278  0.00  0.00    -0.259 N 
ATOM     19  C   UNK d   1       3.725  -0.401  -0.222  0.00  0.00     0.326 C 
ATOM     20  O   UNK d   1       4.539  -0.122  -1.149  0.00  0.00    -0.247 OA
ATOM     21  N   UNK d   1       3.639  -1.623   0.502  0.00  0.00    -0.324 N 
ATOM     22  C   UNK d   1       2.477  -1.579   1.353  0.00  0.00     0.116 C 
ATOM     23  H   UNK d   1       4.319  -2.397   0.408  0.00  0.00     0.165 HD
ATOM     24  C   UNK d   1       1.372  -2.488   0.884  0.00  0.00     0.041 C 
ATOM     25  C   UNK d   1       2.731  -2.049   2.745  0.00  0.00     0.041 C 
ATOM     26  C   UNK d   1       2.008  -0.195   1.316  0.00  0.00     0.256 C 
ATOM     27  C   UNK d   1       0.527  -2.660   2.107  0.00  0.00     0.003 C 
ATOM     28  C   UNK d   1       1.328  -2.203   3.291  0.00  0.00     0.003 C 
ATOM     29  O   UNK d   1       1.143   0.355   2.037  0.00  0.00    -0.270 OA
ENDBRANCH  17  18
ENDBRANCH   1  17
TORSDOF 5
