# created with PyMOL 2.3.2
@<TRIPOS>MOLECULE
800
45 48 1                 
SMALL
USER_CHARGES
@<TRIPOS>ATOM
1	  Br	-5.940	5.455	0.689	Br	1	UNK0	0.000	
2	   C	-4.449	4.404	0.122	C.2	1	UNK0	0.000	
3	   C	-4.426	3.917	-1.167	C.2	1	UNK0	0.000	
4	   N	-3.379	3.177	-1.569	N.pl3	1	UNK0	0.000	
5	   C	-2.348	2.899	-0.745	C.2	1	UNK0	0.000	
6	   N	-1.302	2.151	-1.171	N.2	1	UNK0	0.000	
7	   C	-1.238	1.655	-2.419	C.2	1	UNK0	0.000	
8	   C	-2.280	1.929	-3.274	C.2	1	UNK0	0.000	
9	   C	-3.360	2.701	-2.834	C.2	1	UNK0	0.000	
10	   O	-4.306	2.954	-3.598	O.2	1	UNK0	0.000	
11	   C	-0.086	0.837	-2.874	C.3	1	UNK0	0.000	
12	   O	0.856	0.756	-1.821	O.3	1	UNK0	0.000	
13	   C	1.465	1.861	-1.276	C.2	1	UNK0	0.000	
14	   O	1.168	2.993	-1.738	O.co2	1	UNK0	0.000	
15	   C	2.458	1.816	-0.171	C.3	1	UNK0	0.000	
16	   N	2.721	0.481	0.278	N.pl3	1	UNK0	0.000	
17	   C	3.725	-0.401	-0.222	C.2	1	UNK0	0.000	
18	   O	4.539	-0.122	-1.149	O.2	1	UNK0	0.000	
19	   N	3.639	-1.623	0.502	N.pl3	1	UNK0	0.000	
20	   C	2.477	-1.579	1.353	C.3	1	UNK0	0.000	
21	   C	1.372	-2.488	0.884	C.3	1	UNK0	0.000	
22	   C	0.527	-2.660	2.107	C.3	1	UNK0	0.000	
23	   C	1.328	-2.203	3.291	C.3	1	UNK0	0.000	
24	   C	2.731	-2.049	2.745	C.3	1	UNK0	0.000	
25	   C	2.008	-0.195	1.316	C.2	1	UNK0	0.000	
26	   O	1.143	0.355	2.037	O.2	1	UNK0	0.000	
27	   C	-2.365	3.384	0.548	C.2	1	UNK0	0.000	
28	   C	-3.415	4.146	1.009	C.2	1	UNK0	0.000	
29	   H	-5.231	4.114	-1.865	 H	1	UNK0	0.000	
30	   H	-2.254	1.542	-4.285	 H	1	UNK0	0.000	
31	   H	-0.436	-0.184	-3.116	 H	1	UNK0	0.000	
32	   H	0.370	1.303	-3.777	 H	1	UNK0	0.000	
33	   H	3.387	2.349	-0.474	 H	1	UNK0	0.000	
34	   H	2.017	2.428	0.660	 H	1	UNK0	0.000	
35	   H	4.319	-2.397	0.408	 H	1	UNK0	0.000	
36	   H	0.789	-1.917	0.106	 H	1	UNK0	0.000	
37	   H	1.721	-3.430	0.457	 H	1	UNK0	0.000	
38	   H	0.319	-3.758	2.242	 H	1	UNK0	0.000	
39	   H	-0.437	-2.111	2.000	 H	1	UNK0	0.000	
40	   H	1.306	-2.947	4.119	 H	1	UNK0	0.000	
41	   H	0.958	-1.242	3.728	 H	1	UNK0	0.000	
42	   H	3.334	-1.353	3.360	 H	1	UNK0	0.000	
43	   H	3.205	-3.059	2.738	 H	1	UNK0	0.000	
44	   H	-1.528	3.145	1.184	 H	1	UNK0	0.000	
45	   H	-3.446	4.535	2.016	 H	1	UNK0	0.000	
@<TRIPOS>BOND
1 1 2 1
2 2 3 2
3 2 28 1
4 3 4 1
5 4 5 1
6 4 9 1
7 5 6 2
8 5 27 1
9 6 7 1
10 7 8 2
11 7 11 1
12 8 9 1
13 9 10 2
14 11 12 1
15 12 13 1
16 13 14 2
17 13 15 1
18 15 16 1
19 16 17 1
20 16 25 1
21 17 18 2
22 17 19 1
23 19 20 1
24 20 21 1
25 20 24 1
26 20 25 1
27 21 22 1
28 22 23 1
29 23 24 1
30 25 26 2
31 27 28 2
32 3 29 1
33 8 30 1
34 11 31 1
35 11 32 1
36 15 33 1
37 15 34 1
38 19 35 1
39 21 36 1
40 21 37 1
41 22 38 1
42 22 39 1
43 23 40 1
44 23 41 1
45 24 42 1
46 24 43 1
47 27 44 1
48 28 45 1
@<TRIPOS>SUBSTRUCTURE
1	UNK0	1	GROUP	1 ****	UNK
