REMARK  6 active torsions:
REMARK  status: ('A' for Active; 'I' for Inactive)
REMARK    1  A    between atoms: C_16  and  N_17 
REMARK    2  A    between atoms: N_17  and  C_18 
REMARK    3  A    between atoms: C_19  and  C_24 
REMARK    4  A    between atoms: C_24  and  O_26 
REMARK    5  A    between atoms: O_26  and  C_27 
REMARK    6  A    between atoms: C_27  and  C_28 
ROOT
ATOM      1 Br   UNK d   1       0.688  -3.126   0.898  0.00  0.00    -0.046 Br
ATOM      2  C   UNK d   1      -0.134  -1.565   0.193  0.00  0.00     0.072 A 
ATOM      3  C   UNK d   1      -0.550  -1.457  -1.088  0.00  0.00     0.141 A 
ATOM      4  N   UNK d   1      -1.206  -0.396  -1.567  0.00  0.00    -0.118 N 
ATOM      5  C   UNK d   1      -1.467   0.614  -0.738  0.00  0.00     0.716 A 
ATOM      6  N   UNK d   1      -2.128   1.710  -1.206  0.00  0.00    -0.063 NA
ATOM      7  C   UNK d   1      -2.532   1.830  -2.463  0.00  0.00     0.091 A 
ATOM      8  C   UNK d   1      -2.275   0.800  -3.339  0.00  0.00     0.062 A 
ATOM      9  C   UNK d   1      -2.664   0.869  -4.662  0.00  0.00     0.019 A 
ATOM     10  C   UNK d   1      -3.335   1.976  -5.183  0.00  0.00     0.001 A 
ATOM     11  C   UNK d   1      -3.587   3.001  -4.297  0.00  0.00     0.002 A 
ATOM     12  C   UNK d   1      -3.199   2.936  -2.970  0.00  0.00     0.033 A 
ATOM     13  C   UNK d   1      -1.601  -0.309  -2.842  0.00  0.00     0.278 A 
ATOM     14  O   UNK d   1      -1.360  -1.252  -3.628  0.00  0.00    -0.266 OA
ATOM     15  N   UNK d   1      -1.060   0.531   0.550  0.00  0.00    -0.173 N 
ATOM     16  C   UNK d   1      -0.405  -0.484   1.097  0.00  0.00     0.140 A 
ATOM     17  H   UNK d   1      -1.331   1.404   1.109  0.00  0.00     0.186 HD
ENDROOT
BRANCH  16  18
ATOM     18  N   UNK d   1       0.124  -0.592   2.344  0.00  0.00    -0.340 N 
ATOM     19  H   UNK d   1      -0.434   0.593   2.735  0.00  0.00     0.167 HD
BRANCH  18  20
ATOM     20  C   UNK d   1       0.645  -0.698   3.573  0.00  0.00     0.050 A 
ATOM     21  C   UNK d   1       1.976  -1.108   3.725  0.00  0.00     0.066 A 
ATOM     22  C   UNK d   1       2.461  -1.452   4.944  0.00  0.00     0.020 A 
ATOM     23  C   UNK d   1       1.655  -1.399   6.055  0.00  0.00     0.001 A 
ATOM     24  C   UNK d   1       0.340  -0.998   5.974  0.00  0.00     0.002 A 
ATOM     25  C   UNK d   1      -0.129  -0.657   4.727  0.00  0.00     0.030 A 
BRANCH  21  26
ATOM     26  C   UNK d   1       2.937  -1.042   2.617  0.00  0.00     0.295 C 
ATOM     27  O   UNK d   1       4.104  -1.457   2.832  0.00  0.00    -0.259 OA
BRANCH  26  28
ATOM     28  O   UNK d   1       2.675  -0.561   1.367  0.00  0.00    -0.317 OA
BRANCH  28  29
ATOM     29  C   UNK d   1       3.649  -0.517   0.342  0.00  0.00     0.178 C 
BRANCH  29  30
ATOM     30  C   UNK d   1       3.045   0.068  -0.938  0.00  0.00     0.022 C 
ATOM     31  C   UNK d   1       4.114   0.103  -2.004  0.00  0.00     0.007 C 
ENDBRANCH  29  30
ENDBRANCH  28  29
ENDBRANCH  26  28
ENDBRANCH  21  26
ENDBRANCH  18  20
ENDBRANCH  16  18
TORSDOF 6
