REMARK  7 active torsions:
REMARK  status: ('A' for Active; 'I' for Inactive)
REMARK    1  A    between atoms: C_5  and  C_8 
REMARK    2  A    between atoms: C_8  and  C_10 
REMARK    3  A    between atoms: C_10  and  N_11 
REMARK    4  A    between atoms: C_13  and  C_21 
REMARK    5  A    between atoms: C_21  and  N_22 
REMARK    6  A    between atoms: N_22  and  C_23 
REMARK    7  A    between atoms: C_26  and  O_29 
ROOT
ATOM      1  N   UNK d   1      -0.024   0.050   0.188  0.00  0.00    -0.249 N 
ATOM      2  N   UNK d   1      -0.009   0.251  -1.110  0.00  0.00    -0.155 NA
ATOM      3  C   UNK d   1      -1.160  -0.158  -1.664  0.00  0.00     0.145 A 
ATOM      4  N   UNK d   1      -1.924  -0.634  -0.670  0.00  0.00    -0.321 N 
ATOM      5  C   UNK d   1      -1.206  -0.501   0.484  0.00  0.00     0.104 A 
ATOM      6  C   UNK d   1      -1.648  -0.890   1.822  0.00  0.00     0.078 C 
ATOM      7  C   UNK d   1      -2.001  -2.355   1.925  0.00  0.00     0.008 C 
ATOM      8  C   UNK d   1      -3.299  -2.675   1.217  0.00  0.00     0.002 C 
ATOM      9  C   UNK d   1      -3.188  -2.613  -0.275  0.00  0.00     0.020 C 
ATOM     10  C   UNK d   1      -3.258  -1.186  -0.800  0.00  0.00     0.132 C 
ENDROOT
BRANCH   3  11
ATOM     11  C   UNK d   1      -1.546  -0.110  -3.081  0.00  0.00     0.200 C 
BRANCH  11  12
ATOM     12  N   UNK d   1      -0.577   0.560  -3.893  0.00  0.00    -0.383 N 
ATOM     13  H   UNK d   1      -0.091   0.050  -4.645  0.00  0.00     0.160 HD
BRANCH  12  14
ATOM     14  C   UNK d   1      -0.233   1.931  -3.718  0.00  0.00     0.028 A 
ATOM     15  C   UNK d   1       0.748   2.544  -4.464  0.00  0.00     0.032 A 
ATOM     16  C   UNK d   1       1.067   3.866  -4.290  0.00  0.00     0.039 A 
ATOM     17  C   UNK d   1       0.403   4.600  -3.358  0.00  0.00     0.068 A 
ATOM     18  C   UNK d   1      -0.579   3.990  -2.609  0.00  0.00     0.039 A 
ATOM     19  C   UNK d   1      -0.909   2.661  -2.776  0.00  0.00     0.032 A 
BRANCH  17  20
ATOM     20  O   UNK d   1       0.702   5.927  -3.161  0.00  0.00    -0.356 OA
ATOM     21  C   UNK d   1       1.692   6.605  -3.894  0.00  0.00     0.210 C 
ENDBRANCH  17  20
ENDBRANCH  12  14
ENDBRANCH  11  12
ENDBRANCH   3  11
BRANCH   1  22
ATOM     22  C   UNK d   1       1.022   0.358   1.117  0.00  0.00     0.236 C 
BRANCH  22  23
ATOM     23  C   UNK d   1       1.964  -0.780   1.287  0.00  0.00     0.179 C 
ATOM     24  O   UNK d   1       1.738  -1.827   0.624  0.00  0.00    -0.290 OA
BRANCH  23  25
ATOM     25  C   UNK d   1       3.110  -0.732   2.169  0.00  0.00     0.011 A 
ATOM     26  C   UNK d   1       3.407   0.383   2.918  0.00  0.00     0.016 A 
ATOM     27  C   UNK d   1       4.513   0.415   3.762  0.00  0.00     0.020 A 
ATOM     28  C   UNK d   1       5.342  -0.689   3.863  0.00  0.00     0.011 A 
ATOM     29 Br   UNK d   1       6.869  -0.636   5.033  0.00  0.00    -0.051 Br
ATOM     30  C   UNK d   1       5.053  -1.808   3.119  0.00  0.00     0.020 A 
ATOM     31  C   UNK d   1       3.955  -1.812   2.294  0.00  0.00     0.016 A 
ENDBRANCH  23  25
ENDBRANCH  22  23
ENDBRANCH   1  22
TORSDOF 7
