REMARK  5 active torsions:
REMARK  status: ('A' for Active; 'I' for Inactive)
REMARK    1  A    between atoms: C_5  and  C_8 
REMARK    2  A    between atoms: C_8  and  O_27 
REMARK    3  A    between atoms: N_9  and  C_18 
REMARK    4  A    between atoms: C_21  and  O_24 
REMARK    5  A    between atoms: O_24  and  C_25 
ROOT
ATOM      1  C   UNK d   1      -0.121   2.551  -0.275  0.00  0.00     0.283 C 
ATOM      2  N   UNK d   1      -1.008   1.415  -0.515  0.00  0.00     0.042 N 
ATOM      3  C   UNK d   1      -1.106   1.181  -1.865  0.00  0.00     0.210 C 
ATOM      4  C   UNK d   1      -2.002   0.501  -2.536  0.00  0.00     0.030 C 
ATOM      5  C   UNK d   1      -2.201   0.180  -3.979  0.00  0.00     0.031 C 
ATOM      6  C   UNK d   1      -1.273   0.905  -4.902  0.00  0.00     0.005 C 
ATOM      7  C   UNK d   1       0.174   0.635  -4.563  0.00  0.00     0.020 C 
ATOM      8  C   UNK d   1       0.716   1.748  -3.688  0.00  0.00     0.124 C 
ATOM      9  N   UNK d   1      -0.063   1.949  -2.509  0.00  0.00    -0.356 N 
ATOM     10  C   UNK d   1       0.114   3.159  -1.695  0.00  0.00     0.200 C 
ATOM     11  H   UNK d   1      -1.999   1.942  -0.317  0.00  0.00     0.299 HD
ENDROOT
BRANCH   2  12
ATOM     12  C   UNK d   1      -1.023   0.445   0.452  0.00  0.00     0.146 A 
ATOM     13  C   UNK d   1      -1.500  -0.822   0.300  0.00  0.00     0.041 A 
ATOM     14  C   UNK d   1      -1.650  -1.717   1.373  0.00  0.00     0.039 A 
ATOM     15  C   UNK d   1      -1.314  -1.345   2.648  0.00  0.00     0.068 A 
ATOM     16  C   UNK d   1      -0.825  -0.057   2.811  0.00  0.00     0.039 A 
ATOM     17  C   UNK d   1      -0.681   0.818   1.756  0.00  0.00     0.041 A 
BRANCH  15  18
ATOM     18  O   UNK d   1      -1.465  -2.209   3.720  0.00  0.00    -0.352 OA
BRANCH  18  19
ATOM     19  C   UNK d   1      -1.928  -3.533   3.636  0.00  0.00     0.171 C 
ATOM     20  C   UNK d   1      -0.876  -4.287   2.800  0.00  0.00     0.034 C 
ENDBRANCH  18  19
ENDBRANCH  15  18
ENDBRANCH   2  12
BRANCH   1  21
ATOM     21  C   UNK d   1       1.244   2.084   0.100  0.00  0.00     0.007 A 
ATOM     22  C   UNK d   1       2.046   2.769   0.983  0.00  0.00     0.013 A 
ATOM     23  C   UNK d   1       3.300   2.296   1.307  0.00  0.00     0.020 A 
ATOM     24  C   UNK d   1       3.770   1.123   0.747  0.00  0.00     0.011 A 
ATOM     25 Br   UNK d   1       5.500   0.502   1.202  0.00  0.00    -0.051 Br
ATOM     26  C   UNK d   1       2.981   0.429  -0.135  0.00  0.00     0.020 A 
ATOM     27  C   UNK d   1       1.710   0.928  -0.450  0.00  0.00     0.013 A 
ENDBRANCH   1  21
BRANCH   1  28
ATOM     28  O   UNK d   1      -0.668   3.510   0.486  0.00  0.00    -0.359 OA
ATOM     29  H   UNK d   1      -0.118   4.194   0.895  0.00  0.00     0.213 HD
ENDBRANCH   1  28
TORSDOF 5
