# created with PyMOL 2.3.2
@<TRIPOS>MOLECULE
827
53 56 1                 
SMALL
USER_CHARGES
@<TRIPOS>ATOM
1	  Br	5.500	0.502	1.202	Br	1	UNK0	0.000	
2	   C	3.770	1.123	0.747	C.2	1	UNK0	0.000	
3	   C	3.300	2.296	1.307	C.2	1	UNK0	0.000	
4	   C	2.046	2.769	0.983	C.2	1	UNK0	0.000	
5	   C	1.244	2.084	0.100	C.2	1	UNK0	0.000	
6	   C	1.710	0.928	-0.450	C.2	1	UNK0	0.000	
7	   C	2.981	0.429	-0.135	C.2	1	UNK0	0.000	
8	   C	-0.121	2.551	-0.275	C.3	1	UNK0	0.000	
9	   N	-1.008	1.415	-0.515	N.4	1	UNK0	0.000	
10	   C	-1.106	1.181	-1.865	C.2	1	UNK0	0.000	
11	   C	-2.002	0.501	-2.536	C.2	1	UNK0	0.000	
12	   C	-2.201	0.180	-3.979	C.3	1	UNK0	0.000	
13	   C	-1.273	0.905	-4.902	C.3	1	UNK0	0.000	
14	   C	0.174	0.635	-4.563	C.3	1	UNK0	0.000	
15	   C	0.716	1.748	-3.688	C.3	1	UNK0	0.000	
16	   N	-0.063	1.949	-2.509	N.pl3	1	UNK0	0.000	
17	   C	0.114	3.159	-1.695	C.3	1	UNK0	0.000	
18	   C	-1.023	0.445	0.452	C.2	1	UNK0	0.000	
19	   C	-1.500	-0.822	0.300	C.2	1	UNK0	0.000	
20	   C	-1.650	-1.717	1.373	C.2	1	UNK0	0.000	
21	   C	-1.314	-1.345	2.648	C.2	1	UNK0	0.000	
22	   C	-0.825	-0.057	2.811	C.2	1	UNK0	0.000	
23	   C	-0.681	0.818	1.756	C.2	1	UNK0	0.000	
24	   O	-1.465	-2.209	3.720	O.3	1	UNK0	0.000	
25	   C	-1.928	-3.533	3.636	C.3	1	UNK0	0.000	
26	   C	-0.876	-4.287	2.800	C.3	1	UNK0	0.000	
27	   O	-0.668	3.510	0.486	O.3	1	UNK0	0.000	
28	   H	3.883	2.879	2.001	 H	1	UNK0	0.000	
29	   H	1.728	3.705	1.452	 H	1	UNK0	0.000	
30	   H	1.093	0.384	-1.137	 H	1	UNK0	0.000	
31	   H	3.364	-0.485	-0.570	 H	1	UNK0	0.000	
32	   H	-1.999	1.942	-0.317	 H	1	UNK0	0.000	
33	   H	-2.826	0.097	-1.952	 H	1	UNK0	0.000	
34	   H	-3.238	0.428	-4.263	 H	1	UNK0	0.000	
35	   H	-1.985	-0.915	-4.107	 H	1	UNK0	0.000	
36	   H	-1.508	1.955	-5.028	 H	1	UNK0	0.000	
37	   H	-1.432	0.432	-5.917	 H	1	UNK0	0.000	
38	   H	0.289	-0.348	-4.123	 H	1	UNK0	0.000	
39	   H	0.784	0.670	-5.517	 H	1	UNK0	0.000	
40	   H	1.803	1.654	-3.547	 H	1	UNK0	0.000	
41	   H	0.580	2.683	-4.314	 H	1	UNK0	0.000	
42	   H	-0.644	3.895	-1.949	 H	1	UNK0	0.000	
43	   H	1.137	3.503	-1.798	 H	1	UNK0	0.000	
44	   H	-1.760	-1.224	-0.659	 H	1	UNK0	0.000	
45	   H	-2.042	-2.697	1.175	 H	1	UNK0	0.000	
46	   H	-0.526	0.315	3.801	 H	1	UNK0	0.000	
47	   H	-0.307	1.829	1.980	 H	1	UNK0	0.000	
48	   H	-2.917	-3.573	3.070	 H	1	UNK0	0.000	
49	   H	-2.107	-3.984	4.616	 H	1	UNK0	0.000	
50	   H	-0.365	-4.929	3.540	 H	1	UNK0	0.000	
51	   H	-0.132	-3.588	2.380	 H	1	UNK0	0.000	
52	   H	-1.324	-4.835	1.958	 H	1	UNK0	0.000	
53	   H	-0.118	4.194	0.895	 H	1	UNK0	0.000	
@<TRIPOS>BOND
1 1 2 1
2 2 3 2
3 2 7 1
4 3 4 1
5 4 5 2
6 5 6 1
7 5 8 1
8 6 7 2
9 8 9 1
10 8 17 1
11 8 27 1
12 9 10 1
13 9 18 1
14 10 11 2
15 10 16 1
16 11 12 1
17 12 13 1
18 13 14 1
19 14 15 1
20 15 16 1
21 16 17 1
22 18 19 2
23 18 23 1
24 19 20 1
25 20 21 2
26 21 22 1
27 21 24 1
28 22 23 2
29 24 25 1
30 25 26 1
31 3 28 1
32 4 29 1
33 6 30 1
34 7 31 1
35 9 32 1
36 11 33 1
37 12 34 1
38 12 35 1
39 13 36 1
40 13 37 1
41 14 38 1
42 14 39 1
43 15 40 1
44 15 41 1
45 17 42 1
46 17 43 1
47 19 44 1
48 20 45 1
49 22 46 1
50 23 47 1
51 25 48 1
52 25 49 1
53 26 50 1
54 26 51 1
55 26 52 1
56 27 53 1
@<TRIPOS>SUBSTRUCTURE
1	UNK0	1	GROUP	1 ****	UNK
