REMARK  4 active torsions:
REMARK  status: ('A' for Active; 'I' for Inactive)
REMARK    1  A    between atoms: C_5  and  C_8 
REMARK    2  A    between atoms: C_8  and  O_26 
REMARK    3  A    between atoms: N_16  and  C_18 
REMARK    4  A    between atoms: C_19  and  O_24 
ROOT
ATOM      1  C   UNK d   1       0.575   1.545   1.712  0.00  0.00     0.189 C 
ATOM      2  N   UNK d   1       1.187   1.363   0.403  0.00  0.00    -0.324 N 
ATOM      3  C   UNK d   1       2.617   1.535   0.173  0.00  0.00     0.128 C 
ATOM      4  C   UNK d   1       2.975   1.604  -1.266  0.00  0.00     0.020 C 
ATOM      5  C   UNK d   1       2.172   2.607  -2.053  0.00  0.00     0.005 C 
ATOM      6  C   UNK d   1       1.049   1.823  -2.706  0.00  0.00     0.031 C 
ATOM      7  C   UNK d   1       0.103   1.224  -1.811  0.00  0.00     0.030 C 
ATOM      8  C   UNK d   1       0.159   1.025  -0.474  0.00  0.00     0.208 C 
ATOM      9  N   UNK d   1      -0.900   0.391   0.205  0.00  0.00     0.011 N 
ATOM     10  C   UNK d   1      -0.587   0.623   1.585  0.00  0.00     0.316 C 
ATOM     11  H   UNK d   1      -1.845   0.792   0.004  0.00  0.00     0.295 HD
ENDROOT
BRANCH   1  12
ATOM     12  C   UNK d   1       1.520   1.170   2.783  0.00  0.00    -0.001 A 
ATOM     13  C   UNK d   1       1.834   2.126   3.753  0.00  0.00     0.013 A 
ATOM     14  C   UNK d   1       2.758   1.756   4.731  0.00  0.00     0.020 A 
ATOM     15  C   UNK d   1       3.326   0.503   4.723  0.00  0.00     0.011 A 
ATOM     16 Br   UNK d   1       4.589   0.036   6.084  0.00  0.00    -0.051 Br
ATOM     17  C   UNK d   1       2.989  -0.419   3.746  0.00  0.00     0.020 A 
ATOM     18  C   UNK d   1       2.074  -0.071   2.767  0.00  0.00     0.013 A 
ENDBRANCH   1  12
BRANCH   1  19
ATOM     19  O   UNK d   1       0.235   2.868   1.825  0.00  0.00    -0.365 OA
ATOM     20  H   UNK d   1       0.998   3.483   1.806  0.00  0.00     0.213 HD
ENDBRANCH   1  19
BRANCH   9  21
ATOM     21  C   UNK d   1      -0.825  -0.991  -0.146  0.00  0.00     0.175 A 
ATOM     22  C   UNK d   1      -1.909  -1.831   0.046  0.00  0.00     0.103 A 
ATOM     23  C   UNK d   1      -1.709  -3.172  -0.255  0.00  0.00     0.039 A 
ATOM     24  C   UNK d   1      -0.517  -3.694  -0.722  0.00  0.00     0.003 A 
ATOM     25  C   UNK d   1       0.559  -2.799  -0.902  0.00  0.00     0.002 A 
ATOM     26  C   UNK d   1       0.351  -1.500  -0.608  0.00  0.00     0.041 A 
BRANCH  22  27
ATOM     27  O   UNK d   1      -3.089  -1.329   0.503  0.00  0.00    -0.354 OA
ATOM     28  C   UNK d   1      -4.217  -2.145   0.682  0.00  0.00     0.210 C 
ENDBRANCH  22  27
ENDBRANCH   9  21
TORSDOF 4
