# created with PyMOL 2.3.2
@<TRIPOS>MOLECULE
833
50 53 1                 
SMALL
USER_CHARGES
@<TRIPOS>ATOM
1	  Br	4.589	0.036	6.084	Br	1	UNK0	0.000	
2	   C	3.326	0.503	4.723	C.2	1	UNK0	0.000	
3	   C	2.758	1.756	4.731	C.2	1	UNK0	0.000	
4	   C	1.834	2.126	3.753	C.2	1	UNK0	0.000	
5	   C	1.520	1.170	2.783	C.2	1	UNK0	0.000	
6	   C	2.074	-0.071	2.767	C.2	1	UNK0	0.000	
7	   C	2.989	-0.419	3.746	C.2	1	UNK0	0.000	
8	   C	0.575	1.545	1.712	C.3	1	UNK0	0.000	
9	   N	1.187	1.363	0.403	N.pl3	1	UNK0	0.000	
10	   C	2.617	1.535	0.173	C.3	1	UNK0	0.000	
11	   C	2.975	1.604	-1.266	C.3	1	UNK0	0.000	
12	   C	2.172	2.607	-2.053	C.3	1	UNK0	0.000	
13	   C	1.049	1.823	-2.706	C.3	1	UNK0	0.000	
14	   C	0.103	1.224	-1.811	C.2	1	UNK0	0.000	
15	   C	0.159	1.025	-0.474	C.2	1	UNK0	0.000	
16	   N	-0.900	0.391	0.205	N.4	1	UNK0	0.000	
17	   C	-0.587	0.623	1.585	C.3	1	UNK0	0.000	
18	   C	-0.825	-0.991	-0.146	C.2	1	UNK0	0.000	
19	   C	-1.909	-1.831	0.046	C.2	1	UNK0	0.000	
20	   C	-1.709	-3.172	-0.255	C.2	1	UNK0	0.000	
21	   C	-0.517	-3.694	-0.722	C.2	1	UNK0	0.000	
22	   C	0.559	-2.799	-0.902	C.2	1	UNK0	0.000	
23	   C	0.351	-1.500	-0.608	C.2	1	UNK0	0.000	
24	   O	-3.089	-1.329	0.503	O.3	1	UNK0	0.000	
25	   C	-4.217	-2.145	0.682	C.3	1	UNK0	0.000	
26	   O	0.235	2.868	1.825	O.3	1	UNK0	0.000	
27	   H	3.009	2.502	5.488	 H	1	UNK0	0.000	
28	   H	1.437	3.122	3.793	 H	1	UNK0	0.000	
29	   H	1.816	-0.816	1.994	 H	1	UNK0	0.000	
30	   H	3.430	-1.426	3.729	 H	1	UNK0	0.000	
31	   H	2.905	2.500	0.647	 H	1	UNK0	0.000	
32	   H	3.191	0.659	0.584	 H	1	UNK0	0.000	
33	   H	4.045	1.944	-1.342	 H	1	UNK0	0.000	
34	   H	2.921	0.577	-1.684	 H	1	UNK0	0.000	
35	   H	2.792	3.020	-2.917	 H	1	UNK0	0.000	
36	   H	1.761	3.420	-1.422	 H	1	UNK0	0.000	
37	   H	1.554	1.031	-3.346	 H	1	UNK0	0.000	
38	   H	0.532	2.519	-3.423	 H	1	UNK0	0.000	
39	   H	-0.812	0.877	-2.265	 H	1	UNK0	0.000	
40	   H	-1.845	0.792	0.004	 H	1	UNK0	0.000	
41	   H	-0.452	-0.322	2.158	 H	1	UNK0	0.000	
42	   H	-1.460	1.100	2.061	 H	1	UNK0	0.000	
43	   H	-2.574	-3.811	-0.089	 H	1	UNK0	0.000	
44	   H	-0.375	-4.734	-0.953	 H	1	UNK0	0.000	
45	   H	1.486	-3.192	-1.253	 H	1	UNK0	0.000	
46	   H	1.241	-0.851	-0.754	 H	1	UNK0	0.000	
47	   H	-4.379	-2.752	-0.236	 H	1	UNK0	0.000	
48	   H	-4.030	-2.805	1.540	 H	1	UNK0	0.000	
49	   H	-5.112	-1.474	0.859	 H	1	UNK0	0.000	
50	   H	0.998	3.483	1.806	 H	1	UNK0	0.000	
@<TRIPOS>BOND
1 1 2 1
2 2 3 2
3 2 7 1
4 3 4 1
5 4 5 2
6 5 6 1
7 5 8 1
8 6 7 2
9 8 9 1
10 8 17 1
11 8 26 1
12 9 10 1
13 9 15 1
14 10 11 1
15 11 12 1
16 12 13 1
17 13 14 1
18 14 15 2
19 15 16 1
20 16 17 1
21 16 18 1
22 18 19 2
23 18 23 1
24 19 20 1
25 19 24 1
26 20 21 2
27 21 22 1
28 22 23 2
29 24 25 1
30 3 27 1
31 4 28 1
32 6 29 1
33 7 30 1
34 10 31 1
35 10 32 1
36 11 33 1
37 11 34 1
38 12 35 1
39 12 36 1
40 13 37 1
41 13 38 1
42 14 39 1
43 16 40 1
44 17 41 1
45 17 42 1
46 20 43 1
47 21 44 1
48 22 45 1
49 23 46 1
50 25 47 1
51 25 48 1
52 25 49 1
53 26 50 1
@<TRIPOS>SUBSTRUCTURE
1	UNK0	1	GROUP	1 ****	UNK
