REMARK  4 active torsions:
REMARK  status: ('A' for Active; 'I' for Inactive)
REMARK    1  A    between atoms: C_5  and  C_8 
REMARK    2  A    between atoms: C_8  and  O_26 
REMARK    3  A    between atoms: N_16  and  C_18 
REMARK    4  A    between atoms: C_21  and  O_24 
ROOT
ATOM      1  C   UNK d   1      -0.873  -0.128  -0.685  0.00  0.00     0.189 C 
ATOM      2  N   UNK d   1      -0.137  -1.191  -0.080  0.00  0.00    -0.324 N 
ATOM      3  C   UNK d   1       0.325  -2.400  -0.689  0.00  0.00     0.128 C 
ATOM      4  C   UNK d   1       0.106  -3.663   0.050  0.00  0.00     0.020 C 
ATOM      5  C   UNK d   1      -0.533  -3.567   1.388  0.00  0.00     0.005 C 
ATOM      6  C   UNK d   1       0.413  -2.987   2.440  0.00  0.00     0.031 C 
ATOM      7  C   UNK d   1       0.287  -1.499   2.352  0.00  0.00     0.030 C 
ATOM      8  C   UNK d   1       0.055  -0.746   1.290  0.00  0.00     0.208 C 
ATOM      9  N   UNK d   1      -0.063   0.671   1.328  0.00  0.00     0.009 N 
ATOM     10  C   UNK d   1      -1.175   0.862   0.445  0.00  0.00     0.316 C 
ATOM     11  H   UNK d   1      -0.282   0.948   2.318  0.00  0.00     0.295 HD
ENDROOT
BRANCH   1  12
ATOM     12  C   UNK d   1      -2.178  -0.441  -1.263  0.00  0.00    -0.001 A 
ATOM     13  C   UNK d   1      -2.810  -1.639  -1.303  0.00  0.00     0.013 A 
ATOM     14  C   UNK d   1      -4.061  -1.798  -1.886  0.00  0.00     0.020 A 
ATOM     15  C   UNK d   1      -4.706  -0.718  -2.450  0.00  0.00     0.011 A 
ATOM     16 Br   UNK d   1      -6.431  -0.907  -3.255  0.00  0.00    -0.051 Br
ATOM     17  C   UNK d   1      -4.068   0.499  -2.411  0.00  0.00     0.020 A 
ATOM     18  C   UNK d   1      -2.834   0.668  -1.838  0.00  0.00     0.013 A 
ENDBRANCH   1  12
BRANCH   1  19
ATOM     19  O   UNK d   1      -0.145   0.515  -1.705  0.00  0.00    -0.365 OA
ATOM     20  H   UNK d   1      -0.316   1.482  -1.570  0.00  0.00     0.213 HD
ENDBRANCH   1  19
BRANCH   9  21
ATOM     21  C   UNK d   1       1.131   1.245   0.863  0.00  0.00     0.142 A 
ATOM     22  C   UNK d   1       1.271   2.642   0.772  0.00  0.00     0.040 A 
ATOM     23  C   UNK d   1       2.420   3.232   0.319  0.00  0.00     0.039 A 
ATOM     24  C   UNK d   1       3.501   2.470  -0.070  0.00  0.00     0.068 A 
ATOM     25  C   UNK d   1       3.389   1.106   0.010  0.00  0.00     0.039 A 
ATOM     26  C   UNK d   1       2.230   0.512   0.466  0.00  0.00     0.040 A 
BRANCH  24  27
ATOM     27  O   UNK d   1       4.679   3.086  -0.534  0.00  0.00    -0.356 OA
ATOM     28  C   UNK d   1       5.773   2.301  -0.928  0.00  0.00     0.210 C 
ENDBRANCH  24  27
ENDBRANCH   9  21
TORSDOF 4
