# created with PyMOL 2.3.2
@<TRIPOS>MOLECULE
834
50 53 1                 
SMALL
USER_CHARGES
@<TRIPOS>ATOM
1	  Br	-6.431	-0.907	-3.255	Br	1	UNK0	0.000	
2	   C	-4.706	-0.718	-2.450	C.2	1	UNK0	0.000	
3	   C	-4.061	-1.798	-1.886	C.2	1	UNK0	0.000	
4	   C	-2.810	-1.639	-1.303	C.2	1	UNK0	0.000	
5	   C	-2.178	-0.441	-1.263	C.2	1	UNK0	0.000	
6	   C	-2.834	0.668	-1.838	C.2	1	UNK0	0.000	
7	   C	-4.068	0.499	-2.411	C.2	1	UNK0	0.000	
8	   C	-0.873	-0.128	-0.685	C.3	1	UNK0	0.000	
9	   N	-0.137	-1.191	-0.080	N.pl3	1	UNK0	0.000	
10	   C	0.325	-2.400	-0.689	C.3	1	UNK0	0.000	
11	   C	0.106	-3.663	0.050	C.3	1	UNK0	0.000	
12	   C	-0.533	-3.567	1.388	C.3	1	UNK0	0.000	
13	   C	0.413	-2.987	2.440	C.3	1	UNK0	0.000	
14	   C	0.287	-1.499	2.352	C.2	1	UNK0	0.000	
15	   C	0.055	-0.746	1.290	C.2	1	UNK0	0.000	
16	   N	-0.063	0.671	1.328	N.4	1	UNK0	0.000	
17	   C	-1.175	0.862	0.445	C.3	1	UNK0	0.000	
18	   C	1.131	1.245	0.863	C.2	1	UNK0	0.000	
19	   C	1.271	2.642	0.772	C.2	1	UNK0	0.000	
20	   C	2.420	3.232	0.319	C.2	1	UNK0	0.000	
21	   C	3.501	2.470	-0.070	C.2	1	UNK0	0.000	
22	   C	3.389	1.106	0.010	C.2	1	UNK0	0.000	
23	   C	2.230	0.512	0.466	C.2	1	UNK0	0.000	
24	   O	4.679	3.086	-0.534	O.3	1	UNK0	0.000	
25	   C	5.773	2.301	-0.928	C.3	1	UNK0	0.000	
26	   O	-0.145	0.515	-1.705	O.3	1	UNK0	0.000	
27	   H	-4.501	-2.774	-1.879	 H	1	UNK0	0.000	
28	   H	-2.310	-2.483	-0.856	 H	1	UNK0	0.000	
29	   H	-2.379	1.659	-1.839	 H	1	UNK0	0.000	
30	   H	-4.586	1.338	-2.857	 H	1	UNK0	0.000	
31	   H	-0.101	-2.430	-1.735	 H	1	UNK0	0.000	
32	   H	1.443	-2.362	-0.906	 H	1	UNK0	0.000	
33	   H	1.018	-4.301	0.160	 H	1	UNK0	0.000	
34	   H	-0.585	-4.308	-0.575	 H	1	UNK0	0.000	
35	   H	-1.495	-3.008	1.377	 H	1	UNK0	0.000	
36	   H	-0.773	-4.596	1.734	 H	1	UNK0	0.000	
37	   H	-0.028	-3.295	3.432	 H	1	UNK0	0.000	
38	   H	1.425	-3.346	2.279	 H	1	UNK0	0.000	
39	   H	0.403	-0.972	3.292	 H	1	UNK0	0.000	
40	   H	-0.282	0.948	2.318	 H	1	UNK0	0.000	
41	   H	-1.361	1.872	0.111	 H	1	UNK0	0.000	
42	   H	-2.089	0.493	0.975	 H	1	UNK0	0.000	
43	   H	0.414	3.199	1.081	 H	1	UNK0	0.000	
44	   H	2.514	4.308	0.255	 H	1	UNK0	0.000	
45	   H	4.252	0.495	-0.298	 H	1	UNK0	0.000	
46	   H	2.194	-0.583	0.514	 H	1	UNK0	0.000	
47	   H	5.492	1.465	-1.600	 H	1	UNK0	0.000	
48	   H	6.280	1.918	-0.014	 H	1	UNK0	0.000	
49	   H	6.505	2.916	-1.479	 H	1	UNK0	0.000	
50	   H	-0.316	1.482	-1.570	 H	1	UNK0	0.000	
@<TRIPOS>BOND
1 1 2 1
2 2 3 2
3 2 7 1
4 3 4 1
5 4 5 2
6 5 6 1
7 5 8 1
8 6 7 2
9 8 9 1
10 8 17 1
11 8 26 1
12 9 10 1
13 9 15 1
14 10 11 1
15 11 12 1
16 12 13 1
17 13 14 1
18 14 15 2
19 15 16 1
20 16 17 1
21 16 18 1
22 18 19 2
23 18 23 1
24 19 20 1
25 20 21 2
26 21 22 1
27 21 24 1
28 22 23 2
29 24 25 1
30 3 27 1
31 4 28 1
32 6 29 1
33 7 30 1
34 10 31 1
35 10 32 1
36 11 33 1
37 11 34 1
38 12 35 1
39 12 36 1
40 13 37 1
41 13 38 1
42 14 39 1
43 16 40 1
44 17 41 1
45 17 42 1
46 19 43 1
47 20 44 1
48 22 45 1
49 23 46 1
50 25 47 1
51 25 48 1
52 25 49 1
53 26 50 1
@<TRIPOS>SUBSTRUCTURE
1	UNK0	1	GROUP	1 ****	UNK
