# created with PyMOL 2.3.2
@<TRIPOS>MOLECULE
835
47 50 1                 
SMALL
USER_CHARGES
@<TRIPOS>ATOM
1	  Br	0.624	-1.337	-6.504	Br	1	UNK0	0.000	
2	   C	0.149	-0.936	-4.687	C.2	1	UNK0	0.000	
3	   C	0.376	-1.878	-3.709	C.2	1	UNK0	0.000	
4	   C	0.033	-1.574	-2.392	C.2	1	UNK0	0.000	
5	   C	-0.525	-0.367	-2.029	C.2	1	UNK0	0.000	
6	   C	-0.742	0.562	-3.029	C.2	1	UNK0	0.000	
7	   C	-0.407	0.276	-4.339	C.2	1	UNK0	0.000	
8	   C	-0.876	-0.111	-0.611	C.3	1	UNK0	0.000	
9	   N	0.175	-0.482	0.312	N.pl3	1	UNK0	0.000	
10	   C	1.619	-0.585	0.306	C.3	1	UNK0	0.000	
11	   C	2.225	-0.214	1.644	C.3	1	UNK0	0.000	
12	   C	1.646	-1.112	2.685	C.3	1	UNK0	0.000	
13	   C	0.169	-1.133	2.627	C.2	1	UNK0	0.000	
14	   C	-0.507	-0.837	1.513	C.2	1	UNK0	0.000	
15	   N	-1.904	-0.845	1.322	N.4	1	UNK0	0.000	
16	   C	-2.021	-0.964	-0.146	C.3	1	UNK0	0.000	
17	   C	-2.617	0.251	1.796	C.2	1	UNK0	0.000	
18	   C	-2.033	1.332	2.408	C.2	1	UNK0	0.000	
19	   C	-2.813	2.391	2.878	C.2	1	UNK0	0.000	
20	   C	-4.177	2.376	2.739	C.2	1	UNK0	0.000	
21	   C	-4.772	1.296	2.124	C.2	1	UNK0	0.000	
22	   C	-4.000	0.259	1.664	C.2	1	UNK0	0.000	
23	   O	-0.668	1.431	2.588	O.3	1	UNK0	0.000	
24	   C	-0.100	2.537	3.207	C.3	1	UNK0	0.000	
25	   O	-1.254	1.222	-0.488	O.3	1	UNK0	0.000	
26	   H	0.823	-2.862	-3.917	 H	1	UNK0	0.000	
27	   H	0.201	-2.305	-1.588	 H	1	UNK0	0.000	
28	   H	-1.189	1.523	-2.738	 H	1	UNK0	0.000	
29	   H	-0.580	1.011	-5.116	 H	1	UNK0	0.000	
30	   H	1.876	-1.673	0.153	 H	1	UNK0	0.000	
31	   H	2.063	0.012	-0.519	 H	1	UNK0	0.000	
32	   H	2.162	0.865	1.853	 H	1	UNK0	0.000	
33	   H	3.318	-0.457	1.565	 H	1	UNK0	0.000	
34	   H	2.029	-0.896	3.704	 H	1	UNK0	0.000	
35	   H	1.970	-2.158	2.412	 H	1	UNK0	0.000	
36	   H	-0.350	-1.403	3.549	 H	1	UNK0	0.000	
37	   H	-2.331	-1.771	1.655	 H	1	UNK0	0.000	
38	   H	-1.855	-1.996	-0.451	 H	1	UNK0	0.000	
39	   H	-3.004	-0.564	-0.452	 H	1	UNK0	0.000	
40	   H	-2.398	3.260	3.368	 H	1	UNK0	0.000	
41	   H	-4.832	3.190	3.090	 H	1	UNK0	0.000	
42	   H	-5.848	1.301	2.017	 H	1	UNK0	0.000	
43	   H	-4.466	-0.576	1.191	 H	1	UNK0	0.000	
44	   H	-0.480	3.529	2.861	 H	1	UNK0	0.000	
45	   H	1.024	2.603	3.033	 H	1	UNK0	0.000	
46	   H	-0.237	2.481	4.317	 H	1	UNK0	0.000	
47	   H	-2.160	1.296	-0.874	 H	1	UNK0	0.000	
@<TRIPOS>BOND
1 1 2 1
2 2 3 2
3 2 7 1
4 3 4 1
5 4 5 2
6 5 6 1
7 5 8 1
8 6 7 2
9 8 9 1
10 8 16 1
11 8 25 1
12 9 10 1
13 9 14 1
14 10 11 1
15 11 12 1
16 12 13 1
17 13 14 2
18 14 15 1
19 15 16 1
20 15 17 1
21 17 18 2
22 17 22 1
23 18 19 1
24 18 23 1
25 19 20 2
26 20 21 1
27 21 22 2
28 23 24 1
29 3 26 1
30 4 27 1
31 6 28 1
32 7 29 1
33 10 30 1
34 10 31 1
35 11 32 1
36 11 33 1
37 12 34 1
38 12 35 1
39 13 36 1
40 15 37 1
41 16 38 1
42 16 39 1
43 19 40 1
44 20 41 1
45 21 42 1
46 22 43 1
47 24 44 1
48 24 45 1
49 24 46 1
50 25 47 1
@<TRIPOS>SUBSTRUCTURE
1	UNK0	1	GROUP	1 ****	UNK
