REMARK  4 active torsions:
REMARK  status: ('A' for Active; 'I' for Inactive)
REMARK    1  A    between atoms: C_5  and  C_8 
REMARK    2  A    between atoms: C_8  and  O_25 
REMARK    3  A    between atoms: N_15  and  C_17 
REMARK    4  A    between atoms: C_20  and  O_23 
ROOT
ATOM      1  C   UNK d   1      -0.779   1.324   2.197  0.00  0.00     0.189 C 
ATOM      2  N   UNK d   1      -0.779  -0.087   1.900  0.00  0.00    -0.324 N 
ATOM      3  C   UNK d   1       0.172  -1.182   2.036  0.00  0.00     0.128 C 
ATOM      4  C   UNK d   1      -0.436  -2.513   2.251  0.00  0.00     0.024 C 
ATOM      5  C   UNK d   1      -1.935  -2.530   2.417  0.00  0.00     0.032 C 
ATOM      6  C   UNK d   1      -2.618  -1.537   1.593  0.00  0.00     0.030 C 
ATOM      7  C   UNK d   1      -2.057  -0.367   1.349  0.00  0.00     0.208 C 
ATOM      8  N   UNK d   1      -2.470   0.771   0.599  0.00  0.00     0.009 N 
ATOM      9  C   UNK d   1      -1.781   1.868   1.205  0.00  0.00     0.316 C 
ATOM     10  H   UNK d   1      -3.512   0.864   0.742  0.00  0.00     0.295 HD
ENDROOT
BRANCH   1  11
ATOM     11  C   UNK d   1       0.528   1.971   2.106  0.00  0.00    -0.001 A 
ATOM     12  C   UNK d   1       1.020   2.700   3.168  0.00  0.00     0.013 A 
ATOM     13  C   UNK d   1       2.246   3.332   3.138  0.00  0.00     0.020 A 
ATOM     14  C   UNK d   1       3.054   3.262   2.019  0.00  0.00     0.011 A 
ATOM     15 Br   UNK d   1       4.752   4.130   1.952  0.00  0.00    -0.051 Br
ATOM     16  C   UNK d   1       2.578   2.537   0.948  0.00  0.00     0.020 A 
ATOM     17  C   UNK d   1       1.348   1.906   0.986  0.00  0.00     0.013 A 
ENDBRANCH   1  11
BRANCH   1  18
ATOM     18  O   UNK d   1      -1.251   1.467   3.518  0.00  0.00    -0.365 OA
ATOM     19  H   UNK d   1      -0.909   0.682   4.012  0.00  0.00     0.213 HD
ENDBRANCH   1  18
BRANCH   8  20
ATOM     20  C   UNK d   1      -2.192   0.555  -0.744  0.00  0.00     0.142 A 
ATOM     21  C   UNK d   1      -1.599  -0.614  -1.160  0.00  0.00     0.040 A 
ATOM     22  C   UNK d   1      -1.318  -0.830  -2.519  0.00  0.00     0.039 A 
ATOM     23  C   UNK d   1      -1.620   0.103  -3.471  0.00  0.00     0.068 A 
ATOM     24  C   UNK d   1      -2.227   1.298  -3.042  0.00  0.00     0.039 A 
ATOM     25  C   UNK d   1      -2.490   1.480  -1.700  0.00  0.00     0.040 A 
BRANCH  23  26
ATOM     26  O   UNK d   1      -1.370  -0.045  -4.834  0.00  0.00    -0.356 OA
ATOM     27  C   UNK d   1      -0.779  -1.142  -5.451  0.00  0.00     0.210 C 
ENDBRANCH  23  26
ENDBRANCH   8  20
TORSDOF 4
