# created with PyMOL 2.3.2
@<TRIPOS>MOLECULE
836
47 50 1                 
SMALL
USER_CHARGES
@<TRIPOS>ATOM
1	  Br	4.752	4.130	1.952	Br	1	UNK0	0.000	
2	   C	3.054	3.262	2.019	C.2	1	UNK0	0.000	
3	   C	2.246	3.332	3.138	C.2	1	UNK0	0.000	
4	   C	1.020	2.700	3.168	C.2	1	UNK0	0.000	
5	   C	0.528	1.971	2.106	C.2	1	UNK0	0.000	
6	   C	1.348	1.906	0.986	C.2	1	UNK0	0.000	
7	   C	2.578	2.537	0.948	C.2	1	UNK0	0.000	
8	   C	-0.779	1.324	2.197	C.3	1	UNK0	0.000	
9	   N	-0.779	-0.087	1.900	N.pl3	1	UNK0	0.000	
10	   C	0.172	-1.182	2.036	C.3	1	UNK0	0.000	
11	   C	-0.436	-2.513	2.251	C.3	1	UNK0	0.000	
12	   C	-1.935	-2.530	2.417	C.3	1	UNK0	0.000	
13	   C	-2.618	-1.537	1.593	C.2	1	UNK0	0.000	
14	   C	-2.057	-0.367	1.349	C.2	1	UNK0	0.000	
15	   N	-2.470	0.771	0.599	N.4	1	UNK0	0.000	
16	   C	-1.781	1.868	1.205	C.3	1	UNK0	0.000	
17	   C	-2.192	0.555	-0.744	C.2	1	UNK0	0.000	
18	   C	-1.599	-0.614	-1.160	C.2	1	UNK0	0.000	
19	   C	-1.318	-0.830	-2.519	C.2	1	UNK0	0.000	
20	   C	-1.620	0.103	-3.471	C.2	1	UNK0	0.000	
21	   C	-2.227	1.298	-3.042	C.2	1	UNK0	0.000	
22	   C	-2.490	1.480	-1.700	C.2	1	UNK0	0.000	
23	   O	-1.370	-0.045	-4.834	O.3	1	UNK0	0.000	
24	   C	-0.779	-1.142	-5.451	C.3	1	UNK0	0.000	
25	   O	-1.251	1.467	3.518	O.3	1	UNK0	0.000	
26	   H	2.627	3.904	3.976	 H	1	UNK0	0.000	
27	   H	0.398	2.770	4.065	 H	1	UNK0	0.000	
28	   H	0.996	1.344	0.140	 H	1	UNK0	0.000	
29	   H	3.223	2.490	0.072	 H	1	UNK0	0.000	
30	   H	0.883	-0.971	2.883	 H	1	UNK0	0.000	
31	   H	0.852	-1.225	1.137	 H	1	UNK0	0.000	
32	   H	0.064	-3.056	3.097	 H	1	UNK0	0.000	
33	   H	-0.233	-3.172	1.356	 H	1	UNK0	0.000	
34	   H	-2.359	-3.534	2.210	 H	1	UNK0	0.000	
35	   H	-2.136	-2.334	3.506	 H	1	UNK0	0.000	
36	   H	-3.582	-1.762	1.183	 H	1	UNK0	0.000	
37	   H	-3.512	0.864	0.742	 H	1	UNK0	0.000	
38	   H	-2.507	2.475	1.791	 H	1	UNK0	0.000	
39	   H	-1.323	2.566	0.481	 H	1	UNK0	0.000	
40	   H	-1.327	-1.406	-0.482	 H	1	UNK0	0.000	
41	   H	-0.851	-1.758	-2.834	 H	1	UNK0	0.000	
42	   H	-2.468	2.037	-3.798	 H	1	UNK0	0.000	
43	   H	-2.951	2.395	-1.400	 H	1	UNK0	0.000	
44	   H	-0.516	-1.958	-4.789	 H	1	UNK0	0.000	
45	   H	0.063	-0.808	-6.104	 H	1	UNK0	0.000	
46	   H	-1.531	-1.574	-6.176	 H	1	UNK0	0.000	
47	   H	-0.909	0.682	4.012	 H	1	UNK0	0.000	
@<TRIPOS>BOND
1 1 2 1
2 2 3 2
3 2 7 1
4 3 4 1
5 4 5 2
6 5 6 1
7 5 8 1
8 6 7 2
9 8 9 1
10 8 16 1
11 8 25 1
12 9 10 1
13 9 14 1
14 10 11 1
15 11 12 1
16 12 13 1
17 13 14 2
18 14 15 1
19 15 16 1
20 15 17 1
21 17 18 2
22 17 22 1
23 18 19 1
24 19 20 2
25 20 21 1
26 20 23 1
27 21 22 2
28 23 24 1
29 3 26 1
30 4 27 1
31 6 28 1
32 7 29 1
33 10 30 1
34 10 31 1
35 11 32 1
36 11 33 1
37 12 34 1
38 12 35 1
39 13 36 1
40 15 37 1
41 16 38 1
42 16 39 1
43 18 40 1
44 19 41 1
45 21 42 1
46 22 43 1
47 24 44 1
48 24 45 1
49 24 46 1
50 25 47 1
@<TRIPOS>SUBSTRUCTURE
1	UNK0	1	GROUP	1 ****	UNK
