# created with PyMOL 2.3.2
@<TRIPOS>MOLECULE
847
56 59 1                 
SMALL
USER_CHARGES
@<TRIPOS>ATOM
1	  Br	5.543	-2.422	-4.774	Br	1	UNK0	0.000	
2	   C	4.709	-2.239	-3.076	C.2	1	UNK0	0.000	
3	   C	3.375	-2.597	-2.909	C.2	1	UNK0	0.000	
4	   C	2.774	-2.464	-1.686	C.2	1	UNK0	0.000	
5	   C	3.486	-1.974	-0.613	C.2	1	UNK0	0.000	
6	   C	4.807	-1.624	-0.796	C.2	1	UNK0	0.000	
7	   C	5.441	-1.745	-2.011	C.2	1	UNK0	0.000	
8	   N	2.860	-1.829	0.668	N.pl3	1	UNK0	0.000	
9	   C	1.464	-2.142	0.897	C.3	1	UNK0	0.000	
10	   C	0.541	-1.290	0.080	C.2	1	UNK0	0.000	
11	   N	-0.585	-1.623	-0.572	N.pl3	1	UNK0	0.000	
12	   C	-1.067	-0.514	-1.163	C.2	1	UNK0	0.000	
13	   N	-0.221	0.529	-0.871	N.pl3	1	UNK0	0.000	
14	   N	0.738	0.019	-0.118	N.2	1	UNK0	0.000	
15	   C	-0.285	1.868	-1.304	C.3	1	UNK0	0.000	
16	   C	-1.025	2.813	-0.510	C.2	1	UNK0	0.000	
17	   O	-1.041	4.032	-1.051	O.2	1	UNK0	0.000	
18	   C	-1.748	2.740	0.728	C.2	1	UNK0	0.000	
19	   C	-2.412	3.877	1.238	C.2	1	UNK0	0.000	
20	   C	-3.111	3.865	2.416	C.2	1	UNK0	0.000	
21	   C	-3.199	2.722	3.170	C.2	1	UNK0	0.000	
22	   C	-2.570	1.597	2.712	C.2	1	UNK0	0.000	
23	   C	-1.855	1.624	1.500	C.2	1	UNK0	0.000	
24	   O	-3.911	2.711	4.368	O.3	1	UNK0	0.000	
25	   C	-4.026	1.560	5.168	C.3	1	UNK0	0.000	
26	   C	-2.245	-0.267	-2.000	C.3	1	UNK0	0.000	
27	   C	-3.448	-1.109	-1.669	C.3	1	UNK0	0.000	
28	   C	-3.218	-2.576	-1.832	C.3	1	UNK0	0.000	
29	   C	-2.593	-3.073	-0.549	C.3	1	UNK0	0.000	
30	   C	-1.089	-2.957	-0.574	C.3	1	UNK0	0.000	
31	   H	2.849	-2.980	-3.788	 H	1	UNK0	0.000	
32	   H	1.750	-2.743	-1.565	 H	1	UNK0	0.000	
33	   H	5.364	-1.243	0.037	 H	1	UNK0	0.000	
34	   H	6.476	-1.479	-2.181	 H	1	UNK0	0.000	
35	   H	3.467	-1.480	1.442	 H	1	UNK0	0.000	
36	   H	1.255	-3.231	0.710	 H	1	UNK0	0.000	
37	   H	1.249	-1.995	1.977	 H	1	UNK0	0.000	
38	   H	-0.596	1.924	-2.410	 H	1	UNK0	0.000	
39	   H	0.778	2.318	-1.399	 H	1	UNK0	0.000	
40	   H	-2.346	4.781	0.648	 H	1	UNK0	0.000	
41	   H	-3.601	4.776	2.751	 H	1	UNK0	0.000	
42	   H	-2.630	0.685	3.298	 H	1	UNK0	0.000	
43	   H	-1.406	0.711	1.242	 H	1	UNK0	0.000	
44	   H	-4.361	0.705	4.535	 H	1	UNK0	0.000	
45	   H	-4.823	1.741	5.918	 H	1	UNK0	0.000	
46	   H	-3.082	1.316	5.693	 H	1	UNK0	0.000	
47	   H	-2.017	-0.424	-3.074	 H	1	UNK0	0.000	
48	   H	-2.562	0.787	-1.860	 H	1	UNK0	0.000	
49	   H	-4.246	-0.814	-2.388	 H	1	UNK0	0.000	
50	   H	-3.852	-0.896	-0.660	 H	1	UNK0	0.000	
51	   H	-4.207	-3.090	-1.944	 H	1	UNK0	0.000	
52	   H	-2.547	-2.818	-2.660	 H	1	UNK0	0.000	
53	   H	-2.829	-4.154	-0.470	 H	1	UNK0	0.000	
54	   H	-3.035	-2.590	0.355	 H	1	UNK0	0.000	
55	   H	-0.749	-3.471	-1.497	 H	1	UNK0	0.000	
56	   H	-0.734	-3.467	0.346	 H	1	UNK0	0.000	
@<TRIPOS>BOND
1 1 2 1
2 2 3 2
3 2 7 1
4 3 4 1
5 4 5 2
6 5 6 1
7 5 8 1
8 6 7 2
9 8 9 1
10 9 10 1
11 10 11 1
12 10 14 2
13 11 12 1
14 11 30 1
15 12 13 2
16 12 26 1
17 13 14 1
18 13 15 1
19 15 16 1
20 16 17 2
21 16 18 1
22 18 19 2
23 18 23 1
24 19 20 1
25 20 21 2
26 21 22 1
27 21 24 1
28 22 23 2
29 24 25 1
30 26 27 1
31 27 28 1
32 28 29 1
33 29 30 1
34 3 31 1
35 4 32 1
36 6 33 1
37 7 34 1
38 8 35 1
39 9 36 1
40 9 37 1
41 15 38 1
42 15 39 1
43 19 40 1
44 20 41 1
45 22 42 1
46 23 43 1
47 25 44 1
48 25 45 1
49 25 46 1
50 26 47 1
51 26 48 1
52 27 49 1
53 27 50 1
54 28 51 1
55 28 52 1
56 29 53 1
57 29 54 1
58 30 55 1
59 30 56 1
@<TRIPOS>SUBSTRUCTURE
1	UNK0	1	GROUP	1 ****	UNK
