REMARK  6 active torsions:
REMARK  status: ('A' for Active; 'I' for Inactive)
REMARK    1  A    between atoms: C_5  and  N_8 
REMARK    2  A    between atoms: N_8  and  C_9 
REMARK    3  A    between atoms: C_9  and  C_10 
REMARK    4  A    between atoms: N_13  and  C_15 
REMARK    5  A    between atoms: C_16  and  C_18 
REMARK    6  A    between atoms: C_21  and  O_24 
ROOT
ATOM      1  C   UNK d   1       0.541  -1.290   0.080  0.00  0.00     0.145 A 
ATOM      2  N   UNK d   1      -0.585  -1.623  -0.572  0.00  0.00    -0.321 N 
ATOM      3  C   UNK d   1      -1.067  -0.514  -1.163  0.00  0.00     0.104 A 
ATOM      4  N   UNK d   1      -0.221   0.529  -0.871  0.00  0.00    -0.250 N 
ATOM      5  N   UNK d   1       0.738   0.019  -0.118  0.00  0.00    -0.155 NA
ATOM      6  C   UNK d   1      -2.245  -0.267  -2.000  0.00  0.00     0.078 C 
ATOM      7  C   UNK d   1      -3.448  -1.109  -1.669  0.00  0.00     0.008 C 
ATOM      8  C   UNK d   1      -3.218  -2.576  -1.832  0.00  0.00     0.002 C 
ATOM      9  C   UNK d   1      -2.593  -3.073  -0.549  0.00  0.00     0.020 C 
ATOM     10  C   UNK d   1      -1.089  -2.957  -0.574  0.00  0.00     0.132 C 
ENDROOT
BRANCH   4  11
ATOM     11  C   UNK d   1      -0.285   1.868  -1.304  0.00  0.00     0.221 C 
ATOM     12  C   UNK d   1      -1.025   2.813  -0.510  0.00  0.00     0.114 C 
ATOM     13  O   UNK d   1      -1.041   4.032  -1.051  0.00  0.00    -0.194 OA
BRANCH  12  14
ATOM     14  C   UNK d   1      -1.748   2.740   0.728  0.00  0.00    -0.002 A 
ATOM     15  C   UNK d   1      -2.412   3.877   1.238  0.00  0.00     0.017 A 
ATOM     16  C   UNK d   1      -3.111   3.865   2.416  0.00  0.00     0.037 A 
ATOM     17  C   UNK d   1      -3.199   2.722   3.170  0.00  0.00     0.068 A 
ATOM     18  C   UNK d   1      -2.570   1.597   2.712  0.00  0.00     0.037 A 
ATOM     19  C   UNK d   1      -1.855   1.624   1.500  0.00  0.00     0.017 A 
BRANCH  17  20
ATOM     20  O   UNK d   1      -3.911   2.711   4.368  0.00  0.00    -0.356 OA
ATOM     21  C   UNK d   1      -4.026   1.560   5.168  0.00  0.00     0.210 C 
ENDBRANCH  17  20
ENDBRANCH  12  14
ENDBRANCH   4  11
BRANCH   1  22
ATOM     22  C   UNK d   1       1.464  -2.142   0.897  0.00  0.00     0.200 C 
BRANCH  22  23
ATOM     23  N   UNK d   1       2.860  -1.829   0.668  0.00  0.00    -0.383 N 
ATOM     24  H   UNK d   1       3.467  -1.480   1.442  0.00  0.00     0.160 HD
BRANCH  23  25
ATOM     25  C   UNK d   1       3.486  -1.974  -0.613  0.00  0.00     0.028 A 
ATOM     26  C   UNK d   1       2.774  -2.464  -1.686  0.00  0.00     0.030 A 
ATOM     27  C   UNK d   1       3.375  -2.597  -2.909  0.00  0.00     0.021 A 
ATOM     28  C   UNK d   1       4.709  -2.239  -3.076  0.00  0.00     0.011 A 
ATOM     29 Br   UNK d   1       5.543  -2.422  -4.774  0.00  0.00    -0.051 Br
ATOM     30  C   UNK d   1       5.441  -1.745  -2.011  0.00  0.00     0.021 A 
ATOM     31  C   UNK d   1       4.807  -1.624  -0.796  0.00  0.00     0.030 A 
ENDBRANCH  23  25
ENDBRANCH  22  23
ENDBRANCH   1  22
TORSDOF 6
