REMARK  5 active torsions:
REMARK  status: ('A' for Active; 'I' for Inactive)
REMARK    1  A    between atoms: C_5  and  N_8 
REMARK    2  A    between atoms: C_9  and  O_18 
REMARK    3  A    between atoms: C_9  and  C_19 
REMARK    4  A    between atoms: C_22  and  O_25 
REMARK    5  A    between atoms: O_25  and  C_26 
ROOT
ATOM      1  N   UNK d   1      -1.598  -0.812   1.581  0.00  0.00     0.042 N 
ATOM      2  C   UNK d   1      -0.732   0.255   1.986  0.00  0.00     0.283 C 
ATOM      3  C   UNK d   1      -1.638   1.451   1.696  0.00  0.00     0.200 C 
ATOM      4  N   UNK d   1      -2.294   1.068   0.436  0.00  0.00    -0.356 N 
ATOM      5  C   UNK d   1      -2.908   2.044  -0.393  0.00  0.00     0.124 C 
ATOM      6  C   UNK d   1      -3.483   1.516  -1.673  0.00  0.00     0.020 C 
ATOM      7  C   UNK d   1      -2.455   0.666  -2.368  0.00  0.00     0.005 C 
ATOM      8  C   UNK d   1      -2.845  -0.782  -2.037  0.00  0.00     0.031 C 
ATOM      9  C   UNK d   1      -2.319  -1.115  -0.698  0.00  0.00     0.030 C 
ATOM     10  C   UNK d   1      -2.111  -0.344   0.345  0.00  0.00     0.210 C 
ATOM     11  H   UNK d   1      -0.986  -1.680   1.471  0.00  0.00     0.299 HD
ENDROOT
BRANCH   2  12
ATOM     12  O   UNK d   1      -0.214   0.205   3.241  0.00  0.00    -0.359 OA
ATOM     13  H   UNK d   1       0.197   1.041   3.528  0.00  0.00     0.213 HD
ENDBRANCH   2  12
BRANCH   2  14
ATOM     14  C   UNK d   1       0.426   0.414   1.060  0.00  0.00     0.007 A 
ATOM     15  C   UNK d   1       0.854  -0.526   0.171  0.00  0.00     0.015 A 
ATOM     16  C   UNK d   1       1.955  -0.309  -0.684  0.00  0.00     0.037 A 
ATOM     17  C   UNK d   1       2.648   0.877  -0.652  0.00  0.00     0.068 A 
ATOM     18  C   UNK d   1       2.226   1.832   0.241  0.00  0.00     0.037 A 
ATOM     19  C   UNK d   1       1.152   1.616   1.074  0.00  0.00     0.015 A 
BRANCH  17  20
ATOM     20  O   UNK d   1       3.743   1.105  -1.502  0.00  0.00    -0.352 OA
BRANCH  20  21
ATOM     21  C   UNK d   1       4.457   2.318  -1.475  0.00  0.00     0.171 C 
ATOM     22  C   UNK d   1       5.583   2.344  -2.460  0.00  0.00     0.034 C 
ENDBRANCH  20  21
ENDBRANCH  17  20
ENDBRANCH   2  14
BRANCH   1  23
ATOM     23  C   UNK d   1      -2.608  -1.188   2.441  0.00  0.00     0.146 A 
ATOM     24  C   UNK d   1      -3.490  -2.197   2.059  0.00  0.00     0.039 A 
ATOM     25  C   UNK d   1      -4.511  -2.640   2.887  0.00  0.00     0.021 A 
ATOM     26  C   UNK d   1      -4.693  -2.090   4.136  0.00  0.00     0.011 A 
ATOM     27 Br   UNK d   1      -6.085  -2.702   5.303  0.00  0.00    -0.051 Br
ATOM     28  C   UNK d   1      -3.848  -1.102   4.537  0.00  0.00     0.021 A 
ATOM     29  C   UNK d   1      -2.832  -0.677   3.685  0.00  0.00     0.039 A 
ENDBRANCH   1  23
TORSDOF 5
