# created with PyMOL 2.3.2
@<TRIPOS>MOLECULE
850
53 56 1                 
SMALL
USER_CHARGES
@<TRIPOS>ATOM
1	  Br	-6.085	-2.702	5.303	Br	1	UNK0	0.000	
2	   C	-4.693	-2.090	4.136	C.2	1	UNK0	0.000	
3	   C	-4.511	-2.640	2.887	C.2	1	UNK0	0.000	
4	   C	-3.490	-2.197	2.059	C.2	1	UNK0	0.000	
5	   C	-2.608	-1.188	2.441	C.2	1	UNK0	0.000	
6	   C	-2.832	-0.677	3.685	C.2	1	UNK0	0.000	
7	   C	-3.848	-1.102	4.537	C.2	1	UNK0	0.000	
8	   N	-1.598	-0.812	1.581	N.4	1	UNK0	0.000	
9	   C	-0.732	0.255	1.986	C.3	1	UNK0	0.000	
10	   C	-1.638	1.451	1.696	C.3	1	UNK0	0.000	
11	   N	-2.294	1.068	0.436	N.pl3	1	UNK0	0.000	
12	   C	-2.908	2.044	-0.393	C.3	1	UNK0	0.000	
13	   C	-3.483	1.516	-1.673	C.3	1	UNK0	0.000	
14	   C	-2.455	0.666	-2.368	C.3	1	UNK0	0.000	
15	   C	-2.845	-0.782	-2.037	C.3	1	UNK0	0.000	
16	   C	-2.319	-1.115	-0.698	C.2	1	UNK0	0.000	
17	   C	-2.111	-0.344	0.345	C.2	1	UNK0	0.000	
18	   O	-0.214	0.205	3.241	O.3	1	UNK0	0.000	
19	   C	0.426	0.414	1.060	C.2	1	UNK0	0.000	
20	   C	0.854	-0.526	0.171	C.2	1	UNK0	0.000	
21	   C	1.955	-0.309	-0.684	C.2	1	UNK0	0.000	
22	   C	2.648	0.877	-0.652	C.2	1	UNK0	0.000	
23	   C	2.226	1.832	0.241	C.2	1	UNK0	0.000	
24	   C	1.152	1.616	1.074	C.2	1	UNK0	0.000	
25	   O	3.743	1.105	-1.502	O.3	1	UNK0	0.000	
26	   C	4.457	2.318	-1.475	C.3	1	UNK0	0.000	
27	   C	5.583	2.344	-2.460	C.3	1	UNK0	0.000	
28	   H	-5.205	-3.420	2.606	 H	1	UNK0	0.000	
29	   H	-3.420	-2.683	1.100	 H	1	UNK0	0.000	
30	   H	-2.214	0.089	4.075	 H	1	UNK0	0.000	
31	   H	-3.949	-0.626	5.529	 H	1	UNK0	0.000	
32	   H	-0.986	-1.680	1.471	 H	1	UNK0	0.000	
33	   H	-2.338	1.705	2.469	 H	1	UNK0	0.000	
34	   H	-1.085	2.368	1.444	 H	1	UNK0	0.000	
35	   H	-3.732	2.531	0.170	 H	1	UNK0	0.000	
36	   H	-2.118	2.809	-0.685	 H	1	UNK0	0.000	
37	   H	-4.408	0.960	-1.423	 H	1	UNK0	0.000	
38	   H	-3.679	2.387	-2.326	 H	1	UNK0	0.000	
39	   H	-2.409	0.806	-3.459	 H	1	UNK0	0.000	
40	   H	-1.427	0.788	-1.969	 H	1	UNK0	0.000	
41	   H	-3.945	-0.914	-2.030	 H	1	UNK0	0.000	
42	   H	-2.439	-1.432	-2.842	 H	1	UNK0	0.000	
43	   H	-2.045	-2.148	-0.601	 H	1	UNK0	0.000	
44	   H	0.197	1.041	3.528	 H	1	UNK0	0.000	
45	   H	0.353	-1.472	0.122	 H	1	UNK0	0.000	
46	   H	2.242	-1.099	-1.365	 H	1	UNK0	0.000	
47	   H	2.796	2.774	0.241	 H	1	UNK0	0.000	
48	   H	0.838	2.381	1.781	 H	1	UNK0	0.000	
49	   H	4.916	2.386	-0.442	 H	1	UNK0	0.000	
50	   H	3.804	3.221	-1.527	 H	1	UNK0	0.000	
51	   H	5.793	1.330	-2.879	 H	1	UNK0	0.000	
52	   H	6.533	2.750	-2.059	 H	1	UNK0	0.000	
53	   H	5.297	3.071	-3.275	 H	1	UNK0	0.000	
@<TRIPOS>BOND
1 1 2 1
2 2 3 2
3 2 7 1
4 3 4 1
5 4 5 2
6 5 6 1
7 5 8 1
8 6 7 2
9 8 9 1
10 8 17 1
11 9 10 1
12 9 18 1
13 9 19 1
14 10 11 1
15 11 12 1
16 11 17 1
17 12 13 1
18 13 14 1
19 14 15 1
20 15 16 1
21 16 17 2
22 19 20 2
23 19 24 1
24 20 21 1
25 21 22 2
26 22 23 1
27 22 25 1
28 23 24 2
29 25 26 1
30 26 27 1
31 3 28 1
32 4 29 1
33 6 30 1
34 7 31 1
35 8 32 1
36 10 33 1
37 10 34 1
38 12 35 1
39 12 36 1
40 13 37 1
41 13 38 1
42 14 39 1
43 14 40 1
44 15 41 1
45 15 42 1
46 16 43 1
47 18 44 1
48 20 45 1
49 21 46 1
50 23 47 1
51 24 48 1
52 26 49 1
53 26 50 1
54 27 51 1
55 27 52 1
56 27 53 1
@<TRIPOS>SUBSTRUCTURE
1	UNK0	1	GROUP	1 ****	UNK
