REMARK  4 active torsions:
REMARK  status: ('A' for Active; 'I' for Inactive)
REMARK    1  A    between atoms: C_12  and  C_15 
REMARK    2  A    between atoms: C_12  and  C_23 
REMARK    3  A    between atoms: C_15  and  N_16 
REMARK    4  A    between atoms: C_23  and  N_24 
ROOT
ATOM      1 Br   UNK d   1       4.923   3.801   0.412  0.00  0.00    -0.048 Br
ATOM      2  C   UNK d   1       4.681   2.129  -0.493  0.00  0.00     0.052 A 
ATOM      3  C   UNK d   1       3.423   1.586  -0.602  0.00  0.00     0.100 A 
ATOM      4  C   UNK d   1       3.202   0.363  -1.257  0.00  0.00     0.047 A 
ATOM      5  C   UNK d   1       4.312  -0.261  -1.783  0.00  0.00     0.038 A 
ATOM      6  C   UNK d   1       5.584   0.261  -1.687  0.00  0.00     0.019 A 
ATOM      7  C   UNK d   1       5.775   1.461  -1.041  0.00  0.00    -0.024 A 
ATOM      8  C   UNK d   1       7.105   2.105  -0.886  0.00  0.00     0.051 C 
ATOM      9 Br   UNK d   1       7.103  -0.626  -2.426  0.00  0.00    -0.051 Br
ATOM     10  C   UNK d   1       1.860  -0.174  -1.346  0.00  0.00     0.176 C 
ATOM     11  O   UNK d   1       1.641  -1.194  -2.008  0.00  0.00    -0.291 OA
ATOM     12  C   UNK d   1       0.759   0.506  -0.641  0.00  0.00     0.095 C 
ATOM     13  C   UNK d   1       1.068   1.987  -0.653  0.00  0.00     0.197 C 
ATOM     14  O   UNK d   1       2.326   2.247  -0.058  0.00  0.00    -0.347 OA
ENDROOT
BRANCH  12  15
ATOM     15  C   UNK d   1      -0.594   0.219  -1.218  0.00  0.00     0.256 C 
BRANCH  15  16
ATOM     16  N   UNK d   1      -0.785   0.590  -2.567  0.00  0.00    -0.069 N 
ATOM     17  C   UNK d   1      -1.444  -0.466  -3.277  0.00  0.00     0.239 C 
ATOM     18  C   UNK d   1      -2.875  -0.668  -2.928  0.00  0.00     0.007 C 
ATOM     19  C   UNK d   1      -3.503   0.360  -2.069  0.00  0.00     0.007 C 
ATOM     20  C   UNK d   1      -2.989  -2.013  -2.201  0.00  0.00     0.011 C 
ATOM     21  C   UNK d   1      -2.871   1.697  -2.061  0.00  0.00     0.028 C 
ATOM     22  C   UNK d   1      -1.559   1.781  -2.784  0.00  0.00     0.235 C 
ATOM     23  H   UNK d   1       0.145   0.743  -3.033  0.00  0.00     0.279 HD
ENDBRANCH  15  16
ENDBRANCH  12  15
BRANCH  12  24
ATOM     24  C   UNK d   1       0.823   0.025   0.794  0.00  0.00     0.256 C 
BRANCH  24  25
ATOM     25  N   UNK d   1      -0.164   0.569   1.663  0.00  0.00    -0.069 N 
ATOM     26  C   UNK d   1       0.463   1.102   2.871  0.00  0.00     0.239 C 
ATOM     27  C   UNK d   1       0.339   0.173   4.043  0.00  0.00     0.007 C 
ATOM     28  C   UNK d   1       0.581  -1.249   3.590  0.00  0.00     0.007 C 
ATOM     29  C   UNK d   1       1.480   0.517   5.010  0.00  0.00     0.011 C 
ATOM     30  C   UNK d   1      -0.547  -1.639   2.686  0.00  0.00     0.028 C 
ATOM     31  C   UNK d   1      -1.156  -0.386   2.107  0.00  0.00     0.235 C 
ATOM     32  H   UNK d   1      -0.646   1.354   1.217  0.00  0.00     0.279 HD
ENDBRANCH  24  25
ENDBRANCH  12  24
TORSDOF 4
