# created with PyMOL 2.3.2
@<TRIPOS>MOLECULE
862
60 63 1                 
SMALL
USER_CHARGES
@<TRIPOS>ATOM
1	  Br	2.696	-1.719	-5.216	Br	1	UNK0	0.000	
2	   C	1.551	-2.555	-3.970	C.2	1	UNK0	0.000	
3	   C	1.580	-2.110	-2.671	C.2	1	UNK0	0.000	
4	   C	0.774	-2.653	-1.656	C.2	1	UNK0	0.000	
5	   C	-0.099	-3.698	-1.983	C.2	1	UNK0	0.000	
6	   C	-0.117	-4.134	-3.289	C.2	1	UNK0	0.000	
7	   C	0.685	-3.585	-4.273	C.2	1	UNK0	0.000	
8	   C	0.643	-4.084	-5.690	C.3	1	UNK0	0.000	
9	  Br	-1.307	-5.555	-3.733	Br	1	UNK0	0.000	
10	   C	0.853	-2.147	-0.299	C.2	1	UNK0	0.000	
11	   O	0.637	-2.977	0.619	O.2	1	UNK0	0.000	
12	   C	1.177	-0.718	-0.128	C.3	1	UNK0	0.000	
13	   C	2.555	-0.660	-0.929	C.3	1	UNK0	0.000	
14	   O	2.402	-1.087	-2.235	O.3	1	UNK0	0.000	
15	   C	1.490	-0.266	1.213	C.3	1	UNK0	0.000	
16	   N	0.720	-0.352	2.362	N.4	1	UNK0	0.000	
17	   C	-0.687	-0.447	2.340	C.3	1	UNK0	0.000	
18	   C	-1.360	0.127	3.580	C.3	1	UNK0	0.000	
19	   C	-1.165	1.606	3.685	C.3	1	UNK0	0.000	
20	   C	0.187	1.942	3.135	C.3	1	UNK0	0.000	
21	   C	1.086	0.757	3.271	C.3	1	UNK0	0.000	
22	   C	0.205	0.114	-0.874	C.3	1	UNK0	0.000	
23	   N	0.289	1.514	-0.856	N.4	1	UNK0	0.000	
24	   C	0.696	1.967	-2.193	C.3	1	UNK0	0.000	
25	   C	1.099	3.427	-2.202	C.3	1	UNK0	0.000	
26	   C	-0.181	4.210	-1.869	C.3	1	UNK0	0.000	
27	   C	-0.563	3.729	-0.488	C.3	1	UNK0	0.000	
28	   C	-0.943	2.243	-0.604	C.3	1	UNK0	0.000	
29	   H	-0.710	-4.110	-1.205	 H	1	UNK0	0.000	
30	   H	-0.340	-3.735	-6.099	 H	1	UNK0	0.000	
31	   H	1.496	-3.694	-6.245	 H	1	UNK0	0.000	
32	   H	0.598	-5.190	-5.637	 H	1	UNK0	0.000	
33	   H	3.181	-1.392	-0.380	 H	1	UNK0	0.000	
34	   H	2.979	0.328	-0.807	 H	1	UNK0	0.000	
35	   H	1.850	0.825	1.159	 H	1	UNK0	0.000	
36	   H	2.507	-0.760	1.477	 H	1	UNK0	0.000	
37	   H	1.047	-1.197	2.994	 H	1	UNK0	0.000	
38	   H	-0.990	-1.522	2.266	 H	1	UNK0	0.000	
39	   H	-1.192	0.057	1.512	 H	1	UNK0	0.000	
40	   H	-0.904	-0.357	4.457	 H	1	UNK0	0.000	
41	   H	-2.433	-0.084	3.589	 H	1	UNK0	0.000	
42	   H	-1.281	2.009	4.699	 H	1	UNK0	0.000	
43	   H	-1.957	2.064	3.020	 H	1	UNK0	0.000	
44	   H	0.621	2.740	3.775	 H	1	UNK0	0.000	
45	   H	0.164	2.369	2.115	 H	1	UNK0	0.000	
46	   H	2.177	0.999	3.149	 H	1	UNK0	0.000	
47	   H	0.967	0.380	4.300	 H	1	UNK0	0.000	
48	   H	-0.848	-0.199	-0.646	 H	1	UNK0	0.000	
49	   H	0.241	-0.177	-2.004	 H	1	UNK0	0.000	
50	   H	0.987	1.961	-0.227	 H	1	UNK0	0.000	
51	   H	-0.235	1.914	-2.830	 H	1	UNK0	0.000	
52	   H	1.436	1.349	-2.674	 H	1	UNK0	0.000	
53	   H	1.879	3.610	-1.444	 H	1	UNK0	0.000	
54	   H	1.395	3.680	-3.217	 H	1	UNK0	0.000	
55	   H	-0.012	5.285	-1.920	 H	1	UNK0	0.000	
56	   H	-0.965	3.836	-2.562	 H	1	UNK0	0.000	
57	   H	0.360	3.732	0.159	 H	1	UNK0	0.000	
58	   H	-1.346	4.308	0.001	 H	1	UNK0	0.000	
59	   H	-1.416	2.036	0.366	 H	1	UNK0	0.000	
60	   H	-1.637	2.173	-1.457	 H	1	UNK0	0.000	
@<TRIPOS>BOND
1 1 2 1
2 2 3 2
3 2 7 1
4 3 4 1
5 3 14 1
6 4 5 2
7 4 10 1
8 5 6 1
9 6 7 2
10 6 9 1
11 7 8 1
12 10 11 2
13 10 12 1
14 12 13 1
15 12 15 1
16 12 22 1
17 13 14 1
18 15 16 1
19 16 17 1
20 16 21 1
21 17 18 1
22 18 19 1
23 19 20 1
24 20 21 1
25 22 23 1
26 23 24 1
27 23 28 1
28 24 25 1
29 25 26 1
30 26 27 1
31 27 28 1
32 5 29 1
33 8 30 1
34 8 31 1
35 8 32 1
36 13 33 1
37 13 34 1
38 15 35 1
39 15 36 1
40 16 37 1
41 17 38 1
42 17 39 1
43 18 40 1
44 18 41 1
45 19 42 1
46 19 43 1
47 20 44 1
48 20 45 1
49 21 46 1
50 21 47 1
51 22 48 1
52 22 49 1
53 23 50 1
54 24 51 1
55 24 52 1
56 25 53 1
57 25 54 1
58 26 55 1
59 26 56 1
60 27 57 1
61 27 58 1
62 28 59 1
63 28 60 1
@<TRIPOS>SUBSTRUCTURE
1	UNK0	1	GROUP	1 ****	UNK
