REMARK  4 active torsions:
REMARK  status: ('A' for Active; 'I' for Inactive)
REMARK    1  A    between atoms: C_12  and  C_15 
REMARK    2  A    between atoms: C_12  and  C_22 
REMARK    3  A    between atoms: C_15  and  N_16 
REMARK    4  A    between atoms: C_22  and  N_23 
ROOT
ATOM      1 Br   UNK d   1       2.696  -1.719  -5.216  0.00  0.00    -0.048 Br
ATOM      2  C   UNK d   1       1.551  -2.555  -3.970  0.00  0.00     0.052 A 
ATOM      3  C   UNK d   1       1.580  -2.110  -2.671  0.00  0.00     0.100 A 
ATOM      4  C   UNK d   1       0.774  -2.653  -1.656  0.00  0.00     0.047 A 
ATOM      5  C   UNK d   1      -0.099  -3.698  -1.983  0.00  0.00     0.038 A 
ATOM      6  C   UNK d   1      -0.117  -4.134  -3.289  0.00  0.00     0.019 A 
ATOM      7  C   UNK d   1       0.685  -3.585  -4.273  0.00  0.00    -0.024 A 
ATOM      8  C   UNK d   1       0.643  -4.084  -5.690  0.00  0.00     0.051 C 
ATOM      9 Br   UNK d   1      -1.307  -5.555  -3.733  0.00  0.00    -0.051 Br
ATOM     10  C   UNK d   1       0.853  -2.147  -0.299  0.00  0.00     0.176 C 
ATOM     11  O   UNK d   1       0.637  -2.977   0.619  0.00  0.00    -0.291 OA
ATOM     12  C   UNK d   1       1.177  -0.718  -0.128  0.00  0.00     0.095 C 
ATOM     13  C   UNK d   1       2.555  -0.660  -0.929  0.00  0.00     0.197 C 
ATOM     14  O   UNK d   1       2.402  -1.087  -2.235  0.00  0.00    -0.347 OA
ENDROOT
BRANCH  12  15
ATOM     15  C   UNK d   1       1.490  -0.266   1.213  0.00  0.00     0.256 C 
BRANCH  15  16
ATOM     16  N   UNK d   1       0.720  -0.352   2.362  0.00  0.00    -0.070 N 
ATOM     17  C   UNK d   1      -0.687  -0.447   2.340  0.00  0.00     0.235 C 
ATOM     18  C   UNK d   1      -1.360   0.127   3.580  0.00  0.00     0.028 C 
ATOM     19  C   UNK d   1      -1.165   1.606   3.685  0.00  0.00     0.003 C 
ATOM     20  C   UNK d   1       0.187   1.942   3.135  0.00  0.00     0.028 C 
ATOM     21  C   UNK d   1       1.086   0.757   3.271  0.00  0.00     0.235 C 
ATOM     22  H   UNK d   1       1.047  -1.197   2.994  0.00  0.00     0.279 HD
ENDBRANCH  15  16
ENDBRANCH  12  15
BRANCH  12  23
ATOM     23  C   UNK d   1       0.205   0.114  -0.874  0.00  0.00     0.256 C 
BRANCH  23  24
ATOM     24  N   UNK d   1       0.289   1.514  -0.856  0.00  0.00    -0.070 N 
ATOM     25  C   UNK d   1       0.696   1.967  -2.193  0.00  0.00     0.235 C 
ATOM     26  C   UNK d   1       1.099   3.427  -2.202  0.00  0.00     0.028 C 
ATOM     27  C   UNK d   1      -0.181   4.210  -1.869  0.00  0.00     0.003 C 
ATOM     28  C   UNK d   1      -0.563   3.729  -0.488  0.00  0.00     0.028 C 
ATOM     29  C   UNK d   1      -0.943   2.243  -0.604  0.00  0.00     0.235 C 
ATOM     30  H   UNK d   1       0.987   1.961  -0.227  0.00  0.00     0.279 HD
ENDBRANCH  23  24
ENDBRANCH  12  23
TORSDOF 4
