REMARK  5 active torsions:
REMARK  status: ('A' for Active; 'I' for Inactive)
REMARK    1  A    between atoms: C_5  and  C_8 
REMARK    2  A    between atoms: N_9  and  N_10 
REMARK    3  A    between atoms: N_10  and  C_11 
REMARK    4  A    between atoms: C_13  and  N_23 
REMARK    5  A    between atoms: C_15  and  N_17 
ROOT
ATOM      1  C   UNK d   1      -1.742   0.189   0.947  0.00  0.00     0.774 A 
ATOM      2  N   UNK d   1      -0.940   0.243  -0.139  0.00  0.00     0.133 NA
ATOM      3  C   UNK d   1       0.373  -0.094  -0.100  0.00  0.00     0.756 A 
ATOM      4  N   UNK d   1       0.851  -0.488   1.082  0.00  0.00     0.131 NA
ATOM      5  C   UNK d   1       0.113  -0.566   2.203  0.00  0.00     0.756 A 
ATOM      6  N   UNK d   1      -1.182  -0.219   2.099  0.00  0.00     0.133 NA
ENDROOT
BRANCH   1   7
ATOM      7  N   UNK d   1      -3.103   0.555   0.834  0.00  0.00    -0.105 N 
ATOM      8  H   UNK d   1      -3.710   0.509   1.669  0.00  0.00     0.208 HD
BRANCH   7   9
ATOM      9  N   UNK d   1      -3.627   0.971  -0.382  0.00  0.00    -0.172 NA
ATOM     10  C   UNK d   1      -4.609   0.391  -0.974  0.00  0.00     0.150 C 
BRANCH  10  11
ATOM     11  C   UNK d   1      -5.106   0.886  -2.251  0.00  0.00    -0.016 A 
ATOM     12  C   UNK d   1      -4.553   1.989  -2.880  0.00  0.00     0.035 A 
ATOM     13  C   UNK d   1      -5.027   2.454  -4.089  0.00  0.00     0.050 A 
ATOM     14  C   UNK d   1      -6.082   1.830  -4.722  0.00  0.00     0.133 A 
ATOM     15 Br   UNK d   1      -4.245   3.978  -4.934  0.00  0.00    -0.048 Br
ATOM     16  F   UNK d   1      -6.565   2.272  -5.916  0.00  0.00    -0.205 F 
ATOM     17  C   UNK d   1      -6.640   0.733  -4.108  0.00  0.00     0.044 A 
ATOM     18  C   UNK d   1      -6.160   0.269  -2.891  0.00  0.00     0.016 A 
ENDBRANCH  10  11
ENDBRANCH   7   9
ENDBRANCH   1   7
BRANCH   3  19
ATOM     19  N   UNK d   1       1.172  -0.019  -1.275  0.00  0.00    -0.209 N 
ATOM     20  C   UNK d   1       0.678   0.400  -2.566  0.00  0.00     0.167 C 
ATOM     21  C   UNK d   1       1.064  -0.748  -3.497  0.00  0.00     0.188 C 
ATOM     22  O   UNK d   1       2.404  -0.785  -3.616  0.00  0.00    -0.388 OA
ATOM     23  C   UNK d   1       3.182  -0.695  -2.530  0.00  0.00     0.188 C 
ATOM     24  C   UNK d   1       2.571  -0.374  -1.224  0.00  0.00     0.167 C 
ENDBRANCH   3  19
BRANCH   5  25
ATOM     25  N   UNK d   1       0.692  -0.995   3.428  0.00  0.00    -0.209 N 
ATOM     26  C   UNK d   1       2.098  -1.350   3.453  0.00  0.00     0.167 C 
ATOM     27  C   UNK d   1       2.476  -1.813   4.842  0.00  0.00     0.188 C 
ATOM     28  O   UNK d   1       2.071  -0.979   5.845  0.00  0.00    -0.388 OA
ATOM     29  C   UNK d   1       0.815  -0.446   5.735  0.00  0.00     0.188 C 
ATOM     30  C   UNK d   1      -0.033  -1.103   4.659  0.00  0.00     0.167 C 
ENDBRANCH   5  25
TORSDOF 5
