# created with PyMOL 2.3.2
@<TRIPOS>MOLECULE
865
50 53 1                 
SMALL
USER_CHARGES
@<TRIPOS>ATOM
1	   F	-6.565	2.272	-5.916	 F	1	UNK0	0.000	
2	   C	-6.082	1.830	-4.722	C.2	1	UNK0	0.000	
3	   C	-5.027	2.454	-4.089	C.2	1	UNK0	0.000	
4	   C	-4.553	1.989	-2.880	C.2	1	UNK0	0.000	
5	   C	-5.106	0.886	-2.251	C.2	1	UNK0	0.000	
6	   C	-6.160	0.269	-2.891	C.2	1	UNK0	0.000	
7	   C	-6.640	0.733	-4.108	C.2	1	UNK0	0.000	
8	   C	-4.609	0.391	-0.974	C.2	1	UNK0	0.000	
9	   N	-3.627	0.971	-0.382	N.2	1	UNK0	0.000	
10	   N	-3.103	0.555	0.834	N.pl3	1	UNK0	0.000	
11	   C	-1.742	0.189	0.947	C.2	1	UNK0	0.000	
12	   N	-0.940	0.243	-0.139	N.2	1	UNK0	0.000	
13	   C	0.373	-0.094	-0.100	C.2	1	UNK0	0.000	
14	   N	0.851	-0.488	1.082	N.2	1	UNK0	0.000	
15	   C	0.113	-0.566	2.203	C.2	1	UNK0	0.000	
16	   N	-1.182	-0.219	2.099	N.2	1	UNK0	0.000	
17	   N	0.692	-0.995	3.428	N.pl3	1	UNK0	0.000	
18	   C	2.098	-1.350	3.453	C.3	1	UNK0	0.000	
19	   C	2.476	-1.813	4.842	C.3	1	UNK0	0.000	
20	   O	2.071	-0.979	5.845	O.3	1	UNK0	0.000	
21	   C	0.815	-0.446	5.735	C.3	1	UNK0	0.000	
22	   C	-0.033	-1.103	4.659	C.3	1	UNK0	0.000	
23	   N	1.172	-0.019	-1.275	N.pl3	1	UNK0	0.000	
24	   C	0.678	0.400	-2.566	C.3	1	UNK0	0.000	
25	   C	1.064	-0.748	-3.497	C.3	1	UNK0	0.000	
26	   O	2.404	-0.785	-3.616	O.3	1	UNK0	0.000	
27	   C	3.182	-0.695	-2.530	C.3	1	UNK0	0.000	
28	   C	2.571	-0.374	-1.224	C.3	1	UNK0	0.000	
29	  Br	-4.245	3.978	-4.934	Br	1	UNK0	0.000	
30	   H	-3.716	2.478	-2.369	 H	1	UNK0	0.000	
31	   H	-6.602	-0.604	-2.399	 H	1	UNK0	0.000	
32	   H	-7.474	0.231	-4.599	 H	1	UNK0	0.000	
33	   H	-5.077	-0.467	-0.534	 H	1	UNK0	0.000	
34	   H	-3.710	0.509	1.669	 H	1	UNK0	0.000	
35	   H	2.297	-2.230	2.776	 H	1	UNK0	0.000	
36	   H	2.668	-0.459	3.174	 H	1	UNK0	0.000	
37	   H	3.604	-1.822	4.860	 H	1	UNK0	0.000	
38	   H	2.176	-2.862	5.001	 H	1	UNK0	0.000	
39	   H	0.916	0.625	5.427	 H	1	UNK0	0.000	
40	   H	0.317	-0.505	6.730	 H	1	UNK0	0.000	
41	   H	-0.092	-2.179	4.931	 H	1	UNK0	0.000	
42	   H	-1.005	-0.608	4.621	 H	1	UNK0	0.000	
43	   H	1.299	1.263	-2.883	 H	1	UNK0	0.000	
44	   H	-0.401	0.600	-2.586	 H	1	UNK0	0.000	
45	   H	0.632	-1.671	-3.068	 H	1	UNK0	0.000	
46	   H	0.618	-0.568	-4.516	 H	1	UNK0	0.000	
47	   H	3.990	0.070	-2.737	 H	1	UNK0	0.000	
48	   H	3.772	-1.657	-2.435	 H	1	UNK0	0.000	
49	   H	3.080	0.505	-0.725	 H	1	UNK0	0.000	
50	   H	2.738	-1.214	-0.486	 H	1	UNK0	0.000	
@<TRIPOS>BOND
1 1 2 1
2 2 3 2
3 2 7 1
4 3 4 1
5 3 29 1
6 4 5 2
7 5 6 1
8 5 8 1
9 6 7 2
10 8 9 2
11 9 10 1
12 10 11 1
13 11 12 2
14 11 16 1
15 12 13 1
16 13 14 2
17 13 23 1
18 14 15 1
19 15 16 2
20 15 17 1
21 17 18 1
22 17 22 1
23 18 19 1
24 19 20 1
25 20 21 1
26 21 22 1
27 23 24 1
28 23 28 1
29 24 25 1
30 25 26 1
31 26 27 1
32 27 28 1
33 4 30 1
34 6 31 1
35 7 32 1
36 8 33 1
37 10 34 1
38 18 35 1
39 18 36 1
40 19 37 1
41 19 38 1
42 21 39 1
43 21 40 1
44 22 41 1
45 22 42 1
46 24 43 1
47 24 44 1
48 25 45 1
49 25 46 1
50 27 47 1
51 27 48 1
52 28 49 1
53 28 50 1
@<TRIPOS>SUBSTRUCTURE
1	UNK0	1	GROUP	1 ****	UNK
