REMARK  4 active torsions:
REMARK  status: ('A' for Active; 'I' for Inactive)
REMARK    1  A    between atoms: C_3  and  N_9 
REMARK       I    between atoms: N_9  and  C_10 
REMARK    2  A    between atoms: C_10  and  C_12 
REMARK    3  A    between atoms: C_12  and  N_13 
REMARK    4  A    between atoms: N_20  and  C_23 
ROOT
ATOM      1  N   UNK d   1       1.057  -1.754   0.518  0.00  0.00    -0.261 N 
ATOM      2  N   UNK d   1       0.717  -2.997   0.808  0.00  0.00    -0.239 N 
ATOM      3  N   UNK d   1      -0.265  -2.908   1.688  0.00  0.00    -0.279 N 
ATOM      4  C   UNK d   1      -0.555  -1.620   1.964  0.00  0.00     0.152 A 
ATOM      5  C   UNK d   1       0.292  -0.896   1.214  0.00  0.00     0.155 A 
ATOM      6  C   UNK d   1      -0.016   0.412   1.507  0.00  0.00     0.286 A 
ATOM      7  O   UNK d   1       0.561   1.413   1.004  0.00  0.00    -0.265 OA
ATOM      8  N   UNK d   1      -1.017   0.502   2.406  0.00  0.00    -0.241 N 
ATOM      9  C   UNK d   1      -1.359  -0.764   2.696  0.00  0.00     0.286 A 
ATOM     10  O   UNK d   1      -2.264  -1.105   3.502  0.00  0.00    -0.265 OA
ATOM     11  H   UNK d   1       1.135  -3.892   0.422  0.00  0.00     0.208 HD
ATOM     12  H   UNK d   1      -0.735  -3.757   2.099  0.00  0.00     0.189 HD
ENDROOT
BRANCH   1  13
ATOM     13  C   UNK d   1       2.103  -1.415  -0.422  0.00  0.00     0.254 C 
BRANCH  13  14
ATOM     14  C   UNK d   1       1.504  -1.309  -1.810  0.00  0.00     0.242 C 
ATOM     15  N   UNK d   1       1.052  -0.073  -2.264  0.00  0.00    -0.323 N 
ATOM     16  H   UNK d   1       1.166   0.748  -1.576  0.00  0.00     0.169 HD
ATOM     17  O   UNK d   1       1.450  -2.351  -2.471  0.00  0.00    -0.271 OA
BRANCH  15  18
ATOM     18  C   UNK d   1       0.477   0.165  -3.522  0.00  0.00     0.073 A 
ATOM     19  C   UNK d   1       0.068   1.472  -3.834  0.00  0.00     0.145 A 
ATOM     20  F   UNK d   1       0.258   2.434  -2.889  0.00  0.00    -0.204 F 
ATOM     21  C   UNK d   1      -0.498   1.747  -5.052  0.00  0.00     0.086 A 
ATOM     22  C   UNK d   1      -0.678   0.752  -5.990  0.00  0.00     0.119 A 
ATOM     23  C   UNK d   1      -0.291  -0.541  -5.723  0.00  0.00     0.044 A 
ATOM     24  F   UNK d   1      -1.241   1.065  -7.180  0.00  0.00    -0.206 F 
ATOM     25  C   UNK d   1       0.290  -0.799  -4.463  0.00  0.00     0.036 A 
ENDBRANCH  15  18
ENDBRANCH  13  14
ENDBRANCH   1  13
BRANCH   8  26
ATOM     26  C   UNK d   1      -1.574   1.724   2.921  0.00  0.00     0.046 A 
ATOM     27  C   UNK d   1      -1.782   2.809   2.092  0.00  0.00     0.031 A 
ATOM     28  C   UNK d   1      -2.313   4.000   2.542  0.00  0.00     0.021 A 
ATOM     29  C   UNK d   1      -2.639   4.078   3.882  0.00  0.00     0.011 A 
ATOM     30  C   UNK d   1      -2.453   3.023   4.760  0.00  0.00     0.021 A 
ATOM     31 Br   UNK d   1      -3.377   5.746   4.486  0.00  0.00    -0.051 Br
ATOM     32  C   UNK d   1      -1.917   1.860   4.245  0.00  0.00     0.031 A 
ENDBRANCH   8  26
TORSDOF 4
