# created with PyMOL 2.3.2
@<TRIPOS>MOLECULE
872
41 44 1                 
SMALL
USER_CHARGES
@<TRIPOS>ATOM
1	   F	0.258	2.434	-2.889	 F	1	UNK0	0.000	
2	   C	0.068	1.472	-3.834	C.2	1	UNK0	0.000	
3	   C	0.477	0.165	-3.522	C.2	1	UNK0	0.000	
4	   C	0.290	-0.799	-4.463	C.2	1	UNK0	0.000	
5	   C	-0.291	-0.541	-5.723	C.2	1	UNK0	0.000	
6	   C	-0.678	0.752	-5.990	C.2	1	UNK0	0.000	
7	   C	-0.498	1.747	-5.052	C.2	1	UNK0	0.000	
8	   F	-1.241	1.065	-7.180	 F	1	UNK0	0.000	
9	   N	1.052	-0.073	-2.264	N.pl3	1	UNK0	0.000	
10	   C	1.504	-1.309	-1.810	C.2	1	UNK0	0.000	
11	   O	1.450	-2.351	-2.471	O.2	1	UNK0	0.000	
12	   C	2.103	-1.415	-0.422	C.3	1	UNK0	0.000	
13	   N	1.057	-1.754	0.518	N.pl3	1	UNK0	0.000	
14	   N	0.717	-2.997	0.808	N.pl3	1	UNK0	0.000	
15	   N	-0.265	-2.908	1.688	N.pl3	1	UNK0	0.000	
16	   C	-0.555	-1.620	1.964	C.2	1	UNK0	0.000	
17	   C	0.292	-0.896	1.214	C.2	1	UNK0	0.000	
18	   C	-0.016	0.412	1.507	C.2	1	UNK0	0.000	
19	   O	0.561	1.413	1.004	O.2	1	UNK0	0.000	
20	   N	-1.017	0.502	2.406	N.pl3	1	UNK0	0.000	
21	   C	-1.359	-0.764	2.696	C.2	1	UNK0	0.000	
22	   O	-2.264	-1.105	3.502	O.2	1	UNK0	0.000	
23	   C	-1.574	1.724	2.921	C.2	1	UNK0	0.000	
24	   C	-1.782	2.809	2.092	C.2	1	UNK0	0.000	
25	   C	-2.313	4.000	2.542	C.2	1	UNK0	0.000	
26	   C	-2.639	4.078	3.882	C.2	1	UNK0	0.000	
27	   C	-2.453	3.023	4.760	C.2	1	UNK0	0.000	
28	   C	-1.917	1.860	4.245	C.2	1	UNK0	0.000	
29	  Br	-3.377	5.746	4.486	Br	1	UNK0	0.000	
30	   H	0.570	-1.815	-4.310	 H	1	UNK0	0.000	
31	   H	-0.422	-1.333	-6.443	 H	1	UNK0	0.000	
32	   H	-0.810	2.775	-5.275	 H	1	UNK0	0.000	
33	   H	1.166	0.748	-1.576	 H	1	UNK0	0.000	
34	   H	2.544	-0.430	-0.143	 H	1	UNK0	0.000	
35	   H	2.914	-2.143	-0.473	 H	1	UNK0	0.000	
36	   H	1.135	-3.892	0.422	 H	1	UNK0	0.000	
37	   H	-0.735	-3.757	2.099	 H	1	UNK0	0.000	
38	   H	-1.508	2.689	1.054	 H	1	UNK0	0.000	
39	   H	-2.471	4.852	1.865	 H	1	UNK0	0.000	
40	   H	-2.729	3.153	5.793	 H	1	UNK0	0.000	
41	   H	-1.769	1.031	4.928	 H	1	UNK0	0.000	
@<TRIPOS>BOND
1 1 2 1
2 2 3 2
3 2 7 1
4 3 4 1
5 3 9 1
6 4 5 2
7 5 6 1
8 6 7 2
9 6 8 1
10 9 10 1
11 10 11 2
12 10 12 1
13 12 13 1
14 13 14 1
15 13 17 1
16 14 15 1
17 15 16 1
18 16 17 2
19 16 21 1
20 17 18 1
21 18 19 2
22 18 20 1
23 20 21 1
24 20 23 1
25 21 22 2
26 23 24 2
27 23 28 1
28 24 25 1
29 25 26 2
30 26 27 1
31 26 29 1
32 27 28 2
33 4 30 1
34 5 31 1
35 7 32 1
36 9 33 1
37 12 34 1
38 12 35 1
39 14 36 1
40 15 37 1
41 24 38 1
42 25 39 1
43 27 40 1
44 28 41 1
@<TRIPOS>SUBSTRUCTURE
1	UNK0	1	GROUP	1 ****	UNK
