REMARK  5 active torsions:
REMARK  status: ('A' for Active; 'I' for Inactive)
REMARK    1  A    between atoms: C_3  and  C_8 
REMARK    2  A    between atoms: N_9  and  C_24 
REMARK    3  A    between atoms: C_15  and  C_17 
REMARK    4  A    between atoms: C_24  and  C_25 
REMARK    5  A    between atoms: C_25  and  N_26 
ROOT
ATOM      1  C   UNK d   1       0.058   0.809  -0.309  0.00  0.00     0.164 C 
ATOM      2  N   UNK d   1      -0.515  -0.353  -0.970  0.00  0.00    -0.330 N 
ATOM      3  C   UNK d   1       0.251  -1.425  -0.381  0.00  0.00     0.295 C 
ATOM      4  O   UNK d   1      -0.106  -2.610  -0.148  0.00  0.00    -0.264 OA
ATOM      5  C   UNK d   1       1.614  -0.915  -0.060  0.00  0.00     0.250 C 
ATOM      6  O   UNK d   1       2.601  -1.449   0.443  0.00  0.00    -0.282 OA
ATOM      7  C   UNK d   1       1.526   0.503  -0.517  0.00  0.00     0.062 C 
ATOM      8  C   UNK d   1       2.505   1.249  -0.967  0.00  0.00     0.130 C 
ATOM      9  O   UNK d   1       2.237   2.580  -1.346  0.00  0.00    -0.190 OA
ENDROOT
BRANCH   2  10
ATOM     10  C   UNK d   1      -1.521  -0.545  -1.924  0.00  0.00     0.155 C 
BRANCH  10  11
ATOM     11  C   UNK d   1      -2.941  -0.685  -1.507  0.00  0.00     0.255 C 
BRANCH  11  12
ATOM     12  N   UNK d   1      -3.478   0.470  -0.845  0.00  0.00    -0.066 N 
ATOM     13  C   UNK d   1      -4.461   0.038   0.127  0.00  0.00     0.261 C 
ATOM     14  C   UNK d   1      -4.971   1.217   0.936  0.00  0.00     0.195 C 
ATOM     15  O   UNK d   1      -5.541   2.139   0.079  0.00  0.00    -0.388 OA
ATOM     16  C   UNK d   1      -4.625   2.538  -0.890  0.00  0.00     0.195 C 
ATOM     17  C   UNK d   1      -4.234   1.341  -1.768  0.00  0.00     0.261 C 
ATOM     18  H   UNK d   1      -2.758   1.111  -0.453  0.00  0.00     0.280 HD
ENDBRANCH  11  12
ENDBRANCH  10  11
ENDBRANCH   2  10
BRANCH   1  19
ATOM     19  C   UNK d   1      -0.192   0.878   1.140  0.00  0.00     0.008 A 
ATOM     20  C   UNK d   1       0.573   1.639   2.000  0.00  0.00     0.125 A 
ATOM     21  F   UNK d   1       1.577   2.387   1.569  0.00  0.00    -0.205 F 
ATOM     22  C   UNK d   1       0.322   1.655   3.375  0.00  0.00     0.043 A 
ATOM     23  C   UNK d   1      -0.685   0.924   3.915  0.00  0.00     0.003 A 
ATOM     24  C   UNK d   1      -1.464   0.158   3.096  0.00  0.00     0.001 A 
ATOM     25  C   UNK d   1      -1.196   0.156   1.736  0.00  0.00     0.012 A 
ENDBRANCH   1  19
BRANCH   8  26
ATOM     26  C   UNK d   1       3.864   0.743  -1.091  0.00  0.00     0.001 A 
ATOM     27  C   UNK d   1       4.907   1.505  -0.612  0.00  0.00     0.015 A 
ATOM     28  C   UNK d   1       6.226   1.097  -0.722  0.00  0.00     0.020 A 
ATOM     29  C   UNK d   1       6.523  -0.106  -1.325  0.00  0.00     0.011 A 
ATOM     30  C   UNK d   1       5.508  -0.875  -1.806  0.00  0.00     0.020 A 
ATOM     31 Br   UNK d   1       8.350  -0.700  -1.492  0.00  0.00    -0.051 Br
ATOM     32  C   UNK d   1       4.173  -0.450  -1.689  0.00  0.00     0.015 A 
ENDBRANCH   8  26
TORSDOF 5
