# created with PyMOL 2.3.2
@<TRIPOS>MOLECULE
873
53 56 1                 
SMALL
USER_CHARGES
@<TRIPOS>ATOM
1	   F	1.577	2.387	1.569	 F	1	UNK0	0.000	
2	   C	0.573	1.639	2.000	C.2	1	UNK0	0.000	
3	   C	-0.192	0.878	1.140	C.2	1	UNK0	0.000	
4	   C	-1.196	0.156	1.736	C.2	1	UNK0	0.000	
5	   C	-1.464	0.158	3.096	C.2	1	UNK0	0.000	
6	   C	-0.685	0.924	3.915	C.2	1	UNK0	0.000	
7	   C	0.322	1.655	3.375	C.2	1	UNK0	0.000	
8	   C	0.058	0.809	-0.309	C.3	1	UNK0	0.000	
9	   N	-0.515	-0.353	-0.970	N.pl3	1	UNK0	0.000	
10	   C	0.251	-1.425	-0.381	C.2	1	UNK0	0.000	
11	   O	-0.106	-2.610	-0.148	O.2	1	UNK0	0.000	
12	   C	1.614	-0.915	-0.060	C.2	1	UNK0	0.000	
13	   O	2.601	-1.449	0.443	O.2	1	UNK0	0.000	
14	   C	1.526	0.503	-0.517	C.2	1	UNK0	0.000	
15	   C	2.505	1.249	-0.967	C.2	1	UNK0	0.000	
16	   O	2.237	2.580	-1.346	O.2	1	UNK0	0.000	
17	   C	3.864	0.743	-1.091	C.2	1	UNK0	0.000	
18	   C	4.907	1.505	-0.612	C.2	1	UNK0	0.000	
19	   C	6.226	1.097	-0.722	C.2	1	UNK0	0.000	
20	   C	6.523	-0.106	-1.325	C.2	1	UNK0	0.000	
21	   C	5.508	-0.875	-1.806	C.2	1	UNK0	0.000	
22	   C	4.173	-0.450	-1.689	C.2	1	UNK0	0.000	
23	  Br	8.350	-0.700	-1.492	Br	1	UNK0	0.000	
24	   C	-1.521	-0.545	-1.924	C.3	1	UNK0	0.000	
25	   C	-2.941	-0.685	-1.507	C.3	1	UNK0	0.000	
26	   N	-3.478	0.470	-0.845	N.4	1	UNK0	0.000	
27	   C	-4.461	0.038	0.127	C.3	1	UNK0	0.000	
28	   C	-4.971	1.217	0.936	C.3	1	UNK0	0.000	
29	   O	-5.541	2.139	0.079	O.3	1	UNK0	0.000	
30	   C	-4.625	2.538	-0.890	C.3	1	UNK0	0.000	
31	   C	-4.234	1.341	-1.768	C.3	1	UNK0	0.000	
32	   H	-1.817	-0.460	1.141	 H	1	UNK0	0.000	
33	   H	-2.261	-0.421	3.538	 H	1	UNK0	0.000	
34	   H	-0.878	0.940	4.982	 H	1	UNK0	0.000	
35	   H	0.930	2.259	4.040	 H	1	UNK0	0.000	
36	   H	-0.154	1.762	-0.769	 H	1	UNK0	0.000	
37	   H	4.749	2.466	-0.124	 H	1	UNK0	0.000	
38	   H	7.063	1.673	-0.357	 H	1	UNK0	0.000	
39	   H	5.736	-1.821	-2.280	 H	1	UNK0	0.000	
40	   H	3.390	-1.056	-2.083	 H	1	UNK0	0.000	
41	   H	-1.295	-1.462	-2.540	 H	1	UNK0	0.000	
42	   H	-1.552	0.261	-2.730	 H	1	UNK0	0.000	
43	   H	-3.530	-0.784	-2.464	 H	1	UNK0	0.000	
44	   H	-3.159	-1.644	-0.980	 H	1	UNK0	0.000	
45	   H	-2.758	1.111	-0.453	 H	1	UNK0	0.000	
46	   H	-5.346	-0.320	-0.477	 H	1	UNK0	0.000	
47	   H	-4.152	-0.814	0.730	 H	1	UNK0	0.000	
48	   H	-4.115	1.617	1.519	 H	1	UNK0	0.000	
49	   H	-5.756	0.830	1.610	 H	1	UNK0	0.000	
50	   H	-3.697	2.845	-0.335	 H	1	UNK0	0.000	
51	   H	-4.979	3.372	-1.504	 H	1	UNK0	0.000	
52	   H	-5.115	0.807	-2.128	 H	1	UNK0	0.000	
53	   H	-3.534	1.696	-2.538	 H	1	UNK0	0.000	
@<TRIPOS>BOND
1 1 2 1
2 2 3 2
3 2 7 1
4 3 4 1
5 3 8 1
6 4 5 2
7 5 6 1
8 6 7 2
9 8 9 1
10 8 14 1
11 9 10 1
12 9 24 1
13 10 11 2
14 10 12 1
15 12 13 2
16 12 14 1
17 14 15 2
18 15 16 1
19 15 17 1
20 17 18 2
21 17 22 1
22 18 19 1
23 19 20 2
24 20 21 1
25 20 23 1
26 21 22 2
27 24 25 1
28 25 26 1
29 26 27 1
30 26 31 1
31 27 28 1
32 28 29 1
33 29 30 1
34 30 31 1
35 4 32 1
36 5 33 1
37 6 34 1
38 7 35 1
39 8 36 1
40 18 37 1
41 19 38 1
42 21 39 1
43 22 40 1
44 24 41 1
45 24 42 1
46 25 43 1
47 25 44 1
48 26 45 1
49 27 46 1
50 27 47 1
51 28 48 1
52 28 49 1
53 30 50 1
54 30 51 1
55 31 52 1
56 31 53 1
@<TRIPOS>SUBSTRUCTURE
1	UNK0	1	GROUP	1 ****	UNK
