# created with PyMOL 2.3.2
@<TRIPOS>MOLECULE
874
41 44 1                 
SMALL
USER_CHARGES
@<TRIPOS>ATOM
1	   F	3.422	0.219	1.136	 F	1	UNK0	0.000	
2	   C	3.386	1.542	0.804	C.2	1	UNK0	0.000	
3	   C	2.168	2.227	0.939	C.2	1	UNK0	0.000	
4	   C	2.182	3.554	0.593	C.2	1	UNK0	0.000	
5	   C	3.343	4.159	0.140	C.2	1	UNK0	0.000	
6	   C	4.524	3.489	0.010	C.2	1	UNK0	0.000	
7	   C	4.526	2.157	0.353	C.2	1	UNK0	0.000	
8	   N	1.022	1.528	1.414	N.pl3	1	UNK0	0.000	
9	   C	-0.262	2.025	1.615	C.2	1	UNK0	0.000	
10	   O	-0.563	3.208	1.387	O.2	1	UNK0	0.000	
11	   C	-1.360	1.154	2.121	C.3	1	UNK0	0.000	
12	   N	-0.855	-0.189	2.338	N.pl3	1	UNK0	0.000	
13	   N	-0.322	-0.703	3.425	N.pl3	1	UNK0	0.000	
14	   N	0.014	-1.968	3.219	N.pl3	1	UNK0	0.000	
15	   C	-0.315	-2.287	1.948	C.2	1	UNK0	0.000	
16	   C	-0.841	-1.198	1.426	C.2	1	UNK0	0.000	
17	   C	-1.180	-1.523	0.122	C.2	1	UNK0	0.000	
18	   O	-1.708	-0.729	-0.686	O.2	1	UNK0	0.000	
19	   N	-0.863	-2.801	-0.153	N.pl3	1	UNK0	0.000	
20	   C	-0.324	-3.278	0.984	C.2	1	UNK0	0.000	
21	   O	0.107	-4.439	1.157	O.2	1	UNK0	0.000	
22	   C	-1.064	-3.483	-1.391	C.2	1	UNK0	0.000	
23	   C	-2.016	-4.476	-1.514	C.2	1	UNK0	0.000	
24	   C	-2.224	-5.145	-2.704	C.2	1	UNK0	0.000	
25	   C	-1.481	-4.846	-3.827	C.2	1	UNK0	0.000	
26	   C	-0.524	-3.858	-3.727	C.2	1	UNK0	0.000	
27	   C	-0.332	-3.201	-2.528	C.2	1	UNK0	0.000	
28	  Br	-1.747	-5.756	-5.488	Br	1	UNK0	0.000	
29	   H	1.297	4.147	0.668	 H	1	UNK0	0.000	
30	   H	3.339	5.219	-0.133	 H	1	UNK0	0.000	
31	   H	5.402	4.007	-0.349	 H	1	UNK0	0.000	
32	   H	5.473	1.627	0.247	 H	1	UNK0	0.000	
33	   H	1.157	0.489	1.647	 H	1	UNK0	0.000	
34	   H	-2.147	1.111	1.321	 H	1	UNK0	0.000	
35	   H	-1.816	1.575	3.037	 H	1	UNK0	0.000	
36	   H	-0.193	-0.159	4.317	 H	1	UNK0	0.000	
37	   H	0.458	-2.612	3.918	 H	1	UNK0	0.000	
38	   H	-2.600	-4.705	-0.617	 H	1	UNK0	0.000	
39	   H	-2.970	-5.916	-2.785	 H	1	UNK0	0.000	
40	   H	0.064	-3.624	-4.623	 H	1	UNK0	0.000	
41	   H	0.415	-2.427	-2.442	 H	1	UNK0	0.000	
@<TRIPOS>BOND
1 1 2 1
2 2 3 2
3 2 7 1
4 3 4 1
5 3 8 1
6 4 5 2
7 5 6 1
8 6 7 2
9 8 9 1
10 9 10 2
11 9 11 1
12 11 12 1
13 12 13 1
14 12 16 1
15 13 14 1
16 14 15 1
17 15 16 2
18 15 20 1
19 16 17 1
20 17 18 2
21 17 19 1
22 19 20 1
23 19 22 1
24 20 21 2
25 22 23 2
26 22 27 1
27 23 24 1
28 24 25 2
29 25 26 1
30 25 28 1
31 26 27 2
32 4 29 1
33 5 30 1
34 6 31 1
35 7 32 1
36 8 33 1
37 11 34 1
38 11 35 1
39 13 36 1
40 14 37 1
41 23 38 1
42 24 39 1
43 26 40 1
44 27 41 1
@<TRIPOS>SUBSTRUCTURE
1	UNK0	1	GROUP	1 ****	UNK
