REMARK  4 active torsions:
REMARK  status: ('A' for Active; 'I' for Inactive)
REMARK    1  A    between atoms: C_3  and  N_8 
REMARK       I    between atoms: N_8  and  C_9 
REMARK    2  A    between atoms: C_9  and  C_11 
REMARK    3  A    between atoms: C_11  and  N_12 
REMARK    4  A    between atoms: N_19  and  C_22 
ROOT
ATOM      1  N   UNK d   1      -0.855  -0.189   2.338  0.00  0.00    -0.261 N 
ATOM      2  N   UNK d   1      -0.322  -0.703   3.425  0.00  0.00    -0.239 N 
ATOM      3  N   UNK d   1       0.014  -1.968   3.219  0.00  0.00    -0.279 N 
ATOM      4  C   UNK d   1      -0.315  -2.287   1.948  0.00  0.00     0.152 A 
ATOM      5  C   UNK d   1      -0.841  -1.198   1.426  0.00  0.00     0.155 A 
ATOM      6  C   UNK d   1      -1.180  -1.523   0.122  0.00  0.00     0.286 A 
ATOM      7  O   UNK d   1      -1.708  -0.729  -0.686  0.00  0.00    -0.265 OA
ATOM      8  N   UNK d   1      -0.863  -2.801  -0.153  0.00  0.00    -0.241 N 
ATOM      9  C   UNK d   1      -0.324  -3.278   0.984  0.00  0.00     0.286 A 
ATOM     10  O   UNK d   1       0.107  -4.439   1.157  0.00  0.00    -0.265 OA
ATOM     11  H   UNK d   1      -0.193  -0.159   4.317  0.00  0.00     0.208 HD
ATOM     12  H   UNK d   1       0.458  -2.612   3.918  0.00  0.00     0.189 HD
ENDROOT
BRANCH   1  13
ATOM     13  C   UNK d   1      -1.360   1.154   2.121  0.00  0.00     0.254 C 
BRANCH  13  14
ATOM     14  C   UNK d   1      -0.262   2.025   1.615  0.00  0.00     0.242 C 
ATOM     15  N   UNK d   1       1.022   1.528   1.414  0.00  0.00    -0.323 N 
ATOM     16  H   UNK d   1       1.157   0.489   1.647  0.00  0.00     0.169 HD
ATOM     17  O   UNK d   1      -0.563   3.208   1.387  0.00  0.00    -0.271 OA
BRANCH  15  18
ATOM     18  C   UNK d   1       2.168   2.227   0.939  0.00  0.00     0.073 A 
ATOM     19  C   UNK d   1       3.386   1.542   0.804  0.00  0.00     0.143 A 
ATOM     20  F   UNK d   1       3.422   0.219   1.136  0.00  0.00    -0.204 F 
ATOM     21  C   UNK d   1       4.526   2.157   0.353  0.00  0.00     0.044 A 
ATOM     22  C   UNK d   1       4.524   3.489   0.010  0.00  0.00     0.003 A 
ATOM     23  C   UNK d   1       3.343   4.159   0.140  0.00  0.00     0.002 A 
ATOM     24  C   UNK d   1       2.182   3.554   0.593  0.00  0.00     0.033 A 
ENDBRANCH  15  18
ENDBRANCH  13  14
ENDBRANCH   1  13
BRANCH   8  25
ATOM     25  C   UNK d   1      -1.064  -3.483  -1.391  0.00  0.00     0.046 A 
ATOM     26  C   UNK d   1      -2.016  -4.476  -1.514  0.00  0.00     0.031 A 
ATOM     27  C   UNK d   1      -2.224  -5.145  -2.704  0.00  0.00     0.021 A 
ATOM     28  C   UNK d   1      -1.481  -4.846  -3.827  0.00  0.00     0.011 A 
ATOM     29  C   UNK d   1      -0.524  -3.858  -3.727  0.00  0.00     0.021 A 
ATOM     30 Br   UNK d   1      -1.747  -5.756  -5.488  0.00  0.00    -0.051 Br
ATOM     31  C   UNK d   1      -0.332  -3.201  -2.528  0.00  0.00     0.031 A 
ENDBRANCH   8  25
TORSDOF 4
