REMARK  4 active torsions:
REMARK  status: ('A' for Active; 'I' for Inactive)
REMARK    1  A    between atoms: C_5  and  N_8 
REMARK    2  A    between atoms: N_15  and  C_16 
REMARK    3  A    between atoms: C_16  and  C_17 
REMARK       I    between atoms: C_17  and  N_19 
REMARK    4  A    between atoms: N_19  and  C_20 
ROOT
ATOM      1  N   UNK d   1      -2.406  -0.075  -2.070  0.00  0.00    -0.241 N 
ATOM      2  C   UNK d   1      -1.750  -0.737  -1.102  0.00  0.00     0.286 A 
ATOM      3  O   UNK d   1      -0.667  -1.340  -1.334  0.00  0.00    -0.265 OA
ATOM      4  C   UNK d   1      -2.401  -0.663   0.115  0.00  0.00     0.155 A 
ATOM      5  C   UNK d   1      -3.487   0.067  -0.124  0.00  0.00     0.152 A 
ATOM      6  N   UNK d   1      -4.152   0.162   1.031  0.00  0.00    -0.279 N 
ATOM      7  N   UNK d   1      -3.481  -0.500   1.955  0.00  0.00    -0.239 N 
ATOM      8  N   UNK d   1      -2.384  -1.028   1.421  0.00  0.00    -0.261 N 
ATOM      9  C   UNK d   1      -3.503   0.433  -1.453  0.00  0.00     0.286 A 
ATOM     10  O   UNK d   1      -4.357   1.125  -2.077  0.00  0.00    -0.265 OA
ATOM     11  H   UNK d   1      -5.061   0.690   1.143  0.00  0.00     0.189 HD
ATOM     12  H   UNK d   1      -3.748  -0.604   2.944  0.00  0.00     0.208 HD
ENDROOT
BRANCH   8  13
ATOM     13  C   UNK d   1      -1.362  -1.819   2.043  0.00  0.00     0.254 C 
BRANCH  13  14
ATOM     14  C   UNK d   1      -0.251  -1.067   2.636  0.00  0.00     0.242 C 
ATOM     15  O   UNK d   1      -0.389  -0.667   3.802  0.00  0.00    -0.271 OA
ATOM     16  N   UNK d   1       0.914  -0.820   1.904  0.00  0.00    -0.326 N 
ATOM     17  H   UNK d   1       0.965  -1.202   0.891  0.00  0.00     0.169 HD
BRANCH  16  18
ATOM     18  C   UNK d   1       2.082  -0.123   2.292  0.00  0.00     0.034 A 
ATOM     19  C   UNK d   1       2.227   0.416   3.548  0.00  0.00     0.031 A 
ATOM     20  C   UNK d   1       3.365   1.112   3.967  0.00  0.00     0.021 A 
ATOM     21  C   UNK d   1       4.374   1.245   3.047  0.00  0.00     0.011 A 
ATOM     22  C   UNK d   1       4.255   0.716   1.786  0.00  0.00     0.021 A 
ATOM     23 Br   UNK d   1       5.974   2.192   3.557  0.00  0.00    -0.051 Br
ATOM     24  C   UNK d   1       3.128   0.038   1.400  0.00  0.00     0.031 A 
ENDBRANCH  16  18
ENDBRANCH  13  14
ENDBRANCH   8  13
BRANCH   1  25
ATOM     25  C   UNK d   1      -2.055   0.069  -3.445  0.00  0.00     0.046 A 
ATOM     26  C   UNK d   1      -1.892   1.280  -4.079  0.00  0.00     0.033 A 
ATOM     27  C   UNK d   1      -1.554   1.362  -5.432  0.00  0.00     0.044 A 
ATOM     28  C   UNK d   1      -1.376   0.225  -6.168  0.00  0.00     0.116 A 
ATOM     29  F   UNK d   1      -1.047   0.316  -7.491  0.00  0.00    -0.206 F 
ATOM     30  C   UNK d   1      -1.534  -0.996  -5.554  0.00  0.00     0.044 A 
ATOM     31  C   UNK d   1      -1.867  -1.065  -4.220  0.00  0.00     0.033 A 
ENDBRANCH   1  25
TORSDOF 4
