REMARK  1 active torsions:
REMARK  status: ('A' for Active; 'I' for Inactive)
REMARK    1  A    between atoms: C_4  and  C_9 
ROOT
ATOM      1  C   UNK d   1      -2.288   1.453   1.587  0.00  0.00     0.222 C 
ATOM      2  N   UNK d   1      -1.613   0.184   1.740  0.00  0.00    -0.358 N 
ATOM      3  C   UNK d   1      -0.885  -0.366   0.637  0.00  0.00     0.088 A 
ATOM      4  S   UNK d   1       0.447  -1.478   0.526  0.00  0.00    -0.074 SA
ATOM      5  C   UNK d   1       0.621  -1.535  -1.164  0.00  0.00     0.018 A 
ATOM      6  C   UNK d   1      -0.348  -0.697  -1.595  0.00  0.00    -0.023 A 
ATOM      7  C   UNK d   1      -1.124  -0.094  -0.679  0.00  0.00     0.073 A 
ATOM      8  C   UNK d   1      -2.256   0.863  -0.837  0.00  0.00     0.256 C 
ATOM      9  O   UNK d   1      -2.635   1.237  -1.972  0.00  0.00    -0.267 OA
ATOM     10  N   UNK d   1      -2.937   1.376   0.289  0.00  0.00    -0.331 N 
ATOM     11  C   UNK d   1      -0.428  -0.552  -3.110  0.00  0.00     0.068 C 
ATOM     12  C   UNK d   1       0.200  -1.758  -3.729  0.00  0.00     0.239 C 
ATOM     13  N   UNK d   1       1.610  -1.729  -3.309  0.00  0.00    -0.070 N 
ATOM     14  C   UNK d   1       1.587  -2.305  -1.981  0.00  0.00     0.281 C 
ATOM     15  C   UNK d   1       2.445  -2.474  -4.221  0.00  0.00     0.270 C 
ATOM     16  H   UNK d   1      -1.627  -0.368   2.626  0.00  0.00     0.162 HD
ATOM     17  H   UNK d   1      -3.930   1.714   0.211  0.00  0.00     0.165 HD
ATOM     18  H   UNK d   1       1.910  -0.736  -3.213  0.00  0.00     0.279 HD
ENDROOT
BRANCH   1  19
ATOM     19  C   UNK d   1      -1.230   2.497   1.579  0.00  0.00     0.023 A 
ATOM     20  C   UNK d   1      -1.203   3.559   0.707  0.00  0.00     0.134 A 
ATOM     21  C   UNK d   1      -0.179   4.507   0.733  0.00  0.00     0.044 A 
ATOM     22  O   UNK d   1      -2.212   3.698  -0.220  0.00  0.00    -0.190 OA
ATOM     23  I   UNK d   1      -0.196   6.109  -0.630  0.00  0.00    -0.042 I 
ATOM     24  C   UNK d   1       0.840   4.417   1.630  0.00  0.00     0.040 A 
ATOM     25  C   UNK d   1       0.832   3.362   2.512  0.00  0.00     0.013 A 
ATOM     26  C   UNK d   1      -0.169   2.426   2.493  0.00  0.00     0.033 A 
ATOM     27 Br   UNK d   1       2.256   3.232   3.769  0.00  0.00    -0.051 Br
ENDBRANCH   1  19
TORSDOF 1
