# created with PyMOL 2.3.2
@<TRIPOS>MOLECULE
892
39 42 1                 
SMALL
USER_CHARGES
@<TRIPOS>ATOM
1	   I	-0.196	6.109	-0.630	 I	1	UNK0	0.000	
2	   C	-0.179	4.507	0.733	C.2	1	UNK0	0.000	
3	   C	-1.203	3.559	0.707	C.2	1	UNK0	0.000	
4	   C	-1.230	2.497	1.579	C.2	1	UNK0	0.000	
5	   C	-0.169	2.426	2.493	C.2	1	UNK0	0.000	
6	   C	0.832	3.362	2.512	C.2	1	UNK0	0.000	
7	   C	0.840	4.417	1.630	C.2	1	UNK0	0.000	
8	  Br	2.256	3.232	3.769	Br	1	UNK0	0.000	
9	   C	-2.288	1.453	1.587	C.3	1	UNK0	0.000	
10	   N	-1.613	0.184	1.740	N.pl3	1	UNK0	0.000	
11	   C	-0.885	-0.366	0.637	C.2	1	UNK0	0.000	
12	   S	0.447	-1.478	0.526	S.3	1	UNK0	0.000	
13	   C	0.621	-1.535	-1.164	C.2	1	UNK0	0.000	
14	   C	-0.348	-0.697	-1.595	C.2	1	UNK0	0.000	
15	   C	-1.124	-0.094	-0.679	C.2	1	UNK0	0.000	
16	   C	-2.256	0.863	-0.837	C.2	1	UNK0	0.000	
17	   O	-2.635	1.237	-1.972	O.2	1	UNK0	0.000	
18	   N	-2.937	1.376	0.289	N.pl3	1	UNK0	0.000	
19	   C	-0.428	-0.552	-3.110	C.3	1	UNK0	0.000	
20	   C	0.200	-1.758	-3.729	C.3	1	UNK0	0.000	
21	   N	1.610	-1.729	-3.309	N.4	1	UNK0	0.000	
22	   C	1.587	-2.305	-1.981	C.3	1	UNK0	0.000	
23	   C	2.445	-2.474	-4.221	C.3	1	UNK0	0.000	
24	   O	-2.212	3.698	-0.220	O.2	1	UNK0	0.000	
25	   H	-0.188	1.592	3.182	 H	1	UNK0	0.000	
26	   H	1.639	5.170	1.638	 H	1	UNK0	0.000	
27	   H	-3.030	1.628	2.394	 H	1	UNK0	0.000	
28	   H	-1.627	-0.368	2.626	 H	1	UNK0	0.000	
29	   H	-3.930	1.714	0.211	 H	1	UNK0	0.000	
30	   H	0.162	0.337	-3.364	 H	1	UNK0	0.000	
31	   H	-1.464	-0.407	-3.433	 H	1	UNK0	0.000	
32	   H	-0.268	-2.687	-3.363	 H	1	UNK0	0.000	
33	   H	0.140	-1.677	-4.813	 H	1	UNK0	0.000	
34	   H	1.910	-0.736	-3.213	 H	1	UNK0	0.000	
35	   H	1.318	-3.380	-2.001	 H	1	UNK0	0.000	
36	   H	2.623	-2.252	-1.593	 H	1	UNK0	0.000	
37	   H	2.892	-3.365	-3.749	 H	1	UNK0	0.000	
38	   H	3.299	-1.798	-4.498	 H	1	UNK0	0.000	
39	   H	1.940	-2.709	-5.181	 H	1	UNK0	0.000	
@<TRIPOS>BOND
1 1 2 1
2 2 3 2
3 2 7 1
4 3 4 1
5 3 24 1
6 4 5 2
7 4 9 1
8 5 6 1
9 6 7 2
10 6 8 1
11 9 10 1
12 9 18 1
13 10 11 1
14 11 12 1
15 11 15 2
16 12 13 1
17 13 14 2
18 13 22 1
19 14 15 1
20 14 19 1
21 15 16 1
22 16 17 2
23 16 18 1
24 19 20 1
25 20 21 1
26 21 22 1
27 21 23 1
28 5 25 1
29 7 26 1
30 9 27 1
31 10 28 1
32 18 29 1
33 19 30 1
34 19 31 1
35 20 32 1
36 20 33 1
37 21 34 1
38 22 35 1
39 22 36 1
40 23 37 1
41 23 38 1
42 23 39 1
@<TRIPOS>SUBSTRUCTURE
1	UNK0	1	GROUP	1 ****	UNK
