REMARK  2 active torsions:
REMARK  status: ('A' for Active; 'I' for Inactive)
REMARK    1  A    between atoms: C_4  and  O_23 
REMARK    2  A    between atoms: C_6  and  C_8 
ROOT
ATOM      1  C   UNK d   1       2.038   1.193  -0.358  0.00  0.00     0.219 C 
ATOM      2  N   UNK d   1       0.910   1.899   0.250  0.00  0.00    -0.358 N 
ATOM      3  C   UNK d   1      -0.449   1.651  -0.189  0.00  0.00     0.088 A 
ATOM      4  S   UNK d   1      -1.929   2.487   0.066  0.00  0.00    -0.074 SA
ATOM      5  C   UNK d   1      -2.964   1.473  -0.815  0.00  0.00     0.018 A 
ATOM      6  C   UNK d   1      -2.128   0.499  -1.291  0.00  0.00    -0.023 A 
ATOM      7  C   UNK d   1      -0.822   0.598  -0.961  0.00  0.00     0.073 A 
ATOM      8  C   UNK d   1       0.282  -0.326  -1.350  0.00  0.00     0.256 C 
ATOM      9  O   UNK d   1       0.069  -1.348  -2.070  0.00  0.00    -0.267 OA
ATOM     10  N   UNK d   1       1.592  -0.058  -0.907  0.00  0.00    -0.332 N 
ATOM     11  C   UNK d   1      -2.878  -0.533  -2.126  0.00  0.00     0.068 C 
ATOM     12  C   UNK d   1      -4.083  -1.011  -1.360  0.00  0.00     0.239 C 
ATOM     13  N   UNK d   1      -4.825   0.031  -0.733  0.00  0.00    -0.070 N 
ATOM     14  C   UNK d   1      -4.422   1.358  -1.186  0.00  0.00     0.281 C 
ATOM     15  C   UNK d   1      -4.498  -0.006   0.701  0.00  0.00     0.270 C 
ATOM     16  H   UNK d   1       1.044   2.593   1.008  0.00  0.00     0.162 HD
ATOM     17  H   UNK d   1       2.315  -0.821  -0.976  0.00  0.00     0.165 HD
ATOM     18  H   UNK d   1      -5.869  -0.072  -0.831  0.00  0.00     0.279 HD
ENDROOT
BRANCH   1  19
ATOM     19  C   UNK d   1       2.971   0.880   0.759  0.00  0.00    -0.012 A 
ATOM     20  C   UNK d   1       2.436   0.370   1.935  0.00  0.00     0.050 A 
ATOM     21  C   UNK d   1       3.191   0.047   3.022  0.00  0.00     0.106 A 
ATOM     22  C   UNK d   1       4.568   0.245   2.933  0.00  0.00     0.157 A 
ATOM     23  C   UNK d   1       5.126   0.750   1.776  0.00  0.00     0.046 A 
ATOM     24  O   UNK d   1       5.368  -0.071   4.015  0.00  0.00    -0.188 OA
ATOM     25  I   UNK d   1       7.212   1.041   1.663  0.00  0.00    -0.041 I 
ATOM     26  C   UNK d   1       4.324   1.067   0.691  0.00  0.00     0.032 A 
BRANCH  21  27
ATOM     27  O   UNK d   1       2.686  -0.464   4.210  0.00  0.00    -0.353 OA
ATOM     28  C   UNK d   1       1.290  -0.671   4.317  0.00  0.00     0.210 C 
ENDBRANCH  21  27
ENDBRANCH   1  19
TORSDOF 2
