REMARK  6 active torsions:
REMARK  status: ('A' for Active; 'I' for Inactive)
REMARK    1  A    between atoms: C_3  and  N_8 
REMARK    2  A    between atoms: N_8  and  C_9 
REMARK    3  A    between atoms: C_20  and  C_21 
REMARK    4  A    between atoms: C_21  and  C_22 
REMARK    5  A    between atoms: C_22  and  O_24 
REMARK    6  A    between atoms: O_24  and  C_25 
ROOT
ATOM      1  C   UNK d   1      -1.867   1.939   0.218  0.00  0.00     0.179 A 
ATOM      2  N   UNK d   1      -2.302   0.810   0.765  0.00  0.00    -0.202 NA
ATOM      3  C   UNK d   1      -1.531  -0.207   1.185  0.00  0.00     0.230 A 
ATOM      4  N   UNK d   1      -1.686  -1.412   1.747  0.00  0.00    -0.081 NA
ATOM      5  O   UNK d   1      -0.529  -1.978   1.935  0.00  0.00    -0.103 OA
ATOM      6  N   UNK d   1       0.416  -1.187   1.513  0.00  0.00    -0.082 NA
ATOM      7  C   UNK d   1      -0.147  -0.067   1.035  0.00  0.00     0.217 A 
ATOM      8  N   UNK d   1       0.342   1.035   0.496  0.00  0.00    -0.256 N 
ATOM      9  C   UNK d   1      -0.466   2.019   0.093  0.00  0.00     0.206 A 
ATOM     10  N   UNK d   1       0.314   2.971  -0.393  0.00  0.00    -0.126 NA
ATOM     11  N   UNK d   1       1.599   2.588  -0.295  0.00  0.00    -0.133 NA
ATOM     12  C   UNK d   1       1.643   1.369   0.262  0.00  0.00     0.145 A 
ENDROOT
BRANCH   1  13
ATOM     13  N   UNK d   1      -2.666   3.012  -0.227  0.00  0.00    -0.337 N 
ATOM     14  H   UNK d   1      -2.158   3.862  -0.660  0.00  0.00     0.167 HD
BRANCH  13  15
ATOM     15  C   UNK d   1      -4.070   3.129  -0.183  0.00  0.00     0.050 A 
ATOM     16  C   UNK d   1      -4.670   4.304  -0.688  0.00  0.00     0.033 A 
ATOM     17  I   UNK d   1      -3.452   5.826  -1.500  0.00  0.00    -0.042 I 
ATOM     18  C   UNK d   1      -6.034   4.456  -0.655  0.00  0.00     0.020 A 
ATOM     19  C   UNK d   1      -6.833   3.448  -0.120  0.00  0.00     0.001 A 
ATOM     20  C   UNK d   1      -6.225   2.323   0.362  0.00  0.00     0.002 A 
ATOM     21  C   UNK d   1      -4.841   2.132   0.343  0.00  0.00     0.031 A 
ENDBRANCH  13  15
ENDBRANCH   1  13
BRANCH  12  22
ATOM     22  C   UNK d   1       2.821   0.521   0.586  0.00  0.00     0.192 C 
BRANCH  22  23
ATOM     23  C   UNK d   1       3.199  -0.398  -0.514  0.00  0.00     0.266 C 
ATOM     24  O   UNK d   1       3.645  -0.002  -1.611  0.00  0.00    -0.265 OA
BRANCH  23  25
ATOM     25  O   UNK d   1       3.051  -1.744  -0.324  0.00  0.00    -0.322 OA
BRANCH  25  26
ATOM     26  C   UNK d   1       3.364  -2.722  -1.250  0.00  0.00     0.174 C 
ATOM     27  C   UNK d   1       4.784  -2.809  -1.661  0.00  0.00     0.034 C 
ENDBRANCH  25  26
ENDBRANCH  23  25
ENDBRANCH  22  23
ENDBRANCH  12  22
TORSDOF 6
