# created with PyMOL 2.3.2
@<TRIPOS>MOLECULE
906
38 41 1                 
SMALL
USER_CHARGES
@<TRIPOS>ATOM
1	   I	-3.452	5.826	-1.500	 I	1	UNK0	0.000	
2	   C	-4.670	4.304	-0.688	C.2	1	UNK0	0.000	
3	   C	-4.070	3.129	-0.183	C.2	1	UNK0	0.000	
4	   C	-4.841	2.132	0.343	C.2	1	UNK0	0.000	
5	   C	-6.225	2.323	0.362	C.2	1	UNK0	0.000	
6	   C	-6.833	3.448	-0.120	C.2	1	UNK0	0.000	
7	   C	-6.034	4.456	-0.655	C.2	1	UNK0	0.000	
8	   N	-2.666	3.012	-0.227	N.pl3	1	UNK0	0.000	
9	   C	-1.867	1.939	0.218	C.2	1	UNK0	0.000	
10	   N	-2.302	0.810	0.765	N.2	1	UNK0	0.000	
11	   C	-1.531	-0.207	1.185	C.2	1	UNK0	0.000	
12	   N	-1.686	-1.412	1.747	N.2	1	UNK0	0.000	
13	   O	-0.529	-1.978	1.935	O.3	1	UNK0	0.000	
14	   N	0.416	-1.187	1.513	N.2	1	UNK0	0.000	
15	   C	-0.147	-0.067	1.035	C.2	1	UNK0	0.000	
16	   N	0.342	1.035	0.496	N.pl3	1	UNK0	0.000	
17	   C	-0.466	2.019	0.093	C.2	1	UNK0	0.000	
18	   N	0.314	2.971	-0.393	N.2	1	UNK0	0.000	
19	   N	1.599	2.588	-0.295	N.2	1	UNK0	0.000	
20	   C	1.643	1.369	0.262	C.2	1	UNK0	0.000	
21	   C	2.821	0.521	0.586	C.3	1	UNK0	0.000	
22	   C	3.199	-0.398	-0.514	C.2	1	UNK0	0.000	
23	   O	3.645	-0.002	-1.611	O.co2	1	UNK0	0.000	
24	   O	3.051	-1.744	-0.324	O.3	1	UNK0	0.000	
25	   C	3.364	-2.722	-1.250	C.3	1	UNK0	0.000	
26	   C	4.784	-2.809	-1.661	C.3	1	UNK0	0.000	
27	   H	-4.465	1.211	0.747	 H	1	UNK0	0.000	
28	   H	-6.855	1.533	0.780	 H	1	UNK0	0.000	
29	   H	-7.903	3.567	-0.094	 H	1	UNK0	0.000	
30	   H	-6.525	5.341	-1.034	 H	1	UNK0	0.000	
31	   H	-2.158	3.862	-0.660	 H	1	UNK0	0.000	
32	   H	2.709	-0.003	1.552	 H	1	UNK0	0.000	
33	   H	3.722	1.196	0.721	 H	1	UNK0	0.000	
34	   H	3.007	-3.699	-0.818	 H	1	UNK0	0.000	
35	   H	2.730	-2.600	-2.175	 H	1	UNK0	0.000	
36	   H	5.172	-3.826	-1.356	 H	1	UNK0	0.000	
37	   H	5.435	-2.090	-1.113	 H	1	UNK0	0.000	
38	   H	4.873	-2.710	-2.750	 H	1	UNK0	0.000	
@<TRIPOS>BOND
1 1 2 1
2 2 3 2
3 2 7 1
4 3 4 1
5 3 8 1
6 4 5 2
7 5 6 1
8 6 7 2
9 8 9 1
10 9 10 2
11 9 17 1
12 10 11 1
13 11 12 2
14 11 15 1
15 12 13 1
16 13 14 1
17 14 15 2
18 15 16 1
19 16 17 1
20 16 20 1
21 17 18 2
22 18 19 1
23 19 20 2
24 20 21 1
25 21 22 1
26 22 23 2
27 22 24 1
28 24 25 1
29 25 26 1
30 4 27 1
31 5 28 1
32 6 29 1
33 7 30 1
34 8 31 1
35 21 32 1
36 21 33 1
37 25 34 1
38 25 35 1
39 26 36 1
40 26 37 1
41 26 38 1
@<TRIPOS>SUBSTRUCTURE
1	UNK0	1	GROUP	1 ****	UNK
