REMARK  2 active torsions:
REMARK  status: ('A' for Active; 'I' for Inactive)
REMARK    1  A    between atoms: C_3  and  N_8 
REMARK    2  A    between atoms: N_15  and  C_16 
ROOT
ATOM      1  N   UNK d   1       0.621  -0.797  -0.939  0.00  0.00    -0.240 N 
ATOM      2  C   UNK d   1      -0.566  -0.266  -0.596  0.00  0.00     0.286 A 
ATOM      3  O   UNK d   1      -1.682  -0.863  -0.669  0.00  0.00    -0.265 OA
ATOM      4  C   UNK d   1      -0.427   1.031  -0.146  0.00  0.00     0.160 A 
ATOM      5  C   UNK d   1       0.868   1.293  -0.216  0.00  0.00     0.152 A 
ATOM      6  N   UNK d   1       0.989   2.566   0.229  0.00  0.00    -0.278 N 
ATOM      7  N   UNK d   1      -0.192   3.057   0.557  0.00  0.00    -0.234 N 
ATOM      8  N   UNK d   1      -1.082   2.125   0.333  0.00  0.00    -0.234 N 
ATOM      9  C   UNK d   1       1.523   0.173  -0.703  0.00  0.00     0.286 A 
ATOM     10  O   UNK d   1       2.781   0.099  -0.890  0.00  0.00    -0.265 OA
ATOM     11  H   UNK d   1       1.878   3.103   0.310  0.00  0.00     0.189 HD
ATOM     12  H   UNK d   1      -0.383   4.011   0.925  0.00  0.00     0.209 HD
ENDROOT
BRANCH   1  13
ATOM     13  C   UNK d   1       0.904  -2.102  -1.446  0.00  0.00     0.062 A 
ATOM     14  C   UNK d   1       0.953  -3.204  -0.617  0.00  0.00     0.034 A 
ATOM     15  I   UNK d   1       0.591  -2.886   1.444  0.00  0.00    -0.042 I 
ATOM     16  C   UNK d   1       1.225  -4.474  -1.085  0.00  0.00     0.020 A 
ATOM     17  C   UNK d   1       1.462  -4.694  -2.426  0.00  0.00     0.001 A 
ATOM     18  C   UNK d   1       1.416  -3.600  -3.264  0.00  0.00     0.002 A 
ATOM     19  C   UNK d   1       1.142  -2.330  -2.786  0.00  0.00     0.031 A 
ENDBRANCH   1  13
BRANCH   8  20
ATOM     20  C   UNK d   1      -2.488   2.182   0.533  0.00  0.00     0.058 A 
ATOM     21  C   UNK d   1      -3.042   2.446   1.766  0.00  0.00     0.031 A 
ATOM     22  C   UNK d   1      -4.417   2.495   1.928  0.00  0.00     0.002 A 
ATOM     23  C   UNK d   1      -5.283   2.284   0.875  0.00  0.00     0.000 A 
ATOM     24  C   UNK d   1      -4.730   2.020  -0.360  0.00  0.00     0.002 A 
ATOM     25  C   UNK d   1      -3.368   1.969  -0.530  0.00  0.00     0.031 A 
ENDBRANCH   8  20
TORSDOF 2
