REMARK  3 active torsions:
REMARK  status: ('A' for Active; 'I' for Inactive)
REMARK    1  A    between atoms: C_3  and  C_8 
REMARK       I    between atoms: C_8  and  N_10 
REMARK    2  A    between atoms: N_10  and  C_11 
REMARK    3  A    between atoms: C_17  and  N_20 
ROOT
ATOM      1  C   UNK d   1       0.757   0.227  -1.356  0.00  0.00     0.069 A 
ATOM      2  C   UNK d   1       0.330  -0.193  -0.075  0.00  0.00     0.146 A 
ATOM      3  N   UNK d   1       0.303  -1.394   0.491  0.00  0.00    -0.101 NA
ATOM      4  O   UNK d   1      -0.184  -1.270   1.688  0.00  0.00    -0.106 OA
ATOM      5  N   UNK d   1      -0.477  -0.043   1.928  0.00  0.00    -0.101 NA
ATOM      6  C   UNK d   1      -0.169   0.675   0.840  0.00  0.00     0.146 A 
ATOM      7  C   UNK d   1      -0.270   2.013   0.530  0.00  0.00     0.064 A 
ATOM      8  C   UNK d   1       0.134   2.453  -0.704  0.00  0.00     0.034 A 
ATOM      9  C   UNK d   1       0.644   1.580  -1.645  0.00  0.00     0.034 A 
ENDROOT
BRANCH   1  10
ATOM     10  N   UNK d   1       1.315  -0.764  -2.137  0.00  0.00    -0.319 N 
ATOM     11  C   UNK d   1       1.854  -1.721  -2.891  0.00  0.00     0.275 C 
ATOM     12  O   UNK d   1       1.989  -1.641  -4.180  0.00  0.00    -0.266 OA
ATOM     13  H   UNK d   1       0.930  -0.081  -3.250  0.00  0.00     0.169 HD
BRANCH  11  14
ATOM     14  C   UNK d   1       2.383  -3.025  -2.406  0.00  0.00     0.138 A 
ATOM     15  C   UNK d   1       2.391  -4.195  -3.134  0.00  0.00     0.059 A 
ATOM     16  I   UNK d   1       1.604  -4.472  -5.092  0.00  0.00    -0.040 I 
ATOM     17  C   UNK d   1       3.005  -5.154  -2.367  0.00  0.00     0.159 A 
ATOM     18  N   UNK d   1       3.344  -4.556  -1.227  0.00  0.00    -0.183 NA
ATOM     19  N   UNK d   1       2.978  -3.280  -1.238  0.00  0.00    -0.268 N 
ATOM     20  C   UNK d   1       3.265  -2.350  -0.130  0.00  0.00     0.180 C 
ENDBRANCH  11  14
ENDBRANCH   1  10
BRANCH   7  21
ATOM     21  N   UNK d   1      -0.798   2.877   1.501  0.00  0.00    -0.375 N 
ATOM     22  C   UNK d   1      -0.706   4.334   1.398  0.00  0.00     0.149 C 
ATOM     23  C   UNK d   1       0.125   4.749   2.595  0.00  0.00     0.187 C 
ATOM     24  O   UNK d   1       0.496   3.691   3.409  0.00  0.00    -0.388 OA
ATOM     25  C   UNK d   1      -0.539   2.889   3.841  0.00  0.00     0.187 C 
ATOM     26  C   UNK d   1      -1.486   2.507   2.717  0.00  0.00     0.149 C 
ENDBRANCH   7  21
TORSDOF 3
