REMARK  3 active torsions:
REMARK  status: ('A' for Active; 'I' for Inactive)
REMARK    1  A    between atoms: C_5  and  C_8 
REMARK    2  A    between atoms: C_10  and  N_11 
REMARK    3  A    between atoms: C_15  and  C_19 
ROOT
ATOM      1  N   UNK d   1      -0.002   1.855  -2.203  0.00  0.00    -0.353 N 
ATOM      2  C   UNK d   1      -0.138   0.578  -2.024  0.00  0.00     0.149 A 
ATOM      3  S   UNK d   1       0.614  -0.986  -2.501  0.00  0.00    -0.063 SA
ATOM      4  C   UNK d   1      -0.541  -1.964  -1.568  0.00  0.00     0.083 A 
ATOM      5  C   UNK d   1      -1.391  -1.160  -0.969  0.00  0.00     0.053 A 
ATOM      6  N   UNK d   1      -1.203   0.226  -1.192  0.00  0.00    -0.325 N 
ATOM      7  C   UNK d   1      -1.839   1.502  -0.775  0.00  0.00     0.151 A 
ATOM      8  C   UNK d   1      -1.058   2.537  -1.507  0.00  0.00     0.145 A 
ENDROOT
BRANCH   1   9
ATOM      9  C   UNK d   1       0.996   2.474  -2.992  0.00  0.00     0.193 C 
ATOM     10  C   UNK d   1       2.017   3.305  -2.411  0.00  0.00     0.112 C 
ATOM     11  O   UNK d   1       2.628   4.047  -3.296  0.00  0.00    -0.194 OA
BRANCH  10  12
ATOM     12  C   UNK d   1       2.498   3.484  -1.068  0.00  0.00    -0.002 A 
ATOM     13  C   UNK d   1       2.050   2.739  -0.020  0.00  0.00     0.015 A 
ATOM     14  C   UNK d   1       2.517   2.947   1.250  0.00  0.00     0.019 A 
ATOM     15  C   UNK d   1       3.459   3.911   1.553  0.00  0.00     0.006 A 
ATOM     16  I   UNK d   1       4.199   4.267   3.466  0.00  0.00    -0.045 I 
ATOM     17  C   UNK d   1       3.913   4.670   0.474  0.00  0.00     0.019 A 
ATOM     18  C   UNK d   1       3.449   4.462  -0.782  0.00  0.00     0.015 A 
ENDBRANCH  10  12
ENDBRANCH   1   9
BRANCH   5  19
ATOM     19  C   UNK d   1      -2.461  -1.776  -0.130  0.00  0.00    -0.009 A 
ATOM     20  C   UNK d   1      -3.379  -1.023   0.554  0.00  0.00     0.014 A 
ATOM     21  C   UNK d   1      -4.393  -1.609   1.337  0.00  0.00     0.001 A 
ATOM     22  C   UNK d   1      -4.487  -2.978   1.435  0.00  0.00     0.000 A 
ATOM     23  C   UNK d   1      -3.570  -3.737   0.752  0.00  0.00     0.001 A 
ATOM     24  C   UNK d   1      -2.574  -3.150  -0.018  0.00  0.00     0.014 A 
ENDBRANCH   5  19
TORSDOF 3
