REMARK  5 active torsions:
REMARK  status: ('A' for Active; 'I' for Inactive)
REMARK    1  A    between atoms: C_5  and  C_8 
REMARK    2  A    between atoms: N_9  and  N_10 
REMARK    3  A    between atoms: N_10  and  C_11 
REMARK    4  A    between atoms: C_13  and  N_23 
REMARK    5  A    between atoms: C_15  and  N_17 
ROOT
ATOM      1  C   UNK d   1       1.289   0.374  -2.173  0.00  0.00     0.774 A 
ATOM      2  N   UNK d   1       0.118   0.614  -1.559  0.00  0.00     0.133 NA
ATOM      3  C   UNK d   1       0.074   1.036  -0.289  0.00  0.00     0.756 A 
ATOM      4  N   UNK d   1       1.252   1.204   0.334  0.00  0.00     0.131 NA
ATOM      5  C   UNK d   1       2.446   0.973  -0.248  0.00  0.00     0.756 A 
ATOM      6  N   UNK d   1       2.447   0.551  -1.526  0.00  0.00     0.133 NA
ENDROOT
BRANCH   1   7
ATOM      7  N   UNK d   1       1.311  -0.081  -3.547  0.00  0.00    -0.105 N 
ATOM      8  H   UNK d   1       2.224  -0.245  -4.025  0.00  0.00     0.208 HD
BRANCH   7   9
ATOM      9  N   UNK d   1       0.140  -0.262  -4.205  0.00  0.00    -0.172 NA
ATOM     10  C   UNK d   1      -0.406  -1.382  -4.388  0.00  0.00     0.150 C 
BRANCH  10  11
ATOM     11  C   UNK d   1       0.054  -2.676  -3.965  0.00  0.00    -0.017 A 
ATOM     12  C   UNK d   1       1.193  -2.968  -3.274  0.00  0.00     0.014 A 
ATOM     13  C   UNK d   1       1.553  -4.273  -2.906  0.00  0.00     0.019 A 
ATOM     14  C   UNK d   1       0.749  -5.319  -3.239  0.00  0.00     0.006 A 
ATOM     15  I   UNK d   1       1.199  -7.299  -2.735  0.00  0.00    -0.045 I 
ATOM     16  C   UNK d   1      -0.408  -5.053  -3.937  0.00  0.00     0.019 A 
ATOM     17  C   UNK d   1      -0.756  -3.773  -4.295  0.00  0.00     0.014 A 
ENDBRANCH  10  11
ENDBRANCH   7   9
ENDBRANCH   1   7
BRANCH   3  18
ATOM     18  N   UNK d   1      -1.158   1.297   0.384  0.00  0.00    -0.209 N 
ATOM     19  C   UNK d   1      -2.440   1.127  -0.230  0.00  0.00     0.167 C 
ATOM     20  C   UNK d   1      -3.492   1.676   0.736  0.00  0.00     0.188 C 
ATOM     21  O   UNK d   1      -3.154   2.939   1.193  0.00  0.00    -0.388 OA
ATOM     22  C   UNK d   1      -2.016   2.957   1.961  0.00  0.00     0.188 C 
ATOM     23  C   UNK d   1      -1.123   1.759   1.762  0.00  0.00     0.167 C 
ENDBRANCH   3  18
BRANCH   5  24
ATOM     24  N   UNK d   1       3.647   1.175   0.484  0.00  0.00    -0.209 N 
ATOM     25  C   UNK d   1       4.921   0.932  -0.152  0.00  0.00     0.167 C 
ATOM     26  C   UNK d   1       5.826   0.369   0.953  0.00  0.00     0.188 C 
ATOM     27  O   UNK d   1       6.020   1.366   1.873  0.00  0.00    -0.388 OA
ATOM     28  C   UNK d   1       4.905   1.827   2.515  0.00  0.00     0.188 C 
ATOM     29  C   UNK d   1       3.601   1.613   1.836  0.00  0.00     0.167 C 
ENDBRANCH   5  24
TORSDOF 5
