# created with PyMOL 2.3.2
@<TRIPOS>MOLECULE
935
52 56 1                 
SMALL
USER_CHARGES
@<TRIPOS>ATOM
1	   I	-4.812	-6.336	1.301	 I	1	UNK0	0.000	
2	   C	-3.541	-4.829	0.581	C.2	1	UNK0	0.000	
3	   C	-3.952	-4.016	-0.470	C.2	1	UNK0	0.000	
4	   C	-3.132	-3.034	-0.944	C.2	1	UNK0	0.000	
5	   C	-1.872	-2.795	-0.419	C.2	1	UNK0	0.000	
6	   C	-1.455	-3.605	0.632	C.2	1	UNK0	0.000	
7	   C	-2.291	-4.595	1.104	C.2	1	UNK0	0.000	
8	   N	-1.021	-1.773	-0.914	N.pl3	1	UNK0	0.000	
9	   C	-0.844	-0.621	-0.244	C.2	1	UNK0	0.000	
10	   C	-0.022	0.384	-0.705	C.2	1	UNK0	0.000	
11	   C	0.615	0.140	-1.906	C.2	1	UNK0	0.000	
12	   O	1.403	0.962	-2.464	O.2	1	UNK0	0.000	
13	   N	0.443	-1.029	-2.598	N.pl3	1	UNK0	0.000	
14	   C	-0.376	-1.959	-2.077	C.2	1	UNK0	0.000	
15	   O	-0.565	-3.048	-2.676	O.2	1	UNK0	0.000	
16	   C	0.232	1.645	-0.033	C.3	1	UNK0	0.000	
17	   N	0.137	1.663	1.392	N.4	1	UNK0	0.000	
18	   C	1.109	0.848	2.068	C.3	1	UNK0	0.000	
19	   C	2.194	0.324	1.151	C.3	1	UNK0	0.000	
20	   C	2.650	1.454	0.259	C.2	1	UNK0	0.000	
21	   C	1.622	2.144	-0.332	C.2	1	UNK0	0.000	
22	   C	1.882	3.221	-1.145	C.2	1	UNK0	0.000	
23	   C	3.212	3.568	-1.335	C.2	1	UNK0	0.000	
24	   C	4.257	2.884	-0.749	C.2	1	UNK0	0.000	
25	   C	3.948	1.798	0.069	C.2	1	UNK0	0.000	
26	   O	5.446	3.480	-1.139	O.3	1	UNK0	0.000	
27	   C	5.194	4.323	-2.275	C.3	1	UNK0	0.000	
28	   O	3.817	4.589	-2.084	O.3	1	UNK0	0.000	
29	   O	0.852	3.903	-1.728	O.3	1	UNK0	0.000	
30	   C	0.167	4.998	-1.209	C.3	1	UNK0	0.000	
31	   C	0.471	3.058	1.782	C.3	1	UNK0	0.000	
32	   O	-1.497	-0.416	0.944	O.2	1	UNK0	0.000	
33	   H	-4.930	-4.194	-0.885	 H	1	UNK0	0.000	
34	   H	-3.459	-2.406	-1.762	 H	1	UNK0	0.000	
35	   H	-0.465	-3.414	1.041	 H	1	UNK0	0.000	
36	   H	-1.970	-5.218	1.914	 H	1	UNK0	0.000	
37	   H	0.924	-1.208	-3.499	 H	1	UNK0	0.000	
38	   H	-0.452	2.403	-0.452	 H	1	UNK0	0.000	
39	   H	-0.810	1.565	1.794	 H	1	UNK0	0.000	
40	   H	0.640	-0.020	2.557	 H	1	UNK0	0.000	
41	   H	1.650	1.393	2.891	 H	1	UNK0	0.000	
42	   H	1.922	-0.576	0.588	 H	1	UNK0	0.000	
43	   H	3.082	0.063	1.763	 H	1	UNK0	0.000	
44	   H	4.720	1.233	0.548	 H	1	UNK0	0.000	
45	   H	5.271	3.700	-3.196	 H	1	UNK0	0.000	
46	   H	5.822	5.212	-2.282	 H	1	UNK0	0.000	
47	   H	-0.911	4.694	-1.086	 H	1	UNK0	0.000	
48	   H	0.565	5.384	-0.256	 H	1	UNK0	0.000	
49	   H	0.126	5.867	-1.919	 H	1	UNK0	0.000	
50	   H	-0.264	3.747	1.371	 H	1	UNK0	0.000	
51	   H	1.515	3.242	1.495	 H	1	UNK0	0.000	
52	   H	0.450	3.108	2.904	 H	1	UNK0	0.000	
@<TRIPOS>BOND
1 1 2 1
2 2 3 2
3 2 7 1
4 3 4 1
5 4 5 2
6 5 6 1
7 5 8 1
8 6 7 2
9 8 9 1
10 8 14 1
11 9 10 2
12 9 32 1
13 10 11 1
14 10 16 1
15 11 12 2
16 11 13 1
17 13 14 1
18 14 15 2
19 16 17 1
20 16 21 1
21 17 18 1
22 17 31 1
23 18 19 1
24 19 20 1
25 20 21 2
26 20 25 1
27 21 22 1
28 22 23 2
29 22 29 1
30 23 24 1
31 23 28 1
32 24 25 2
33 24 26 1
34 26 27 1
35 27 28 1
36 29 30 1
37 3 33 1
38 4 34 1
39 6 35 1
40 7 36 1
41 13 37 1
42 16 38 1
43 17 39 1
44 18 40 1
45 18 41 1
46 19 42 1
47 19 43 1
48 25 44 1
49 27 45 1
50 27 46 1
51 30 47 1
52 30 48 1
53 30 49 1
54 31 50 1
55 31 51 1
56 31 52 1
@<TRIPOS>SUBSTRUCTURE
1	UNK0	1	GROUP	1 ****	UNK
