REMARK  3 active torsions:
REMARK  status: ('A' for Active; 'I' for Inactive)
REMARK    1  A    between atoms: C_5  and  N_8 
REMARK    2  A    between atoms: C_10  and  C_16 
REMARK    3  A    between atoms: C_22  and  O_29 
ROOT
ATOM      1  N   UNK d   1      -1.021  -1.773  -0.914  0.00  0.00    -0.241 N 
ATOM      2  C   UNK d   1      -0.844  -0.621  -0.244  0.00  0.00     0.204 A 
ATOM      3  C   UNK d   1      -0.022   0.384  -0.705  0.00  0.00     0.100 A 
ATOM      4  C   UNK d   1       0.615   0.140  -1.906  0.00  0.00     0.262 A 
ATOM      5  O   UNK d   1       1.403   0.962  -2.464  0.00  0.00    -0.267 OA
ATOM      6  N   UNK d   1       0.443  -1.029  -2.598  0.00  0.00    -0.274 N 
ATOM      7  C   UNK d   1      -0.376  -1.959  -2.077  0.00  0.00     0.336 A 
ATOM      8  O   UNK d   1      -0.565  -3.048  -2.676  0.00  0.00    -0.246 OA
ATOM      9  O   UNK d   1      -1.497  -0.416   0.944  0.00  0.00    -0.171 OA
ATOM     10  H   UNK d   1       0.924  -1.208  -3.499  0.00  0.00     0.173 HD
ENDROOT
BRANCH   3  11
ATOM     11  C   UNK d   1       0.232   1.645  -0.033  0.00  0.00     0.267 C 
ATOM     12  N   UNK d   1       0.137   1.663   1.392  0.00  0.00    -0.062 N 
ATOM     13  C   UNK d   1       1.109   0.848   2.068  0.00  0.00     0.240 C 
ATOM     14  C   UNK d   1       0.471   3.058   1.782  0.00  0.00     0.270 C 
ATOM     15  H   UNK d   1      -0.810   1.565   1.794  0.00  0.00     0.280 HD
ATOM     16  C   UNK d   1       2.194   0.324   1.151  0.00  0.00     0.067 C 
ATOM     17  C   UNK d   1       2.650   1.454   0.259  0.00  0.00    -0.042 A 
ATOM     18  C   UNK d   1       1.622   2.144  -0.332  0.00  0.00     0.020 A 
ATOM     19  C   UNK d   1       3.948   1.798   0.069  0.00  0.00     0.047 A 
ATOM     20  C   UNK d   1       1.882   3.221  -1.145  0.00  0.00     0.113 A 
ATOM     21  C   UNK d   1       3.212   3.568  -1.335  0.00  0.00     0.139 A 
ATOM     22  C   UNK d   1       4.257   2.884  -0.749  0.00  0.00     0.108 A 
ATOM     23  O   UNK d   1       3.817   4.589  -2.084  0.00  0.00    -0.320 OA
ATOM     24  O   UNK d   1       5.446   3.480  -1.139  0.00  0.00    -0.323 OA
ATOM     25  C   UNK d   1       5.194   4.323  -2.275  0.00  0.00     0.352 C 
BRANCH  20  26
ATOM     26  O   UNK d   1       0.852   3.903  -1.728  0.00  0.00    -0.352 OA
ATOM     27  C   UNK d   1       0.167   4.998  -1.209  0.00  0.00     0.210 C 
ENDBRANCH  20  26
ENDBRANCH   3  11
BRANCH   1  28
ATOM     28  C   UNK d   1      -1.872  -2.795  -0.419  0.00  0.00     0.046 A 
ATOM     29  C   UNK d   1      -3.132  -3.034  -0.944  0.00  0.00     0.031 A 
ATOM     30  C   UNK d   1      -3.952  -4.016  -0.470  0.00  0.00     0.020 A 
ATOM     31  C   UNK d   1      -3.541  -4.829   0.581  0.00  0.00     0.006 A 
ATOM     32  I   UNK d   1      -4.812  -6.336   1.301  0.00  0.00    -0.045 I 
ATOM     33  C   UNK d   1      -2.291  -4.595   1.104  0.00  0.00     0.020 A 
ATOM     34  C   UNK d   1      -1.455  -3.605   0.632  0.00  0.00     0.031 A 
ENDBRANCH   1  28
TORSDOF 3
