# created with PyMOL 2.3.2
@<TRIPOS>MOLECULE
950
40 43 1                 
SMALL
USER_CHARGES
@<TRIPOS>ATOM
1	   I	-1.953	-6.017	1.017	 I	1	UNK0	0.000	
2	   C	-0.235	-6.223	-0.145	C.2	1	UNK0	0.000	
3	   C	0.269	-7.446	-0.588	C.2	1	UNK0	0.000	
4	   N	1.382	-7.215	-1.286	N.pl3	1	UNK0	0.000	
5	   N	1.581	-5.926	-1.291	N.2	1	UNK0	0.000	
6	   C	0.600	-5.259	-0.594	C.2	1	UNK0	0.000	
7	   C	0.578	-3.790	-0.469	C.2	1	UNK0	0.000	
8	   O	1.633	-3.191	-0.876	O.2	1	UNK0	0.000	
9	   N	-0.481	-3.053	0.043	N.pl3	1	UNK0	0.000	
10	   C	-0.554	-1.648	0.188	C.2	1	UNK0	0.000	
11	   C	-1.729	-1.121	0.733	C.2	1	UNK0	0.000	
12	   N	-2.855	-1.715	1.165	N.2	1	UNK0	0.000	
13	   O	-3.670	-0.794	1.588	O.3	1	UNK0	0.000	
14	   N	-3.133	0.379	1.454	N.2	1	UNK0	0.000	
15	   C	-1.907	0.225	0.918	C.2	1	UNK0	0.000	
16	   C	-0.907	1.104	0.562	C.2	1	UNK0	0.000	
17	   C	0.242	0.576	0.029	C.2	1	UNK0	0.000	
18	   C	0.433	-0.798	-0.165	C.2	1	UNK0	0.000	
19	   N	-1.110	2.493	0.761	N.pl3	1	UNK0	0.000	
20	   C	-1.359	3.020	2.087	C.3	1	UNK0	0.000	
21	   C	-1.451	4.504	2.010	C.3	1	UNK0	0.000	
22	   O	-0.420	5.102	1.312	O.3	1	UNK0	0.000	
23	   C	-0.257	4.667	0.035	C.3	1	UNK0	0.000	
24	   C	-1.082	3.456	-0.322	C.3	1	UNK0	0.000	
25	   C	2.206	-8.254	-1.919	C.3	1	UNK0	0.000	
26	   H	-0.150	-8.434	-0.412	 H	1	UNK0	0.000	
27	   H	-1.328	-3.631	0.344	 H	1	UNK0	0.000	
28	   H	1.023	1.267	-0.249	 H	1	UNK0	0.000	
29	   H	1.383	-1.095	-0.594	 H	1	UNK0	0.000	
30	   H	-0.508	2.695	2.720	 H	1	UNK0	0.000	
31	   H	-2.333	2.643	2.491	 H	1	UNK0	0.000	
32	   H	-1.529	4.900	3.042	 H	1	UNK0	0.000	
33	   H	-2.403	4.756	1.469	 H	1	UNK0	0.000	
34	   H	-0.551	5.481	-0.660	 H	1	UNK0	0.000	
35	   H	0.825	4.458	-0.182	 H	1	UNK0	0.000	
36	   H	-0.583	2.961	-1.181	 H	1	UNK0	0.000	
37	   H	-2.105	3.723	-0.644	 H	1	UNK0	0.000	
38	   H	1.542	-9.086	-2.177	 H	1	UNK0	0.000	
39	   H	2.591	-7.810	-2.866	 H	1	UNK0	0.000	
40	   H	3.007	-8.549	-1.223	 H	1	UNK0	0.000	
@<TRIPOS>BOND
1 1 2 1
2 2 3 2
3 2 6 1
4 3 4 1
5 4 5 1
6 4 25 1
7 5 6 2
8 6 7 1
9 7 8 2
10 7 9 1
11 9 10 1
12 10 11 1
13 10 18 2
14 11 12 2
15 11 15 1
16 12 13 1
17 13 14 1
18 14 15 2
19 15 16 1
20 16 17 2
21 16 19 1
22 17 18 1
23 19 20 1
24 19 24 1
25 20 21 1
26 21 22 1
27 22 23 1
28 23 24 1
29 3 26 1
30 9 27 1
31 17 28 1
32 18 29 1
33 20 30 1
34 20 31 1
35 21 32 1
36 21 33 1
37 23 34 1
38 23 35 1
39 24 36 1
40 24 37 1
41 25 38 1
42 25 39 1
43 25 40 1
@<TRIPOS>SUBSTRUCTURE
1	UNK0	1	GROUP	1 ****	UNK
