REMARK  3 active torsions:
REMARK  status: ('A' for Active; 'I' for Inactive)
REMARK    1  A    between atoms: C_6  and  C_7 
REMARK       I    between atoms: C_7  and  N_9 
REMARK    2  A    between atoms: N_9  and  C_10 
REMARK    3  A    between atoms: C_16  and  N_19 
ROOT
ATOM      1  C   UNK d   1      -0.554  -1.648   0.188  0.00  0.00     0.069 A 
ATOM      2  C   UNK d   1      -1.729  -1.121   0.733  0.00  0.00     0.146 A 
ATOM      3  N   UNK d   1      -2.855  -1.715   1.165  0.00  0.00    -0.101 NA
ATOM      4  O   UNK d   1      -3.670  -0.794   1.588  0.00  0.00    -0.106 OA
ATOM      5  N   UNK d   1      -3.133   0.379   1.454  0.00  0.00    -0.101 NA
ATOM      6  C   UNK d   1      -1.907   0.225   0.918  0.00  0.00     0.146 A 
ATOM      7  C   UNK d   1      -0.907   1.104   0.562  0.00  0.00     0.064 A 
ATOM      8  C   UNK d   1       0.242   0.576   0.029  0.00  0.00     0.034 A 
ATOM      9  C   UNK d   1       0.433  -0.798  -0.165  0.00  0.00     0.034 A 
ENDROOT
BRANCH   1  10
ATOM     10  N   UNK d   1      -0.481  -3.053   0.043  0.00  0.00    -0.319 N 
ATOM     11  C   UNK d   1       0.578  -3.790  -0.469  0.00  0.00     0.278 C 
ATOM     12  O   UNK d   1       1.633  -3.191  -0.876  0.00  0.00    -0.265 OA
ATOM     13  H   UNK d   1      -1.328  -3.631   0.344  0.00  0.00     0.169 HD
BRANCH  11  14
ATOM     14  C   UNK d   1       0.600  -5.259  -0.594  0.00  0.00     0.162 A 
ATOM     15  C   UNK d   1      -0.235  -6.223  -0.145  0.00  0.00     0.059 A 
ATOM     16  I   UNK d   1      -1.953  -6.017   1.017  0.00  0.00    -0.040 I 
ATOM     17  C   UNK d   1       0.269  -7.446  -0.588  0.00  0.00     0.132 A 
ATOM     18  N   UNK d   1       1.382  -7.215  -1.286  0.00  0.00    -0.283 N 
ATOM     19  N   UNK d   1       1.581  -5.926  -1.291  0.00  0.00    -0.166 NA
ATOM     20  C   UNK d   1       2.206  -8.254  -1.919  0.00  0.00     0.179 C 
ENDBRANCH  11  14
ENDBRANCH   1  10
BRANCH   7  21
ATOM     21  N   UNK d   1      -1.110   2.493   0.761  0.00  0.00    -0.375 N 
ATOM     22  C   UNK d   1      -1.359   3.020   2.087  0.00  0.00     0.149 C 
ATOM     23  C   UNK d   1      -1.451   4.504   2.010  0.00  0.00     0.187 C 
ATOM     24  O   UNK d   1      -0.420   5.102   1.312  0.00  0.00    -0.388 OA
ATOM     25  C   UNK d   1      -0.257   4.667   0.035  0.00  0.00     0.187 C 
ATOM     26  C   UNK d   1      -1.082   3.456  -0.322  0.00  0.00     0.149 C 
ENDBRANCH   7  21
TORSDOF 3
