# created with PyMOL 2.3.2
@<TRIPOS>MOLECULE
956
44 47 1                 
SMALL
USER_CHARGES
@<TRIPOS>ATOM
1	   I	2.809	2.293	1.152	 I	1	UNK0	0.000	
2	   C	1.235	0.905	0.952	C.2	1	UNK0	0.000	
3	   C	0.205	0.973	0.061	C.2	1	UNK0	0.000	
4	   C	-0.560	-0.164	0.324	C.2	1	UNK0	0.000	
5	   N	-0.040	-0.892	1.313	N.pl3	1	UNK0	0.000	
6	   C	1.058	-0.245	1.703	C.2	1	UNK0	0.000	
7	   C	-0.522	-2.118	1.875	C.3	1	UNK0	0.000	
8	   O	-0.869	-3.070	0.924	O.3	1	UNK0	0.000	
9	   C	-1.421	-4.083	1.703	C.3	1	UNK0	0.000	
10	   C	-2.246	-3.413	2.777	C.3	1	UNK0	0.000	
11	   C	-1.858	-1.940	2.601	C.3	1	UNK0	0.000	
12	   O	-1.822	-3.776	4.056	O.3	1	UNK0	0.000	
13	   C	-2.402	-4.912	0.862	C.3	1	UNK0	0.000	
14	   O	-1.707	-5.474	-0.217	O.3	1	UNK0	0.000	
15	   N	-1.661	-0.359	-0.421	N.2	1	UNK0	0.000	
16	   C	-2.011	0.510	-1.382	C.2	1	UNK0	0.000	
17	   N	-1.276	1.598	-1.631	N.2	1	UNK0	0.000	
18	   C	-0.139	1.874	-0.920	C.2	1	UNK0	0.000	
19	   N	0.605	3.048	-1.229	N.pl3	1	UNK0	0.000	
20	   C	0.137	3.897	-2.273	C.2	1	UNK0	0.000	
21	   O	-0.918	3.554	-2.865	O.2	1	UNK0	0.000	
22	   C	0.789	5.109	-2.687	C.2	1	UNK0	0.000	
23	   C	1.884	5.589	-2.023	C.2	1	UNK0	0.000	
24	   C	2.531	6.763	-2.415	C.2	1	UNK0	0.000	
25	   C	2.063	7.458	-3.491	C.2	1	UNK0	0.000	
26	   C	0.967	7.001	-4.176	C.2	1	UNK0	0.000	
27	   C	0.334	5.822	-3.766	C.2	1	UNK0	0.000	
28	   H	1.760	-0.528	2.494	 H	1	UNK0	0.000	
29	   H	0.174	-2.525	2.619	 H	1	UNK0	0.000	
30	   H	-0.631	-4.742	2.120	 H	1	UNK0	0.000	
31	   H	-3.326	-3.567	2.665	 H	1	UNK0	0.000	
32	   H	-2.581	-1.488	1.899	 H	1	UNK0	0.000	
33	   H	-1.750	-1.419	3.554	 H	1	UNK0	0.000	
34	   H	-2.169	-4.711	4.195	 H	1	UNK0	0.000	
35	   H	-2.826	-5.736	1.449	 H	1	UNK0	0.000	
36	   H	-3.178	-4.249	0.463	 H	1	UNK0	0.000	
37	   H	-1.406	-6.412	0.002	 H	1	UNK0	0.000	
38	   H	-2.920	0.319	-1.973	 H	1	UNK0	0.000	
39	   H	1.465	3.350	-0.763	 H	1	UNK0	0.000	
40	   H	2.329	5.102	-1.151	 H	1	UNK0	0.000	
41	   H	3.389	7.127	-1.885	 H	1	UNK0	0.000	
42	   H	2.538	8.391	-3.841	 H	1	UNK0	0.000	
43	   H	0.614	7.559	-5.018	 H	1	UNK0	0.000	
44	   H	-0.511	5.519	-4.337	 H	1	UNK0	0.000	
@<TRIPOS>BOND
1 1 2 1
2 2 3 1
3 2 6 2
4 3 4 2
5 3 18 1
6 4 5 1
7 4 15 1
8 5 6 1
9 5 7 1
10 7 8 1
11 7 11 1
12 8 9 1
13 9 10 1
14 9 13 1
15 10 11 1
16 10 12 1
17 13 14 1
18 15 16 2
19 16 17 1
20 17 18 2
21 18 19 1
22 19 20 1
23 20 21 2
24 20 22 1
25 22 23 2
26 22 27 1
27 23 24 1
28 24 25 2
29 25 26 1
30 26 27 2
31 6 28 1
32 7 29 1
33 9 30 1
34 10 31 1
35 11 32 1
36 11 33 1
37 12 34 1
38 13 35 1
39 13 36 1
40 14 37 1
41 16 38 1
42 19 39 1
43 23 40 1
44 24 41 1
45 25 42 1
46 26 43 1
47 27 44 1
@<TRIPOS>SUBSTRUCTURE
1	UNK0	1	GROUP	1 ****	UNK
