REMARK  6 active torsions:
REMARK  status: ('A' for Active; 'I' for Inactive)
REMARK    1  A    between atoms: N_5  and  C_7 
REMARK    2  A    between atoms: C_9  and  C_13 
REMARK    3  A    between atoms: C_10  and  O_12 
REMARK    4  A    between atoms: C_13  and  O_14 
REMARK    5  A    between atoms: C_18  and  N_19 
REMARK       I    between atoms: N_19  and  C_20 
REMARK    6  A    between atoms: C_20  and  C_22 
ROOT
ATOM      1  I   UNK d   1       2.809   2.293   1.152  0.00  0.00    -0.042 I 
ATOM      2  C   UNK d   1       1.235   0.905   0.952  0.00  0.00     0.040 A 
ATOM      3  C   UNK d   1       0.205   0.973   0.061  0.00  0.00     0.074 A 
ATOM      4  C   UNK d   1      -0.560  -0.164   0.324  0.00  0.00     0.148 A 
ATOM      5  N   UNK d   1      -0.040  -0.892   1.313  0.00  0.00    -0.312 N 
ATOM      6  C   UNK d   1       1.058  -0.245   1.703  0.00  0.00     0.114 A 
ATOM      7  N   UNK d   1      -1.661  -0.359  -0.421  0.00  0.00    -0.223 NA
ATOM      8  C   UNK d   1      -2.011   0.510  -1.382  0.00  0.00     0.237 A 
ATOM      9  N   UNK d   1      -1.276   1.598  -1.631  0.00  0.00    -0.223 NA
ATOM     10  C   UNK d   1      -0.139   1.874  -0.920  0.00  0.00     0.147 A 
ENDROOT
BRANCH   5  11
ATOM     11  C   UNK d   1      -0.522  -2.118   1.875  0.00  0.00     0.232 C 
ATOM     12  O   UNK d   1      -0.869  -3.070   0.924  0.00  0.00    -0.356 OA
ATOM     13  C   UNK d   1      -1.421  -4.083   1.703  0.00  0.00     0.176 C 
ATOM     14  C   UNK d   1      -2.246  -3.413   2.777  0.00  0.00     0.153 C 
ATOM     15  C   UNK d   1      -1.858  -1.940   2.601  0.00  0.00     0.088 C 
BRANCH  13  16
ATOM     16  C   UNK d   1      -2.402  -4.912   0.862  0.00  0.00     0.198 C 
BRANCH  16  17
ATOM     17  O   UNK d   1      -1.707  -5.474  -0.217  0.00  0.00    -0.398 OA
ATOM     18  H   UNK d   1      -1.406  -6.412   0.002  0.00  0.00     0.209 HD
ENDBRANCH  16  17
ENDBRANCH  13  16
BRANCH  14  19
ATOM     19  O   UNK d   1      -1.822  -3.776   4.056  0.00  0.00    -0.393 OA
ATOM     20  H   UNK d   1      -2.169  -4.711   4.195  0.00  0.00     0.210 HD
ENDBRANCH  14  19
ENDBRANCH   5  11
BRANCH  10  21
ATOM     21  N   UNK d   1       0.605   3.048  -1.229  0.00  0.00    -0.306 N 
ATOM     22  C   UNK d   1       0.137   3.897  -2.273  0.00  0.00     0.257 C 
ATOM     23  O   UNK d   1      -0.918   3.554  -2.865  0.00  0.00    -0.267 OA
ATOM     24  H   UNK d   1       1.465   3.350  -0.763  0.00  0.00     0.170 HD
BRANCH  22  25
ATOM     25  C   UNK d   1       0.789   5.109  -2.687  0.00  0.00     0.032 A 
ATOM     26  C   UNK d   1       1.884   5.589  -2.023  0.00  0.00     0.017 A 
ATOM     27  C   UNK d   1       2.531   6.763  -2.415  0.00  0.00     0.001 A 
ATOM     28  C   UNK d   1       2.063   7.458  -3.491  0.00  0.00     0.000 A 
ATOM     29  C   UNK d   1       0.967   7.001  -4.176  0.00  0.00     0.001 A 
ATOM     30  C   UNK d   1       0.334   5.822  -3.766  0.00  0.00     0.017 A 
ENDBRANCH  22  25
ENDBRANCH  10  21
TORSDOF 6
