REMARK  3 active torsions:
REMARK  status: ('A' for Active; 'I' for Inactive)
REMARK    1  A    between atoms: C_7  and  C_8 
REMARK    2  A    between atoms: C_9  and  C_10 
REMARK    3  A    between atoms: C_16  and  C_19 
ROOT
ATOM      1  C   UNK d   1      -0.560  -0.841  -0.493  0.00  0.00     0.065 A 
ATOM      2  N   UNK d   1      -1.464  -1.281  -1.335  0.00  0.00    -0.359 N 
ATOM      3  C   UNK d   1      -2.782  -0.971  -1.145  0.00  0.00     0.093 A 
ATOM      4  C   UNK d   1      -3.240  -0.211  -0.113  0.00  0.00     0.049 A 
ATOM      5  C   UNK d   1      -2.319   0.272   0.791  0.00  0.00     0.068 A 
ATOM      6  N   UNK d   1      -2.400   1.049   1.926  0.00  0.00    -0.333 N 
ATOM      7  C   UNK d   1      -1.189   1.219   2.429  0.00  0.00     0.141 A 
ATOM      8  N   UNK d   1      -0.343   0.545   1.603  0.00  0.00    -0.226 NA
ATOM      9  C   UNK d   1      -1.005  -0.041   0.598  0.00  0.00     0.113 A 
ATOM     10  C   UNK d   1      -3.670   1.551   2.368  0.00  0.00     0.158 C 
ATOM     11  C   UNK d   1      -1.120  -2.026  -2.510  0.00  0.00     0.156 C 
ENDROOT
BRANCH   1  12
ATOM     12  C   UNK d   1       0.856  -1.159  -0.490  0.00  0.00     0.033 C 
ATOM     13  C   UNK d   1       1.538  -2.076  -1.080  0.00  0.00     0.015 C 
BRANCH  13  14
ATOM     14  C   UNK d   1       2.949  -2.388  -1.086  0.00  0.00    -0.016 A 
ATOM     15  C   UNK d   1       3.949  -1.641  -0.557  0.00  0.00     0.024 A 
ATOM     16 Br   UNK d   1       3.589   0.083   0.171  0.00  0.00    -0.050 Br
ATOM     17  C   UNK d   1       5.298  -2.076  -0.563  0.00  0.00     0.059 A 
ATOM     18  C   UNK d   1       5.640  -3.282  -1.112  0.00  0.00     0.106 A 
ATOM     19  C   UNK d   1       4.645  -4.062  -1.659  0.00  0.00     0.105 A 
ATOM     20  O   UNK d   1       6.837  -3.986  -1.276  0.00  0.00    -0.323 OA
ATOM     21  C   UNK d   1       3.338  -3.630  -1.648  0.00  0.00     0.052 A 
ATOM     22  O   UNK d   1       5.257  -5.228  -2.148  0.00  0.00    -0.323 OA
ATOM     23  C   UNK d   1       6.474  -5.356  -1.442  0.00  0.00     0.352 C 
ENDBRANCH  13  14
ENDBRANCH   1  12
BRANCH   7  24
ATOM     24  C   UNK d   1      -0.771   1.982   3.611  0.00  0.00     0.010 A 
ATOM     25  C   UNK d   1      -1.609   2.555   4.509  0.00  0.00     0.015 A 
ATOM     26  C   UNK d   1      -1.091   3.290   5.592  0.00  0.00     0.001 A 
ATOM     27  C   UNK d   1       0.269   3.432   5.747  0.00  0.00     0.000 A 
ATOM     28  C   UNK d   1       1.149   2.854   4.842  0.00  0.00     0.001 A 
ATOM     29  C   UNK d   1       0.608   2.155   3.814  0.00  0.00     0.015 A 
ENDBRANCH   7  24
TORSDOF 3
