# created with PyMOL 2.3.2
@<TRIPOS>MOLECULE
961
48 52 1                 
SMALL
USER_CHARGES
@<TRIPOS>ATOM
1	  Br	3.589	0.083	0.171	Br	1	UNK0	0.000	
2	   C	3.949	-1.641	-0.557	C.2	1	UNK0	0.000	
3	   C	5.298	-2.076	-0.563	C.2	1	UNK0	0.000	
4	   C	5.640	-3.282	-1.112	C.2	1	UNK0	0.000	
5	   C	4.645	-4.062	-1.659	C.2	1	UNK0	0.000	
6	   C	3.338	-3.630	-1.648	C.2	1	UNK0	0.000	
7	   C	2.949	-2.388	-1.086	C.2	1	UNK0	0.000	
8	   C	1.538	-2.076	-1.080	C.2	1	UNK0	0.000	
9	   C	0.856	-1.159	-0.490	C.2	1	UNK0	0.000	
10	   C	-0.560	-0.841	-0.493	C.2	1	UNK0	0.000	
11	   N	-1.464	-1.281	-1.335	N.pl3	1	UNK0	0.000	
12	   C	-2.782	-0.971	-1.145	C.2	1	UNK0	0.000	
13	   C	-3.240	-0.211	-0.113	C.2	1	UNK0	0.000	
14	   C	-2.319	0.272	0.791	C.2	1	UNK0	0.000	
15	   N	-2.400	1.049	1.926	N.pl3	1	UNK0	0.000	
16	   C	-1.189	1.219	2.429	C.2	1	UNK0	0.000	
17	   N	-0.343	0.545	1.603	N.2	1	UNK0	0.000	
18	   C	-1.005	-0.041	0.598	C.2	1	UNK0	0.000	
19	   C	-0.771	1.982	3.611	C.2	1	UNK0	0.000	
20	   C	-1.609	2.555	4.509	C.2	1	UNK0	0.000	
21	   C	-1.091	3.290	5.592	C.2	1	UNK0	0.000	
22	   C	0.269	3.432	5.747	C.2	1	UNK0	0.000	
23	   C	1.149	2.854	4.842	C.2	1	UNK0	0.000	
24	   C	0.608	2.155	3.814	C.2	1	UNK0	0.000	
25	   C	-3.670	1.551	2.368	C.3	1	UNK0	0.000	
26	   C	-1.120	-2.026	-2.510	C.3	1	UNK0	0.000	
27	   O	5.257	-5.228	-2.148	O.3	1	UNK0	0.000	
28	   C	6.474	-5.356	-1.442	C.3	1	UNK0	0.000	
29	   O	6.837	-3.986	-1.276	O.3	1	UNK0	0.000	
30	   H	6.031	-1.423	-0.120	 H	1	UNK0	0.000	
31	   H	2.566	-4.261	-2.084	 H	1	UNK0	0.000	
32	   H	0.927	-2.786	-1.669	 H	1	UNK0	0.000	
33	   H	1.477	-0.496	0.148	 H	1	UNK0	0.000	
34	   H	-3.496	-1.362	-1.866	 H	1	UNK0	0.000	
35	   H	-4.279	0.040	0.048	 H	1	UNK0	0.000	
36	   H	-2.684	2.456	4.432	 H	1	UNK0	0.000	
37	   H	-1.779	3.736	6.290	 H	1	UNK0	0.000	
38	   H	0.674	3.998	6.581	 H	1	UNK0	0.000	
39	   H	2.219	2.951	4.942	 H	1	UNK0	0.000	
40	   H	1.294	1.697	3.096	 H	1	UNK0	0.000	
41	   H	-4.072	1.095	3.279	 H	1	UNK0	0.000	
42	   H	-4.467	1.369	1.562	 H	1	UNK0	0.000	
43	   H	-3.720	2.659	2.469	 H	1	UNK0	0.000	
44	   H	-1.157	-3.118	-2.408	 H	1	UNK0	0.000	
45	   H	-1.984	-1.835	-3.259	 H	1	UNK0	0.000	
46	   H	-0.268	-1.606	-3.079	 H	1	UNK0	0.000	
47	   H	6.265	-5.827	-0.459	 H	1	UNK0	0.000	
48	   H	7.243	-5.901	-2.030	 H	1	UNK0	0.000	
@<TRIPOS>BOND
1 1 2 1
2 2 3 2
3 2 7 1
4 3 4 1
5 4 5 2
6 4 29 1
7 5 6 1
8 5 27 1
9 6 7 2
10 7 8 1
11 8 9 2
12 9 10 1
13 10 11 2
14 10 18 1
15 11 12 1
16 11 26 1
17 12 13 2
18 13 14 1
19 14 15 1
20 14 18 2
21 15 16 1
22 15 25 1
23 16 17 2
24 16 19 1
25 17 18 1
26 19 20 2
27 19 24 1
28 20 21 1
29 21 22 2
30 22 23 1
31 23 24 2
32 27 28 1
33 28 29 1
34 3 30 1
35 6 31 1
36 8 32 1
37 9 33 1
38 12 34 1
39 13 35 1
40 20 36 1
41 21 37 1
42 22 38 1
43 23 39 1
44 24 40 1
45 25 41 1
46 25 42 1
47 25 43 1
48 26 44 1
49 26 45 1
50 26 46 1
51 28 47 1
52 28 48 1
@<TRIPOS>SUBSTRUCTURE
1	UNK0	1	GROUP	1 ****	UNK
