REMARK  2 active torsions:
REMARK  status: ('A' for Active; 'I' for Inactive)
REMARK    1  A    between atoms: C_10  and  C_21 
REMARK    2  A    between atoms: C_26  and  C_27 
ROOT
ATOM      1 Br   UNK d   1       0.759   4.813  -2.734  0.00  0.00    -0.045 Br
ATOM      2  C   UNK d   1       0.992   3.374  -1.514  0.00  0.00     0.083 A 
ATOM      3  C   UNK d   1      -0.036   2.511  -1.145  0.00  0.00     0.107 A 
ATOM      4  C   UNK d   1       0.185   1.477  -0.250  0.00  0.00     0.013 A 
ATOM      5  C   UNK d   1       1.440   1.288   0.292  0.00  0.00     0.037 A 
ATOM      6  C   UNK d   1       2.455   2.131  -0.065  0.00  0.00     0.049 A 
ATOM      7  C   UNK d   1       2.229   3.153  -0.952  0.00  0.00     0.144 A 
ATOM      8  O   UNK d   1       3.323   3.978  -1.272  0.00  0.00    -0.189 OA
ATOM      9 Br   UNK d   1       4.176   1.811   0.724  0.00  0.00    -0.048 Br
ATOM     10  C   UNK d   1      -0.815   0.609   0.132  0.00  0.00     0.003 A 
ATOM     11  C   UNK d   1      -2.066   0.804  -0.415  0.00  0.00     0.013 A 
ATOM     12  C   UNK d   1      -2.209   1.924  -1.353  0.00  0.00     0.108 A 
ATOM     13  C   UNK d   1      -3.481   2.109  -1.897  0.00  0.00     0.097 A 
ATOM     14  C   UNK d   1      -4.519   1.274  -1.554  0.00  0.00     0.209 A 
ATOM     15  O   UNK d   1      -5.647   1.479  -2.070  0.00  0.00    -0.285 OA
ATOM     16  C   UNK d   1      -4.351   0.221  -0.661  0.00  0.00     0.063 A 
ATOM     17  C   UNK d   1      -3.134  -0.018  -0.092  0.00  0.00     0.038 A 
ATOM     18 Br   UNK d   1      -5.848  -0.891  -0.241  0.00  0.00    -0.047 Br
ATOM     19 Br   UNK d   1      -3.742   3.558  -3.132  0.00  0.00    -0.044 Br
ATOM     20  O   UNK d   1      -1.214   2.716  -1.676  0.00  0.00    -0.306 OA
ENDROOT
BRANCH  10  21
ATOM     21  C   UNK d   1      -0.581  -0.478   1.084  0.00  0.00     0.016 A 
ATOM     22  C   UNK d   1      -0.776  -0.282   2.439  0.00  0.00     0.046 A 
ATOM     23  C   UNK d   1      -0.557  -1.288   3.356  0.00  0.00     0.026 A 
ATOM     24 Cl   UNK d   1      -1.321   1.302   3.002  0.00  0.00    -0.083 Cl
ATOM     25  C   UNK d   1      -0.133  -2.518   2.897  0.00  0.00     0.026 A 
ATOM     26  C   UNK d   1       0.071  -2.754   1.572  0.00  0.00     0.052 A 
ATOM     27  C   UNK d   1      -0.152  -1.737   0.670  0.00  0.00     0.075 A 
ATOM     28 Cl   UNK d   1       0.610  -4.350   1.075  0.00  0.00    -0.083 Cl
BRANCH  27  29
ATOM     29  C   UNK d   1       0.067  -1.977  -0.736  0.00  0.00     0.212 C 
ATOM     30  O   UNK d   1       1.153  -1.687  -1.309  0.00  0.00    -0.644 OA
ATOM     31  O   UNK d   1      -0.935  -2.547  -1.518  0.00  0.00    -0.644 OA
ENDBRANCH  27  29
ENDBRANCH  10  21
TORSDOF 2
