REMARK  0 active torsions:
REMARK  status: ('A' for Active; 'I' for Inactive)
ROOT
ATOM      1 Br   UNK d   1      -3.335  -3.791   1.954  0.00  0.00    -0.045 Br
ATOM      2  C   UNK d   1      -1.555  -3.569   1.306  0.00  0.00     0.083 A 
ATOM      3  C   UNK d   1      -1.005  -2.291   1.094  0.00  0.00     0.106 A 
ATOM      4  C   UNK d   1       0.262  -2.090   0.632  0.00  0.00     0.023 A 
ATOM      5  C   UNK d   1       1.037  -3.220   0.362  0.00  0.00     0.036 A 
ATOM      6  C   UNK d   1       0.504  -4.458   0.567  0.00  0.00     0.049 A 
ATOM      7  C   UNK d   1      -0.777  -4.668   1.035  0.00  0.00     0.144 A 
ATOM      8  O   UNK d   1      -1.260  -5.974   1.223  0.00  0.00    -0.189 OA
ATOM      9 Br   UNK d   1       1.556  -6.007   0.201  0.00  0.00    -0.048 Br
ATOM     10  C   UNK d   1       0.804  -0.754   0.423  0.00  0.00     0.159 A 
ATOM     11  O   UNK d   1       1.906  -0.617   1.318  0.00  0.00    -0.291 OA
ATOM     12  C   UNK d   1       3.082  -0.393   0.656  0.00  0.00     0.295 A 
ATOM     13  O   UNK d   1       4.202  -0.235   1.193  0.00  0.00    -0.259 OA
ATOM     14  C   UNK d   1       2.748  -0.379  -0.755  0.00  0.00     0.049 A 
ATOM     15  C   UNK d   1       1.400  -0.591  -0.934  0.00  0.00     0.003 A 
ATOM     16  C   UNK d   1       0.917  -0.608  -2.201  0.00  0.00     0.012 A 
ATOM     17  C   UNK d   1       1.771  -0.417  -3.267  0.00  0.00     0.001 A 
ATOM     18  C   UNK d   1       3.122  -0.205  -3.092  0.00  0.00     0.001 A 
ATOM     19  C   UNK d   1       3.625  -0.184  -1.818  0.00  0.00     0.018 A 
ATOM     20  C   UNK d   1      -0.130   0.318   0.751  0.00  0.00     0.023 A 
ATOM     21  C   UNK d   1      -1.390   0.053   1.211  0.00  0.00     0.106 A 
ATOM     22  C   UNK d   1      -2.279   1.102   1.523  0.00  0.00     0.083 A 
ATOM     23  C   UNK d   1      -1.856   2.400   1.357  0.00  0.00     0.144 A 
ATOM     24  C   UNK d   1      -0.579   2.677   0.891  0.00  0.00     0.049 A 
ATOM     25  C   UNK d   1       0.277   1.655   0.590  0.00  0.00     0.036 A 
ATOM     26 Br   UNK d   1       0.021   4.470   0.656  0.00  0.00    -0.048 Br
ATOM     27  O   UNK d   1      -2.740   3.422   1.668  0.00  0.00    -0.189 OA
ATOM     28 Br   UNK d   1      -4.034   0.691   2.164  0.00  0.00    -0.045 Br
ATOM     29  O   UNK d   1      -1.869  -1.236   1.398  0.00  0.00    -0.306 OA
ENDROOT
TORSDOF 0
