REMARK  0 active torsions:
REMARK  status: ('A' for Active; 'I' for Inactive)
ROOT
ATOM      1  I   UNK d   1       1.962   3.625   2.500  0.00  0.00    -0.038 I 
ATOM      2  C   UNK d   1       1.775   3.018   0.486  0.00  0.00     0.078 A 
ATOM      3  C   UNK d   1       1.296   1.733   0.252  0.00  0.00     0.105 A 
ATOM      4  C   UNK d   1       1.165   1.315  -1.032  0.00  0.00     0.023 A 
ATOM      5  C   UNK d   1       1.514   2.184  -2.069  0.00  0.00     0.035 A 
ATOM      6  C   UNK d   1       1.989   3.458  -1.847  0.00  0.00     0.045 A 
ATOM      7  C   UNK d   1       2.119   3.876  -0.538  0.00  0.00     0.143 A 
ATOM      8  O   UNK d   1       2.596   5.155  -0.291  0.00  0.00    -0.189 OA
ATOM      9  I   UNK d   1       2.505   4.738  -3.456  0.00  0.00    -0.042 I 
ATOM     10  C   UNK d   1       0.676  -0.004  -1.388  0.00  0.00     0.161 A 
ATOM     11  O   UNK d   1       1.648  -0.734  -2.151  0.00  0.00    -0.291 OA
ATOM     12  C   UNK d   1       1.163  -1.119  -3.373  0.00  0.00     0.297 A 
ATOM     13  O   UNK d   1       1.730  -1.769  -4.298  0.00  0.00    -0.259 OA
ATOM     14  C   UNK d   1      -0.205  -0.626  -3.442  0.00  0.00     0.074 A 
ATOM     15  C   UNK d   1      -0.493   0.027  -2.282  0.00  0.00     0.028 A 
ATOM     16  C   UNK d   1      -1.750   0.600  -2.089  0.00  0.00     0.068 A 
ATOM     17  C   UNK d   1      -2.725   0.520  -3.060  0.00  0.00     0.080 A 
ATOM     18  C   UNK d   1      -2.428  -0.148  -4.245  0.00  0.00     0.080 A 
ATOM     19  C   UNK d   1      -1.193  -0.713  -4.438  0.00  0.00     0.074 A 
ATOM     20 Cl   UNK d   1      -0.841  -1.536  -5.910  0.00  0.00    -0.081 Cl
ATOM     21 Cl   UNK d   1      -3.616  -0.285  -5.511  0.00  0.00    -0.081 Cl
ATOM     22 Cl   UNK d   1      -4.290   1.249  -2.784  0.00  0.00    -0.081 Cl
ATOM     23 Cl   UNK d   1      -2.049   1.415  -0.590  0.00  0.00    -0.082 Cl
ATOM     24  C   UNK d   1       0.344  -0.819  -0.188  0.00  0.00     0.023 A 
ATOM     25  C   UNK d   1       0.487  -0.370   1.080  0.00  0.00     0.105 A 
ATOM     26  C   UNK d   1       0.139  -1.238   2.113  0.00  0.00     0.078 A 
ATOM     27  C   UNK d   1      -0.336  -2.511   1.892  0.00  0.00     0.143 A 
ATOM     28  C   UNK d   1      -0.469  -2.935   0.585  0.00  0.00     0.045 A 
ATOM     29  C   UNK d   1      -0.135  -2.108  -0.456  0.00  0.00     0.035 A 
ATOM     30  I   UNK d   1      -1.193  -4.878   0.214  0.00  0.00    -0.042 I 
ATOM     31  O   UNK d   1      -0.679  -3.365   2.908  0.00  0.00    -0.189 OA
ATOM     32  I   UNK d   1       0.356  -0.553   4.085  0.00  0.00    -0.038 I 
ATOM     33  O   UNK d   1       0.961   0.903   1.340  0.00  0.00    -0.307 OA
ENDROOT
TORSDOF 0
