# created with PyMOL 2.3.2
@<TRIPOS>MOLECULE
979
35 39 1                 
SMALL
USER_CHARGES
@<TRIPOS>ATOM
1	   I	2.836	2.243	3.863	 I	1	UNK0	0.000	
2	   C	1.405	2.418	2.310	C.2	1	UNK0	0.000	
3	   C	1.159	1.256	1.559	C.2	1	UNK0	0.000	
4	   C	0.245	1.342	0.557	C.2	1	UNK0	0.000	
5	   C	-0.402	2.568	0.320	C.2	1	UNK0	0.000	
6	   C	-0.161	3.700	1.054	C.2	1	UNK0	0.000	
7	   C	0.765	3.612	2.070	C.2	1	UNK0	0.000	
8	   O	1.034	4.739	2.833	O.2	1	UNK0	0.000	
9	   I	-1.174	5.516	0.643	 I	1	UNK0	0.000	
10	   C	-0.081	0.184	-0.284	C.3	1	UNK0	0.000	
11	   O	0.047	0.482	-1.661	O.3	1	UNK0	0.000	
12	   C	-1.134	0.336	-2.340	C.2	1	UNK0	0.000	
13	   O	-1.370	0.518	-3.564	O.co2	1	UNK0	0.000	
14	   C	-2.135	-0.088	-1.371	C.2	1	UNK0	0.000	
15	   C	-1.527	-0.179	-0.161	C.2	1	UNK0	0.000	
16	   C	-2.296	-0.574	0.940	C.2	1	UNK0	0.000	
17	   C	-3.633	-0.859	0.785	C.2	1	UNK0	0.000	
18	   C	-4.253	-0.766	-0.443	C.2	1	UNK0	0.000	
19	   C	-3.508	-0.380	-1.531	C.2	1	UNK0	0.000	
20	   C	0.672	-1.029	0.078	C.2	1	UNK0	0.000	
21	   C	1.570	-1.051	1.089	C.2	1	UNK0	0.000	
22	   C	2.246	-2.233	1.374	C.2	1	UNK0	0.000	
23	   C	2.010	-3.365	0.646	C.2	1	UNK0	0.000	
24	   C	1.103	-3.379	-0.388	C.2	1	UNK0	0.000	
25	   C	0.452	-2.205	-0.650	C.2	1	UNK0	0.000	
26	   I	0.742	-5.134	-1.511	 I	1	UNK0	0.000	
27	   O	2.698	-4.532	0.953	O.2	1	UNK0	0.000	
28	   I	3.656	-2.258	2.965	 I	1	UNK0	0.000	
29	   O	1.852	0.083	1.868	O.3	1	UNK0	0.000	
30	   H	-1.138	2.615	-0.496	 H	1	UNK0	0.000	
31	   H	-1.775	-0.634	1.878	 H	1	UNK0	0.000	
32	   H	-4.186	-1.158	1.654	 H	1	UNK0	0.000	
33	   H	-5.318	-0.989	-0.585	 H	1	UNK0	0.000	
34	   H	-3.945	-0.290	-2.522	 H	1	UNK0	0.000	
35	   H	-0.266	-2.188	-1.457	 H	1	UNK0	0.000	
@<TRIPOS>BOND
1 1 2 1
2 2 3 2
3 2 7 1
4 3 4 1
5 3 29 1
6 4 5 2
7 4 10 1
8 5 6 1
9 6 7 2
10 6 9 1
11 7 8 1
12 10 11 1
13 10 15 1
14 10 20 1
15 11 12 1
16 12 13 2
17 12 14 1
18 14 15 2
19 14 19 1
20 15 16 1
21 16 17 2
22 17 18 1
23 18 19 2
24 20 21 2
25 20 25 1
26 21 22 1
27 21 29 1
28 22 23 2
29 22 28 1
30 23 24 1
31 23 27 1
32 24 25 2
33 24 26 1
34 5 30 1
35 16 31 1
36 17 32 1
37 18 33 1
38 19 34 1
39 25 35 1
@<TRIPOS>SUBSTRUCTURE
1	UNK0	1	GROUP	1 ****	UNK
