REMARK  0 active torsions:
REMARK  status: ('A' for Active; 'I' for Inactive)
ROOT
ATOM      1  I   UNK d   1       2.836   2.243   3.863  0.00  0.00    -0.038 I 
ATOM      2  C   UNK d   1       1.405   2.418   2.310  0.00  0.00     0.078 A 
ATOM      3  C   UNK d   1       1.159   1.256   1.559  0.00  0.00     0.105 A 
ATOM      4  C   UNK d   1       0.245   1.342   0.557  0.00  0.00     0.023 A 
ATOM      5  C   UNK d   1      -0.402   2.568   0.320  0.00  0.00     0.035 A 
ATOM      6  C   UNK d   1      -0.161   3.700   1.054  0.00  0.00     0.045 A 
ATOM      7  C   UNK d   1       0.765   3.612   2.070  0.00  0.00     0.143 A 
ATOM      8  O   UNK d   1       1.034   4.739   2.833  0.00  0.00    -0.189 OA
ATOM      9  I   UNK d   1      -1.174   5.516   0.643  0.00  0.00    -0.042 I 
ATOM     10  C   UNK d   1      -0.081   0.184  -0.284  0.00  0.00     0.159 A 
ATOM     11  O   UNK d   1       0.047   0.482  -1.661  0.00  0.00    -0.291 OA
ATOM     12  C   UNK d   1      -1.134   0.336  -2.340  0.00  0.00     0.295 A 
ATOM     13  O   UNK d   1      -1.370   0.518  -3.564  0.00  0.00    -0.259 OA
ATOM     14  C   UNK d   1      -2.135  -0.088  -1.371  0.00  0.00     0.049 A 
ATOM     15  C   UNK d   1      -1.527  -0.179  -0.161  0.00  0.00     0.003 A 
ATOM     16  C   UNK d   1      -2.296  -0.574   0.940  0.00  0.00     0.012 A 
ATOM     17  C   UNK d   1      -3.633  -0.859   0.785  0.00  0.00     0.001 A 
ATOM     18  C   UNK d   1      -4.253  -0.766  -0.443  0.00  0.00     0.001 A 
ATOM     19  C   UNK d   1      -3.508  -0.380  -1.531  0.00  0.00     0.018 A 
ATOM     20  C   UNK d   1       0.672  -1.029   0.078  0.00  0.00     0.023 A 
ATOM     21  C   UNK d   1       1.570  -1.051   1.089  0.00  0.00     0.105 A 
ATOM     22  C   UNK d   1       2.246  -2.233   1.374  0.00  0.00     0.078 A 
ATOM     23  C   UNK d   1       2.010  -3.365   0.646  0.00  0.00     0.143 A 
ATOM     24  C   UNK d   1       1.103  -3.379  -0.388  0.00  0.00     0.045 A 
ATOM     25  C   UNK d   1       0.452  -2.205  -0.650  0.00  0.00     0.035 A 
ATOM     26  I   UNK d   1       0.742  -5.134  -1.511  0.00  0.00    -0.042 I 
ATOM     27  O   UNK d   1       2.698  -4.532   0.953  0.00  0.00    -0.189 OA
ATOM     28  I   UNK d   1       3.656  -2.258   2.965  0.00  0.00    -0.038 I 
ATOM     29  O   UNK d   1       1.852   0.083   1.868  0.00  0.00    -0.307 OA
ENDROOT
TORSDOF 0
