REMARK  2 active torsions:
REMARK  status: ('A' for Active; 'I' for Inactive)
REMARK    1  A    between atoms: C_9  and  C_19 
REMARK    2  A    between atoms: C_20  and  C_25 
ROOT
ATOM      1  I   UNK d   1      -3.450   4.021  -1.606  0.00  0.00    -0.038 I 
ATOM      2  C   UNK d   1      -3.009   2.060  -0.974  0.00  0.00     0.077 A 
ATOM      3  C   UNK d   1      -1.719   1.628  -0.738  0.00  0.00     0.106 A 
ATOM      4  C   UNK d   1      -1.426   0.346  -0.325  0.00  0.00     0.011 A 
ATOM      5  C   UNK d   1      -2.485  -0.525  -0.147  0.00  0.00     0.018 A 
ATOM      6  C   UNK d   1      -3.784  -0.100  -0.382  0.00  0.00     0.042 A 
ATOM      7  C   UNK d   1      -4.070   1.194  -0.799  0.00  0.00     0.126 A 
ATOM      8  O   UNK d   1      -5.393   1.568  -1.020  0.00  0.00    -0.191 OA
ATOM      9  C   UNK d   1      -0.144  -0.104  -0.083  0.00  0.00     0.001 A 
ATOM     10  C   UNK d   1       0.871   0.827  -0.283  0.00  0.00     0.011 A 
ATOM     11  C   UNK d   1       0.520   2.175  -0.721  0.00  0.00     0.107 A 
ATOM     12  C   UNK d   1       1.569   3.052  -0.901  0.00  0.00     0.091 A 
ATOM     13  C   UNK d   1       2.885   2.702  -0.687  0.00  0.00     0.191 A 
ATOM     14  O   UNK d   1       3.835   3.522  -0.858  0.00  0.00    -0.287 OA
ATOM     15  C   UNK d   1       3.218   1.427  -0.273  0.00  0.00     0.057 A 
ATOM     16  C   UNK d   1       2.190   0.525  -0.083  0.00  0.00     0.019 A 
ATOM     17  I   UNK d   1       1.163   5.016  -1.530  0.00  0.00    -0.037 I 
ATOM     18  O   UNK d   1      -0.740   2.478  -0.916  0.00  0.00    -0.306 OA
ENDROOT
BRANCH   9  19
ATOM     19  C   UNK d   1       0.170  -1.460   0.354  0.00  0.00    -0.007 A 
ATOM     20  C   UNK d   1       0.217  -1.721   1.720  0.00  0.00     0.051 A 
ATOM     21  C   UNK d   1       0.507  -2.979   2.178  0.00  0.00     0.019 A 
ATOM     22  C   UNK d   1       0.755  -3.991   1.277  0.00  0.00     0.001 A 
ATOM     23  C   UNK d   1       0.714  -3.759  -0.080  0.00  0.00     0.001 A 
ATOM     24  C   UNK d   1       0.420  -2.487  -0.518  0.00  0.00     0.013 A 
BRANCH  20  25
ATOM     25  C   UNK d   1      -0.044  -0.656   2.684  0.00  0.00     0.210 C 
ATOM     26  O   UNK d   1      -0.315   0.517   2.344  0.00  0.00    -0.644 OA
ATOM     27  O   UNK d   1       0.002  -0.912   4.047  0.00  0.00    -0.644 OA
ENDBRANCH  20  25
ENDBRANCH   9  19
TORSDOF 2
