REMARK  5 active torsions:
REMARK  status: ('A' for Active; 'I' for Inactive)
REMARK    1  A    between atoms: S_1  and  O_5 
REMARK    2  A    between atoms: O_5  and  C_6 
REMARK    3  A    between atoms: C_10  and  C_11 
REMARK    4  A    between atoms: C_15  and  O_16 
REMARK    5  A    between atoms: O_16  and  S_17 
ROOT
ATOM      1  C   UNK d   1       0.529  -2.028   0.014  0.00  0.00     0.133 A 
ATOM      2  C   UNK d   1      -0.010  -3.069  -0.754  0.00  0.00     0.030 A 
ATOM      3  C   UNK d   1      -1.370  -2.852  -0.734  0.00  0.00     0.063 A 
ATOM      4  N   UNK d   1      -1.617  -1.756  -0.003  0.00  0.00    -0.350 N 
ATOM      5  C   UNK d   1      -0.462  -1.207   0.483  0.00  0.00     0.099 A 
ATOM      6  C   UNK d   1      -2.195  -3.738  -1.422  0.00  0.00     0.040 A 
ATOM      7  C   UNK d   1      -1.639  -4.791  -2.095  0.00  0.00     0.040 A 
ATOM      8  C   UNK d   1      -0.259  -5.016  -2.118  0.00  0.00     0.013 A 
ATOM      9  C   UNK d   1       0.566  -4.124  -1.426  0.00  0.00     0.036 A 
ATOM     10 Br   UNK d   1       0.451  -6.497  -3.071  0.00  0.00    -0.051 Br
ATOM     11 Br   UNK d   1      -4.069  -3.465  -1.412  0.00  0.00    -0.049 Br
ATOM     12  H   UNK d   1      -2.577  -1.350   0.186  0.00  0.00     0.166 HD
ENDROOT
BRANCH   5  13
ATOM     13  C   UNK d   1      -0.379   0.012   1.279  0.00  0.00     0.099 A 
ATOM     14  N   UNK d   1      -1.475   0.625   1.804  0.00  0.00    -0.350 N 
ATOM     15  C   UNK d   1      -1.124   1.732   2.477  0.00  0.00     0.063 A 
ATOM     16  H   UNK d   1      -2.465   0.306   1.716  0.00  0.00     0.166 HD
ATOM     17  C   UNK d   1       0.244   1.880   2.410  0.00  0.00     0.030 A 
ATOM     18  C   UNK d   1      -1.825   2.698   3.185  0.00  0.00     0.040 A 
ATOM     19  C   UNK d   1       0.675   0.786   1.651  0.00  0.00     0.133 A 
ATOM     20  C   UNK d   1       0.901   2.933   3.013  0.00  0.00     0.036 A 
ATOM     21  C   UNK d   1       0.191   3.893   3.717  0.00  0.00     0.013 A 
ATOM     22  C   UNK d   1      -1.186   3.758   3.794  0.00  0.00     0.040 A 
ATOM     23 Br   UNK d   1       1.082   5.365   4.562  0.00  0.00    -0.051 Br
ATOM     24 Br   UNK d   1      -3.722   2.573   3.330  0.00  0.00    -0.049 Br
BRANCH  19  25
ATOM     25  O   UNK d   1       2.008   0.576   1.348  0.00  0.00    -0.211 OA
BRANCH  25  26
ATOM     26  S   UNK d   1       2.746   1.245  -0.036  0.00  0.00     0.257 S 
ATOM     27  O   UNK d   1       1.752   1.407  -1.149  0.00  0.00    -0.572 OA
ATOM     28  O   UNK d   1       3.857   0.374  -0.550  0.00  0.00    -0.572 OA
ATOM     29  O   UNK d   1       3.458   2.732   0.368  0.00  0.00    -0.572 OA
ENDBRANCH  25  26
ENDBRANCH  19  25
ENDBRANCH   5  13
BRANCH   1  30
ATOM     30  O   UNK d   1       1.894  -1.892   0.241  0.00  0.00    -0.211 OA
BRANCH  30  31
ATOM     31  S   UNK d   1       2.651  -2.648   1.578  0.00  0.00     0.257 S 
ATOM     32  O   UNK d   1       3.941  -1.912   1.814  0.00  0.00    -0.572 OA
ATOM     33  O   UNK d   1       1.792  -2.543   2.814  0.00  0.00    -0.572 OA
ATOM     34  O   UNK d   1       3.026  -4.251   1.237  0.00  0.00    -0.572 OA
ENDBRANCH  30  31
ENDBRANCH   1  30
TORSDOF 5
