# created with PyMOL 2.3.2
@<TRIPOS>MOLECULE
983
38 41 1                 
SMALL
USER_CHARGES
@<TRIPOS>ATOM
1	   S	2.651	-2.648	1.578	S.3	1	UNK0	0.000	
2	   O	3.941	-1.912	1.814	O.2	1	UNK0	0.000	
3	   O	1.792	-2.543	2.814	O.2	1	UNK0	0.000	
4	   O	3.026	-4.251	1.237	 O	1	UNK0	0.000	
5	   O	1.894	-1.892	0.241	O.3	1	UNK0	0.000	
6	   C	0.529	-2.028	0.014	C.2	1	UNK0	0.000	
7	   C	-0.010	-3.069	-0.754	C.2	1	UNK0	0.000	
8	   C	-1.370	-2.852	-0.734	C.2	1	UNK0	0.000	
9	   N	-1.617	-1.756	-0.003	N.pl3	1	UNK0	0.000	
10	   C	-0.462	-1.207	0.483	C.2	1	UNK0	0.000	
11	   C	-0.379	0.012	1.279	C.2	1	UNK0	0.000	
12	   N	-1.475	0.625	1.804	N.pl3	1	UNK0	0.000	
13	   C	-1.124	1.732	2.477	C.2	1	UNK0	0.000	
14	   C	0.244	1.880	2.410	C.2	1	UNK0	0.000	
15	   C	0.675	0.786	1.651	C.2	1	UNK0	0.000	
16	   O	2.008	0.576	1.348	O.3	1	UNK0	0.000	
17	   S	2.746	1.245	-0.036	S.3	1	UNK0	0.000	
18	   O	1.752	1.407	-1.149	O.2	1	UNK0	0.000	
19	   O	3.857	0.374	-0.550	O.2	1	UNK0	0.000	
20	   O	3.458	2.732	0.368	 O	1	UNK0	0.000	
21	   C	0.901	2.933	3.013	C.2	1	UNK0	0.000	
22	   C	0.191	3.893	3.717	C.2	1	UNK0	0.000	
23	   C	-1.186	3.758	3.794	C.2	1	UNK0	0.000	
24	   C	-1.825	2.698	3.185	C.2	1	UNK0	0.000	
25	  Br	-3.722	2.573	3.330	Br	1	UNK0	0.000	
26	  Br	1.082	5.365	4.562	Br	1	UNK0	0.000	
27	   C	-2.195	-3.738	-1.422	C.2	1	UNK0	0.000	
28	   C	-1.639	-4.791	-2.095	C.2	1	UNK0	0.000	
29	   C	-0.259	-5.016	-2.118	C.2	1	UNK0	0.000	
30	   C	0.566	-4.124	-1.426	C.2	1	UNK0	0.000	
31	  Br	0.451	-6.497	-3.071	Br	1	UNK0	0.000	
32	  Br	-4.069	-3.465	-1.412	Br	1	UNK0	0.000	
33	   H	-2.577	-1.350	0.186	 H	1	UNK0	0.000	
34	   H	-2.465	0.306	1.716	 H	1	UNK0	0.000	
35	   H	1.962	3.000	2.929	 H	1	UNK0	0.000	
36	   H	-1.747	4.519	4.352	 H	1	UNK0	0.000	
37	   H	-2.246	-5.501	-2.641	 H	1	UNK0	0.000	
38	   H	1.641	-4.267	-1.423	 H	1	UNK0	0.000	
@<TRIPOS>BOND
1 1 2 2
2 1 3 2
3 1 4 1
4 1 5 1
5 5 6 1
6 6 7 1
7 6 10 2
8 7 8 2
9 7 30 1
10 8 9 1
11 8 27 1
12 9 10 1
13 10 11 1
14 11 12 1
15 11 15 2
16 12 13 1
17 13 14 2
18 13 24 1
19 14 15 1
20 14 21 1
21 15 16 1
22 16 17 1
23 17 18 2
24 17 19 2
25 17 20 1
26 21 22 2
27 22 23 1
28 22 26 1
29 23 24 2
30 24 25 1
31 27 28 2
32 27 32 1
33 28 29 1
34 29 30 2
35 29 31 1
36 9 33 1
37 12 34 1
38 21 35 1
39 23 36 1
40 28 37 1
41 30 38 1
@<TRIPOS>SUBSTRUCTURE
1	UNK0	1	GROUP	1 ****	UNK
