REMARK  4 active torsions:
REMARK  status: ('A' for Active; 'I' for Inactive)
REMARK    1  A    between atoms: C_7  and  N_10 
REMARK    2  A    between atoms: C_8  and  O_9 
REMARK    3  A    between atoms: C_13  and  N_21 
REMARK    4  A    between atoms: C_15  and  O_20 
ROOT
ATOM      1  N   UNK d   1      -1.272   0.361   0.128  0.00  0.00    -0.277 N 
ATOM      2  C   UNK d   1      -1.935   1.232  -0.642  0.00  0.00     0.186 A 
ATOM      3  N   UNK d   1      -1.620   1.815  -1.831  0.00  0.00    -0.042 NA
ATOM      4  C   UNK d   1      -2.421   2.672  -2.458  0.00  0.00     0.724 A 
ATOM      5  N   UNK d   1      -3.601   2.980  -1.890  0.00  0.00    -0.036 NA
ATOM      6  C   UNK d   1      -3.976   2.438  -0.713  0.00  0.00     0.214 A 
ATOM      7  C   UNK d   1      -3.147   1.549  -0.061  0.00  0.00     0.159 A 
ATOM      8  N   UNK d   1      -3.202   0.848   1.081  0.00  0.00    -0.216 NA
ATOM      9  C   UNK d   1      -2.061   0.128   1.192  0.00  0.00     0.182 A 
ATOM     10 Br   UNK d   1      -1.609  -1.052   2.632  0.00  0.00    -0.008 Br
ENDROOT
BRANCH   1  11
ATOM     11  C   UNK d   1       0.029  -0.164  -0.206  0.00  0.00     0.263 C 
ATOM     12  O   UNK d   1       0.567  -0.931   0.827  0.00  0.00    -0.353 OA
ATOM     13  C   UNK d   1       1.812  -1.223   0.327  0.00  0.00     0.180 C 
ATOM     14  C   UNK d   1       2.345   0.174  -0.014  0.00  0.00     0.198 C 
ATOM     15  C   UNK d   1       2.751  -1.855   1.284  0.00  0.00     0.216 C 
ATOM     16  O   UNK d   1       3.144   0.011  -1.143  0.00  0.00    -0.279 OA
ATOM     17  C   UNK d   1       1.076   0.943  -0.315  0.00  0.00     0.199 C 
ATOM     18  P   UNK d   1       4.003  -1.446  -0.915  0.00  0.00     0.408 P 
ATOM     19  O   UNK d   1       3.516  -2.517  -1.866  0.00  0.00    -0.624 OA
ATOM     20  O   UNK d   1       4.010  -1.934   0.679  0.00  0.00    -0.287 OA
ATOM     21  O   UNK d   1       5.616  -1.106  -1.375  0.00  0.00    -0.624 OA
BRANCH  17  22
ATOM     22  O   UNK d   1       1.083   1.545  -1.548  0.00  0.00    -0.388 OA
ATOM     23  H   UNK d   1       1.140   2.547  -1.440  0.00  0.00     0.210 HD
ENDBRANCH  17  22
ENDBRANCH   1  11
BRANCH   4  24
ATOM     24  N   UNK d   1      -2.046   3.257  -3.702  0.00  0.00    -0.231 N 
ATOM     25  H   UNK d   1      -1.648   4.220  -3.663  0.00  0.00     0.174 HD
ATOM     26  H   UNK d   1      -2.160   2.755  -4.618  0.00  0.00     0.174 HD
ENDBRANCH   4  24
BRANCH   6  27
ATOM     27  O   UNK d   1      -5.196   2.753  -0.122  0.00  0.00    -0.343 OA
ATOM     28  H   UNK d   1      -6.013   2.754  -0.751  0.00  0.00     0.219 HD
ENDBRANCH   6  27
TORSDOF 4
