# created with PyMOL 2.3.2
@<TRIPOS>MOLECULE
985
34 37 1                 
SMALL
USER_CHARGES
@<TRIPOS>ATOM
1	   P	4.003	-1.446	-0.915	P.3	1	UNK0	0.000	
2	   O	3.516	-2.517	-1.866	O.co2	1	UNK0	0.000	
3	   O	3.144	0.011	-1.143	O.3	1	UNK0	0.000	
4	   C	2.345	0.174	-0.014	C.3	1	UNK0	0.000	
5	   C	1.812	-1.223	0.327	C.3	1	UNK0	0.000	
6	   O	0.567	-0.931	0.827	O.3	1	UNK0	0.000	
7	   C	0.029	-0.164	-0.206	C.3	1	UNK0	0.000	
8	   C	1.076	0.943	-0.315	C.3	1	UNK0	0.000	
9	   O	1.083	1.545	-1.548	O.3	1	UNK0	0.000	
10	   N	-1.272	0.361	0.128	N.pl3	1	UNK0	0.000	
11	   C	-1.935	1.232	-0.642	C.2	1	UNK0	0.000	
12	   N	-1.620	1.815	-1.831	N.2	1	UNK0	0.000	
13	   C	-2.421	2.672	-2.458	C.2	1	UNK0	0.000	
14	   N	-3.601	2.980	-1.890	N.2	1	UNK0	0.000	
15	   C	-3.976	2.438	-0.713	C.2	1	UNK0	0.000	
16	   C	-3.147	1.549	-0.061	C.2	1	UNK0	0.000	
17	   N	-3.202	0.848	1.081	N.2	1	UNK0	0.000	
18	   C	-2.061	0.128	1.192	C.2	1	UNK0	0.000	
19	  Br	-1.609	-1.052	2.632	Br	1	UNK0	0.000	
20	   O	-5.196	2.753	-0.122	O.3	1	UNK0	0.000	
21	   N	-2.046	3.257	-3.702	N.pl3	1	UNK0	0.000	
22	   C	2.751	-1.855	1.284	C.3	1	UNK0	0.000	
23	   O	4.010	-1.934	0.679	O.3	1	UNK0	0.000	
24	   O	5.616	-1.106	-1.375	O.co2	1	UNK0	0.000	
25	   H	2.911	0.601	0.831	 H	1	UNK0	0.000	
26	   H	1.683	-1.825	-0.591	 H	1	UNK0	0.000	
27	   H	0.048	-0.695	-1.184	 H	1	UNK0	0.000	
28	   H	0.871	1.681	0.513	 H	1	UNK0	0.000	
29	   H	1.140	2.547	-1.440	 H	1	UNK0	0.000	
30	   H	-6.013	2.754	-0.751	 H	1	UNK0	0.000	
31	   H	-1.648	4.220	-3.663	 H	1	UNK0	0.000	
32	   H	-2.160	2.755	-4.618	 H	1	UNK0	0.000	
33	   H	2.885	-1.175	2.164	 H	1	UNK0	0.000	
34	   H	2.381	-2.844	1.612	 H	1	UNK0	0.000	
@<TRIPOS>BOND
1 1 2 2
2 1 3 1
3 1 23 1
4 1 24 1
5 3 4 1
6 4 5 1
7 4 8 1
8 5 6 1
9 5 22 1
10 6 7 1
11 7 8 1
12 7 10 1
13 8 9 1
14 10 11 1
15 10 18 1
16 11 12 2
17 11 16 1
18 12 13 1
19 13 14 2
20 13 21 1
21 14 15 1
22 15 16 2
23 15 20 1
24 16 17 1
25 17 18 2
26 18 19 1
27 22 23 1
28 4 25 1
29 5 26 1
30 7 27 1
31 8 28 1
32 9 29 1
33 20 30 1
34 21 31 1
35 21 32 1
36 22 33 1
37 22 34 1
@<TRIPOS>SUBSTRUCTURE
1	UNK0	1	GROUP	1 ****	UNK
