REMARK  3 active torsions:
REMARK  status: ('A' for Active; 'I' for Inactive)
REMARK    1  A    between atoms: C_7  and  N_10 
REMARK    2  A    between atoms: C_8  and  O_9 
REMARK    3  A    between atoms: C_21  and  C_23 
ROOT
ATOM      1  N   UNK d   1      -1.202  -0.317   2.963  0.00  0.00    -0.279 N 
ATOM      2  C   UNK d   1      -0.788  -0.598   1.702  0.00  0.00     0.162 A 
ATOM      3  C   UNK d   1      -1.169  -1.872   1.338  0.00  0.00     0.173 A 
ATOM      4  N   UNK d   1      -1.827  -2.363   2.409  0.00  0.00    -0.214 NA
ATOM      5  C   UNK d   1      -1.841  -1.425   3.378  0.00  0.00     0.182 A 
ATOM      6 Br   UNK d   1      -2.633  -1.569   5.113  0.00  0.00    -0.008 Br
ATOM      7  C   UNK d   1      -0.840  -2.349   0.085  0.00  0.00     0.298 A 
ATOM      8  O   UNK d   1      -1.181  -3.503  -0.256  0.00  0.00    -0.264 OA
ATOM      9  N   UNK d   1      -0.151  -1.606  -0.811  0.00  0.00    -0.115 N 
ATOM     10  C   UNK d   1       0.211  -0.366  -0.435  0.00  0.00     0.716 A 
ATOM     11  N   UNK d   1       0.872   0.155  -1.484  0.00  0.00    -0.062 NA
ATOM     12  C   UNK d   1       0.941  -0.711  -2.511  0.00  0.00     0.102 A 
ATOM     13  C   UNK d   1       0.284  -1.844  -2.079  0.00  0.00     0.152 A 
ATOM     14  N   UNK d   1      -0.104   0.123   0.798  0.00  0.00    -0.171 N 
ATOM     15  H   UNK d   1       0.179   1.087   1.085  0.00  0.00     0.186 HD
ENDROOT
BRANCH   1  16
ATOM     16  C   UNK d   1      -1.002   0.918   3.717  0.00  0.00     0.263 C 
ATOM     17  O   UNK d   1      -1.001   2.025   2.871  0.00  0.00    -0.353 OA
ATOM     18  C   UNK d   1      -0.281   3.019   3.474  0.00  0.00     0.180 C 
ATOM     19  C   UNK d   1       0.852   2.278   4.188  0.00  0.00     0.197 C 
ATOM     20  C   UNK d   1       0.380   3.972   2.507  0.00  0.00     0.214 C 
ATOM     21  O   UNK d   1       1.135   3.020   5.331  0.00  0.00    -0.292 OA
ATOM     22  C   UNK d   1       0.273   0.928   4.487  0.00  0.00     0.199 C 
ATOM     23  P   UNK d   1       1.144   4.652   4.859  0.00  0.00     0.422 P 
ATOM     24  S   UNK d   1       2.570   5.391   5.520  0.00  0.00     0.009 SA
ATOM     25  O   UNK d   1       1.241   4.809   3.180  0.00  0.00    -0.300 OA
ATOM     26  O   UNK d   1      -0.255   5.452   5.367  0.00  0.00    -0.240 OA
BRANCH  22  27
ATOM     27  O   UNK d   1       0.038   0.788   5.861  0.00  0.00    -0.388 OA
ATOM     28  H   UNK d   1      -0.409   1.572   6.240  0.00  0.00     0.210 HD
ENDBRANCH  22  27
ENDBRANCH   1  16
BRANCH  12  29
ATOM     29  C   UNK d   1       1.580  -0.502  -3.817  0.00  0.00    -0.005 A 
ATOM     30  C   UNK d   1       1.562  -1.499  -4.766  0.00  0.00     0.014 A 
ATOM     31  C   UNK d   1       2.157  -1.331  -6.010  0.00  0.00     0.001 A 
ATOM     32  C   UNK d   1       2.777  -0.135  -6.291  0.00  0.00     0.000 A 
ATOM     33  C   UNK d   1       2.818   0.894  -5.363  0.00  0.00     0.001 A 
ATOM     34  C   UNK d   1       2.211   0.672  -4.146  0.00  0.00     0.014 A 
ENDBRANCH  12  29
TORSDOF 3
