REMARK  3 active torsions:
REMARK  status: ('A' for Active; 'I' for Inactive)
REMARK    1  A    between atoms: C_7  and  N_10 
REMARK    2  A    between atoms: C_8  and  O_9 
REMARK    3  A    between atoms: C_15  and  N_20 
ROOT
ATOM      1  P   UNK d   1       3.441  -0.863  -3.236  0.00  0.00     0.422 P 
ATOM      2  S   UNK d   1       3.531   0.780  -3.818  0.00  0.00     0.009 SA
ATOM      3  O   UNK d   1       1.832  -1.230  -2.798  0.00  0.00    -0.292 OA
ATOM      4  C   UNK d   1       1.572  -0.548  -1.635  0.00  0.00     0.197 C 
ATOM      5  C   UNK d   1       2.517  -1.065  -0.542  0.00  0.00     0.180 C 
ATOM      6  O   UNK d   1       1.890  -0.545   0.589  0.00  0.00    -0.353 OA
ATOM      7  C   UNK d   1       0.559  -0.862   0.457  0.00  0.00     0.263 C 
ATOM      8  C   UNK d   1       0.237  -0.916  -1.015  0.00  0.00     0.199 C 
ATOM      9  C   UNK d   1       3.907  -0.544  -0.734  0.00  0.00     0.214 C 
ATOM     10  O   UNK d   1       4.419  -1.084  -1.900  0.00  0.00    -0.300 OA
ATOM     11  O   UNK d   1       3.884  -1.880  -4.484  0.00  0.00    -0.240 OA
ENDROOT
BRANCH   7  12
ATOM     12  N   UNK d   1      -0.319   0.124   1.058  0.00  0.00    -0.278 N 
ATOM     13  C   UNK d   1      -1.570  -0.146   1.509  0.00  0.00     0.168 A 
ATOM     14  N   UNK d   1      -2.301  -1.290   1.533  0.00  0.00    -0.221 NA
ATOM     15  C   UNK d   1      -2.115   1.016   2.016  0.00  0.00     0.151 A 
ATOM     16  C   UNK d   1      -3.548  -1.309   2.043  0.00  0.00     0.237 A 
ATOM     17  N   UNK d   1      -4.088  -0.170   2.542  0.00  0.00    -0.222 NA
ATOM     18  C   UNK d   1      -3.396   0.983   2.536  0.00  0.00     0.155 A 
ATOM     19  N   UNK d   1      -1.195   1.987   1.872  0.00  0.00    -0.216 NA
ATOM     20  C   UNK d   1      -0.110   1.431   1.289  0.00  0.00     0.182 A 
ATOM     21 Br   UNK d   1       1.533   2.309   0.824  0.00  0.00    -0.008 Br
BRANCH  18  22
ATOM     22  N   UNK d   1      -3.980   2.177   3.067  0.00  0.00    -0.382 N 
ATOM     23  H   UNK d   1      -4.774   2.083   3.758  0.00  0.00     0.157 HD
ATOM     24  H   UNK d   1      -3.653   3.126   2.799  0.00  0.00     0.157 HD
ENDBRANCH  18  22
ENDBRANCH   7  12
BRANCH   8  25
ATOM     25  O   UNK d   1       0.007  -2.261  -1.335  0.00  0.00    -0.388 OA
ATOM     26  H   UNK d   1      -0.838  -2.406  -1.799  0.00  0.00     0.210 HD
ENDBRANCH   8  25
TORSDOF 3
