# created with PyMOL 2.3.2
@<TRIPOS>MOLECULE
999
52 55 1                 
SMALL
USER_CHARGES
@<TRIPOS>ATOM
1	   S	-1.109	4.163	-0.045	S.3	1	UNK0	0.000	
2	   C	-0.120	4.048	1.444	C.3	1	UNK0	0.000	
3	   N	-0.507	2.868	2.150	N.pl3	1	UNK0	0.000	
4	   C	-1.700	2.088	2.030	C.2	1	UNK0	0.000	
5	   C	-2.722	2.569	1.395	C.2	1	UNK0	0.000	
6	   C	-2.749	3.958	0.741	C.3	1	UNK0	0.000	
7	   C	-3.982	1.902	1.188	C.3	1	UNK0	0.000	
8	   O	-4.253	0.657	1.648	O.3	1	UNK0	0.000	
9	   C	-5.478	0.010	1.446	C.2	1	UNK0	0.000	
10	   O	-6.349	0.632	0.810	O.co2	1	UNK0	0.000	
11	   C	-5.642	-1.354	2.002	C.3	1	UNK0	0.000	
12	   C	-1.663	0.743	2.675	C.2	1	UNK0	0.000	
13	   O	-2.559	-0.073	2.701	O.co2	1	UNK0	0.000	
14	   O	-0.483	0.345	3.331	O.co2	1	UNK0	0.000	
15	   C	0.750	3.007	2.789	C.2	1	UNK0	0.000	
16	   O	1.354	2.878	3.860	O.2	1	UNK0	0.000	
17	   C	1.233	3.472	1.425	C.3	1	UNK0	0.000	
18	   N	1.470	2.308	0.634	N.pl3	1	UNK0	0.000	
19	   C	2.730	2.138	0.009	C.2	1	UNK0	0.000	
20	   O	3.604	3.030	0.176	O.2	1	UNK0	0.000	
21	   C	3.039	0.966	-0.816	C.2	1	UNK0	0.000	
22	   O	4.129	0.670	-1.452	O.3	1	UNK0	0.000	
23	   C	4.043	-0.456	-2.083	C.2	1	UNK0	0.000	
24	   C	2.762	-0.968	-1.847	C.2	1	UNK0	0.000	
25	   C	2.140	-0.052	-1.042	C.2	1	UNK0	0.000	
26	   C	5.091	-1.137	-2.928	C.3	1	UNK0	0.000	
27	   O	4.726	-2.465	-3.202	O.3	1	UNK0	0.000	
28	   C	4.520	-3.450	-2.279	C.2	1	UNK0	0.000	
29	   C	4.648	-3.282	-0.903	C.2	1	UNK0	0.000	
30	   C	4.414	-4.346	-0.061	C.2	1	UNK0	0.000	
31	   C	4.053	-5.597	-0.504	C.2	1	UNK0	0.000	
32	   C	3.923	-5.773	-1.871	C.2	1	UNK0	0.000	
33	   C	4.157	-4.704	-2.726	C.2	1	UNK0	0.000	
34	  Br	3.741	-7.034	0.711	Br	1	UNK0	0.000	
35	   H	-0.152	4.948	2.097	 H	1	UNK0	0.000	
36	   H	-3.542	4.055	0.009	 H	1	UNK0	0.000	
37	   H	-2.863	4.669	1.577	 H	1	UNK0	0.000	
38	   H	-4.833	2.590	1.604	 H	1	UNK0	0.000	
39	   H	-4.229	1.926	0.049	 H	1	UNK0	0.000	
40	   H	-4.933	-1.510	2.841	 H	1	UNK0	0.000	
41	   H	-5.401	-2.130	1.215	 H	1	UNK0	0.000	
42	   H	-6.667	-1.555	2.349	 H	1	UNK0	0.000	
43	   H	2.093	4.160	1.481	 H	1	UNK0	0.000	
44	   H	0.757	1.551	0.480	 H	1	UNK0	0.000	
45	   H	2.402	-1.909	-2.252	 H	1	UNK0	0.000	
46	   H	1.128	-0.144	-0.670	 H	1	UNK0	0.000	
47	   H	6.087	-1.059	-2.441	 H	1	UNK0	0.000	
48	   H	5.176	-0.606	-3.899	 H	1	UNK0	0.000	
49	   H	4.931	-2.322	-0.527	 H	1	UNK0	0.000	
50	   H	4.521	-4.188	0.997	 H	1	UNK0	0.000	
51	   H	3.639	-6.753	-2.226	 H	1	UNK0	0.000	
52	   H	4.031	-4.932	-3.789	 H	1	UNK0	0.000	
@<TRIPOS>BOND
1 1 2 1
2 1 6 1
3 2 3 1
4 2 17 1
5 3 4 1
6 3 15 1
7 4 5 2
8 4 12 1
9 5 6 1
10 5 7 1
11 7 8 1
12 8 9 1
13 9 10 2
14 9 11 1
15 12 13 2
16 12 14 1
17 15 16 2
18 15 17 1
19 17 18 1
20 18 19 1
21 19 20 2
22 19 21 1
23 21 22 1
24 21 25 2
25 22 23 1
26 23 24 2
27 23 26 1
28 24 25 1
29 26 27 1
30 27 28 1
31 28 29 2
32 28 33 1
33 29 30 1
34 30 31 2
35 31 32 1
36 31 34 1
37 32 33 2
38 2 35 1
39 6 36 1
40 6 37 1
41 7 38 1
42 7 39 1
43 11 40 1
44 11 41 1
45 11 42 1
46 17 43 1
47 18 44 1
48 24 45 1
49 25 46 1
50 26 47 1
51 26 48 1
52 29 49 1
53 30 50 1
54 32 51 1
55 33 52 1
@<TRIPOS>SUBSTRUCTURE
1	UNK0	1	GROUP	1 ****	UNK
