REMARK  9 active torsions:
REMARK  status: ('A' for Active; 'I' for Inactive)
REMARK    1  A    between atoms: C_4  and  C_12 
REMARK    2  A    between atoms: C_5  and  C_7 
REMARK    3  A    between atoms: C_7  and  O_8 
REMARK    4  A    between atoms: O_8  and  C_9 
REMARK    5  A    between atoms: C_17  and  N_18 
REMARK       I    between atoms: N_18  and  C_19 
REMARK    6  A    between atoms: C_19  and  C_21 
REMARK    7  A    between atoms: C_23  and  C_26 
REMARK    8  A    between atoms: C_26  and  O_27 
REMARK    9  A    between atoms: O_27  and  C_28 
ROOT
ATOM      1  N   UNK d   1       1.470   2.308   0.634  0.00  0.00    -0.339 N 
ATOM      2  C   UNK d   1       2.730   2.138   0.009  0.00  0.00     0.276 C 
ATOM      3  O   UNK d   1       3.604   3.030   0.176  0.00  0.00    -0.265 OA
ATOM      4  H   UNK d   1       0.757   1.551   0.480  0.00  0.00     0.163 HD
ENDROOT
BRANCH   1   5
ATOM      5  C   UNK d   1       1.233   3.472   1.425  0.00  0.00     0.211 C 
ATOM      6  C   UNK d   1      -0.120   4.048   1.444  0.00  0.00     0.187 C 
ATOM      7  S   UNK d   1      -1.109   4.163  -0.045  0.00  0.00    -0.136 SA
ATOM      8  N   UNK d   1      -0.507   2.868   2.150  0.00  0.00    -0.293 N 
ATOM      9  C   UNK d   1      -2.749   3.958   0.741  0.00  0.00     0.115 C 
ATOM     10  C   UNK d   1      -2.722   2.569   1.395  0.00  0.00    -0.013 C 
ATOM     11  C   UNK d   1      -1.700   2.088   2.030  0.00  0.00     0.121 C 
ATOM     12  C   UNK d   1       0.750   3.007   2.789  0.00  0.00     0.251 C 
ATOM     13  O   UNK d   1       1.354   2.878   3.860  0.00  0.00    -0.271 OA
BRANCH  10  14
ATOM     14  C   UNK d   1      -3.982   1.902   1.188  0.00  0.00     0.216 C 
BRANCH  14  15
ATOM     15  O   UNK d   1      -4.253   0.657   1.648  0.00  0.00    -0.317 OA
BRANCH  15  16
ATOM     16  C   UNK d   1      -5.478   0.010   1.446  0.00  0.00     0.255 C 
ATOM     17  O   UNK d   1      -6.349   0.632   0.810  0.00  0.00    -0.266 OA
ATOM     18  C   UNK d   1      -5.642  -1.354   2.002  0.00  0.00     0.126 C 
ENDBRANCH  15  16
ENDBRANCH  14  15
ENDBRANCH  10  14
BRANCH  11  19
ATOM     19  C   UNK d   1      -1.663   0.743   2.675  0.00  0.00     0.227 C 
ATOM     20  O   UNK d   1      -2.559  -0.073   2.701  0.00  0.00    -0.643 OA
ATOM     21  O   UNK d   1      -0.483   0.345   3.331  0.00  0.00    -0.643 OA
ENDBRANCH  11  19
ENDBRANCH   1   5
BRANCH   2  22
ATOM     22  C   UNK d   1       3.039   0.966  -0.816  0.00  0.00     0.143 A 
ATOM     23  O   UNK d   1       4.129   0.670  -1.452  0.00  0.00    -0.307 OA
ATOM     24  C   UNK d   1       4.043  -0.456  -2.083  0.00  0.00     0.078 A 
ATOM     25  C   UNK d   1       2.762  -0.968  -1.847  0.00  0.00     0.038 A 
ATOM     26  C   UNK d   1       2.140  -0.052  -1.042  0.00  0.00     0.045 A 
BRANCH  24  27
ATOM     27  C   UNK d   1       5.091  -1.137  -2.928  0.00  0.00     0.240 C 
BRANCH  27  28
ATOM     28  O   UNK d   1       4.726  -2.465  -3.202  0.00  0.00    -0.345 OA
BRANCH  28  29
ATOM     29  C   UNK d   1       4.520  -3.450  -2.279  0.00  0.00     0.069 A 
ATOM     30  C   UNK d   1       4.648  -3.282  -0.903  0.00  0.00     0.038 A 
ATOM     31  C   UNK d   1       4.414  -4.346  -0.061  0.00  0.00     0.022 A 
ATOM     32  C   UNK d   1       4.053  -5.597  -0.504  0.00  0.00     0.011 A 
ATOM     33  C   UNK d   1       3.923  -5.773  -1.871  0.00  0.00     0.022 A 
ATOM     34 Br   UNK d   1       3.741  -7.034   0.711  0.00  0.00    -0.051 Br
ATOM     35  C   UNK d   1       4.157  -4.704  -2.726  0.00  0.00     0.038 A 
ENDBRANCH  28  29
ENDBRANCH  27  28
ENDBRANCH  24  27
ENDBRANCH   2  22
TORSDOF 9
