# created with PyMOL 2.3.2
@<TRIPOS>MOLECULE
1001
33 36 1                 
SMALL
USER_CHARGES
@<TRIPOS>ATOM
1	   P	1.377	3.719	0.196	P.3	1	UNK0	0.000	
2	   O	2.211	4.335	1.321	O.co2	1	UNK0	0.000	
3	   O	0.651	2.334	0.806	O.3	1	UNK0	0.000	
4	   C	0.783	1.269	-0.047	C.3	1	UNK0	0.000	
5	   C	0.740	1.840	-1.471	C.3	1	UNK0	0.000	
6	   O	0.245	0.849	-2.265	O.3	1	UNK0	0.000	
7	   C	-0.522	-0.006	-1.523	C.3	1	UNK0	0.000	
8	   C	-0.412	0.354	-0.082	C.3	1	UNK0	0.000	
9	   O	-1.526	0.998	0.419	O.3	1	UNK0	0.000	
10	   N	-0.070	-1.363	-1.801	N.pl3	1	UNK0	0.000	
11	   C	-0.442	-2.476	-1.126	C.2	1	UNK0	0.000	
12	   N	-1.274	-2.637	-0.083	N.2	1	UNK0	0.000	
13	   C	-1.479	-3.868	0.413	C.2	1	UNK0	0.000	
14	   N	-0.852	-4.924	-0.137	N.2	1	UNK0	0.000	
15	   C	-0.010	-4.839	-1.178	C.2	1	UNK0	0.000	
16	   C	0.199	-3.560	-1.688	C.2	1	UNK0	0.000	
17	   N	0.951	-3.115	-2.691	N.2	1	UNK0	0.000	
18	   C	0.781	-1.782	-2.751	C.2	1	UNK0	0.000	
19	  Br	1.609	-0.569	-4.001	Br	1	UNK0	0.000	
20	   N	0.657	-5.946	-1.767	N.pl3	1	UNK0	0.000	
21	   C	2.135	2.276	-1.785	C.3	1	UNK0	0.000	
22	   O	2.405	3.428	-1.086	O.3	1	UNK0	0.000	
23	   O	0.187	4.886	-0.189	O.co2	1	UNK0	0.000	
24	   H	1.690	0.675	0.097	 H	1	UNK0	0.000	
25	   H	0.056	2.715	-1.520	 H	1	UNK0	0.000	
26	   H	-1.607	0.108	-1.809	 H	1	UNK0	0.000	
27	   H	-0.242	-0.555	0.532	 H	1	UNK0	0.000	
28	   H	-1.641	0.899	1.378	 H	1	UNK0	0.000	
29	   H	-2.158	-4.024	1.270	 H	1	UNK0	0.000	
30	   H	1.589	-6.242	-1.350	 H	1	UNK0	0.000	
31	   H	0.302	-6.481	-2.565	 H	1	UNK0	0.000	
32	   H	2.831	1.484	-1.380	 H	1	UNK0	0.000	
33	   H	2.357	2.334	-2.861	 H	1	UNK0	0.000	
@<TRIPOS>BOND
1 1 2 2
2 1 3 1
3 1 22 1
4 1 23 1
5 3 4 1
6 4 5 1
7 4 8 1
8 5 6 1
9 5 21 1
10 6 7 1
11 7 8 1
12 7 10 1
13 8 9 1
14 10 11 1
15 10 18 1
16 11 12 2
17 11 16 1
18 12 13 1
19 13 14 2
20 14 15 1
21 15 16 2
22 15 20 1
23 16 17 1
24 17 18 2
25 18 19 1
26 21 22 1
27 4 24 1
28 5 25 1
29 7 26 1
30 8 27 1
31 9 28 1
32 13 29 1
33 20 30 1
34 20 31 1
35 21 32 1
36 21 33 1
@<TRIPOS>SUBSTRUCTURE
1	UNK0	1	GROUP	1 ****	UNK
