REMARK  3 active torsions:
REMARK  status: ('A' for Active; 'I' for Inactive)
REMARK    1  A    between atoms: C_7  and  N_10 
REMARK    2  A    between atoms: C_8  and  O_9 
REMARK    3  A    between atoms: C_15  and  N_20 
ROOT
ATOM      1  P   UNK d   1       1.377   3.719   0.196  0.00  0.00     0.408 P 
ATOM      2  O   UNK d   1       2.211   4.335   1.321  0.00  0.00    -0.624 OA
ATOM      3  O   UNK d   1       0.651   2.334   0.806  0.00  0.00    -0.279 OA
ATOM      4  C   UNK d   1       0.783   1.269  -0.047  0.00  0.00     0.198 C 
ATOM      5  C   UNK d   1       0.740   1.840  -1.471  0.00  0.00     0.180 C 
ATOM      6  O   UNK d   1       0.245   0.849  -2.265  0.00  0.00    -0.353 OA
ATOM      7  C   UNK d   1      -0.522  -0.006  -1.523  0.00  0.00     0.263 C 
ATOM      8  C   UNK d   1      -0.412   0.354  -0.082  0.00  0.00     0.199 C 
ATOM      9  C   UNK d   1       2.135   2.276  -1.785  0.00  0.00     0.216 C 
ATOM     10  O   UNK d   1       2.405   3.428  -1.086  0.00  0.00    -0.287 OA
ATOM     11  O   UNK d   1       0.187   4.886  -0.189  0.00  0.00    -0.624 OA
ENDROOT
BRANCH   7  12
ATOM     12  N   UNK d   1      -0.070  -1.363  -1.801  0.00  0.00    -0.278 N 
ATOM     13  C   UNK d   1      -0.442  -2.476  -1.126  0.00  0.00     0.168 A 
ATOM     14  N   UNK d   1      -1.274  -2.637  -0.083  0.00  0.00    -0.221 NA
ATOM     15  C   UNK d   1       0.199  -3.560  -1.688  0.00  0.00     0.151 A 
ATOM     16  C   UNK d   1      -1.479  -3.868   0.413  0.00  0.00     0.237 A 
ATOM     17  N   UNK d   1      -0.852  -4.924  -0.137  0.00  0.00    -0.222 NA
ATOM     18  C   UNK d   1      -0.010  -4.839  -1.178  0.00  0.00     0.155 A 
ATOM     19  N   UNK d   1       0.951  -3.115  -2.691  0.00  0.00    -0.216 NA
ATOM     20  C   UNK d   1       0.781  -1.782  -2.751  0.00  0.00     0.182 A 
ATOM     21 Br   UNK d   1       1.609  -0.569  -4.001  0.00  0.00    -0.008 Br
BRANCH  18  22
ATOM     22  N   UNK d   1       0.657  -5.946  -1.767  0.00  0.00    -0.382 N 
ATOM     23  H   UNK d   1       1.589  -6.242  -1.350  0.00  0.00     0.157 HD
ATOM     24  H   UNK d   1       0.302  -6.481  -2.565  0.00  0.00     0.157 HD
ENDBRANCH  18  22
ENDBRANCH   7  12
BRANCH   8  25
ATOM     25  O   UNK d   1      -1.526   0.998   0.419  0.00  0.00    -0.388 OA
ATOM     26  H   UNK d   1      -1.641   0.899   1.378  0.00  0.00     0.210 HD
ENDBRANCH   8  25
TORSDOF 3
