REMARK  4 active torsions:
REMARK  status: ('A' for Active; 'I' for Inactive)
REMARK    1  A    between atoms: S_1  and  N_4 
REMARK    2  A    between atoms: S_1  and  C_5 
REMARK    3  A    between atoms: C_7  and  C_12 
REMARK       I    between atoms: C_12  and  N_14 
REMARK    4  A    between atoms: C_16  and  C_20 
ROOT
ATOM      1  C   UNK d   1       1.326   0.659   0.394  0.00  0.00     0.255 C 
ATOM      2  O   UNK d   1       1.909   0.051  -0.537  0.00  0.00    -0.267 OA
ATOM      3  N   UNK d   1      -0.093   0.803   0.372  0.00  0.00    -0.347 N 
ATOM      4  C   UNK d   1      -0.872   0.256  -0.718  0.00  0.00     0.138 C 
ATOM      5  C   UNK d   1      -2.155  -0.371  -0.269  0.00  0.00     0.075 C 
ATOM      6  C   UNK d   1      -2.040  -0.582   1.243  0.00  0.00     0.015 C 
ATOM      7  C   UNK d   1      -2.050   0.805   1.848  0.00  0.00     0.021 C 
ATOM      8  C   UNK d   1      -0.778   1.497   1.431  0.00  0.00     0.126 C 
ENDROOT
BRANCH   1   9
ATOM      9  C   UNK d   1       2.111   1.205   1.483  0.00  0.00     0.051 A 
ATOM     10  C   UNK d   1       2.614   2.501   1.432  0.00  0.00     0.043 A 
ATOM     11  C   UNK d   1       3.359   3.033   2.459  0.00  0.00     0.075 A 
ATOM     12  C   UNK d   1       3.629   2.274   3.584  0.00  0.00     0.026 A 
ATOM     13  C   UNK d   1       3.139   0.989   3.652  0.00  0.00     0.021 A 
ATOM     14  C   UNK d   1       2.384   0.457   2.607  0.00  0.00     0.026 A 
ATOM     15 Br   UNK d   1       1.735  -1.317   2.751  0.00  0.00    -0.050 Br
BRANCH  11  16
ATOM     16  S   UNK d   1       3.959   4.660   2.333  0.00  0.00     0.239 S 
ATOM     17  O   UNK d   1       4.130   5.005   0.868  0.00  0.00    -0.206 OA
ATOM     18  O   UNK d   1       5.301   4.789   3.011  0.00  0.00    -0.206 OA
BRANCH  16  19
ATOM     19  N   UNK d   1       2.822   5.767   2.983  0.00  0.00    -0.225 NA
ATOM     20  H   UNK d   1       3.146   6.166   3.897  0.00  0.00     0.136 HD
ATOM     21  H   UNK d   1       1.889   5.300   3.105  0.00  0.00     0.136 HD
ENDBRANCH  16  19
ENDBRANCH  11  16
ENDBRANCH   1   9
BRANCH   5  22
ATOM     22  C   UNK d   1      -2.455  -1.663  -0.965  0.00  0.00     0.136 A 
ATOM     23  N   UNK d   1      -1.620  -2.728  -1.087  0.00  0.00    -0.320 N 
ATOM     24  C   UNK d   1      -2.218  -3.709  -1.769  0.00  0.00     0.130 A 
ATOM     25  C   UNK d   1      -0.277  -3.125  -0.704  0.00  0.00     0.132 C 
ATOM     26  N   UNK d   1      -3.459  -3.222  -2.071  0.00  0.00    -0.135 NA
ATOM     27  C   UNK d   1      -1.339  -4.904  -1.931  0.00  0.00     0.082 C 
ATOM     28  N   UNK d   1      -3.594  -2.002  -1.589  0.00  0.00    -0.134 NA
ATOM     29  C   UNK d   1      -0.247  -4.619  -0.947  0.00  0.00     0.028 C 
ENDBRANCH   5  22
TORSDOF 4
