# created with PyMOL 2.3.2
@<TRIPOS>MOLECULE
1008
47 50 1                 
SMALL
USER_CHARGES
@<TRIPOS>ATOM
1	   S	3.959	4.660	2.333	S.O2	1	UNK0	0.000	
2	   O	4.130	5.005	0.868	O.2	1	UNK0	0.000	
3	   O	5.301	4.789	3.011	O.2	1	UNK0	0.000	
4	   N	2.822	5.767	2.983	N.3	1	UNK0	0.000	
5	   C	3.359	3.033	2.459	C.2	1	UNK0	0.000	
6	   C	2.614	2.501	1.432	C.2	1	UNK0	0.000	
7	   C	2.111	1.205	1.483	C.2	1	UNK0	0.000	
8	   C	2.384	0.457	2.607	C.2	1	UNK0	0.000	
9	   C	3.139	0.989	3.652	C.2	1	UNK0	0.000	
10	   C	3.629	2.274	3.584	C.2	1	UNK0	0.000	
11	  Br	1.735	-1.317	2.751	Br	1	UNK0	0.000	
12	   C	1.326	0.659	0.394	C.2	1	UNK0	0.000	
13	   O	1.909	0.051	-0.537	O.2	1	UNK0	0.000	
14	   N	-0.093	0.803	0.372	N.pl3	1	UNK0	0.000	
15	   C	-0.872	0.256	-0.718	C.3	1	UNK0	0.000	
16	   C	-2.155	-0.371	-0.269	C.3	1	UNK0	0.000	
17	   C	-2.040	-0.582	1.243	C.3	1	UNK0	0.000	
18	   C	-2.050	0.805	1.848	C.3	1	UNK0	0.000	
19	   C	-0.778	1.497	1.431	C.3	1	UNK0	0.000	
20	   C	-2.455	-1.663	-0.965	C.2	1	UNK0	0.000	
21	   N	-1.620	-2.728	-1.087	N.pl3	1	UNK0	0.000	
22	   C	-2.218	-3.709	-1.769	C.2	1	UNK0	0.000	
23	   N	-3.459	-3.222	-2.071	N.2	1	UNK0	0.000	
24	   N	-3.594	-2.002	-1.589	N.2	1	UNK0	0.000	
25	   C	-1.339	-4.904	-1.931	C.3	1	UNK0	0.000	
26	   C	-0.247	-4.619	-0.947	C.3	1	UNK0	0.000	
27	   C	-0.277	-3.125	-0.704	C.3	1	UNK0	0.000	
28	   H	3.146	6.166	3.897	 H	1	UNK0	0.000	
29	   H	1.889	5.300	3.105	 H	1	UNK0	0.000	
30	   H	2.426	3.143	0.558	 H	1	UNK0	0.000	
31	   H	3.323	0.358	4.510	 H	1	UNK0	0.000	
32	   H	4.213	2.702	4.379	 H	1	UNK0	0.000	
33	   H	-0.278	-0.401	-1.381	 H	1	UNK0	0.000	
34	   H	-1.155	1.138	-1.362	 H	1	UNK0	0.000	
35	   H	-3.039	0.287	-0.391	 H	1	UNK0	0.000	
36	   H	-2.875	-1.204	1.605	 H	1	UNK0	0.000	
37	   H	-1.079	-1.069	1.479	 H	1	UNK0	0.000	
38	   H	-2.957	1.340	1.461	 H	1	UNK0	0.000	
39	   H	-2.144	0.704	2.947	 H	1	UNK0	0.000	
40	   H	-0.106	1.482	2.335	 H	1	UNK0	0.000	
41	   H	-0.985	2.564	1.179	 H	1	UNK0	0.000	
42	   H	-1.863	-5.841	-1.619	 H	1	UNK0	0.000	
43	   H	-0.987	-4.951	-2.981	 H	1	UNK0	0.000	
44	   H	-0.379	-5.170	0.024	 H	1	UNK0	0.000	
45	   H	0.726	-4.938	-1.390	 H	1	UNK0	0.000	
46	   H	0.495	-2.678	-1.363	 H	1	UNK0	0.000	
47	   H	-0.026	-2.880	0.327	 H	1	UNK0	0.000	
@<TRIPOS>BOND
1 1 2 2
2 1 3 2
3 1 4 1
4 1 5 1
5 5 6 2
6 5 10 1
7 6 7 1
8 7 8 2
9 7 12 1
10 8 9 1
11 8 11 1
12 9 10 2
13 12 13 2
14 12 14 1
15 14 15 1
16 14 19 1
17 15 16 1
18 16 17 1
19 16 20 1
20 17 18 1
21 18 19 1
22 20 21 1
23 20 24 2
24 21 22 1
25 21 27 1
26 22 23 2
27 22 25 1
28 23 24 1
29 25 26 1
30 26 27 1
31 4 28 1
32 4 29 1
33 6 30 1
34 9 31 1
35 10 32 1
36 15 33 1
37 15 34 1
38 16 35 1
39 17 36 1
40 17 37 1
41 18 38 1
42 18 39 1
43 19 40 1
44 19 41 1
45 25 42 1
46 25 43 1
47 26 44 1
48 26 45 1
49 27 46 1
50 27 47 1
@<TRIPOS>SUBSTRUCTURE
1	UNK0	1	GROUP	1 ****	UNK
