# created with PyMOL 2.3.2
@<TRIPOS>MOLECULE
1011
54 57 1                 
SMALL
USER_CHARGES
@<TRIPOS>ATOM
1	   S	-2.068	0.991	-2.323	S.O2	1	UNK0	0.000	
2	   O	-3.311	1.451	-3.076	O.2	1	UNK0	0.000	
3	   O	-0.946	1.057	-3.303	O.2	1	UNK0	0.000	
4	   N	-2.399	-0.622	-1.818	N.3	1	UNK0	0.000	
5	   C	-1.297	-1.218	-1.090	C.3	1	UNK0	0.000	
6	   C	-1.742	-2.625	-0.720	C.3	1	UNK0	0.000	
7	   C	-0.662	-3.349	0.039	C.3	1	UNK0	0.000	
8	   N	-1.120	-4.648	0.362	N.3	1	UNK0	0.000	
9	   C	-2.171	-4.733	1.312	C.3	1	UNK0	0.000	
10	   C	-2.174	-6.134	1.900	C.3	1	UNK0	0.000	
11	   O	-1.975	-7.093	0.927	O.3	1	UNK0	0.000	
12	   C	-2.222	-6.636	-0.362	C.3	1	UNK0	0.000	
13	   C	-1.137	-5.604	-0.683	C.3	1	UNK0	0.000	
14	   C	-1.795	2.023	-0.945	C.2	1	UNK0	0.000	
15	   C	-0.550	2.638	-0.780	C.2	1	UNK0	0.000	
16	   C	-0.311	3.454	0.304	C.2	1	UNK0	0.000	
17	   C	-1.270	3.705	1.269	C.2	1	UNK0	0.000	
18	   C	-2.490	3.108	1.117	C.2	1	UNK0	0.000	
19	   C	-2.740	2.278	0.019	C.2	1	UNK0	0.000	
20	  Br	-4.458	1.453	-0.192	Br	1	UNK0	0.000	
21	   C	-0.707	4.629	2.293	C.3	1	UNK0	0.000	
22	   C	0.477	5.258	1.528	C.3	1	UNK0	0.000	
23	   N	0.888	4.167	0.659	N.pl3	1	UNK0	0.000	
24	   C	2.180	3.805	0.212	C.2	1	UNK0	0.000	
25	   O	2.392	2.816	-0.527	O.2	1	UNK0	0.000	
26	   C	3.336	4.630	0.636	C.3	1	UNK0	0.000	
27	   C	4.392	4.789	-0.380	C.3	1	UNK0	0.000	
28	   C	4.658	3.999	0.878	C.3	1	UNK0	0.000	
29	   H	-3.262	-0.607	-1.240	 H	1	UNK0	0.000	
30	   H	-0.979	-0.635	-0.216	 H	1	UNK0	0.000	
31	   H	-0.469	-1.353	-1.844	 H	1	UNK0	0.000	
32	   H	-2.676	-2.611	-0.112	 H	1	UNK0	0.000	
33	   H	-1.880	-3.162	-1.690	 H	1	UNK0	0.000	
34	   H	-0.425	-2.819	1.002	 H	1	UNK0	0.000	
35	   H	0.268	-3.377	-0.544	 H	1	UNK0	0.000	
36	   H	-3.138	-4.590	0.794	 H	1	UNK0	0.000	
37	   H	-2.005	-3.974	2.094	 H	1	UNK0	0.000	
38	   H	-1.357	-6.220	2.650	 H	1	UNK0	0.000	
39	   H	-3.118	-6.288	2.466	 H	1	UNK0	0.000	
40	   H	-2.171	-7.504	-1.045	 H	1	UNK0	0.000	
41	   H	-3.231	-6.182	-0.473	 H	1	UNK0	0.000	
42	   H	-0.194	-6.131	-0.851	 H	1	UNK0	0.000	
43	   H	-1.448	-5.159	-1.658	 H	1	UNK0	0.000	
44	   H	0.219	2.449	-1.536	 H	1	UNK0	0.000	
45	   H	-3.297	3.251	1.829	 H	1	UNK0	0.000	
46	   H	-0.349	4.121	3.190	 H	1	UNK0	0.000	
47	   H	-1.393	5.438	2.572	 H	1	UNK0	0.000	
48	   H	0.102	6.063	0.863	 H	1	UNK0	0.000	
49	   H	1.245	5.600	2.218	 H	1	UNK0	0.000	
50	   H	3.091	5.519	1.276	 H	1	UNK0	0.000	
51	   H	4.416	4.130	-1.290	 H	1	UNK0	0.000	
52	   H	4.891	5.744	-0.546	 H	1	UNK0	0.000	
53	   H	4.792	2.908	0.852	 H	1	UNK0	0.000	
54	   H	5.337	4.522	1.581	 H	1	UNK0	0.000	
@<TRIPOS>BOND
1 1 2 2
2 1 3 2
3 1 4 1
4 1 14 1
5 4 5 1
6 5 6 1
7 6 7 1
8 7 8 1
9 8 9 1
10 8 13 1
11 9 10 1
12 10 11 1
13 11 12 1
14 12 13 1
15 14 15 2
16 14 19 1
17 15 16 1
18 16 17 2
19 16 23 1
20 17 18 1
21 17 21 1
22 18 19 2
23 19 20 1
24 21 22 1
25 22 23 1
26 23 24 1
27 24 25 2
28 24 26 1
29 26 27 1
30 26 28 1
31 27 28 1
32 4 29 1
33 5 30 1
34 5 31 1
35 6 32 1
36 6 33 1
37 7 34 1
38 7 35 1
39 9 36 1
40 9 37 1
41 10 38 1
42 10 39 1
43 12 40 1
44 12 41 1
45 13 42 1
46 13 43 1
47 15 44 1
48 18 45 1
49 21 46 1
50 21 47 1
51 22 48 1
52 22 49 1
53 26 50 1
54 27 51 1
55 27 52 1
56 28 53 1
57 28 54 1
@<TRIPOS>SUBSTRUCTURE
1	UNK0	1	GROUP	1 ****	UNK
