REMARK  7 active torsions:
REMARK  status: ('A' for Active; 'I' for Inactive)
REMARK    1  A    between atoms: S_1  and  N_4 
REMARK    2  A    between atoms: S_1  and  C_14 
REMARK    3  A    between atoms: N_4  and  C_5 
REMARK    4  A    between atoms: C_5  and  C_6 
REMARK    5  A    between atoms: C_6  and  C_7 
REMARK    6  A    between atoms: C_7  and  N_8 
REMARK       I    between atoms: N_23  and  C_24 
REMARK    7  A    between atoms: C_24  and  C_26 
ROOT
ATOM      1  C   UNK d   1      -1.795   2.023  -0.945  0.00  0.00     0.094 A 
ATOM      2  C   UNK d   1      -0.550   2.638  -0.780  0.00  0.00     0.056 A 
ATOM      3  C   UNK d   1      -0.311   3.454   0.304  0.00  0.00     0.045 A 
ATOM      4  C   UNK d   1      -1.270   3.705   1.269  0.00  0.00    -0.028 A 
ATOM      5  C   UNK d   1      -2.490   3.108   1.117  0.00  0.00     0.030 A 
ATOM      6  C   UNK d   1      -2.740   2.278   0.019  0.00  0.00     0.034 A 
ATOM      7 Br   UNK d   1      -4.458   1.453  -0.192  0.00  0.00    -0.049 Br
ATOM      8  C   UNK d   1      -0.707   4.629   2.293  0.00  0.00     0.061 C 
ATOM      9  C   UNK d   1       0.477   5.258   1.528  0.00  0.00     0.137 C 
ATOM     10  N   UNK d   1       0.888   4.167   0.659  0.00  0.00    -0.317 N 
ATOM     11  C   UNK d   1       2.180   3.805   0.212  0.00  0.00     0.228 C 
ATOM     12  O   UNK d   1       2.392   2.816  -0.527  0.00  0.00    -0.273 OA
ENDROOT
BRANCH   1  13
ATOM     13  S   UNK d   1      -2.068   0.991  -2.323  0.00  0.00     0.242 S 
ATOM     14  O   UNK d   1      -3.311   1.451  -3.076  0.00  0.00    -0.206 OA
ATOM     15  O   UNK d   1      -0.946   1.057  -3.303  0.00  0.00    -0.206 OA
BRANCH  13  16
ATOM     16  N   UNK d   1      -2.399  -0.622  -1.818  0.00  0.00    -0.215 NA
ATOM     17  H   UNK d   1      -3.262  -0.607  -1.240  0.00  0.00     0.139 HD
BRANCH  16  18
ATOM     18  C   UNK d   1      -1.297  -1.218  -1.090  0.00  0.00     0.106 C 
BRANCH  18  19
ATOM     19  C   UNK d   1      -1.742  -2.625  -0.720  0.00  0.00     0.035 C 
BRANCH  19  20
ATOM     20  C   UNK d   1      -0.662  -3.349   0.039  0.00  0.00     0.118 C 
BRANCH  20  21
ATOM     21  N   UNK d   1      -1.120  -4.648   0.362  0.00  0.00    -0.408 N 
ATOM     22  C   UNK d   1      -2.171  -4.733   1.312  0.00  0.00     0.143 C 
ATOM     23  C   UNK d   1      -2.174  -6.134   1.900  0.00  0.00     0.187 C 
ATOM     24  O   UNK d   1      -1.975  -7.093   0.927  0.00  0.00    -0.388 OA
ATOM     25  C   UNK d   1      -2.222  -6.636  -0.362  0.00  0.00     0.187 C 
ATOM     26  C   UNK d   1      -1.137  -5.604  -0.683  0.00  0.00     0.143 C 
ENDBRANCH  20  21
ENDBRANCH  19  20
ENDBRANCH  18  19
ENDBRANCH  16  18
ENDBRANCH  13  16
ENDBRANCH   1  13
BRANCH  11  27
ATOM     27  C   UNK d   1       3.336   4.630   0.636  0.00  0.00     0.078 A 
ATOM     28  C   UNK d   1       4.392   4.789  -0.380  0.00  0.00     0.015 A 
ATOM     29  C   UNK d   1       4.658   3.999   0.878  0.00  0.00     0.015 A 
ENDBRANCH  11  27
TORSDOF 7
