REMARK  5 active torsions:
REMARK  status: ('A' for Active; 'I' for Inactive)
REMARK    1  A    between atoms: S_1  and  N_4 
REMARK    2  A    between atoms: S_1  and  C_20 
REMARK    3  A    between atoms: N_8  and  C_12 
REMARK    4  A    between atoms: C_12  and  C_13 
REMARK    5  A    between atoms: C_13  and  C_14 
REMARK       I    between atoms: N_29  and  C_30 
ROOT
ATOM      1  N   UNK d   1       0.510   0.441  -2.610  0.00  0.00    -0.289 N 
ATOM      2  C   UNK d   1      -0.349   1.442  -2.165  0.00  0.00     0.239 C 
ATOM      3  C   UNK d   1      -0.803   1.317  -0.762  0.00  0.00     0.245 C 
ATOM      4  O   UNK d   1      -1.134   2.328  -0.097  0.00  0.00    -0.271 OA
ATOM      5  N   UNK d   1      -0.840  -0.001  -0.226  0.00  0.00    -0.285 N 
ATOM      6  C   UNK d   1      -0.717  -1.067  -1.153  0.00  0.00     0.245 C 
ATOM      7  O   UNK d   1      -1.230  -2.181  -0.851  0.00  0.00    -0.271 OA
ATOM      8  C   UNK d   1      -0.014  -0.907  -2.443  0.00  0.00     0.239 C 
ENDROOT
BRANCH   1   9
ATOM      9  S   UNK d   1       2.167   0.540  -2.378  0.00  0.00     0.263 S 
ATOM     10  O   UNK d   1       2.647   1.837  -3.030  0.00  0.00    -0.200 OA
ATOM     11  O   UNK d   1       2.877  -0.547  -3.151  0.00  0.00    -0.200 OA
BRANCH   9  12
ATOM     12  C   UNK d   1       2.734   0.584  -0.731  0.00  0.00     0.099 A 
ATOM     13  C   UNK d   1       3.241  -0.596  -0.172  0.00  0.00     0.057 A 
ATOM     14  C   UNK d   1       3.658  -0.708   1.135  0.00  0.00     0.045 A 
ATOM     15  C   UNK d   1       3.588   0.383   1.974  0.00  0.00    -0.028 A 
ATOM     16  N   UNK d   1       4.193  -1.804   1.880  0.00  0.00    -0.318 N 
ATOM     17  C   UNK d   1       3.095   1.549   1.443  0.00  0.00     0.030 A 
ATOM     18  C   UNK d   1       4.092   0.035   3.325  0.00  0.00     0.061 C 
ATOM     19  C   UNK d   1       2.672   1.658   0.108  0.00  0.00     0.035 A 
ATOM     20 Br   UNK d   1       2.098   3.367  -0.546  0.00  0.00    -0.049 Br
ATOM     21  C   UNK d   1       4.879  -1.245   3.040  0.00  0.00     0.137 C 
ATOM     22  C   UNK d   1       4.092  -3.177   1.595  0.00  0.00     0.220 C 
ATOM     23  O   UNK d   1       4.668  -4.008   2.380  0.00  0.00    -0.273 OA
ATOM     24  C   UNK d   1       3.365  -3.774   0.449  0.00  0.00     0.117 C 
ENDBRANCH   9  12
ENDBRANCH   1   9
BRANCH   5  25
ATOM     25  C   UNK d   1      -1.002  -0.210   1.197  0.00  0.00     0.139 C 
BRANCH  25  26
ATOM     26  C   UNK d   1      -2.415  -0.338   1.651  0.00  0.00     0.059 C 
BRANCH  26  27
ATOM     27  C   UNK d   1      -3.280   0.809   1.382  0.00  0.00    -0.057 A 
ATOM     28  C   UNK d   1      -3.415   1.844   2.265  0.00  0.00     0.007 A 
ATOM     29  C   UNK d   1      -4.244   2.885   1.954  0.00  0.00     0.001 A 
ATOM     30  C   UNK d   1      -4.959   2.926   0.762  0.00  0.00     0.000 A 
ATOM     31  C   UNK d   1      -4.807   1.879  -0.105  0.00  0.00     0.001 A 
ATOM     32  C   UNK d   1      -3.982   0.817   0.176  0.00  0.00     0.007 A 
ENDBRANCH  26  27
ENDBRANCH  25  26
ENDBRANCH   5  25
TORSDOF 5
