# created with PyMOL 2.3.2
@<TRIPOS>MOLECULE
1028
41 44 1                 
SMALL
USER_CHARGES
@<TRIPOS>ATOM
1	   S	-0.318	1.449	-3.410	S.O2	1	UNK0	0.000	
2	   O	-0.612	2.873	-3.034	O.2	1	UNK0	0.000	
3	   O	-0.837	1.263	-4.816	O.2	1	UNK0	0.000	
4	   N	-1.083	0.423	-2.309	N.3	1	UNK0	0.000	
5	   C	-0.961	-0.983	-2.459	C.3	1	UNK0	0.000	
6	   C	-0.153	-1.078	-1.224	C.3	1	UNK0	0.000	
7	   C	-0.489	0.358	-1.021	C.3	1	UNK0	0.000	
8	   N	-0.675	-1.930	-0.173	N.pl3	1	UNK0	0.000	
9	   N	-1.551	-2.896	-0.269	N.2	1	UNK0	0.000	
10	   N	-1.773	-3.445	0.933	N.2	1	UNK0	0.000	
11	   C	-1.012	-2.811	1.842	C.2	1	UNK0	0.000	
12	   C	-0.320	-1.849	1.120	C.2	1	UNK0	0.000	
13	   C	-0.923	-3.077	3.317	C.3	1	UNK0	0.000	
14	   N	0.029	-2.137	3.880	N.pl3	1	UNK0	0.000	
15	   C	1.438	-2.355	4.014	C.3	1	UNK0	0.000	
16	   C	2.004	-1.080	4.571	C.3	1	UNK0	0.000	
17	   C	0.943	-0.029	4.518	C.3	1	UNK0	0.000	
18	   C	-0.311	-0.849	4.384	C.2	1	UNK0	0.000	
19	   O	-1.442	-0.423	4.680	O.2	1	UNK0	0.000	
20	   C	1.436	1.281	-3.432	C.2	1	UNK0	0.000	
21	   S	2.355	-0.119	-3.799	S.3	1	UNK0	0.000	
22	   C	3.925	0.524	-3.603	C.2	1	UNK0	0.000	
23	   C	3.677	1.826	-3.253	C.2	1	UNK0	0.000	
24	   C	2.401	2.207	-3.168	C.2	1	UNK0	0.000	
25	  Br	5.636	-0.336	-3.813	Br	1	UNK0	0.000	
26	   H	-0.435	-1.232	-3.420	 H	1	UNK0	0.000	
27	   H	-1.951	-1.504	-2.433	 H	1	UNK0	0.000	
28	   H	0.904	-1.310	-1.464	 H	1	UNK0	0.000	
29	   H	0.356	1.040	-0.808	 H	1	UNK0	0.000	
30	   H	-1.257	0.494	-0.226	 H	1	UNK0	0.000	
31	   H	0.392	-1.157	1.572	 H	1	UNK0	0.000	
32	   H	-1.920	-2.960	3.801	 H	1	UNK0	0.000	
33	   H	-0.533	-4.093	3.454	 H	1	UNK0	0.000	
34	   H	1.633	-3.200	4.710	 H	1	UNK0	0.000	
35	   H	1.947	-2.541	3.030	 H	1	UNK0	0.000	
36	   H	2.413	-1.237	5.593	 H	1	UNK0	0.000	
37	   H	2.870	-0.706	3.961	 H	1	UNK0	0.000	
38	   H	0.911	0.544	5.480	 H	1	UNK0	0.000	
39	   H	1.052	0.687	3.681	 H	1	UNK0	0.000	
40	   H	4.535	2.500	-3.059	 H	1	UNK0	0.000	
41	   H	2.092	3.235	-2.893	 H	1	UNK0	0.000	
@<TRIPOS>BOND
1 1 2 2
2 1 3 2
3 1 4 1
4 1 20 1
5 4 5 1
6 4 7 1
7 5 6 1
8 6 7 1
9 6 8 1
10 8 9 1
11 8 12 1
12 9 10 2
13 10 11 1
14 11 12 2
15 11 13 1
16 13 14 1
17 14 15 1
18 14 18 1
19 15 16 1
20 16 17 1
21 17 18 1
22 18 19 2
23 20 21 1
24 20 24 2
25 21 22 1
26 22 23 2
27 22 25 1
28 23 24 1
29 5 26 1
30 5 27 1
31 6 28 1
32 7 29 1
33 7 30 1
34 12 31 1
35 13 32 1
36 13 33 1
37 15 34 1
38 15 35 1
39 16 36 1
40 16 37 1
41 17 38 1
42 17 39 1
43 23 40 1
44 24 41 1
@<TRIPOS>SUBSTRUCTURE
1	UNK0	1	GROUP	1 ****	UNK
