REMARK  5 active torsions:
REMARK  status: ('A' for Active; 'I' for Inactive)
REMARK    1  A    between atoms: S_1  and  N_4 
REMARK    2  A    between atoms: S_1  and  C_20 
REMARK    3  A    between atoms: C_6  and  N_8 
REMARK    4  A    between atoms: C_11  and  C_13 
REMARK    5  A    between atoms: C_13  and  N_14 
ROOT
ATOM      1  N   UNK d   1      -1.083   0.423  -2.309  0.00  0.00    -0.202 NA
ATOM      2  C   UNK d   1      -0.961  -0.983  -2.459  0.00  0.00     0.136 C 
ATOM      3  C   UNK d   1      -0.153  -1.078  -1.224  0.00  0.00     0.139 C 
ATOM      4  C   UNK d   1      -0.489   0.358  -1.021  0.00  0.00     0.136 C 
ENDROOT
BRANCH   3   5
ATOM      5  N   UNK d   1      -0.675  -1.930  -0.173  0.00  0.00    -0.254 N 
ATOM      6  N   UNK d   1      -1.551  -2.896  -0.269  0.00  0.00    -0.066 NA
ATOM      7  N   UNK d   1      -1.773  -3.445   0.933  0.00  0.00    -0.134 NA
ATOM      8  C   UNK d   1      -1.012  -2.811   1.842  0.00  0.00     0.093 A 
ATOM      9  C   UNK d   1      -0.320  -1.849   1.120  0.00  0.00     0.145 A 
BRANCH   8  10
ATOM     10  C   UNK d   1      -0.923  -3.077   3.317  0.00  0.00     0.188 C 
BRANCH  10  11
ATOM     11  N   UNK d   1       0.029  -2.137   3.880  0.00  0.00    -0.346 N 
ATOM     12  C   UNK d   1       1.438  -2.355   4.014  0.00  0.00     0.126 C 
ATOM     13  C   UNK d   1       2.004  -1.080   4.571  0.00  0.00     0.029 C 
ATOM     14  C   UNK d   1       0.943  -0.029   4.518  0.00  0.00     0.104 C 
ATOM     15  C   UNK d   1      -0.311  -0.849   4.384  0.00  0.00     0.220 C 
ATOM     16  O   UNK d   1      -1.442  -0.423   4.680  0.00  0.00    -0.273 OA
ENDBRANCH  10  11
ENDBRANCH   8  10
ENDBRANCH   3   5
BRANCH   1  17
ATOM     17  S   UNK d   1      -0.318   1.449  -3.410  0.00  0.00     0.250 S 
ATOM     18  O   UNK d   1      -0.612   2.873  -3.034  0.00  0.00    -0.205 OA
ATOM     19  O   UNK d   1      -0.837   1.263  -4.816  0.00  0.00    -0.205 OA
BRANCH  17  20
ATOM     20  C   UNK d   1       1.436   1.281  -3.432  0.00  0.00     0.116 A 
ATOM     21  S   UNK d   1       2.355  -0.119  -3.799  0.00  0.00    -0.070 SA
ATOM     22  C   UNK d   1       3.925   0.524  -3.603  0.00  0.00     0.052 A 
ATOM     23  C   UNK d   1       3.677   1.826  -3.253  0.00  0.00     0.028 A 
ATOM     24 Br   UNK d   1       5.636  -0.336  -3.813  0.00  0.00    -0.043 Br
ATOM     25  C   UNK d   1       2.401   2.207  -3.168  0.00  0.00     0.034 A 
ENDBRANCH  17  20
ENDBRANCH   1  17
TORSDOF 5
