REMARK  4 active torsions:
REMARK  status: ('A' for Active; 'I' for Inactive)
REMARK    1  A    between atoms: S_1  and  N_4 
REMARK    2  A    between atoms: S_1  and  C_20 
REMARK       I    between atoms: N_7  and  C_10 
REMARK    3  A    between atoms: C_10  and  C_12 
REMARK    4  A    between atoms: C_12  and  C_13 
ROOT
ATOM      1  N   UNK d   1       0.562   1.898  -2.932  0.00  0.00    -0.304 N 
ATOM      2  C   UNK d   1       1.201   3.141  -2.664  0.00  0.00     0.155 C 
ATOM      3  C   UNK d   1       1.610   3.438  -1.297  0.00  0.00     0.145 C 
ATOM      4  N   UNK d   1       1.645   2.352  -0.337  0.00  0.00    -0.360 N 
ATOM      5  C   UNK d   1       1.037   1.092  -0.636  0.00  0.00     0.145 C 
ATOM      6  C   UNK d   1       1.008   0.814  -2.134  0.00  0.00     0.155 C 
ATOM      7  C   UNK d   1       2.310   2.569   0.871  0.00  0.00     0.158 C 
ATOM      8  O   UNK d   1       2.919   3.774   0.867  0.00  0.00    -0.177 OA
ENDROOT
BRANCH   1   9
ATOM      9  S   UNK d   1      -1.108   1.958  -3.212  0.00  0.00     0.261 S 
ATOM     10  O   UNK d   1      -1.415   1.290  -4.524  0.00  0.00    -0.200 OA
ATOM     11  O   UNK d   1      -1.571   3.398  -3.353  0.00  0.00    -0.200 OA
BRANCH   9  12
ATOM     12  C   UNK d   1      -2.072   1.130  -2.007  0.00  0.00     0.082 A 
ATOM     13  C   UNK d   1      -2.295  -0.242  -2.115  0.00  0.00     0.057 A 
ATOM     14  C   UNK d   1      -3.055  -0.947  -1.207  0.00  0.00     0.070 A 
ATOM     15  C   UNK d   1      -3.638  -0.313  -0.133  0.00  0.00     0.096 A 
ATOM     16  N   UNK d   1      -3.282  -2.360  -1.345  0.00  0.00    -0.323 N 
ATOM     17  C   UNK d   1      -3.422   1.043  -0.020  0.00  0.00     0.040 A 
ATOM     18  O   UNK d   1      -4.419  -1.025   0.799  0.00  0.00    -0.340 OA
ATOM     19  C   UNK d   1      -2.657   1.761  -0.932  0.00  0.00     0.028 A 
ATOM     20  C   UNK d   1      -4.190  -2.433   0.985  0.00  0.00     0.278 C 
ATOM     21  C   UNK d   1      -4.089  -3.011  -0.380  0.00  0.00     0.246 C 
ATOM     22  O   UNK d   1      -4.693  -4.056  -0.713  0.00  0.00    -0.271 OA
ATOM     23  H   UNK d   1      -2.841  -2.826  -2.151  0.00  0.00     0.169 HD
ENDBRANCH   9  12
ENDBRANCH   1   9
BRANCH   7  24
ATOM     24  C   UNK d   1       2.475   1.806   2.074  0.00  0.00     0.127 C 
BRANCH  24  25
ATOM     25  C   UNK d   1       2.399   0.347   2.070  0.00  0.00    -0.033 A 
ATOM     26  C   UNK d   1       3.455  -0.424   1.650  0.00  0.00     0.017 A 
ATOM     27  C   UNK d   1       3.372  -1.816   1.657  0.00  0.00     0.019 A 
ATOM     28 Br   UNK d   1       5.072   0.400   1.032  0.00  0.00    -0.051 Br
ATOM     29  C   UNK d   1       2.227  -2.418   2.089  0.00  0.00     0.001 A 
ATOM     30  C   UNK d   1       1.151  -1.640   2.520  0.00  0.00     0.001 A 
ATOM     31  C   UNK d   1       1.235  -0.284   2.511  0.00  0.00     0.009 A 
ENDBRANCH  24  25
ENDBRANCH   7  24
TORSDOF 4
