# created with PyMOL 2.3.2
@<TRIPOS>MOLECULE
1040
60 64 1                 
SMALL
USER_CHARGES
@<TRIPOS>ATOM
1	   S	0.282	-1.000	0.491	S.O2	1	UNK0	0.000	
2	   O	1.136	-2.081	1.032	O.2	1	UNK0	0.000	
3	   O	-0.723	-1.713	-0.421	O.2	1	UNK0	0.000	
4	   N	1.115	0.085	-0.553	N.3	1	UNK0	0.000	
5	   C	0.263	0.923	-1.324	C.3	1	UNK0	0.000	
6	   C	-0.180	0.314	-2.648	C.3	1	UNK0	0.000	
7	   N	0.971	-0.141	-3.353	N.pl3	1	UNK0	0.000	
8	   C	1.727	-1.180	-2.582	C.3	1	UNK0	0.000	
9	   C	2.152	-0.532	-1.308	C.3	1	UNK0	0.000	
10	   C	1.490	0.203	-4.585	C.2	1	UNK0	0.000	
11	   O	2.595	-0.434	-4.918	O.2	1	UNK0	0.000	
12	   C	1.041	1.136	-5.577	C.3	1	UNK0	0.000	
13	   N	-0.150	1.875	-5.365	N.pl3	1	UNK0	0.000	
14	   N	-0.280	3.062	-4.775	N.2	1	UNK0	0.000	
15	   C	-1.556	3.467	-4.792	C.2	1	UNK0	0.000	
16	   C	-2.259	2.474	-5.429	C.2	1	UNK0	0.000	
17	   C	-1.385	1.490	-5.782	C.2	1	UNK0	0.000	
18	  Br	-4.153	2.468	-5.767	Br	1	UNK0	0.000	
19	   C	-0.680	-0.166	1.671	C.2	1	UNK0	0.000	
20	   C	-2.031	0.137	1.452	C.2	1	UNK0	0.000	
21	   C	-2.789	0.803	2.394	C.2	1	UNK0	0.000	
22	   C	-2.243	1.199	3.598	C.2	1	UNK0	0.000	
23	   C	-0.925	0.908	3.818	C.2	1	UNK0	0.000	
24	   C	-0.173	0.236	2.860	C.2	1	UNK0	0.000	
25	   C	1.232	0.004	3.235	C.3	1	UNK0	0.000	
26	   C	1.330	-0.581	4.627	C.3	1	UNK0	0.000	
27	   N	0.452	0.076	5.519	N.3	1	UNK0	0.000	
28	   C	-0.197	1.262	5.058	C.3	1	UNK0	0.000	
29	   C	-0.313	-0.745	6.390	C.3	1	UNK0	0.000	
30	   O	-3.011	1.880	4.565	O.3	1	UNK0	0.000	
31	   C	-3.714	1.108	5.549	C.3	1	UNK0	0.000	
32	   O	-4.059	0.944	1.879	O.3	1	UNK0	0.000	
33	   C	-4.066	0.487	0.556	C.3	1	UNK0	0.000	
34	   O	-2.815	-0.147	0.338	O.3	1	UNK0	0.000	
35	   H	-0.655	1.152	-0.748	 H	1	UNK0	0.000	
36	   H	0.787	1.868	-1.569	 H	1	UNK0	0.000	
37	   H	-0.820	1.042	-3.122	 H	1	UNK0	0.000	
38	   H	-0.817	-0.590	-2.466	 H	1	UNK0	0.000	
39	   H	2.630	-1.479	-3.143	 H	1	UNK0	0.000	
40	   H	1.104	-2.054	-2.399	 H	1	UNK0	0.000	
41	   H	2.713	-1.262	-0.695	 H	1	UNK0	0.000	
42	   H	2.897	0.266	-1.572	 H	1	UNK0	0.000	
43	   H	0.911	0.621	-6.602	 H	1	UNK0	0.000	
44	   H	1.907	1.855	-5.825	 H	1	UNK0	0.000	
45	   H	-1.948	4.403	-4.378	 H	1	UNK0	0.000	
46	   H	-1.638	0.584	-6.294	 H	1	UNK0	0.000	
47	   H	1.863	-0.475	2.499	 H	1	UNK0	0.000	
48	   H	1.670	1.048	3.349	 H	1	UNK0	0.000	
49	   H	0.979	-1.647	4.527	 H	1	UNK0	0.000	
50	   H	2.384	-0.633	4.972	 H	1	UNK0	0.000	
51	   H	-0.882	1.622	5.845	 H	1	UNK0	0.000	
52	   H	0.509	2.086	4.819	 H	1	UNK0	0.000	
53	   H	-0.273	-0.445	7.457	 H	1	UNK0	0.000	
54	   H	0.014	-1.805	6.251	 H	1	UNK0	0.000	
55	   H	-1.382	-0.729	6.073	 H	1	UNK0	0.000	
56	   H	-3.597	0.023	5.352	 H	1	UNK0	0.000	
57	   H	-4.796	1.335	5.510	 H	1	UNK0	0.000	
58	   H	-3.383	1.394	6.579	 H	1	UNK0	0.000	
59	   H	-4.253	1.270	-0.192	 H	1	UNK0	0.000	
60	   H	-4.834	-0.333	0.505	 H	1	UNK0	0.000	
@<TRIPOS>BOND
1 1 2 2
2 1 3 2
3 1 4 1
4 1 19 1
5 4 5 1
6 4 9 1
7 5 6 1
8 6 7 1
9 7 8 1
10 7 10 1
11 8 9 1
12 10 11 2
13 10 12 1
14 12 13 1
15 13 14 1
16 13 17 1
17 14 15 2
18 15 16 1
19 16 17 2
20 16 18 1
21 19 20 2
22 19 24 1
23 20 21 1
24 20 34 1
25 21 22 2
26 21 32 1
27 22 23 1
28 22 30 1
29 23 24 2
30 23 28 1
31 24 25 1
32 25 26 1
33 26 27 1
34 27 28 1
35 27 29 1
36 30 31 1
37 32 33 1
38 33 34 1
39 5 35 1
40 5 36 1
41 6 37 1
42 6 38 1
43 8 39 1
44 8 40 1
45 9 41 1
46 9 42 1
47 12 43 1
48 12 44 1
49 15 45 1
50 17 46 1
51 25 47 1
52 25 48 1
53 26 49 1
54 26 50 1
55 28 51 1
56 28 52 1
57 29 53 1
58 29 54 1
59 29 55 1
60 31 56 1
61 31 57 1
62 31 58 1
63 33 59 1
64 33 60 1
@<TRIPOS>SUBSTRUCTURE
1	UNK0	1	GROUP	1 ****	UNK
