REMARK  4 active torsions:
REMARK  status: ('A' for Active; 'I' for Inactive)
REMARK    1  A    between atoms: S_1  and  N_4 
REMARK    2  A    between atoms: S_1  and  C_19 
REMARK       I    between atoms: N_7  and  C_10 
REMARK    3  A    between atoms: C_12  and  N_13 
REMARK    4  A    between atoms: C_22  and  O_30 
ROOT
ATOM      1  S   UNK d   1       0.282  -1.000   0.491  0.00  0.00     0.247 S 
ATOM      2  O   UNK d   1       1.136  -2.081   1.032  0.00  0.00    -0.206 OA
ATOM      3  O   UNK d   1      -0.723  -1.713  -0.421  0.00  0.00    -0.206 OA
ENDROOT
BRANCH   1   4
ATOM      4  N   UNK d   1       1.115   0.085  -0.553  0.00  0.00    -0.203 NA
ATOM      5  C   UNK d   1       0.263   0.923  -1.324  0.00  0.00     0.127 C 
ATOM      6  C   UNK d   1      -0.180   0.314  -2.648  0.00  0.00     0.140 C 
ATOM      7  N   UNK d   1       0.971  -0.141  -3.353  0.00  0.00    -0.359 N 
ATOM      8  C   UNK d   1       1.727  -1.180  -2.582  0.00  0.00     0.140 C 
ATOM      9  C   UNK d   1       1.490   0.203  -4.585  0.00  0.00     0.173 C 
ATOM     10  C   UNK d   1       2.152  -0.532  -1.308  0.00  0.00     0.127 C 
ATOM     11  O   UNK d   1       2.595  -0.434  -4.918  0.00  0.00    -0.175 OA
ATOM     12  C   UNK d   1       1.041   1.136  -5.577  0.00  0.00     0.237 C 
BRANCH  12  13
ATOM     13  N   UNK d   1      -0.150   1.875  -5.365  0.00  0.00    -0.272 N 
ATOM     14  N   UNK d   1      -0.280   3.062  -4.775  0.00  0.00    -0.183 NA
ATOM     15  C   UNK d   1      -1.556   3.467  -4.792  0.00  0.00     0.159 A 
ATOM     16  C   UNK d   1      -2.259   2.474  -5.429  0.00  0.00     0.047 A 
ATOM     17  C   UNK d   1      -1.385   1.490  -5.782  0.00  0.00     0.133 A 
ATOM     18 Br   UNK d   1      -4.153   2.468  -5.767  0.00  0.00    -0.048 Br
ENDBRANCH  12  13
ENDBRANCH   1   4
BRANCH   1  19
ATOM     19  C   UNK d   1      -0.680  -0.166   1.671  0.00  0.00     0.118 A 
ATOM     20  C   UNK d   1      -2.031   0.137   1.452  0.00  0.00     0.131 A 
ATOM     21  C   UNK d   1      -2.789   0.803   2.394  0.00  0.00     0.140 A 
ATOM     22  O   UNK d   1      -2.815  -0.147   0.338  0.00  0.00    -0.321 OA
ATOM     23  C   UNK d   1      -2.243   1.199   3.598  0.00  0.00     0.113 A 
ATOM     24  O   UNK d   1      -4.059   0.944   1.879  0.00  0.00    -0.320 OA
ATOM     25  C   UNK d   1      -0.925   0.908   3.818  0.00  0.00     0.004 A 
ATOM     26  C   UNK d   1      -0.173   0.236   2.860  0.00  0.00    -0.020 A 
ATOM     27  C   UNK d   1      -0.197   1.262   5.058  0.00  0.00     0.158 C 
ATOM     28  C   UNK d   1       1.232   0.004   3.235  0.00  0.00     0.060 C 
ATOM     29  C   UNK d   1       1.330  -0.581   4.627  0.00  0.00     0.121 C 
ATOM     30  N   UNK d   1       0.452   0.076   5.519  0.00  0.00    -0.412 N 
ATOM     31  C   UNK d   1      -0.313  -0.745   6.390  0.00  0.00     0.143 C 
ATOM     32  C   UNK d   1      -4.066   0.487   0.556  0.00  0.00     0.352 C 
BRANCH  23  33
ATOM     33  O   UNK d   1      -3.011   1.880   4.565  0.00  0.00    -0.352 OA
ATOM     34  C   UNK d   1      -3.714   1.108   5.549  0.00  0.00     0.210 C 
ENDBRANCH  23  33
ENDBRANCH   1  19
TORSDOF 4
