# created with PyMOL 2.3.2
@<TRIPOS>MOLECULE
1042
53 56 1                 
SMALL
USER_CHARGES
@<TRIPOS>ATOM
1	   S	0.527	4.723	-1.776	S.O2	1	UNK0	0.000	
2	   O	1.140	5.273	-3.071	O.2	1	UNK0	0.000	
3	   O	-0.652	5.669	-1.528	O.2	1	UNK0	0.000	
4	   N	0.028	3.169	-2.059	N.3	1	UNK0	0.000	
5	   C	0.864	2.154	-2.495	C.3	1	UNK0	0.000	
6	   C	-0.021	0.955	-2.933	C.3	1	UNK0	0.000	
7	   N	-0.942	0.626	-1.881	N.pl3	1	UNK0	0.000	
8	   C	-1.845	1.671	-1.456	C.3	1	UNK0	0.000	
9	   C	-1.390	2.947	-2.130	C.3	1	UNK0	0.000	
10	   C	-1.003	-0.637	-1.262	C.2	1	UNK0	0.000	
11	   O	-0.218	-1.538	-1.635	O.2	1	UNK0	0.000	
12	   C	-1.966	-0.910	-0.194	C.3	1	UNK0	0.000	
13	   N	-1.830	-2.284	0.282	N.pl3	1	UNK0	0.000	
14	   C	-1.020	-2.806	1.315	C.2	1	UNK0	0.000	
15	   O	-0.230	-2.120	2.043	O.2	1	UNK0	0.000	
16	   N	-1.257	-4.207	1.377	N.pl3	1	UNK0	0.000	
17	   C	-2.523	-4.449	0.736	C.3	1	UNK0	0.000	
18	   C	-3.689	-4.410	1.669	C.3	1	UNK0	0.000	
19	   C	-4.783	-5.076	0.825	C.3	1	UNK0	0.000	
20	   C	-4.052	-6.154	0.073	C.3	1	UNK0	0.000	
21	   C	-2.596	-5.826	0.118	C.3	1	UNK0	0.000	
22	   C	-2.568	-3.382	-0.292	C.2	1	UNK0	0.000	
23	   O	-3.128	-3.435	-1.410	O.2	1	UNK0	0.000	
24	   C	1.727	4.991	-0.550	C.2	1	UNK0	0.000	
25	   C	3.048	4.637	-0.615	C.2	1	UNK0	0.000	
26	   C	3.925	4.853	0.454	C.2	1	UNK0	0.000	
27	   C	3.510	5.427	1.614	C.2	1	UNK0	0.000	
28	   C	2.195	5.795	1.710	C.2	1	UNK0	0.000	
29	   C	1.330	5.584	0.663	C.2	1	UNK0	0.000	
30	  Br	3.730	3.894	-2.222	Br	1	UNK0	0.000	
31	   H	1.627	1.786	-1.780	 H	1	UNK0	0.000	
32	   H	1.383	2.428	-3.434	 H	1	UNK0	0.000	
33	   H	-0.545	1.272	-3.841	 H	1	UNK0	0.000	
34	   H	0.683	0.161	-3.193	 H	1	UNK0	0.000	
35	   H	-2.862	1.453	-1.882	 H	1	UNK0	0.000	
36	   H	-1.946	1.778	-0.378	 H	1	UNK0	0.000	
37	   H	-1.915	3.839	-1.745	 H	1	UNK0	0.000	
38	   H	-1.661	2.856	-3.203	 H	1	UNK0	0.000	
39	   H	-3.016	-0.676	-0.497	 H	1	UNK0	0.000	
40	   H	-1.794	-0.266	0.716	 H	1	UNK0	0.000	
41	   H	-0.579	-4.871	1.827	 H	1	UNK0	0.000	
42	   H	-3.480	-5.075	2.522	 H	1	UNK0	0.000	
43	   H	-3.991	-3.384	1.958	 H	1	UNK0	0.000	
44	   H	-5.171	-4.335	0.093	 H	1	UNK0	0.000	
45	   H	-5.584	-5.466	1.471	 H	1	UNK0	0.000	
46	   H	-4.367	-6.207	-0.982	 H	1	UNK0	0.000	
47	   H	-4.203	-7.103	0.618	 H	1	UNK0	0.000	
48	   H	-1.998	-6.528	0.717	 H	1	UNK0	0.000	
49	   H	-2.138	-5.802	-0.909	 H	1	UNK0	0.000	
50	   H	4.940	4.546	0.322	 H	1	UNK0	0.000	
51	   H	4.234	5.565	2.397	 H	1	UNK0	0.000	
52	   H	1.867	6.253	2.633	 H	1	UNK0	0.000	
53	   H	0.292	5.876	0.742	 H	1	UNK0	0.000	
@<TRIPOS>BOND
1 1 2 2
2 1 3 2
3 1 4 1
4 1 24 1
5 4 5 1
6 4 9 1
7 5 6 1
8 6 7 1
9 7 8 1
10 7 10 1
11 8 9 1
12 10 11 2
13 10 12 1
14 12 13 1
15 13 14 1
16 13 22 1
17 14 15 2
18 14 16 1
19 16 17 1
20 17 18 1
21 17 21 1
22 17 22 1
23 18 19 1
24 19 20 1
25 20 21 1
26 22 23 2
27 24 25 2
28 24 29 1
29 25 26 1
30 25 30 1
31 26 27 2
32 27 28 1
33 28 29 2
34 5 31 1
35 5 32 1
36 6 33 1
37 6 34 1
38 8 35 1
39 8 36 1
40 9 37 1
41 9 38 1
42 12 39 1
43 12 40 1
44 16 41 1
45 18 42 1
46 18 43 1
47 19 44 1
48 19 45 1
49 20 46 1
50 20 47 1
51 21 48 1
52 21 49 1
53 26 50 1
54 27 51 1
55 28 52 1
56 29 53 1
@<TRIPOS>SUBSTRUCTURE
1	UNK0	1	GROUP	1 ****	UNK
