REMARK  4 active torsions:
REMARK  status: ('A' for Active; 'I' for Inactive)
REMARK    1  A    between atoms: S_1  and  N_4 
REMARK    2  A    between atoms: S_1  and  C_24 
REMARK       I    between atoms: N_7  and  C_10 
REMARK    3  A    between atoms: C_10  and  C_12 
REMARK    4  A    between atoms: C_12  and  N_13 
ROOT
ATOM      1  N   UNK d   1       0.028   3.169  -2.059  0.00  0.00    -0.304 N 
ATOM      2  C   UNK d   1       0.864   2.154  -2.495  0.00  0.00     0.155 C 
ATOM      3  C   UNK d   1      -0.021   0.955  -2.933  0.00  0.00     0.146 C 
ATOM      4  N   UNK d   1      -0.942   0.626  -1.881  0.00  0.00    -0.348 N 
ATOM      5  C   UNK d   1      -1.845   1.671  -1.456  0.00  0.00     0.146 C 
ATOM      6  C   UNK d   1      -1.390   2.947  -2.130  0.00  0.00     0.155 C 
ATOM      7  C   UNK d   1      -1.003  -0.637  -1.262  0.00  0.00     0.238 C 
ATOM      8  O   UNK d   1      -0.218  -1.538  -1.635  0.00  0.00    -0.272 OA
ENDROOT
BRANCH   7   9
ATOM      9  C   UNK d   1      -1.966  -0.910  -0.194  0.00  0.00     0.239 C 
BRANCH   9  10
ATOM     10  N   UNK d   1      -1.830  -2.284   0.282  0.00  0.00    -0.259 N 
ATOM     11  C   UNK d   1      -1.020  -2.806   1.315  0.00  0.00     0.326 C 
ATOM     12  O   UNK d   1      -0.230  -2.120   2.043  0.00  0.00    -0.247 OA
ATOM     13  N   UNK d   1      -1.257  -4.207   1.377  0.00  0.00    -0.324 N 
ATOM     14  C   UNK d   1      -2.523  -4.449   0.736  0.00  0.00     0.116 C 
ATOM     15  H   UNK d   1      -0.579  -4.871   1.827  0.00  0.00     0.165 HD
ATOM     16  C   UNK d   1      -3.689  -4.410   1.669  0.00  0.00     0.041 C 
ATOM     17  C   UNK d   1      -2.596  -5.826   0.118  0.00  0.00     0.041 C 
ATOM     18  C   UNK d   1      -2.568  -3.382  -0.292  0.00  0.00     0.256 C 
ATOM     19  C   UNK d   1      -4.783  -5.076   0.825  0.00  0.00     0.003 C 
ATOM     20  C   UNK d   1      -4.052  -6.154   0.073  0.00  0.00     0.003 C 
ATOM     21  O   UNK d   1      -3.128  -3.435  -1.410  0.00  0.00    -0.270 OA
ENDBRANCH   9  10
ENDBRANCH   7   9
BRANCH   1  22
ATOM     22  S   UNK d   1       0.527   4.723  -1.776  0.00  0.00     0.262 S 
ATOM     23  O   UNK d   1       1.140   5.273  -3.071  0.00  0.00    -0.200 OA
ATOM     24  O   UNK d   1      -0.652   5.669  -1.528  0.00  0.00    -0.200 OA
BRANCH  22  25
ATOM     25  C   UNK d   1       1.727   4.991  -0.550  0.00  0.00     0.097 A 
ATOM     26  C   UNK d   1       3.048   4.637  -0.615  0.00  0.00     0.034 A 
ATOM     27  C   UNK d   1       3.925   4.853   0.454  0.00  0.00     0.020 A 
ATOM     28 Br   UNK d   1       3.730   3.894  -2.222  0.00  0.00    -0.049 Br
ATOM     29  C   UNK d   1       3.510   5.427   1.614  0.00  0.00     0.001 A 
ATOM     30  C   UNK d   1       2.195   5.795   1.710  0.00  0.00     0.002 A 
ATOM     31  C   UNK d   1       1.330   5.584   0.663  0.00  0.00     0.027 A 
ENDBRANCH  22  25
ENDBRANCH   1  22
TORSDOF 4
