REMARK  3 active torsions:
REMARK  status: ('A' for Active; 'I' for Inactive)
REMARK    1  A    between atoms: S_1  and  N_4 
REMARK    2  A    between atoms: S_1  and  C_24 
REMARK       I    between atoms: N_7  and  C_10 
REMARK    3  A    between atoms: C_12  and  N_13 
ROOT
ATOM      1  N   UNK d   1       0.767   1.893  -1.246  0.00  0.00    -0.203 NA
ATOM      2  C   UNK d   1       1.357   1.102  -2.305  0.00  0.00     0.127 C 
ATOM      3  C   UNK d   1       1.992  -0.153  -1.760  0.00  0.00     0.140 C 
ATOM      4  N   UNK d   1       0.971  -0.823  -0.928  0.00  0.00    -0.359 N 
ATOM      5  C   UNK d   1       0.422  -0.028   0.126  0.00  0.00     0.140 C 
ATOM      6  C   UNK d   1       1.082   1.368   0.036  0.00  0.00     0.127 C 
ATOM      7  C   UNK d   1       0.592  -2.147  -1.192  0.00  0.00     0.172 C 
ATOM      8  O   UNK d   1       1.209  -2.698  -2.218  0.00  0.00    -0.175 OA
ATOM      9  C   UNK d   1      -0.347  -3.040  -0.562  0.00  0.00     0.224 C 
ENDROOT
BRANCH   9  10
ATOM     10  N   UNK d   1      -1.102  -2.614   0.574  0.00  0.00    -0.260 N 
ATOM     11  C   UNK d   1      -0.740  -2.740   1.973  0.00  0.00     0.326 C 
ATOM     12  O   UNK d   1       0.350  -3.253   2.351  0.00  0.00    -0.247 OA
ATOM     13  N   UNK d   1      -1.800  -2.200   2.745  0.00  0.00    -0.324 N 
ATOM     14  C   UNK d   1      -2.952  -2.152   1.910  0.00  0.00     0.116 C 
ATOM     15  H   UNK d   1      -1.676  -1.910   3.754  0.00  0.00     0.165 HD
ATOM     16  C   UNK d   1      -3.840  -3.366   2.042  0.00  0.00     0.041 C 
ATOM     17  C   UNK d   1      -3.905  -1.031   2.287  0.00  0.00     0.041 C 
ATOM     18  C   UNK d   1      -2.401  -1.986   0.566  0.00  0.00     0.256 C 
ATOM     19  C   UNK d   1      -5.095  -2.900   1.329  0.00  0.00     0.003 C 
ATOM     20  C   UNK d   1      -5.136  -1.400   1.494  0.00  0.00     0.003 C 
ATOM     21  O   UNK d   1      -2.922  -1.417  -0.427  0.00  0.00    -0.270 OA
ENDBRANCH   9  10
BRANCH   1  22
ATOM     22  S   UNK d   1       1.052   3.567  -1.419  0.00  0.00     0.243 S 
ATOM     23  O   UNK d   1       0.292   4.264  -0.305  0.00  0.00    -0.206 OA
ATOM     24  O   UNK d   1       0.426   4.048  -2.704  0.00  0.00    -0.206 OA
BRANCH  22  25
ATOM     25  C   UNK d   1       2.748   3.984  -1.378  0.00  0.00     0.074 A 
ATOM     26  C   UNK d   1       3.405   4.277  -0.200  0.00  0.00     0.026 A 
ATOM     27  C   UNK d   1       4.755   4.608  -0.178  0.00  0.00     0.020 A 
ATOM     28  C   UNK d   1       5.484   4.654  -1.338  0.00  0.00     0.011 A 
ATOM     29  C   UNK d   1       4.840   4.363  -2.522  0.00  0.00     0.020 A 
ATOM     30 Br   UNK d   1       7.355   5.111  -1.316  0.00  0.00    -0.051 Br
ATOM     31  C   UNK d   1       3.493   4.033  -2.537  0.00  0.00     0.026 A 
ENDBRANCH  22  25
ENDBRANCH   1  22
TORSDOF 3
