REMARK  3 active torsions:
REMARK  status: ('A' for Active; 'I' for Inactive)
REMARK    1  A    between atoms: S_1  and  N_4 
REMARK    2  A    between atoms: S_1  and  C_19 
REMARK       I    between atoms: N_7  and  C_10 
REMARK    3  A    between atoms: C_10  and  C_12 
ROOT
ATOM      1  N   UNK d   1      -2.223  -2.486  -0.934  0.00  0.00    -0.304 N 
ATOM      2  C   UNK d   1      -2.902  -1.312  -0.604  0.00  0.00     0.155 C 
ATOM      3  C   UNK d   1      -2.861  -0.887   0.821  0.00  0.00     0.146 C 
ATOM      4  N   UNK d   1      -1.718  -1.341   1.548  0.00  0.00    -0.345 N 
ATOM      5  C   UNK d   1      -0.723  -2.139   0.865  0.00  0.00     0.146 C 
ATOM      6  C   UNK d   1      -1.507  -3.174   0.061  0.00  0.00     0.155 C 
ATOM      7  C   UNK d   1      -1.520  -1.040   2.917  0.00  0.00     0.255 C 
ATOM      8  O   UNK d   1      -2.368  -0.341   3.559  0.00  0.00    -0.267 OA
ENDROOT
BRANCH   1   9
ATOM      9  S   UNK d   1      -1.694  -2.666  -2.530  0.00  0.00     0.261 S 
ATOM     10  O   UNK d   1      -1.158  -4.006  -2.852  0.00  0.00    -0.200 OA
ATOM     11  O   UNK d   1      -2.894  -2.438  -3.441  0.00  0.00    -0.200 OA
BRANCH   9  12
ATOM     12  C   UNK d   1      -0.546  -1.396  -2.938  0.00  0.00     0.082 A 
ATOM     13  C   UNK d   1       0.809  -1.558  -2.735  0.00  0.00     0.057 A 
ATOM     14  C   UNK d   1       1.734  -0.582  -3.045  0.00  0.00     0.070 A 
ATOM     15  C   UNK d   1       1.324   0.621  -3.582  0.00  0.00     0.096 A 
ATOM     16  N   UNK d   1       3.131  -0.744  -2.836  0.00  0.00    -0.323 N 
ATOM     17  C   UNK d   1      -0.037   0.787  -3.788  0.00  0.00     0.040 A 
ATOM     18  O   UNK d   1       2.234   1.626  -3.905  0.00  0.00    -0.340 OA
ATOM     19  C   UNK d   1      -0.956  -0.193  -3.476  0.00  0.00     0.028 A 
ATOM     20  C   UNK d   1       3.589   1.631  -3.498  0.00  0.00     0.278 C 
ATOM     21  C   UNK d   1       4.076   0.270  -3.159  0.00  0.00     0.246 C 
ATOM     22  O   UNK d   1       5.319   0.083  -3.175  0.00  0.00    -0.271 OA
ATOM     23  H   UNK d   1       3.457  -1.647  -2.431  0.00  0.00     0.169 HD
ENDBRANCH   9  12
ENDBRANCH   1   9
BRANCH   7  24
ATOM     24  C   UNK d   1      -0.361  -1.495   3.674  0.00  0.00     0.049 A 
ATOM     25  C   UNK d   1       0.803  -0.754   3.761  0.00  0.00     0.026 A 
ATOM     26  C   UNK d   1       1.903  -1.173   4.473  0.00  0.00     0.020 A 
ATOM     27 Br   UNK d   1       0.834   0.916   2.835  0.00  0.00    -0.050 Br
ATOM     28  C   UNK d   1       1.828  -2.393   5.127  0.00  0.00     0.001 A 
ATOM     29  C   UNK d   1       0.696  -3.172   5.076  0.00  0.00     0.001 A 
ATOM     30  C   UNK d   1      -0.378  -2.708   4.349  0.00  0.00     0.018 A 
ENDBRANCH   7  24
TORSDOF 3
