# created with PyMOL 2.3.2
@<TRIPOS>MOLECULE
1044
47 50 1                 
SMALL
USER_CHARGES
@<TRIPOS>ATOM
1	   S	-1.694	-2.666	-2.530	S.O2	1	UNK0	0.000	
2	   O	-1.158	-4.006	-2.852	O.2	1	UNK0	0.000	
3	   O	-2.894	-2.438	-3.441	O.2	1	UNK0	0.000	
4	   N	-2.223	-2.486	-0.934	N.3	1	UNK0	0.000	
5	   C	-2.902	-1.312	-0.604	C.3	1	UNK0	0.000	
6	   C	-2.861	-0.887	0.821	C.3	1	UNK0	0.000	
7	   N	-1.718	-1.341	1.548	N.pl3	1	UNK0	0.000	
8	   C	-0.723	-2.139	0.865	C.3	1	UNK0	0.000	
9	   C	-1.507	-3.174	0.061	C.3	1	UNK0	0.000	
10	   C	-1.520	-1.040	2.917	C.2	1	UNK0	0.000	
11	   O	-2.368	-0.341	3.559	O.2	1	UNK0	0.000	
12	   C	-0.361	-1.495	3.674	C.2	1	UNK0	0.000	
13	   C	0.803	-0.754	3.761	C.2	1	UNK0	0.000	
14	   C	1.903	-1.173	4.473	C.2	1	UNK0	0.000	
15	   C	1.828	-2.393	5.127	C.2	1	UNK0	0.000	
16	   C	0.696	-3.172	5.076	C.2	1	UNK0	0.000	
17	   C	-0.378	-2.708	4.349	C.2	1	UNK0	0.000	
18	  Br	0.834	0.916	2.835	Br	1	UNK0	0.000	
19	   C	-0.546	-1.396	-2.938	C.2	1	UNK0	0.000	
20	   C	0.809	-1.558	-2.735	C.2	1	UNK0	0.000	
21	   C	1.734	-0.582	-3.045	C.2	1	UNK0	0.000	
22	   C	1.324	0.621	-3.582	C.2	1	UNK0	0.000	
23	   C	-0.037	0.787	-3.788	C.2	1	UNK0	0.000	
24	   C	-0.956	-0.193	-3.476	C.2	1	UNK0	0.000	
25	   O	2.234	1.626	-3.905	O.3	1	UNK0	0.000	
26	   C	3.589	1.631	-3.498	C.3	1	UNK0	0.000	
27	   C	4.076	0.270	-3.159	C.2	1	UNK0	0.000	
28	   O	5.319	0.083	-3.175	O.2	1	UNK0	0.000	
29	   N	3.131	-0.744	-2.836	N.pl3	1	UNK0	0.000	
30	   H	-3.985	-1.421	-0.904	 H	1	UNK0	0.000	
31	   H	-2.516	-0.476	-1.259	 H	1	UNK0	0.000	
32	   H	-3.823	-1.148	1.327	 H	1	UNK0	0.000	
33	   H	-2.835	0.242	0.853	 H	1	UNK0	0.000	
34	   H	-0.025	-2.628	1.572	 H	1	UNK0	0.000	
35	   H	-0.150	-1.522	0.163	 H	1	UNK0	0.000	
36	   H	-0.767	-3.870	-0.348	 H	1	UNK0	0.000	
37	   H	-2.225	-3.671	0.762	 H	1	UNK0	0.000	
38	   H	2.823	-0.574	4.534	 H	1	UNK0	0.000	
39	   H	2.709	-2.714	5.689	 H	1	UNK0	0.000	
40	   H	0.667	-4.130	5.602	 H	1	UNK0	0.000	
41	   H	-1.270	-3.314	4.304	 H	1	UNK0	0.000	
42	   H	1.144	-2.493	-2.315	 H	1	UNK0	0.000	
43	   H	-0.363	1.732	-4.210	 H	1	UNK0	0.000	
44	   H	-2.012	-0.062	-3.636	 H	1	UNK0	0.000	
45	   H	3.724	2.272	-2.584	 H	1	UNK0	0.000	
46	   H	4.193	2.106	-4.296	 H	1	UNK0	0.000	
47	   H	3.457	-1.647	-2.431	 H	1	UNK0	0.000	
@<TRIPOS>BOND
1 1 2 2
2 1 3 2
3 1 4 1
4 1 19 1
5 4 5 1
6 4 9 1
7 5 6 1
8 6 7 1
9 7 8 1
10 7 10 1
11 8 9 1
12 10 11 2
13 10 12 1
14 12 13 2
15 12 17 1
16 13 14 1
17 13 18 1
18 14 15 2
19 15 16 1
20 16 17 2
21 19 20 2
22 19 24 1
23 20 21 1
24 21 22 2
25 21 29 1
26 22 23 1
27 22 25 1
28 23 24 2
29 25 26 1
30 26 27 1
31 27 28 2
32 27 29 1
33 5 30 1
34 5 31 1
35 6 32 1
36 6 33 1
37 8 34 1
38 8 35 1
39 9 36 1
40 9 37 1
41 14 38 1
42 15 39 1
43 16 40 1
44 17 41 1
45 20 42 1
46 23 43 1
47 24 44 1
48 26 45 1
49 26 46 1
50 29 47 1
@<TRIPOS>SUBSTRUCTURE
1	UNK0	1	GROUP	1 ****	UNK
