# created with PyMOL 2.3.2
@<TRIPOS>MOLECULE
1051
43 46 1                 
SMALL
USER_CHARGES
@<TRIPOS>ATOM
1	   S	1.487	2.349	-2.276	S.O2	1	UNK0	0.000	
2	   O	1.599	1.811	-3.666	O.2	1	UNK0	0.000	
3	   O	2.037	3.769	-2.267	O.2	1	UNK0	0.000	
4	   N	2.478	1.436	-1.204	N.3	1	UNK0	0.000	
5	   C	2.141	0.062	-1.136	C.3	1	UNK0	0.000	
6	   C	1.620	-0.435	0.169	C.3	1	UNK0	0.000	
7	   N	2.201	0.210	1.316	N.pl3	1	UNK0	0.000	
8	   C	3.208	1.213	1.051	C.3	1	UNK0	0.000	
9	   C	2.575	2.137	0.031	C.3	1	UNK0	0.000	
10	   C	1.855	-0.075	2.650	C.2	1	UNK0	0.000	
11	   O	2.416	0.539	3.584	O.2	1	UNK0	0.000	
12	   C	0.845	-1.083	2.955	C.2	1	UNK0	0.000	
13	   N	0.174	-1.807	2.065	N.2	1	UNK0	0.000	
14	   N	-0.673	-2.634	2.682	N.pl3	1	UNK0	0.000	
15	   C	-0.571	-2.464	4.020	C.2	1	UNK0	0.000	
16	   C	0.400	-1.471	4.193	C.2	1	UNK0	0.000	
17	   N	-1.322	-3.180	4.894	N.2	1	UNK0	0.000	
18	   C	-2.208	-4.101	4.416	C.2	1	UNK0	0.000	
19	   C	-2.334	-4.298	3.058	C.2	1	UNK0	0.000	
20	   C	-1.550	-3.546	2.212	C.2	1	UNK0	0.000	
21	  Br	-3.584	-5.597	2.387	Br	1	UNK0	0.000	
22	   C	-0.190	2.332	-1.791	C.2	1	UNK0	0.000	
23	   C	-1.159	1.430	-2.167	C.2	1	UNK0	0.000	
24	   N	-2.318	1.748	-1.589	N.pl3	1	UNK0	0.000	
25	   N	-2.135	2.825	-0.850	N.2	1	UNK0	0.000	
26	   C	-0.841	3.225	-0.940	C.2	1	UNK0	0.000	
27	   C	-3.576	1.062	-1.720	C.3	1	UNK0	0.000	
28	   H	1.400	-0.173	-1.928	 H	1	UNK0	0.000	
29	   H	3.052	-0.529	-1.385	 H	1	UNK0	0.000	
30	   H	0.499	-0.315	0.244	 H	1	UNK0	0.000	
31	   H	1.798	-1.525	0.288	 H	1	UNK0	0.000	
32	   H	3.491	1.782	1.956	 H	1	UNK0	0.000	
33	   H	4.073	0.682	0.594	 H	1	UNK0	0.000	
34	   H	3.242	3.013	-0.118	 H	1	UNK0	0.000	
35	   H	1.609	2.490	0.423	 H	1	UNK0	0.000	
36	   H	0.740	-1.081	5.129	 H	1	UNK0	0.000	
37	   H	-2.827	-4.695	5.075	 H	1	UNK0	0.000	
38	   H	-1.638	-3.688	1.140	 H	1	UNK0	0.000	
39	   H	-1.052	0.569	-2.832	 H	1	UNK0	0.000	
40	   H	-0.382	4.075	-0.451	 H	1	UNK0	0.000	
41	   H	-4.249	1.686	-2.344	 H	1	UNK0	0.000	
42	   H	-4.067	0.978	-0.730	 H	1	UNK0	0.000	
43	   H	-3.453	0.069	-2.196	 H	1	UNK0	0.000	
@<TRIPOS>BOND
1 1 2 2
2 1 3 2
3 1 4 1
4 1 22 1
5 4 5 1
6 4 9 1
7 5 6 1
8 6 7 1
9 7 8 1
10 7 10 1
11 8 9 1
12 10 11 2
13 10 12 1
14 12 13 2
15 12 16 1
16 13 14 1
17 14 15 1
18 14 20 1
19 15 16 2
20 15 17 1
21 17 18 2
22 18 19 1
23 19 20 2
24 19 21 1
25 22 23 2
26 22 26 1
27 23 24 1
28 24 25 1
29 24 27 1
30 25 26 2
31 5 28 1
32 5 29 1
33 6 30 1
34 6 31 1
35 8 32 1
36 8 33 1
37 9 34 1
38 9 35 1
39 16 36 1
40 18 37 1
41 20 38 1
42 23 39 1
43 26 40 1
44 27 41 1
45 27 42 1
46 27 43 1
@<TRIPOS>SUBSTRUCTURE
1	UNK0	1	GROUP	1 ****	UNK
