REMARK  3 active torsions:
REMARK  status: ('A' for Active; 'I' for Inactive)
REMARK    1  A    between atoms: S_1  and  N_4 
REMARK    2  A    between atoms: S_1  and  C_24 
REMARK       I    between atoms: N_7  and  C_10 
REMARK    3  A    between atoms: C_10  and  C_12 
ROOT
ATOM      1  N   UNK d   1       1.792  -3.344  -1.192  0.00  0.00    -0.304 N 
ATOM      2  C   UNK d   1       1.161  -4.176  -0.240  0.00  0.00     0.155 C 
ATOM      3  C   UNK d   1       0.133  -3.563   0.618  0.00  0.00     0.146 C 
ATOM      4  N   UNK d   1       0.488  -2.235   1.021  0.00  0.00    -0.345 N 
ATOM      5  C   UNK d   1       1.760  -1.698   0.631  0.00  0.00     0.146 C 
ATOM      6  C   UNK d   1       2.149  -2.037  -0.774  0.00  0.00     0.155 C 
ATOM      7  C   UNK d   1      -0.396  -1.455   1.793  0.00  0.00     0.260 C 
ATOM      8  O   UNK d   1      -1.502  -1.940   2.123  0.00  0.00    -0.267 OA
ENDROOT
BRANCH   7   9
ATOM      9  C   UNK d   1      -0.101  -0.099   2.238  0.00  0.00     0.118 A 
ATOM     10  C   UNK d   1       0.531   0.105   3.451  0.00  0.00     0.141 A 
ATOM     11  N   UNK d   1       0.804   1.353   3.862  0.00  0.00    -0.242 NA
ATOM     12  C   UNK d   1       0.485   2.443   3.131  0.00  0.00     0.136 A 
ATOM     13  N   UNK d   1      -0.130   2.280   1.947  0.00  0.00    -0.272 N 
ATOM     14  C   UNK d   1       0.780   3.725   3.582  0.00  0.00     0.051 A 
ATOM     15  C   UNK d   1      -0.454   3.377   1.206  0.00  0.00     0.108 A 
ATOM     16  C   UNK d   1      -0.419   1.027   1.506  0.00  0.00     0.270 A 
ATOM     17  C   UNK d   1      -0.170   4.657   1.636  0.00  0.00    -0.046 A 
ATOM     18  C   UNK d   1       0.463   4.849   2.853  0.00  0.00     0.012 A 
ATOM     19  C   UNK d   1      -0.507   5.875   0.858  0.00  0.00     0.049 C 
ATOM     20  O   UNK d   1      -0.986   0.878   0.413  0.00  0.00    -0.266 OA
ENDBRANCH   7   9
BRANCH   1  21
ATOM     21  S   UNK d   1       1.276  -3.505  -2.795  0.00  0.00     0.261 S 
ATOM     22  O   UNK d   1       2.098  -2.651  -3.696  0.00  0.00    -0.200 OA
ATOM     23  O   UNK d   1       1.450  -4.945  -3.211  0.00  0.00    -0.200 OA
BRANCH  21  24
ATOM     24  C   UNK d   1      -0.415  -3.102  -2.924  0.00  0.00     0.081 A 
ATOM     25  C   UNK d   1      -1.375  -4.080  -2.769  0.00  0.00     0.044 A 
ATOM     26  C   UNK d   1      -2.705  -3.689  -2.884  0.00  0.00     0.012 A 
ATOM     27  C   UNK d   1      -3.066  -2.392  -3.140  0.00  0.00     0.019 A 
ATOM     28 Br   UNK d   1      -4.076  -4.991  -2.681  0.00  0.00    -0.051 Br
ATOM     29  C   UNK d   1      -2.092  -1.416  -3.294  0.00  0.00     0.003 A 
ATOM     30  C   UNK d   1      -0.748  -1.788  -3.182  0.00  0.00     0.025 A 
ENDBRANCH  21  24
ENDBRANCH   1  21
TORSDOF 3
