# created with PyMOL 2.3.2
@<TRIPOS>MOLECULE
1056
49 52 1                 
SMALL
USER_CHARGES
@<TRIPOS>ATOM
1	   S	1.276	-3.505	-2.795	S.O2	1	UNK0	0.000	
2	   O	2.098	-2.651	-3.696	O.2	1	UNK0	0.000	
3	   O	1.450	-4.945	-3.211	O.2	1	UNK0	0.000	
4	   N	1.792	-3.344	-1.192	N.3	1	UNK0	0.000	
5	   C	1.161	-4.176	-0.240	C.3	1	UNK0	0.000	
6	   C	0.133	-3.563	0.618	C.3	1	UNK0	0.000	
7	   N	0.488	-2.235	1.021	N.pl3	1	UNK0	0.000	
8	   C	1.760	-1.698	0.631	C.3	1	UNK0	0.000	
9	   C	2.149	-2.037	-0.774	C.3	1	UNK0	0.000	
10	   C	-0.396	-1.455	1.793	C.2	1	UNK0	0.000	
11	   O	-1.502	-1.940	2.123	O.2	1	UNK0	0.000	
12	   C	-0.101	-0.099	2.238	C.2	1	UNK0	0.000	
13	   C	0.531	0.105	3.451	C.2	1	UNK0	0.000	
14	   N	0.804	1.353	3.862	N.2	1	UNK0	0.000	
15	   C	0.485	2.443	3.131	C.2	1	UNK0	0.000	
16	   N	-0.130	2.280	1.947	N.pl3	1	UNK0	0.000	
17	   C	-0.454	3.377	1.206	C.2	1	UNK0	0.000	
18	   C	-0.170	4.657	1.636	C.2	1	UNK0	0.000	
19	   C	0.463	4.849	2.853	C.2	1	UNK0	0.000	
20	   C	0.780	3.725	3.582	C.2	1	UNK0	0.000	
21	   C	-0.507	5.875	0.858	C.3	1	UNK0	0.000	
22	   C	-0.419	1.027	1.506	C.2	1	UNK0	0.000	
23	   O	-0.986	0.878	0.413	O.2	1	UNK0	0.000	
24	   C	-0.415	-3.102	-2.924	C.2	1	UNK0	0.000	
25	   C	-1.375	-4.080	-2.769	C.2	1	UNK0	0.000	
26	   C	-2.705	-3.689	-2.884	C.2	1	UNK0	0.000	
27	   C	-3.066	-2.392	-3.140	C.2	1	UNK0	0.000	
28	   C	-2.092	-1.416	-3.294	C.2	1	UNK0	0.000	
29	   C	-0.748	-1.788	-3.182	C.2	1	UNK0	0.000	
30	  Br	-4.076	-4.991	-2.681	Br	1	UNK0	0.000	
31	   H	0.712	-5.049	-0.781	 H	1	UNK0	0.000	
32	   H	1.952	-4.621	0.417	 H	1	UNK0	0.000	
33	   H	-0.832	-3.550	0.029	 H	1	UNK0	0.000	
34	   H	-0.063	-4.140	1.564	 H	1	UNK0	0.000	
35	   H	1.774	-0.601	0.793	 H	1	UNK0	0.000	
36	   H	2.515	-2.104	1.368	 H	1	UNK0	0.000	
37	   H	3.246	-1.908	-0.876	 H	1	UNK0	0.000	
38	   H	1.676	-1.300	-1.454	 H	1	UNK0	0.000	
39	   H	0.797	-0.769	4.056	 H	1	UNK0	0.000	
40	   H	-0.949	3.238	0.255	 H	1	UNK0	0.000	
41	   H	0.712	5.826	3.242	 H	1	UNK0	0.000	
42	   H	1.274	3.858	4.534	 H	1	UNK0	0.000	
43	   H	0.329	6.130	0.153	 H	1	UNK0	0.000	
44	   H	-0.675	6.747	1.536	 H	1	UNK0	0.000	
45	   H	-1.392	5.708	0.206	 H	1	UNK0	0.000	
46	   H	-1.095	-5.100	-2.568	 H	1	UNK0	0.000	
47	   H	-4.113	-2.135	-3.221	 H	1	UNK0	0.000	
48	   H	-2.389	-0.400	-3.495	 H	1	UNK0	0.000	
49	   H	0.020	-1.045	-3.298	 H	1	UNK0	0.000	
@<TRIPOS>BOND
1 1 2 2
2 1 3 2
3 1 4 1
4 1 24 1
5 4 5 1
6 4 9 1
7 5 6 1
8 6 7 1
9 7 8 1
10 7 10 1
11 8 9 1
12 10 11 2
13 10 12 1
14 12 13 2
15 12 22 1
16 13 14 1
17 14 15 2
18 15 16 1
19 15 20 1
20 16 17 1
21 16 22 1
22 17 18 2
23 18 19 1
24 18 21 1
25 19 20 2
26 22 23 2
27 24 25 2
28 24 29 1
29 25 26 1
30 26 27 2
31 26 30 1
32 27 28 1
33 28 29 2
34 5 31 1
35 5 32 1
36 6 33 1
37 6 34 1
38 8 35 1
39 8 36 1
40 9 37 1
41 9 38 1
42 13 39 1
43 17 40 1
44 19 41 1
45 20 42 1
46 21 43 1
47 21 44 1
48 21 45 1
49 25 46 1
50 27 47 1
51 28 48 1
52 29 49 1
@<TRIPOS>SUBSTRUCTURE
1	UNK0	1	GROUP	1 ****	UNK
