# created with PyMOL 2.3.2
@<TRIPOS>MOLECULE
1073
45 48 1                 
SMALL
USER_CHARGES
@<TRIPOS>ATOM
1	   S	1.485	-3.175	2.472	S.O2	1	UNK0	0.000	
2	   O	1.387	-4.658	2.598	O.2	1	UNK0	0.000	
3	   O	2.899	-2.763	2.728	O.2	1	UNK0	0.000	
4	   N	0.972	-2.619	0.993	N.3	1	UNK0	0.000	
5	   C	-0.336	-2.916	0.570	C.3	1	UNK0	0.000	
6	   C	-0.686	-2.310	-0.761	C.3	1	UNK0	0.000	
7	   N	0.130	-1.212	-1.138	N.3	1	UNK0	0.000	
8	   C	1.503	-1.571	-1.156	C.3	1	UNK0	0.000	
9	   C	1.954	-2.374	0.007	C.3	1	UNK0	0.000	
10	   C	-0.237	-0.019	-0.471	C.3	1	UNK0	0.000	
11	   N	0.521	1.149	-0.767	N.pl3	1	UNK0	0.000	
12	   N	0.180	1.938	-1.765	N.2	1	UNK0	0.000	
13	   C	0.842	3.052	-2.114	C.2	1	UNK0	0.000	
14	   C	1.949	3.374	-1.365	C.2	1	UNK0	0.000	
15	   C	2.358	2.589	-0.308	C.2	1	UNK0	0.000	
16	   C	1.601	1.458	-0.032	C.2	1	UNK0	0.000	
17	   O	1.983	0.732	0.951	O.2	1	UNK0	0.000	
18	   N	0.446	3.890	-3.206	N.pl3	1	UNK0	0.000	
19	   C	1.215	4.627	-4.014	C.2	1	UNK0	0.000	
20	   N	0.424	5.257	-4.902	N.2	1	UNK0	0.000	
21	   C	-0.858	4.926	-4.666	C.2	1	UNK0	0.000	
22	   C	-0.828	4.062	-3.592	C.2	1	UNK0	0.000	
23	   C	0.464	-2.472	3.744	C.2	1	UNK0	0.000	
24	   S	-1.220	-2.610	3.970	S.3	1	UNK0	0.000	
25	   C	-1.384	-1.664	5.377	C.2	1	UNK0	0.000	
26	   C	-0.098	-1.258	5.636	C.2	1	UNK0	0.000	
27	   C	0.852	-1.680	4.787	C.2	1	UNK0	0.000	
28	  Br	-2.965	-1.249	6.376	Br	1	UNK0	0.000	
29	   H	-0.478	-4.018	0.552	 H	1	UNK0	0.000	
30	   H	-1.069	-2.530	1.319	 H	1	UNK0	0.000	
31	   H	-1.748	-1.999	-0.781	 H	1	UNK0	0.000	
32	   H	-0.583	-3.102	-1.538	 H	1	UNK0	0.000	
33	   H	2.180	-0.694	-1.374	 H	1	UNK0	0.000	
34	   H	1.645	-2.214	-2.078	 H	1	UNK0	0.000	
35	   H	2.819	-1.841	0.484	 H	1	UNK0	0.000	
36	   H	2.385	-3.364	-0.301	 H	1	UNK0	0.000	
37	   H	-1.303	0.208	-0.775	 H	1	UNK0	0.000	
38	   H	-0.317	-0.162	0.644	 H	1	UNK0	0.000	
39	   H	2.512	4.265	-1.613	 H	1	UNK0	0.000	
40	   H	3.224	2.831	0.287	 H	1	UNK0	0.000	
41	   H	2.301	4.696	-3.951	 H	1	UNK0	0.000	
42	   H	-1.738	5.279	-5.224	 H	1	UNK0	0.000	
43	   H	-1.702	3.614	-3.156	 H	1	UNK0	0.000	
44	   H	0.098	-0.608	6.525	 H	1	UNK0	0.000	
45	   H	1.919	-1.392	4.933	 H	1	UNK0	0.000	
@<TRIPOS>BOND
1 1 2 2
2 1 3 2
3 1 4 1
4 1 23 1
5 4 5 1
6 4 9 1
7 5 6 1
8 6 7 1
9 7 8 1
10 7 10 1
11 8 9 1
12 10 11 1
13 11 12 1
14 11 16 1
15 12 13 2
16 13 14 1
17 13 18 1
18 14 15 2
19 15 16 1
20 16 17 2
21 18 19 1
22 18 22 1
23 19 20 2
24 20 21 1
25 21 22 2
26 23 24 1
27 23 27 2
28 24 25 1
29 25 26 2
30 25 28 1
31 26 27 1
32 5 29 1
33 5 30 1
34 6 31 1
35 6 32 1
36 8 33 1
37 8 34 1
38 9 35 1
39 9 36 1
40 10 37 1
41 10 38 1
42 14 39 1
43 15 40 1
44 19 41 1
45 21 42 1
46 22 43 1
47 26 44 1
48 27 45 1
@<TRIPOS>SUBSTRUCTURE
1	UNK0	1	GROUP	1 ****	UNK
