REMARK  5 active torsions:
REMARK  status: ('A' for Active; 'I' for Inactive)
REMARK    1  A    between atoms: S_1  and  N_4 
REMARK    2  A    between atoms: S_1  and  C_23 
REMARK    3  A    between atoms: N_7  and  C_10 
REMARK    4  A    between atoms: C_10  and  N_11 
REMARK    5  A    between atoms: C_13  and  N_18 
ROOT
ATOM      1  N   UNK d   1       0.972  -2.619   0.993  0.00  0.00    -0.303 N 
ATOM      2  C   UNK d   1      -0.336  -2.916   0.570  0.00  0.00     0.165 C 
ATOM      3  C   UNK d   1      -0.686  -2.310  -0.761  0.00  0.00     0.295 C 
ATOM      4  N   UNK d   1       0.130  -1.212  -1.138  0.00  0.00     0.111 NA
ATOM      5  C   UNK d   1       1.503  -1.571  -1.156  0.00  0.00     0.295 C 
ATOM      6  C   UNK d   1       1.954  -2.374   0.007  0.00  0.00     0.165 C 
ENDROOT
BRANCH   4   7
ATOM      7  C   UNK d   1      -0.237  -0.019  -0.471  0.00  0.00     0.426 C 
BRANCH   7   8
ATOM      8  N   UNK d   1       0.521   1.149  -0.767  0.00  0.00    -0.204 N 
ATOM      9  N   UNK d   1       0.180   1.938  -1.765  0.00  0.00    -0.149 NA
ATOM     10  C   UNK d   1       0.842   3.052  -2.114  0.00  0.00     0.155 A 
ATOM     11  C   UNK d   1       1.949   3.374  -1.365  0.00  0.00     0.058 A 
ATOM     12  C   UNK d   1       2.358   2.589  -0.308  0.00  0.00     0.080 A 
ATOM     13  C   UNK d   1       1.601   1.458  -0.032  0.00  0.00     0.265 A 
ATOM     14  O   UNK d   1       1.983   0.732   0.951  0.00  0.00    -0.267 OA
BRANCH  10  15
ATOM     15  N   UNK d   1       0.446   3.890  -3.206  0.00  0.00    -0.298 N 
ATOM     16  C   UNK d   1       1.215   4.627  -4.014  0.00  0.00     0.215 A 
ATOM     17  N   UNK d   1       0.424   5.257  -4.902  0.00  0.00    -0.254 NA
ATOM     18  C   UNK d   1      -0.858   4.926  -4.666  0.00  0.00     0.135 A 
ATOM     19  C   UNK d   1      -0.828   4.062  -3.592  0.00  0.00     0.119 A 
ENDBRANCH  10  15
ENDBRANCH   7   8
ENDBRANCH   4   7
BRANCH   1  20
ATOM     20  S   UNK d   1       1.485  -3.175   2.472  0.00  0.00     0.267 S 
ATOM     21  O   UNK d   1       1.387  -4.658   2.598  0.00  0.00    -0.200 OA
ATOM     22  O   UNK d   1       2.899  -2.763   2.728  0.00  0.00    -0.200 OA
BRANCH  20  23
ATOM     23  C   UNK d   1       0.464  -2.472   3.744  0.00  0.00     0.121 A 
ATOM     24  S   UNK d   1      -1.220  -2.610   3.970  0.00  0.00    -0.069 SA
ATOM     25  C   UNK d   1      -1.384  -1.664   5.377  0.00  0.00     0.052 A 
ATOM     26  C   UNK d   1      -0.098  -1.258   5.636  0.00  0.00     0.028 A 
ATOM     27 Br   UNK d   1      -2.965  -1.249   6.376  0.00  0.00    -0.043 Br
ATOM     28  C   UNK d   1       0.852  -1.680   4.787  0.00  0.00     0.035 A 
ENDBRANCH  20  23
ENDBRANCH   1  20
TORSDOF 5
