# created with PyMOL 2.3.2
@<TRIPOS>MOLECULE
1076
52 55 1                 
SMALL
USER_CHARGES
@<TRIPOS>ATOM
1	   S	1.479	1.854	-0.303	S.O2	1	UNK0	0.000	
2	   O	2.403	2.724	-1.114	O.2	1	UNK0	0.000	
3	   O	2.323	0.719	0.229	O.2	1	UNK0	0.000	
4	   N	0.243	1.160	-1.262	N.3	1	UNK0	0.000	
5	   C	-0.637	2.115	-1.858	C.3	1	UNK0	0.000	
6	   C	-1.841	1.310	-2.377	C.3	1	UNK0	0.000	
7	   N	-1.471	0.019	-2.766	N.3	1	UNK0	0.000	
8	   C	-0.139	-0.132	-3.285	C.3	1	UNK0	0.000	
9	   C	0.911	0.491	-2.393	C.3	1	UNK0	0.000	
10	   C	-2.006	-1.113	-2.134	C.3	1	UNK0	0.000	
11	   N	-1.772	-1.289	-0.737	N.pl3	1	UNK0	0.000	
12	   N	-0.615	-1.962	-0.268	N.pl3	1	UNK0	0.000	
13	   C	-0.705	-1.938	1.154	C.2	1	UNK0	0.000	
14	   C	0.213	-2.480	1.945	C.2	1	UNK0	0.000	
15	   C	0.372	-2.599	3.412	C.3	1	UNK0	0.000	
16	   C	-0.970	-2.584	4.104	C.3	1	UNK0	0.000	
17	   C	-1.477	-1.156	4.009	C.3	1	UNK0	0.000	
18	   C	-2.434	-0.980	2.870	C.3	1	UNK0	0.000	
19	   N	-1.882	-1.271	1.582	N.pl3	1	UNK0	0.000	
20	   C	-2.539	-0.872	0.383	C.2	1	UNK0	0.000	
21	   O	-3.629	-0.248	0.366	O.2	1	UNK0	0.000	
22	   C	0.895	2.756	1.042	C.2	1	UNK0	0.000	
23	   C	0.651	2.269	2.292	C.2	1	UNK0	0.000	
24	   C	0.179	3.085	3.310	C.2	1	UNK0	0.000	
25	   C	-0.061	4.411	3.104	C.2	1	UNK0	0.000	
26	   C	0.178	4.935	1.843	C.2	1	UNK0	0.000	
27	   C	0.644	4.118	0.844	C.2	1	UNK0	0.000	
28	  Br	-0.158	2.376	5.064	Br	1	UNK0	0.000	
29	   H	-0.955	2.930	-1.189	 H	1	UNK0	0.000	
30	   H	-0.176	2.590	-2.766	 H	1	UNK0	0.000	
31	   H	-2.549	1.288	-1.533	 H	1	UNK0	0.000	
32	   H	-2.352	1.887	-3.186	 H	1	UNK0	0.000	
33	   H	0.082	-1.218	-3.336	 H	1	UNK0	0.000	
34	   H	-0.117	0.253	-4.319	 H	1	UNK0	0.000	
35	   H	1.389	1.306	-2.976	 H	1	UNK0	0.000	
36	   H	1.688	-0.197	-2.069	 H	1	UNK0	0.000	
37	   H	-1.696	-2.022	-2.706	 H	1	UNK0	0.000	
38	   H	-3.128	-1.084	-2.282	 H	1	UNK0	0.000	
39	   H	0.147	-2.389	-0.846	 H	1	UNK0	0.000	
40	   H	1.026	-2.936	1.359	 H	1	UNK0	0.000	
41	   H	1.058	-1.824	3.812	 H	1	UNK0	0.000	
42	   H	0.828	-3.613	3.600	 H	1	UNK0	0.000	
43	   H	-0.867	-2.921	5.148	 H	1	UNK0	0.000	
44	   H	-1.662	-3.211	3.503	 H	1	UNK0	0.000	
45	   H	-1.970	-0.925	4.973	 H	1	UNK0	0.000	
46	   H	-0.636	-0.451	3.887	 H	1	UNK0	0.000	
47	   H	-3.295	-1.666	3.058	 H	1	UNK0	0.000	
48	   H	-2.825	0.063	2.912	 H	1	UNK0	0.000	
49	   H	0.838	1.219	2.467	 H	1	UNK0	0.000	
50	   H	-0.432	5.047	3.907	 H	1	UNK0	0.000	
51	   H	-0.009	5.985	1.668	 H	1	UNK0	0.000	
52	   H	0.820	4.562	-0.130	 H	1	UNK0	0.000	
@<TRIPOS>BOND
1 1 2 2
2 1 3 2
3 1 4 1
4 1 22 1
5 4 5 1
6 4 9 1
7 5 6 1
8 6 7 1
9 7 8 1
10 7 10 1
11 8 9 1
12 10 11 1
13 11 12 1
14 11 20 1
15 12 13 1
16 13 14 2
17 13 19 1
18 14 15 1
19 15 16 1
20 16 17 1
21 17 18 1
22 18 19 1
23 19 20 1
24 20 21 2
25 22 23 2
26 22 27 1
27 23 24 1
28 24 25 2
29 24 28 1
30 25 26 1
31 26 27 2
32 5 29 1
33 5 30 1
34 6 31 1
35 6 32 1
36 8 33 1
37 8 34 1
38 9 35 1
39 9 36 1
40 10 37 1
41 10 38 1
42 12 39 1
43 14 40 1
44 15 41 1
45 15 42 1
46 16 43 1
47 16 44 1
48 17 45 1
49 17 46 1
50 18 47 1
51 18 48 1
52 23 49 1
53 25 50 1
54 26 51 1
55 27 52 1
@<TRIPOS>SUBSTRUCTURE
1	UNK0	1	GROUP	1 ****	UNK
