REMARK  4 active torsions:
REMARK  status: ('A' for Active; 'I' for Inactive)
REMARK    1  A    between atoms: S_1  and  N_4 
REMARK    2  A    between atoms: S_1  and  C_22 
REMARK    3  A    between atoms: N_7  and  C_10 
REMARK    4  A    between atoms: C_10  and  N_11 
ROOT
ATOM      1  N   UNK d   1       0.243   1.160  -1.262  0.00  0.00    -0.203 NA
ATOM      2  C   UNK d   1      -0.637   2.115  -1.858  0.00  0.00     0.127 C 
ATOM      3  C   UNK d   1      -1.841   1.310  -2.377  0.00  0.00     0.134 C 
ATOM      4  N   UNK d   1      -1.471   0.019  -2.766  0.00  0.00    -0.393 N 
ATOM      5  C   UNK d   1      -0.139  -0.132  -3.285  0.00  0.00     0.134 C 
ATOM      6  C   UNK d   1       0.911   0.491  -2.393  0.00  0.00     0.127 C 
ENDROOT
BRANCH   4   7
ATOM      7  C   UNK d   1      -2.006  -1.113  -2.134  0.00  0.00     0.273 C 
BRANCH   7   8
ATOM      8  N   UNK d   1      -1.772  -1.289  -0.737  0.00  0.00    -0.223 N 
ATOM      9  N   UNK d   1      -0.615  -1.962  -0.268  0.00  0.00    -0.278 N 
ATOM     10  C   UNK d   1      -0.705  -1.938   1.154  0.00  0.00     0.122 A 
ATOM     11  H   UNK d   1       0.147  -2.389  -0.846  0.00  0.00     0.189 HD
ATOM     12  C   UNK d   1       0.213  -2.480   1.945  0.00  0.00     0.023 C 
ATOM     13  N   UNK d   1      -1.882  -1.271   1.582  0.00  0.00    -0.283 N 
ATOM     14  C   UNK d   1       0.372  -2.599   3.412  0.00  0.00     0.031 C 
ATOM     15  C   UNK d   1      -0.970  -2.584   4.104  0.00  0.00     0.006 C 
ATOM     16  C   UNK d   1      -1.477  -1.156   4.009  0.00  0.00     0.021 C 
ATOM     17  C   UNK d   1      -2.434  -0.980   2.870  0.00  0.00     0.135 C 
ATOM     18  C   UNK d   1      -2.539  -0.872   0.383  0.00  0.00     0.346 A 
ATOM     19  O   UNK d   1      -3.629  -0.248   0.366  0.00  0.00    -0.245 OA
ENDBRANCH   7   8
ENDBRANCH   4   7
BRANCH   1  20
ATOM     20  S   UNK d   1       1.479   1.854  -0.303  0.00  0.00     0.243 S 
ATOM     21  O   UNK d   1       2.403   2.724  -1.114  0.00  0.00    -0.206 OA
ATOM     22  O   UNK d   1       2.323   0.719   0.229  0.00  0.00    -0.206 OA
BRANCH  20  23
ATOM     23  C   UNK d   1       0.895   2.756   1.042  0.00  0.00     0.076 A 
ATOM     24  C   UNK d   1       0.651   2.269   2.292  0.00  0.00     0.043 A 
ATOM     25  C   UNK d   1       0.179   3.085   3.310  0.00  0.00     0.012 A 
ATOM     26  C   UNK d   1      -0.061   4.411   3.104  0.00  0.00     0.019 A 
ATOM     27 Br   UNK d   1      -0.158   2.376   5.064  0.00  0.00    -0.051 Br
ATOM     28  C   UNK d   1       0.178   4.935   1.843  0.00  0.00     0.003 A 
ATOM     29  C   UNK d   1       0.644   4.118   0.844  0.00  0.00     0.025 A 
ENDBRANCH  20  23
ENDBRANCH   1  20
TORSDOF 4
