REMARK  4 active torsions:
REMARK  status: ('A' for Active; 'I' for Inactive)
REMARK    1  A    between atoms: S_1  and  N_4 
REMARK    2  A    between atoms: S_1  and  C_21 
REMARK    3  A    between atoms: N_7  and  C_10 
REMARK    4  A    between atoms: N_11  and  C_15 
ROOT
ATOM      1  N   UNK d   1      -2.348   0.499  -2.364  0.00  0.00    -0.304 N 
ATOM      2  C   UNK d   1      -1.496  -0.242  -3.213  0.00  0.00     0.155 C 
ATOM      3  C   UNK d   1      -0.167  -0.638  -2.662  0.00  0.00     0.162 C 
ATOM      4  N   UNK d   1       0.072  -0.207  -1.307  0.00  0.00    -0.209 N 
ATOM      5  C   UNK d   1      -0.457   1.043  -0.866  0.00  0.00     0.162 C 
ATOM      6  C   UNK d   1      -1.765   1.423  -1.467  0.00  0.00     0.155 C 
ENDROOT
BRANCH   4   7
ATOM      7  C   UNK d   1       0.851  -1.072  -0.468  0.00  0.00     0.747 A 
ATOM      8  N   UNK d   1       2.154  -0.920  -0.176  0.00  0.00    -0.041 N 
ATOM      9  N   UNK d   1       2.461  -1.954   0.616  0.00  0.00    -0.025 NA
ATOM     10  N   UNK d   1       1.397  -2.704   0.801  0.00  0.00    -0.007 NA
ATOM     11  N   UNK d   1       0.378  -2.190   0.145  0.00  0.00     0.065 NA
BRANCH   8  12
ATOM     12  C   UNK d   1       3.011   0.126  -0.611  0.00  0.00     0.078 A 
ATOM     13  C   UNK d   1       3.002   1.359   0.000  0.00  0.00     0.032 A 
ATOM     14  C   UNK d   1       3.856   2.365  -0.450  0.00  0.00     0.002 A 
ATOM     15  C   UNK d   1       4.719   2.154  -1.503  0.00  0.00     0.000 A 
ATOM     16  C   UNK d   1       4.728   0.899  -2.125  0.00  0.00     0.002 A 
ATOM     17  C   UNK d   1       3.866  -0.096  -1.661  0.00  0.00     0.032 A 
ENDBRANCH   8  12
ENDBRANCH   4   7
BRANCH   1  18
ATOM     18  S   UNK d   1      -3.744  -0.287  -1.793  0.00  0.00     0.260 S 
ATOM     19  O   UNK d   1      -4.069  -1.556  -2.475  0.00  0.00    -0.200 OA
ATOM     20  O   UNK d   1      -4.928   0.643  -2.029  0.00  0.00    -0.200 OA
BRANCH  18  21
ATOM     21  C   UNK d   1      -3.625  -0.529  -0.072  0.00  0.00     0.079 A 
ATOM     22  C   UNK d   1      -3.035  -1.634   0.488  0.00  0.00     0.026 A 
ATOM     23  C   UNK d   1      -2.944  -1.814   1.868  0.00  0.00     0.020 A 
ATOM     24  C   UNK d   1      -3.478  -0.823   2.698  0.00  0.00     0.011 A 
ATOM     25  C   UNK d   1      -4.073   0.290   2.147  0.00  0.00     0.020 A 
ATOM     26 Br   UNK d   1      -3.386  -1.003   4.601  0.00  0.00    -0.051 Br
ATOM     27  C   UNK d   1      -4.142   0.429   0.789  0.00  0.00     0.026 A 
ENDBRANCH  18  21
ENDBRANCH   1  18
TORSDOF 4
