# created with PyMOL 2.3.2
@<TRIPOS>MOLECULE
1084
53 56 1                 
SMALL
USER_CHARGES
@<TRIPOS>ATOM
1	   S	-3.270	2.453	1.691	S.O2	1	UNK0	0.000	
2	   O	-3.726	2.401	3.140	O.2	1	UNK0	0.000	
3	   O	-2.757	3.837	1.417	O.2	1	UNK0	0.000	
4	   N	-1.974	1.323	1.505	N.3	1	UNK0	0.000	
5	   C	-2.448	0.037	1.893	C.3	1	UNK0	0.000	
6	   C	-1.374	-0.846	2.491	C.3	1	UNK0	0.000	
7	   N	-0.115	-0.420	1.953	N.pl3	1	UNK0	0.000	
8	   C	0.338	0.910	2.236	C.3	1	UNK0	0.000	
9	   C	-0.869	1.812	2.295	C.3	1	UNK0	0.000	
10	   C	0.650	-1.298	1.167	C.2	1	UNK0	0.000	
11	   N	1.836	-0.953	0.639	N.2	1	UNK0	0.000	
12	   C	2.600	-1.731	-0.107	C.2	1	UNK0	0.000	
13	   C	2.147	-3.013	-0.369	C.2	1	UNK0	0.000	
14	   C	0.937	-3.414	0.151	C.2	1	UNK0	0.000	
15	   N	0.222	-2.556	0.901	N.2	1	UNK0	0.000	
16	   C	0.415	-4.783	-0.108	C.3	1	UNK0	0.000	
17	   N	3.833	-1.246	-0.606	N.pl3	1	UNK0	0.000	
18	   C	4.729	-2.032	-1.429	C.3	1	UNK0	0.000	
19	   C	5.581	-1.031	-2.208	C.3	1	UNK0	0.000	
20	   O	4.725	-0.014	-2.636	O.3	1	UNK0	0.000	
21	   C	4.349	0.842	-1.626	C.3	1	UNK0	0.000	
22	   C	4.234	0.105	-0.287	C.3	1	UNK0	0.000	
23	   C	-4.620	2.051	0.669	C.2	1	UNK0	0.000	
24	   C	-4.667	2.584	-0.612	C.2	1	UNK0	0.000	
25	   C	-5.704	2.310	-1.476	C.2	1	UNK0	0.000	
26	   C	-6.728	1.489	-1.071	C.2	1	UNK0	0.000	
27	   C	-6.718	0.939	0.197	C.2	1	UNK0	0.000	
28	   C	-5.655	1.235	1.046	C.2	1	UNK0	0.000	
29	  Br	-8.155	1.120	-2.279	Br	1	UNK0	0.000	
30	   H	-3.324	0.044	2.563	 H	1	UNK0	0.000	
31	   H	-2.793	-0.495	0.961	 H	1	UNK0	0.000	
32	   H	-1.576	-1.916	2.347	 H	1	UNK0	0.000	
33	   H	-1.411	-0.670	3.604	 H	1	UNK0	0.000	
34	   H	1.076	1.258	1.480	 H	1	UNK0	0.000	
35	   H	0.851	0.996	3.225	 H	1	UNK0	0.000	
36	   H	-0.570	2.793	1.869	 H	1	UNK0	0.000	
37	   H	-1.208	2.011	3.336	 H	1	UNK0	0.000	
38	   H	2.761	-3.654	-0.974	 H	1	UNK0	0.000	
39	   H	0.468	-5.409	0.820	 H	1	UNK0	0.000	
40	   H	-0.657	-4.701	-0.367	 H	1	UNK0	0.000	
41	   H	0.922	-5.254	-0.969	 H	1	UNK0	0.000	
42	   H	5.405	-2.677	-0.837	 H	1	UNK0	0.000	
43	   H	4.156	-2.630	-2.185	 H	1	UNK0	0.000	
44	   H	6.050	-1.503	-3.072	 H	1	UNK0	0.000	
45	   H	6.360	-0.614	-1.547	 H	1	UNK0	0.000	
46	   H	3.321	1.263	-1.832	 H	1	UNK0	0.000	
47	   H	5.035	1.693	-1.531	 H	1	UNK0	0.000	
48	   H	5.225	0.118	0.227	 H	1	UNK0	0.000	
49	   H	3.499	0.601	0.371	 H	1	UNK0	0.000	
50	   H	-3.855	3.232	-0.927	 H	1	UNK0	0.000	
51	   H	-5.734	2.728	-2.474	 H	1	UNK0	0.000	
52	   H	-7.523	0.289	0.524	 H	1	UNK0	0.000	
53	   H	-5.634	0.810	2.048	 H	1	UNK0	0.000	
@<TRIPOS>BOND
1 1 2 2
2 1 3 2
3 1 4 1
4 1 23 1
5 4 5 1
6 4 9 1
7 5 6 1
8 6 7 1
9 7 8 1
10 7 10 1
11 8 9 1
12 10 11 2
13 10 15 1
14 11 12 1
15 12 13 2
16 12 17 1
17 13 14 1
18 14 15 2
19 14 16 1
20 17 18 1
21 17 22 1
22 18 19 1
23 19 20 1
24 20 21 1
25 21 22 1
26 23 24 2
27 23 28 1
28 24 25 1
29 25 26 2
30 26 27 1
31 26 29 1
32 27 28 2
33 5 30 1
34 5 31 1
35 6 32 1
36 6 33 1
37 8 34 1
38 8 35 1
39 9 36 1
40 9 37 1
41 13 38 1
42 16 39 1
43 16 40 1
44 16 41 1
45 18 42 1
46 18 43 1
47 19 44 1
48 19 45 1
49 21 46 1
50 21 47 1
51 22 48 1
52 22 49 1
53 24 50 1
54 25 51 1
55 27 52 1
56 28 53 1
@<TRIPOS>SUBSTRUCTURE
1	UNK0	1	GROUP	1 ****	UNK
