REMARK  3 active torsions:
REMARK  status: ('A' for Active; 'I' for Inactive)
REMARK    1  A    between atoms: S_1  and  N_4 
REMARK    2  A    between atoms: S_1  and  C_19 
REMARK    3  A    between atoms: N_7  and  C_10 
ROOT
ATOM      1  N   UNK d   1      -2.226   2.421  -0.474  0.00  0.00    -0.303 N 
ATOM      2  C   UNK d   1      -2.077   2.165  -1.854  0.00  0.00     0.155 C 
ATOM      3  C   UNK d   1      -1.056   1.119  -2.227  0.00  0.00     0.145 C 
ATOM      4  N   UNK d   1      -0.337   0.614  -1.100  0.00  0.00    -0.361 N 
ATOM      5  C   UNK d   1      -0.096   1.388   0.105  0.00  0.00     0.145 C 
ATOM      6  C   UNK d   1      -0.992   2.589   0.188  0.00  0.00     0.155 C 
ENDROOT
BRANCH   4   7
ATOM      7  C   UNK d   1       0.179  -0.710  -1.123  0.00  0.00     0.158 A 
ATOM      8  N   UNK d   1      -0.307  -1.637  -0.245  0.00  0.00    -0.222 NA
ATOM      9  C   UNK d   1       0.157  -2.887  -0.255  0.00  0.00     0.237 A 
ATOM     10  N   UNK d   1       1.100  -3.286  -1.107  0.00  0.00    -0.220 NA
ATOM     11  C   UNK d   1       1.587  -2.398  -1.971  0.00  0.00     0.182 A 
ATOM     12  N   UNK d   1       2.521  -2.508  -2.920  0.00  0.00    -0.222 NA
ATOM     13  C   UNK d   1       1.150  -1.073  -2.018  0.00  0.00     0.128 A 
ATOM     14  C   UNK d   1       2.659  -1.298  -3.531  0.00  0.00     0.210 A 
ATOM     15  N   UNK d   1       1.820  -0.421  -2.979  0.00  0.00    -0.345 N 
ATOM     16  H   UNK d   1       1.726   0.573  -3.258  0.00  0.00     0.167 HD
ENDBRANCH   4   7
BRANCH   1  17
ATOM     17  S   UNK d   1      -3.503   1.731   0.354  0.00  0.00     0.267 S 
ATOM     18  O   UNK d   1      -4.802   2.127  -0.339  0.00  0.00    -0.200 OA
ATOM     19  O   UNK d   1      -3.621   2.195   1.760  0.00  0.00    -0.200 OA
BRANCH  17  20
ATOM     20  C   UNK d   1      -3.510  -0.035   0.369  0.00  0.00     0.121 A 
ATOM     21  S   UNK d   1      -3.588  -1.127  -0.937  0.00  0.00    -0.069 SA
ATOM     22  C   UNK d   1      -3.546  -2.596  -0.078  0.00  0.00     0.052 A 
ATOM     23  C   UNK d   1      -3.470  -2.185   1.231  0.00  0.00     0.028 A 
ATOM     24 Br   UNK d   1      -3.591  -4.385  -0.744  0.00  0.00    -0.043 Br
ATOM     25  C   UNK d   1      -3.452  -0.866   1.453  0.00  0.00     0.035 A 
ENDBRANCH  17  20
ENDBRANCH   1  17
TORSDOF 3
