REMARK  3 active torsions:
REMARK  status: ('A' for Active; 'I' for Inactive)
REMARK    1  A    between atoms: S_1  and  N_4 
REMARK    2  A    between atoms: S_1  and  C_20 
REMARK    3  A    between atoms: N_7  and  C_10 
ROOT
ATOM      1  N   UNK d   1      -0.898   0.724   0.900  0.00  0.00    -0.203 NA
ATOM      2  C   UNK d   1       0.441   1.104   0.597  0.00  0.00     0.127 C 
ATOM      3  C   UNK d   1       1.465   0.106   1.095  0.00  0.00     0.140 C 
ATOM      4  N   UNK d   1       0.877  -1.204   0.979  0.00  0.00    -0.363 N 
ATOM      5  C   UNK d   1      -0.248  -1.467   1.840  0.00  0.00     0.140 C 
ATOM      6  C   UNK d   1      -1.074  -0.235   1.938  0.00  0.00     0.127 C 
ENDROOT
BRANCH   4   7
ATOM      7  C   UNK d   1       1.350  -2.193   0.086  0.00  0.00     0.148 A 
ATOM      8  C   UNK d   1       0.525  -2.981  -0.604  0.00  0.00     0.080 A 
ATOM      9  C   UNK d   1       0.971  -4.006  -1.530  0.00  0.00     0.043 A 
ATOM     10  C   UNK d   1       0.106  -4.760  -2.188  0.00  0.00     0.043 C 
ATOM     11  N   UNK d   1       2.358  -4.189  -1.720  0.00  0.00    -0.189 N 
ATOM     12  C   UNK d   1       3.216  -3.323  -0.962  0.00  0.00     0.730 A 
ATOM     13  H   UNK d   1       2.775  -4.886  -2.352  0.00  0.00     0.184 HD
ATOM     14  N   UNK d   1       2.753  -2.389  -0.117  0.00  0.00    -0.044 N 
ATOM     15  N   UNK d   1       4.568  -3.231  -0.905  0.00  0.00    -0.054 NA
ATOM     16  N   UNK d   1       3.787  -1.749   0.435  0.00  0.00    -0.143 NA
ATOM     17  C   UNK d   1       4.932  -2.263  -0.047  0.00  0.00     0.275 A 
ENDBRANCH   4   7
BRANCH   1  18
ATOM     18  S   UNK d   1      -1.871   2.101   1.103  0.00  0.00     0.250 S 
ATOM     19  O   UNK d   1      -3.335   1.769   1.233  0.00  0.00    -0.205 OA
ATOM     20  O   UNK d   1      -1.743   2.949  -0.154  0.00  0.00    -0.205 OA
BRANCH  18  21
ATOM     21  C   UNK d   1      -1.334   3.119   2.438  0.00  0.00     0.116 A 
ATOM     22  S   UNK d   1      -2.045   4.572   2.955  0.00  0.00    -0.070 SA
ATOM     23  C   UNK d   1      -1.000   4.950   4.244  0.00  0.00     0.052 A 
ATOM     24  C   UNK d   1      -0.106   3.913   4.238  0.00  0.00     0.028 A 
ATOM     25 Br   UNK d   1      -1.030   6.460   5.447  0.00  0.00    -0.043 Br
ATOM     26  C   UNK d   1      -0.283   2.958   3.294  0.00  0.00     0.034 A 
ENDBRANCH  18  21
ENDBRANCH   1  18
TORSDOF 3
