# created with PyMOL 2.3.2
@<TRIPOS>MOLECULE
1100
40 43 1                 
SMALL
USER_CHARGES
@<TRIPOS>ATOM
1	   S	-1.871	2.101	1.103	S.O2	1	UNK0	0.000	
2	   O	-3.335	1.769	1.233	O.2	1	UNK0	0.000	
3	   O	-1.743	2.949	-0.154	O.2	1	UNK0	0.000	
4	   N	-0.898	0.724	0.900	N.3	1	UNK0	0.000	
5	   C	0.441	1.104	0.597	C.3	1	UNK0	0.000	
6	   C	1.465	0.106	1.095	C.3	1	UNK0	0.000	
7	   N	0.877	-1.204	0.979	N.pl3	1	UNK0	0.000	
8	   C	-0.248	-1.467	1.840	C.3	1	UNK0	0.000	
9	   C	-1.074	-0.235	1.938	C.3	1	UNK0	0.000	
10	   C	1.350	-2.193	0.086	C.2	1	UNK0	0.000	
11	   C	0.525	-2.981	-0.604	C.2	1	UNK0	0.000	
12	   C	0.971	-4.006	-1.530	C.2	1	UNK0	0.000	
13	   C	0.106	-4.760	-2.188	C.2	1	UNK0	0.000	
14	   N	2.358	-4.189	-1.720	N.pl3	1	UNK0	0.000	
15	   C	3.216	-3.323	-0.962	C.2	1	UNK0	0.000	
16	   N	2.753	-2.389	-0.117	N.pl3	1	UNK0	0.000	
17	   N	3.787	-1.749	0.435	N.2	1	UNK0	0.000	
18	   C	4.932	-2.263	-0.047	C.2	1	UNK0	0.000	
19	   N	4.568	-3.231	-0.905	N.2	1	UNK0	0.000	
20	   C	-1.334	3.119	2.438	C.2	1	UNK0	0.000	
21	   S	-2.045	4.572	2.955	S.3	1	UNK0	0.000	
22	   C	-1.000	4.950	4.244	C.2	1	UNK0	0.000	
23	   C	-0.106	3.913	4.238	C.2	1	UNK0	0.000	
24	   C	-0.283	2.958	3.294	C.2	1	UNK0	0.000	
25	  Br	-1.030	6.460	5.447	Br	1	UNK0	0.000	
26	   H	0.691	2.151	0.866	 H	1	UNK0	0.000	
27	   H	0.535	1.079	-0.530	 H	1	UNK0	0.000	
28	   H	2.432	0.201	0.587	 H	1	UNK0	0.000	
29	   H	1.612	0.301	2.177	 H	1	UNK0	0.000	
30	   H	-0.815	-2.371	1.545	 H	1	UNK0	0.000	
31	   H	0.155	-1.728	2.864	 H	1	UNK0	0.000	
32	   H	-2.151	-0.575	1.867	 H	1	UNK0	0.000	
33	   H	-0.997	0.183	2.958	 H	1	UNK0	0.000	
34	   H	-0.533	-2.835	-0.453	 H	1	UNK0	0.000	
35	   H	-0.965	-4.618	-2.040	 H	1	UNK0	0.000	
36	   H	0.412	-5.528	-2.881	 H	1	UNK0	0.000	
37	   H	2.775	-4.886	-2.352	 H	1	UNK0	0.000	
38	   H	5.955	-1.964	0.201	 H	1	UNK0	0.000	
39	   H	0.716	3.901	5.001	 H	1	UNK0	0.000	
40	   H	0.420	2.088	3.244	 H	1	UNK0	0.000	
@<TRIPOS>BOND
1 1 2 2
2 1 3 2
3 1 4 1
4 1 20 1
5 4 5 1
6 4 9 1
7 5 6 1
8 6 7 1
9 7 8 1
10 7 10 1
11 8 9 1
12 10 11 2
13 10 16 1
14 11 12 1
15 12 13 2
16 12 14 1
17 14 15 1
18 15 16 1
19 15 19 2
20 16 17 1
21 17 18 2
22 18 19 1
23 20 21 1
24 20 24 2
25 21 22 1
26 22 23 2
27 22 25 1
28 23 24 1
29 5 26 1
30 5 27 1
31 6 28 1
32 6 29 1
33 8 30 1
34 8 31 1
35 9 32 1
36 9 33 1
37 11 34 1
38 13 35 1
39 13 36 1
40 14 37 1
41 18 38 1
42 23 39 1
43 24 40 1
@<TRIPOS>SUBSTRUCTURE
1	UNK0	1	GROUP	1 ****	UNK
