REMARK  3 active torsions:
REMARK  status: ('A' for Active; 'I' for Inactive)
REMARK    1  A    between atoms: S_1  and  N_4 
REMARK    2  A    between atoms: S_1  and  C_20 
REMARK    3  A    between atoms: N_7  and  C_10 
ROOT
ATOM      1  N   UNK d   1      -0.699  -3.730   1.189  0.00  0.00    -0.203 NA
ATOM      2  C   UNK d   1      -1.936  -3.140   0.841  0.00  0.00     0.127 C 
ATOM      3  C   UNK d   1      -1.875  -2.004  -0.118  0.00  0.00     0.138 C 
ATOM      4  N   UNK d   1      -0.916  -2.266  -1.203  0.00  0.00    -0.377 N 
ATOM      5  C   UNK d   1      -0.406  -3.620  -1.242  0.00  0.00     0.138 C 
ATOM      6  C   UNK d   1       0.236  -3.877   0.108  0.00  0.00     0.127 C 
ENDROOT
BRANCH   1   7
ATOM      7  S   UNK d   1       0.014  -3.157   2.624  0.00  0.00     0.243 S 
ATOM      8  O   UNK d   1       1.338  -3.891   2.798  0.00  0.00    -0.206 OA
ATOM      9  O   UNK d   1      -0.821  -3.519   3.816  0.00  0.00    -0.206 OA
BRANCH   7  10
ATOM     10  C   UNK d   1       0.396  -1.457   2.577  0.00  0.00     0.074 A 
ATOM     11  C   UNK d   1      -0.513  -0.492   2.989  0.00  0.00     0.026 A 
ATOM     12  C   UNK d   1      -0.210   0.851   2.951  0.00  0.00     0.020 A 
ATOM     13  C   UNK d   1       1.037   1.239   2.488  0.00  0.00     0.011 A 
ATOM     14  C   UNK d   1       1.976   0.317   2.068  0.00  0.00     0.020 A 
ATOM     15 Br   UNK d   1       1.442   3.111   2.442  0.00  0.00    -0.051 Br
ATOM     16  C   UNK d   1       1.633  -1.014   2.122  0.00  0.00     0.026 A 
ENDBRANCH   7  10
ENDBRANCH   1   7
BRANCH   4  17
ATOM     17  C   UNK d   1      -0.552  -1.246  -2.112  0.00  0.00     0.053 A 
ATOM     18  C   UNK d   1      -1.113   0.016  -1.959  0.00  0.00     0.085 A 
ATOM     19  C   UNK d   1      -0.747   1.013  -2.861  0.00  0.00     0.176 A 
ATOM     20  N   UNK d   1       0.113   0.781  -3.844  0.00  0.00    -0.198 N 
ATOM     21  N   UNK d   1      -1.147   2.295  -2.921  0.00  0.00    -0.128 NA
ATOM     22  C   UNK d   1       0.259   1.925  -4.532  0.00  0.00     0.148 A 
ATOM     23  N   UNK d   1       0.647  -0.398  -3.999  0.00  0.00    -0.174 NA
ATOM     24  N   UNK d   1      -0.527   2.850  -3.948  0.00  0.00    -0.133 NA
ATOM     25  C   UNK d   1       1.133   2.141  -5.730  0.00  0.00     0.095 C 
ATOM     26  C   UNK d   1       0.324  -1.406  -3.147  0.00  0.00     0.168 A 
ENDBRANCH   4  17
TORSDOF 3
