REMARK  5 active torsions:
REMARK  status: ('A' for Active; 'I' for Inactive)
REMARK    1  A    between atoms: S_1  and  N_4 
REMARK    2  A    between atoms: S_1  and  C_26 
REMARK    3  A    between atoms: C_10  and  C_11 
REMARK    4  A    between atoms: C_11  and  C_12 
REMARK       I    between atoms: C_12  and  N_14 
REMARK    5  A    between atoms: N_17  and  C_20 
ROOT
ATOM      1  N   UNK d   1      -3.104   0.534   0.495  0.00  0.00    -0.191 NA
ATOM      2  C   UNK d   1      -4.367   0.357   1.129  0.00  0.00     0.128 C 
ATOM      3  C   UNK d   1      -4.721   1.421   2.143  0.00  0.00     0.138 C 
ATOM      4  N   UNK d   1      -4.432   2.757   1.616  0.00  0.00    -0.358 N 
ATOM      5  C   UNK d   1      -3.126   2.853   1.003  0.00  0.00     0.237 C 
ATOM      6  O   UNK d   1      -2.720   3.886   0.465  0.00  0.00    -0.272 OA
ATOM      7  C   UNK d   1      -2.354   1.570   1.104  0.00  0.00     0.175 C 
ATOM      8  H   UNK d   1      -5.060   3.559   1.659  0.00  0.00     0.162 HD
ENDROOT
BRANCH   7   9
ATOM      9  C   UNK d   1      -0.938   1.718   0.710  0.00  0.00     0.133 C 
BRANCH   9  10
ATOM     10  C   UNK d   1      -0.202   0.470   1.024  0.00  0.00     0.221 C 
ATOM     11  O   UNK d   1      -0.869  -0.461   1.549  0.00  0.00    -0.273 OA
ATOM     12  N   UNK d   1       1.192   0.325   0.748  0.00  0.00    -0.349 N 
ATOM     13  C   UNK d   1       1.942   1.395   0.149  0.00  0.00     0.145 C 
ATOM     14  C   UNK d   1       1.842  -0.916   1.079  0.00  0.00     0.145 C 
ATOM     15  C   UNK d   1       3.387   1.424   0.539  0.00  0.00     0.143 C 
ATOM     16  N   UNK d   1       3.952   0.113   0.808  0.00  0.00    -0.378 N 
ATOM     17  C   UNK d   1       3.183  -0.692   1.745  0.00  0.00     0.143 C 
BRANCH  16  18
ATOM     18  C   UNK d   1       5.140  -0.389   0.260  0.00  0.00     0.030 A 
ATOM     19  C   UNK d   1       6.048   0.482  -0.300  0.00  0.00     0.029 A 
ATOM     20  C   UNK d   1       7.216  -0.019  -0.854  0.00  0.00     0.002 A 
ATOM     21  C   UNK d   1       7.514  -1.359  -0.872  0.00  0.00     0.000 A 
ATOM     22  C   UNK d   1       6.604  -2.225  -0.311  0.00  0.00     0.002 A 
ATOM     23  C   UNK d   1       5.433  -1.731   0.245  0.00  0.00     0.029 A 
ENDBRANCH  16  18
ENDBRANCH   9  10
ENDBRANCH   7   9
BRANCH   1  24
ATOM     24  S   UNK d   1      -3.308   0.649  -1.188  0.00  0.00     0.244 S 
ATOM     25  O   UNK d   1      -2.050   0.947  -1.940  0.00  0.00    -0.206 OA
ATOM     26  O   UNK d   1      -4.283   1.767  -1.537  0.00  0.00    -0.206 OA
BRANCH  24  27
ATOM     27  C   UNK d   1      -4.011  -0.813  -1.857  0.00  0.00     0.074 A 
ATOM     28  C   UNK d   1      -5.380  -0.967  -2.038  0.00  0.00     0.026 A 
ATOM     29  C   UNK d   1      -5.950  -2.097  -2.553  0.00  0.00     0.020 A 
ATOM     30  C   UNK d   1      -5.163  -3.156  -2.924  0.00  0.00     0.011 A 
ATOM     31  C   UNK d   1      -3.778  -3.037  -2.757  0.00  0.00     0.020 A 
ATOM     32 Br   UNK d   1      -5.897  -4.755  -3.648  0.00  0.00    -0.051 Br
ATOM     33  C   UNK d   1      -3.239  -1.886  -2.235  0.00  0.00     0.026 A 
ENDBRANCH  24  27
ENDBRANCH   1  24
TORSDOF 5
