# created with PyMOL 2.3.2
@<TRIPOS>MOLECULE
1105
57 60 1                 
SMALL
USER_CHARGES
@<TRIPOS>ATOM
1	   S	-3.308	0.649	-1.188	S.O2	1	UNK0	0.000	
2	   O	-2.050	0.947	-1.940	O.2	1	UNK0	0.000	
3	   O	-4.283	1.767	-1.537	O.2	1	UNK0	0.000	
4	   N	-3.104	0.534	0.495	N.3	1	UNK0	0.000	
5	   C	-4.367	0.357	1.129	C.3	1	UNK0	0.000	
6	   C	-4.721	1.421	2.143	C.3	1	UNK0	0.000	
7	   N	-4.432	2.757	1.616	N.pl3	1	UNK0	0.000	
8	   C	-3.126	2.853	1.003	C.2	1	UNK0	0.000	
9	   O	-2.720	3.886	0.465	O.2	1	UNK0	0.000	
10	   C	-2.354	1.570	1.104	C.3	1	UNK0	0.000	
11	   C	-0.938	1.718	0.710	C.3	1	UNK0	0.000	
12	   C	-0.202	0.470	1.024	C.2	1	UNK0	0.000	
13	   O	-0.869	-0.461	1.549	O.2	1	UNK0	0.000	
14	   N	1.192	0.325	0.748	N.pl3	1	UNK0	0.000	
15	   C	1.942	1.395	0.149	C.3	1	UNK0	0.000	
16	   C	3.387	1.424	0.539	C.3	1	UNK0	0.000	
17	   N	3.952	0.113	0.808	N.pl3	1	UNK0	0.000	
18	   C	3.183	-0.692	1.745	C.3	1	UNK0	0.000	
19	   C	1.842	-0.916	1.079	C.3	1	UNK0	0.000	
20	   C	5.140	-0.389	0.260	C.2	1	UNK0	0.000	
21	   C	6.048	0.482	-0.300	C.2	1	UNK0	0.000	
22	   C	7.216	-0.019	-0.854	C.2	1	UNK0	0.000	
23	   C	7.514	-1.359	-0.872	C.2	1	UNK0	0.000	
24	   C	6.604	-2.225	-0.311	C.2	1	UNK0	0.000	
25	   C	5.433	-1.731	0.245	C.2	1	UNK0	0.000	
26	   C	-4.011	-0.813	-1.857	C.2	1	UNK0	0.000	
27	   C	-5.380	-0.967	-2.038	C.2	1	UNK0	0.000	
28	   C	-5.950	-2.097	-2.553	C.2	1	UNK0	0.000	
29	   C	-5.163	-3.156	-2.924	C.2	1	UNK0	0.000	
30	   C	-3.778	-3.037	-2.757	C.2	1	UNK0	0.000	
31	   C	-3.239	-1.886	-2.235	C.2	1	UNK0	0.000	
32	  Br	-5.897	-4.755	-3.648	Br	1	UNK0	0.000	
33	   H	-4.365	-0.614	1.691	 H	1	UNK0	0.000	
34	   H	-5.230	0.294	0.435	 H	1	UNK0	0.000	
35	   H	-4.196	1.224	3.090	 H	1	UNK0	0.000	
36	   H	-5.805	1.371	2.339	 H	1	UNK0	0.000	
37	   H	-5.060	3.559	1.659	 H	1	UNK0	0.000	
38	   H	-2.356	1.349	2.213	 H	1	UNK0	0.000	
39	   H	-0.534	2.585	1.315	 H	1	UNK0	0.000	
40	   H	-0.762	2.028	-0.338	 H	1	UNK0	0.000	
41	   H	1.878	1.380	-0.969	 H	1	UNK0	0.000	
42	   H	1.525	2.403	0.424	 H	1	UNK0	0.000	
43	   H	3.952	1.893	-0.275	 H	1	UNK0	0.000	
44	   H	3.556	2.042	1.454	 H	1	UNK0	0.000	
45	   H	2.968	-0.072	2.649	 H	1	UNK0	0.000	
46	   H	3.608	-1.647	2.006	 H	1	UNK0	0.000	
47	   H	1.944	-1.491	0.135	 H	1	UNK0	0.000	
48	   H	1.181	-1.516	1.734	 H	1	UNK0	0.000	
49	   H	5.909	1.568	-0.333	 H	1	UNK0	0.000	
50	   H	7.938	0.659	-1.298	 H	1	UNK0	0.000	
51	   H	8.439	-1.741	-1.312	 H	1	UNK0	0.000	
52	   H	6.817	-3.292	-0.312	 H	1	UNK0	0.000	
53	   H	4.778	-2.487	0.657	 H	1	UNK0	0.000	
54	   H	-6.036	-0.162	-1.764	 H	1	UNK0	0.000	
55	   H	-7.032	-2.208	-2.691	 H	1	UNK0	0.000	
56	   H	-3.193	-3.891	-3.060	 H	1	UNK0	0.000	
57	   H	-2.173	-1.824	-2.119	 H	1	UNK0	0.000	
@<TRIPOS>BOND
1 1 2 2
2 1 3 2
3 1 4 1
4 1 26 1
5 4 5 1
6 4 10 1
7 5 6 1
8 6 7 1
9 7 8 1
10 8 9 2
11 8 10 1
12 10 11 1
13 11 12 1
14 12 13 2
15 12 14 1
16 14 15 1
17 14 19 1
18 15 16 1
19 16 17 1
20 17 18 1
21 17 20 1
22 18 19 1
23 20 21 2
24 20 25 1
25 21 22 1
26 22 23 2
27 23 24 1
28 24 25 2
29 26 27 2
30 26 31 1
31 27 28 1
32 28 29 2
33 29 30 1
34 29 32 1
35 30 31 2
36 5 33 1
37 5 34 1
38 6 35 1
39 6 36 1
40 7 37 1
41 10 38 1
42 11 39 1
43 11 40 1
44 15 41 1
45 15 42 1
46 16 43 1
47 16 44 1
48 18 45 1
49 18 46 1
50 19 47 1
51 19 48 1
52 21 49 1
53 22 50 1
54 23 51 1
55 24 52 1
56 25 53 1
57 27 54 1
58 28 55 1
59 30 56 1
60 31 57 1
@<TRIPOS>SUBSTRUCTURE
1	UNK0	1	GROUP	1 ****	UNK
