REMARK  7 active torsions:
REMARK  status: ('A' for Active; 'I' for Inactive)
REMARK    1  A    between atoms: S_1  and  N_4 
REMARK    2  A    between atoms: S_1  and  C_10 
REMARK    3  A    between atoms: C_13  and  C_16 
REMARK    4  A    between atoms: C_16  and  O_17 
REMARK    5  A    between atoms: O_17  and  C_18 
REMARK    6  A    between atoms: C_18  and  C_20 
REMARK    7  A    between atoms: C_20  and  N_21 
ROOT
ATOM      1  C   UNK d   1      -1.957  -1.275  -1.706  0.00  0.00     0.217 C 
ENDROOT
BRANCH   1   2
ATOM      2  C   UNK d   1      -1.536  -1.856  -0.408  0.00  0.00    -0.034 A 
ATOM      3  C   UNK d   1      -2.372  -2.106   0.639  0.00  0.00     0.011 A 
ATOM      4  C   UNK d   1      -1.899  -2.651   1.829  0.00  0.00     0.025 A 
ATOM      5  C   UNK d   1      -0.580  -2.958   1.999  0.00  0.00     0.074 A 
ATOM      6  C   UNK d   1       0.271  -2.707   0.939  0.00  0.00     0.025 A 
ATOM      7  C   UNK d   1      -0.197  -2.165  -0.244  0.00  0.00     0.011 A 
BRANCH   5   8
ATOM      8  S   UNK d   1       0.052  -3.647   3.487  0.00  0.00     0.243 S 
ATOM      9  O   UNK d   1      -0.914  -4.601   4.101  0.00  0.00    -0.206 OA
ATOM     10  O   UNK d   1       1.281  -4.443   3.097  0.00  0.00    -0.206 OA
BRANCH   8  11
ATOM     11  N   UNK d   1       0.550  -2.449   4.598  0.00  0.00    -0.202 NA
ATOM     12  C   UNK d   1      -0.521  -1.585   5.020  0.00  0.00     0.134 C 
ATOM     13  C   UNK d   1       0.135  -0.324   5.590  0.00  0.00     0.183 C 
ATOM     14  O   UNK d   1       0.634   0.462   4.574  0.00  0.00    -0.389 OA
ATOM     15  C   UNK d   1       0.910  -0.352   3.461  0.00  0.00     0.183 C 
ATOM     16  C   UNK d   1       1.572  -1.613   3.996  0.00  0.00     0.134 C 
ENDBRANCH   8  11
ENDBRANCH   5   8
ENDBRANCH   1   2
BRANCH   1  17
ATOM     17  O   UNK d   1      -1.657   0.100  -1.797  0.00  0.00    -0.316 OA
BRANCH  17  18
ATOM     18  C   UNK d   1      -2.140   1.070  -0.953  0.00  0.00     0.277 C 
ATOM     19  O   UNK d   1      -2.906   0.744  -0.025  0.00  0.00    -0.263 OA
BRANCH  18  20
ATOM     20  C   UNK d   1      -1.770   2.472  -1.129  0.00  0.00     0.246 C 
BRANCH  20  21
ATOM     21  N   UNK d   1      -0.885   2.701  -2.233  0.00  0.00    -0.271 N 
ATOM     22  C   UNK d   1      -1.347   2.984  -3.560  0.00  0.00     0.262 A 
ATOM     23  O   UNK d   1      -2.556   3.067  -3.920  0.00  0.00    -0.267 OA
ATOM     24  C   UNK d   1      -0.196   3.164  -4.437  0.00  0.00     0.049 A 
ATOM     25  C   UNK d   1       0.947   3.001  -3.699  0.00  0.00     0.048 A 
ATOM     26  C   UNK d   1      -0.061   3.446  -5.777  0.00  0.00     0.037 A 
ATOM     27  C   UNK d   1       2.189   3.120  -4.293  0.00  0.00     0.019 A 
ATOM     28  C   UNK d   1       0.530   2.711  -2.316  0.00  0.00     0.262 A 
ATOM     29  C   UNK d   1       2.308   3.405  -5.640  0.00  0.00     0.020 A 
ATOM     30  C   UNK d   1       1.166   3.571  -6.395  0.00  0.00     0.011 A 
ATOM     31 Br   UNK d   1       1.279   3.964  -8.257  0.00  0.00    -0.051 Br
ATOM     32  O   UNK d   1       1.285   2.501  -1.341  0.00  0.00    -0.267 OA
ENDBRANCH  20  21
ENDBRANCH  18  20
ENDBRANCH  17  18
ENDBRANCH   1  17
TORSDOF 7
