REMARK  6 active torsions:
REMARK  status: ('A' for Active; 'I' for Inactive)
REMARK    1  A    between atoms: S_1  and  N_4 
REMARK    2  A    between atoms: S_1  and  C_10 
REMARK    3  A    between atoms: N_13  and  C_15 
REMARK    4  A    between atoms: C_15  and  C_16 
REMARK    5  A    between atoms: C_19  and  C_21 
REMARK    6  A    between atoms: C_21  and  C_22 
ROOT
ATOM      1  C   UNK d   1       0.594  -2.264   2.614  0.00  0.00     0.188 A 
ATOM      2  N   UNK d   1       0.196  -1.329   3.493  0.00  0.00    -0.229 NA
ATOM      3  C   UNK d   1      -0.963  -0.777   3.052  0.00  0.00     0.211 A 
ATOM      4  N   UNK d   1      -1.314  -1.354   1.890  0.00  0.00    -0.341 N 
ATOM      5  C   UNK d   1      -0.383  -2.255   1.613  0.00  0.00     0.138 A 
ENDROOT
BRANCH   4   6
ATOM      6  C   UNK d   1      -2.498  -1.020   1.125  0.00  0.00     0.212 C 
BRANCH   6   7
ATOM      7  C   UNK d   1      -2.230   0.061   0.147  0.00  0.00     0.174 A 
ATOM      8  N   UNK d   1      -2.374   1.390   0.392  0.00  0.00    -0.109 NA
ATOM      9  O   UNK d   1      -2.051   2.036  -0.687  0.00  0.00    -0.196 OA
ATOM     10  C   UNK d   1      -1.698   1.218  -1.646  0.00  0.00     0.177 A 
ATOM     11  N   UNK d   1      -1.812  -0.027  -1.117  0.00  0.00    -0.207 NA
BRANCH  10  12
ATOM     12  C   UNK d   1      -1.259   1.551  -3.035  0.00  0.00     0.127 C 
BRANCH  12  13
ATOM     13  C   UNK d   1      -2.486   1.577  -3.879  0.00  0.00    -0.050 A 
ATOM     14  C   UNK d   1      -2.889   0.401  -4.492  0.00  0.00     0.009 A 
ATOM     15  C   UNK d   1      -4.004   0.332  -5.285  0.00  0.00     0.019 A 
ATOM     16  C   UNK d   1      -4.738   1.472  -5.470  0.00  0.00     0.011 A 
ATOM     17  C   UNK d   1      -4.384   2.651  -4.891  0.00  0.00     0.019 A 
ATOM     18 Br   UNK d   1      -6.297   1.415  -6.568  0.00  0.00    -0.051 Br
ATOM     19  C   UNK d   1      -3.246   2.692  -4.090  0.00  0.00     0.009 A 
ENDBRANCH  12  13
ENDBRANCH  10  12
ENDBRANCH   6   7
ENDBRANCH   4   6
BRANCH   1  20
ATOM     20  S   UNK d   1       2.017  -3.277   2.691  0.00  0.00     0.280 S 
ATOM     21  O   UNK d   1       1.923  -4.113   3.961  0.00  0.00    -0.199 OA
ATOM     22  O   UNK d   1       1.982  -4.281   1.556  0.00  0.00    -0.199 OA
BRANCH  20  23
ATOM     23  N   UNK d   1       3.467  -2.438   2.718  0.00  0.00    -0.301 N 
ATOM     24  C   UNK d   1       3.791  -1.624   1.622  0.00  0.00     0.161 C 
ATOM     25  C   UNK d   1       4.320  -0.295   2.074  0.00  0.00     0.188 C 
ATOM     26  O   UNK d   1       5.415  -0.534   2.886  0.00  0.00    -0.388 OA
ATOM     27  C   UNK d   1       5.069  -1.154   4.080  0.00  0.00     0.188 C 
ATOM     28  C   UNK d   1       4.162  -2.313   3.925  0.00  0.00     0.161 C 
ENDBRANCH  20  23
ENDBRANCH   1  20
TORSDOF 6
