# created with PyMOL 2.3.2
@<TRIPOS>MOLECULE
1113
46 49 1                 
SMALL
USER_CHARGES
@<TRIPOS>ATOM
1	   S	2.017	-3.277	2.691	S.O2	1	UNK0	0.000	
2	   O	1.923	-4.113	3.961	O.2	1	UNK0	0.000	
3	   O	1.982	-4.281	1.556	O.2	1	UNK0	0.000	
4	   N	3.467	-2.438	2.718	N.3	1	UNK0	0.000	
5	   C	3.791	-1.624	1.622	C.3	1	UNK0	0.000	
6	   C	4.320	-0.295	2.074	C.3	1	UNK0	0.000	
7	   O	5.415	-0.534	2.886	O.3	1	UNK0	0.000	
8	   C	5.069	-1.154	4.080	C.3	1	UNK0	0.000	
9	   C	4.162	-2.313	3.925	C.3	1	UNK0	0.000	
10	   C	0.594	-2.264	2.614	C.2	1	UNK0	0.000	
11	   N	0.196	-1.329	3.493	N.2	1	UNK0	0.000	
12	   C	-0.963	-0.777	3.052	C.2	1	UNK0	0.000	
13	   N	-1.314	-1.354	1.890	N.pl3	1	UNK0	0.000	
14	   C	-0.383	-2.255	1.613	C.2	1	UNK0	0.000	
15	   C	-2.498	-1.020	1.125	C.3	1	UNK0	0.000	
16	   C	-2.230	0.061	0.147	C.2	1	UNK0	0.000	
17	   N	-2.374	1.390	0.392	N.2	1	UNK0	0.000	
18	   O	-2.051	2.036	-0.687	O.3	1	UNK0	0.000	
19	   C	-1.698	1.218	-1.646	C.2	1	UNK0	0.000	
20	   N	-1.812	-0.027	-1.117	N.2	1	UNK0	0.000	
21	   C	-1.259	1.551	-3.035	C.3	1	UNK0	0.000	
22	   C	-2.486	1.577	-3.879	C.2	1	UNK0	0.000	
23	   C	-2.889	0.401	-4.492	C.2	1	UNK0	0.000	
24	   C	-4.004	0.332	-5.285	C.2	1	UNK0	0.000	
25	   C	-4.738	1.472	-5.470	C.2	1	UNK0	0.000	
26	   C	-4.384	2.651	-4.891	C.2	1	UNK0	0.000	
27	   C	-3.246	2.692	-4.090	C.2	1	UNK0	0.000	
28	  Br	-6.297	1.415	-6.568	Br	1	UNK0	0.000	
29	   H	2.911	-1.532	0.951	 H	1	UNK0	0.000	
30	   H	4.627	-2.116	1.044	 H	1	UNK0	0.000	
31	   H	4.682	0.324	1.224	 H	1	UNK0	0.000	
32	   H	3.540	0.208	2.671	 H	1	UNK0	0.000	
33	   H	6.032	-1.446	4.571	 H	1	UNK0	0.000	
34	   H	4.611	-0.407	4.768	 H	1	UNK0	0.000	
35	   H	3.422	-2.338	4.780	 H	1	UNK0	0.000	
36	   H	4.772	-3.251	4.086	 H	1	UNK0	0.000	
37	   H	-1.507	0.008	3.572	 H	1	UNK0	0.000	
38	   H	-0.340	-2.909	0.754	 H	1	UNK0	0.000	
39	   H	-3.323	-0.696	1.791	 H	1	UNK0	0.000	
40	   H	-2.865	-1.926	0.600	 H	1	UNK0	0.000	
41	   H	-0.583	0.742	-3.365	 H	1	UNK0	0.000	
42	   H	-0.740	2.533	-3.053	 H	1	UNK0	0.000	
43	   H	-2.287	-0.493	-4.328	 H	1	UNK0	0.000	
44	   H	-4.323	-0.595	-5.769	 H	1	UNK0	0.000	
45	   H	-4.963	3.563	-5.033	 H	1	UNK0	0.000	
46	   H	-2.954	3.624	-3.623	 H	1	UNK0	0.000	
@<TRIPOS>BOND
1 1 2 2
2 1 3 2
3 1 4 1
4 1 10 1
5 4 5 1
6 4 9 1
7 5 6 1
8 6 7 1
9 7 8 1
10 8 9 1
11 10 11 1
12 10 14 2
13 11 12 2
14 12 13 1
15 13 14 1
16 13 15 1
17 15 16 1
18 16 17 2
19 16 20 1
20 17 18 1
21 18 19 1
22 19 20 2
23 19 21 1
24 21 22 1
25 22 23 2
26 22 27 1
27 23 24 1
28 24 25 2
29 25 26 1
30 25 28 1
31 26 27 2
32 5 29 1
33 5 30 1
34 6 31 1
35 6 32 1
36 8 33 1
37 8 34 1
38 9 35 1
39 9 36 1
40 12 37 1
41 14 38 1
42 15 39 1
43 15 40 1
44 21 41 1
45 21 42 1
46 23 43 1
47 24 44 1
48 26 45 1
49 27 46 1
@<TRIPOS>SUBSTRUCTURE
1	UNK0	1	GROUP	1 ****	UNK
