REMARK  5 active torsions:
REMARK  status: ('A' for Active; 'I' for Inactive)
REMARK    1  A    between atoms: S_1  and  N_4 
REMARK    2  A    between atoms: S_1  and  C_10 
REMARK    3  A    between atoms: N_13  and  C_15 
REMARK    4  A    between atoms: C_15  and  C_16 
REMARK    5  A    between atoms: C_19  and  C_21 
ROOT
ATOM      1  C   UNK d   1      -1.308  -0.462  -2.794  0.00  0.00     0.188 A 
ATOM      2  N   UNK d   1      -0.732   0.521  -3.508  0.00  0.00    -0.229 NA
ATOM      3  C   UNK d   1       0.491   0.759  -2.999  0.00  0.00     0.211 A 
ATOM      4  N   UNK d   1       0.730  -0.052  -1.958  0.00  0.00    -0.341 N 
ATOM      5  C   UNK d   1      -0.375  -0.804  -1.830  0.00  0.00     0.138 A 
ENDROOT
BRANCH   4   6
ATOM      6  C   UNK d   1       1.932  -0.098  -1.151  0.00  0.00     0.212 C 
BRANCH   6   7
ATOM      7  C   UNK d   1       1.873   0.813   0.015  0.00  0.00     0.174 A 
ATOM      8  N   UNK d   1       1.403   0.473   1.230  0.00  0.00    -0.109 NA
ATOM      9  O   UNK d   1       1.495   1.505   2.013  0.00  0.00    -0.191 OA
ATOM     10  C   UNK d   1       2.006   2.526   1.381  0.00  0.00     0.206 A 
ATOM     11  N   UNK d   1       2.244   2.097   0.131  0.00  0.00    -0.203 NA
BRANCH  10  12
ATOM     12  C   UNK d   1       2.251   3.847   1.962  0.00  0.00     0.021 A 
ATOM     13  C   UNK d   1       2.796   4.879   1.227  0.00  0.00     0.035 A 
ATOM     14  C   UNK d   1       3.023   6.131   1.794  0.00  0.00     0.011 A 
ATOM     15  C   UNK d   1       2.709   6.381   3.111  0.00  0.00     0.019 A 
ATOM     16 Br   UNK d   1       3.780   7.548   0.757  0.00  0.00    -0.051 Br
ATOM     17  C   UNK d   1       2.164   5.352   3.848  0.00  0.00     0.002 A 
ATOM     18  C   UNK d   1       1.938   4.097   3.277  0.00  0.00     0.016 A 
ENDBRANCH  10  12
ENDBRANCH   6   7
ENDBRANCH   4   6
BRANCH   1  19
ATOM     19  S   UNK d   1      -2.912  -1.165  -3.037  0.00  0.00     0.280 S 
ATOM     20  O   UNK d   1      -3.915  -0.058  -2.851  0.00  0.00    -0.199 OA
ATOM     21  O   UNK d   1      -3.064  -1.677  -4.433  0.00  0.00    -0.199 OA
BRANCH  19  22
ATOM     22  N   UNK d   1      -3.231  -2.386  -1.883  0.00  0.00    -0.301 N 
ATOM     23  C   UNK d   1      -3.236  -1.939  -0.540  0.00  0.00     0.161 C 
ATOM     24  C   UNK d   1      -2.694  -2.882   0.483  0.00  0.00     0.188 C 
ATOM     25  O   UNK d   1      -3.044  -4.189   0.072  0.00  0.00    -0.388 OA
ATOM     26  C   UNK d   1      -2.190  -4.453  -1.003  0.00  0.00     0.188 C 
ATOM     27  C   UNK d   1      -2.616  -3.631  -2.167  0.00  0.00     0.161 C 
ENDBRANCH  19  22
ENDBRANCH   1  19
TORSDOF 5
