# created with PyMOL 2.3.2
@<TRIPOS>MOLECULE
1114
43 46 1                 
SMALL
USER_CHARGES
@<TRIPOS>ATOM
1	   S	-2.912	-1.165	-3.037	S.O2	1	UNK0	0.000	
2	   O	-3.915	-0.058	-2.851	O.2	1	UNK0	0.000	
3	   O	-3.064	-1.677	-4.433	O.2	1	UNK0	0.000	
4	   N	-3.231	-2.386	-1.883	N.3	1	UNK0	0.000	
5	   C	-3.236	-1.939	-0.540	C.3	1	UNK0	0.000	
6	   C	-2.694	-2.882	0.483	C.3	1	UNK0	0.000	
7	   O	-3.044	-4.189	0.072	O.3	1	UNK0	0.000	
8	   C	-2.190	-4.453	-1.003	C.3	1	UNK0	0.000	
9	   C	-2.616	-3.631	-2.167	C.3	1	UNK0	0.000	
10	   C	-1.308	-0.462	-2.794	C.2	1	UNK0	0.000	
11	   N	-0.732	0.521	-3.508	N.2	1	UNK0	0.000	
12	   C	0.491	0.759	-2.999	C.2	1	UNK0	0.000	
13	   N	0.730	-0.052	-1.958	N.pl3	1	UNK0	0.000	
14	   C	-0.375	-0.804	-1.830	C.2	1	UNK0	0.000	
15	   C	1.932	-0.098	-1.151	C.3	1	UNK0	0.000	
16	   C	1.873	0.813	0.015	C.2	1	UNK0	0.000	
17	   N	1.403	0.473	1.230	N.2	1	UNK0	0.000	
18	   O	1.495	1.505	2.013	O.3	1	UNK0	0.000	
19	   C	2.006	2.526	1.381	C.2	1	UNK0	0.000	
20	   N	2.244	2.097	0.131	N.2	1	UNK0	0.000	
21	   C	2.251	3.847	1.962	C.2	1	UNK0	0.000	
22	   C	2.796	4.879	1.227	C.2	1	UNK0	0.000	
23	   C	3.023	6.131	1.794	C.2	1	UNK0	0.000	
24	   C	2.709	6.381	3.111	C.2	1	UNK0	0.000	
25	   C	2.164	5.352	3.848	C.2	1	UNK0	0.000	
26	   C	1.938	4.097	3.277	C.2	1	UNK0	0.000	
27	  Br	3.780	7.548	0.757	Br	1	UNK0	0.000	
28	   H	-2.741	-0.937	-0.453	 H	1	UNK0	0.000	
29	   H	-4.316	-1.755	-0.257	 H	1	UNK0	0.000	
30	   H	-3.226	-2.737	1.452	 H	1	UNK0	0.000	
31	   H	-1.610	-2.823	0.645	 H	1	UNK0	0.000	
32	   H	-1.167	-4.226	-0.645	 H	1	UNK0	0.000	
33	   H	-2.197	-5.518	-1.291	 H	1	UNK0	0.000	
34	   H	-3.349	-4.247	-2.758	 H	1	UNK0	0.000	
35	   H	-1.766	-3.463	-2.879	 H	1	UNK0	0.000	
36	   H	1.198	1.496	-3.361	 H	1	UNK0	0.000	
37	   H	-0.519	-1.569	-1.084	 H	1	UNK0	0.000	
38	   H	2.781	0.189	-1.791	 H	1	UNK0	0.000	
39	   H	2.145	-1.113	-0.757	 H	1	UNK0	0.000	
40	   H	3.044	4.688	0.193	 H	1	UNK0	0.000	
41	   H	2.892	7.366	3.543	 H	1	UNK0	0.000	
42	   H	1.904	5.507	4.885	 H	1	UNK0	0.000	
43	   H	1.511	3.275	3.838	 H	1	UNK0	0.000	
@<TRIPOS>BOND
1 1 2 2
2 1 3 2
3 1 4 1
4 1 10 1
5 4 5 1
6 4 9 1
7 5 6 1
8 6 7 1
9 7 8 1
10 8 9 1
11 10 11 1
12 10 14 2
13 11 12 2
14 12 13 1
15 13 14 1
16 13 15 1
17 15 16 1
18 16 17 2
19 16 20 1
20 17 18 1
21 18 19 1
22 19 20 2
23 19 21 1
24 21 22 2
25 21 26 1
26 22 23 1
27 23 24 2
28 23 27 1
29 24 25 1
30 25 26 2
31 5 28 1
32 5 29 1
33 6 30 1
34 6 31 1
35 8 32 1
36 8 33 1
37 9 34 1
38 9 35 1
39 12 36 1
40 14 37 1
41 15 38 1
42 15 39 1
43 22 40 1
44 24 41 1
45 25 42 1
46 26 43 1
@<TRIPOS>SUBSTRUCTURE
1	UNK0	1	GROUP	1 ****	UNK
