# created with PyMOL 2.3.2
@<TRIPOS>MOLECULE
1130
37 40 1                 
SMALL
USER_CHARGES
@<TRIPOS>ATOM
1	   S	0.141	3.171	3.078	S.3	1	UNK0	0.000	
2	   C	-0.842	2.869	4.571	C.3	1	UNK0	0.000	
3	   C	-0.525	1.502	5.076	C.2	1	UNK0	0.000	
4	   O	-1.100	1.039	6.112	O.2	1	UNK0	0.000	
5	   N	0.418	0.676	4.430	N.pl3	1	UNK0	0.000	
6	   C	0.717	-0.622	4.910	C.2	1	UNK0	0.000	
7	   N	0.200	-1.250	5.979	N.2	1	UNK0	0.000	
8	   O	0.722	-2.439	6.105	O.3	1	UNK0	0.000	
9	   N	1.566	-2.598	5.143	N.2	1	UNK0	0.000	
10	   C	1.625	-1.517	4.355	C.2	1	UNK0	0.000	
11	   N	2.441	-1.352	3.215	N.pl3	1	UNK0	0.000	
12	   C	-0.440	2.049	1.789	C.2	1	UNK0	0.000	
13	   N	-1.441	1.182	2.019	N.2	1	UNK0	0.000	
14	   N	-1.906	0.338	1.112	N.2	1	UNK0	0.000	
15	   C	-1.385	0.301	-0.133	C.2	1	UNK0	0.000	
16	   C	-0.356	1.183	-0.393	C.2	1	UNK0	0.000	
17	   N	-0.005	0.964	-1.676	N.pl3	1	UNK0	0.000	
18	   C	-0.757	-0.003	-2.226	C.2	1	UNK0	0.000	
19	   C	-1.646	-0.445	-1.270	C.2	1	UNK0	0.000	
20	   C	-2.572	-1.448	-1.514	C.2	1	UNK0	0.000	
21	   C	-2.574	-2.002	-2.782	C.2	1	UNK0	0.000	
22	   C	-1.696	-1.577	-3.758	C.2	1	UNK0	0.000	
23	   C	-0.786	-0.582	-3.494	C.2	1	UNK0	0.000	
24	  Br	-3.852	-3.385	-3.119	Br	1	UNK0	0.000	
25	   C	1.053	1.698	-2.342	C.3	1	UNK0	0.000	
26	   N	0.106	2.045	0.561	N.2	1	UNK0	0.000	
27	   H	-0.694	3.646	5.333	 H	1	UNK0	0.000	
28	   H	-1.916	2.813	4.227	 H	1	UNK0	0.000	
29	   H	0.898	1.042	3.580	 H	1	UNK0	0.000	
30	   H	2.101	-0.771	2.426	 H	1	UNK0	0.000	
31	   H	3.380	-1.791	3.128	 H	1	UNK0	0.000	
32	   H	-3.260	-1.776	-0.737	 H	1	UNK0	0.000	
33	   H	-1.713	-2.026	-4.752	 H	1	UNK0	0.000	
34	   H	-0.081	-0.224	-4.237	 H	1	UNK0	0.000	
35	   H	1.059	2.745	-2.020	 H	1	UNK0	0.000	
36	   H	2.034	1.193	-2.222	 H	1	UNK0	0.000	
37	   H	0.827	1.687	-3.432	 H	1	UNK0	0.000	
@<TRIPOS>BOND
1 1 2 1
2 1 12 1
3 2 3 1
4 3 4 2
5 3 5 1
6 5 6 1
7 6 7 2
8 6 10 1
9 7 8 1
10 8 9 1
11 9 10 2
12 10 11 1
13 12 13 2
14 12 26 1
15 13 14 1
16 14 15 2
17 15 16 1
18 15 19 1
19 16 17 1
20 16 26 2
21 17 18 1
22 17 25 1
23 18 19 2
24 18 23 1
25 19 20 1
26 20 21 2
27 21 22 1
28 21 24 1
29 22 23 2
30 2 27 1
31 2 28 1
32 5 29 1
33 11 30 1
34 11 31 1
35 20 32 1
36 22 33 1
37 23 34 1
38 25 35 1
39 25 36 1
40 25 37 1
@<TRIPOS>SUBSTRUCTURE
1	UNK0	1	GROUP	1 ****	UNK
