REMARK  5 active torsions:
REMARK  status: ('A' for Active; 'I' for Inactive)
REMARK    1  A    between atoms: S_1  and  C_2 
REMARK    2  A    between atoms: S_1  and  C_12 
REMARK    3  A    between atoms: C_2  and  C_3 
REMARK       I    between atoms: C_3  and  N_5 
REMARK    4  A    between atoms: N_5  and  C_6 
REMARK    5  A    between atoms: C_10  and  N_11 
ROOT
ATOM      1  C   UNK d   1      -0.440   2.049   1.789  0.00  0.00     0.211 A 
ATOM      2  N   UNK d   1      -1.441   1.182   2.019  0.00  0.00    -0.122 NA
ATOM      3  N   UNK d   1      -1.906   0.338   1.112  0.00  0.00    -0.143 NA
ATOM      4  C   UNK d   1      -1.385   0.301  -0.133  0.00  0.00     0.137 A 
ATOM      5  C   UNK d   1      -0.356   1.183  -0.393  0.00  0.00     0.164 A 
ATOM      6  N   UNK d   1      -0.005   0.964  -1.676  0.00  0.00    -0.333 N 
ATOM      7  C   UNK d   1      -0.757  -0.003  -2.226  0.00  0.00     0.048 A 
ATOM      8  C   UNK d   1      -1.646  -0.445  -1.270  0.00  0.00     0.026 A 
ATOM      9  C   UNK d   1      -2.572  -1.448  -1.514  0.00  0.00     0.035 A 
ATOM     10  C   UNK d   1      -2.574  -2.002  -2.782  0.00  0.00     0.011 A 
ATOM     11  C   UNK d   1      -1.696  -1.577  -3.758  0.00  0.00     0.021 A 
ATOM     12  C   UNK d   1      -0.786  -0.582  -3.494  0.00  0.00     0.032 A 
ATOM     13 Br   UNK d   1      -3.852  -3.385  -3.119  0.00  0.00    -0.051 Br
ATOM     14  C   UNK d   1       1.053   1.698  -2.342  0.00  0.00     0.158 C 
ATOM     15  N   UNK d   1       0.106   2.045   0.561  0.00  0.00    -0.201 NA
ENDROOT
BRANCH   1  16
ATOM     16  S   UNK d   1       0.141   3.171   3.078  0.00  0.00    -0.079 SA
BRANCH  16  17
ATOM     17  C   UNK d   1      -0.842   2.869   4.571  0.00  0.00     0.185 C 
BRANCH  17  18
ATOM     18  C   UNK d   1      -0.525   1.502   5.076  0.00  0.00     0.233 C 
ATOM     19  O   UNK d   1      -1.100   1.039   6.112  0.00  0.00    -0.272 OA
ATOM     20  N   UNK d   1       0.418   0.676   4.430  0.00  0.00    -0.306 N 
ATOM     21  H   UNK d   1       0.898   1.042   3.580  0.00  0.00     0.170 HD
BRANCH  20  22
ATOM     22  C   UNK d   1       0.717  -0.622   4.910  0.00  0.00     0.207 A 
ATOM     23  N   UNK d   1       0.200  -1.250   5.979  0.00  0.00    -0.083 NA
ATOM     24  O   UNK d   1       0.722  -2.439   6.105  0.00  0.00    -0.103 OA
ATOM     25  N   UNK d   1       1.566  -2.598   5.143  0.00  0.00    -0.083 NA
ATOM     26  C   UNK d   1       1.625  -1.517   4.355  0.00  0.00     0.199 A 
BRANCH  26  27
ATOM     27  N   UNK d   1       2.441  -1.352   3.215  0.00  0.00    -0.379 N 
ATOM     28  H   UNK d   1       2.101  -0.771   2.426  0.00  0.00     0.158 HD
ATOM     29  H   UNK d   1       3.380  -1.791   3.128  0.00  0.00     0.158 HD
ENDBRANCH  26  27
ENDBRANCH  20  22
ENDBRANCH  17  18
ENDBRANCH  16  17
ENDBRANCH   1  16
TORSDOF 5
