REMARK  10 active torsions:
REMARK  status: ('A' for Active; 'I' for Inactive)
REMARK    1  A    between atoms: S_1  and  C_2 
REMARK    2  A    between atoms: S_1  and  C_10 
REMARK    3  A    between atoms: C_2  and  C_3 
REMARK    4  A    between atoms: N_11  and  C_21 
REMARK    5  A    between atoms: C_14  and  N_20 
REMARK    6  A    between atoms: C_16  and  O_19 
REMARK    7  A    between atoms: C_23  and  C_28 
REMARK    8  A    between atoms: C_24  and  O_27 
REMARK    9  A    between atoms: C_25  and  O_26 
REMARK   10  A    between atoms: C_28  and  O_29 
ROOT
ATOM      1  C   UNK d   1      -0.036  -0.178  -1.265  0.00  0.00     0.173 A 
ATOM      2  N   UNK d   1       1.003  -0.964  -0.983  0.00  0.00    -0.277 N 
ATOM      3  C   UNK d   1       0.505  -2.212  -0.777  0.00  0.00     0.186 A 
ATOM      4  N   UNK d   1       0.971  -3.413  -0.401  0.00  0.00    -0.042 NA
ATOM      5  C   UNK d   1       0.235  -4.511  -0.199  0.00  0.00     0.724 A 
ATOM      6  N   UNK d   1      -1.135  -4.416  -0.403  0.00  0.00    -0.036 NA
ATOM      7  C   UNK d   1      -1.680  -3.283  -0.770  0.00  0.00     0.214 A 
ATOM      8  C   UNK d   1      -0.903  -2.159  -0.965  0.00  0.00     0.159 A 
ATOM      9  N   UNK d   1      -1.171  -0.892  -1.256  0.00  0.00    -0.216 NA
ENDROOT
BRANCH   2  10
ATOM     10  C   UNK d   1       2.400  -0.677  -0.926  0.00  0.00     0.263 C 
ATOM     11  O   UNK d   1       2.872  -0.373   0.370  0.00  0.00    -0.353 OA
ATOM     12  C   UNK d   1       4.188   0.024   0.039  0.00  0.00     0.179 C 
ATOM     13  C   UNK d   1       3.818   1.188  -0.917  0.00  0.00     0.182 C 
ATOM     14  C   UNK d   1       2.905   0.383  -1.851  0.00  0.00     0.198 C 
BRANCH  12  15
ATOM     15  C   UNK d   1       4.953   0.487   1.220  0.00  0.00     0.198 C 
BRANCH  15  16
ATOM     16  O   UNK d   1       6.243   0.886   0.849  0.00  0.00    -0.398 OA
ATOM     17  H   UNK d   1       6.368   0.619  -0.113  0.00  0.00     0.209 HD
ENDBRANCH  15  16
ENDBRANCH  12  15
BRANCH  13  18
ATOM     18  O   UNK d   1       4.910   1.712  -1.554  0.00  0.00    -0.390 OA
ATOM     19  H   UNK d   1       4.842   2.696  -1.594  0.00  0.00     0.210 HD
ENDBRANCH  13  18
BRANCH  14  20
ATOM     20  O   UNK d   1       3.741  -0.166  -2.857  0.00  0.00    -0.388 OA
ATOM     21  H   UNK d   1       3.867   0.573  -3.493  0.00  0.00     0.210 HD
ENDBRANCH  14  20
ENDBRANCH   2  10
BRANCH   1  22
ATOM     22  S   UNK d   1       0.022   1.600  -1.526  0.00  0.00    -0.087 SA
BRANCH  22  23
ATOM     23  C   UNK d   1      -0.117   2.491   0.085  0.00  0.00     0.122 C 
BRANCH  23  24
ATOM     24  C   UNK d   1      -1.267   1.956   0.849  0.00  0.00    -0.031 A 
ATOM     25  C   UNK d   1      -2.580   2.097   0.472  0.00  0.00     0.018 A 
ATOM     26  C   UNK d   1      -3.605   1.713   1.265  0.00  0.00     0.019 A 
ATOM     27 Br   UNK d   1      -2.870   2.745  -1.304  0.00  0.00    -0.051 Br
ATOM     28  C   UNK d   1      -3.384   1.142   2.513  0.00  0.00     0.001 A 
ATOM     29  C   UNK d   1      -2.055   0.986   2.931  0.00  0.00     0.001 A 
ATOM     30  C   UNK d   1      -1.017   1.386   2.112  0.00  0.00     0.009 A 
ENDBRANCH  23  24
ENDBRANCH  22  23
ENDBRANCH   1  22
BRANCH   5  31
ATOM     31  N   UNK d   1       0.746  -5.775   0.251  0.00  0.00    -0.231 N 
ATOM     32  H   UNK d   1       0.830  -6.631  -0.293  0.00  0.00     0.174 HD
ATOM     33  H   UNK d   1       1.038  -5.836   1.288  0.00  0.00     0.174 HD
ENDBRANCH   5  31
BRANCH   7  34
ATOM     34  O   UNK d   1      -3.026  -3.137  -0.994  0.00  0.00    -0.343 OA
ATOM     35  H   UNK d   1      -3.430  -2.967  -1.908  0.00  0.00     0.219 HD
ENDBRANCH   7  34
TORSDOF 10
