# created with PyMOL 2.3.2
@<TRIPOS>MOLECULE
1133
47 50 1                 
SMALL
USER_CHARGES
@<TRIPOS>ATOM
1	   S	0.022	1.600	-1.526	S.3	1	UNK0	0.000	
2	   C	-0.117	2.491	0.085	C.3	1	UNK0	0.000	
3	   C	-1.267	1.956	0.849	C.2	1	UNK0	0.000	
4	   C	-2.580	2.097	0.472	C.2	1	UNK0	0.000	
5	   C	-3.605	1.713	1.265	C.2	1	UNK0	0.000	
6	   C	-3.384	1.142	2.513	C.2	1	UNK0	0.000	
7	   C	-2.055	0.986	2.931	C.2	1	UNK0	0.000	
8	   C	-1.017	1.386	2.112	C.2	1	UNK0	0.000	
9	  Br	-2.870	2.745	-1.304	Br	1	UNK0	0.000	
10	   C	-0.036	-0.178	-1.265	C.2	1	UNK0	0.000	
11	   N	1.003	-0.964	-0.983	N.pl3	1	UNK0	0.000	
12	   C	0.505	-2.212	-0.777	C.2	1	UNK0	0.000	
13	   N	0.971	-3.413	-0.401	N.2	1	UNK0	0.000	
14	   C	0.235	-4.511	-0.199	C.2	1	UNK0	0.000	
15	   N	-1.135	-4.416	-0.403	N.2	1	UNK0	0.000	
16	   C	-1.680	-3.283	-0.770	C.2	1	UNK0	0.000	
17	   C	-0.903	-2.159	-0.965	C.2	1	UNK0	0.000	
18	   N	-1.171	-0.892	-1.256	N.2	1	UNK0	0.000	
19	   O	-3.026	-3.137	-0.994	O.3	1	UNK0	0.000	
20	   N	0.746	-5.775	0.251	N.pl3	1	UNK0	0.000	
21	   C	2.400	-0.677	-0.926	C.3	1	UNK0	0.000	
22	   O	2.872	-0.373	0.370	O.3	1	UNK0	0.000	
23	   C	4.188	0.024	0.039	C.3	1	UNK0	0.000	
24	   C	3.818	1.188	-0.917	C.3	1	UNK0	0.000	
25	   C	2.905	0.383	-1.851	C.3	1	UNK0	0.000	
26	   O	3.741	-0.166	-2.857	O.3	1	UNK0	0.000	
27	   O	4.910	1.712	-1.554	O.3	1	UNK0	0.000	
28	   C	4.953	0.487	1.220	C.3	1	UNK0	0.000	
29	   O	6.243	0.886	0.849	O.3	1	UNK0	0.000	
30	   H	-0.181	3.530	-0.094	 H	1	UNK0	0.000	
31	   H	0.862	2.192	0.627	 H	1	UNK0	0.000	
32	   H	-4.616	1.845	0.924	 H	1	UNK0	0.000	
33	   H	-4.207	0.812	3.124	 H	1	UNK0	0.000	
34	   H	-1.824	0.554	3.907	 H	1	UNK0	0.000	
35	   H	-0.021	1.299	2.453	 H	1	UNK0	0.000	
36	   H	-3.430	-2.967	-1.908	 H	1	UNK0	0.000	
37	   H	0.830	-6.631	-0.293	 H	1	UNK0	0.000	
38	   H	1.038	-5.836	1.288	 H	1	UNK0	0.000	
39	   H	2.967	-1.617	-1.178	 H	1	UNK0	0.000	
40	   H	4.686	-0.741	-0.559	 H	1	UNK0	0.000	
41	   H	3.246	1.961	-0.373	 H	1	UNK0	0.000	
42	   H	2.193	0.987	-2.362	 H	1	UNK0	0.000	
43	   H	3.867	0.573	-3.493	 H	1	UNK0	0.000	
44	   H	4.842	2.696	-1.594	 H	1	UNK0	0.000	
45	   H	5.145	-0.438	1.852	 H	1	UNK0	0.000	
46	   H	4.422	1.186	1.849	 H	1	UNK0	0.000	
47	   H	6.368	0.619	-0.113	 H	1	UNK0	0.000	
@<TRIPOS>BOND
1 1 2 1
2 1 10 1
3 2 3 1
4 3 4 2
5 3 8 1
6 4 5 1
7 4 9 1
8 5 6 2
9 6 7 1
10 7 8 2
11 10 11 1
12 10 18 2
13 11 12 1
14 11 21 1
15 12 13 2
16 12 17 1
17 13 14 1
18 14 15 2
19 14 20 1
20 15 16 1
21 16 17 2
22 16 19 1
23 17 18 1
24 21 22 1
25 21 25 1
26 22 23 1
27 23 24 1
28 23 28 1
29 24 25 1
30 24 27 1
31 25 26 1
32 28 29 1
33 2 30 1
34 2 31 1
35 5 32 1
36 6 33 1
37 7 34 1
38 8 35 1
39 19 36 1
40 20 37 1
41 20 38 1
42 21 39 1
43 23 40 1
44 24 41 1
45 25 42 1
46 26 43 1
47 27 44 1
48 28 45 1
49 28 46 1
50 29 47 1
@<TRIPOS>SUBSTRUCTURE
1	UNK0	1	GROUP	1 ****	UNK
