REMARK  3 active torsions:
REMARK  status: ('A' for Active; 'I' for Inactive)
REMARK    1  A    between atoms: C_6  and  C_17 
REMARK    2  A    between atoms: N_9  and  C_10 
REMARK    3  A    between atoms: C_23  and  O_30 
ROOT
ATOM      1  C   UNK d   1       0.084   1.177   0.350  0.00  0.00     0.246 C 
ATOM      2  N   UNK d   1      -0.706   2.375   0.599  0.00  0.00    -0.065 N 
ATOM      3  C   UNK d   1      -2.042   2.009   1.037  0.00  0.00     0.240 C 
ATOM      4  C   UNK d   1      -2.385   0.558   0.822  0.00  0.00     0.067 C 
ATOM      5  C   UNK d   1      -1.873   0.154  -0.536  0.00  0.00    -0.043 A 
ATOM      6  C   UNK d   1      -0.529   0.518  -0.790  0.00  0.00     0.017 A 
ATOM      7  C   UNK d   1       0.027   0.220  -2.003  0.00  0.00     0.113 A 
ATOM      8  C   UNK d   1      -0.768  -0.439  -2.938  0.00  0.00     0.139 A 
ATOM      9  C   UNK d   1      -2.071  -0.784  -2.667  0.00  0.00     0.108 A 
ATOM     10  C   UNK d   1      -2.648  -0.488  -1.446  0.00  0.00     0.047 A 
ATOM     11  O   UNK d   1      -2.593  -1.419  -3.775  0.00  0.00    -0.323 OA
ATOM     12  C   UNK d   1      -1.718  -1.226  -4.859  0.00  0.00     0.352 C 
ATOM     13  O   UNK d   1      -0.499  -0.863  -4.211  0.00  0.00    -0.320 OA
ATOM     14  C   UNK d   1      -0.821   3.257  -0.511  0.00  0.00     0.270 C 
ATOM     15  H   UNK d   1      -0.246   2.877   1.387  0.00  0.00     0.280 HD
ENDROOT
BRANCH   1  16
ATOM     16  C   UNK d   1       1.519   1.404   0.459  0.00  0.00     0.208 C 
ATOM     17  C   UNK d   1       1.719   1.987   1.875  0.00  0.00     0.261 C 
ATOM     18  N   UNK d   1       1.381   1.088   2.918  0.00  0.00    -0.187 NA
ATOM     19  O   UNK d   1       2.137   3.134   2.054  0.00  0.00    -0.270 OA
ATOM     20  C   UNK d   1       1.500  -0.189   2.872  0.00  0.00     0.190 C 
ATOM     21  S   UNK d   1       1.048  -1.245   4.240  0.00  0.00    -0.010 SA
ATOM     22  N   UNK d   1       2.019  -0.713   1.628  0.00  0.00    -0.259 N 
ATOM     23  C   UNK d   1       2.355   0.170   0.568  0.00  0.00     0.246 C 
ATOM     24  O   UNK d   1       3.294  -0.141  -0.167  0.00  0.00    -0.272 OA
BRANCH  22  25
ATOM     25  C   UNK d   1       2.199  -2.089   1.458  0.00  0.00     0.044 A 
ATOM     26  C   UNK d   1       1.134  -2.819   0.916  0.00  0.00     0.031 A 
ATOM     27  C   UNK d   1       1.237  -4.179   0.718  0.00  0.00     0.021 A 
ATOM     28  C   UNK d   1       2.417  -4.830   1.064  0.00  0.00     0.011 A 
ATOM     29  C   UNK d   1       3.477  -4.091   1.605  0.00  0.00     0.021 A 
ATOM     30 Br   UNK d   1       2.599  -6.691   0.809  0.00  0.00    -0.051 Br
ATOM     31  C   UNK d   1       3.356  -2.735   1.795  0.00  0.00     0.031 A 
ENDBRANCH  22  25
ENDBRANCH   1  16
BRANCH   7  32
ATOM     32  O   UNK d   1       1.337   0.561  -2.309  0.00  0.00    -0.352 OA
ATOM     33  C   UNK d   1       1.590   1.806  -2.951  0.00  0.00     0.210 C 
ENDBRANCH   7  32
TORSDOF 3
