# created with PyMOL 2.3.2
@<TRIPOS>MOLECULE
1143
52 56 1                 
SMALL
USER_CHARGES
@<TRIPOS>ATOM
1	   S	1.048	-1.245	4.240	S.3	1	UNK0	0.000	
2	   C	1.500	-0.189	2.872	C.2	1	UNK0	0.000	
3	   N	1.381	1.088	2.918	N.2	1	UNK0	0.000	
4	   C	1.719	1.987	1.875	C.2	1	UNK0	0.000	
5	   O	2.137	3.134	2.054	O.2	1	UNK0	0.000	
6	   C	1.519	1.404	0.459	C.3	1	UNK0	0.000	
7	   C	2.355	0.170	0.568	C.2	1	UNK0	0.000	
8	   O	3.294	-0.141	-0.167	O.2	1	UNK0	0.000	
9	   N	2.019	-0.713	1.628	N.pl3	1	UNK0	0.000	
10	   C	2.199	-2.089	1.458	C.2	1	UNK0	0.000	
11	   C	1.134	-2.819	0.916	C.2	1	UNK0	0.000	
12	   C	1.237	-4.179	0.718	C.2	1	UNK0	0.000	
13	   C	2.417	-4.830	1.064	C.2	1	UNK0	0.000	
14	   C	3.477	-4.091	1.605	C.2	1	UNK0	0.000	
15	   C	3.356	-2.735	1.795	C.2	1	UNK0	0.000	
16	  Br	2.599	-6.691	0.809	Br	1	UNK0	0.000	
17	   C	0.084	1.177	0.350	C.3	1	UNK0	0.000	
18	   N	-0.706	2.375	0.599	N.4	1	UNK0	0.000	
19	   C	-2.042	2.009	1.037	C.3	1	UNK0	0.000	
20	   C	-2.385	0.558	0.822	C.3	1	UNK0	0.000	
21	   C	-1.873	0.154	-0.536	C.2	1	UNK0	0.000	
22	   C	-0.529	0.518	-0.790	C.2	1	UNK0	0.000	
23	   C	0.027	0.220	-2.003	C.2	1	UNK0	0.000	
24	   C	-0.768	-0.439	-2.938	C.2	1	UNK0	0.000	
25	   C	-2.071	-0.784	-2.667	C.2	1	UNK0	0.000	
26	   C	-2.648	-0.488	-1.446	C.2	1	UNK0	0.000	
27	   O	-2.593	-1.419	-3.775	O.3	1	UNK0	0.000	
28	   C	-1.718	-1.226	-4.859	C.3	1	UNK0	0.000	
29	   O	-0.499	-0.863	-4.211	O.3	1	UNK0	0.000	
30	   O	1.337	0.561	-2.309	O.3	1	UNK0	0.000	
31	   C	1.590	1.806	-2.951	C.3	1	UNK0	0.000	
32	   C	-0.821	3.257	-0.511	C.3	1	UNK0	0.000	
33	   H	2.014	2.120	-0.177	 H	1	UNK0	0.000	
34	   H	0.202	-2.334	0.638	 H	1	UNK0	0.000	
35	   H	0.405	-4.720	0.300	 H	1	UNK0	0.000	
36	   H	4.409	-4.554	1.887	 H	1	UNK0	0.000	
37	   H	4.162	-2.171	2.207	 H	1	UNK0	0.000	
38	   H	-0.191	0.532	1.259	 H	1	UNK0	0.000	
39	   H	-0.246	2.877	1.387	 H	1	UNK0	0.000	
40	   H	-2.808	2.618	0.515	 H	1	UNK0	0.000	
41	   H	-2.188	2.214	2.132	 H	1	UNK0	0.000	
42	   H	-2.056	-0.119	1.617	 H	1	UNK0	0.000	
43	   H	-3.505	0.498	0.754	 H	1	UNK0	0.000	
44	   H	-3.680	-0.754	-1.215	 H	1	UNK0	0.000	
45	   H	-1.587	-2.155	-5.451	 H	1	UNK0	0.000	
46	   H	-2.099	-0.382	-5.470	 H	1	UNK0	0.000	
47	   H	1.674	1.603	-4.051	 H	1	UNK0	0.000	
48	   H	2.485	2.311	-2.586	 H	1	UNK0	0.000	
49	   H	0.723	2.468	-2.825	 H	1	UNK0	0.000	
50	   H	-1.607	4.002	-0.267	 H	1	UNK0	0.000	
51	   H	0.092	3.835	-0.739	 H	1	UNK0	0.000	
52	   H	-1.208	2.723	-1.425	 H	1	UNK0	0.000	
@<TRIPOS>BOND
1 1 2 1
2 2 3 2
3 2 9 1
4 3 4 1
5 4 5 2
6 4 6 1
7 6 7 1
8 6 17 1
9 7 8 2
10 7 9 1
11 9 10 1
12 10 11 2
13 10 15 1
14 11 12 1
15 12 13 2
16 13 14 1
17 13 16 1
18 14 15 2
19 17 18 1
20 17 22 1
21 18 19 1
22 18 32 1
23 19 20 1
24 20 21 1
25 21 22 2
26 21 26 1
27 22 23 1
28 23 24 2
29 23 30 1
30 24 25 1
31 24 29 1
32 25 26 2
33 25 27 1
34 27 28 1
35 28 29 1
36 30 31 1
37 6 33 1
38 11 34 1
39 12 35 1
40 14 36 1
41 15 37 1
42 17 38 1
43 18 39 1
44 19 40 1
45 19 41 1
46 20 42 1
47 20 43 1
48 26 44 1
49 28 45 1
50 28 46 1
51 31 47 1
52 31 48 1
53 31 49 1
54 32 50 1
55 32 51 1
56 32 52 1
@<TRIPOS>SUBSTRUCTURE
1	UNK0	1	GROUP	1 ****	UNK
