REMARK  1 active torsions:
REMARK  status: ('A' for Active; 'I' for Inactive)
REMARK    1  A    between atoms: N_11  and  C_14 
ROOT
ATOM      1  S   UNK d   1      -1.416  -4.787  -0.294  0.00  0.00     0.148 S 
ATOM      2  O   UNK d   1      -0.711  -6.072  -0.618  0.00  0.00    -0.228 OA
ATOM      3  O   UNK d   1      -2.735  -5.030   0.385  0.00  0.00    -0.228 OA
ATOM      4  C   UNK d   1      -0.401  -3.726   0.712  0.00  0.00     0.175 C 
ATOM      5  C   UNK d   1      -0.874  -2.314   0.434  0.00  0.00     0.195 C 
ATOM      6  N   UNK d   1      -0.484  -1.949  -0.913  0.00  0.00    -0.318 N 
ATOM      7  C   UNK d   1      -0.521  -2.926  -1.981  0.00  0.00     0.143 C 
ATOM      8  C   UNK d   1      -1.728  -3.848  -1.796  0.00  0.00     0.160 C 
ATOM      9  C   UNK d   1      -0.123  -0.576  -0.836  0.00  0.00     0.328 C 
ATOM     10  O   UNK d   1       0.044   0.213  -1.827  0.00  0.00    -0.246 OA
ATOM     11  N   UNK d   1       0.032  -0.172   0.518  0.00  0.00    -0.259 N 
ATOM     12  C   UNK d   1      -0.237  -1.322   1.306  0.00  0.00     0.252 C 
ATOM     13  O   UNK d   1       0.018  -1.482   2.536  0.00  0.00    -0.270 OA
ENDROOT
BRANCH  11  14
ATOM     14  C   UNK d   1       0.393   1.143   1.026  0.00  0.00     0.135 C 
ATOM     15  C   UNK d   1       1.755   1.576   0.512  0.00  0.00     0.058 C 
ATOM     16  C   UNK d   1       2.053   2.914   1.192  0.00  0.00     0.178 C 
ATOM     17  O   UNK d   1       1.112   3.836   0.672  0.00  0.00    -0.349 OA
ATOM     18  C   UNK d   1      -0.199   3.447   0.421  0.00  0.00     0.094 A 
ATOM     19  C   UNK d   1      -0.590   2.148   0.580  0.00  0.00     0.000 A 
ATOM     20  C   UNK d   1      -1.078   4.435   0.004  0.00  0.00     0.044 A 
ATOM     21  C   UNK d   1      -1.879   1.765   0.333  0.00  0.00     0.012 A 
ATOM     22  C   UNK d   1      -2.781   2.715  -0.082  0.00  0.00     0.002 A 
ATOM     23  C   UNK d   1      -2.374   4.016  -0.237  0.00  0.00     0.022 A 
ATOM     24 Br   UNK d   1      -0.527   6.241  -0.215  0.00  0.00    -0.048 Br
ENDBRANCH  11  14
TORSDOF 1
