REMARK  3 active torsions:
REMARK  status: ('A' for Active; 'I' for Inactive)
REMARK    1  A    between atoms: C_2  and  C_7 
REMARK       I    between atoms: C_7  and  N_9 
REMARK    2  A    between atoms: N_9  and  C_10 
REMARK    3  A    between atoms: N_12  and  C_15 
ROOT
ATOM      1  C   UNK d   1      -0.248  -1.553  -1.153  0.00  0.00     0.104 C 
ATOM      2  C   UNK d   1      -1.449  -0.667  -1.365  0.00  0.00     0.149 C 
ATOM      3  N   UNK d   1      -1.557  -0.004  -0.074  0.00  0.00    -0.361 N 
ATOM      4  C   UNK d   1      -1.421  -1.056   0.905  0.00  0.00     0.127 C 
ATOM      5  C   UNK d   1      -0.508  -2.072   0.245  0.00  0.00     0.046 C 
ENDROOT
BRANCH   1   6
ATOM      6  N   UNK d   1       0.988  -0.786  -1.104  0.00  0.00    -0.350 N 
ATOM      7  C   UNK d   1       2.071  -1.058  -1.970  0.00  0.00     0.259 C 
ATOM      8  O   UNK d   1       2.046  -1.969  -2.834  0.00  0.00    -0.267 OA
ATOM      9  H   UNK d   1       1.096  -0.009  -0.415  0.00  0.00     0.163 HD
BRANCH   7  10
ATOM     10  C   UNK d   1       3.321  -0.267  -1.905  0.00  0.00     0.073 A 
ATOM     11  S   UNK d   1       4.744  -0.407  -2.835  0.00  0.00    -0.095 SA
ATOM     12  C   UNK d   1       5.657   0.849  -2.133  0.00  0.00     0.069 A 
ATOM     13  C   UNK d   1       4.810   1.350  -1.178  0.00  0.00     0.018 A 
ATOM     14  C   UNK d   1       3.611   0.775  -1.063  0.00  0.00     0.044 A 
ATOM     15 Br   UNK d   1       5.404   2.834  -0.079  0.00  0.00    -0.051 Br
ENDBRANCH   7  10
ENDBRANCH   1   6
BRANCH   3  16
ATOM     16  C   UNK d   1      -1.757   1.405   0.122  0.00  0.00     0.174 A 
ATOM     17  N   UNK d   1      -1.852   2.246  -0.925  0.00  0.00    -0.238 NA
ATOM     18  C   UNK d   1      -2.038   3.560  -0.710  0.00  0.00     0.136 A 
ATOM     19  C   UNK d   1      -2.136   4.085   0.553  0.00  0.00     0.119 A 
ATOM     20  N   UNK d   1      -2.044   3.259   1.609  0.00  0.00    -0.294 N 
ATOM     21  C   UNK d   1      -1.857   1.944   1.382  0.00  0.00     0.203 A 
ATOM     22  C   UNK d   1      -2.103   3.487   2.943  0.00  0.00     0.240 A 
ATOM     23  N   UNK d   1      -1.805   1.386   2.607  0.00  0.00    -0.126 NA
ATOM     24  N   UNK d   1      -1.951   2.299   3.552  0.00  0.00    -0.143 NA
ENDBRANCH   3  16
TORSDOF 3
