# created with PyMOL 2.3.2
@<TRIPOS>MOLECULE
1157
36 39 1                 
SMALL
USER_CHARGES
@<TRIPOS>ATOM
1	   S	4.744	-0.407	-2.835	S.3	1	UNK0	0.000	
2	   C	3.321	-0.267	-1.905	C.2	1	UNK0	0.000	
3	   C	3.611	0.775	-1.063	C.2	1	UNK0	0.000	
4	   C	4.810	1.350	-1.178	C.2	1	UNK0	0.000	
5	   C	5.657	0.849	-2.133	C.2	1	UNK0	0.000	
6	  Br	5.404	2.834	-0.079	Br	1	UNK0	0.000	
7	   C	2.071	-1.058	-1.970	C.2	1	UNK0	0.000	
8	   O	2.046	-1.969	-2.834	O.2	1	UNK0	0.000	
9	   N	0.988	-0.786	-1.104	N.pl3	1	UNK0	0.000	
10	   C	-0.248	-1.553	-1.153	C.3	1	UNK0	0.000	
11	   C	-1.449	-0.667	-1.365	C.3	1	UNK0	0.000	
12	   N	-1.557	-0.004	-0.074	N.pl3	1	UNK0	0.000	
13	   C	-1.421	-1.056	0.905	C.3	1	UNK0	0.000	
14	   C	-0.508	-2.072	0.245	C.3	1	UNK0	0.000	
15	   C	-1.757	1.405	0.122	C.2	1	UNK0	0.000	
16	   N	-1.852	2.246	-0.925	N.2	1	UNK0	0.000	
17	   C	-2.038	3.560	-0.710	C.2	1	UNK0	0.000	
18	   C	-2.136	4.085	0.553	C.2	1	UNK0	0.000	
19	   N	-2.044	3.259	1.609	N.pl3	1	UNK0	0.000	
20	   C	-1.857	1.944	1.382	C.2	1	UNK0	0.000	
21	   N	-1.805	1.386	2.607	N.2	1	UNK0	0.000	
22	   N	-1.951	2.299	3.552	N.2	1	UNK0	0.000	
23	   C	-2.103	3.487	2.943	C.2	1	UNK0	0.000	
24	   H	2.840	1.092	-0.327	 H	1	UNK0	0.000	
25	   H	6.676	1.155	-2.408	 H	1	UNK0	0.000	
26	   H	1.096	-0.009	-0.415	 H	1	UNK0	0.000	
27	   H	-0.228	-2.331	-1.914	 H	1	UNK0	0.000	
28	   H	-1.352	0.029	-2.198	 H	1	UNK0	0.000	
29	   H	-2.327	-1.332	-1.476	 H	1	UNK0	0.000	
30	   H	-1.048	-0.736	1.881	 H	1	UNK0	0.000	
31	   H	-2.420	-1.528	1.009	 H	1	UNK0	0.000	
32	   H	0.425	-2.123	0.850	 H	1	UNK0	0.000	
33	   H	-0.999	-3.066	0.172	 H	1	UNK0	0.000	
34	   H	-2.114	4.232	-1.569	 H	1	UNK0	0.000	
35	   H	-2.287	5.144	0.731	 H	1	UNK0	0.000	
36	   H	-2.244	4.443	3.402	 H	1	UNK0	0.000	
@<TRIPOS>BOND
1 1 2 1
2 1 5 1
3 2 3 2
4 2 7 1
5 3 4 1
6 4 5 2
7 4 6 1
8 7 8 2
9 7 9 1
10 9 10 1
11 10 11 1
12 10 14 1
13 11 12 1
14 12 13 1
15 12 15 1
16 13 14 1
17 15 16 2
18 15 20 1
19 16 17 1
20 17 18 2
21 18 19 1
22 19 20 1
23 19 23 1
24 20 21 2
25 21 22 1
26 22 23 2
27 3 24 1
28 5 25 1
29 9 26 1
30 10 27 1
31 11 28 1
32 11 29 1
33 13 30 1
34 13 31 1
35 14 32 1
36 14 33 1
37 17 34 1
38 18 35 1
39 23 36 1
@<TRIPOS>SUBSTRUCTURE
1	UNK0	1	GROUP	1 ****	UNK
