REMARK  5 active torsions:
REMARK  status: ('A' for Active; 'I' for Inactive)
REMARK    1  A    between atoms: C_4  and  C_6 
REMARK    2  A    between atoms: C_7  and  C_9 
REMARK    3  A    between atoms: C_11  and  C_14 
REMARK    4  A    between atoms: N_16  and  C_19 
REMARK    5  A    between atoms: C_19  and  C_20 
REMARK       I    between atoms: C_20  and  N_22 
ROOT
ATOM      1  C   UNK d   1      -0.601  -1.303   1.431  0.00  0.00     0.178 A 
ATOM      2  N   UNK d   1      -0.598  -1.100   0.101  0.00  0.00    -0.201 NA
ATOM      3  C   UNK d   1      -1.848  -0.869  -0.336  0.00  0.00     0.229 A 
ATOM      4  N   UNK d   1      -2.618  -0.936   0.763  0.00  0.00    -0.102 NA
ATOM      5  O   UNK d   1      -1.855  -1.195   1.801  0.00  0.00    -0.195 OA
ENDROOT
BRANCH   3   6
ATOM      6  C   UNK d   1      -2.301  -0.601  -1.701  0.00  0.00     0.221 A 
ATOM      7  N   UNK d   1      -1.525  -0.535  -2.796  0.00  0.00    -0.147 NA
ATOM      8  N   UNK d   1      -2.273  -0.272  -3.873  0.00  0.00    -0.253 N 
ATOM      9  C   UNK d   1      -3.560  -0.165  -3.473  0.00  0.00     0.231 A 
ATOM     10  N   UNK d   1      -3.551  -0.370  -2.135  0.00  0.00    -0.218 NA
BRANCH   8  11
ATOM     11  C   UNK d   1      -1.796  -0.126  -5.238  0.00  0.00     0.254 C 
BRANCH  11  12
ATOM     12  C   UNK d   1      -1.461   1.295  -5.471  0.00  0.00     0.235 C 
ATOM     13  O   UNK d   1      -2.352   2.058  -5.904  0.00  0.00    -0.272 OA
ATOM     14  N   UNK d   1      -0.155   1.768  -5.204  0.00  0.00    -0.369 N 
ATOM     15  H   UNK d   1       0.013   2.688  -4.711  0.00  0.00     0.159 HD
ATOM     16  H   UNK d   1       0.719   1.252  -5.468  0.00  0.00     0.159 HD
ENDBRANCH  11  12
ENDBRANCH   8  11
ENDBRANCH   3   6
BRANCH   1  17
ATOM     17  C   UNK d   1       0.580  -1.594   2.318  0.00  0.00     0.074 A 
ATOM     18  C   UNK d   1       0.507  -0.886   3.678  0.00  0.00     0.032 A 
ATOM     19  C   UNK d   1       0.373  -2.341   3.580  0.00  0.00     0.023 A 
BRANCH  18  20
ATOM     20  C   UNK d   1       1.850  -0.334   4.120  0.00  0.00    -0.045 A 
ATOM     21  C   UNK d   1       1.955   0.852   4.762  0.00  0.00     0.034 A 
ATOM     22  C   UNK d   1       3.217   1.249   5.119  0.00  0.00     0.051 A 
ATOM     23  S   UNK d   1       4.203  -0.017   4.561  0.00  0.00    -0.094 SA
ATOM     24 Br   UNK d   1       3.711   2.873   6.039  0.00  0.00    -0.043 Br
ATOM     25  C   UNK d   1       3.007  -1.023   3.889  0.00  0.00     0.058 A 
ENDBRANCH  18  20
ENDBRANCH   1  17
TORSDOF 5
