REMARK  7 active torsions:
REMARK  status: ('A' for Active; 'I' for Inactive)
REMARK    1  A    between atoms: C_5  and  C_6 
REMARK    2  A    between atoms: C_6  and  C_8 
REMARK    3  A    between atoms: C_8  and  N_9 
REMARK    4  A    between atoms: N_16  and  C_19 
REMARK    5  A    between atoms: C_17  and  N_18 
REMARK    6  A    between atoms: C_19  and  C_20 
REMARK    7  A    between atoms: C_20  and  N_21 
ROOT
ATOM      1  N   UNK d   1       1.858  -2.289  -1.296  0.00  0.00    -0.172 N 
ATOM      2  C   UNK d   1       2.589  -1.157  -1.160  0.00  0.00     0.079 A 
ATOM      3  C   UNK d   1       1.760  -0.078  -1.101  0.00  0.00     0.079 A 
ATOM      4  C   UNK d   1       2.277   1.197  -0.960  0.00  0.00     0.032 A 
ATOM      5  C   UNK d   1       3.641   1.360  -0.880  0.00  0.00     0.002 A 
ATOM      6  C   UNK d   1       4.497   0.290  -0.936  0.00  0.00     0.002 A 
ATOM      7  C   UNK d   1       3.950  -0.966  -1.077  0.00  0.00     0.032 A 
ATOM      8  N   UNK d   1       0.513  -0.548  -1.204  0.00  0.00    -0.178 N 
ATOM      9  C   UNK d   1       0.579  -1.905  -1.324  0.00  0.00     0.703 A 
ENDROOT
BRANCH   1  10
ATOM     10  C   UNK d   1       2.418  -3.614  -1.388  0.00  0.00     0.232 C 
BRANCH  10  11
ATOM     11  C   UNK d   1       2.626  -4.222  -0.051  0.00  0.00     0.185 C 
ATOM     12  O   UNK d   1       3.569  -3.850   0.690  0.00  0.00    -0.290 OA
BRANCH  11  13
ATOM     13  C   UNK d   1       1.749  -5.279   0.465  0.00  0.00     0.053 A 
ATOM     14  S   UNK d   1       0.409  -6.052  -0.269  0.00  0.00    -0.079 SA
ATOM     15  C   UNK d   1      -0.030  -7.112   0.985  0.00  0.00     0.052 A 
ATOM     16  C   UNK d   1       0.892  -6.831   1.955  0.00  0.00     0.028 A 
ATOM     17 Br   UNK d   1      -1.461  -8.373   1.002  0.00  0.00    -0.043 Br
ATOM     18  C   UNK d   1       1.804  -5.893   1.691  0.00  0.00     0.024 A 
ENDBRANCH  11  13
ENDBRANCH  10  11
ENDBRANCH   1  10
BRANCH   9  19
ATOM     19  N   UNK d   1      -0.493  -2.595  -1.450  0.00  0.00    -0.117 NA
ATOM     20  H   UNK d   1      -0.598  -3.602  -1.559  0.00  0.00     0.206 HD
ENDBRANCH   9  19
BRANCH   8  21
ATOM     21  C   UNK d   1      -0.688   0.275  -1.173  0.00  0.00     0.175 C 
BRANCH  21  22
ATOM     22  C   UNK d   1      -1.166   0.369   0.284  0.00  0.00     0.255 C 
BRANCH  22  23
ATOM     23  N   UNK d   1      -2.350   1.169   0.410  0.00  0.00    -0.070 N 
ATOM     24  C   UNK d   1      -3.493   0.650  -0.314  0.00  0.00     0.235 C 
ATOM     25  C   UNK d   1      -3.757  -0.793   0.011  0.00  0.00     0.028 C 
ATOM     26  C   UNK d   1      -3.760  -1.079   1.475  0.00  0.00     0.003 C 
ATOM     27  C   UNK d   1      -2.934  -0.174   2.317  0.00  0.00     0.028 C 
ATOM     28  C   UNK d   1      -2.731   1.206   1.801  0.00  0.00     0.235 C 
ATOM     29  H   UNK d   1      -2.185   2.127   0.032  0.00  0.00     0.279 HD
ENDBRANCH  22  23
ENDBRANCH  21  22
ENDBRANCH   8  21
TORSDOF 7
