# created with PyMOL 2.3.2
@<TRIPOS>MOLECULE
1161
51 54 1                 
SMALL
USER_CHARGES
@<TRIPOS>ATOM
1	   S	0.409	-6.052	-0.269	S.3	1	UNK0	0.000	
2	   C	-0.030	-7.112	0.985	C.2	1	UNK0	0.000	
3	   C	0.892	-6.831	1.955	C.2	1	UNK0	0.000	
4	   C	1.804	-5.893	1.691	C.2	1	UNK0	0.000	
5	   C	1.749	-5.279	0.465	C.2	1	UNK0	0.000	
6	   C	2.626	-4.222	-0.051	C.2	1	UNK0	0.000	
7	   O	3.569	-3.850	0.690	O.2	1	UNK0	0.000	
8	   C	2.418	-3.614	-1.388	C.3	1	UNK0	0.000	
9	   N	1.858	-2.289	-1.296	N.pl3	1	UNK0	0.000	
10	   C	2.589	-1.157	-1.160	C.2	1	UNK0	0.000	
11	   C	1.760	-0.078	-1.101	C.2	1	UNK0	0.000	
12	   C	2.277	1.197	-0.960	C.2	1	UNK0	0.000	
13	   C	3.641	1.360	-0.880	C.2	1	UNK0	0.000	
14	   C	4.497	0.290	-0.936	C.2	1	UNK0	0.000	
15	   C	3.950	-0.966	-1.077	C.2	1	UNK0	0.000	
16	   N	0.513	-0.548	-1.204	N.pl3	1	UNK0	0.000	
17	   C	0.579	-1.905	-1.324	C.2	1	UNK0	0.000	
18	   N	-0.493	-2.595	-1.450	N.2	1	UNK0	0.000	
19	   C	-0.688	0.275	-1.173	C.3	1	UNK0	0.000	
20	   C	-1.166	0.369	0.284	C.3	1	UNK0	0.000	
21	   N	-2.350	1.169	0.410	N.4	1	UNK0	0.000	
22	   C	-3.493	0.650	-0.314	C.3	1	UNK0	0.000	
23	   C	-3.757	-0.793	0.011	C.3	1	UNK0	0.000	
24	   C	-3.760	-1.079	1.475	C.3	1	UNK0	0.000	
25	   C	-2.934	-0.174	2.317	C.3	1	UNK0	0.000	
26	   C	-2.731	1.206	1.801	C.3	1	UNK0	0.000	
27	  Br	-1.461	-8.373	1.002	Br	1	UNK0	0.000	
28	   H	0.841	-7.394	2.920	 H	1	UNK0	0.000	
29	   H	2.589	-5.602	2.427	 H	1	UNK0	0.000	
30	   H	1.799	-4.285	-2.041	 H	1	UNK0	0.000	
31	   H	3.402	-3.557	-1.916	 H	1	UNK0	0.000	
32	   H	1.584	2.030	-0.916	 H	1	UNK0	0.000	
33	   H	4.086	2.339	-0.767	 H	1	UNK0	0.000	
34	   H	5.577	0.384	-0.875	 H	1	UNK0	0.000	
35	   H	4.587	-1.828	-1.125	 H	1	UNK0	0.000	
36	   H	-0.598	-3.602	-1.559	 H	1	UNK0	0.000	
37	   H	-1.510	-0.130	-1.796	 H	1	UNK0	0.000	
38	   H	-0.455	1.329	-1.464	 H	1	UNK0	0.000	
39	   H	-0.345	0.883	0.831	 H	1	UNK0	0.000	
40	   H	-1.321	-0.681	0.601	 H	1	UNK0	0.000	
41	   H	-2.185	2.127	0.032	 H	1	UNK0	0.000	
42	   H	-4.360	1.269	-0.028	 H	1	UNK0	0.000	
43	   H	-3.305	0.739	-1.401	 H	1	UNK0	0.000	
44	   H	-3.047	-1.467	-0.550	 H	1	UNK0	0.000	
45	   H	-4.761	-1.035	-0.400	 H	1	UNK0	0.000	
46	   H	-4.814	-1.069	1.842	 H	1	UNK0	0.000	
47	   H	-3.367	-2.128	1.618	 H	1	UNK0	0.000	
48	   H	-3.429	-0.135	3.335	 H	1	UNK0	0.000	
49	   H	-1.945	-0.645	2.528	 H	1	UNK0	0.000	
50	   H	-3.646	1.818	1.961	 H	1	UNK0	0.000	
51	   H	-1.859	1.641	2.344	 H	1	UNK0	0.000	
@<TRIPOS>BOND
1 1 2 1
2 1 5 1
3 2 3 2
4 2 27 1
5 3 4 1
6 4 5 2
7 5 6 1
8 6 7 2
9 6 8 1
10 8 9 1
11 9 10 1
12 9 17 1
13 10 11 1
14 10 15 2
15 11 12 2
16 11 16 1
17 12 13 1
18 13 14 2
19 14 15 1
20 16 17 1
21 16 19 1
22 17 18 2
23 19 20 1
24 20 21 1
25 21 22 1
26 21 26 1
27 22 23 1
28 23 24 1
29 24 25 1
30 25 26 1
31 3 28 1
32 4 29 1
33 8 30 1
34 8 31 1
35 12 32 1
36 13 33 1
37 14 34 1
38 15 35 1
39 18 36 1
40 19 37 1
41 19 38 1
42 20 39 1
43 20 40 1
44 21 41 1
45 22 42 1
46 22 43 1
47 23 44 1
48 23 45 1
49 24 46 1
50 24 47 1
51 25 48 1
52 25 49 1
53 26 50 1
54 26 51 1
@<TRIPOS>SUBSTRUCTURE
1	UNK0	1	GROUP	1 ****	UNK
