REMARK  7 active torsions:
REMARK  status: ('A' for Active; 'I' for Inactive)
REMARK    1  A    between atoms: C_5  and  C_6 
REMARK    2  A    between atoms: C_6  and  C_7 
REMARK    3  A    between atoms: C_8  and  C_23 
REMARK    4  A    between atoms: N_9  and  C_14 
REMARK    5  A    between atoms: C_14  and  C_15 
REMARK    6  A    between atoms: C_15  and  C_16 
REMARK    7  A    between atoms: C_16  and  N_17 
ROOT
ATOM      1  C   UNK d   1      -1.745   0.467  -0.229  0.00  0.00     0.063 C 
ATOM      2  C   UNK d   1      -0.848   1.248  -1.144  0.00  0.00     0.161 C 
ATOM      3  N   UNK d   1      -0.110   0.240  -1.839  0.00  0.00    -0.332 N 
ATOM      4  C   UNK d   1      -1.054  -0.857  -1.988  0.00  0.00     0.295 C 
ATOM      5  O   UNK d   1      -0.933  -1.748  -2.872  0.00  0.00    -0.264 OA
ATOM      6  C   UNK d   1      -2.094  -0.730  -0.983  0.00  0.00     0.250 C 
ATOM      7  O   UNK d   1      -3.097  -1.497  -0.800  0.00  0.00    -0.282 OA
ENDROOT
BRANCH   3   8
ATOM      8  C   UNK d   1       1.219   0.231  -2.375  0.00  0.00     0.129 C 
BRANCH   8   9
ATOM      9  C   UNK d   1       2.277  -0.379  -1.514  0.00  0.00     0.048 C 
BRANCH   9  10
ATOM     10  C   UNK d   1       3.642  -0.338  -2.218  0.00  0.00     0.236 C 
BRANCH  10  11
ATOM     11  N   UNK d   1       4.608  -0.928  -1.354  0.00  0.00    -0.067 N 
ATOM     12  C   UNK d   1       4.128  -1.931  -0.458  0.00  0.00     0.261 C 
ATOM     13  C   UNK d   1       3.854  -3.256  -1.129  0.00  0.00     0.195 C 
ATOM     14  O   UNK d   1       4.109  -3.075  -2.507  0.00  0.00    -0.388 OA
ATOM     15  C   UNK d   1       5.500  -2.864  -2.589  0.00  0.00     0.195 C 
ATOM     16  C   UNK d   1       5.747  -1.459  -2.080  0.00  0.00     0.261 C 
ATOM     17  H   UNK d   1       5.001  -0.145  -0.749  0.00  0.00     0.280 HD
ENDBRANCH  10  11
ENDBRANCH   9  10
ENDBRANCH   8   9
ENDBRANCH   3   8
BRANCH   2  18
ATOM     18  C   UNK d   1      -0.087   2.262  -0.426  0.00  0.00    -0.029 A 
ATOM     19  C   UNK d   1      -0.267   3.603  -0.800  0.00  0.00     0.028 A 
ATOM     20  C   UNK d   1       0.373   4.648  -0.184  0.00  0.00     0.011 A 
ATOM     21  C   UNK d   1       1.237   4.396   0.853  0.00  0.00     0.019 A 
ATOM     22 Br   UNK d   1       0.109   6.464  -0.714  0.00  0.00    -0.051 Br
ATOM     23  C   UNK d   1       1.440   3.084   1.252  0.00  0.00     0.002 A 
ATOM     24  C   UNK d   1       0.779   2.059   0.609  0.00  0.00     0.009 A 
ENDBRANCH   2  18
BRANCH   1  25
ATOM     25  C   UNK d   1      -2.183   0.800   0.970  0.00  0.00     0.139 C 
ATOM     26  O   UNK d   1      -1.798   2.046   1.516  0.00  0.00    -0.190 OA
BRANCH  25  27
ATOM     27  C   UNK d   1      -3.053  -0.094   1.731  0.00  0.00     0.068 A 
ATOM     28  S   UNK d   1      -4.585   0.288   2.392  0.00  0.00    -0.070 SA
ATOM     29  C   UNK d   1      -4.919  -1.200   3.156  0.00  0.00     0.072 A 
ATOM     30  N   UNK d   1      -3.844  -1.909   2.868  0.00  0.00    -0.250 NA
ATOM     31  C   UNK d   1      -6.133  -1.606   3.959  0.00  0.00     0.078 C 
ATOM     32  C   UNK d   1      -2.889  -1.386   2.157  0.00  0.00     0.051 A 
ATOM     33  C   UNK d   1      -1.632  -2.195   1.864  0.00  0.00     0.072 C 
ENDBRANCH  25  27
ENDBRANCH   1  25
TORSDOF 7
