# created with PyMOL 2.3.2
@<TRIPOS>MOLECULE
1177
58 61 1                 
SMALL
USER_CHARGES
@<TRIPOS>ATOM
1	   S	-4.585	0.288	2.392	S.3	1	UNK0	0.000	
2	   C	-4.919	-1.200	3.156	C.2	1	UNK0	0.000	
3	   N	-3.844	-1.909	2.868	N.2	1	UNK0	0.000	
4	   C	-2.889	-1.386	2.157	C.2	1	UNK0	0.000	
5	   C	-3.053	-0.094	1.731	C.2	1	UNK0	0.000	
6	   C	-2.183	0.800	0.970	C.2	1	UNK0	0.000	
7	   C	-1.745	0.467	-0.229	C.2	1	UNK0	0.000	
8	   C	-0.848	1.248	-1.144	C.3	1	UNK0	0.000	
9	   N	-0.110	0.240	-1.839	N.pl3	1	UNK0	0.000	
10	   C	-1.054	-0.857	-1.988	C.2	1	UNK0	0.000	
11	   O	-0.933	-1.748	-2.872	O.2	1	UNK0	0.000	
12	   C	-2.094	-0.730	-0.983	C.2	1	UNK0	0.000	
13	   O	-3.097	-1.497	-0.800	O.2	1	UNK0	0.000	
14	   C	1.219	0.231	-2.375	C.3	1	UNK0	0.000	
15	   C	2.277	-0.379	-1.514	C.3	1	UNK0	0.000	
16	   C	3.642	-0.338	-2.218	C.3	1	UNK0	0.000	
17	   N	4.608	-0.928	-1.354	N.4	1	UNK0	0.000	
18	   C	4.128	-1.931	-0.458	C.3	1	UNK0	0.000	
19	   C	3.854	-3.256	-1.129	C.3	1	UNK0	0.000	
20	   O	4.109	-3.075	-2.507	O.3	1	UNK0	0.000	
21	   C	5.500	-2.864	-2.589	C.3	1	UNK0	0.000	
22	   C	5.747	-1.459	-2.080	C.3	1	UNK0	0.000	
23	   C	-0.087	2.262	-0.426	C.2	1	UNK0	0.000	
24	   C	-0.267	3.603	-0.800	C.2	1	UNK0	0.000	
25	   C	0.373	4.648	-0.184	C.2	1	UNK0	0.000	
26	   C	1.237	4.396	0.853	C.2	1	UNK0	0.000	
27	   C	1.440	3.084	1.252	C.2	1	UNK0	0.000	
28	   C	0.779	2.059	0.609	C.2	1	UNK0	0.000	
29	  Br	0.109	6.464	-0.714	Br	1	UNK0	0.000	
30	   O	-1.798	2.046	1.516	O.2	1	UNK0	0.000	
31	   C	-1.632	-2.195	1.864	C.3	1	UNK0	0.000	
32	   C	-6.133	-1.606	3.959	C.3	1	UNK0	0.000	
33	   H	-1.565	1.761	-1.854	 H	1	UNK0	0.000	
34	   H	1.497	1.312	-2.522	 H	1	UNK0	0.000	
35	   H	1.229	-0.291	-3.362	 H	1	UNK0	0.000	
36	   H	2.432	0.053	-0.536	 H	1	UNK0	0.000	
37	   H	2.032	-1.483	-1.464	 H	1	UNK0	0.000	
38	   H	3.937	0.708	-2.434	 H	1	UNK0	0.000	
39	   H	3.498	-0.886	-3.173	 H	1	UNK0	0.000	
40	   H	5.001	-0.145	-0.749	 H	1	UNK0	0.000	
41	   H	3.261	-1.671	0.147	 H	1	UNK0	0.000	
42	   H	4.964	-2.117	0.280	 H	1	UNK0	0.000	
43	   H	2.862	-3.668	-0.931	 H	1	UNK0	0.000	
44	   H	4.590	-4.045	-0.816	 H	1	UNK0	0.000	
45	   H	5.966	-3.560	-1.842	 H	1	UNK0	0.000	
46	   H	5.907	-3.058	-3.579	 H	1	UNK0	0.000	
47	   H	6.631	-1.419	-1.422	 H	1	UNK0	0.000	
48	   H	5.922	-0.792	-2.955	 H	1	UNK0	0.000	
49	   H	-0.943	3.848	-1.618	 H	1	UNK0	0.000	
50	   H	1.732	5.228	1.327	 H	1	UNK0	0.000	
51	   H	2.106	2.854	2.055	 H	1	UNK0	0.000	
52	   H	0.935	1.042	0.940	 H	1	UNK0	0.000	
53	   H	-0.835	-1.526	1.555	 H	1	UNK0	0.000	
54	   H	-1.869	-3.002	1.142	 H	1	UNK0	0.000	
55	   H	-1.293	-2.713	2.790	 H	1	UNK0	0.000	
56	   H	-6.617	-2.489	3.530	 H	1	UNK0	0.000	
57	   H	-5.746	-1.800	4.984	 H	1	UNK0	0.000	
58	   H	-6.787	-0.712	4.018	 H	1	UNK0	0.000	
@<TRIPOS>BOND
1 1 2 1
2 1 5 1
3 2 3 2
4 2 32 1
5 3 4 1
6 4 5 2
7 4 31 1
8 5 6 1
9 6 7 2
10 6 30 1
11 7 8 1
12 7 12 1
13 8 9 1
14 8 23 1
15 9 10 1
16 9 14 1
17 10 11 2
18 10 12 1
19 12 13 2
20 14 15 1
21 15 16 1
22 16 17 1
23 17 18 1
24 17 22 1
25 18 19 1
26 19 20 1
27 20 21 1
28 21 22 1
29 23 24 2
30 23 28 1
31 24 25 1
32 25 26 2
33 25 29 1
34 26 27 1
35 27 28 2
36 8 33 1
37 14 34 1
38 14 35 1
39 15 36 1
40 15 37 1
41 16 38 1
42 16 39 1
43 17 40 1
44 18 41 1
45 18 42 1
46 19 43 1
47 19 44 1
48 21 45 1
49 21 46 1
50 22 47 1
51 22 48 1
52 24 49 1
53 26 50 1
54 27 51 1
55 28 52 1
56 31 53 1
57 31 54 1
58 31 55 1
59 32 56 1
60 32 57 1
61 32 58 1
@<TRIPOS>SUBSTRUCTURE
1	UNK0	1	GROUP	1 ****	UNK
