REMARK  7 active torsions:
REMARK  status: ('A' for Active; 'I' for Inactive)
REMARK    1  A    between atoms: C_5  and  C_6 
REMARK    2  A    between atoms: C_6  and  C_7 
REMARK    3  A    between atoms: C_8  and  C_23 
REMARK    4  A    between atoms: N_9  and  C_14 
REMARK    5  A    between atoms: C_14  and  C_15 
REMARK    6  A    between atoms: C_15  and  C_16 
REMARK    7  A    between atoms: C_16  and  N_17 
ROOT
ATOM      1  C   UNK d   1       0.500  -0.153  -1.938  0.00  0.00     0.063 C 
ATOM      2  C   UNK d   1      -0.355   0.913  -1.328  0.00  0.00     0.161 C 
ATOM      3  N   UNK d   1      -0.840   0.279  -0.131  0.00  0.00    -0.332 N 
ATOM      4  C   UNK d   1      -1.018  -1.101  -0.478  0.00  0.00     0.295 C 
ATOM      5  O   UNK d   1      -1.765  -1.911   0.100  0.00  0.00    -0.264 OA
ATOM      6  C   UNK d   1      -0.178  -1.405  -1.628  0.00  0.00     0.250 C 
ATOM      7  O   UNK d   1      -0.016  -2.476  -2.274  0.00  0.00    -0.282 OA
ENDROOT
BRANCH   3   8
ATOM      8  C   UNK d   1      -1.097   0.941   1.113  0.00  0.00     0.129 C 
BRANCH   8   9
ATOM      9  C   UNK d   1      -2.451   1.496   1.270  0.00  0.00     0.048 C 
BRANCH   9  10
ATOM     10  C   UNK d   1      -3.576   0.602   1.176  0.00  0.00     0.236 C 
BRANCH  10  11
ATOM     11  N   UNK d   1      -3.934  -0.460   1.990  0.00  0.00    -0.067 N 
ATOM     12  C   UNK d   1      -5.273  -0.205   2.640  0.00  0.00     0.261 C 
ATOM     13  C   UNK d   1      -5.084   0.708   3.806  0.00  0.00     0.195 C 
ATOM     14  O   UNK d   1      -4.381   0.001   4.775  0.00  0.00    -0.388 OA
ATOM     15  C   UNK d   1      -3.071  -0.132   4.262  0.00  0.00     0.195 C 
ATOM     16  C   UNK d   1      -3.072  -0.957   3.005  0.00  0.00     0.261 C 
ATOM     17  H   UNK d   1      -4.177  -1.293   1.401  0.00  0.00     0.280 HD
ENDBRANCH  10  11
ENDBRANCH   9  10
ENDBRANCH   8   9
ENDBRANCH   3   8
BRANCH   2  18
ATOM     18  C   UNK d   1       0.410   2.153  -1.130  0.00  0.00    -0.030 A 
ATOM     19  C   UNK d   1       1.491   2.322  -0.309  0.00  0.00     0.011 A 
ATOM     20  C   UNK d   1       2.178   3.504  -0.149  0.00  0.00     0.019 A 
ATOM     21  C   UNK d   1       1.763   4.604  -0.856  0.00  0.00     0.011 A 
ATOM     22  C   UNK d   1       0.685   4.499  -1.695  0.00  0.00     0.019 A 
ATOM     23 Br   UNK d   1       2.723   6.248  -0.632  0.00  0.00    -0.051 Br
ATOM     24  C   UNK d   1       0.021   3.302  -1.832  0.00  0.00     0.011 A 
ENDBRANCH   2  18
BRANCH   1  25
ATOM     25  C   UNK d   1       1.582   0.056  -2.628  0.00  0.00     0.139 C 
ATOM     26  O   UNK d   1       2.014   1.375  -2.848  0.00  0.00    -0.190 OA
BRANCH  25  27
ATOM     27  C   UNK d   1       2.357  -1.077  -3.180  0.00  0.00     0.068 A 
ATOM     28  S   UNK d   1       2.829  -1.383  -4.798  0.00  0.00    -0.070 SA
ATOM     29  C   UNK d   1       3.719  -2.813  -4.543  0.00  0.00     0.072 A 
ATOM     30  N   UNK d   1       3.614  -2.985  -3.241  0.00  0.00    -0.250 NA
ATOM     31  C   UNK d   1       4.453  -3.687  -5.524  0.00  0.00     0.078 C 
ATOM     32  C   UNK d   1       2.940  -2.136  -2.527  0.00  0.00     0.051 A 
ATOM     33  C   UNK d   1       2.834  -2.279  -1.011  0.00  0.00     0.072 C 
ENDBRANCH  25  27
ENDBRANCH   1  25
TORSDOF 7
