REMARK  6 active torsions:
REMARK  status: ('A' for Active; 'I' for Inactive)
REMARK    1  A    between atoms: C_5  and  C_6 
REMARK    2  A    between atoms: C_6  and  C_7 
REMARK    3  A    between atoms: C_8  and  C_22 
REMARK    4  A    between atoms: N_9  and  C_14 
REMARK    5  A    between atoms: C_14  and  C_15 
REMARK    6  A    between atoms: C_15  and  N_16 
ROOT
ATOM      1  C   UNK d   1      -2.058   0.369   0.137  0.00  0.00     0.063 C 
ATOM      2  C   UNK d   1      -1.951  -1.121   0.188  0.00  0.00     0.161 C 
ATOM      3  N   UNK d   1      -1.931  -1.435  -1.188  0.00  0.00    -0.331 N 
ATOM      4  C   UNK d   1      -3.061  -0.628  -1.704  0.00  0.00     0.295 C 
ATOM      5  O   UNK d   1      -3.800  -0.899  -2.688  0.00  0.00    -0.264 OA
ATOM      6  C   UNK d   1      -3.135   0.543  -0.837  0.00  0.00     0.250 C 
ATOM      7  O   UNK d   1      -3.931   1.532  -0.861  0.00  0.00    -0.282 OA
ENDROOT
BRANCH   1   8
ATOM      8  C   UNK d   1      -1.393   1.276   0.821  0.00  0.00     0.139 C 
ATOM      9  O   UNK d   1      -0.442   0.886   1.747  0.00  0.00    -0.190 OA
BRANCH   8  10
ATOM     10  C   UNK d   1      -1.714   2.685   0.547  0.00  0.00     0.068 A 
ATOM     11  S   UNK d   1      -2.203   3.916   1.649  0.00  0.00    -0.070 SA
ATOM     12  C   UNK d   1      -2.308   5.218   0.559  0.00  0.00     0.072 A 
ATOM     13  N   UNK d   1      -1.967   4.657  -0.584  0.00  0.00    -0.250 NA
ATOM     14  C   UNK d   1      -2.694   6.648   0.825  0.00  0.00     0.078 C 
ATOM     15  C   UNK d   1      -1.664   3.397  -0.628  0.00  0.00     0.051 A 
ATOM     16  C   UNK d   1      -1.225   2.741  -1.929  0.00  0.00     0.072 C 
ENDBRANCH   8  10
ENDBRANCH   1   8
BRANCH   2  17
ATOM     17  C   UNK d   1      -1.106  -1.688   1.181  0.00  0.00    -0.030 A 
ATOM     18  C   UNK d   1      -1.684  -2.248   2.324  0.00  0.00     0.011 A 
ATOM     19  C   UNK d   1      -0.942  -2.799   3.336  0.00  0.00     0.019 A 
ATOM     20  C   UNK d   1       0.431  -2.795   3.208  0.00  0.00     0.011 A 
ATOM     21  C   UNK d   1       1.021  -2.247   2.088  0.00  0.00     0.019 A 
ATOM     22 Br   UNK d   1       1.541  -3.544   4.574  0.00  0.00    -0.051 Br
ATOM     23  C   UNK d   1       0.255  -1.699   1.085  0.00  0.00     0.011 A 
ENDBRANCH   2  17
BRANCH   3  24
ATOM     24  C   UNK d   1      -1.263  -2.276  -2.122  0.00  0.00     0.155 C 
BRANCH  24  25
ATOM     25  C   UNK d   1      -0.251  -1.719  -3.028  0.00  0.00     0.255 C 
BRANCH  25  26
ATOM     26  N   UNK d   1       0.915  -1.090  -2.557  0.00  0.00    -0.066 N 
ATOM     27  C   UNK d   1       1.989  -1.993  -2.201  0.00  0.00     0.261 C 
ATOM     28  C   UNK d   1       3.088  -1.129  -1.591  0.00  0.00     0.195 C 
ATOM     29  O   UNK d   1       2.894   0.217  -1.901  0.00  0.00    -0.388 OA
ATOM     30  C   UNK d   1       2.756   0.265  -3.303  0.00  0.00     0.195 C 
ATOM     31  C   UNK d   1       1.471  -0.371  -3.750  0.00  0.00     0.261 C 
ATOM     32  H   UNK d   1       0.710  -0.361  -1.866  0.00  0.00     0.280 HD
ENDBRANCH  25  26
ENDBRANCH  24  25
ENDBRANCH   3  24
TORSDOF 6
