# created with PyMOL 2.3.2
@<TRIPOS>MOLECULE
1180
55 58 1                 
SMALL
USER_CHARGES
@<TRIPOS>ATOM
1	   S	-2.203	3.916	1.649	S.3	1	UNK0	0.000	
2	   C	-2.308	5.218	0.559	C.2	1	UNK0	0.000	
3	   N	-1.967	4.657	-0.584	N.2	1	UNK0	0.000	
4	   C	-1.664	3.397	-0.628	C.2	1	UNK0	0.000	
5	   C	-1.714	2.685	0.547	C.2	1	UNK0	0.000	
6	   C	-1.393	1.276	0.821	C.2	1	UNK0	0.000	
7	   C	-2.058	0.369	0.137	C.2	1	UNK0	0.000	
8	   C	-1.951	-1.121	0.188	C.3	1	UNK0	0.000	
9	   N	-1.931	-1.435	-1.188	N.pl3	1	UNK0	0.000	
10	   C	-3.061	-0.628	-1.704	C.2	1	UNK0	0.000	
11	   O	-3.800	-0.899	-2.688	O.2	1	UNK0	0.000	
12	   C	-3.135	0.543	-0.837	C.2	1	UNK0	0.000	
13	   O	-3.931	1.532	-0.861	O.2	1	UNK0	0.000	
14	   C	-1.263	-2.276	-2.122	C.3	1	UNK0	0.000	
15	   C	-0.251	-1.719	-3.028	C.3	1	UNK0	0.000	
16	   N	0.915	-1.090	-2.557	N.4	1	UNK0	0.000	
17	   C	1.989	-1.993	-2.201	C.3	1	UNK0	0.000	
18	   C	3.088	-1.129	-1.591	C.3	1	UNK0	0.000	
19	   O	2.894	0.217	-1.901	O.3	1	UNK0	0.000	
20	   C	2.756	0.265	-3.303	C.3	1	UNK0	0.000	
21	   C	1.471	-0.371	-3.750	C.3	1	UNK0	0.000	
22	   C	-1.106	-1.688	1.181	C.2	1	UNK0	0.000	
23	   C	-1.684	-2.248	2.324	C.2	1	UNK0	0.000	
24	   C	-0.942	-2.799	3.336	C.2	1	UNK0	0.000	
25	   C	0.431	-2.795	3.208	C.2	1	UNK0	0.000	
26	   C	1.021	-2.247	2.088	C.2	1	UNK0	0.000	
27	   C	0.255	-1.699	1.085	C.2	1	UNK0	0.000	
28	  Br	1.541	-3.544	4.574	Br	1	UNK0	0.000	
29	   O	-0.442	0.886	1.747	O.2	1	UNK0	0.000	
30	   C	-1.225	2.741	-1.929	C.3	1	UNK0	0.000	
31	   C	-2.694	6.648	0.825	C.3	1	UNK0	0.000	
32	   H	-3.028	-1.410	0.509	 H	1	UNK0	0.000	
33	   H	-2.054	-2.758	-2.783	 H	1	UNK0	0.000	
34	   H	-0.790	-3.170	-1.638	 H	1	UNK0	0.000	
35	   H	-0.781	-0.947	-3.679	 H	1	UNK0	0.000	
36	   H	0.011	-2.551	-3.767	 H	1	UNK0	0.000	
37	   H	0.710	-0.361	-1.866	 H	1	UNK0	0.000	
38	   H	1.714	-2.734	-1.448	 H	1	UNK0	0.000	
39	   H	2.351	-2.479	-3.143	 H	1	UNK0	0.000	
40	   H	4.052	-1.519	-2.015	 H	1	UNK0	0.000	
41	   H	3.081	-1.198	-0.483	 H	1	UNK0	0.000	
42	   H	2.830	1.305	-3.660	 H	1	UNK0	0.000	
43	   H	3.608	-0.367	-3.686	 H	1	UNK0	0.000	
44	   H	0.718	0.328	-4.110	 H	1	UNK0	0.000	
45	   H	1.657	-1.180	-4.486	 H	1	UNK0	0.000	
46	   H	-2.779	-2.263	2.455	 H	1	UNK0	0.000	
47	   H	-1.416	-3.234	4.226	 H	1	UNK0	0.000	
48	   H	2.108	-2.259	2.013	 H	1	UNK0	0.000	
49	   H	0.785	-1.256	0.211	 H	1	UNK0	0.000	
50	   H	-0.551	3.458	-2.453	 H	1	UNK0	0.000	
51	   H	-2.059	2.550	-2.600	 H	1	UNK0	0.000	
52	   H	-0.688	1.806	-1.723	 H	1	UNK0	0.000	
53	   H	-2.059	7.355	0.263	 H	1	UNK0	0.000	
54	   H	-2.603	6.805	1.939	 H	1	UNK0	0.000	
55	   H	-3.772	6.744	0.590	 H	1	UNK0	0.000	
@<TRIPOS>BOND
1 1 2 1
2 1 5 1
3 2 3 2
4 2 31 1
5 3 4 1
6 4 5 2
7 4 30 1
8 5 6 1
9 6 7 2
10 6 29 1
11 7 8 1
12 7 12 1
13 8 9 1
14 8 22 1
15 9 10 1
16 9 14 1
17 10 11 2
18 10 12 1
19 12 13 2
20 14 15 1
21 15 16 1
22 16 17 1
23 16 21 1
24 17 18 1
25 18 19 1
26 19 20 1
27 20 21 1
28 22 23 2
29 22 27 1
30 23 24 1
31 24 25 2
32 25 26 1
33 25 28 1
34 26 27 2
35 8 32 1
36 14 33 1
37 14 34 1
38 15 35 1
39 15 36 1
40 16 37 1
41 17 38 1
42 17 39 1
43 18 40 1
44 18 41 1
45 20 42 1
46 20 43 1
47 21 44 1
48 21 45 1
49 23 46 1
50 24 47 1
51 26 48 1
52 27 49 1
53 30 50 1
54 30 51 1
55 30 52 1
56 31 53 1
57 31 54 1
58 31 55 1
@<TRIPOS>SUBSTRUCTURE
1	UNK0	1	GROUP	1 ****	UNK
