REMARK  1 active torsions:
REMARK  status: ('A' for Active; 'I' for Inactive)
REMARK    1  A    between atoms: C_14  and  C_16 
ROOT
ATOM      1  S   UNK d   1      -0.662  -1.744  -1.817  0.00  0.00    -0.074 SA
ATOM      2  C   UNK d   1       0.994  -1.288  -1.794  0.00  0.00     0.088 A 
ATOM      3  C   UNK d   1       0.925   0.079  -1.803  0.00  0.00     0.073 A 
ATOM      4  C   UNK d   1      -0.295   0.638  -1.825  0.00  0.00    -0.023 A 
ATOM      5  C   UNK d   1      -1.375  -0.203  -1.836  0.00  0.00     0.018 A 
ATOM      6  C   UNK d   1      -2.730   0.442  -1.860  0.00  0.00     0.281 C 
ATOM      7  N   UNK d   1      -2.803   1.373  -0.736  0.00  0.00    -0.070 N 
ATOM      8  C   UNK d   1      -1.729   2.317  -0.712  0.00  0.00     0.239 C 
ATOM      9  C   UNK d   1      -0.726   2.097  -1.839  0.00  0.00     0.068 C 
ATOM     10  C   UNK d   1      -2.691   0.548   0.467  0.00  0.00     0.270 C 
ATOM     11  C   UNK d   1       2.250   0.759  -1.790  0.00  0.00     0.256 C 
ATOM     12  O   UNK d   1       2.328   2.023  -1.796  0.00  0.00    -0.267 OA
ATOM     13  N   UNK d   1       3.425  -0.036  -1.770  0.00  0.00    -0.332 N 
ATOM     14  C   UNK d   1       3.480  -1.397  -1.323  0.00  0.00     0.219 C 
ATOM     15  N   UNK d   1       2.244  -2.019  -1.771  0.00  0.00    -0.358 N 
ATOM     16  H   UNK d   1      -3.747   1.807  -0.692  0.00  0.00     0.279 HD
ATOM     17  H   UNK d   1       4.315   0.425  -2.114  0.00  0.00     0.165 HD
ATOM     18  H   UNK d   1       2.204  -3.008  -2.091  0.00  0.00     0.162 HD
ENDROOT
BRANCH  14  19
ATOM     19  C   UNK d   1       3.585  -1.513   0.152  0.00  0.00    -0.013 A 
ATOM     20  C   UNK d   1       4.453  -0.730   0.885  0.00  0.00     0.033 A 
ATOM     21  C   UNK d   1       4.563  -0.823   2.254  0.00  0.00     0.049 A 
ATOM     22  C   UNK d   1       3.785  -1.730   2.944  0.00  0.00     0.141 A 
ATOM     23 Br   UNK d   1       5.759   0.259   3.250  0.00  0.00    -0.048 Br
ATOM     24  C   UNK d   1       2.913  -2.521   2.235  0.00  0.00     0.049 A 
ATOM     25  O   UNK d   1       3.891  -1.829   4.324  0.00  0.00    -0.189 OA
ATOM     26  C   UNK d   1       2.808  -2.421   0.861  0.00  0.00     0.033 A 
ATOM     27 Br   UNK d   1       1.849  -3.769   3.236  0.00  0.00    -0.048 Br
ENDBRANCH  14  19
TORSDOF 1
