# created with PyMOL 2.3.2
@<TRIPOS>MOLECULE
1192
39 42 1                 
SMALL
USER_CHARGES
@<TRIPOS>ATOM
1	   S	-0.662	-1.744	-1.817	S.3	1	UNK0	0.000	
2	   C	0.994	-1.288	-1.794	C.2	1	UNK0	0.000	
3	   C	0.925	0.079	-1.803	C.2	1	UNK0	0.000	
4	   C	-0.295	0.638	-1.825	C.2	1	UNK0	0.000	
5	   C	-1.375	-0.203	-1.836	C.2	1	UNK0	0.000	
6	   C	-2.730	0.442	-1.860	C.3	1	UNK0	0.000	
7	   N	-2.803	1.373	-0.736	N.4	1	UNK0	0.000	
8	   C	-1.729	2.317	-0.712	C.3	1	UNK0	0.000	
9	   C	-0.726	2.097	-1.839	C.3	1	UNK0	0.000	
10	   C	-2.691	0.548	0.467	C.3	1	UNK0	0.000	
11	   C	2.250	0.759	-1.790	C.2	1	UNK0	0.000	
12	   O	2.328	2.023	-1.796	O.2	1	UNK0	0.000	
13	   N	3.425	-0.036	-1.770	N.pl3	1	UNK0	0.000	
14	   C	3.480	-1.397	-1.323	C.3	1	UNK0	0.000	
15	   N	2.244	-2.019	-1.771	N.pl3	1	UNK0	0.000	
16	   C	3.585	-1.513	0.152	C.2	1	UNK0	0.000	
17	   C	4.453	-0.730	0.885	C.2	1	UNK0	0.000	
18	   C	4.563	-0.823	2.254	C.2	1	UNK0	0.000	
19	   C	3.785	-1.730	2.944	C.2	1	UNK0	0.000	
20	   C	2.913	-2.521	2.235	C.2	1	UNK0	0.000	
21	   C	2.808	-2.421	0.861	C.2	1	UNK0	0.000	
22	  Br	1.849	-3.769	3.236	Br	1	UNK0	0.000	
23	   O	3.891	-1.829	4.324	O.2	1	UNK0	0.000	
24	  Br	5.759	0.259	3.250	Br	1	UNK0	0.000	
25	   H	-2.944	0.926	-2.820	 H	1	UNK0	0.000	
26	   H	-3.503	-0.331	-1.653	 H	1	UNK0	0.000	
27	   H	-3.747	1.807	-0.692	 H	1	UNK0	0.000	
28	   H	-1.116	2.246	0.234	 H	1	UNK0	0.000	
29	   H	-2.059	3.367	-0.762	 H	1	UNK0	0.000	
30	   H	0.119	2.772	-1.735	 H	1	UNK0	0.000	
31	   H	-1.288	2.219	-2.787	 H	1	UNK0	0.000	
32	   H	-3.027	-0.497	0.280	 H	1	UNK0	0.000	
33	   H	-1.598	0.451	0.734	 H	1	UNK0	0.000	
34	   H	-3.174	1.008	1.334	 H	1	UNK0	0.000	
35	   H	4.315	0.425	-2.114	 H	1	UNK0	0.000	
36	   H	4.340	-1.906	-1.783	 H	1	UNK0	0.000	
37	   H	2.204	-3.008	-2.091	 H	1	UNK0	0.000	
38	   H	5.067	-0.017	0.357	 H	1	UNK0	0.000	
39	   H	2.123	-3.045	0.320	 H	1	UNK0	0.000	
@<TRIPOS>BOND
1 1 2 1
2 1 5 1
3 2 3 2
4 2 15 1
5 3 4 1
6 3 11 1
7 4 5 2
8 4 9 1
9 5 6 1
10 6 7 1
11 7 8 1
12 7 10 1
13 8 9 1
14 11 12 2
15 11 13 1
16 13 14 1
17 14 15 1
18 14 16 1
19 16 17 2
20 16 21 1
21 17 18 1
22 18 19 2
23 18 24 1
24 19 20 1
25 19 23 1
26 20 21 2
27 20 22 1
28 6 25 1
29 6 26 1
30 7 27 1
31 8 28 1
32 8 29 1
33 9 30 1
34 9 31 1
35 10 32 1
36 10 33 1
37 10 34 1
38 13 35 1
39 14 36 1
40 15 37 1
41 17 38 1
42 21 39 1
@<TRIPOS>SUBSTRUCTURE
1	UNK0	1	GROUP	1 ****	UNK
