# created with PyMOL 2.3.2
@<TRIPOS>MOLECULE
1193
46 49 1                 
SMALL
USER_CHARGES
@<TRIPOS>ATOM
1	   S	-0.962	3.215	-1.610	S.3	1	UNK0	0.000	
2	   C	-1.161	2.429	-0.108	C.2	1	UNK0	0.000	
3	   C	0.045	1.813	0.079	C.2	1	UNK0	0.000	
4	   C	0.980	1.981	-0.890	C.2	1	UNK0	0.000	
5	   C	0.628	2.753	-1.969	C.2	1	UNK0	0.000	
6	   C	1.566	3.011	-3.101	C.3	1	UNK0	0.000	
7	   N	2.937	3.052	-2.724	N.4	1	UNK0	0.000	
8	   C	3.257	2.543	-1.434	C.3	1	UNK0	0.000	
9	   C	2.404	1.415	-0.945	C.3	1	UNK0	0.000	
10	   C	3.783	2.470	-3.759	C.3	1	UNK0	0.000	
11	   C	0.133	1.045	1.359	C.2	1	UNK0	0.000	
12	   O	1.208	0.425	1.647	O.2	1	UNK0	0.000	
13	   N	-0.975	1.012	2.237	N.pl3	1	UNK0	0.000	
14	   C	-2.322	1.168	1.734	C.3	1	UNK0	0.000	
15	   N	-2.250	2.330	0.849	N.pl3	1	UNK0	0.000	
16	   C	-2.643	-0.050	0.945	C.2	1	UNK0	0.000	
17	   C	-3.259	0.049	-0.284	C.2	1	UNK0	0.000	
18	   C	-3.565	-1.068	-1.031	C.2	1	UNK0	0.000	
19	   C	-3.248	-2.327	-0.538	C.2	1	UNK0	0.000	
20	   C	-2.632	-2.456	0.688	C.2	1	UNK0	0.000	
21	   C	-2.343	-1.335	1.401	C.2	1	UNK0	0.000	
22	   O	-2.337	-3.731	1.134	O.3	1	UNK0	0.000	
23	   C	-1.718	-4.054	2.339	C.3	1	UNK0	0.000	
24	   C	-0.338	-3.441	2.436	C.3	1	UNK0	0.000	
25	   O	-3.548	-3.470	-1.275	O.2	1	UNK0	0.000	
26	  Br	-4.416	-0.946	-2.732	Br	1	UNK0	0.000	
27	   H	1.426	2.164	-3.818	 H	1	UNK0	0.000	
28	   H	1.228	3.921	-3.632	 H	1	UNK0	0.000	
29	   H	3.214	4.083	-2.714	 H	1	UNK0	0.000	
30	   H	3.270	3.340	-0.663	 H	1	UNK0	0.000	
31	   H	4.313	2.156	-1.477	 H	1	UNK0	0.000	
32	   H	2.434	0.536	-1.609	 H	1	UNK0	0.000	
33	   H	2.738	1.185	0.080	 H	1	UNK0	0.000	
34	   H	4.716	3.044	-3.908	 H	1	UNK0	0.000	
35	   H	3.206	2.467	-4.719	 H	1	UNK0	0.000	
36	   H	4.077	1.432	-3.511	 H	1	UNK0	0.000	
37	   H	-0.824	0.874	3.261	 H	1	UNK0	0.000	
38	   H	-3.045	1.355	2.534	 H	1	UNK0	0.000	
39	   H	-2.929	3.109	0.847	 H	1	UNK0	0.000	
40	   H	-3.514	1.009	-0.686	 H	1	UNK0	0.000	
41	   H	-1.867	-1.403	2.354	 H	1	UNK0	0.000	
42	   H	-2.371	-3.710	3.169	 H	1	UNK0	0.000	
43	   H	-1.609	-5.153	2.447	 H	1	UNK0	0.000	
44	   H	-0.162	-2.858	1.509	 H	1	UNK0	0.000	
45	   H	-0.232	-2.835	3.363	 H	1	UNK0	0.000	
46	   H	0.451	-4.242	2.422	 H	1	UNK0	0.000	
@<TRIPOS>BOND
1 1 2 1
2 1 5 1
3 2 3 2
4 2 15 1
5 3 4 1
6 3 11 1
7 4 5 2
8 4 9 1
9 5 6 1
10 6 7 1
11 7 8 1
12 7 10 1
13 8 9 1
14 11 12 2
15 11 13 1
16 13 14 1
17 14 15 1
18 14 16 1
19 16 17 2
20 16 21 1
21 17 18 1
22 18 19 2
23 18 26 1
24 19 20 1
25 19 25 1
26 20 21 2
27 20 22 1
28 22 23 1
29 23 24 1
30 6 27 1
31 6 28 1
32 7 29 1
33 8 30 1
34 8 31 1
35 9 32 1
36 9 33 1
37 10 34 1
38 10 35 1
39 10 36 1
40 13 37 1
41 14 38 1
42 15 39 1
43 17 40 1
44 21 41 1
45 23 42 1
46 23 43 1
47 24 44 1
48 24 45 1
49 24 46 1
@<TRIPOS>SUBSTRUCTURE
1	UNK0	1	GROUP	1 ****	UNK
