REMARK  3 active torsions:
REMARK  status: ('A' for Active; 'I' for Inactive)
REMARK    1  A    between atoms: C_14  and  C_16 
REMARK    2  A    between atoms: C_20  and  O_22 
REMARK    3  A    between atoms: O_22  and  C_23 
ROOT
ATOM      1  S   UNK d   1      -0.962   3.215  -1.610  0.00  0.00    -0.074 SA
ATOM      2  C   UNK d   1      -1.161   2.429  -0.108  0.00  0.00     0.088 A 
ATOM      3  C   UNK d   1       0.045   1.813   0.079  0.00  0.00     0.073 A 
ATOM      4  C   UNK d   1       0.980   1.981  -0.890  0.00  0.00    -0.023 A 
ATOM      5  C   UNK d   1       0.628   2.753  -1.969  0.00  0.00     0.018 A 
ATOM      6  C   UNK d   1       1.566   3.011  -3.101  0.00  0.00     0.281 C 
ATOM      7  N   UNK d   1       2.937   3.052  -2.724  0.00  0.00    -0.070 N 
ATOM      8  C   UNK d   1       3.257   2.543  -1.434  0.00  0.00     0.239 C 
ATOM      9  C   UNK d   1       2.404   1.415  -0.945  0.00  0.00     0.068 C 
ATOM     10  C   UNK d   1       3.783   2.470  -3.759  0.00  0.00     0.270 C 
ATOM     11  C   UNK d   1       0.133   1.045   1.359  0.00  0.00     0.256 C 
ATOM     12  O   UNK d   1       1.208   0.425   1.647  0.00  0.00    -0.267 OA
ATOM     13  N   UNK d   1      -0.975   1.012   2.237  0.00  0.00    -0.332 N 
ATOM     14  C   UNK d   1      -2.322   1.168   1.734  0.00  0.00     0.219 C 
ATOM     15  N   UNK d   1      -2.250   2.330   0.849  0.00  0.00    -0.358 N 
ATOM     16  H   UNK d   1       3.214   4.083  -2.714  0.00  0.00     0.279 HD
ATOM     17  H   UNK d   1      -0.824   0.874   3.261  0.00  0.00     0.165 HD
ATOM     18  H   UNK d   1      -2.929   3.109   0.847  0.00  0.00     0.162 HD
ENDROOT
BRANCH  14  19
ATOM     19  C   UNK d   1      -2.643  -0.050   0.945  0.00  0.00    -0.012 A 
ATOM     20  C   UNK d   1      -3.259   0.049  -0.284  0.00  0.00     0.033 A 
ATOM     21  C   UNK d   1      -3.565  -1.068  -1.031  0.00  0.00     0.051 A 
ATOM     22  C   UNK d   1      -3.248  -2.327  -0.538  0.00  0.00     0.157 A 
ATOM     23 Br   UNK d   1      -4.416  -0.946  -2.732  0.00  0.00    -0.048 Br
ATOM     24  C   UNK d   1      -2.632  -2.456   0.688  0.00  0.00     0.107 A 
ATOM     25  O   UNK d   1      -3.548  -3.470  -1.275  0.00  0.00    -0.188 OA
ATOM     26  C   UNK d   1      -2.343  -1.335   1.401  0.00  0.00     0.050 A 
BRANCH  24  27
ATOM     27  O   UNK d   1      -2.337  -3.731   1.134  0.00  0.00    -0.348 OA
BRANCH  27  28
ATOM     28  C   UNK d   1      -1.718  -4.054   2.339  0.00  0.00     0.171 C 
ATOM     29  C   UNK d   1      -0.338  -3.441   2.436  0.00  0.00     0.034 C 
ENDBRANCH  27  28
ENDBRANCH  24  27
ENDBRANCH  14  19
TORSDOF 3
