# created with PyMOL 2.3.2
@<TRIPOS>MOLECULE
1206
40 43 1                 
SMALL
USER_CHARGES
@<TRIPOS>ATOM
1	   S	-0.793	3.812	-1.143	S.3	1	UNK0	0.000	
2	   C	-1.069	4.162	0.613	C.3	1	UNK0	0.000	
3	   C	-0.140	3.142	1.213	C.3	1	UNK0	0.000	
4	   N	-0.064	1.950	0.424	N.pl3	1	UNK0	0.000	
5	   C	-0.400	2.088	-0.869	C.2	1	UNK0	0.000	
6	   N	-0.310	0.900	-1.478	N.pl3	1	UNK0	0.000	
7	   C	0.090	-0.019	-0.571	C.2	1	UNK0	0.000	
8	   C	0.251	0.626	0.632	C.2	1	UNK0	0.000	
9	   C	0.663	-0.021	1.855	C.2	1	UNK0	0.000	
10	   C	0.732	-1.425	1.863	C.2	1	UNK0	0.000	
11	   C	1.154	-2.102	2.978	C.2	1	UNK0	0.000	
12	   C	1.530	-1.471	4.137	C.2	1	UNK0	0.000	
13	   C	1.472	-0.097	4.155	C.2	1	UNK0	0.000	
14	   C	1.042	0.596	3.017	C.2	1	UNK0	0.000	
15	   N	1.953	-2.242	5.245	N.pl3	1	UNK0	0.000	
16	   O	1.988	-3.476	5.181	O.2	1	UNK0	0.000	
17	   O	2.325	-1.612	6.393	O.2	1	UNK0	0.000	
18	   C	-0.583	0.625	-2.847	C.2	1	UNK0	0.000	
19	   C	0.318	-0.031	-3.653	C.2	1	UNK0	0.000	
20	   C	0.078	-0.310	-4.982	C.2	1	UNK0	0.000	
21	   C	-1.114	0.079	-5.552	C.2	1	UNK0	0.000	
22	   C	-2.045	0.742	-4.772	C.2	1	UNK0	0.000	
23	   C	-1.780	1.008	-3.444	C.2	1	UNK0	0.000	
24	  Br	-1.482	-0.290	-7.393	Br	1	UNK0	0.000	
25	   C	-2.476	3.808	1.030	C.3	1	UNK0	0.000	
26	   H	-0.784	5.187	0.890	 H	1	UNK0	0.000	
27	   H	0.861	3.626	1.294	 H	1	UNK0	0.000	
28	   H	-0.522	2.892	2.241	 H	1	UNK0	0.000	
29	   H	0.254	-1.092	-0.783	 H	1	UNK0	0.000	
30	   H	0.442	-1.977	0.973	 H	1	UNK0	0.000	
31	   H	1.189	-3.191	2.932	 H	1	UNK0	0.000	
32	   H	1.758	0.449	5.046	 H	1	UNK0	0.000	
33	   H	1.048	1.657	3.094	 H	1	UNK0	0.000	
34	   H	1.269	-0.342	-3.200	 H	1	UNK0	0.000	
35	   H	0.842	-0.830	-5.540	 H	1	UNK0	0.000	
36	   H	-2.995	1.056	-5.209	 H	1	UNK0	0.000	
37	   H	-2.479	1.525	-2.792	 H	1	UNK0	0.000	
38	   H	-3.214	4.532	0.676	 H	1	UNK0	0.000	
39	   H	-2.691	2.803	0.600	 H	1	UNK0	0.000	
40	   H	-2.510	3.757	2.134	 H	1	UNK0	0.000	
@<TRIPOS>BOND
1 1 2 1
2 1 5 1
3 2 3 1
4 2 25 1
5 3 4 1
6 4 5 1
7 4 8 1
8 5 6 2
9 6 7 1
10 6 18 1
11 7 8 2
12 8 9 1
13 9 10 2
14 9 14 1
15 10 11 1
16 11 12 2
17 12 13 1
18 12 15 1
19 13 14 2
20 15 16 2
21 15 17 1
22 18 19 2
23 18 23 1
24 19 20 1
25 20 21 2
26 21 22 1
27 21 24 1
28 22 23 2
29 2 26 1
30 3 27 1
31 3 28 1
32 7 29 1
33 10 30 1
34 11 31 1
35 13 32 1
36 14 33 1
37 19 34 1
38 20 35 1
39 22 36 1
40 23 37 1
41 25 38 1
42 25 39 1
43 25 40 1
@<TRIPOS>SUBSTRUCTURE
1	UNK0	1	GROUP	1 ****	UNK
