REMARK  3 active torsions:
REMARK  status: ('A' for Active; 'I' for Inactive)
REMARK    1  A    between atoms: N_6  and  C_18 
REMARK    2  A    between atoms: C_8  and  C_9 
REMARK    3  A    between atoms: C_12  and  N_15 
ROOT
ATOM      1  S   UNK d   1      -0.793   3.812  -1.143  0.00  0.00    -0.087 SA
ATOM      2  C   UNK d   1      -1.069   4.162   0.613  0.00  0.00     0.069 C 
ATOM      3  C   UNK d   1      -0.140   3.142   1.213  0.00  0.00     0.146 C 
ATOM      4  N   UNK d   1      -0.064   1.950   0.424  0.00  0.00    -0.324 N 
ATOM      5  C   UNK d   1      -0.400   2.088  -0.869  0.00  0.00     0.154 A 
ATOM      6  N   UNK d   1      -0.310   0.900  -1.478  0.00  0.00    -0.300 N 
ATOM      7  C   UNK d   1       0.090  -0.019  -0.571  0.00  0.00     0.130 A 
ATOM      8  C   UNK d   1       0.251   0.626   0.632  0.00  0.00     0.062 A 
ATOM      9  C   UNK d   1      -2.476   3.808   1.030  0.00  0.00     0.023 C 
ENDROOT
BRANCH   8  10
ATOM     10  C   UNK d   1       0.663  -0.021   1.855  0.00  0.00    -0.008 A 
ATOM     11  C   UNK d   1       0.732  -1.425   1.863  0.00  0.00     0.016 A 
ATOM     12  C   UNK d   1       1.154  -2.102   2.978  0.00  0.00     0.037 A 
ATOM     13  C   UNK d   1       1.530  -1.471   4.137  0.00  0.00     0.102 A 
ATOM     14  C   UNK d   1       1.472  -0.097   4.155  0.00  0.00     0.037 A 
ATOM     15  C   UNK d   1       1.042   0.596   3.017  0.00  0.00     0.016 A 
BRANCH  13  16
ATOM     16  N   UNK d   1       1.953  -2.242   5.245  0.00  0.00    -0.116 N 
ATOM     17  O   UNK d   1       1.988  -3.476   5.181  0.00  0.00    -0.532 OA
ATOM     18  O   UNK d   1       2.325  -1.612   6.393  0.00  0.00    -0.532 OA
ENDBRANCH  13  16
ENDBRANCH   8  10
BRANCH   6  19
ATOM     19  C   UNK d   1      -0.583   0.625  -2.847  0.00  0.00     0.041 A 
ATOM     20  C   UNK d   1       0.318  -0.031  -3.653  0.00  0.00     0.031 A 
ATOM     21  C   UNK d   1       0.078  -0.310  -4.982  0.00  0.00     0.021 A 
ATOM     22  C   UNK d   1      -1.114   0.079  -5.552  0.00  0.00     0.011 A 
ATOM     23  C   UNK d   1      -2.045   0.742  -4.772  0.00  0.00     0.021 A 
ATOM     24 Br   UNK d   1      -1.482  -0.290  -7.393  0.00  0.00    -0.051 Br
ATOM     25  C   UNK d   1      -1.780   1.008  -3.444  0.00  0.00     0.031 A 
ENDBRANCH   6  19
TORSDOF 3
