# created with PyMOL 2.3.2
@<TRIPOS>MOLECULE
1209
42 45 1                 
SMALL
USER_CHARGES
@<TRIPOS>ATOM
1	   S	-3.382	-1.946	-0.594	S.3	1	UNK0	0.000	
2	   C	-4.447	-1.712	-2.045	C.3	1	UNK0	0.000	
3	   C	-3.589	-1.099	-3.137	C.3	1	UNK0	0.000	
4	   C	-2.255	-1.812	-3.215	C.3	1	UNK0	0.000	
5	   N	-1.389	-1.185	-2.230	N.pl3	1	UNK0	0.000	
6	   C	-1.811	-1.185	-0.963	C.2	1	UNK0	0.000	
7	   N	-0.866	-0.552	-0.183	N.pl3	1	UNK0	0.000	
8	   C	0.134	-0.162	-0.956	C.2	1	UNK0	0.000	
9	   C	-0.213	-0.569	-2.242	C.2	1	UNK0	0.000	
10	   C	1.367	0.541	-0.639	C.2	1	UNK0	0.000	
11	   C	2.272	0.836	-1.669	C.2	1	UNK0	0.000	
12	   C	3.447	1.494	-1.432	C.2	1	UNK0	0.000	
13	   C	3.828	1.914	-0.178	C.2	1	UNK0	0.000	
14	   C	2.950	1.630	0.836	C.2	1	UNK0	0.000	
15	   C	1.740	0.956	0.616	C.2	1	UNK0	0.000	
16	   O	5.029	2.580	0.023	O.3	1	UNK0	0.000	
17	   C	5.892	2.842	-1.068	C.3	1	UNK0	0.000	
18	   C	-1.034	-0.395	1.224	C.2	1	UNK0	0.000	
19	   C	-1.678	0.715	1.742	C.2	1	UNK0	0.000	
20	   C	-1.883	0.882	3.097	C.2	1	UNK0	0.000	
21	   C	-1.422	-0.102	3.949	C.2	1	UNK0	0.000	
22	   C	-0.781	-1.204	3.424	C.2	1	UNK0	0.000	
23	   C	-0.566	-1.391	2.076	C.2	1	UNK0	0.000	
24	  Br	-1.660	0.043	5.850	Br	1	UNK0	0.000	
25	   H	-4.825	-2.687	-2.403	 H	1	UNK0	0.000	
26	   H	-5.260	-1.030	-1.737	 H	1	UNK0	0.000	
27	   H	-4.119	-1.113	-4.112	 H	1	UNK0	0.000	
28	   H	-3.435	-0.029	-2.871	 H	1	UNK0	0.000	
29	   H	-2.432	-2.861	-2.839	 H	1	UNK0	0.000	
30	   H	-1.827	-1.802	-4.221	 H	1	UNK0	0.000	
31	   H	0.349	-0.435	-3.162	 H	1	UNK0	0.000	
32	   H	2.018	0.527	-2.670	 H	1	UNK0	0.000	
33	   H	4.153	1.722	-2.248	 H	1	UNK0	0.000	
34	   H	3.185	1.929	1.843	 H	1	UNK0	0.000	
35	   H	1.096	0.763	1.447	 H	1	UNK0	0.000	
36	   H	6.774	3.413	-0.784	 H	1	UNK0	0.000	
37	   H	5.299	3.367	-1.874	 H	1	UNK0	0.000	
38	   H	6.206	1.885	-1.512	 H	1	UNK0	0.000	
39	   H	-2.056	1.511	1.105	 H	1	UNK0	0.000	
40	   H	-2.383	1.740	3.521	 H	1	UNK0	0.000	
41	   H	-0.404	-2.003	4.078	 H	1	UNK0	0.000	
42	   H	-0.061	-2.263	1.680	 H	1	UNK0	0.000	
@<TRIPOS>BOND
1 1 2 1
2 1 6 1
3 2 3 1
4 3 4 1
5 4 5 1
6 5 6 2
7 5 9 1
8 6 7 1
9 7 8 1
10 7 18 1
11 8 9 2
12 8 10 1
13 10 11 2
14 10 15 1
15 11 12 1
16 12 13 2
17 13 14 1
18 13 16 1
19 14 15 2
20 16 17 1
21 18 19 2
22 18 23 1
23 19 20 1
24 20 21 2
25 21 22 1
26 21 24 1
27 22 23 2
28 2 25 1
29 2 26 1
30 3 27 1
31 3 28 1
32 4 29 1
33 4 30 1
34 9 31 1
35 11 32 1
36 12 33 1
37 14 34 1
38 15 35 1
39 17 36 1
40 17 37 1
41 17 38 1
42 19 39 1
43 20 40 1
44 22 41 1
45 23 42 1
@<TRIPOS>SUBSTRUCTURE
1	UNK0	1	GROUP	1 ****	UNK
