REMARK  3 active torsions:
REMARK  status: ('A' for Active; 'I' for Inactive)
REMARK    1  A    between atoms: N_7  and  C_18 
REMARK    2  A    between atoms: C_8  and  C_10 
REMARK    3  A    between atoms: C_13  and  O_16 
ROOT
ATOM      1  S   UNK d   1      -3.382  -1.946  -0.594  0.00  0.00    -0.093 SA
ATOM      2  C   UNK d   1      -4.447  -1.712  -2.045  0.00  0.00     0.084 C 
ATOM      3  C   UNK d   1      -3.589  -1.099  -3.137  0.00  0.00     0.031 C 
ATOM      4  C   UNK d   1      -2.255  -1.812  -3.215  0.00  0.00     0.131 C 
ATOM      5  N   UNK d   1      -1.389  -1.185  -2.230  0.00  0.00    -0.335 N 
ATOM      6  C   UNK d   1      -1.811  -1.185  -0.963  0.00  0.00     0.154 A 
ATOM      7  N   UNK d   1      -0.866  -0.552  -0.183  0.00  0.00    -0.290 N 
ATOM      8  C   UNK d   1       0.134  -0.162  -0.956  0.00  0.00     0.067 A 
ATOM      9  C   UNK d   1      -0.213  -0.569  -2.242  0.00  0.00     0.124 A 
ENDROOT
BRANCH   8  10
ATOM     10  C   UNK d   1       1.367   0.541  -0.639  0.00  0.00    -0.007 A 
ATOM     11  C   UNK d   1       2.272   0.836  -1.669  0.00  0.00     0.016 A 
ATOM     12  C   UNK d   1       3.447   1.494  -1.432  0.00  0.00     0.037 A 
ATOM     13  C   UNK d   1       3.828   1.914  -0.178  0.00  0.00     0.068 A 
ATOM     14  C   UNK d   1       2.950   1.630   0.836  0.00  0.00     0.037 A 
ATOM     15  C   UNK d   1       1.740   0.956   0.616  0.00  0.00     0.016 A 
BRANCH  13  16
ATOM     16  O   UNK d   1       5.029   2.580   0.023  0.00  0.00    -0.356 OA
ATOM     17  C   UNK d   1       5.892   2.842  -1.068  0.00  0.00     0.210 C 
ENDBRANCH  13  16
ENDBRANCH   8  10
BRANCH   7  18
ATOM     18  C   UNK d   1      -1.034  -0.395   1.224  0.00  0.00     0.042 A 
ATOM     19  C   UNK d   1      -1.678   0.715   1.742  0.00  0.00     0.031 A 
ATOM     20  C   UNK d   1      -1.883   0.882   3.097  0.00  0.00     0.021 A 
ATOM     21  C   UNK d   1      -1.422  -0.102   3.949  0.00  0.00     0.011 A 
ATOM     22  C   UNK d   1      -0.781  -1.204   3.424  0.00  0.00     0.021 A 
ATOM     23 Br   UNK d   1      -1.660   0.043   5.850  0.00  0.00    -0.051 Br
ATOM     24  C   UNK d   1      -0.566  -1.391   2.076  0.00  0.00     0.031 A 
ENDBRANCH   7  18
TORSDOF 3
