# created with PyMOL 2.3.2
@<TRIPOS>MOLECULE
1211
45 48 1                 
SMALL
USER_CHARGES
@<TRIPOS>ATOM
1	   S	0.607	-1.865	0.983	S.3	1	UNK0	0.000	
2	   C	0.378	-3.512	0.206	C.3	1	UNK0	0.000	
3	   C	1.013	-3.369	-1.179	C.3	1	UNK0	0.000	
4	   C	0.162	-2.388	-1.979	C.3	1	UNK0	0.000	
5	   N	0.601	-1.059	-1.632	N.pl3	1	UNK0	0.000	
6	   C	0.822	-0.733	-0.385	C.2	1	UNK0	0.000	
7	   N	1.265	0.650	-0.374	N.pl3	1	UNK0	0.000	
8	   C	0.461	1.215	-1.436	C.3	1	UNK0	0.000	
9	   C	0.896	0.109	-2.468	C.3	1	UNK0	0.000	
10	   O	0.815	2.458	-1.855	O.3	1	UNK0	0.000	
11	   C	-0.962	1.021	-1.135	C.2	1	UNK0	0.000	
12	   C	-1.478	1.085	0.148	C.2	1	UNK0	0.000	
13	   C	-2.846	0.855	0.360	C.2	1	UNK0	0.000	
14	   C	-3.693	0.569	-0.643	C.2	1	UNK0	0.000	
15	   C	-3.201	0.499	-1.963	C.2	1	UNK0	0.000	
16	   C	-1.847	0.732	-2.130	C.2	1	UNK0	0.000	
17	   O	-5.081	0.328	-0.470	O.3	1	UNK0	0.000	
18	   C	-5.659	0.382	0.817	C.3	1	UNK0	0.000	
19	   C	2.278	1.211	0.430	C.2	1	UNK0	0.000	
20	   C	3.599	1.210	-0.081	C.2	1	UNK0	0.000	
21	   C	4.667	1.690	0.657	C.2	1	UNK0	0.000	
22	   C	4.487	2.186	1.919	C.2	1	UNK0	0.000	
23	   C	3.212	2.200	2.445	C.2	1	UNK0	0.000	
24	   C	2.130	1.712	1.687	C.2	1	UNK0	0.000	
25	  Br	5.932	2.840	2.983	Br	1	UNK0	0.000	
26	   H	0.969	-4.221	0.812	 H	1	UNK0	0.000	
27	   H	-0.688	-3.764	0.128	 H	1	UNK0	0.000	
28	   H	1.143	-4.335	-1.668	 H	1	UNK0	0.000	
29	   H	2.030	-2.916	-0.991	 H	1	UNK0	0.000	
30	   H	0.330	-2.575	-3.064	 H	1	UNK0	0.000	
31	   H	-0.915	-2.517	-1.817	 H	1	UNK0	0.000	
32	   H	0.358	0.167	-3.386	 H	1	UNK0	0.000	
33	   H	1.998	0.228	-2.518	 H	1	UNK0	0.000	
34	   H	0.048	2.848	-2.377	 H	1	UNK0	0.000	
35	   H	-0.835	1.306	0.971	 H	1	UNK0	0.000	
36	   H	-3.202	0.916	1.382	 H	1	UNK0	0.000	
37	   H	-3.859	0.268	-2.769	 H	1	UNK0	0.000	
38	   H	-1.508	0.676	-3.157	 H	1	UNK0	0.000	
39	   H	-6.749	0.502	0.695	 H	1	UNK0	0.000	
40	   H	-5.315	1.239	1.428	 H	1	UNK0	0.000	
41	   H	-5.447	-0.557	1.406	 H	1	UNK0	0.000	
42	   H	3.778	0.828	-1.062	 H	1	UNK0	0.000	
43	   H	5.678	1.681	0.250	 H	1	UNK0	0.000	
44	   H	3.052	2.579	3.437	 H	1	UNK0	0.000	
45	   H	1.135	1.729	2.130	 H	1	UNK0	0.000	
@<TRIPOS>BOND
1 1 2 1
2 1 6 1
3 2 3 1
4 3 4 1
5 4 5 1
6 5 6 2
7 5 9 1
8 6 7 1
9 7 8 1
10 7 19 1
11 8 9 1
12 8 10 1
13 8 11 1
14 11 12 2
15 11 16 1
16 12 13 1
17 13 14 2
18 14 15 1
19 14 17 1
20 15 16 2
21 17 18 1
22 19 20 2
23 19 24 1
24 20 21 1
25 21 22 2
26 22 23 1
27 22 25 1
28 23 24 2
29 2 26 1
30 2 27 1
31 3 28 1
32 3 29 1
33 4 30 1
34 4 31 1
35 9 32 1
36 9 33 1
37 10 34 1
38 12 35 1
39 13 36 1
40 15 37 1
41 16 38 1
42 18 39 1
43 18 40 1
44 18 41 1
45 20 42 1
46 21 43 1
47 23 44 1
48 24 45 1
@<TRIPOS>SUBSTRUCTURE
1	UNK0	1	GROUP	1 ****	UNK
