REMARK  4 active torsions:
REMARK  status: ('A' for Active; 'I' for Inactive)
REMARK    1  A    between atoms: N_7  and  C_19 
REMARK    2  A    between atoms: C_8  and  O_10 
REMARK    3  A    between atoms: C_8  and  C_11 
REMARK    4  A    between atoms: C_14  and  O_17 
ROOT
ATOM      1  S   UNK d   1       0.607  -1.865   0.983  0.00  0.00    -0.094 SA
ATOM      2  C   UNK d   1       0.378  -3.512   0.206  0.00  0.00     0.084 C 
ATOM      3  C   UNK d   1       1.013  -3.369  -1.179  0.00  0.00     0.030 C 
ATOM      4  C   UNK d   1       0.162  -2.388  -1.979  0.00  0.00     0.126 C 
ATOM      5  N   UNK d   1       0.601  -1.059  -1.632  0.00  0.00    -0.356 N 
ATOM      6  C   UNK d   1       0.822  -0.733  -0.385  0.00  0.00     0.148 C 
ATOM      7  N   UNK d   1       1.265   0.650  -0.374  0.00  0.00    -0.289 N 
ATOM      8  C   UNK d   1       0.461   1.215  -1.436  0.00  0.00     0.185 C 
ATOM      9  C   UNK d   1       0.896   0.109  -2.468  0.00  0.00     0.192 C 
ENDROOT
BRANCH   8  10
ATOM     10  O   UNK d   1       0.815   2.458  -1.855  0.00  0.00    -0.365 OA
ATOM     11  H   UNK d   1       0.048   2.848  -2.377  0.00  0.00     0.213 HD
ENDBRANCH   8  10
BRANCH   8  12
ATOM     12  C   UNK d   1      -0.962   1.021  -1.135  0.00  0.00    -0.001 A 
ATOM     13  C   UNK d   1      -1.478   1.085   0.148  0.00  0.00     0.015 A 
ATOM     14  C   UNK d   1      -2.846   0.855   0.360  0.00  0.00     0.037 A 
ATOM     15  C   UNK d   1      -3.693   0.569  -0.643  0.00  0.00     0.068 A 
ATOM     16  C   UNK d   1      -3.201   0.499  -1.963  0.00  0.00     0.037 A 
ATOM     17  C   UNK d   1      -1.847   0.732  -2.130  0.00  0.00     0.015 A 
BRANCH  15  18
ATOM     18  O   UNK d   1      -5.081   0.328  -0.470  0.00  0.00    -0.356 OA
ATOM     19  C   UNK d   1      -5.659   0.382   0.817  0.00  0.00     0.210 C 
ENDBRANCH  15  18
ENDBRANCH   8  12
BRANCH   7  20
ATOM     20  C   UNK d   1       2.278   1.211   0.430  0.00  0.00     0.040 A 
ATOM     21  C   UNK d   1       3.599   1.210  -0.081  0.00  0.00     0.031 A 
ATOM     22  C   UNK d   1       4.667   1.690   0.657  0.00  0.00     0.021 A 
ATOM     23  C   UNK d   1       4.487   2.186   1.919  0.00  0.00     0.011 A 
ATOM     24  C   UNK d   1       3.212   2.200   2.445  0.00  0.00     0.021 A 
ATOM     25 Br   UNK d   1       5.932   2.840   2.983  0.00  0.00    -0.051 Br
ATOM     26  C   UNK d   1       2.130   1.712   1.687  0.00  0.00     0.031 A 
ENDBRANCH   7  20
TORSDOF 4
