REMARK  5 active torsions:
REMARK  status: ('A' for Active; 'I' for Inactive)
REMARK    1  A    between atoms: C_6  and  O_20 
REMARK    2  A    between atoms: C_6  and  C_21 
REMARK    3  A    between atoms: N_8  and  C_10 
REMARK    4  A    between atoms: C_11  and  O_18 
REMARK    5  A    between atoms: C_14  and  O_16 
ROOT
ATOM      1  S   UNK d   1       0.715  -0.159   1.999  0.00  0.00    -0.094 SA
ATOM      2  C   UNK d   1       0.565   0.765   3.508  0.00  0.00     0.084 C 
ATOM      3  C   UNK d   1      -0.289   1.994   3.269  0.00  0.00     0.030 C 
ATOM      4  C   UNK d   1       0.372   2.867   2.217  0.00  0.00     0.129 C 
ATOM      5  N   UNK d   1       0.196   2.280   0.908  0.00  0.00    -0.324 N 
ATOM      6  C   UNK d   1      -0.366   2.793  -0.299  0.00  0.00     0.181 C 
ATOM      7  C   UNK d   1       0.514   2.079  -1.313  0.00  0.00     0.198 C 
ATOM      8  N   UNK d   1       0.734   0.788  -0.701  0.00  0.00    -0.320 N 
ATOM      9  C   UNK d   1       0.596   0.940   0.570  0.00  0.00     0.148 C 
ENDROOT
BRANCH   8  10
ATOM     10  C   UNK d   1       1.010  -0.442  -1.355  0.00  0.00     0.072 A 
ATOM     11  C   UNK d   1       1.280  -0.387  -2.716  0.00  0.00     0.095 A 
ATOM     12  C   UNK d   1       1.536  -1.559  -3.435  0.00  0.00     0.042 A 
ATOM     13  C   UNK d   1       1.517  -2.780  -2.784  0.00  0.00     0.039 A 
ATOM     14  C   UNK d   1       1.254  -2.871  -1.438  0.00  0.00     0.070 A 
ATOM     15  C   UNK d   1       1.005  -1.655  -0.772  0.00  0.00     0.069 A 
BRANCH  11  16
ATOM     16  O   UNK d   1       1.295   0.831  -3.361  0.00  0.00    -0.354 OA
ATOM     17  C   UNK d   1       1.550   1.020  -4.733  0.00  0.00     0.210 C 
ENDBRANCH  11  16
BRANCH  14  18
ATOM     18  O   UNK d   1       1.221  -4.060  -0.730  0.00  0.00    -0.356 OA
ATOM     19  C   UNK d   1       1.442  -5.337  -1.257  0.00  0.00     0.210 C 
ENDBRANCH  14  18
ENDBRANCH   8  10
BRANCH   6  20
ATOM     20  O   UNK d   1      -0.189   4.171  -0.367  0.00  0.00    -0.365 OA
ATOM     21  H   UNK d   1       0.481   4.461   0.293  0.00  0.00     0.213 HD
ENDBRANCH   6  20
BRANCH   6  22
ATOM     22  C   UNK d   1      -1.763   2.402  -0.571  0.00  0.00    -0.002 A 
ATOM     23  C   UNK d   1      -2.333   1.201  -0.288  0.00  0.00     0.013 A 
ATOM     24  C   UNK d   1      -3.660   0.925  -0.624  0.00  0.00     0.020 A 
ATOM     25  C   UNK d   1      -4.446   1.863  -1.260  0.00  0.00     0.011 A 
ATOM     26  C   UNK d   1      -3.885   3.069  -1.548  0.00  0.00     0.020 A 
ATOM     27 Br   UNK d   1      -6.265   1.467  -1.721  0.00  0.00    -0.051 Br
ATOM     28  C   UNK d   1      -2.586   3.339  -1.219  0.00  0.00     0.013 A 
ENDBRANCH   6  22
TORSDOF 5
