REMARK  4 active torsions:
REMARK  status: ('A' for Active; 'I' for Inactive)
REMARK    1  A    between atoms: C_6  and  O_17 
REMARK    2  A    between atoms: C_6  and  C_18 
REMARK    3  A    between atoms: N_8  and  C_10 
REMARK    4  A    between atoms: C_20  and  N_24 
ROOT
ATOM      1  S   UNK d   1      -1.860  -1.335   0.273  0.00  0.00    -0.094 SA
ATOM      2  C   UNK d   1      -2.606  -1.412   1.954  0.00  0.00     0.084 C 
ATOM      3  C   UNK d   1      -1.982  -0.333   2.822  0.00  0.00     0.030 C 
ATOM      4  C   UNK d   1      -0.484  -0.307   2.662  0.00  0.00     0.129 C 
ATOM      5  N   UNK d   1      -0.134   0.416   1.481  0.00  0.00    -0.324 N 
ATOM      6  C   UNK d   1       0.861   1.401   1.099  0.00  0.00     0.181 C 
ATOM      7  C   UNK d   1       0.172   2.169  -0.015  0.00  0.00     0.198 C 
ATOM      8  N   UNK d   1      -0.742   1.142  -0.554  0.00  0.00    -0.323 N 
ATOM      9  C   UNK d   1      -0.899   0.197   0.285  0.00  0.00     0.147 C 
ENDROOT
BRANCH   6  10
ATOM     10  O   UNK d   1       1.225   2.218   2.151  0.00  0.00    -0.365 OA
ATOM     11  H   UNK d   1       0.892   3.126   2.120  0.00  0.00     0.213 HD
ENDBRANCH   6  10
BRANCH   6  12
ATOM     12  C   UNK d   1       2.072   0.764   0.529  0.00  0.00     0.001 A 
ATOM     13  C   UNK d   1       2.042  -0.570   0.173  0.00  0.00     0.048 A 
ATOM     14  C   UNK d   1       3.204  -1.128  -0.360  0.00  0.00     0.103 A 
ATOM     15  C   UNK d   1       4.333  -0.384  -0.525  0.00  0.00     0.036 A 
ATOM     16  C   UNK d   1       4.377   0.953  -0.174  0.00  0.00     0.003 A 
ATOM     17  C   UNK d   1       3.207   1.506   0.360  0.00  0.00     0.012 A 
BRANCH  14  18
ATOM     18  N   UNK d   1       3.183  -2.497  -0.729  0.00  0.00    -0.116 N 
ATOM     19  O   UNK d   1       2.164  -3.200  -0.588  0.00  0.00    -0.532 OA
ATOM     20  O   UNK d   1       4.286  -3.105  -1.258  0.00  0.00    -0.532 OA
ENDBRANCH  14  18
ENDBRANCH   6  12
BRANCH   8  21
ATOM     21  C   UNK d   1      -1.369   1.222  -1.831  0.00  0.00     0.036 A 
ATOM     22  C   UNK d   1      -1.902   0.182  -2.534  0.00  0.00     0.031 A 
ATOM     23  C   UNK d   1      -2.517   0.335  -3.769  0.00  0.00     0.021 A 
ATOM     24  C   UNK d   1      -2.606   1.590  -4.336  0.00  0.00     0.011 A 
ATOM     25  C   UNK d   1      -2.073   2.674  -3.648  0.00  0.00     0.021 A 
ATOM     26 Br   UNK d   1      -3.429   1.902  -6.035  0.00  0.00    -0.051 Br
ATOM     27  C   UNK d   1      -1.462   2.496  -2.413  0.00  0.00     0.031 A 
ENDBRANCH   8  21
TORSDOF 4
