REMARK  4 active torsions:
REMARK  status: ('A' for Active; 'I' for Inactive)
REMARK    1  A    between atoms: C_6  and  O_17 
REMARK    2  A    between atoms: C_6  and  C_18 
REMARK    3  A    between atoms: N_8  and  C_10 
REMARK    4  A    between atoms: C_21  and  N_24 
ROOT
ATOM      1  S   UNK d   1      -0.709   2.483   2.445  0.00  0.00    -0.094 SA
ATOM      2  C   UNK d   1       0.867   2.855   3.315  0.00  0.00     0.084 C 
ATOM      3  C   UNK d   1       1.779   1.704   3.395  0.00  0.00     0.030 C 
ATOM      4  C   UNK d   1       1.291   0.362   3.031  0.00  0.00     0.129 C 
ATOM      5  N   UNK d   1       0.600   0.208   1.817  0.00  0.00    -0.324 N 
ATOM      6  C   UNK d   1       0.436  -0.871   0.891  0.00  0.00     0.181 C 
ATOM      7  C   UNK d   1       0.354  -0.110  -0.414  0.00  0.00     0.198 C 
ATOM      8  N   UNK d   1      -0.338   1.095  -0.009  0.00  0.00    -0.323 N 
ATOM      9  C   UNK d   1      -0.190   1.268   1.219  0.00  0.00     0.147 C 
ENDROOT
BRANCH   6  10
ATOM     10  O   UNK d   1      -0.818  -1.456   1.085  0.00  0.00    -0.365 OA
ATOM     11  H   UNK d   1      -1.204  -1.670   0.220  0.00  0.00     0.213 HD
ENDBRANCH   6  10
BRANCH   6  12
ATOM     12  C   UNK d   1       1.510  -1.882   0.870  0.00  0.00    -0.001 A 
ATOM     13  C   UNK d   1       1.126  -3.217   0.787  0.00  0.00     0.014 A 
ATOM     14  C   UNK d   1       2.055  -4.233   0.758  0.00  0.00     0.037 A 
ATOM     15  C   UNK d   1       3.414  -3.978   0.809  0.00  0.00     0.102 A 
ATOM     16  C   UNK d   1       3.801  -2.654   0.889  0.00  0.00     0.037 A 
ATOM     17  C   UNK d   1       2.855  -1.624   0.919  0.00  0.00     0.014 A 
BRANCH  15  18
ATOM     18  N   UNK d   1       4.349  -5.040   0.775  0.00  0.00    -0.116 N 
ATOM     19  O   UNK d   1       4.028  -6.231   0.693  0.00  0.00    -0.532 OA
ATOM     20  O   UNK d   1       5.688  -4.748   0.830  0.00  0.00    -0.532 OA
ENDBRANCH  15  18
ENDBRANCH   6  12
BRANCH   8  21
ATOM     21  C   UNK d   1      -1.090   1.943  -0.885  0.00  0.00     0.036 A 
ATOM     22  C   UNK d   1      -1.466   1.446  -2.125  0.00  0.00     0.031 A 
ATOM     23  C   UNK d   1      -2.180   2.220  -3.037  0.00  0.00     0.021 A 
ATOM     24  C   UNK d   1      -2.535   3.515  -2.731  0.00  0.00     0.011 A 
ATOM     25  C   UNK d   1      -2.170   4.021  -1.507  0.00  0.00     0.021 A 
ATOM     26 Br   UNK d   1      -3.506   4.584  -4.002  0.00  0.00    -0.051 Br
ATOM     27  C   UNK d   1      -1.451   3.220  -0.611  0.00  0.00     0.031 A 
ENDBRANCH   8  21
TORSDOF 4
