REMARK  3 active torsions:
REMARK  status: ('A' for Active; 'I' for Inactive)
REMARK    1  A    between atoms: C_6  and  O_17 
REMARK    2  A    between atoms: C_6  and  C_18 
REMARK    3  A    between atoms: N_8  and  C_10 
ROOT
ATOM      1  S   UNK d   1       2.164  -0.541  -1.434  0.00  0.00    -0.094 SA
ATOM      2  C   UNK d   1       2.424  -1.084  -3.182  0.00  0.00     0.084 C 
ATOM      3  C   UNK d   1       1.176  -1.737  -3.717  0.00  0.00     0.030 C 
ATOM      4  C   UNK d   1       0.329  -2.401  -2.653  0.00  0.00     0.129 C 
ATOM      5  N   UNK d   1      -0.347  -1.500  -1.804  0.00  0.00    -0.324 N 
ATOM      6  C   UNK d   1      -1.633  -1.340  -1.103  0.00  0.00     0.181 C 
ATOM      7  C   UNK d   1      -1.774   0.154  -1.272  0.00  0.00     0.198 C 
ATOM      8  N   UNK d   1      -0.416   0.603  -1.003  0.00  0.00    -0.323 N 
ATOM      9  C   UNK d   1       0.358  -0.299  -1.384  0.00  0.00     0.147 C 
ENDROOT
BRANCH   6  10
ATOM     10  O   UNK d   1      -2.661  -1.992  -1.712  0.00  0.00    -0.365 OA
ATOM     11  H   UNK d   1      -2.503  -2.943  -1.935  0.00  0.00     0.213 HD
ENDBRANCH   6  10
BRANCH   6  12
ATOM     12  C   UNK d   1      -1.485  -1.667   0.354  0.00  0.00    -0.002 A 
ATOM     13  C   UNK d   1      -0.568  -2.586   0.827  0.00  0.00     0.012 A 
ATOM     14  C   UNK d   1      -0.491  -2.825   2.193  0.00  0.00     0.001 A 
ATOM     15  C   UNK d   1      -1.300  -2.175   3.116  0.00  0.00     0.000 A 
ATOM     16  C   UNK d   1      -2.210  -1.263   2.655  0.00  0.00     0.001 A 
ATOM     17  C   UNK d   1      -2.292  -1.023   1.284  0.00  0.00     0.012 A 
ENDBRANCH   6  12
BRANCH   8  18
ATOM     18  C   UNK d   1      -0.058   1.840  -0.350  0.00  0.00     0.036 A 
ATOM     19  C   UNK d   1       1.191   2.172   0.071  0.00  0.00     0.031 A 
ATOM     20  C   UNK d   1       1.484   3.355   0.738  0.00  0.00     0.021 A 
ATOM     21  C   UNK d   1       0.480   4.250   0.998  0.00  0.00     0.011 A 
ATOM     22  C   UNK d   1      -0.791   3.917   0.571  0.00  0.00     0.021 A 
ATOM     23 Br   UNK d   1       0.789   5.907   1.917  0.00  0.00    -0.051 Br
ATOM     24  C   UNK d   1      -1.077   2.752  -0.085  0.00  0.00     0.031 A 
ENDBRANCH   8  18
TORSDOF 3
