REMARK  4 active torsions:
REMARK  status: ('A' for Active; 'I' for Inactive)
REMARK    1  A    between atoms: C_6  and  O_18 
REMARK    2  A    between atoms: C_6  and  C_19 
REMARK    3  A    between atoms: N_8  and  C_10 
REMARK    4  A    between atoms: C_13  and  O_16 
ROOT
ATOM      1  S   UNK d   1      -1.098   1.163  -1.656  0.00  0.00    -0.094 SA
ATOM      2  C   UNK d   1      -1.987   2.769  -1.776  0.00  0.00     0.084 C 
ATOM      3  C   UNK d   1      -2.830   2.854  -0.512  0.00  0.00     0.030 C 
ATOM      4  C   UNK d   1      -1.989   3.044   0.711  0.00  0.00     0.129 C 
ATOM      5  N   UNK d   1      -1.110   1.956   1.011  0.00  0.00    -0.324 N 
ATOM      6  C   UNK d   1      -0.682   1.258   2.227  0.00  0.00     0.181 C 
ATOM      7  C   UNK d   1       0.807   1.133   1.853  0.00  0.00     0.198 C 
ATOM      8  N   UNK d   1       0.721   0.756   0.454  0.00  0.00    -0.323 N 
ATOM      9  C   UNK d   1      -0.361   1.238  -0.007  0.00  0.00     0.147 C 
ENDROOT
BRANCH   6  10
ATOM     10  O   UNK d   1      -0.855   2.074   3.320  0.00  0.00    -0.365 OA
ATOM     11  H   UNK d   1      -0.047   2.593   3.546  0.00  0.00     0.213 HD
ENDBRANCH   6  10
BRANCH   6  12
ATOM     12  C   UNK d   1      -1.279  -0.083   2.357  0.00  0.00    -0.002 A 
ATOM     13  C   UNK d   1      -2.256  -0.609   1.541  0.00  0.00     0.013 A 
ATOM     14  C   UNK d   1      -2.745  -1.889   1.743  0.00  0.00     0.020 A 
ATOM     15  C   UNK d   1      -2.262  -2.657   2.763  0.00  0.00     0.011 A 
ATOM     16  C   UNK d   1      -1.285  -2.146   3.589  0.00  0.00     0.020 A 
ATOM     17 Br   UNK d   1      -2.899  -4.439   3.098  0.00  0.00    -0.051 Br
ATOM     18  C   UNK d   1      -0.809  -0.877   3.378  0.00  0.00     0.013 A 
ENDBRANCH   6  12
BRANCH   8  19
ATOM     19  C   UNK d   1       1.739  -0.031  -0.205  0.00  0.00     0.036 A 
ATOM     20  C   UNK d   1       2.752  -0.620   0.546  0.00  0.00     0.032 A 
ATOM     21  C   UNK d   1       3.738  -1.373  -0.053  0.00  0.00     0.039 A 
ATOM     22  C   UNK d   1       3.783  -1.587  -1.414  0.00  0.00     0.068 A 
ATOM     23  C   UNK d   1       2.787  -1.008  -2.163  0.00  0.00     0.039 A 
ATOM     24  C   UNK d   1       1.784  -0.241  -1.549  0.00  0.00     0.032 A 
BRANCH  22  25
ATOM     25  O   UNK d   1       4.793  -2.355  -1.983  0.00  0.00    -0.356 OA
ATOM     26  C   UNK d   1       4.932  -2.634  -3.347  0.00  0.00     0.210 C 
ENDBRANCH  22  25
ENDBRANCH   8  19
TORSDOF 4
