# created with PyMOL 2.3.2
@<TRIPOS>MOLECULE
1224
45 48 1                 
SMALL
USER_CHARGES
@<TRIPOS>ATOM
1	   S	-1.098	1.163	-1.656	S.3	1	UNK0	0.000	
2	   C	-1.987	2.769	-1.776	C.3	1	UNK0	0.000	
3	   C	-2.830	2.854	-0.512	C.3	1	UNK0	0.000	
4	   C	-1.989	3.044	0.711	C.3	1	UNK0	0.000	
5	   N	-1.110	1.956	1.011	N.pl3	1	UNK0	0.000	
6	   C	-0.682	1.258	2.227	C.3	1	UNK0	0.000	
7	   C	0.807	1.133	1.853	C.3	1	UNK0	0.000	
8	   N	0.721	0.756	0.454	N.pl3	1	UNK0	0.000	
9	   C	-0.361	1.238	-0.007	C.2	1	UNK0	0.000	
10	   C	1.739	-0.031	-0.205	C.2	1	UNK0	0.000	
11	   C	2.752	-0.620	0.546	C.2	1	UNK0	0.000	
12	   C	3.738	-1.373	-0.053	C.2	1	UNK0	0.000	
13	   C	3.783	-1.587	-1.414	C.2	1	UNK0	0.000	
14	   C	2.787	-1.008	-2.163	C.2	1	UNK0	0.000	
15	   C	1.784	-0.241	-1.549	C.2	1	UNK0	0.000	
16	   O	4.793	-2.355	-1.983	O.3	1	UNK0	0.000	
17	   C	4.932	-2.634	-3.347	C.3	1	UNK0	0.000	
18	   O	-0.855	2.074	3.320	O.3	1	UNK0	0.000	
19	   C	-1.279	-0.083	2.357	C.2	1	UNK0	0.000	
20	   C	-2.256	-0.609	1.541	C.2	1	UNK0	0.000	
21	   C	-2.745	-1.889	1.743	C.2	1	UNK0	0.000	
22	   C	-2.262	-2.657	2.763	C.2	1	UNK0	0.000	
23	   C	-1.285	-2.146	3.589	C.2	1	UNK0	0.000	
24	   C	-0.809	-0.877	3.378	C.2	1	UNK0	0.000	
25	  Br	-2.899	-4.439	3.098	Br	1	UNK0	0.000	
26	   H	-2.608	2.746	-2.667	 H	1	UNK0	0.000	
27	   H	-1.210	3.569	-1.789	 H	1	UNK0	0.000	
28	   H	-3.426	1.917	-0.442	 H	1	UNK0	0.000	
29	   H	-3.559	3.680	-0.568	 H	1	UNK0	0.000	
30	   H	-1.403	3.977	0.567	 H	1	UNK0	0.000	
31	   H	-2.692	3.170	1.571	 H	1	UNK0	0.000	
32	   H	1.186	2.181	1.880	 H	1	UNK0	0.000	
33	   H	1.326	0.456	2.509	 H	1	UNK0	0.000	
34	   H	2.770	-0.487	1.612	 H	1	UNK0	0.000	
35	   H	4.541	-1.842	0.526	 H	1	UNK0	0.000	
36	   H	2.760	-1.129	-3.230	 H	1	UNK0	0.000	
37	   H	1.021	0.204	-2.178	 H	1	UNK0	0.000	
38	   H	5.271	-3.699	-3.498	 H	1	UNK0	0.000	
39	   H	4.026	-2.519	-3.950	 H	1	UNK0	0.000	
40	   H	5.786	-2.019	-3.745	 H	1	UNK0	0.000	
41	   H	-0.047	2.593	3.546	 H	1	UNK0	0.000	
42	   H	-2.620	0.008	0.750	 H	1	UNK0	0.000	
43	   H	-3.511	-2.289	1.090	 H	1	UNK0	0.000	
44	   H	-0.895	-2.750	4.403	 H	1	UNK0	0.000	
45	   H	-0.033	-0.512	4.055	 H	1	UNK0	0.000	
@<TRIPOS>BOND
1 1 2 1
2 1 9 1
3 2 3 1
4 3 4 1
5 4 5 1
6 5 6 1
7 5 9 1
8 6 7 1
9 6 18 1
10 6 19 1
11 7 8 1
12 8 9 2
13 8 10 1
14 10 11 2
15 10 15 1
16 11 12 1
17 12 13 2
18 13 14 1
19 13 16 1
20 14 15 2
21 16 17 1
22 19 20 2
23 19 24 1
24 20 21 1
25 21 22 2
26 22 23 1
27 22 25 1
28 23 24 2
29 2 26 1
30 2 27 1
31 3 28 1
32 3 29 1
33 4 30 1
34 4 31 1
35 7 32 1
36 7 33 1
37 11 34 1
38 12 35 1
39 14 36 1
40 15 37 1
41 17 38 1
42 17 39 1
43 17 40 1
44 18 41 1
45 20 42 1
46 21 43 1
47 23 44 1
48 24 45 1
@<TRIPOS>SUBSTRUCTURE
1	UNK0	1	GROUP	1 ****	UNK
