REMARK  3 active torsions:
REMARK  status: ('A' for Active; 'I' for Inactive)
REMARK    1  A    between atoms: C_6  and  O_16 
REMARK    2  A    between atoms: C_6  and  C_17 
REMARK    3  A    between atoms: N_8  and  C_10 
ROOT
ATOM      1  S   UNK d   1       1.316  -1.823   1.952  0.00  0.00    -0.094 SA
ATOM      2  C   UNK d   1       2.154  -0.463   2.813  0.00  0.00     0.084 C 
ATOM      3  C   UNK d   1       2.243   0.688   1.806  0.00  0.00     0.030 C 
ATOM      4  C   UNK d   1       0.812   1.160   1.503  0.00  0.00     0.129 C 
ATOM      5  N   UNK d   1       0.264   0.282   0.462  0.00  0.00    -0.324 N 
ATOM      6  C   UNK d   1      -0.501   0.517  -0.694  0.00  0.00     0.181 C 
ATOM      7  C   UNK d   1      -0.409  -0.780  -1.491  0.00  0.00     0.198 C 
ATOM      8  N   UNK d   1       0.195  -1.708  -0.585  0.00  0.00    -0.323 N 
ATOM      9  C   UNK d   1       0.526  -1.114   0.488  0.00  0.00     0.147 C 
ENDROOT
BRANCH   6  10
ATOM     10  O   UNK d   1       0.142   1.492  -1.489  0.00  0.00    -0.365 OA
ATOM     11  H   UNK d   1       0.071   2.346  -0.988  0.00  0.00     0.213 HD
ENDBRANCH   6  10
BRANCH   6  12
ATOM     12  C   UNK d   1      -1.908   0.887  -0.555  0.00  0.00    -0.002 A 
ATOM     13  C   UNK d   1      -2.520   1.423  -1.687  0.00  0.00     0.013 A 
ATOM     14  C   UNK d   1      -3.851   1.794  -1.736  0.00  0.00     0.020 A 
ATOM     15  C   UNK d   1      -4.640   1.643  -0.629  0.00  0.00     0.011 A 
ATOM     16  C   UNK d   1      -4.051   1.113   0.505  0.00  0.00     0.020 A 
ATOM     17 Br   UNK d   1      -6.507   2.129  -0.634  0.00  0.00    -0.051 Br
ATOM     18  C   UNK d   1      -2.710   0.742   0.540  0.00  0.00     0.013 A 
ENDBRANCH   6  12
BRANCH   8  19
ATOM     19  C   UNK d   1       0.409  -3.086  -0.931  0.00  0.00     0.036 A 
ATOM     20  C   UNK d   1      -0.626  -3.959  -0.836  0.00  0.00     0.029 A 
ATOM     21  C   UNK d   1      -0.400  -5.281  -1.206  0.00  0.00     0.002 A 
ATOM     22  C   UNK d   1       0.819  -5.732  -1.660  0.00  0.00     0.000 A 
ATOM     23  C   UNK d   1       1.841  -4.808  -1.737  0.00  0.00     0.002 A 
ATOM     24  C   UNK d   1       1.653  -3.495  -1.380  0.00  0.00     0.029 A 
ENDBRANCH   8  19
TORSDOF 3
