# created with PyMOL 2.3.2
@<TRIPOS>MOLECULE
1231
49 52 1                 
SMALL
USER_CHARGES
@<TRIPOS>ATOM
1	   S	1.117	0.482	-3.905	S.3	1	UNK0	0.000	
2	   C	1.820	0.957	-5.514	C.3	1	UNK0	0.000	
3	   C	0.694	1.783	-6.048	C.3	1	UNK0	0.000	
4	   N	-0.248	2.115	-5.105	N.2	1	UNK0	0.000	
5	   C	-0.266	1.621	-3.970	C.2	1	UNK0	0.000	
6	   S	-1.363	1.876	-2.581	S.3	1	UNK0	0.000	
7	   C	-0.925	0.887	-1.167	C.3	1	UNK0	0.000	
8	   C	-1.202	-0.556	-1.243	C.2	1	UNK0	0.000	
9	   N	-1.823	-1.208	-2.234	N.pl3	1	UNK0	0.000	
10	   N	-1.867	-2.495	-1.846	N.2	1	UNK0	0.000	
11	   N	-1.318	-2.654	-0.696	N.2	1	UNK0	0.000	
12	   C	-0.853	-1.443	-0.219	C.2	1	UNK0	0.000	
13	   C	-0.199	-1.278	1.053	C.2	1	UNK0	0.000	
14	   O	0.014	-2.355	1.738	O.2	1	UNK0	0.000	
15	   N	0.242	-0.104	1.656	N.pl3	1	UNK0	0.000	
16	   N	0.882	-0.159	2.943	N.2	1	UNK0	0.000	
17	   C	0.222	-0.058	4.028	C.2	1	UNK0	0.000	
18	   C	0.831	-0.109	5.350	C.2	1	UNK0	0.000	
19	   C	0.080	0.005	6.498	C.2	1	UNK0	0.000	
20	   C	0.641	-0.048	7.757	C.2	1	UNK0	0.000	
21	   C	1.992	-0.218	7.918	C.2	1	UNK0	0.000	
22	   C	2.789	-0.338	6.769	C.2	1	UNK0	0.000	
23	   C	2.198	-0.281	5.525	C.2	1	UNK0	0.000	
24	   O	4.134	-0.506	7.002	O.3	1	UNK0	0.000	
25	   C	5.127	-0.650	6.017	C.3	1	UNK0	0.000	
26	   O	2.535	-0.268	9.193	O.2	1	UNK0	0.000	
27	  Br	-0.444	0.115	9.322	Br	1	UNK0	0.000	
28	   C	-2.395	-0.765	-3.462	C.2	1	UNK0	0.000	
29	   N	-1.926	-0.937	-4.715	N.2	1	UNK0	0.000	
30	   O	-2.705	-0.431	-5.596	O.3	1	UNK0	0.000	
31	   N	-3.717	0.095	-4.981	N.2	1	UNK0	0.000	
32	   C	-3.581	-0.083	-3.633	C.2	1	UNK0	0.000	
33	   N	-4.490	0.333	-2.634	N.4	1	UNK0	0.000	
34	   H	2.769	1.501	-5.411	 H	1	UNK0	0.000	
35	   H	1.889	0.035	-6.124	 H	1	UNK0	0.000	
36	   H	0.292	1.360	-7.003	 H	1	UNK0	0.000	
37	   H	1.176	2.755	-6.400	 H	1	UNK0	0.000	
38	   H	-1.425	1.325	-0.287	 H	1	UNK0	0.000	
39	   H	0.191	0.954	-0.952	 H	1	UNK0	0.000	
40	   H	0.175	0.867	1.307	 H	1	UNK0	0.000	
41	   H	-0.841	0.070	3.964	 H	1	UNK0	0.000	
42	   H	-0.996	0.141	6.386	 H	1	UNK0	0.000	
43	   H	2.825	-0.373	4.649	 H	1	UNK0	0.000	
44	   H	5.938	-1.355	6.355	 H	1	UNK0	0.000	
45	   H	4.695	-0.964	5.059	 H	1	UNK0	0.000	
46	   H	5.655	0.339	5.920	 H	1	UNK0	0.000	
47	   H	-5.372	0.656	-3.112	 H	1	UNK0	0.000	
48	   H	-4.132	1.073	-2.005	 H	1	UNK0	0.000	
49	   H	-4.765	-0.506	-2.054	 H	1	UNK0	0.000	
@<TRIPOS>BOND
1 1 2 1
2 1 5 1
3 2 3 1
4 3 4 1
5 4 5 2
6 5 6 1
7 6 7 1
8 7 8 1
9 8 9 1
10 8 12 2
11 9 10 1
12 9 28 1
13 10 11 2
14 11 12 1
15 12 13 1
16 13 14 2
17 13 15 1
18 15 16 1
19 16 17 2
20 17 18 1
21 18 19 2
22 18 23 1
23 19 20 1
24 20 21 2
25 20 27 1
26 21 22 1
27 21 26 1
28 22 23 2
29 22 24 1
30 24 25 1
31 28 29 2
32 28 32 1
33 29 30 1
34 30 31 1
35 31 32 2
36 32 33 1
37 2 34 1
38 2 35 1
39 3 36 1
40 3 37 1
41 7 38 1
42 7 39 1
43 15 40 1
44 17 41 1
45 19 42 1
46 23 43 1
47 25 44 1
48 25 45 1
49 25 46 1
50 33 47 1
51 33 48 1
52 33 49 1
@<TRIPOS>SUBSTRUCTURE
1	UNK0	1	GROUP	1 ****	UNK
