REMARK  9 active torsions:
REMARK  status: ('A' for Active; 'I' for Inactive)
REMARK    1  A    between atoms: C_5  and  S_6 
REMARK    2  A    between atoms: S_6  and  C_7 
REMARK    3  A    between atoms: C_7  and  C_8 
REMARK    4  A    between atoms: N_9  and  C_28 
REMARK    5  A    between atoms: C_12  and  C_13 
REMARK       I    between atoms: C_13  and  N_15 
REMARK    6  A    between atoms: N_15  and  N_16 
REMARK    7  A    between atoms: C_17  and  C_18 
REMARK    8  A    between atoms: C_22  and  O_24 
REMARK    9  A    between atoms: C_32  and  N_33 
ROOT
ATOM      1  C   UNK d   1      -1.202  -0.556  -1.243  0.00  0.00     0.086 A 
ATOM      2  N   UNK d   1      -1.823  -1.208  -2.234  0.00  0.00    -0.192 N 
ATOM      3  N   UNK d   1      -1.867  -2.495  -1.846  0.00  0.00    -0.058 NA
ATOM      4  N   UNK d   1      -1.318  -2.654  -0.696  0.00  0.00    -0.124 NA
ATOM      5  C   UNK d   1      -0.853  -1.443  -0.219  0.00  0.00     0.175 A 
ENDROOT
BRANCH   5   6
ATOM      6  C   UNK d   1      -0.199  -1.278   1.053  0.00  0.00     0.294 C 
ATOM      7  O   UNK d   1       0.014  -2.355   1.738  0.00  0.00    -0.264 OA
ATOM      8  N   UNK d   1       0.242  -0.104   1.656  0.00  0.00    -0.242 N 
ATOM      9  H   UNK d   1       0.175   0.867   1.307  0.00  0.00     0.192 HD
BRANCH   8  10
ATOM     10  N   UNK d   1       0.882  -0.159   2.943  0.00  0.00    -0.183 NA
ATOM     11  C   UNK d   1       0.222  -0.058   4.028  0.00  0.00     0.150 C 
BRANCH  11  12
ATOM     12  C   UNK d   1       0.831  -0.109   5.350  0.00  0.00    -0.013 A 
ATOM     13  C   UNK d   1       0.080   0.005   6.498  0.00  0.00     0.035 A 
ATOM     14  C   UNK d   1       0.641  -0.048   7.757  0.00  0.00     0.051 A 
ATOM     15  C   UNK d   1       1.992  -0.218   7.918  0.00  0.00     0.157 A 
ATOM     16 Br   UNK d   1      -0.444   0.115   9.322  0.00  0.00    -0.048 Br
ATOM     17  C   UNK d   1       2.789  -0.338   6.769  0.00  0.00     0.106 A 
ATOM     18  O   UNK d   1       2.535  -0.268   9.193  0.00  0.00    -0.188 OA
ATOM     19  C   UNK d   1       2.198  -0.281   5.525  0.00  0.00     0.052 A 
BRANCH  17  20
ATOM     20  O   UNK d   1       4.134  -0.506   7.002  0.00  0.00    -0.353 OA
ATOM     21  C   UNK d   1       5.127  -0.650   6.017  0.00  0.00     0.210 C 
ENDBRANCH  17  20
ENDBRANCH  11  12
ENDBRANCH   8  10
ENDBRANCH   5   6
BRANCH   1  22
ATOM     22  C   UNK d   1      -0.925   0.887  -1.167  0.00  0.00     0.143 C 
BRANCH  22  23
ATOM     23  S   UNK d   1      -1.363   1.876  -2.581  0.00  0.00    -0.098 SA
BRANCH  23  24
ATOM     24  C   UNK d   1      -0.266   1.621  -3.970  0.00  0.00     0.125 C 
ATOM     25  S   UNK d   1       1.117   0.482  -3.905  0.00  0.00    -0.102 SA
ATOM     26  C   UNK d   1       1.820   0.957  -5.514  0.00  0.00     0.103 C 
ATOM     27  C   UNK d   1       0.694   1.783  -6.048  0.00  0.00     0.161 C 
ATOM     28  N   UNK d   1      -0.248   2.115  -5.105  0.00  0.00    -0.275 NA
ENDBRANCH  23  24
ENDBRANCH  22  23
ENDBRANCH   1  22
BRANCH   2  29
ATOM     29  C   UNK d   1      -2.395  -0.765  -3.462  0.00  0.00     0.237 A 
ATOM     30  N   UNK d   1      -1.926  -0.937  -4.715  0.00  0.00    -0.081 NA
ATOM     31  O   UNK d   1      -2.705  -0.431  -5.596  0.00  0.00    -0.103 OA
ATOM     32  N   UNK d   1      -3.717   0.095  -4.981  0.00  0.00    -0.075 NA
ATOM     33  C   UNK d   1      -3.581  -0.083  -3.633  0.00  0.00     0.300 A 
BRANCH  33  34
ATOM     34  N   UNK d   1      -4.490   0.333  -2.634  0.00  0.00    -0.026 N 
ATOM     35  H   UNK d   1      -5.372   0.656  -3.112  0.00  0.00     0.283 HD
ATOM     36  H   UNK d   1      -4.132   1.073  -2.005  0.00  0.00     0.283 HD
ATOM     37  H   UNK d   1      -4.765  -0.506  -2.054  0.00  0.00     0.283 HD
ENDBRANCH  33  34
ENDBRANCH   2  29
TORSDOF 9
