REMARK  3 active torsions:
REMARK  status: ('A' for Active; 'I' for Inactive)
REMARK    1  A    between atoms: C_9  and  C_12 
REMARK    2  A    between atoms: C_12  and  C_13 
REMARK    3  A    between atoms: C_12  and  C_24 
ROOT
ATOM      1  C   UNK d   1       0.701   0.096   0.045  0.00  0.00     0.063 C 
ENDROOT
BRANCH   1   2
ATOM      2  C   UNK d   1       1.431  -1.201   0.026  0.00  0.00     0.182 C 
ATOM      3  C   UNK d   1       2.281  -1.216  -1.196  0.00  0.00     0.259 C 
ATOM      4  N   UNK d   1       3.520  -0.482  -1.144  0.00  0.00    -0.188 NA
ATOM      5  O   UNK d   1       1.904  -1.852  -2.211  0.00  0.00    -0.270 OA
ATOM      6  C   UNK d   1       4.099  -0.194  -0.057  0.00  0.00     0.174 C 
ATOM      7  S   UNK d   1       5.602   0.680   0.329  0.00  0.00    -0.090 SA
ATOM      8  N   UNK d   1       3.570  -0.605   1.184  0.00  0.00    -0.295 N 
ATOM      9  C   UNK d   1       5.787  -0.103   2.002  0.00  0.00     0.103 C 
ATOM     10  C   UNK d   1       4.319  -0.184   2.334  0.00  0.00     0.144 C 
ATOM     11  C   UNK d   1       2.339  -1.374   1.183  0.00  0.00     0.239 C 
ATOM     12  O   UNK d   1       2.124  -2.134   2.158  0.00  0.00    -0.272 OA
ENDBRANCH   1   2
BRANCH   1  13
ATOM     13  C   UNK d   1      -0.212   0.266   1.234  0.00  0.00     0.182 C 
ATOM     14  C   UNK d   1      -1.270  -0.752   1.337  0.00  0.00     0.239 C 
ATOM     15  O   UNK d   1      -0.985  -1.928   1.757  0.00  0.00    -0.272 OA
ATOM     16  N   UNK d   1      -2.633  -0.430   0.963  0.00  0.00    -0.295 N 
ATOM     17  C   UNK d   1      -3.714  -1.359   0.783  0.00  0.00     0.144 C 
ATOM     18  C   UNK d   1      -2.975   0.927   0.772  0.00  0.00     0.174 C 
ATOM     19  C   UNK d   1      -4.685  -0.854  -0.255  0.00  0.00     0.103 C 
ATOM     20  S   UNK d   1      -4.702   0.916   0.296  0.00  0.00    -0.090 SA
ATOM     21  N   UNK d   1      -2.138   1.880   0.917  0.00  0.00    -0.188 NA
ATOM     22  C   UNK d   1      -0.771   1.640   1.287  0.00  0.00     0.259 C 
ATOM     23  O   UNK d   1      -0.080   2.624   1.652  0.00  0.00    -0.270 OA
ENDBRANCH   1  13
BRANCH   1  24
ATOM     24  C   UNK d   1      -0.015   0.266  -1.239  0.00  0.00    -0.050 A 
ATOM     25  C   UNK d   1       0.213   1.378  -2.040  0.00  0.00     0.026 A 
ATOM     26  C   UNK d   1      -0.446   1.545  -3.240  0.00  0.00     0.011 A 
ATOM     27  C   UNK d   1      -1.352   0.603  -3.674  0.00  0.00     0.019 A 
ATOM     28 Br   UNK d   1      -0.139   3.069  -4.347  0.00  0.00    -0.051 Br
ATOM     29  C   UNK d   1      -1.574  -0.486  -2.887  0.00  0.00     0.002 A 
ATOM     30  C   UNK d   1      -0.923  -0.667  -1.684  0.00  0.00     0.007 A 
ENDBRANCH   1  24
TORSDOF 3
