REMARK  3 active torsions:
REMARK  status: ('A' for Active; 'I' for Inactive)
REMARK    1  A    between atoms: C_9  and  C_12 
REMARK    2  A    between atoms: C_12  and  C_13 
REMARK    3  A    between atoms: C_12  and  C_24 
ROOT
ATOM      1  C   UNK d   1      -0.661   1.706   0.901  0.00  0.00     0.063 C 
ENDROOT
BRANCH   1   2
ATOM      2  C   UNK d   1      -2.100   1.793   1.191  0.00  0.00     0.182 C 
ATOM      3  C   UNK d   1      -3.115   1.585   0.197  0.00  0.00     0.259 C 
ATOM      4  N   UNK d   1      -3.623   0.231   0.042  0.00  0.00    -0.188 NA
ATOM      5  O   UNK d   1      -3.658   2.405  -0.583  0.00  0.00    -0.270 OA
ATOM      6  C   UNK d   1      -3.575  -0.607   1.028  0.00  0.00     0.174 C 
ATOM      7  S   UNK d   1      -4.114  -2.332   1.158  0.00  0.00    -0.090 SA
ATOM      8  N   UNK d   1      -3.008  -0.319   2.287  0.00  0.00    -0.295 N 
ATOM      9  C   UNK d   1      -3.064  -2.704   2.630  0.00  0.00     0.103 C 
ATOM     10  C   UNK d   1      -3.058  -1.346   3.258  0.00  0.00     0.144 C 
ATOM     11  C   UNK d   1      -2.457   1.010   2.433  0.00  0.00     0.239 C 
ATOM     12  O   UNK d   1      -2.285   1.490   3.568  0.00  0.00    -0.272 OA
ENDBRANCH   1   2
BRANCH   1  13
ATOM     13  C   UNK d   1      -0.004   2.610  -0.052  0.00  0.00     0.182 C 
ATOM     14  C   UNK d   1       1.478   2.237  -0.085  0.00  0.00     0.239 C 
ATOM     15  O   UNK d   1       2.237   2.618   0.835  0.00  0.00    -0.272 OA
ATOM     16  N   UNK d   1       2.002   1.445  -1.176  0.00  0.00    -0.295 N 
ATOM     17  C   UNK d   1       3.234   0.736  -1.216  0.00  0.00     0.144 C 
ATOM     18  C   UNK d   1       1.218   1.374  -2.353  0.00  0.00     0.174 C 
ATOM     19  C   UNK d   1       3.143  -0.475  -2.111  0.00  0.00     0.103 C 
ATOM     20  S   UNK d   1       2.130   0.307  -3.454  0.00  0.00    -0.090 SA
ATOM     21  N   UNK d   1       0.098   1.963  -2.502  0.00  0.00    -0.188 NA
ATOM     22  C   UNK d   1      -0.441   2.771  -1.413  0.00  0.00     0.259 C 
ATOM     23  O   UNK d   1      -1.297   3.607  -1.754  0.00  0.00    -0.270 OA
ENDBRANCH   1  13
BRANCH   1  24
ATOM     24  C   UNK d   1      -0.177   0.275   0.806  0.00  0.00    -0.051 A 
ATOM     25  C   UNK d   1      -0.504  -0.512  -0.272  0.00  0.00     0.009 A 
ATOM     26  C   UNK d   1      -0.051  -1.806  -0.320  0.00  0.00     0.019 A 
ATOM     27  C   UNK d   1       0.716  -2.358   0.657  0.00  0.00     0.011 A 
ATOM     28  C   UNK d   1       1.059  -1.597   1.747  0.00  0.00     0.019 A 
ATOM     29 Br   UNK d   1       1.345  -4.169   0.581  0.00  0.00    -0.051 Br
ATOM     30  C   UNK d   1       0.598  -0.281   1.796  0.00  0.00     0.009 A 
ENDBRANCH   1  24
TORSDOF 3
