REMARK  2 active torsions:
REMARK  status: ('A' for Active; 'I' for Inactive)
REMARK    1  A    between atoms: C_4  and  C_7 
REMARK    2  A    between atoms: C_14  and  C_15 
ROOT
ATOM      1  S   UNK d   1      -0.152  -2.824  -0.513  0.00  0.00    -0.025 SA
ATOM      2  C   UNK d   1      -0.542  -1.514   0.527  0.00  0.00     0.219 A 
ATOM      3  N   UNK d   1       0.009  -0.492  -0.126  0.00  0.00    -0.184 N 
ATOM      4  C   UNK d   1      -0.272   0.599   0.664  0.00  0.00     0.205 A 
ATOM      5  N   UNK d   1      -0.962   0.207   1.734  0.00  0.00    -0.125 NA
ATOM      6  N   UNK d   1      -1.149  -1.096   1.684  0.00  0.00    -0.120 NA
ATOM      7  N   UNK d   1       0.613  -0.712  -1.223  0.00  0.00    -0.154 NA
ATOM      8  C   UNK d   1       0.700  -1.931  -1.718  0.00  0.00     0.153 A 
ENDROOT
BRANCH   8   9
ATOM      9  C   UNK d   1       1.339  -2.410  -2.948  0.00  0.00     0.133 A 
ATOM     10  N   UNK d   1       1.385  -3.674  -3.386  0.00  0.00    -0.171 NA
ATOM     11  N   UNK d   1       2.057  -3.714  -4.548  0.00  0.00    -0.287 N 
ATOM     12  C   UNK d   1       2.449  -2.464  -4.865  0.00  0.00     0.131 A 
ATOM     13  H   UNK d   1       2.236  -4.583  -5.101  0.00  0.00     0.188 HD
ATOM     14  C   UNK d   1       1.989  -1.632  -3.841  0.00  0.00     0.061 A 
ATOM     15 Br   UNK d   1       2.272   0.232  -3.796  0.00  0.00    -0.047 Br
ENDBRANCH   8   9
BRANCH   4  16
ATOM     16  C   UNK d   1       0.121   1.996   0.388  0.00  0.00     0.123 A 
ATOM     17  N   UNK d   1       0.819   2.317  -0.717  0.00  0.00    -0.254 NA
ATOM     18  C   UNK d   1       1.173   3.599  -0.958  0.00  0.00     0.136 A 
ATOM     19  C   UNK d   1       0.825   4.589  -0.081  0.00  0.00     0.135 A 
ATOM     20  N   UNK d   1       0.132   4.256   1.009  0.00  0.00    -0.269 NA
ATOM     21  C   UNK d   1      -0.234   2.983   1.275  0.00  0.00     0.151 A 
ENDBRANCH   4  16
TORSDOF 2
