REMARK  3 active torsions:
REMARK  status: ('A' for Active; 'I' for Inactive)
REMARK    1  A    between atoms: C_6  and  C_13 
REMARK    2  A    between atoms: C_13  and  C_14 
REMARK    3  A    between atoms: C_13  and  C_26 
ROOT
ATOM      1  C   UNK d   1       0.274  -0.361   1.143  0.00  0.00     0.063 C 
ENDROOT
BRANCH   1   2
ATOM      2  C   UNK d   1      -1.194  -0.569   1.386  0.00  0.00     0.184 C 
ATOM      3  C   UNK d   1      -1.656  -1.750   0.534  0.00  0.00     0.259 C 
ATOM      4  N   UNK d   1      -1.600  -1.563  -0.899  0.00  0.00    -0.186 NA
ATOM      5  O   UNK d   1      -2.039  -2.767   1.110  0.00  0.00    -0.270 OA
ATOM      6  C   UNK d   1      -1.741  -0.377  -1.395  0.00  0.00     0.200 A 
ATOM      7  S   UNK d   1      -1.724   0.195  -3.086  0.00  0.00    -0.032 SA
ATOM      8  N   UNK d   1      -1.964   0.771  -0.604  0.00  0.00    -0.197 N 
ATOM      9  C   UNK d   1      -2.010   1.913  -2.688  0.00  0.00     0.083 A 
ATOM     10  N   UNK d   1      -2.103   1.953  -1.280  0.00  0.00    -0.283 N 
ATOM     11  C   UNK d   1      -2.108   2.913  -3.559  0.00  0.00     0.052 C 
ATOM     12  H   UNK d   1      -2.287   2.903  -0.798  0.00  0.00     0.188 HD
ATOM     13  C   UNK d   1      -2.029   0.544   0.834  0.00  0.00     0.259 C 
ATOM     14  O   UNK d   1      -2.772   1.274   1.551  0.00  0.00    -0.270 OA
ENDBRANCH   1   2
BRANCH   1  15
ATOM     15  C   UNK d   1       0.944   0.717   1.897  0.00  0.00     0.184 C 
ATOM     16  C   UNK d   1       0.472   2.080   1.705  0.00  0.00     0.259 C 
ATOM     17  O   UNK d   1      -0.282   2.625   2.581  0.00  0.00    -0.270 OA
ATOM     18  N   UNK d   1       0.838   2.854   0.533  0.00  0.00    -0.197 N 
ATOM     19  N   UNK d   1       0.177   3.906  -0.015  0.00  0.00    -0.283 N 
ATOM     20  C   UNK d   1       2.034   2.453  -0.096  0.00  0.00     0.200 A 
ATOM     21  C   UNK d   1       0.747   4.505  -1.166  0.00  0.00     0.083 A 
ATOM     22  H   UNK d   1      -0.745   4.322   0.359  0.00  0.00     0.188 HD
ATOM     23  C   UNK d   1       0.322   5.525  -1.879  0.00  0.00     0.052 C 
ATOM     24  S   UNK d   1       2.234   3.558  -1.481  0.00  0.00    -0.032 SA
ATOM     25  N   UNK d   1       2.769   1.480   0.311  0.00  0.00    -0.186 NA
ATOM     26  C   UNK d   1       2.402   0.715   1.471  0.00  0.00     0.259 C 
ATOM     27  O   UNK d   1       3.196   0.050   2.152  0.00  0.00    -0.270 OA
ENDBRANCH   1  15
BRANCH   1  28
ATOM     28  C   UNK d   1       1.035  -1.635   1.286  0.00  0.00    -0.051 A 
ATOM     29  C   UNK d   1       1.661  -2.217   0.208  0.00  0.00     0.009 A 
ATOM     30  C   UNK d   1       2.364  -3.393   0.334  0.00  0.00     0.019 A 
ATOM     31  C   UNK d   1       2.446  -4.006   1.564  0.00  0.00     0.011 A 
ATOM     32  C   UNK d   1       1.825  -3.449   2.684  0.00  0.00     0.019 A 
ATOM     33 Br   UNK d   1       3.416  -5.641   1.772  0.00  0.00    -0.051 Br
ATOM     34  C   UNK d   1       1.130  -2.269   2.516  0.00  0.00     0.009 A 
ENDBRANCH   1  28
TORSDOF 3
