REMARK  5 active torsions:
REMARK  status: ('A' for Active; 'I' for Inactive)
REMARK    1  A    between atoms: C_7  and  C_17 
REMARK    2  A    between atoms: C_10  and  N_11 
REMARK       I    between atoms: C_17  and  N_19 
REMARK    3  A    between atoms: N_19  and  C_20 
REMARK    4  A    between atoms: C_20  and  C_21 
REMARK    5  A    between atoms: C_22  and  O_28 
ROOT
ATOM      1  S   UNK d   1       2.906  -3.354  -1.091  0.00  0.00    -0.010 SA
ATOM      2  C   UNK d   1       1.747  -2.813  -2.230  0.00  0.00     0.201 A 
ATOM      3  N   UNK d   1       1.246  -3.321  -3.399  0.00  0.00    -0.183 NA
ATOM      4  C   UNK d   1       0.291  -2.672  -4.085  0.00  0.00     0.271 A 
ATOM      5  O   UNK d   1      -0.223  -3.057  -5.152  0.00  0.00    -0.266 OA
ATOM      6  C   UNK d   1      -0.126  -1.487  -3.526  0.00  0.00     0.114 A 
ATOM      7  C   UNK d   1       0.368  -0.974  -2.363  0.00  0.00     0.134 A 
ATOM      8  N   UNK d   1       1.343  -1.662  -1.684  0.00  0.00    -0.201 N 
ATOM      9  N   UNK d   1       1.871  -1.311  -0.576  0.00  0.00    -0.139 NA
ATOM     10  C   UNK d   1       2.776  -2.036   0.018  0.00  0.00     0.192 A 
ENDROOT
BRANCH   7  11
ATOM     11  C   UNK d   1      -0.185   0.293  -1.888  0.00  0.00     0.270 C 
ATOM     12  O   UNK d   1      -1.326   0.686  -2.331  0.00  0.00    -0.266 OA
ATOM     13  N   UNK d   1       0.447   1.149  -0.963  0.00  0.00    -0.351 N 
ATOM     14  H   UNK d   1       1.380   0.925  -0.568  0.00  0.00     0.163 HD
BRANCH  13  15
ATOM     15  C   UNK d   1      -0.211   2.384  -0.553  0.00  0.00     0.164 C 
BRANCH  15  16
ATOM     16  C   UNK d   1      -1.421   2.091   0.254  0.00  0.00    -0.006 A 
ATOM     17  C   UNK d   1      -2.204   3.143   0.703  0.00  0.00     0.076 A 
ATOM     18  C   UNK d   1      -3.302   2.885   1.485  0.00  0.00     0.039 A 
ATOM     19  C   UNK d   1      -3.659   1.612   1.845  0.00  0.00     0.022 A 
ATOM     20  C   UNK d   1      -2.884   0.557   1.401  0.00  0.00     0.011 A 
ATOM     21  C   UNK d   1      -1.777   0.821   0.611  0.00  0.00     0.030 A 
ATOM     22 Br   UNK d   1      -3.315  -1.247   1.852  0.00  0.00    -0.051 Br
BRANCH  17  23
ATOM     23  O   UNK d   1      -1.835   4.418   0.336  0.00  0.00    -0.355 OA
ATOM     24  C   UNK d   1      -2.634   5.510   0.791  0.00  0.00     0.210 C 
ENDBRANCH  17  23
ENDBRANCH  15  16
ENDBRANCH  13  15
ENDBRANCH   7  11
BRANCH  10  25
ATOM     25  N   UNK d   1       3.470  -1.824   1.270  0.00  0.00    -0.355 N 
ATOM     26  C   UNK d   1       4.478  -0.840   1.375  0.00  0.00     0.151 C 
ATOM     27  C   UNK d   1       5.109  -0.880   2.747  0.00  0.00     0.187 C 
ATOM     28  O   UNK d   1       5.259  -2.208   3.155  0.00  0.00    -0.388 OA
ATOM     29  C   UNK d   1       4.013  -2.756   3.483  0.00  0.00     0.187 C 
ATOM     30  C   UNK d   1       3.054  -2.671   2.336  0.00  0.00     0.151 C 
ENDBRANCH  10  25
TORSDOF 5
