# created with PyMOL 2.3.2
@<TRIPOS>MOLECULE
1265
40 43 1                 
SMALL
USER_CHARGES
@<TRIPOS>ATOM
1	   S	0.542	-1.264	1.955	S.3	1	UNK0	0.000	
2	   C	0.582	-0.343	0.423	C.2	1	UNK0	0.000	
3	   N	-0.124	-0.068	-0.625	N.pl3	1	UNK0	0.000	
4	   C	0.569	0.789	-1.512	C.3	1	UNK0	0.000	
5	   C	1.883	1.038	-0.847	C.3	1	UNK0	0.000	
6	   N	1.844	0.278	0.425	N.pl3	1	UNK0	0.000	
7	   C	2.658	0.028	1.536	C.2	1	UNK0	0.000	
8	   C	2.177	-0.760	2.471	C.2	1	UNK0	0.000	
9	   C	4.027	0.608	1.732	C.2	1	UNK0	0.000	
10	   C	4.770	0.333	2.858	C.2	1	UNK0	0.000	
11	   C	6.030	0.842	3.090	C.2	1	UNK0	0.000	
12	   C	6.615	1.678	2.167	C.2	1	UNK0	0.000	
13	   C	5.897	1.967	1.041	C.2	1	UNK0	0.000	
14	   C	4.611	1.442	0.814	C.2	1	UNK0	0.000	
15	   C	-1.484	-0.609	-0.798	C.3	1	UNK0	0.000	
16	   C	-2.418	0.528	-0.674	C.2	1	UNK0	0.000	
17	   O	-2.004	1.695	-0.522	O.2	1	UNK0	0.000	
18	   C	-3.855	0.301	-0.727	C.2	1	UNK0	0.000	
19	   C	-4.755	1.363	-0.620	C.2	1	UNK0	0.000	
20	   C	-6.124	1.175	-0.659	C.2	1	UNK0	0.000	
21	   C	-6.585	-0.106	-0.809	C.2	1	UNK0	0.000	
22	   C	-5.735	-1.191	-0.920	C.2	1	UNK0	0.000	
23	   C	-4.356	-0.975	-0.878	C.2	1	UNK0	0.000	
24	  Br	-8.486	-0.356	-0.863	Br	1	UNK0	0.000	
25	   H	0.007	1.740	-1.728	 H	1	UNK0	0.000	
26	   H	0.661	0.304	-2.520	 H	1	UNK0	0.000	
27	   H	1.934	2.128	-0.638	 H	1	UNK0	0.000	
28	   H	2.660	0.657	-1.528	 H	1	UNK0	0.000	
29	   H	2.650	-1.084	3.417	 H	1	UNK0	0.000	
30	   H	4.372	-0.321	3.632	 H	1	UNK0	0.000	
31	   H	6.568	0.592	3.991	 H	1	UNK0	0.000	
32	   H	7.599	2.075	2.351	 H	1	UNK0	0.000	
33	   H	6.306	2.623	0.273	 H	1	UNK0	0.000	
34	   H	4.095	1.701	-0.088	 H	1	UNK0	0.000	
35	   H	-1.492	-0.965	-1.868	 H	1	UNK0	0.000	
36	   H	-1.676	-1.434	-0.116	 H	1	UNK0	0.000	
37	   H	-4.366	2.354	-0.505	 H	1	UNK0	0.000	
38	   H	-6.809	1.987	-0.576	 H	1	UNK0	0.000	
39	   H	-6.093	-2.195	-1.037	 H	1	UNK0	0.000	
40	   H	-3.718	-1.842	-0.968	 H	1	UNK0	0.000	
@<TRIPOS>BOND
1 1 2 1
2 1 8 1
3 2 3 2
4 2 6 1
5 3 4 1
6 3 15 1
7 4 5 1
8 5 6 1
9 6 7 1
10 7 8 2
11 7 9 1
12 9 10 2
13 9 14 1
14 10 11 1
15 11 12 2
16 12 13 1
17 13 14 2
18 15 16 1
19 16 17 2
20 16 18 1
21 18 19 2
22 18 23 1
23 19 20 1
24 20 21 2
25 21 22 1
26 21 24 1
27 22 23 2
28 4 25 1
29 4 26 1
30 5 27 1
31 5 28 1
32 8 29 1
33 10 30 1
34 11 31 1
35 12 32 1
36 13 33 1
37 14 34 1
38 15 35 1
39 15 36 1
40 19 37 1
41 20 38 1
42 22 39 1
43 23 40 1
@<TRIPOS>SUBSTRUCTURE
1	UNK0	1	GROUP	1 ****	UNK
