REMARK  4 active torsions:
REMARK  status: ('A' for Active; 'I' for Inactive)
REMARK    1  A    between atoms: N_3  and  C_15 
REMARK    2  A    between atoms: C_7  and  C_9 
REMARK    3  A    between atoms: C_15  and  C_16 
REMARK    4  A    between atoms: C_16  and  C_18 
ROOT
ATOM      1  S   UNK d   1       0.542  -1.264   1.955  0.00  0.00    -0.063 SA
ATOM      2  C   UNK d   1       0.582  -0.343   0.423  0.00  0.00     0.149 A 
ATOM      3  N   UNK d   1      -0.124  -0.068  -0.625  0.00  0.00    -0.352 N 
ATOM      4  C   UNK d   1       0.569   0.789  -1.512  0.00  0.00     0.145 A 
ATOM      5  C   UNK d   1       1.883   1.038  -0.847  0.00  0.00     0.151 A 
ATOM      6  N   UNK d   1       1.844   0.278   0.425  0.00  0.00    -0.325 N 
ATOM      7  C   UNK d   1       2.658   0.028   1.536  0.00  0.00     0.053 A 
ATOM      8  C   UNK d   1       2.177  -0.760   2.471  0.00  0.00     0.083 A 
ENDROOT
BRANCH   3   9
ATOM      9  C   UNK d   1      -1.484  -0.609  -0.798  0.00  0.00     0.208 C 
BRANCH   9  10
ATOM     10  C   UNK d   1      -2.418   0.528  -0.674  0.00  0.00     0.177 C 
ATOM     11  O   UNK d   1      -2.004   1.695  -0.522  0.00  0.00    -0.291 OA
BRANCH  10  12
ATOM     12  C   UNK d   1      -3.855   0.301  -0.727  0.00  0.00     0.011 A 
ATOM     13  C   UNK d   1      -4.755   1.363  -0.620  0.00  0.00     0.016 A 
ATOM     14  C   UNK d   1      -6.124   1.175  -0.659  0.00  0.00     0.020 A 
ATOM     15  C   UNK d   1      -6.585  -0.106  -0.809  0.00  0.00     0.011 A 
ATOM     16  C   UNK d   1      -5.735  -1.191  -0.920  0.00  0.00     0.020 A 
ATOM     17 Br   UNK d   1      -8.486  -0.356  -0.863  0.00  0.00    -0.051 Br
ATOM     18  C   UNK d   1      -4.356  -0.975  -0.878  0.00  0.00     0.016 A 
ENDBRANCH  10  12
ENDBRANCH   9  10
ENDBRANCH   3   9
BRANCH   7  19
ATOM     19  C   UNK d   1       4.027   0.608   1.732  0.00  0.00    -0.009 A 
ATOM     20  C   UNK d   1       4.770   0.333   2.858  0.00  0.00     0.014 A 
ATOM     21  C   UNK d   1       6.030   0.842   3.090  0.00  0.00     0.001 A 
ATOM     22  C   UNK d   1       6.615   1.678   2.167  0.00  0.00     0.000 A 
ATOM     23  C   UNK d   1       5.897   1.967   1.041  0.00  0.00     0.001 A 
ATOM     24  C   UNK d   1       4.611   1.442   0.814  0.00  0.00     0.014 A 
ENDBRANCH   7  19
TORSDOF 4
