# created with PyMOL 2.3.2
@<TRIPOS>MOLECULE
1266
43 46 1                 
SMALL
USER_CHARGES
@<TRIPOS>ATOM
1	  Cl	-1.411	-5.149	-2.079	Cl	1	UNK0	0.000	
2	   C	-0.092	-3.989	-1.818	C.2	1	UNK0	0.000	
3	   C	-0.353	-2.904	-0.966	C.2	1	UNK0	0.000	
4	   C	0.663	-2.016	-0.765	C.2	1	UNK0	0.000	
5	   C	1.887	-2.199	-1.384	C.2	1	UNK0	0.000	
6	   C	2.147	-3.268	-2.224	C.2	1	UNK0	0.000	
7	   C	1.122	-4.183	-2.441	C.2	1	UNK0	0.000	
8	   C	-1.760	-2.741	-0.456	C.3	1	UNK0	0.000	
9	   N	-2.420	-1.924	-1.467	N.3	1	UNK0	0.000	
10	   C	-2.851	-0.648	-1.136	C.3	1	UNK0	0.000	
11	   C	-2.166	0.099	-0.011	C.3	1	UNK0	0.000	
12	   N	-1.597	-0.737	0.954	N.pl3	1	UNK0	0.000	
13	   C	-1.849	-2.144	0.872	C.3	1	UNK0	0.000	
14	   C	-0.771	-0.332	2.034	C.2	1	UNK0	0.000	
15	   O	-0.518	-1.325	2.855	O.2	1	UNK0	0.000	
16	   C	-0.171	0.902	2.392	C.2	1	UNK0	0.000	
17	   C	0.246	1.053	3.737	C.2	1	UNK0	0.000	
18	   N	0.937	2.123	4.129	N.2	1	UNK0	0.000	
19	   C	1.267	3.098	3.280	C.2	1	UNK0	0.000	
20	   C	0.892	3.008	1.967	C.2	1	UNK0	0.000	
21	   C	0.168	1.906	1.517	C.2	1	UNK0	0.000	
22	   N	1.270	4.030	1.040	N.pl3	1	UNK0	0.000	
23	   C	2.041	5.133	1.519	C.2	1	UNK0	0.000	
24	   O	2.783	5.837	0.804	O.2	1	UNK0	0.000	
25	   C	1.941	5.450	2.977	C.3	1	UNK0	0.000	
26	   O	1.990	4.216	3.711	O.3	1	UNK0	0.000	
27	   H	0.513	-1.125	-0.128	 H	1	UNK0	0.000	
28	   H	2.689	-1.458	-1.206	 H	1	UNK0	0.000	
29	   H	3.138	-3.372	-2.687	 H	1	UNK0	0.000	
30	   H	1.269	-5.037	-3.080	 H	1	UNK0	0.000	
31	   H	-2.241	-3.751	-0.522	 H	1	UNK0	0.000	
32	   H	-1.897	-1.966	-2.365	 H	1	UNK0	0.000	
33	   H	-2.724	0.011	-2.064	 H	1	UNK0	0.000	
34	   H	-3.971	-0.636	-0.949	 H	1	UNK0	0.000	
35	   H	-3.086	0.586	0.605	 H	1	UNK0	0.000	
36	   H	-1.651	0.986	-0.369	 H	1	UNK0	0.000	
37	   H	-1.207	-2.680	1.633	 H	1	UNK0	0.000	
38	   H	-2.908	-2.353	1.290	 H	1	UNK0	0.000	
39	   H	-0.015	0.269	4.445	 H	1	UNK0	0.000	
40	   H	-0.049	1.894	0.496	 H	1	UNK0	0.000	
41	   H	1.007	3.985	0.044	 H	1	UNK0	0.000	
42	   H	1.007	5.949	3.242	 H	1	UNK0	0.000	
43	   H	2.791	6.059	3.333	 H	1	UNK0	0.000	
@<TRIPOS>BOND
1 1 2 1
2 2 3 2
3 2 7 1
4 3 4 1
5 3 8 1
6 4 5 2
7 5 6 1
8 6 7 2
9 8 9 1
10 8 13 1
11 9 10 1
12 10 11 1
13 11 12 1
14 12 13 1
15 12 14 1
16 14 15 2
17 14 16 1
18 16 17 2
19 16 21 1
20 17 18 1
21 18 19 2
22 19 20 1
23 19 26 1
24 20 21 2
25 20 22 1
26 22 23 1
27 23 24 2
28 23 25 1
29 25 26 1
30 4 27 1
31 5 28 1
32 6 29 1
33 7 30 1
34 8 31 1
35 9 32 1
36 10 33 1
37 10 34 1
38 11 35 1
39 11 36 1
40 13 37 1
41 13 38 1
42 17 39 1
43 21 40 1
44 22 41 1
45 25 42 1
46 25 43 1
@<TRIPOS>SUBSTRUCTURE
1	UNK0	1	GROUP	1 ****	UNK
