REMARK  2 active torsions:
REMARK  status: ('A' for Active; 'I' for Inactive)
REMARK    1  A    between atoms: C_3  and  C_8 
REMARK       I    between atoms: N_12  and  C_14 
REMARK    2  A    between atoms: C_14  and  C_16 
ROOT
ATOM      1  C   UNK d   1      -1.760  -2.741  -0.456  0.00  0.00     0.273 C 
ATOM      2  N   UNK d   1      -2.420  -1.924  -1.467  0.00  0.00     0.095 NA
ATOM      3  C   UNK d   1      -2.851  -0.648  -1.136  0.00  0.00     0.290 C 
ATOM      4  C   UNK d   1      -2.166   0.099  -0.011  0.00  0.00     0.155 C 
ATOM      5  N   UNK d   1      -1.597  -0.737   0.954  0.00  0.00    -0.355 N 
ATOM      6  C   UNK d   1      -1.849  -2.144   0.872  0.00  0.00     0.165 C 
ATOM      7  C   UNK d   1      -0.771  -0.332   2.034  0.00  0.00     0.189 C 
ATOM      8  O   UNK d   1      -0.518  -1.325   2.855  0.00  0.00    -0.171 OA
ATOM      9  H   UNK d   1      -1.897  -1.966  -2.365  0.00  0.00     0.316 HD
ENDROOT
BRANCH   7  10
ATOM     10  C   UNK d   1      -0.171   0.902   2.392  0.00  0.00     0.038 A 
ATOM     11  C   UNK d   1       0.246   1.053   3.737  0.00  0.00     0.135 A 
ATOM     12  N   UNK d   1       0.937   2.123   4.129  0.00  0.00    -0.234 NA
ATOM     13  C   UNK d   1       1.267   3.098   3.280  0.00  0.00     0.192 A 
ATOM     14  C   UNK d   1       0.892   3.008   1.967  0.00  0.00     0.089 A 
ATOM     15  O   UNK d   1       1.990   4.216   3.711  0.00  0.00    -0.323 OA
ATOM     16  C   UNK d   1       0.168   1.906   1.517  0.00  0.00     0.051 A 
ATOM     17  N   UNK d   1       1.270   4.030   1.040  0.00  0.00    -0.322 N 
ATOM     18  C   UNK d   1       2.041   5.133   1.519  0.00  0.00     0.246 C 
ATOM     19  H   UNK d   1       1.007   3.985   0.044  0.00  0.00     0.169 HD
ATOM     20  O   UNK d   1       2.783   5.837   0.804  0.00  0.00    -0.271 OA
ATOM     21  C   UNK d   1       1.941   5.450   2.977  0.00  0.00     0.280 C 
ENDBRANCH   7  10
BRANCH   1  22
ATOM     22  C   UNK d   1      -0.353  -2.904  -0.966  0.00  0.00    -0.002 A 
ATOM     23  C   UNK d   1      -0.092  -3.989  -1.818  0.00  0.00     0.042 A 
ATOM     24 Cl   UNK d   1      -1.411  -5.149  -2.079  0.00  0.00    -0.084 Cl
ATOM     25  C   UNK d   1       1.122  -4.183  -2.441  0.00  0.00     0.024 A 
ATOM     26  C   UNK d   1       2.147  -3.268  -2.224  0.00  0.00     0.002 A 
ATOM     27  C   UNK d   1       1.887  -2.199  -1.384  0.00  0.00     0.001 A 
ATOM     28  C   UNK d   1       0.663  -2.016  -0.765  0.00  0.00     0.011 A 
ENDBRANCH   1  22
TORSDOF 2
