REMARK  8 active torsions:
REMARK  status: ('A' for Active; 'I' for Inactive)
REMARK    1  A    between atoms: C_4  and  C_8 
REMARK    2  A    between atoms: C_8  and  N_10 
REMARK    3  A    between atoms: N_10  and  N_11 
REMARK       I    between atoms: N_11  and  C_12 
REMARK    4  A    between atoms: C_12  and  C_14 
REMARK    5  A    between atoms: N_17  and  C_26 
REMARK    6  A    between atoms: C_18  and  C_19 
REMARK    7  A    between atoms: C_19  and  N_20 
REMARK    8  A    between atoms: C_30  and  N_31 
ROOT
ATOM      1  C   UNK d   1       0.242  -0.031   1.680  0.00  0.00     0.176 A 
ATOM      2  N   UNK d   1       0.385  -0.996   2.598  0.00  0.00    -0.124 NA
ATOM      3  N   UNK d   1      -0.822  -1.362   2.946  0.00  0.00    -0.058 NA
ATOM      4  N   UNK d   1      -1.733  -0.659   2.278  0.00  0.00    -0.191 N 
ATOM      5  C   UNK d   1      -1.127   0.194   1.467  0.00  0.00     0.104 A 
ENDROOT
BRANCH   1   6
ATOM      6  C   UNK d   1       1.349   0.640   1.024  0.00  0.00     0.292 C 
ATOM      7  N   UNK d   1       2.701   0.322   1.293  0.00  0.00    -0.264 N 
ATOM      8  H   UNK d   1       2.978  -0.418   1.992  0.00  0.00     0.190 HD
ATOM      9  O   UNK d   1       1.091   1.534   0.186  0.00  0.00    -0.264 OA
BRANCH   7  10
ATOM     10  N   UNK d   1       3.757   0.969   0.651  0.00  0.00    -0.298 N 
ATOM     11  H   UNK d   1       4.362   1.693   1.074  0.00  0.00     0.187 HD
BRANCH  10  12
ATOM     12  C   UNK d   1       4.043   0.607  -0.717  0.00  0.00     0.049 C 
ATOM     13  C   UNK d   1       3.669   1.422  -1.671  0.00  0.00     0.045 C 
BRANCH  12  14
ATOM     14  C   UNK d   1       4.718  -0.650  -0.973  0.00  0.00    -0.008 A 
ATOM     15  C   UNK d   1       5.219  -1.403   0.088  0.00  0.00     0.032 A 
ATOM     16  C   UNK d   1       5.847  -2.603  -0.139  0.00  0.00     0.011 A 
ATOM     17 Br   UNK d   1       6.537  -3.638   1.300  0.00  0.00    -0.051 Br
ATOM     18  C   UNK d   1       6.006  -3.108  -1.418  0.00  0.00     0.019 A 
ATOM     19  C   UNK d   1       5.521  -2.382  -2.462  0.00  0.00     0.002 A 
ATOM     20  C   UNK d   1       4.883  -1.164  -2.226  0.00  0.00     0.014 A 
ENDBRANCH  12  14
ENDBRANCH  10  12
ENDBRANCH   7  10
ENDBRANCH   1   6
BRANCH   5  21
ATOM     21  C   UNK d   1      -1.614   1.208   0.560  0.00  0.00     0.334 C 
BRANCH  21  22
ATOM     22  N   UNK d   1      -3.052   1.281   0.389  0.00  0.00     0.094 NA
ATOM     23  C   UNK d   1      -3.427   2.499  -0.323  0.00  0.00     0.273 C 
ATOM     24  C   UNK d   1      -2.578   2.716  -1.556  0.00  0.00     0.030 C 
ATOM     25  C   UNK d   1      -2.685   1.513  -2.476  0.00  0.00     0.003 C 
ATOM     26  C   UNK d   1      -3.619   0.483  -1.907  0.00  0.00     0.030 C 
ATOM     27  C   UNK d   1      -3.494   0.184  -0.467  0.00  0.00     0.273 C 
ENDBRANCH  21  22
ENDBRANCH   5  21
BRANCH   4  28
ATOM     28  C   UNK d   1      -3.128  -0.812   2.459  0.00  0.00     0.229 A 
ATOM     29  N   UNK d   1      -3.954   0.227   2.766  0.00  0.00    -0.081 NA
ATOM     30  O   UNK d   1      -5.156  -0.246   2.866  0.00  0.00    -0.103 OA
ATOM     31  N   UNK d   1      -5.183  -1.512   2.652  0.00  0.00    -0.083 NA
ATOM     32  C   UNK d   1      -3.931  -1.912   2.392  0.00  0.00     0.201 A 
BRANCH  32  33
ATOM     33  N   UNK d   1      -3.494  -3.213   2.101  0.00  0.00    -0.379 N 
ATOM     34  H   UNK d   1      -3.627  -4.055   2.703  0.00  0.00     0.158 HD
ATOM     35  H   UNK d   1      -2.985  -3.380   1.206  0.00  0.00     0.158 HD
ENDBRANCH  32  33
ENDBRANCH   4  28
TORSDOF 8
