REMARK  7 active torsions:
REMARK  status: ('A' for Active; 'I' for Inactive)
REMARK    1  A    between atoms: C_4  and  C_8 
REMARK    2  A    between atoms: N_9  and  C_26 
REMARK    3  A    between atoms: C_15  and  C_17 
REMARK    4  A    between atoms: C_20  and  O_23 
REMARK    5  A    between atoms: C_26  and  C_27 
REMARK    6  A    between atoms: C_27  and  C_28 
REMARK    7  A    between atoms: C_28  and  N_29 
ROOT
ATOM      1  C   UNK d   1      -0.552  -1.733  -1.467  0.00  0.00     0.161 C 
ATOM      2  N   UNK d   1       0.871  -1.943  -1.644  0.00  0.00    -0.332 N 
ATOM      3  C   UNK d   1       1.396  -0.755  -2.211  0.00  0.00     0.295 C 
ATOM      4  O   UNK d   1       2.414  -0.683  -2.907  0.00  0.00    -0.264 OA
ATOM      5  C   UNK d   1       0.494   0.336  -1.803  0.00  0.00     0.250 C 
ATOM      6  O   UNK d   1       0.592   1.556  -2.080  0.00  0.00    -0.282 OA
ATOM      7  C   UNK d   1      -0.540  -0.306  -1.001  0.00  0.00     0.062 C 
ATOM      8  C   UNK d   1      -1.255   0.283  -0.053  0.00  0.00     0.130 C 
ATOM      9  O   UNK d   1      -2.170  -0.555   0.627  0.00  0.00    -0.190 OA
ENDROOT
BRANCH   1  10
ATOM     10  C   UNK d   1      -1.262  -1.932  -2.739  0.00  0.00    -0.029 A 
ATOM     11  C   UNK d   1      -0.763  -2.816  -3.685  0.00  0.00     0.028 A 
ATOM     12  C   UNK d   1      -1.429  -3.043  -4.895  0.00  0.00     0.011 A 
ATOM     13 Br   UNK d   1      -0.709  -4.275  -6.182  0.00  0.00    -0.051 Br
ATOM     14  C   UNK d   1      -2.601  -2.387  -5.170  0.00  0.00     0.019 A 
ATOM     15  C   UNK d   1      -3.108  -1.509  -4.242  0.00  0.00     0.002 A 
ATOM     16  C   UNK d   1      -2.433  -1.296  -3.047  0.00  0.00     0.009 A 
ENDBRANCH   1  10
BRANCH   8  17
ATOM     17  C   UNK d   1      -1.141   1.694   0.299  0.00  0.00     0.007 A 
ATOM     18  C   UNK d   1      -1.623   2.720  -0.458  0.00  0.00    -0.046 A 
ATOM     19  C   UNK d   1      -1.425   4.057  -0.068  0.00  0.00     0.044 A 
ATOM     20  C   UNK d   1      -2.408   2.444  -1.684  0.00  0.00     0.049 C 
ATOM     21  C   UNK d   1      -0.751   4.399   1.073  0.00  0.00     0.068 A 
ATOM     22  C   UNK d   1      -0.264   3.363   1.841  0.00  0.00     0.037 A 
ATOM     23  C   UNK d   1      -0.451   2.057   1.471  0.00  0.00     0.017 A 
BRANCH  21  24
ATOM     24  O   UNK d   1      -0.553   5.723   1.465  0.00  0.00    -0.356 OA
ATOM     25  C   UNK d   1       0.145   6.023   2.646  0.00  0.00     0.210 C 
ENDBRANCH  21  24
ENDBRANCH   8  17
BRANCH   2  26
ATOM     26  C   UNK d   1       1.566  -3.164  -1.294  0.00  0.00     0.129 C 
BRANCH  26  27
ATOM     27  C   UNK d   1       2.137  -3.155   0.089  0.00  0.00     0.048 C 
BRANCH  27  28
ATOM     28  C   UNK d   1       1.162  -2.992   1.192  0.00  0.00     0.236 C 
BRANCH  28  29
ATOM     29  N   UNK d   1       1.711  -2.976   2.501  0.00  0.00    -0.067 N 
ATOM     30  C   UNK d   1       0.960  -2.133   3.446  0.00  0.00     0.261 C 
ATOM     31  C   UNK d   1       1.957  -1.784   4.553  0.00  0.00     0.195 C 
ATOM     32  O   UNK d   1       3.102  -2.557   4.484  0.00  0.00    -0.388 OA
ATOM     33  C   UNK d   1       2.785  -3.913   4.399  0.00  0.00     0.195 C 
ATOM     34  C   UNK d   1       1.937  -4.216   3.150  0.00  0.00     0.261 C 
ATOM     35  H   UNK d   1       2.660  -2.497   2.428  0.00  0.00     0.280 HD
ENDBRANCH  28  29
ENDBRANCH  27  28
ENDBRANCH  26  27
ENDBRANCH   2  26
TORSDOF 7
