REMARK  4 active torsions:
REMARK  status: ('A' for Active; 'I' for Inactive)
REMARK    1  A    between atoms: C_4  and  C_8 
REMARK       I    between atoms: C_8  and  N_10 
REMARK    2  A    between atoms: N_10  and  C_11 
REMARK    3  A    between atoms: C_19  and  C_22 
REMARK    4  A    between atoms: C_22  and  C_23 
ROOT
ATOM      1  C   UNK d   1      -0.241  -0.254   1.294  0.00  0.00     0.105 C 
ATOM      2  C   UNK d   1       0.412  -1.574   0.932  0.00  0.00     0.152 C 
ATOM      3  N   UNK d   1       1.648  -1.160   0.297  0.00  0.00    -0.335 N 
ATOM      4  C   UNK d   1       1.856   0.266   0.446  0.00  0.00     0.181 C 
ATOM      5  C   UNK d   1       0.952   0.590   1.643  0.00  0.00     0.061 C 
ATOM      6  C   UNK d   1       3.266   0.502   0.752  0.00  0.00     0.241 C 
ATOM      7  O   UNK d   1       3.613   1.170   1.737  0.00  0.00    -0.271 OA
ATOM      8  N   UNK d   1       4.236  -0.059  -0.118  0.00  0.00    -0.346 N 
ATOM      9  C   UNK d   1       3.914  -1.252  -0.868  0.00  0.00     0.181 C 
ATOM     10  C   UNK d   1       2.654  -1.888  -0.422  0.00  0.00     0.243 C 
ATOM     11  O   UNK d   1       2.446  -3.104  -0.674  0.00  0.00    -0.271 OA
ATOM     12  H   UNK d   1       5.187   0.356  -0.242  0.00  0.00     0.163 HD
ENDROOT
BRANCH   1  13
ATOM     13  N   UNK d   1      -1.167  -0.405   2.402  0.00  0.00    -0.351 N 
ATOM     14  C   UNK d   1      -2.511  -0.043   2.180  0.00  0.00     0.252 C 
ATOM     15  O   UNK d   1      -2.864   0.401   1.026  0.00  0.00    -0.268 OA
ATOM     16  H   UNK d   1      -0.877  -0.756   3.325  0.00  0.00     0.163 HD
BRANCH  14  17
ATOM     17  C   UNK d   1      -3.524  -0.153   3.216  0.00  0.00     0.033 A 
ATOM     18  C   UNK d   1      -4.773   0.431   3.043  0.00  0.00     0.036 A 
ATOM     19  C   UNK d   1      -5.731   0.326   4.013  0.00  0.00     0.011 A 
ATOM     20 Br   UNK d   1      -7.447   1.135   3.763  0.00  0.00    -0.051 Br
ATOM     21  C   UNK d   1      -5.499  -0.351   5.176  0.00  0.00     0.019 A 
ATOM     22  C   UNK d   1      -4.266  -0.930   5.349  0.00  0.00     0.002 A 
ATOM     23  C   UNK d   1      -3.288  -0.829   4.372  0.00  0.00     0.017 A 
ENDBRANCH  14  17
ENDBRANCH   1  13
BRANCH   9  24
ATOM     24  C   UNK d   1       3.936  -1.021  -2.364  0.00  0.00     0.073 C 
BRANCH  24  25
ATOM     25  C   UNK d   1       2.976   0.003  -2.808  0.00  0.00    -0.056 A 
ATOM     26  C   UNK d   1       1.690  -0.366  -3.159  0.00  0.00     0.007 A 
ATOM     27  C   UNK d   1       0.787   0.585  -3.575  0.00  0.00     0.001 A 
ATOM     28  C   UNK d   1       1.105   1.927  -3.664  0.00  0.00     0.000 A 
ATOM     29  C   UNK d   1       2.386   2.298  -3.315  0.00  0.00     0.001 A 
ATOM     30  C   UNK d   1       3.306   1.357  -2.895  0.00  0.00     0.007 A 
ENDBRANCH  24  25
ENDBRANCH   9  24
TORSDOF 4
