REMARK  6 active torsions:
REMARK  status: ('A' for Active; 'I' for Inactive)
REMARK    1  A    between atoms: C_4  and  C_8 
REMARK    2  A    between atoms: N_9  and  C_28 
REMARK    3  A    between atoms: C_15  and  C_17 
REMARK    4  A    between atoms: C_28  and  C_29 
REMARK    5  A    between atoms: C_29  and  C_30 
REMARK    6  A    between atoms: C_30  and  N_31 
ROOT
ATOM      1  C   UNK d   1      -1.212   0.382   0.859  0.00  0.00     0.161 C 
ATOM      2  N   UNK d   1      -0.595   1.626   1.276  0.00  0.00    -0.332 N 
ATOM      3  C   UNK d   1       0.571   1.301   2.064  0.00  0.00     0.295 C 
ATOM      4  O   UNK d   1       1.127   1.999   2.920  0.00  0.00    -0.264 OA
ATOM      5  C   UNK d   1       0.950  -0.039   1.626  0.00  0.00     0.251 C 
ATOM      6  O   UNK d   1       1.912  -0.758   2.030  0.00  0.00    -0.282 OA
ATOM      7  C   UNK d   1       0.010  -0.462   0.601  0.00  0.00     0.064 C 
ATOM      8  C   UNK d   1       0.160  -1.401  -0.319  0.00  0.00     0.149 C 
ATOM      9  O   UNK d   1      -0.947  -1.668  -1.174  0.00  0.00    -0.189 OA
ENDROOT
BRANCH   1  10
ATOM     10  C   UNK d   1      -2.068  -0.248   1.873  0.00  0.00    -0.029 A 
ATOM     11  C   UNK d   1      -3.322  -0.715   1.468  0.00  0.00     0.028 A 
ATOM     12  C   UNK d   1      -4.161  -1.310   2.358  0.00  0.00     0.011 A 
ATOM     13 Br   UNK d   1      -5.870  -1.941   1.783  0.00  0.00    -0.051 Br
ATOM     14  C   UNK d   1      -3.799  -1.468   3.674  0.00  0.00     0.019 A 
ATOM     15  C   UNK d   1      -2.572  -1.020   4.104  0.00  0.00     0.002 A 
ATOM     16  C   UNK d   1      -1.715  -0.412   3.195  0.00  0.00     0.009 A 
ENDBRANCH   1  10
BRANCH   8  17
ATOM     17  C   UNK d   1       1.396  -2.128  -0.469  0.00  0.00     0.102 A 
ATOM     18  N   UNK d   1       2.639  -1.638  -0.661  0.00  0.00    -0.302 N 
ATOM     19  C   UNK d   1       3.507  -2.678  -0.712  0.00  0.00     0.140 A 
ATOM     20  C   UNK d   1       3.145  -0.403  -0.818  0.00  0.00     0.099 A 
ATOM     21  N   UNK d   1       2.822  -3.844  -0.552  0.00  0.00    -0.233 NA
ATOM     22  C   UNK d   1       4.858  -2.555  -0.909  0.00  0.00    -0.015 A 
ATOM     23  C   UNK d   1       1.523  -3.492  -0.404  0.00  0.00     0.063 A 
ATOM     24  C   UNK d   1       0.414  -4.465  -0.202  0.00  0.00     0.073 C 
ATOM     25  C   UNK d   1       5.367  -1.285  -1.068  0.00  0.00     0.012 A 
ATOM     26  C   UNK d   1       5.768  -3.736  -0.954  0.00  0.00     0.052 C 
ATOM     27  C   UNK d   1       4.487  -0.223  -1.019  0.00  0.00     0.018 A 
ENDBRANCH   8  17
BRANCH   2  28
ATOM     28  C   UNK d   1      -1.056   2.970   0.972  0.00  0.00     0.129 C 
BRANCH  28  29
ATOM     29  C   UNK d   1      -0.478   3.550  -0.273  0.00  0.00     0.048 C 
BRANCH  29  30
ATOM     30  C   UNK d   1      -0.771   2.770  -1.530  0.00  0.00     0.235 C 
BRANCH  30  31
ATOM     31  N   UNK d   1      -0.170   3.430  -2.665  0.00  0.00    -0.079 N 
ATOM     32  C   UNK d   1       1.018   2.717  -3.097  0.00  0.00     0.269 C 
ATOM     33  C   UNK d   1      -1.106   3.382  -3.771  0.00  0.00     0.269 C 
ATOM     34  H   UNK d   1       0.020   4.440  -2.487  0.00  0.00     0.278 HD
ENDBRANCH  30  31
ENDBRANCH  29  30
ENDBRANCH  28  29
ENDBRANCH   2  28
TORSDOF 6
