# created with PyMOL 2.3.2
@<TRIPOS>MOLECULE
1285
60 63 1                 
SMALL
USER_CHARGES
@<TRIPOS>ATOM
1	  Br	-5.870	-1.941	1.783	Br	1	UNK0	0.000	
2	   C	-4.161	-1.310	2.358	C.2	1	UNK0	0.000	
3	   C	-3.322	-0.715	1.468	C.2	1	UNK0	0.000	
4	   C	-2.068	-0.248	1.873	C.2	1	UNK0	0.000	
5	   C	-1.715	-0.412	3.195	C.2	1	UNK0	0.000	
6	   C	-2.572	-1.020	4.104	C.2	1	UNK0	0.000	
7	   C	-3.799	-1.468	3.674	C.2	1	UNK0	0.000	
8	   C	-1.212	0.382	0.859	C.3	1	UNK0	0.000	
9	   N	-0.595	1.626	1.276	N.pl3	1	UNK0	0.000	
10	   C	0.571	1.301	2.064	C.2	1	UNK0	0.000	
11	   O	1.127	1.999	2.920	O.2	1	UNK0	0.000	
12	   C	0.950	-0.039	1.626	C.2	1	UNK0	0.000	
13	   O	1.912	-0.758	2.030	O.2	1	UNK0	0.000	
14	   C	0.010	-0.462	0.601	C.2	1	UNK0	0.000	
15	   C	0.160	-1.401	-0.319	C.2	1	UNK0	0.000	
16	   O	-0.947	-1.668	-1.174	O.2	1	UNK0	0.000	
17	   C	1.396	-2.128	-0.469	C.2	1	UNK0	0.000	
18	   N	2.639	-1.638	-0.661	N.pl3	1	UNK0	0.000	
19	   C	3.507	-2.678	-0.712	C.2	1	UNK0	0.000	
20	   N	2.822	-3.844	-0.552	N.2	1	UNK0	0.000	
21	   C	1.523	-3.492	-0.404	C.2	1	UNK0	0.000	
22	   C	0.414	-4.465	-0.202	C.3	1	UNK0	0.000	
23	   C	4.858	-2.555	-0.909	C.2	1	UNK0	0.000	
24	   C	5.367	-1.285	-1.068	C.2	1	UNK0	0.000	
25	   C	4.487	-0.223	-1.019	C.2	1	UNK0	0.000	
26	   C	3.145	-0.403	-0.818	C.2	1	UNK0	0.000	
27	   C	5.768	-3.736	-0.954	C.3	1	UNK0	0.000	
28	   C	-1.056	2.970	0.972	C.3	1	UNK0	0.000	
29	   C	-0.478	3.550	-0.273	C.3	1	UNK0	0.000	
30	   C	-0.771	2.770	-1.530	C.3	1	UNK0	0.000	
31	   N	-0.170	3.430	-2.665	N.4	1	UNK0	0.000	
32	   C	1.018	2.717	-3.097	C.3	1	UNK0	0.000	
33	   C	-1.106	3.382	-3.771	C.3	1	UNK0	0.000	
34	   H	-3.661	-0.616	0.437	 H	1	UNK0	0.000	
35	   H	-0.740	-0.062	3.550	 H	1	UNK0	0.000	
36	   H	-2.281	-1.144	5.149	 H	1	UNK0	0.000	
37	   H	-4.479	-1.946	4.376	 H	1	UNK0	0.000	
38	   H	-1.794	0.509	-0.079	 H	1	UNK0	0.000	
39	   H	-0.277	-4.455	-1.059	 H	1	UNK0	0.000	
40	   H	-0.148	-4.240	0.726	 H	1	UNK0	0.000	
41	   H	0.799	-5.490	-0.105	 H	1	UNK0	0.000	
42	   H	6.441	-1.136	-1.228	 H	1	UNK0	0.000	
43	   H	4.903	0.796	-1.148	 H	1	UNK0	0.000	
44	   H	2.460	0.439	-0.784	 H	1	UNK0	0.000	
45	   H	5.180	-4.662	-0.893	 H	1	UNK0	0.000	
46	   H	6.536	-3.668	-0.145	 H	1	UNK0	0.000	
47	   H	6.247	-3.706	-1.968	 H	1	UNK0	0.000	
48	   H	-0.756	3.614	1.822	 H	1	UNK0	0.000	
49	   H	-2.163	3.012	0.930	 H	1	UNK0	0.000	
50	   H	0.626	3.705	-0.195	 H	1	UNK0	0.000	
51	   H	-0.896	4.568	-0.435	 H	1	UNK0	0.000	
52	   H	-0.345	1.746	-1.498	 H	1	UNK0	0.000	
53	   H	-1.847	2.688	-1.700	 H	1	UNK0	0.000	
54	   H	0.020	4.440	-2.487	 H	1	UNK0	0.000	
55	   H	1.205	2.893	-4.194	 H	1	UNK0	0.000	
56	   H	0.746	1.622	-3.049	 H	1	UNK0	0.000	
57	   H	1.900	2.913	-2.484	 H	1	UNK0	0.000	
58	   H	-0.692	3.915	-4.666	 H	1	UNK0	0.000	
59	   H	-2.103	3.781	-3.490	 H	1	UNK0	0.000	
60	   H	-1.231	2.315	-4.046	 H	1	UNK0	0.000	
@<TRIPOS>BOND
1 1 2 1
2 2 3 2
3 2 7 1
4 3 4 1
5 4 5 2
6 4 8 1
7 5 6 1
8 6 7 2
9 8 9 1
10 8 14 1
11 9 10 1
12 9 28 1
13 10 11 2
14 10 12 1
15 12 13 2
16 12 14 1
17 14 15 2
18 15 16 1
19 15 17 1
20 17 18 1
21 17 21 2
22 18 19 1
23 18 26 1
24 19 20 2
25 19 23 1
26 20 21 1
27 21 22 1
28 23 24 2
29 23 27 1
30 24 25 1
31 25 26 2
32 28 29 1
33 29 30 1
34 30 31 1
35 31 32 1
36 31 33 1
37 3 34 1
38 5 35 1
39 6 36 1
40 7 37 1
41 8 38 1
42 22 39 1
43 22 40 1
44 22 41 1
45 24 42 1
46 25 43 1
47 26 44 1
48 27 45 1
49 27 46 1
50 27 47 1
51 28 48 1
52 28 49 1
53 29 50 1
54 29 51 1
55 30 52 1
56 30 53 1
57 31 54 1
58 32 55 1
59 32 56 1
60 32 57 1
61 33 58 1
62 33 59 1
63 33 60 1
@<TRIPOS>SUBSTRUCTURE
1	UNK0	1	GROUP	1 ****	UNK
