# created with PyMOL 2.3.2
@<TRIPOS>MOLECULE
1295
39 42 1                 
SMALL
USER_CHARGES
@<TRIPOS>ATOM
1	  Br	3.681	-1.057	-4.910	Br	1	UNK0	0.000	
2	   C	2.877	-0.509	-3.251	C.2	1	UNK0	0.000	
3	   C	3.269	0.645	-2.623	C.2	1	UNK0	0.000	
4	   C	2.660	1.015	-1.411	C.2	1	UNK0	0.000	
5	   C	1.685	0.246	-0.850	C.2	1	UNK0	0.000	
6	   C	1.300	-0.907	-1.487	C.2	1	UNK0	0.000	
7	   C	1.902	-1.288	-2.699	C.2	1	UNK0	0.000	
8	   C	1.030	0.606	0.404	C.3	1	UNK0	0.000	
9	   C	-0.303	1.154	0.283	C.2	1	UNK0	0.000	
10	   C	-1.331	0.694	1.057	C.2	1	UNK0	0.000	
11	   N	-1.145	-0.331	2.041	N.pl3	1	UNK0	0.000	
12	   C	0.177	-0.840	2.164	C.2	1	UNK0	0.000	
13	   C	1.175	-0.416	1.440	C.2	1	UNK0	0.000	
14	   C	2.414	-1.141	1.859	C.2	1	UNK0	0.000	
15	   O	3.546	-0.935	1.327	O.co2	1	UNK0	0.000	
16	   O	2.036	-1.984	2.852	O.3	1	UNK0	0.000	
17	   C	0.674	-1.921	3.107	C.3	1	UNK0	0.000	
18	   N	-2.584	1.232	0.904	N.pl3	1	UNK0	0.000	
19	   C	-2.805	2.199	0.007	C.2	1	UNK0	0.000	
20	   O	-3.967	2.680	-0.117	O.2	1	UNK0	0.000	
21	   N	-1.788	2.645	-0.749	N.pl3	1	UNK0	0.000	
22	   C	-0.545	2.177	-0.663	C.2	1	UNK0	0.000	
23	   O	0.412	2.588	-1.365	O.2	1	UNK0	0.000	
24	   C	-2.078	3.704	-1.717	C.3	1	UNK0	0.000	
25	   C	-3.636	0.699	1.757	C.3	1	UNK0	0.000	
26	   H	4.039	1.239	-3.079	 H	1	UNK0	0.000	
27	   H	3.032	1.938	-0.980	 H	1	UNK0	0.000	
28	   H	0.540	-1.592	-1.135	 H	1	UNK0	0.000	
29	   H	1.610	-2.194	-3.214	 H	1	UNK0	0.000	
30	   H	1.663	1.485	0.808	 H	1	UNK0	0.000	
31	   H	-1.951	-0.653	2.606	 H	1	UNK0	0.000	
32	   H	0.421	-1.655	4.152	 H	1	UNK0	0.000	
33	   H	0.222	-2.901	2.845	 H	1	UNK0	0.000	
34	   H	-1.154	4.256	-1.982	 H	1	UNK0	0.000	
35	   H	-2.791	4.416	-1.293	 H	1	UNK0	0.000	
36	   H	-2.552	3.205	-2.585	 H	1	UNK0	0.000	
37	   H	-4.561	1.282	1.653	 H	1	UNK0	0.000	
38	   H	-3.753	-0.370	1.557	 H	1	UNK0	0.000	
39	   H	-3.292	0.869	2.819	 H	1	UNK0	0.000	
@<TRIPOS>BOND
1 1 2 1
2 2 3 2
3 2 7 1
4 3 4 1
5 4 5 2
6 5 6 1
7 5 8 1
8 6 7 2
9 8 9 1
10 8 13 1
11 9 10 2
12 9 22 1
13 10 11 1
14 10 18 1
15 11 12 1
16 12 13 2
17 12 17 1
18 13 14 1
19 14 15 2
20 14 16 1
21 16 17 1
22 18 19 1
23 18 25 1
24 19 20 2
25 19 21 1
26 21 22 1
27 21 24 1
28 22 23 2
29 3 26 1
30 4 27 1
31 6 28 1
32 7 29 1
33 8 30 1
34 11 31 1
35 17 32 1
36 17 33 1
37 24 34 1
38 24 35 1
39 24 36 1
40 25 37 1
41 25 38 1
42 25 39 1
@<TRIPOS>SUBSTRUCTURE
1	UNK0	1	GROUP	1 ****	UNK
