REMARK  1 active torsions:
REMARK  status: ('A' for Active; 'I' for Inactive)
REMARK    1  A    between atoms: C_5  and  C_8 
ROOT
ATOM      1  C   UNK d   1       1.030   0.606   0.404  0.00  0.00     0.102 A 
ATOM      2  C   UNK d   1      -0.303   1.154   0.283  0.00  0.00     0.068 A 
ATOM      3  C   UNK d   1      -1.331   0.694   1.057  0.00  0.00     0.124 A 
ATOM      4  N   UNK d   1      -1.145  -0.331   2.041  0.00  0.00    -0.343 N 
ATOM      5  C   UNK d   1       0.177  -0.840   2.164  0.00  0.00     0.048 A 
ATOM      6  C   UNK d   1       1.175  -0.416   1.440  0.00  0.00     0.055 A 
ATOM      7  C   UNK d   1       2.414  -1.141   1.859  0.00  0.00     0.292 A 
ATOM      8  O   UNK d   1       3.546  -0.935   1.327  0.00  0.00    -0.259 OA
ATOM      9  O   UNK d   1       2.036  -1.984   2.852  0.00  0.00    -0.312 OA
ATOM     10  C   UNK d   1       0.674  -1.921   3.107  0.00  0.00     0.237 A 
ATOM     11  N   UNK d   1      -2.584   1.232   0.904  0.00  0.00    -0.289 N 
ATOM     12  C   UNK d   1      -2.805   2.199   0.007  0.00  0.00     0.332 A 
ATOM     13  O   UNK d   1      -3.967   2.680  -0.117  0.00  0.00    -0.246 OA
ATOM     14  N   UNK d   1      -1.788   2.645  -0.749  0.00  0.00    -0.270 N 
ATOM     15  C   UNK d   1      -0.545   2.177  -0.663  0.00  0.00     0.262 A 
ATOM     16  O   UNK d   1       0.412   2.588  -1.365  0.00  0.00    -0.267 OA
ATOM     17  C   UNK d   1      -2.078   3.704  -1.717  0.00  0.00     0.164 C 
ATOM     18  C   UNK d   1      -3.636   0.699   1.757  0.00  0.00     0.163 C 
ATOM     19  H   UNK d   1      -1.951  -0.653   2.606  0.00  0.00     0.167 HD
ENDROOT
BRANCH   1  20
ATOM     20  C   UNK d   1       1.685   0.246  -0.850  0.00  0.00    -0.045 A 
ATOM     21  C   UNK d   1       2.660   1.015  -1.411  0.00  0.00     0.009 A 
ATOM     22  C   UNK d   1       3.269   0.645  -2.623  0.00  0.00     0.019 A 
ATOM     23  C   UNK d   1       2.877  -0.509  -3.251  0.00  0.00     0.011 A 
ATOM     24 Br   UNK d   1       3.681  -1.057  -4.910  0.00  0.00    -0.051 Br
ATOM     25  C   UNK d   1       1.902  -1.288  -2.699  0.00  0.00     0.019 A 
ATOM     26  C   UNK d   1       1.300  -0.907  -1.487  0.00  0.00     0.009 A 
ENDBRANCH   1  20
TORSDOF 1
