REMARK  8 active torsions:
REMARK  status: ('A' for Active; 'I' for Inactive)
REMARK    1  A    between atoms: C_3  and  O_32 
REMARK    2  A    between atoms: C_6  and  C_8 
REMARK    3  A    between atoms: N_9  and  N_10 
REMARK       I    between atoms: N_10  and  C_11 
REMARK    4  A    between atoms: C_11  and  C_13 
REMARK    5  A    between atoms: N_14  and  C_25 
REMARK    6  A    between atoms: C_17  and  C_18 
REMARK    7  A    between atoms: C_18  and  N_19 
REMARK    8  A    between atoms: C_29  and  N_30 
ROOT
ATOM      1  C   UNK d   1      -1.948  -0.703   1.330  0.00  0.00     0.160 A 
ATOM      2  N   UNK d   1      -3.287  -0.479   1.525  0.00  0.00    -0.184 N 
ATOM      3  N   UNK d   1      -3.496  -0.682   2.809  0.00  0.00    -0.058 NA
ATOM      4  N   UNK d   1      -2.410  -1.010   3.428  0.00  0.00    -0.132 NA
ATOM      5  C   UNK d   1      -1.384  -1.040   2.531  0.00  0.00     0.121 A 
ENDROOT
BRANCH   1   6
ATOM      6  C   UNK d   1      -1.361  -0.566   0.003  0.00  0.00     0.292 C 
ATOM      7  N   UNK d   1      -0.009  -0.773  -0.351  0.00  0.00    -0.242 N 
ATOM      8  H   UNK d   1       0.759  -1.056   0.297  0.00  0.00     0.192 HD
ATOM      9  O   UNK d   1      -2.111  -0.221  -0.988  0.00  0.00    -0.264 OA
BRANCH   7  10
ATOM     10  N   UNK d   1       0.328  -0.574  -1.732  0.00  0.00    -0.183 NA
ATOM     11  C   UNK d   1       1.041   0.414  -2.111  0.00  0.00     0.150 C 
BRANCH  11  12
ATOM     12  C   UNK d   1       1.386   0.617  -3.526  0.00  0.00    -0.014 A 
ATOM     13  C   UNK d   1       2.146   1.673  -3.921  0.00  0.00     0.035 A 
ATOM     14  C   UNK d   1       2.470   1.863  -5.252  0.00  0.00     0.046 A 
ATOM     15  C   UNK d   1       2.035   0.992  -6.219  0.00  0.00     0.100 A 
ATOM     16 Br   UNK d   1       3.546   3.360  -5.798  0.00  0.00    -0.048 Br
ATOM     17  C   UNK d   1       1.263  -0.081  -5.822  0.00  0.00     0.046 A 
ATOM     18 Br   UNK d   1       0.652  -1.299  -7.159  0.00  0.00    -0.048 Br
ATOM     19  C   UNK d   1       0.945  -0.262  -4.491  0.00  0.00     0.035 A 
BRANCH  15  20
ATOM     20  O   UNK d   1       2.381   1.215  -7.544  0.00  0.00    -0.358 OA
ATOM     21  H   UNK d   1       2.095   0.616  -8.298  0.00  0.00     0.217 HD
ENDBRANCH  15  20
ENDBRANCH  11  12
ENDBRANCH   7  10
ENDBRANCH   1   6
BRANCH   2  22
ATOM     22  C   UNK d   1      -4.240  -0.109   0.550  0.00  0.00     0.230 A 
ATOM     23  N   UNK d   1      -4.934  -0.884  -0.320  0.00  0.00    -0.081 NA
ATOM     24  O   UNK d   1      -5.697  -0.134  -1.031  0.00  0.00    -0.103 OA
ATOM     25  N   UNK d   1      -5.587   1.118  -0.719  0.00  0.00    -0.083 NA
ATOM     26  C   UNK d   1      -4.669   1.178   0.283  0.00  0.00     0.201 A 
BRANCH  26  27
ATOM     27  N   UNK d   1      -4.255   2.377   0.916  0.00  0.00    -0.379 N 
ATOM     28  H   UNK d   1      -3.974   2.330   1.913  0.00  0.00     0.158 HD
ATOM     29  H   UNK d   1      -4.215   3.298   0.442  0.00  0.00     0.158 HD
ENDBRANCH  26  27
ENDBRANCH   2  22
BRANCH   5  30
ATOM     30  C   UNK d   1       0.020  -1.370   2.772  0.00  0.00     0.336 C 
BRANCH  30  31
ATOM     31  N   UNK d   1       0.328  -1.679   4.160  0.00  0.00     0.098 N 
ATOM     32  C   UNK d   1       1.724  -2.078   4.288  0.00  0.00     0.299 C 
ATOM     33  C   UNK d   1       2.615  -0.906   4.588  0.00  0.00     0.198 C 
ATOM     34  O   UNK d   1       2.090   0.315   4.207  0.00  0.00    -0.388 OA
ATOM     35  C   UNK d   1       0.870   0.624   4.789  0.00  0.00     0.198 C 
ATOM     36  C   UNK d   1       0.032  -0.595   5.064  0.00  0.00     0.299 C 
ENDBRANCH  30  31
ENDBRANCH   5  30
TORSDOF 8
