# created with PyMOL 2.3.2
@<TRIPOS>MOLECULE
1300
31 34 1                 
SMALL
USER_CHARGES
@<TRIPOS>ATOM
1	  Br	1.702	-2.059	-1.234	Br	1	UNK0	0.000	
2	   C	0.716	-2.087	0.408	C.2	1	UNK0	0.000	
3	   C	0.026	-0.942	0.734	C.2	1	UNK0	0.000	
4	   C	-0.688	-0.969	1.933	C.2	1	UNK0	0.000	
5	   C	-0.687	-2.091	2.728	C.2	1	UNK0	0.000	
6	   C	0.008	-3.243	2.399	C.2	1	UNK0	0.000	
7	   C	0.717	-3.223	1.214	C.2	1	UNK0	0.000	
8	   N	-0.012	-4.389	3.241	N.pl3	1	UNK0	0.000	
9	   O	-0.676	-4.336	4.291	O.2	1	UNK0	0.000	
10	   O	0.653	-5.554	2.973	O.2	1	UNK0	0.000	
11	   N	0.037	0.200	-0.109	N.pl3	1	UNK0	0.000	
12	   C	1.104	1.028	-0.533	C.2	1	UNK0	0.000	
13	   O	2.319	0.742	-0.518	O.2	1	UNK0	0.000	
14	   C	0.589	2.327	-1.016	C.3	1	UNK0	0.000	
15	   C	0.678	3.290	0.148	C.3	1	UNK0	0.000	
16	   O	-0.402	2.815	0.939	O.3	1	UNK0	0.000	
17	   C	-1.414	3.040	-0.032	C.3	1	UNK0	0.000	
18	   C	-0.921	2.141	-1.134	C.3	1	UNK0	0.000	
19	   C	-1.140	0.738	-0.717	C.2	1	UNK0	0.000	
20	   O	-2.226	0.091	-0.873	O.2	1	UNK0	0.000	
21	   C	-1.170	4.469	-0.320	C.2	1	UNK0	0.000	
22	   C	0.149	4.622	-0.237	C.2	1	UNK0	0.000	
23	   H	-1.242	-0.079	2.219	 H	1	UNK0	0.000	
24	   H	-1.246	-2.118	3.669	 H	1	UNK0	0.000	
25	   H	1.275	-4.081	0.903	 H	1	UNK0	0.000	
26	   H	1.051	2.685	-1.930	 H	1	UNK0	0.000	
27	   H	1.625	3.286	0.666	 H	1	UNK0	0.000	
28	   H	-2.405	2.806	0.344	 H	1	UNK0	0.000	
29	   H	-1.293	2.369	-2.128	 H	1	UNK0	0.000	
30	   H	-1.918	5.214	-0.548	 H	1	UNK0	0.000	
31	   H	0.737	5.524	-0.410	 H	1	UNK0	0.000	
@<TRIPOS>BOND
1 1 2 1
2 2 3 2
3 2 7 1
4 3 4 1
5 3 11 1
6 4 5 2
7 5 6 1
8 6 7 2
9 6 8 1
10 8 9 2
11 8 10 1
12 11 12 1
13 11 19 1
14 12 13 2
15 12 14 1
16 14 15 1
17 14 18 1
18 15 16 1
19 15 22 1
20 16 17 1
21 17 18 1
22 17 21 1
23 18 19 1
24 19 20 2
25 21 22 2
26 4 23 1
27 5 24 1
28 7 25 1
29 14 26 1
30 15 27 1
31 17 28 1
32 18 29 1
33 21 30 1
34 22 31 1
@<TRIPOS>SUBSTRUCTURE
1	UNK0	1	GROUP	1 ****	UNK
