REMARK  2 active torsions:
REMARK  status: ('A' for Active; 'I' for Inactive)
REMARK    1  A    between atoms: C_3  and  N_11 
REMARK    2  A    between atoms: C_6  and  N_8 
ROOT
ATOM      1  N   UNK d   1       0.037   0.200  -0.109  0.00  0.00    -0.250 N 
ATOM      2  C   UNK d   1       1.104   1.028  -0.533  0.00  0.00     0.239 C 
ATOM      3  O   UNK d   1       2.319   0.742  -0.518  0.00  0.00    -0.272 OA
ATOM      4  C   UNK d   1       0.589   2.327  -1.016  0.00  0.00     0.127 C 
ATOM      5  C   UNK d   1       0.678   3.290   0.148  0.00  0.00     0.159 C 
ATOM      6  O   UNK d   1      -0.402   2.815   0.939  0.00  0.00    -0.371 OA
ATOM      7  C   UNK d   1      -1.414   3.040  -0.032  0.00  0.00     0.159 C 
ATOM      8  C   UNK d   1      -0.921   2.141  -1.134  0.00  0.00     0.127 C 
ATOM      9  C   UNK d   1      -1.140   0.738  -0.717  0.00  0.00     0.239 C 
ATOM     10  O   UNK d   1      -2.226   0.091  -0.873  0.00  0.00    -0.272 OA
ATOM     11  C   UNK d   1      -1.170   4.469  -0.320  0.00  0.00     0.004 C 
ATOM     12  C   UNK d   1       0.149   4.622  -0.237  0.00  0.00     0.004 C 
ENDROOT
BRANCH   1  13
ATOM     13  C   UNK d   1       0.026  -0.942   0.734  0.00  0.00     0.062 A 
ATOM     14  C   UNK d   1       0.716  -2.087   0.408  0.00  0.00     0.040 A 
ATOM     15 Br   UNK d   1       1.702  -2.059  -1.234  0.00  0.00    -0.049 Br
ATOM     16  C   UNK d   1       0.717  -3.223   1.214  0.00  0.00     0.057 A 
ATOM     17  C   UNK d   1       0.008  -3.243   2.399  0.00  0.00     0.104 A 
ATOM     18  C   UNK d   1      -0.687  -2.091   2.728  0.00  0.00     0.038 A 
ATOM     19  C   UNK d   1      -0.688  -0.969   1.933  0.00  0.00     0.034 A 
BRANCH  17  20
ATOM     20  N   UNK d   1      -0.012  -4.389   3.241  0.00  0.00    -0.116 N 
ATOM     21  O   UNK d   1      -0.676  -4.336   4.291  0.00  0.00    -0.532 OA
ATOM     22  O   UNK d   1       0.653  -5.554   2.973  0.00  0.00    -0.532 OA
ENDBRANCH  17  20
ENDBRANCH   1  13
TORSDOF 2
