REMARK  3 active torsions:
REMARK  status: ('A' for Active; 'I' for Inactive)
REMARK    1  A    between atoms: C_6  and  N_8 
REMARK    2  A    between atoms: C_12  and  C_21 
REMARK    3  A    between atoms: C_21  and  O_22 
ROOT
ATOM      1  N   UNK d   1       1.625  -0.344   0.261  0.00  0.00    -0.252 N 
ATOM      2  C   UNK d   1       1.701  -1.696   0.698  0.00  0.00     0.239 C 
ATOM      3  O   UNK d   1       2.235  -2.129   1.742  0.00  0.00    -0.272 OA
ATOM      4  C   UNK d   1       1.026  -2.579  -0.301  0.00  0.00     0.136 C 
ATOM      5  C   UNK d   1      -0.438  -2.705  -0.041  0.00  0.00     0.114 C 
ATOM      6  O   UNK d   1      -0.959  -1.490  -0.552  0.00  0.00    -0.358 OA
ATOM      7  C   UNK d   1      -0.440  -1.640  -1.863  0.00  0.00     0.089 C 
ATOM      8  C   UNK d   1       1.022  -1.733  -1.572  0.00  0.00     0.133 C 
ATOM      9  C   UNK d   1       1.553  -0.413  -1.157  0.00  0.00     0.239 C 
ATOM     10  O   UNK d   1       1.886   0.501  -1.940  0.00  0.00    -0.272 OA
ATOM     11  C   UNK d   1      -1.001  -2.986  -2.188  0.00  0.00     0.010 C 
ATOM     12  C   UNK d   1      -1.012  -3.661  -1.025  0.00  0.00     0.013 C 
ATOM     13  C   UNK d   1      -0.851  -0.565  -2.776  0.00  0.00     0.051 C 
ENDROOT
BRANCH   1  14
ATOM     14  C   UNK d   1       1.618   0.794   1.112  0.00  0.00     0.046 A 
ATOM     15  C   UNK d   1       1.667   0.698   2.488  0.00  0.00     0.031 A 
ATOM     16  C   UNK d   1       1.661   1.820   3.324  0.00  0.00     0.010 A 
ATOM     17  C   UNK d   1       1.604   3.089   2.796  0.00  0.00    -0.044 A 
ATOM     18  C   UNK d   1       1.555   3.201   1.426  0.00  0.00     0.019 A 
ATOM     19  C   UNK d   1       1.595   4.283   3.691  0.00  0.00     0.049 C 
ATOM     20 Br   UNK d   1       1.475   4.940   0.658  0.00  0.00    -0.051 Br
ATOM     21  C   UNK d   1       1.562   2.077   0.596  0.00  0.00     0.050 A 
ENDBRANCH   1  14
BRANCH   5  22
ATOM     22  C   UNK d   1      -0.823  -2.962   1.358  0.00  0.00     0.207 C 
BRANCH  22  23
ATOM     23  O   UNK d   1      -2.205  -3.037   1.515  0.00  0.00    -0.398 OA
ATOM     24  H   UNK d   1      -2.612  -2.173   1.804  0.00  0.00     0.209 HD
ENDBRANCH  22  23
ENDBRANCH   5  22
TORSDOF 3
