REMARK  6 active torsions:
REMARK  status: ('A' for Active; 'I' for Inactive)
REMARK    1  A    between atoms: C_4  and  C_8 
REMARK    2  A    between atoms: N_9  and  C_26 
REMARK    3  A    between atoms: C_15  and  C_17 
REMARK    4  A    between atoms: C_26  and  C_27 
REMARK    5  A    between atoms: C_27  and  C_28 
REMARK    6  A    between atoms: C_28  and  N_29 
ROOT
ATOM      1  C   UNK d   1      -0.481   0.734   1.814  0.00  0.00     0.161 C 
ATOM      2  N   UNK d   1      -0.203  -0.669   1.596  0.00  0.00    -0.332 N 
ATOM      3  C   UNK d   1      -0.744  -1.003   0.330  0.00  0.00     0.295 C 
ATOM      4  O   UNK d   1      -1.145  -2.125  -0.068  0.00  0.00    -0.264 OA
ATOM      5  C   UNK d   1      -0.748   0.237  -0.447  0.00  0.00     0.251 C 
ATOM      6  O   UNK d   1      -1.138   0.431  -1.621  0.00  0.00    -0.282 OA
ATOM      7  C   UNK d   1      -0.185   1.263   0.445  0.00  0.00     0.064 C 
ATOM      8  C   UNK d   1       0.397   2.374   0.055  0.00  0.00     0.153 C 
ATOM      9  O   UNK d   1       0.829   3.251   1.058  0.00  0.00    -0.188 OA
ENDROOT
BRANCH   1  10
ATOM     10  C   UNK d   1      -1.845   1.016   2.271  0.00  0.00    -0.029 A 
ATOM     11  C   UNK d   1      -2.989   0.530   1.691  0.00  0.00     0.028 A 
ATOM     12  C   UNK d   1      -4.266   0.826   2.172  0.00  0.00     0.011 A 
ATOM     13 Br   UNK d   1      -5.823   0.106   1.301  0.00  0.00    -0.051 Br
ATOM     14  C   UNK d   1      -4.411   1.639   3.275  0.00  0.00     0.019 A 
ATOM     15  C   UNK d   1      -3.279   2.141   3.878  0.00  0.00     0.002 A 
ATOM     16  C   UNK d   1      -2.027   1.842   3.393  0.00  0.00     0.009 A 
ENDBRANCH   1  10
BRANCH   8  17
ATOM     17  C   UNK d   1       0.606   2.704  -1.369  0.00  0.00     0.114 A 
ATOM     18  O   UNK d   1       0.361   3.817  -1.994  0.00  0.00    -0.307 OA
ATOM     19  C   UNK d   1       0.681   3.739  -3.266  0.00  0.00     0.086 A 
ATOM     20  C   UNK d   1       1.183   2.474  -3.525  0.00  0.00     0.001 A 
ATOM     21  C   UNK d   1       0.614   4.628  -4.324  0.00  0.00     0.038 A 
ATOM     22  C   UNK d   1       1.128   1.830  -2.304  0.00  0.00     0.054 A 
ATOM     23  C   UNK d   1       1.595   2.133  -4.795  0.00  0.00     0.014 A 
ATOM     24  C   UNK d   1       1.529   3.017  -5.848  0.00  0.00     0.001 A 
ATOM     25  C   UNK d   1       1.032   4.279  -5.607  0.00  0.00     0.003 A 
ENDBRANCH   8  17
BRANCH   2  26
ATOM     26  C   UNK d   1       0.509  -1.628   2.438  0.00  0.00     0.129 C 
BRANCH  26  27
ATOM     27  C   UNK d   1       1.996  -1.594   2.140  0.00  0.00     0.048 C 
BRANCH  27  28
ATOM     28  C   UNK d   1       2.309  -1.918   0.703  0.00  0.00     0.235 C 
BRANCH  28  29
ATOM     29  N   UNK d   1       3.720  -1.860   0.493  0.00  0.00    -0.079 N 
ATOM     30  C   UNK d   1       4.338  -0.686   1.072  0.00  0.00     0.269 C 
ATOM     31  C   UNK d   1       4.454  -3.005   0.940  0.00  0.00     0.269 C 
ATOM     32  H   UNK d   1       3.878  -1.782  -0.556  0.00  0.00     0.278 HD
ENDBRANCH  28  29
ENDBRANCH  27  28
ENDBRANCH  26  27
ENDBRANCH   2  26
TORSDOF 6
