# created with PyMOL 2.3.2
@<TRIPOS>MOLECULE
1310
54 57 1                 
SMALL
USER_CHARGES
@<TRIPOS>ATOM
1	  Br	-5.823	0.106	1.301	Br	1	UNK0	0.000	
2	   C	-4.266	0.826	2.172	C.2	1	UNK0	0.000	
3	   C	-2.989	0.530	1.691	C.2	1	UNK0	0.000	
4	   C	-1.845	1.016	2.271	C.2	1	UNK0	0.000	
5	   C	-2.027	1.842	3.393	C.2	1	UNK0	0.000	
6	   C	-3.279	2.141	3.878	C.2	1	UNK0	0.000	
7	   C	-4.411	1.639	3.275	C.2	1	UNK0	0.000	
8	   C	-0.481	0.734	1.814	C.3	1	UNK0	0.000	
9	   N	-0.203	-0.669	1.596	N.pl3	1	UNK0	0.000	
10	   C	-0.744	-1.003	0.330	C.2	1	UNK0	0.000	
11	   O	-1.145	-2.125	-0.068	O.2	1	UNK0	0.000	
12	   C	-0.748	0.237	-0.447	C.2	1	UNK0	0.000	
13	   O	-1.138	0.431	-1.621	O.2	1	UNK0	0.000	
14	   C	-0.185	1.263	0.445	C.2	1	UNK0	0.000	
15	   C	0.397	2.374	0.055	C.2	1	UNK0	0.000	
16	   O	0.829	3.251	1.058	O.2	1	UNK0	0.000	
17	   C	0.606	2.704	-1.369	C.2	1	UNK0	0.000	
18	   O	0.361	3.817	-1.994	O.3	1	UNK0	0.000	
19	   C	0.681	3.739	-3.266	C.2	1	UNK0	0.000	
20	   C	1.183	2.474	-3.525	C.2	1	UNK0	0.000	
21	   C	1.128	1.830	-2.304	C.2	1	UNK0	0.000	
22	   C	1.595	2.133	-4.795	C.2	1	UNK0	0.000	
23	   C	1.529	3.017	-5.848	C.2	1	UNK0	0.000	
24	   C	1.032	4.279	-5.607	C.2	1	UNK0	0.000	
25	   C	0.614	4.628	-4.324	C.2	1	UNK0	0.000	
26	   C	0.509	-1.628	2.438	C.3	1	UNK0	0.000	
27	   C	1.996	-1.594	2.140	C.3	1	UNK0	0.000	
28	   C	2.309	-1.918	0.703	C.3	1	UNK0	0.000	
29	   N	3.720	-1.860	0.493	N.4	1	UNK0	0.000	
30	   C	4.338	-0.686	1.072	C.3	1	UNK0	0.000	
31	   C	4.454	-3.005	0.940	C.3	1	UNK0	0.000	
32	   H	-2.909	-0.105	0.825	 H	1	UNK0	0.000	
33	   H	-1.139	2.243	3.873	 H	1	UNK0	0.000	
34	   H	-3.418	2.780	4.745	 H	1	UNK0	0.000	
35	   H	-5.420	1.866	3.646	 H	1	UNK0	0.000	
36	   H	0.239	1.154	2.558	 H	1	UNK0	0.000	
37	   H	1.451	0.827	-2.120	 H	1	UNK0	0.000	
38	   H	1.986	1.149	-4.991	 H	1	UNK0	0.000	
39	   H	1.839	2.796	-6.859	 H	1	UNK0	0.000	
40	   H	0.971	4.995	-6.429	 H	1	UNK0	0.000	
41	   H	0.230	5.632	-4.184	 H	1	UNK0	0.000	
42	   H	0.395	-1.411	3.518	 H	1	UNK0	0.000	
43	   H	0.130	-2.647	2.259	 H	1	UNK0	0.000	
44	   H	2.433	-2.424	2.743	 H	1	UNK0	0.000	
45	   H	2.459	-0.659	2.460	 H	1	UNK0	0.000	
46	   H	1.829	-1.202	-0.001	 H	1	UNK0	0.000	
47	   H	1.966	-2.949	0.460	 H	1	UNK0	0.000	
48	   H	3.878	-1.782	-0.556	 H	1	UNK0	0.000	
49	   H	5.274	-0.458	0.490	 H	1	UNK0	0.000	
50	   H	4.667	-0.909	2.103	 H	1	UNK0	0.000	
51	   H	3.634	0.155	1.009	 H	1	UNK0	0.000	
52	   H	4.739	-2.966	2.008	 H	1	UNK0	0.000	
53	   H	5.408	-3.048	0.378	 H	1	UNK0	0.000	
54	   H	3.927	-3.971	0.681	 H	1	UNK0	0.000	
@<TRIPOS>BOND
1 1 2 1
2 2 3 2
3 2 7 1
4 3 4 1
5 4 5 2
6 4 8 1
7 5 6 1
8 6 7 2
9 8 9 1
10 8 14 1
11 9 10 1
12 9 26 1
13 10 11 2
14 10 12 1
15 12 13 2
16 12 14 1
17 14 15 2
18 15 16 1
19 15 17 1
20 17 18 1
21 17 21 2
22 18 19 1
23 19 20 2
24 19 25 1
25 20 21 1
26 20 22 1
27 22 23 2
28 23 24 1
29 24 25 2
30 26 27 1
31 27 28 1
32 28 29 1
33 29 30 1
34 29 31 1
35 3 32 1
36 5 33 1
37 6 34 1
38 7 35 1
39 8 36 1
40 21 37 1
41 22 38 1
42 23 39 1
43 24 40 1
44 25 41 1
45 26 42 1
46 26 43 1
47 27 44 1
48 27 45 1
49 28 46 1
50 28 47 1
51 29 48 1
52 30 49 1
53 30 50 1
54 30 51 1
55 31 52 1
56 31 53 1
57 31 54 1
@<TRIPOS>SUBSTRUCTURE
1	UNK0	1	GROUP	1 ****	UNK
