REMARK  7 active torsions:
REMARK  status: ('A' for Active; 'I' for Inactive)
REMARK    1  A    between atoms: C_3  and  C_8 
REMARK    2  A    between atoms: C_8  and  N_9 
REMARK    3  A    between atoms: N_9  and  N_10 
REMARK       I    between atoms: N_10  and  C_11 
REMARK    4  A    between atoms: C_11  and  C_13 
REMARK    5  A    between atoms: N_16  and  C_24 
REMARK    6  A    between atoms: C_17  and  C_18 
REMARK    7  A    between atoms: C_28  and  N_29 
ROOT
ATOM      1  C   UNK d   1      -1.526  -1.396  -0.792  0.00  0.00     0.176 A 
ATOM      2  N   UNK d   1      -2.322  -2.420  -0.846  0.00  0.00    -0.124 NA
ATOM      3  N   UNK d   1      -2.613  -2.804   0.349  0.00  0.00    -0.058 NA
ATOM      4  N   UNK d   1      -1.998  -2.020   1.316  0.00  0.00    -0.191 N 
ATOM      5  C   UNK d   1      -1.313  -1.126   0.638  0.00  0.00     0.093 A 
ENDROOT
BRANCH   1   6
ATOM      6  C   UNK d   1      -0.740  -0.774  -1.778  0.00  0.00     0.294 C 
ATOM      7  N   UNK d   1      -0.451  -1.449  -3.138  0.00  0.00    -0.242 N 
ATOM      8  H   UNK d   1      -0.910  -2.347  -3.265  0.00  0.00     0.192 HD
ATOM      9  O   UNK d   1      -0.206   0.324  -1.669  0.00  0.00    -0.264 OA
BRANCH   7  10
ATOM     10  N   UNK d   1       0.369  -0.638  -3.719  0.00  0.00    -0.183 NA
BRANCH  10  11
ATOM     11  C   UNK d   1       1.371  -0.289  -4.367  0.00  0.00     0.151 C 
BRANCH  11  12
ATOM     12  C   UNK d   1       1.375   1.254  -4.503  0.00  0.00     0.000 A 
ATOM     13  C   UNK d   1       2.523   1.897  -4.107  0.00  0.00     0.022 A 
ATOM     14 Br   UNK d   1       4.091   0.900  -3.774  0.00  0.00    -0.050 Br
ATOM     15  C   UNK d   1       2.460   3.279  -3.902  0.00  0.00     0.020 A 
ATOM     16  C   UNK d   1       1.269   3.978  -4.121  0.00  0.00     0.001 A 
ATOM     17  C   UNK d   1       0.161   3.320  -4.537  0.00  0.00     0.001 A 
ATOM     18  C   UNK d   1       0.231   1.904  -4.720  0.00  0.00     0.014 A 
ENDBRANCH  11  12
ENDBRANCH  10  11
ENDBRANCH   7  10
ENDBRANCH   1   6
BRANCH   5  19
ATOM     19  C   UNK d   1      -0.576   0.100   0.931  0.00  0.00     0.179 C 
ATOM     20  N   UNK d   1       0.562   0.308   1.602  0.00  0.00    -0.407 N 
ATOM     21  C   UNK d   1       0.980   1.696   1.465  0.00  0.00     0.117 C 
ATOM     22  C   UNK d   1       1.082  -0.172   2.771  0.00  0.00     0.117 C 
ATOM     23  C   UNK d   1       1.354   2.177   2.835  0.00  0.00     0.021 C 
ATOM     24  C   UNK d   1       1.074   1.008   3.774  0.00  0.00     0.021 C 
ENDBRANCH   5  19
BRANCH   4  25
ATOM     25  C   UNK d   1      -2.195  -2.381   2.648  0.00  0.00     0.229 A 
ATOM     26  N   UNK d   1      -1.368  -3.308   3.282  0.00  0.00    -0.081 NA
ATOM     27  O   UNK d   1      -1.837  -3.535   4.444  0.00  0.00    -0.103 OA
ATOM     28  N   UNK d   1      -2.891  -2.858   4.670  0.00  0.00    -0.083 NA
ATOM     29  C   UNK d   1      -3.141  -2.121   3.551  0.00  0.00     0.201 A 
BRANCH  29  30
ATOM     30  N   UNK d   1      -4.286  -1.262   3.490  0.00  0.00    -0.379 N 
ATOM     31  H   UNK d   1      -4.229  -0.368   3.998  0.00  0.00     0.158 HD
ATOM     32  H   UNK d   1      -5.137  -1.559   3.017  0.00  0.00     0.158 HD
ENDBRANCH  29  30
ENDBRANCH   4  25
TORSDOF 7
