REMARK  7 active torsions:
REMARK  status: ('A' for Active; 'I' for Inactive)
REMARK    1  A    between atoms: C_4  and  C_8 
REMARK    2  A    between atoms: C_8  and  C_10 
REMARK    3  A    between atoms: C_10  and  N_11 
REMARK    4  A    between atoms: N_18  and  C_21 
REMARK    5  A    between atoms: C_19  and  N_20 
REMARK    6  A    between atoms: C_21  and  C_22 
REMARK    7  A    between atoms: C_22  and  N_23 
ROOT
ATOM      1  N   UNK d   1      -0.931   1.393   0.570  0.00  0.00    -0.175 N 
ATOM      2  C   UNK d   1      -1.859   0.659   1.266  0.00  0.00     0.079 A 
ATOM      3  C   UNK d   1      -1.276  -0.545   1.536  0.00  0.00     0.079 A 
ATOM      4  C   UNK d   1      -1.997  -1.514   2.240  0.00  0.00     0.032 A 
ATOM      5  C   UNK d   1      -3.284  -1.238   2.650  0.00  0.00     0.002 A 
ATOM      6  C   UNK d   1      -3.875  -0.023   2.380  0.00  0.00     0.002 A 
ATOM      7  C   UNK d   1      -3.145   0.938   1.676  0.00  0.00     0.032 A 
ATOM      8  N   UNK d   1      -0.029  -0.526   1.016  0.00  0.00    -0.179 N 
ATOM      9  C   UNK d   1       0.198   0.649   0.425  0.00  0.00     0.681 A 
ENDROOT
BRANCH   1  10
ATOM     10  C   UNK d   1      -1.132   2.761   0.143  0.00  0.00     0.216 C 
BRANCH  10  11
ATOM     11  C   UNK d   1      -2.006   2.897  -1.029  0.00  0.00     0.113 C 
ATOM     12  O   UNK d   1      -3.245   3.254  -0.777  0.00  0.00    -0.194 OA
BRANCH  11  13
ATOM     13  C   UNK d   1      -1.734   2.705  -2.430  0.00  0.00    -0.001 A 
ATOM     14  C   UNK d   1      -0.537   2.328  -2.968  0.00  0.00     0.033 A 
ATOM     15  C   UNK d   1      -0.359   2.151  -4.310  0.00  0.00     0.011 A 
ATOM     16 Br   UNK d   1       1.356   1.607  -5.024  0.00  0.00    -0.051 Br
ATOM     17  C   UNK d   1      -1.414   2.356  -5.170  0.00  0.00     0.019 A 
ATOM     18  C   UNK d   1      -2.645   2.736  -4.689  0.00  0.00     0.002 A 
ATOM     19  C   UNK d   1      -2.785   2.903  -3.339  0.00  0.00     0.014 A 
ENDBRANCH  11  13
ENDBRANCH  10  11
ENDBRANCH   1  10
BRANCH   9  20
ATOM     20  N   UNK d   1       1.337   1.039  -0.102  0.00  0.00    -0.234 N 
ATOM     21  H   UNK d   1       2.150   0.435  -0.186  0.00  0.00     0.174 HD
ATOM     22  H   UNK d   1       1.420   2.015  -0.419  0.00  0.00     0.174 HD
ENDBRANCH   9  20
BRANCH   8  23
ATOM     23  C   UNK d   1       0.880  -1.649   1.167  0.00  0.00     0.178 C 
BRANCH  23  24
ATOM     24  C   UNK d   1       0.746  -2.727   0.172  0.00  0.00     0.293 C 
BRANCH  24  25
ATOM     25  N   UNK d   1       0.984  -2.446  -1.198  0.00  0.00     0.094 N 
ATOM     26  C   UNK d   1       0.560  -3.591  -2.044  0.00  0.00     0.298 C 
ATOM     27  C   UNK d   1       1.227  -4.865  -1.641  0.00  0.00     0.198 C 
ATOM     28  O   UNK d   1       2.582  -4.730  -1.948  0.00  0.00    -0.388 OA
ATOM     29  C   UNK d   1       3.145  -3.653  -1.310  0.00  0.00     0.198 C 
ATOM     30  C   UNK d   1       2.421  -2.348  -1.504  0.00  0.00     0.298 C 
ENDBRANCH  24  25
ENDBRANCH  23  24
ENDBRANCH   8  23
TORSDOF 7
