REMARK  5 active torsions:
REMARK  status: ('A' for Active; 'I' for Inactive)
REMARK    1  A    between atoms: C_5  and  C_8 
REMARK    2  A    between atoms: N_9  and  C_26 
REMARK    3  A    between atoms: C_15  and  C_17 
REMARK    4  A    between atoms: C_26  and  C_27 
REMARK    5  A    between atoms: C_27  and  N_28 
ROOT
ATOM      1  C   UNK d   1       1.278   1.168  -0.351  0.00  0.00     0.161 C 
ATOM      2  N   UNK d   1       0.942  -0.015  -1.087  0.00  0.00    -0.331 N 
ATOM      3  C   UNK d   1      -0.452   0.200  -1.459  0.00  0.00     0.295 C 
ATOM      4  O   UNK d   1      -1.039  -0.303  -2.442  0.00  0.00    -0.264 OA
ATOM      5  C   UNK d   1      -1.031   1.101  -0.480  0.00  0.00     0.251 C 
ATOM      6  O   UNK d   1      -2.211   1.558  -0.415  0.00  0.00    -0.282 OA
ATOM      7  C   UNK d   1       0.051   1.402   0.463  0.00  0.00     0.064 C 
ATOM      8  C   UNK d   1      -0.095   1.814   1.692  0.00  0.00     0.153 C 
ATOM      9  O   UNK d   1       1.054   2.109   2.436  0.00  0.00    -0.188 OA
ENDROOT
BRANCH   1  10
ATOM     10  C   UNK d   1       2.516   1.203   0.386  0.00  0.00    -0.030 A 
ATOM     11  C   UNK d   1       3.457   2.191   0.043  0.00  0.00     0.011 A 
ATOM     12  C   UNK d   1       4.660   2.333   0.686  0.00  0.00     0.019 A 
ATOM     13  C   UNK d   1       5.005   1.495   1.717  0.00  0.00     0.011 A 
ATOM     14 Br   UNK d   1       6.677   1.663   2.637  0.00  0.00    -0.051 Br
ATOM     15  C   UNK d   1       4.090   0.526   2.058  0.00  0.00     0.019 A 
ATOM     16  C   UNK d   1       2.878   0.384   1.410  0.00  0.00     0.011 A 
ENDBRANCH   1  10
BRANCH   8  17
ATOM     17  C   UNK d   1      -1.429   1.966   2.306  0.00  0.00     0.114 A 
ATOM     18  O   UNK d   1      -1.836   3.015   3.012  0.00  0.00    -0.307 OA
ATOM     19  C   UNK d   1      -3.066   2.864   3.430  0.00  0.00     0.086 A 
ATOM     20  C   UNK d   1      -3.556   1.648   3.002  0.00  0.00     0.001 A 
ATOM     21  C   UNK d   1      -3.928   3.661   4.190  0.00  0.00     0.038 A 
ATOM     22  C   UNK d   1      -2.498   1.103   2.294  0.00  0.00     0.054 A 
ATOM     23  C   UNK d   1      -4.838   1.257   3.317  0.00  0.00     0.014 A 
ATOM     24  C   UNK d   1      -5.695   2.035   4.064  0.00  0.00     0.001 A 
ATOM     25  C   UNK d   1      -5.208   3.255   4.497  0.00  0.00     0.003 A 
ENDBRANCH   8  17
BRANCH   2  26
ATOM     26  C   UNK d   1       1.701  -1.173  -1.504  0.00  0.00     0.155 C 
BRANCH  26  27
ATOM     27  C   UNK d   1       1.645  -2.380  -0.666  0.00  0.00     0.254 C 
BRANCH  27  28
ATOM     28  N   UNK d   1       0.356  -2.991  -0.472  0.00  0.00    -0.077 N 
ATOM     29  C   UNK d   1      -0.451  -2.286   0.483  0.00  0.00     0.269 C 
ATOM     30  C   UNK d   1      -0.325  -3.364  -1.679  0.00  0.00     0.269 C 
ATOM     31  H   UNK d   1       0.590  -3.923   0.016  0.00  0.00     0.279 HD
ENDBRANCH  27  28
ENDBRANCH  26  27
ENDBRANCH   2  26
TORSDOF 5
