REMARK  3 active torsions:
REMARK  status: ('A' for Active; 'I' for Inactive)
REMARK    1  A    between atoms: C_4  and  C_8 
REMARK    2  A    between atoms: C_16  and  C_17 
REMARK    3  A    between atoms: C_17  and  N_18 
ROOT
ATOM      1  C   UNK d   1       0.207   3.649   0.618  0.00  0.00     0.053 C 
ATOM      2  C   UNK d   1       0.582   2.663   1.435  0.00  0.00     0.127 A 
ATOM      3  O   UNK d   1       0.459   1.293   1.212  0.00  0.00    -0.305 OA
ATOM      4  C   UNK d   1       0.960   0.584   2.269  0.00  0.00     0.101 A 
ATOM      5  C   UNK d   1       1.439   1.450   3.246  0.00  0.00     0.051 A 
ATOM      6  C   UNK d   1       1.992   0.903   4.393  0.00  0.00     0.021 A 
ATOM      7  C   UNK d   1       2.060  -0.463   4.546  0.00  0.00     0.041 A 
ATOM      8  C   UNK d   1       1.568  -1.302   3.543  0.00  0.00     0.118 A 
ATOM      9  C   UNK d   1       1.015  -0.788   2.400  0.00  0.00     0.039 A 
ATOM     10  O   UNK d   1       1.682  -2.661   3.792  0.00  0.00    -0.191 OA
ATOM     11  C   UNK d   1       1.212   2.816   2.744  0.00  0.00     0.218 A 
ATOM     12  O   UNK d   1       1.515   3.868   3.364  0.00  0.00    -0.284 OA
ENDROOT
BRANCH   9  13
ATOM     13  C   UNK d   1       0.442  -1.708   1.416  0.00  0.00     0.279 C 
BRANCH  13  14
ATOM     14  N   UNK d   1       0.776  -1.470   0.059  0.00  0.00    -0.064 N 
ATOM     15  C   UNK d   1      -0.458  -1.356  -0.701  0.00  0.00     0.265 C 
ATOM     16  C   UNK d   1      -0.427  -1.972  -2.057  0.00  0.00     0.299 C 
ATOM     17  N   UNK d   1       0.072  -3.301  -2.112  0.00  0.00     0.087 N 
ATOM     18  C   UNK d   1       0.752  -3.666  -0.913  0.00  0.00     0.299 C 
ATOM     19  C   UNK d   1       0.903  -3.466  -3.286  0.00  0.00     0.310 C 
ATOM     20  C   UNK d   1       1.607  -2.535  -0.450  0.00  0.00     0.265 C 
ATOM     21  H   UNK d   1       1.355  -0.587  -0.075  0.00  0.00     0.280 HD
ENDBRANCH  13  14
ENDBRANCH   9  13
BRANCH   1  22
ATOM     22  C   UNK d   1      -0.403   3.366  -0.666  0.00  0.00    -0.032 A 
ATOM     23  C   UNK d   1      -1.432   4.143  -1.150  0.00  0.00     0.030 A 
ATOM     24  C   UNK d   1      -2.018   3.852  -2.379  0.00  0.00     0.011 A 
ATOM     25 Br   UNK d   1      -3.452   4.924  -3.046  0.00  0.00    -0.051 Br
ATOM     26  C   UNK d   1      -1.563   2.773  -3.121  0.00  0.00     0.019 A 
ATOM     27  C   UNK d   1      -0.534   2.020  -2.602  0.00  0.00     0.002 A 
ATOM     28  C   UNK d   1       0.057   2.294  -1.391  0.00  0.00     0.011 A 
ENDBRANCH   1  22
TORSDOF 3
