# created with PyMOL 2.3.2
@<TRIPOS>MOLECULE
1337
55 58 1                 
SMALL
USER_CHARGES
@<TRIPOS>ATOM
1	  Br	5.264	5.539	-5.541	Br	1	UNK0	0.000	
2	   C	4.689	4.183	-4.316	C.2	1	UNK0	0.000	
3	   C	5.581	3.721	-3.374	C.2	1	UNK0	0.000	
4	   C	5.187	2.747	-2.486	C.2	1	UNK0	0.000	
5	   C	3.919	2.183	-2.472	C.2	1	UNK0	0.000	
6	   C	3.051	2.666	-3.425	C.2	1	UNK0	0.000	
7	   C	3.436	3.659	-4.339	C.2	1	UNK0	0.000	
8	   N	3.618	1.203	-1.532	N.pl3	1	UNK0	0.000	
9	   C	2.414	0.501	-1.344	C.2	1	UNK0	0.000	
10	   O	1.425	0.718	-2.072	O.2	1	UNK0	0.000	
11	   C	2.243	-0.528	-0.286	C.3	1	UNK0	0.000	
12	   N	0.923	-1.084	-0.317	N.pl3	1	UNK0	0.000	
13	   C	0.473	-2.088	0.576	C.2	1	UNK0	0.000	
14	   O	1.285	-2.510	1.443	O.2	1	UNK0	0.000	
15	   C	-0.916	-2.608	0.470	C.3	1	UNK0	0.000	
16	   O	-1.540	-1.976	-0.539	O.3	1	UNK0	0.000	
17	   C	-2.893	-1.854	-0.494	C.3	1	UNK0	0.000	
18	   O	-3.265	-0.881	-1.433	O.3	1	UNK0	0.000	
19	   C	-3.237	0.337	-0.799	C.3	1	UNK0	0.000	
20	   O	-3.065	0.129	0.555	O.3	1	UNK0	0.000	
21	   C	-3.406	-1.225	0.780	C.3	1	UNK0	0.000	
22	   C	-2.754	-1.776	1.989	C.3	1	UNK0	0.000	
23	   O	-3.649	-2.572	2.740	O.3	1	UNK0	0.000	
24	   C	-2.965	-3.690	3.145	C.3	1	UNK0	0.000	
25	   O	-2.044	-3.905	2.153	O.3	1	UNK0	0.000	
26	   C	-1.577	-2.631	1.797	C.3	1	UNK0	0.000	
27	   C	-3.986	-4.832	3.219	C.3	1	UNK0	0.000	
28	   C	-2.372	-3.566	4.524	C.3	1	UNK0	0.000	
29	   C	-4.556	1.094	-0.960	C.3	1	UNK0	0.000	
30	   C	-2.152	1.252	-1.343	C.3	1	UNK0	0.000	
31	   H	6.606	4.129	-3.332	 H	1	UNK0	0.000	
32	   H	5.930	2.424	-1.770	 H	1	UNK0	0.000	
33	   H	2.060	2.295	-3.492	 H	1	UNK0	0.000	
34	   H	2.716	3.992	-5.055	 H	1	UNK0	0.000	
35	   H	4.405	0.941	-0.853	 H	1	UNK0	0.000	
36	   H	2.949	-1.371	-0.546	 H	1	UNK0	0.000	
37	   H	2.558	-0.178	0.713	 H	1	UNK0	0.000	
38	   H	0.256	-0.732	-1.036	 H	1	UNK0	0.000	
39	   H	-0.787	-3.691	0.162	 H	1	UNK0	0.000	
40	   H	-3.463	-2.767	-0.761	 H	1	UNK0	0.000	
41	   H	-4.509	-1.344	0.779	 H	1	UNK0	0.000	
42	   H	-2.525	-0.908	2.675	 H	1	UNK0	0.000	
43	   H	-0.816	-2.376	2.579	 H	1	UNK0	0.000	
44	   H	-3.498	-5.665	3.740	 H	1	UNK0	0.000	
45	   H	-4.370	-5.082	2.219	 H	1	UNK0	0.000	
46	   H	-4.832	-4.440	3.820	 H	1	UNK0	0.000	
47	   H	-1.439	-4.116	4.655	 H	1	UNK0	0.000	
48	   H	-2.217	-2.502	4.800	 H	1	UNK0	0.000	
49	   H	-3.080	-3.964	5.309	 H	1	UNK0	0.000	
50	   H	-4.887	0.993	-2.000	 H	1	UNK0	0.000	
51	   H	-5.298	0.771	-0.207	 H	1	UNK0	0.000	
52	   H	-4.321	2.163	-0.772	 H	1	UNK0	0.000	
53	   H	-2.570	2.139	-1.862	 H	1	UNK0	0.000	
54	   H	-1.502	0.714	-2.074	 H	1	UNK0	0.000	
55	   H	-1.507	1.651	-0.521	 H	1	UNK0	0.000	
@<TRIPOS>BOND
1 1 2 1
2 2 3 2
3 2 7 1
4 3 4 1
5 4 5 2
6 5 6 1
7 5 8 1
8 6 7 2
9 8 9 1
10 9 10 2
11 9 11 1
12 11 12 1
13 12 13 1
14 13 14 2
15 13 15 1
16 15 16 1
17 15 26 1
18 16 17 1
19 17 18 1
20 17 21 1
21 18 19 1
22 19 20 1
23 19 29 1
24 19 30 1
25 20 21 1
26 21 22 1
27 22 23 1
28 22 26 1
29 23 24 1
30 24 25 1
31 24 27 1
32 24 28 1
33 25 26 1
34 3 31 1
35 4 32 1
36 6 33 1
37 7 34 1
38 8 35 1
39 11 36 1
40 11 37 1
41 12 38 1
42 15 39 1
43 17 40 1
44 21 41 1
45 22 42 1
46 26 43 1
47 27 44 1
48 27 45 1
49 27 46 1
50 28 47 1
51 28 48 1
52 28 49 1
53 29 50 1
54 29 51 1
55 29 52 1
56 30 53 1
57 30 54 1
58 30 55 1
@<TRIPOS>SUBSTRUCTURE
1	UNK0	1	GROUP	1 ****	UNK
