REMARK  4 active torsions:
REMARK  status: ('A' for Active; 'I' for Inactive)
REMARK    1  A    between atoms: C_5  and  N_8 
REMARK       I    between atoms: N_8  and  C_9 
REMARK    2  A    between atoms: C_9  and  C_11 
REMARK    3  A    between atoms: C_11  and  N_12 
REMARK       I    between atoms: N_12  and  C_13 
REMARK    4  A    between atoms: C_13  and  C_15 
ROOT
ATOM      1  C   UNK d   1      -0.916  -2.608   0.470  0.00  0.00     0.248 C 
ATOM      2  O   UNK d   1      -1.540  -1.976  -0.539  0.00  0.00    -0.341 OA
ATOM      3  C   UNK d   1      -2.893  -1.854  -0.494  0.00  0.00     0.296 C 
ATOM      4  O   UNK d   1      -3.265  -0.881  -1.433  0.00  0.00    -0.323 OA
ATOM      5  C   UNK d   1      -3.237   0.337  -0.799  0.00  0.00     0.160 C 
ATOM      6  O   UNK d   1      -3.065   0.129   0.555  0.00  0.00    -0.343 OA
ATOM      7  C   UNK d   1      -3.406  -1.225   0.780  0.00  0.00     0.212 C 
ATOM      8  C   UNK d   1      -2.754  -1.776   1.989  0.00  0.00     0.191 C 
ATOM      9  O   UNK d   1      -3.649  -2.572   2.740  0.00  0.00    -0.345 OA
ATOM     10  C   UNK d   1      -2.965  -3.690   3.145  0.00  0.00     0.158 C 
ATOM     11  O   UNK d   1      -2.044  -3.905   2.153  0.00  0.00    -0.345 OA
ATOM     12  C   UNK d   1      -1.577  -2.631   1.797  0.00  0.00     0.195 C 
ATOM     13  C   UNK d   1      -3.986  -4.832   3.219  0.00  0.00     0.078 C 
ATOM     14  C   UNK d   1      -2.372  -3.566   4.524  0.00  0.00     0.078 C 
ATOM     15  C   UNK d   1      -4.556   1.094  -0.960  0.00  0.00     0.078 C 
ATOM     16  C   UNK d   1      -2.152   1.252  -1.343  0.00  0.00     0.078 C 
ENDROOT
BRANCH   1  17
ATOM     17  C   UNK d   1       0.473  -2.088   0.576  0.00  0.00     0.249 C 
ATOM     18  N   UNK d   1       0.923  -1.084  -0.317  0.00  0.00    -0.350 N 
ATOM     19  H   UNK d   1       0.256  -0.732  -1.036  0.00  0.00     0.163 HD
ATOM     20  O   UNK d   1       1.285  -2.510   1.443  0.00  0.00    -0.271 OA
BRANCH  18  21
ATOM     21  C   UNK d   1       2.243  -0.528  -0.286  0.00  0.00     0.225 C 
BRANCH  21  22
ATOM     22  C   UNK d   1       2.414   0.501  -1.344  0.00  0.00     0.239 C 
ATOM     23  N   UNK d   1       3.618   1.203  -1.532  0.00  0.00    -0.326 N 
ATOM     24  H   UNK d   1       4.405   0.941  -0.853  0.00  0.00     0.169 HD
ATOM     25  O   UNK d   1       1.425   0.718  -2.072  0.00  0.00    -0.271 OA
BRANCH  23  26
ATOM     26  C   UNK d   1       3.919   2.183  -2.472  0.00  0.00     0.034 A 
ATOM     27  C   UNK d   1       5.187   2.747  -2.486  0.00  0.00     0.031 A 
ATOM     28  C   UNK d   1       5.581   3.721  -3.374  0.00  0.00     0.021 A 
ATOM     29  C   UNK d   1       4.689   4.183  -4.316  0.00  0.00     0.011 A 
ATOM     30 Br   UNK d   1       5.264   5.539  -5.541  0.00  0.00    -0.051 Br
ATOM     31  C   UNK d   1       3.436   3.659  -4.339  0.00  0.00     0.021 A 
ATOM     32  C   UNK d   1       3.051   2.666  -3.425  0.00  0.00     0.031 A 
ENDBRANCH  23  26
ENDBRANCH  21  22
ENDBRANCH  18  21
ENDBRANCH   1  17
TORSDOF 4
