REMARK  5 active torsions:
REMARK  status: ('A' for Active; 'I' for Inactive)
REMARK    1  A    between atoms: C_5  and  C_8 
REMARK    2  A    between atoms: N_11  and  C_13 
REMARK    3  A    between atoms: C_13  and  C_14 
REMARK       I    between atoms: C_14  and  N_16 
REMARK    4  A    between atoms: N_16  and  C_17 
REMARK    5  A    between atoms: C_20  and  C_23 
ROOT
ATOM      1  C   UNK d   1       2.093  -1.558  -1.775  0.00  0.00     0.061 A 
ATOM      2  N   UNK d   1       1.370  -2.674  -1.522  0.00  0.00    -0.335 N 
ATOM      3  C   UNK d   1       0.079  -2.321  -1.353  0.00  0.00     0.086 A 
ATOM      4  N   UNK d   1      -0.063  -0.985  -1.490  0.00  0.00    -0.336 N 
ATOM      5  C   UNK d   1       1.182  -0.525  -1.750  0.00  0.00     0.123 A 
ATOM      6  C   UNK d   1      -0.739  -3.529  -1.075  0.00  0.00     0.078 A 
ATOM      7  C   UNK d   1       0.216  -4.670  -1.001  0.00  0.00     0.028 A 
ATOM      8  C   UNK d   1       1.535  -4.103  -1.375  0.00  0.00     0.131 A 
ENDROOT
BRANCH   4   9
ATOM      9  C   UNK d   1      -1.271  -0.192  -1.388  0.00  0.00     0.232 C 
BRANCH   9  10
ATOM     10  C   UNK d   1      -1.468   0.253   0.021  0.00  0.00     0.240 C 
ATOM     11  O   UNK d   1      -0.633  -0.095   0.858  0.00  0.00    -0.271 OA
ATOM     12  N   UNK d   1      -2.587   1.037   0.308  0.00  0.00    -0.326 N 
ATOM     13  H   UNK d   1      -3.284   1.310  -0.463  0.00  0.00     0.169 HD
BRANCH  12  14
ATOM     14  C   UNK d   1      -2.911   1.545   1.593  0.00  0.00     0.034 A 
ATOM     15  C   UNK d   1      -4.212   2.009   1.827  0.00  0.00     0.030 A 
ATOM     16  C   UNK d   1      -4.551   2.519   3.039  0.00  0.00     0.009 A 
ATOM     17  C   UNK d   1      -3.630   2.594   4.071  0.00  0.00    -0.058 A 
ATOM     18  C   UNK d   1      -2.364   2.140   3.833  0.00  0.00     0.009 A 
ATOM     19  C   UNK d   1      -1.984   1.609   2.594  0.00  0.00     0.030 A 
BRANCH  17  20
ATOM     20  C   UNK d   1      -4.024   3.155   5.388  0.00  0.00     0.034 C 
ATOM     21  C   UNK d   1      -3.756   4.663   5.362  0.00  0.00     0.010 C 
ENDBRANCH  17  20
ENDBRANCH  12  14
ENDBRANCH   9  10
ENDBRANCH   4   9
BRANCH   1  22
ATOM     22  C   UNK d   1       3.525  -1.406  -2.027  0.00  0.00    -0.008 A 
ATOM     23  C   UNK d   1       4.077  -0.161  -2.256  0.00  0.00     0.015 A 
ATOM     24  C   UNK d   1       5.428   0.010  -2.499  0.00  0.00     0.024 A 
ATOM     25  C   UNK d   1       6.291  -1.064  -2.522  0.00  0.00     0.034 A 
ATOM     26 Cl   UNK d   1       8.010  -0.854  -2.829  0.00  0.00    -0.084 Cl
ATOM     27  C   UNK d   1       5.754  -2.314  -2.296  0.00  0.00     0.024 A 
ATOM     28  C   UNK d   1       4.386  -2.483  -2.051  0.00  0.00     0.015 A 
ENDBRANCH   1  22
TORSDOF 5
