REMARK  12 active torsions:
REMARK  status: ('A' for Active; 'I' for Inactive)
REMARK    1  A    between atoms: C_3  and  C_12 
REMARK    2  A    between atoms: C_5  and  O_10 
REMARK    3  A    between atoms: C_6  and  O_8 
REMARK    4  A    between atoms: N_13  and  N_14 
REMARK    5  A    between atoms: N_14  and  C_15 
REMARK    6  A    between atoms: N_16  and  C_26 
REMARK    7  A    between atoms: C_19  and  N_25 
REMARK    8  A    between atoms: C_21  and  O_24 
REMARK    9  A    between atoms: C_28  and  C_33 
REMARK   10  A    between atoms: C_29  and  O_32 
REMARK   11  A    between atoms: C_30  and  O_31 
REMARK   12  A    between atoms: C_33  and  O_34 
ROOT
ATOM      1  C   UNK d   1      -0.760   0.161   1.247  0.00  0.00     0.727 A 
ATOM      2  N   UNK d   1      -1.277  -0.350   2.394  0.00  0.00    -0.130 N 
ATOM      3  C   UNK d   1      -0.287  -0.987   3.071  0.00  0.00     0.201 A 
ATOM      4  N   UNK d   1      -0.229  -1.653   4.230  0.00  0.00    -0.042 NA
ATOM      5  C   UNK d   1       0.912  -2.203   4.684  0.00  0.00     0.724 A 
ATOM      6  N   UNK d   1       2.036  -2.079   3.945  0.00  0.00    -0.036 NA
ATOM      7  C   UNK d   1       2.053  -1.432   2.785  0.00  0.00     0.215 A 
ATOM      8  C   UNK d   1       0.879  -0.869   2.325  0.00  0.00     0.176 A 
ATOM      9  N   UNK d   1       0.547  -0.178   1.248  0.00  0.00    -0.055 NA
ENDROOT
BRANCH   1  10
ATOM     10  N   UNK d   1      -1.470   0.900   0.261  0.00  0.00    -0.107 N 
ATOM     11  H   UNK d   1      -2.476   1.087   0.394  0.00  0.00     0.208 HD
BRANCH  10  12
ATOM     12  N   UNK d   1      -0.748   1.346  -0.863  0.00  0.00    -0.172 NA
ATOM     13  C   UNK d   1      -1.109   2.321  -1.591  0.00  0.00     0.152 C 
BRANCH  13  14
ATOM     14  C   UNK d   1      -0.383   2.805  -2.760  0.00  0.00     0.003 A 
ATOM     15  C   UNK d   1      -0.850   3.874  -3.494  0.00  0.00     0.025 A 
ATOM     16 Br   UNK d   1      -2.468   4.713  -2.953  0.00  0.00    -0.050 Br
ATOM     17  C   UNK d   1      -0.160   4.343  -4.615  0.00  0.00     0.059 A 
ATOM     18  C   UNK d   1       1.015   3.752  -5.028  0.00  0.00     0.102 A 
ATOM     19  C   UNK d   1       1.482   2.682  -4.294  0.00  0.00     0.102 A 
ATOM     20  C   UNK d   1       0.793   2.228  -3.189  0.00  0.00     0.054 A 
BRANCH  18  21
ATOM     21  O   UNK d   1       1.717   4.207  -6.145  0.00  0.00    -0.353 OA
ATOM     22  C   UNK d   1       1.298   5.283  -6.929  0.00  0.00     0.210 C 
ENDBRANCH  18  21
BRANCH  19  23
ATOM     23  O   UNK d   1       2.669   2.094  -4.720  0.00  0.00    -0.353 OA
ATOM     24  C   UNK d   1       3.282   1.009  -4.099  0.00  0.00     0.210 C 
ENDBRANCH  19  23
ENDBRANCH  13  14
ENDBRANCH  10  12
ENDBRANCH   1  10
BRANCH   2  25
ATOM     25  C   UNK d   1      -2.639  -0.234   2.815  0.00  0.00     0.279 C 
ATOM     26  O   UNK d   1      -2.836   0.674   3.846  0.00  0.00    -0.353 OA
ATOM     27  C   UNK d   1      -3.998   0.357   4.489  0.00  0.00     0.179 C 
ATOM     28  C   UNK d   1      -4.462  -0.993   4.061  0.00  0.00     0.182 C 
ATOM     29  C   UNK d   1      -3.235  -1.531   3.322  0.00  0.00     0.199 C 
BRANCH  27  30
ATOM     30  C   UNK d   1      -3.713   0.297   5.991  0.00  0.00     0.198 C 
BRANCH  30  31
ATOM     31  O   UNK d   1      -3.246   1.538   6.438  0.00  0.00    -0.398 OA
ATOM     32  H   UNK d   1      -3.014   2.131   5.678  0.00  0.00     0.209 HD
ENDBRANCH  30  31
ENDBRANCH  27  30
BRANCH  28  33
ATOM     33  O   UNK d   1      -5.465  -0.876   3.077  0.00  0.00    -0.390 OA
ATOM     34  H   UNK d   1      -6.051  -1.663   3.066  0.00  0.00     0.210 HD
ENDBRANCH  28  33
BRANCH  29  35
ATOM     35  O   UNK d   1      -3.620  -2.370   2.277  0.00  0.00    -0.388 OA
ATOM     36  H   UNK d   1      -3.072  -3.197   2.287  0.00  0.00     0.210 HD
ENDBRANCH  29  35
ENDBRANCH   2  25
BRANCH   7  37
ATOM     37  O   UNK d   1       3.200  -1.286   1.998  0.00  0.00    -0.343 OA
ATOM     38  H   UNK d   1       3.784  -0.485   2.207  0.00  0.00     0.219 HD
ENDBRANCH   7  37
BRANCH   5  39
ATOM     39  N   UNK d   1       0.956  -2.914   5.930  0.00  0.00    -0.231 N 
ATOM     40  H   UNK d   1       1.241  -3.894   6.028  0.00  0.00     0.174 HD
ATOM     41  H   UNK d   1       0.675  -2.378   6.778  0.00  0.00     0.174 HD
ENDBRANCH   5  39
TORSDOF 12
