REMARK  4 active torsions:
REMARK  status: ('A' for Active; 'I' for Inactive)
REMARK    1  A    between atoms: C_3  and  C_8 
REMARK    2  A    between atoms: C_11  and  C_13 
REMARK    3  A    between atoms: C_13  and  N_14 
REMARK       I    between atoms: N_14  and  C_15 
REMARK    4  A    between atoms: C_15  and  C_17 
ROOT
ATOM      1  N   UNK d   1       0.407  -0.701   0.276  0.00  0.00    -0.353 N 
ATOM      2  C   UNK d   1      -0.607   0.230   0.562  0.00  0.00     0.229 C 
ATOM      3  O   UNK d   1      -1.611   0.294  -0.181  0.00  0.00    -0.273 OA
ATOM      4  H   UNK d   1       1.239  -0.750   0.897  0.00  0.00     0.162 HD
ENDROOT
BRANCH   1   5
ATOM      5  C   UNK d   1       0.314  -1.592  -0.866  0.00  0.00     0.211 C 
BRANCH   5   6
ATOM      6  C   UNK d   1       0.226  -0.796  -2.143  0.00  0.00     0.190 A 
ATOM      7  O   UNK d   1       1.209  -0.392  -2.907  0.00  0.00    -0.194 OA
ATOM      8  N   UNK d   1       0.731   0.277  -3.935  0.00  0.00    -0.105 NA
ATOM      9  C   UNK d   1      -0.609   0.321  -3.854  0.00  0.00     0.191 A 
ATOM     10  N   UNK d   1      -0.908  -0.354  -2.730  0.00  0.00    -0.202 NA
BRANCH   9  11
ATOM     11  C   UNK d   1      -1.535   0.961  -4.782  0.00  0.00     0.036 A 
ATOM     12  C   UNK d   1      -1.107   1.628  -5.910  0.00  0.00     0.048 A 
ATOM     13 Cl   UNK d   1       0.612   1.694  -6.213  0.00  0.00    -0.083 Cl
ATOM     14  C   UNK d   1      -1.986   2.240  -6.798  0.00  0.00     0.025 A 
ATOM     15  C   UNK d   1      -3.338   2.194  -6.569  0.00  0.00     0.002 A 
ATOM     16  C   UNK d   1      -3.793   1.520  -5.429  0.00  0.00     0.001 A 
ATOM     17  C   UNK d   1      -2.893   0.927  -4.573  0.00  0.00     0.017 A 
ENDBRANCH   9  11
ENDBRANCH   5   6
ENDBRANCH   1   5
BRANCH   2  18
ATOM     18  C   UNK d   1      -0.491   1.124   1.724  0.00  0.00     0.151 C 
ATOM     19  C   UNK d   1      -0.590   0.370   3.037  0.00  0.00     0.022 C 
ATOM     20  C   UNK d   1      -0.282   1.255   4.198  0.00  0.00     0.003 C 
ATOM     21  C   UNK d   1       1.150   1.265   4.623  0.00  0.00     0.022 C 
ATOM     22  C   UNK d   1       2.099   0.976   3.464  0.00  0.00     0.154 C 
ATOM     23  N   UNK d   1       1.807   1.931   2.420  0.00  0.00    -0.234 N 
ATOM     24  N   UNK d   1       2.624   2.886   2.064  0.00  0.00    -0.044 NA
ATOM     25  C   UNK d   1       0.695   1.992   1.676  0.00  0.00     0.161 A 
ATOM     26  N   UNK d   1       2.069   3.575   1.098  0.00  0.00    -0.023 NA
ATOM     27  N   UNK d   1       0.890   3.037   0.853  0.00  0.00    -0.113 NA
ENDBRANCH   2  18
TORSDOF 4
