# created with PyMOL 2.3.2
@<TRIPOS>MOLECULE
1355
42 45 1                 
SMALL
USER_CHARGES
@<TRIPOS>ATOM
1	  Cl	0.612	1.694	-6.213	Cl	1	UNK0	0.000	
2	   C	-1.107	1.628	-5.910	C.2	1	UNK0	0.000	
3	   C	-1.535	0.961	-4.782	C.2	1	UNK0	0.000	
4	   C	-2.893	0.927	-4.573	C.2	1	UNK0	0.000	
5	   C	-3.793	1.520	-5.429	C.2	1	UNK0	0.000	
6	   C	-3.338	2.194	-6.569	C.2	1	UNK0	0.000	
7	   C	-1.986	2.240	-6.798	C.2	1	UNK0	0.000	
8	   C	-0.609	0.321	-3.854	C.2	1	UNK0	0.000	
9	   N	0.731	0.277	-3.935	N.2	1	UNK0	0.000	
10	   O	1.209	-0.392	-2.907	O.3	1	UNK0	0.000	
11	   C	0.226	-0.796	-2.143	C.2	1	UNK0	0.000	
12	   N	-0.908	-0.354	-2.730	N.2	1	UNK0	0.000	
13	   C	0.314	-1.592	-0.866	C.3	1	UNK0	0.000	
14	   N	0.407	-0.701	0.276	N.pl3	1	UNK0	0.000	
15	   C	-0.607	0.230	0.562	C.2	1	UNK0	0.000	
16	   O	-1.611	0.294	-0.181	O.2	1	UNK0	0.000	
17	   C	-0.491	1.124	1.724	C.3	1	UNK0	0.000	
18	   C	-0.590	0.370	3.037	C.3	1	UNK0	0.000	
19	   C	-0.282	1.255	4.198	C.3	1	UNK0	0.000	
20	   C	1.150	1.265	4.623	C.3	1	UNK0	0.000	
21	   C	2.099	0.976	3.464	C.3	1	UNK0	0.000	
22	   N	1.807	1.931	2.420	N.pl3	1	UNK0	0.000	
23	   N	2.624	2.886	2.064	N.2	1	UNK0	0.000	
24	   N	2.069	3.575	1.098	N.2	1	UNK0	0.000	
25	   N	0.890	3.037	0.853	N.2	1	UNK0	0.000	
26	   C	0.695	1.992	1.676	C.2	1	UNK0	0.000	
27	   H	-3.276	0.419	-3.707	 H	1	UNK0	0.000	
28	   H	-4.860	1.500	-5.273	 H	1	UNK0	0.000	
29	   H	-4.028	2.669	-7.257	 H	1	UNK0	0.000	
30	   H	-1.635	2.762	-7.682	 H	1	UNK0	0.000	
31	   H	1.185	-2.264	-0.910	 H	1	UNK0	0.000	
32	   H	-0.596	-2.222	-0.814	 H	1	UNK0	0.000	
33	   H	1.239	-0.750	0.897	 H	1	UNK0	0.000	
34	   H	-1.378	1.809	1.719	 H	1	UNK0	0.000	
35	   H	-1.667	0.041	3.141	 H	1	UNK0	0.000	
36	   H	-0.013	-0.561	2.989	 H	1	UNK0	0.000	
37	   H	-0.945	0.954	5.058	 H	1	UNK0	0.000	
38	   H	-0.605	2.290	3.943	 H	1	UNK0	0.000	
39	   H	1.363	2.259	5.068	 H	1	UNK0	0.000	
40	   H	1.374	0.492	5.394	 H	1	UNK0	0.000	
41	   H	3.131	1.135	3.832	 H	1	UNK0	0.000	
42	   H	1.949	-0.029	3.071	 H	1	UNK0	0.000	
@<TRIPOS>BOND
1 1 2 1
2 2 3 2
3 2 7 1
4 3 4 1
5 3 8 1
6 4 5 2
7 5 6 1
8 6 7 2
9 8 9 2
10 8 12 1
11 9 10 1
12 10 11 1
13 11 12 2
14 11 13 1
15 13 14 1
16 14 15 1
17 15 16 2
18 15 17 1
19 17 18 1
20 17 26 1
21 18 19 1
22 19 20 1
23 20 21 1
24 21 22 1
25 22 23 1
26 22 26 1
27 23 24 2
28 24 25 1
29 25 26 2
30 4 27 1
31 5 28 1
32 6 29 1
33 7 30 1
34 13 31 1
35 13 32 1
36 14 33 1
37 17 34 1
38 18 35 1
39 18 36 1
40 19 37 1
41 19 38 1
42 20 39 1
43 20 40 1
44 21 41 1
45 21 42 1
@<TRIPOS>SUBSTRUCTURE
1	UNK0	1	GROUP	1 ****	UNK
