# created with PyMOL 2.3.2
@<TRIPOS>MOLECULE
1357
33 36 1                 
SMALL
USER_CHARGES
@<TRIPOS>ATOM
1	  Br	2.590	2.303	-1.902	Br	1	UNK0	0.000	
2	   C	2.321	0.508	-1.311	C.2	1	UNK0	0.000	
3	   C	1.069	-0.048	-1.236	C.2	1	UNK0	0.000	
4	   C	0.913	-1.342	-0.799	C.2	1	UNK0	0.000	
5	   C	2.002	-2.118	-0.426	C.2	1	UNK0	0.000	
6	   C	3.265	-1.581	-0.493	C.2	1	UNK0	0.000	
7	   C	3.414	-0.263	-0.939	C.2	1	UNK0	0.000	
8	   C	-0.154	0.703	-1.621	C.3	1	UNK0	0.000	
9	   C	-1.383	0.132	-1.286	C.3	1	UNK0	0.000	
10	   C	-2.166	-0.141	-0.050	C.3	1	UNK0	0.000	
11	   N	-2.973	1.101	-0.151	N.2	1	UNK0	0.000	
12	   C	-2.187	2.053	-0.546	C.2	1	UNK0	0.000	
13	   C	-0.883	1.489	-0.702	C.3	1	UNK0	0.000	
14	   C	-0.244	1.459	0.648	C.1	1	UNK0	0.000	
15	   N	0.284	1.447	1.707	N.1	1	UNK0	0.000	
16	   N	-2.576	3.425	-0.780	N.pl3	1	UNK0	0.000	
17	   O	-2.993	-1.243	-0.294	O.3	1	UNK0	0.000	
18	   C	-2.806	-2.128	0.750	C.3	1	UNK0	0.000	
19	   C	-2.336	-1.214	1.869	C.3	1	UNK0	0.000	
20	   O	-1.532	-0.326	1.112	O.3	1	UNK0	0.000	
21	   C	-2.393	0.257	-2.397	C.1	1	UNK0	0.000	
22	   N	-3.171	0.368	-3.279	N.1	1	UNK0	0.000	
23	   H	-0.066	-1.839	-0.719	 H	1	UNK0	0.000	
24	   H	1.898	-3.131	-0.083	 H	1	UNK0	0.000	
25	   H	4.109	-2.161	-0.214	 H	1	UNK0	0.000	
26	   H	4.394	0.203	-1.010	 H	1	UNK0	0.000	
27	   H	0.016	1.169	-2.633	 H	1	UNK0	0.000	
28	   H	-3.287	3.890	-0.184	 H	1	UNK0	0.000	
29	   H	-2.150	3.972	-1.551	 H	1	UNK0	0.000	
30	   H	-1.987	-2.828	0.479	 H	1	UNK0	0.000	
31	   H	-3.737	-2.672	1.017	 H	1	UNK0	0.000	
32	   H	-3.201	-0.670	2.306	 H	1	UNK0	0.000	
33	   H	-1.751	-1.737	2.637	 H	1	UNK0	0.000	
@<TRIPOS>BOND
1 1 2 1
2 2 3 2
3 2 7 1
4 3 4 1
5 3 8 1
6 4 5 2
7 5 6 1
8 6 7 2
9 8 9 1
10 8 13 1
11 9 10 1
12 9 13 1
13 9 21 1
14 10 11 1
15 10 17 1
16 10 20 1
17 11 12 2
18 12 13 1
19 12 16 1
20 13 14 1
21 14 15 3
22 17 18 1
23 18 19 1
24 19 20 1
25 21 22 3
26 4 23 1
27 5 24 1
28 6 25 1
29 7 26 1
30 8 27 1
31 16 28 1
32 16 29 1
33 18 30 1
34 18 31 1
35 19 32 1
36 19 33 1
@<TRIPOS>SUBSTRUCTURE
1	UNK0	1	GROUP	1 ****	UNK
