REMARK  6 active torsions:
REMARK  status: ('A' for Active; 'I' for Inactive)
REMARK    1  A    between atoms: C_5  and  C_8 
REMARK    2  A    between atoms: C_8  and  C_10 
REMARK    3  A    between atoms: C_25  and  C_31 
REMARK    4  A    between atoms: C_26  and  C_27 
REMARK    5  A    between atoms: C_27  and  O_29 
REMARK    6  A    between atoms: C_31  and  O_33 
ROOT
ATOM      1  C   UNK d   1      -0.407  -0.304   1.552  0.00  0.00     0.162 C 
ATOM      2  N   UNK d   1      -0.660  -0.058   0.156  0.00  0.00    -0.339 N 
ATOM      3  C   UNK d   1       0.708  -0.134  -0.406  0.00  0.00     0.203 A 
ATOM      4  N   UNK d   1       0.573  -0.077  -1.810  0.00  0.00    -0.347 N 
ATOM      5  C   UNK d   1      -0.806   0.163  -2.106  0.00  0.00     0.143 A 
ATOM      6  C   UNK d   1      -1.525   0.171  -0.909  0.00  0.00     0.146 A 
ATOM      7  C   UNK d   1      -2.886   0.389  -0.955  0.00  0.00     0.281 A 
ATOM      8  O   UNK d   1      -3.512   0.392   0.136  0.00  0.00    -0.265 OA
ATOM      9  N   UNK d   1      -3.485   0.587  -2.135  0.00  0.00    -0.269 N 
ATOM     10  C   UNK d   1      -2.779   0.574  -3.253  0.00  0.00     0.332 A 
ATOM     11  O   UNK d   1      -3.382   0.765  -4.344  0.00  0.00    -0.246 OA
ATOM     12  N   UNK d   1      -1.427   0.363  -3.272  0.00  0.00    -0.287 N 
ATOM     13  C   UNK d   1      -0.773   0.376  -4.561  0.00  0.00     0.163 C 
ATOM     14  C   UNK d   1      -4.934   0.815  -2.138  0.00  0.00     0.164 C 
ATOM     15  C   UNK d   1       1.602  -0.194  -2.811  0.00  0.00     0.153 C 
ATOM     16  C   UNK d   1       1.317  -1.295   0.260  0.00  0.00     0.144 C 
ATOM     17  C   UNK d   1       0.353  -1.632   1.406  0.00  0.00     0.132 C 
ENDROOT
BRANCH   1  18
ATOM     18  C   UNK d   1       0.472   0.687   2.129  0.00  0.00     0.118 C 
ATOM     19  O   UNK d   1       1.306   0.201   3.004  0.00  0.00    -0.194 OA
BRANCH  18  20
ATOM     20  C   UNK d   1       0.577   2.111   1.900  0.00  0.00    -0.002 A 
ATOM     21  C   UNK d   1      -0.319   2.814   1.130  0.00  0.00     0.015 A 
ATOM     22  C   UNK d   1      -0.132   4.160   0.935  0.00  0.00     0.020 A 
ATOM     23  C   UNK d   1       0.941   4.836   1.496  0.00  0.00     0.011 A 
ATOM     24 Br   UNK d   1       1.175   6.705   1.208  0.00  0.00    -0.051 Br
ATOM     25  C   UNK d   1       1.839   4.123   2.270  0.00  0.00     0.020 A 
ATOM     26  C   UNK d   1       1.664   2.776   2.473  0.00  0.00     0.015 A 
ENDBRANCH  18  20
ENDBRANCH   1  18
BRANCH  17  27
ATOM     27  C   UNK d   1       1.064  -2.023   2.619  0.00  0.00     0.266 C 
ATOM     28  O   UNK d   1       2.329  -2.186   2.591  0.00  0.00    -0.265 OA
BRANCH  27  29
ATOM     29  O   UNK d   1       0.417  -2.226   3.808  0.00  0.00    -0.326 OA
ATOM     30  C   UNK d   1       1.093  -2.609   5.008  0.00  0.00     0.213 C 
ENDBRANCH  27  29
ENDBRANCH  17  27
BRANCH  16  31
ATOM     31  C   UNK d   1       1.630  -2.479  -0.529  0.00  0.00     0.267 C 
ATOM     32  O   UNK d   1       0.881  -3.489  -0.469  0.00  0.00    -0.265 OA
BRANCH  31  33
ATOM     33  O   UNK d   1       2.733  -2.534  -1.353  0.00  0.00    -0.326 OA
ATOM     34  C   UNK d   1       3.027  -3.685  -2.114  0.00  0.00     0.213 C 
ENDBRANCH  31  33
ENDBRANCH  16  31
TORSDOF 6
