# created with PyMOL 2.3.2
@<TRIPOS>MOLECULE
1360
57 60 1                 
SMALL
USER_CHARGES
@<TRIPOS>ATOM
1	  Br	1.175	6.705	1.208	Br	1	UNK0	0.000	
2	   C	0.941	4.836	1.496	C.2	1	UNK0	0.000	
3	   C	-0.132	4.160	0.935	C.2	1	UNK0	0.000	
4	   C	-0.319	2.814	1.130	C.2	1	UNK0	0.000	
5	   C	0.577	2.111	1.900	C.2	1	UNK0	0.000	
6	   C	1.664	2.776	2.473	C.2	1	UNK0	0.000	
7	   C	1.839	4.123	2.270	C.2	1	UNK0	0.000	
8	   C	0.472	0.687	2.129	C.2	1	UNK0	0.000	
9	   O	1.306	0.201	3.004	O.2	1	UNK0	0.000	
10	   C	-0.407	-0.304	1.552	C.3	1	UNK0	0.000	
11	   N	-0.660	-0.058	0.156	N.pl3	1	UNK0	0.000	
12	   C	0.708	-0.134	-0.406	C.3	1	UNK0	0.000	
13	   N	0.573	-0.077	-1.810	N.pl3	1	UNK0	0.000	
14	   C	-0.806	0.163	-2.106	C.2	1	UNK0	0.000	
15	   C	-1.525	0.171	-0.909	C.2	1	UNK0	0.000	
16	   C	-2.886	0.389	-0.955	C.2	1	UNK0	0.000	
17	   O	-3.512	0.392	0.136	O.2	1	UNK0	0.000	
18	   N	-3.485	0.587	-2.135	N.pl3	1	UNK0	0.000	
19	   C	-2.779	0.574	-3.253	C.2	1	UNK0	0.000	
20	   O	-3.382	0.765	-4.344	O.2	1	UNK0	0.000	
21	   N	-1.427	0.363	-3.272	N.pl3	1	UNK0	0.000	
22	   C	-0.773	0.376	-4.561	C.3	1	UNK0	0.000	
23	   C	-4.934	0.815	-2.138	C.3	1	UNK0	0.000	
24	   C	1.602	-0.194	-2.811	C.3	1	UNK0	0.000	
25	   C	1.317	-1.295	0.260	C.3	1	UNK0	0.000	
26	   C	0.353	-1.632	1.406	C.3	1	UNK0	0.000	
27	   C	1.064	-2.023	2.619	C.2	1	UNK0	0.000	
28	   O	2.329	-2.186	2.591	O.co2	1	UNK0	0.000	
29	   O	0.417	-2.226	3.808	O.3	1	UNK0	0.000	
30	   C	1.093	-2.609	5.008	C.3	1	UNK0	0.000	
31	   C	1.630	-2.479	-0.529	C.2	1	UNK0	0.000	
32	   O	0.881	-3.489	-0.469	O.co2	1	UNK0	0.000	
33	   O	2.733	-2.534	-1.353	O.3	1	UNK0	0.000	
34	   C	3.027	-3.685	-2.114	C.3	1	UNK0	0.000	
35	   H	-0.849	4.689	0.326	 H	1	UNK0	0.000	
36	   H	-1.162	2.341	0.699	 H	1	UNK0	0.000	
37	   H	2.404	2.243	3.098	 H	1	UNK0	0.000	
38	   H	2.701	4.628	2.731	 H	1	UNK0	0.000	
39	   H	-1.350	-0.468	2.125	 H	1	UNK0	0.000	
40	   H	1.276	0.785	-0.102	 H	1	UNK0	0.000	
41	   H	-0.122	-0.499	-4.749	 H	1	UNK0	0.000	
42	   H	-1.566	0.274	-5.374	 H	1	UNK0	0.000	
43	   H	-0.307	1.356	-4.806	 H	1	UNK0	0.000	
44	   H	-5.468	-0.045	-1.682	 H	1	UNK0	0.000	
45	   H	-5.281	1.032	-3.167	 H	1	UNK0	0.000	
46	   H	-5.145	1.704	-1.504	 H	1	UNK0	0.000	
47	   H	2.619	-0.037	-2.335	 H	1	UNK0	0.000	
48	   H	1.651	-1.133	-3.349	 H	1	UNK0	0.000	
49	   H	1.562	0.681	-3.535	 H	1	UNK0	0.000	
50	   H	2.256	-0.967	0.821	 H	1	UNK0	0.000	
51	   H	-0.375	-2.402	1.041	 H	1	UNK0	0.000	
52	   H	1.560	-1.711	5.485	 H	1	UNK0	0.000	
53	   H	0.337	-3.074	5.670	 H	1	UNK0	0.000	
54	   H	1.869	-3.348	4.681	 H	1	UNK0	0.000	
55	   H	3.865	-3.421	-2.807	 H	1	UNK0	0.000	
56	   H	3.452	-4.438	-1.404	 H	1	UNK0	0.000	
57	   H	2.142	-4.075	-2.657	 H	1	UNK0	0.000	
@<TRIPOS>BOND
1 1 2 1
2 2 3 2
3 2 7 1
4 3 4 1
5 4 5 2
6 5 6 1
7 5 8 1
8 6 7 2
9 8 9 2
10 8 10 1
11 10 11 1
12 10 26 1
13 11 12 1
14 11 15 1
15 12 13 1
16 12 25 1
17 13 14 1
18 13 24 1
19 14 15 2
20 14 21 1
21 15 16 1
22 16 17 2
23 16 18 1
24 18 19 1
25 18 23 1
26 19 20 2
27 19 21 1
28 21 22 1
29 25 26 1
30 25 31 1
31 26 27 1
32 27 28 2
33 27 29 1
34 29 30 1
35 31 32 2
36 31 33 1
37 33 34 1
38 3 35 1
39 4 36 1
40 6 37 1
41 7 38 1
42 10 39 1
43 12 40 1
44 22 41 1
45 22 42 1
46 22 43 1
47 23 44 1
48 23 45 1
49 23 46 1
50 24 47 1
51 24 48 1
52 24 49 1
53 25 50 1
54 26 51 1
55 30 52 1
56 30 53 1
57 30 54 1
58 34 55 1
59 34 56 1
60 34 57 1
@<TRIPOS>SUBSTRUCTURE
1	UNK0	1	GROUP	1 ****	UNK
