REMARK  3 active torsions:
REMARK  status: ('A' for Active; 'I' for Inactive)
REMARK    1  A    between atoms: C_4  and  C_8 
REMARK       I    between atoms: C_8  and  N_10 
REMARK    2  A    between atoms: N_10  and  C_11 
REMARK    3  A    between atoms: C_11  and  C_13 
REMARK       I    between atoms: C_13  and  N_15 
ROOT
ATOM      1  C   UNK d   1      -1.132   1.864   1.737  0.00  0.00     0.242 C 
ATOM      2  O   UNK d   1      -1.496   2.849   2.412  0.00  0.00    -0.271 OA
ATOM      3  N   UNK d   1      -0.534   2.052   0.486  0.00  0.00    -0.350 N 
ATOM      4  C   UNK d   1       0.070   3.206  -0.089  0.00  0.00     0.129 C 
ATOM      5  C   UNK d   1       1.158   2.642  -1.016  0.00  0.00     0.068 C 
ATOM      6  C   UNK d   1       1.704   1.328  -0.514  0.00  0.00     0.206 C 
ATOM      7  N   UNK d   1       2.714   0.810  -1.396  0.00  0.00     0.099 N 
ATOM      8  C   UNK d   1       3.118  -0.507  -0.884  0.00  0.00     0.277 C 
ATOM      9  C   UNK d   1       3.827  -0.400   0.430  0.00  0.00     0.089 C 
ATOM     10  C   UNK d   1       3.328   0.719   1.261  0.00  0.00     0.039 A 
ATOM     11  N   UNK d   1       3.696   1.122   2.481  0.00  0.00    -0.352 N 
ATOM     12  C   UNK d   1       2.947   2.189   2.824  0.00  0.00     0.207 A 
ATOM     13  N   UNK d   1       2.115   2.436   1.803  0.00  0.00    -0.244 NA
ATOM     14  C   UNK d   1       2.304   1.560   0.805  0.00  0.00     0.097 A 
ATOM     15  C   UNK d   1       0.633   0.226  -0.469  0.00  0.00     0.068 C 
ATOM     16  C   UNK d   1      -0.646   0.946  -0.523  0.00  0.00     0.129 C 
ATOM     17  H   UNK d   1       2.291   0.627  -2.337  0.00  0.00     0.317 HD
ATOM     18  H   UNK d   1       4.424   0.738   3.123  0.00  0.00     0.166 HD
ENDROOT
BRANCH   1  19
ATOM     19  C   UNK d   1      -1.347   0.504   2.320  0.00  0.00     0.173 C 
ATOM     20  C   UNK d   1      -2.025   0.721   3.698  0.00  0.00     0.042 C 
BRANCH  19  21
ATOM     21  N   UNK d   1      -2.306  -0.296   1.598  0.00  0.00    -0.344 N 
ATOM     22  C   UNK d   1      -1.974  -1.673   1.275  0.00  0.00     0.252 C 
ATOM     23  O   UNK d   1      -0.911  -2.188   1.643  0.00  0.00    -0.268 OA
ATOM     24  H   UNK d   1      -3.205   0.095   1.323  0.00  0.00     0.163 HD
BRANCH  22  25
ATOM     25  C   UNK d   1      -2.972  -2.404   0.476  0.00  0.00     0.033 A 
ATOM     26  C   UNK d   1      -2.972  -2.201  -0.914  0.00  0.00     0.036 A 
ATOM     27  C   UNK d   1      -3.862  -2.813  -1.761  0.00  0.00     0.011 A 
ATOM     28 Br   UNK d   1      -3.776  -2.478  -3.660  0.00  0.00    -0.051 Br
ATOM     29  C   UNK d   1      -4.799  -3.664  -1.224  0.00  0.00     0.019 A 
ATOM     30  C   UNK d   1      -4.816  -3.873   0.145  0.00  0.00     0.002 A 
ATOM     31  C   UNK d   1      -3.909  -3.246   0.993  0.00  0.00     0.017 A 
ENDBRANCH  22  25
ENDBRANCH  19  21
ENDBRANCH   1  19
TORSDOF 3
