REMARK  7 active torsions:
REMARK  status: ('A' for Active; 'I' for Inactive)
REMARK    1  A    between atoms: C_7  and  C_11 
REMARK    2  A    between atoms: C_11  and  O_12 
REMARK    3  A    between atoms: O_12  and  C_13 
REMARK    4  A    between atoms: C_13  and  C_15 
REMARK    5  A    between atoms: N_17  and  C_26 
REMARK    6  A    between atoms: C_26  and  C_27 
REMARK    7  A    between atoms: C_27  and  O_28 
ROOT
ATOM      1  C   UNK d   1       0.987  -1.117   0.371  0.00  0.00     0.315 C 
ATOM      2  O   UNK d   1       2.179  -1.368   0.250  0.00  0.00    -0.257 OA
ENDROOT
BRANCH   1   3
ATOM      3  O   UNK d   1       0.751   0.285   0.361  0.00  0.00    -0.310 OA
BRANCH   3   4
ATOM      4  C   UNK d   1       1.859   1.132   0.220  0.00  0.00     0.238 C 
BRANCH   4   5
ATOM      5  C   UNK d   1       1.359   2.521   0.238  0.00  0.00     0.066 A 
ATOM      6  N   UNK d   1       1.256   3.180   1.404  0.00  0.00    -0.233 NA
ATOM      7  C   UNK d   1       0.808   4.444   1.480  0.00  0.00     0.137 A 
ATOM      8  N   UNK d   1       0.441   5.102   0.375  0.00  0.00    -0.272 N 
ATOM      9  C   UNK d   1       0.717   5.082   2.688  0.00  0.00     0.052 A 
ATOM     10  C   UNK d   1      -0.012   6.378   0.446  0.00  0.00     0.121 A 
ATOM     11  C   UNK d   1       0.513   4.515  -0.837  0.00  0.00     0.255 A 
ATOM     12  C   UNK d   1      -0.111   7.039   1.657  0.00  0.00     0.027 A 
ATOM     13 Br   UNK d   1      -0.757   8.850   1.734  0.00  0.00    -0.050 Br
ATOM     14  C   UNK d   1       0.261   6.379   2.802  0.00  0.00     0.024 A 
ATOM     15  C   UNK d   1       0.983   3.195  -0.897  0.00  0.00     0.104 A 
ATOM     16  O   UNK d   1       0.177   5.103  -1.895  0.00  0.00    -0.268 OA
ENDBRANCH   4   5
ENDBRANCH   3   4
ENDBRANCH   1   3
BRANCH   1  17
ATOM     17  C   UNK d   1      -0.144  -2.013   0.515  0.00  0.00     0.163 A 
ATOM     18  N   UNK d   1      -1.411  -1.516   0.638  0.00  0.00    -0.163 NA
ATOM     19  N   UNK d   1      -2.458  -2.311   0.770  0.00  0.00    -0.231 N 
ATOM     20  C   UNK d   1      -2.325  -3.648   0.790  0.00  0.00     0.274 A 
ATOM     21  O   UNK d   1      -3.344  -4.406   0.919  0.00  0.00    -0.266 OA
ATOM     22  C   UNK d   1      -1.084  -4.228   0.673  0.00  0.00     0.046 A 
ATOM     23  C   UNK d   1       0.006  -3.365   0.534  0.00  0.00     0.016 A 
ATOM     24  C   UNK d   1      -0.972  -5.593   0.696  0.00  0.00     0.018 A 
ATOM     25  C   UNK d   1       1.225  -3.987   0.419  0.00  0.00     0.015 A 
ATOM     26  C   UNK d   1       1.352  -5.372   0.441  0.00  0.00     0.001 A 
ATOM     27  C   UNK d   1       0.257  -6.192   0.580  0.00  0.00     0.001 A 
BRANCH  19  28
ATOM     28  C   UNK d   1      -3.796  -1.772   0.900  0.00  0.00     0.180 C 
BRANCH  28  29
ATOM     29  C   UNK d   1      -4.179  -1.522   2.335  0.00  0.00     0.186 C 
BRANCH  29  30
ATOM     30  O   UNK d   1      -3.338  -0.622   2.963  0.00  0.00    -0.399 OA
ATOM     31  H   UNK d   1      -2.743  -0.241   2.275  0.00  0.00     0.209 HD
ENDBRANCH  29  30
ENDBRANCH  28  29
ENDBRANCH  19  28
ENDBRANCH   1  17
TORSDOF 7
