REMARK  5 active torsions:
REMARK  status: ('A' for Active; 'I' for Inactive)
REMARK    1  A    between atoms: C_6  and  C_12 
REMARK    2  A    between atoms: C_12  and  C_13 
REMARK    3  A    between atoms: C_13  and  C_14 
REMARK       I    between atoms: C_14  and  N_16 
REMARK    4  A    between atoms: C_18  and  N_24 
REMARK    5  A    between atoms: C_19  and  O_22 
ROOT
ATOM      1  C   UNK d   1       0.990   0.198  -0.029  0.00  0.00     0.220 C 
ATOM      2  O   UNK d   1       1.311  -1.002  -0.185  0.00  0.00    -0.273 OA
ATOM      3  N   UNK d   1      -0.402   0.566  -0.136  0.00  0.00    -0.350 N 
ATOM      4  C   UNK d   1      -1.372  -0.457  -0.417  0.00  0.00     0.154 C 
ATOM      5  C   UNK d   1      -1.918  -0.188  -1.804  0.00  0.00     0.146 C 
ATOM      6  C   UNK d   1      -1.968   1.255  -2.155  0.00  0.00     0.078 C 
ATOM      7  C   UNK d   1      -1.935   2.197  -1.008  0.00  0.00     0.059 C 
ATOM      8  C   UNK d   1      -0.893   1.907   0.022  0.00  0.00     0.129 C 
ATOM      9  C   UNK d   1      -3.284   1.495  -2.907  0.00  0.00     0.048 C 
ENDROOT
BRANCH   1  10
ATOM     10  C   UNK d   1       1.975   1.247   0.257  0.00  0.00     0.110 C 
BRANCH  10  11
ATOM     11  C   UNK d   1       3.362   0.839   0.519  0.00  0.00     0.088 C 
BRANCH  11  12
ATOM     12  C   UNK d   1       3.599  -0.050   1.685  0.00  0.00     0.107 A 
ATOM     13  N   UNK d   1       3.657   0.383   2.993  0.00  0.00    -0.233 NA
ATOM     14  C   UNK d   1       3.944  -0.656   3.791  0.00  0.00     0.087 A 
ATOM     15  C   UNK d   1       4.118  -0.791   5.159  0.00  0.00     0.057 A 
ATOM     16  C   UNK d   1       4.078  -1.781   3.011  0.00  0.00     0.064 A 
ATOM     17  C   UNK d   1       4.414  -2.012   5.718  0.00  0.00     0.036 A 
ATOM     18 Cl   UNK d   1       4.626  -2.131   7.472  0.00  0.00    -0.084 Cl
ATOM     19  C   UNK d   1       4.544  -3.132   4.920  0.00  0.00     0.026 A 
ATOM     20  C   UNK d   1       4.374  -3.010   3.562  0.00  0.00     0.034 A 
ATOM     21  N   UNK d   1       3.858  -1.352   1.734  0.00  0.00    -0.338 N 
ATOM     22  C   UNK d   1       3.964  -2.275   0.618  0.00  0.00     0.158 C 
ENDBRANCH  11  12
ENDBRANCH  10  11
ENDBRANCH   1  10
BRANCH   5  23
ATOM     23  N   UNK d   1      -3.192  -0.856  -1.914  0.00  0.00    -0.300 N 
ATOM     24  C   UNK d   1      -4.187  -0.566  -1.053  0.00  0.00     0.102 A 
ATOM     25  C   UNK d   1      -5.418  -1.179  -1.121  0.00  0.00     0.092 A 
ATOM     26  C   UNK d   1      -5.629  -2.117  -2.105  0.00  0.00     0.250 A 
ATOM     27  O   UNK d   1      -6.747  -2.720  -2.221  0.00  0.00    -0.268 OA
ATOM     28  N   UNK d   1      -4.620  -2.386  -2.948  0.00  0.00    -0.275 N 
ATOM     29  C   UNK d   1      -3.436  -1.778  -2.861  0.00  0.00     0.329 A 
ATOM     30  H   UNK d   1      -4.740  -3.105  -3.723  0.00  0.00     0.173 HD
ATOM     31  O   UNK d   1      -2.518  -2.068  -3.681  0.00  0.00    -0.246 OA
ENDBRANCH   5  23
BRANCH   6  32
ATOM     32  O   UNK d   1      -0.957   1.632  -3.053  0.00  0.00    -0.388 OA
ATOM     33  H   UNK d   1      -0.200   0.974  -2.957  0.00  0.00     0.210 HD
ENDBRANCH   6  32
TORSDOF 5
