# created with PyMOL 2.3.2
@<TRIPOS>MOLECULE
1404
51 54 1                 
SMALL
USER_CHARGES
@<TRIPOS>ATOM
1	  Br	1.669	-5.104	1.747	Br	1	UNK0	0.000	
2	   C	1.209	-3.742	0.493	C.2	1	UNK0	0.000	
3	   C	0.248	-2.793	0.786	C.2	1	UNK0	0.000	
4	   C	-0.119	-1.790	-0.086	C.2	1	UNK0	0.000	
5	   C	0.547	-1.778	-1.315	C.2	1	UNK0	0.000	
6	   C	1.502	-2.721	-1.606	C.2	1	UNK0	0.000	
7	   C	1.859	-3.719	-0.723	C.2	1	UNK0	0.000	
8	   C	2.903	-4.717	-1.092	C.3	1	UNK0	0.000	
9	   O	0.153	-0.754	-2.165	O.3	1	UNK0	0.000	
10	   C	-0.970	0.079	-1.947	C.3	1	UNK0	0.000	
11	   C	-1.039	0.520	-0.447	C.3	1	UNK0	0.000	
12	   C	-1.145	-0.802	0.217	C.2	1	UNK0	0.000	
13	   O	-2.024	-1.174	1.014	O.2	1	UNK0	0.000	
14	   N	-2.021	1.425	-0.188	N.3	1	UNK0	0.000	
15	   C	-3.389	1.169	-0.341	C.3	1	UNK0	0.000	
16	   C	-3.890	1.778	-1.633	C.3	1	UNK0	0.000	
17	   O	-3.782	3.178	-1.457	O.3	1	UNK0	0.000	
18	   C	-2.400	3.427	-1.523	C.3	1	UNK0	0.000	
19	   C	-1.749	2.790	-0.293	C.3	1	UNK0	0.000	
20	   C	0.310	1.098	-0.208	C.3	1	UNK0	0.000	
21	   N	0.599	1.642	1.082	N.3	1	UNK0	0.000	
22	   C	0.718	0.757	2.178	C.3	1	UNK0	0.000	
23	   C	2.066	0.022	2.135	C.3	1	UNK0	0.000	
24	   O	3.036	1.009	2.339	O.3	1	UNK0	0.000	
25	   C	3.052	1.804	1.187	C.3	1	UNK0	0.000	
26	   C	1.759	2.528	0.969	C.3	1	UNK0	0.000	
27	   H	-0.276	-2.803	1.757	 H	1	UNK0	0.000	
28	   H	1.997	-2.682	-2.568	 H	1	UNK0	0.000	
29	   H	2.696	-5.711	-0.650	 H	1	UNK0	0.000	
30	   H	2.934	-4.744	-2.205	 H	1	UNK0	0.000	
31	   H	3.900	-4.358	-0.764	 H	1	UNK0	0.000	
32	   H	-0.849	0.956	-2.602	 H	1	UNK0	0.000	
33	   H	-1.910	-0.457	-2.212	 H	1	UNK0	0.000	
34	   H	-3.732	0.141	-0.271	 H	1	UNK0	0.000	
35	   H	-3.935	1.724	0.472	 H	1	UNK0	0.000	
36	   H	-3.325	1.439	-2.497	 H	1	UNK0	0.000	
37	   H	-4.977	1.573	-1.696	 H	1	UNK0	0.000	
38	   H	-2.249	4.515	-1.421	 H	1	UNK0	0.000	
39	   H	-2.053	3.017	-2.468	 H	1	UNK0	0.000	
40	   H	-2.304	3.301	0.568	 H	1	UNK0	0.000	
41	   H	-0.737	3.162	-0.203	 H	1	UNK0	0.000	
42	   H	0.565	1.913	-0.946	 H	1	UNK0	0.000	
43	   H	1.132	0.336	-0.383	 H	1	UNK0	0.000	
44	   H	-0.036	-0.004	2.241	 H	1	UNK0	0.000	
45	   H	0.774	1.369	3.114	 H	1	UNK0	0.000	
46	   H	2.034	-0.689	3.001	 H	1	UNK0	0.000	
47	   H	2.211	-0.528	1.194	 H	1	UNK0	0.000	
48	   H	3.839	2.584	1.385	 H	1	UNK0	0.000	
49	   H	3.390	1.233	0.302	 H	1	UNK0	0.000	
50	   H	1.672	3.392	1.643	 H	1	UNK0	0.000	
51	   H	1.746	2.921	-0.068	 H	1	UNK0	0.000	
@<TRIPOS>BOND
1 1 2 1
2 2 3 2
3 2 7 1
4 3 4 1
5 4 5 2
6 4 12 1
7 5 6 1
8 5 9 1
9 6 7 2
10 7 8 1
11 9 10 1
12 10 11 1
13 11 12 1
14 11 14 1
15 11 20 1
16 12 13 2
17 14 15 1
18 14 19 1
19 15 16 1
20 16 17 1
21 17 18 1
22 18 19 1
23 20 21 1
24 21 22 1
25 21 26 1
26 22 23 1
27 23 24 1
28 24 25 1
29 25 26 1
30 3 27 1
31 6 28 1
32 8 29 1
33 8 30 1
34 8 31 1
35 10 32 1
36 10 33 1
37 15 34 1
38 15 35 1
39 16 36 1
40 16 37 1
41 18 38 1
42 18 39 1
43 19 40 1
44 19 41 1
45 20 42 1
46 20 43 1
47 22 44 1
48 22 45 1
49 23 46 1
50 23 47 1
51 25 48 1
52 25 49 1
53 26 50 1
54 26 51 1
@<TRIPOS>SUBSTRUCTURE
1	UNK0	1	GROUP	1 ****	UNK
