REMARK  3 active torsions:
REMARK  status: ('A' for Active; 'I' for Inactive)
REMARK    1  A    between atoms: C_11  and  N_14 
REMARK    2  A    between atoms: C_11  and  C_20 
REMARK    3  A    between atoms: C_20  and  N_21 
ROOT
ATOM      1 Br   UNK d   1       1.669  -5.104   1.747  0.00  0.00    -0.051 Br
ATOM      2  C   UNK d   1       1.209  -3.742   0.493  0.00  0.00     0.018 A 
ATOM      3  C   UNK d   1       0.248  -2.793   0.786  0.00  0.00     0.037 A 
ATOM      4  C   UNK d   1      -0.119  -1.790  -0.086  0.00  0.00     0.047 A 
ATOM      5  C   UNK d   1       0.547  -1.778  -1.315  0.00  0.00     0.083 A 
ATOM      6  C   UNK d   1       1.502  -2.721  -1.606  0.00  0.00     0.045 A 
ATOM      7  C   UNK d   1       1.859  -3.719  -0.723  0.00  0.00    -0.042 A 
ATOM      8  C   UNK d   1       2.903  -4.717  -1.092  0.00  0.00     0.049 C 
ATOM      9  O   UNK d   1       0.153  -0.754  -2.165  0.00  0.00    -0.347 OA
ATOM     10  C   UNK d   1      -0.970   0.079  -1.947  0.00  0.00     0.216 C 
ATOM     11  C   UNK d   1      -1.039   0.520  -0.447  0.00  0.00     0.142 C 
ATOM     12  C   UNK d   1      -1.145  -0.802   0.217  0.00  0.00     0.194 C 
ATOM     13  O   UNK d   1      -2.024  -1.174   1.014  0.00  0.00    -0.289 OA
ENDROOT
BRANCH  11  14
ATOM     14  N   UNK d   1      -2.021   1.425  -0.188  0.00  0.00    -0.390 N 
ATOM     15  C   UNK d   1      -3.389   1.169  -0.341  0.00  0.00     0.144 C 
ATOM     16  C   UNK d   1      -3.890   1.778  -1.633  0.00  0.00     0.187 C 
ATOM     17  O   UNK d   1      -3.782   3.178  -1.457  0.00  0.00    -0.388 OA
ATOM     18  C   UNK d   1      -2.400   3.427  -1.523  0.00  0.00     0.187 C 
ATOM     19  C   UNK d   1      -1.749   2.790  -0.293  0.00  0.00     0.144 C 
ENDBRANCH  11  14
BRANCH  11  20
ATOM     20  C   UNK d   1       0.310   1.098  -0.208  0.00  0.00     0.314 C 
BRANCH  20  21
ATOM     21  N   UNK d   1       0.599   1.642   1.082  0.00  0.00     0.095 N 
ATOM     22  C   UNK d   1       0.718   0.757   2.178  0.00  0.00     0.298 C 
ATOM     23  C   UNK d   1       2.066   0.022   2.135  0.00  0.00     0.198 C 
ATOM     24  O   UNK d   1       3.036   1.009   2.339  0.00  0.00    -0.388 OA
ATOM     25  C   UNK d   1       3.052   1.804   1.187  0.00  0.00     0.198 C 
ATOM     26  C   UNK d   1       1.759   2.528   0.969  0.00  0.00     0.298 C 
ENDBRANCH  20  21
ENDBRANCH  11  20
TORSDOF 3
