REMARK  1 active torsions:
REMARK  status: ('A' for Active; 'I' for Inactive)
REMARK    1  A    between atoms: C_19  and  N_23 
ROOT
ATOM      1 Br   UNK d   1      -3.116   4.734   0.099  0.00  0.00    -0.051 Br
ATOM      2  C   UNK d   1      -1.934   3.212   0.072  0.00  0.00     0.011 A 
ATOM      3  C   UNK d   1      -2.402   1.959  -0.224  0.00  0.00     0.030 A 
ATOM      4  C   UNK d   1      -1.537   0.885  -0.238  0.00  0.00    -0.002 A 
ATOM      5  C   UNK d   1      -0.221   1.125   0.051  0.00  0.00     0.045 A 
ATOM      6  C   UNK d   1       0.259   2.415   0.355  0.00  0.00     0.031 A 
ATOM      7  C   UNK d   1      -0.614   3.470   0.364  0.00  0.00     0.021 A 
ATOM      8  N   UNK d   1       0.543  -0.076  -0.003  0.00  0.00    -0.320 N 
ATOM      9  C   UNK d   1      -0.324  -1.123  -0.340  0.00  0.00     0.247 A 
ATOM     10  O   UNK d   1       0.016  -2.338  -0.476  0.00  0.00    -0.271 OA
ATOM     11  C   UNK d   1      -1.711  -0.563  -0.510  0.00  0.00     0.145 A 
ATOM     12  C   UNK d   1      -2.089  -0.845  -1.890  0.00  0.00     0.049 A 
ATOM     13  C   UNK d   1      -3.135  -1.664  -2.182  0.00  0.00     0.200 A 
ATOM     14  N   UNK d   1      -3.221  -1.716  -3.544  0.00  0.00    -0.148 NA
ATOM     15  N   UNK d   1      -2.281  -0.972  -4.088  0.00  0.00    -0.280 N 
ATOM     16  C   UNK d   1      -1.563  -0.419  -3.113  0.00  0.00     0.036 A 
ATOM     17  C   UNK d   1      -0.389   0.504  -3.209  0.00  0.00     0.070 C 
ATOM     18  O   UNK d   1      -3.911  -2.283  -1.196  0.00  0.00    -0.272 OA
ATOM     19  C   UNK d   1      -3.547  -2.012   0.119  0.00  0.00     0.162 A 
ATOM     20  C   UNK d   1      -2.553  -1.235   0.462  0.00  0.00     0.100 A 
ATOM     21  C   UNK d   1      -2.312  -1.061   1.905  0.00  0.00     0.101 C 
ATOM     22  N   UNK d   1      -2.103  -0.909   3.044  0.00  0.00    -0.191 NA
ATOM     23  C   UNK d   1       1.986  -0.208   0.249  0.00  0.00     0.159 C 
ATOM     24  H   UNK d   1      -2.085  -0.807  -5.109  0.00  0.00     0.189 HD
ENDROOT
BRANCH  19  25
ATOM     25  N   UNK d   1      -4.318  -2.628   1.189  0.00  0.00    -0.379 N 
ATOM     26  H   UNK d   1      -3.977  -3.564   1.486  0.00  0.00     0.158 HD
ATOM     27  H   UNK d   1      -5.129  -2.190   1.621  0.00  0.00     0.158 HD
ENDBRANCH  19  25
TORSDOF 1
