REMARK  3 active torsions:
REMARK  status: ('A' for Active; 'I' for Inactive)
REMARK    1  A    between atoms: N_9  and  C_11 
REMARK    2  A    between atoms: C_11  and  C_12 
REMARK    3  A    between atoms: C_12  and  C_14 
ROOT
ATOM      1  C   UNK d   1      -1.804  -0.383  -0.442  0.00  0.00     0.211 C 
ENDROOT
BRANCH   1   2
ATOM      2  N   UNK d   1      -1.257   0.915  -0.801  0.00  0.00    -0.355 N 
ATOM      3  C   UNK d   1      -0.520   1.660   0.040  0.00  0.00     0.127 A 
ATOM      4  C   UNK d   1      -0.017   2.898  -0.346  0.00  0.00     0.126 A 
ATOM      5  C   UNK d   1      -0.259   3.400  -1.605  0.00  0.00     0.104 A 
ATOM      6  N   UNK d   1       0.737   3.850   0.263  0.00  0.00    -0.128 NA
ATOM      7  C   UNK d   1      -1.001   2.654  -2.456  0.00  0.00     0.057 A 
ATOM      8  N   UNK d   1       0.325   4.606  -1.748  0.00  0.00    -0.252 N 
ATOM      9 Br   UNK d   1      -1.349   3.324  -4.193  0.00  0.00    -0.047 Br
ATOM     10  C   UNK d   1      -1.488   1.418  -2.033  0.00  0.00     0.112 A 
ATOM     11  N   UNK d   1       0.918   4.829  -0.579  0.00  0.00    -0.065 NA
ATOM     12  C   UNK d   1       0.364   5.508  -2.836  0.00  0.00     0.182 C 
ENDBRANCH   1   2
BRANCH   1  13
ATOM     13  C   UNK d   1      -0.925  -1.509  -0.743  0.00  0.00     0.177 C 
ATOM     14  O   UNK d   1      -0.987  -1.971  -1.923  0.00  0.00    -0.291 OA
BRANCH  13  15
ATOM     15  C   UNK d   1       0.010  -2.148   0.178  0.00  0.00     0.012 A 
ATOM     16  C   UNK d   1       0.779  -3.184  -0.272  0.00  0.00     0.027 A 
ATOM     17  C   UNK d   1       1.661  -3.807   0.572  0.00  0.00    -0.025 A 
ATOM     18  C   UNK d   1       1.809  -3.422   1.892  0.00  0.00    -0.026 A 
ATOM     19  C   UNK d   1       2.430  -4.853   0.094  0.00  0.00     0.012 A 
ATOM     20  C   UNK d   1       1.010  -2.364   2.319  0.00  0.00     0.013 A 
ATOM     21  C   UNK d   1       2.690  -4.033   2.760  0.00  0.00     0.012 A 
ATOM     22  C   UNK d   1       0.129  -1.739   1.480  0.00  0.00     0.016 A 
ATOM     23  C   UNK d   1       3.449  -5.074   2.270  0.00  0.00     0.001 A 
ATOM     24  C   UNK d   1       3.310  -5.467   0.955  0.00  0.00     0.001 A 
ENDBRANCH  13  15
ENDBRANCH   1  13
TORSDOF 3
