# created with PyMOL 2.3.2
@<TRIPOS>MOLECULE
1415
66 69 1                 
SMALL
USER_CHARGES
@<TRIPOS>ATOM
1	  Br	4.923	3.801	0.412	Br	1	UNK0	0.000	
2	   C	4.681	2.129	-0.493	C.2	1	UNK0	0.000	
3	   C	3.423	1.586	-0.602	C.2	1	UNK0	0.000	
4	   C	3.202	0.363	-1.257	C.2	1	UNK0	0.000	
5	   C	4.312	-0.261	-1.783	C.2	1	UNK0	0.000	
6	   C	5.584	0.261	-1.687	C.2	1	UNK0	0.000	
7	   C	5.775	1.461	-1.041	C.2	1	UNK0	0.000	
8	   C	7.105	2.105	-0.886	C.3	1	UNK0	0.000	
9	  Br	7.103	-0.626	-2.426	Br	1	UNK0	0.000	
10	   C	1.860	-0.174	-1.346	C.2	1	UNK0	0.000	
11	   O	1.641	-1.194	-2.008	O.2	1	UNK0	0.000	
12	   C	0.759	0.506	-0.641	C.3	1	UNK0	0.000	
13	   C	1.068	1.987	-0.653	C.3	1	UNK0	0.000	
14	   O	2.326	2.247	-0.058	O.3	1	UNK0	0.000	
15	   C	-0.594	0.219	-1.218	C.3	1	UNK0	0.000	
16	   N	-0.785	0.590	-2.567	N.4	1	UNK0	0.000	
17	   C	-1.444	-0.466	-3.277	C.3	1	UNK0	0.000	
18	   C	-2.875	-0.668	-2.928	C.3	1	UNK0	0.000	
19	   C	-3.503	0.360	-2.069	C.3	1	UNK0	0.000	
20	   C	-2.871	1.697	-2.061	C.3	1	UNK0	0.000	
21	   C	-1.559	1.781	-2.784	C.3	1	UNK0	0.000	
22	   C	-2.989	-2.013	-2.201	C.3	1	UNK0	0.000	
23	   C	0.823	0.025	0.794	C.3	1	UNK0	0.000	
24	   N	-0.164	0.569	1.663	N.4	1	UNK0	0.000	
25	   C	0.463	1.102	2.871	C.3	1	UNK0	0.000	
26	   C	0.339	0.173	4.043	C.3	1	UNK0	0.000	
27	   C	0.581	-1.249	3.590	C.3	1	UNK0	0.000	
28	   C	-0.547	-1.639	2.686	C.3	1	UNK0	0.000	
29	   C	-1.156	-0.386	2.107	C.3	1	UNK0	0.000	
30	   C	1.480	0.517	5.010	C.3	1	UNK0	0.000	
31	   H	4.199	-1.210	-2.301	 H	1	UNK0	0.000	
32	   H	7.077	3.076	-1.429	 H	1	UNK0	0.000	
33	   H	7.932	1.459	-1.184	 H	1	UNK0	0.000	
34	   H	7.183	2.386	0.203	 H	1	UNK0	0.000	
35	   H	1.115	2.378	-1.680	 H	1	UNK0	0.000	
36	   H	0.253	2.575	-0.146	 H	1	UNK0	0.000	
37	   H	-0.738	-0.879	-1.138	 H	1	UNK0	0.000	
38	   H	-1.353	0.668	-0.545	 H	1	UNK0	0.000	
39	   H	0.145	0.743	-3.033	 H	1	UNK0	0.000	
40	   H	-1.330	-0.226	-4.376	 H	1	UNK0	0.000	
41	   H	-0.849	-1.392	-3.136	 H	1	UNK0	0.000	
42	   H	-3.448	-0.806	-3.874	 H	1	UNK0	0.000	
43	   H	-4.573	0.482	-2.406	 H	1	UNK0	0.000	
44	   H	-3.611	0.000	-1.002	 H	1	UNK0	0.000	
45	   H	-2.738	2.088	-1.009	 H	1	UNK0	0.000	
46	   H	-3.537	2.477	-2.538	 H	1	UNK0	0.000	
47	   H	-1.067	2.724	-2.583	 H	1	UNK0	0.000	
48	   H	-1.812	1.789	-3.887	 H	1	UNK0	0.000	
49	   H	-3.969	-2.501	-2.429	 H	1	UNK0	0.000	
50	   H	-2.124	-2.642	-2.450	 H	1	UNK0	0.000	
51	   H	-2.954	-1.805	-1.115	 H	1	UNK0	0.000	
52	   H	1.844	0.326	1.166	 H	1	UNK0	0.000	
53	   H	0.857	-1.101	0.808	 H	1	UNK0	0.000	
54	   H	-0.646	1.354	1.217	 H	1	UNK0	0.000	
55	   H	0.043	2.082	3.152	 H	1	UNK0	0.000	
56	   H	1.562	1.260	2.706	 H	1	UNK0	0.000	
57	   H	-0.589	0.294	4.616	 H	1	UNK0	0.000	
58	   H	0.611	-1.880	4.501	 H	1	UNK0	0.000	
59	   H	1.566	-1.291	3.114	 H	1	UNK0	0.000	
60	   H	-0.299	-2.365	1.916	 H	1	UNK0	0.000	
61	   H	-1.353	-2.109	3.319	 H	1	UNK0	0.000	
62	   H	-1.749	0.143	2.909	 H	1	UNK0	0.000	
63	   H	-1.883	-0.688	1.352	 H	1	UNK0	0.000	
64	   H	1.741	1.597	4.917	 H	1	UNK0	0.000	
65	   H	2.361	-0.137	4.839	 H	1	UNK0	0.000	
66	   H	1.170	0.348	6.062	 H	1	UNK0	0.000	
@<TRIPOS>BOND
1 1 2 1
2 2 3 2
3 2 7 1
4 3 4 1
5 3 14 1
6 4 5 2
7 4 10 1
8 5 6 1
9 6 7 2
10 6 9 1
11 7 8 1
12 10 11 2
13 10 12 1
14 12 13 1
15 12 15 1
16 12 23 1
17 13 14 1
18 15 16 1
19 16 17 1
20 16 21 1
21 17 18 1
22 18 19 1
23 18 22 1
24 19 20 1
25 20 21 1
26 23 24 1
27 24 25 1
28 24 29 1
29 25 26 1
30 26 27 1
31 26 30 1
32 27 28 1
33 28 29 1
34 5 31 1
35 8 32 1
36 8 33 1
37 8 34 1
38 13 35 1
39 13 36 1
40 15 37 1
41 15 38 1
42 16 39 1
43 17 40 1
44 17 41 1
45 18 42 1
46 19 43 1
47 19 44 1
48 20 45 1
49 20 46 1
50 21 47 1
51 21 48 1
52 22 49 1
53 22 50 1
54 22 51 1
55 23 52 1
56 23 53 1
57 24 54 1
58 25 55 1
59 25 56 1
60 26 57 1
61 27 58 1
62 27 59 1
63 28 60 1
64 28 61 1
65 29 62 1
66 29 63 1
67 30 64 1
68 30 65 1
69 30 66 1
@<TRIPOS>SUBSTRUCTURE
1	UNK0	1	GROUP	1 ****	UNK
