REMARK  6 active torsions:
REMARK  status: ('A' for Active; 'I' for Inactive)
REMARK    1  A    between atoms: C_13  and  C_29 
REMARK    2  A    between atoms: C_15  and  C_16 
REMARK       I    between atoms: C_16  and  N_18 
REMARK    3  A    between atoms: N_18  and  C_19 
REMARK    4  A    between atoms: C_20  and  O_27 
REMARK    5  A    between atoms: C_23  and  O_25 
REMARK    6  A    between atoms: C_29  and  C_30 
REMARK       I    between atoms: C_30  and  N_32 
ROOT
ATOM      1 Cl   UNK d   1      -2.522   3.565  -0.747  0.00  0.00    -0.084 Cl
ATOM      2  C   UNK d   1      -1.073   3.209   0.188  0.00  0.00     0.034 A 
ATOM      3  C   UNK d   1      -0.238   2.172  -0.132  0.00  0.00     0.036 A 
ATOM      4  C   UNK d   1       0.882   1.937   0.633  0.00  0.00     0.019 A 
ATOM      5  C   UNK d   1       1.123   2.761   1.701  0.00  0.00     0.044 A 
ATOM      6  C   UNK d   1       0.269   3.819   2.025  0.00  0.00     0.032 A 
ATOM      7  C   UNK d   1      -0.838   4.042   1.260  0.00  0.00     0.026 A 
ATOM      8  N   UNK d   1       2.317   2.414   2.393  0.00  0.00    -0.324 N 
ATOM      9  C   UNK d   1       2.852   1.310   1.717  0.00  0.00     0.267 A 
ATOM     10  O   UNK d   1       3.943   0.761   2.083  0.00  0.00    -0.270 OA
ATOM     11  C   UNK d   1       1.978   0.940   0.595  0.00  0.00     0.278 A 
ATOM     12  N   UNK d   1       2.751   1.027  -0.612  0.00  0.00     0.113 N 
ATOM     13  C   UNK d   1       2.942  -0.289  -1.137  0.00  0.00     0.232 C 
ATOM     14  C   UNK d   1       2.540  -1.257  -0.071  0.00  0.00     0.053 C 
ATOM     15  C   UNK d   1       1.550  -0.457   0.729  0.00  0.00     0.133 C 
ATOM     16  H   UNK d   1       2.723   2.888   3.243  0.00  0.00     0.169 HD
ATOM     17  H   UNK d   1       2.324   1.697  -1.286  0.00  0.00     0.318 HD
ENDROOT
BRANCH  15  18
ATOM     18  C   UNK d   1       0.141  -0.754   0.364  0.00  0.00     0.229 C 
ATOM     19  O   UNK d   1      -0.025  -1.451  -0.666  0.00  0.00    -0.273 OA
ATOM     20  N   UNK d   1      -0.964  -0.303   1.095  0.00  0.00    -0.324 N 
ATOM     21  H   UNK d   1      -0.714   0.271   1.958  0.00  0.00     0.169 HD
BRANCH  20  22
ATOM     22  C   UNK d   1      -2.322  -0.512   0.850  0.00  0.00     0.071 A 
ATOM     23  C   UNK d   1      -3.259   0.030   1.718  0.00  0.00     0.095 A 
ATOM     24  C   UNK d   1      -4.617  -0.135   1.536  0.00  0.00     0.042 A 
ATOM     25  C   UNK d   1      -5.109  -0.853   0.475  0.00  0.00     0.039 A 
ATOM     26  C   UNK d   1      -4.211  -1.399  -0.396  0.00  0.00     0.070 A 
ATOM     27  C   UNK d   1      -2.843  -1.224  -0.201  0.00  0.00     0.069 A 
BRANCH  23  28
ATOM     28  O   UNK d   1      -2.841   0.767   2.812  0.00  0.00    -0.354 OA
ATOM     29  C   UNK d   1      -3.704   1.351   3.739  0.00  0.00     0.210 C 
ENDBRANCH  23  28
BRANCH  26  30
ATOM     30  O   UNK d   1      -4.666  -2.129  -1.479  0.00  0.00    -0.356 OA
ATOM     31  C   UNK d   1      -3.793  -2.724  -2.422  0.00  0.00     0.210 C 
ENDBRANCH  26  30
ENDBRANCH  20  22
ENDBRANCH  15  18
BRANCH  13  32
ATOM     32  C   UNK d   1       4.373  -0.510  -1.599  0.00  0.00     0.138 C 
BRANCH  32  33
ATOM     33  C   UNK d   1       4.575  -1.862  -2.139  0.00  0.00     0.217 C 
ATOM     34  O   UNK d   1       3.633  -2.669  -2.178  0.00  0.00    -0.274 OA
ATOM     35  N   UNK d   1       5.844  -2.242  -2.614  0.00  0.00    -0.370 N 
ATOM     36  H   UNK d   1       5.902  -2.713  -3.542  0.00  0.00     0.159 HD
ATOM     37  H   UNK d   1       6.743  -2.084  -2.097  0.00  0.00     0.159 HD
ENDBRANCH  32  33
ENDBRANCH  13  32
TORSDOF 6
