# created with PyMOL 2.3.2
@<TRIPOS>MOLECULE
1428
55 58 1                 
SMALL
USER_CHARGES
@<TRIPOS>ATOM
1	  Cl	-2.522	3.565	-0.747	Cl	1	UNK0	0.000	
2	   C	-1.073	3.209	0.188	C.2	1	UNK0	0.000	
3	   C	-0.238	2.172	-0.132	C.2	1	UNK0	0.000	
4	   C	0.882	1.937	0.633	C.2	1	UNK0	0.000	
5	   C	1.123	2.761	1.701	C.2	1	UNK0	0.000	
6	   C	0.269	3.819	2.025	C.2	1	UNK0	0.000	
7	   C	-0.838	4.042	1.260	C.2	1	UNK0	0.000	
8	   N	2.317	2.414	2.393	N.pl3	1	UNK0	0.000	
9	   C	2.852	1.310	1.717	C.2	1	UNK0	0.000	
10	   O	3.943	0.761	2.083	O.2	1	UNK0	0.000	
11	   C	1.978	0.940	0.595	C.3	1	UNK0	0.000	
12	   N	2.751	1.027	-0.612	N.3	1	UNK0	0.000	
13	   C	2.942	-0.289	-1.137	C.3	1	UNK0	0.000	
14	   C	2.540	-1.257	-0.071	C.3	1	UNK0	0.000	
15	   C	1.550	-0.457	0.729	C.3	1	UNK0	0.000	
16	   C	0.141	-0.754	0.364	C.2	1	UNK0	0.000	
17	   O	-0.025	-1.451	-0.666	O.2	1	UNK0	0.000	
18	   N	-0.964	-0.303	1.095	N.pl3	1	UNK0	0.000	
19	   C	-2.322	-0.512	0.850	C.2	1	UNK0	0.000	
20	   C	-3.259	0.030	1.718	C.2	1	UNK0	0.000	
21	   C	-4.617	-0.135	1.536	C.2	1	UNK0	0.000	
22	   C	-5.109	-0.853	0.475	C.2	1	UNK0	0.000	
23	   C	-4.211	-1.399	-0.396	C.2	1	UNK0	0.000	
24	   C	-2.843	-1.224	-0.201	C.2	1	UNK0	0.000	
25	   O	-4.666	-2.129	-1.479	O.3	1	UNK0	0.000	
26	   C	-3.793	-2.724	-2.422	C.3	1	UNK0	0.000	
27	   O	-2.841	0.767	2.812	O.3	1	UNK0	0.000	
28	   C	-3.704	1.351	3.739	C.3	1	UNK0	0.000	
29	   C	4.373	-0.510	-1.599	C.3	1	UNK0	0.000	
30	   C	4.575	-1.862	-2.139	C.2	1	UNK0	0.000	
31	   O	3.633	-2.669	-2.178	O.2	1	UNK0	0.000	
32	   N	5.844	-2.242	-2.614	N.pl3	1	UNK0	0.000	
33	   H	-0.460	1.556	-0.967	 H	1	UNK0	0.000	
34	   H	0.478	4.467	2.882	 H	1	UNK0	0.000	
35	   H	-1.501	4.868	1.517	 H	1	UNK0	0.000	
36	   H	2.723	2.888	3.243	 H	1	UNK0	0.000	
37	   H	2.324	1.697	-1.286	 H	1	UNK0	0.000	
38	   H	2.291	-0.469	-2.028	 H	1	UNK0	0.000	
39	   H	3.390	-1.509	0.614	 H	1	UNK0	0.000	
40	   H	2.086	-2.188	-0.477	 H	1	UNK0	0.000	
41	   H	1.667	-0.740	1.825	 H	1	UNK0	0.000	
42	   H	-0.714	0.271	1.958	 H	1	UNK0	0.000	
43	   H	-5.335	0.303	2.237	 H	1	UNK0	0.000	
44	   H	-6.168	-0.983	0.332	 H	1	UNK0	0.000	
45	   H	-2.217	-1.680	-0.922	 H	1	UNK0	0.000	
46	   H	-2.992	-3.312	-1.935	 H	1	UNK0	0.000	
47	   H	-3.366	-1.895	-3.023	 H	1	UNK0	0.000	
48	   H	-4.329	-3.393	-3.114	 H	1	UNK0	0.000	
49	   H	-4.161	0.511	4.331	 H	1	UNK0	0.000	
50	   H	-3.111	1.976	4.438	 H	1	UNK0	0.000	
51	   H	-4.545	1.903	3.294	 H	1	UNK0	0.000	
52	   H	5.078	-0.283	-0.770	 H	1	UNK0	0.000	
53	   H	4.620	0.208	-2.409	 H	1	UNK0	0.000	
54	   H	5.902	-2.713	-3.542	 H	1	UNK0	0.000	
55	   H	6.743	-2.084	-2.097	 H	1	UNK0	0.000	
@<TRIPOS>BOND
1 1 2 1
2 2 3 2
3 2 7 1
4 3 4 1
5 4 5 2
6 4 11 1
7 5 6 1
8 5 8 1
9 6 7 2
10 8 9 1
11 9 10 2
12 9 11 1
13 11 12 1
14 11 15 1
15 12 13 1
16 13 14 1
17 13 29 1
18 14 15 1
19 15 16 1
20 16 17 2
21 16 18 1
22 18 19 1
23 19 20 2
24 19 24 1
25 20 21 1
26 20 27 1
27 21 22 2
28 22 23 1
29 23 24 2
30 23 25 1
31 25 26 1
32 27 28 1
33 29 30 1
34 30 31 2
35 30 32 1
36 3 33 1
37 6 34 1
38 7 35 1
39 8 36 1
40 12 37 1
41 13 38 1
42 14 39 1
43 14 40 1
44 15 41 1
45 18 42 1
46 21 43 1
47 22 44 1
48 24 45 1
49 26 46 1
50 26 47 1
51 26 48 1
52 28 49 1
53 28 50 1
54 28 51 1
55 29 52 1
56 29 53 1
57 32 54 1
58 32 55 1
@<TRIPOS>SUBSTRUCTURE
1	UNK0	1	GROUP	1 ****	UNK
