REMARK  2 active torsions:
REMARK  status: ('A' for Active; 'I' for Inactive)
REMARK    1  A    between atoms: N_4  and  C_8 
REMARK    2  A    between atoms: C_8  and  C_9 
ROOT
ATOM      1  C   UNK d   1      -0.220   1.416  -0.517  0.00  0.00     0.168 A 
ATOM      2  N   UNK d   1      -1.494   0.996  -0.585  0.00  0.00    -0.148 NA
ATOM      3  N   UNK d   1      -1.727   0.043   0.333  0.00  0.00    -0.206 N 
ATOM      4  C   UNK d   1      -0.576  -0.148   1.002  0.00  0.00     0.169 A 
ATOM      5  N   UNK d   1       0.336   0.692   0.478  0.00  0.00    -0.209 NA
ATOM      6  C   UNK d   1      -0.568  -1.093   2.010  0.00  0.00     0.079 A 
ATOM      7  C   UNK d   1      -1.691  -1.829   2.338  0.00  0.00     0.162 A 
ATOM      8  N   UNK d   1      -1.414  -2.678   3.351  0.00  0.00    -0.256 N 
ATOM      9  N   UNK d   1      -0.145  -2.478   3.653  0.00  0.00    -0.182 NA
ATOM     10  C   UNK d   1       0.409  -1.533   2.872  0.00  0.00     0.158 A 
ATOM     11  C   UNK d   1      -2.352  -3.614   3.967  0.00  0.00     0.182 C 
ATOM     12  N   UNK d   1      -2.806  -1.585   1.628  0.00  0.00    -0.222 NA
ATOM     13  C   UNK d   1      -2.826  -0.669   0.646  0.00  0.00     0.239 A 
ENDROOT
BRANCH   1  14
ATOM     14  C   UNK d   1       0.463   2.451  -1.341  0.00  0.00     0.232 C 
BRANCH  14  15
ATOM     15  N   UNK d   1       1.070   1.877  -2.531  0.00  0.00    -0.272 N 
ATOM     16  C   UNK d   1       2.322   1.390  -2.644  0.00  0.00     0.134 A 
ATOM     17  C   UNK d   1       2.500   0.937  -3.949  0.00  0.00     0.054 A 
ATOM     18 Br   UNK d   1       4.054   0.146  -4.718  0.00  0.00    -0.047 Br
ATOM     19  C   UNK d   1       1.308   1.174  -4.600  0.00  0.00     0.069 A 
ATOM     20  N   UNK d   1       0.468   1.742  -3.713  0.00  0.00    -0.176 NA
ATOM     21  C   UNK d   1       1.069   0.836  -6.023  0.00  0.00     0.074 C 
ENDBRANCH  14  15
ENDBRANCH   1  14
TORSDOF 2
