REMARK  4 active torsions:
REMARK  status: ('A' for Active; 'I' for Inactive)
REMARK    1  A    between atoms: C_10  and  O_27 
REMARK    2  A    between atoms: C_11  and  N_14 
REMARK    3  A    between atoms: C_11  and  C_20 
REMARK    4  A    between atoms: C_20  and  N_21 
ROOT
ATOM      1 Br   UNK d   1       1.609   3.694   3.408  0.00  0.00    -0.048 Br
ATOM      2  C   UNK d   1       0.378   2.269   3.184  0.00  0.00     0.051 A 
ATOM      3  C   UNK d   1       0.493   1.422   2.077  0.00  0.00     0.095 A 
ATOM      4  C   UNK d   1      -0.373   0.373   1.889  0.00  0.00     0.008 A 
ATOM      5  C   UNK d   1      -1.359   0.186   2.828  0.00  0.00     0.020 A 
ATOM      6  C   UNK d   1      -1.497   1.015   3.940  0.00  0.00    -0.054 A 
ATOM      7  C   UNK d   1      -0.606   2.077   4.120  0.00  0.00    -0.036 A 
ATOM      8  C   UNK d   1      -0.740   2.966   5.307  0.00  0.00     0.050 C 
ATOM      9  C   UNK d   1      -2.594   0.784   4.917  0.00  0.00     0.049 C 
ATOM     10  C   UNK d   1      -0.301  -0.601   0.762  0.00  0.00     0.197 C 
ATOM     11  C   UNK d   1       0.672  -0.234  -0.316  0.00  0.00     0.236 C 
ATOM     12  C   UNK d   1       0.958   1.254  -0.230  0.00  0.00     0.222 C 
ATOM     13  O   UNK d   1       1.462   1.569   1.094  0.00  0.00    -0.346 OA
ENDROOT
BRANCH  11  14
ATOM     14  N   UNK d   1      -0.001  -0.482  -1.573  0.00  0.00     0.109 N 
ATOM     15  C   UNK d   1       0.834  -1.076  -2.563  0.00  0.00     0.299 C 
ATOM     16  C   UNK d   1       0.326  -0.993  -3.974  0.00  0.00     0.198 C 
ATOM     17  O   UNK d   1      -0.322   0.169  -4.295  0.00  0.00    -0.388 OA
ATOM     18  C   UNK d   1      -1.392   0.325  -3.404  0.00  0.00     0.198 C 
ATOM     19  C   UNK d   1      -0.699   0.671  -2.060  0.00  0.00     0.299 C 
ENDBRANCH  11  14
BRANCH  11  20
ATOM     20  C   UNK d   1       2.005  -0.875  -0.236  0.00  0.00     0.319 C 
BRANCH  20  21
ATOM     21  N   UNK d   1       2.215  -2.247  -0.314  0.00  0.00     0.095 N 
ATOM     22  C   UNK d   1       3.621  -2.512  -0.775  0.00  0.00     0.298 C 
ATOM     23  C   UNK d   1       4.610  -1.843   0.106  0.00  0.00     0.198 C 
ATOM     24  O   UNK d   1       4.231  -1.723   1.416  0.00  0.00    -0.388 OA
ATOM     25  C   UNK d   1       3.316  -2.632   1.861  0.00  0.00     0.198 C 
ATOM     26  C   UNK d   1       2.234  -3.028   0.909  0.00  0.00     0.298 C 
ENDBRANCH  20  21
ENDBRANCH  11  20
BRANCH  10  27
ATOM     27  O   UNK d   1      -1.619  -0.704   0.218  0.00  0.00    -0.388 OA
ATOM     28  H   UNK d   1      -2.142  -1.263   0.844  0.00  0.00     0.210 HD
ENDBRANCH  10  27
TORSDOF 4
