# created with PyMOL 2.3.2
@<TRIPOS>MOLECULE
1433
56 59 1                 
SMALL
USER_CHARGES
@<TRIPOS>ATOM
1	  Br	1.609	3.694	3.408	Br	1	UNK0	0.000	
2	   C	0.378	2.269	3.184	C.2	1	UNK0	0.000	
3	   C	0.493	1.422	2.077	C.2	1	UNK0	0.000	
4	   C	-0.373	0.373	1.889	C.2	1	UNK0	0.000	
5	   C	-1.359	0.186	2.828	C.2	1	UNK0	0.000	
6	   C	-1.497	1.015	3.940	C.2	1	UNK0	0.000	
7	   C	-0.606	2.077	4.120	C.2	1	UNK0	0.000	
8	   C	-0.740	2.966	5.307	C.3	1	UNK0	0.000	
9	   C	-2.594	0.784	4.917	C.3	1	UNK0	0.000	
10	   C	-0.301	-0.601	0.762	C.3	1	UNK0	0.000	
11	   C	0.672	-0.234	-0.316	C.3	1	UNK0	0.000	
12	   C	0.958	1.254	-0.230	C.3	1	UNK0	0.000	
13	   O	1.462	1.569	1.094	O.3	1	UNK0	0.000	
14	   N	-0.001	-0.482	-1.573	N.3	1	UNK0	0.000	
15	   C	0.834	-1.076	-2.563	C.3	1	UNK0	0.000	
16	   C	0.326	-0.993	-3.974	C.3	1	UNK0	0.000	
17	   O	-0.322	0.169	-4.295	O.3	1	UNK0	0.000	
18	   C	-1.392	0.325	-3.404	C.3	1	UNK0	0.000	
19	   C	-0.699	0.671	-2.060	C.3	1	UNK0	0.000	
20	   C	2.005	-0.875	-0.236	C.3	1	UNK0	0.000	
21	   N	2.215	-2.247	-0.314	N.3	1	UNK0	0.000	
22	   C	3.621	-2.512	-0.775	C.3	1	UNK0	0.000	
23	   C	4.610	-1.843	0.106	C.3	1	UNK0	0.000	
24	   O	4.231	-1.723	1.416	O.3	1	UNK0	0.000	
25	   C	3.316	-2.632	1.861	C.3	1	UNK0	0.000	
26	   C	2.234	-3.028	0.909	C.3	1	UNK0	0.000	
27	   O	-1.619	-0.704	0.218	O.3	1	UNK0	0.000	
28	   H	-2.105	-0.623	2.769	 H	1	UNK0	0.000	
29	   H	-1.676	3.529	5.352	 H	1	UNK0	0.000	
30	   H	0.087	3.715	5.280	 H	1	UNK0	0.000	
31	   H	-0.617	2.283	6.197	 H	1	UNK0	0.000	
32	   H	-3.553	1.099	4.415	 H	1	UNK0	0.000	
33	   H	-2.707	-0.263	5.224	 H	1	UNK0	0.000	
34	   H	-2.439	1.471	5.780	 H	1	UNK0	0.000	
35	   H	-0.141	-1.567	1.240	 H	1	UNK0	0.000	
36	   H	0.118	1.907	-0.417	 H	1	UNK0	0.000	
37	   H	1.836	1.443	-0.897	 H	1	UNK0	0.000	
38	   H	0.931	-2.156	-2.344	 H	1	UNK0	0.000	
39	   H	1.789	-0.516	-2.557	 H	1	UNK0	0.000	
40	   H	-0.265	-1.882	-4.275	 H	1	UNK0	0.000	
41	   H	1.226	-1.036	-4.648	 H	1	UNK0	0.000	
42	   H	-1.957	1.212	-3.698	 H	1	UNK0	0.000	
43	   H	-1.974	-0.607	-3.296	 H	1	UNK0	0.000	
44	   H	0.022	1.469	-2.367	 H	1	UNK0	0.000	
45	   H	-1.509	1.009	-1.416	 H	1	UNK0	0.000	
46	   H	2.366	-0.560	0.822	 H	1	UNK0	0.000	
47	   H	2.740	-0.315	-0.871	 H	1	UNK0	0.000	
48	   H	3.707	-2.240	-1.843	 H	1	UNK0	0.000	
49	   H	3.756	-3.608	-0.726	 H	1	UNK0	0.000	
50	   H	5.623	-2.339	0.043	 H	1	UNK0	0.000	
51	   H	4.766	-0.810	-0.295	 H	1	UNK0	0.000	
52	   H	2.833	-2.207	2.761	 H	1	UNK0	0.000	
53	   H	3.911	-3.520	2.221	 H	1	UNK0	0.000	
54	   H	2.580	-4.063	0.525	 H	1	UNK0	0.000	
55	   H	1.285	-3.267	1.358	 H	1	UNK0	0.000	
56	   H	-2.142	-1.263	0.844	 H	1	UNK0	0.000	
@<TRIPOS>BOND
1 1 2 1
2 2 3 2
3 2 7 1
4 3 4 1
5 3 13 1
6 4 5 2
7 4 10 1
8 5 6 1
9 6 7 2
10 6 9 1
11 7 8 1
12 10 11 1
13 10 27 1
14 11 12 1
15 11 14 1
16 11 20 1
17 12 13 1
18 14 15 1
19 14 19 1
20 15 16 1
21 16 17 1
22 17 18 1
23 18 19 1
24 20 21 1
25 21 22 1
26 21 26 1
27 22 23 1
28 23 24 1
29 24 25 1
30 25 26 1
31 5 28 1
32 8 29 1
33 8 30 1
34 8 31 1
35 9 32 1
36 9 33 1
37 9 34 1
38 10 35 1
39 12 36 1
40 12 37 1
41 15 38 1
42 15 39 1
43 16 40 1
44 16 41 1
45 18 42 1
46 18 43 1
47 19 44 1
48 19 45 1
49 20 46 1
50 20 47 1
51 22 48 1
52 22 49 1
53 23 50 1
54 23 51 1
55 25 52 1
56 25 53 1
57 26 54 1
58 26 55 1
59 27 56 1
@<TRIPOS>SUBSTRUCTURE
1	UNK0	1	GROUP	1 ****	UNK
