REMARK  2 active torsions:
REMARK  status: ('A' for Active; 'I' for Inactive)
REMARK    1  A    between atoms: N_5  and  C_8 
REMARK    2  A    between atoms: C_8  and  C_9 
REMARK       I    between atoms: C_9  and  N_11 
ROOT
ATOM      1  C   UNK d   1      -1.676  -0.426  -1.280  0.00  0.00     0.171 C 
ATOM      2  O   UNK d   1      -2.584  -1.061  -2.013  0.00  0.00    -0.175 OA
ATOM      3  N   UNK d   1      -0.422  -1.016  -1.285  0.00  0.00    -0.361 N 
ATOM      4  C   UNK d   1       0.750  -0.590  -0.607  0.00  0.00     0.127 C 
ATOM      5  C   UNK d   1       1.056  -1.542   0.550  0.00  0.00     0.061 C 
ATOM      6  C   UNK d   1       0.612  -2.948   0.183  0.00  0.00     0.118 C 
ATOM      7  N   UNK d   1       1.577  -3.838   0.806  0.00  0.00    -0.324 N 
ATOM      8  C   UNK d   1       1.072  -4.123   2.127  0.00  0.00     0.323 C 
ATOM      9  O   UNK d   1       1.738  -4.580   3.089  0.00  0.00    -0.247 OA
ATOM     10  N   UNK d   1      -0.328  -3.785   2.129  0.00  0.00    -0.277 N 
ATOM     11  C   UNK d   1      -0.666  -3.304   0.834  0.00  0.00     0.254 C 
ATOM     12  O   UNK d   1      -1.829  -3.216   0.376  0.00  0.00    -0.270 OA
ATOM     13  C   UNK d   1       0.627  -3.192  -1.293  0.00  0.00     0.061 C 
ATOM     14  C   UNK d   1      -0.234  -2.256  -2.077  0.00  0.00     0.127 C 
ATOM     15  H   UNK d   1       2.460  -4.205   0.394  0.00  0.00     0.165 HD
ATOM     16  H   UNK d   1      -0.967  -3.878   2.931  0.00  0.00     0.173 HD
ENDROOT
BRANCH   1  17
ATOM     17  C   UNK d   1      -2.230   0.750  -0.639  0.00  0.00     0.216 C 
BRANCH  17  18
ATOM     18  N   UNK d   1      -1.390   1.602   0.128  0.00  0.00    -0.341 N 
ATOM     19  C   UNK d   1      -0.744   2.685  -0.398  0.00  0.00     0.046 A 
ATOM     20  C   UNK d   1      -0.035   3.310   0.595  0.00  0.00     0.010 A 
ATOM     21  C   UNK d   1      -0.706   3.200  -1.694  0.00  0.00     0.030 A 
ATOM     22  C   UNK d   1      -0.252   2.596   1.747  0.00  0.00     0.045 A 
ATOM     23  C   UNK d   1       0.709   4.443   0.303  0.00  0.00     0.015 A 
ATOM     24 Br   UNK d   1       0.524   3.068   3.429  0.00  0.00    -0.048 Br
ATOM     25  C   UNK d   1      -1.084   1.554   1.446  0.00  0.00     0.027 A 
ATOM     26  C   UNK d   1      -1.579   0.533   2.397  0.00  0.00     0.070 C 
ATOM     27  C   UNK d   1       0.741   4.944  -0.978  0.00  0.00     0.001 A 
ATOM     28  C   UNK d   1       0.041   4.335  -1.982  0.00  0.00     0.002 A 
ENDBRANCH  17  18
ENDBRANCH   1  17
TORSDOF 2
