# created with PyMOL 2.3.2
@<TRIPOS>MOLECULE
1434
45 48 1                 
SMALL
USER_CHARGES
@<TRIPOS>ATOM
1	  Br	0.524	3.068	3.429	Br	1	UNK0	0.000	
2	   C	-0.252	2.596	1.747	C.2	1	UNK0	0.000	
3	   C	-0.035	3.310	0.595	C.2	1	UNK0	0.000	
4	   C	-0.744	2.685	-0.398	C.2	1	UNK0	0.000	
5	   N	-1.390	1.602	0.128	N.pl3	1	UNK0	0.000	
6	   C	-1.084	1.554	1.446	C.2	1	UNK0	0.000	
7	   C	-1.579	0.533	2.397	C.3	1	UNK0	0.000	
8	   C	-2.230	0.750	-0.639	C.3	1	UNK0	0.000	
9	   C	-1.676	-0.426	-1.280	C.2	1	UNK0	0.000	
10	   O	-2.584	-1.061	-2.013	O.2	1	UNK0	0.000	
11	   N	-0.422	-1.016	-1.285	N.pl3	1	UNK0	0.000	
12	   C	0.750	-0.590	-0.607	C.3	1	UNK0	0.000	
13	   C	1.056	-1.542	0.550	C.3	1	UNK0	0.000	
14	   C	0.612	-2.948	0.183	C.3	1	UNK0	0.000	
15	   N	1.577	-3.838	0.806	N.pl3	1	UNK0	0.000	
16	   C	1.072	-4.123	2.127	C.2	1	UNK0	0.000	
17	   O	1.738	-4.580	3.089	O.2	1	UNK0	0.000	
18	   N	-0.328	-3.785	2.129	N.pl3	1	UNK0	0.000	
19	   C	-0.666	-3.304	0.834	C.2	1	UNK0	0.000	
20	   O	-1.829	-3.216	0.376	O.2	1	UNK0	0.000	
21	   C	0.627	-3.192	-1.293	C.3	1	UNK0	0.000	
22	   C	-0.234	-2.256	-2.077	C.3	1	UNK0	0.000	
23	   C	-0.706	3.200	-1.694	C.2	1	UNK0	0.000	
24	   C	0.041	4.335	-1.982	C.2	1	UNK0	0.000	
25	   C	0.741	4.944	-0.978	C.2	1	UNK0	0.000	
26	   C	0.709	4.443	0.303	C.2	1	UNK0	0.000	
27	   H	-0.795	0.236	3.130	 H	1	UNK0	0.000	
28	   H	-2.414	0.986	2.983	 H	1	UNK0	0.000	
29	   H	-1.944	-0.382	1.870	 H	1	UNK0	0.000	
30	   H	-2.746	1.398	-1.426	 H	1	UNK0	0.000	
31	   H	-3.114	0.472	0.022	 H	1	UNK0	0.000	
32	   H	0.847	0.438	-0.309	 H	1	UNK0	0.000	
33	   H	1.615	-0.745	-1.342	 H	1	UNK0	0.000	
34	   H	2.151	-1.481	0.718	 H	1	UNK0	0.000	
35	   H	0.558	-1.172	1.446	 H	1	UNK0	0.000	
36	   H	2.460	-4.205	0.394	 H	1	UNK0	0.000	
37	   H	-0.967	-3.878	2.931	 H	1	UNK0	0.000	
38	   H	1.695	-3.193	-1.617	 H	1	UNK0	0.000	
39	   H	0.262	-4.240	-1.450	 H	1	UNK0	0.000	
40	   H	-1.176	-2.659	-2.440	 H	1	UNK0	0.000	
41	   H	0.374	-1.918	-2.967	 H	1	UNK0	0.000	
42	   H	-1.275	2.689	-2.461	 H	1	UNK0	0.000	
43	   H	0.044	4.706	-3.006	 H	1	UNK0	0.000	
44	   H	1.316	5.819	-1.201	 H	1	UNK0	0.000	
45	   H	1.251	4.901	1.113	 H	1	UNK0	0.000	
@<TRIPOS>BOND
1 1 2 1
2 2 3 1
3 2 6 2
4 3 4 2
5 3 26 1
6 4 5 1
7 4 23 1
8 5 6 1
9 5 8 1
10 6 7 1
11 8 9 1
12 9 10 2
13 9 11 1
14 11 12 1
15 11 22 1
16 12 13 1
17 13 14 1
18 14 15 1
19 14 19 1
20 14 21 1
21 15 16 1
22 16 17 2
23 16 18 1
24 18 19 1
25 19 20 2
26 21 22 1
27 23 24 2
28 24 25 1
29 25 26 2
30 7 27 1
31 7 28 1
32 7 29 1
33 8 30 1
34 8 31 1
35 12 32 1
36 12 33 1
37 13 34 1
38 13 35 1
39 15 36 1
40 18 37 1
41 21 38 1
42 21 39 1
43 22 40 1
44 22 41 1
45 23 42 1
46 24 43 1
47 25 44 1
48 26 45 1
@<TRIPOS>SUBSTRUCTURE
1	UNK0	1	GROUP	1 ****	UNK
