REMARK  5 active torsions:
REMARK  status: ('A' for Active; 'I' for Inactive)
REMARK    1  A    between atoms: N_3  and  C_14 
REMARK    2  A    between atoms: C_14  and  C_15 
REMARK    3  A    between atoms: C_15  and  C_16 
REMARK    4  A    between atoms: C_16  and  C_17 
REMARK    5  A    between atoms: C_17  and  N_18 
ROOT
ATOM      1  C   UNK d   1      -0.996  -0.869   0.704  0.00  0.00     0.022 C 
ENDROOT
BRANCH   1   2
ATOM      2  C   UNK d   1      -2.357  -0.208   0.533  0.00  0.00     0.132 C 
BRANCH   2   3
ATOM      3  N   UNK d   1      -2.383   0.653  -0.625  0.00  0.00    -0.318 N 
ATOM      4  C   UNK d   1      -2.079   1.971  -0.712  0.00  0.00     0.180 A 
ATOM      5 Br   UNK d   1      -1.520   3.015   0.786  0.00  0.00    -0.008 Br
ATOM      6  N   UNK d   1      -2.231   2.406  -1.976  0.00  0.00    -0.203 NA
ATOM      7  C   UNK d   1      -2.640   1.368  -2.743  0.00  0.00     0.169 A 
ATOM      8  C   UNK d   1      -2.727   0.294  -1.882  0.00  0.00     0.152 A 
ATOM      9  N   UNK d   1      -2.932   1.272  -4.060  0.00  0.00    -0.286 N 
ATOM     10  C   UNK d   1      -3.129  -0.924  -2.404  0.00  0.00     0.280 A 
ATOM     11  N   UNK d   1      -3.417  -1.010  -3.711  0.00  0.00    -0.273 N 
ATOM     12  O   UNK d   1      -3.203  -1.889  -1.611  0.00  0.00    -0.265 OA
ATOM     13  C   UNK d   1      -3.320   0.073  -4.530  0.00  0.00     0.330 A 
ATOM     14  H   UNK d   1      -3.722  -1.927  -4.114  0.00  0.00     0.173 HD
ATOM     15  O   UNK d   1      -3.608  -0.093  -5.745  0.00  0.00    -0.246 OA
ATOM     16  C   UNK d   1      -2.836   2.413  -4.951  0.00  0.00     0.163 C 
ENDBRANCH   2   3
ENDBRANCH   1   2
BRANCH   1  17
ATOM     17  C   UNK d   1      -0.978  -1.765   1.914  0.00  0.00     0.022 C 
BRANCH  17  18
ATOM     18  C   UNK d   1       0.335  -2.440   2.177  0.00  0.00     0.132 C 
BRANCH  18  19
ATOM     19  N   UNK d   1       1.358  -1.473   2.398  0.00  0.00    -0.318 N 
ATOM     20  C   UNK d   1       2.235  -0.925   1.559  0.00  0.00     0.152 A 
ATOM     21  C   UNK d   1       3.003   0.001   2.256  0.00  0.00     0.169 A 
ATOM     22  C   UNK d   1       2.515  -1.092   0.228  0.00  0.00     0.280 A 
ATOM     23  N   UNK d   1       2.553  -0.026   3.507  0.00  0.00    -0.203 NA
ATOM     24  N   UNK d   1       3.967   0.692   1.641  0.00  0.00    -0.286 N 
ATOM     25  C   UNK d   1       1.560  -0.910   3.616  0.00  0.00     0.180 A 
ATOM     26 Br   UNK d   1       0.623  -1.274   5.236  0.00  0.00    -0.008 Br
ATOM     27  C   UNK d   1       4.222   0.510   0.331  0.00  0.00     0.330 A 
ATOM     28  C   UNK d   1       4.787   1.670   2.348  0.00  0.00     0.163 C 
ATOM     29  O   UNK d   1       5.130   1.164  -0.240  0.00  0.00    -0.246 OA
ATOM     30  N   UNK d   1       3.492  -0.378  -0.351  0.00  0.00    -0.273 N 
ATOM     31  H   UNK d   1       3.660  -0.552  -1.383  0.00  0.00     0.173 HD
ATOM     32  O   UNK d   1       1.846  -1.918  -0.424  0.00  0.00    -0.265 OA
ENDBRANCH  18  19
ENDBRANCH  17  18
ENDBRANCH   1  17
TORSDOF 5
