REMARK  6 active torsions:
REMARK  status: ('A' for Active; 'I' for Inactive)
REMARK    1  A    between atoms: N_3  and  C_14 
REMARK    2  A    between atoms: C_14  and  C_15 
REMARK    3  A    between atoms: C_15  and  O_16 
REMARK    4  A    between atoms: O_16  and  C_17 
REMARK    5  A    between atoms: C_17  and  C_18 
REMARK    6  A    between atoms: C_18  and  N_19 
ROOT
ATOM      1  O   UNK d   1       0.549   2.086  -0.640  0.00  0.00    -0.388 OA
ENDROOT
BRANCH   1   2
ATOM      2  C   UNK d   1       1.348   1.386   0.202  0.00  0.00     0.188 C 
BRANCH   2   3
ATOM      3  C   UNK d   1       0.830   0.328   1.085  0.00  0.00     0.158 C 
BRANCH   3   4
ATOM      4  N   UNK d   1       0.279  -0.843   0.491  0.00  0.00    -0.316 N 
ATOM      5  C   UNK d   1      -0.973  -1.161   0.169  0.00  0.00     0.180 A 
ATOM      6 Br   UNK d   1      -2.552  -0.133   0.496  0.00  0.00    -0.008 Br
ATOM      7  N   UNK d   1      -1.040  -2.381  -0.413  0.00  0.00    -0.203 NA
ATOM      8  C   UNK d   1       0.203  -2.841  -0.454  0.00  0.00     0.169 A 
ATOM      9  C   UNK d   1       1.043  -1.902   0.104  0.00  0.00     0.152 A 
ATOM     10  N   UNK d   1       0.732  -4.007  -0.919  0.00  0.00    -0.286 N 
ATOM     11  C   UNK d   1       2.404  -2.111   0.206  0.00  0.00     0.280 A 
ATOM     12  N   UNK d   1       2.872  -3.297  -0.277  0.00  0.00    -0.273 N 
ATOM     13  O   UNK d   1       3.186  -1.269   0.714  0.00  0.00    -0.265 OA
ATOM     14  C   UNK d   1       2.045  -4.205  -0.819  0.00  0.00     0.330 A 
ATOM     15  H   UNK d   1       3.898  -3.466  -0.205  0.00  0.00     0.173 HD
ATOM     16  O   UNK d   1       2.507  -5.297  -1.260  0.00  0.00    -0.246 OA
ATOM     17  C   UNK d   1      -0.117  -5.019  -1.513  0.00  0.00     0.163 C 
ENDBRANCH   3   4
ENDBRANCH   2   3
ENDBRANCH   1   2
BRANCH   1  18
ATOM     18  C   UNK d   1      -0.317   2.915   0.054  0.00  0.00     0.188 C 
BRANCH  18  19
ATOM     19  C   UNK d   1      -1.083   3.755  -0.924  0.00  0.00     0.158 C 
BRANCH  19  20
ATOM     20  N   UNK d   1      -1.859   2.961  -1.823  0.00  0.00    -0.316 N 
ATOM     21  C   UNK d   1      -3.142   2.614  -1.655  0.00  0.00     0.152 A 
ATOM     22  C   UNK d   1      -3.510   1.855  -2.722  0.00  0.00     0.169 A 
ATOM     23  C   UNK d   1      -4.058   2.889  -0.659  0.00  0.00     0.280 A 
ATOM     24  N   UNK d   1      -2.444   1.758  -3.512  0.00  0.00    -0.203 NA
ATOM     25  N   UNK d   1      -4.762   1.373  -2.806  0.00  0.00    -0.286 N 
ATOM     26  C   UNK d   1      -1.404   2.429  -2.990  0.00  0.00     0.180 A 
ATOM     27 Br   UNK d   1       0.358   2.642  -3.666  0.00  0.00    -0.008 Br
ATOM     28  C   UNK d   1      -5.629   1.650  -1.835  0.00  0.00     0.330 A 
ATOM     29  C   UNK d   1      -5.172   0.563  -3.934  0.00  0.00     0.163 C 
ATOM     30  O   UNK d   1      -6.799   1.192  -1.927  0.00  0.00    -0.246 OA
ATOM     31  N   UNK d   1      -5.290   2.389  -0.786  0.00  0.00    -0.273 N 
ATOM     32  H   UNK d   1      -5.984   2.595  -0.035  0.00  0.00     0.173 HD
ATOM     33  O   UNK d   1      -3.773   3.593   0.362  0.00  0.00    -0.265 OA
ENDBRANCH  19  20
ENDBRANCH  18  19
ENDBRANCH   1  18
TORSDOF 6
