REMARK  5 active torsions:
REMARK  status: ('A' for Active; 'I' for Inactive)
REMARK    1  A    between atoms: C_3  and  C_8 
REMARK    2  A    between atoms: C_8  and  N_9 
REMARK    3  A    between atoms: C_13  and  N_14 
REMARK    4  A    between atoms: C_15  and  C_17 
REMARK    5  A    between atoms: C_17  and  N_18 
ROOT
ATOM      1  N   UNK d   1      -1.724  -0.647   1.485  0.00  0.00    -0.322 N 
ATOM      2  C   UNK d   1      -1.383   0.596   1.056  0.00  0.00     0.174 C 
ATOM      3  O   UNK d   1      -1.727   1.487   2.045  0.00  0.00    -0.175 OA
ATOM      4  H   UNK d   1      -2.172  -0.627   2.516  0.00  0.00     0.169 HD
ENDROOT
BRANCH   2   5
ATOM      5  C   UNK d   1      -0.787   1.306  -0.064  0.00  0.00     0.210 C 
BRANCH   5   6
ATOM      6  N   UNK d   1      -0.245   0.731  -1.219  0.00  0.00    -0.373 N 
ATOM      7  C   UNK d   1       0.983  -0.108  -1.203  0.00  0.00     0.123 C 
ATOM      8  C   UNK d   1       1.395  -0.206  -2.657  0.00  0.00     0.020 C 
ATOM      9  C   UNK d   1       0.324  -0.948  -3.412  0.00  0.00     0.008 C 
ATOM     10  C   UNK d   1      -0.925  -0.095  -3.479  0.00  0.00     0.061 C 
ATOM     11  C   UNK d   1      -0.830   1.023  -2.496  0.00  0.00     0.053 C 
ATOM     12  C   UNK d   1      -1.188   2.260  -2.848  0.00  0.00     0.146 A 
ATOM     13  N   UNK d   1      -1.784   2.530  -4.128  0.00  0.00    -0.280 N 
ATOM     14  N   UNK d   1      -1.051   3.495  -2.222  0.00  0.00    -0.291 N 
ATOM     15  N   UNK d   1      -1.999   3.914  -4.259  0.00  0.00    -0.250 N 
ATOM     16  H   UNK d   1      -2.060   1.899  -4.905  0.00  0.00     0.188 HD
ATOM     17  C   UNK d   1      -1.549   4.539  -3.078  0.00  0.00     0.340 A 
ATOM     18  H   UNK d   1      -2.418   4.427  -5.074  0.00  0.00     0.192 HD
ATOM     19  O   UNK d   1      -1.551   5.752  -2.768  0.00  0.00    -0.245 OA
ATOM     20  H   UNK d   1      -0.633   3.662  -1.292  0.00  0.00     0.172 HD
ENDBRANCH   5   6
ENDBRANCH   2   5
BRANCH   1  21
ATOM     21  C   UNK d   1      -1.766  -1.943   0.985  0.00  0.00     0.127 A 
ATOM     22  N   UNK d   1      -2.030  -3.084   1.690  0.00  0.00    -0.250 N 
ATOM     23  N   UNK d   1      -2.038  -4.108   0.846  0.00  0.00    -0.183 NA
ATOM     24  C   UNK d   1      -1.793  -3.714  -0.392  0.00  0.00     0.142 A 
ATOM     25  C   UNK d   1      -1.615  -2.324  -0.329  0.00  0.00     0.071 A 
BRANCH  22  26
ATOM     26  C   UNK d   1      -2.250  -3.140   3.093  0.00  0.00     0.193 C 
BRANCH  26  27
ATOM     27  C   UNK d   1      -1.029  -3.345   3.894  0.00  0.00    -0.017 A 
ATOM     28  C   UNK d   1      -0.390  -4.544   4.012  0.00  0.00     0.042 A 
ATOM     29 Cl   UNK d   1      -1.018  -5.949   3.182  0.00  0.00    -0.084 Cl
ATOM     30  C   UNK d   1       0.747  -4.676   4.775  0.00  0.00     0.024 A 
ATOM     31  C   UNK d   1       1.279  -3.599   5.447  0.00  0.00     0.002 A 
ATOM     32  C   UNK d   1       0.641  -2.382   5.335  0.00  0.00     0.001 A 
ATOM     33  C   UNK d   1      -0.491  -2.272   4.569  0.00  0.00     0.010 A 
ENDBRANCH  26  27
ENDBRANCH  22  26
ENDBRANCH   1  21
TORSDOF 5
