REMARK  9 active torsions:
REMARK  status: ('A' for Active; 'I' for Inactive)
REMARK    1  A    between atoms: C_3  and  O_33 
REMARK    2  A    between atoms: C_6  and  C_9 
REMARK    3  A    between atoms: C_7  and  O_8 
REMARK    4  A    between atoms: N_10  and  N_11 
REMARK       I    between atoms: N_11  and  C_12 
REMARK    5  A    between atoms: C_12  and  C_14 
REMARK    6  A    between atoms: N_17  and  C_26 
REMARK    7  A    between atoms: C_18  and  C_19 
REMARK    8  A    between atoms: C_19  and  N_20 
REMARK    9  A    between atoms: C_30  and  N_31 
ROOT
ATOM      1  C   UNK d   1      -1.115  -0.607   1.793  0.00  0.00     0.176 A 
ATOM      2  N   UNK d   1      -1.691  -0.703   3.035  0.00  0.00    -0.124 NA
ATOM      3  N   UNK d   1      -2.641  -1.596   3.004  0.00  0.00    -0.058 NA
ATOM      4  N   UNK d   1      -2.760  -2.133   1.802  0.00  0.00    -0.191 N 
ATOM      5  C   UNK d   1      -1.831  -1.539   1.034  0.00  0.00     0.104 A 
ENDROOT
BRANCH   1   6
ATOM      6  C   UNK d   1      -0.027   0.286   1.442  0.00  0.00     0.294 C 
ATOM      7  N   UNK d   1       0.652   0.405   0.237  0.00  0.00    -0.242 N 
ATOM      8  H   UNK d   1       0.491  -0.145  -0.640  0.00  0.00     0.192 HD
ATOM      9  O   UNK d   1       0.348   1.069   2.394  0.00  0.00    -0.264 OA
BRANCH   7  10
ATOM     10  N   UNK d   1       1.699   1.386   0.169  0.00  0.00    -0.183 NA
ATOM     11  C   UNK d   1       1.549   2.411  -0.592  0.00  0.00     0.153 C 
BRANCH  11  12
ATOM     12  C   UNK d   1       2.545   3.462  -0.733  0.00  0.00     0.019 A 
ATOM     13  C   UNK d   1       2.333   4.534  -1.558  0.00  0.00     0.038 A 
ATOM     14  C   UNK d   1       3.273   5.549  -1.706  0.00  0.00     0.046 A 
ATOM     15  C   UNK d   1       4.471   5.486  -0.999  0.00  0.00     0.103 A 
ATOM     16 Br   UNK d   1       2.938   7.015  -2.860  0.00  0.00    -0.048 Br
ATOM     17  C   UNK d   1       4.690   4.421  -0.175  0.00  0.00     0.079 A 
ATOM     18 Br   UNK d   1       6.306   4.298   0.806  0.00  0.00    -0.045 Br
ATOM     19  C   UNK d   1       3.734   3.413  -0.040  0.00  0.00     0.097 A 
BRANCH  15  20
ATOM     20  O   UNK d   1       5.395   6.508  -1.161  0.00  0.00    -0.358 OA
ATOM     21  H   UNK d   1       5.209   7.284  -1.775  0.00  0.00     0.217 HD
ENDBRANCH  15  20
BRANCH  19  22
ATOM     22  O   UNK d   1       3.938   2.323   0.792  0.00  0.00    -0.358 OA
ATOM     23  H   UNK d   1       4.796   2.241   1.323  0.00  0.00     0.217 HD
ENDBRANCH  19  22
ENDBRANCH  11  12
ENDBRANCH   7  10
ENDBRANCH   1   6
BRANCH   5  24
ATOM     24  C   UNK d   1      -1.544  -1.819  -0.376  0.00  0.00     0.334 C 
BRANCH  24  25
ATOM     25  N   UNK d   1      -2.463  -2.774  -1.001  0.00  0.00     0.098 N 
ATOM     26  C   UNK d   1      -1.913  -3.161  -2.315  0.00  0.00     0.299 C 
ATOM     27  C   UNK d   1      -1.479  -1.946  -3.058  0.00  0.00     0.198 C 
ATOM     28  O   UNK d   1      -2.519  -1.052  -3.129  0.00  0.00    -0.388 OA
ATOM     29  C   UNK d   1      -3.723  -1.549  -2.704  0.00  0.00     0.198 C 
ATOM     30  C   UNK d   1      -3.733  -2.066  -1.289  0.00  0.00     0.299 C 
ENDBRANCH  24  25
ENDBRANCH   5  24
BRANCH   4  31
ATOM     31  C   UNK d   1      -3.687  -3.154   1.478  0.00  0.00     0.229 A 
ATOM     32  N   UNK d   1      -3.463  -4.390   0.983  0.00  0.00    -0.081 NA
ATOM     33  O   UNK d   1      -4.598  -5.021   0.838  0.00  0.00    -0.103 OA
ATOM     34  N   UNK d   1      -5.594  -4.261   1.216  0.00  0.00    -0.083 NA
ATOM     35  C   UNK d   1      -5.065  -3.094   1.620  0.00  0.00     0.201 A 
BRANCH  35  36
ATOM     36  N   UNK d   1      -5.821  -2.005   2.105  0.00  0.00    -0.379 N 
ATOM     37  H   UNK d   1      -6.273  -2.084   3.034  0.00  0.00     0.158 HD
ATOM     38  H   UNK d   1      -5.943  -1.127   1.569  0.00  0.00     0.158 HD
ENDBRANCH  35  36
ENDBRANCH   4  31
TORSDOF 9
