REMARK  6 active torsions:
REMARK  status: ('A' for Active; 'I' for Inactive)
REMARK    1  A    between atoms: C_6  and  C_8 
REMARK       I    between atoms: C_8  and  N_10 
REMARK    2  A    between atoms: N_10  and  C_11 
REMARK    3  A    between atoms: C_11  and  C_12 
REMARK    4  A    between atoms: C_12  and  N_13 
REMARK    5  A    between atoms: C_16  and  C_18 
REMARK    6  A    between atoms: C_20  and  C_23 
ROOT
ATOM      1  N   UNK d   1      -0.883  -1.516   1.299  0.00  0.00    -0.281 N 
ATOM      2  N   UNK d   1       0.218  -1.748   0.604  0.00  0.00     0.005 NA
ATOM      3  N   UNK d   1       1.083  -0.755   0.759  0.00  0.00    -0.154 NA
ATOM      4  C   UNK d   1       0.555   0.169   1.577  0.00  0.00     0.146 A 
ATOM      5  C   UNK d   1      -0.686  -0.319   1.913  0.00  0.00     0.145 A 
ENDROOT
BRANCH   1   6
ATOM      6  C   UNK d   1      -2.083  -2.354   1.405  0.00  0.00     0.165 C 
BRANCH   6   7
ATOM      7  C   UNK d   1      -3.003  -1.910   0.290  0.00  0.00     0.144 C 
BRANCH   7   8
ATOM      8  N   UNK d   1      -2.367  -2.090  -1.006  0.00  0.00    -0.355 N 
ATOM      9  C   UNK d   1      -3.098  -1.720  -2.166  0.00  0.00     0.253 C 
ATOM     10  O   UNK d   1      -4.276  -1.246  -2.046  0.00  0.00    -0.268 OA
ATOM     11  H   UNK d   1      -1.406  -2.477  -1.088  0.00  0.00     0.162 HD
BRANCH   9  12
ATOM     12  C   UNK d   1      -2.559  -1.857  -3.511  0.00  0.00     0.050 A 
ATOM     13  C   UNK d   1      -3.311  -1.484  -4.588  0.00  0.00     0.133 A 
ATOM     14  N   UNK d   1      -2.904  -1.571  -5.868  0.00  0.00    -0.271 NA
ATOM     15  C   UNK d   1      -1.668  -2.061  -6.121  0.00  0.00     0.135 A 
ATOM     16  C   UNK d   1      -0.858  -2.456  -5.080  0.00  0.00     0.029 A 
ATOM     17 Br   UNK d   1       0.879  -3.140  -5.483  0.00  0.00    -0.050 Br
ATOM     18  C   UNK d   1      -1.296  -2.358  -3.759  0.00  0.00     0.039 A 
ENDBRANCH   9  12
ENDBRANCH   7   8
ENDBRANCH   6   7
ENDBRANCH   1   6
BRANCH   4  19
ATOM     19  C   UNK d   1       1.158   1.415   2.015  0.00  0.00     0.228 A 
ATOM     20  N   UNK d   1       2.372   1.891   1.685  0.00  0.00    -0.198 NA
ATOM     21  C   UNK d   1       2.566   3.073   2.292  0.00  0.00     0.191 A 
ATOM     22  N   UNK d   1       1.448   3.308   2.997  0.00  0.00    -0.105 NA
ATOM     23  O   UNK d   1       0.638   2.311   2.812  0.00  0.00    -0.189 OA
BRANCH  21  24
ATOM     24  C   UNK d   1       3.763   3.937   2.203  0.00  0.00     0.032 A 
ATOM     25  C   UNK d   1       4.832   3.547   1.430  0.00  0.00     0.131 A 
ATOM     26  N   UNK d   1       5.927   4.326   1.341  0.00  0.00    -0.272 NA
ATOM     27  C   UNK d   1       6.044   5.505   1.985  0.00  0.00     0.116 A 
ATOM     28  C   UNK d   1       4.965   5.888   2.758  0.00  0.00     0.020 A 
ATOM     29  C   UNK d   1       3.832   5.126   2.876  0.00  0.00     0.018 A 
ENDBRANCH  21  24
ENDBRANCH   4  19
TORSDOF 6
