REMARK  6 active torsions:
REMARK  status: ('A' for Active; 'I' for Inactive)
REMARK    1  A    between atoms: C_3  and  N_8 
REMARK       I    between atoms: N_11  and  C_14 
REMARK    2  A    between atoms: C_14  and  C_16 
REMARK    3  A    between atoms: N_18  and  C_26 
REMARK    4  A    between atoms: C_26  and  C_27 
REMARK    5  A    between atoms: C_27  and  C_28 
REMARK    6  A    between atoms: C_28  and  O_29 
ROOT
ATOM      1  C   UNK d   1       0.918  -0.164   0.910  0.00  0.00     0.079 A 
ATOM      2  C   UNK d   1       1.958   0.724   0.928  0.00  0.00     0.110 A 
ATOM      3  N   UNK d   1       1.841   2.039   1.288  0.00  0.00    -0.364 N 
ATOM      4  C   UNK d   1       0.634   2.469   1.641  0.00  0.00     0.110 A 
ATOM      5  C   UNK d   1      -0.468   1.655   1.655  0.00  0.00     0.080 A 
ATOM      6  C   UNK d   1      -0.326   0.263   1.271  0.00  0.00     0.111 A 
ATOM      7  N   UNK d   1      -1.553  -0.280   1.380  0.00  0.00    -0.170 NA
ATOM      8  N   UNK d   1      -2.417   0.634   1.788  0.00  0.00    -0.242 N 
ATOM      9  C   UNK d   1      -1.807   1.813   1.966  0.00  0.00     0.275 A 
ATOM     10  O   UNK d   1      -2.293   2.921   2.348  0.00  0.00    -0.266 OA
ATOM     11  H   UNK d   1      -3.453   0.513   1.967  0.00  0.00     0.192 HD
ENDROOT
BRANCH   1  12
ATOM     12  C   UNK d   1       1.130  -1.547   0.514  0.00  0.00     0.257 C 
ATOM     13  N   UNK d   1       1.010  -1.973  -0.827  0.00  0.00    -0.345 N 
ATOM     14  C   UNK d   1       1.214  -3.332  -1.251  0.00  0.00     0.146 C 
ATOM     15  C   UNK d   1       0.667  -1.004  -1.836  0.00  0.00     0.146 C 
ATOM     16  C   UNK d   1       0.122  -3.689  -2.228  0.00  0.00     0.143 C 
ATOM     17  N   UNK d   1      -0.983  -2.767  -2.208  0.00  0.00    -0.376 N 
ATOM     18  C   UNK d   1      -0.781  -1.311  -2.243  0.00  0.00     0.143 C 
ATOM     19  O   UNK d   1       1.430  -2.360   1.437  0.00  0.00    -0.267 OA
BRANCH  17  20
ATOM     20  C   UNK d   1      -2.316  -3.218  -2.154  0.00  0.00     0.052 A 
ATOM     21  C   UNK d   1      -2.853  -4.025  -3.133  0.00  0.00     0.060 A 
ATOM     22 Cl   UNK d   1      -1.849  -4.513  -4.502  0.00  0.00    -0.082 Cl
ATOM     23  C   UNK d   1      -4.160  -4.459  -3.069  0.00  0.00     0.026 A 
ATOM     24  C   UNK d   1      -4.944  -4.082  -2.007  0.00  0.00     0.002 A 
ATOM     25  C   UNK d   1      -4.436  -3.264  -0.992  0.00  0.00     0.002 A 
ATOM     26  C   UNK d   1      -3.116  -2.855  -1.105  0.00  0.00     0.031 A 
ENDBRANCH  17  20
ENDBRANCH   1  12
BRANCH   3  27
ATOM     27  C   UNK d   1       3.008   2.906   1.235  0.00  0.00     0.130 C 
BRANCH  27  28
ATOM     28  C   UNK d   1       3.872   2.897   2.416  0.00  0.00     0.046 C 
BRANCH  28  29
ATOM     29  C   UNK d   1       3.450   3.322   3.752  0.00  0.00     0.168 C 
BRANCH  29  30
ATOM     30  O   UNK d   1       3.112   4.593   4.024  0.00  0.00    -0.396 OA
ATOM     31  C   UNK d   1       2.055   5.210   3.492  0.00  0.00     0.201 C 
ENDBRANCH  29  30
ENDBRANCH  28  29
ENDBRANCH  27  28
ENDBRANCH   3  27
TORSDOF 6
