REMARK  6 active torsions:
REMARK  status: ('A' for Active; 'I' for Inactive)
REMARK    1  A    between atoms: C_4  and  C_8 
REMARK    2  A    between atoms: N_9  and  C_27 
REMARK    3  A    between atoms: C_14  and  C_15 
REMARK    4  A    between atoms: C_15  and  C_17 
REMARK    5  A    between atoms: C_27  and  C_28 
REMARK    6  A    between atoms: C_28  and  N_29 
ROOT
ATOM      1  C   UNK d   1      -0.326  -0.695  -0.575  0.00  0.00     0.161 C 
ATOM      2  N   UNK d   1       0.333  -1.847  -0.140  0.00  0.00    -0.331 N 
ATOM      3  C   UNK d   1       1.713  -1.467   0.147  0.00  0.00     0.295 C 
ATOM      4  O   UNK d   1       2.605  -2.167   0.689  0.00  0.00    -0.264 OA
ATOM      5  C   UNK d   1       1.947  -0.102  -0.298  0.00  0.00     0.251 C 
ATOM      6  O   UNK d   1       3.039   0.551  -0.197  0.00  0.00    -0.282 OA
ATOM      7  C   UNK d   1       0.705   0.354  -0.863  0.00  0.00     0.064 C 
ENDROOT
BRANCH   7   8
ATOM      8  C   UNK d   1       0.520   1.507  -1.472  0.00  0.00     0.149 C 
ATOM      9  O   UNK d   1      -0.809   1.763  -1.884  0.00  0.00    -0.189 OA
BRANCH   8  10
ATOM     10  C   UNK d   1       1.536   2.504  -1.753  0.00  0.00     0.102 A 
ATOM     11  N   UNK d   1       2.687   2.462  -2.442  0.00  0.00    -0.302 N 
ATOM     12  C   UNK d   1       3.353   3.626  -2.407  0.00  0.00     0.134 A 
ATOM     13  C   UNK d   1       3.207   1.420  -3.146  0.00  0.00     0.099 A 
ATOM     14  N   UNK d   1       2.597   4.461  -1.660  0.00  0.00    -0.233 NA
ATOM     15  C   UNK d   1       4.555   3.811  -3.063  0.00  0.00     0.051 A 
ATOM     16  C   UNK d   1       1.498   3.823  -1.250  0.00  0.00     0.063 A 
ATOM     17  C   UNK d   1       0.417   4.371  -0.419  0.00  0.00     0.073 C 
ATOM     18  C   UNK d   1       5.088   2.769  -3.773  0.00  0.00     0.005 A 
ATOM     19  C   UNK d   1       4.402   1.570  -3.810  0.00  0.00     0.018 A 
ENDBRANCH   8  10
ENDBRANCH   7   8
BRANCH   1  20
ATOM     20  C   UNK d   1      -1.490  -0.145   0.091  0.00  0.00    -0.029 A 
ATOM     21  C   UNK d   1      -1.371   0.985   0.911  0.00  0.00     0.028 A 
ATOM     22  C   UNK d   1      -2.479   1.547   1.506  0.00  0.00     0.011 A 
ATOM     23 Br   UNK d   1      -2.312   3.080   2.612  0.00  0.00    -0.051 Br
ATOM     24  C   UNK d   1      -3.739   1.016   1.315  0.00  0.00     0.019 A 
ATOM     25  C   UNK d   1      -3.896  -0.100   0.513  0.00  0.00     0.002 A 
ATOM     26  C   UNK d   1      -2.773  -0.624  -0.058  0.00  0.00     0.009 A 
ENDBRANCH   1  20
BRANCH   2  27
ATOM     27  C   UNK d   1      -0.137  -3.182  -0.067  0.00  0.00     0.155 C 
BRANCH  27  28
ATOM     28  C   UNK d   1      -0.522  -3.789   1.205  0.00  0.00     0.255 C 
BRANCH  28  29
ATOM     29  N   UNK d   1      -1.590  -3.239   1.987  0.00  0.00    -0.066 N 
ATOM     30  C   UNK d   1      -2.190  -4.354   2.720  0.00  0.00     0.261 C 
ATOM     31  C   UNK d   1      -1.539  -4.595   4.044  0.00  0.00     0.195 C 
ATOM     32  O   UNK d   1      -0.335  -3.882   4.150  0.00  0.00    -0.388 OA
ATOM     33  C   UNK d   1      -0.695  -2.553   4.143  0.00  0.00     0.195 C 
ATOM     34  C   UNK d   1      -1.197  -2.144   2.808  0.00  0.00     0.261 C 
ATOM     35  H   UNK d   1      -2.394  -2.908   1.375  0.00  0.00     0.280 HD
ENDBRANCH  28  29
ENDBRANCH  27  28
ENDBRANCH   2  27
TORSDOF 6
