# created with PyMOL 2.3.2
@<TRIPOS>MOLECULE
1487
48 51 1                 
SMALL
USER_CHARGES
@<TRIPOS>ATOM
1	  Cl	0.065	-4.893	-1.724	Cl	1	UNK0	0.000	
2	   C	1.010	-3.498	-2.223	C.2	1	UNK0	0.000	
3	   C	1.116	-2.382	-1.397	C.2	1	UNK0	0.000	
4	   C	1.822	-1.261	-1.758	C.2	1	UNK0	0.000	
5	   C	2.439	-1.303	-3.014	C.2	1	UNK0	0.000	
6	   C	2.345	-2.407	-3.854	C.2	1	UNK0	0.000	
7	   C	1.628	-3.504	-3.457	C.2	1	UNK0	0.000	
8	   N	2.029	-0.165	-0.879	N.4	1	UNK0	0.000	
9	   C	1.804	-0.440	0.518	C.3	1	UNK0	0.000	
10	   C	0.923	0.565	1.132	C.3	1	UNK0	0.000	
11	   N	0.659	1.480	0.058	N.pl3	1	UNK0	0.000	
12	   C	0.241	2.862	0.038	C.3	1	UNK0	0.000	
13	   C	-1.058	3.121	-0.655	C.3	1	UNK0	0.000	
14	   C	-1.608	1.971	-1.424	C.3	1	UNK0	0.000	
15	   C	-0.783	1.828	-2.723	C.3	1	UNK0	0.000	
16	   C	0.348	0.892	-2.336	C.2	1	UNK0	0.000	
17	   C	0.944	0.761	-1.173	C.2	1	UNK0	0.000	
18	   O	1.651	1.297	2.111	O.3	1	UNK0	0.000	
19	   C	-0.255	0.088	1.815	C.2	1	UNK0	0.000	
20	   C	-0.466	-1.253	2.136	C.2	1	UNK0	0.000	
21	   C	-1.590	-1.703	2.815	C.2	1	UNK0	0.000	
22	   C	-2.556	-0.772	3.197	C.2	1	UNK0	0.000	
23	   C	-2.389	0.550	2.901	C.2	1	UNK0	0.000	
24	   C	-1.238	0.966	2.213	C.2	1	UNK0	0.000	
25	   N	-1.738	-3.078	3.107	N.pl3	1	UNK0	0.000	
26	   O	-0.837	-3.897	2.744	O.2	1	UNK0	0.000	
27	   O	-2.799	-3.589	3.756	O.2	1	UNK0	0.000	
28	   H	0.556	-2.460	-0.450	 H	1	UNK0	0.000	
29	   H	3.007	-0.444	-3.328	 H	1	UNK0	0.000	
30	   H	2.838	-2.417	-4.843	 H	1	UNK0	0.000	
31	   H	1.539	-4.363	-4.089	 H	1	UNK0	0.000	
32	   H	2.888	0.311	-1.132	 H	1	UNK0	0.000	
33	   H	1.659	-1.493	0.653	 H	1	UNK0	0.000	
34	   H	2.847	-0.259	0.975	 H	1	UNK0	0.000	
35	   H	0.241	3.362	1.023	 H	1	UNK0	0.000	
36	   H	0.984	3.510	-0.558	 H	1	UNK0	0.000	
37	   H	-1.014	4.019	-1.313	 H	1	UNK0	0.000	
38	   H	-1.867	3.389	0.109	 H	1	UNK0	0.000	
39	   H	-1.622	0.996	-0.896	 H	1	UNK0	0.000	
40	   H	-2.655	2.159	-1.794	 H	1	UNK0	0.000	
41	   H	-0.409	2.799	-3.025	 H	1	UNK0	0.000	
42	   H	-1.385	1.299	-3.491	 H	1	UNK0	0.000	
43	   H	0.665	0.271	-3.155	 H	1	UNK0	0.000	
44	   H	2.428	0.699	2.368	 H	1	UNK0	0.000	
45	   H	0.275	-1.941	1.842	 H	1	UNK0	0.000	
46	   H	-3.416	-1.168	3.727	 H	1	UNK0	0.000	
47	   H	-3.161	1.282	3.207	 H	1	UNK0	0.000	
48	   H	-1.216	2.037	2.035	 H	1	UNK0	0.000	
@<TRIPOS>BOND
1 1 2 1
2 2 3 2
3 2 7 1
4 3 4 1
5 4 5 2
6 4 8 1
7 5 6 1
8 6 7 2
9 8 9 1
10 8 17 1
11 9 10 1
12 10 11 1
13 10 18 1
14 10 19 1
15 11 12 1
16 11 17 1
17 12 13 1
18 13 14 1
19 14 15 1
20 15 16 1
21 16 17 2
22 19 20 2
23 19 24 1
24 20 21 1
25 21 22 2
26 21 25 1
27 22 23 1
28 23 24 2
29 25 26 2
30 25 27 1
31 3 28 1
32 5 29 1
33 6 30 1
34 7 31 1
35 8 32 1
36 9 33 1
37 9 34 1
38 12 35 1
39 12 36 1
40 13 37 1
41 13 38 1
42 14 39 1
43 14 40 1
44 15 41 1
45 15 42 1
46 16 43 1
47 18 44 1
48 20 45 1
49 22 46 1
50 23 47 1
51 24 48 1
@<TRIPOS>SUBSTRUCTURE
1	UNK0	1	GROUP	1 ****	UNK
