REMARK  4 active torsions:
REMARK  status: ('A' for Active; 'I' for Inactive)
REMARK    1  A    between atoms: C_4  and  N_8 
REMARK    2  A    between atoms: C_10  and  O_18 
REMARK    3  A    between atoms: C_10  and  C_19 
REMARK    4  A    between atoms: C_21  and  N_25 
ROOT
ATOM      1  N   UNK d   1       2.029  -0.165  -0.879  0.00  0.00     0.009 N 
ATOM      2  C   UNK d   1       1.804  -0.440   0.518  0.00  0.00     0.316 C 
ATOM      3  C   UNK d   1       0.923   0.565   1.132  0.00  0.00     0.189 C 
ATOM      4  N   UNK d   1       0.659   1.480   0.058  0.00  0.00    -0.324 N 
ATOM      5  C   UNK d   1       0.241   2.862   0.038  0.00  0.00     0.128 C 
ATOM      6  C   UNK d   1      -1.058   3.121  -0.655  0.00  0.00     0.020 C 
ATOM      7  C   UNK d   1      -1.608   1.971  -1.424  0.00  0.00     0.005 C 
ATOM      8  C   UNK d   1      -0.783   1.828  -2.723  0.00  0.00     0.031 C 
ATOM      9  C   UNK d   1       0.348   0.892  -2.336  0.00  0.00     0.030 C 
ATOM     10  C   UNK d   1       0.944   0.761  -1.173  0.00  0.00     0.208 C 
ATOM     11  H   UNK d   1       2.888   0.311  -1.132  0.00  0.00     0.295 HD
ENDROOT
BRANCH   3  12
ATOM     12  O   UNK d   1       1.651   1.297   2.111  0.00  0.00    -0.365 OA
ATOM     13  H   UNK d   1       2.428   0.699   2.368  0.00  0.00     0.213 HD
ENDBRANCH   3  12
BRANCH   3  14
ATOM     14  C   UNK d   1      -0.255   0.088   1.815  0.00  0.00     0.001 A 
ATOM     15  C   UNK d   1      -0.466  -1.253   2.136  0.00  0.00     0.048 A 
ATOM     16  C   UNK d   1      -1.590  -1.703   2.815  0.00  0.00     0.103 A 
ATOM     17  C   UNK d   1      -2.556  -0.772   3.197  0.00  0.00     0.036 A 
ATOM     18  C   UNK d   1      -2.389   0.550   2.901  0.00  0.00     0.003 A 
ATOM     19  C   UNK d   1      -1.238   0.966   2.213  0.00  0.00     0.012 A 
BRANCH  16  20
ATOM     20  N   UNK d   1      -1.738  -3.078   3.107  0.00  0.00    -0.116 N 
ATOM     21  O   UNK d   1      -0.837  -3.897   2.744  0.00  0.00    -0.532 OA
ATOM     22  O   UNK d   1      -2.799  -3.589   3.756  0.00  0.00    -0.532 OA
ENDBRANCH  16  20
ENDBRANCH   3  14
BRANCH   1  23
ATOM     23  C   UNK d   1       1.822  -1.261  -1.758  0.00  0.00     0.143 A 
ATOM     24  C   UNK d   1       1.116  -2.382  -1.397  0.00  0.00     0.061 A 
ATOM     25  C   UNK d   1       1.010  -3.498  -2.223  0.00  0.00     0.036 A 
ATOM     26 Cl   UNK d   1       0.065  -4.893  -1.724  0.00  0.00    -0.084 Cl
ATOM     27  C   UNK d   1       1.628  -3.504  -3.457  0.00  0.00     0.024 A 
ATOM     28  C   UNK d   1       2.345  -2.407  -3.854  0.00  0.00     0.004 A 
ATOM     29  C   UNK d   1       2.439  -1.303  -3.014  0.00  0.00     0.038 A 
ENDBRANCH   1  23
TORSDOF 4
