# created with PyMOL 2.3.2
@<TRIPOS>MOLECULE
1491
54 58 1                 
SMALL
USER_CHARGES
@<TRIPOS>ATOM
1	   F	-2.032	1.532	1.500	 F	1	UNK0	0.000	
2	   C	-1.891	0.351	0.872	C.2	1	UNK0	0.000	
3	   C	-3.080	-0.173	0.373	C.2	1	UNK0	0.000	
4	   C	-3.086	-1.374	-0.301	C.2	1	UNK0	0.000	
5	   C	-1.889	-2.030	-0.464	C.2	1	UNK0	0.000	
6	   C	-0.711	-1.489	0.041	C.2	1	UNK0	0.000	
7	   C	-0.692	-0.297	0.714	C.2	1	UNK0	0.000	
8	   N	0.508	0.208	1.214	N.4	1	UNK0	0.000	
9	   C	0.408	1.446	1.944	C.3	1	UNK0	0.000	
10	   C	1.781	1.803	2.561	C.3	1	UNK0	0.000	
11	   N	2.645	2.007	1.466	N.pl3	1	UNK0	0.000	
12	   C	2.904	0.695	0.755	C.3	1	UNK0	0.000	
13	   C	1.546	0.324	0.243	C.3	1	UNK0	0.000	
14	   C	3.218	3.107	0.923	C.2	1	UNK0	0.000	
15	   O	4.041	2.878	-0.072	O.2	1	UNK0	0.000	
16	   C	3.088	4.501	1.244	C.2	1	UNK0	0.000	
17	   C	2.129	5.014	2.056	C.2	1	UNK0	0.000	
18	   C	2.075	6.363	2.383	C.2	1	UNK0	0.000	
19	   C	3.019	7.214	1.869	C.2	1	UNK0	0.000	
20	   C	4.005	6.750	1.045	C.2	1	UNK0	0.000	
21	   C	4.032	5.422	0.744	C.2	1	UNK0	0.000	
22	  Cl	0.810	6.984	3.446	Cl	1	UNK0	0.000	
23	   N	-1.919	-3.203	-1.128	N.pl3	1	UNK0	0.000	
24	   C	-3.055	-3.730	-1.619	C.2	1	UNK0	0.000	
25	   C	-4.270	-3.098	-1.472	C.2	1	UNK0	0.000	
26	   C	-4.286	-1.898	-0.801	C.2	1	UNK0	0.000	
27	   O	-5.358	-1.270	-0.633	O.2	1	UNK0	0.000	
28	   C	-5.507	-3.690	-2.016	C.2	1	UNK0	0.000	
29	   O	-6.615	-3.143	-1.900	O.co2	1	UNK0	0.000	
30	   O	-5.411	-4.894	-2.676	O.co2	1	UNK0	0.000	
31	   C	-0.632	-3.889	-1.292	C.3	1	UNK0	0.000	
32	   C	0.379	-3.386	-2.227	C.3	1	UNK0	0.000	
33	   C	-0.430	-4.503	-2.717	C.3	1	UNK0	0.000	
34	   H	-4.033	0.322	0.488	 H	1	UNK0	0.000	
35	   H	0.182	-2.088	-0.141	 H	1	UNK0	0.000	
36	   H	0.856	-0.506	1.926	 H	1	UNK0	0.000	
37	   H	0.206	2.261	1.234	 H	1	UNK0	0.000	
38	   H	-0.245	1.405	2.832	 H	1	UNK0	0.000	
39	   H	1.635	2.561	3.303	 H	1	UNK0	0.000	
40	   H	2.110	0.884	3.171	 H	1	UNK0	0.000	
41	   H	3.181	0.002	1.565	 H	1	UNK0	0.000	
42	   H	3.658	0.815	-0.013	 H	1	UNK0	0.000	
43	   H	1.663	-0.695	-0.232	 H	1	UNK0	0.000	
44	   H	1.316	0.997	-0.601	 H	1	UNK0	0.000	
45	   H	1.329	4.424	2.469	 H	1	UNK0	0.000	
46	   H	2.960	8.262	2.135	 H	1	UNK0	0.000	
47	   H	4.718	7.474	0.673	 H	1	UNK0	0.000	
48	   H	4.824	5.052	0.084	 H	1	UNK0	0.000	
49	   H	-3.027	-4.673	-2.143	 H	1	UNK0	0.000	
50	   H	-0.332	-4.568	-0.474	 H	1	UNK0	0.000	
51	   H	0.297	-2.395	-2.720	 H	1	UNK0	0.000	
52	   H	1.452	-3.606	-1.950	 H	1	UNK0	0.000	
53	   H	-1.243	-4.308	-3.444	 H	1	UNK0	0.000	
54	   H	-0.074	-5.550	-2.744	 H	1	UNK0	0.000	
@<TRIPOS>BOND
1 1 2 1
2 2 3 2
3 2 7 1
4 3 4 1
5 4 5 2
6 4 26 1
7 5 6 1
8 5 23 1
9 6 7 2
10 7 8 1
11 8 9 1
12 8 13 1
13 9 10 1
14 10 11 1
15 11 12 1
16 11 14 1
17 12 13 1
18 14 15 2
19 14 16 1
20 16 17 2
21 16 21 1
22 17 18 1
23 18 19 2
24 18 22 1
25 19 20 1
26 20 21 2
27 23 24 1
28 23 31 1
29 24 25 2
30 25 26 1
31 25 28 1
32 26 27 2
33 28 29 2
34 28 30 1
35 31 32 1
36 31 33 1
37 32 33 1
38 3 34 1
39 6 35 1
40 8 36 1
41 9 37 1
42 9 38 1
43 10 39 1
44 10 40 1
45 12 41 1
46 12 42 1
47 13 43 1
48 13 44 1
49 17 45 1
50 19 46 1
51 20 47 1
52 21 48 1
53 24 49 1
54 31 50 1
55 32 51 1
56 32 52 1
57 33 53 1
58 33 54 1
@<TRIPOS>SUBSTRUCTURE
1	UNK0	1	GROUP	1 ****	UNK
