REMARK  4 active torsions:
REMARK  status: ('A' for Active; 'I' for Inactive)
REMARK    1  A    between atoms: C_7  and  N_8 
REMARK    2  A    between atoms: C_14  and  C_16 
REMARK    3  A    between atoms: N_23  and  C_31 
REMARK    4  A    between atoms: C_25  and  C_28 
ROOT
ATOM      1  F   UNK d   1      -2.032   1.532   1.500  0.00  0.00    -0.204 F 
ATOM      2  C   UNK d   1      -1.891   0.351   0.872  0.00  0.00     0.151 A 
ATOM      3  C   UNK d   1      -3.080  -0.173   0.373  0.00  0.00     0.062 A 
ATOM      4  C   UNK d   1      -3.086  -1.374  -0.301  0.00  0.00     0.045 A 
ATOM      5  C   UNK d   1      -1.889  -2.030  -0.464  0.00  0.00     0.051 A 
ATOM      6  C   UNK d   1      -0.711  -1.489   0.041  0.00  0.00     0.071 A 
ATOM      7  C   UNK d   1      -0.692  -0.297   0.714  0.00  0.00     0.175 A 
ATOM      8  N   UNK d   1      -1.919  -3.203  -1.128  0.00  0.00    -0.350 N 
ATOM      9  C   UNK d   1      -3.055  -3.730  -1.619  0.00  0.00     0.114 A 
ATOM     10  C   UNK d   1      -4.270  -3.098  -1.472  0.00  0.00     0.107 A 
ATOM     11  C   UNK d   1      -4.286  -1.898  -0.801  0.00  0.00     0.202 A 
ATOM     12  O   UNK d   1      -5.358  -1.270  -0.633  0.00  0.00    -0.286 OA
ENDROOT
BRANCH   7  13
ATOM     13  N   UNK d   1       0.508   0.208   1.214  0.00  0.00    -0.035 N 
ATOM     14  C   UNK d   1       0.408   1.446   1.944  0.00  0.00     0.261 C 
ATOM     15  C   UNK d   1       1.781   1.803   2.561  0.00  0.00     0.153 C 
ATOM     16  N   UNK d   1       2.645   2.007   1.466  0.00  0.00    -0.356 N 
ATOM     17  C   UNK d   1       2.904   0.695   0.755  0.00  0.00     0.153 C 
ATOM     18  C   UNK d   1       3.218   3.107   0.923  0.00  0.00     0.187 C 
ATOM     19  C   UNK d   1       1.546   0.324   0.243  0.00  0.00     0.261 C 
ATOM     20  O   UNK d   1       4.041   2.878  -0.072  0.00  0.00    -0.171 OA
ATOM     21  H   UNK d   1       0.856  -0.506   1.926  0.00  0.00     0.287 HD
BRANCH  18  22
ATOM     22  C   UNK d   1       3.088   4.501   1.244  0.00  0.00     0.019 A 
ATOM     23  C   UNK d   1       2.129   5.014   2.056  0.00  0.00     0.039 A 
ATOM     24  C   UNK d   1       2.075   6.363   2.383  0.00  0.00     0.035 A 
ATOM     25  C   UNK d   1       3.019   7.214   1.869  0.00  0.00     0.024 A 
ATOM     26 Cl   UNK d   1       0.810   6.984   3.446  0.00  0.00    -0.084 Cl
ATOM     27  C   UNK d   1       4.005   6.750   1.045  0.00  0.00     0.003 A 
ATOM     28  C   UNK d   1       4.032   5.422   0.744  0.00  0.00     0.016 A 
ENDBRANCH  18  22
ENDBRANCH   7  13
BRANCH   8  29
ATOM     29  C   UNK d   1      -0.632  -3.889  -1.292  0.00  0.00     0.090 A 
ATOM     30  C   UNK d   1       0.379  -3.386  -2.227  0.00  0.00     0.028 A 
ATOM     31  C   UNK d   1      -0.430  -4.503  -2.717  0.00  0.00     0.028 A 
ENDBRANCH   8  29
BRANCH  10  32
ATOM     32  C   UNK d   1      -5.507  -3.690  -2.016  0.00  0.00     0.214 C 
ATOM     33  O   UNK d   1      -6.615  -3.143  -1.900  0.00  0.00    -0.644 OA
ATOM     34  O   UNK d   1      -5.411  -4.894  -2.676  0.00  0.00    -0.644 OA
ENDBRANCH  10  32
TORSDOF 4
