REMARK  6 active torsions:
REMARK  status: ('A' for Active; 'I' for Inactive)
REMARK    1  A    between atoms: C_5  and  C_8 
REMARK       I    between atoms: C_8  and  N_10 
REMARK    2  A    between atoms: N_10  and  C_11 
REMARK    3  A    between atoms: C_11  and  C_12 
REMARK    4  A    between atoms: C_12  and  N_13 
REMARK       I    between atoms: N_13  and  C_14 
REMARK    5  A    between atoms: C_14  and  C_16 
REMARK    6  A    between atoms: N_19  and  C_22 
ROOT
ATOM      1  N   UNK d   1      -0.649  -1.584   0.790  0.00  0.00    -0.359 N 
ATOM      2  C   UNK d   1      -1.264  -2.117  -0.400  0.00  0.00     0.222 C 
ATOM      3  O   UNK d   1      -0.696  -3.033  -1.015  0.00  0.00    -0.273 OA
ATOM      4  H   UNK d   1      -1.184  -0.857   1.258  0.00  0.00     0.162 HD
ENDROOT
BRANCH   2   5
ATOM      5  C   UNK d   1      -2.557  -1.597  -0.904  0.00  0.00     0.081 C 
ATOM      6  C   UNK d   1      -2.863  -2.292  -2.212  0.00  0.00     0.034 C 
ATOM      7  C   UNK d   1      -1.899  -1.749  -3.243  0.00  0.00     0.125 C 
ATOM      8  N   UNK d   1      -2.319  -0.372  -3.486  0.00  0.00    -0.364 N 
ATOM      9  C   UNK d   1      -2.838   0.413  -2.418  0.00  0.00     0.125 C 
ATOM     10  C   UNK d   1      -2.591  -0.121  -1.054  0.00  0.00     0.034 C 
BRANCH   8  11
ATOM     11  C   UNK d   1      -2.186   0.128  -4.802  0.00  0.00     0.148 A 
ATOM     12  N   UNK d   1      -1.716  -0.614  -5.823  0.00  0.00    -0.129 NA
ATOM     13  N   UNK d   1      -1.584  -0.162  -7.056  0.00  0.00    -0.108 N 
ATOM     14  N   UNK d   1      -1.147  -0.738  -8.171  0.00  0.00    -0.021 NA
ATOM     15  C   UNK d   1      -1.911   1.089  -7.399  0.00  0.00     0.196 A 
ATOM     16  N   UNK d   1      -1.193   0.102  -9.170  0.00  0.00    -0.021 NA
ATOM     17  N   UNK d   1      -1.665   1.244  -8.717  0.00  0.00    -0.107 NA
ATOM     18  C   UNK d   1      -2.400   1.903  -6.393  0.00  0.00     0.060 A 
ATOM     19  C   UNK d   1      -2.539   1.432  -5.103  0.00  0.00     0.056 A 
ENDBRANCH   8  11
ENDBRANCH   2   5
BRANCH   1  20
ATOM     20  C   UNK d   1       0.580  -2.148   1.188  0.00  0.00     0.142 C 
BRANCH  20  21
ATOM     21  C   UNK d   1       1.331  -1.646   2.350  0.00  0.00     0.142 C 
BRANCH  21  22
ATOM     22  N   UNK d   1       1.877  -0.344   2.294  0.00  0.00    -0.355 N 
ATOM     23  C   UNK d   1       1.274   0.902   2.208  0.00  0.00     0.251 C 
ATOM     24  O   UNK d   1       0.032   1.035   2.179  0.00  0.00    -0.268 OA
ATOM     25  H   UNK d   1       2.986  -0.265   2.313  0.00  0.00     0.162 HD
BRANCH  23  26
ATOM     26  C   UNK d   1       2.053   2.161   2.144  0.00  0.00     0.032 A 
ATOM     27  C   UNK d   1       1.451   3.314   1.689  0.00  0.00     0.018 A 
ATOM     28  C   UNK d   1       2.131   4.507   1.620  0.00  0.00     0.025 A 
ATOM     29  C   UNK d   1       3.457   4.556   2.017  0.00  0.00     0.034 A 
ATOM     30 Cl   UNK d   1       4.336   6.074   1.932  0.00  0.00    -0.084 Cl
ATOM     31  C   UNK d   1       4.086   3.429   2.475  0.00  0.00     0.025 A 
ATOM     32  C   UNK d   1       3.365   2.234   2.532  0.00  0.00     0.018 A 
ENDBRANCH  23  26
ENDBRANCH  21  22
ENDBRANCH  20  21
ENDBRANCH   1  20
TORSDOF 6
