REMARK  5 active torsions:
REMARK  status: ('A' for Active; 'I' for Inactive)
REMARK    1  A    between atoms: C_5  and  C_8 
REMARK    2  A    between atoms: C_10  and  C_24 
REMARK    3  A    between atoms: N_11  and  C_16 
REMARK    4  A    between atoms: C_16  and  C_17 
REMARK    5  A    between atoms: C_17  and  N_18 
ROOT
ATOM      1  C   UNK d   1      -0.405   0.500  -2.206  0.00  0.00     0.130 C 
ATOM      2  C   UNK d   1      -0.533  -0.567  -1.444  0.00  0.00     0.062 C 
ATOM      3  C   UNK d   1       0.436  -1.682  -1.190  0.00  0.00     0.161 C 
ATOM      4  N   UNK d   1       0.285  -1.892   0.204  0.00  0.00    -0.331 N 
ATOM      5  C   UNK d   1      -1.161  -1.849   0.403  0.00  0.00     0.295 C 
ATOM      6  O   UNK d   1      -1.831  -2.425   1.299  0.00  0.00    -0.264 OA
ATOM      7  C   UNK d   1      -1.688  -0.996  -0.656  0.00  0.00     0.250 C 
ATOM      8  O   UNK d   1      -2.889  -0.648  -0.910  0.00  0.00    -0.282 OA
ATOM      9  O   UNK d   1       0.742   0.746  -2.940  0.00  0.00    -0.190 OA
ENDROOT
BRANCH   1  10
ATOM     10  C   UNK d   1      -1.477   1.482  -2.317  0.00  0.00     0.001 A 
ATOM     11  C   UNK d   1      -1.905   1.959  -3.542  0.00  0.00     0.015 A 
ATOM     12  C   UNK d   1      -2.896   2.900  -3.562  0.00  0.00     0.020 A 
ATOM     13  C   UNK d   1      -3.499   3.407  -2.434  0.00  0.00     0.011 A 
ATOM     14 Br   UNK d   1      -4.889   4.731  -2.545  0.00  0.00    -0.051 Br
ATOM     15  C   UNK d   1      -3.076   2.936  -1.208  0.00  0.00     0.020 A 
ATOM     16  C   UNK d   1      -2.063   1.973  -1.173  0.00  0.00     0.015 A 
ENDBRANCH   1  10
BRANCH   3  17
ATOM     17  C   UNK d   1       1.703  -1.520  -1.821  0.00  0.00    -0.030 A 
ATOM     18  C   UNK d   1       2.037  -2.337  -2.874  0.00  0.00     0.011 A 
ATOM     19  C   UNK d   1       3.232  -2.231  -3.544  0.00  0.00     0.024 A 
ATOM     20  C   UNK d   1       4.164  -1.273  -3.172  0.00  0.00     0.034 A 
ATOM     21  C   UNK d   1       3.810  -0.462  -2.112  0.00  0.00     0.024 A 
ATOM     22 Cl   UNK d   1       5.686  -1.127  -4.015  0.00  0.00    -0.084 Cl
ATOM     23  C   UNK d   1       2.610  -0.575  -1.446  0.00  0.00     0.011 A 
ENDBRANCH   3  17
BRANCH   4  24
ATOM     24  C   UNK d   1       1.199  -2.166   1.296  0.00  0.00     0.155 C 
BRANCH  24  25
ATOM     25  C   UNK d   1       1.662  -1.017   2.104  0.00  0.00     0.255 C 
BRANCH  25  26
ATOM     26  N   UNK d   1       0.585  -0.291   2.786  0.00  0.00    -0.066 N 
ATOM     27  C   UNK d   1       0.117   0.778   1.972  0.00  0.00     0.261 C 
ATOM     28  C   UNK d   1       0.336   2.157   2.488  0.00  0.00     0.195 C 
ATOM     29  O   UNK d   1       0.402   2.277   3.863  0.00  0.00    -0.388 OA
ATOM     30  C   UNK d   1       1.509   1.485   4.245  0.00  0.00     0.195 C 
ATOM     31  C   UNK d   1       1.074   0.071   4.084  0.00  0.00     0.261 C 
ATOM     32  H   UNK d   1      -0.182  -1.020   2.917  0.00  0.00     0.280 HD
ENDBRANCH  25  26
ENDBRANCH  24  25
ENDBRANCH   4  24
TORSDOF 5
