# created with PyMOL 2.3.2
@<TRIPOS>MOLECULE
1511
49 52 1                 
SMALL
USER_CHARGES
@<TRIPOS>ATOM
1	  Br	-0.255	-7.235	-5.605	Br	1	UNK0	0.000	
2	   C	-0.332	-5.472	-4.861	C.2	1	UNK0	0.000	
3	   C	-0.675	-4.381	-5.635	C.2	1	UNK0	0.000	
4	   C	-0.730	-3.102	-5.089	C.2	1	UNK0	0.000	
5	   C	-0.443	-2.875	-3.759	C.2	1	UNK0	0.000	
6	   C	-0.101	-3.967	-2.992	C.2	1	UNK0	0.000	
7	   C	-0.047	-5.236	-3.531	C.2	1	UNK0	0.000	
8	   N	-0.489	-1.582	-3.167	N.pl3	1	UNK0	0.000	
9	   C	0.336	-1.010	-2.275	C.2	1	UNK0	0.000	
10	   O	1.344	-1.602	-1.811	O.2	1	UNK0	0.000	
11	   C	-0.078	0.274	-1.962	C.2	1	UNK0	0.000	
12	   C	-1.175	0.485	-2.678	C.2	1	UNK0	0.000	
13	   N	-1.576	1.729	-2.374	N.pl3	1	UNK0	0.000	
14	   N	-0.746	2.263	-1.496	N.pl3	1	UNK0	0.000	
15	   N	0.183	1.384	-1.230	N.pl3	1	UNK0	0.000	
16	   C	1.300	1.527	-0.327	C.3	1	UNK0	0.000	
17	   C	0.887	1.059	1.049	C.2	1	UNK0	0.000	
18	   O	1.062	-0.139	1.364	O.2	1	UNK0	0.000	
19	   N	0.315	1.962	1.957	N.pl3	1	UNK0	0.000	
20	   C	-0.107	1.660	3.267	C.2	1	UNK0	0.000	
21	   C	0.170	0.507	3.957	C.2	1	UNK0	0.000	
22	   C	-0.289	0.264	5.235	C.2	1	UNK0	0.000	
23	   C	-1.062	1.232	5.841	C.2	1	UNK0	0.000	
24	   C	-1.364	2.411	5.179	C.2	1	UNK0	0.000	
25	   C	-0.899	2.630	3.911	C.2	1	UNK0	0.000	
26	   O	-1.535	1.007	7.131	O.3	1	UNK0	0.000	
27	   C	-2.328	1.996	7.757	C.3	1	UNK0	0.000	
28	   O	0.009	-0.917	5.911	O.3	1	UNK0	0.000	
29	   C	0.817	-1.885	5.229	C.3	1	UNK0	0.000	
30	   C	-1.434	-0.649	-3.419	C.2	1	UNK0	0.000	
31	   O	-2.414	-0.798	-4.222	O.2	1	UNK0	0.000	
32	   H	-0.900	-4.569	-6.684	 H	1	UNK0	0.000	
33	   H	-0.998	-2.258	-5.700	 H	1	UNK0	0.000	
34	   H	0.123	-3.780	-1.944	 H	1	UNK0	0.000	
35	   H	0.228	-6.083	-2.897	 H	1	UNK0	0.000	
36	   H	-2.406	2.229	-2.750	 H	1	UNK0	0.000	
37	   H	-0.800	3.234	-1.066	 H	1	UNK0	0.000	
38	   H	1.640	2.584	-0.225	 H	1	UNK0	0.000	
39	   H	2.145	0.888	-0.627	 H	1	UNK0	0.000	
40	   H	0.196	2.972	1.619	 H	1	UNK0	0.000	
41	   H	0.781	-0.264	3.508	 H	1	UNK0	0.000	
42	   H	-1.979	3.155	5.688	 H	1	UNK0	0.000	
43	   H	-1.148	3.574	3.395	 H	1	UNK0	0.000	
44	   H	-3.169	2.212	7.056	 H	1	UNK0	0.000	
45	   H	-1.735	2.909	7.895	 H	1	UNK0	0.000	
46	   H	-2.729	1.586	8.713	 H	1	UNK0	0.000	
47	   H	1.847	-1.467	5.055	 H	1	UNK0	0.000	
48	   H	0.892	-2.818	5.822	 H	1	UNK0	0.000	
49	   H	0.375	-2.130	4.241	 H	1	UNK0	0.000	
@<TRIPOS>BOND
1 1 2 1
2 2 3 2
3 2 7 1
4 3 4 1
5 4 5 2
6 5 6 1
7 5 8 1
8 6 7 2
9 8 9 1
10 8 30 1
11 9 10 2
12 9 11 1
13 11 12 2
14 11 15 1
15 12 13 1
16 12 30 1
17 13 14 1
18 14 15 1
19 15 16 1
20 16 17 1
21 17 18 2
22 17 19 1
23 19 20 1
24 20 21 2
25 20 25 1
26 21 22 1
27 22 23 2
28 22 28 1
29 23 24 1
30 23 26 1
31 24 25 2
32 26 27 1
33 28 29 1
34 30 31 2
35 3 32 1
36 4 33 1
37 6 34 1
38 7 35 1
39 13 36 1
40 14 37 1
41 16 38 1
42 16 39 1
43 19 40 1
44 21 41 1
45 24 42 1
46 25 43 1
47 27 44 1
48 27 45 1
49 27 46 1
50 29 47 1
51 29 48 1
52 29 49 1
@<TRIPOS>SUBSTRUCTURE
1	UNK0	1	GROUP	1 ****	UNK
