REMARK  3 active torsions:
REMARK  status: ('A' for Active; 'I' for Inactive)
REMARK    1  A    between atoms: C_5  and  C_8 
REMARK       I    between atoms: C_8  and  N_10 
REMARK    2  A    between atoms: N_10  and  C_11 
REMARK    3  A    between atoms: C_11  and  C_12 
REMARK       I    between atoms: C_12  and  N_14 
ROOT
ATOM      1  C   UNK d   1       3.079  -1.200   0.082  0.00  0.00     0.171 C 
ATOM      2  O   UNK d   1       3.972  -2.155   0.207  0.00  0.00    -0.175 OA
ATOM      3  N   UNK d   1       1.765  -1.642   0.143  0.00  0.00    -0.361 N 
ATOM      4  C   UNK d   1       0.622  -0.793   0.066  0.00  0.00     0.127 C 
ATOM      5  C   UNK d   1      -0.612  -1.615   0.504  0.00  0.00     0.057 C 
ATOM      6  C   UNK d   1      -0.841  -2.651  -0.580  0.00  0.00     0.073 C 
ATOM      7  N   UNK d   1      -1.092  -1.999  -1.799  0.00  0.00    -0.407 N 
ATOM      8  C   UNK d   1      -2.383  -1.573  -2.132  0.00  0.00     0.121 C 
ATOM      9  C   UNK d   1      -3.519  -2.433  -1.723  0.00  0.00     0.080 C 
ATOM     10  C   UNK d   1      -3.172  -3.422  -0.681  0.00  0.00     0.062 A 
ATOM     11  N   UNK d   1      -3.974  -4.341  -0.109  0.00  0.00    -0.246 NA
ATOM     12  C   UNK d   1      -3.251  -5.025   0.783  0.00  0.00     0.207 A 
ATOM     13  N   UNK d   1      -1.991  -4.534   0.771  0.00  0.00    -0.350 N 
ATOM     14  C   UNK d   1      -1.925  -3.538  -0.132  0.00  0.00     0.063 A 
ATOM     15  C   UNK d   1       0.466  -3.446  -0.742  0.00  0.00     0.057 C 
ATOM     16  C   UNK d   1       1.484  -3.078   0.301  0.00  0.00     0.127 C 
ATOM     17  H   UNK d   1      -0.312  -1.685  -2.364  0.00  0.00     0.154 HD
ATOM     18  H   UNK d   1      -1.212  -4.873   1.364  0.00  0.00     0.166 HD
ENDROOT
BRANCH   1  19
ATOM     19  C   UNK d   1       3.653   0.133  -0.093  0.00  0.00     0.210 C 
BRANCH  19  20
ATOM     20  N   UNK d   1       2.795   1.184  -0.281  0.00  0.00    -0.349 N 
ATOM     21  C   UNK d   1       1.946   2.223  -0.468  0.00  0.00     0.252 C 
ATOM     22  O   UNK d   1       1.130   2.382  -1.413  0.00  0.00    -0.268 OA
ATOM     23  H   UNK d   1       2.395   0.613  -1.468  0.00  0.00     0.163 HD
BRANCH  21  24
ATOM     24  C   UNK d   1       1.955   3.325   0.549  0.00  0.00     0.032 A 
ATOM     25  C   UNK d   1       0.922   4.215   0.563  0.00  0.00     0.018 A 
ATOM     26  C   UNK d   1       0.917   5.248   1.506  0.00  0.00     0.025 A 
ATOM     27  C   UNK d   1       1.956   5.335   2.390  0.00  0.00     0.034 A 
ATOM     28 Cl   UNK d   1       1.949   6.638   3.570  0.00  0.00    -0.084 Cl
ATOM     29  C   UNK d   1       2.990   4.445   2.375  0.00  0.00     0.025 A 
ATOM     30  C   UNK d   1       2.986   3.407   1.422  0.00  0.00     0.018 A 
ENDBRANCH  21  24
ENDBRANCH  19  20
ENDBRANCH   1  19
TORSDOF 3
