# created with PyMOL 2.3.2
@<TRIPOS>MOLECULE
1516
49 52 1                 
SMALL
USER_CHARGES
@<TRIPOS>ATOM
1	  Cl	1.949	6.638	3.570	Cl	1	UNK0	0.000	
2	   C	1.956	5.335	2.390	C.2	1	UNK0	0.000	
3	   C	0.917	5.248	1.506	C.2	1	UNK0	0.000	
4	   C	0.922	4.215	0.563	C.2	1	UNK0	0.000	
5	   C	1.955	3.325	0.549	C.2	1	UNK0	0.000	
6	   C	2.986	3.407	1.422	C.2	1	UNK0	0.000	
7	   C	2.990	4.445	2.375	C.2	1	UNK0	0.000	
8	   C	1.946	2.223	-0.468	C.2	1	UNK0	0.000	
9	   O	1.130	2.382	-1.413	O.2	1	UNK0	0.000	
10	   N	2.795	1.184	-0.281	N.pl3	1	UNK0	0.000	
11	   C	3.653	0.133	-0.093	C.3	1	UNK0	0.000	
12	   C	3.079	-1.200	0.082	C.2	1	UNK0	0.000	
13	   O	3.972	-2.155	0.207	O.2	1	UNK0	0.000	
14	   N	1.765	-1.642	0.143	N.pl3	1	UNK0	0.000	
15	   C	0.622	-0.793	0.066	C.3	1	UNK0	0.000	
16	   C	-0.612	-1.615	0.504	C.3	1	UNK0	0.000	
17	   C	-0.841	-2.651	-0.580	C.3	1	UNK0	0.000	
18	   N	-1.092	-1.999	-1.799	N.3	1	UNK0	0.000	
19	   C	-2.383	-1.573	-2.132	C.3	1	UNK0	0.000	
20	   C	-3.519	-2.433	-1.723	C.3	1	UNK0	0.000	
21	   C	-3.172	-3.422	-0.681	C.2	1	UNK0	0.000	
22	   N	-3.974	-4.341	-0.109	N.2	1	UNK0	0.000	
23	   C	-3.251	-5.025	0.783	C.2	1	UNK0	0.000	
24	   N	-1.991	-4.534	0.771	N.pl3	1	UNK0	0.000	
25	   C	-1.925	-3.538	-0.132	C.2	1	UNK0	0.000	
26	   C	0.466	-3.446	-0.742	C.3	1	UNK0	0.000	
27	   C	1.484	-3.078	0.301	C.3	1	UNK0	0.000	
28	   H	0.101	5.949	1.516	 H	1	UNK0	0.000	
29	   H	0.124	4.105	-0.150	 H	1	UNK0	0.000	
30	   H	3.826	2.722	1.443	 H	1	UNK0	0.000	
31	   H	3.805	4.521	3.079	 H	1	UNK0	0.000	
32	   H	2.395	0.613	-1.468	 H	1	UNK0	0.000	
33	   H	4.321	0.328	0.834	 H	1	UNK0	0.000	
34	   H	4.481	0.056	-0.894	 H	1	UNK0	0.000	
35	   H	0.422	-0.435	-0.940	 H	1	UNK0	0.000	
36	   H	0.760	0.036	0.817	 H	1	UNK0	0.000	
37	   H	-1.474	-0.921	0.565	 H	1	UNK0	0.000	
38	   H	-0.388	-2.046	1.475	 H	1	UNK0	0.000	
39	   H	-0.312	-1.685	-2.364	 H	1	UNK0	0.000	
40	   H	-2.427	-1.492	-3.262	 H	1	UNK0	0.000	
41	   H	-2.523	-0.503	-1.795	 H	1	UNK0	0.000	
42	   H	-3.932	-3.020	-2.596	 H	1	UNK0	0.000	
43	   H	-4.381	-1.784	-1.416	 H	1	UNK0	0.000	
44	   H	-3.602	-5.836	1.410	 H	1	UNK0	0.000	
45	   H	-1.212	-4.873	1.364	 H	1	UNK0	0.000	
46	   H	0.271	-4.542	-0.713	 H	1	UNK0	0.000	
47	   H	0.932	-3.245	-1.745	 H	1	UNK0	0.000	
48	   H	2.402	-3.678	0.061	 H	1	UNK0	0.000	
49	   H	1.179	-3.309	1.324	 H	1	UNK0	0.000	
@<TRIPOS>BOND
1 1 2 1
2 2 3 2
3 2 7 1
4 3 4 1
5 4 5 2
6 5 6 1
7 5 8 1
8 6 7 2
9 8 9 2
10 8 10 1
11 10 11 1
12 11 12 1
13 12 13 2
14 12 14 1
15 14 15 1
16 14 27 1
17 15 16 1
18 16 17 1
19 17 18 1
20 17 25 1
21 17 26 1
22 18 19 1
23 19 20 1
24 20 21 1
25 21 22 1
26 21 25 2
27 22 23 2
28 23 24 1
29 24 25 1
30 26 27 1
31 3 28 1
32 4 29 1
33 6 30 1
34 7 31 1
35 10 32 1
36 11 33 1
37 11 34 1
38 15 35 1
39 15 36 1
40 16 37 1
41 16 38 1
42 18 39 1
43 19 40 1
44 19 41 1
45 20 42 1
46 20 43 1
47 23 44 1
48 24 45 1
49 26 46 1
50 26 47 1
51 27 48 1
52 27 49 1
@<TRIPOS>SUBSTRUCTURE
1	UNK0	1	GROUP	1 ****	UNK
