REMARK  4 active torsions:
REMARK  status: ('A' for Active; 'I' for Inactive)
REMARK    1  A    between atoms: C_5  and  C_8 
REMARK       I    between atoms: C_8  and  N_10 
REMARK    2  A    between atoms: N_10  and  C_11 
REMARK    3  A    between atoms: C_11  and  C_12 
REMARK    4  A    between atoms: C_12  and  C_13 
REMARK       I    between atoms: C_13  and  N_15 
ROOT
ATOM      1  C   UNK d   1       0.927  -2.130   0.808  0.00  0.00     0.221 C 
ATOM      2  O   UNK d   1       1.299  -2.084   2.006  0.00  0.00    -0.273 OA
ATOM      3  N   UNK d   1       1.104  -1.011  -0.039  0.00  0.00    -0.352 N 
ATOM      4  C   UNK d   1       0.695  -1.001  -1.429  0.00  0.00     0.129 C 
ATOM      5  C   UNK d   1       1.673  -0.120  -2.192  0.00  0.00     0.068 C 
ATOM      6  C   UNK d   1       1.586   1.323  -1.696  0.00  0.00     0.206 C 
ATOM      7  N   UNK d   1       2.909   1.870  -1.782  0.00  0.00     0.099 N 
ATOM      8  C   UNK d   1       2.898   3.317  -1.809  0.00  0.00     0.277 C 
ATOM      9  C   UNK d   1       2.349   3.773  -3.159  0.00  0.00     0.089 C 
ATOM     10  C   UNK d   1       0.965   3.225  -3.252  0.00  0.00     0.039 A 
ATOM     11  N   UNK d   1      -0.138   3.653  -3.936  0.00  0.00    -0.352 N 
ATOM     12  C   UNK d   1      -1.141   2.795  -3.679  0.00  0.00     0.207 A 
ATOM     13  N   UNK d   1      -0.672   1.847  -2.848  0.00  0.00    -0.244 NA
ATOM     14  C   UNK d   1       0.642   2.081  -2.558  0.00  0.00     0.097 A 
ATOM     15  C   UNK d   1       1.124   1.367  -0.255  0.00  0.00     0.068 C 
ATOM     16  C   UNK d   1       1.719   0.198   0.473  0.00  0.00     0.129 C 
ATOM     17  H   UNK d   1       3.518   1.530  -1.012  0.00  0.00     0.317 HD
ATOM     18  H   UNK d   1      -0.117   4.510  -4.533  0.00  0.00     0.166 HD
ENDROOT
BRANCH   1  19
ATOM     19  C   UNK d   1       0.303  -3.379   0.317  0.00  0.00     0.122 C 
BRANCH  19  20
ATOM     20  C   UNK d   1       0.216  -4.437   1.371  0.00  0.00     0.132 C 
BRANCH  20  21
ATOM     21  N   UNK d   1      -0.576  -3.951   2.484  0.00  0.00    -0.356 N 
ATOM     22  C   UNK d   1      -1.912  -3.563   2.379  0.00  0.00     0.251 C 
ATOM     23  O   UNK d   1      -2.501  -3.624   1.270  0.00  0.00    -0.268 OA
ATOM     24  H   UNK d   1      -0.072  -3.908   3.402  0.00  0.00     0.162 HD
BRANCH  22  25
ATOM     25  C   UNK d   1      -2.680  -3.076   3.522  0.00  0.00     0.032 A 
ATOM     26  C   UNK d   1      -2.124  -2.934   4.774  0.00  0.00     0.018 A 
ATOM     27  C   UNK d   1      -2.904  -2.467   5.821  0.00  0.00     0.025 A 
ATOM     28  C   UNK d   1      -4.240  -2.137   5.642  0.00  0.00     0.034 A 
ATOM     29 Cl   UNK d   1      -5.153  -1.555   7.020  0.00  0.00    -0.084 Cl
ATOM     30  C   UNK d   1      -4.808  -2.276   4.393  0.00  0.00     0.025 A 
ATOM     31  C   UNK d   1      -4.024  -2.737   3.371  0.00  0.00     0.018 A 
ENDBRANCH  22  25
ENDBRANCH  20  21
ENDBRANCH  19  20
ENDBRANCH   1  19
TORSDOF 4
