REMARK  3 active torsions:
REMARK  status: ('A' for Active; 'I' for Inactive)
REMARK    1  A    between atoms: N_12  and  C_15 
REMARK    2  A    between atoms: C_15  and  C_16 
REMARK    3  A    between atoms: C_16  and  O_21 
ROOT
ATOM      1 Cl   UNK d   1       4.494   4.137  -0.277  0.00  0.00    -0.082 Cl
ATOM      2  C   UNK d   1       2.760   3.989  -0.081  0.00  0.00     0.061 A 
ATOM      3  C   UNK d   1       2.098   2.949  -0.687  0.00  0.00     0.065 A 
ATOM      4  N   UNK d   1       2.471   1.919  -1.465  0.00  0.00    -0.357 N 
ATOM      5  C   UNK d   1       1.418   1.155  -1.812  0.00  0.00     0.020 A 
ATOM      6  C   UNK d   1       0.323   1.744  -1.216  0.00  0.00    -0.006 A 
ATOM      7  C   UNK d   1       0.727   2.859  -0.514  0.00  0.00     0.002 A 
ATOM      8  C   UNK d   1       0.078   3.805   0.253  0.00  0.00     0.014 A 
ATOM      9  C   UNK d   1       0.716   4.853   0.869  0.00  0.00     0.003 A 
ATOM     10  C   UNK d   1       2.093   4.940   0.692  0.00  0.00     0.026 A 
ATOM     11  C   UNK d   1      -0.978   1.071  -1.454  0.00  0.00     0.158 C 
ATOM     12  N   UNK d   1      -0.743  -0.315  -1.118  0.00  0.00    -0.405 N 
ATOM     13  C   UNK d   1       0.140  -0.994  -1.984  0.00  0.00     0.123 C 
ATOM     14  C   UNK d   1       1.149  -0.059  -2.611  0.00  0.00     0.077 C 
ATOM     15  H   UNK d   1       3.454   1.696  -1.789  0.00  0.00     0.166 HD
ENDROOT
BRANCH  12  16
ATOM     16  C   UNK d   1      -1.856  -0.998  -0.611  0.00  0.00     0.156 C 
BRANCH  16  17
ATOM     17  C   UNK d   1      -1.561  -2.422  -0.250  0.00  0.00     0.101 A 
ATOM     18  C   UNK d   1      -0.636  -2.563   0.909  0.00  0.00     0.308 A 
ATOM     19  N   UNK d   1      -1.235  -3.353   1.929  0.00  0.00     0.086 N 
ATOM     20  C   UNK d   1      -2.560  -3.705   1.534  0.00  0.00     0.272 A 
ATOM     21  H   UNK d   1      -0.665  -4.185   2.212  0.00  0.00     0.315 HD
ATOM     22  C   UNK d   1      -2.837  -3.073   0.212  0.00  0.00     0.071 A 
BRANCH  17  23
ATOM     23  O   UNK d   1      -1.122  -3.144  -1.367  0.00  0.00    -0.386 OA
ATOM     24  H   UNK d   1      -0.585  -3.899  -1.008  0.00  0.00     0.210 HD
ENDBRANCH  17  23
ENDBRANCH  16  17
ENDBRANCH  12  16
TORSDOF 3
