REMARK  3 active torsions:
REMARK  status: ('A' for Active; 'I' for Inactive)
REMARK    1  A    between atoms: C_4  and  N_8 
REMARK    2  A    between atoms: C_11  and  C_13 
REMARK       I    between atoms: C_13  and  N_15 
REMARK       I    between atoms: N_18  and  C_21 
REMARK    3  A    between atoms: C_21  and  C_23 
ROOT
ATOM      1  C   UNK d   1      -0.859  -1.703  -0.030  0.00  0.00     0.275 C 
ATOM      2  O   UNK d   1      -0.028  -2.559  -0.496  0.00  0.00    -0.266 OA
ATOM      3  N   UNK d   1      -1.204  -1.713   1.322  0.00  0.00    -0.344 N 
ATOM      4  C   UNK d   1      -0.627  -2.696   2.197  0.00  0.00     0.146 C 
ATOM      5  C   UNK d   1       0.264  -1.991   3.182  0.00  0.00     0.145 C 
ATOM      6  N   UNK d   1      -0.408  -0.828   3.687  0.00  0.00    -0.349 N 
ATOM      7  C   UNK d   1      -1.865  -0.785   3.455  0.00  0.00     0.145 C 
ATOM      8  C   UNK d   1      -2.125  -0.795   1.955  0.00  0.00     0.146 C 
ATOM      9  C   UNK d   1       0.151   0.259   4.359  0.00  0.00     0.224 C 
ATOM     10  O   UNK d   1      -0.699   1.163   4.740  0.00  0.00    -0.273 OA
ENDROOT
BRANCH   1  11
ATOM     11  C   UNK d   1      -1.394  -0.743  -1.023  0.00  0.00     0.166 A 
ATOM     12  N   UNK d   1      -2.272   0.248  -0.812  0.00  0.00    -0.125 NA
ATOM     13  N   UNK d   1      -2.496   0.877  -1.944  0.00  0.00    -0.060 NA
ATOM     14  N   UNK d   1      -1.782   0.329  -2.933  0.00  0.00    -0.224 N 
ATOM     15  C   UNK d   1      -1.097  -0.677  -2.364  0.00  0.00     0.159 A 
BRANCH  14  16
ATOM     16  C   UNK d   1      -1.772   0.748  -4.287  0.00  0.00     0.060 A 
ATOM     17  C   UNK d   1      -1.400  -0.121  -5.284  0.00  0.00     0.050 A 
ATOM     18  C   UNK d   1      -1.397   0.312  -6.618  0.00  0.00     0.013 A 
ATOM     19 Br   UNK d   1      -0.883  -0.880  -8.014  0.00  0.00    -0.051 Br
ATOM     20  C   UNK d   1      -1.761   1.592  -6.941  0.00  0.00     0.019 A 
ATOM     21  C   UNK d   1      -2.135   2.468  -5.951  0.00  0.00     0.004 A 
ATOM     22  C   UNK d   1      -2.135   2.026  -4.622  0.00  0.00     0.032 A 
ENDBRANCH  14  16
ENDBRANCH   1  11
BRANCH   9  23
ATOM     23  C   UNK d   1       1.538   0.546   4.705  0.00  0.00     0.078 A 
ATOM     24  C   UNK d   1       2.563  -0.474   4.927  0.00  0.00     0.015 A 
ATOM     25  C   UNK d   1       2.670   0.489   3.748  0.00  0.00     0.015 A 
ENDBRANCH   9  23
TORSDOF 3
