REMARK  3 active torsions:
REMARK  status: ('A' for Active; 'I' for Inactive)
REMARK    1  A    between atoms: C_4  and  N_8 
REMARK    2  A    between atoms: C_11  and  N_15 
REMARK    3  A    between atoms: N_18  and  C_21 
ROOT
ATOM      1  N   UNK d   1      -0.066  -1.478   0.581  0.00  0.00    -0.251 N 
ATOM      2  C   UNK d   1       1.077  -0.680   0.863  0.00  0.00     0.254 C 
ATOM      3  O   UNK d   1       2.012  -0.499   0.046  0.00  0.00    -0.270 OA
ATOM      4  C   UNK d   1       0.911  -0.168   2.218  0.00  0.00     0.181 C 
ATOM      5  C   UNK d   1       0.097  -1.250   2.896  0.00  0.00     0.138 C 
ATOM      6  C   UNK d   1      -0.655  -1.912   1.813  0.00  0.00     0.233 C 
ATOM      7  O   UNK d   1      -1.626  -2.706   1.926  0.00  0.00    -0.273 OA
ENDROOT
BRANCH   4   8
ATOM      8  N   UNK d   1       0.339   1.112   2.344  0.00  0.00    -0.397 N 
ATOM      9  C   UNK d   1      -0.979   1.297   1.888  0.00  0.00     0.138 C 
ATOM     10  C   UNK d   1      -0.929   1.885   0.471  0.00  0.00     0.161 C 
ATOM     11  N   UNK d   1       0.393   2.433   0.213  0.00  0.00    -0.211 N 
ATOM     12  C   UNK d   1       1.172   3.080   1.250  0.00  0.00     0.161 C 
ATOM     13  C   UNK d   1       1.139   2.243   2.507  0.00  0.00     0.138 C 
BRANCH  11  14
ATOM     14  C   UNK d   1       0.991   2.335  -1.087  0.00  0.00     0.724 A 
ATOM     15  N   UNK d   1       2.038   3.114  -1.431  0.00  0.00    -0.075 NA
ATOM     16  C   UNK d   1       2.606   3.005  -2.648  0.00  0.00     0.138 A 
ATOM     17  C   UNK d   1       2.140   2.093  -3.588  0.00  0.00     0.040 A 
ATOM     18  C   UNK d   1       1.067   1.297  -3.228  0.00  0.00     0.138 A 
ATOM     19  N   UNK d   1       0.544   1.453  -1.999  0.00  0.00    -0.075 NA
ENDBRANCH  11  14
ENDBRANCH   4   8
BRANCH   1  20
ATOM     20  C   UNK d   1      -0.532  -1.775  -0.736  0.00  0.00     0.046 A 
ATOM     21  C   UNK d   1       0.290  -2.233  -1.744  0.00  0.00     0.049 A 
ATOM     22  C   UNK d   1      -0.213  -2.511  -3.012  0.00  0.00     0.013 A 
ATOM     23 Br   UNK d   1       0.913  -3.143  -4.410  0.00  0.00    -0.051 Br
ATOM     24  C   UNK d   1      -1.551  -2.335  -3.291  0.00  0.00     0.019 A 
ATOM     25  C   UNK d   1      -2.387  -1.879  -2.301  0.00  0.00     0.004 A 
ATOM     26  C   UNK d   1      -1.874  -1.612  -1.061  0.00  0.00     0.030 A 
ENDBRANCH   1  20
TORSDOF 3
