REMARK  4 active torsions:
REMARK  status: ('A' for Active; 'I' for Inactive)
REMARK    1  A    between atoms: C_6  and  C_8 
REMARK    2  A    between atoms: C_10  and  N_11 
REMARK    3  A    between atoms: C_14  and  C_16 
REMARK    4  A    between atoms: C_19  and  O_22 
ROOT
ATOM      1  N   UNK d   1      -2.326  -0.054  -0.707  0.00  0.00    -0.338 N 
ATOM      2  C   UNK d   1      -2.269  -0.758   0.467  0.00  0.00     0.086 A 
ATOM      3  N   UNK d   1      -1.226  -0.273   1.145  0.00  0.00    -0.335 N 
ATOM      4  C   UNK d   1      -0.598   0.709   0.477  0.00  0.00     0.061 A 
ATOM      5  C   UNK d   1      -1.304   0.845  -0.705  0.00  0.00     0.123 A 
ATOM      6  C   UNK d   1      -1.083  -0.968   2.420  0.00  0.00     0.131 A 
ATOM      7  C   UNK d   1      -2.129  -2.044   2.403  0.00  0.00     0.028 A 
ATOM      8  C   UNK d   1      -2.972  -1.842   1.195  0.00  0.00     0.078 A 
ENDROOT
BRANCH   1   9
ATOM      9  C   UNK d   1      -3.308  -0.200  -1.727  0.00  0.00     0.198 C 
ATOM     10  C   UNK d   1      -3.136  -1.135  -2.814  0.00  0.00     0.113 C 
ATOM     11  O   UNK d   1      -4.139  -1.162  -3.670  0.00  0.00    -0.194 OA
BRANCH  10  12
ATOM     12  C   UNK d   1      -2.070  -2.045  -3.136  0.00  0.00    -0.000 A 
ATOM     13  C   UNK d   1      -0.912  -2.223  -2.442  0.00  0.00     0.016 A 
ATOM     14  C   UNK d   1       0.094  -3.131  -2.804  0.00  0.00     0.026 A 
ATOM     15  C   UNK d   1      -0.064  -3.907  -3.926  0.00  0.00     0.055 A 
ATOM     16  C   UNK d   1      -1.221  -3.758  -4.656  0.00  0.00     0.056 A 
ATOM     17 Cl   UNK d   1       1.187  -5.040  -4.382  0.00  0.00    -0.083 Cl
ATOM     18 Cl   UNK d   1      -1.440  -4.735  -6.083  0.00  0.00    -0.083 Cl
ATOM     19  C   UNK d   1      -2.177  -2.872  -4.282  0.00  0.00     0.039 A 
ENDBRANCH  10  12
ENDBRANCH   1   9
BRANCH   4  20
ATOM     20  C   UNK d   1       0.574   1.493   0.864  0.00  0.00    -0.008 A 
ATOM     21  C   UNK d   1       1.256   1.348   2.045  0.00  0.00     0.016 A 
ATOM     22  C   UNK d   1       2.375   2.138   2.345  0.00  0.00     0.037 A 
ATOM     23  C   UNK d   1       2.844   3.096   1.474  0.00  0.00     0.068 A 
ATOM     24  C   UNK d   1       2.165   3.250   0.285  0.00  0.00     0.037 A 
ATOM     25  C   UNK d   1       1.065   2.471  -0.008  0.00  0.00     0.016 A 
BRANCH  23  26
ATOM     26  O   UNK d   1       3.950   3.885   1.758  0.00  0.00    -0.356 OA
ATOM     27  C   UNK d   1       4.649   3.729   2.980  0.00  0.00     0.210 C 
ENDBRANCH  23  26
ENDBRANCH   4  20
TORSDOF 4
