REMARK  4 active torsions:
REMARK  status: ('A' for Active; 'I' for Inactive)
REMARK    1  A    between atoms: C_6  and  C_8 
REMARK    2  A    between atoms: N_11  and  C_13 
REMARK    3  A    between atoms: C_14  and  C_16 
REMARK    4  A    between atoms: C_18  and  N_22 
ROOT
ATOM      1  C   UNK d   1      -2.046  -0.485   0.670  0.00  0.00     0.061 A 
ATOM      2  N   UNK d   1      -2.063  -0.473  -0.688  0.00  0.00    -0.335 N 
ATOM      3  C   UNK d   1      -1.356   0.572  -1.131  0.00  0.00     0.086 A 
ATOM      4  N   UNK d   1      -0.851   1.276  -0.072  0.00  0.00    -0.338 N 
ATOM      5  C   UNK d   1      -1.281   0.619   1.018  0.00  0.00     0.123 A 
ATOM      6  C   UNK d   1      -1.360   0.627  -2.610  0.00  0.00     0.078 C 
ATOM      7  C   UNK d   1      -1.687  -0.797  -2.965  0.00  0.00     0.028 C 
ATOM      8  C   UNK d   1      -2.587  -1.225  -1.829  0.00  0.00     0.131 C 
ENDROOT
BRANCH   4   9
ATOM      9  C   UNK d   1      -0.079   2.483  -0.131  0.00  0.00     0.198 C 
ATOM     10  C   UNK d   1       1.356   2.481  -0.213  0.00  0.00     0.113 C 
ATOM     11  O   UNK d   1       1.877   3.703  -0.270  0.00  0.00    -0.194 OA
BRANCH  10  12
ATOM     12  C   UNK d   1       2.358   1.446  -0.247  0.00  0.00     0.000 A 
ATOM     13  C   UNK d   1       3.724   1.796  -0.342  0.00  0.00     0.050 A 
ATOM     14  C   UNK d   1       4.747   0.885  -0.379  0.00  0.00     0.103 A 
ATOM     15  C   UNK d   1       4.391  -0.447  -0.318  0.00  0.00     0.036 A 
ATOM     16  C   UNK d   1       3.067  -0.814  -0.225  0.00  0.00     0.003 A 
ATOM     17  C   UNK d   1       2.029   0.119  -0.188  0.00  0.00     0.014 A 
BRANCH  14  18
ATOM     18  N   UNK d   1       6.109   1.257  -0.475  0.00  0.00    -0.116 N 
ATOM     19  O   UNK d   1       6.976   0.377  -0.503  0.00  0.00    -0.532 OA
ATOM     20  O   UNK d   1       6.496   2.564  -0.538  0.00  0.00    -0.532 OA
ENDBRANCH  14  18
ENDBRANCH  10  12
ENDBRANCH   4   9
BRANCH   1  21
ATOM     21  C   UNK d   1      -2.664  -1.414   1.616  0.00  0.00    -0.006 A 
ATOM     22  C   UNK d   1      -2.430  -1.236   2.961  0.00  0.00     0.015 A 
ATOM     23  C   UNK d   1      -3.002  -2.077   3.919  0.00  0.00     0.026 A 
ATOM     24  C   UNK d   1      -3.817  -3.105   3.505  0.00  0.00     0.055 A 
ATOM     25  C   UNK d   1      -4.053  -3.287   2.174  0.00  0.00     0.056 A 
ATOM     26 Cl   UNK d   1      -4.530  -4.155   4.731  0.00  0.00    -0.083 Cl
ATOM     27 Cl   UNK d   1      -5.095  -4.605   1.683  0.00  0.00    -0.083 Cl
ATOM     28  C   UNK d   1      -3.476  -2.441   1.232  0.00  0.00     0.039 A 
ENDBRANCH   1  21
TORSDOF 4
