# created with PyMOL 2.3.2
@<TRIPOS>MOLECULE
1533
44 47 1                 
SMALL
USER_CHARGES
@<TRIPOS>ATOM
1	  Cl	-5.095	-4.605	1.683	Cl	1	UNK0	0.000	
2	   C	-4.053	-3.287	2.174	C.2	1	UNK0	0.000	
3	   C	-3.817	-3.105	3.505	C.2	1	UNK0	0.000	
4	   C	-3.002	-2.077	3.919	C.2	1	UNK0	0.000	
5	   C	-2.430	-1.236	2.961	C.2	1	UNK0	0.000	
6	   C	-2.664	-1.414	1.616	C.2	1	UNK0	0.000	
7	   C	-3.476	-2.441	1.232	C.2	1	UNK0	0.000	
8	   C	-2.046	-0.485	0.670	C.2	1	UNK0	0.000	
9	   N	-2.063	-0.473	-0.688	N.pl3	1	UNK0	0.000	
10	   C	-1.356	0.572	-1.131	C.2	1	UNK0	0.000	
11	   N	-0.851	1.276	-0.072	N.pl3	1	UNK0	0.000	
12	   C	-1.281	0.619	1.018	C.2	1	UNK0	0.000	
13	   C	-0.079	2.483	-0.131	C.3	1	UNK0	0.000	
14	   C	1.356	2.481	-0.213	C.2	1	UNK0	0.000	
15	   O	1.877	3.703	-0.270	O.2	1	UNK0	0.000	
16	   C	2.358	1.446	-0.247	C.2	1	UNK0	0.000	
17	   C	3.724	1.796	-0.342	C.2	1	UNK0	0.000	
18	   C	4.747	0.885	-0.379	C.2	1	UNK0	0.000	
19	   C	4.391	-0.447	-0.318	C.2	1	UNK0	0.000	
20	   C	3.067	-0.814	-0.225	C.2	1	UNK0	0.000	
21	   C	2.029	0.119	-0.188	C.2	1	UNK0	0.000	
22	   N	6.109	1.257	-0.475	N.pl3	1	UNK0	0.000	
23	   O	6.976	0.377	-0.503	O.2	1	UNK0	0.000	
24	   O	6.496	2.564	-0.538	O.2	1	UNK0	0.000	
25	   C	-1.360	0.627	-2.610	C.3	1	UNK0	0.000	
26	   C	-1.687	-0.797	-2.965	C.3	1	UNK0	0.000	
27	   C	-2.587	-1.225	-1.829	C.3	1	UNK0	0.000	
28	  Cl	-4.530	-4.155	4.731	Cl	1	UNK0	0.000	
29	   H	-2.829	-1.950	4.969	 H	1	UNK0	0.000	
30	   H	-1.800	-0.448	3.350	 H	1	UNK0	0.000	
31	   H	-3.731	-2.660	0.210	 H	1	UNK0	0.000	
32	   H	-1.049	0.925	2.044	 H	1	UNK0	0.000	
33	   H	-0.544	3.099	-0.975	 H	1	UNK0	0.000	
34	   H	-0.417	3.076	0.785	 H	1	UNK0	0.000	
35	   H	4.009	2.848	-0.391	 H	1	UNK0	0.000	
36	   H	5.193	-1.179	-0.347	 H	1	UNK0	0.000	
37	   H	2.795	-1.874	-0.177	 H	1	UNK0	0.000	
38	   H	1.033	-0.264	-0.113	 H	1	UNK0	0.000	
39	   H	-0.368	0.862	-3.033	 H	1	UNK0	0.000	
40	   H	-2.149	1.323	-3.005	 H	1	UNK0	0.000	
41	   H	-0.732	-1.366	-2.933	 H	1	UNK0	0.000	
42	   H	-2.200	-0.899	-3.944	 H	1	UNK0	0.000	
43	   H	-3.618	-0.906	-2.089	 H	1	UNK0	0.000	
44	   H	-2.510	-2.330	-1.678	 H	1	UNK0	0.000	
@<TRIPOS>BOND
1 1 2 1
2 2 3 2
3 2 7 1
4 3 4 1
5 3 28 1
6 4 5 2
7 5 6 1
8 6 7 2
9 6 8 1
10 8 9 1
11 8 12 2
12 9 10 2
13 9 27 1
14 10 11 1
15 10 25 1
16 11 12 1
17 11 13 1
18 13 14 1
19 14 15 2
20 14 16 1
21 16 17 2
22 16 21 1
23 17 18 1
24 18 19 2
25 18 22 1
26 19 20 1
27 20 21 2
28 22 23 2
29 22 24 1
30 25 26 1
31 26 27 1
32 4 29 1
33 5 30 1
34 7 31 1
35 12 32 1
36 13 33 1
37 13 34 1
38 17 35 1
39 19 36 1
40 20 37 1
41 21 38 1
42 25 39 1
43 25 40 1
44 26 41 1
45 26 42 1
46 27 43 1
47 27 44 1
@<TRIPOS>SUBSTRUCTURE
1	UNK0	1	GROUP	1 ****	UNK
