# created with PyMOL 2.3.2
@<TRIPOS>MOLECULE
1535
44 47 1                 
SMALL
USER_CHARGES
@<TRIPOS>ATOM
1	  Cl	-1.760	-1.015	6.248	Cl	1	UNK0	0.000	
2	   C	-2.233	-0.031	4.899	C.2	1	UNK0	0.000	
3	   C	-3.090	1.023	5.068	C.2	1	UNK0	0.000	
4	   C	-3.430	1.766	3.963	C.2	1	UNK0	0.000	
5	   C	-2.921	1.456	2.730	C.2	1	UNK0	0.000	
6	   C	-2.043	0.388	2.521	C.2	1	UNK0	0.000	
7	   C	-1.721	-0.334	3.622	C.2	1	UNK0	0.000	
8	   C	-1.547	0.092	1.176	C.2	1	UNK0	0.000	
9	   N	-0.660	-0.823	0.753	N.pl3	1	UNK0	0.000	
10	   C	-0.515	-0.725	-0.585	C.2	1	UNK0	0.000	
11	   N	-1.317	0.264	-1.018	N.pl3	1	UNK0	0.000	
12	   C	-1.979	0.802	0.045	C.2	1	UNK0	0.000	
13	   C	-1.492	0.666	-2.365	C.3	1	UNK0	0.000	
14	   C	-0.691	1.672	-3.001	C.2	1	UNK0	0.000	
15	   O	-1.040	1.853	-4.259	O.2	1	UNK0	0.000	
16	   C	0.397	2.500	-2.537	C.2	1	UNK0	0.000	
17	   C	0.914	2.483	-1.270	C.2	1	UNK0	0.000	
18	   C	1.972	3.315	-0.892	C.2	1	UNK0	0.000	
19	   C	2.519	4.174	-1.790	C.2	1	UNK0	0.000	
20	   C	2.018	4.212	-3.073	C.2	1	UNK0	0.000	
21	   C	0.983	3.402	-3.454	C.2	1	UNK0	0.000	
22	   N	2.466	3.248	0.447	N.pl3	1	UNK0	0.000	
23	   O	3.407	3.985	0.789	O.2	1	UNK0	0.000	
24	   O	1.938	2.399	1.366	O.2	1	UNK0	0.000	
25	   C	0.453	-1.738	-1.066	C.3	1	UNK0	0.000	
26	   C	1.323	-1.858	0.159	C.3	1	UNK0	0.000	
27	   C	0.224	-1.891	1.235	C.3	1	UNK0	0.000	
28	  Cl	-3.746	1.428	6.639	Cl	1	UNK0	0.000	
29	   H	-4.113	2.618	4.056	 H	1	UNK0	0.000	
30	   H	-3.205	2.057	1.888	 H	1	UNK0	0.000	
31	   H	-1.066	-1.175	3.550	 H	1	UNK0	0.000	
32	   H	-2.681	1.601	0.006	 H	1	UNK0	0.000	
33	   H	-2.586	0.980	-2.527	 H	1	UNK0	0.000	
34	   H	-1.403	-0.272	-3.022	 H	1	UNK0	0.000	
35	   H	0.517	1.822	-0.516	 H	1	UNK0	0.000	
36	   H	3.351	4.819	-1.470	 H	1	UNK0	0.000	
37	   H	2.463	4.908	-3.799	 H	1	UNK0	0.000	
38	   H	0.621	3.469	-4.481	 H	1	UNK0	0.000	
39	   H	-0.098	-2.688	-1.257	 H	1	UNK0	0.000	
40	   H	1.030	-1.404	-1.948	 H	1	UNK0	0.000	
41	   H	1.836	-0.891	0.298	 H	1	UNK0	0.000	
42	   H	1.956	-2.730	0.187	 H	1	UNK0	0.000	
43	   H	-0.300	-2.835	1.133	 H	1	UNK0	0.000	
44	   H	0.676	-1.674	2.218	 H	1	UNK0	0.000	
@<TRIPOS>BOND
1 1 2 1
2 2 3 2
3 2 7 1
4 3 4 1
5 3 28 1
6 4 5 2
7 5 6 1
8 6 7 2
9 6 8 1
10 8 9 1
11 8 12 2
12 9 10 1
13 9 27 1
14 10 11 2
15 10 25 1
16 11 12 1
17 11 13 1
18 13 14 1
19 14 15 2
20 14 16 1
21 16 17 2
22 16 21 1
23 17 18 1
24 18 19 2
25 18 22 1
26 19 20 1
27 20 21 2
28 22 23 2
29 22 24 1
30 25 26 1
31 26 27 1
32 4 29 1
33 5 30 1
34 7 31 1
35 12 32 1
36 13 33 1
37 13 34 1
38 17 35 1
39 19 36 1
40 20 37 1
41 21 38 1
42 25 39 1
43 25 40 1
44 26 41 1
45 26 42 1
46 27 43 1
47 27 44 1
@<TRIPOS>SUBSTRUCTURE
1	UNK0	1	GROUP	1 ****	UNK
