REMARK  5 active torsions:
REMARK  status: ('A' for Active; 'I' for Inactive)
REMARK    1  A    between atoms: C_6  and  C_8 
REMARK    2  A    between atoms: N_11  and  C_13 
REMARK    3  A    between atoms: C_13  and  C_14 
REMARK    4  A    between atoms: C_14  and  C_16 
REMARK    5  A    between atoms: C_18  and  N_22 
ROOT
ATOM      1  C   UNK d   1      -1.547   0.092   1.176  0.00  0.00     0.061 A 
ATOM      2  N   UNK d   1      -0.660  -0.823   0.753  0.00  0.00    -0.335 N 
ATOM      3  C   UNK d   1      -0.515  -0.725  -0.585  0.00  0.00     0.086 A 
ATOM      4  N   UNK d   1      -1.317   0.264  -1.018  0.00  0.00    -0.338 N 
ATOM      5  C   UNK d   1      -1.979   0.802   0.045  0.00  0.00     0.123 A 
ATOM      6  C   UNK d   1       0.453  -1.738  -1.066  0.00  0.00     0.078 C 
ATOM      7  C   UNK d   1       1.323  -1.858   0.159  0.00  0.00     0.028 C 
ATOM      8  C   UNK d   1       0.224  -1.891   1.235  0.00  0.00     0.131 C 
ENDROOT
BRANCH   4   9
ATOM      9  C   UNK d   1      -1.492   0.666  -2.365  0.00  0.00     0.198 C 
BRANCH   9  10
ATOM     10  C   UNK d   1      -0.691   1.672  -3.001  0.00  0.00     0.113 C 
ATOM     11  O   UNK d   1      -1.040   1.853  -4.259  0.00  0.00    -0.194 OA
BRANCH  10  12
ATOM     12  C   UNK d   1       0.397   2.500  -2.537  0.00  0.00     0.000 A 
ATOM     13  C   UNK d   1       0.914   2.483  -1.270  0.00  0.00     0.050 A 
ATOM     14  C   UNK d   1       1.972   3.315  -0.892  0.00  0.00     0.103 A 
ATOM     15  C   UNK d   1       2.519   4.174  -1.790  0.00  0.00     0.036 A 
ATOM     16  C   UNK d   1       2.018   4.212  -3.073  0.00  0.00     0.003 A 
ATOM     17  C   UNK d   1       0.983   3.402  -3.454  0.00  0.00     0.014 A 
BRANCH  14  18
ATOM     18  N   UNK d   1       2.466   3.248   0.447  0.00  0.00    -0.116 N 
ATOM     19  O   UNK d   1       3.407   3.985   0.789  0.00  0.00    -0.532 OA
ATOM     20  O   UNK d   1       1.938   2.399   1.366  0.00  0.00    -0.532 OA
ENDBRANCH  14  18
ENDBRANCH  10  12
ENDBRANCH   9  10
ENDBRANCH   4   9
BRANCH   1  21
ATOM     21  C   UNK d   1      -2.043   0.388   2.521  0.00  0.00    -0.006 A 
ATOM     22  C   UNK d   1      -2.921   1.456   2.730  0.00  0.00     0.015 A 
ATOM     23  C   UNK d   1      -3.430   1.766   3.963  0.00  0.00     0.026 A 
ATOM     24  C   UNK d   1      -3.090   1.023   5.068  0.00  0.00     0.055 A 
ATOM     25  C   UNK d   1      -2.233  -0.031   4.899  0.00  0.00     0.056 A 
ATOM     26 Cl   UNK d   1      -3.746   1.428   6.639  0.00  0.00    -0.083 Cl
ATOM     27 Cl   UNK d   1      -1.760  -1.015   6.248  0.00  0.00    -0.083 Cl
ATOM     28  C   UNK d   1      -1.721  -0.334   3.622  0.00  0.00     0.039 A 
ENDBRANCH   1  21
TORSDOF 5
