# created with PyMOL 2.3.2
@<TRIPOS>MOLECULE
1536
55 58 1                 
SMALL
USER_CHARGES
@<TRIPOS>ATOM
1	   S	-2.826	0.825	-1.452	S.O2	1	UNK0	0.000	
2	   O	-4.346	0.950	-1.599	O.2	1	UNK0	0.000	
3	   O	-2.298	1.959	-2.334	O.2	1	UNK0	0.000	
4	   N	-2.361	-0.632	-2.079	N.3	1	UNK0	0.000	
5	   C	-2.832	-1.864	-1.640	C.3	1	UNK0	0.000	
6	   C	-2.033	-2.550	-0.579	C.3	1	UNK0	0.000	
7	   C	-0.602	-2.018	-0.612	C.3	1	UNK0	0.000	
8	   C	-0.287	-1.927	-2.114	C.3	1	UNK0	0.000	
9	   C	-0.996	-0.669	-2.590	C.3	1	UNK0	0.000	
10	   C	0.327	-2.890	0.086	C.2	1	UNK0	0.000	
11	   O	-0.023	-4.063	0.380	O.2	1	UNK0	0.000	
12	   N	1.610	-2.461	0.441	N.pl3	1	UNK0	0.000	
13	   C	2.586	-3.328	1.111	C.3	1	UNK0	0.000	
14	   C	3.748	-2.439	1.501	C.3	1	UNK0	0.000	
15	   N	4.369	-1.873	0.319	N.3	1	UNK0	0.000	
16	   C	3.424	-1.079	-0.446	C.3	1	UNK0	0.000	
17	   C	2.043	-1.116	0.185	C.3	1	UNK0	0.000	
18	   C	5.533	-1.088	0.669	C.3	1	UNK0	0.000	
19	   C	-2.491	1.164	0.221	C.2	1	UNK0	0.000	
20	   C	-1.451	2.052	0.545	C.2	1	UNK0	0.000	
21	   C	-1.095	2.330	1.839	C.2	1	UNK0	0.000	
22	   C	-1.763	1.734	2.864	C.2	1	UNK0	0.000	
23	   C	-2.788	0.859	2.609	C.2	1	UNK0	0.000	
24	   C	-3.132	0.594	1.282	C.2	1	UNK0	0.000	
25	  Cl	-4.501	-0.472	1.015	Cl	1	UNK0	0.000	
26	   N	-1.372	2.034	4.215	N.pl3	1	UNK0	0.000	
27	   C	-0.306	2.938	4.449	C.2	1	UNK0	0.000	
28	   O	-0.168	3.520	5.545	O.2	1	UNK0	0.000	
29	   C	0.651	3.172	3.336	C.3	1	UNK0	0.000	
30	   O	-0.052	3.221	2.123	O.3	1	UNK0	0.000	
31	   H	-3.889	-1.854	-1.372	 H	1	UNK0	0.000	
32	   H	-2.827	-2.549	-2.575	 H	1	UNK0	0.000	
33	   H	-1.953	-3.637	-0.831	 H	1	UNK0	0.000	
34	   H	-2.436	-2.505	0.436	 H	1	UNK0	0.000	
35	   H	-0.617	-0.995	-0.203	 H	1	UNK0	0.000	
36	   H	0.774	-1.910	-2.336	 H	1	UNK0	0.000	
37	   H	-0.804	-2.818	-2.574	 H	1	UNK0	0.000	
38	   H	-0.942	-0.572	-3.687	 H	1	UNK0	0.000	
39	   H	-0.460	0.191	-2.148	 H	1	UNK0	0.000	
40	   H	2.942	-4.058	0.324	 H	1	UNK0	0.000	
41	   H	2.144	-3.831	1.972	 H	1	UNK0	0.000	
42	   H	3.340	-1.650	2.192	 H	1	UNK0	0.000	
43	   H	4.486	-3.043	2.061	 H	1	UNK0	0.000	
44	   H	3.351	-1.445	-1.478	 H	1	UNK0	0.000	
45	   H	3.759	-0.023	-0.395	 H	1	UNK0	0.000	
46	   H	2.025	-0.532	1.138	 H	1	UNK0	0.000	
47	   H	1.341	-0.619	-0.484	 H	1	UNK0	0.000	
48	   H	6.087	-0.876	-0.264	 H	1	UNK0	0.000	
49	   H	6.189	-1.673	1.330	 H	1	UNK0	0.000	
50	   H	5.256	-0.095	1.105	 H	1	UNK0	0.000	
51	   H	-0.923	2.523	-0.286	 H	1	UNK0	0.000	
52	   H	-3.314	0.389	3.410	 H	1	UNK0	0.000	
53	   H	-1.877	1.584	5.004	 H	1	UNK0	0.000	
54	   H	1.207	4.124	3.483	 H	1	UNK0	0.000	
55	   H	1.387	2.358	3.266	 H	1	UNK0	0.000	
@<TRIPOS>BOND
1 1 2 2
2 1 3 2
3 1 4 1
4 1 19 1
5 4 5 1
6 4 9 1
7 5 6 1
8 6 7 1
9 7 8 1
10 7 10 1
11 8 9 1
12 10 11 2
13 10 12 1
14 12 13 1
15 12 17 1
16 13 14 1
17 14 15 1
18 15 16 1
19 15 18 1
20 16 17 1
21 19 20 2
22 19 24 1
23 20 21 1
24 21 22 2
25 21 30 1
26 22 23 1
27 22 26 1
28 23 24 2
29 24 25 1
30 26 27 1
31 27 28 2
32 27 29 1
33 29 30 1
34 5 31 1
35 5 32 1
36 6 33 1
37 6 34 1
38 7 35 1
39 8 36 1
40 8 37 1
41 9 38 1
42 9 39 1
43 13 40 1
44 13 41 1
45 14 42 1
46 14 43 1
47 16 44 1
48 16 45 1
49 17 46 1
50 17 47 1
51 18 48 1
52 18 49 1
53 18 50 1
54 20 51 1
55 23 52 1
56 26 53 1
57 29 54 1
58 29 55 1
@<TRIPOS>SUBSTRUCTURE
1	UNK0	1	GROUP	1 ****	UNK
