REMARK  3 active torsions:
REMARK  status: ('A' for Active; 'I' for Inactive)
REMARK    1  A    between atoms: S_1  and  N_4 
REMARK    2  A    between atoms: S_1  and  C_19 
REMARK    3  A    between atoms: C_7  and  C_10 
REMARK       I    between atoms: C_10  and  N_12 
ROOT
ATOM      1  S   UNK d   1      -2.826   0.825  -1.452  0.00  0.00     0.262 S 
ATOM      2  O   UNK d   1      -4.346   0.950  -1.599  0.00  0.00    -0.200 OA
ATOM      3  O   UNK d   1      -2.298   1.959  -2.334  0.00  0.00    -0.200 OA
ENDROOT
BRANCH   1   4
ATOM      4  N   UNK d   1      -2.361  -0.632  -2.079  0.00  0.00    -0.307 N 
ATOM      5  C   UNK d   1      -2.832  -1.864  -1.640  0.00  0.00     0.136 C 
ATOM      6  C   UNK d   1      -2.033  -2.550  -0.579  0.00  0.00     0.034 C 
ATOM      7  C   UNK d   1      -0.602  -2.018  -0.612  0.00  0.00     0.081 C 
ATOM      8  C   UNK d   1      -0.287  -1.927  -2.114  0.00  0.00     0.034 C 
ATOM      9  C   UNK d   1      -0.996  -0.669  -2.590  0.00  0.00     0.136 C 
BRANCH   7  10
ATOM     10  C   UNK d   1       0.327  -2.890   0.086  0.00  0.00     0.224 C 
ATOM     11  O   UNK d   1      -0.023  -4.063   0.380  0.00  0.00    -0.273 OA
ATOM     12  N   UNK d   1       1.610  -2.461   0.441  0.00  0.00    -0.348 N 
ATOM     13  C   UNK d   1       2.586  -3.328   1.111  0.00  0.00     0.156 C 
ATOM     14  C   UNK d   1       2.043  -1.116   0.185  0.00  0.00     0.156 C 
ATOM     15  C   UNK d   1       3.748  -2.439   1.501  0.00  0.00     0.291 C 
ATOM     16  N   UNK d   1       4.369  -1.873   0.319  0.00  0.00     0.087 N 
ATOM     17  C   UNK d   1       3.424  -1.079  -0.446  0.00  0.00     0.291 C 
ATOM     18  C   UNK d   1       5.533  -1.088   0.669  0.00  0.00     0.310 C 
ENDBRANCH   7  10
ENDBRANCH   1   4
BRANCH   1  19
ATOM     19  C   UNK d   1      -2.491   1.164   0.221  0.00  0.00     0.104 A 
ATOM     20  C   UNK d   1      -1.451   2.052   0.545  0.00  0.00     0.066 A 
ATOM     21  C   UNK d   1      -1.095   2.330   1.839  0.00  0.00     0.097 A 
ATOM     22  C   UNK d   1      -1.763   1.734   2.864  0.00  0.00     0.070 A 
ATOM     23  O   UNK d   1      -0.052   3.221   2.123  0.00  0.00    -0.340 OA
ATOM     24  C   UNK d   1      -2.788   0.859   2.609  0.00  0.00     0.058 A 
ATOM     25  N   UNK d   1      -1.372   2.034   4.215  0.00  0.00    -0.323 N 
ATOM     26  C   UNK d   1      -3.132   0.594   1.282  0.00  0.00     0.059 A 
ATOM     27 Cl   UNK d   1      -4.501  -0.472   1.015  0.00  0.00    -0.083 Cl
ATOM     28  C   UNK d   1      -0.306   2.938   4.449  0.00  0.00     0.246 C 
ATOM     29  H   UNK d   1      -1.877   1.584   5.004  0.00  0.00     0.169 HD
ATOM     30  O   UNK d   1      -0.168   3.520   5.545  0.00  0.00    -0.271 OA
ATOM     31  C   UNK d   1       0.651   3.172   3.336  0.00  0.00     0.278 C 
ENDBRANCH   1  19
TORSDOF 3
