REMARK  6 active torsions:
REMARK  status: ('A' for Active; 'I' for Inactive)
REMARK    1  A    between atoms: C_5  and  C_8 
REMARK    2  A    between atoms: N_9  and  C_26 
REMARK    3  A    between atoms: C_15  and  C_17 
REMARK    4  A    between atoms: C_20  and  O_23 
REMARK    5  A    between atoms: C_26  and  C_27 
REMARK    6  A    between atoms: C_27  and  N_28 
ROOT
ATOM      1  C   UNK d   1       1.578   0.823  -0.242  0.00  0.00     0.161 C 
ATOM      2  N   UNK d   1       1.768   0.189   1.069  0.00  0.00    -0.331 N 
ATOM      3  C   UNK d   1       1.913  -1.196   0.789  0.00  0.00     0.295 C 
ATOM      4  O   UNK d   1       2.536  -2.031   1.465  0.00  0.00    -0.264 OA
ATOM      5  C   UNK d   1       1.183  -1.440  -0.451  0.00  0.00     0.250 C 
ATOM      6  O   UNK d   1       1.017  -2.509  -1.110  0.00  0.00    -0.282 OA
ATOM      7  C   UNK d   1       0.622  -0.143  -0.857  0.00  0.00     0.062 C 
ATOM      8  C   UNK d   1      -0.446   0.054  -1.605  0.00  0.00     0.130 C 
ATOM      9  O   UNK d   1      -0.802   1.368  -1.921  0.00  0.00    -0.190 OA
ENDROOT
BRANCH   1  10
ATOM     10  C   UNK d   1       2.898   0.763  -0.916  0.00  0.00    -0.030 A 
ATOM     11  C   UNK d   1       3.018   0.395  -2.239  0.00  0.00     0.011 A 
ATOM     12  C   UNK d   1       4.232   0.331  -2.889  0.00  0.00     0.024 A 
ATOM     13  C   UNK d   1       5.403   0.642  -2.222  0.00  0.00     0.034 A 
ATOM     14 Cl   UNK d   1       6.965   0.567  -3.035  0.00  0.00    -0.084 Cl
ATOM     15  C   UNK d   1       5.307   1.011  -0.903  0.00  0.00     0.024 A 
ATOM     16  C   UNK d   1       4.094   1.074  -0.257  0.00  0.00     0.011 A 
ENDBRANCH   1  10
BRANCH   8  17
ATOM     17  C   UNK d   1      -1.271  -1.033  -2.111  0.00  0.00     0.002 A 
ATOM     18  C   UNK d   1      -1.676  -1.099  -3.434  0.00  0.00     0.024 A 
ATOM     19  C   UNK d   1      -2.480  -2.117  -3.903  0.00  0.00    -0.028 A 
ATOM     20  C   UNK d   1      -2.917  -3.124  -3.054  0.00  0.00     0.074 A 
ATOM     21  C   UNK d   1      -2.888  -2.146  -5.325  0.00  0.00     0.051 C 
ATOM     22  C   UNK d   1      -2.522  -3.070  -1.737  0.00  0.00     0.038 A 
ATOM     23  C   UNK d   1      -1.707  -2.033  -1.273  0.00  0.00     0.017 A 
BRANCH  20  24
ATOM     24  O   UNK d   1      -3.728  -4.159  -3.512  0.00  0.00    -0.355 OA
ATOM     25  C   UNK d   1      -4.141  -5.149  -2.612  0.00  0.00     0.210 C 
ENDBRANCH  20  24
ENDBRANCH   8  17
BRANCH   2  26
ATOM     26  C   UNK d   1       1.803   0.852   2.373  0.00  0.00     0.155 C 
BRANCH  26  27
ATOM     27  C   UNK d   1       0.380   0.877   2.881  0.00  0.00     0.255 C 
BRANCH  27  28
ATOM     28  N   UNK d   1       0.264   1.508   4.168  0.00  0.00    -0.066 N 
ATOM     29  C   UNK d   1       0.323   0.544   5.218  0.00  0.00     0.261 C 
ATOM     30  C   UNK d   1      -0.989   0.073   5.751  0.00  0.00     0.195 C 
ATOM     31  O   UNK d   1      -1.995   1.001   5.732  0.00  0.00    -0.388 OA
ATOM     32  C   UNK d   1      -2.179   1.586   4.486  0.00  0.00     0.195 C 
ATOM     33  C   UNK d   1      -0.911   2.334   4.167  0.00  0.00     0.261 C 
ATOM     34  H   UNK d   1       1.120   2.126   4.258  0.00  0.00     0.280 HD
ENDBRANCH  27  28
ENDBRANCH  26  27
ENDBRANCH   2  26
TORSDOF 6
