# created with PyMOL 2.3.2
@<TRIPOS>MOLECULE
1539
60 63 1                 
SMALL
USER_CHARGES
@<TRIPOS>ATOM
1	  Cl	6.965	0.567	-3.035	Cl	1	UNK0	0.000	
2	   C	5.403	0.642	-2.222	C.2	1	UNK0	0.000	
3	   C	4.232	0.331	-2.889	C.2	1	UNK0	0.000	
4	   C	3.018	0.395	-2.239	C.2	1	UNK0	0.000	
5	   C	2.898	0.763	-0.916	C.2	1	UNK0	0.000	
6	   C	4.094	1.074	-0.257	C.2	1	UNK0	0.000	
7	   C	5.307	1.011	-0.903	C.2	1	UNK0	0.000	
8	   C	1.578	0.823	-0.242	C.3	1	UNK0	0.000	
9	   N	1.768	0.189	1.069	N.pl3	1	UNK0	0.000	
10	   C	1.913	-1.196	0.789	C.2	1	UNK0	0.000	
11	   O	2.536	-2.031	1.465	O.2	1	UNK0	0.000	
12	   C	1.183	-1.440	-0.451	C.2	1	UNK0	0.000	
13	   O	1.017	-2.509	-1.110	O.2	1	UNK0	0.000	
14	   C	0.622	-0.143	-0.857	C.2	1	UNK0	0.000	
15	   C	-0.446	0.054	-1.605	C.2	1	UNK0	0.000	
16	   O	-0.802	1.368	-1.921	O.2	1	UNK0	0.000	
17	   C	-1.271	-1.033	-2.111	C.2	1	UNK0	0.000	
18	   C	-1.676	-1.099	-3.434	C.2	1	UNK0	0.000	
19	   C	-2.480	-2.117	-3.903	C.2	1	UNK0	0.000	
20	   C	-2.917	-3.124	-3.054	C.2	1	UNK0	0.000	
21	   C	-2.522	-3.070	-1.737	C.2	1	UNK0	0.000	
22	   C	-1.707	-2.033	-1.273	C.2	1	UNK0	0.000	
23	   O	-3.728	-4.159	-3.512	O.3	1	UNK0	0.000	
24	   C	-4.141	-5.149	-2.612	C.3	1	UNK0	0.000	
25	   C	-2.888	-2.146	-5.325	C.3	1	UNK0	0.000	
26	   C	1.803	0.852	2.373	C.3	1	UNK0	0.000	
27	   C	0.380	0.877	2.881	C.3	1	UNK0	0.000	
28	   N	0.264	1.508	4.168	N.4	1	UNK0	0.000	
29	   C	0.323	0.544	5.218	C.3	1	UNK0	0.000	
30	   C	-0.989	0.073	5.751	C.3	1	UNK0	0.000	
31	   O	-1.995	1.001	5.732	O.3	1	UNK0	0.000	
32	   C	-2.179	1.586	4.486	C.3	1	UNK0	0.000	
33	   C	-0.911	2.334	4.167	C.3	1	UNK0	0.000	
34	   H	4.286	0.039	-3.925	 H	1	UNK0	0.000	
35	   H	2.071	0.154	-2.743	 H	1	UNK0	0.000	
36	   H	3.990	1.361	0.780	 H	1	UNK0	0.000	
37	   H	6.210	1.254	-0.375	 H	1	UNK0	0.000	
38	   H	1.175	1.836	-0.157	 H	1	UNK0	0.000	
39	   H	-1.316	-0.289	-4.085	 H	1	UNK0	0.000	
40	   H	-2.862	-3.862	-1.054	 H	1	UNK0	0.000	
41	   H	-1.446	-2.035	-0.228	 H	1	UNK0	0.000	
42	   H	-3.249	-5.720	-2.225	 H	1	UNK0	0.000	
43	   H	-4.762	-5.919	-3.120	 H	1	UNK0	0.000	
44	   H	-4.742	-4.750	-1.768	 H	1	UNK0	0.000	
45	   H	-3.907	-1.679	-5.458	 H	1	UNK0	0.000	
46	   H	-2.974	-3.178	-5.716	 H	1	UNK0	0.000	
47	   H	-2.180	-1.559	-5.956	 H	1	UNK0	0.000	
48	   H	2.149	1.896	2.291	 H	1	UNK0	0.000	
49	   H	2.485	0.310	3.024	 H	1	UNK0	0.000	
50	   H	-0.274	1.412	2.168	 H	1	UNK0	0.000	
51	   H	-0.049	-0.146	2.985	 H	1	UNK0	0.000	
52	   H	1.120	2.126	4.258	 H	1	UNK0	0.000	
53	   H	0.877	1.007	6.089	 H	1	UNK0	0.000	
54	   H	0.988	-0.308	4.907	 H	1	UNK0	0.000	
55	   H	-0.883	-0.303	6.798	 H	1	UNK0	0.000	
56	   H	-1.304	-0.827	5.146	 H	1	UNK0	0.000	
57	   H	-2.975	2.368	4.634	 H	1	UNK0	0.000	
58	   H	-2.472	0.866	3.709	 H	1	UNK0	0.000	
59	   H	-1.084	2.823	3.175	 H	1	UNK0	0.000	
60	   H	-0.842	3.177	4.896	 H	1	UNK0	0.000	
@<TRIPOS>BOND
1 1 2 1
2 2 3 2
3 2 7 1
4 3 4 1
5 4 5 2
6 5 6 1
7 5 8 1
8 6 7 2
9 8 9 1
10 8 14 1
11 9 10 1
12 9 26 1
13 10 11 2
14 10 12 1
15 12 13 2
16 12 14 1
17 14 15 2
18 15 16 1
19 15 17 1
20 17 18 2
21 17 22 1
22 18 19 1
23 19 20 2
24 19 25 1
25 20 21 1
26 20 23 1
27 21 22 2
28 23 24 1
29 26 27 1
30 27 28 1
31 28 29 1
32 28 33 1
33 29 30 1
34 30 31 1
35 31 32 1
36 32 33 1
37 3 34 1
38 4 35 1
39 6 36 1
40 7 37 1
41 8 38 1
42 18 39 1
43 21 40 1
44 22 41 1
45 24 42 1
46 24 43 1
47 24 44 1
48 25 45 1
49 25 46 1
50 25 47 1
51 26 48 1
52 26 49 1
53 27 50 1
54 27 51 1
55 28 52 1
56 29 53 1
57 29 54 1
58 30 55 1
59 30 56 1
60 32 57 1
61 32 58 1
62 33 59 1
63 33 60 1
@<TRIPOS>SUBSTRUCTURE
1	UNK0	1	GROUP	1 ****	UNK
