REMARK  1 active torsions:
REMARK  status: ('A' for Active; 'I' for Inactive)
REMARK       I    between atoms: N_10  and  C_13 
REMARK    1  A    between atoms: C_13  and  C_15 
ROOT
ATOM      1 Cl   UNK d   1       1.558   6.144   2.404  0.00  0.00    -0.083 Cl
ATOM      2  C   UNK d   1       0.796   4.857   1.481  0.00  0.00     0.050 A 
ATOM      3  C   UNK d   1       1.396   3.630   1.300  0.00  0.00     0.125 A 
ATOM      4  N   UNK d   1       0.802   2.632   0.582  0.00  0.00    -0.271 N 
ATOM      5  C   UNK d   1      -0.406   2.800   0.014  0.00  0.00     0.137 A 
ATOM      6  N   UNK d   1      -0.998   1.810  -0.700  0.00  0.00    -0.234 NA
ATOM      7  C   UNK d   1      -0.404   0.610  -0.873  0.00  0.00     0.051 A 
ATOM      8  C   UNK d   1       0.822   0.405  -0.310  0.00  0.00     0.053 A 
ATOM      9  C   UNK d   1       1.526  -0.908  -0.470  0.00  0.00     0.172 C 
ATOM     10  N   UNK d   1       0.447  -1.895  -0.649  0.00  0.00    -0.342 N 
ATOM     11  C   UNK d   1      -0.357  -1.673  -1.817  0.00  0.00     0.132 C 
ATOM     12  C   UNK d   1      -1.157  -0.390  -1.675  0.00  0.00     0.080 C 
ATOM     13  C   UNK d   1       0.326  -2.903   0.303  0.00  0.00     0.274 C 
ATOM     14  O   UNK d   1       1.156  -2.928   1.277  0.00  0.00    -0.266 OA
ATOM     15  C   UNK d   1       1.400   1.439   0.414  0.00  0.00     0.263 A 
ATOM     16  O   UNK d   1       2.520   1.261   0.932  0.00  0.00    -0.267 OA
ATOM     17  C   UNK d   1      -1.017   4.032   0.191  0.00  0.00     0.053 A 
ATOM     18  C   UNK d   1      -0.442   5.058   0.910  0.00  0.00     0.029 A 
ENDROOT
BRANCH  13  19
ATOM     19  C   UNK d   1      -0.684  -3.968   0.302  0.00  0.00     0.141 A 
ATOM     20  N   UNK d   1      -1.617  -4.069  -0.649  0.00  0.00    -0.253 NA
ATOM     21  C   UNK d   1      -2.533  -5.042  -0.642  0.00  0.00     0.136 A 
ATOM     22  C   UNK d   1      -2.568  -6.000   0.350  0.00  0.00     0.135 A 
ATOM     23  N   UNK d   1      -1.622  -5.883   1.298  0.00  0.00    -0.269 NA
ATOM     24  C   UNK d   1      -0.698  -4.922   1.314  0.00  0.00     0.153 A 
ENDBRANCH  13  19
TORSDOF 1
