# created with PyMOL 2.3.2
@<TRIPOS>MOLECULE
1548
36 39 1                 
SMALL
USER_CHARGES
@<TRIPOS>ATOM
1	  Cl	1.558	6.144	2.404	Cl	1	UNK0	0.000	
2	   C	0.796	4.857	1.481	C.2	1	UNK0	0.000	
3	   C	1.396	3.630	1.300	C.2	1	UNK0	0.000	
4	   N	0.802	2.632	0.582	N.pl3	1	UNK0	0.000	
5	   C	-0.406	2.800	0.014	C.2	1	UNK0	0.000	
6	   N	-0.998	1.810	-0.700	N.2	1	UNK0	0.000	
7	   C	-0.404	0.610	-0.873	C.2	1	UNK0	0.000	
8	   C	0.822	0.405	-0.310	C.2	1	UNK0	0.000	
9	   C	1.526	-0.908	-0.470	C.3	1	UNK0	0.000	
10	   N	0.447	-1.895	-0.649	N.pl3	1	UNK0	0.000	
11	   C	-0.357	-1.673	-1.817	C.3	1	UNK0	0.000	
12	   C	-1.157	-0.390	-1.675	C.3	1	UNK0	0.000	
13	   C	0.326	-2.903	0.303	C.2	1	UNK0	0.000	
14	   O	1.156	-2.928	1.277	O.2	1	UNK0	0.000	
15	   C	-0.684	-3.968	0.302	C.2	1	UNK0	0.000	
16	   N	-1.617	-4.069	-0.649	N.2	1	UNK0	0.000	
17	   C	-2.533	-5.042	-0.642	C.2	1	UNK0	0.000	
18	   C	-2.568	-6.000	0.350	C.2	1	UNK0	0.000	
19	   N	-1.622	-5.883	1.298	N.2	1	UNK0	0.000	
20	   C	-0.698	-4.922	1.314	C.2	1	UNK0	0.000	
21	   C	1.400	1.439	0.414	C.2	1	UNK0	0.000	
22	   O	2.520	1.261	0.932	O.2	1	UNK0	0.000	
23	   C	-1.017	4.032	0.191	C.2	1	UNK0	0.000	
24	   C	-0.442	5.058	0.910	C.2	1	UNK0	0.000	
25	   H	2.362	3.427	1.727	 H	1	UNK0	0.000	
26	   H	2.152	-1.141	0.401	 H	1	UNK0	0.000	
27	   H	2.125	-0.811	-1.410	 H	1	UNK0	0.000	
28	   H	-0.940	-2.506	-2.181	 H	1	UNK0	0.000	
29	   H	0.378	-1.443	-2.653	 H	1	UNK0	0.000	
30	   H	-2.127	-0.637	-1.226	 H	1	UNK0	0.000	
31	   H	-1.354	0.015	-2.692	 H	1	UNK0	0.000	
32	   H	-3.288	-5.114	-1.421	 H	1	UNK0	0.000	
33	   H	-3.311	-6.793	0.359	 H	1	UNK0	0.000	
34	   H	0.028	-4.874	2.087	 H	1	UNK0	0.000	
35	   H	-1.988	4.184	-0.260	 H	1	UNK0	0.000	
36	   H	-0.922	6.023	1.048	 H	1	UNK0	0.000	
@<TRIPOS>BOND
1 1 2 1
2 2 3 2
3 2 24 1
4 3 4 1
5 4 5 1
6 4 21 1
7 5 6 2
8 5 23 1
9 6 7 1
10 7 8 2
11 7 12 1
12 8 9 1
13 8 21 1
14 9 10 1
15 10 11 1
16 10 13 1
17 11 12 1
18 13 14 2
19 13 15 1
20 15 16 2
21 15 20 1
22 16 17 1
23 17 18 2
24 18 19 1
25 19 20 2
26 21 22 2
27 23 24 2
28 3 25 1
29 9 26 1
30 9 27 1
31 11 28 1
32 11 29 1
33 12 30 1
34 12 31 1
35 17 32 1
36 18 33 1
37 20 34 1
38 23 35 1
39 24 36 1
@<TRIPOS>SUBSTRUCTURE
1	UNK0	1	GROUP	1 ****	UNK
