REMARK  3 active torsions:
REMARK  status: ('A' for Active; 'I' for Inactive)
REMARK    1  A    between atoms: C_3  and  O_25 
REMARK    2  A    between atoms: C_4  and  C_9 
REMARK    3  A    between atoms: C_11  and  C_22 
ROOT
ATOM      1  C   UNK d   1      -1.240   0.863   0.837  0.00  0.00     0.272 C 
ATOM      2  N   UNK d   1      -2.380   1.410   0.204  0.00  0.00    -0.047 N 
ATOM      3  C   UNK d   1      -3.389   0.487  -0.227  0.00  0.00     0.291 C 
ATOM      4  C   UNK d   1      -2.740  -0.579  -1.126  0.00  0.00     0.086 C 
ATOM      5  C   UNK d   1      -1.817  -1.289  -0.220  0.00  0.00    -0.018 A 
ATOM      6  C   UNK d   1      -1.497  -2.632  -0.102  0.00  0.00    -0.001 A 
ATOM      7  C   UNK d   1      -0.581  -2.726   0.922  0.00  0.00     0.043 A 
ATOM      8  N   UNK d   1      -0.339  -1.504   1.421  0.00  0.00    -0.356 N 
ATOM      9  C   UNK d   1      -1.104  -0.607   0.716  0.00  0.00     0.052 A 
ATOM     10  C   UNK d   1      -0.099  -3.982   1.243  0.00  0.00     0.030 A 
ATOM     11  C   UNK d   1      -0.549  -5.068   0.534  0.00  0.00     0.002 A 
ATOM     12  C   UNK d   1      -1.465  -4.971  -0.489  0.00  0.00     0.001 A 
ATOM     13  C   UNK d   1      -1.959  -3.712  -0.823  0.00  0.00     0.014 A 
ATOM     14  H   UNK d   1      -2.847   2.074   0.901  0.00  0.00     0.279 HD
ATOM     15  H   UNK d   1      -2.164   2.020  -0.624  0.00  0.00     0.279 HD
ATOM     16  H   UNK d   1       0.306  -1.223   2.204  0.00  0.00     0.166 HD
ENDROOT
BRANCH   1  17
ATOM     17  C   UNK d   1       0.001   1.462   0.223  0.00  0.00     0.014 A 
ATOM     18  C   UNK d   1       0.637   2.556   0.782  0.00  0.00     0.091 A 
ATOM     19  C   UNK d   1       1.791   3.087   0.197  0.00  0.00     0.046 A 
ATOM     20 Br   UNK d   1       2.655   4.603   0.981  0.00  0.00    -0.048 Br
ATOM     21  C   UNK d   1       2.320   2.542  -0.941  0.00  0.00     0.041 A 
ATOM     22  C   UNK d   1       1.690   1.454  -1.499  0.00  0.00     0.013 A 
ATOM     23  C   UNK d   1       0.544   0.920  -0.924  0.00  0.00     0.031 A 
ATOM     24 Br   UNK d   1       2.402   0.659  -3.102  0.00  0.00    -0.051 Br
BRANCH  18  25
ATOM     25  O   UNK d   1       0.193   3.180   1.918  0.00  0.00    -0.359 OA
ATOM     26  H   UNK d   1      -0.599   2.943   2.450  0.00  0.00     0.217 HD
ENDBRANCH  18  25
ENDBRANCH   1  17
BRANCH   3  27
ATOM     27  C   UNK d   1      -4.452   1.210  -0.954  0.00  0.00     0.205 C 
ATOM     28  O   UNK d   1      -5.554   0.636  -1.152  0.00  0.00    -0.646 OA
ATOM     29  O   UNK d   1      -4.217   2.499  -1.403  0.00  0.00    -0.646 OA
ENDBRANCH   3  27
TORSDOF 3
