REMARK  5 active torsions:
REMARK  status: ('A' for Active; 'I' for Inactive)
REMARK    1  A    between atoms: C_7  and  C_11 
REMARK    2  A    between atoms: C_11  and  O_12 
REMARK    3  A    between atoms: O_12  and  C_13 
REMARK    4  A    between atoms: C_13  and  C_15 
REMARK    5  A    between atoms: C_15  and  N_16 
ROOT
ATOM      1  O   UNK d   1      -3.065  -1.122  -2.465  0.00  0.00    -0.314 OA
ENDROOT
BRANCH   1   2
ATOM      2  C   UNK d   1      -2.072  -1.815  -3.168  0.00  0.00     0.238 C 
BRANCH   2   3
ATOM      3  C   UNK d   1      -0.889  -0.975  -3.471  0.00  0.00     0.066 A 
ATOM      4  N   UNK d   1       0.183  -0.892  -2.659  0.00  0.00    -0.233 NA
ATOM      5  C   UNK d   1       1.236  -0.127  -2.956  0.00  0.00     0.137 A 
ATOM      6  N   UNK d   1       1.315   0.621  -4.086  0.00  0.00    -0.272 N 
ATOM      7  C   UNK d   1       2.306  -0.095  -2.064  0.00  0.00     0.052 A 
ATOM      8  C   UNK d   1       2.396   1.372  -4.339  0.00  0.00     0.121 A 
ATOM      9  C   UNK d   1       0.250   0.559  -4.926  0.00  0.00     0.255 A 
ATOM     10  C   UNK d   1       3.470   1.430  -3.483  0.00  0.00     0.027 A 
ATOM     11 Br   UNK d   1       5.004   2.524  -3.888  0.00  0.00    -0.050 Br
ATOM     12  C   UNK d   1       3.412   0.682  -2.335  0.00  0.00     0.024 A 
ATOM     13  C   UNK d   1      -0.845  -0.228  -4.630  0.00  0.00     0.104 A 
ATOM     14  O   UNK d   1       0.331   1.257  -5.975  0.00  0.00    -0.268 OA
ENDBRANCH   2   3
ENDBRANCH   1   2
BRANCH   1  15
ATOM     15  C   UNK d   1      -2.909  -0.534  -1.231  0.00  0.00     0.277 C 
ATOM     16  O   UNK d   1      -1.763  -0.642  -0.709  0.00  0.00    -0.263 OA
BRANCH  15  17
ATOM     17  C   UNK d   1      -4.009   0.189  -0.538  0.00  0.00     0.245 C 
BRANCH  17  18
ATOM     18  N   UNK d   1      -3.570   0.724   0.752  0.00  0.00    -0.278 N 
ATOM     19  C   UNK d   1      -3.624   0.076   2.020  0.00  0.00     0.232 C 
ATOM     20  O   UNK d   1      -3.892  -1.134   2.226  0.00  0.00    -0.273 OA
ATOM     21  C   UNK d   1      -3.306   1.084   3.058  0.00  0.00     0.091 C 
ATOM     22  C   UNK d   1      -2.359   1.977   2.291  0.00  0.00     0.091 C 
ATOM     23  C   UNK d   1      -2.765   0.532   4.313  0.00  0.00     0.015 C 
ATOM     24  C   UNK d   1      -0.976   1.375   2.136  0.00  0.00     0.015 C 
ATOM     25  C   UNK d   1      -3.014   2.010   0.963  0.00  0.00     0.232 C 
ATOM     26  C   UNK d   1      -0.791   0.109   2.930  0.00  0.00     0.001 C 
ATOM     27  C   UNK d   1      -1.301   0.270   4.334  0.00  0.00     0.001 C 
ATOM     28  O   UNK d   1      -3.079   2.987   0.153  0.00  0.00    -0.273 OA
ENDBRANCH  17  18
ENDBRANCH  15  17
ENDBRANCH   1  15
TORSDOF 5
