# created with PyMOL 2.3.2
@<TRIPOS>MOLECULE
1576
56 59 1                 
SMALL
USER_CHARGES
@<TRIPOS>ATOM
1	  Cl	-0.552	-0.183	-1.923	Cl	1	UNK0	0.000	
2	   C	-1.814	0.978	-1.719	C.2	1	UNK0	0.000	
3	   C	-2.912	0.639	-0.958	C.2	1	UNK0	0.000	
4	   C	-3.892	1.621	-0.832	C.2	1	UNK0	0.000	
5	   C	-3.761	2.855	-1.438	C.2	1	UNK0	0.000	
6	   C	-2.651	3.147	-2.186	C.2	1	UNK0	0.000	
7	   C	-1.676	2.210	-2.328	C.2	1	UNK0	0.000	
8	   N	-3.091	-0.594	-0.328	N.pl3	1	UNK0	0.000	
9	   C	-3.167	-1.880	-0.987	C.3	1	UNK0	0.000	
10	   C	-2.903	-2.970	0.049	C.3	1	UNK0	0.000	
11	   N	-1.827	-2.547	0.931	N.pl3	1	UNK0	0.000	
12	   C	-1.979	-1.308	1.657	C.3	1	UNK0	0.000	
13	   C	-3.214	-0.611	1.138	C.3	1	UNK0	0.000	
14	   C	-0.644	-3.321	1.091	C.2	1	UNK0	0.000	
15	   O	-0.546	-4.408	0.441	O.2	1	UNK0	0.000	
16	   C	0.474	-2.943	1.963	C.3	1	UNK0	0.000	
17	   N	1.515	-2.180	1.277	N.pl3	1	UNK0	0.000	
18	   N	1.635	-0.876	1.128	N.2	1	UNK0	0.000	
19	   C	2.724	-0.530	0.438	C.2	1	UNK0	0.000	
20	   C	3.366	-1.711	0.112	C.2	1	UNK0	0.000	
21	   C	2.594	-2.719	0.645	C.2	1	UNK0	0.000	
22	   C	2.900	-4.161	0.540	C.3	1	UNK0	0.000	
23	   C	3.157	0.837	0.095	C.2	1	UNK0	0.000	
24	   O	4.203	1.017	-0.560	O.2	1	UNK0	0.000	
25	   N	2.368	1.929	0.518	N.pl3	1	UNK0	0.000	
26	   C	1.154	1.797	1.273	C.3	1	UNK0	0.000	
27	   C	0.717	3.221	1.639	C.3	1	UNK0	0.000	
28	   O	1.737	3.911	2.256	O.3	1	UNK0	0.000	
29	   C	2.855	4.080	1.474	C.3	1	UNK0	0.000	
30	   C	2.787	3.293	0.182	C.3	1	UNK0	0.000	
31	   H	-4.779	1.443	-0.259	 H	1	UNK0	0.000	
32	   H	-4.531	3.608	-1.332	 H	1	UNK0	0.000	
33	   H	-2.557	4.134	-2.665	 H	1	UNK0	0.000	
34	   H	-0.781	2.429	-2.923	 H	1	UNK0	0.000	
35	   H	-4.158	-2.089	-1.416	 H	1	UNK0	0.000	
36	   H	-2.345	-1.976	-1.726	 H	1	UNK0	0.000	
37	   H	-2.536	-3.853	-0.512	 H	1	UNK0	0.000	
38	   H	-3.821	-3.220	0.616	 H	1	UNK0	0.000	
39	   H	-2.013	-1.459	2.753	 H	1	UNK0	0.000	
40	   H	-1.127	-0.627	1.381	 H	1	UNK0	0.000	
41	   H	-4.103	-1.246	1.381	 H	1	UNK0	0.000	
42	   H	-3.320	0.416	1.543	 H	1	UNK0	0.000	
43	   H	0.936	-3.820	2.459	 H	1	UNK0	0.000	
44	   H	0.080	-2.279	2.757	 H	1	UNK0	0.000	
45	   H	4.283	-1.805	-0.446	 H	1	UNK0	0.000	
46	   H	3.916	-4.359	0.933	 H	1	UNK0	0.000	
47	   H	2.176	-4.753	1.131	 H	1	UNK0	0.000	
48	   H	2.801	-4.499	-0.522	 H	1	UNK0	0.000	
49	   H	1.321	1.220	2.206	 H	1	UNK0	0.000	
50	   H	0.324	1.336	0.727	 H	1	UNK0	0.000	
51	   H	0.283	3.730	0.764	 H	1	UNK0	0.000	
52	   H	-0.095	3.091	2.387	 H	1	UNK0	0.000	
53	   H	2.975	5.161	1.198	 H	1	UNK0	0.000	
54	   H	3.767	3.753	2.008	 H	1	UNK0	0.000	
55	   H	3.786	3.270	-0.292	 H	1	UNK0	0.000	
56	   H	2.035	3.770	-0.470	 H	1	UNK0	0.000	
@<TRIPOS>BOND
1 1 2 1
2 2 3 2
3 2 7 1
4 3 4 1
5 3 8 1
6 4 5 2
7 5 6 1
8 6 7 2
9 8 9 1
10 8 13 1
11 9 10 1
12 10 11 1
13 11 12 1
14 11 14 1
15 12 13 1
16 14 15 2
17 14 16 1
18 16 17 1
19 17 18 1
20 17 21 1
21 18 19 2
22 19 20 1
23 19 23 1
24 20 21 2
25 21 22 1
26 23 24 2
27 23 25 1
28 25 26 1
29 25 30 1
30 26 27 1
31 27 28 1
32 28 29 1
33 29 30 1
34 4 31 1
35 5 32 1
36 6 33 1
37 7 34 1
38 9 35 1
39 9 36 1
40 10 37 1
41 10 38 1
42 12 39 1
43 12 40 1
44 13 41 1
45 13 42 1
46 16 43 1
47 16 44 1
48 20 45 1
49 22 46 1
50 22 47 1
51 22 48 1
52 26 49 1
53 26 50 1
54 27 51 1
55 27 52 1
56 29 53 1
57 29 54 1
58 30 55 1
59 30 56 1
@<TRIPOS>SUBSTRUCTURE
1	UNK0	1	GROUP	1 ****	UNK
