REMARK  4 active torsions:
REMARK  status: ('A' for Active; 'I' for Inactive)
REMARK    1  A    between atoms: C_3  and  N_8 
REMARK       I    between atoms: N_11  and  C_14 
REMARK    2  A    between atoms: C_14  and  C_16 
REMARK    3  A    between atoms: C_16  and  N_17 
REMARK    4  A    between atoms: C_19  and  C_23 
REMARK       I    between atoms: C_23  and  N_25 
ROOT
ATOM      1  N   UNK d   1      -3.091  -0.594  -0.328  0.00  0.00    -0.376 N 
ATOM      2  C   UNK d   1      -3.167  -1.880  -0.987  0.00  0.00     0.143 C 
ATOM      3  C   UNK d   1      -2.903  -2.970   0.049  0.00  0.00     0.145 C 
ATOM      4  N   UNK d   1      -1.827  -2.547   0.931  0.00  0.00    -0.348 N 
ATOM      5  C   UNK d   1      -1.979  -1.308   1.657  0.00  0.00     0.145 C 
ATOM      6  C   UNK d   1      -3.214  -0.611   1.138  0.00  0.00     0.143 C 
ATOM      7  C   UNK d   1      -0.644  -3.321   1.091  0.00  0.00     0.239 C 
ATOM      8  O   UNK d   1      -0.546  -4.408   0.441  0.00  0.00    -0.271 OA
ENDROOT
BRANCH   7   9
ATOM      9  C   UNK d   1       0.474  -2.943   1.963  0.00  0.00     0.254 C 
BRANCH   9  10
ATOM     10  N   UNK d   1       1.515  -2.180   1.277  0.00  0.00    -0.265 N 
ATOM     11  N   UNK d   1       1.635  -0.876   1.128  0.00  0.00    -0.167 NA
ATOM     12  C   UNK d   1       2.724  -0.530   0.438  0.00  0.00     0.146 A 
ATOM     13  C   UNK d   1       3.366  -1.711   0.112  0.00  0.00     0.065 A 
ATOM     14  C   UNK d   1       2.594  -2.719   0.645  0.00  0.00     0.029 A 
ATOM     15  C   UNK d   1       2.900  -4.161   0.540  0.00  0.00     0.070 C 
BRANCH  12  16
ATOM     16  C   UNK d   1       3.157   0.837   0.095  0.00  0.00     0.274 C 
ATOM     17  O   UNK d   1       4.203   1.017  -0.560  0.00  0.00    -0.266 OA
ATOM     18  N   UNK d   1       2.368   1.929   0.518  0.00  0.00    -0.343 N 
ATOM     19  C   UNK d   1       1.154   1.797   1.273  0.00  0.00     0.152 C 
ATOM     20  C   UNK d   1       2.787   3.293   0.182  0.00  0.00     0.152 C 
ATOM     21  C   UNK d   1       0.717   3.221   1.639  0.00  0.00     0.187 C 
ATOM     22  O   UNK d   1       1.737   3.911   2.256  0.00  0.00    -0.388 OA
ATOM     23  C   UNK d   1       2.855   4.080   1.474  0.00  0.00     0.187 C 
ENDBRANCH  12  16
ENDBRANCH   9  10
ENDBRANCH   7   9
BRANCH   1  24
ATOM     24  C   UNK d   1      -2.912   0.639  -0.958  0.00  0.00     0.052 A 
ATOM     25  C   UNK d   1      -1.814   0.978  -1.719  0.00  0.00     0.060 A 
ATOM     26 Cl   UNK d   1      -0.552  -0.183  -1.923  0.00  0.00    -0.082 Cl
ATOM     27  C   UNK d   1      -1.676   2.210  -2.328  0.00  0.00     0.026 A 
ATOM     28  C   UNK d   1      -2.651   3.147  -2.186  0.00  0.00     0.002 A 
ATOM     29  C   UNK d   1      -3.761   2.855  -1.438  0.00  0.00     0.002 A 
ATOM     30  C   UNK d   1      -3.892   1.621  -0.832  0.00  0.00     0.031 A 
ENDBRANCH   1  24
TORSDOF 4
