REMARK  5 active torsions:
REMARK  status: ('A' for Active; 'I' for Inactive)
REMARK    1  A    between atoms: C_7  and  C_11 
REMARK    2  A    between atoms: C_11  and  N_12 
REMARK    3  A    between atoms: C_17  and  C_21 
REMARK    4  A    between atoms: C_21  and  O_22 
REMARK    5  A    between atoms: C_21  and  C_23 
ROOT
ATOM      1  N   UNK d   1      -1.970  -1.406   0.059  0.00  0.00    -0.400 N 
ATOM      2  C   UNK d   1      -2.782  -0.278  -0.134  0.00  0.00     0.139 C 
ATOM      3  C   UNK d   1      -2.189   0.820  -0.953  0.00  0.00     0.170 C 
ATOM      4  N   UNK d   1      -1.216   0.323  -1.915  0.00  0.00    -0.270 N 
ATOM      5  N   UNK d   1      -0.568   1.050  -2.824  0.00  0.00    -0.174 NA
ATOM      6  C   UNK d   1       0.242   0.254  -3.528  0.00  0.00     0.085 A 
ATOM      7  C   UNK d   1       0.087  -1.016  -3.032  0.00  0.00     0.060 A 
ATOM      8  C   UNK d   1      -0.851  -0.966  -1.996  0.00  0.00     0.050 A 
ATOM      9  C   UNK d   1      -1.415  -2.007  -1.101  0.00  0.00     0.176 C 
ENDROOT
BRANCH   1  10
ATOM     10  C   UNK d   1      -1.239  -1.512   1.252  0.00  0.00     0.177 C 
BRANCH  10  11
ATOM     11  C   UNK d   1      -0.269  -0.442   1.523  0.00  0.00     0.059 A 
ATOM     12  N   UNK d   1       1.010  -0.456   1.106  0.00  0.00    -0.233 NA
ATOM     13  C   UNK d   1       1.871   0.543   1.375  0.00  0.00     0.137 A 
ATOM     14  N   UNK d   1       1.519   1.630   2.080  0.00  0.00    -0.272 N 
ATOM     15  C   UNK d   1       3.173   0.406   0.883  0.00  0.00     0.053 A 
ATOM     16  C   UNK d   1       2.393   2.633   2.346  0.00  0.00     0.125 A 
ATOM     17  C   UNK d   1       0.248   1.699   2.525  0.00  0.00     0.255 A 
ATOM     18  C   UNK d   1       3.676   2.503   1.865  0.00  0.00     0.050 A 
ATOM     19 Cl   UNK d   1       4.812   3.800   2.207  0.00  0.00    -0.083 Cl
ATOM     20  C   UNK d   1       4.081   1.404   1.136  0.00  0.00     0.029 A 
ATOM     21  C   UNK d   1      -0.633   0.678   2.250  0.00  0.00     0.103 A 
ATOM     22  O   UNK d   1      -0.130   2.709   3.196  0.00  0.00    -0.268 OA
ENDBRANCH  10  11
ENDBRANCH   1  10
BRANCH   6  23
ATOM     23  C   UNK d   1       1.144   0.678  -4.644  0.00  0.00     0.171 C 
BRANCH  23  24
ATOM     24  O   UNK d   1       1.803   1.850  -4.238  0.00  0.00    -0.389 OA
ATOM     25  H   UNK d   1       1.622   2.039  -3.272  0.00  0.00     0.210 HD
ENDBRANCH  23  24
BRANCH  23  26
ATOM     26  C   UNK d   1       2.241  -0.363  -4.852  0.00  0.00     0.034 C 
ATOM     27  C   UNK d   1       3.039  -0.481  -3.562  0.00  0.00     0.008 C 
ENDBRANCH  23  26
ENDBRANCH   6  23
TORSDOF 5
