# created with PyMOL 2.3.2
@<TRIPOS>MOLECULE
1581
46 49 1                 
SMALL
USER_CHARGES
@<TRIPOS>ATOM
1	  Cl	4.812	3.800	2.207	Cl	1	UNK0	0.000	
2	   C	3.676	2.503	1.865	C.2	1	UNK0	0.000	
3	   C	2.393	2.633	2.346	C.2	1	UNK0	0.000	
4	   N	1.519	1.630	2.080	N.pl3	1	UNK0	0.000	
5	   C	1.871	0.543	1.375	C.2	1	UNK0	0.000	
6	   N	1.010	-0.456	1.106	N.2	1	UNK0	0.000	
7	   C	-0.269	-0.442	1.523	C.2	1	UNK0	0.000	
8	   C	-0.633	0.678	2.250	C.2	1	UNK0	0.000	
9	   C	0.248	1.699	2.525	C.2	1	UNK0	0.000	
10	   O	-0.130	2.709	3.196	O.2	1	UNK0	0.000	
11	   C	-1.239	-1.512	1.252	C.3	1	UNK0	0.000	
12	   N	-1.970	-1.406	0.059	N.3	1	UNK0	0.000	
13	   C	-2.782	-0.278	-0.134	C.3	1	UNK0	0.000	
14	   C	-2.189	0.820	-0.953	C.3	1	UNK0	0.000	
15	   N	-1.216	0.323	-1.915	N.pl3	1	UNK0	0.000	
16	   N	-0.568	1.050	-2.824	N.2	1	UNK0	0.000	
17	   C	0.242	0.254	-3.528	C.2	1	UNK0	0.000	
18	   C	0.087	-1.016	-3.032	C.2	1	UNK0	0.000	
19	   C	-0.851	-0.966	-1.996	C.2	1	UNK0	0.000	
20	   C	-1.415	-2.007	-1.101	C.3	1	UNK0	0.000	
21	   C	1.144	0.678	-4.644	C.3	1	UNK0	0.000	
22	   O	1.803	1.850	-4.238	O.3	1	UNK0	0.000	
23	   C	2.241	-0.363	-4.852	C.3	1	UNK0	0.000	
24	   C	3.039	-0.481	-3.562	C.3	1	UNK0	0.000	
25	   C	3.173	0.406	0.883	C.2	1	UNK0	0.000	
26	   C	4.081	1.404	1.136	C.2	1	UNK0	0.000	
27	   H	2.093	3.486	2.907	 H	1	UNK0	0.000	
28	   H	-1.664	0.743	2.616	 H	1	UNK0	0.000	
29	   H	-0.694	-2.490	1.252	 H	1	UNK0	0.000	
30	   H	-1.965	-1.605	2.112	 H	1	UNK0	0.000	
31	   H	-3.719	-0.609	-0.674	 H	1	UNK0	0.000	
32	   H	-3.148	0.079	0.853	 H	1	UNK0	0.000	
33	   H	-1.736	1.569	-0.279	 H	1	UNK0	0.000	
34	   H	-2.978	1.385	-1.529	 H	1	UNK0	0.000	
35	   H	0.582	-1.916	-3.357	 H	1	UNK0	0.000	
36	   H	-2.245	-2.560	-1.632	 H	1	UNK0	0.000	
37	   H	-0.649	-2.745	-0.789	 H	1	UNK0	0.000	
38	   H	0.605	0.849	-5.583	 H	1	UNK0	0.000	
39	   H	1.622	2.039	-3.272	 H	1	UNK0	0.000	
40	   H	2.907	0.022	-5.626	 H	1	UNK0	0.000	
41	   H	1.846	-1.334	-5.155	 H	1	UNK0	0.000	
42	   H	2.570	0.124	-2.768	 H	1	UNK0	0.000	
43	   H	3.163	-1.545	-3.252	 H	1	UNK0	0.000	
44	   H	4.086	-0.089	-3.697	 H	1	UNK0	0.000	
45	   H	3.427	-0.484	0.317	 H	1	UNK0	0.000	
46	   H	5.089	1.301	0.758	 H	1	UNK0	0.000	
@<TRIPOS>BOND
1 1 2 1
2 2 3 2
3 2 26 1
4 3 4 1
5 4 5 1
6 4 9 1
7 5 6 2
8 5 25 1
9 6 7 1
10 7 8 2
11 7 11 1
12 8 9 1
13 9 10 2
14 11 12 1
15 12 13 1
16 12 20 1
17 13 14 1
18 14 15 1
19 15 16 1
20 15 19 1
21 16 17 2
22 17 18 1
23 17 21 1
24 18 19 2
25 19 20 1
26 21 22 1
27 21 23 1
28 23 24 1
29 25 26 2
30 3 27 1
31 8 28 1
32 11 29 1
33 11 30 1
34 13 31 1
35 13 32 1
36 14 33 1
37 14 34 1
38 18 35 1
39 20 36 1
40 20 37 1
41 21 38 1
42 22 39 1
43 23 40 1
44 23 41 1
45 24 42 1
46 24 43 1
47 24 44 1
48 25 45 1
49 26 46 1
@<TRIPOS>SUBSTRUCTURE
1	UNK0	1	GROUP	1 ****	UNK
