REMARK  3 active torsions:
REMARK  status: ('A' for Active; 'I' for Inactive)
REMARK    1  A    between atoms: C_5  and  C_8 
REMARK       I    between atoms: C_8  and  N_10 
REMARK    2  A    between atoms: C_18  and  C_22 
REMARK    3  A    between atoms: C_22  and  C_23 
ROOT
ATOM      1  C   UNK d   1      -2.038  -2.924   1.634  0.00  0.00     0.187 C 
ATOM      2  O   UNK d   1      -3.238  -3.400   1.342  0.00  0.00    -0.171 OA
ATOM      3  N   UNK d   1      -1.281  -2.473   0.540  0.00  0.00    -0.355 N 
ATOM      4  C   UNK d   1       0.037  -1.953   0.626  0.00  0.00     0.160 C 
ATOM      5  C   UNK d   1       0.599  -1.785  -0.796  0.00  0.00     0.197 C 
ATOM      6  N   UNK d   1      -0.313  -0.896  -1.468  0.00  0.00    -0.334 N 
ATOM      7  C   UNK d   1      -1.666  -1.321  -1.602  0.00  0.00     0.147 C 
ATOM      8  C   UNK d   1      -1.941  -2.552  -0.763  0.00  0.00     0.145 C 
ATOM      9  C   UNK d   1       0.122   0.343  -1.969  0.00  0.00     0.243 C 
ATOM     10  O   UNK d   1      -0.549   0.903  -2.854  0.00  0.00    -0.271 OA
ATOM     11  C   UNK d   1       1.361   0.937  -1.426  0.00  0.00     0.182 C 
ATOM     12  N   UNK d   1       2.346  -0.104  -1.405  0.00  0.00    -0.346 N 
ATOM     13  C   UNK d   1       1.990  -1.336  -0.803  0.00  0.00     0.243 C 
ATOM     14  O   UNK d   1       2.859  -2.085  -0.256  0.00  0.00    -0.271 OA
ATOM     15  H   UNK d   1       3.306   0.017  -1.813  0.00  0.00     0.163 HD
ENDROOT
BRANCH   1  16
ATOM     16  C   UNK d   1      -1.757  -2.972   3.042  0.00  0.00     0.018 A 
ATOM     17  C   UNK d   1      -0.667  -2.453   3.696  0.00  0.00     0.017 A 
ATOM     18  C   UNK d   1      -0.447  -2.571   5.069  0.00  0.00     0.025 A 
ATOM     19  C   UNK d   1      -1.349  -3.233   5.837  0.00  0.00     0.034 A 
ATOM     20 Cl   UNK d   1      -1.107  -3.405   7.582  0.00  0.00    -0.084 Cl
ATOM     21  C   UNK d   1      -2.461  -3.774   5.246  0.00  0.00     0.025 A 
ATOM     22  C   UNK d   1      -2.657  -3.645   3.887  0.00  0.00     0.017 A 
ENDBRANCH   1  16
BRANCH  11  23
ATOM     23  C   UNK d   1       1.779   2.187  -2.101  0.00  0.00     0.095 C 
BRANCH  23  24
ATOM     24  C   UNK d   1       0.736   3.215  -1.953  0.00  0.00     0.053 A 
ATOM     25  N   UNK d   1      -0.287   3.489  -2.766  0.00  0.00    -0.247 NA
ATOM     26  C   UNK d   1      -1.011   4.523  -2.245  0.00  0.00     0.207 A 
ATOM     27  N   UNK d   1      -0.444   4.906  -1.099  0.00  0.00    -0.359 N 
ATOM     28  C   UNK d   1       0.622   4.124  -0.900  0.00  0.00     0.116 A 
ATOM     29  H   UNK d   1      -0.762   5.659  -0.483  0.00  0.00     0.166 HD
ENDBRANCH  23  24
ENDBRANCH  11  23
TORSDOF 3
