# created with PyMOL 2.3.2
@<TRIPOS>MOLECULE
1586
45 48 1                 
SMALL
USER_CHARGES
@<TRIPOS>ATOM
1	  Cl	-1.107	-3.405	7.582	Cl	1	UNK0	0.000	
2	   C	-1.349	-3.233	5.837	C.2	1	UNK0	0.000	
3	   C	-0.447	-2.571	5.069	C.2	1	UNK0	0.000	
4	   C	-0.667	-2.453	3.696	C.2	1	UNK0	0.000	
5	   C	-1.757	-2.972	3.042	C.2	1	UNK0	0.000	
6	   C	-2.657	-3.645	3.887	C.2	1	UNK0	0.000	
7	   C	-2.461	-3.774	5.246	C.2	1	UNK0	0.000	
8	   C	-2.038	-2.924	1.634	C.2	1	UNK0	0.000	
9	   O	-3.238	-3.400	1.342	O.2	1	UNK0	0.000	
10	   N	-1.281	-2.473	0.540	N.pl3	1	UNK0	0.000	
11	   C	0.037	-1.953	0.626	C.3	1	UNK0	0.000	
12	   C	0.599	-1.785	-0.796	C.3	1	UNK0	0.000	
13	   N	-0.313	-0.896	-1.468	N.pl3	1	UNK0	0.000	
14	   C	-1.666	-1.321	-1.602	C.3	1	UNK0	0.000	
15	   C	-1.941	-2.552	-0.763	C.3	1	UNK0	0.000	
16	   C	0.122	0.343	-1.969	C.2	1	UNK0	0.000	
17	   O	-0.549	0.903	-2.854	O.2	1	UNK0	0.000	
18	   C	1.361	0.937	-1.426	C.3	1	UNK0	0.000	
19	   N	2.346	-0.104	-1.405	N.pl3	1	UNK0	0.000	
20	   C	1.990	-1.336	-0.803	C.2	1	UNK0	0.000	
21	   O	2.859	-2.085	-0.256	O.2	1	UNK0	0.000	
22	   C	1.779	2.187	-2.101	C.3	1	UNK0	0.000	
23	   C	0.736	3.215	-1.953	C.2	1	UNK0	0.000	
24	   N	-0.287	3.489	-2.766	N.2	1	UNK0	0.000	
25	   C	-1.011	4.523	-2.245	C.2	1	UNK0	0.000	
26	   N	-0.444	4.906	-1.099	N.pl3	1	UNK0	0.000	
27	   C	0.622	4.124	-0.900	C.2	1	UNK0	0.000	
28	   H	0.420	-2.150	5.537	 H	1	UNK0	0.000	
29	   H	0.069	-1.904	3.148	 H	1	UNK0	0.000	
30	   H	-3.548	-4.085	3.434	 H	1	UNK0	0.000	
31	   H	-3.221	-4.317	5.813	 H	1	UNK0	0.000	
32	   H	0.728	-2.607	1.199	 H	1	UNK0	0.000	
33	   H	-0.002	-0.969	1.124	 H	1	UNK0	0.000	
34	   H	0.508	-2.790	-1.260	 H	1	UNK0	0.000	
35	   H	-1.850	-1.569	-2.668	 H	1	UNK0	0.000	
36	   H	-2.420	-0.559	-1.317	 H	1	UNK0	0.000	
37	   H	-3.020	-2.663	-0.589	 H	1	UNK0	0.000	
38	   H	-1.564	-3.436	-1.305	 H	1	UNK0	0.000	
39	   H	1.219	1.222	-0.332	 H	1	UNK0	0.000	
40	   H	3.306	0.017	-1.813	 H	1	UNK0	0.000	
41	   H	2.765	2.524	-1.711	 H	1	UNK0	0.000	
42	   H	1.974	1.962	-3.185	 H	1	UNK0	0.000	
43	   H	-1.898	4.921	-2.740	 H	1	UNK0	0.000	
44	   H	-0.762	5.659	-0.483	 H	1	UNK0	0.000	
45	   H	1.331	4.130	-0.083	 H	1	UNK0	0.000	
@<TRIPOS>BOND
1 1 2 1
2 2 3 2
3 2 7 1
4 3 4 1
5 4 5 2
6 5 6 1
7 5 8 1
8 6 7 2
9 8 9 2
10 8 10 1
11 10 11 1
12 10 15 1
13 11 12 1
14 12 13 1
15 12 20 1
16 13 14 1
17 13 16 1
18 14 15 1
19 16 17 2
20 16 18 1
21 18 19 1
22 18 22 1
23 19 20 1
24 20 21 2
25 22 23 1
26 23 24 1
27 23 27 2
28 24 25 2
29 25 26 1
30 26 27 1
31 3 28 1
32 4 29 1
33 6 30 1
34 7 31 1
35 11 32 1
36 11 33 1
37 12 34 1
38 14 35 1
39 14 36 1
40 15 37 1
41 15 38 1
42 18 39 1
43 19 40 1
44 22 41 1
45 22 42 1
46 25 43 1
47 26 44 1
48 27 45 1
@<TRIPOS>SUBSTRUCTURE
1	UNK0	1	GROUP	1 ****	UNK
