REMARK  3 active torsions:
REMARK  status: ('A' for Active; 'I' for Inactive)
REMARK    1  A    between atoms: C_3  and  N_15 
REMARK    2  A    between atoms: N_6  and  C_9 
REMARK    3  A    between atoms: N_18  and  C_21 
ROOT
ATOM      1 Cl   UNK d   1      -2.158  -2.176  -1.234  0.00  0.00    -0.076 Cl
ATOM      2  C   UNK d   1      -1.818  -1.056   0.066  0.00  0.00     0.131 A 
ATOM      3  C   UNK d   1      -0.641  -1.137   0.755  0.00  0.00     0.077 A 
ATOM      4  C   UNK d   1      -0.485  -0.201   1.781  0.00  0.00     0.170 A 
ATOM      5  N   UNK d   1      -1.445   0.700   2.042  0.00  0.00    -0.174 NA
ATOM      6  N   UNK d   1      -2.583   0.795   1.392  0.00  0.00    -0.197 N 
ATOM      7  C   UNK d   1      -2.776  -0.083   0.399  0.00  0.00     0.292 A 
ATOM      8  O   UNK d   1      -3.833  -0.072  -0.282  0.00  0.00    -0.264 OA
ENDROOT
BRANCH   3   9
ATOM      9  N   UNK d   1       0.375  -2.076   0.458  0.00  0.00    -0.375 N 
ATOM     10  C   UNK d   1       1.496  -2.332   1.347  0.00  0.00     0.143 C 
ATOM     11  C   UNK d   1       2.809  -1.960   0.708  0.00  0.00     0.146 C 
ATOM     12  N   UNK d   1       2.738  -2.387  -0.668  0.00  0.00    -0.341 N 
ATOM     13  C   UNK d   1       1.810  -3.436  -1.002  0.00  0.00     0.146 C 
ATOM     14  C   UNK d   1       0.399  -2.849  -0.779  0.00  0.00     0.143 C 
BRANCH  12  15
ATOM     15  C   UNK d   1       3.554  -1.797  -1.663  0.00  0.00     0.270 A 
ATOM     16  N   UNK d   1       3.590  -2.102  -2.992  0.00  0.00    -0.103 NA
ATOM     17  N   UNK d   1       4.478  -1.334  -3.591  0.00  0.00    -0.126 NA
ATOM     18  C   UNK d   1       5.014  -0.541  -2.672  0.00  0.00     0.167 A 
ATOM     19  O   UNK d   1       4.448  -0.835  -1.531  0.00  0.00    -0.260 OA
ATOM     20  C   UNK d   1       6.069   0.511  -2.836  0.00  0.00     0.102 C 
ENDBRANCH  12  15
ENDBRANCH   3   9
BRANCH   6  21
ATOM     21  C   UNK d   1      -3.550   1.783   1.734  0.00  0.00     0.062 A 
ATOM     22  C   UNK d   1      -3.387   3.121   1.435  0.00  0.00     0.032 A 
ATOM     23  C   UNK d   1      -4.330   4.069   1.770  0.00  0.00     0.002 A 
ATOM     24  C   UNK d   1      -5.488   3.706   2.428  0.00  0.00     0.000 A 
ATOM     25  C   UNK d   1      -5.657   2.371   2.729  0.00  0.00     0.002 A 
ATOM     26  C   UNK d   1      -4.709   1.424   2.391  0.00  0.00     0.032 A 
ENDBRANCH   6  21
TORSDOF 3
