# created with PyMOL 2.3.2
@<TRIPOS>MOLECULE
1591
43 46 1                 
SMALL
USER_CHARGES
@<TRIPOS>ATOM
1	  Cl	-2.158	-2.176	-1.234	Cl	1	UNK0	0.000	
2	   C	-1.818	-1.056	0.066	C.2	1	UNK0	0.000	
3	   C	-0.641	-1.137	0.755	C.2	1	UNK0	0.000	
4	   C	-0.485	-0.201	1.781	C.2	1	UNK0	0.000	
5	   N	-1.445	0.700	2.042	N.2	1	UNK0	0.000	
6	   N	-2.583	0.795	1.392	N.pl3	1	UNK0	0.000	
7	   C	-2.776	-0.083	0.399	C.2	1	UNK0	0.000	
8	   O	-3.833	-0.072	-0.282	O.2	1	UNK0	0.000	
9	   C	-3.550	1.783	1.734	C.2	1	UNK0	0.000	
10	   C	-3.387	3.121	1.435	C.2	1	UNK0	0.000	
11	   C	-4.330	4.069	1.770	C.2	1	UNK0	0.000	
12	   C	-5.488	3.706	2.428	C.2	1	UNK0	0.000	
13	   C	-5.657	2.371	2.729	C.2	1	UNK0	0.000	
14	   C	-4.709	1.424	2.391	C.2	1	UNK0	0.000	
15	   N	0.375	-2.076	0.458	N.pl3	1	UNK0	0.000	
16	   C	1.496	-2.332	1.347	C.3	1	UNK0	0.000	
17	   C	2.809	-1.960	0.708	C.3	1	UNK0	0.000	
18	   N	2.738	-2.387	-0.668	N.pl3	1	UNK0	0.000	
19	   C	1.810	-3.436	-1.002	C.3	1	UNK0	0.000	
20	   C	0.399	-2.849	-0.779	C.3	1	UNK0	0.000	
21	   C	3.554	-1.797	-1.663	C.2	1	UNK0	0.000	
22	   N	3.590	-2.102	-2.992	N.2	1	UNK0	0.000	
23	   N	4.478	-1.334	-3.591	N.2	1	UNK0	0.000	
24	   C	5.014	-0.541	-2.672	C.2	1	UNK0	0.000	
25	   O	4.448	-0.835	-1.531	O.3	1	UNK0	0.000	
26	   C	6.069	0.511	-2.836	C.3	1	UNK0	0.000	
27	   H	0.422	-0.222	2.345	 H	1	UNK0	0.000	
28	   H	-2.474	3.412	0.916	 H	1	UNK0	0.000	
29	   H	-4.170	5.122	1.519	 H	1	UNK0	0.000	
30	   H	-6.225	4.455	2.688	 H	1	UNK0	0.000	
31	   H	-6.551	2.078	3.239	 H	1	UNK0	0.000	
32	   H	-4.841	0.370	2.628	 H	1	UNK0	0.000	
33	   H	1.537	-3.449	1.499	 H	1	UNK0	0.000	
34	   H	1.438	-1.900	2.330	 H	1	UNK0	0.000	
35	   H	2.972	-0.848	0.707	 H	1	UNK0	0.000	
36	   H	3.673	-2.386	1.245	 H	1	UNK0	0.000	
37	   H	1.963	-4.284	-0.312	 H	1	UNK0	0.000	
38	   H	1.918	-3.768	-2.048	 H	1	UNK0	0.000	
39	   H	-0.259	-3.729	-0.764	 H	1	UNK0	0.000	
40	   H	0.270	-2.186	-1.672	 H	1	UNK0	0.000	
41	   H	5.889	1.102	-3.755	 H	1	UNK0	0.000	
42	   H	6.035	1.233	-1.994	 H	1	UNK0	0.000	
43	   H	7.040	0.008	-2.807	 H	1	UNK0	0.000	
@<TRIPOS>BOND
1 1 2 1
2 2 3 2
3 2 7 1
4 3 4 1
5 3 15 1
6 4 5 2
7 5 6 1
8 6 7 1
9 6 9 1
10 7 8 2
11 9 10 2
12 9 14 1
13 10 11 1
14 11 12 2
15 12 13 1
16 13 14 2
17 15 16 1
18 15 20 1
19 16 17 1
20 17 18 1
21 18 19 1
22 18 21 1
23 19 20 1
24 21 22 2
25 21 25 1
26 22 23 1
27 23 24 2
28 24 25 1
29 24 26 1
30 4 27 1
31 10 28 1
32 11 29 1
33 12 30 1
34 13 31 1
35 14 32 1
36 16 33 1
37 16 34 1
38 17 35 1
39 17 36 1
40 19 37 1
41 19 38 1
42 20 39 1
43 20 40 1
44 26 41 1
45 26 42 1
46 26 43 1
@<TRIPOS>SUBSTRUCTURE
1	UNK0	1	GROUP	1 ****	UNK
