REMARK  4 active torsions:
REMARK  status: ('A' for Active; 'I' for Inactive)
REMARK    1  A    between atoms: C_7  and  C_9 
REMARK       I    between atoms: C_9  and  N_11 
REMARK    2  A    between atoms: N_17  and  C_20 
REMARK    3  A    between atoms: C_20  and  C_21 
REMARK    4  A    between atoms: C_21  and  O_22 
ROOT
ATOM      1  C   UNK d   1      -1.809  -0.283   0.282  0.00  0.00     0.274 C 
ATOM      2  O   UNK d   1      -2.290  -1.300  -0.341  0.00  0.00    -0.266 OA
ATOM      3  N   UNK d   1      -0.690   0.308  -0.272  0.00  0.00    -0.341 N 
ATOM      4  C   UNK d   1      -0.026   1.460   0.289  0.00  0.00     0.131 C 
ATOM      5  C   UNK d   1       1.336   1.087   0.835  0.00  0.00     0.066 C 
ATOM      6  C   UNK d   1       1.967   0.059  -0.060  0.00  0.00     0.039 A 
ATOM      7  C   UNK d   1       1.347  -0.535  -1.125  0.00  0.00     0.056 A 
ATOM      8  N   UNK d   1       2.265  -1.388  -1.649  0.00  0.00    -0.297 N 
ATOM      9  N   UNK d   1       3.388  -1.343  -0.969  0.00  0.00    -0.255 N 
ATOM     10  C   UNK d   1       3.267  -0.462   0.032  0.00  0.00     0.270 A 
ATOM     11  O   UNK d   1       4.133  -0.138   0.907  0.00  0.00    -0.266 OA
ATOM     12  C   UNK d   1      -0.056  -0.207  -1.510  0.00  0.00     0.185 C 
ATOM     13  H   UNK d   1       2.054  -1.982  -2.487  0.00  0.00     0.187 HD
ENDROOT
BRANCH   1  14
ATOM     14  C   UNK d   1      -2.493   0.128   1.496  0.00  0.00     0.142 A 
ATOM     15  N   UNK d   1      -2.200   1.135   2.319  0.00  0.00    -0.224 NA
ATOM     16  C   UNK d   1      -3.092   1.161   3.322  0.00  0.00     0.134 A 
ATOM     17  N   UNK d   1      -3.966   0.164   3.146  0.00  0.00    -0.313 N 
ATOM     18  C   UNK d   1      -3.167   2.048   4.410  0.00  0.00     0.052 A 
ATOM     19  C   UNK d   1      -4.973  -0.012   4.046  0.00  0.00     0.122 A 
ATOM     20  C   UNK d   1      -3.631  -0.497   2.030  0.00  0.00     0.135 A 
ATOM     21  C   UNK d   1      -5.070   0.842   5.121  0.00  0.00     0.050 A 
ATOM     22 Cl   UNK d   1      -6.350   0.654   6.305  0.00  0.00    -0.083 Cl
ATOM     23  C   UNK d   1      -4.171   1.877   5.312  0.00  0.00     0.029 A 
ENDBRANCH   1  14
BRANCH   9  24
ATOM     24  C   UNK d   1       4.619  -2.109  -1.212  0.00  0.00     0.178 C 
BRANCH  24  25
ATOM     25  C   UNK d   1       5.540  -1.361  -2.148  0.00  0.00     0.186 C 
BRANCH  25  26
ATOM     26  O   UNK d   1       5.915  -0.123  -1.640  0.00  0.00    -0.399 OA
ATOM     27  H   UNK d   1       5.979   0.575  -2.358  0.00  0.00     0.209 HD
ENDBRANCH  25  26
ENDBRANCH  24  25
ENDBRANCH   9  24
TORSDOF 4
