# created with PyMOL 2.3.2
@<TRIPOS>MOLECULE
1594
41 44 1                 
SMALL
USER_CHARGES
@<TRIPOS>ATOM
1	  Cl	-6.350	0.654	6.305	Cl	1	UNK0	0.000	
2	   C	-5.070	0.842	5.121	C.2	1	UNK0	0.000	
3	   C	-4.973	-0.012	4.046	C.2	1	UNK0	0.000	
4	   N	-3.966	0.164	3.146	N.pl3	1	UNK0	0.000	
5	   C	-3.092	1.161	3.322	C.2	1	UNK0	0.000	
6	   N	-2.200	1.135	2.319	N.2	1	UNK0	0.000	
7	   C	-2.493	0.128	1.496	C.2	1	UNK0	0.000	
8	   C	-3.631	-0.497	2.030	C.2	1	UNK0	0.000	
9	   C	-1.809	-0.283	0.282	C.2	1	UNK0	0.000	
10	   O	-2.290	-1.300	-0.341	O.2	1	UNK0	0.000	
11	   N	-0.690	0.308	-0.272	N.pl3	1	UNK0	0.000	
12	   C	-0.026	1.460	0.289	C.3	1	UNK0	0.000	
13	   C	1.336	1.087	0.835	C.3	1	UNK0	0.000	
14	   C	1.967	0.059	-0.060	C.2	1	UNK0	0.000	
15	   C	1.347	-0.535	-1.125	C.2	1	UNK0	0.000	
16	   N	2.265	-1.388	-1.649	N.pl3	1	UNK0	0.000	
17	   N	3.388	-1.343	-0.969	N.pl3	1	UNK0	0.000	
18	   C	3.267	-0.462	0.032	C.2	1	UNK0	0.000	
19	   O	4.133	-0.138	0.907	O.2	1	UNK0	0.000	
20	   C	4.619	-2.109	-1.212	C.3	1	UNK0	0.000	
21	   C	5.540	-1.361	-2.148	C.3	1	UNK0	0.000	
22	   O	5.915	-0.123	-1.640	O.3	1	UNK0	0.000	
23	   C	-0.056	-0.207	-1.510	C.3	1	UNK0	0.000	
24	   C	-3.167	2.048	4.410	C.2	1	UNK0	0.000	
25	   C	-4.171	1.877	5.312	C.2	1	UNK0	0.000	
26	   H	-5.673	-0.818	3.896	 H	1	UNK0	0.000	
27	   H	-4.135	-1.363	1.599	 H	1	UNK0	0.000	
28	   H	-0.577	2.033	1.016	 H	1	UNK0	0.000	
29	   H	0.119	2.158	-0.602	 H	1	UNK0	0.000	
30	   H	1.304	0.725	1.862	 H	1	UNK0	0.000	
31	   H	1.944	2.033	0.837	 H	1	UNK0	0.000	
32	   H	2.054	-1.982	-2.487	 H	1	UNK0	0.000	
33	   H	4.307	-3.034	-1.740	 H	1	UNK0	0.000	
34	   H	5.123	-2.392	-0.291	 H	1	UNK0	0.000	
35	   H	6.465	-1.967	-2.230	 H	1	UNK0	0.000	
36	   H	5.079	-1.215	-3.131	 H	1	UNK0	0.000	
37	   H	5.979	0.575	-2.358	 H	1	UNK0	0.000	
38	   H	-0.109	0.570	-2.291	 H	1	UNK0	0.000	
39	   H	-0.604	-1.134	-1.771	 H	1	UNK0	0.000	
40	   H	-2.428	2.846	4.508	 H	1	UNK0	0.000	
41	   H	-4.244	2.557	6.164	 H	1	UNK0	0.000	
@<TRIPOS>BOND
1 1 2 1
2 2 3 2
3 2 25 1
4 3 4 1
5 4 5 1
6 4 8 1
7 5 6 2
8 5 24 1
9 6 7 1
10 7 8 2
11 7 9 1
12 9 10 2
13 9 11 1
14 11 12 1
15 11 23 1
16 12 13 1
17 13 14 1
18 14 15 2
19 14 18 1
20 15 16 1
21 15 23 1
22 16 17 1
23 17 18 1
24 17 20 1
25 18 19 2
26 20 21 1
27 21 22 1
28 24 25 2
29 3 26 1
30 8 27 1
31 12 28 1
32 12 29 1
33 13 30 1
34 13 31 1
35 16 32 1
36 20 33 1
37 20 34 1
38 21 35 1
39 21 36 1
40 22 37 1
41 23 38 1
42 23 39 1
43 24 40 1
44 25 41 1
@<TRIPOS>SUBSTRUCTURE
1	UNK0	1	GROUP	1 ****	UNK
