# created with PyMOL 2.3.2
@<TRIPOS>MOLECULE
1599
49 52 1                 
SMALL
USER_CHARGES
@<TRIPOS>ATOM
1	  Br	2.665	-6.620	2.871	Br	1	UNK0	0.000	
2	   C	2.069	-6.308	1.108	C.2	1	UNK0	0.000	
3	   C	0.937	-5.536	0.896	C.2	1	UNK0	0.000	
4	   C	0.476	-5.295	-0.371	C.2	1	UNK0	0.000	
5	   C	1.095	-5.793	-1.478	C.2	1	UNK0	0.000	
6	   C	2.238	-6.572	-1.273	C.2	1	UNK0	0.000	
7	   C	2.707	-6.817	0.004	C.2	1	UNK0	0.000	
8	   C	-0.731	-4.429	-0.617	C.2	1	UNK0	0.000	
9	   O	-1.623	-4.999	-1.339	O.2	1	UNK0	0.000	
10	   N	-0.750	-3.218	-0.085	N.pl3	1	UNK0	0.000	
11	   C	-0.770	-1.949	0.472	C.3	1	UNK0	0.000	
12	   C	-0.870	-0.881	-0.587	C.2	1	UNK0	0.000	
13	   O	-0.944	-1.327	-1.786	O.2	1	UNK0	0.000	
14	   N	-0.883	0.494	-0.317	N.pl3	1	UNK0	0.000	
15	   C	-0.798	1.027	1.005	C.3	1	UNK0	0.000	
16	   C	-0.012	2.306	1.066	C.3	1	UNK0	0.000	
17	   C	0.944	2.520	-0.087	C.3	1	UNK0	0.000	
18	   N	1.341	3.915	0.047	N.3	1	UNK0	0.000	
19	   C	2.402	4.343	-0.782	C.3	1	UNK0	0.000	
20	   C	3.270	3.305	-1.393	C.3	1	UNK0	0.000	
21	   C	3.314	2.061	-0.563	C.2	1	UNK0	0.000	
22	   N	4.296	1.198	-0.306	N.2	1	UNK0	0.000	
23	   C	3.761	0.264	0.508	C.2	1	UNK0	0.000	
24	   N	2.462	0.544	0.752	N.pl3	1	UNK0	0.000	
25	   C	2.158	1.689	0.075	C.2	1	UNK0	0.000	
26	   C	0.331	2.276	-1.442	C.3	1	UNK0	0.000	
27	   C	-0.962	1.483	-1.386	C.3	1	UNK0	0.000	
28	   H	0.417	-5.123	1.729	 H	1	UNK0	0.000	
29	   H	0.713	-5.587	-2.457	 H	1	UNK0	0.000	
30	   H	2.755	-6.985	-2.120	 H	1	UNK0	0.000	
31	   H	3.591	-7.417	0.161	 H	1	UNK0	0.000	
32	   H	-2.004	-2.987	-0.622	 H	1	UNK0	0.000	
33	   H	0.188	-1.747	1.065	 H	1	UNK0	0.000	
34	   H	-1.564	-1.827	1.249	 H	1	UNK0	0.000	
35	   H	-1.860	1.298	1.291	 H	1	UNK0	0.000	
36	   H	-0.501	0.287	1.771	 H	1	UNK0	0.000	
37	   H	-0.692	3.164	1.120	 H	1	UNK0	0.000	
38	   H	0.617	2.244	1.980	 H	1	UNK0	0.000	
39	   H	0.448	4.452	-0.150	 H	1	UNK0	0.000	
40	   H	3.073	5.000	-0.150	 H	1	UNK0	0.000	
41	   H	1.992	5.041	-1.571	 H	1	UNK0	0.000	
42	   H	2.917	3.079	-2.426	 H	1	UNK0	0.000	
43	   H	4.305	3.725	-1.541	 H	1	UNK0	0.000	
44	   H	4.324	-0.568	0.885	 H	1	UNK0	0.000	
45	   H	1.825	-0.015	1.344	 H	1	UNK0	0.000	
46	   H	1.045	1.646	-2.054	 H	1	UNK0	0.000	
47	   H	0.120	3.198	-2.007	 H	1	UNK0	0.000	
48	   H	-1.847	2.148	-1.257	 H	1	UNK0	0.000	
49	   H	-1.051	0.938	-2.344	 H	1	UNK0	0.000	
@<TRIPOS>BOND
1 1 2 1
2 2 3 2
3 2 7 1
4 3 4 1
5 4 5 2
6 4 8 1
7 5 6 1
8 6 7 2
9 8 9 2
10 8 10 1
11 10 11 1
12 11 12 1
13 12 13 2
14 12 14 1
15 14 15 1
16 14 27 1
17 15 16 1
18 16 17 1
19 17 18 1
20 17 25 1
21 17 26 1
22 18 19 1
23 19 20 1
24 20 21 1
25 21 22 1
26 21 25 2
27 22 23 2
28 23 24 1
29 24 25 1
30 26 27 1
31 3 28 1
32 5 29 1
33 6 30 1
34 7 31 1
35 10 32 1
36 11 33 1
37 11 34 1
38 15 35 1
39 15 36 1
40 16 37 1
41 16 38 1
42 18 39 1
43 19 40 1
44 19 41 1
45 20 42 1
46 20 43 1
47 23 44 1
48 24 45 1
49 26 46 1
50 26 47 1
51 27 48 1
52 27 49 1
@<TRIPOS>SUBSTRUCTURE
1	UNK0	1	GROUP	1 ****	UNK
