# created with PyMOL 2.3.2
@<TRIPOS>MOLECULE
1609
45 48 1                 
SMALL
USER_CHARGES
@<TRIPOS>ATOM
1	  Cl	2.493	6.222	2.205	Cl	1	UNK0	0.000	
2	   C	2.230	5.174	0.808	C.2	1	UNK0	0.000	
3	   C	2.991	4.040	0.654	C.2	1	UNK0	0.000	
4	   C	2.812	3.188	-0.436	C.2	1	UNK0	0.000	
5	   C	1.835	3.546	-1.343	C.2	1	UNK0	0.000	
6	   C	1.074	4.689	-1.179	C.2	1	UNK0	0.000	
7	   C	1.255	5.528	-0.100	C.2	1	UNK0	0.000	
8	   C	3.641	1.970	-0.590	C.3	1	UNK0	0.000	
9	   C	3.026	0.774	0.084	C.3	1	UNK0	0.000	
10	   N	1.721	0.426	-0.429	N.pl3	1	UNK0	0.000	
11	   C	1.324	-0.456	-1.494	C.3	1	UNK0	0.000	
12	   C	0.019	0.175	-1.937	C.3	1	UNK0	0.000	
13	   O	-0.574	0.465	-0.678	O.3	1	UNK0	0.000	
14	   C	0.504	0.949	0.091	C.2	1	UNK0	0.000	
15	   O	0.354	1.729	1.084	O.co2	1	UNK0	0.000	
16	   C	-0.585	-0.980	-2.649	C.3	1	UNK0	0.000	
17	   N	-0.449	-2.043	-1.627	N.pl3	1	UNK0	0.000	
18	   C	0.774	-1.780	-0.934	C.3	1	UNK0	0.000	
19	   C	-1.423	-3.037	-1.497	C.2	1	UNK0	0.000	
20	   O	-2.463	-3.027	-2.275	O.2	1	UNK0	0.000	
21	   C	-1.410	-4.134	-0.547	C.2	1	UNK0	0.000	
22	   N	-2.354	-5.103	-0.403	N.pl3	1	UNK0	0.000	
23	   C	-1.973	-5.926	0.571	C.2	1	UNK0	0.000	
24	   N	-0.803	-5.508	1.058	N.2	1	UNK0	0.000	
25	   C	-0.441	-4.399	0.375	C.2	1	UNK0	0.000	
26	   C	-3.558	-5.201	-1.186	C.3	1	UNK0	0.000	
27	   H	3.767	3.750	1.369	 H	1	UNK0	0.000	
28	   H	1.690	2.884	-2.200	 H	1	UNK0	0.000	
29	   H	0.311	4.942	-1.913	 H	1	UNK0	0.000	
30	   H	0.668	6.424	0.042	 H	1	UNK0	0.000	
31	   H	4.609	2.161	-0.083	 H	1	UNK0	0.000	
32	   H	3.898	1.765	-1.660	 H	1	UNK0	0.000	
33	   H	2.978	1.031	1.181	 H	1	UNK0	0.000	
34	   H	3.701	-0.105	0.037	 H	1	UNK0	0.000	
35	   H	2.048	-0.599	-2.285	 H	1	UNK0	0.000	
36	   H	0.161	1.076	-2.551	 H	1	UNK0	0.000	
37	   H	-1.604	-0.851	-2.988	 H	1	UNK0	0.000	
38	   H	0.112	-1.286	-3.457	 H	1	UNK0	0.000	
39	   H	1.542	-2.558	-1.004	 H	1	UNK0	0.000	
40	   H	0.579	-1.608	0.167	 H	1	UNK0	0.000	
41	   H	-2.479	-6.818	0.966	 H	1	UNK0	0.000	
42	   H	0.498	-3.868	0.598	 H	1	UNK0	0.000	
43	   H	-3.364	-5.470	-2.244	 H	1	UNK0	0.000	
44	   H	-4.141	-4.249	-1.164	 H	1	UNK0	0.000	
45	   H	-4.226	-5.977	-0.759	 H	1	UNK0	0.000	
@<TRIPOS>BOND
1 1 2 1
2 2 3 2
3 2 7 1
4 3 4 1
5 4 5 2
6 4 8 1
7 5 6 1
8 6 7 2
9 8 9 1
10 9 10 1
11 10 11 1
12 10 14 1
13 11 12 1
14 11 18 1
15 12 13 1
16 12 16 1
17 13 14 1
18 14 15 2
19 16 17 1
20 17 18 1
21 17 19 1
22 19 20 2
23 19 21 1
24 21 22 1
25 21 25 2
26 22 23 1
27 22 26 1
28 23 24 2
29 24 25 1
30 3 27 1
31 5 28 1
32 6 29 1
33 7 30 1
34 8 31 1
35 8 32 1
36 9 33 1
37 9 34 1
38 11 35 1
39 12 36 1
40 16 37 1
41 16 38 1
42 18 39 1
43 18 40 1
44 23 41 1
45 25 42 1
46 26 43 1
47 26 44 1
48 26 45 1
@<TRIPOS>SUBSTRUCTURE
1	UNK0	1	GROUP	1 ****	UNK
