REMARK  4 active torsions:
REMARK  status: ('A' for Active; 'I' for Inactive)
REMARK    1  A    between atoms: C_4  and  C_8 
REMARK    2  A    between atoms: C_8  and  C_9 
REMARK    3  A    between atoms: C_9  and  N_10 
REMARK       I    between atoms: N_17  and  C_19 
REMARK    4  A    between atoms: C_19  and  C_21 
ROOT
ATOM      1  N   UNK d   1       1.721   0.426  -0.429  0.00  0.00    -0.319 N 
ATOM      2  C   UNK d   1       1.324  -0.456  -1.494  0.00  0.00     0.138 C 
ATOM      3  C   UNK d   1       0.019   0.175  -1.937  0.00  0.00     0.176 C 
ATOM      4  O   UNK d   1      -0.574   0.465  -0.678  0.00  0.00    -0.295 OA
ATOM      5  C   UNK d   1       0.504   0.949   0.091  0.00  0.00     0.363 C 
ATOM      6  O   UNK d   1       0.354   1.729   1.084  0.00  0.00    -0.238 OA
ATOM      7  C   UNK d   1      -0.585  -0.980  -2.649  0.00  0.00     0.161 C 
ATOM      8  N   UNK d   1      -0.449  -2.043  -1.627  0.00  0.00    -0.342 N 
ATOM      9  C   UNK d   1       0.774  -1.780  -0.934  0.00  0.00     0.154 C 
ATOM     10  C   UNK d   1      -1.423  -3.037  -1.497  0.00  0.00     0.272 C 
ATOM     11  O   UNK d   1      -2.463  -3.027  -2.275  0.00  0.00    -0.266 OA
ENDROOT
BRANCH   1  12
ATOM     12  C   UNK d   1       3.026   0.774   0.084  0.00  0.00     0.133 C 
BRANCH  12  13
ATOM     13  C   UNK d   1       3.641   1.970  -0.590  0.00  0.00     0.058 C 
BRANCH  13  14
ATOM     14  C   UNK d   1       2.812   3.188  -0.436  0.00  0.00    -0.055 A 
ATOM     15  C   UNK d   1       2.991   4.040   0.654  0.00  0.00     0.031 A 
ATOM     16  C   UNK d   1       2.230   5.174   0.808  0.00  0.00     0.034 A 
ATOM     17 Cl   UNK d   1       2.493   6.222   2.205  0.00  0.00    -0.084 Cl
ATOM     18  C   UNK d   1       1.255   5.528  -0.100  0.00  0.00     0.024 A 
ATOM     19  C   UNK d   1       1.074   4.689  -1.179  0.00  0.00     0.002 A 
ATOM     20  C   UNK d   1       1.835   3.546  -1.343  0.00  0.00     0.007 A 
ENDBRANCH  13  14
ENDBRANCH  12  13
ENDBRANCH   1  12
BRANCH  10  21
ATOM     21  C   UNK d   1      -1.410  -4.134  -0.547  0.00  0.00     0.121 A 
ATOM     22  N   UNK d   1      -2.354  -5.103  -0.403  0.00  0.00    -0.340 N 
ATOM     23  C   UNK d   1      -1.973  -5.926   0.571  0.00  0.00     0.209 A 
ATOM     24  C   UNK d   1      -3.558  -5.201  -1.186  0.00  0.00     0.157 C 
ATOM     25  N   UNK d   1      -0.803  -5.508   1.058  0.00  0.00    -0.253 NA
ATOM     26  C   UNK d   1      -0.441  -4.399   0.375  0.00  0.00     0.153 A 
ENDBRANCH  10  21
TORSDOF 4
