# created with PyMOL 2.3.2
@<TRIPOS>MOLECULE
1612
53 56 1                 
SMALL
USER_CHARGES
@<TRIPOS>ATOM
1	  Cl	-0.502	-4.833	0.022	Cl	1	UNK0	0.000	
2	   C	-0.289	-4.072	-1.554	C.2	1	UNK0	0.000	
3	   C	-0.265	-2.684	-1.599	C.2	1	UNK0	0.000	
4	   C	-0.104	-2.071	-2.809	C.2	1	UNK0	0.000	
5	   C	0.031	-2.866	-3.964	C.2	1	UNK0	0.000	
6	   C	0.004	-4.229	-3.890	C.2	1	UNK0	0.000	
7	   C	-0.159	-4.866	-2.672	C.2	1	UNK0	0.000	
8	   C	-0.021	-0.597	-2.941	C.3	1	UNK0	0.000	
9	   N	-1.043	0.149	-2.279	N.pl3	1	UNK0	0.000	
10	   C	-2.273	0.329	-2.803	C.2	1	UNK0	0.000	
11	   C	-2.967	1.133	-1.930	C.2	1	UNK0	0.000	
12	   N	-2.159	1.411	-0.926	N.2	1	UNK0	0.000	
13	   C	-0.958	0.812	-1.122	C.2	1	UNK0	0.000	
14	   N	0.174	0.964	-0.252	N.pl3	1	UNK0	0.000	
15	   C	0.984	2.192	-0.386	C.3	1	UNK0	0.000	
16	   C	1.085	2.935	0.907	C.3	1	UNK0	0.000	
17	   N	0.866	2.058	2.034	N.pl3	1	UNK0	0.000	
18	   C	1.300	0.683	1.901	C.3	1	UNK0	0.000	
19	   C	0.574	0.030	0.738	C.3	1	UNK0	0.000	
20	   C	0.256	2.538	3.224	C.2	1	UNK0	0.000	
21	   O	-0.089	3.736	3.319	O.2	1	UNK0	0.000	
22	   C	0.011	1.642	4.379	C.3	1	UNK0	0.000	
23	   C	1.267	1.670	5.246	C.3	1	UNK0	0.000	
24	   N	-4.251	1.460	-2.249	N.pl3	1	UNK0	0.000	
25	   C	-4.831	1.021	-3.372	C.2	1	UNK0	0.000	
26	   O	-6.023	1.353	-3.623	O.2	1	UNK0	0.000	
27	   N	-4.191	0.237	-4.249	N.pl3	1	UNK0	0.000	
28	   C	-2.913	-0.105	-3.959	C.2	1	UNK0	0.000	
29	   O	-2.310	-0.836	-4.775	O.2	1	UNK0	0.000	
30	   C	-5.004	2.318	-1.337	C.3	1	UNK0	0.000	
31	   H	-0.393	-2.130	-0.667	 H	1	UNK0	0.000	
32	   H	0.160	-2.366	-4.933	 H	1	UNK0	0.000	
33	   H	0.103	-4.873	-4.753	 H	1	UNK0	0.000	
34	   H	-0.182	-5.947	-2.589	 H	1	UNK0	0.000	
35	   H	-0.037	-0.344	-4.045	 H	1	UNK0	0.000	
36	   H	1.005	-0.316	-2.626	 H	1	UNK0	0.000	
37	   H	1.972	1.870	-0.768	 H	1	UNK0	0.000	
38	   H	0.475	2.872	-1.112	 H	1	UNK0	0.000	
39	   H	2.135	3.329	1.003	 H	1	UNK0	0.000	
40	   H	0.382	3.793	0.965	 H	1	UNK0	0.000	
41	   H	2.400	0.717	1.643	 H	1	UNK0	0.000	
42	   H	1.222	0.090	2.816	 H	1	UNK0	0.000	
43	   H	-0.312	-0.503	1.126	 H	1	UNK0	0.000	
44	   H	1.264	-0.765	0.311	 H	1	UNK0	0.000	
45	   H	-0.848	2.025	4.996	 H	1	UNK0	0.000	
46	   H	-0.279	0.629	4.077	 H	1	UNK0	0.000	
47	   H	1.176	2.367	6.104	 H	1	UNK0	0.000	
48	   H	2.162	1.985	4.670	 H	1	UNK0	0.000	
49	   H	1.484	0.640	5.618	 H	1	UNK0	0.000	
50	   H	-4.681	-0.083	-5.114	 H	1	UNK0	0.000	
51	   H	-6.077	2.023	-1.341	 H	1	UNK0	0.000	
52	   H	-4.908	3.364	-1.747	 H	1	UNK0	0.000	
53	   H	-4.559	2.314	-0.334	 H	1	UNK0	0.000	
@<TRIPOS>BOND
1 1 2 1
2 2 3 2
3 2 7 1
4 3 4 1
5 4 5 2
6 4 8 1
7 5 6 1
8 6 7 2
9 8 9 1
10 9 10 1
11 9 13 1
12 10 11 2
13 10 28 1
14 11 12 1
15 11 24 1
16 12 13 2
17 13 14 1
18 14 15 1
19 14 19 1
20 15 16 1
21 16 17 1
22 17 18 1
23 17 20 1
24 18 19 1
25 20 21 2
26 20 22 1
27 22 23 1
28 24 25 1
29 24 30 1
30 25 26 2
31 25 27 1
32 27 28 1
33 28 29 2
34 3 31 1
35 5 32 1
36 6 33 1
37 7 34 1
38 8 35 1
39 8 36 1
40 15 37 1
41 15 38 1
42 16 39 1
43 16 40 1
44 18 41 1
45 18 42 1
46 19 43 1
47 19 44 1
48 22 45 1
49 22 46 1
50 23 47 1
51 23 48 1
52 23 49 1
53 27 50 1
54 30 51 1
55 30 52 1
56 30 53 1
@<TRIPOS>SUBSTRUCTURE
1	UNK0	1	GROUP	1 ****	UNK
