REMARK  4 active torsions:
REMARK  status: ('A' for Active; 'I' for Inactive)
REMARK    1  A    between atoms: C_4  and  C_8 
REMARK    2  A    between atoms: C_8  and  N_9 
REMARK    3  A    between atoms: C_13  and  N_14 
REMARK       I    between atoms: N_17  and  C_20 
REMARK    4  A    between atoms: C_20  and  C_22 
ROOT
ATOM      1  N   UNK d   1      -1.043   0.149  -2.279  0.00  0.00    -0.168 N 
ATOM      2  C   UNK d   1      -2.273   0.329  -2.803  0.00  0.00     0.167 A 
ATOM      3  C   UNK d   1      -2.967   1.133  -1.930  0.00  0.00     0.185 A 
ATOM      4  N   UNK d   1      -2.159   1.411  -0.926  0.00  0.00    -0.044 NA
ATOM      5  C   UNK d   1      -0.958   0.812  -1.122  0.00  0.00     0.707 A 
ATOM      6  N   UNK d   1      -4.251   1.460  -2.249  0.00  0.00    -0.286 N 
ATOM      7  C   UNK d   1      -4.831   1.021  -3.372  0.00  0.00     0.330 A 
ATOM      8  O   UNK d   1      -6.023   1.353  -3.623  0.00  0.00    -0.246 OA
ATOM      9  N   UNK d   1      -4.191   0.237  -4.249  0.00  0.00    -0.273 N 
ATOM     10  C   UNK d   1      -2.913  -0.105  -3.959  0.00  0.00     0.280 A 
ATOM     11  O   UNK d   1      -2.310  -0.836  -4.775  0.00  0.00    -0.265 OA
ATOM     12  C   UNK d   1      -5.004   2.318  -1.337  0.00  0.00     0.163 C 
ATOM     13  H   UNK d   1      -4.681  -0.083  -5.114  0.00  0.00     0.173 HD
ENDROOT
BRANCH   5  14
ATOM     14  N   UNK d   1       0.174   0.964  -0.252  0.00  0.00    -0.212 N 
ATOM     15  C   UNK d   1       0.984   2.192  -0.386  0.00  0.00     0.161 C 
ATOM     16  C   UNK d   1       1.085   2.935   0.907  0.00  0.00     0.146 C 
ATOM     17  N   UNK d   1       0.866   2.058   2.034  0.00  0.00    -0.349 N 
ATOM     18  C   UNK d   1       1.300   0.683   1.901  0.00  0.00     0.146 C 
ATOM     19  C   UNK d   1       0.256   2.538   3.224  0.00  0.00     0.219 C 
ATOM     20  C   UNK d   1       0.574   0.030   0.738  0.00  0.00     0.161 C 
ATOM     21  O   UNK d   1      -0.089   3.736   3.319  0.00  0.00    -0.273 OA
BRANCH  19  22
ATOM     22  C   UNK d   1       0.011   1.642   4.379  0.00  0.00     0.098 C 
ATOM     23  C   UNK d   1       1.267   1.670   5.246  0.00  0.00     0.014 C 
ENDBRANCH  19  22
ENDBRANCH   5  14
BRANCH   1  24
ATOM     24  C   UNK d   1      -0.021  -0.597  -2.941  0.00  0.00     0.186 C 
BRANCH  24  25
ATOM     25  C   UNK d   1      -0.104  -2.071  -2.809  0.00  0.00    -0.038 A 
ATOM     26  C   UNK d   1      -0.265  -2.684  -1.599  0.00  0.00     0.032 A 
ATOM     27  C   UNK d   1      -0.289  -4.072  -1.554  0.00  0.00     0.034 A 
ATOM     28 Cl   UNK d   1      -0.502  -4.833   0.022  0.00  0.00    -0.084 Cl
ATOM     29  C   UNK d   1      -0.159  -4.866  -2.672  0.00  0.00     0.024 A 
ATOM     30  C   UNK d   1       0.004  -4.229  -3.890  0.00  0.00     0.002 A 
ATOM     31  C   UNK d   1       0.031  -2.866  -3.964  0.00  0.00     0.009 A 
ENDBRANCH  24  25
ENDBRANCH   1  24
TORSDOF 4
