# created with PyMOL 2.3.2
@<TRIPOS>MOLECULE
1622
45 48 1                 
SMALL
USER_CHARGES
@<TRIPOS>ATOM
1	  Cl	-1.992	-3.411	-1.620	Cl	1	UNK0	0.000	
2	   C	-1.354	-1.909	-2.303	C.2	1	UNK0	0.000	
3	   C	-0.406	-1.209	-1.589	C.2	1	UNK0	0.000	
4	   C	0.099	-0.038	-2.110	C.2	1	UNK0	0.000	
5	   C	-0.329	0.441	-3.330	C.2	1	UNK0	0.000	
6	   C	-1.283	-0.296	-4.013	C.2	1	UNK0	0.000	
7	   C	-1.812	-1.469	-3.528	C.2	1	UNK0	0.000	
8	   N	0.179	1.651	-3.890	N.pl3	1	UNK0	0.000	
9	   N	1.348	2.212	-3.701	N.2	1	UNK0	0.000	
10	   C	1.427	3.364	-4.429	C.2	1	UNK0	0.000	
11	   C	0.238	3.522	-5.106	C.2	1	UNK0	0.000	
12	   C	-0.531	2.414	-4.739	C.2	1	UNK0	0.000	
13	   C	0.061	-1.703	-0.290	C.2	1	UNK0	0.000	
14	   O	1.056	-2.472	-0.317	O.2	1	UNK0	0.000	
15	   N	-0.579	-1.331	0.923	N.pl3	1	UNK0	0.000	
16	   C	-0.065	-1.856	2.169	C.3	1	UNK0	0.000	
17	   C	-0.431	-0.858	3.252	C.3	1	UNK0	0.000	
18	   C	-0.378	0.568	2.749	C.3	1	UNK0	0.000	
19	   N	-0.521	1.431	3.899	N.pl3	1	UNK0	0.000	
20	   C	0.765	1.639	4.463	C.2	1	UNK0	0.000	
21	   O	1.051	2.028	5.639	O.2	1	UNK0	0.000	
22	   N	1.702	1.320	3.430	N.pl3	1	UNK0	0.000	
23	   C	0.979	0.926	2.263	C.2	1	UNK0	0.000	
24	   O	1.436	0.902	1.088	O.2	1	UNK0	0.000	
25	   C	3.164	1.372	3.504	C.3	1	UNK0	0.000	
26	   C	-1.410	0.837	1.694	C.3	1	UNK0	0.000	
27	   C	-1.723	-0.451	0.996	C.3	1	UNK0	0.000	
28	   H	0.845	0.559	-1.599	 H	1	UNK0	0.000	
29	   H	-1.625	0.075	-4.975	 H	1	UNK0	0.000	
30	   H	-2.570	-2.024	-4.103	 H	1	UNK0	0.000	
31	   H	2.246	4.065	-4.502	 H	1	UNK0	0.000	
32	   H	-0.041	4.332	-5.779	 H	1	UNK0	0.000	
33	   H	-1.535	2.222	-5.094	 H	1	UNK0	0.000	
34	   H	-0.542	-2.836	2.375	 H	1	UNK0	0.000	
35	   H	1.042	-1.918	2.147	 H	1	UNK0	0.000	
36	   H	-1.444	-1.082	3.641	 H	1	UNK0	0.000	
37	   H	0.257	-0.951	4.116	 H	1	UNK0	0.000	
38	   H	-1.422	1.819	4.236	 H	1	UNK0	0.000	
39	   H	3.628	0.560	2.893	 H	1	UNK0	0.000	
40	   H	3.485	1.285	4.557	 H	1	UNK0	0.000	
41	   H	3.535	2.322	3.077	 H	1	UNK0	0.000	
42	   H	-0.978	1.583	0.992	 H	1	UNK0	0.000	
43	   H	-2.321	1.224	2.199	 H	1	UNK0	0.000	
44	   H	-2.497	-0.986	1.614	 H	1	UNK0	0.000	
45	   H	-2.195	-0.298	-0.002	 H	1	UNK0	0.000	
@<TRIPOS>BOND
1 1 2 1
2 2 3 2
3 2 7 1
4 3 4 1
5 3 13 1
6 4 5 2
7 5 6 1
8 5 8 1
9 6 7 2
10 8 9 1
11 8 12 1
12 9 10 2
13 10 11 1
14 11 12 2
15 13 14 2
16 13 15 1
17 15 16 1
18 15 27 1
19 16 17 1
20 17 18 1
21 18 19 1
22 18 23 1
23 18 26 1
24 19 20 1
25 20 21 2
26 20 22 1
27 22 23 1
28 22 25 1
29 23 24 2
30 26 27 1
31 4 28 1
32 6 29 1
33 7 30 1
34 10 31 1
35 11 32 1
36 12 33 1
37 16 34 1
38 16 35 1
39 17 36 1
40 17 37 1
41 19 38 1
42 25 39 1
43 25 40 1
44 25 41 1
45 26 42 1
46 26 43 1
47 27 44 1
48 27 45 1
@<TRIPOS>SUBSTRUCTURE
1	UNK0	1	GROUP	1 ****	UNK
