REMARK  2 active torsions:
REMARK  status: ('A' for Active; 'I' for Inactive)
REMARK    1  A    between atoms: C_3  and  C_13 
REMARK    2  A    between atoms: C_5  and  N_8 
REMARK       I    between atoms: C_13  and  N_15 
ROOT
ATOM      1  C   UNK d   1       0.061  -1.703  -0.290  0.00  0.00     0.255 C 
ATOM      2  O   UNK d   1       1.056  -2.472  -0.317  0.00  0.00    -0.267 OA
ATOM      3  N   UNK d   1      -0.579  -1.331   0.923  0.00  0.00    -0.348 N 
ATOM      4  C   UNK d   1      -0.065  -1.856   2.169  0.00  0.00     0.129 C 
ATOM      5  C   UNK d   1      -0.431  -0.858   3.252  0.00  0.00     0.061 C 
ATOM      6  C   UNK d   1      -0.378   0.568   2.749  0.00  0.00     0.119 C 
ATOM      7  N   UNK d   1      -0.521   1.431   3.899  0.00  0.00    -0.324 N 
ATOM      8  C   UNK d   1       0.765   1.639   4.463  0.00  0.00     0.325 C 
ATOM      9  O   UNK d   1       1.051   2.028   5.639  0.00  0.00    -0.247 OA
ATOM     10  N   UNK d   1       1.702   1.320   3.430  0.00  0.00    -0.272 N 
ATOM     11  C   UNK d   1       0.979   0.926   2.263  0.00  0.00     0.256 C 
ATOM     12  O   UNK d   1       1.436   0.902   1.088  0.00  0.00    -0.270 OA
ATOM     13  C   UNK d   1       3.164   1.372   3.504  0.00  0.00     0.164 C 
ATOM     14  C   UNK d   1      -1.410   0.837   1.694  0.00  0.00     0.061 C 
ATOM     15  C   UNK d   1      -1.723  -0.451   0.996  0.00  0.00     0.129 C 
ATOM     16  H   UNK d   1      -1.422   1.819   4.236  0.00  0.00     0.165 HD
ENDROOT
BRANCH   1  17
ATOM     17  C   UNK d   1      -0.406  -1.209  -1.589  0.00  0.00     0.056 A 
ATOM     18  C   UNK d   1      -1.354  -1.909  -2.303  0.00  0.00     0.050 A 
ATOM     19 Cl   UNK d   1      -1.992  -3.411  -1.620  0.00  0.00    -0.083 Cl
ATOM     20  C   UNK d   1      -1.812  -1.469  -3.528  0.00  0.00     0.027 A 
ATOM     21  C   UNK d   1      -1.283  -0.296  -4.013  0.00  0.00     0.033 A 
ATOM     22  C   UNK d   1      -0.329   0.441  -3.330  0.00  0.00     0.059 A 
ATOM     23  C   UNK d   1       0.099  -0.038  -2.110  0.00  0.00     0.050 A 
BRANCH  22  24
ATOM     24  N   UNK d   1       0.179   1.651  -3.890  0.00  0.00    -0.245 N 
ATOM     25  N   UNK d   1       1.348   2.212  -3.701  0.00  0.00    -0.180 NA
ATOM     26  C   UNK d   1       1.427   3.364  -4.429  0.00  0.00     0.140 A 
ATOM     27  C   UNK d   1       0.238   3.522  -5.106  0.00  0.00     0.040 A 
ATOM     28  C   UNK d   1      -0.531   2.414  -4.739  0.00  0.00     0.120 A 
ENDBRANCH  22  24
ENDBRANCH   1  17
TORSDOF 2
