REMARK  5 active torsions:
REMARK  status: ('A' for Active; 'I' for Inactive)
REMARK    1  A    between atoms: C_5  and  C_8 
REMARK    2  A    between atoms: N_9  and  C_24 
REMARK    3  A    between atoms: C_15  and  C_17 
REMARK    4  A    between atoms: C_24  and  C_25 
REMARK    5  A    between atoms: C_25  and  N_26 
ROOT
ATOM      1  C   UNK d   1       1.286   0.724  -0.451  0.00  0.00     0.161 C 
ATOM      2  N   UNK d   1       0.092   0.123  -1.073  0.00  0.00    -0.331 N 
ATOM      3  C   UNK d   1      -1.040   0.898  -0.701  0.00  0.00     0.295 C 
ATOM      4  O   UNK d   1      -2.222   0.548  -0.709  0.00  0.00    -0.264 OA
ATOM      5  C   UNK d   1      -0.545   2.228  -0.295  0.00  0.00     0.250 C 
ATOM      6  O   UNK d   1      -1.224   3.224   0.114  0.00  0.00    -0.282 OA
ATOM      7  C   UNK d   1       0.899   2.173  -0.454  0.00  0.00     0.062 C 
ATOM      8  C   UNK d   1       1.670   3.228  -0.545  0.00  0.00     0.130 C 
ATOM      9  O   UNK d   1       3.043   3.026  -0.649  0.00  0.00    -0.190 OA
ENDROOT
BRANCH   2  10
ATOM     10  C   UNK d   1       0.188  -1.047  -1.908  0.00  0.00     0.155 C 
BRANCH  10  11
ATOM     11  C   UNK d   1       0.095  -2.350  -1.210  0.00  0.00     0.255 C 
BRANCH  11  12
ATOM     12  N   UNK d   1      -1.095  -2.670  -0.513  0.00  0.00    -0.066 N 
ATOM     13  C   UNK d   1      -0.936  -2.743   0.924  0.00  0.00     0.261 C 
ATOM     14  C   UNK d   1      -1.376  -4.060   1.517  0.00  0.00     0.195 C 
ATOM     15  O   UNK d   1      -2.610  -4.493   1.106  0.00  0.00    -0.388 OA
ATOM     16  C   UNK d   1      -2.799  -4.413  -0.261  0.00  0.00     0.195 C 
ATOM     17  C   UNK d   1      -1.508  -4.030  -0.919  0.00  0.00     0.261 C 
ATOM     18  H   UNK d   1      -1.901  -2.080  -0.777  0.00  0.00     0.280 HD
ENDBRANCH  11  12
ENDBRANCH  10  11
ENDBRANCH   2  10
BRANCH   1  19
ATOM     19  C   UNK d   1       1.466   0.185   0.891  0.00  0.00    -0.030 A 
ATOM     20  C   UNK d   1       0.481   0.179   1.826  0.00  0.00     0.011 A 
ATOM     21  C   UNK d   1       0.645  -0.340   3.102  0.00  0.00     0.024 A 
ATOM     22  C   UNK d   1       1.849  -0.874   3.455  0.00  0.00     0.034 A 
ATOM     23 Cl   UNK d   1       2.121  -1.543   5.040  0.00  0.00    -0.084 Cl
ATOM     24  C   UNK d   1       2.883  -0.883   2.516  0.00  0.00     0.024 A 
ATOM     25  C   UNK d   1       2.696  -0.362   1.256  0.00  0.00     0.011 A 
ENDBRANCH   1  19
BRANCH   8  26
ATOM     26  C   UNK d   1       1.223   4.617  -0.552  0.00  0.00     0.001 A 
ATOM     27  C   UNK d   1       1.890   5.480   0.310  0.00  0.00     0.016 A 
ATOM     28  C   UNK d   1       1.542   6.801   0.338  0.00  0.00     0.024 A 
ATOM     29  C   UNK d   1       0.539   7.296  -0.473  0.00  0.00     0.034 A 
ATOM     30  C   UNK d   1      -0.119   6.436  -1.326  0.00  0.00     0.024 A 
ATOM     31 Cl   UNK d   1       0.132   8.979  -0.402  0.00  0.00    -0.084 Cl
ATOM     32  C   UNK d   1       0.242   5.104  -1.346  0.00  0.00     0.016 A 
ENDBRANCH   8  26
TORSDOF 5
