# created with PyMOL 2.3.2
@<TRIPOS>MOLECULE
1630
60 64 1                 
SMALL
USER_CHARGES
@<TRIPOS>ATOM
1	  Cl	3.751	-1.041	-5.440	Cl	1	UNK0	0.000	
2	   C	2.480	-0.457	-4.355	C.2	1	UNK0	0.000	
3	   C	1.775	0.679	-4.670	C.2	1	UNK0	0.000	
4	   C	0.777	1.139	-3.821	C.2	1	UNK0	0.000	
5	   C	0.439	0.513	-2.652	C.2	1	UNK0	0.000	
6	   C	1.175	-0.645	-2.356	C.2	1	UNK0	0.000	
7	   C	2.167	-1.110	-3.191	C.2	1	UNK0	0.000	
8	   C	-0.635	1.246	-2.002	C.3	1	UNK0	0.000	
9	   N	-1.799	0.367	-1.933	N.3	1	UNK0	0.000	
10	   C	-1.815	-0.045	-0.556	C.3	1	UNK0	0.000	
11	   C	-1.535	1.255	0.163	C.3	1	UNK0	0.000	
12	   C	-0.348	1.754	-0.632	C.3	1	UNK0	0.000	
13	   C	0.806	1.209	0.054	C.2	1	UNK0	0.000	
14	   O	1.972	1.126	-0.391	O.2	1	UNK0	0.000	
15	   N	0.413	0.767	1.346	N.pl3	1	UNK0	0.000	
16	   C	-0.982	1.021	1.521	C.2	1	UNK0	0.000	
17	   O	-1.665	1.055	2.572	O.2	1	UNK0	0.000	
18	   C	1.222	0.153	2.382	C.3	1	UNK0	0.000	
19	   C	1.818	1.151	3.288	C.2	1	UNK0	0.000	
20	   C	2.612	0.694	4.318	C.2	1	UNK0	0.000	
21	   C	3.170	1.639	5.168	C.2	1	UNK0	0.000	
22	   C	2.946	2.976	4.997	C.2	1	UNK0	0.000	
23	   C	2.149	3.392	3.957	C.2	1	UNK0	0.000	
24	   C	1.566	2.504	3.080	C.2	1	UNK0	0.000	
25	   O	2.824	-0.660	4.471	O.3	1	UNK0	0.000	
26	   C	3.604	-1.238	5.470	C.3	1	UNK0	0.000	
27	   C	-3.154	-0.632	-0.169	C.3	1	UNK0	0.000	
28	   C	-3.381	-1.830	-1.067	C.3	1	UNK0	0.000	
29	   C	-4.674	-2.498	-0.777	C.2	1	UNK0	0.000	
30	   O	-5.420	-2.037	0.133	O.2	1	UNK0	0.000	
31	   N	-5.007	-3.640	-1.554	N.pl3	1	UNK0	0.000	
32	   C	-0.925	2.385	-2.905	C.2	1	UNK0	0.000	
33	   O	-1.794	3.294	-2.754	O.2	1	UNK0	0.000	
34	   N	-0.042	2.288	-4.000	N.pl3	1	UNK0	0.000	
35	   C	2.106	1.397	-5.932	C.3	1	UNK0	0.000	
36	   H	0.962	-1.190	-1.451	 H	1	UNK0	0.000	
37	   H	2.716	-2.009	-2.930	 H	1	UNK0	0.000	
38	   H	-1.692	-0.411	-2.618	 H	1	UNK0	0.000	
39	   H	-1.053	-0.768	-0.265	 H	1	UNK0	0.000	
40	   H	-2.387	1.944	0.154	 H	1	UNK0	0.000	
41	   H	-0.302	2.865	-0.571	 H	1	UNK0	0.000	
42	   H	0.619	-0.559	2.977	 H	1	UNK0	0.000	
43	   H	1.993	-0.464	1.858	 H	1	UNK0	0.000	
44	   H	3.793	1.290	5.976	 H	1	UNK0	0.000	
45	   H	3.409	3.686	5.694	 H	1	UNK0	0.000	
46	   H	1.966	4.447	3.814	 H	1	UNK0	0.000	
47	   H	0.930	2.842	2.251	 H	1	UNK0	0.000	
48	   H	3.628	-2.336	5.287	 H	1	UNK0	0.000	
49	   H	3.079	-1.107	6.441	 H	1	UNK0	0.000	
50	   H	4.624	-0.829	5.463	 H	1	UNK0	0.000	
51	   H	-3.973	0.102	-0.236	 H	1	UNK0	0.000	
52	   H	-3.031	-1.039	0.864	 H	1	UNK0	0.000	
53	   H	-3.289	-1.572	-2.151	 H	1	UNK0	0.000	
54	   H	-2.569	-2.553	-0.853	 H	1	UNK0	0.000	
55	   H	-4.745	-3.644	-2.554	 H	1	UNK0	0.000	
56	   H	-5.507	-4.423	-1.062	 H	1	UNK0	0.000	
57	   H	-0.010	2.965	-4.809	 H	1	UNK0	0.000	
58	   H	2.682	2.310	-5.726	 H	1	UNK0	0.000	
59	   H	2.668	0.755	-6.610	 H	1	UNK0	0.000	
60	   H	1.170	1.733	-6.460	 H	1	UNK0	0.000	
@<TRIPOS>BOND
1 1 2 1
2 2 3 2
3 2 7 1
4 3 4 1
5 3 35 1
6 4 5 2
7 4 34 1
8 5 6 1
9 5 8 1
10 6 7 2
11 8 9 1
12 8 12 1
13 8 32 1
14 9 10 1
15 10 11 1
16 10 27 1
17 11 12 1
18 11 16 1
19 12 13 1
20 13 14 2
21 13 15 1
22 15 16 1
23 15 18 1
24 16 17 2
25 18 19 1
26 19 20 2
27 19 24 1
28 20 21 1
29 20 25 1
30 21 22 2
31 22 23 1
32 23 24 2
33 25 26 1
34 27 28 1
35 28 29 1
36 29 30 2
37 29 31 1
38 32 33 2
39 32 34 1
40 6 36 1
41 7 37 1
42 9 38 1
43 10 39 1
44 11 40 1
45 12 41 1
46 18 42 1
47 18 43 1
48 21 44 1
49 22 45 1
50 23 46 1
51 24 47 1
52 26 48 1
53 26 49 1
54 26 50 1
55 27 51 1
56 27 52 1
57 28 53 1
58 28 54 1
59 31 55 1
60 31 56 1
61 34 57 1
62 35 58 1
63 35 59 1
64 35 60 1
@<TRIPOS>SUBSTRUCTURE
1	UNK0	1	GROUP	1 ****	UNK
