REMARK  6 active torsions:
REMARK  status: ('A' for Active; 'I' for Inactive)
REMARK    1  A    between atoms: C_10  and  C_27 
REMARK    2  A    between atoms: N_15  and  C_18 
REMARK    3  A    between atoms: C_18  and  C_19 
REMARK    4  A    between atoms: C_20  and  O_25 
REMARK    5  A    between atoms: C_27  and  C_28 
REMARK    6  A    between atoms: C_28  and  C_29 
REMARK       I    between atoms: C_29  and  N_31 
ROOT
ATOM      1 Cl   UNK d   1       3.751  -1.041  -5.440  0.00  0.00    -0.084 Cl
ATOM      2  C   UNK d   1       2.480  -0.457  -4.355  0.00  0.00     0.042 A 
ATOM      3  C   UNK d   1       1.775   0.679  -4.670  0.00  0.00    -0.013 A 
ATOM      4  C   UNK d   1       0.777   1.139  -3.821  0.00  0.00     0.051 A 
ATOM      5  C   UNK d   1       0.439   0.513  -2.652  0.00  0.00     0.018 A 
ATOM      6  C   UNK d   1       1.175  -0.645  -2.356  0.00  0.00     0.014 A 
ATOM      7  C   UNK d   1       2.167  -1.110  -3.191  0.00  0.00     0.025 A 
ATOM      8  C   UNK d   1      -0.635   1.246  -2.002  0.00  0.00     0.279 A 
ATOM      9  N   UNK d   1      -1.799   0.367  -1.933  0.00  0.00     0.113 N 
ATOM     10  C   UNK d   1      -1.815  -0.045  -0.556  0.00  0.00     0.237 C 
ATOM     11  C   UNK d   1      -1.535   1.255   0.163  0.00  0.00     0.128 C 
ATOM     12  C   UNK d   1      -0.348   1.754  -0.632  0.00  0.00     0.147 C 
ATOM     13  C   UNK d   1       0.806   1.209   0.054  0.00  0.00     0.235 C 
ATOM     14  O   UNK d   1       1.972   1.126  -0.391  0.00  0.00    -0.272 OA
ATOM     15  N   UNK d   1       0.413   0.767   1.346  0.00  0.00    -0.283 N 
ATOM     16  C   UNK d   1      -0.982   1.021   1.521  0.00  0.00     0.234 C 
ATOM     17  O   UNK d   1      -1.665   1.055   2.572  0.00  0.00    -0.272 OA
ATOM     18  C   UNK d   1      -0.925   2.385  -2.905  0.00  0.00     0.267 A 
ATOM     19  O   UNK d   1      -1.794   3.294  -2.754  0.00  0.00    -0.270 OA
ATOM     20  N   UNK d   1      -0.042   2.288  -4.000  0.00  0.00    -0.323 N 
ATOM     21  C   UNK d   1       2.106   1.397  -5.932  0.00  0.00     0.052 C 
ATOM     22  H   UNK d   1      -1.692  -0.411  -2.618  0.00  0.00     0.318 HD
ATOM     23  H   UNK d   1      -0.010   2.965  -4.809  0.00  0.00     0.169 HD
ENDROOT
BRANCH  10  24
ATOM     24  C   UNK d   1      -3.154  -0.632  -0.169  0.00  0.00     0.045 C 
BRANCH  24  25
ATOM     25  C   UNK d   1      -3.381  -1.830  -1.067  0.00  0.00     0.105 C 
BRANCH  25  26
ATOM     26  C   UNK d   1      -4.674  -2.498  -0.777  0.00  0.00     0.215 C 
ATOM     27  O   UNK d   1      -5.420  -2.037   0.133  0.00  0.00    -0.274 OA
ATOM     28  N   UNK d   1      -5.007  -3.640  -1.554  0.00  0.00    -0.370 N 
ATOM     29  H   UNK d   1      -4.745  -3.644  -2.554  0.00  0.00     0.159 HD
ATOM     30  H   UNK d   1      -5.507  -4.423  -1.062  0.00  0.00     0.159 HD
ENDBRANCH  25  26
ENDBRANCH  24  25
ENDBRANCH  10  24
BRANCH  15  31
ATOM     31  C   UNK d   1       1.222   0.153   2.382  0.00  0.00     0.176 C 
BRANCH  31  32
ATOM     32  C   UNK d   1       1.818   1.151   3.288  0.00  0.00    -0.006 A 
ATOM     33  C   UNK d   1       2.612   0.694   4.318  0.00  0.00     0.076 A 
ATOM     34  C   UNK d   1       3.170   1.639   5.168  0.00  0.00     0.037 A 
ATOM     35  C   UNK d   1       2.946   2.976   4.997  0.00  0.00     0.003 A 
ATOM     36  C   UNK d   1       2.149   3.392   3.957  0.00  0.00     0.001 A 
ATOM     37  C   UNK d   1       1.566   2.504   3.080  0.00  0.00     0.011 A 
BRANCH  33  38
ATOM     38  O   UNK d   1       2.824  -0.660   4.471  0.00  0.00    -0.355 OA
ATOM     39  C   UNK d   1       3.604  -1.238   5.470  0.00  0.00     0.210 C 
ENDBRANCH  33  38
ENDBRANCH  31  32
ENDBRANCH  15  31
TORSDOF 6
