REMARK  3 active torsions:
REMARK  status: ('A' for Active; 'I' for Inactive)
REMARK    1  A    between atoms: C_4  and  C_8 
REMARK    2  A    between atoms: N_9  and  C_23 
REMARK    3  A    between atoms: C_15  and  C_17 
ROOT
ATOM      1  C   UNK d   1      -0.038   0.959  -0.685  0.00  0.00     0.185 C 
ATOM      2  N   UNK d   1      -0.461   0.229  -1.846  0.00  0.00    -0.128 N 
ATOM      3  C   UNK d   1      -0.311  -1.172  -1.640  0.00  0.00     0.314 C 
ATOM      4  O   UNK d   1      -0.319  -2.083  -2.518  0.00  0.00    -0.263 OA
ATOM      5  C   UNK d   1      -0.139  -1.394  -0.189  0.00  0.00     0.251 C 
ATOM      6  O   UNK d   1       0.024  -2.510   0.354  0.00  0.00    -0.282 OA
ATOM      7  C   UNK d   1      -0.200  -0.065   0.405  0.00  0.00     0.063 C 
ATOM      8  C   UNK d   1      -0.338   0.156   1.695  0.00  0.00     0.130 C 
ATOM      9  O   UNK d   1      -0.328   1.501   2.118  0.00  0.00    -0.190 OA
ENDROOT
BRANCH   1  10
ATOM     10  C   UNK d   1       1.357   1.460  -0.767  0.00  0.00    -0.028 A 
ATOM     11  C   UNK d   1       1.690   2.756  -0.394  0.00  0.00     0.033 A 
ATOM     12  C   UNK d   1       2.968   3.259  -0.454  0.00  0.00     0.034 A 
ATOM     13 Cl   UNK d   1       3.351   4.897   0.028  0.00  0.00    -0.084 Cl
ATOM     14  C   UNK d   1       3.966   2.426  -0.910  0.00  0.00     0.024 A 
ATOM     15  C   UNK d   1       3.684   1.131  -1.292  0.00  0.00     0.002 A 
ATOM     16  C   UNK d   1       2.395   0.653  -1.222  0.00  0.00     0.010 A 
ENDBRANCH   1  10
BRANCH   8  17
ATOM     17  C   UNK d   1      -0.503  -0.888   2.697  0.00  0.00     0.001 A 
ATOM     18  C   UNK d   1       0.312  -0.886   3.838  0.00  0.00     0.014 A 
ATOM     19  C   UNK d   1       0.159  -1.844   4.816  0.00  0.00     0.001 A 
ATOM     20  C   UNK d   1      -0.790  -2.841   4.729  0.00  0.00     0.000 A 
ATOM     21  C   UNK d   1      -1.601  -2.860   3.617  0.00  0.00     0.001 A 
ATOM     22  C   UNK d   1      -1.444  -1.889   2.627  0.00  0.00     0.014 A 
ENDBRANCH   8  17
BRANCH   2  23
ATOM     23  C   UNK d   1      -0.956   0.803  -3.037  0.00  0.00     0.710 A 
ATOM     24  N   UNK d   1      -2.258   1.193  -3.013  0.00  0.00    -0.200 N 
ATOM     25  C   UNK d   1      -2.843   1.749  -4.073  0.00  0.00     0.107 A 
ATOM     26  H   UNK d   1      -2.843   1.064  -2.142  0.00  0.00     0.183 HD
ATOM     27  C   UNK d   1      -2.090   1.926  -5.211  0.00  0.00     0.037 A 
ATOM     28  C   UNK d   1      -0.771   1.524  -5.212  0.00  0.00     0.138 A 
ATOM     29  N   UNK d   1      -0.189   0.962  -4.138  0.00  0.00    -0.077 NA
ENDBRANCH   2  23
TORSDOF 3
