# created with PyMOL 2.3.2
@<TRIPOS>MOLECULE
1637
44 47 1                 
SMALL
USER_CHARGES
@<TRIPOS>ATOM
1	   S	-4.553	0.930	2.616	S.O2	1	UNK0	0.000	
2	   O	-5.179	1.381	3.839	O.2	1	UNK0	0.000	
3	   O	-5.217	-0.295	2.063	O.2	1	UNK0	0.000	
4	   C	-4.570	2.184	1.311	C.3	1	UNK0	0.000	
5	   C	-2.844	0.515	2.844	C.2	1	UNK0	0.000	
6	   N	-2.292	-0.380	2.017	N.2	1	UNK0	0.000	
7	   C	-1.008	-0.725	2.033	C.2	1	UNK0	0.000	
8	   C	-0.188	-0.092	2.981	C.2	1	UNK0	0.000	
9	   C	-0.750	0.810	3.813	C.2	1	UNK0	0.000	
10	   N	-2.078	1.107	3.742	N.2	1	UNK0	0.000	
11	   O	0.055	1.427	4.759	O.3	1	UNK0	0.000	
12	   C	1.240	-0.399	2.866	C.3	1	UNK0	0.000	
13	   N	1.568	-0.193	1.489	N.3	1	UNK0	0.000	
14	   C	1.071	-1.482	0.832	C.3	1	UNK0	0.000	
15	   C	-0.374	-1.703	1.110	C.3	1	UNK0	0.000	
16	   C	0.741	0.815	0.732	C.3	1	UNK0	0.000	
17	   C	1.874	1.617	0.086	C.2	1	UNK0	0.000	
18	   C	2.079	1.766	-1.230	C.2	1	UNK0	0.000	
19	   C	3.145	2.524	-1.786	C.2	1	UNK0	0.000	
20	   C	3.982	3.123	-0.840	C.2	1	UNK0	0.000	
21	   C	5.024	3.864	-1.315	C.2	1	UNK0	0.000	
22	   C	5.303	4.058	-2.686	C.2	1	UNK0	0.000	
23	   C	4.429	3.440	-3.599	C.2	1	UNK0	0.000	
24	   C	3.392	2.700	-3.105	C.2	1	UNK0	0.000	
25	   O	3.786	2.995	0.427	O.3	1	UNK0	0.000	
26	   C	2.773	2.270	0.926	C.2	1	UNK0	0.000	
27	   O	2.597	2.142	2.198	O.co2	1	UNK0	0.000	
28	  Cl	0.947	1.043	-2.322	Cl	1	UNK0	0.000	
29	   H	-3.760	1.880	0.556	 H	1	UNK0	0.000	
30	   H	-4.210	3.153	1.764	 H	1	UNK0	0.000	
31	   H	-5.554	2.293	0.850	 H	1	UNK0	0.000	
32	   H	0.810	0.952	5.264	 H	1	UNK0	0.000	
33	   H	1.902	0.087	3.619	 H	1	UNK0	0.000	
34	   H	1.340	-1.549	3.036	 H	1	UNK0	0.000	
35	   H	1.308	-1.339	-0.269	 H	1	UNK0	0.000	
36	   H	1.717	-2.246	1.253	 H	1	UNK0	0.000	
37	   H	-0.882	-1.627	0.091	 H	1	UNK0	0.000	
38	   H	-0.532	-2.732	1.439	 H	1	UNK0	0.000	
39	   H	0.138	0.364	-0.031	 H	1	UNK0	0.000	
40	   H	0.249	1.422	1.498	 H	1	UNK0	0.000	
41	   H	5.710	4.402	-0.663	 H	1	UNK0	0.000	
42	   H	6.170	4.655	-3.033	 H	1	UNK0	0.000	
43	   H	4.630	3.618	-4.610	 H	1	UNK0	0.000	
44	   H	2.740	2.137	-3.792	 H	1	UNK0	0.000	
@<TRIPOS>BOND
1 1 2 2
2 1 3 2
3 1 4 1
4 1 5 1
5 5 6 2
6 5 10 1
7 6 7 1
8 7 8 2
9 7 15 1
10 8 9 1
11 8 12 1
12 9 10 2
13 9 11 1
14 12 13 1
15 13 14 1
16 13 16 1
17 14 15 1
18 16 17 1
19 17 18 2
20 17 26 1
21 18 19 1
22 18 28 1
23 19 20 2
24 19 24 1
25 20 21 1
26 20 25 1
27 21 22 2
28 22 23 1
29 23 24 2
30 25 26 1
31 26 27 2
32 4 29 1
33 4 30 1
34 4 31 1
35 11 32 1
36 12 33 1
37 12 34 1
38 14 35 1
39 14 36 1
40 15 37 1
41 15 38 1
42 16 39 1
43 16 40 1
44 21 41 1
45 22 42 1
46 23 43 1
47 24 44 1
@<TRIPOS>SUBSTRUCTURE
1	UNK0	1	GROUP	1 ****	UNK
