REMARK  4 active torsions:
REMARK  status: ('A' for Active; 'I' for Inactive)
REMARK    1  A    between atoms: S_1  and  C_5 
REMARK    2  A    between atoms: C_9  and  O_11 
REMARK    3  A    between atoms: N_13  and  C_16 
REMARK    4  A    between atoms: C_16  and  C_17 
ROOT
ATOM      1  C   UNK d   1      -2.844   0.515   2.844  0.00  0.00     0.249 A 
ATOM      2  N   UNK d   1      -2.292  -0.380   2.017  0.00  0.00    -0.223 NA
ATOM      3  C   UNK d   1      -1.008  -0.725   2.033  0.00  0.00     0.051 A 
ATOM      4  C   UNK d   1      -0.188  -0.092   2.981  0.00  0.00     0.048 A 
ATOM      5  C   UNK d   1      -0.750   0.810   3.813  0.00  0.00     0.175 A 
ATOM      6  N   UNK d   1      -2.078   1.107   3.742  0.00  0.00    -0.194 NA
ATOM      7  C   UNK d   1       1.240  -0.399   2.866  0.00  0.00     0.318 C 
ATOM      8  N   UNK d   1       1.568  -0.193   1.489  0.00  0.00     0.097 N 
ATOM      9  C   UNK d   1       1.071  -1.482   0.832  0.00  0.00     0.279 C 
ATOM     10  C   UNK d   1      -0.374  -1.703   1.110  0.00  0.00     0.090 C 
ENDROOT
BRANCH   8  11
ATOM     11  C   UNK d   1       0.741   0.815   0.732  0.00  0.00     0.319 C 
BRANCH  11  12
ATOM     12  C   UNK d   1       1.874   1.617   0.086  0.00  0.00     0.068 A 
ATOM     13  C   UNK d   1       2.079   1.766  -1.230  0.00  0.00     0.061 A 
ATOM     14  C   UNK d   1       3.145   2.524  -1.786  0.00  0.00     0.020 A 
ATOM     15 Cl   UNK d   1       0.947   1.043  -2.322  0.00  0.00    -0.083 Cl
ATOM     16  C   UNK d   1       3.982   3.123  -0.840  0.00  0.00     0.091 A 
ATOM     17  C   UNK d   1       3.392   2.700  -3.105  0.00  0.00     0.016 A 
ATOM     18  C   UNK d   1       5.024   3.864  -1.315  0.00  0.00     0.038 A 
ATOM     19  O   UNK d   1       3.786   2.995   0.427  0.00  0.00    -0.274 OA
ATOM     20  C   UNK d   1       5.303   4.058  -2.686  0.00  0.00     0.003 A 
ATOM     21  C   UNK d   1       4.429   3.440  -3.599  0.00  0.00     0.001 A 
ATOM     22  C   UNK d   1       2.773   2.270   0.926  0.00  0.00     0.298 A 
ATOM     23  O   UNK d   1       2.597   2.142   2.198  0.00  0.00    -0.259 OA
ENDBRANCH  11  12
ENDBRANCH   8  11
BRANCH   5  24
ATOM     24  O   UNK d   1       0.055   1.427   4.759  0.00  0.00    -0.344 OA
ATOM     25  H   UNK d   1       0.810   0.952   5.264  0.00  0.00     0.219 HD
ENDBRANCH   5  24
BRANCH   1  26
ATOM     26  S   UNK d   1      -4.553   0.930   2.616  0.00  0.00     0.207 S 
ATOM     27  O   UNK d   1      -5.179   1.381   3.839  0.00  0.00    -0.220 OA
ATOM     28  O   UNK d   1      -5.217  -0.295   2.063  0.00  0.00    -0.220 OA
ATOM     29  C   UNK d   1      -4.570   2.184   1.311  0.00  0.00     0.170 C 
ENDBRANCH   1  26
TORSDOF 4
