REMARK  7 active torsions:
REMARK  status: ('A' for Active; 'I' for Inactive)
REMARK    1  A    between atoms: S_1  and  C_4 
REMARK    2  A    between atoms: S_1  and  C_26 
REMARK    3  A    between atoms: C_5  and  N_25 
REMARK    4  A    between atoms: C_7  and  N_10 
REMARK    5  A    between atoms: C_13  and  N_16 
REMARK    6  A    between atoms: C_13  and  C_22 
REMARK       I    between atoms: C_22  and  N_24 
REMARK    7  A    between atoms: C_27  and  O_33 
ROOT
ATOM      1  C   UNK d   1       0.736  -2.401   1.730  0.00  0.00     0.128 A 
ATOM      2  C   UNK d   1       1.145  -2.672   0.431  0.00  0.00     0.164 A 
ATOM      3  N   UNK d   1       1.811  -1.721  -0.278  0.00  0.00    -0.044 NA
ATOM      4  C   UNK d   1       2.098  -0.512   0.223  0.00  0.00     0.726 A 
ATOM      5  N   UNK d   1       1.704  -0.243   1.480  0.00  0.00    -0.073 NA
ATOM      6  C   UNK d   1       1.044  -1.150   2.220  0.00  0.00     0.164 A 
ENDROOT
BRANCH   4   7
ATOM      7  N   UNK d   1       2.800   0.482  -0.520  0.00  0.00    -0.214 N 
ATOM      8  C   UNK d   1       3.272   0.248  -1.863  0.00  0.00     0.144 C 
ATOM      9  C   UNK d   1       2.807   1.264  -2.869  0.00  0.00     0.072 C 
ATOM     10  C   UNK d   1       2.469   2.598  -2.224  0.00  0.00     0.241 C 
ATOM     11  C   UNK d   1       3.473   2.700  -1.063  0.00  0.00     0.072 C 
ATOM     12  C   UNK d   1       3.078   1.788   0.050  0.00  0.00     0.144 C 
BRANCH  10  13
ATOM     13  N   UNK d   1       1.184   2.701  -1.720  0.00  0.00     0.107 N 
ATOM     14  C   UNK d   1       0.045   2.595  -2.546  0.00  0.00     0.274 C 
ATOM     15  C   UNK d   1      -1.072   1.958  -1.702  0.00  0.00     0.030 C 
ATOM     16  C   UNK d   1      -0.766   2.224  -0.253  0.00  0.00     0.003 C 
ATOM     17  C   UNK d   1      -0.217   3.609  -0.023  0.00  0.00     0.030 C 
ATOM     18  C   UNK d   1       0.998   3.866  -0.899  0.00  0.00     0.274 C 
ENDBRANCH  10  13
BRANCH  10  19
ATOM     19  C   UNK d   1       2.847   3.668  -3.175  0.00  0.00     0.255 C 
ATOM     20  O   UNK d   1       4.015   3.699  -3.691  0.00  0.00    -0.271 OA
ATOM     21  N   UNK d   1       1.979   4.693  -3.567  0.00  0.00    -0.368 N 
ATOM     22  H   UNK d   1       2.133   5.658  -3.165  0.00  0.00     0.159 HD
ATOM     23  H   UNK d   1       1.183   4.615  -4.231  0.00  0.00     0.159 HD
ENDBRANCH  10  19
ENDBRANCH   4   7
BRANCH   2  24
ATOM     24  N   UNK d   1       0.842  -3.943  -0.090  0.00  0.00    -0.382 N 
ATOM     25  H   UNK d   1       0.274  -4.094  -0.949  0.00  0.00     0.157 HD
ATOM     26  H   UNK d   1       1.199  -4.789   0.400  0.00  0.00     0.157 HD
ENDBRANCH   2  24
BRANCH   1  27
ATOM     27  S   UNK d   1      -0.122  -3.594   2.683  0.00  0.00     0.214 S 
ATOM     28  O   UNK d   1       0.697  -4.825   2.897  0.00  0.00    -0.217 OA
ATOM     29  O   UNK d   1      -0.506  -2.940   3.986  0.00  0.00    -0.217 OA
BRANCH  27  30
ATOM     30  C   UNK d   1      -1.617  -3.994   1.824  0.00  0.00     0.099 A 
ATOM     31  C   UNK d   1      -2.547  -3.009   1.561  0.00  0.00     0.090 A 
ATOM     32  C   UNK d   1      -3.697  -3.366   0.889  0.00  0.00     0.040 A 
ATOM     33  C   UNK d   1      -3.928  -4.676   0.482  0.00  0.00     0.026 A 
ATOM     34  C   UNK d   1      -2.975  -5.631   0.763  0.00  0.00     0.035 A 
ATOM     35  C   UNK d   1      -1.814  -5.305   1.434  0.00  0.00     0.050 A 
ATOM     36 Cl   UNK d   1      -3.252  -7.302   0.253  0.00  0.00    -0.084 Cl
BRANCH  31  37
ATOM     37  O   UNK d   1      -2.286  -1.733   1.977  0.00  0.00    -0.354 OA
ATOM     38  C   UNK d   1      -3.126  -0.629   1.787  0.00  0.00     0.210 C 
ENDBRANCH  31  37
ENDBRANCH  27  30
ENDBRANCH   1  27
TORSDOF 7
