REMARK  0 active torsions:
REMARK  status: ('A' for Active; 'I' for Inactive)
ROOT
ATOM      1 Cl   UNK d   1       0.196  -0.187  -4.552  0.00  0.00    -0.084 Cl
ATOM      2  C   UNK d   1      -0.391  -0.949  -3.071  0.00  0.00     0.034 A 
ATOM      3  C   UNK d   1       0.195  -0.706  -1.853  0.00  0.00     0.034 A 
ATOM      4  C   UNK d   1      -0.290  -1.324  -0.690  0.00  0.00    -0.006 A 
ATOM      5  C   UNK d   1      -1.353  -2.181  -0.729  0.00  0.00     0.044 A 
ATOM      6  C   UNK d   1      -1.959  -2.435  -1.973  0.00  0.00     0.032 A 
ATOM      7  C   UNK d   1      -1.459  -1.814  -3.091  0.00  0.00     0.026 A 
ATOM      8  N   UNK d   1      -1.678  -2.691   0.554  0.00  0.00    -0.321 N 
ATOM      9  C   UNK d   1      -0.754  -2.114   1.460  0.00  0.00     0.242 A 
ATOM     10  O   UNK d   1      -0.748  -2.348   2.704  0.00  0.00    -0.271 OA
ATOM     11  C   UNK d   1       0.165  -1.223   0.718  0.00  0.00     0.111 A 
ATOM     12  C   UNK d   1       1.558  -1.790   0.893  0.00  0.00     0.132 C 
ATOM     13  C   UNK d   1       1.914  -1.516   2.326  0.00  0.00     0.225 C 
ATOM     14  O   UNK d   1       2.293  -2.400   3.116  0.00  0.00    -0.273 OA
ATOM     15  N   UNK d   1       1.794  -0.155   2.757  0.00  0.00    -0.311 N 
ATOM     16  C   UNK d   1       0.834   0.692   2.139  0.00  0.00     0.133 A 
ATOM     17  N   UNK d   1       0.498   1.998   2.320  0.00  0.00    -0.262 N 
ATOM     18  N   UNK d   1      -0.460   2.295   1.476  0.00  0.00    -0.185 NA
ATOM     19  C   UNK d   1      -0.788   1.232   0.725  0.00  0.00     0.151 A 
ATOM     20  C   UNK d   1       0.041   0.183   1.142  0.00  0.00     0.030 A 
ATOM     21  C   UNK d   1      -2.761  -3.631   0.860  0.00  0.00     0.159 C 
ATOM     22  H   UNK d   1       2.400   0.225   3.517  0.00  0.00     0.170 HD
ATOM     23  H   UNK d   1       0.962   2.612   3.029  0.00  0.00     0.191 HD
ENDROOT
TORSDOF 0
