# created with PyMOL 2.3.2
@<TRIPOS>MOLECULE
1651
32 35 1                 
SMALL
USER_CHARGES
@<TRIPOS>ATOM
1	  Cl	0.196	-0.187	-4.552	Cl	1	UNK0	0.000	
2	   C	-0.391	-0.949	-3.071	C.2	1	UNK0	0.000	
3	   C	0.195	-0.706	-1.853	C.2	1	UNK0	0.000	
4	   C	-0.290	-1.324	-0.690	C.2	1	UNK0	0.000	
5	   C	-1.353	-2.181	-0.729	C.2	1	UNK0	0.000	
6	   C	-1.959	-2.435	-1.973	C.2	1	UNK0	0.000	
7	   C	-1.459	-1.814	-3.091	C.2	1	UNK0	0.000	
8	   N	-1.678	-2.691	0.554	N.pl3	1	UNK0	0.000	
9	   C	-0.754	-2.114	1.460	C.2	1	UNK0	0.000	
10	   O	-0.748	-2.348	2.704	O.2	1	UNK0	0.000	
11	   C	0.165	-1.223	0.718	C.3	1	UNK0	0.000	
12	   C	1.558	-1.790	0.893	C.3	1	UNK0	0.000	
13	   C	1.914	-1.516	2.326	C.2	1	UNK0	0.000	
14	   O	2.293	-2.400	3.116	O.2	1	UNK0	0.000	
15	   N	1.794	-0.155	2.757	N.pl3	1	UNK0	0.000	
16	   C	0.834	0.692	2.139	C.2	1	UNK0	0.000	
17	   N	0.498	1.998	2.320	N.pl3	1	UNK0	0.000	
18	   N	-0.460	2.295	1.476	N.2	1	UNK0	0.000	
19	   C	-0.788	1.232	0.725	C.2	1	UNK0	0.000	
20	   C	0.041	0.183	1.142	C.2	1	UNK0	0.000	
21	   C	-2.761	-3.631	0.860	C.3	1	UNK0	0.000	
22	   H	1.022	-0.048	-1.776	 H	1	UNK0	0.000	
23	   H	-2.801	-3.115	-2.000	 H	1	UNK0	0.000	
24	   H	-1.937	-2.019	-4.051	 H	1	UNK0	0.000	
25	   H	2.296	-1.367	0.210	 H	1	UNK0	0.000	
26	   H	1.463	-2.891	0.812	 H	1	UNK0	0.000	
27	   H	2.400	0.225	3.517	 H	1	UNK0	0.000	
28	   H	0.962	2.612	3.029	 H	1	UNK0	0.000	
29	   H	-1.523	1.132	-0.053	 H	1	UNK0	0.000	
30	   H	-2.645	-3.921	1.924	 H	1	UNK0	0.000	
31	   H	-3.748	-3.216	0.630	 H	1	UNK0	0.000	
32	   H	-2.659	-4.565	0.239	 H	1	UNK0	0.000	
@<TRIPOS>BOND
1 1 2 1
2 2 3 2
3 2 7 1
4 3 4 1
5 4 5 2
6 4 11 1
7 5 6 1
8 5 8 1
9 6 7 2
10 8 9 1
11 8 21 1
12 9 10 2
13 9 11 1
14 11 12 1
15 11 20 1
16 12 13 1
17 13 14 2
18 13 15 1
19 15 16 1
20 16 17 1
21 16 20 2
22 17 18 1
23 18 19 2
24 19 20 1
25 3 22 1
26 6 23 1
27 7 24 1
28 12 25 1
29 12 26 1
30 15 27 1
31 17 28 1
32 19 29 1
33 21 30 1
34 21 31 1
35 21 32 1
@<TRIPOS>SUBSTRUCTURE
1	UNK0	1	GROUP	1 ****	UNK
