REMARK  2 active torsions:
REMARK  status: ('A' for Active; 'I' for Inactive)
REMARK    1  A    between atoms: N_15  and  C_20 
REMARK       I    between atoms: C_21  and  N_23 
REMARK    2  A    between atoms: N_26  and  C_29 
ROOT
ATOM      1 Cl   UNK d   1       2.394   8.181  -3.627  0.00  0.00    -0.084 Cl
ATOM      2  C   UNK d   1       1.930   6.840  -2.572  0.00  0.00     0.035 A 
ATOM      3  C   UNK d   1       0.745   6.888  -1.870  0.00  0.00     0.043 A 
ATOM      4  C   UNK d   1       0.391   5.856  -1.063  0.00  0.00     0.060 A 
ATOM      5  C   UNK d   1       1.225   4.737  -0.935  0.00  0.00     0.045 A 
ATOM      6  C   UNK d   1       2.402   4.711  -1.644  0.00  0.00     0.032 A 
ATOM      7  C   UNK d   1       2.779   5.758  -2.475  0.00  0.00     0.026 A 
ATOM      8  N   UNK d   1       0.860   3.650  -0.091  0.00  0.00    -0.363 N 
ATOM      9  C   UNK d   1      -0.550   3.409   0.176  0.00  0.00     0.108 C 
ATOM     10  N   UNK d   1      -1.120   4.686   0.537  0.00  0.00    -0.330 N 
ATOM     11  C   UNK d   1      -0.841   5.812  -0.279  0.00  0.00     0.255 C 
ATOM     12  O   UNK d   1      -1.612   6.802  -0.371  0.00  0.00    -0.268 OA
ATOM     13  C   UNK d   1      -0.659   2.454   1.317  0.00  0.00     0.074 C 
ATOM     14  C   UNK d   1      -0.612   1.004   0.893  0.00  0.00     0.130 C 
ATOM     15  N   UNK d   1       0.476   0.742  -0.026  0.00  0.00    -0.344 N 
ATOM     16  C   UNK d   1       0.586   1.381  -1.322  0.00  0.00     0.220 C 
ATOM     17  O   UNK d   1       1.654   1.158  -1.937  0.00  0.00    -0.273 OA
ATOM     18  C   UNK d   1      -0.363   2.255  -2.031  0.00  0.00     0.107 C 
ATOM     19  C   UNK d   1      -1.278   2.960  -1.075  0.00  0.00     0.063 C 
ATOM     20  H   UNK d   1       1.634   3.073   0.299  0.00  0.00     0.162 HD
ATOM     21  H   UNK d   1      -1.728   4.824   1.368  0.00  0.00     0.165 HD
ENDROOT
BRANCH  15  22
ATOM     22  C   UNK d   1       1.513  -0.146   0.310  0.00  0.00     0.212 C 
ATOM     23  C   UNK d   1       1.439  -1.562   0.030  0.00  0.00     0.171 C 
ATOM     24  O   UNK d   1       2.555  -2.185   0.411  0.00  0.00    -0.175 OA
ATOM     25  N   UNK d   1       0.441  -2.322  -0.537  0.00  0.00    -0.359 N 
ATOM     26  C   UNK d   1       0.666  -3.782  -0.697  0.00  0.00     0.144 C 
ATOM     27  C   UNK d   1      -0.822  -1.883  -0.984  0.00  0.00     0.144 C 
ATOM     28  C   UNK d   1      -0.647  -4.416  -0.211  0.00  0.00     0.137 C 
ATOM     29  N   UNK d   1      -1.367  -3.532   0.643  0.00  0.00    -0.406 N 
ATOM     30  C   UNK d   1      -1.910  -2.363   0.018  0.00  0.00     0.137 C 
BRANCH  29  31
ATOM     31  C   UNK d   1      -2.218  -4.144   1.606  0.00  0.00     0.071 C 
ATOM     32  C   UNK d   1      -3.341  -4.959   0.998  0.00  0.00     0.031 C 
ATOM     33  C   UNK d   1      -1.482  -4.990   2.609  0.00  0.00     0.031 C 
ENDBRANCH  29  31
ENDBRANCH  15  22
TORSDOF 2
