# created with PyMOL 2.3.2
@<TRIPOS>MOLECULE
1657
61 64 1                 
SMALL
USER_CHARGES
@<TRIPOS>ATOM
1	  Cl	2.394	8.181	-3.627	Cl	1	UNK0	0.000	
2	   C	1.930	6.840	-2.572	C.2	1	UNK0	0.000	
3	   C	0.745	6.888	-1.870	C.2	1	UNK0	0.000	
4	   C	0.391	5.856	-1.063	C.2	1	UNK0	0.000	
5	   C	1.225	4.737	-0.935	C.2	1	UNK0	0.000	
6	   C	2.402	4.711	-1.644	C.2	1	UNK0	0.000	
7	   C	2.779	5.758	-2.475	C.2	1	UNK0	0.000	
8	   N	0.860	3.650	-0.091	N.pl3	1	UNK0	0.000	
9	   C	-0.550	3.409	0.176	C.3	1	UNK0	0.000	
10	   N	-1.120	4.686	0.537	N.pl3	1	UNK0	0.000	
11	   C	-0.841	5.812	-0.279	C.2	1	UNK0	0.000	
12	   O	-1.612	6.802	-0.371	O.2	1	UNK0	0.000	
13	   C	-0.659	2.454	1.317	C.3	1	UNK0	0.000	
14	   C	-0.612	1.004	0.893	C.3	1	UNK0	0.000	
15	   N	0.476	0.742	-0.026	N.pl3	1	UNK0	0.000	
16	   C	0.586	1.381	-1.322	C.2	1	UNK0	0.000	
17	   O	1.654	1.158	-1.937	O.2	1	UNK0	0.000	
18	   C	-0.363	2.255	-2.031	C.3	1	UNK0	0.000	
19	   C	-1.278	2.960	-1.075	C.3	1	UNK0	0.000	
20	   C	1.513	-0.146	0.310	C.3	1	UNK0	0.000	
21	   C	1.439	-1.562	0.030	C.2	1	UNK0	0.000	
22	   O	2.555	-2.185	0.411	O.2	1	UNK0	0.000	
23	   N	0.441	-2.322	-0.537	N.pl3	1	UNK0	0.000	
24	   C	0.666	-3.782	-0.697	C.3	1	UNK0	0.000	
25	   C	-0.647	-4.416	-0.211	C.3	1	UNK0	0.000	
26	   N	-1.367	-3.532	0.643	N.3	1	UNK0	0.000	
27	   C	-1.910	-2.363	0.018	C.3	1	UNK0	0.000	
28	   C	-0.822	-1.883	-0.984	C.3	1	UNK0	0.000	
29	   C	-2.218	-4.144	1.606	C.3	1	UNK0	0.000	
30	   C	-3.341	-4.959	0.998	C.3	1	UNK0	0.000	
31	   C	-1.482	-4.990	2.609	C.3	1	UNK0	0.000	
32	   H	0.070	7.731	-1.937	 H	1	UNK0	0.000	
33	   H	3.047	3.828	-1.535	 H	1	UNK0	0.000	
34	   H	3.706	5.725	-3.026	 H	1	UNK0	0.000	
35	   H	1.634	3.073	0.299	 H	1	UNK0	0.000	
36	   H	-1.728	4.824	1.368	 H	1	UNK0	0.000	
37	   H	-1.680	2.605	1.773	 H	1	UNK0	0.000	
38	   H	0.091	2.719	2.068	 H	1	UNK0	0.000	
39	   H	-0.597	0.364	1.773	 H	1	UNK0	0.000	
40	   H	-1.561	0.807	0.358	 H	1	UNK0	0.000	
41	   H	0.207	3.019	-2.617	 H	1	UNK0	0.000	
42	   H	-1.006	1.662	-2.746	 H	1	UNK0	0.000	
43	   H	-2.169	2.354	-0.814	 H	1	UNK0	0.000	
44	   H	-1.701	3.851	-1.629	 H	1	UNK0	0.000	
45	   H	1.774	-0.077	1.432	 H	1	UNK0	0.000	
46	   H	2.468	0.264	-0.140	 H	1	UNK0	0.000	
47	   H	0.820	-4.008	-1.771	 H	1	UNK0	0.000	
48	   H	1.533	-4.102	-0.123	 H	1	UNK0	0.000	
49	   H	-1.225	-4.772	-1.095	 H	1	UNK0	0.000	
50	   H	-0.348	-5.300	0.387	 H	1	UNK0	0.000	
51	   H	-1.975	-1.552	0.771	 H	1	UNK0	0.000	
52	   H	-2.866	-2.501	-0.491	 H	1	UNK0	0.000	
53	   H	-0.974	-0.847	-1.241	 H	1	UNK0	0.000	
54	   H	-1.027	-2.438	-1.971	 H	1	UNK0	0.000	
55	   H	-2.711	-3.326	2.184	 H	1	UNK0	0.000	
56	   H	-3.966	-4.272	0.382	 H	1	UNK0	0.000	
57	   H	-2.962	-5.815	0.442	 H	1	UNK0	0.000	
58	   H	-3.992	-5.284	1.845	 H	1	UNK0	0.000	
59	   H	-1.153	-5.958	2.198	 H	1	UNK0	0.000	
60	   H	-0.611	-4.379	2.989	 H	1	UNK0	0.000	
61	   H	-2.182	-5.165	3.456	 H	1	UNK0	0.000	
@<TRIPOS>BOND
1 1 2 1
2 2 3 2
3 2 7 1
4 3 4 1
5 4 5 2
6 4 11 1
7 5 6 1
8 5 8 1
9 6 7 2
10 8 9 1
11 9 10 1
12 9 13 1
13 9 19 1
14 10 11 1
15 11 12 2
16 13 14 1
17 14 15 1
18 15 16 1
19 15 20 1
20 16 17 2
21 16 18 1
22 18 19 1
23 20 21 1
24 21 22 2
25 21 23 1
26 23 24 1
27 23 28 1
28 24 25 1
29 25 26 1
30 26 27 1
31 26 29 1
32 27 28 1
33 29 30 1
34 29 31 1
35 3 32 1
36 6 33 1
37 7 34 1
38 8 35 1
39 10 36 1
40 13 37 1
41 13 38 1
42 14 39 1
43 14 40 1
44 18 41 1
45 18 42 1
46 19 43 1
47 19 44 1
48 20 45 1
49 20 46 1
50 24 47 1
51 24 48 1
52 25 49 1
53 25 50 1
54 27 51 1
55 27 52 1
56 28 53 1
57 28 54 1
58 29 55 1
59 30 56 1
60 30 57 1
61 30 58 1
62 31 59 1
63 31 60 1
64 31 61 1
@<TRIPOS>SUBSTRUCTURE
1	UNK0	1	GROUP	1 ****	UNK
