REMARK  5 active torsions:
REMARK  status: ('A' for Active; 'I' for Inactive)
REMARK    1  A    between atoms: C_5  and  N_8 
REMARK    2  A    between atoms: N_15  and  C_18 
REMARK    3  A    between atoms: C_18  and  C_19 
REMARK       I    between atoms: C_19  and  N_21 
REMARK       I    between atoms: N_24  and  C_27 
REMARK    4  A    between atoms: C_27  and  O_29 
REMARK    5  A    between atoms: O_29  and  C_30 
ROOT
ATOM      1  N   UNK d   1      -2.170   2.823  -3.895  0.00  0.00    -0.215 N 
ATOM      2  N   UNK d   1      -3.397   2.386  -3.805  0.00  0.00    -0.177 NA
ATOM      3  C   UNK d   1      -3.497   1.282  -3.057  0.00  0.00     0.160 A 
ATOM      4  C   UNK d   1      -2.214   0.977  -2.623  0.00  0.00     0.099 A 
ATOM      5  C   UNK d   1      -1.409   1.970  -3.172  0.00  0.00     0.169 A 
ATOM      6  N   UNK d   1      -0.104   1.892  -2.898  0.00  0.00    -0.223 NA
ATOM      7  C   UNK d   1       0.402   0.903  -2.129  0.00  0.00     0.215 A 
ATOM      8  N   UNK d   1      -0.349  -0.068  -1.586  0.00  0.00    -0.299 N 
ATOM      9  C   UNK d   1      -1.682  -0.023  -1.843  0.00  0.00     0.264 A 
ATOM     10  O   UNK d   1      -2.425  -0.912  -1.357  0.00  0.00    -0.267 OA
ENDROOT
BRANCH   8  11
ATOM     11  C   UNK d   1       0.193  -1.135  -0.739  0.00  0.00     0.236 C 
BRANCH  11  12
ATOM     12  C   UNK d   1       0.291  -0.725   0.673  0.00  0.00     0.238 C 
ATOM     13  O   UNK d   1       0.706   0.474   0.853  0.00  0.00    -0.272 OA
ATOM     14  N   UNK d   1      -0.017  -1.492   1.794  0.00  0.00    -0.348 N 
ATOM     15  C   UNK d   1       0.191  -0.968   3.153  0.00  0.00     0.145 C 
ATOM     16  C   UNK d   1      -0.581  -2.821   1.713  0.00  0.00     0.145 C 
ATOM     17  C   UNK d   1       1.284  -1.871   3.740  0.00  0.00     0.148 C 
ATOM     18  N   UNK d   1       0.921  -3.256   3.594  0.00  0.00    -0.325 N 
ATOM     19  C   UNK d   1      -0.377  -3.550   3.016  0.00  0.00     0.148 C 
ATOM     20  C   UNK d   1       1.802  -4.292   3.974  0.00  0.00     0.362 C 
ATOM     21  O   UNK d   1       2.958  -3.951   4.425  0.00  0.00    -0.238 OA
BRANCH  20  22
ATOM     22  O   UNK d   1       1.545  -5.643   3.912  0.00  0.00    -0.304 OA
BRANCH  22  23
ATOM     23  C   UNK d   1       2.541  -6.603   4.314  0.00  0.00     0.176 C 
ATOM     24  C   UNK d   1       3.700  -6.440   3.347  0.00  0.00     0.034 C 
ENDBRANCH  22  23
ENDBRANCH  20  22
ENDBRANCH  11  12
ENDBRANCH   8  11
BRANCH   1  25
ATOM     25  C   UNK d   1      -1.714   3.972  -4.591  0.00  0.00     0.060 A 
ATOM     26  C   UNK d   1      -0.468   4.119  -5.143  0.00  0.00     0.033 A 
ATOM     27  C   UNK d   1      -0.117   5.297  -5.773  0.00  0.00     0.026 A 
ATOM     28  C   UNK d   1      -0.969   6.372  -5.886  0.00  0.00     0.034 A 
ATOM     29 Cl   UNK d   1      -0.551   7.863  -6.667  0.00  0.00    -0.084 Cl
ATOM     30  C   UNK d   1      -2.231   6.243  -5.336  0.00  0.00     0.026 A 
ATOM     31  C   UNK d   1      -2.562   5.060  -4.712  0.00  0.00     0.033 A 
ENDBRANCH   1  25
TORSDOF 5
