REMARK  5 active torsions:
REMARK  status: ('A' for Active; 'I' for Inactive)
REMARK    1  A    between atoms: S_1  and  N_4 
REMARK    2  A    between atoms: S_1  and  C_24 
REMARK    3  A    between atoms: N_7  and  C_10 
REMARK    4  A    between atoms: C_10  and  C_11 
REMARK    5  A    between atoms: C_11  and  N_12 
ROOT
ATOM      1  N   UNK d   1      -1.680  -0.681  -2.967  0.00  0.00    -0.303 N 
ATOM      2  C   UNK d   1      -2.688   0.303  -2.672  0.00  0.00     0.165 C 
ATOM      3  C   UNK d   1      -2.077   1.644  -2.336  0.00  0.00     0.293 C 
ATOM      4  N   UNK d   1      -1.094   1.492  -1.234  0.00  0.00     0.093 N 
ATOM      5  C   UNK d   1      -0.010   0.655  -1.728  0.00  0.00     0.293 C 
ATOM      6  C   UNK d   1      -0.371  -0.104  -2.993  0.00  0.00     0.165 C 
ENDROOT
BRANCH   4   7
ATOM      7  C   UNK d   1      -0.607   2.838  -1.021  0.00  0.00     0.293 C 
BRANCH   7   8
ATOM      8  C   UNK d   1       0.226   3.089   0.163  0.00  0.00     0.165 C 
BRANCH   8   9
ATOM      9  N   UNK d   1       1.444   2.373   0.337  0.00  0.00    -0.286 N 
ATOM     10  C   UNK d   1       2.761   2.654  -0.123  0.00  0.00     0.232 C 
ATOM     11  O   UNK d   1       3.042   3.335  -1.120  0.00  0.00    -0.272 OA
ATOM     12  C   UNK d   1       3.734   1.999   0.784  0.00  0.00     0.100 C 
ATOM     13  C   UNK d   1       2.903   0.782   1.251  0.00  0.00     0.100 C 
ATOM     14  C   UNK d   1       4.793   1.315  -0.004  0.00  0.00     0.022 C 
ATOM     15  C   UNK d   1       3.352  -0.353   0.410  0.00  0.00     0.022 C 
ATOM     16  C   UNK d   1       1.504   1.166   1.129  0.00  0.00     0.232 C 
ATOM     17  C   UNK d   1       3.910   0.364  -0.831  0.00  0.00     0.018 C 
ATOM     18  C   UNK d   1       4.686  -0.797   0.973  0.00  0.00    -0.025 C 
ATOM     19  C   UNK d   1       5.429   0.308   0.910  0.00  0.00    -0.025 C 
ATOM     20  O   UNK d   1       0.543   0.535   1.636  0.00  0.00    -0.272 OA
ENDBRANCH   8   9
ENDBRANCH   7   8
ENDBRANCH   4   7
BRANCH   1  21
ATOM     21  S   UNK d   1      -1.859  -2.186  -2.244  0.00  0.00     0.260 S 
ATOM     22  O   UNK d   1      -3.112  -2.835  -2.818  0.00  0.00    -0.200 OA
ATOM     23  O   UNK d   1      -0.724  -3.079  -2.747  0.00  0.00    -0.200 OA
BRANCH  21  24
ATOM     24  C   UNK d   1      -1.834  -2.248  -0.528  0.00  0.00     0.079 A 
ATOM     25  C   UNK d   1      -0.682  -2.569   0.148  0.00  0.00     0.026 A 
ATOM     26  C   UNK d   1      -0.697  -2.599   1.531  0.00  0.00     0.020 A 
ATOM     27  C   UNK d   1      -1.833  -2.318   2.268  0.00  0.00     0.011 A 
ATOM     28  C   UNK d   1      -2.987  -1.996   1.585  0.00  0.00     0.020 A 
ATOM     29 Br   UNK d   1      -1.856  -2.361   4.174  0.00  0.00    -0.051 Br
ATOM     30  C   UNK d   1      -2.971  -1.966   0.195  0.00  0.00     0.026 A 
ENDBRANCH  21  24
ENDBRANCH   1  21
TORSDOF 5
