REMARK  7 active torsions:
REMARK  status: ('A' for Active; 'I' for Inactive)
REMARK    1  A    between atoms: C_5  and  C_8 
REMARK    2  A    between atoms: C_8  and  C_10 
REMARK    3  A    between atoms: N_12  and  C_17 
REMARK    4  A    between atoms: C_17  and  C_18 
REMARK    5  A    between atoms: C_18  and  N_19 
REMARK    6  A    between atoms: C_27  and  O_32 
REMARK    7  A    between atoms: O_32  and  C_33 
ROOT
ATOM      1  C   UNK d   1       0.373  -1.533  -1.888  0.00  0.00     0.167 C 
ATOM      2  C   UNK d   1       0.035  -2.321  -0.651  0.00  0.00     0.140 C 
ATOM      3  N   UNK d   1       1.227  -2.524   0.044  0.00  0.00    -0.334 N 
ATOM      4  C   UNK d   1       2.178  -2.800  -1.060  0.00  0.00     0.291 C 
ATOM      5  O   UNK d   1       3.177  -3.568  -1.028  0.00  0.00    -0.264 OA
ATOM      6  C   UNK d   1       1.740  -2.008  -2.198  0.00  0.00     0.230 C 
ATOM      7  O   UNK d   1       2.416  -1.784  -3.242  0.00  0.00    -0.286 OA
ATOM      8  C   UNK d   1      -1.263  -2.068  -0.078  0.00  0.00    -0.031 A 
ATOM      9  C   UNK d   1      -1.503  -1.381   1.070  0.00  0.00     0.049 A 
ATOM     10  C   UNK d   1      -2.795  -1.175   1.528  0.00  0.00     0.105 A 
ATOM     11  C   UNK d   1      -3.872  -1.689   0.790  0.00  0.00     0.140 A 
ATOM     12  C   UNK d   1      -3.629  -2.379  -0.363  0.00  0.00     0.043 A 
ATOM     13  C   UNK d   1      -2.361  -2.579  -0.812  0.00  0.00     0.012 A 
ATOM     14  O   UNK d   1      -5.178  -1.513   1.202  0.00  0.00    -0.189 OA
ENDROOT
BRANCH   1  15
ATOM     15  C   UNK d   1       0.342  -0.080  -1.721  0.00  0.00     0.173 C 
ATOM     16  O   UNK d   1       0.144   0.416  -0.558  0.00  0.00    -0.291 OA
BRANCH  15  17
ATOM     17  C   UNK d   1       0.522   0.905  -2.778  0.00  0.00     0.011 A 
ATOM     18  C   UNK d   1       0.604   0.545  -4.104  0.00  0.00     0.016 A 
ATOM     19  C   UNK d   1       0.808   1.546  -5.048  0.00  0.00     0.020 A 
ATOM     20  C   UNK d   1       0.931   2.874  -4.731  0.00  0.00     0.011 A 
ATOM     21 Br   UNK d   1       1.212   4.207  -6.095  0.00  0.00    -0.051 Br
ATOM     22  C   UNK d   1       0.849   3.240  -3.404  0.00  0.00     0.020 A 
ATOM     23  C   UNK d   1       0.648   2.251  -2.470  0.00  0.00     0.016 A 
ENDBRANCH  15  17
ENDBRANCH   1  15
BRANCH   3  24
ATOM     24  C   UNK d   1       1.747  -2.666   1.368  0.00  0.00     0.154 C 
BRANCH  24  25
ATOM     25  C   UNK d   1       2.655  -1.603   1.859  0.00  0.00     0.255 C 
BRANCH  25  26
ATOM     26  N   UNK d   1       2.261  -0.262   1.953  0.00  0.00    -0.066 N 
ATOM     27  C   UNK d   1       2.498   0.312   3.284  0.00  0.00     0.261 C 
ATOM     28  C   UNK d   1       3.945   0.358   3.644  0.00  0.00     0.195 C 
ATOM     29  O   UNK d   1       4.708   0.019   2.550  0.00  0.00    -0.388 OA
ATOM     30  C   UNK d   1       4.356   0.882   1.499  0.00  0.00     0.195 C 
ATOM     31  C   UNK d   1       2.986   0.541   0.952  0.00  0.00     0.261 C 
ATOM     32  H   UNK d   1       1.273  -0.126   1.754  0.00  0.00     0.280 HD
ENDBRANCH  25  26
ENDBRANCH  24  25
ENDBRANCH   3  24
BRANCH  10  33
ATOM     33  O   UNK d   1      -3.067  -0.491   2.669  0.00  0.00    -0.349 OA
BRANCH  33  34
ATOM     34  C   UNK d   1      -2.102   0.102   3.476  0.00  0.00     0.171 C 
ATOM     35  C   UNK d   1      -1.327   1.211   2.787  0.00  0.00     0.034 C 
ENDBRANCH  33  34
ENDBRANCH  10  33
TORSDOF 7
