REMARK  3 active torsions:
REMARK  status: ('A' for Active; 'I' for Inactive)
REMARK    1  A    between atoms: C_9  and  C_11 
REMARK       I    between atoms: C_11  and  N_13 
REMARK    2  A    between atoms: N_13  and  C_14 
REMARK    3  A    between atoms: C_14  and  C_15 
ROOT
ATOM      1  C   UNK d   1       0.303  -0.928  -2.037  0.00  0.00     0.254 C 
ATOM      2  O   UNK d   1      -0.220   0.197  -2.152  0.00  0.00    -0.268 OA
ATOM      3  N   UNK d   1       1.206  -1.156  -0.968  0.00  0.00    -0.350 N 
ATOM      4  H   UNK d   1       1.647  -2.084  -0.861  0.00  0.00     0.163 HD
ENDROOT
BRANCH   1   5
ATOM      5  C   UNK d   1      -0.038  -1.960  -3.010  0.00  0.00     0.063 A 
ATOM      6  C   UNK d   1      -1.338  -2.013  -3.482  0.00  0.00     0.098 A 
ATOM      7  C   UNK d   1      -1.684  -2.976  -4.398  0.00  0.00     0.111 A 
ATOM      8  N   UNK d   1      -2.447  -1.268  -3.226  0.00  0.00    -0.257 N 
ATOM      9  C   UNK d   1      -0.732  -3.870  -4.830  0.00  0.00     0.055 A 
ATOM     10  N   UNK d   1      -2.997  -2.788  -4.674  0.00  0.00    -0.130 NA
ATOM     11  C   UNK d   1       0.564  -3.823  -4.363  0.00  0.00     0.014 A 
ATOM     12 Br   UNK d   1       1.866  -5.079  -4.981  0.00  0.00    -0.051 Br
ATOM     13  C   UNK d   1       0.917  -2.865  -3.449  0.00  0.00     0.038 A 
ATOM     14  N   UNK d   1      -3.410  -1.761  -3.954  0.00  0.00    -0.067 NA
ATOM     15  H   UNK d   1      -2.423  -0.473  -2.555  0.00  0.00     0.191 HD
ENDBRANCH   1   5
BRANCH   3  16
ATOM     16  C   UNK d   1       1.525  -0.116  -0.021  0.00  0.00     0.203 C 
BRANCH  16  17
ATOM     17  C   UNK d   1       0.261   0.318   0.670  0.00  0.00     0.148 A 
ATOM     18  N   UNK d   1       0.140   1.261   1.618  0.00  0.00    -0.319 N 
ATOM     19  C   UNK d   1      -1.147   1.383   2.008  0.00  0.00     0.130 A 
ATOM     20  C   UNK d   1       1.094   2.131   2.269  0.00  0.00     0.132 C 
ATOM     21  N   UNK d   1      -1.837   0.494   1.283  0.00  0.00    -0.135 NA
ATOM     22  C   UNK d   1      -1.425   2.399   3.060  0.00  0.00     0.081 C 
ATOM     23  N   UNK d   1      -0.986  -0.153   0.472  0.00  0.00    -0.133 NA
ATOM     24  C   UNK d   1      -0.827   3.702   2.510  0.00  0.00     0.009 C 
ATOM     25  C   UNK d   1       0.610   3.558   2.129  0.00  0.00     0.021 C 
ENDBRANCH  16  17
ENDBRANCH   3  16
TORSDOF 3
