# created with PyMOL 2.3.2
@<TRIPOS>MOLECULE
1687
40 43 1                 
SMALL
USER_CHARGES
@<TRIPOS>ATOM
1	  Cl	7.976	0.527	-1.509	Cl	1	UNK0	0.000	
2	   C	6.352	0.763	-0.864	C.2	1	UNK0	0.000	
3	   C	6.060	1.767	0.035	C.2	1	UNK0	0.000	
4	   C	4.770	1.905	0.507	C.2	1	UNK0	0.000	
5	   N	4.184	2.772	1.377	N.2	1	UNK0	0.000	
6	   C	2.880	2.464	1.489	C.2	1	UNK0	0.000	
7	   N	2.585	1.404	0.707	N.pl3	1	UNK0	0.000	
8	   C	3.744	1.070	0.112	C.2	1	UNK0	0.000	
9	   C	4.025	0.066	-0.785	C.2	1	UNK0	0.000	
10	   C	5.317	-0.066	-1.252	C.2	1	UNK0	0.000	
11	   C	1.281	0.791	0.571	C.3	1	UNK0	0.000	
12	   C	0.478	1.421	-0.546	C.3	1	UNK0	0.000	
13	   N	-0.812	0.743	-0.609	N.pl3	1	UNK0	0.000	
14	   C	-1.864	1.192	0.112	C.2	1	UNK0	0.000	
15	   C	-3.095	0.575	0.075	C.2	1	UNK0	0.000	
16	   C	-3.284	-0.602	-0.764	C.2	1	UNK0	0.000	
17	   N	-4.560	-0.979	-0.600	N.2	1	UNK0	0.000	
18	   N	-5.183	-0.155	0.257	N.pl3	1	UNK0	0.000	
19	   C	-4.319	0.784	0.673	C.2	1	UNK0	0.000	
20	   O	-4.609	1.697	1.479	O.2	1	UNK0	0.000	
21	   C	-2.186	-1.034	-1.489	C.2	1	UNK0	0.000	
22	   C	-1.013	-0.341	-1.372	C.2	1	UNK0	0.000	
23	   C	-2.337	-2.209	-2.340	C.2	1	UNK0	0.000	
24	   O	-1.349	-2.613	-3.004	O.co2	1	UNK0	0.000	
25	   O	-3.526	-2.882	-2.435	O.3	1	UNK0	0.000	
26	   C	-3.670	-4.024	-3.264	C.3	1	UNK0	0.000	
27	   H	6.857	2.425	0.350	 H	1	UNK0	0.000	
28	   H	2.205	3.005	2.118	 H	1	UNK0	0.000	
29	   H	3.211	-0.592	-1.094	 H	1	UNK0	0.000	
30	   H	5.548	-0.852	-1.957	 H	1	UNK0	0.000	
31	   H	1.350	-0.299	0.374	 H	1	UNK0	0.000	
32	   H	0.721	0.916	1.515	 H	1	UNK0	0.000	
33	   H	0.954	1.307	-1.525	 H	1	UNK0	0.000	
34	   H	0.352	2.494	-0.331	 H	1	UNK0	0.000	
35	   H	-1.741	2.061	0.738	 H	1	UNK0	0.000	
36	   H	-6.193	-0.278	0.522	 H	1	UNK0	0.000	
37	   H	-0.145	-0.688	-1.949	 H	1	UNK0	0.000	
38	   H	-2.669	-4.270	-3.691	 H	1	UNK0	0.000	
39	   H	-4.394	-3.817	-4.091	 H	1	UNK0	0.000	
40	   H	-3.978	-4.910	-2.664	 H	1	UNK0	0.000	
@<TRIPOS>BOND
1 1 2 1
2 2 3 2
3 2 10 1
4 3 4 1
5 4 5 1
6 4 8 2
7 5 6 2
8 6 7 1
9 7 8 1
10 7 11 1
11 8 9 1
12 9 10 2
13 11 12 1
14 12 13 1
15 13 14 1
16 13 22 1
17 14 15 2
18 15 16 1
19 15 19 1
20 16 17 2
21 16 21 1
22 17 18 1
23 18 19 1
24 19 20 2
25 21 22 2
26 21 23 1
27 23 24 2
28 23 25 1
29 25 26 1
30 3 27 1
31 6 28 1
32 9 29 1
33 10 30 1
34 11 31 1
35 11 32 1
36 12 33 1
37 12 34 1
38 14 35 1
39 18 36 1
40 22 37 1
41 26 38 1
42 26 39 1
43 26 40 1
@<TRIPOS>SUBSTRUCTURE
1	UNK0	1	GROUP	1 ****	UNK
