REMARK  5 active torsions:
REMARK  status: ('A' for Active; 'I' for Inactive)
REMARK    1  A    between atoms: N_7  and  C_11 
REMARK    2  A    between atoms: C_11  and  C_12 
REMARK    3  A    between atoms: C_12  and  N_13 
REMARK    4  A    between atoms: C_21  and  C_23 
REMARK    5  A    between atoms: C_23  and  O_25 
ROOT
ATOM      1  N   UNK d   1      -0.812   0.743  -0.609  0.00  0.00    -0.363 N 
ATOM      2  C   UNK d   1      -1.864   1.192   0.112  0.00  0.00     0.110 A 
ATOM      3  C   UNK d   1      -3.095   0.575   0.075  0.00  0.00     0.080 A 
ATOM      4  C   UNK d   1      -3.284  -0.602  -0.764  0.00  0.00     0.111 A 
ATOM      5  N   UNK d   1      -4.560  -0.979  -0.600  0.00  0.00    -0.170 NA
ATOM      6  N   UNK d   1      -5.183  -0.155   0.257  0.00  0.00    -0.242 N 
ATOM      7  C   UNK d   1      -4.319   0.784   0.673  0.00  0.00     0.275 A 
ATOM      8  O   UNK d   1      -4.609   1.697   1.479  0.00  0.00    -0.266 OA
ATOM      9  C   UNK d   1      -2.186  -1.034  -1.489  0.00  0.00     0.086 A 
ATOM     10  C   UNK d   1      -1.013  -0.341  -1.372  0.00  0.00     0.110 A 
ATOM     11  H   UNK d   1      -6.193  -0.278   0.522  0.00  0.00     0.192 HD
ENDROOT
BRANCH   1  12
ATOM     12  C   UNK d   1       0.478   1.421  -0.546  0.00  0.00     0.148 C 
BRANCH  12  13
ATOM     13  C   UNK d   1       1.281   0.791   0.571  0.00  0.00     0.150 C 
BRANCH  13  14
ATOM     14  N   UNK d   1       2.585   1.404   0.707  0.00  0.00    -0.338 N 
ATOM     15  C   UNK d   1       2.880   2.464   1.489  0.00  0.00     0.210 A 
ATOM     16  N   UNK d   1       4.184   2.772   1.377  0.00  0.00    -0.242 NA
ATOM     17  C   UNK d   1       4.770   1.905   0.507  0.00  0.00     0.086 A 
ATOM     18  C   UNK d   1       6.060   1.767   0.035  0.00  0.00     0.057 A 
ATOM     19  C   UNK d   1       3.744   1.070   0.112  0.00  0.00     0.064 A 
ATOM     20  C   UNK d   1       6.352   0.763  -0.864  0.00  0.00     0.036 A 
ATOM     21 Cl   UNK d   1       7.976   0.527  -1.509  0.00  0.00    -0.084 Cl
ATOM     22  C   UNK d   1       5.317  -0.066  -1.252  0.00  0.00     0.026 A 
ATOM     23  C   UNK d   1       4.025   0.066  -0.785  0.00  0.00     0.034 A 
ENDBRANCH  13  14
ENDBRANCH  12  13
ENDBRANCH   1  12
BRANCH   9  24
ATOM     24  C   UNK d   1      -2.337  -2.209  -2.340  0.00  0.00     0.296 C 
ATOM     25  O   UNK d   1      -1.349  -2.613  -3.004  0.00  0.00    -0.259 OA
BRANCH  24  26
ATOM     26  O   UNK d   1      -3.526  -2.882  -2.435  0.00  0.00    -0.322 OA
ATOM     27  C   UNK d   1      -3.670  -4.024  -3.264  0.00  0.00     0.213 C 
ENDBRANCH  24  26
ENDBRANCH   9  24
TORSDOF 5
