# created with PyMOL 2.3.2
@<TRIPOS>MOLECULE
1689
49 52 1                 
SMALL
USER_CHARGES
@<TRIPOS>ATOM
1	  Cl	-8.819	0.760	2.174	Cl	1	UNK0	0.000	
2	   C	-7.111	0.457	2.383	C.2	1	UNK0	0.000	
3	   C	-6.187	1.446	2.073	C.2	1	UNK0	0.000	
4	   C	-4.830	1.223	2.235	C.2	1	UNK0	0.000	
5	   N	-3.722	1.952	2.030	N.pl3	1	UNK0	0.000	
6	   C	-2.602	1.249	2.354	C.2	1	UNK0	0.000	
7	   N	-3.068	0.042	2.772	N.2	1	UNK0	0.000	
8	   C	-4.405	0.005	2.708	C.2	1	UNK0	0.000	
9	   C	-5.327	-0.973	3.014	C.2	1	UNK0	0.000	
10	   C	-6.690	-0.766	2.858	C.2	1	UNK0	0.000	
11	   C	-1.218	1.751	2.261	C.3	1	UNK0	0.000	
12	   C	-0.633	1.497	0.905	C.3	1	UNK0	0.000	
13	   C	-0.594	0.047	0.623	C.2	1	UNK0	0.000	
14	   O	-0.909	-0.747	1.543	O.2	1	UNK0	0.000	
15	   N	-0.219	-0.489	-0.627	N.pl3	1	UNK0	0.000	
16	   C	0.197	0.166	-1.850	C.3	1	UNK0	0.000	
17	   C	1.274	-0.691	-2.346	C.3	1	UNK0	0.000	
18	   C	1.240	-1.982	-1.525	C.3	1	UNK0	0.000	
19	   C	-0.185	-1.894	-0.939	C.3	1	UNK0	0.000	
20	   O	1.386	-3.112	-2.290	O.3	1	UNK0	0.000	
21	   N	2.592	-0.211	-2.499	N.pl3	1	UNK0	0.000	
22	   C	3.609	-1.080	-2.251	C.2	1	UNK0	0.000	
23	   C	4.929	-0.709	-2.375	C.2	1	UNK0	0.000	
24	   C	5.256	0.570	-2.760	C.2	1	UNK0	0.000	
25	   O	6.463	0.938	-2.882	O.2	1	UNK0	0.000	
26	   N	4.253	1.427	-3.005	N.pl3	1	UNK0	0.000	
27	   C	2.992	1.010	-2.868	C.2	1	UNK0	0.000	
28	   O	2.100	1.848	-3.111	O.2	1	UNK0	0.000	
29	   C	6.039	-1.679	-2.099	C.3	1	UNK0	0.000	
30	   H	-6.503	2.414	1.698	 H	1	UNK0	0.000	
31	   H	-3.773	2.935	1.664	 H	1	UNK0	0.000	
32	   H	-5.031	-1.940	3.387	 H	1	UNK0	0.000	
33	   H	-7.383	-1.550	3.106	 H	1	UNK0	0.000	
34	   H	-0.601	1.205	3.013	 H	1	UNK0	0.000	
35	   H	-1.195	2.858	2.488	 H	1	UNK0	0.000	
36	   H	-1.337	1.927	0.131	 H	1	UNK0	0.000	
37	   H	0.323	2.016	0.743	 H	1	UNK0	0.000	
38	   H	0.360	1.241	-1.732	 H	1	UNK0	0.000	
39	   H	-0.719	0.102	-2.516	 H	1	UNK0	0.000	
40	   H	0.978	-1.056	-3.384	 H	1	UNK0	0.000	
41	   H	1.916	-1.952	-0.654	 H	1	UNK0	0.000	
42	   H	-0.286	-2.548	-0.048	 H	1	UNK0	0.000	
43	   H	-0.880	-2.176	-1.757	 H	1	UNK0	0.000	
44	   H	0.486	-3.413	-2.572	 H	1	UNK0	0.000	
45	   H	3.443	-2.102	-1.949	 H	1	UNK0	0.000	
46	   H	4.479	2.426	-3.303	 H	1	UNK0	0.000	
47	   H	5.618	-2.629	-1.677	 H	1	UNK0	0.000	
48	   H	6.651	-1.854	-2.978	 H	1	UNK0	0.000	
49	   H	6.694	-1.247	-1.294	 H	1	UNK0	0.000	
@<TRIPOS>BOND
1 1 2 1
2 2 3 2
3 2 10 1
4 3 4 1
5 4 5 1
6 4 8 2
7 5 6 1
8 6 7 2
9 6 11 1
10 7 8 1
11 8 9 1
12 9 10 2
13 11 12 1
14 12 13 1
15 13 14 2
16 13 15 1
17 15 16 1
18 15 19 1
19 16 17 1
20 17 18 1
21 17 21 1
22 18 19 1
23 18 20 1
24 21 22 1
25 21 27 1
26 22 23 2
27 23 24 1
28 23 29 1
29 24 25 2
30 24 26 1
31 26 27 1
32 27 28 2
33 3 30 1
34 5 31 1
35 9 32 1
36 10 33 1
37 11 34 1
38 11 35 1
39 12 36 1
40 12 37 1
41 16 38 1
42 16 39 1
43 17 40 1
44 18 41 1
45 19 42 1
46 19 43 1
47 20 44 1
48 22 45 1
49 26 46 1
50 29 47 1
51 29 48 1
52 29 49 1
@<TRIPOS>SUBSTRUCTURE
1	UNK0	1	GROUP	1 ****	UNK
