REMARK  5 active torsions:
REMARK  status: ('A' for Active; 'I' for Inactive)
REMARK    1  A    between atoms: C_6  and  C_11 
REMARK    2  A    between atoms: C_11  and  C_12 
REMARK    3  A    between atoms: C_12  and  C_13 
REMARK       I    between atoms: C_13  and  N_15 
REMARK    4  A    between atoms: C_17  and  N_21 
REMARK    5  A    between atoms: C_18  and  O_20 
ROOT
ATOM      1  C   UNK d   1      -0.594   0.047   0.623  0.00  0.00     0.220 C 
ATOM      2  O   UNK d   1      -0.909  -0.747   1.543  0.00  0.00    -0.273 OA
ATOM      3  N   UNK d   1      -0.219  -0.489  -0.627  0.00  0.00    -0.348 N 
ATOM      4  C   UNK d   1       0.197   0.166  -1.850  0.00  0.00     0.154 C 
ATOM      5  C   UNK d   1       1.274  -0.691  -2.346  0.00  0.00     0.142 C 
ATOM      6  C   UNK d   1       1.240  -1.982  -1.525  0.00  0.00     0.161 C 
ATOM      7  C   UNK d   1      -0.185  -1.894  -0.939  0.00  0.00     0.159 C 
ENDROOT
BRANCH   1   8
ATOM      8  C   UNK d   1      -0.633   1.497   0.905  0.00  0.00     0.110 C 
BRANCH   8   9
ATOM      9  C   UNK d   1      -1.218   1.751   2.261  0.00  0.00     0.087 C 
BRANCH   9  10
ATOM     10  C   UNK d   1      -2.602   1.249   2.354  0.00  0.00     0.105 A 
ATOM     11  N   UNK d   1      -3.722   1.952   2.030  0.00  0.00    -0.343 N 
ATOM     12  C   UNK d   1      -4.830   1.223   2.235  0.00  0.00     0.064 A 
ATOM     13  H   UNK d   1      -3.773   2.935   1.664  0.00  0.00     0.167 HD
ATOM     14  C   UNK d   1      -6.187   1.446   2.073  0.00  0.00     0.055 A 
ATOM     15  C   UNK d   1      -4.405   0.005   2.708  0.00  0.00     0.085 A 
ATOM     16  C   UNK d   1      -7.111   0.457   2.383  0.00  0.00     0.036 A 
ATOM     17 Cl   UNK d   1      -8.819   0.760   2.174  0.00  0.00    -0.084 Cl
ATOM     18  C   UNK d   1      -6.690  -0.766   2.858  0.00  0.00     0.026 A 
ATOM     19  C   UNK d   1      -5.327  -0.973   3.014  0.00  0.00     0.036 A 
ATOM     20  N   UNK d   1      -3.068   0.042   2.772  0.00  0.00    -0.233 NA
ENDBRANCH   9  10
ENDBRANCH   8   9
ENDBRANCH   1   8
BRANCH   5  21
ATOM     21  N   UNK d   1       2.592  -0.211  -2.499  0.00  0.00    -0.300 N 
ATOM     22  C   UNK d   1       3.609  -1.080  -2.251  0.00  0.00     0.108 A 
ATOM     23  C   UNK d   1       4.929  -0.709  -2.375  0.00  0.00     0.022 A 
ATOM     24  C   UNK d   1       5.256   0.570  -2.760  0.00  0.00     0.256 A 
ATOM     25  C   UNK d   1       6.039  -1.679  -2.099  0.00  0.00     0.056 C 
ATOM     26  O   UNK d   1       6.463   0.938  -2.882  0.00  0.00    -0.267 OA
ATOM     27  N   UNK d   1       4.253   1.427  -3.005  0.00  0.00    -0.275 N 
ATOM     28  C   UNK d   1       2.992   1.010  -2.868  0.00  0.00     0.329 A 
ATOM     29  H   UNK d   1       4.479   2.426  -3.303  0.00  0.00     0.173 HD
ATOM     30  O   UNK d   1       2.100   1.848  -3.111  0.00  0.00    -0.246 OA
ENDBRANCH   5  21
BRANCH   6  31
ATOM     31  O   UNK d   1       1.386  -3.112  -2.290  0.00  0.00    -0.392 OA
ATOM     32  H   UNK d   1       0.486  -3.413  -2.572  0.00  0.00     0.210 HD
ENDBRANCH   6  31
TORSDOF 5
