REMARK  5 active torsions:
REMARK  status: ('A' for Active; 'I' for Inactive)
REMARK    1  A    between atoms: C_6  and  C_11 
REMARK    2  A    between atoms: C_11  and  C_12 
REMARK    3  A    between atoms: C_12  and  C_13 
REMARK       I    between atoms: C_13  and  N_15 
REMARK    4  A    between atoms: C_17  and  N_21 
REMARK    5  A    between atoms: C_18  and  O_20 
ROOT
ATOM      1  C   UNK d   1      -0.536   0.414  -2.537  0.00  0.00     0.220 C 
ATOM      2  O   UNK d   1      -1.449   1.092  -3.046  0.00  0.00    -0.273 OA
ATOM      3  N   UNK d   1      -0.781  -0.908  -2.132  0.00  0.00    -0.348 N 
ATOM      4  C   UNK d   1      -1.961  -1.712  -2.174  0.00  0.00     0.154 C 
ATOM      5  C   UNK d   1      -1.962  -2.467  -0.823  0.00  0.00     0.140 C 
ATOM      6  C   UNK d   1      -0.498  -2.660  -0.642  0.00  0.00     0.161 C 
ATOM      7  C   UNK d   1       0.248  -1.760  -1.568  0.00  0.00     0.159 C 
ENDROOT
BRANCH   1   8
ATOM      8  C   UNK d   1       0.797   1.012  -2.365  0.00  0.00     0.110 C 
BRANCH   8   9
ATOM      9  C   UNK d   1       0.808   2.436  -2.874  0.00  0.00     0.087 C 
BRANCH   9  10
ATOM     10  C   UNK d   1       2.180   3.011  -2.683  0.00  0.00     0.105 A 
ATOM     11  N   UNK d   1       2.539   4.260  -3.028  0.00  0.00    -0.343 N 
ATOM     12  C   UNK d   1       3.830   4.487  -2.734  0.00  0.00     0.064 A 
ATOM     13  H   UNK d   1       1.917   4.989  -3.470  0.00  0.00     0.167 HD
ATOM     14  C   UNK d   1       4.668   5.592  -2.888  0.00  0.00     0.055 A 
ATOM     15  C   UNK d   1       4.302   3.318  -2.177  0.00  0.00     0.085 A 
ATOM     16  C   UNK d   1       5.980   5.520  -2.482  0.00  0.00     0.036 A 
ATOM     17 Cl   UNK d   1       7.077   6.885  -2.654  0.00  0.00    -0.084 Cl
ATOM     18  C   UNK d   1       6.444   4.359  -1.929  0.00  0.00     0.026 A 
ATOM     19  C   UNK d   1       5.617   3.247  -1.769  0.00  0.00     0.036 A 
ATOM     20  N   UNK d   1       3.271   2.448  -2.163  0.00  0.00    -0.233 NA
ENDBRANCH   9  10
ENDBRANCH   8   9
ENDBRANCH   1   8
BRANCH   5  21
ATOM     21  N   UNK d   1      -2.579  -1.632   0.168  0.00  0.00    -0.316 N 
ATOM     22  C   UNK d   1      -2.849  -1.929   1.450  0.00  0.00     0.149 A 
ATOM     23  C   UNK d   1      -3.457  -0.809   2.053  0.00  0.00     0.170 A 
ATOM     24  N   UNK d   1      -2.642  -3.041   2.183  0.00  0.00    -0.287 N 
ATOM     25  N   UNK d   1      -3.532   0.131   1.097  0.00  0.00    -0.234 NA
ATOM     26  C   UNK d   1      -3.844  -0.831   3.374  0.00  0.00     0.283 A 
ATOM     27  C   UNK d   1      -3.013  -0.343  -0.033  0.00  0.00     0.212 A 
ATOM     28  O   UNK d   1      -4.385   0.186   3.885  0.00  0.00    -0.265 OA
ATOM     29  N   UNK d   1      -3.621  -1.953   4.068  0.00  0.00    -0.269 N 
ATOM     30  C   UNK d   1      -3.045  -3.008   3.490  0.00  0.00     0.332 A 
ATOM     31  C   UNK d   1      -4.021  -2.007   5.476  0.00  0.00     0.164 C 
ATOM     32  O   UNK d   1      -2.843  -4.057   4.157  0.00  0.00    -0.246 OA
ATOM     33  C   UNK d   1      -2.032  -4.208   1.629  0.00  0.00     0.163 C 
ENDBRANCH   5  21
BRANCH   6  34
ATOM     34  O   UNK d   1      -0.075  -3.961  -0.912  0.00  0.00    -0.392 OA
ATOM     35  H   UNK d   1      -0.808  -4.511  -1.308  0.00  0.00     0.210 HD
ENDBRANCH   6  34
TORSDOF 5
