# created with PyMOL 2.3.2
@<TRIPOS>MOLECULE
1699
50 53 1                 
SMALL
USER_CHARGES
@<TRIPOS>ATOM
1	  Cl	-0.348	0.664	5.119	Cl	1	UNK0	0.000	
2	   C	-0.817	0.721	3.451	C.2	1	UNK0	0.000	
3	   C	-0.519	-0.326	2.591	C.2	1	UNK0	0.000	
4	   C	-0.886	-0.295	1.261	C.2	1	UNK0	0.000	
5	   C	-1.558	0.805	0.806	C.2	1	UNK0	0.000	
6	   C	-1.878	1.880	1.641	C.2	1	UNK0	0.000	
7	   C	-1.497	1.816	2.963	C.2	1	UNK0	0.000	
8	   N	-1.829	0.662	-0.582	N.pl3	1	UNK0	0.000	
9	   C	-1.298	-0.583	-1.009	C.2	1	UNK0	0.000	
10	   O	-1.372	-0.951	-2.226	O.2	1	UNK0	0.000	
11	   C	-0.724	-1.240	0.158	C.3	1	UNK0	0.000	
12	   N	-1.371	-2.524	0.441	N.3	1	UNK0	0.000	
13	   C	-0.789	-3.361	-0.584	C.3	1	UNK0	0.000	
14	   C	0.647	-2.961	-0.688	C.3	1	UNK0	0.000	
15	   C	0.701	-1.654	0.044	C.3	1	UNK0	0.000	
16	   C	1.555	-0.729	-0.741	C.2	1	UNK0	0.000	
17	   O	1.876	0.403	-0.294	O.2	1	UNK0	0.000	
18	   N	1.873	-1.371	-1.965	N.pl3	1	UNK0	0.000	
19	   C	1.035	-2.528	-2.069	C.2	1	UNK0	0.000	
20	   O	0.667	-3.109	-3.095	O.2	1	UNK0	0.000	
21	   C	2.840	-0.958	-2.910	C.3	1	UNK0	0.000	
22	   C	2.431	-0.077	-4.024	C.3	1	UNK0	0.000	
23	   C	1.864	1.248	-3.687	C.3	1	UNK0	0.000	
24	   O	0.694	1.240	-2.943	O.3	1	UNK0	0.000	
25	   C	0.321	2.589	-2.729	C.3	1	UNK0	0.000	
26	   C	-0.975	-4.830	-0.303	C.3	1	UNK0	0.000	
27	   O	-0.384	-5.538	-1.342	O.3	1	UNK0	0.000	
28	   C	-0.378	-5.248	1.016	C.3	1	UNK0	0.000	
29	   H	0.022	-1.206	2.965	 H	1	UNK0	0.000	
30	   H	-2.414	2.751	1.270	 H	1	UNK0	0.000	
31	   H	-1.760	2.668	3.590	 H	1	UNK0	0.000	
32	   H	-2.342	1.360	-1.198	 H	1	UNK0	0.000	
33	   H	-0.981	-2.832	1.360	 H	1	UNK0	0.000	
34	   H	-1.289	-3.172	-1.554	 H	1	UNK0	0.000	
35	   H	1.358	-3.711	-0.337	 H	1	UNK0	0.000	
36	   H	1.105	-1.779	1.080	 H	1	UNK0	0.000	
37	   H	3.448	-1.827	-3.314	 H	1	UNK0	0.000	
38	   H	3.636	-0.381	-2.335	 H	1	UNK0	0.000	
39	   H	1.790	-0.593	-4.787	 H	1	UNK0	0.000	
40	   H	3.378	0.132	-4.618	 H	1	UNK0	0.000	
41	   H	2.585	1.893	-3.099	 H	1	UNK0	0.000	
42	   H	1.702	1.839	-4.623	 H	1	UNK0	0.000	
43	   H	1.178	3.033	-2.180	 H	1	UNK0	0.000	
44	   H	-0.548	2.671	-2.052	 H	1	UNK0	0.000	
45	   H	0.174	3.123	-3.671	 H	1	UNK0	0.000	
46	   H	-2.042	-5.050	-0.294	 H	1	UNK0	0.000	
47	   H	0.491	-5.929	-1.089	 H	1	UNK0	0.000	
48	   H	-0.945	-4.827	1.860	 H	1	UNK0	0.000	
49	   H	0.709	-5.040	1.076	 H	1	UNK0	0.000	
50	   H	-0.484	-6.353	1.083	 H	1	UNK0	0.000	
@<TRIPOS>BOND
1 1 2 1
2 2 3 2
3 2 7 1
4 3 4 1
5 4 5 2
6 4 11 1
7 5 6 1
8 5 8 1
9 6 7 2
10 8 9 1
11 9 10 2
12 9 11 1
13 11 12 1
14 11 15 1
15 12 13 1
16 13 14 1
17 13 26 1
18 14 15 1
19 14 19 1
20 15 16 1
21 16 17 2
22 16 18 1
23 18 19 1
24 18 21 1
25 19 20 2
26 21 22 1
27 22 23 1
28 23 24 1
29 24 25 1
30 26 27 1
31 26 28 1
32 3 29 1
33 6 30 1
34 7 31 1
35 8 32 1
36 12 33 1
37 13 34 1
38 14 35 1
39 15 36 1
40 21 37 1
41 21 38 1
42 22 39 1
43 22 40 1
44 23 41 1
45 23 42 1
46 25 43 1
47 25 44 1
48 25 45 1
49 26 46 1
50 27 47 1
51 28 48 1
52 28 49 1
53 28 50 1
@<TRIPOS>SUBSTRUCTURE
1	UNK0	1	GROUP	1 ****	UNK
