REMARK  6 active torsions:
REMARK  status: ('A' for Active; 'I' for Inactive)
REMARK    1  A    between atoms: C_13  and  C_26 
REMARK    2  A    between atoms: N_18  and  C_21 
REMARK    3  A    between atoms: C_21  and  C_22 
REMARK    4  A    between atoms: C_22  and  C_23 
REMARK    5  A    between atoms: C_23  and  O_24 
REMARK    6  A    between atoms: C_26  and  O_27 
ROOT
ATOM      1 Cl   UNK d   1      -0.348   0.664   5.119  0.00  0.00    -0.084 Cl
ATOM      2  C   UNK d   1      -0.817   0.721   3.451  0.00  0.00     0.034 A 
ATOM      3  C   UNK d   1      -0.519  -0.326   2.591  0.00  0.00     0.036 A 
ATOM      4  C   UNK d   1      -0.886  -0.295   1.261  0.00  0.00     0.019 A 
ATOM      5  C   UNK d   1      -1.558   0.805   0.806  0.00  0.00     0.044 A 
ATOM      6  C   UNK d   1      -1.878   1.880   1.641  0.00  0.00     0.032 A 
ATOM      7  C   UNK d   1      -1.497   1.816   2.963  0.00  0.00     0.026 A 
ATOM      8  N   UNK d   1      -1.829   0.662  -0.582  0.00  0.00    -0.324 N 
ATOM      9  C   UNK d   1      -1.298  -0.583  -1.009  0.00  0.00     0.267 A 
ATOM     10  O   UNK d   1      -1.372  -0.951  -2.226  0.00  0.00    -0.270 OA
ATOM     11  C   UNK d   1      -0.724  -1.240   0.158  0.00  0.00     0.279 A 
ATOM     12  N   UNK d   1      -1.371  -2.524   0.441  0.00  0.00     0.116 N 
ATOM     13  C   UNK d   1      -0.789  -3.361  -0.584  0.00  0.00     0.264 C 
ATOM     14  C   UNK d   1       0.647  -2.961  -0.688  0.00  0.00     0.130 C 
ATOM     15  C   UNK d   1       0.701  -1.654   0.044  0.00  0.00     0.147 C 
ATOM     16  C   UNK d   1       1.555  -0.729  -0.741  0.00  0.00     0.234 C 
ATOM     17  O   UNK d   1       1.876   0.403  -0.294  0.00  0.00    -0.272 OA
ATOM     18  N   UNK d   1       1.873  -1.371  -1.965  0.00  0.00    -0.287 N 
ATOM     19  C   UNK d   1       1.035  -2.528  -2.069  0.00  0.00     0.233 C 
ATOM     20  O   UNK d   1       0.667  -3.109  -3.095  0.00  0.00    -0.272 OA
ATOM     21  H   UNK d   1      -2.342   1.360  -1.198  0.00  0.00     0.169 HD
ATOM     22  H   UNK d   1      -0.981  -2.832   1.360  0.00  0.00     0.318 HD
ENDROOT
BRANCH  13  23
ATOM     23  C   UNK d   1      -0.975  -4.830  -0.303  0.00  0.00     0.148 C 
ATOM     24  C   UNK d   1      -0.378  -5.248   1.016  0.00  0.00     0.041 C 
BRANCH  23  25
ATOM     25  O   UNK d   1      -0.384  -5.538  -1.342  0.00  0.00    -0.394 OA
ATOM     26  H   UNK d   1       0.491  -5.929  -1.089  0.00  0.00     0.210 HD
ENDBRANCH  23  25
ENDBRANCH  13  23
BRANCH  18  27
ATOM     27  C   UNK d   1       2.840  -0.958  -2.910  0.00  0.00     0.137 C 
BRANCH  27  28
ATOM     28  C   UNK d   1       2.431  -0.077  -4.024  0.00  0.00     0.046 C 
BRANCH  28  29
ATOM     29  C   UNK d   1       1.864   1.248  -3.687  0.00  0.00     0.168 C 
BRANCH  29  30
ATOM     30  O   UNK d   1       0.694   1.240  -2.943  0.00  0.00    -0.396 OA
ATOM     31  C   UNK d   1       0.321   2.589  -2.729  0.00  0.00     0.201 C 
ENDBRANCH  29  30
ENDBRANCH  28  29
ENDBRANCH  27  28
ENDBRANCH  18  27
TORSDOF 6
