REMARK  0 active torsions:
REMARK  status: ('A' for Active; 'I' for Inactive)
ROOT
ATOM      1  F   UNK d   1      -1.203  -0.035  -5.519  0.00  0.00    -0.202 F 
ATOM      2  C   UNK d   1      -1.490  -0.033  -4.174  0.00  0.00     0.165 A 
ATOM      3  C   UNK d   1      -0.490   0.361  -3.276  0.00  0.00     0.086 A 
ATOM      4  C   UNK d   1      -0.754   0.370  -1.940  0.00  0.00     0.030 A 
ATOM      5  C   UNK d   1      -2.017  -0.012  -1.467  0.00  0.00     0.016 A 
ATOM      6  C   UNK d   1      -2.975  -0.392  -2.366  0.00  0.00     0.028 A 
ATOM      7  C   UNK d   1      -2.730  -0.409  -3.718  0.00  0.00     0.074 A 
ATOM      8 Cl   UNK d   1      -3.973  -0.901  -4.876  0.00  0.00    -0.081 Cl
ATOM      9  C   UNK d   1       0.464   0.824  -1.219  0.00  0.00     0.222 A 
ATOM     10  N   UNK d   1       0.879  -0.193  -0.305  0.00  0.00    -0.336 N 
ATOM     11  C   UNK d   1       0.352  -0.257   1.002  0.00  0.00     0.141 A 
ATOM     12  N   UNK d   1       0.462  -1.372   1.770  0.00  0.00    -0.243 NA
ATOM     13  C   UNK d   1      -0.019  -1.485   3.012  0.00  0.00     0.119 A 
ATOM     14  C   UNK d   1      -0.680  -0.403   3.583  0.00  0.00     0.020 A 
ATOM     15  C   UNK d   1      -0.834   0.757   2.877  0.00  0.00     0.022 A 
ATOM     16  C   UNK d   1      -0.313   0.803   1.602  0.00  0.00     0.077 A 
ATOM     17  C   UNK d   1      -0.425   2.000   0.763  0.00  0.00     0.258 C 
ATOM     18  O   UNK d   1      -1.031   3.002   1.275  0.00  0.00    -0.267 OA
ATOM     19  N   UNK d   1       0.104   2.056  -0.539  0.00  0.00    -0.318 N 
ATOM     20  C   UNK d   1       1.448   1.070  -2.279  0.00  0.00     0.277 A 
ATOM     21  O   UNK d   1       2.659   1.478  -2.135  0.00  0.00    -0.268 OA
ATOM     22  N   UNK d   1       0.857   0.787  -3.521  0.00  0.00    -0.320 N 
ATOM     23  H   UNK d   1       1.586  -0.918  -0.580  0.00  0.00     0.164 HD
ATOM     24  H   UNK d   1       0.217   3.001  -0.973  0.00  0.00     0.166 HD
ATOM     25  H   UNK d   1       1.272   0.854  -4.488  0.00  0.00     0.169 HD
ENDROOT
TORSDOF 0
