# created with PyMOL 2.3.2
@<TRIPOS>MOLECULE
1711
48 51 1                 
SMALL
USER_CHARGES
@<TRIPOS>ATOM
1	   S	-3.124	1.685	-2.453	S.O2	1	UNK0	0.000	
2	   O	-4.126	2.826	-2.342	O.2	1	UNK0	0.000	
3	   O	-3.344	1.102	-3.836	O.2	1	UNK0	0.000	
4	   N	-1.574	2.326	-2.386	N.3	1	UNK0	0.000	
5	   C	-1.200	2.972	-1.177	C.3	1	UNK0	0.000	
6	   C	0.079	2.437	-0.584	C.3	1	UNK0	0.000	
7	   N	0.263	1.033	-0.844	N.pl3	1	UNK0	0.000	
8	   C	0.116	0.539	-2.192	C.3	1	UNK0	0.000	
9	   C	-0.536	1.601	-3.022	C.3	1	UNK0	0.000	
10	   C	0.586	0.110	0.181	C.2	1	UNK0	0.000	
11	   O	0.715	0.528	1.348	O.2	1	UNK0	0.000	
12	   C	0.774	-1.332	-0.094	C.3	1	UNK0	0.000	
13	   N	1.094	-2.052	1.104	N.pl3	1	UNK0	0.000	
14	   C	0.233	-2.682	2.043	C.2	1	UNK0	0.000	
15	   O	-1.014	-2.700	1.951	O.2	1	UNK0	0.000	
16	   C	1.050	-3.278	3.087	C.2	1	UNK0	0.000	
17	   C	2.375	-3.032	2.815	C.2	1	UNK0	0.000	
18	   C	3.349	-3.509	3.682	C.2	1	UNK0	0.000	
19	   C	3.024	-4.220	4.804	C.2	1	UNK0	0.000	
20	   C	1.684	-4.477	5.092	C.2	1	UNK0	0.000	
21	   C	0.727	-3.992	4.213	C.2	1	UNK0	0.000	
22	   C	2.429	-2.265	1.577	C.2	1	UNK0	0.000	
23	   O	3.514	-1.885	1.064	O.2	1	UNK0	0.000	
24	   C	-3.476	0.450	-1.305	C.2	1	UNK0	0.000	
25	   C	-3.989	0.789	-0.064	C.2	1	UNK0	0.000	
26	   C	-4.289	-0.160	0.892	C.2	1	UNK0	0.000	
27	   C	-4.063	-1.488	0.579	C.2	1	UNK0	0.000	
28	   C	-3.551	-1.811	-0.661	C.2	1	UNK0	0.000	
29	   C	-3.247	-0.873	-1.626	C.2	1	UNK0	0.000	
30	  Br	-4.460	-2.864	1.867	Br	1	UNK0	0.000	
31	   H	-1.003	4.056	-1.427	 H	1	UNK0	0.000	
32	   H	-2.037	2.981	-0.448	 H	1	UNK0	0.000	
33	   H	0.071	2.630	0.505	 H	1	UNK0	0.000	
34	   H	0.950	3.019	-0.984	 H	1	UNK0	0.000	
35	   H	1.137	0.362	-2.642	 H	1	UNK0	0.000	
36	   H	-0.437	-0.413	-2.168	 H	1	UNK0	0.000	
37	   H	-0.874	1.203	-3.996	 H	1	UNK0	0.000	
38	   H	0.276	2.343	-3.283	 H	1	UNK0	0.000	
39	   H	1.636	-1.413	-0.813	 H	1	UNK0	0.000	
40	   H	-0.130	-1.770	-0.575	 H	1	UNK0	0.000	
41	   H	4.375	-3.303	3.448	 H	1	UNK0	0.000	
42	   H	3.770	-4.587	5.470	 H	1	UNK0	0.000	
43	   H	1.374	-5.026	5.952	 H	1	UNK0	0.000	
44	   H	-0.312	-4.195	4.443	 H	1	UNK0	0.000	
45	   H	-4.183	1.829	0.222	 H	1	UNK0	0.000	
46	   H	-4.691	0.076	1.869	 H	1	UNK0	0.000	
47	   H	-3.365	-2.862	-0.927	 H	1	UNK0	0.000	
48	   H	-2.842	-1.181	-2.595	 H	1	UNK0	0.000	
@<TRIPOS>BOND
1 1 2 2
2 1 3 2
3 1 4 1
4 1 24 1
5 4 5 1
6 4 9 1
7 5 6 1
8 6 7 1
9 7 8 1
10 7 10 1
11 8 9 1
12 10 11 2
13 10 12 1
14 12 13 1
15 13 14 1
16 13 22 1
17 14 15 2
18 14 16 1
19 16 17 2
20 16 21 1
21 17 18 1
22 17 22 1
23 18 19 2
24 19 20 1
25 20 21 2
26 22 23 2
27 24 25 2
28 24 29 1
29 25 26 1
30 26 27 2
31 27 28 1
32 27 30 1
33 28 29 2
34 5 31 1
35 5 32 1
36 6 33 1
37 6 34 1
38 8 35 1
39 8 36 1
40 9 37 1
41 9 38 1
42 12 39 1
43 12 40 1
44 18 41 1
45 19 42 1
46 20 43 1
47 21 44 1
48 25 45 1
49 26 46 1
50 28 47 1
51 29 48 1
@<TRIPOS>SUBSTRUCTURE
1	UNK0	1	GROUP	1 ****	UNK
