REMARK  4 active torsions:
REMARK  status: ('A' for Active; 'I' for Inactive)
REMARK    1  A    between atoms: S_1  and  N_4 
REMARK    2  A    between atoms: S_1  and  C_24 
REMARK       I    between atoms: N_7  and  C_10 
REMARK    3  A    between atoms: C_10  and  C_12 
REMARK    4  A    between atoms: C_12  and  N_13 
ROOT
ATOM      1  N   UNK d   1      -1.574   2.326  -2.386  0.00  0.00    -0.304 N 
ATOM      2  C   UNK d   1      -1.200   2.972  -1.177  0.00  0.00     0.155 C 
ATOM      3  C   UNK d   1       0.079   2.437  -0.584  0.00  0.00     0.146 C 
ATOM      4  N   UNK d   1       0.263   1.033  -0.844  0.00  0.00    -0.348 N 
ATOM      5  C   UNK d   1       0.116   0.539  -2.192  0.00  0.00     0.146 C 
ATOM      6  C   UNK d   1      -0.536   1.601  -3.022  0.00  0.00     0.155 C 
ATOM      7  C   UNK d   1       0.586   0.110   0.181  0.00  0.00     0.238 C 
ATOM      8  O   UNK d   1       0.715   0.528   1.348  0.00  0.00    -0.272 OA
ENDROOT
BRANCH   7   9
ATOM      9  C   UNK d   1       0.774  -1.332  -0.094  0.00  0.00     0.238 C 
BRANCH   9  10
ATOM     10  N   UNK d   1       1.094  -2.052   1.104  0.00  0.00    -0.271 N 
ATOM     11  C   UNK d   1       0.233  -2.682   2.043  0.00  0.00     0.262 A 
ATOM     12  O   UNK d   1      -1.014  -2.700   1.951  0.00  0.00    -0.267 OA
ATOM     13  C   UNK d   1       1.050  -3.278   3.087  0.00  0.00     0.048 A 
ATOM     14  C   UNK d   1       2.375  -3.032   2.815  0.00  0.00     0.048 A 
ATOM     15  C   UNK d   1       0.727  -3.992   4.213  0.00  0.00     0.018 A 
ATOM     16  C   UNK d   1       3.349  -3.509   3.682  0.00  0.00     0.018 A 
ATOM     17  C   UNK d   1       2.429  -2.265   1.577  0.00  0.00     0.262 A 
ATOM     18  C   UNK d   1       3.024  -4.220   4.804  0.00  0.00     0.001 A 
ATOM     19  C   UNK d   1       1.684  -4.477   5.092  0.00  0.00     0.001 A 
ATOM     20  O   UNK d   1       3.514  -1.885   1.064  0.00  0.00    -0.267 OA
ENDBRANCH   9  10
ENDBRANCH   7   9
BRANCH   1  21
ATOM     21  S   UNK d   1      -3.124   1.685  -2.453  0.00  0.00     0.260 S 
ATOM     22  O   UNK d   1      -4.126   2.826  -2.342  0.00  0.00    -0.200 OA
ATOM     23  O   UNK d   1      -3.344   1.102  -3.836  0.00  0.00    -0.200 OA
BRANCH  21  24
ATOM     24  C   UNK d   1      -3.476   0.450  -1.305  0.00  0.00     0.079 A 
ATOM     25  C   UNK d   1      -3.989   0.789  -0.064  0.00  0.00     0.026 A 
ATOM     26  C   UNK d   1      -4.289  -0.160   0.892  0.00  0.00     0.020 A 
ATOM     27  C   UNK d   1      -4.063  -1.488   0.579  0.00  0.00     0.011 A 
ATOM     28  C   UNK d   1      -3.551  -1.811  -0.661  0.00  0.00     0.020 A 
ATOM     29 Br   UNK d   1      -4.460  -2.864   1.867  0.00  0.00    -0.051 Br
ATOM     30  C   UNK d   1      -3.247  -0.873  -1.626  0.00  0.00     0.026 A 
ENDBRANCH  21  24
ENDBRANCH   1  21
TORSDOF 4
