REMARK  4 active torsions:
REMARK  status: ('A' for Active; 'I' for Inactive)
REMARK    1  A    between atoms: C_10  and  C_24 
REMARK    2  A    between atoms: N_15  and  C_18 
REMARK    3  A    between atoms: C_18  and  C_19 
REMARK    4  A    between atoms: C_24  and  C_25 
REMARK       I    between atoms: C_25  and  N_27 
ROOT
ATOM      1 Cl   UNK d   1      -5.673   0.150   1.367  0.00  0.00    -0.082 Cl
ATOM      2  C   UNK d   1      -4.265  -0.534   2.147  0.00  0.00     0.061 A 
ATOM      3  C   UNK d   1      -3.019  -0.213   1.607  0.00  0.00     0.066 A 
ATOM      4  C   UNK d   1      -1.886  -0.732   2.193  0.00  0.00     0.019 A 
ATOM      5  C   UNK d   1      -2.044  -1.560   3.306  0.00  0.00     0.013 A 
ATOM      6  C   UNK d   1      -3.279  -1.872   3.832  0.00  0.00     0.002 A 
ATOM      7  C   UNK d   1      -4.413  -1.351   3.245  0.00  0.00     0.026 A 
ATOM      8  C   UNK d   1      -0.685  -0.286   1.487  0.00  0.00     0.279 A 
ATOM      9  N   UNK d   1       0.255   0.403   2.351  0.00  0.00     0.114 N 
ATOM     10  C   UNK d   1       1.540   0.304   1.672  0.00  0.00     0.245 C 
ATOM     11  C   UNK d   1       1.537  -1.018   0.955  0.00  0.00     0.128 C 
ATOM     12  C   UNK d   1       0.087  -1.423   0.856  0.00  0.00     0.147 C 
ATOM     13  C   UNK d   1      -0.203  -1.543  -0.595  0.00  0.00     0.235 C 
ATOM     14  O   UNK d   1      -1.375  -1.740  -1.021  0.00  0.00    -0.272 OA
ATOM     15  N   UNK d   1       1.000  -1.404  -1.332  0.00  0.00    -0.285 N 
ATOM     16  C   UNK d   1       1.949  -0.790  -0.473  0.00  0.00     0.233 C 
ATOM     17  O   UNK d   1       2.989  -0.144  -0.785  0.00  0.00    -0.272 OA
ATOM     18  C   UNK d   1      -1.188   0.574   0.404  0.00  0.00     0.267 A 
ATOM     19  O   UNK d   1      -0.497   1.202  -0.479  0.00  0.00    -0.270 OA
ATOM     20  N   UNK d   1      -2.601   0.589   0.510  0.00  0.00    -0.323 N 
ATOM     21  H   UNK d   1       0.293  -0.021   3.305  0.00  0.00     0.318 HD
ATOM     22  H   UNK d   1      -3.259   1.115  -0.127  0.00  0.00     0.169 HD
ENDROOT
BRANCH  10  23
ATOM     23  C   UNK d   1       2.638   0.400   2.690  0.00  0.00     0.139 C 
BRANCH  23  24
ATOM     24  C   UNK d   1       2.493   1.727   3.369  0.00  0.00     0.217 C 
ATOM     25  O   UNK d   1       3.333   1.995   4.266  0.00  0.00    -0.274 OA
ATOM     26  N   UNK d   1       1.469   2.649   3.034  0.00  0.00    -0.370 N 
ATOM     27  H   UNK d   1       1.555   3.171   2.140  0.00  0.00     0.159 HD
ATOM     28  H   UNK d   1       0.636   2.836   3.626  0.00  0.00     0.159 HD
ENDBRANCH  23  24
ENDBRANCH  10  23
BRANCH  15  29
ATOM     29  C   UNK d   1       1.216  -1.807  -2.674  0.00  0.00     0.166 C 
BRANCH  29  30
ATOM     30  C   UNK d   1       0.933  -0.818  -3.734  0.00  0.00     0.140 C 
ATOM     31  O   UNK d   1       1.672   0.353  -3.664  0.00  0.00    -0.384 OA
ATOM     32  C   UNK d   1       1.261   0.998  -4.831  0.00  0.00     0.168 C 
ATOM     33  C   UNK d   1      -0.264   0.834  -4.851  0.00  0.00     0.029 C 
ATOM     34  C   UNK d   1      -0.461  -0.324  -3.858  0.00  0.00     0.035 C 
ENDBRANCH  29  30
ENDBRANCH  15  29
TORSDOF 4
