# created with PyMOL 2.3.2
@<TRIPOS>MOLECULE
1721
43 46 1                 
SMALL
USER_CHARGES
@<TRIPOS>ATOM
1	  Cl	4.140	-0.409	0.571	Cl	1	UNK0	0.000	
2	   C	2.899	0.693	0.035	C.2	1	UNK0	0.000	
3	   N	2.751	1.894	0.578	N.2	1	UNK0	0.000	
4	   C	1.830	2.798	0.228	C.2	1	UNK0	0.000	
5	   N	1.503	4.038	0.626	N.2	1	UNK0	0.000	
6	   C	0.462	4.476	-0.102	C.2	1	UNK0	0.000	
7	   N	0.149	3.486	-0.959	N.pl3	1	UNK0	0.000	
8	   C	0.961	2.431	-0.796	C.2	1	UNK0	0.000	
9	   C	1.106	1.189	-1.366	C.2	1	UNK0	0.000	
10	   N	2.056	0.336	-0.960	N.2	1	UNK0	0.000	
11	   N	0.184	0.849	-2.428	N.pl3	1	UNK0	0.000	
12	   C	0.282	-0.416	-3.053	C.3	1	UNK0	0.000	
13	   C	-0.306	-1.536	-2.335	C.2	1	UNK0	0.000	
14	   O	-0.063	-2.718	-2.942	O.2	1	UNK0	0.000	
15	   N	-1.044	-1.604	-1.186	N.pl3	1	UNK0	0.000	
16	   C	-1.549	-0.535	-0.394	C.3	1	UNK0	0.000	
17	   C	-0.928	-0.520	1.001	C.3	1	UNK0	0.000	
18	   N	-0.649	-1.893	1.310	N.pl3	1	UNK0	0.000	
19	   C	-1.567	-2.886	0.833	C.3	1	UNK0	0.000	
20	   C	-1.344	-2.997	-0.679	C.3	1	UNK0	0.000	
21	   C	0.475	-2.290	2.056	C.2	1	UNK0	0.000	
22	   N	0.734	-3.603	2.324	N.2	1	UNK0	0.000	
23	   C	1.769	-4.042	3.018	C.2	1	UNK0	0.000	
24	   C	2.695	-3.185	3.543	C.2	1	UNK0	0.000	
25	   C	2.492	-1.833	3.308	C.2	1	UNK0	0.000	
26	   C	1.399	-1.396	2.576	C.2	1	UNK0	0.000	
27	   H	-0.056	5.436	-0.043	 H	1	UNK0	0.000	
28	   H	-0.620	3.484	-1.681	 H	1	UNK0	0.000	
29	   H	-0.522	1.530	-2.721	 H	1	UNK0	0.000	
30	   H	-0.081	-0.378	-4.130	 H	1	UNK0	0.000	
31	   H	1.406	-0.648	-3.111	 H	1	UNK0	0.000	
32	   H	-1.417	0.426	-0.849	 H	1	UNK0	0.000	
33	   H	-2.671	-0.738	-0.233	 H	1	UNK0	0.000	
34	   H	-1.684	-0.144	1.732	 H	1	UNK0	0.000	
35	   H	-0.080	0.148	1.006	 H	1	UNK0	0.000	
36	   H	-2.628	-2.586	0.967	 H	1	UNK0	0.000	
37	   H	-1.349	-3.874	1.270	 H	1	UNK0	0.000	
38	   H	-2.240	-3.363	-1.162	 H	1	UNK0	0.000	
39	   H	-0.449	-3.576	-0.924	 H	1	UNK0	0.000	
40	   H	1.899	-5.120	3.186	 H	1	UNK0	0.000	
41	   H	3.527	-3.548	4.102	 H	1	UNK0	0.000	
42	   H	3.225	-1.126	3.720	 H	1	UNK0	0.000	
43	   H	1.287	-0.354	2.424	 H	1	UNK0	0.000	
@<TRIPOS>BOND
1 1 2 1
2 2 3 2
3 2 10 1
4 3 4 1
5 4 5 1
6 4 8 2
7 5 6 2
8 6 7 1
9 7 8 1
10 8 9 1
11 9 10 2
12 9 11 1
13 11 12 1
14 12 13 1
15 13 14 2
16 13 15 1
17 15 16 1
18 15 20 1
19 16 17 1
20 17 18 1
21 18 19 1
22 18 21 1
23 19 20 1
24 21 22 2
25 21 26 1
26 22 23 1
27 23 24 2
28 24 25 1
29 25 26 2
30 6 27 1
31 7 28 1
32 11 29 1
33 12 30 1
34 12 31 1
35 16 32 1
36 16 33 1
37 17 34 1
38 17 35 1
39 19 36 1
40 19 37 1
41 20 38 1
42 20 39 1
43 23 40 1
44 24 41 1
45 25 42 1
46 26 43 1
@<TRIPOS>SUBSTRUCTURE
1	UNK0	1	GROUP	1 ****	UNK
