REMARK  4 active torsions:
REMARK  status: ('A' for Active; 'I' for Inactive)
REMARK    1  A    between atoms: C_9  and  N_11 
REMARK    2  A    between atoms: N_11  and  C_12 
REMARK    3  A    between atoms: C_12  and  C_13 
REMARK       I    between atoms: C_13  and  N_15 
REMARK    4  A    between atoms: N_18  and  C_21 
ROOT
ATOM      1  C   UNK d   1       0.282  -0.416  -3.053  0.00  0.00     0.208 C 
ENDROOT
BRANCH   1   2
ATOM      2  N   UNK d   1       0.184   0.849  -2.428  0.00  0.00    -0.365 N 
ATOM      3  H   UNK d   1      -0.522   1.530  -2.721  0.00  0.00     0.161 HD
BRANCH   2   4
ATOM      4  C   UNK d   1       1.106   1.189  -1.366  0.00  0.00     0.158 A 
ATOM      5  C   UNK d   1       0.961   2.431  -0.796  0.00  0.00     0.128 A 
ATOM      6  C   UNK d   1       1.830   2.798   0.228  0.00  0.00     0.184 A 
ATOM      7  N   UNK d   1       0.149   3.486  -0.959  0.00  0.00    -0.345 N 
ATOM      8  N   UNK d   1       2.751   1.894   0.578  0.00  0.00    -0.196 NA
ATOM      9  N   UNK d   1       1.503   4.038   0.626  0.00  0.00    -0.222 NA
ATOM     10  C   UNK d   1       2.899   0.693   0.035  0.00  0.00     0.227 A 
ATOM     11 Cl   UNK d   1       4.140  -0.409   0.571  0.00  0.00    -0.041 Cl
ATOM     12  N   UNK d   1       2.056   0.336  -0.960  0.00  0.00    -0.198 NA
ATOM     13  C   UNK d   1       0.462   4.476  -0.102  0.00  0.00     0.210 A 
ATOM     14  H   UNK d   1      -0.620   3.484  -1.681  0.00  0.00     0.167 HD
ENDBRANCH   2   4
ENDBRANCH   1   2
BRANCH   1  15
ATOM     15  C   UNK d   1      -0.306  -1.536  -2.335  0.00  0.00     0.171 C 
ATOM     16  O   UNK d   1      -0.063  -2.718  -2.942  0.00  0.00    -0.175 OA
ATOM     17  N   UNK d   1      -1.044  -1.604  -1.186  0.00  0.00    -0.358 N 
ATOM     18  C   UNK d   1      -1.549  -0.535  -0.394  0.00  0.00     0.144 C 
ATOM     19  C   UNK d   1      -1.344  -2.997  -0.679  0.00  0.00     0.144 C 
ATOM     20  C   UNK d   1      -0.928  -0.520   1.001  0.00  0.00     0.144 C 
ATOM     21  N   UNK d   1      -0.649  -1.893   1.310  0.00  0.00    -0.363 N 
ATOM     22  C   UNK d   1      -1.567  -2.886   0.833  0.00  0.00     0.144 C 
BRANCH  21  23
ATOM     23  C   UNK d   1       0.475  -2.290   2.056  0.00  0.00     0.125 A 
ATOM     24  N   UNK d   1       0.734  -3.603   2.324  0.00  0.00    -0.244 NA
ATOM     25  C   UNK d   1       1.769  -4.042   3.018  0.00  0.00     0.119 A 
ATOM     26  C   UNK d   1       2.695  -3.185   3.543  0.00  0.00     0.019 A 
ATOM     27  C   UNK d   1       2.492  -1.833   3.308  0.00  0.00     0.005 A 
ATOM     28  C   UNK d   1       1.399  -1.396   2.576  0.00  0.00     0.050 A 
ENDBRANCH  21  23
ENDBRANCH   1  15
TORSDOF 4
