# created with PyMOL 2.3.2
@<TRIPOS>MOLECULE
1732
39 42 1                 
SMALL
USER_CHARGES
@<TRIPOS>ATOM
1	  Br	3.093	0.720	0.171	Br	1	UNK0	0.000	
2	   C	3.808	-1.031	0.087	C.2	1	UNK0	0.000	
3	   C	3.189	-1.954	-0.757	C.2	1	UNK0	0.000	
4	   C	3.764	-3.211	-0.767	C.2	1	UNK0	0.000	
5	   C	4.881	-3.537	0.006	C.2	1	UNK0	0.000	
6	   C	5.446	-2.585	0.817	C.2	1	UNK0	0.000	
7	   C	4.906	-1.319	0.860	C.2	1	UNK0	0.000	
8	   N	2.062	-1.584	-1.521	N.pl3	1	UNK0	0.000	
9	   C	1.316	-2.358	-2.410	C.2	1	UNK0	0.000	
10	   O	1.596	-3.550	-2.634	O.2	1	UNK0	0.000	
11	   C	0.147	-1.798	-3.138	C.3	1	UNK0	0.000	
12	   N	-0.063	-0.387	-2.776	N.pl3	1	UNK0	0.000	
13	   N	0.456	0.676	-3.368	N.2	1	UNK0	0.000	
14	   N	0.039	1.781	-2.760	N.2	1	UNK0	0.000	
15	   C	-0.774	1.420	-1.745	C.2	1	UNK0	0.000	
16	   N	-0.810	0.078	-1.789	N.2	1	UNK0	0.000	
17	   C	-1.457	2.304	-0.812	C.2	1	UNK0	0.000	
18	   C	-2.247	1.734	0.159	C.2	1	UNK0	0.000	
19	   C	-2.897	2.576	1.046	C.2	1	UNK0	0.000	
20	   C	-2.775	3.941	0.981	C.2	1	UNK0	0.000	
21	   C	-1.983	4.515	0.007	C.2	1	UNK0	0.000	
22	   C	-1.334	3.672	-0.878	C.2	1	UNK0	0.000	
23	   N	-2.423	0.324	0.290	N.pl3	1	UNK0	0.000	
24	   N	-3.171	-0.410	-0.524	N.2	1	UNK0	0.000	
25	   N	-3.121	-1.663	-0.130	N.2	1	UNK0	0.000	
26	   N	-2.336	-1.726	0.943	N.2	1	UNK0	0.000	
27	   C	-1.898	-0.477	1.206	C.2	1	UNK0	0.000	
28	   H	3.377	-3.995	-1.372	 H	1	UNK0	0.000	
29	   H	5.308	-4.521	-0.021	 H	1	UNK0	0.000	
30	   H	6.307	-2.787	1.431	 H	1	UNK0	0.000	
31	   H	5.375	-0.595	1.508	 H	1	UNK0	0.000	
32	   H	1.737	-0.578	-1.404	 H	1	UNK0	0.000	
33	   H	-0.776	-2.369	-2.978	 H	1	UNK0	0.000	
34	   H	0.326	-1.778	-4.245	 H	1	UNK0	0.000	
35	   H	-3.522	2.138	1.816	 H	1	UNK0	0.000	
36	   H	-3.281	4.614	1.674	 H	1	UNK0	0.000	
37	   H	-1.874	5.596	-0.059	 H	1	UNK0	0.000	
38	   H	-0.719	4.145	-1.632	 H	1	UNK0	0.000	
39	   H	-1.243	-0.162	2.005	 H	1	UNK0	0.000	
@<TRIPOS>BOND
1 1 2 1
2 2 3 2
3 2 7 1
4 3 4 1
5 3 8 1
6 4 5 2
7 5 6 1
8 6 7 2
9 8 9 1
10 9 10 2
11 9 11 1
12 11 12 1
13 12 13 1
14 12 16 1
15 13 14 2
16 14 15 1
17 15 16 2
18 15 17 1
19 17 18 1
20 17 22 2
21 18 19 2
22 18 23 1
23 19 20 1
24 20 21 2
25 21 22 1
26 23 24 1
27 23 27 1
28 24 25 2
29 25 26 1
30 26 27 2
31 4 28 1
32 5 29 1
33 6 30 1
34 7 31 1
35 8 32 1
36 11 33 1
37 11 34 1
38 19 35 1
39 20 36 1
40 21 37 1
41 22 38 1
42 27 39 1
@<TRIPOS>SUBSTRUCTURE
1	UNK0	1	GROUP	1 ****	UNK
