REMARK  5 active torsions:
REMARK  status: ('A' for Active; 'I' for Inactive)
REMARK    1  A    between atoms: C_3  and  N_8 
REMARK       I    between atoms: N_8  and  C_9 
REMARK    2  A    between atoms: C_9  and  C_11 
REMARK    3  A    between atoms: C_11  and  N_12 
REMARK    4  A    between atoms: C_15  and  C_17 
REMARK    5  A    between atoms: C_18  and  N_23 
ROOT
ATOM      1  N   UNK d   1      -0.063  -0.387  -2.776  0.00  0.00    -0.182 N 
ATOM      2  N   UNK d   1       0.456   0.676  -3.368  0.00  0.00     0.025 NA
ATOM      3  N   UNK d   1       0.039   1.781  -2.760  0.00  0.00    -0.136 NA
ATOM      4  C   UNK d   1      -0.774   1.420  -1.745  0.00  0.00     0.200 A 
ATOM      5  N   UNK d   1      -0.810   0.078  -1.789  0.00  0.00    -0.136 NA
ENDROOT
BRANCH   1   6
ATOM      6  C   UNK d   1       0.147  -1.798  -3.138  0.00  0.00     0.272 C 
BRANCH   6   7
ATOM      7  C   UNK d   1       1.316  -2.358  -2.410  0.00  0.00     0.243 C 
ATOM      8  N   UNK d   1       2.062  -1.584  -1.521  0.00  0.00    -0.324 N 
ATOM      9  H   UNK d   1       1.737  -0.578  -1.404  0.00  0.00     0.169 HD
ATOM     10  O   UNK d   1       1.596  -3.550  -2.634  0.00  0.00    -0.271 OA
BRANCH   8  11
ATOM     11  C   UNK d   1       3.189  -1.954  -0.757  0.00  0.00     0.052 A 
ATOM     12  C   UNK d   1       3.808  -1.031   0.087  0.00  0.00     0.037 A 
ATOM     13 Br   UNK d   1       3.093   0.720   0.171  0.00  0.00    -0.049 Br
ATOM     14  C   UNK d   1       4.906  -1.319   0.860  0.00  0.00     0.021 A 
ATOM     15  C   UNK d   1       5.446  -2.585   0.817  0.00  0.00     0.002 A 
ATOM     16  C   UNK d   1       4.881  -3.537   0.006  0.00  0.00     0.002 A 
ATOM     17  C   UNK d   1       3.764  -3.211  -0.767  0.00  0.00     0.031 A 
ENDBRANCH   8  11
ENDBRANCH   6   7
ENDBRANCH   1   6
BRANCH   4  18
ATOM     18  C   UNK d   1      -1.457   2.304  -0.812  0.00  0.00     0.044 A 
ATOM     19  C   UNK d   1      -2.247   1.734   0.159  0.00  0.00     0.075 A 
ATOM     20  C   UNK d   1      -2.897   2.576   1.046  0.00  0.00     0.032 A 
ATOM     21  C   UNK d   1      -2.775   3.941   0.981  0.00  0.00     0.002 A 
ATOM     22  C   UNK d   1      -1.983   4.515   0.007  0.00  0.00     0.001 A 
ATOM     23  C   UNK d   1      -1.334   3.672  -0.878  0.00  0.00     0.018 A 
BRANCH  19  24
ATOM     24  N   UNK d   1      -2.423   0.324   0.290  0.00  0.00    -0.205 N 
ATOM     25  N   UNK d   1      -3.171  -0.410  -0.524  0.00  0.00    -0.040 NA
ATOM     26  N   UNK d   1      -3.121  -1.663  -0.130  0.00  0.00    -0.023 NA
ATOM     27  N   UNK d   1      -2.336  -1.726   0.943  0.00  0.00    -0.122 NA
ATOM     28  C   UNK d   1      -1.898  -0.477   1.206  0.00  0.00     0.262 A 
ENDBRANCH  19  24
ENDBRANCH   4  18
TORSDOF 5
