REMARK  5 active torsions:
REMARK  status: ('A' for Active; 'I' for Inactive)
REMARK    1  A    between atoms: C_13  and  C_30 
REMARK    2  A    between atoms: N_18  and  C_21 
REMARK    3  A    between atoms: C_21  and  C_22 
REMARK    4  A    between atoms: C_23  and  O_28 
REMARK    5  A    between atoms: C_30  and  O_31 
ROOT
ATOM      1 Cl   UNK d   1      -3.082   1.603   2.490  0.00  0.00    -0.084 Cl
ATOM      2  C   UNK d   1      -1.385   1.386   2.948  0.00  0.00     0.034 A 
ATOM      3  C   UNK d   1      -0.556   0.572   2.217  0.00  0.00     0.036 A 
ATOM      4  C   UNK d   1       0.755   0.410   2.578  0.00  0.00     0.019 A 
ATOM      5  C   UNK d   1       1.235   1.070   3.681  0.00  0.00     0.044 A 
ATOM      6  C   UNK d   1       0.417   1.904   4.443  0.00  0.00     0.032 A 
ATOM      7  C   UNK d   1      -0.896   2.046   4.054  0.00  0.00     0.026 A 
ATOM      8  N   UNK d   1       2.603   0.778   3.897  0.00  0.00    -0.324 N 
ATOM      9  C   UNK d   1       2.993  -0.117   2.866  0.00  0.00     0.267 A 
ATOM     10  O   UNK d   1       4.133  -0.608   2.721  0.00  0.00    -0.270 OA
ATOM     11  C   UNK d   1       1.847  -0.390   1.978  0.00  0.00     0.279 A 
ATOM     12  N   UNK d   1       1.524  -1.794   1.907  0.00  0.00     0.116 N 
ATOM     13  C   UNK d   1       1.110  -2.079   0.569  0.00  0.00     0.264 C 
ATOM     14  C   UNK d   1       1.890  -1.156  -0.338  0.00  0.00     0.130 C 
ATOM     15  C   UNK d   1       2.179   0.001   0.584  0.00  0.00     0.147 C 
ATOM     16  C   UNK d   1       1.401   1.154   0.068  0.00  0.00     0.235 C 
ATOM     17  O   UNK d   1       1.046   2.201   0.666  0.00  0.00    -0.272 OA
ATOM     18  N   UNK d   1       1.111   0.846  -1.311  0.00  0.00    -0.283 N 
ATOM     19  C   UNK d   1       1.072  -0.590  -1.441  0.00  0.00     0.234 C 
ATOM     20  O   UNK d   1       0.466  -1.260  -2.317  0.00  0.00    -0.272 OA
ATOM     21  H   UNK d   1       3.249   1.132   4.662  0.00  0.00     0.169 HD
ATOM     22  H   UNK d   1       0.808  -2.031   2.601  0.00  0.00     0.318 HD
ENDROOT
BRANCH  13  23
ATOM     23  C   UNK d   1       1.328  -3.533   0.209  0.00  0.00     0.148 C 
ATOM     24  C   UNK d   1       0.378  -4.343   1.085  0.00  0.00     0.041 C 
BRANCH  23  25
ATOM     25  O   UNK d   1       0.898  -3.710  -1.103  0.00  0.00    -0.394 OA
ATOM     26  H   UNK d   1      -0.085  -3.744  -1.126  0.00  0.00     0.210 HD
ENDBRANCH  23  25
ENDBRANCH  13  23
BRANCH  18  27
ATOM     27  C   UNK d   1       0.895   1.791  -2.386  0.00  0.00     0.176 C 
BRANCH  27  28
ATOM     28  C   UNK d   1      -0.555   2.137  -2.480  0.00  0.00    -0.006 A 
ATOM     29  C   UNK d   1      -1.009   3.024  -3.433  0.00  0.00     0.076 A 
ATOM     30  C   UNK d   1      -2.358   3.328  -3.500  0.00  0.00     0.037 A 
ATOM     31  C   UNK d   1      -3.278   2.767  -2.636  0.00  0.00     0.003 A 
ATOM     32  C   UNK d   1      -2.835   1.880  -1.680  0.00  0.00     0.001 A 
ATOM     33  C   UNK d   1      -1.492   1.586  -1.624  0.00  0.00     0.011 A 
BRANCH  29  34
ATOM     34  O   UNK d   1      -0.076   3.591  -4.307  0.00  0.00    -0.355 OA
ATOM     35  C   UNK d   1      -0.546   4.512  -5.297  0.00  0.00     0.210 C 
ENDBRANCH  29  34
ENDBRANCH  27  28
ENDBRANCH  18  27
TORSDOF 5
