REMARK  4 active torsions:
REMARK  status: ('A' for Active; 'I' for Inactive)
REMARK    1  A    between atoms: N_6  and  C_9 
REMARK    2  A    between atoms: C_9  and  C_10 
REMARK       I    between atoms: C_10  and  N_12 
REMARK    3  A    between atoms: N_15  and  C_18 
REMARK    4  A    between atoms: C_18  and  C_19 
REMARK       I    between atoms: C_19  and  N_21 
ROOT
ATOM      1  C   UNK d   1      -1.564  -1.608   0.182  0.00  0.00     0.238 C 
ATOM      2  O   UNK d   1      -2.641  -1.008   0.368  0.00  0.00    -0.272 OA
ATOM      3  N   UNK d   1      -1.158  -1.950  -1.116  0.00  0.00    -0.348 N 
ATOM      4  C   UNK d   1      -1.929  -1.637  -2.299  0.00  0.00     0.145 C 
ATOM      5  C   UNK d   1      -0.993  -0.923  -3.260  0.00  0.00     0.137 C 
ATOM      6  N   UNK d   1       0.247  -0.642  -2.666  0.00  0.00    -0.401 N 
ATOM      7  C   UNK d   1       1.015  -1.680  -2.112  0.00  0.00     0.137 C 
ATOM      8  C   UNK d   1       0.103  -2.659  -1.381  0.00  0.00     0.145 C 
ENDROOT
BRANCH   1   9
ATOM      9  C   UNK d   1      -0.717  -1.954   1.374  0.00  0.00     0.231 C 
BRANCH   9  10
ATOM     10  N   UNK d   1      -1.319  -1.501   2.610  0.00  0.00    -0.347 N 
ATOM     11  C   UNK d   1      -1.121  -0.278   3.181  0.00  0.00     0.045 A 
ATOM     12  C   UNK d   1      -1.838  -0.175   4.350  0.00  0.00    -0.007 A 
ATOM     13  C   UNK d   1      -0.352   0.782   2.760  0.00  0.00     0.032 A 
ATOM     14  C   UNK d   1      -1.812   0.976   5.131  0.00  0.00     0.032 A 
ATOM     15  C   UNK d   1      -2.504  -1.370   4.515  0.00  0.00     0.031 A 
ATOM     16  C   UNK d   1      -1.033   2.056   4.710  0.00  0.00     0.011 A 
ATOM     17 Br   UNK d   1      -0.976   3.658   5.763  0.00  0.00    -0.051 Br
ATOM     18  C   UNK d   1      -0.321   1.936   3.536  0.00  0.00     0.021 A 
ATOM     19  C   UNK d   1      -2.157  -2.148   3.429  0.00  0.00     0.092 A 
ENDBRANCH   9  10
ENDBRANCH   1   9
BRANCH   6  20
ATOM     20  C   UNK d   1       0.639   0.692  -2.472  0.00  0.00     0.220 C 
BRANCH  20  21
ATOM     21  C   UNK d   1       0.927   1.437  -3.726  0.00  0.00     0.237 C 
ATOM     22  O   UNK d   1       0.789   0.801  -4.801  0.00  0.00    -0.272 OA
ATOM     23  N   UNK d   1       1.335   2.779  -3.762  0.00  0.00    -0.347 N 
ATOM     24  C   UNK d   1       1.605   3.429  -5.029  0.00  0.00     0.152 C 
ATOM     25  C   UNK d   1       1.517   3.602  -2.583  0.00  0.00     0.152 C 
ATOM     26  C   UNK d   1       0.766   4.689  -5.071  0.00  0.00     0.187 C 
ATOM     27  O   UNK d   1       1.278   5.513  -4.058  0.00  0.00    -0.388 OA
ATOM     28  C   UNK d   1       1.036   4.993  -2.809  0.00  0.00     0.187 C 
ENDBRANCH  20  21
ENDBRANCH   6  20
TORSDOF 4
