# created with PyMOL 2.3.2
@<TRIPOS>MOLECULE
1741
53 56 1                 
SMALL
USER_CHARGES
@<TRIPOS>ATOM
1	  Br	-0.976	3.658	5.763	Br	1	UNK0	0.000	
2	   C	-1.033	2.056	4.710	C.2	1	UNK0	0.000	
3	   C	-1.812	0.976	5.131	C.2	1	UNK0	0.000	
4	   C	-1.838	-0.175	4.350	C.2	1	UNK0	0.000	
5	   C	-1.121	-0.278	3.181	C.2	1	UNK0	0.000	
6	   N	-1.319	-1.501	2.610	N.pl3	1	UNK0	0.000	
7	   C	-2.157	-2.148	3.429	C.2	1	UNK0	0.000	
8	   C	-2.504	-1.370	4.515	C.2	1	UNK0	0.000	
9	   C	-0.717	-1.954	1.374	C.3	1	UNK0	0.000	
10	   C	-1.564	-1.608	0.182	C.2	1	UNK0	0.000	
11	   O	-2.641	-1.008	0.368	O.2	1	UNK0	0.000	
12	   N	-1.158	-1.950	-1.116	N.pl3	1	UNK0	0.000	
13	   C	-1.929	-1.637	-2.299	C.3	1	UNK0	0.000	
14	   C	-0.993	-0.923	-3.260	C.3	1	UNK0	0.000	
15	   N	0.247	-0.642	-2.666	N.3	1	UNK0	0.000	
16	   C	1.015	-1.680	-2.112	C.3	1	UNK0	0.000	
17	   C	0.103	-2.659	-1.381	C.3	1	UNK0	0.000	
18	   C	0.639	0.692	-2.472	C.3	1	UNK0	0.000	
19	   C	0.927	1.437	-3.726	C.2	1	UNK0	0.000	
20	   O	0.789	0.801	-4.801	O.2	1	UNK0	0.000	
21	   N	1.335	2.779	-3.762	N.pl3	1	UNK0	0.000	
22	   C	1.605	3.429	-5.029	C.3	1	UNK0	0.000	
23	   C	0.766	4.689	-5.071	C.3	1	UNK0	0.000	
24	   O	1.278	5.513	-4.058	O.3	1	UNK0	0.000	
25	   C	1.036	4.993	-2.809	C.3	1	UNK0	0.000	
26	   C	1.517	3.602	-2.583	C.3	1	UNK0	0.000	
27	   C	-0.352	0.782	2.760	C.2	1	UNK0	0.000	
28	   C	-0.321	1.936	3.536	C.2	1	UNK0	0.000	
29	   H	-2.361	1.077	6.044	 H	1	UNK0	0.000	
30	   H	-2.517	-3.158	3.259	 H	1	UNK0	0.000	
31	   H	-3.151	-1.593	5.346	 H	1	UNK0	0.000	
32	   H	0.282	-1.495	1.205	 H	1	UNK0	0.000	
33	   H	-0.619	-3.061	1.348	 H	1	UNK0	0.000	
34	   H	-2.845	-1.084	-2.078	 H	1	UNK0	0.000	
35	   H	-2.261	-2.582	-2.814	 H	1	UNK0	0.000	
36	   H	-1.495	0.064	-3.482	 H	1	UNK0	0.000	
37	   H	-0.956	-1.440	-4.245	 H	1	UNK0	0.000	
38	   H	1.696	-2.201	-2.791	 H	1	UNK0	0.000	
39	   H	1.672	-1.245	-1.301	 H	1	UNK0	0.000	
40	   H	-0.150	-3.460	-2.104	 H	1	UNK0	0.000	
41	   H	0.526	-3.017	-0.445	 H	1	UNK0	0.000	
42	   H	-0.141	1.212	-1.848	 H	1	UNK0	0.000	
43	   H	1.557	0.694	-1.821	 H	1	UNK0	0.000	
44	   H	2.678	3.781	-5.011	 H	1	UNK0	0.000	
45	   H	1.443	2.763	-5.889	 H	1	UNK0	0.000	
46	   H	0.956	5.212	-6.039	 H	1	UNK0	0.000	
47	   H	-0.291	4.435	-4.927	 H	1	UNK0	0.000	
48	   H	1.547	5.654	-2.069	 H	1	UNK0	0.000	
49	   H	-0.050	5.122	-2.616	 H	1	UNK0	0.000	
50	   H	2.592	3.625	-2.313	 H	1	UNK0	0.000	
51	   H	0.990	3.194	-1.699	 H	1	UNK0	0.000	
52	   H	0.229	0.740	1.842	 H	1	UNK0	0.000	
53	   H	0.290	2.758	3.186	 H	1	UNK0	0.000	
@<TRIPOS>BOND
1 1 2 1
2 2 3 2
3 2 28 1
4 3 4 1
5 4 5 2
6 4 8 1
7 5 6 1
8 5 27 1
9 6 7 1
10 6 9 1
11 7 8 2
12 9 10 1
13 10 11 2
14 10 12 1
15 12 13 1
16 12 17 1
17 13 14 1
18 14 15 1
19 15 16 1
20 15 18 1
21 16 17 1
22 18 19 1
23 19 20 2
24 19 21 1
25 21 22 1
26 21 26 1
27 22 23 1
28 23 24 1
29 24 25 1
30 25 26 1
31 27 28 2
32 3 29 1
33 7 30 1
34 8 31 1
35 9 32 1
36 9 33 1
37 13 34 1
38 13 35 1
39 14 36 1
40 14 37 1
41 16 38 1
42 16 39 1
43 17 40 1
44 17 41 1
45 18 42 1
46 18 43 1
47 22 44 1
48 22 45 1
49 23 46 1
50 23 47 1
51 25 48 1
52 25 49 1
53 26 50 1
54 26 51 1
55 27 52 1
56 28 53 1
@<TRIPOS>SUBSTRUCTURE
1	UNK0	1	GROUP	1 ****	UNK
