# created with PyMOL 2.3.2
@<TRIPOS>MOLECULE
1744
47 50 1                 
SMALL
USER_CHARGES
@<TRIPOS>ATOM
1	  Cl	-0.071	5.377	0.392	Cl	1	UNK0	0.000	
2	   C	0.231	4.337	1.758	C.2	1	UNK0	0.000	
3	   C	0.767	3.084	1.593	C.2	1	UNK0	0.000	
4	   C	1.025	2.232	2.653	C.2	1	UNK0	0.000	
5	   C	0.732	2.666	3.910	C.2	1	UNK0	0.000	
6	   C	0.187	3.927	4.132	C.2	1	UNK0	0.000	
7	   C	-0.056	4.746	3.048	C.2	1	UNK0	0.000	
8	   N	1.567	0.933	2.444	N.pl3	1	UNK0	0.000	
9	   C	2.795	0.846	1.723	C.2	1	UNK0	0.000	
10	   O	3.417	1.845	1.286	O.2	1	UNK0	0.000	
11	   N	3.348	-0.447	1.487	N.pl3	1	UNK0	0.000	
12	   C	2.659	-1.608	1.976	C.2	1	UNK0	0.000	
13	   O	3.319	-2.700	1.942	O.2	1	UNK0	0.000	
14	   C	1.277	-1.556	2.487	C.3	1	UNK0	0.000	
15	   C	0.872	-0.203	2.941	C.2	1	UNK0	0.000	
16	   O	-0.080	-0.108	3.754	O.2	1	UNK0	0.000	
17	   C	0.307	-2.061	1.445	C.2	1	UNK0	0.000	
18	   C	0.643	-2.358	0.203	C.2	1	UNK0	0.000	
19	   C	-0.612	-2.801	-0.444	C.3	1	UNK0	0.000	
20	   N	-1.357	-3.335	0.682	N.pl3	1	UNK0	0.000	
21	   N	-1.084	-2.320	1.632	N.pl3	1	UNK0	0.000	
22	   C	-1.330	-1.645	-1.050	C.2	1	UNK0	0.000	
23	   C	-2.572	-1.702	-1.615	C.2	1	UNK0	0.000	
24	   C	-3.211	-0.591	-2.129	C.2	1	UNK0	0.000	
25	   C	-2.598	0.648	-2.088	C.2	1	UNK0	0.000	
26	   C	-1.321	0.700	-1.506	C.2	1	UNK0	0.000	
27	   C	-0.699	-0.417	-1.000	C.2	1	UNK0	0.000	
28	   O	-3.205	1.776	-2.585	O.3	1	UNK0	0.000	
29	   C	-2.588	3.045	-2.521	C.3	1	UNK0	0.000	
30	   O	-4.490	-0.704	-2.702	O.3	1	UNK0	0.000	
31	   H	1.015	2.711	0.593	 H	1	UNK0	0.000	
32	   H	0.922	2.021	4.769	 H	1	UNK0	0.000	
33	   H	-0.021	4.201	5.144	 H	1	UNK0	0.000	
34	   H	-0.477	5.713	3.237	 H	1	UNK0	0.000	
35	   H	4.250	-0.584	0.962	 H	1	UNK0	0.000	
36	   H	1.257	-2.202	3.396	 H	1	UNK0	0.000	
37	   H	1.632	-2.283	-0.215	 H	1	UNK0	0.000	
38	   H	-0.456	-3.586	-1.211	 H	1	UNK0	0.000	
39	   H	-2.354	-3.491	0.513	 H	1	UNK0	0.000	
40	   H	-1.672	-1.841	2.314	 H	1	UNK0	0.000	
41	   H	-3.078	-2.633	-1.666	 H	1	UNK0	0.000	
42	   H	-0.871	1.685	-1.493	 H	1	UNK0	0.000	
43	   H	0.297	-0.283	-0.564	 H	1	UNK0	0.000	
44	   H	-2.237	3.259	-1.475	 H	1	UNK0	0.000	
45	   H	-3.332	3.865	-2.730	 H	1	UNK0	0.000	
46	   H	-1.718	3.147	-3.188	 H	1	UNK0	0.000	
47	   H	-4.924	-1.621	-2.722	 H	1	UNK0	0.000	
@<TRIPOS>BOND
1 1 2 1
2 2 3 2
3 2 7 1
4 3 4 1
5 4 5 2
6 4 8 1
7 5 6 1
8 6 7 2
9 8 9 1
10 8 15 1
11 9 10 2
12 9 11 1
13 11 12 1
14 12 13 2
15 12 14 1
16 14 15 1
17 14 17 1
18 15 16 2
19 17 18 2
20 17 21 1
21 18 19 1
22 19 20 1
23 19 22 1
24 20 21 1
25 22 23 2
26 22 27 1
27 23 24 1
28 24 25 2
29 24 30 1
30 25 26 1
31 25 28 1
32 26 27 2
33 28 29 1
34 3 31 1
35 5 32 1
36 6 33 1
37 7 34 1
38 11 35 1
39 14 36 1
40 18 37 1
41 19 38 1
42 20 39 1
43 21 40 1
44 23 41 1
45 26 42 1
46 27 43 1
47 29 44 1
48 29 45 1
49 29 46 1
50 30 47 1
@<TRIPOS>SUBSTRUCTURE
1	UNK0	1	GROUP	1 ****	UNK
