REMARK  5 active torsions:
REMARK  status: ('A' for Active; 'I' for Inactive)
REMARK    1  A    between atoms: C_4  and  N_8 
REMARK    2  A    between atoms: C_14  and  C_17 
REMARK    3  A    between atoms: C_19  and  C_22 
REMARK    4  A    between atoms: C_24  and  O_30 
REMARK    5  A    between atoms: C_25  and  O_28 
ROOT
ATOM      1  N   UNK d   1       1.567   0.933   2.444  0.00  0.00    -0.233 N 
ATOM      2  C   UNK d   1       2.795   0.846   1.723  0.00  0.00     0.336 C 
ATOM      3  O   UNK d   1       3.417   1.845   1.286  0.00  0.00    -0.246 OA
ATOM      4  N   UNK d   1       3.348  -0.447   1.487  0.00  0.00    -0.277 N 
ATOM      5  C   UNK d   1       2.659  -1.608   1.976  0.00  0.00     0.244 C 
ATOM      6  O   UNK d   1       3.319  -2.700   1.942  0.00  0.00    -0.272 OA
ATOM      7  C   UNK d   1       1.277  -1.556   2.487  0.00  0.00     0.221 C 
ATOM      8  C   UNK d   1       0.872  -0.203   2.941  0.00  0.00     0.251 C 
ATOM      9  O   UNK d   1      -0.080  -0.108   3.754  0.00  0.00    -0.271 OA
ATOM     10  H   UNK d   1       4.250  -0.584   0.962  0.00  0.00     0.173 HD
ENDROOT
BRANCH   7  11
ATOM     11  C   UNK d   1       0.307  -2.061   1.445  0.00  0.00     0.041 C 
ATOM     12  C   UNK d   1       0.643  -2.358   0.203  0.00  0.00     0.026 C 
ATOM     13  C   UNK d   1      -0.612  -2.801  -0.444  0.00  0.00     0.134 C 
ATOM     14  N   UNK d   1      -1.357  -3.335   0.682  0.00  0.00    -0.228 NA
ATOM     15  N   UNK d   1      -1.084  -2.320   1.632  0.00  0.00    -0.323 N 
ATOM     16  H   UNK d   1      -2.354  -3.491   0.513  0.00  0.00     0.147 HD
ATOM     17  H   UNK d   1      -1.672  -1.841   2.314  0.00  0.00     0.180 HD
BRANCH  13  18
ATOM     18  C   UNK d   1      -1.330  -1.645  -1.050  0.00  0.00    -0.032 A 
ATOM     19  C   UNK d   1      -2.572  -1.702  -1.615  0.00  0.00     0.048 A 
ATOM     20  C   UNK d   1      -3.211  -0.591  -2.129  0.00  0.00     0.099 A 
ATOM     21  C   UNK d   1      -2.598   0.648  -2.088  0.00  0.00     0.101 A 
ATOM     22  C   UNK d   1      -1.321   0.700  -1.506  0.00  0.00     0.040 A 
ATOM     23  C   UNK d   1      -0.699  -0.417  -1.000  0.00  0.00     0.012 A 
BRANCH  20  24
ATOM     24  O   UNK d   1      -4.490  -0.704  -2.702  0.00  0.00    -0.358 OA
ATOM     25  H   UNK d   1      -4.924  -1.621  -2.722  0.00  0.00     0.217 HD
ENDBRANCH  20  24
BRANCH  21  26
ATOM     26  O   UNK d   1      -3.205   1.776  -2.585  0.00  0.00    -0.353 OA
ATOM     27  C   UNK d   1      -2.588   3.045  -2.521  0.00  0.00     0.210 C 
ENDBRANCH  21  26
ENDBRANCH  13  18
ENDBRANCH   7  11
BRANCH   1  28
ATOM     28  C   UNK d   1       1.025   2.232   2.653  0.00  0.00     0.048 A 
ATOM     29  C   UNK d   1       0.767   3.084   1.593  0.00  0.00     0.054 A 
ATOM     30  C   UNK d   1       0.231   4.337   1.758  0.00  0.00     0.036 A 
ATOM     31 Cl   UNK d   1      -0.071   5.377   0.392  0.00  0.00    -0.084 Cl
ATOM     32  C   UNK d   1      -0.056   4.746   3.048  0.00  0.00     0.024 A 
ATOM     33  C   UNK d   1       0.187   3.927   4.132  0.00  0.00     0.004 A 
ATOM     34  C   UNK d   1       0.732   2.666   3.910  0.00  0.00     0.030 A 
ENDBRANCH   1  28
TORSDOF 5
