# created with PyMOL 2.3.2
@<TRIPOS>MOLECULE
1745
47 50 1                 
SMALL
USER_CHARGES
@<TRIPOS>ATOM
1	  Cl	-5.995	3.661	3.140	Cl	1	UNK0	0.000	
2	   C	-4.760	2.433	3.074	C.2	1	UNK0	0.000	
3	   C	-4.335	1.982	1.844	C.2	1	UNK0	0.000	
4	   C	-3.345	1.001	1.712	C.2	1	UNK0	0.000	
5	   C	-2.820	0.512	2.879	C.2	1	UNK0	0.000	
6	   C	-3.240	0.957	4.114	C.2	1	UNK0	0.000	
7	   C	-4.228	1.938	4.235	C.2	1	UNK0	0.000	
8	   N	-2.968	0.617	0.397	N.pl3	1	UNK0	0.000	
9	   C	-3.319	-0.613	-0.216	C.2	1	UNK0	0.000	
10	   O	-3.972	-1.474	0.389	O.2	1	UNK0	0.000	
11	   N	-2.914	-0.882	-1.566	N.pl3	1	UNK0	0.000	
12	   C	-2.162	0.074	-2.311	C.2	1	UNK0	0.000	
13	   O	-2.154	0.091	-3.554	O.2	1	UNK0	0.000	
14	   C	-1.353	1.092	-1.551	C.3	1	UNK0	0.000	
15	   C	-2.201	1.527	-0.421	C.2	1	UNK0	0.000	
16	   O	-2.296	2.768	-0.107	O.2	1	UNK0	0.000	
17	   C	-0.067	0.470	-1.115	C.2	1	UNK0	0.000	
18	   C	0.366	0.227	0.105	C.2	1	UNK0	0.000	
19	   C	1.710	-0.407	0.015	C.3	1	UNK0	0.000	
20	   N	2.153	0.081	-1.316	N.pl3	1	UNK0	0.000	
21	   N	0.950	0.047	-2.033	N.pl3	1	UNK0	0.000	
22	   C	1.543	-1.878	-0.136	C.2	1	UNK0	0.000	
23	   C	1.943	-2.548	-1.312	C.2	1	UNK0	0.000	
24	   C	1.842	-3.894	-1.482	C.2	1	UNK0	0.000	
25	   C	1.324	-4.671	-0.463	C.2	1	UNK0	0.000	
26	   C	0.923	-4.051	0.698	C.2	1	UNK0	0.000	
27	   C	1.031	-2.687	0.856	C.2	1	UNK0	0.000	
28	   O	1.215	-6.049	-0.619	O.3	1	UNK0	0.000	
29	   O	2.251	-4.509	-2.674	O.3	1	UNK0	0.000	
30	   C	2.770	-3.717	-3.720	C.3	1	UNK0	0.000	
31	   H	-4.757	2.377	0.906	 H	1	UNK0	0.000	
32	   H	-2.064	-0.242	2.828	 H	1	UNK0	0.000	
33	   H	-2.826	0.568	5.040	 H	1	UNK0	0.000	
34	   H	-4.552	2.286	5.205	 H	1	UNK0	0.000	
35	   H	-3.178	-1.780	-1.991	 H	1	UNK0	0.000	
36	   H	-1.163	1.990	-2.171	 H	1	UNK0	0.000	
37	   H	-0.125	0.432	1.040	 H	1	UNK0	0.000	
38	   H	2.389	-0.117	0.811	 H	1	UNK0	0.000	
39	   H	2.541	1.041	-1.227	 H	1	UNK0	0.000	
40	   H	0.801	-0.217	-3.001	 H	1	UNK0	0.000	
41	   H	2.343	-1.916	-2.088	 H	1	UNK0	0.000	
42	   H	0.518	-4.690	1.467	 H	1	UNK0	0.000	
43	   H	0.707	-2.229	1.786	 H	1	UNK0	0.000	
44	   H	1.522	-6.470	-1.486	 H	1	UNK0	0.000	
45	   H	3.749	-3.298	-3.459	 H	1	UNK0	0.000	
46	   H	2.893	-4.404	-4.595	 H	1	UNK0	0.000	
47	   H	2.004	-2.952	-3.992	 H	1	UNK0	0.000	
@<TRIPOS>BOND
1 1 2 1
2 2 3 2
3 2 7 1
4 3 4 1
5 4 5 2
6 4 8 1
7 5 6 1
8 6 7 2
9 8 9 1
10 8 15 1
11 9 10 2
12 9 11 1
13 11 12 1
14 12 13 2
15 12 14 1
16 14 15 1
17 14 17 1
18 15 16 2
19 17 18 2
20 17 21 1
21 18 19 1
22 19 20 1
23 19 22 1
24 20 21 1
25 22 23 2
26 22 27 1
27 23 24 1
28 24 25 2
29 24 29 1
30 25 26 1
31 25 28 1
32 26 27 2
33 29 30 1
34 3 31 1
35 5 32 1
36 6 33 1
37 7 34 1
38 11 35 1
39 14 36 1
40 18 37 1
41 19 38 1
42 20 39 1
43 21 40 1
44 23 41 1
45 26 42 1
46 27 43 1
47 28 44 1
48 30 45 1
49 30 46 1
50 30 47 1
@<TRIPOS>SUBSTRUCTURE
1	UNK0	1	GROUP	1 ****	UNK
