REMARK  3 active torsions:
REMARK  status: ('A' for Active; 'I' for Inactive)
REMARK    1  A    between atoms: S_1  and  N_4 
REMARK    2  A    between atoms: S_1  and  N_22 
REMARK       I    between atoms: N_7  and  C_10 
REMARK    3  A    between atoms: C_10  and  C_12 
ROOT
ATOM      1  N   UNK d   1      -0.112   2.960  -0.344  0.00  0.00    -0.295 N 
ATOM      2  C   UNK d   1      -1.281   2.344   0.205  0.00  0.00     0.156 C 
ATOM      3  C   UNK d   1      -1.626   1.035  -0.479  0.00  0.00     0.147 C 
ATOM      4  N   UNK d   1      -1.592   1.229  -1.904  0.00  0.00    -0.344 N 
ATOM      5  C   UNK d   1      -1.384   2.573  -2.405  0.00  0.00     0.147 C 
ATOM      6  C   UNK d   1      -0.122   3.103  -1.760  0.00  0.00     0.156 C 
ATOM      7  C   UNK d   1      -1.753   0.162  -2.834  0.00  0.00     0.274 C 
ATOM      8  O   UNK d   1      -1.718   0.357  -4.071  0.00  0.00    -0.266 OA
ENDROOT
BRANCH   7   9
ATOM      9  C   UNK d   1      -1.967  -1.209  -2.365  0.00  0.00     0.142 A 
ATOM     10  N   UNK d   1      -2.035  -1.617  -1.068  0.00  0.00    -0.224 NA
ATOM     11  C   UNK d   1      -2.240  -2.943  -1.038  0.00  0.00     0.134 A 
ATOM     12  N   UNK d   1      -2.299  -3.361  -2.302  0.00  0.00    -0.313 N 
ATOM     13  C   UNK d   1      -2.385  -3.857  -0.006  0.00  0.00     0.052 A 
ATOM     14  C   UNK d   1      -2.135  -2.322  -3.132  0.00  0.00     0.135 A 
ATOM     15  C   UNK d   1      -2.500  -4.671  -2.543  0.00  0.00     0.122 A 
ATOM     16  C   UNK d   1      -2.650  -5.615  -1.565  0.00  0.00     0.050 A 
ATOM     17  C   UNK d   1      -2.591  -5.198  -0.240  0.00  0.00     0.029 A 
ATOM     18 Cl   UNK d   1      -2.911  -7.320  -1.917  0.00  0.00    -0.083 Cl
ENDBRANCH   7   9
BRANCH   1  19
ATOM     19  S   UNK d   1       1.359   2.455   0.317  0.00  0.00     0.301 S 
ATOM     20  O   UNK d   1       1.538   0.987   0.104  0.00  0.00    -0.188 OA
ATOM     21  O   UNK d   1       2.474   3.176  -0.387  0.00  0.00    -0.188 OA
BRANCH  19  22
ATOM     22  N   UNK d   1       1.517   2.783   1.996  0.00  0.00    -0.189 NA
ATOM     23  C   UNK d   1       1.458   4.203   2.289  0.00  0.00     0.135 C 
ATOM     24  C   UNK d   1       2.160   4.416   3.609  0.00  0.00     0.183 C 
ATOM     25  O   UNK d   1       1.982   3.336   4.467  0.00  0.00    -0.389 OA
ATOM     26  C   UNK d   1       2.626   2.184   4.021  0.00  0.00     0.183 C 
ATOM     27  C   UNK d   1       2.785   2.309   2.519  0.00  0.00     0.135 C 
ENDBRANCH  19  22
ENDBRANCH   1  19
TORSDOF 3
