# created with PyMOL 2.3.2
@<TRIPOS>MOLECULE
1750
47 50 1                 
SMALL
USER_CHARGES
@<TRIPOS>ATOM
1	   S	1.359	2.455	0.317	S.O2	1	UNK0	0.000	
2	   O	1.538	0.987	0.104	O.2	1	UNK0	0.000	
3	   O	2.474	3.176	-0.387	O.2	1	UNK0	0.000	
4	   N	-0.112	2.960	-0.344	N.3	1	UNK0	0.000	
5	   C	-1.281	2.344	0.205	C.3	1	UNK0	0.000	
6	   C	-1.626	1.035	-0.479	C.3	1	UNK0	0.000	
7	   N	-1.592	1.229	-1.904	N.pl3	1	UNK0	0.000	
8	   C	-1.384	2.573	-2.405	C.3	1	UNK0	0.000	
9	   C	-0.122	3.103	-1.760	C.3	1	UNK0	0.000	
10	   C	-1.753	0.162	-2.834	C.2	1	UNK0	0.000	
11	   O	-1.718	0.357	-4.071	O.2	1	UNK0	0.000	
12	   C	-1.967	-1.209	-2.365	C.2	1	UNK0	0.000	
13	   N	-2.035	-1.617	-1.068	N.2	1	UNK0	0.000	
14	   C	-2.240	-2.943	-1.038	C.2	1	UNK0	0.000	
15	   N	-2.299	-3.361	-2.302	N.pl3	1	UNK0	0.000	
16	   C	-2.135	-2.322	-3.132	C.2	1	UNK0	0.000	
17	   C	-2.500	-4.671	-2.543	C.2	1	UNK0	0.000	
18	   C	-2.650	-5.615	-1.565	C.2	1	UNK0	0.000	
19	   C	-2.591	-5.198	-0.240	C.2	1	UNK0	0.000	
20	   C	-2.385	-3.857	-0.006	C.2	1	UNK0	0.000	
21	  Cl	-2.911	-7.320	-1.917	Cl	1	UNK0	0.000	
22	   N	1.517	2.783	1.996	N.3	1	UNK0	0.000	
23	   C	1.458	4.203	2.289	C.3	1	UNK0	0.000	
24	   C	2.160	4.416	3.609	C.3	1	UNK0	0.000	
25	   O	1.982	3.336	4.467	O.3	1	UNK0	0.000	
26	   C	2.626	2.184	4.021	C.3	1	UNK0	0.000	
27	   C	2.785	2.309	2.519	C.3	1	UNK0	0.000	
28	   H	-2.144	3.029	0.014	 H	1	UNK0	0.000	
29	   H	-1.176	2.253	1.288	 H	1	UNK0	0.000	
30	   H	-0.900	0.250	-0.132	 H	1	UNK0	0.000	
31	   H	-2.627	0.677	-0.163	 H	1	UNK0	0.000	
32	   H	-2.268	3.171	-2.053	 H	1	UNK0	0.000	
33	   H	-1.310	2.593	-3.494	 H	1	UNK0	0.000	
34	   H	-0.056	4.204	-1.992	 H	1	UNK0	0.000	
35	   H	0.733	2.599	-2.220	 H	1	UNK0	0.000	
36	   H	-2.144	-2.411	-4.220	 H	1	UNK0	0.000	
37	   H	-2.553	-5.035	-3.578	 H	1	UNK0	0.000	
38	   H	-2.701	-5.886	0.591	 H	1	UNK0	0.000	
39	   H	-2.332	-3.484	1.018	 H	1	UNK0	0.000	
40	   H	0.415	4.577	2.322	 H	1	UNK0	0.000	
41	   H	2.028	4.724	1.490	 H	1	UNK0	0.000	
42	   H	1.715	5.297	4.118	 H	1	UNK0	0.000	
43	   H	3.244	4.582	3.509	 H	1	UNK0	0.000	
44	   H	1.925	1.317	4.178	 H	1	UNK0	0.000	
45	   H	3.589	2.006	4.530	 H	1	UNK0	0.000	
46	   H	3.621	2.999	2.280	 H	1	UNK0	0.000	
47	   H	3.038	1.342	2.045	 H	1	UNK0	0.000	
@<TRIPOS>BOND
1 1 2 2
2 1 3 2
3 1 4 1
4 1 22 1
5 4 5 1
6 4 9 1
7 5 6 1
8 6 7 1
9 7 8 1
10 7 10 1
11 8 9 1
12 10 11 2
13 10 12 1
14 12 13 1
15 12 16 2
16 13 14 2
17 14 15 1
18 14 20 1
19 15 16 1
20 15 17 1
21 17 18 2
22 18 19 1
23 18 21 1
24 19 20 2
25 22 23 1
26 22 27 1
27 23 24 1
28 24 25 1
29 25 26 1
30 26 27 1
31 5 28 1
32 5 29 1
33 6 30 1
34 6 31 1
35 8 32 1
36 8 33 1
37 9 34 1
38 9 35 1
39 16 36 1
40 17 37 1
41 19 38 1
42 20 39 1
43 23 40 1
44 23 41 1
45 24 42 1
46 24 43 1
47 26 44 1
48 26 45 1
49 27 46 1
50 27 47 1
@<TRIPOS>SUBSTRUCTURE
1	UNK0	1	GROUP	1 ****	UNK
