REMARK  4 active torsions:
REMARK  status: ('A' for Active; 'I' for Inactive)
REMARK    1  A    between atoms: C_5  and  N_8 
REMARK    2  A    between atoms: C_12  and  C_13 
REMARK    3  A    between atoms: C_13  and  N_14 
REMARK    4  A    between atoms: N_14  and  C_15 
ROOT
ATOM      1  N   UNK d   1       1.642  -0.187  -1.903  0.00  0.00    -0.220 N 
ATOM      2  N   UNK d   1       2.727  -0.580  -1.261  0.00  0.00    -0.291 N 
ATOM      3  C   UNK d   1       2.633  -0.354   0.065  0.00  0.00     0.056 A 
ATOM      4  C   UNK d   1       3.503  -0.609   1.013  0.00  0.00     0.045 C 
ATOM      5  C   UNK d   1       1.397   0.225   0.275  0.00  0.00     0.076 A 
ATOM      6  C   UNK d   1       0.813   0.311  -0.970  0.00  0.00     0.280 A 
ATOM      7  O   UNK d   1      -0.327   0.785  -1.207  0.00  0.00    -0.265 OA
ATOM      8  H   UNK d   1       3.569  -1.016  -1.706  0.00  0.00     0.187 HD
ENDROOT
BRANCH   5   9
ATOM      9  C   UNK d   1       0.894   0.612   1.457  0.00  0.00     0.103 C 
BRANCH   9  10
ATOM     10  N   UNK d   1      -0.406   1.187   1.433  0.00  0.00    -0.384 N 
ATOM     11  H   UNK d   1      -0.694   1.949   0.788  0.00  0.00     0.159 HD
BRANCH  10  12
ATOM     12  C   UNK d   1      -1.406   0.688   2.363  0.00  0.00     0.109 C 
ATOM     13  C   UNK d   1      -1.644  -0.795   2.122  0.00  0.00     0.311 C 
ATOM     14  N   UNK d   1      -2.589  -1.283   3.088  0.00  0.00     0.147 N 
ATOM     15  C   UNK d   1      -3.831  -0.542   2.895  0.00  0.00     0.547 C 
ATOM     16  C   UNK d   1      -2.051  -1.062   4.411  0.00  0.00     0.547 C 
ATOM     17  N   UNK d   1      -3.656   0.859   3.157  0.00  0.00     0.147 N 
ATOM     18  C   UNK d   1      -3.125   1.066   4.486  0.00  0.00     0.547 C 
ATOM     19  C   UNK d   1      -2.720   1.391   2.199  0.00  0.00     0.311 C 
ATOM     20  N   UNK d   1      -1.888   0.361   4.691  0.00  0.00     0.147 N 
ATOM     21  C   UNK d   1      -0.895   0.873   3.775  0.00  0.00     0.311 C 
ENDBRANCH  10  12
ENDBRANCH   9  10
ENDBRANCH   5   9
BRANCH   1  22
ATOM     22  C   UNK d   1       1.400  -0.277  -3.321  0.00  0.00     0.060 A 
ATOM     23  C   UNK d   1       0.608  -1.225  -3.886  0.00  0.00     0.033 A 
ATOM     24  C   UNK d   1       0.436  -1.229  -5.271  0.00  0.00     0.020 A 
ATOM     25  C   UNK d   1       1.048  -0.296  -6.083  0.00  0.00     0.006 A 
ATOM     26  I   UNK d   1       0.785  -0.306  -8.172  0.00  0.00    -0.045 I 
ATOM     27  C   UNK d   1       1.851   0.666  -5.514  0.00  0.00     0.020 A 
ATOM     28  C   UNK d   1       2.008   0.653  -4.145  0.00  0.00     0.033 A 
ENDBRANCH   1  22
TORSDOF 4
