# created with PyMOL 2.3.2
@<TRIPOS>MOLECULE
1758
47 51 1                 
SMALL
USER_CHARGES
@<TRIPOS>ATOM
1	   I	0.785	-0.306	-8.172	 I	1	UNK0	0.000	
2	   C	1.048	-0.296	-6.083	C.2	1	UNK0	0.000	
3	   C	0.436	-1.229	-5.271	C.2	1	UNK0	0.000	
4	   C	0.608	-1.225	-3.886	C.2	1	UNK0	0.000	
5	   C	1.400	-0.277	-3.321	C.2	1	UNK0	0.000	
6	   C	2.008	0.653	-4.145	C.2	1	UNK0	0.000	
7	   C	1.851	0.666	-5.514	C.2	1	UNK0	0.000	
8	   N	1.642	-0.187	-1.903	N.pl3	1	UNK0	0.000	
9	   N	2.727	-0.580	-1.261	N.pl3	1	UNK0	0.000	
10	   C	2.633	-0.354	0.065	C.2	1	UNK0	0.000	
11	   C	3.503	-0.609	1.013	C.2	1	UNK0	0.000	
12	   C	1.397	0.225	0.275	C.2	1	UNK0	0.000	
13	   C	0.894	0.612	1.457	C.2	1	UNK0	0.000	
14	   N	-0.406	1.187	1.433	N.pl3	1	UNK0	0.000	
15	   C	-1.406	0.688	2.363	C.3	1	UNK0	0.000	
16	   C	-1.644	-0.795	2.122	C.3	1	UNK0	0.000	
17	   N	-2.589	-1.283	3.088	N.3	1	UNK0	0.000	
18	   C	-3.831	-0.542	2.895	C.3	1	UNK0	0.000	
19	   N	-3.656	0.859	3.157	N.3	1	UNK0	0.000	
20	   C	-3.125	1.066	4.486	C.3	1	UNK0	0.000	
21	   N	-1.888	0.361	4.691	N.3	1	UNK0	0.000	
22	   C	-2.051	-1.062	4.411	C.3	1	UNK0	0.000	
23	   C	-0.895	0.873	3.775	C.3	1	UNK0	0.000	
24	   C	-2.720	1.391	2.199	C.3	1	UNK0	0.000	
25	   C	0.813	0.311	-0.970	C.2	1	UNK0	0.000	
26	   O	-0.327	0.785	-1.207	O.2	1	UNK0	0.000	
27	   H	-0.187	-1.967	-5.766	 H	1	UNK0	0.000	
28	   H	0.123	-1.962	-3.265	 H	1	UNK0	0.000	
29	   H	2.640	1.408	-3.681	 H	1	UNK0	0.000	
30	   H	2.347	1.417	-6.142	 H	1	UNK0	0.000	
31	   H	3.569	-1.016	-1.706	 H	1	UNK0	0.000	
32	   H	3.280	-0.367	2.036	 H	1	UNK0	0.000	
33	   H	4.455	-1.062	0.793	 H	1	UNK0	0.000	
34	   H	1.459	0.489	2.373	 H	1	UNK0	0.000	
35	   H	-0.694	1.949	0.788	 H	1	UNK0	0.000	
36	   H	-2.021	-0.880	1.077	 H	1	UNK0	0.000	
37	   H	-0.670	-1.304	2.142	 H	1	UNK0	0.000	
38	   H	-4.676	-0.994	3.450	 H	1	UNK0	0.000	
39	   H	-4.078	-0.653	1.800	 H	1	UNK0	0.000	
40	   H	-3.855	0.690	5.249	 H	1	UNK0	0.000	
41	   H	-2.941	2.146	4.644	 H	1	UNK0	0.000	
42	   H	-1.025	-1.504	4.426	 H	1	UNK0	0.000	
43	   H	-2.644	-1.576	5.196	 H	1	UNK0	0.000	
44	   H	-0.788	1.963	3.974	 H	1	UNK0	0.000	
45	   H	0.070	0.341	3.860	 H	1	UNK0	0.000	
46	   H	-3.064	1.253	1.155	 H	1	UNK0	0.000	
47	   H	-2.624	2.491	2.368	 H	1	UNK0	0.000	
@<TRIPOS>BOND
1 1 2 1
2 2 3 2
3 2 7 1
4 3 4 1
5 4 5 2
6 5 6 1
7 5 8 1
8 6 7 2
9 8 9 1
10 8 25 1
11 9 10 1
12 10 11 2
13 10 12 1
14 12 13 2
15 12 25 1
16 13 14 1
17 14 15 1
18 15 16 1
19 15 23 1
20 15 24 1
21 16 17 1
22 17 18 1
23 17 22 1
24 18 19 1
25 19 20 1
26 19 24 1
27 20 21 1
28 21 22 1
29 21 23 1
30 25 26 2
31 3 27 1
32 4 28 1
33 6 29 1
34 7 30 1
35 9 31 1
36 11 32 1
37 11 33 1
38 13 34 1
39 14 35 1
40 16 36 1
41 16 37 1
42 18 38 1
43 18 39 1
44 20 40 1
45 20 41 1
46 22 42 1
47 22 43 1
48 23 44 1
49 23 45 1
50 24 46 1
51 24 47 1
@<TRIPOS>SUBSTRUCTURE
1	UNK0	1	GROUP	1 ****	UNK
