# created with PyMOL 2.3.2
@<TRIPOS>MOLECULE
1764
61 64 1                 
SMALL
USER_CHARGES
@<TRIPOS>ATOM
1	   S	-0.377	-1.072	3.132	S.O2	1	UNK0	0.000	
2	   O	-0.587	-2.289	4.031	O.2	1	UNK0	0.000	
3	   O	-0.285	0.091	4.122	O.2	1	UNK0	0.000	
4	   N	-1.662	-0.795	2.118	N.3	1	UNK0	0.000	
5	   C	-2.088	-1.637	1.109	C.3	1	UNK0	0.000	
6	   C	-3.448	-2.178	1.572	C.3	1	UNK0	0.000	
7	   C	-4.033	-0.970	2.270	C.3	1	UNK0	0.000	
8	   C	-2.828	-0.216	2.779	C.3	1	UNK0	0.000	
9	   C	-2.308	-0.811	-0.147	C.2	1	UNK0	0.000	
10	   O	-2.859	-1.399	-1.087	O.2	1	UNK0	0.000	
11	   N	-1.891	0.531	-0.176	N.pl3	1	UNK0	0.000	
12	   C	-2.102	1.332	-1.357	C.3	1	UNK0	0.000	
13	   C	-1.459	0.836	-2.595	C.3	1	UNK0	0.000	
14	   N	-0.044	0.720	-2.573	N.3	1	UNK0	0.000	
15	   C	0.678	1.949	-2.512	C.3	1	UNK0	0.000	
16	   C	1.862	1.746	-1.588	C.3	1	UNK0	0.000	
17	   C	2.625	0.516	-2.035	C.3	1	UNK0	0.000	
18	   C	2.809	0.589	-3.527	C.3	1	UNK0	0.000	
19	   C	1.623	0.178	-4.317	C.3	1	UNK0	0.000	
20	   C	0.425	-0.218	-3.539	C.3	1	UNK0	0.000	
21	   C	1.172	-1.202	2.353	C.2	1	UNK0	0.000	
22	   C	2.012	-0.076	2.328	C.2	1	UNK0	0.000	
23	   C	3.221	-0.044	1.694	C.2	1	UNK0	0.000	
24	   C	3.624	-1.197	1.045	C.2	1	UNK0	0.000	
25	   C	2.860	-2.325	1.030	C.2	1	UNK0	0.000	
26	   C	1.638	-2.303	1.692	C.2	1	UNK0	0.000	
27	  Cl	0.765	-3.819	1.716	Cl	1	UNK0	0.000	
28	   N	4.896	-1.179	0.379	N.pl3	1	UNK0	0.000	
29	   C	5.688	0.006	0.409	C.2	1	UNK0	0.000	
30	   O	6.530	0.216	-0.482	O.2	1	UNK0	0.000	
31	   C	5.459	0.949	1.532	C.3	1	UNK0	0.000	
32	   O	4.046	1.070	1.673	O.3	1	UNK0	0.000	
33	   H	-1.514	-2.530	0.856	 H	1	UNK0	0.000	
34	   H	-4.049	-2.576	0.762	 H	1	UNK0	0.000	
35	   H	-3.245	-2.981	2.303	 H	1	UNK0	0.000	
36	   H	-4.593	-0.400	1.490	 H	1	UNK0	0.000	
37	   H	-4.672	-1.236	3.121	 H	1	UNK0	0.000	
38	   H	-2.731	-0.292	3.886	 H	1	UNK0	0.000	
39	   H	-2.893	0.839	2.462	 H	1	UNK0	0.000	
40	   H	-1.418	0.991	0.628	 H	1	UNK0	0.000	
41	   H	-3.216	1.337	-1.544	 H	1	UNK0	0.000	
42	   H	-1.829	2.387	-1.197	 H	1	UNK0	0.000	
43	   H	-1.747	1.483	-3.434	 H	1	UNK0	0.000	
44	   H	-1.873	-0.185	-2.823	 H	1	UNK0	0.000	
45	   H	0.060	2.813	-2.213	 H	1	UNK0	0.000	
46	   H	1.081	2.180	-3.519	 H	1	UNK0	0.000	
47	   H	2.589	2.604	-1.668	 H	1	UNK0	0.000	
48	   H	1.573	1.704	-0.522	 H	1	UNK0	0.000	
49	   H	3.574	0.379	-1.531	 H	1	UNK0	0.000	
50	   H	1.990	-0.369	-1.823	 H	1	UNK0	0.000	
51	   H	3.744	0.002	-3.765	 H	1	UNK0	0.000	
52	   H	3.064	1.642	-3.804	 H	1	UNK0	0.000	
53	   H	1.364	0.938	-5.111	 H	1	UNK0	0.000	
54	   H	1.925	-0.726	-4.925	 H	1	UNK0	0.000	
55	   H	0.583	-1.194	-3.036	 H	1	UNK0	0.000	
56	   H	-0.398	-0.408	-4.278	 H	1	UNK0	0.000	
57	   H	1.676	0.825	2.846	 H	1	UNK0	0.000	
58	   H	3.211	-3.211	0.509	 H	1	UNK0	0.000	
59	   H	5.215	-2.047	-0.118	 H	1	UNK0	0.000	
60	   H	5.909	1.932	1.388	 H	1	UNK0	0.000	
61	   H	5.818	0.466	2.482	 H	1	UNK0	0.000	
@<TRIPOS>BOND
1 1 2 2
2 1 3 2
3 1 4 1
4 1 21 1
5 4 5 1
6 4 8 1
7 5 6 1
8 5 9 1
9 6 7 1
10 7 8 1
11 9 10 2
12 9 11 1
13 11 12 1
14 12 13 1
15 13 14 1
16 14 15 1
17 14 20 1
18 15 16 1
19 16 17 1
20 17 18 1
21 18 19 1
22 19 20 1
23 21 22 2
24 21 26 1
25 22 23 1
26 23 24 2
27 23 32 1
28 24 25 1
29 24 28 1
30 25 26 2
31 26 27 1
32 28 29 1
33 29 30 2
34 29 31 1
35 31 32 1
36 5 33 1
37 6 34 1
38 6 35 1
39 7 36 1
40 7 37 1
41 8 38 1
42 8 39 1
43 11 40 1
44 12 41 1
45 12 42 1
46 13 43 1
47 13 44 1
48 15 45 1
49 15 46 1
50 16 47 1
51 16 48 1
52 17 49 1
53 17 50 1
54 18 51 1
55 18 52 1
56 19 53 1
57 19 54 1
58 20 55 1
59 20 56 1
60 22 57 1
61 25 58 1
62 28 59 1
63 31 60 1
64 31 61 1
@<TRIPOS>SUBSTRUCTURE
1	UNK0	1	GROUP	1 ****	UNK
