REMARK  6 active torsions:
REMARK  status: ('A' for Active; 'I' for Inactive)
REMARK    1  A    between atoms: S_1  and  N_4 
REMARK    2  A    between atoms: S_1  and  C_21 
REMARK    3  A    between atoms: C_5  and  C_9 
REMARK       I    between atoms: C_9  and  N_11 
REMARK    4  A    between atoms: N_11  and  C_12 
REMARK    5  A    between atoms: C_12  and  C_13 
REMARK    6  A    between atoms: C_13  and  N_14 
ROOT
ATOM      1  N   UNK d   1      -1.662  -0.795   2.118  0.00  0.00    -0.293 N 
ATOM      2  C   UNK d   1      -2.088  -1.637   1.109  0.00  0.00     0.188 C 
ATOM      3  C   UNK d   1      -3.448  -2.178   1.572  0.00  0.00     0.037 C 
ATOM      4  C   UNK d   1      -4.033  -0.970   2.270  0.00  0.00     0.023 C 
ATOM      5  C   UNK d   1      -2.828  -0.216   2.779  0.00  0.00     0.136 C 
ENDROOT
BRANCH   1   6
ATOM      6  S   UNK d   1      -0.377  -1.072   3.132  0.00  0.00     0.263 S 
ATOM      7  O   UNK d   1      -0.587  -2.289   4.031  0.00  0.00    -0.200 OA
ATOM      8  O   UNK d   1      -0.285   0.091   4.122  0.00  0.00    -0.200 OA
BRANCH   6   9
ATOM      9  C   UNK d   1       1.172  -1.202   2.353  0.00  0.00     0.104 A 
ATOM     10  C   UNK d   1       2.012  -0.076   2.328  0.00  0.00     0.066 A 
ATOM     11  C   UNK d   1       3.221  -0.044   1.694  0.00  0.00     0.097 A 
ATOM     12  C   UNK d   1       3.624  -1.197   1.045  0.00  0.00     0.070 A 
ATOM     13  O   UNK d   1       4.046   1.070   1.673  0.00  0.00    -0.340 OA
ATOM     14  C   UNK d   1       2.860  -2.325   1.030  0.00  0.00     0.058 A 
ATOM     15  N   UNK d   1       4.896  -1.179   0.379  0.00  0.00    -0.323 N 
ATOM     16  C   UNK d   1       1.638  -2.303   1.692  0.00  0.00     0.059 A 
ATOM     17 Cl   UNK d   1       0.765  -3.819   1.716  0.00  0.00    -0.083 Cl
ATOM     18  C   UNK d   1       5.688   0.006   0.409  0.00  0.00     0.246 C 
ATOM     19  H   UNK d   1       5.215  -2.047  -0.118  0.00  0.00     0.169 HD
ATOM     20  O   UNK d   1       6.530   0.216  -0.482  0.00  0.00    -0.271 OA
ATOM     21  C   UNK d   1       5.459   0.949   1.532  0.00  0.00     0.278 C 
ENDBRANCH   6   9
ENDBRANCH   1   6
BRANCH   2  22
ATOM     22  C   UNK d   1      -2.308  -0.811  -0.147  0.00  0.00     0.241 C 
ATOM     23  O   UNK d   1      -2.859  -1.399  -1.087  0.00  0.00    -0.271 OA
ATOM     24  N   UNK d   1      -1.891   0.531  -0.176  0.00  0.00    -0.358 N 
ATOM     25  H   UNK d   1      -1.418   0.991   0.628  0.00  0.00     0.162 HD
BRANCH  24  26
ATOM     26  C   UNK d   1      -2.102   1.332  -1.357  0.00  0.00     0.152 C 
BRANCH  26  27
ATOM     27  C   UNK d   1      -1.459   0.836  -2.595  0.00  0.00     0.292 C 
BRANCH  27  28
ATOM     28  N   UNK d   1      -0.044   0.720  -2.573  0.00  0.00     0.090 N 
ATOM     29  C   UNK d   1       0.678   1.949  -2.512  0.00  0.00     0.272 C 
ATOM     30  C   UNK d   1       1.862   1.746  -1.588  0.00  0.00     0.030 C 
ATOM     31  C   UNK d   1       2.625   0.516  -2.035  0.00  0.00     0.002 C 
ATOM     32  C   UNK d   1       2.809   0.589  -3.527  0.00  0.00     0.002 C 
ATOM     33  C   UNK d   1       1.623   0.178  -4.317  0.00  0.00     0.030 C 
ATOM     34  C   UNK d   1       0.425  -0.218  -3.539  0.00  0.00     0.272 C 
ENDBRANCH  27  28
ENDBRANCH  26  27
ENDBRANCH  24  26
ENDBRANCH   2  22
TORSDOF 6
