# created with PyMOL 2.3.2
@<TRIPOS>MOLECULE
1781
39 42 1                 
SMALL
USER_CHARGES
@<TRIPOS>ATOM
1	  Cl	-6.272	1.611	-2.223	Cl	1	UNK0	0.000	
2	   C	-4.965	1.227	-1.094	C.2	1	UNK0	0.000	
3	   C	-5.086	0.193	-0.199	C.2	1	UNK0	0.000	
4	   C	-4.068	-0.102	0.678	C.2	1	UNK0	0.000	
5	   C	-2.862	0.607	0.727	C.2	1	UNK0	0.000	
6	   C	-2.768	1.637	-0.181	C.2	1	UNK0	0.000	
7	   C	-3.801	1.950	-1.083	C.2	1	UNK0	0.000	
8	   C	-1.837	0.201	1.646	C.2	1	UNK0	0.000	
9	   O	-2.081	-0.944	2.233	O.2	1	UNK0	0.000	
10	   N	-0.644	0.802	2.018	N.pl3	1	UNK0	0.000	
11	   C	-0.065	2.052	1.654	C.3	1	UNK0	0.000	
12	   C	0.994	1.705	0.588	C.3	1	UNK0	0.000	
13	   N	1.674	0.477	1.040	N.pl3	1	UNK0	0.000	
14	   C	1.685	0.197	2.447	C.3	1	UNK0	0.000	
15	   C	0.256	0.009	2.921	C.3	1	UNK0	0.000	
16	   C	2.292	-0.375	0.079	C.2	1	UNK0	0.000	
17	   N	2.879	-1.535	0.448	N.2	1	UNK0	0.000	
18	   N	3.463	-2.348	-0.414	N.pl3	1	UNK0	0.000	
19	   C	3.518	-2.084	-1.727	C.2	1	UNK0	0.000	
20	   N	4.170	-3.078	-2.379	N.2	1	UNK0	0.000	
21	   N	4.523	-3.967	-1.469	N.2	1	UNK0	0.000	
22	   C	4.103	-3.542	-0.264	C.2	1	UNK0	0.000	
23	   C	2.938	-0.913	-2.184	C.2	1	UNK0	0.000	
24	   C	2.337	-0.084	-1.266	C.2	1	UNK0	0.000	
25	   H	-6.007	-0.374	-0.212	 H	1	UNK0	0.000	
26	   H	-4.200	-0.918	1.366	 H	1	UNK0	0.000	
27	   H	-1.866	2.215	-0.230	 H	1	UNK0	0.000	
28	   H	-3.691	2.772	-1.786	 H	1	UNK0	0.000	
29	   H	-0.688	2.888	1.427	 H	1	UNK0	0.000	
30	   H	0.611	2.387	2.532	 H	1	UNK0	0.000	
31	   H	1.723	2.527	0.467	 H	1	UNK0	0.000	
32	   H	0.424	1.524	-0.332	 H	1	UNK0	0.000	
33	   H	2.100	1.036	3.050	 H	1	UNK0	0.000	
34	   H	2.209	-0.759	2.652	 H	1	UNK0	0.000	
35	   H	0.097	0.371	3.952	 H	1	UNK0	0.000	
36	   H	-0.058	-1.046	2.875	 H	1	UNK0	0.000	
37	   H	4.243	-4.057	0.684	 H	1	UNK0	0.000	
38	   H	2.959	-0.659	-3.241	 H	1	UNK0	0.000	
39	   H	1.865	0.858	-1.583	 H	1	UNK0	0.000	
@<TRIPOS>BOND
1 1 2 1
2 2 3 2
3 2 7 1
4 3 4 1
5 4 5 2
6 5 6 1
7 5 8 1
8 6 7 2
9 8 9 2
10 8 10 1
11 10 11 1
12 10 15 1
13 11 12 1
14 12 13 1
15 13 14 1
16 13 16 1
17 14 15 1
18 16 17 2
19 16 24 1
20 17 18 1
21 18 19 1
22 18 22 1
23 19 20 2
24 19 23 1
25 20 21 1
26 21 22 2
27 23 24 2
28 3 25 1
29 4 26 1
30 6 27 1
31 7 28 1
32 11 29 1
33 11 30 1
34 12 31 1
35 12 32 1
36 14 33 1
37 14 34 1
38 15 35 1
39 15 36 1
40 22 37 1
41 23 38 1
42 24 39 1
@<TRIPOS>SUBSTRUCTURE
1	UNK0	1	GROUP	1 ****	UNK
