REMARK  2 active torsions:
REMARK  status: ('A' for Active; 'I' for Inactive)
REMARK    1  A    between atoms: C_5  and  C_8 
REMARK       I    between atoms: C_8  and  N_10 
REMARK    2  A    between atoms: N_13  and  C_16 
ROOT
ATOM      1  C   UNK d   1      -1.837   0.201   1.646  0.00  0.00     0.187 C 
ATOM      2  O   UNK d   1      -2.081  -0.944   2.233  0.00  0.00    -0.171 OA
ATOM      3  N   UNK d   1      -0.644   0.802   2.018  0.00  0.00    -0.356 N 
ATOM      4  C   UNK d   1      -0.065   2.052   1.654  0.00  0.00     0.145 C 
ATOM      5  C   UNK d   1       0.994   1.705   0.588  0.00  0.00     0.144 C 
ATOM      6  N   UNK d   1       1.674   0.477   1.040  0.00  0.00    -0.361 N 
ATOM      7  C   UNK d   1       1.685   0.197   2.447  0.00  0.00     0.144 C 
ATOM      8  C   UNK d   1       0.256   0.009   2.921  0.00  0.00     0.145 C 
ENDROOT
BRANCH   1   9
ATOM      9  C   UNK d   1      -2.862   0.607   0.727  0.00  0.00     0.018 A 
ATOM     10  C   UNK d   1      -4.068  -0.102   0.678  0.00  0.00     0.017 A 
ATOM     11  C   UNK d   1      -5.086   0.193  -0.199  0.00  0.00     0.025 A 
ATOM     12  C   UNK d   1      -4.965   1.227  -1.094  0.00  0.00     0.034 A 
ATOM     13 Cl   UNK d   1      -6.272   1.611  -2.223  0.00  0.00    -0.084 Cl
ATOM     14  C   UNK d   1      -3.801   1.950  -1.083  0.00  0.00     0.025 A 
ATOM     15  C   UNK d   1      -2.768   1.637  -0.181  0.00  0.00     0.017 A 
ENDBRANCH   1   9
BRANCH   6  16
ATOM     16  C   UNK d   1       2.292  -0.375   0.079  0.00  0.00     0.146 A 
ATOM     17  N   UNK d   1       2.879  -1.535   0.448  0.00  0.00    -0.147 NA
ATOM     18  N   UNK d   1       3.463  -2.348  -0.414  0.00  0.00    -0.204 N 
ATOM     19  C   UNK d   1       3.518  -2.084  -1.727  0.00  0.00     0.174 A 
ATOM     20  C   UNK d   1       4.103  -3.542  -0.264  0.00  0.00     0.261 A 
ATOM     21  N   UNK d   1       4.170  -3.078  -2.379  0.00  0.00    -0.129 NA
ATOM     22  C   UNK d   1       2.938  -0.913  -2.184  0.00  0.00     0.058 A 
ATOM     23  N   UNK d   1       4.523  -3.967  -1.469  0.00  0.00    -0.141 NA
ATOM     24  C   UNK d   1       2.337  -0.084  -1.266  0.00  0.00     0.056 A 
ENDBRANCH   6  16
TORSDOF 2
