REMARK  4 active torsions:
REMARK  status: ('A' for Active; 'I' for Inactive)
REMARK    1  A    between atoms: C_5  and  N_8 
REMARK    2  A    between atoms: C_10  and  C_24 
REMARK    3  A    between atoms: N_11  and  C_14 
REMARK    4  A    between atoms: C_14  and  C_15 
REMARK       I    between atoms: C_15  and  N_17 
ROOT
ATOM      1  N   UNK d   1      -1.121   0.482  -1.458  0.00  0.00    -0.181 N 
ATOM      2  N   UNK d   1      -1.014  -0.489  -0.622  0.00  0.00    -0.144 NA
ATOM      3  C   UNK d   1      -0.627  -0.041   0.631  0.00  0.00     0.165 A 
ATOM      4  N   UNK d   1      -0.497   1.268   0.525  0.00  0.00    -0.272 N 
ATOM      5  C   UNK d   1      -0.809   1.587  -0.777  0.00  0.00     0.352 A 
ATOM      6  O   UNK d   1      -0.789   2.756  -1.218  0.00  0.00    -0.244 OA
ENDROOT
BRANCH   4   7
ATOM      7  C   UNK d   1      -0.024   2.215   1.485  0.00  0.00     0.222 C 
BRANCH   7   8
ATOM      8  C   UNK d   1       1.394   2.599   1.350  0.00  0.00     0.172 C 
ATOM      9  O   UNK d   1       1.555   3.817   0.922  0.00  0.00    -0.175 OA
ATOM     10  N   UNK d   1       2.554   1.899   1.596  0.00  0.00    -0.351 N 
ATOM     11  C   UNK d   1       2.630   0.530   2.031  0.00  0.00     0.145 C 
ATOM     12  C   UNK d   1       3.851   2.576   1.423  0.00  0.00     0.227 C 
ATOM     13  C   UNK d   1       4.083   0.039   2.159  0.00  0.00     0.142 C 
ATOM     14  N   UNK d   1       4.826   0.967   3.017  0.00  0.00    -0.358 N 
ATOM     15  C   UNK d   1       4.607   2.354   2.679  0.00  0.00     0.235 C 
ATOM     16  H   UNK d   1       5.439   0.668   3.780  0.00  0.00     0.162 HD
ATOM     17  O   UNK d   1       5.041   3.262   3.424  0.00  0.00    -0.272 OA
ENDBRANCH   7   8
ENDBRANCH   4   7
BRANCH   3  18
ATOM     18  C   UNK d   1      -0.423  -0.994   1.720  0.00  0.00     0.012 A 
ATOM     19  C   UNK d   1      -0.183  -2.333   1.386  0.00  0.00     0.015 A 
ATOM     20  C   UNK d   1      -0.036  -3.335   2.305  0.00  0.00     0.001 A 
ATOM     21  C   UNK d   1      -0.121  -3.063   3.664  0.00  0.00     0.000 A 
ATOM     22  C   UNK d   1      -0.357  -1.760   4.002  0.00  0.00     0.001 A 
ATOM     23  C   UNK d   1      -0.507  -0.740   3.058  0.00  0.00     0.015 A 
ENDBRANCH   3  18
BRANCH   1  24
ATOM     24  C   UNK d   1      -1.498   0.363  -2.826  0.00  0.00     0.063 A 
ATOM     25  C   UNK d   1      -0.779  -0.456  -3.674  0.00  0.00     0.033 A 
ATOM     26  C   UNK d   1      -1.130  -0.584  -5.007  0.00  0.00     0.026 A 
ATOM     27  C   UNK d   1      -2.204   0.091  -5.556  0.00  0.00     0.034 A 
ATOM     28 Cl   UNK d   1      -2.657  -0.061  -7.243  0.00  0.00    -0.084 Cl
ATOM     29  C   UNK d   1      -2.924   0.913  -4.703  0.00  0.00     0.026 A 
ATOM     30  C   UNK d   1      -2.572   1.042  -3.362  0.00  0.00     0.033 A 
ENDBRANCH   1  24
TORSDOF 4
