REMARK  4 active torsions:
REMARK  status: ('A' for Active; 'I' for Inactive)
REMARK    1  A    between atoms: C_5  and  N_8 
REMARK    2  A    between atoms: N_15  and  C_18 
REMARK    3  A    between atoms: C_20  and  O_26 
REMARK    4  A    between atoms: C_21  and  O_24 
ROOT
ATOM      1  N   UNK d   1       1.525  -0.864   3.117  0.00  0.00    -0.234 N 
ATOM      2  N   UNK d   1       1.198  -0.322   4.266  0.00  0.00    -0.234 N 
ATOM      3  N   UNK d   1       0.481   0.762   3.986  0.00  0.00    -0.278 N 
ATOM      4  C   UNK d   1       0.346   0.917   2.655  0.00  0.00     0.152 A 
ATOM      5  C   UNK d   1       1.009  -0.116   2.125  0.00  0.00     0.160 A 
ATOM      6  C   UNK d   1       0.873   0.041   0.753  0.00  0.00     0.286 A 
ATOM      7  O   UNK d   1       1.364  -0.742  -0.091  0.00  0.00    -0.265 OA
ATOM      8  N   UNK d   1       0.152   1.129   0.443  0.00  0.00    -0.241 N 
ATOM      9  C   UNK d   1      -0.177   1.676   1.628  0.00  0.00     0.286 A 
ATOM     10  O   UNK d   1      -0.864   2.730   1.779  0.00  0.00    -0.265 OA
ATOM     11  H   UNK d   1       1.453  -0.674   5.236  0.00  0.00     0.209 HD
ATOM     12  H   UNK d   1       0.087   1.391   4.726  0.00  0.00     0.189 HD
ENDROOT
BRANCH   8  13
ATOM     13  C   UNK d   1      -0.211   1.633  -0.839  0.00  0.00     0.049 A 
ATOM     14  C   UNK d   1      -0.061   2.959  -1.195  0.00  0.00     0.069 A 
ATOM     15  C   UNK d   1      -0.414   3.439  -2.439  0.00  0.00     0.103 A 
ATOM     16  C   UNK d   1      -0.944   2.601  -3.398  0.00  0.00     0.101 A 
ATOM     17  C   UNK d   1      -1.100   1.274  -3.057  0.00  0.00     0.042 A 
ATOM     18  C   UNK d   1      -0.742   0.802  -1.807  0.00  0.00     0.033 A 
BRANCH  15  19
ATOM     19  O   UNK d   1      -0.263   4.775  -2.797  0.00  0.00    -0.353 OA
ATOM     20  C   UNK d   1       0.279   5.651  -1.826  0.00  0.00     0.210 C 
ENDBRANCH  15  19
BRANCH  16  21
ATOM     21  O   UNK d   1      -1.298   3.095  -4.651  0.00  0.00    -0.353 OA
ATOM     22  C   UNK d   1      -1.837   2.309  -5.669  0.00  0.00     0.210 C 
ENDBRANCH  16  21
ENDBRANCH   8  13
BRANCH   1  23
ATOM     23  C   UNK d   1       2.290  -2.039   2.955  0.00  0.00     0.058 A 
ATOM     24  C   UNK d   1       1.993  -3.176   3.700  0.00  0.00     0.033 A 
ATOM     25  C   UNK d   1       2.783  -4.287   3.489  0.00  0.00     0.026 A 
ATOM     26  C   UNK d   1       3.824  -4.336   2.606  0.00  0.00     0.034 A 
ATOM     27 Cl   UNK d   1       4.807  -5.783   2.371  0.00  0.00    -0.084 Cl
ATOM     28  C   UNK d   1       4.109  -3.209   1.875  0.00  0.00     0.026 A 
ATOM     29  C   UNK d   1       3.356  -2.082   2.047  0.00  0.00     0.033 A 
ENDBRANCH   1  23
TORSDOF 4
