# created with PyMOL 2.3.2
@<TRIPOS>MOLECULE
1789
42 45 1                 
SMALL
USER_CHARGES
@<TRIPOS>ATOM
1	  Cl	4.807	-5.783	2.371	Cl	1	UNK0	0.000	
2	   C	3.824	-4.336	2.606	C.2	1	UNK0	0.000	
3	   C	2.783	-4.287	3.489	C.2	1	UNK0	0.000	
4	   C	1.993	-3.176	3.700	C.2	1	UNK0	0.000	
5	   C	2.290	-2.039	2.955	C.2	1	UNK0	0.000	
6	   C	3.356	-2.082	2.047	C.2	1	UNK0	0.000	
7	   C	4.109	-3.209	1.875	C.2	1	UNK0	0.000	
8	   N	1.525	-0.864	3.117	N.pl3	1	UNK0	0.000	
9	   N	1.198	-0.322	4.266	N.pl3	1	UNK0	0.000	
10	   N	0.481	0.762	3.986	N.pl3	1	UNK0	0.000	
11	   C	0.346	0.917	2.655	C.2	1	UNK0	0.000	
12	   C	1.009	-0.116	2.125	C.2	1	UNK0	0.000	
13	   C	0.873	0.041	0.753	C.2	1	UNK0	0.000	
14	   O	1.364	-0.742	-0.091	O.2	1	UNK0	0.000	
15	   N	0.152	1.129	0.443	N.pl3	1	UNK0	0.000	
16	   C	-0.177	1.676	1.628	C.2	1	UNK0	0.000	
17	   O	-0.864	2.730	1.779	O.2	1	UNK0	0.000	
18	   C	-0.211	1.633	-0.839	C.2	1	UNK0	0.000	
19	   C	-0.061	2.959	-1.195	C.2	1	UNK0	0.000	
20	   C	-0.414	3.439	-2.439	C.2	1	UNK0	0.000	
21	   C	-0.944	2.601	-3.398	C.2	1	UNK0	0.000	
22	   C	-1.100	1.274	-3.057	C.2	1	UNK0	0.000	
23	   C	-0.742	0.802	-1.807	C.2	1	UNK0	0.000	
24	   O	-1.298	3.095	-4.651	O.3	1	UNK0	0.000	
25	   C	-1.837	2.309	-5.669	C.3	1	UNK0	0.000	
26	   O	-0.263	4.775	-2.797	O.3	1	UNK0	0.000	
27	   C	0.279	5.651	-1.826	C.3	1	UNK0	0.000	
28	   H	2.556	-5.182	4.069	 H	1	UNK0	0.000	
29	   H	1.174	-3.171	4.409	 H	1	UNK0	0.000	
30	   H	3.597	-1.192	1.457	 H	1	UNK0	0.000	
31	   H	4.947	-3.257	1.168	 H	1	UNK0	0.000	
32	   H	1.453	-0.674	5.236	 H	1	UNK0	0.000	
33	   H	0.087	1.391	4.726	 H	1	UNK0	0.000	
34	   H	0.353	3.621	-0.450	 H	1	UNK0	0.000	
35	   H	-1.515	0.615	-3.808	 H	1	UNK0	0.000	
36	   H	-0.869	-0.244	-1.550	 H	1	UNK0	0.000	
37	   H	-1.714	2.751	-6.679	 H	1	UNK0	0.000	
38	   H	-1.362	1.294	-5.721	 H	1	UNK0	0.000	
39	   H	-2.915	2.157	-5.465	 H	1	UNK0	0.000	
40	   H	1.199	5.222	-1.394	 H	1	UNK0	0.000	
41	   H	0.482	6.656	-2.238	 H	1	UNK0	0.000	
42	   H	-0.482	5.785	-1.030	 H	1	UNK0	0.000	
@<TRIPOS>BOND
1 1 2 1
2 2 3 2
3 2 7 1
4 3 4 1
5 4 5 2
6 5 6 1
7 5 8 1
8 6 7 2
9 8 9 1
10 8 12 1
11 9 10 1
12 10 11 1
13 11 12 2
14 11 16 1
15 12 13 1
16 13 14 2
17 13 15 1
18 15 16 1
19 15 18 1
20 16 17 2
21 18 19 2
22 18 23 1
23 19 20 1
24 20 21 2
25 20 26 1
26 21 22 1
27 21 24 1
28 22 23 2
29 24 25 1
30 26 27 1
31 3 28 1
32 4 29 1
33 6 30 1
34 7 31 1
35 9 32 1
36 10 33 1
37 19 34 1
38 22 35 1
39 23 36 1
40 25 37 1
41 25 38 1
42 25 39 1
43 27 40 1
44 27 41 1
45 27 42 1
@<TRIPOS>SUBSTRUCTURE
1	UNK0	1	GROUP	1 ****	UNK
