# created with PyMOL 2.3.2
@<TRIPOS>MOLECULE
1790
42 45 1                 
SMALL
USER_CHARGES
@<TRIPOS>ATOM
1	  Cl	2.799	3.731	-5.948	Cl	1	UNK0	0.000	
2	   C	2.678	2.472	-4.712	C.2	1	UNK0	0.000	
3	   C	3.056	2.743	-3.413	C.2	1	UNK0	0.000	
4	   C	2.978	1.798	-2.424	C.2	1	UNK0	0.000	
5	   C	2.512	0.521	-2.697	C.2	1	UNK0	0.000	
6	   C	2.137	0.267	-4.006	C.2	1	UNK0	0.000	
7	   C	2.214	1.216	-5.004	C.2	1	UNK0	0.000	
8	   N	2.418	-0.482	-1.700	N.pl3	1	UNK0	0.000	
9	   N	3.209	-1.530	-1.584	N.pl3	1	UNK0	0.000	
10	   N	2.773	-2.202	-0.526	N.pl3	1	UNK0	0.000	
11	   C	1.713	-1.598	0.038	C.2	1	UNK0	0.000	
12	   C	1.497	-0.507	-0.716	C.2	1	UNK0	0.000	
13	   C	0.407	0.112	-0.134	C.2	1	UNK0	0.000	
14	   O	-0.084	1.188	-0.588	O.2	1	UNK0	0.000	
15	   N	-0.040	-0.563	0.938	N.pl3	1	UNK0	0.000	
16	   C	0.772	-1.628	1.046	C.2	1	UNK0	0.000	
17	   O	0.669	-2.512	1.948	O.2	1	UNK0	0.000	
18	   C	-1.148	-0.183	1.751	C.2	1	UNK0	0.000	
19	   C	-2.455	-0.357	1.343	C.2	1	UNK0	0.000	
20	   C	-3.543	0.002	2.112	C.2	1	UNK0	0.000	
21	   C	-3.312	0.564	3.350	C.2	1	UNK0	0.000	
22	   C	-2.026	0.762	3.809	C.2	1	UNK0	0.000	
23	   C	-0.961	0.384	2.997	C.2	1	UNK0	0.000	
24	   O	-1.833	1.331	5.061	O.3	1	UNK0	0.000	
25	   C	-0.553	1.558	5.584	C.3	1	UNK0	0.000	
26	   O	-4.858	-0.197	1.649	O.3	1	UNK0	0.000	
27	   C	-5.055	-0.774	0.379	C.3	1	UNK0	0.000	
28	   H	3.425	3.755	-3.199	 H	1	UNK0	0.000	
29	   H	3.277	2.018	-1.408	 H	1	UNK0	0.000	
30	   H	1.767	-0.747	-4.222	 H	1	UNK0	0.000	
31	   H	1.915	0.982	-5.999	 H	1	UNK0	0.000	
32	   H	4.014	-1.764	-2.213	 H	1	UNK0	0.000	
33	   H	3.197	-3.087	-0.173	 H	1	UNK0	0.000	
34	   H	-2.591	-0.806	0.354	 H	1	UNK0	0.000	
35	   H	-4.170	0.849	3.959	 H	1	UNK0	0.000	
36	   H	0.065	0.542	3.364	 H	1	UNK0	0.000	
37	   H	-0.138	0.563	5.883	 H	1	UNK0	0.000	
38	   H	0.114	2.098	4.893	 H	1	UNK0	0.000	
39	   H	-0.681	2.214	6.494	 H	1	UNK0	0.000	
40	   H	-4.435	-1.668	0.211	 H	1	UNK0	0.000	
41	   H	-6.116	-1.060	0.254	 H	1	UNK0	0.000	
42	   H	-4.812	-0.058	-0.445	 H	1	UNK0	0.000	
@<TRIPOS>BOND
1 1 2 1
2 2 3 2
3 2 7 1
4 3 4 1
5 4 5 2
6 5 6 1
7 5 8 1
8 6 7 2
9 8 9 1
10 8 12 1
11 9 10 1
12 10 11 1
13 11 12 2
14 11 16 1
15 12 13 1
16 13 14 2
17 13 15 1
18 15 16 1
19 15 18 1
20 16 17 2
21 18 19 2
22 18 23 1
23 19 20 1
24 20 21 2
25 20 26 1
26 21 22 1
27 22 23 2
28 22 24 1
29 24 25 1
30 26 27 1
31 3 28 1
32 4 29 1
33 6 30 1
34 7 31 1
35 9 32 1
36 10 33 1
37 19 34 1
38 21 35 1
39 23 36 1
40 25 37 1
41 25 38 1
42 25 39 1
43 27 40 1
44 27 41 1
45 27 42 1
@<TRIPOS>SUBSTRUCTURE
1	UNK0	1	GROUP	1 ****	UNK
