REMARK  4 active torsions:
REMARK  status: ('A' for Active; 'I' for Inactive)
REMARK    1  A    between atoms: C_5  and  N_8 
REMARK    2  A    between atoms: N_15  and  C_18 
REMARK    3  A    between atoms: C_20  and  O_26 
REMARK    4  A    between atoms: C_22  and  O_24 
ROOT
ATOM      1  N   UNK d   1       2.418  -0.482  -1.700  0.00  0.00    -0.234 N 
ATOM      2  N   UNK d   1       3.209  -1.530  -1.584  0.00  0.00    -0.234 N 
ATOM      3  N   UNK d   1       2.773  -2.202  -0.526  0.00  0.00    -0.278 N 
ATOM      4  C   UNK d   1       1.713  -1.598   0.038  0.00  0.00     0.152 A 
ATOM      5  C   UNK d   1       1.497  -0.507  -0.716  0.00  0.00     0.160 A 
ATOM      6  C   UNK d   1       0.407   0.112  -0.134  0.00  0.00     0.286 A 
ATOM      7  O   UNK d   1      -0.084   1.188  -0.588  0.00  0.00    -0.265 OA
ATOM      8  N   UNK d   1      -0.040  -0.563   0.938  0.00  0.00    -0.241 N 
ATOM      9  C   UNK d   1       0.772  -1.628   1.046  0.00  0.00     0.286 A 
ATOM     10  O   UNK d   1       0.669  -2.512   1.948  0.00  0.00    -0.265 OA
ATOM     11  H   UNK d   1       4.014  -1.764  -2.213  0.00  0.00     0.209 HD
ATOM     12  H   UNK d   1       3.197  -3.087  -0.173  0.00  0.00     0.189 HD
ENDROOT
BRANCH   8  13
ATOM     13  C   UNK d   1      -1.148  -0.183   1.751  0.00  0.00     0.051 A 
ATOM     14  C   UNK d   1      -2.455  -0.357   1.343  0.00  0.00     0.067 A 
ATOM     15  C   UNK d   1      -3.543   0.002   2.112  0.00  0.00     0.073 A 
ATOM     16  C   UNK d   1      -3.312   0.564   3.350  0.00  0.00     0.073 A 
ATOM     17  C   UNK d   1      -2.026   0.762   3.809  0.00  0.00     0.073 A 
ATOM     18  C   UNK d   1      -0.961   0.384   2.997  0.00  0.00     0.067 A 
BRANCH  15  19
ATOM     19  O   UNK d   1      -4.858  -0.197   1.649  0.00  0.00    -0.356 OA
ATOM     20  C   UNK d   1      -5.055  -0.774   0.379  0.00  0.00     0.210 C 
ENDBRANCH  15  19
BRANCH  17  21
ATOM     21  O   UNK d   1      -1.833   1.331   5.061  0.00  0.00    -0.356 OA
ATOM     22  C   UNK d   1      -0.553   1.558   5.584  0.00  0.00     0.210 C 
ENDBRANCH  17  21
ENDBRANCH   8  13
BRANCH   1  23
ATOM     23  C   UNK d   1       2.512   0.521  -2.697  0.00  0.00     0.058 A 
ATOM     24  C   UNK d   1       2.978   1.798  -2.424  0.00  0.00     0.033 A 
ATOM     25  C   UNK d   1       3.056   2.743  -3.413  0.00  0.00     0.026 A 
ATOM     26  C   UNK d   1       2.678   2.472  -4.712  0.00  0.00     0.034 A 
ATOM     27 Cl   UNK d   1       2.799   3.731  -5.948  0.00  0.00    -0.084 Cl
ATOM     28  C   UNK d   1       2.214   1.216  -5.004  0.00  0.00     0.026 A 
ATOM     29  C   UNK d   1       2.137   0.267  -4.006  0.00  0.00     0.033 A 
ENDBRANCH   1  23
TORSDOF 4
