REMARK  3 active torsions:
REMARK  status: ('A' for Active; 'I' for Inactive)
REMARK    1  A    between atoms: N_15  and  C_19 
REMARK    2  A    between atoms: C_19  and  C_20 
REMARK       I    between atoms: C_20  and  N_22 
REMARK    3  A    between atoms: N_22  and  C_23 
ROOT
ATOM      1 Cl   UNK d   1      -4.984  -3.055  -0.530  0.00  0.00    -0.084 Cl
ATOM      2  C   UNK d   1      -4.254  -1.479  -0.225  0.00  0.00     0.036 A 
ATOM      3  C   UNK d   1      -2.955  -1.389   0.243  0.00  0.00     0.055 A 
ATOM      4  C   UNK d   1      -2.377  -0.173   0.483  0.00  0.00     0.077 A 
ATOM      5  C   UNK d   1      -3.144   0.941   0.239  0.00  0.00     0.038 A 
ATOM      6  C   UNK d   1      -4.432   0.880  -0.225  0.00  0.00     0.019 A 
ATOM      7  C   UNK d   1      -5.005  -0.358  -0.464  0.00  0.00     0.025 A 
ATOM      8  C   UNK d   1      -2.553   2.271   0.487  0.00  0.00     0.153 A 
ATOM      9  N   UNK d   1      -3.004   3.469   0.358  0.00  0.00    -0.270 NA
ATOM     10  C   UNK d   1      -2.034   4.457   0.733  0.00  0.00     0.172 A 
ATOM     11  C   UNK d   1      -0.830   3.674   1.143  0.00  0.00     0.171 A 
ATOM     12  N   UNK d   1      -1.219   2.295   0.966  0.00  0.00    -0.160 N 
ATOM     13  C   UNK d   1      -0.463   1.099   1.204  0.00  0.00     0.736 A 
ATOM     14  N   UNK d   1       0.785   0.885   1.646  0.00  0.00     0.025 NA
ATOM     15  N   UNK d   1       1.032  -0.412   1.699  0.00  0.00    -0.194 N 
ATOM     16  C   UNK d   1      -0.095  -1.012   1.279  0.00  0.00     0.365 A 
ATOM     17  O   UNK d   1      -0.236  -2.256   1.194  0.00  0.00    -0.244 OA
ATOM     18  N   UNK d   1      -1.044  -0.090   0.964  0.00  0.00    -0.090 N 
ENDROOT
BRANCH  15  19
ATOM     19  C   UNK d   1       2.259  -1.080   2.121  0.00  0.00     0.259 C 
BRANCH  19  20
ATOM     20  C   UNK d   1       3.135  -1.264   0.940  0.00  0.00     0.237 C 
ATOM     21  O   UNK d   1       4.254  -1.829   1.096  0.00  0.00    -0.272 OA
ATOM     22  N   UNK d   1       2.770  -0.832  -0.362  0.00  0.00    -0.356 N 
ATOM     23  H   UNK d   1       1.845  -0.369  -0.472  0.00  0.00     0.162 HD
BRANCH  22  24
ATOM     24  C   UNK d   1       3.659  -1.033  -1.484  0.00  0.00     0.076 C 
ATOM     25  C   UNK d   1       2.940  -1.778  -2.612  0.00  0.00     0.032 C 
ATOM     26  C   UNK d   1       3.980   0.348  -2.039  0.00  0.00     0.032 C 
ENDBRANCH  22  24
ENDBRANCH  19  20
ENDBRANCH  15  19
TORSDOF 3
