REMARK  5 active torsions:
REMARK  status: ('A' for Active; 'I' for Inactive)
REMARK    1  A    between atoms: N_15  and  C_19 
REMARK    2  A    between atoms: C_19  and  C_20 
REMARK       I    between atoms: C_20  and  N_22 
REMARK    3  A    between atoms: N_22  and  C_23 
REMARK    4  A    between atoms: C_23  and  C_24 
REMARK    5  A    between atoms: C_24  and  O_25 
ROOT
ATOM      1 Cl   UNK d   1      -3.205   3.885  -2.266  0.00  0.00    -0.084 Cl
ATOM      2  C   UNK d   1      -1.599   3.630  -1.578  0.00  0.00     0.036 A 
ATOM      3  C   UNK d   1      -1.453   2.659  -0.584  0.00  0.00     0.055 A 
ATOM      4  C   UNK d   1      -0.225   2.402  -0.009  0.00  0.00     0.077 A 
ATOM      5  C   UNK d   1       0.841   3.152  -0.465  0.00  0.00     0.038 A 
ATOM      6  C   UNK d   1       0.743   4.103  -1.426  0.00  0.00     0.019 A 
ATOM      7  C   UNK d   1      -0.510   4.356  -2.005  0.00  0.00     0.025 A 
ATOM      8  C   UNK d   1       2.155   2.859   0.162  0.00  0.00     0.153 A 
ATOM      9  N   UNK d   1       3.332   3.372  -0.032  0.00  0.00    -0.270 NA
ATOM     10  C   UNK d   1       4.307   2.746   0.831  0.00  0.00     0.172 A 
ATOM     11  C   UNK d   1       3.572   1.703   1.636  0.00  0.00     0.171 A 
ATOM     12  N   UNK d   1       2.211   1.864   1.151  0.00  0.00    -0.160 N 
ATOM     13  C   UNK d   1       1.060   1.132   1.568  0.00  0.00     0.736 A 
ATOM     14  N   UNK d   1       0.898   0.148   2.477  0.00  0.00     0.025 NA
ATOM     15  N   UNK d   1      -0.381  -0.221   2.495  0.00  0.00    -0.194 N 
ATOM     16  C   UNK d   1      -0.982   0.548   1.590  0.00  0.00     0.365 A 
ATOM     17  O   UNK d   1      -2.211   0.503   1.304  0.00  0.00    -0.244 OA
ATOM     18  N   UNK d   1      -0.108   1.406   0.994  0.00  0.00    -0.090 N 
ENDROOT
BRANCH  15  19
ATOM     19  C   UNK d   1      -0.975  -1.268   3.331  0.00  0.00     0.259 C 
BRANCH  19  20
ATOM     20  C   UNK d   1      -0.891  -2.526   2.412  0.00  0.00     0.237 C 
ATOM     21  O   UNK d   1       0.347  -2.820   2.262  0.00  0.00    -0.272 OA
ATOM     22  N   UNK d   1      -2.002  -3.096   1.926  0.00  0.00    -0.358 N 
ATOM     23  H   UNK d   1      -1.255  -4.085   1.372  0.00  0.00     0.162 HD
BRANCH  22  24
ATOM     24  C   UNK d   1      -3.144  -3.682   1.426  0.00  0.00     0.148 C 
BRANCH  24  25
ATOM     25  C   UNK d   1      -3.173  -3.698  -0.107  0.00  0.00     0.186 C 
BRANCH  25  26
ATOM     26  O   UNK d   1      -2.116  -4.409  -0.623  0.00  0.00    -0.394 OA
ATOM     27  C   UNK d   1      -2.114  -5.745  -0.344  0.00  0.00     0.201 C 
ENDBRANCH  25  26
ENDBRANCH  24  25
ENDBRANCH  22  24
ENDBRANCH  19  20
ENDBRANCH  15  19
TORSDOF 5
