# created with PyMOL 2.3.2
@<TRIPOS>MOLECULE
1804
43 47 1                 
SMALL
USER_CHARGES
@<TRIPOS>ATOM
1	  Cl	5.168	-0.353	3.580	Cl	1	UNK0	0.000	
2	   C	4.456	0.051	2.033	C.2	1	UNK0	0.000	
3	   C	3.094	0.226	1.853	C.2	1	UNK0	0.000	
4	   C	2.547	0.544	0.632	C.2	1	UNK0	0.000	
5	   C	3.422	0.683	-0.418	C.2	1	UNK0	0.000	
6	   C	4.782	0.521	-0.297	C.2	1	UNK0	0.000	
7	   C	5.306	0.198	0.957	C.2	1	UNK0	0.000	
8	   C	2.871	1.023	-1.744	C.2	1	UNK0	0.000	
9	   N	3.439	1.211	-2.879	N.2	1	UNK0	0.000	
10	   C	2.491	1.529	-3.913	C.3	1	UNK0	0.000	
11	   C	1.166	1.512	-3.220	C.3	1	UNK0	0.000	
12	   N	1.472	1.186	-1.852	N.pl3	1	UNK0	0.000	
13	   C	0.601	1.028	-0.713	C.2	1	UNK0	0.000	
14	   N	-0.735	1.131	-0.575	N.2	1	UNK0	0.000	
15	   N	-1.065	0.893	0.683	N.pl3	1	UNK0	0.000	
16	   C	0.092	0.641	1.317	C.2	1	UNK0	0.000	
17	   O	0.151	0.369	2.550	O.2	1	UNK0	0.000	
18	   N	1.145	0.717	0.475	N.pl3	1	UNK0	0.000	
19	   C	-2.411	0.899	1.275	C.3	1	UNK0	0.000	
20	   C	-2.970	-0.474	1.164	C.2	1	UNK0	0.000	
21	   O	-2.732	-1.258	2.117	O.2	1	UNK0	0.000	
22	   N	-3.734	-0.888	0.040	N.pl3	1	UNK0	0.000	
23	   C	-4.303	-2.212	-0.125	C.3	1	UNK0	0.000	
24	   C	-4.853	-2.266	-1.525	C.3	1	UNK0	0.000	
25	   C	-4.075	-1.162	-2.211	C.3	1	UNK0	0.000	
26	   C	-4.080	-0.092	-1.114	C.3	1	UNK0	0.000	
27	   H	2.457	0.108	2.695	 H	1	UNK0	0.000	
28	   H	5.438	0.635	-1.131	 H	1	UNK0	0.000	
29	   H	6.373	0.077	1.026	 H	1	UNK0	0.000	
30	   H	2.477	0.746	-4.715	 H	1	UNK0	0.000	
31	   H	2.692	2.531	-4.362	 H	1	UNK0	0.000	
32	   H	0.461	0.786	-3.681	 H	1	UNK0	0.000	
33	   H	0.744	2.546	-3.222	 H	1	UNK0	0.000	
34	   H	-3.046	1.629	0.732	 H	1	UNK0	0.000	
35	   H	-2.291	1.177	2.332	 H	1	UNK0	0.000	
36	   H	-5.103	-2.309	0.635	 H	1	UNK0	0.000	
37	   H	-3.490	-2.957	0.022	 H	1	UNK0	0.000	
38	   H	-5.922	-1.951	-1.528	 H	1	UNK0	0.000	
39	   H	-4.707	-3.247	-2.019	 H	1	UNK0	0.000	
40	   H	-4.567	-0.824	-3.125	 H	1	UNK0	0.000	
41	   H	-3.021	-1.509	-2.387	 H	1	UNK0	0.000	
42	   H	-3.401	0.731	-1.324	 H	1	UNK0	0.000	
43	   H	-5.139	0.215	-0.984	 H	1	UNK0	0.000	
@<TRIPOS>BOND
1 1 2 1
2 2 3 2
3 2 7 1
4 3 4 1
5 4 5 2
6 4 18 1
7 5 6 1
8 5 8 1
9 6 7 2
10 8 9 2
11 8 12 1
12 9 10 1
13 10 11 1
14 11 12 1
15 12 13 1
16 13 14 2
17 13 18 1
18 14 15 1
19 15 16 1
20 15 19 1
21 16 17 2
22 16 18 1
23 19 20 1
24 20 21 2
25 20 22 1
26 22 23 1
27 22 26 1
28 23 24 1
29 24 25 1
30 25 26 1
31 3 27 1
32 6 28 1
33 7 29 1
34 10 30 1
35 10 31 1
36 11 32 1
37 11 33 1
38 19 34 1
39 19 35 1
40 23 36 1
41 23 37 1
42 24 38 1
43 24 39 1
44 25 40 1
45 25 41 1
46 26 42 1
47 26 43 1
@<TRIPOS>SUBSTRUCTURE
1	UNK0	1	GROUP	1 ****	UNK
