REMARK  2 active torsions:
REMARK  status: ('A' for Active; 'I' for Inactive)
REMARK    1  A    between atoms: N_15  and  C_19 
REMARK    2  A    between atoms: C_19  and  C_20 
REMARK       I    between atoms: C_20  and  N_22 
ROOT
ATOM      1 Cl   UNK d   1       5.168  -0.353   3.580  0.00  0.00    -0.084 Cl
ATOM      2  C   UNK d   1       4.456   0.051   2.033  0.00  0.00     0.036 A 
ATOM      3  C   UNK d   1       3.094   0.226   1.853  0.00  0.00     0.055 A 
ATOM      4  C   UNK d   1       2.547   0.544   0.632  0.00  0.00     0.077 A 
ATOM      5  C   UNK d   1       3.422   0.683  -0.418  0.00  0.00     0.038 A 
ATOM      6  C   UNK d   1       4.782   0.521  -0.297  0.00  0.00     0.019 A 
ATOM      7  C   UNK d   1       5.306   0.198   0.957  0.00  0.00     0.025 A 
ATOM      8  C   UNK d   1       2.871   1.023  -1.744  0.00  0.00     0.153 A 
ATOM      9  N   UNK d   1       3.439   1.211  -2.879  0.00  0.00    -0.270 NA
ATOM     10  C   UNK d   1       2.491   1.529  -3.913  0.00  0.00     0.172 A 
ATOM     11  C   UNK d   1       1.166   1.512  -3.220  0.00  0.00     0.171 A 
ATOM     12  N   UNK d   1       1.472   1.186  -1.852  0.00  0.00    -0.160 N 
ATOM     13  C   UNK d   1       0.601   1.028  -0.713  0.00  0.00     0.736 A 
ATOM     14  N   UNK d   1      -0.735   1.131  -0.575  0.00  0.00     0.025 NA
ATOM     15  N   UNK d   1      -1.065   0.893   0.683  0.00  0.00    -0.194 N 
ATOM     16  C   UNK d   1       0.092   0.641   1.317  0.00  0.00     0.365 A 
ATOM     17  O   UNK d   1       0.151   0.369   2.550  0.00  0.00    -0.244 OA
ATOM     18  N   UNK d   1       1.145   0.717   0.475  0.00  0.00    -0.090 N 
ENDROOT
BRANCH  15  19
ATOM     19  C   UNK d   1      -2.411   0.899   1.275  0.00  0.00     0.259 C 
BRANCH  19  20
ATOM     20  C   UNK d   1      -2.970  -0.474   1.164  0.00  0.00     0.239 C 
ATOM     21  O   UNK d   1      -2.732  -1.258   2.117  0.00  0.00    -0.271 OA
ATOM     22  N   UNK d   1      -3.734  -0.888   0.040  0.00  0.00    -0.351 N 
ATOM     23  C   UNK d   1      -4.303  -2.212  -0.125  0.00  0.00     0.126 C 
ATOM     24  C   UNK d   1      -4.080  -0.092  -1.114  0.00  0.00     0.126 C 
ATOM     25  C   UNK d   1      -4.853  -2.266  -1.525  0.00  0.00     0.021 C 
ATOM     26  C   UNK d   1      -4.075  -1.162  -2.211  0.00  0.00     0.021 C 
ENDBRANCH  19  20
ENDBRANCH  15  19
TORSDOF 2
