REMARK  3 active torsions:
REMARK  status: ('A' for Active; 'I' for Inactive)
REMARK    1  A    between atoms: C_10  and  N_11 
REMARK    2  A    between atoms: N_14  and  C_17 
REMARK    3  A    between atoms: C_22  and  C_23 
REMARK       I    between atoms: C_23  and  N_25 
ROOT
ATOM      1  N   UNK d   1      -2.224   0.287  -0.451  0.00  0.00    -0.384 N 
ATOM      2  C   UNK d   1      -2.482  -0.814   0.454  0.00  0.00     0.142 C 
ATOM      3  C   UNK d   1      -1.886  -0.430   1.818  0.00  0.00     0.144 C 
ATOM      4  N   UNK d   1      -1.128   0.772   1.751  0.00  0.00    -0.362 N 
ATOM      5  C   UNK d   1      -1.900   1.952   1.365  0.00  0.00     0.144 C 
ATOM      6  C   UNK d   1      -2.511   1.627   0.023  0.00  0.00     0.142 C 
ENDROOT
BRANCH   1   7
ATOM      7  C   UNK d   1      -1.738   0.113  -1.775  0.00  0.00     0.134 C 
ATOM      8  C   UNK d   1      -0.609  -0.452  -2.133  0.00  0.00     0.124 A 
ATOM      9  N   UNK d   1       0.312  -0.984  -1.201  0.00  0.00    -0.340 N 
ATOM     10  N   UNK d   1      -0.274  -0.543  -3.536  0.00  0.00    -0.308 N 
ATOM     11  C   UNK d   1       1.545  -1.599  -1.639  0.00  0.00     0.049 A 
ATOM     12  H   UNK d   1       0.110  -0.940  -0.187  0.00  0.00     0.167 HD
ATOM     13  C   UNK d   1       1.882  -1.695  -2.965  0.00  0.00     0.060 A 
ATOM     14  C   UNK d   1       2.410  -2.102  -0.702  0.00  0.00     0.032 A 
ATOM     15  C   UNK d   1       3.069  -2.288  -3.348  0.00  0.00     0.043 A 
ATOM     16  C   UNK d   1       0.942  -1.150  -3.934  0.00  0.00     0.259 A 
ATOM     17  C   UNK d   1       3.926  -2.787  -2.416  0.00  0.00     0.035 A 
ATOM     18 Cl   UNK d   1       5.454  -3.554  -2.845  0.00  0.00    -0.084 Cl
ATOM     19  C   UNK d   1       3.600  -2.697  -1.082  0.00  0.00     0.026 A 
ATOM     20  O   UNK d   1       1.260  -1.242  -5.169  0.00  0.00    -0.267 OA
ATOM     21  H   UNK d   1      -0.927  -0.162  -4.249  0.00  0.00     0.170 HD
ENDBRANCH   1   7
BRANCH   4  22
ATOM     22  C   UNK d   1       0.255   0.973   1.986  0.00  0.00     0.141 A 
ATOM     23  N   UNK d   1       1.043   1.383   0.924  0.00  0.00    -0.242 NA
ATOM     24  C   UNK d   1       2.355   1.593   1.010  0.00  0.00     0.119 A 
ATOM     25  C   UNK d   1       2.963   1.393   2.218  0.00  0.00     0.020 A 
ATOM     26  C   UNK d   1       2.217   0.989   3.289  0.00  0.00     0.022 A 
ATOM     27  C   UNK d   1       0.828   0.766   3.205  0.00  0.00     0.077 A 
BRANCH  27  28
ATOM     28  C   UNK d   1       0.072   0.373   4.355  0.00  0.00     0.253 C 
ATOM     29  O   UNK d   1      -1.149   0.241   4.401  0.00  0.00    -0.268 OA
ATOM     30  N   UNK d   1       0.770   0.106   5.565  0.00  0.00    -0.366 N 
ATOM     31  H   UNK d   1       1.398  -0.725   5.647  0.00  0.00     0.159 HD
ATOM     32  H   UNK d   1       0.699   0.705   6.417  0.00  0.00     0.159 HD
ENDBRANCH  27  28
ENDBRANCH   4  22
TORSDOF 3
