# created with PyMOL 2.3.2
@<TRIPOS>MOLECULE
1806
47 50 1                 
SMALL
USER_CHARGES
@<TRIPOS>ATOM
1	  Cl	5.454	-3.554	-2.845	Cl	1	UNK0	0.000	
2	   C	3.926	-2.787	-2.416	C.2	1	UNK0	0.000	
3	   C	3.069	-2.288	-3.348	C.2	1	UNK0	0.000	
4	   C	1.882	-1.695	-2.965	C.2	1	UNK0	0.000	
5	   C	1.545	-1.599	-1.639	C.2	1	UNK0	0.000	
6	   C	2.410	-2.102	-0.702	C.2	1	UNK0	0.000	
7	   C	3.600	-2.697	-1.082	C.2	1	UNK0	0.000	
8	   N	0.312	-0.984	-1.201	N.pl3	1	UNK0	0.000	
9	   C	-0.609	-0.452	-2.133	C.2	1	UNK0	0.000	
10	   C	-1.738	0.113	-1.775	C.2	1	UNK0	0.000	
11	   N	-2.224	0.287	-0.451	N.pl3	1	UNK0	0.000	
12	   C	-2.482	-0.814	0.454	C.3	1	UNK0	0.000	
13	   C	-1.886	-0.430	1.818	C.3	1	UNK0	0.000	
14	   N	-1.128	0.772	1.751	N.pl3	1	UNK0	0.000	
15	   C	-1.900	1.952	1.365	C.3	1	UNK0	0.000	
16	   C	-2.511	1.627	0.023	C.3	1	UNK0	0.000	
17	   C	0.255	0.973	1.986	C.2	1	UNK0	0.000	
18	   N	1.043	1.383	0.924	N.2	1	UNK0	0.000	
19	   C	2.355	1.593	1.010	C.2	1	UNK0	0.000	
20	   C	2.963	1.393	2.218	C.2	1	UNK0	0.000	
21	   C	2.217	0.989	3.289	C.2	1	UNK0	0.000	
22	   C	0.828	0.766	3.205	C.2	1	UNK0	0.000	
23	   C	0.072	0.373	4.355	C.2	1	UNK0	0.000	
24	   O	-1.149	0.241	4.401	O.2	1	UNK0	0.000	
25	   N	0.770	0.106	5.565	N.pl3	1	UNK0	0.000	
26	   N	-0.274	-0.543	-3.536	N.pl3	1	UNK0	0.000	
27	   C	0.942	-1.150	-3.934	C.2	1	UNK0	0.000	
28	   O	1.260	-1.242	-5.169	O.2	1	UNK0	0.000	
29	   H	3.296	-2.343	-4.388	 H	1	UNK0	0.000	
30	   H	2.129	-2.018	0.341	 H	1	UNK0	0.000	
31	   H	4.270	-3.088	-0.347	 H	1	UNK0	0.000	
32	   H	0.110	-0.940	-0.187	 H	1	UNK0	0.000	
33	   H	-2.373	0.491	-2.593	 H	1	UNK0	0.000	
34	   H	-2.040	-1.762	0.151	 H	1	UNK0	0.000	
35	   H	-3.601	-0.939	0.537	 H	1	UNK0	0.000	
36	   H	-1.272	-1.267	2.127	 H	1	UNK0	0.000	
37	   H	-2.804	-0.275	2.439	 H	1	UNK0	0.000	
38	   H	-1.286	2.847	1.253	 H	1	UNK0	0.000	
39	   H	-2.715	2.151	2.090	 H	1	UNK0	0.000	
40	   H	-3.626	1.694	0.061	 H	1	UNK0	0.000	
41	   H	-2.185	2.372	-0.742	 H	1	UNK0	0.000	
42	   H	2.907	1.916	0.124	 H	1	UNK0	0.000	
43	   H	4.014	1.554	2.313	 H	1	UNK0	0.000	
44	   H	2.660	0.814	4.283	 H	1	UNK0	0.000	
45	   H	1.398	-0.725	5.647	 H	1	UNK0	0.000	
46	   H	0.699	0.705	6.417	 H	1	UNK0	0.000	
47	   H	-0.927	-0.162	-4.249	 H	1	UNK0	0.000	
@<TRIPOS>BOND
1 1 2 1
2 2 3 2
3 2 7 1
4 3 4 1
5 4 5 2
6 4 27 1
7 5 6 1
8 5 8 1
9 6 7 2
10 8 9 1
11 9 10 2
12 9 26 1
13 10 11 1
14 11 12 1
15 11 16 1
16 12 13 1
17 13 14 1
18 14 15 1
19 14 17 1
20 15 16 1
21 17 18 2
22 17 22 1
23 18 19 1
24 19 20 2
25 20 21 1
26 21 22 2
27 22 23 1
28 23 24 2
29 23 25 1
30 26 27 1
31 27 28 2
32 3 29 1
33 6 30 1
34 7 31 1
35 8 32 1
36 10 33 1
37 12 34 1
38 12 35 1
39 13 36 1
40 13 37 1
41 15 38 1
42 15 39 1
43 16 40 1
44 16 41 1
45 19 42 1
46 20 43 1
47 21 44 1
48 25 45 1
49 25 46 1
50 26 47 1
@<TRIPOS>SUBSTRUCTURE
1	UNK0	1	GROUP	1 ****	UNK
