# created with PyMOL 2.3.2
@<TRIPOS>MOLECULE
1810
57 60 1                 
SMALL
USER_CHARGES
@<TRIPOS>ATOM
1	   S	-1.761	3.587	1.812	S.O2	1	UNK0	0.000	
2	   O	-0.824	4.395	2.664	O.2	1	UNK0	0.000	
3	   O	-3.154	3.912	2.308	O.2	1	UNK0	0.000	
4	   N	-1.535	1.899	2.046	N.3	1	UNK0	0.000	
5	   C	-2.547	1.134	1.362	C.3	1	UNK0	0.000	
6	   C	-2.086	-0.304	1.317	C.3	1	UNK0	0.000	
7	   N	-0.960	-0.473	2.199	N.pl3	1	UNK0	0.000	
8	   C	-0.919	0.152	3.516	C.3	1	UNK0	0.000	
9	   C	-1.577	1.532	3.447	C.3	1	UNK0	0.000	
10	   C	0.139	-1.249	1.789	C.2	1	UNK0	0.000	
11	   O	1.113	-1.422	2.601	O.2	1	UNK0	0.000	
12	   C	0.172	-1.857	0.431	C.3	1	UNK0	0.000	
13	   C	0.490	-0.859	-0.645	C.3	1	UNK0	0.000	
14	   N	1.884	-1.102	-1.003	N.pl3	1	UNK0	0.000	
15	   C	2.422	-2.112	-0.170	C.2	1	UNK0	0.000	
16	   O	3.645	-2.266	0.063	O.2	1	UNK0	0.000	
17	   C	1.262	-2.887	0.320	C.3	1	UNK0	0.000	
18	   C	2.596	-0.404	-2.049	C.3	1	UNK0	0.000	
19	   C	2.473	-1.094	-3.355	C.2	1	UNK0	0.000	
20	   C	3.102	-0.554	-4.467	C.2	1	UNK0	0.000	
21	   C	3.031	-1.141	-5.719	C.2	1	UNK0	0.000	
22	   C	2.298	-2.305	-5.829	C.2	1	UNK0	0.000	
23	   C	1.658	-2.871	-4.740	C.2	1	UNK0	0.000	
24	   C	1.747	-2.258	-3.491	C.2	1	UNK0	0.000	
25	  Cl	4.012	0.918	-4.263	Cl	1	UNK0	0.000	
26	   C	-1.648	4.023	0.134	C.2	1	UNK0	0.000	
27	   C	-2.620	4.140	-0.834	C.2	1	UNK0	0.000	
28	   N	-2.001	4.503	-1.999	N.2	1	UNK0	0.000	
29	   O	-0.748	4.600	-1.759	O.3	1	UNK0	0.000	
30	   C	-0.463	4.328	-0.508	C.2	1	UNK0	0.000	
31	   C	0.909	4.364	0.044	C.3	1	UNK0	0.000	
32	   C	-4.063	3.917	-0.623	C.3	1	UNK0	0.000	
33	   H	-3.522	1.144	1.923	 H	1	UNK0	0.000	
34	   H	-2.766	1.530	0.349	 H	1	UNK0	0.000	
35	   H	-2.920	-1.003	1.587	 H	1	UNK0	0.000	
36	   H	-1.757	-0.517	0.286	 H	1	UNK0	0.000	
37	   H	-1.391	-0.504	4.271	 H	1	UNK0	0.000	
38	   H	0.146	0.259	3.791	 H	1	UNK0	0.000	
39	   H	-1.031	2.206	4.104	 H	1	UNK0	0.000	
40	   H	-2.608	1.401	3.834	 H	1	UNK0	0.000	
41	   H	-0.834	-2.343	0.244	 H	1	UNK0	0.000	
42	   H	-0.185	-1.033	-1.521	 H	1	UNK0	0.000	
43	   H	0.384	0.213	-0.299	 H	1	UNK0	0.000	
44	   H	1.473	-3.377	1.295	 H	1	UNK0	0.000	
45	   H	0.967	-3.627	-0.457	 H	1	UNK0	0.000	
46	   H	3.672	-0.261	-1.818	 H	1	UNK0	0.000	
47	   H	2.123	0.604	-2.181	 H	1	UNK0	0.000	
48	   H	3.543	-0.671	-6.545	 H	1	UNK0	0.000	
49	   H	2.225	-2.790	-6.808	 H	1	UNK0	0.000	
50	   H	1.097	-3.780	-4.873	 H	1	UNK0	0.000	
51	   H	1.247	-2.698	-2.642	 H	1	UNK0	0.000	
52	   H	0.877	3.972	1.082	 H	1	UNK0	0.000	
53	   H	1.512	3.638	-0.576	 H	1	UNK0	0.000	
54	   H	1.334	5.365	-0.046	 H	1	UNK0	0.000	
55	   H	-4.584	4.507	-1.436	 H	1	UNK0	0.000	
56	   H	-4.387	2.882	-0.765	 H	1	UNK0	0.000	
57	   H	-4.403	4.304	0.379	 H	1	UNK0	0.000	
@<TRIPOS>BOND
1 1 2 2
2 1 3 2
3 1 4 1
4 1 26 1
5 4 5 1
6 4 9 1
7 5 6 1
8 6 7 1
9 7 8 1
10 7 10 1
11 8 9 1
12 10 11 2
13 10 12 1
14 12 13 1
15 12 17 1
16 13 14 1
17 14 15 1
18 14 18 1
19 15 16 2
20 15 17 1
21 18 19 1
22 19 20 2
23 19 24 1
24 20 21 1
25 20 25 1
26 21 22 2
27 22 23 1
28 23 24 2
29 26 27 1
30 26 30 2
31 27 28 2
32 27 32 1
33 28 29 1
34 29 30 1
35 30 31 1
36 5 33 1
37 5 34 1
38 6 35 1
39 6 36 1
40 8 37 1
41 8 38 1
42 9 39 1
43 9 40 1
44 12 41 1
45 13 42 1
46 13 43 1
47 17 44 1
48 17 45 1
49 18 46 1
50 18 47 1
51 21 48 1
52 22 49 1
53 23 50 1
54 24 51 1
55 31 52 1
56 31 53 1
57 31 54 1
58 32 55 1
59 32 56 1
60 32 57 1
@<TRIPOS>SUBSTRUCTURE
1	UNK0	1	GROUP	1 ****	UNK
