REMARK  5 active torsions:
REMARK  status: ('A' for Active; 'I' for Inactive)
REMARK    1  A    between atoms: S_1  and  N_4 
REMARK    2  A    between atoms: S_1  and  C_26 
REMARK       I    between atoms: N_7  and  C_10 
REMARK    3  A    between atoms: C_10  and  C_12 
REMARK    4  A    between atoms: N_14  and  C_18 
REMARK    5  A    between atoms: C_18  and  C_19 
ROOT
ATOM      1  N   UNK d   1      -1.535   1.899   2.046  0.00  0.00    -0.203 NA
ATOM      2  C   UNK d   1      -2.547   1.134   1.362  0.00  0.00     0.127 C 
ATOM      3  C   UNK d   1      -2.086  -0.304   1.317  0.00  0.00     0.141 C 
ATOM      4  N   UNK d   1      -0.960  -0.473   2.199  0.00  0.00    -0.349 N 
ATOM      5  C   UNK d   1      -0.919   0.152   3.516  0.00  0.00     0.141 C 
ATOM      6  C   UNK d   1      -1.577   1.532   3.447  0.00  0.00     0.127 C 
ATOM      7  C   UNK d   1       0.139  -1.249   1.789  0.00  0.00     0.226 C 
ATOM      8  O   UNK d   1       1.113  -1.422   2.601  0.00  0.00    -0.273 OA
ENDROOT
BRANCH   7   9
ATOM      9  C   UNK d   1       0.172  -1.857   0.431  0.00  0.00     0.105 C 
ATOM     10  C   UNK d   1       0.490  -0.859  -0.645  0.00  0.00     0.140 C 
ATOM     11  N   UNK d   1       1.884  -1.102  -1.003  0.00  0.00    -0.347 N 
ATOM     12  C   UNK d   1       2.422  -2.112  -0.170  0.00  0.00     0.221 C 
ATOM     13  O   UNK d   1       3.645  -2.266   0.063  0.00  0.00    -0.273 OA
ATOM     14  C   UNK d   1       1.262  -2.887   0.320  0.00  0.00     0.118 C 
BRANCH  11  15
ATOM     15  C   UNK d   1       2.596  -0.404  -2.049  0.00  0.00     0.166 C 
BRANCH  15  16
ATOM     16  C   UNK d   1       2.473  -1.094  -3.355  0.00  0.00    -0.018 A 
ATOM     17  C   UNK d   1       3.102  -0.554  -4.467  0.00  0.00     0.042 A 
ATOM     18  C   UNK d   1       3.031  -1.141  -5.719  0.00  0.00     0.024 A 
ATOM     19 Cl   UNK d   1       4.012   0.918  -4.263  0.00  0.00    -0.084 Cl
ATOM     20  C   UNK d   1       2.298  -2.305  -5.829  0.00  0.00     0.002 A 
ATOM     21  C   UNK d   1       1.658  -2.871  -4.740  0.00  0.00     0.001 A 
ATOM     22  C   UNK d   1       1.747  -2.258  -3.491  0.00  0.00     0.010 A 
ENDBRANCH  15  16
ENDBRANCH  11  15
ENDBRANCH   7   9
BRANCH   1  23
ATOM     23  S   UNK d   1      -1.761   3.587   1.812  0.00  0.00     0.248 S 
ATOM     24  O   UNK d   1      -0.824   4.395   2.664  0.00  0.00    -0.206 OA
ATOM     25  O   UNK d   1      -3.154   3.912   2.308  0.00  0.00    -0.206 OA
BRANCH  23  26
ATOM     26  C   UNK d   1      -1.648   4.023   0.134  0.00  0.00     0.132 A 
ATOM     27  C   UNK d   1      -2.620   4.140  -0.834  0.00  0.00     0.083 A 
ATOM     28  N   UNK d   1      -2.001   4.503  -1.999  0.00  0.00    -0.132 NA
ATOM     29  C   UNK d   1      -4.063   3.917  -0.623  0.00  0.00     0.074 C 
ATOM     30  O   UNK d   1      -0.748   4.600  -1.759  0.00  0.00    -0.216 OA
ATOM     31  C   UNK d   1      -0.463   4.328  -0.508  0.00  0.00     0.100 A 
ATOM     32  C   UNK d   1       0.909   4.364   0.044  0.00  0.00     0.081 C 
ENDBRANCH  23  26
ENDBRANCH   1  23
TORSDOF 5
