REMARK  4 active torsions:
REMARK  status: ('A' for Active; 'I' for Inactive)
REMARK    1  A    between atoms: C_7  and  O_8 
REMARK    2  A    between atoms: C_13  and  C_16 
REMARK    3  A    between atoms: C_16  and  C_17 
REMARK       I    between atoms: C_17  and  N_19 
REMARK       I    between atoms: N_22  and  C_25 
REMARK    4  A    between atoms: C_25  and  C_27 
ROOT
ATOM      1  C   UNK d   1      -0.115   2.003  -0.008  0.00  0.00     0.224 C 
ATOM      2  O   UNK d   1       1.031   2.198  -0.542  0.00  0.00    -0.273 OA
ATOM      3  N   UNK d   1      -0.160   1.801   1.360  0.00  0.00    -0.349 N 
ATOM      4  C   UNK d   1       1.002   1.799   2.193  0.00  0.00     0.145 C 
ATOM      5  C   UNK d   1       1.087   0.433   2.877  0.00  0.00     0.145 C 
ATOM      6  N   UNK d   1      -0.127   0.176   3.575  0.00  0.00    -0.355 N 
ATOM      7  C   UNK d   1      -1.179   1.210   3.474  0.00  0.00     0.145 C 
ATOM      8  C   UNK d   1      -1.422   1.577   2.027  0.00  0.00     0.145 C 
ATOM      9  C   UNK d   1      -0.408  -0.975   4.341  0.00  0.00     0.204 C 
ATOM     10  O   UNK d   1      -1.615  -0.957   4.897  0.00  0.00    -0.170 OA
ENDROOT
BRANCH   1  11
ATOM     11  C   UNK d   1      -1.299   2.011  -0.911  0.00  0.00     0.148 C 
BRANCH  11  12
ATOM     12  C   UNK d   1      -0.904   2.254  -2.317  0.00  0.00     0.033 A 
ATOM     13  C   UNK d   1      -0.571   3.541  -2.736  0.00  0.00     0.295 A 
ATOM     14  O   UNK d   1      -0.213   3.814  -3.967  0.00  0.00    -0.274 OA
ATOM     15  O   UNK d   1      -0.630   4.458  -1.850  0.00  0.00    -0.259 OA
ATOM     16  C   UNK d   1      -0.140   2.901  -4.905  0.00  0.00     0.093 A 
ATOM     17  C   UNK d   1      -0.448   1.596  -4.598  0.00  0.00     0.006 A 
ATOM     18  C   UNK d   1       0.245   3.224  -6.213  0.00  0.00     0.076 A 
ATOM     19  C   UNK d   1      -0.366   0.650  -5.591  0.00  0.00     0.041 A 
ATOM     20  C   UNK d   1      -0.831   1.283  -3.290  0.00  0.00    -0.036 A 
ATOM     21  C   UNK d   1       0.016   0.975  -6.889  0.00  0.00     0.068 A 
ATOM     22 Cl   UNK d   1       0.119  -0.226  -8.156  0.00  0.00    -0.081 Cl
ATOM     23  C   UNK d   1       0.326   2.277  -7.208  0.00  0.00     0.092 A 
ATOM     24  C   UNK d   1      -1.152  -0.105  -2.973  0.00  0.00     0.050 C 
BRANCH  23  25
ATOM     25  O   UNK d   1       0.713   2.611  -8.519  0.00  0.00    -0.354 OA
ATOM     26  C   UNK d   1       1.038   3.929  -8.886  0.00  0.00     0.210 C 
ENDBRANCH  23  25
ENDBRANCH  11  12
ENDBRANCH   1  11
BRANCH   9  27
ATOM     27  C   UNK d   1       0.364  -2.147   4.625  0.00  0.00     0.095 A 
ATOM     28  C   UNK d   1      -0.182  -3.153   5.462  0.00  0.00     0.108 A 
ATOM     29  C   UNK d   1       0.526  -4.286   5.762  0.00  0.00     0.253 A 
ATOM     30  O   UNK d   1       0.018  -5.164   6.508  0.00  0.00    -0.268 OA
ATOM     31  N   UNK d   1       1.760  -4.513   5.293  0.00  0.00    -0.271 N 
ATOM     32  C   UNK d   1       2.274  -3.567   4.506  0.00  0.00     0.329 A 
ATOM     33  C   UNK d   1       2.492  -5.714   5.623  0.00  0.00     0.164 C 
ATOM     34  O   UNK d   1       3.446  -3.735   4.034  0.00  0.00    -0.246 OA
ATOM     35  N   UNK d   1       1.588  -2.415   4.184  0.00  0.00    -0.304 N 
ATOM     36  H   UNK d   1       2.076  -1.743   3.560  0.00  0.00     0.171 HD
ENDBRANCH   9  27
TORSDOF 4
