# created with PyMOL 2.3.2
@<TRIPOS>MOLECULE
1822
35 38 1                 
SMALL
USER_CHARGES
@<TRIPOS>ATOM
1	  Cl	-3.125	5.784	-2.392	Cl	1	UNK0	0.000	
2	   C	-2.878	4.069	-2.080	C.2	1	UNK0	0.000	
3	   C	-3.678	3.162	-2.738	C.2	1	UNK0	0.000	
4	   N	-3.481	1.857	-2.493	N.pl3	1	UNK0	0.000	
5	   C	-2.532	1.407	-1.631	C.2	1	UNK0	0.000	
6	   N	-1.745	2.283	-0.984	N.pl3	1	UNK0	0.000	
7	   N	-0.905	1.608	-0.205	N.2	1	UNK0	0.000	
8	   C	-1.123	0.283	-0.326	C.2	1	UNK0	0.000	
9	   N	-2.140	0.188	-1.219	N.2	1	UNK0	0.000	
10	   N	-0.442	-0.780	0.335	N.pl3	1	UNK0	0.000	
11	   C	0.937	-0.801	0.677	C.2	1	UNK0	0.000	
12	   O	1.727	0.172	0.788	O.2	1	UNK0	0.000	
13	   C	1.365	-2.223	0.906	C.3	1	UNK0	0.000	
14	   C	0.107	-3.012	0.983	C.3	1	UNK0	0.000	
15	   C	-0.149	-3.656	2.334	C.3	1	UNK0	0.000	
16	   C	0.036	-2.579	3.359	C.2	1	UNK0	0.000	
17	   C	1.175	-1.915	3.280	C.2	1	UNK0	0.000	
18	   C	2.128	-2.298	2.211	C.3	1	UNK0	0.000	
19	   C	-0.966	-2.019	0.787	C.2	1	UNK0	0.000	
20	   O	-2.206	-2.229	0.991	O.2	1	UNK0	0.000	
21	   C	-1.917	3.609	-1.207	C.2	1	UNK0	0.000	
22	   O	-1.173	4.440	-0.596	O.2	1	UNK0	0.000	
23	   C	-4.732	3.643	-3.694	C.3	1	UNK0	0.000	
24	   H	-4.087	1.162	-2.990	 H	1	UNK0	0.000	
25	   H	2.028	-2.535	0.068	 H	1	UNK0	0.000	
26	   H	0.127	-3.775	0.175	 H	1	UNK0	0.000	
27	   H	-1.193	-4.015	2.367	 H	1	UNK0	0.000	
28	   H	0.589	-4.459	2.500	 H	1	UNK0	0.000	
29	   H	-0.735	-2.392	4.092	 H	1	UNK0	0.000	
30	   H	1.405	-1.125	3.966	 H	1	UNK0	0.000	
31	   H	2.997	-1.599	2.206	 H	1	UNK0	0.000	
32	   H	2.472	-3.349	2.362	 H	1	UNK0	0.000	
33	   H	-5.471	4.275	-3.186	 H	1	UNK0	0.000	
34	   H	-4.256	4.202	-4.540	 H	1	UNK0	0.000	
35	   H	-5.283	2.787	-4.134	 H	1	UNK0	0.000	
@<TRIPOS>BOND
1 1 2 1
2 2 3 2
3 2 21 1
4 3 4 1
5 3 23 1
6 4 5 1
7 5 6 1
8 5 9 2
9 6 7 1
10 6 21 1
11 7 8 2
12 8 9 1
13 8 10 1
14 10 11 1
15 10 19 1
16 11 12 2
17 11 13 1
18 13 14 1
19 13 18 1
20 14 15 1
21 14 19 1
22 15 16 1
23 16 17 2
24 17 18 1
25 19 20 2
26 21 22 2
27 4 24 1
28 13 25 1
29 14 26 1
30 15 27 1
31 15 28 1
32 16 29 1
33 17 30 1
34 18 31 1
35 18 32 1
36 23 33 1
37 23 34 1
38 23 35 1
@<TRIPOS>SUBSTRUCTURE
1	UNK0	1	GROUP	1 ****	UNK
