REMARK  1 active torsions:
REMARK  status: ('A' for Active; 'I' for Inactive)
REMARK    1  A    between atoms: C_8  and  N_10 
ROOT
ATOM      1 Cl   UNK d   1      -3.125   5.784  -2.392  0.00  0.00    -0.076 Cl
ATOM      2  C   UNK d   1      -2.878   4.069  -2.080  0.00  0.00     0.127 A 
ATOM      3  C   UNK d   1      -3.678   3.162  -2.738  0.00  0.00     0.050 A 
ATOM      4  N   UNK d   1      -3.481   1.857  -2.493  0.00  0.00    -0.190 N 
ATOM      5  C   UNK d   1      -2.532   1.407  -1.631  0.00  0.00     0.747 A 
ATOM      6  N   UNK d   1      -1.745   2.283  -0.984  0.00  0.00    -0.005 N 
ATOM      7  N   UNK d   1      -0.905   1.608  -0.205  0.00  0.00     0.046 NA
ATOM      8  C   UNK d   1      -1.123   0.283  -0.326  0.00  0.00     0.772 A 
ATOM      9  N   UNK d   1      -2.140   0.188  -1.219  0.00  0.00     0.133 NA
ATOM     10  C   UNK d   1      -1.917   3.609  -1.207  0.00  0.00     0.308 A 
ATOM     11  O   UNK d   1      -1.173   4.440  -0.596  0.00  0.00    -0.264 OA
ATOM     12  C   UNK d   1      -4.732   3.643  -3.694  0.00  0.00     0.071 C 
ATOM     13  H   UNK d   1      -4.087   1.162  -2.990  0.00  0.00     0.184 HD
ENDROOT
BRANCH   8  14
ATOM     14  N   UNK d   1      -0.442  -0.780   0.335  0.00  0.00    -0.076 N 
ATOM     15  C   UNK d   1       0.937  -0.801   0.677  0.00  0.00     0.251 C 
ATOM     16  O   UNK d   1       1.727   0.172   0.788  0.00  0.00    -0.272 OA
ATOM     17  C   UNK d   1       1.365  -2.223   0.906  0.00  0.00     0.096 C 
ATOM     18  C   UNK d   1       0.107  -3.012   0.983  0.00  0.00     0.096 C 
ATOM     19  C   UNK d   1       2.128  -2.298   2.211  0.00  0.00     0.042 C 
ATOM     20  C   UNK d   1      -0.149  -3.656   2.334  0.00  0.00     0.042 C 
ATOM     21  C   UNK d   1      -0.966  -2.019   0.787  0.00  0.00     0.251 C 
ATOM     22  C   UNK d   1       0.036  -2.579   3.359  0.00  0.00    -0.030 C 
ATOM     23  C   UNK d   1       1.175  -1.915   3.280  0.00  0.00    -0.030 C 
ATOM     24  O   UNK d   1      -2.206  -2.229   0.991  0.00  0.00    -0.272 OA
ENDBRANCH   8  14
TORSDOF 1
