# created with PyMOL 2.3.2
@<TRIPOS>MOLECULE
1825
51 54 1                 
SMALL
USER_CHARGES
@<TRIPOS>ATOM
1	  Cl	-1.949	1.750	-4.884	Cl	1	UNK0	0.000	
2	   C	-2.155	2.414	-3.277	C.2	1	UNK0	0.000	
3	   C	-1.280	2.124	-2.255	C.2	1	UNK0	0.000	
4	   C	-1.459	2.662	-0.962	C.2	1	UNK0	0.000	
5	   C	-2.540	3.478	-0.798	C.2	1	UNK0	0.000	
6	   C	-3.438	3.778	-1.842	C.2	1	UNK0	0.000	
7	   C	-3.239	3.239	-3.087	C.2	1	UNK0	0.000	
8	   N	-0.521	2.326	0.034	N.pl3	1	UNK0	0.000	
9	   C	-0.540	2.750	1.353	C.2	1	UNK0	0.000	
10	   O	-1.415	3.489	1.817	O.2	1	UNK0	0.000	
11	   C	0.533	2.334	2.338	C.3	1	UNK0	0.000	
12	   N	0.775	0.893	2.176	N.pl3	1	UNK0	0.000	
13	   C	0.140	-0.089	2.883	C.2	1	UNK0	0.000	
14	   N	0.584	-1.287	2.468	N.pl3	1	UNK0	0.000	
15	   C	1.501	-1.136	1.504	C.2	1	UNK0	0.000	
16	   C	1.599	0.254	1.343	C.2	1	UNK0	0.000	
17	   C	2.273	-2.092	0.727	C.2	1	UNK0	0.000	
18	   C	2.201	-3.442	0.933	C.2	1	UNK0	0.000	
19	   C	2.914	-4.364	0.189	C.2	1	UNK0	0.000	
20	   C	3.761	-3.951	-0.828	C.2	1	UNK0	0.000	
21	   C	3.834	-2.595	-1.037	C.2	1	UNK0	0.000	
22	   C	3.122	-1.674	-0.294	C.2	1	UNK0	0.000	
23	   O	4.491	-4.845	-1.593	O.3	1	UNK0	0.000	
24	   C	5.356	-4.435	-2.636	C.3	1	UNK0	0.000	
25	   C	-0.109	-2.330	3.224	C.3	1	UNK0	0.000	
26	   C	-1.305	-1.638	3.850	C.3	1	UNK0	0.000	
27	   C	-0.866	-0.222	3.967	C.3	1	UNK0	0.000	
28	   C	-0.135	1.236	-2.522	C.3	1	UNK0	0.000	
29	   H	-2.745	3.927	0.159	 H	1	UNK0	0.000	
30	   H	-4.289	4.429	-1.692	 H	1	UNK0	0.000	
31	   H	-3.936	3.473	-3.905	 H	1	UNK0	0.000	
32	   H	0.284	1.687	-0.246	 H	1	UNK0	0.000	
33	   H	1.450	2.861	2.033	 H	1	UNK0	0.000	
34	   H	0.215	2.512	3.370	 H	1	UNK0	0.000	
35	   H	2.263	0.759	0.638	 H	1	UNK0	0.000	
36	   H	1.533	-3.772	1.746	 H	1	UNK0	0.000	
37	   H	2.807	-5.424	0.412	 H	1	UNK0	0.000	
38	   H	4.500	-2.255	-1.838	 H	1	UNK0	0.000	
39	   H	3.204	-0.602	-0.479	 H	1	UNK0	0.000	
40	   H	4.785	-4.198	-3.565	 H	1	UNK0	0.000	
41	   H	5.993	-3.578	-2.374	 H	1	UNK0	0.000	
42	   H	6.030	-5.283	-2.872	 H	1	UNK0	0.000	
43	   H	0.534	-2.830	3.949	 H	1	UNK0	0.000	
44	   H	-0.557	-3.101	2.556	 H	1	UNK0	0.000	
45	   H	-1.607	-2.115	4.791	 H	1	UNK0	0.000	
46	   H	-2.158	-1.639	3.105	 H	1	UNK0	0.000	
47	   H	-1.687	0.514	3.832	 H	1	UNK0	0.000	
48	   H	-0.364	-0.066	4.963	 H	1	UNK0	0.000	
49	   H	-0.199	0.852	-3.556	 H	1	UNK0	0.000	
50	   H	0.837	1.809	-2.476	 H	1	UNK0	0.000	
51	   H	-0.037	0.393	-1.815	 H	1	UNK0	0.000	
@<TRIPOS>BOND
1 1 2 1
2 2 3 2
3 2 7 1
4 3 4 1
5 3 28 1
6 4 5 2
7 4 8 1
8 5 6 1
9 6 7 2
10 8 9 1
11 9 10 2
12 9 11 1
13 11 12 1
14 12 13 1
15 12 16 1
16 13 14 2
17 13 27 1
18 14 15 1
19 14 25 1
20 15 16 2
21 15 17 1
22 17 18 2
23 17 22 1
24 18 19 1
25 19 20 2
26 20 21 1
27 20 23 1
28 21 22 2
29 23 24 1
30 25 26 1
31 26 27 1
32 5 29 1
33 6 30 1
34 7 31 1
35 8 32 1
36 11 33 1
37 11 34 1
38 16 35 1
39 18 36 1
40 19 37 1
41 21 38 1
42 22 39 1
43 24 40 1
44 24 41 1
45 24 42 1
46 25 43 1
47 25 44 1
48 26 45 1
49 26 46 1
50 27 47 1
51 27 48 1
52 28 49 1
53 28 50 1
54 28 51 1
@<TRIPOS>SUBSTRUCTURE
1	UNK0	1	GROUP	1 ****	UNK
