REMARK  5 active torsions:
REMARK  status: ('A' for Active; 'I' for Inactive)
REMARK    1  A    between atoms: C_4  and  N_8 
REMARK       I    between atoms: N_8  and  C_9 
REMARK    2  A    between atoms: C_9  and  C_11 
REMARK    3  A    between atoms: C_11  and  N_12 
REMARK    4  A    between atoms: C_15  and  C_17 
REMARK    5  A    between atoms: C_20  and  O_23 
ROOT
ATOM      1  N   UNK d   1       0.775   0.893   2.176  0.00  0.00    -0.336 N 
ATOM      2  C   UNK d   1       0.140  -0.089   2.883  0.00  0.00     0.086 A 
ATOM      3  N   UNK d   1       0.584  -1.287   2.468  0.00  0.00    -0.335 N 
ATOM      4  C   UNK d   1       1.501  -1.136   1.504  0.00  0.00     0.061 A 
ATOM      5  C   UNK d   1       1.599   0.254   1.343  0.00  0.00     0.123 A 
ATOM      6  C   UNK d   1      -0.109  -2.330   3.224  0.00  0.00     0.131 C 
ATOM      7  C   UNK d   1      -1.305  -1.638   3.850  0.00  0.00     0.028 C 
ATOM      8  C   UNK d   1      -0.866  -0.222   3.967  0.00  0.00     0.078 C 
ENDROOT
BRANCH   1   9
ATOM      9  C   UNK d   1       0.533   2.334   2.338  0.00  0.00     0.232 C 
BRANCH   9  10
ATOM     10  C   UNK d   1      -0.540   2.750   1.353  0.00  0.00     0.240 C 
ATOM     11  N   UNK d   1      -0.521   2.326   0.034  0.00  0.00    -0.325 N 
ATOM     12  H   UNK d   1       0.284   1.687  -0.246  0.00  0.00     0.169 HD
ATOM     13  O   UNK d   1      -1.415   3.489   1.817  0.00  0.00    -0.271 OA
BRANCH  11  14
ATOM     14  C   UNK d   1      -1.459   2.662  -0.962  0.00  0.00     0.042 A 
ATOM     15  C   UNK d   1      -1.280   2.124  -2.255  0.00  0.00    -0.013 A 
ATOM     16  C   UNK d   1      -2.155   2.414  -3.277  0.00  0.00     0.042 A 
ATOM     17  C   UNK d   1      -0.135   1.236  -2.522  0.00  0.00     0.052 C 
ATOM     18 Cl   UNK d   1      -1.949   1.750  -4.884  0.00  0.00    -0.084 Cl
ATOM     19  C   UNK d   1      -3.239   3.239  -3.087  0.00  0.00     0.024 A 
ATOM     20  C   UNK d   1      -3.438   3.778  -1.842  0.00  0.00     0.004 A 
ATOM     21  C   UNK d   1      -2.540   3.478  -0.798  0.00  0.00     0.030 A 
ENDBRANCH  11  14
ENDBRANCH   9  10
ENDBRANCH   1   9
BRANCH   4  22
ATOM     22  C   UNK d   1       2.273  -2.092   0.727  0.00  0.00    -0.008 A 
ATOM     23  C   UNK d   1       2.201  -3.442   0.933  0.00  0.00     0.016 A 
ATOM     24  C   UNK d   1       2.914  -4.364   0.189  0.00  0.00     0.037 A 
ATOM     25  C   UNK d   1       3.761  -3.951  -0.828  0.00  0.00     0.068 A 
ATOM     26  C   UNK d   1       3.834  -2.595  -1.037  0.00  0.00     0.037 A 
ATOM     27  C   UNK d   1       3.122  -1.674  -0.294  0.00  0.00     0.016 A 
BRANCH  25  28
ATOM     28  O   UNK d   1       4.491  -4.845  -1.593  0.00  0.00    -0.356 OA
ATOM     29  C   UNK d   1       5.356  -4.435  -2.636  0.00  0.00     0.210 C 
ENDBRANCH  25  28
ENDBRANCH   4  22
TORSDOF 5
