REMARK  9 active torsions:
REMARK  status: ('A' for Active; 'I' for Inactive)
REMARK    1  A    between atoms: C_3  and  C_9 
REMARK    2  A    between atoms: N_10  and  N_11 
REMARK    3  A    between atoms: N_11  and  C_12 
REMARK    4  A    between atoms: N_13  and  C_22 
REMARK    5  A    between atoms: C_18  and  N_21 
REMARK    6  A    between atoms: C_24  and  C_29 
REMARK    7  A    between atoms: C_25  and  O_28 
REMARK    8  A    between atoms: C_26  and  O_27 
REMARK    9  A    between atoms: C_29  and  O_30 
ROOT
ATOM      1  C   UNK d   1       0.296   1.438  -1.108  0.00  0.00     0.727 A 
ATOM      2  N   UNK d   1       0.422   0.159  -1.495  0.00  0.00    -0.131 N 
ATOM      3  C   UNK d   1       1.372   0.151  -2.446  0.00  0.00     0.182 A 
ATOM      4  N   UNK d   1       1.919  -0.837  -3.195  0.00  0.00    -0.221 NA
ATOM      5  C   UNK d   1       2.881  -0.589  -4.105  0.00  0.00     0.237 A 
ATOM      6  N   UNK d   1       3.327   0.672  -4.292  0.00  0.00    -0.222 NA
ATOM      7  C   UNK d   1       2.833   1.707  -3.587  0.00  0.00     0.156 A 
ATOM      8  C   UNK d   1       1.848   1.427  -2.660  0.00  0.00     0.168 A 
ATOM      9  N   UNK d   1       1.155   2.217  -1.807  0.00  0.00    -0.055 NA
ENDROOT
BRANCH   1  10
ATOM     10  N   UNK d   1      -0.600   1.916  -0.115  0.00  0.00    -0.107 N 
ATOM     11  H   UNK d   1      -1.569   2.228  -0.363  0.00  0.00     0.208 HD
BRANCH  10  12
ATOM     12  N   UNK d   1      -0.244   1.999   1.233  0.00  0.00    -0.172 NA
ATOM     13  C   UNK d   1       0.729   1.279   1.656  0.00  0.00     0.154 C 
BRANCH  13  14
ATOM     14  C   UNK d   1       1.169   1.303   3.054  0.00  0.00     0.026 A 
ATOM     15  C   UNK d   1       2.217   0.521   3.489  0.00  0.00     0.047 A 
ATOM     16 Cl   UNK d   1       3.016  -0.509   2.324  0.00  0.00    -0.083 Cl
ATOM     17  C   UNK d   1       2.619   0.561   4.826  0.00  0.00     0.025 A 
ATOM     18  C   UNK d   1       1.992   1.371   5.748  0.00  0.00     0.003 A 
ATOM     19  C   UNK d   1       0.944   2.151   5.304  0.00  0.00     0.025 A 
ATOM     20  C   UNK d   1       0.542   2.113   3.976  0.00  0.00     0.047 A 
ATOM     21 Cl   UNK d   1      -0.797   3.114   3.426  0.00  0.00    -0.083 Cl
ENDBRANCH  13  14
ENDBRANCH  10  12
ENDBRANCH   1  10
BRANCH   2  22
ATOM     22  C   UNK d   1      -0.267  -1.016  -1.047  0.00  0.00     0.279 C 
ATOM     23  O   UNK d   1      -1.397  -0.720  -0.289  0.00  0.00    -0.353 OA
ATOM     24  C   UNK d   1      -2.046  -1.954  -0.270  0.00  0.00     0.179 C 
ATOM     25  C   UNK d   1      -2.145  -2.250  -1.759  0.00  0.00     0.182 C 
ATOM     26  C   UNK d   1      -0.760  -1.845  -2.220  0.00  0.00     0.199 C 
BRANCH  24  27
ATOM     27  C   UNK d   1      -3.402  -1.887   0.379  0.00  0.00     0.198 C 
BRANCH  27  28
ATOM     28  O   UNK d   1      -4.261  -1.023  -0.254  0.00  0.00    -0.398 OA
ATOM     29  H   UNK d   1      -3.785  -0.377  -0.820  0.00  0.00     0.209 HD
ENDBRANCH  27  28
ENDBRANCH  24  27
BRANCH  25  30
ATOM     30  O   UNK d   1      -2.401  -3.592  -2.003  0.00  0.00    -0.390 OA
ATOM     31  H   UNK d   1      -2.296  -4.076  -1.140  0.00  0.00     0.210 HD
ENDBRANCH  25  30
BRANCH  26  32
ATOM     32  O   UNK d   1      -0.017  -3.019  -2.362  0.00  0.00    -0.388 OA
ATOM     33  H   UNK d   1       0.560  -3.186  -1.590  0.00  0.00     0.210 HD
ENDBRANCH  26  32
ENDBRANCH   2  22
BRANCH   7  34
ATOM     34  N   UNK d   1       3.320   3.016  -3.806  0.00  0.00    -0.382 N 
ATOM     35  H   UNK d   1       4.310   3.266  -3.639  0.00  0.00     0.157 HD
ATOM     36  H   UNK d   1       2.667   3.746  -4.142  0.00  0.00     0.157 HD
ENDBRANCH   7  34
TORSDOF 9
