# created with PyMOL 2.3.2
@<TRIPOS>MOLECULE
1837
49 52 1                 
SMALL
USER_CHARGES
@<TRIPOS>ATOM
1	  Cl	-2.115	5.444	2.987	Cl	1	UNK0	0.000	
2	   C	-2.045	4.123	1.840	C.2	1	UNK0	0.000	
3	   C	-1.248	3.010	2.066	C.2	1	UNK0	0.000	
4	   C	-1.211	1.990	1.151	C.2	1	UNK0	0.000	
5	   C	-1.957	2.011	-0.037	C.2	1	UNK0	0.000	
6	   C	-2.733	3.118	-0.238	C.2	1	UNK0	0.000	
7	   C	-2.781	4.159	0.681	C.2	1	UNK0	0.000	
8	   N	-1.873	0.938	-0.949	N.pl3	1	UNK0	0.000	
9	   C	-2.698	0.665	-2.044	C.2	1	UNK0	0.000	
10	   O	-3.667	1.423	-2.303	O.2	1	UNK0	0.000	
11	   C	-2.467	-0.529	-2.941	C.3	1	UNK0	0.000	
12	   N	-1.239	-1.153	-2.483	N.3	1	UNK0	0.000	
13	   C	-1.128	-2.530	-3.008	C.3	1	UNK0	0.000	
14	   C	-0.194	-3.197	-1.977	C.3	1	UNK0	0.000	
15	   N	0.738	-2.114	-1.628	N.pl3	1	UNK0	0.000	
16	   C	1.137	-1.286	-2.722	C.3	1	UNK0	0.000	
17	   C	-0.089	-0.428	-3.074	C.3	1	UNK0	0.000	
18	   C	1.136	-1.972	-0.291	C.2	1	UNK0	0.000	
19	   N	0.651	-2.819	0.668	N.2	1	UNK0	0.000	
20	   C	0.971	-2.740	1.959	C.2	1	UNK0	0.000	
21	   N	1.813	-1.786	2.371	N.2	1	UNK0	0.000	
22	   C	2.351	-0.905	1.534	C.2	1	UNK0	0.000	
23	   N	3.201	0.131	1.680	N.pl3	1	UNK0	0.000	
24	   N	3.372	0.644	0.488	N.2	1	UNK0	0.000	
25	   N	2.665	-0.022	-0.412	N.2	1	UNK0	0.000	
26	   C	2.006	-0.999	0.182	C.2	1	UNK0	0.000	
27	   C	3.828	0.623	2.892	C.3	1	UNK0	0.000	
28	   C	2.972	1.671	3.569	C.3	1	UNK0	0.000	
29	   H	-0.675	2.991	2.980	 H	1	UNK0	0.000	
30	   H	-0.586	1.134	1.344	 H	1	UNK0	0.000	
31	   H	-3.340	3.248	-1.115	 H	1	UNK0	0.000	
32	   H	-3.421	5.017	0.464	 H	1	UNK0	0.000	
33	   H	-1.094	0.232	-0.761	 H	1	UNK0	0.000	
34	   H	-3.352	-1.164	-2.875	 H	1	UNK0	0.000	
35	   H	-2.378	-0.094	-3.957	 H	1	UNK0	0.000	
36	   H	-0.601	-2.572	-3.969	 H	1	UNK0	0.000	
37	   H	-2.091	-3.014	-3.090	 H	1	UNK0	0.000	
38	   H	-0.855	-3.468	-1.136	 H	1	UNK0	0.000	
39	   H	0.320	-4.057	-2.397	 H	1	UNK0	0.000	
40	   H	1.411	-1.909	-3.614	 H	1	UNK0	0.000	
41	   H	1.942	-0.584	-2.487	 H	1	UNK0	0.000	
42	   H	0.014	0.574	-2.685	 H	1	UNK0	0.000	
43	   H	-0.172	-0.380	-4.182	 H	1	UNK0	0.000	
44	   H	0.535	-3.463	2.665	 H	1	UNK0	0.000	
45	   H	3.980	-0.236	3.577	 H	1	UNK0	0.000	
46	   H	4.825	1.072	2.716	 H	1	UNK0	0.000	
47	   H	2.280	1.130	4.252	 H	1	UNK0	0.000	
48	   H	3.654	2.352	4.113	 H	1	UNK0	0.000	
49	   H	2.420	2.284	2.815	 H	1	UNK0	0.000	
@<TRIPOS>BOND
1 1 2 1
2 2 3 2
3 2 7 1
4 3 4 1
5 4 5 2
6 5 6 1
7 5 8 1
8 6 7 2
9 8 9 1
10 9 10 2
11 9 11 1
12 11 12 1
13 12 13 1
14 12 17 1
15 13 14 1
16 14 15 1
17 15 16 1
18 15 18 1
19 16 17 1
20 18 19 2
21 18 26 1
22 19 20 1
23 20 21 2
24 21 22 1
25 22 23 1
26 22 26 2
27 23 24 1
28 23 27 1
29 24 25 2
30 25 26 1
31 27 28 1
32 3 29 1
33 4 30 1
34 6 31 1
35 7 32 1
36 8 33 1
37 11 34 1
38 11 35 1
39 13 36 1
40 13 37 1
41 14 38 1
42 14 39 1
43 16 40 1
44 16 41 1
45 17 42 1
46 17 43 1
47 20 44 1
48 27 45 1
49 27 46 1
50 28 47 1
51 28 48 1
52 28 49 1
@<TRIPOS>SUBSTRUCTURE
1	UNK0	1	GROUP	1 ****	UNK
