REMARK  5 active torsions:
REMARK  status: ('A' for Active; 'I' for Inactive)
REMARK    1  A    between atoms: C_5  and  N_8 
REMARK       I    between atoms: N_8  and  C_9 
REMARK    2  A    between atoms: C_9  and  C_11 
REMARK    3  A    between atoms: C_11  and  N_12 
REMARK    4  A    between atoms: N_15  and  C_18 
REMARK    5  A    between atoms: N_23  and  C_27 
ROOT
ATOM      1  N   UNK d   1      -1.239  -1.153  -2.483  0.00  0.00     0.100 N 
ATOM      2  C   UNK d   1      -1.128  -2.530  -3.008  0.00  0.00     0.293 C 
ATOM      3  C   UNK d   1      -0.194  -3.197  -1.977  0.00  0.00     0.154 C 
ATOM      4  N   UNK d   1       0.738  -2.114  -1.628  0.00  0.00    -0.360 N 
ATOM      5  C   UNK d   1       1.137  -1.286  -2.722  0.00  0.00     0.154 C 
ATOM      6  C   UNK d   1      -0.089  -0.428  -3.074  0.00  0.00     0.293 C 
ENDROOT
BRANCH   1   7
ATOM      7  C   UNK d   1      -2.467  -0.529  -2.941  0.00  0.00     0.375 C 
BRANCH   7   8
ATOM      8  C   UNK d   1      -2.698   0.665  -2.044  0.00  0.00     0.250 C 
ATOM      9  N   UNK d   1      -1.873   0.938  -0.949  0.00  0.00    -0.326 N 
ATOM     10  H   UNK d   1      -1.094   0.232  -0.761  0.00  0.00     0.169 HD
ATOM     11  O   UNK d   1      -3.667   1.423  -2.303  0.00  0.00    -0.271 OA
BRANCH   9  12
ATOM     12  C   UNK d   1      -1.957   2.011  -0.037  0.00  0.00     0.034 A 
ATOM     13  C   UNK d   1      -1.211   1.990   1.151  0.00  0.00     0.031 A 
ATOM     14  C   UNK d   1      -1.248   3.010   2.066  0.00  0.00     0.026 A 
ATOM     15  C   UNK d   1      -2.045   4.123   1.840  0.00  0.00     0.034 A 
ATOM     16 Cl   UNK d   1      -2.115   5.444   2.987  0.00  0.00    -0.084 Cl
ATOM     17  C   UNK d   1      -2.781   4.159   0.681  0.00  0.00     0.026 A 
ATOM     18  C   UNK d   1      -2.733   3.118  -0.238  0.00  0.00     0.031 A 
ENDBRANCH   9  12
ENDBRANCH   7   8
ENDBRANCH   1   7
BRANCH   4  19
ATOM     19  C   UNK d   1       1.136  -1.972  -0.291  0.00  0.00     0.162 A 
ATOM     20  N   UNK d   1       0.651  -2.819   0.668  0.00  0.00    -0.222 NA
ATOM     21  C   UNK d   1       0.971  -2.740   1.959  0.00  0.00     0.237 A 
ATOM     22  N   UNK d   1       1.813  -1.786   2.371  0.00  0.00    -0.220 NA
ATOM     23  C   UNK d   1       2.351  -0.905   1.534  0.00  0.00     0.183 A 
ATOM     24  N   UNK d   1       3.201   0.131   1.680  0.00  0.00    -0.232 N 
ATOM     25  C   UNK d   1       2.006  -0.999   0.182  0.00  0.00     0.173 A 
ATOM     26  N   UNK d   1       3.372   0.644   0.488  0.00  0.00    -0.064 NA
ATOM     27  N   UNK d   1       2.665  -0.022  -0.412  0.00  0.00    -0.124 NA
BRANCH  24  28
ATOM     28  C   UNK d   1       3.828   0.623   2.892  0.00  0.00     0.150 C 
ATOM     29  C   UNK d   1       2.972   1.671   3.569  0.00  0.00     0.029 C 
ENDBRANCH  24  28
ENDBRANCH   4  19
TORSDOF 5
