# created with PyMOL 2.3.2
@<TRIPOS>MOLECULE
1846
49 52 1                 
SMALL
USER_CHARGES
@<TRIPOS>ATOM
1	  Cl	2.390	-6.133	5.773	Cl	1	UNK0	0.000	
2	   C	1.729	-5.387	4.333	C.2	1	UNK0	0.000	
3	   C	0.472	-5.724	3.892	C.2	1	UNK0	0.000	
4	   C	0.030	-5.094	2.755	C.2	1	UNK0	0.000	
5	   C	0.788	-4.153	2.055	C.2	1	UNK0	0.000	
6	   C	2.043	-3.810	2.487	C.2	1	UNK0	0.000	
7	   C	2.483	-4.464	3.653	C.2	1	UNK0	0.000	
8	   N	2.896	-2.866	1.875	N.pl3	1	UNK0	0.000	
9	   C	2.478	-1.977	0.872	C.2	1	UNK0	0.000	
10	   O	1.314	-1.947	0.443	O.2	1	UNK0	0.000	
11	   C	3.435	-0.996	0.254	C.3	1	UNK0	0.000	
12	   N	2.815	-0.183	-0.744	N.pl3	1	UNK0	0.000	
13	   C	2.756	-0.509	-2.054	C.2	1	UNK0	0.000	
14	   N	2.151	0.313	-2.937	N.2	1	UNK0	0.000	
15	   C	1.587	1.473	-2.581	C.2	1	UNK0	0.000	
16	   N	0.983	2.298	-3.452	N.2	1	UNK0	0.000	
17	   C	0.409	3.467	-3.121	C.2	1	UNK0	0.000	
18	   N	0.458	3.814	-1.806	N.2	1	UNK0	0.000	
19	   C	1.052	3.019	-0.902	C.2	1	UNK0	0.000	
20	   C	1.638	1.821	-1.253	C.2	1	UNK0	0.000	
21	   C	2.253	0.990	-0.339	C.2	1	UNK0	0.000	
22	   O	2.267	1.363	0.860	O.2	1	UNK0	0.000	
23	   N	-0.219	4.308	-4.070	N.pl3	1	UNK0	0.000	
24	   C	-0.244	3.889	-5.452	C.3	1	UNK0	0.000	
25	   C	-1.605	4.242	-6.049	C.3	1	UNK0	0.000	
26	   O	-1.963	5.560	-5.774	O.3	1	UNK0	0.000	
27	   C	-2.206	5.629	-4.402	C.3	1	UNK0	0.000	
28	   C	-0.837	5.567	-3.724	C.3	1	UNK0	0.000	
29	   O	-0.318	-6.664	4.568	O.3	1	UNK0	0.000	
30	   C	-1.602	-6.981	4.082	C.3	1	UNK0	0.000	
31	   H	-0.972	-5.349	2.385	 H	1	UNK0	0.000	
32	   H	0.365	-3.727	1.183	 H	1	UNK0	0.000	
33	   H	3.487	-4.183	3.991	 H	1	UNK0	0.000	
34	   H	3.923	-2.828	2.191	 H	1	UNK0	0.000	
35	   H	3.892	-0.341	1.005	 H	1	UNK0	0.000	
36	   H	4.245	-1.578	-0.227	 H	1	UNK0	0.000	
37	   H	3.212	-1.447	-2.339	 H	1	UNK0	0.000	
38	   H	1.100	3.284	0.160	 H	1	UNK0	0.000	
39	   H	0.540	4.397	-6.055	 H	1	UNK0	0.000	
40	   H	-0.161	2.787	-5.478	 H	1	UNK0	0.000	
41	   H	-1.531	4.150	-7.150	 H	1	UNK0	0.000	
42	   H	-2.388	3.589	-5.611	 H	1	UNK0	0.000	
43	   H	-2.793	4.748	-4.106	 H	1	UNK0	0.000	
44	   H	-2.735	6.535	-4.096	 H	1	UNK0	0.000	
45	   H	-0.226	6.440	-4.033	 H	1	UNK0	0.000	
46	   H	-1.032	5.550	-2.631	 H	1	UNK0	0.000	
47	   H	-1.501	-7.220	2.999	 H	1	UNK0	0.000	
48	   H	-2.312	-6.148	4.167	 H	1	UNK0	0.000	
49	   H	-1.963	-7.914	4.561	 H	1	UNK0	0.000	
@<TRIPOS>BOND
1 1 2 1
2 2 3 2
3 2 7 1
4 3 4 1
5 3 29 1
6 4 5 2
7 5 6 1
8 6 7 2
9 6 8 1
10 8 9 1
11 9 10 2
12 9 11 1
13 11 12 1
14 12 13 1
15 12 21 1
16 13 14 2
17 14 15 1
18 15 16 2
19 15 20 1
20 16 17 1
21 17 18 2
22 17 23 1
23 18 19 1
24 19 20 2
25 20 21 1
26 21 22 2
27 23 24 1
28 23 28 1
29 24 25 1
30 25 26 1
31 26 27 1
32 27 28 1
33 29 30 1
34 4 31 1
35 5 32 1
36 7 33 1
37 8 34 1
38 11 35 1
39 11 36 1
40 13 37 1
41 19 38 1
42 24 39 1
43 24 40 1
44 25 41 1
45 25 42 1
46 27 43 1
47 27 44 1
48 28 45 1
49 28 46 1
50 30 47 1
51 30 48 1
52 30 49 1
@<TRIPOS>SUBSTRUCTURE
1	UNK0	1	GROUP	1 ****	UNK
