REMARK  5 active torsions:
REMARK  status: ('A' for Active; 'I' for Inactive)
REMARK    1  A    between atoms: C_3  and  O_29 
REMARK    2  A    between atoms: C_6  and  N_8 
REMARK       I    between atoms: N_8  and  C_9 
REMARK    3  A    between atoms: C_9  and  C_11 
REMARK    4  A    between atoms: C_11  and  N_12 
REMARK    5  A    between atoms: C_17  and  N_23 
ROOT
ATOM      1  N   UNK d   1       2.815  -0.183  -0.744  0.00  0.00    -0.299 N 
ATOM      2  C   UNK d   1       2.756  -0.509  -2.054  0.00  0.00     0.215 A 
ATOM      3  N   UNK d   1       2.151   0.313  -2.937  0.00  0.00    -0.223 NA
ATOM      4  C   UNK d   1       1.587   1.473  -2.581  0.00  0.00     0.186 A 
ATOM      5  N   UNK d   1       0.983   2.298  -3.452  0.00  0.00    -0.042 NA
ATOM      6  C   UNK d   1       0.409   3.467  -3.121  0.00  0.00     0.726 A 
ATOM      7  N   UNK d   1       0.458   3.814  -1.806  0.00  0.00    -0.074 NA
ATOM      8  C   UNK d   1       1.052   3.019  -0.902  0.00  0.00     0.157 A 
ATOM      9  C   UNK d   1       1.638   1.821  -1.253  0.00  0.00     0.099 A 
ATOM     10  C   UNK d   1       2.253   0.990  -0.339  0.00  0.00     0.264 A 
ATOM     11  O   UNK d   1       2.267   1.363   0.860  0.00  0.00    -0.267 OA
ENDROOT
BRANCH   1  12
ATOM     12  C   UNK d   1       3.435  -0.996   0.254  0.00  0.00     0.236 C 
BRANCH  12  13
ATOM     13  C   UNK d   1       2.478  -1.977   0.872  0.00  0.00     0.240 C 
ATOM     14  N   UNK d   1       2.896  -2.866   1.875  0.00  0.00    -0.326 N 
ATOM     15  H   UNK d   1       3.923  -2.828   2.191  0.00  0.00     0.169 HD
ATOM     16  O   UNK d   1       1.314  -1.947   0.443  0.00  0.00    -0.271 OA
BRANCH  14  17
ATOM     17  C   UNK d   1       2.043  -3.810   2.487  0.00  0.00     0.036 A 
ATOM     18  C   UNK d   1       0.788  -4.153   2.055  0.00  0.00     0.032 A 
ATOM     19  C   UNK d   1       0.030  -5.094   2.755  0.00  0.00     0.041 A 
ATOM     20  C   UNK d   1       0.472  -5.724   3.892  0.00  0.00     0.090 A 
ATOM     21  C   UNK d   1       1.729  -5.387   4.333  0.00  0.00     0.069 A 
ATOM     22 Cl   UNK d   1       2.390  -6.133   5.773  0.00  0.00    -0.081 Cl
ATOM     23  C   UNK d   1       2.483  -4.464   3.653  0.00  0.00     0.056 A 
BRANCH  20  24
ATOM     24  O   UNK d   1      -0.318  -6.664   4.568  0.00  0.00    -0.354 OA
ATOM     25  C   UNK d   1      -1.602  -6.981   4.082  0.00  0.00     0.210 C 
ENDBRANCH  20  24
ENDBRANCH  14  17
ENDBRANCH  12  13
ENDBRANCH   1  12
BRANCH   6  26
ATOM     26  N   UNK d   1      -0.219   4.308  -4.070  0.00  0.00    -0.210 N 
ATOM     27  C   UNK d   1      -0.244   3.889  -5.452  0.00  0.00     0.167 C 
ATOM     28  C   UNK d   1      -1.605   4.242  -6.049  0.00  0.00     0.188 C 
ATOM     29  O   UNK d   1      -1.963   5.560  -5.774  0.00  0.00    -0.388 OA
ATOM     30  C   UNK d   1      -2.206   5.629  -4.402  0.00  0.00     0.188 C 
ATOM     31  C   UNK d   1      -0.837   5.567  -3.724  0.00  0.00     0.167 C 
ENDBRANCH   6  26
TORSDOF 5
