# created with PyMOL 2.3.2
@<TRIPOS>MOLECULE
1850
38 41 1                 
SMALL
USER_CHARGES
@<TRIPOS>ATOM
1	  Cl	-2.837	2.271	2.594	Cl	1	UNK0	0.000	
2	   C	-3.094	0.719	1.809	C.2	1	UNK0	0.000	
3	   C	-2.485	0.435	0.603	C.2	1	UNK0	0.000	
4	   C	-2.684	-0.771	-0.008	C.2	1	UNK0	0.000	
5	   C	-3.504	-1.689	0.608	C.2	1	UNK0	0.000	
6	   C	-4.122	-1.426	1.811	C.2	1	UNK0	0.000	
7	   C	-3.914	-0.205	2.420	C.2	1	UNK0	0.000	
8	   C	-2.066	-1.150	-1.301	C.3	1	UNK0	0.000	
9	   N	-1.116	-0.118	-1.638	N.pl3	1	UNK0	0.000	
10	   C	-1.559	1.248	-1.486	C.3	1	UNK0	0.000	
11	   C	-1.618	1.502	0.025	C.3	1	UNK0	0.000	
12	   C	0.192	-0.401	-2.096	C.2	1	UNK0	0.000	
13	   O	0.973	0.547	-2.373	O.2	1	UNK0	0.000	
14	   C	0.712	-1.777	-2.275	C.3	1	UNK0	0.000	
15	   O	2.027	-1.788	-2.737	O.3	1	UNK0	0.000	
16	   C	3.096	-1.217	-2.059	C.2	1	UNK0	0.000	
17	   N	2.876	-0.608	-0.878	N.2	1	UNK0	0.000	
18	   N	3.857	-0.042	-0.180	N.pl3	1	UNK0	0.000	
19	   C	5.128	-0.040	-0.603	C.2	1	UNK0	0.000	
20	   N	5.894	0.600	0.302	N.2	1	UNK0	0.000	
21	   N	5.096	0.985	1.268	N.2	1	UNK0	0.000	
22	   C	3.836	0.604	1.000	C.2	1	UNK0	0.000	
23	   C	5.393	-0.660	-1.819	C.2	1	UNK0	0.000	
24	   C	4.381	-1.245	-2.541	C.2	1	UNK0	0.000	
25	   H	-3.697	-2.664	0.166	 H	1	UNK0	0.000	
26	   H	-4.772	-2.175	2.284	 H	1	UNK0	0.000	
27	   H	-4.371	0.057	3.363	 H	1	UNK0	0.000	
28	   H	-2.799	-1.199	-2.132	 H	1	UNK0	0.000	
29	   H	-1.545	-2.127	-1.256	 H	1	UNK0	0.000	
30	   H	-0.893	1.981	-1.977	 H	1	UNK0	0.000	
31	   H	-2.586	1.394	-1.875	 H	1	UNK0	0.000	
32	   H	-2.038	2.479	0.266	 H	1	UNK0	0.000	
33	   H	-0.616	1.377	0.465	 H	1	UNK0	0.000	
34	   H	0.099	-2.386	-2.969	 H	1	UNK0	0.000	
35	   H	0.657	-2.288	-1.282	 H	1	UNK0	0.000	
36	   H	2.933	0.768	1.601	 H	1	UNK0	0.000	
37	   H	6.401	-0.661	-2.159	 H	1	UNK0	0.000	
38	   H	4.549	-1.736	-3.489	 H	1	UNK0	0.000	
@<TRIPOS>BOND
1 1 2 1
2 2 3 2
3 2 7 1
4 3 4 1
5 3 11 1
6 4 5 2
7 4 8 1
8 5 6 1
9 6 7 2
10 8 9 1
11 9 10 1
12 9 12 1
13 10 11 1
14 12 13 2
15 12 14 1
16 14 15 1
17 15 16 1
18 16 17 2
19 16 24 1
20 17 18 1
21 18 19 1
22 18 22 1
23 19 20 2
24 19 23 1
25 20 21 1
26 21 22 2
27 23 24 2
28 5 25 1
29 6 26 1
30 7 27 1
31 8 28 1
32 8 29 1
33 10 30 1
34 10 31 1
35 11 32 1
36 11 33 1
37 14 34 1
38 14 35 1
39 22 36 1
40 23 37 1
41 24 38 1
@<TRIPOS>SUBSTRUCTURE
1	UNK0	1	GROUP	1 ****	UNK
