REMARK  3 active torsions:
REMARK  status: ('A' for Active; 'I' for Inactive)
REMARK       I    between atoms: N_9  and  C_12 
REMARK    1  A    between atoms: C_12  and  C_14 
REMARK    2  A    between atoms: C_14  and  O_15 
REMARK    3  A    between atoms: O_15  and  C_16 
ROOT
ATOM      1 Cl   UNK d   1      -2.837   2.271   2.594  0.00  0.00    -0.084 Cl
ATOM      2  C   UNK d   1      -3.094   0.719   1.809  0.00  0.00     0.041 A 
ATOM      3  C   UNK d   1      -2.485   0.435   0.603  0.00  0.00    -0.027 A 
ATOM      4  C   UNK d   1      -2.684  -0.771  -0.008  0.00  0.00    -0.032 A 
ATOM      5  C   UNK d   1      -3.504  -1.689   0.608  0.00  0.00     0.009 A 
ATOM      6  C   UNK d   1      -4.122  -1.426   1.811  0.00  0.00     0.002 A 
ATOM      7  C   UNK d   1      -3.914  -0.205   2.420  0.00  0.00     0.024 A 
ATOM      8  C   UNK d   1      -2.066  -1.150  -1.301  0.00  0.00     0.165 C 
ATOM      9  N   UNK d   1      -1.116  -0.118  -1.638  0.00  0.00    -0.346 N 
ATOM     10  C   UNK d   1      -1.559   1.248  -1.486  0.00  0.00     0.131 C 
ATOM     11  C   UNK d   1      -1.618   1.502   0.025  0.00  0.00     0.061 C 
ATOM     12  C   UNK d   1       0.192  -0.401  -2.096  0.00  0.00     0.244 C 
ATOM     13  O   UNK d   1       0.973   0.547  -2.373  0.00  0.00    -0.271 OA
ENDROOT
BRANCH  12  14
ATOM     14  C   UNK d   1       0.712  -1.777  -2.275  0.00  0.00     0.280 C 
BRANCH  14  15
ATOM     15  O   UNK d   1       2.027  -1.788  -2.737  0.00  0.00    -0.324 OA
BRANCH  15  16
ATOM     16  C   UNK d   1       3.096  -1.217  -2.059  0.00  0.00     0.184 A 
ATOM     17  N   UNK d   1       2.876  -0.608  -0.878  0.00  0.00    -0.139 NA
ATOM     18  N   UNK d   1       3.857  -0.042  -0.180  0.00  0.00    -0.203 N 
ATOM     19  C   UNK d   1       5.128  -0.040  -0.603  0.00  0.00     0.174 A 
ATOM     20  C   UNK d   1       3.836   0.604   1.000  0.00  0.00     0.261 A 
ATOM     21  N   UNK d   1       5.894   0.600   0.302  0.00  0.00    -0.129 NA
ATOM     22  C   UNK d   1       5.393  -0.660  -1.819  0.00  0.00     0.059 A 
ATOM     23  N   UNK d   1       5.096   0.985   1.268  0.00  0.00    -0.141 NA
ATOM     24  C   UNK d   1       4.381  -1.245  -2.541  0.00  0.00     0.063 A 
ENDBRANCH  15  16
ENDBRANCH  14  15
ENDBRANCH  12  14
TORSDOF 3
