# created with PyMOL 2.3.2
@<TRIPOS>MOLECULE
1852
42 45 1                 
SMALL
USER_CHARGES
@<TRIPOS>ATOM
1	   S	-1.219	-3.652	-1.257	S.O2	1	UNK0	0.000	
2	   O	-0.409	-4.725	-1.902	O.2	1	UNK0	0.000	
3	   O	-2.601	-4.185	-0.984	O.2	1	UNK0	0.000	
4	   N	-1.382	-2.311	-2.324	N.3	1	UNK0	0.000	
5	   C	-0.124	-1.730	-2.673	C.3	1	UNK0	0.000	
6	   C	-0.237	-0.230	-2.462	C.3	1	UNK0	0.000	
7	   C	-1.293	-0.150	-1.379	C.3	1	UNK0	0.000	
8	   C	-2.231	-1.284	-1.809	C.3	1	UNK0	0.000	
9	   O	0.992	0.221	-1.918	O.3	1	UNK0	0.000	
10	   C	1.737	1.224	-2.517	C.2	1	UNK0	0.000	
11	   N	2.900	1.559	-1.887	N.2	1	UNK0	0.000	
12	   C	3.644	2.528	-2.445	C.2	1	UNK0	0.000	
13	   C	3.271	3.175	-3.606	C.2	1	UNK0	0.000	
14	   C	2.083	2.794	-4.200	C.2	1	UNK0	0.000	
15	   N	1.336	1.819	-3.639	N.2	1	UNK0	0.000	
16	  Cl	4.251	4.438	-4.322	Cl	1	UNK0	0.000	
17	   C	-0.485	-3.187	0.260	C.2	1	UNK0	0.000	
18	   C	-1.269	-2.772	1.318	C.2	1	UNK0	0.000	
19	   C	-0.738	-2.393	2.539	C.2	1	UNK0	0.000	
20	   C	0.631	-2.424	2.732	C.2	1	UNK0	0.000	
21	   C	1.403	-2.838	1.677	C.2	1	UNK0	0.000	
22	   C	0.878	-3.216	0.460	C.2	1	UNK0	0.000	
23	   O	1.120	-2.038	3.970	O.3	1	UNK0	0.000	
24	   C	0.429	-1.163	4.844	C.3	1	UNK0	0.000	
25	   C	-1.068	-1.251	4.709	C.3	1	UNK0	0.000	
26	   O	-1.509	-1.978	3.600	O.3	1	UNK0	0.000	
27	   H	0.031	-1.877	-3.767	 H	1	UNK0	0.000	
28	   H	0.737	-2.162	-2.164	 H	1	UNK0	0.000	
29	   H	-0.522	0.290	-3.384	 H	1	UNK0	0.000	
30	   H	-0.869	-0.329	-0.394	 H	1	UNK0	0.000	
31	   H	-1.862	0.794	-1.482	 H	1	UNK0	0.000	
32	   H	-2.820	-1.607	-0.919	 H	1	UNK0	0.000	
33	   H	-2.894	-0.894	-2.586	 H	1	UNK0	0.000	
34	   H	4.575	2.842	-1.998	 H	1	UNK0	0.000	
35	   H	1.760	3.291	-5.126	 H	1	UNK0	0.000	
36	   H	-2.348	-2.744	1.174	 H	1	UNK0	0.000	
37	   H	2.486	-2.856	1.850	 H	1	UNK0	0.000	
38	   H	1.502	-3.536	-0.351	 H	1	UNK0	0.000	
39	   H	0.759	-1.380	5.875	 H	1	UNK0	0.000	
40	   H	0.796	-0.127	4.593	 H	1	UNK0	0.000	
41	   H	-1.460	-1.666	5.674	 H	1	UNK0	0.000	
42	   H	-1.455	-0.214	4.621	 H	1	UNK0	0.000	
@<TRIPOS>BOND
1 1 2 2
2 1 3 2
3 1 4 1
4 1 17 1
5 4 5 1
6 4 8 1
7 5 6 1
8 6 7 1
9 6 9 1
10 7 8 1
11 9 10 1
12 10 11 2
13 10 15 1
14 11 12 1
15 12 13 2
16 13 14 1
17 13 16 1
18 14 15 2
19 17 18 2
20 17 22 1
21 18 19 1
22 19 20 2
23 19 26 1
24 20 21 1
25 20 23 1
26 21 22 2
27 23 24 1
28 24 25 1
29 25 26 1
30 5 27 1
31 5 28 1
32 6 29 1
33 7 30 1
34 7 31 1
35 8 32 1
36 8 33 1
37 12 34 1
38 14 35 1
39 18 36 1
40 21 37 1
41 22 38 1
42 24 39 1
43 24 40 1
44 25 41 1
45 25 42 1
@<TRIPOS>SUBSTRUCTURE
1	UNK0	1	GROUP	1 ****	UNK
