REMARK  4 active torsions:
REMARK  status: ('A' for Active; 'I' for Inactive)
REMARK    1  A    between atoms: S_1  and  N_4 
REMARK    2  A    between atoms: S_1  and  C_17 
REMARK    3  A    between atoms: C_6  and  O_9 
REMARK    4  A    between atoms: O_9  and  C_10 
ROOT
ATOM      1  N   UNK d   1      -1.382  -2.311  -2.324  0.00  0.00    -0.204 NA
ATOM      2  C   UNK d   1      -0.124  -1.730  -2.673  0.00  0.00     0.140 C 
ATOM      3  C   UNK d   1      -0.237  -0.230  -2.462  0.00  0.00     0.147 C 
ATOM      4  C   UNK d   1      -1.293  -0.150  -1.379  0.00  0.00     0.049 C 
ATOM      5  C   UNK d   1      -2.231  -1.284  -1.809  0.00  0.00     0.110 C 
ENDROOT
BRANCH   1   6
ATOM      6  S   UNK d   1      -1.219  -3.652  -1.257  0.00  0.00     0.243 S 
ATOM      7  O   UNK d   1      -0.409  -4.725  -1.902  0.00  0.00    -0.206 OA
ATOM      8  O   UNK d   1      -2.601  -4.185  -0.984  0.00  0.00    -0.206 OA
BRANCH   6   9
ATOM      9  C   UNK d   1      -0.485  -3.187   0.260  0.00  0.00     0.077 A 
ATOM     10  C   UNK d   1      -1.269  -2.772   1.318  0.00  0.00     0.064 A 
ATOM     11  C   UNK d   1      -0.738  -2.393   2.539  0.00  0.00     0.103 A 
ATOM     12  C   UNK d   1       0.631  -2.424   2.732  0.00  0.00     0.102 A 
ATOM     13  O   UNK d   1      -1.509  -1.978   3.600  0.00  0.00    -0.346 OA
ATOM     14  C   UNK d   1       1.403  -2.838   1.677  0.00  0.00     0.041 A 
ATOM     15  O   UNK d   1       1.120  -2.038   3.970  0.00  0.00    -0.346 OA
ATOM     16  C   UNK d   1       0.878  -3.216   0.460  0.00  0.00     0.028 A 
ATOM     17  C   UNK d   1       0.429  -1.163   4.844  0.00  0.00     0.202 C 
ATOM     18  C   UNK d   1      -1.068  -1.251   4.709  0.00  0.00     0.202 C 
ENDBRANCH   6   9
ENDBRANCH   1   6
BRANCH   3  19
ATOM     19  O   UNK d   1       0.992   0.221  -1.918  0.00  0.00    -0.312 OA
BRANCH  19  20
ATOM     20  C   UNK d   1       1.737   1.224  -2.517  0.00  0.00     0.268 A 
ATOM     21  N   UNK d   1       2.900   1.559  -1.887  0.00  0.00    -0.218 NA
ATOM     22  C   UNK d   1       3.644   2.528  -2.445  0.00  0.00     0.146 A 
ATOM     23  C   UNK d   1       3.271   3.175  -3.606  0.00  0.00     0.069 A 
ATOM     24  C   UNK d   1       2.083   2.794  -4.200  0.00  0.00     0.146 A 
ATOM     25 Cl   UNK d   1       4.251   4.438  -4.322  0.00  0.00    -0.081 Cl
ATOM     26  N   UNK d   1       1.336   1.819  -3.639  0.00  0.00    -0.218 NA
ENDBRANCH  19  20
ENDBRANCH   3  19
TORSDOF 4
