# created with PyMOL 2.3.2
@<TRIPOS>MOLECULE
1856
51 54 1                 
SMALL
USER_CHARGES
@<TRIPOS>ATOM
1	  Br	-1.307	-6.317	0.058	Br	1	UNK0	0.000	
2	   C	-1.896	-5.095	1.399	C.2	1	UNK0	0.000	
3	   C	-1.204	-3.945	1.636	C.2	1	UNK0	0.000	
4	   C	-1.641	-3.048	2.623	C.2	1	UNK0	0.000	
5	   C	-2.768	-3.355	3.336	C.2	1	UNK0	0.000	
6	   C	-3.476	-4.542	3.087	C.2	1	UNK0	0.000	
7	   C	-3.030	-5.403	2.117	C.2	1	UNK0	0.000	
8	   O	-3.244	-2.510	4.319	O.3	1	UNK0	0.000	
9	   C	-0.889	-1.826	2.861	C.2	1	UNK0	0.000	
10	   N	0.188	-1.580	2.147	N.2	1	UNK0	0.000	
11	   N	0.880	-0.397	2.407	N.pl3	1	UNK0	0.000	
12	   C	1.206	0.510	1.364	C.2	1	UNK0	0.000	
13	   N	1.871	1.651	1.602	N.2	1	UNK0	0.000	
14	   C	2.205	2.549	0.638	C.2	1	UNK0	0.000	
15	   N	1.814	2.213	-0.620	N.2	1	UNK0	0.000	
16	   C	1.148	1.087	-0.919	C.2	1	UNK0	0.000	
17	   N	0.858	0.261	0.078	N.2	1	UNK0	0.000	
18	   N	0.772	0.801	-2.252	N.pl3	1	UNK0	0.000	
19	   C	0.052	-0.397	-2.633	C.3	1	UNK0	0.000	
20	   C	-0.811	-0.112	-3.843	C.3	1	UNK0	0.000	
21	   O	-0.113	0.374	-4.916	O.3	1	UNK0	0.000	
22	   C	1.160	0.829	-4.597	C.3	1	UNK0	0.000	
23	   C	1.091	1.713	-3.355	C.3	1	UNK0	0.000	
24	   N	2.903	3.738	0.922	N.pl3	1	UNK0	0.000	
25	   C	3.235	4.656	-0.126	C.3	1	UNK0	0.000	
26	   C	2.707	6.019	0.289	C.3	1	UNK0	0.000	
27	   O	3.319	6.337	1.511	O.3	1	UNK0	0.000	
28	   C	2.842	5.500	2.520	C.3	1	UNK0	0.000	
29	   C	3.298	4.059	2.260	C.3	1	UNK0	0.000	
30	   H	-0.307	-3.678	1.085	 H	1	UNK0	0.000	
31	   H	-4.363	-4.754	3.668	 H	1	UNK0	0.000	
32	   H	-3.560	-6.335	1.900	 H	1	UNK0	0.000	
33	   H	-2.820	-1.643	4.578	 H	1	UNK0	0.000	
34	   H	-1.187	-1.112	3.606	 H	1	UNK0	0.000	
35	   H	1.148	-0.203	3.392	 H	1	UNK0	0.000	
36	   H	-0.613	-0.712	-1.808	 H	1	UNK0	0.000	
37	   H	0.789	-1.165	-2.918	 H	1	UNK0	0.000	
38	   H	-1.687	0.509	-3.560	 H	1	UNK0	0.000	
39	   H	-1.239	-1.112	-4.148	 H	1	UNK0	0.000	
40	   H	1.600	1.352	-5.450	 H	1	UNK0	0.000	
41	   H	1.767	-0.061	-4.327	 H	1	UNK0	0.000	
42	   H	2.010	2.266	-3.184	 H	1	UNK0	0.000	
43	   H	0.191	2.354	-3.483	 H	1	UNK0	0.000	
44	   H	4.338	4.752	-0.196	 H	1	UNK0	0.000	
45	   H	2.781	4.327	-1.084	 H	1	UNK0	0.000	
46	   H	1.610	6.012	0.441	 H	1	UNK0	0.000	
47	   H	2.976	6.799	-0.450	 H	1	UNK0	0.000	
48	   H	1.736	5.501	2.432	 H	1	UNK0	0.000	
49	   H	3.199	5.859	3.492	 H	1	UNK0	0.000	
50	   H	4.385	3.955	2.438	 H	1	UNK0	0.000	
51	   H	2.746	3.409	2.976	 H	1	UNK0	0.000	
@<TRIPOS>BOND
1 1 2 1
2 2 3 2
3 2 7 1
4 3 4 1
5 4 5 2
6 4 9 1
7 5 6 1
8 5 8 1
9 6 7 2
10 9 10 2
11 10 11 1
12 11 12 1
13 12 13 2
14 12 17 1
15 13 14 1
16 14 15 2
17 14 24 1
18 15 16 1
19 16 17 2
20 16 18 1
21 18 19 1
22 18 23 1
23 19 20 1
24 20 21 1
25 21 22 1
26 22 23 1
27 24 25 1
28 24 29 1
29 25 26 1
30 26 27 1
31 27 28 1
32 28 29 1
33 3 30 1
34 6 31 1
35 7 32 1
36 8 33 1
37 9 34 1
38 11 35 1
39 19 36 1
40 19 37 1
41 20 38 1
42 20 39 1
43 22 40 1
44 22 41 1
45 23 42 1
46 23 43 1
47 25 44 1
48 25 45 1
49 26 46 1
50 26 47 1
51 28 48 1
52 28 49 1
53 29 50 1
54 29 51 1
@<TRIPOS>SUBSTRUCTURE
1	UNK0	1	GROUP	1 ****	UNK
