REMARK  6 active torsions:
REMARK  status: ('A' for Active; 'I' for Inactive)
REMARK    1  A    between atoms: C_4  and  C_9 
REMARK    2  A    between atoms: C_5  and  O_8 
REMARK    3  A    between atoms: N_10  and  N_11 
REMARK    4  A    between atoms: N_11  and  C_12 
REMARK    5  A    between atoms: C_14  and  N_24 
REMARK    6  A    between atoms: C_16  and  N_18 
ROOT
ATOM      1  C   UNK d   1       1.206   0.510   1.364  0.00  0.00     0.774 A 
ATOM      2  N   UNK d   1       1.871   1.651   1.602  0.00  0.00     0.133 NA
ATOM      3  C   UNK d   1       2.205   2.549   0.638  0.00  0.00     0.756 A 
ATOM      4  N   UNK d   1       1.814   2.213  -0.620  0.00  0.00     0.131 NA
ATOM      5  C   UNK d   1       1.148   1.087  -0.919  0.00  0.00     0.756 A 
ATOM      6  N   UNK d   1       0.858   0.261   0.078  0.00  0.00     0.133 NA
ENDROOT
BRANCH   1   7
ATOM      7  N   UNK d   1       0.880  -0.397   2.407  0.00  0.00    -0.105 N 
ATOM      8  H   UNK d   1       1.148  -0.203   3.392  0.00  0.00     0.208 HD
BRANCH   7   9
ATOM      9  N   UNK d   1       0.188  -1.580   2.147  0.00  0.00    -0.171 NA
ATOM     10  C   UNK d   1      -0.889  -1.826   2.861  0.00  0.00     0.153 C 
BRANCH  10  11
ATOM     11  C   UNK d   1      -1.641  -3.048   2.623  0.00  0.00     0.017 A 
ATOM     12  C   UNK d   1      -1.204  -3.945   1.636  0.00  0.00     0.034 A 
ATOM     13  C   UNK d   1      -1.896  -5.095   1.399  0.00  0.00     0.011 A 
ATOM     14 Br   UNK d   1      -1.307  -6.317   0.058  0.00  0.00    -0.051 Br
ATOM     15  C   UNK d   1      -3.030  -5.403   2.117  0.00  0.00     0.022 A 
ATOM     16  C   UNK d   1      -3.476  -4.542   3.087  0.00  0.00     0.039 A 
ATOM     17  C   UNK d   1      -2.768  -3.355   3.336  0.00  0.00     0.077 A 
BRANCH  17  18
ATOM     18  O   UNK d   1      -3.244  -2.510   4.319  0.00  0.00    -0.360 OA
ATOM     19  H   UNK d   1      -2.820  -1.643   4.578  0.00  0.00     0.217 HD
ENDBRANCH  17  18
ENDBRANCH  10  11
ENDBRANCH   7   9
ENDBRANCH   1   7
BRANCH   3  20
ATOM     20  N   UNK d   1       2.903   3.738   0.922  0.00  0.00    -0.209 N 
ATOM     21  C   UNK d   1       3.235   4.656  -0.126  0.00  0.00     0.167 C 
ATOM     22  C   UNK d   1       2.707   6.019   0.289  0.00  0.00     0.188 C 
ATOM     23  O   UNK d   1       3.319   6.337   1.511  0.00  0.00    -0.388 OA
ATOM     24  C   UNK d   1       2.842   5.500   2.520  0.00  0.00     0.188 C 
ATOM     25  C   UNK d   1       3.298   4.059   2.260  0.00  0.00     0.167 C 
ENDBRANCH   3  20
BRANCH   5  26
ATOM     26  N   UNK d   1       0.772   0.801  -2.252  0.00  0.00    -0.209 N 
ATOM     27  C   UNK d   1       0.052  -0.397  -2.633  0.00  0.00     0.167 C 
ATOM     28  C   UNK d   1      -0.811  -0.112  -3.843  0.00  0.00     0.188 C 
ATOM     29  O   UNK d   1      -0.113   0.374  -4.916  0.00  0.00    -0.388 OA
ATOM     30  C   UNK d   1       1.160   0.829  -4.597  0.00  0.00     0.188 C 
ATOM     31  C   UNK d   1       1.091   1.713  -3.355  0.00  0.00     0.167 C 
ENDBRANCH   5  26
TORSDOF 6
