# created with PyMOL 2.3.2
@<TRIPOS>MOLECULE
1863
52 55 1                 
SMALL
USER_CHARGES
@<TRIPOS>ATOM
1	  Cl	0.863	4.657	-0.540	Cl	1	UNK0	0.000	
2	   C	1.518	3.026	-0.423	C.2	1	UNK0	0.000	
3	   C	0.891	2.009	0.240	C.2	1	UNK0	0.000	
4	   C	1.423	0.714	0.335	C.2	1	UNK0	0.000	
5	   C	2.620	0.484	-0.272	C.2	1	UNK0	0.000	
6	   C	3.260	1.513	-0.947	C.2	1	UNK0	0.000	
7	   C	2.729	2.784	-1.035	C.2	1	UNK0	0.000	
8	   C	0.641	-0.309	1.078	C.3	1	UNK0	0.000	
9	   N	0.334	-1.497	0.354	N.pl3	1	UNK0	0.000	
10	   C	1.113	-2.613	0.386	C.2	1	UNK0	0.000	
11	   C	0.540	-3.542	-0.442	C.2	1	UNK0	0.000	
12	   N	-0.553	-2.967	-0.942	N.2	1	UNK0	0.000	
13	   C	-0.702	-1.703	-0.463	C.2	1	UNK0	0.000	
14	   N	-1.810	-0.836	-0.783	N.pl3	1	UNK0	0.000	
15	   C	-3.067	-1.188	-0.164	C.3	1	UNK0	0.000	
16	   C	-4.179	-0.212	-0.452	C.3	1	UNK0	0.000	
17	   N	-3.673	1.097	-0.253	N.3	1	UNK0	0.000	
18	   C	-2.648	1.427	-1.186	C.3	1	UNK0	0.000	
19	   C	-1.765	0.301	-1.637	C.3	1	UNK0	0.000	
20	   C	-3.316	1.305	1.115	C.3	1	UNK0	0.000	
21	   C	-4.481	1.359	2.046	C.2	1	UNK0	0.000	
22	   O	-5.664	1.232	1.693	O.2	1	UNK0	0.000	
23	   N	-4.146	1.576	3.424	N.pl3	1	UNK0	0.000	
24	   N	1.130	-4.744	-0.561	N.pl3	1	UNK0	0.000	
25	   C	2.268	-5.051	0.118	C.2	1	UNK0	0.000	
26	   O	2.833	-6.185	0.012	O.2	1	UNK0	0.000	
27	   N	2.852	-4.161	0.938	N.pl3	1	UNK0	0.000	
28	   C	2.278	-2.957	1.068	C.2	1	UNK0	0.000	
29	   O	2.845	-2.152	1.840	O.2	1	UNK0	0.000	
30	   C	0.564	-5.755	-1.415	C.3	1	UNK0	0.000	
31	   H	-0.056	2.234	0.713	 H	1	UNK0	0.000	
32	   H	3.072	-0.496	-0.239	 H	1	UNK0	0.000	
33	   H	4.219	1.319	-1.432	 H	1	UNK0	0.000	
34	   H	3.271	3.567	-1.582	 H	1	UNK0	0.000	
35	   H	1.225	-0.527	1.995	 H	1	UNK0	0.000	
36	   H	-0.293	0.176	1.457	 H	1	UNK0	0.000	
37	   H	-3.405	-2.171	-0.628	 H	1	UNK0	0.000	
38	   H	-2.926	-1.424	0.902	 H	1	UNK0	0.000	
39	   H	-5.007	-0.433	0.236	 H	1	UNK0	0.000	
40	   H	-4.591	-0.361	-1.479	 H	1	UNK0	0.000	
41	   H	-2.041	2.250	-0.703	 H	1	UNK0	0.000	
42	   H	-3.158	1.899	-2.070	 H	1	UNK0	0.000	
43	   H	-0.742	0.724	-1.758	 H	1	UNK0	0.000	
44	   H	-2.056	0.037	-2.704	 H	1	UNK0	0.000	
45	   H	-2.662	0.487	1.526	 H	1	UNK0	0.000	
46	   H	-2.810	2.305	1.188	 H	1	UNK0	0.000	
47	   H	-3.962	2.533	3.801	 H	1	UNK0	0.000	
48	   H	-4.088	0.771	4.044	 H	1	UNK0	0.000	
49	   H	3.743	-4.405	1.467	 H	1	UNK0	0.000	
50	   H	-0.535	-5.580	-1.469	 H	1	UNK0	0.000	
51	   H	0.742	-6.766	-1.017	 H	1	UNK0	0.000	
52	   H	1.042	-5.705	-2.419	 H	1	UNK0	0.000	
@<TRIPOS>BOND
1 1 2 1
2 2 3 2
3 2 7 1
4 3 4 1
5 4 5 2
6 4 8 1
7 5 6 1
8 6 7 2
9 8 9 1
10 9 10 1
11 9 13 1
12 10 11 2
13 10 28 1
14 11 12 1
15 11 24 1
16 12 13 2
17 13 14 1
18 14 15 1
19 14 19 1
20 15 16 1
21 16 17 1
22 17 18 1
23 17 20 1
24 18 19 1
25 20 21 1
26 21 22 2
27 21 23 1
28 24 25 1
29 24 30 1
30 25 26 2
31 25 27 1
32 27 28 1
33 28 29 2
34 3 31 1
35 5 32 1
36 6 33 1
37 7 34 1
38 8 35 1
39 8 36 1
40 15 37 1
41 15 38 1
42 16 39 1
43 16 40 1
44 18 41 1
45 18 42 1
46 19 43 1
47 19 44 1
48 20 45 1
49 20 46 1
50 23 47 1
51 23 48 1
52 27 49 1
53 30 50 1
54 30 51 1
55 30 52 1
@<TRIPOS>SUBSTRUCTURE
1	UNK0	1	GROUP	1 ****	UNK
