REMARK  5 active torsions:
REMARK  status: ('A' for Active; 'I' for Inactive)
REMARK    1  A    between atoms: C_4  and  C_8 
REMARK    2  A    between atoms: C_8  and  N_9 
REMARK    3  A    between atoms: C_13  and  N_14 
REMARK    4  A    between atoms: N_17  and  C_20 
REMARK    5  A    between atoms: C_20  and  C_21 
REMARK       I    between atoms: C_21  and  N_23 
ROOT
ATOM      1  N   UNK d   1       0.334  -1.497   0.354  0.00  0.00    -0.168 N 
ATOM      2  C   UNK d   1       1.113  -2.613   0.386  0.00  0.00     0.167 A 
ATOM      3  C   UNK d   1       0.540  -3.542  -0.442  0.00  0.00     0.185 A 
ATOM      4  N   UNK d   1      -0.553  -2.967  -0.942  0.00  0.00    -0.044 NA
ATOM      5  C   UNK d   1      -0.702  -1.703  -0.463  0.00  0.00     0.707 A 
ATOM      6  N   UNK d   1       1.130  -4.744  -0.561  0.00  0.00    -0.286 N 
ATOM      7  C   UNK d   1       2.268  -5.051   0.118  0.00  0.00     0.330 A 
ATOM      8  O   UNK d   1       2.833  -6.185   0.012  0.00  0.00    -0.246 OA
ATOM      9  N   UNK d   1       2.852  -4.161   0.938  0.00  0.00    -0.273 N 
ATOM     10  C   UNK d   1       2.278  -2.957   1.068  0.00  0.00     0.280 A 
ATOM     11  O   UNK d   1       2.845  -2.152   1.840  0.00  0.00    -0.265 OA
ATOM     12  C   UNK d   1       0.564  -5.755  -1.415  0.00  0.00     0.163 C 
ATOM     13  H   UNK d   1       3.743  -4.405   1.467  0.00  0.00     0.173 HD
ENDROOT
BRANCH   5  14
ATOM     14  N   UNK d   1      -1.810  -0.836  -0.783  0.00  0.00    -0.212 N 
ATOM     15  C   UNK d   1      -3.067  -1.188  -0.164  0.00  0.00     0.171 C 
ATOM     16  C   UNK d   1      -4.179  -0.212  -0.452  0.00  0.00     0.293 C 
ATOM     17  N   UNK d   1      -3.673   1.097  -0.253  0.00  0.00     0.100 N 
ATOM     18  C   UNK d   1      -2.648   1.427  -1.186  0.00  0.00     0.293 C 
ATOM     19  C   UNK d   1      -1.765   0.301  -1.637  0.00  0.00     0.171 C 
BRANCH  17  20
ATOM     20  C   UNK d   1      -3.316   1.305   1.115  0.00  0.00     0.374 C 
BRANCH  20  21
ATOM     21  C   UNK d   1      -4.481   1.359   2.046  0.00  0.00     0.243 C 
ATOM     22  O   UNK d   1      -5.664   1.232   1.693  0.00  0.00    -0.272 OA
ATOM     23  N   UNK d   1      -4.146   1.576   3.424  0.00  0.00    -0.369 N 
ATOM     24  H   UNK d   1      -3.962   2.533   3.801  0.00  0.00     0.159 HD
ATOM     25  H   UNK d   1      -4.088   0.771   4.044  0.00  0.00     0.159 HD
ENDBRANCH  20  21
ENDBRANCH  17  20
ENDBRANCH   5  14
BRANCH   1  26
ATOM     26  C   UNK d   1       0.641  -0.309   1.078  0.00  0.00     0.186 C 
BRANCH  26  27
ATOM     27  C   UNK d   1       1.423   0.714   0.335  0.00  0.00    -0.038 A 
ATOM     28  C   UNK d   1       0.891   2.009   0.240  0.00  0.00     0.032 A 
ATOM     29  C   UNK d   1       1.518   3.026  -0.423  0.00  0.00     0.034 A 
ATOM     30 Cl   UNK d   1       0.863   4.657  -0.540  0.00  0.00    -0.084 Cl
ATOM     31  C   UNK d   1       2.729   2.784  -1.035  0.00  0.00     0.024 A 
ATOM     32  C   UNK d   1       3.260   1.513  -0.947  0.00  0.00     0.002 A 
ATOM     33  C   UNK d   1       2.620   0.484  -0.272  0.00  0.00     0.009 A 
ENDBRANCH  26  27
ENDBRANCH   1  26
TORSDOF 5
