REMARK  3 active torsions:
REMARK  status: ('A' for Active; 'I' for Inactive)
REMARK    1  A    between atoms: C_4  and  C_8 
REMARK    2  A    between atoms: C_8  and  N_9 
REMARK       I    between atoms: N_16  and  C_19 
REMARK    3  A    between atoms: C_19  and  C_21 
ROOT
ATOM      1  N   UNK d   1      -1.749  -0.115  -0.512  0.00  0.00    -0.264 N 
ATOM      2  C   UNK d   1      -2.300   0.275  -1.779  0.00  0.00     0.326 C 
ATOM      3  O   UNK d   1      -3.537   0.214  -2.083  0.00  0.00    -0.247 OA
ATOM      4  N   UNK d   1      -1.247   0.735  -2.622  0.00  0.00    -0.324 N 
ATOM      5  C   UNK d   1      -0.035   0.165  -2.077  0.00  0.00     0.119 C 
ATOM      6  C   UNK d   1       0.026  -1.276  -2.548  0.00  0.00     0.061 C 
ATOM      7  C   UNK d   1       1.028  -1.976  -1.637  0.00  0.00     0.129 C 
ATOM      8  N   UNK d   1       2.240  -1.186  -1.532  0.00  0.00    -0.346 N 
ATOM      9  C   UNK d   1       2.397  -0.009  -2.345  0.00  0.00     0.129 C 
ATOM     10  C   UNK d   1       1.200   0.881  -2.421  0.00  0.00     0.061 C 
ATOM     11  C   UNK d   1       3.264  -1.582  -0.633  0.00  0.00     0.273 C 
ATOM     12  O   UNK d   1       4.323  -0.882  -0.542  0.00  0.00    -0.266 OA
ATOM     13  C   UNK d   1      -0.349   0.125  -0.627  0.00  0.00     0.256 C 
ATOM     14  O   UNK d   1       0.412   0.265   0.368  0.00  0.00    -0.270 OA
ATOM     15  H   UNK d   1      -1.328   1.349  -3.454  0.00  0.00     0.165 HD
ENDROOT
BRANCH   1  16
ATOM     16  C   UNK d   1      -2.444  -0.638   0.641  0.00  0.00     0.175 C 
BRANCH  16  17
ATOM     17  C   UNK d   1      -2.898   0.422   1.566  0.00  0.00    -0.038 A 
ATOM     18  C   UNK d   1      -4.136   1.008   1.434  0.00  0.00     0.032 A 
ATOM     19  C   UNK d   1      -4.594   2.000   2.276  0.00  0.00     0.034 A 
ATOM     20 Cl   UNK d   1      -6.172   2.742   2.102  0.00  0.00    -0.084 Cl
ATOM     21  C   UNK d   1      -3.747   2.401   3.290  0.00  0.00     0.024 A 
ATOM     22  C   UNK d   1      -2.503   1.822   3.434  0.00  0.00     0.002 A 
ATOM     23  C   UNK d   1      -2.060   0.828   2.579  0.00  0.00     0.009 A 
ENDBRANCH  16  17
ENDBRANCH   1  16
BRANCH  11  24
ATOM     24  C   UNK d   1       3.180  -2.763   0.209  0.00  0.00     0.141 A 
ATOM     25  N   UNK d   1       2.113  -3.586   0.203  0.00  0.00    -0.253 NA
ATOM     26  C   UNK d   1       2.102  -4.662   1.009  0.00  0.00     0.136 A 
ATOM     27  C   UNK d   1       3.149  -4.965   1.853  0.00  0.00     0.135 A 
ATOM     28  N   UNK d   1       4.213  -4.148   1.862  0.00  0.00    -0.269 NA
ATOM     29  C   UNK d   1       4.229  -3.058   1.048  0.00  0.00     0.153 A 
ENDBRANCH  11  24
TORSDOF 3
