REMARK  4 active torsions:
REMARK  status: ('A' for Active; 'I' for Inactive)
REMARK    1  A    between atoms: C_5  and  C_8 
REMARK    2  A    between atoms: C_8  and  O_26 
REMARK    3  A    between atoms: N_9  and  C_18 
REMARK    4  A    between atoms: C_21  and  O_24 
ROOT
ATOM      1  C   UNK d   1       0.673  -0.584  -1.731  0.00  0.00     0.287 C 
ATOM      2  N   UNK d   1      -0.529  -1.013  -1.130  0.00  0.00     0.042 N 
ATOM      3  C   UNK d   1      -0.264  -1.865  -0.049  0.00  0.00     0.210 C 
ATOM      4  C   UNK d   1      -0.869  -2.637   0.820  0.00  0.00     0.030 C 
ATOM      5  C   UNK d   1      -0.122  -3.383   1.839  0.00  0.00     0.032 C 
ATOM      6  C   UNK d   1       1.258  -3.029   2.147  0.00  0.00     0.024 C 
ATOM      7  C   UNK d   1       1.866  -1.967   1.265  0.00  0.00     0.125 C 
ATOM      8  N   UNK d   1       1.190  -1.880   0.020  0.00  0.00    -0.351 N 
ATOM      9  C   UNK d   1       1.566  -1.788  -1.385  0.00  0.00     0.151 C 
ATOM     10  C   UNK d   1       3.014  -1.574  -1.532  0.00  0.00     0.038 C 
ATOM     11  H   UNK d   1      -0.888  -1.766  -1.875  0.00  0.00     0.299 HD
ENDROOT
BRANCH   1  12
ATOM     12  C   UNK d   1       1.303   0.643  -1.249  0.00  0.00     0.008 A 
ATOM     13  C   UNK d   1       2.313   1.220  -1.973  0.00  0.00     0.014 A 
ATOM     14  C   UNK d   1       2.959   2.379  -1.547  0.00  0.00     0.024 A 
ATOM     15  C   UNK d   1       2.557   2.955  -0.350  0.00  0.00     0.034 A 
ATOM     16 Cl   UNK d   1       3.308   4.412   0.273  0.00  0.00    -0.084 Cl
ATOM     17  C   UNK d   1       1.537   2.362   0.368  0.00  0.00     0.024 A 
ATOM     18  C   UNK d   1       0.898   1.214  -0.055  0.00  0.00     0.014 A 
ENDBRANCH   1  12
BRANCH   1  19
ATOM     19  O   UNK d   1       0.547  -0.605  -3.101  0.00  0.00    -0.359 OA
ATOM     20  H   UNK d   1       1.087   0.031  -3.605  0.00  0.00     0.213 HD
ENDBRANCH   1  19
BRANCH   2  21
ATOM     21  C   UNK d   1      -1.612  -0.140  -1.139  0.00  0.00     0.146 A 
ATOM     22  C   UNK d   1      -1.480   1.023  -1.880  0.00  0.00     0.041 A 
ATOM     23  C   UNK d   1      -2.470   1.972  -1.962  0.00  0.00     0.039 A 
ATOM     24  C   UNK d   1      -3.691   1.824  -1.296  0.00  0.00     0.068 A 
ATOM     25  C   UNK d   1      -3.794   0.664  -0.569  0.00  0.00     0.039 A 
ATOM     26  C   UNK d   1      -2.800  -0.280  -0.492  0.00  0.00     0.041 A 
BRANCH  24  27
ATOM     27  O   UNK d   1      -4.681   2.783  -1.389  0.00  0.00    -0.356 OA
ATOM     28  C   UNK d   1      -5.893   2.598  -0.702  0.00  0.00     0.210 C 
ENDBRANCH  24  27
ENDBRANCH   2  21
TORSDOF 4
