REMARK  4 active torsions:
REMARK  status: ('A' for Active; 'I' for Inactive)
REMARK    1  A    between atoms: C_5  and  N_8 
REMARK    2  A    between atoms: N_15  and  C_16 
REMARK    3  A    between atoms: C_16  and  C_17 
REMARK    4  A    between atoms: C_19  and  O_23 
ROOT
ATOM      1  N   UNK d   1      -1.965  -0.073  -3.078  0.00  0.00    -0.241 N 
ATOM      2  C   UNK d   1      -1.900  -0.288  -1.743  0.00  0.00     0.286 A 
ATOM      3  O   UNK d   1      -1.975  -1.426  -1.210  0.00  0.00    -0.265 OA
ATOM      4  C   UNK d   1      -1.742   0.904  -1.056  0.00  0.00     0.154 A 
ATOM      5  C   UNK d   1      -1.711   1.854  -1.977  0.00  0.00     0.152 A 
ATOM      6  N   UNK d   1      -1.557   3.014  -1.304  0.00  0.00    -0.279 N 
ATOM      7  N   UNK d   1      -1.499   2.748   0.008  0.00  0.00    -0.239 N 
ATOM      8  N   UNK d   1      -1.613   1.440   0.171  0.00  0.00    -0.266 N 
ATOM      9  C   UNK d   1      -1.847   1.259  -3.214  0.00  0.00     0.286 A 
ATOM     10  O   UNK d   1      -1.855   1.895  -4.291  0.00  0.00    -0.265 OA
ATOM     11  H   UNK d   1      -1.496   3.953  -1.739  0.00  0.00     0.189 HD
ATOM     12  H   UNK d   1      -1.385   3.419   0.797  0.00  0.00     0.208 HD
ENDROOT
BRANCH   8  13
ATOM     13  C   UNK d   1      -1.600   0.717   1.425  0.00  0.00     0.189 C 
BRANCH  13  14
ATOM     14  C   UNK d   1      -0.237   0.307   1.845  0.00  0.00    -0.036 A 
ATOM     15  C   UNK d   1       0.345  -0.896   1.513  0.00  0.00     0.045 A 
ATOM     16  C   UNK d   1       1.614  -1.273   1.905  0.00  0.00     0.068 A 
ATOM     17  C   UNK d   1       2.353  -0.407   2.674  0.00  0.00     0.037 A 
ATOM     18  C   UNK d   1       1.811   0.806   3.029  0.00  0.00     0.003 A 
ATOM     19  C   UNK d   1       0.535   1.159   2.622  0.00  0.00     0.009 A 
BRANCH  16  20
ATOM     20  O   UNK d   1       2.111  -2.522   1.512  0.00  0.00    -0.356 OA
ATOM     21  C   UNK d   1       3.403  -2.954   1.888  0.00  0.00     0.210 C 
ENDBRANCH  16  20
ENDBRANCH  13  14
ENDBRANCH   8  13
BRANCH   1  22
ATOM     22  C   UNK d   1      -2.123  -1.047  -4.087  0.00  0.00     0.046 A 
ATOM     23  C   UNK d   1      -3.121  -1.997  -4.027  0.00  0.00     0.032 A 
ATOM     24  C   UNK d   1      -3.296  -2.962  -5.002  0.00  0.00     0.026 A 
ATOM     25  C   UNK d   1      -2.432  -2.968  -6.077  0.00  0.00     0.034 A 
ATOM     26 Cl   UNK d   1      -2.592  -4.170  -7.363  0.00  0.00    -0.084 Cl
ATOM     27  C   UNK d   1      -1.417  -2.039  -6.183  0.00  0.00     0.026 A 
ATOM     28  C   UNK d   1      -1.278  -1.086  -5.178  0.00  0.00     0.032 A 
ENDBRANCH   1  22
TORSDOF 4
