REMARK  3 active torsions:
REMARK  status: ('A' for Active; 'I' for Inactive)
REMARK    1  A    between atoms: C_5  and  N_8 
REMARK    2  A    between atoms: N_15  and  C_16 
REMARK    3  A    between atoms: C_16  and  C_17 
ROOT
ATOM      1  N   UNK d   1      -1.673   0.343  -1.123  0.00  0.00    -0.241 N 
ATOM      2  C   UNK d   1      -0.452  -0.203  -0.925  0.00  0.00     0.286 A 
ATOM      3  O   UNK d   1      -0.201  -1.057  -0.049  0.00  0.00    -0.265 OA
ATOM      4  C   UNK d   1       0.472   0.311  -1.819  0.00  0.00     0.154 A 
ATOM      5  C   UNK d   1      -0.202   1.188  -2.577  0.00  0.00     0.152 A 
ATOM      6  N   UNK d   1       0.703   1.679  -3.442  0.00  0.00    -0.279 N 
ATOM      7  N   UNK d   1       1.879   1.122  -3.217  0.00  0.00    -0.239 N 
ATOM      8  N   UNK d   1       1.754   0.275  -2.218  0.00  0.00    -0.266 N 
ATOM      9  C   UNK d   1      -1.510   1.197  -2.141  0.00  0.00     0.286 A 
ATOM     10  O   UNK d   1      -2.425   1.912  -2.634  0.00  0.00    -0.265 OA
ATOM     11  H   UNK d   1       0.538   2.388  -4.186  0.00  0.00     0.189 HD
ATOM     12  H   UNK d   1       2.779   1.318  -3.747  0.00  0.00     0.208 HD
ENDROOT
BRANCH   1  13
ATOM     13  C   UNK d   1      -2.874   0.069  -0.404  0.00  0.00     0.046 A 
ATOM     14  C   UNK d   1      -3.143  -1.189   0.092  0.00  0.00     0.032 A 
ATOM     15  C   UNK d   1      -4.304  -1.463   0.790  0.00  0.00     0.026 A 
ATOM     16  C   UNK d   1      -5.247  -0.484   1.021  0.00  0.00     0.034 A 
ATOM     17 Cl   UNK d   1      -6.726  -0.836   1.911  0.00  0.00    -0.084 Cl
ATOM     18  C   UNK d   1      -4.989   0.779   0.529  0.00  0.00     0.026 A 
ATOM     19  C   UNK d   1      -3.826   1.044  -0.168  0.00  0.00     0.032 A 
ENDBRANCH   1  13
BRANCH   8  20
ATOM     20  C   UNK d   1       2.790  -0.547  -1.638  0.00  0.00     0.189 C 
BRANCH  20  21
ATOM     21  C   UNK d   1       3.530   0.113  -0.541  0.00  0.00    -0.038 A 
ATOM     22  C   UNK d   1       4.627   0.887  -0.830  0.00  0.00     0.009 A 
ATOM     23  C   UNK d   1       5.303   1.489   0.206  0.00  0.00     0.001 A 
ATOM     24  C   UNK d   1       4.901   1.330   1.520  0.00  0.00     0.000 A 
ATOM     25  C   UNK d   1       3.802   0.554   1.811  0.00  0.00     0.001 A 
ATOM     26  C   UNK d   1       3.141  -0.037   0.770  0.00  0.00     0.009 A 
ENDBRANCH  20  21
ENDBRANCH   8  20
TORSDOF 3
