# created with PyMOL 2.3.2
@<TRIPOS>MOLECULE
1895
56 59 1                 
SMALL
USER_CHARGES
@<TRIPOS>ATOM
1	   S	3.000	-0.455	-3.245	S.O2	1	UNK0	0.000	
2	   O	3.192	1.010	-3.246	O.2	1	UNK0	0.000	
3	   O	4.247	-1.106	-3.794	O.2	1	UNK0	0.000	
4	   N	2.686	-1.127	-1.707	N.3	1	UNK0	0.000	
5	   C	1.519	-0.645	-1.077	C.3	1	UNK0	0.000	
6	   C	1.271	-1.525	0.166	C.3	1	UNK0	0.000	
7	   N	2.349	-1.162	1.050	N.pl3	1	UNK0	0.000	
8	   C	3.668	-1.578	0.525	C.3	1	UNK0	0.000	
9	   C	3.819	-1.411	-0.931	C.3	1	UNK0	0.000	
10	   C	2.305	-0.501	2.276	C.2	1	UNK0	0.000	
11	   O	3.499	-0.327	2.809	O.2	1	UNK0	0.000	
12	   C	1.254	0.041	3.098	C.3	1	UNK0	0.000	
13	   N	-0.099	-0.093	2.651	N.pl3	1	UNK0	0.000	
14	   C	-0.978	-1.173	2.970	C.2	1	UNK0	0.000	
15	   O	-0.638	-2.171	3.692	O.2	1	UNK0	0.000	
16	   N	-2.225	-0.922	2.358	N.pl3	1	UNK0	0.000	
17	   C	-2.274	0.484	1.988	C.3	1	UNK0	0.000	
18	   C	-2.975	0.754	0.703	C.3	1	UNK0	0.000	
19	   C	-3.664	2.117	0.830	C.3	1	UNK0	0.000	
20	   C	-4.851	1.901	1.749	C.3	1	UNK0	0.000	
21	   C	-4.398	1.145	2.974	C.3	1	UNK0	0.000	
22	   C	-2.889	1.223	3.155	C.3	1	UNK0	0.000	
23	   C	-2.056	0.859	-0.492	C.3	1	UNK0	0.000	
24	   C	-0.828	0.824	1.832	C.2	1	UNK0	0.000	
25	   O	-0.345	1.731	1.127	O.2	1	UNK0	0.000	
26	   C	1.638	-0.885	-4.294	C.2	1	UNK0	0.000	
27	   S	1.053	-2.418	-4.750	S.3	1	UNK0	0.000	
28	   C	-0.241	-1.933	-5.744	C.2	1	UNK0	0.000	
29	   C	-0.180	-0.565	-5.692	C.2	1	UNK0	0.000	
30	   C	0.796	-0.028	-4.939	C.2	1	UNK0	0.000	
31	  Cl	-1.388	-2.949	-6.631	Cl	1	UNK0	0.000	
32	   H	1.610	0.416	-0.762	 H	1	UNK0	0.000	
33	   H	0.666	-0.700	-1.770	 H	1	UNK0	0.000	
34	   H	0.267	-1.436	0.524	 H	1	UNK0	0.000	
35	   H	1.490	-2.570	-0.235	 H	1	UNK0	0.000	
36	   H	3.749	-2.658	0.791	 H	1	UNK0	0.000	
37	   H	4.478	-1.071	1.086	 H	1	UNK0	0.000	
38	   H	4.581	-0.594	-1.113	 H	1	UNK0	0.000	
39	   H	4.322	-2.324	-1.369	 H	1	UNK0	0.000	
40	   H	1.322	-0.346	4.178	 H	1	UNK0	0.000	
41	   H	1.422	1.159	3.290	 H	1	UNK0	0.000	
42	   H	-2.985	-1.599	2.191	 H	1	UNK0	0.000	
43	   H	-3.757	-0.015	0.505	 H	1	UNK0	0.000	
44	   H	-2.953	2.794	1.316	 H	1	UNK0	0.000	
45	   H	-3.983	2.504	-0.156	 H	1	UNK0	0.000	
46	   H	-5.600	1.307	1.156	 H	1	UNK0	0.000	
47	   H	-5.331	2.842	2.050	 H	1	UNK0	0.000	
48	   H	-4.687	0.080	2.850	 H	1	UNK0	0.000	
49	   H	-4.933	1.521	3.880	 H	1	UNK0	0.000	
50	   H	-2.679	0.647	4.102	 H	1	UNK0	0.000	
51	   H	-2.556	2.262	3.245	 H	1	UNK0	0.000	
52	   H	-1.174	0.214	-0.439	 H	1	UNK0	0.000	
53	   H	-2.648	0.558	-1.406	 H	1	UNK0	0.000	
54	   H	-1.770	1.929	-0.709	 H	1	UNK0	0.000	
55	   H	-0.933	0.025	-6.269	 H	1	UNK0	0.000	
56	   H	0.926	1.069	-4.835	 H	1	UNK0	0.000	
@<TRIPOS>BOND
1 1 2 2
2 1 3 2
3 1 4 1
4 1 26 1
5 4 5 1
6 4 9 1
7 5 6 1
8 6 7 1
9 7 8 1
10 7 10 1
11 8 9 1
12 10 11 2
13 10 12 1
14 12 13 1
15 13 14 1
16 13 24 1
17 14 15 2
18 14 16 1
19 16 17 1
20 17 18 1
21 17 22 1
22 17 24 1
23 18 19 1
24 18 23 1
25 19 20 1
26 20 21 1
27 21 22 1
28 24 25 2
29 26 27 1
30 26 30 2
31 27 28 1
32 28 29 2
33 28 31 1
34 29 30 1
35 5 32 1
36 5 33 1
37 6 34 1
38 6 35 1
39 8 36 1
40 8 37 1
41 9 38 1
42 9 39 1
43 12 40 1
44 12 41 1
45 16 42 1
46 18 43 1
47 19 44 1
48 19 45 1
49 20 46 1
50 20 47 1
51 21 48 1
52 21 49 1
53 22 50 1
54 22 51 1
55 23 52 1
56 23 53 1
57 23 54 1
58 29 55 1
59 30 56 1
@<TRIPOS>SUBSTRUCTURE
1	UNK0	1	GROUP	1 ****	UNK
