REMARK  3 active torsions:
REMARK  status: ('A' for Active; 'I' for Inactive)
REMARK    1  A    between atoms: S_1  and  N_4 
REMARK    2  A    between atoms: S_1  and  C_26 
REMARK       I    between atoms: N_7  and  C_10 
REMARK    3  A    between atoms: C_12  and  N_13 
ROOT
ATOM      1  N   UNK d   1       2.686  -1.127  -1.707  0.00  0.00    -0.303 N 
ATOM      2  C   UNK d   1       1.519  -0.645  -1.077  0.00  0.00     0.155 C 
ATOM      3  C   UNK d   1       1.271  -1.525   0.166  0.00  0.00     0.145 C 
ATOM      4  N   UNK d   1       2.349  -1.162   1.050  0.00  0.00    -0.358 N 
ATOM      5  C   UNK d   1       3.668  -1.578   0.525  0.00  0.00     0.145 C 
ATOM      6  C   UNK d   1       3.819  -1.411  -0.931  0.00  0.00     0.155 C 
ATOM      7  C   UNK d   1       2.305  -0.501   2.276  0.00  0.00     0.172 C 
ATOM      8  O   UNK d   1       3.499  -0.327   2.809  0.00  0.00    -0.175 OA
ATOM      9  C   UNK d   1       1.254   0.041   3.098  0.00  0.00     0.224 C 
ENDROOT
BRANCH   9  10
ATOM     10  N   UNK d   1      -0.099  -0.093   2.651  0.00  0.00    -0.260 N 
ATOM     11  C   UNK d   1      -0.978  -1.173   2.970  0.00  0.00     0.326 C 
ATOM     12  O   UNK d   1      -0.638  -2.171   3.692  0.00  0.00    -0.247 OA
ATOM     13  N   UNK d   1      -2.225  -0.922   2.358  0.00  0.00    -0.324 N 
ATOM     14  C   UNK d   1      -2.274   0.484   1.988  0.00  0.00     0.119 C 
ATOM     15  H   UNK d   1      -2.985  -1.599   2.191  0.00  0.00     0.165 HD
ATOM     16  C   UNK d   1      -2.975   0.754   0.703  0.00  0.00     0.019 C 
ATOM     17  C   UNK d   1      -2.889   1.223   3.155  0.00  0.00     0.041 C 
ATOM     18  C   UNK d   1      -0.828   0.824   1.832  0.00  0.00     0.257 C 
ATOM     19  C   UNK d   1      -3.664   2.117   0.830  0.00  0.00     0.007 C 
ATOM     20  C   UNK d   1      -2.056   0.859  -0.492  0.00  0.00     0.013 C 
ATOM     21  C   UNK d   1      -4.851   1.901   1.749  0.00  0.00     0.001 C 
ATOM     22  C   UNK d   1      -4.398   1.145   2.974  0.00  0.00     0.003 C 
ATOM     23  O   UNK d   1      -0.345   1.731   1.127  0.00  0.00    -0.270 OA
ENDBRANCH   9  10
BRANCH   1  24
ATOM     24  S   UNK d   1       3.000  -0.455  -3.245  0.00  0.00     0.267 S 
ATOM     25  O   UNK d   1       3.192   1.010  -3.246  0.00  0.00    -0.200 OA
ATOM     26  O   UNK d   1       4.247  -1.106  -3.794  0.00  0.00    -0.200 OA
BRANCH  24  27
ATOM     27  C   UNK d   1       1.638  -0.885  -4.294  0.00  0.00     0.121 A 
ATOM     28  S   UNK d   1       1.053  -2.418  -4.750  0.00  0.00    -0.064 SA
ATOM     29  C   UNK d   1      -0.241  -1.933  -5.744  0.00  0.00     0.075 A 
ATOM     30  C   UNK d   1      -0.180  -0.565  -5.692  0.00  0.00     0.033 A 
ATOM     31 Cl   UNK d   1      -1.388  -2.949  -6.631  0.00  0.00    -0.076 Cl
ATOM     32  C   UNK d   1       0.796  -0.028  -4.939  0.00  0.00     0.035 A 
ENDBRANCH  24  27
ENDBRANCH   1  24
TORSDOF 3
