REMARK  6 active torsions:
REMARK  status: ('A' for Active; 'I' for Inactive)
REMARK    1  A    between atoms: C_4  and  O_8 
REMARK    2  A    between atoms: O_8  and  C_9 
REMARK    3  A    between atoms: C_9  and  C_10 
REMARK    4  A    between atoms: C_10  and  C_25 
REMARK       I    between atoms: N_14  and  C_16 
REMARK    5  A    between atoms: C_16  and  C_18 
REMARK    6  A    between atoms: C_25  and  C_26 
REMARK       I    between atoms: C_26  and  N_28 
ROOT
ATOM      1  C   UNK d   1      -1.642  -1.546   0.255  0.00  0.00     0.107 C 
ATOM      2  O   UNK d   1      -1.485  -2.897   0.597  0.00  0.00    -0.374 OA
ATOM      3  C   UNK d   1      -2.194  -3.768  -0.184  0.00  0.00     0.189 C 
ATOM      4  C   UNK d   1      -1.670  -3.897  -1.600  0.00  0.00     0.151 C 
ATOM      5  N   UNK d   1      -1.274  -2.511  -1.960  0.00  0.00    -0.353 N 
ATOM      6  C   UNK d   1      -1.960  -1.501  -1.251  0.00  0.00     0.165 C 
ATOM      7  C   UNK d   1      -0.303  -2.342  -2.925  0.00  0.00     0.207 C 
ATOM      8  O   UNK d   1       0.240  -3.376  -3.496  0.00  0.00    -0.170 OA
ENDROOT
BRANCH   1   9
ATOM      9  C   UNK d   1      -2.894  -1.091   0.949  0.00  0.00     0.215 C 
BRANCH   9  10
ATOM     10  O   UNK d   1      -3.023  -1.185   2.253  0.00  0.00    -0.348 OA
BRANCH  10  11
ATOM     11  C   UNK d   1      -2.675  -0.870   3.466  0.00  0.00     0.070 A 
ATOM     12  C   UNK d   1      -1.690   0.023   3.802  0.00  0.00     0.060 A 
ATOM     13  C   UNK d   1      -1.400   0.282   5.114  0.00  0.00     0.036 A 
ATOM     14 Cl   UNK d   1      -0.127   1.437   5.509  0.00  0.00    -0.084 Cl
ATOM     15  C   UNK d   1      -2.081  -0.338   6.145  0.00  0.00     0.024 A 
ATOM     16  C   UNK d   1      -3.067  -1.230   5.813  0.00  0.00     0.004 A 
ATOM     17  C   UNK d   1      -3.368  -1.499   4.519  0.00  0.00     0.037 A 
ENDBRANCH  10  11
ENDBRANCH   9  10
ENDBRANCH   1   9
BRANCH   1  18
ATOM     18  C   UNK d   1      -0.408  -0.840   0.587  0.00  0.00     0.144 C 
BRANCH  18  19
ATOM     19  C   UNK d   1      -0.330   0.598   0.323  0.00  0.00     0.222 C 
ATOM     20  O   UNK d   1      -1.293   1.212  -0.174  0.00  0.00    -0.273 OA
ATOM     21  N   UNK d   1       0.845   1.345   0.623  0.00  0.00    -0.348 N 
ATOM     22  C   UNK d   1       2.023   0.711   1.205  0.00  0.00     0.152 C 
ATOM     23  C   UNK d   1       0.929   2.767   0.363  0.00  0.00     0.152 C 
ATOM     24  C   UNK d   1       2.468   1.579   2.363  0.00  0.00     0.187 C 
ATOM     25  O   UNK d   1       2.727   2.868   1.887  0.00  0.00    -0.388 OA
ATOM     26  C   UNK d   1       1.515   3.467   1.546  0.00  0.00     0.187 C 
ENDBRANCH  18  19
ENDBRANCH   1  18
BRANCH   7  27
ATOM     27  C   UNK d   1       0.190  -1.079  -3.383  0.00  0.00     0.127 A 
ATOM     28  N   UNK d   1      -0.238   0.096  -2.921  0.00  0.00    -0.253 NA
ATOM     29  C   UNK d   1       0.222   1.289  -3.347  0.00  0.00     0.144 A 
ATOM     30  C   UNK d   1       1.202   1.329  -4.326  0.00  0.00     0.048 A 
ATOM     31  N   UNK d   1       1.652   0.182  -4.808  0.00  0.00    -0.262 NA
ATOM     32  C   UNK d   1       1.671   2.669  -4.757  0.00  0.00     0.072 C 
ATOM     33  C   UNK d   1       1.179  -0.996  -4.369  0.00  0.00     0.153 A 
ENDBRANCH   7  27
TORSDOF 6
