# created with PyMOL 2.3.2
@<TRIPOS>MOLECULE
1906
60 63 1                 
SMALL
USER_CHARGES
@<TRIPOS>ATOM
1	  Cl	-0.127	1.437	5.509	Cl	1	UNK0	0.000	
2	   C	-1.400	0.282	5.114	C.2	1	UNK0	0.000	
3	   C	-1.690	0.023	3.802	C.2	1	UNK0	0.000	
4	   C	-2.675	-0.870	3.466	C.2	1	UNK0	0.000	
5	   C	-3.368	-1.499	4.519	C.2	1	UNK0	0.000	
6	   C	-3.067	-1.230	5.813	C.2	1	UNK0	0.000	
7	   C	-2.081	-0.338	6.145	C.2	1	UNK0	0.000	
8	   O	-3.023	-1.185	2.253	O.3	1	UNK0	0.000	
9	   C	-2.894	-1.091	0.949	C.3	1	UNK0	0.000	
10	   C	-1.642	-1.546	0.255	C.3	1	UNK0	0.000	
11	   O	-1.485	-2.897	0.597	O.3	1	UNK0	0.000	
12	   C	-2.194	-3.768	-0.184	C.3	1	UNK0	0.000	
13	   C	-1.670	-3.897	-1.600	C.3	1	UNK0	0.000	
14	   N	-1.274	-2.511	-1.960	N.pl3	1	UNK0	0.000	
15	   C	-1.960	-1.501	-1.251	C.3	1	UNK0	0.000	
16	   C	-0.303	-2.342	-2.925	C.2	1	UNK0	0.000	
17	   O	0.240	-3.376	-3.496	O.2	1	UNK0	0.000	
18	   C	0.190	-1.079	-3.383	C.2	1	UNK0	0.000	
19	   N	-0.238	0.096	-2.921	N.2	1	UNK0	0.000	
20	   C	0.222	1.289	-3.347	C.2	1	UNK0	0.000	
21	   C	1.202	1.329	-4.326	C.2	1	UNK0	0.000	
22	   N	1.652	0.182	-4.808	N.2	1	UNK0	0.000	
23	   C	1.179	-0.996	-4.369	C.2	1	UNK0	0.000	
24	   C	1.671	2.669	-4.757	C.3	1	UNK0	0.000	
25	   C	-0.408	-0.840	0.587	C.3	1	UNK0	0.000	
26	   C	-0.330	0.598	0.323	C.2	1	UNK0	0.000	
27	   O	-1.293	1.212	-0.174	O.2	1	UNK0	0.000	
28	   N	0.845	1.345	0.623	N.pl3	1	UNK0	0.000	
29	   C	2.023	0.711	1.205	C.3	1	UNK0	0.000	
30	   C	2.468	1.579	2.363	C.3	1	UNK0	0.000	
31	   O	2.727	2.868	1.887	O.3	1	UNK0	0.000	
32	   C	1.515	3.467	1.546	C.3	1	UNK0	0.000	
33	   C	0.929	2.767	0.363	C.3	1	UNK0	0.000	
34	   H	-1.156	0.531	3.013	 H	1	UNK0	0.000	
35	   H	-4.162	-2.219	4.308	 H	1	UNK0	0.000	
36	   H	-3.590	-1.706	6.641	 H	1	UNK0	0.000	
37	   H	-1.806	-0.091	7.147	 H	1	UNK0	0.000	
38	   H	-3.796	-1.567	0.392	 H	1	UNK0	0.000	
39	   H	-3.040	0.013	0.628	 H	1	UNK0	0.000	
40	   H	-2.123	-4.769	0.272	 H	1	UNK0	0.000	
41	   H	-3.263	-3.489	-0.174	 H	1	UNK0	0.000	
42	   H	-2.487	-4.253	-2.230	 H	1	UNK0	0.000	
43	   H	-0.751	-4.483	-1.623	 H	1	UNK0	0.000	
44	   H	-3.066	-1.799	-1.294	 H	1	UNK0	0.000	
45	   H	-1.943	-0.490	-1.612	 H	1	UNK0	0.000	
46	   H	-0.189	2.190	-2.910	 H	1	UNK0	0.000	
47	   H	1.565	-1.915	-4.781	 H	1	UNK0	0.000	
48	   H	2.650	2.608	-5.287	 H	1	UNK0	0.000	
49	   H	0.882	3.085	-5.415	 H	1	UNK0	0.000	
50	   H	1.796	3.373	-3.912	 H	1	UNK0	0.000	
51	   H	0.479	-1.349	0.041	 H	1	UNK0	0.000	
52	   H	-0.116	-1.052	1.659	 H	1	UNK0	0.000	
53	   H	1.802	-0.316	1.552	 H	1	UNK0	0.000	
54	   H	2.865	0.710	0.466	 H	1	UNK0	0.000	
55	   H	1.680	1.571	3.128	 H	1	UNK0	0.000	
56	   H	3.429	1.219	2.799	 H	1	UNK0	0.000	
57	   H	0.779	3.435	2.370	 H	1	UNK0	0.000	
58	   H	1.744	4.514	1.234	 H	1	UNK0	0.000	
59	   H	-0.063	3.216	0.156	 H	1	UNK0	0.000	
60	   H	1.525	2.902	-0.565	 H	1	UNK0	0.000	
@<TRIPOS>BOND
1 1 2 1
2 2 3 2
3 2 7 1
4 3 4 1
5 4 5 2
6 4 8 1
7 5 6 1
8 6 7 2
9 8 9 1
10 9 10 1
11 10 11 1
12 10 15 1
13 10 25 1
14 11 12 1
15 12 13 1
16 13 14 1
17 14 15 1
18 14 16 1
19 16 17 2
20 16 18 1
21 18 19 2
22 18 23 1
23 19 20 1
24 20 21 2
25 21 22 1
26 21 24 1
27 22 23 2
28 25 26 1
29 26 27 2
30 26 28 1
31 28 29 1
32 28 33 1
33 29 30 1
34 30 31 1
35 31 32 1
36 32 33 1
37 3 34 1
38 5 35 1
39 6 36 1
40 7 37 1
41 9 38 1
42 9 39 1
43 12 40 1
44 12 41 1
45 13 42 1
46 13 43 1
47 15 44 1
48 15 45 1
49 20 46 1
50 23 47 1
51 24 48 1
52 24 49 1
53 24 50 1
54 25 51 1
55 25 52 1
56 29 53 1
57 29 54 1
58 30 55 1
59 30 56 1
60 32 57 1
61 32 58 1
62 33 59 1
63 33 60 1
@<TRIPOS>SUBSTRUCTURE
1	UNK0	1	GROUP	1 ****	UNK
