# created with PyMOL 2.3.2
@<TRIPOS>MOLECULE
1913
51 54 1                 
SMALL
USER_CHARGES
@<TRIPOS>ATOM
1	  Cl	2.731	-1.291	-5.527	Cl	1	UNK0	0.000	
2	   C	2.400	-1.258	-3.826	C.2	1	UNK0	0.000	
3	   N	3.403	-1.343	-2.950	N.2	1	UNK0	0.000	
4	   C	3.204	-1.323	-1.629	C.2	1	UNK0	0.000	
5	   N	4.030	-1.385	-0.592	N.2	1	UNK0	0.000	
6	   C	3.247	-1.310	0.492	C.2	1	UNK0	0.000	
7	   N	1.952	-1.201	0.168	N.pl3	1	UNK0	0.000	
8	   C	1.883	-1.207	-1.173	C.2	1	UNK0	0.000	
9	   C	0.845	-1.119	-2.062	C.2	1	UNK0	0.000	
10	   N	1.140	-1.148	-3.395	N.2	1	UNK0	0.000	
11	   N	-0.486	-1.024	-1.606	N.pl3	1	UNK0	0.000	
12	   C	-1.063	-2.181	-0.961	C.3	1	UNK0	0.000	
13	   C	-2.521	-2.014	-0.627	C.3	1	UNK0	0.000	
14	   C	-2.740	-0.675	-0.013	C.3	1	UNK0	0.000	
15	   C	-2.425	0.393	-1.003	C.3	1	UNK0	0.000	
16	   C	-1.189	0.206	-1.804	C.3	1	UNK0	0.000	
17	   C	-2.077	-0.530	1.284	C.2	1	UNK0	0.000	
18	   O	-1.429	-1.505	1.737	O.2	1	UNK0	0.000	
19	   N	-2.131	0.652	2.051	N.pl3	1	UNK0	0.000	
20	   C	-1.482	0.809	3.332	C.3	1	UNK0	0.000	
21	   C	0.008	0.630	3.279	C.3	1	UNK0	0.000	
22	   N	0.619	1.600	2.388	N.3	1	UNK0	0.000	
23	   C	2.035	1.471	2.309	C.3	1	UNK0	0.000	
24	   C	2.713	2.634	3.005	C.3	1	UNK0	0.000	
25	   O	2.382	3.780	2.326	O.3	1	UNK0	0.000	
26	   C	1.044	4.014	2.151	C.3	1	UNK0	0.000	
27	   C	0.125	2.918	2.566	C.3	1	UNK0	0.000	
28	   H	3.610	-1.333	1.506	 H	1	UNK0	0.000	
29	   H	1.122	-1.119	0.801	 H	1	UNK0	0.000	
30	   H	-0.481	-2.566	-0.113	 H	1	UNK0	0.000	
31	   H	-1.037	-3.033	-1.714	 H	1	UNK0	0.000	
32	   H	-3.149	-2.118	-1.526	 H	1	UNK0	0.000	
33	   H	-2.784	-2.819	0.088	 H	1	UNK0	0.000	
34	   H	-3.848	-0.604	0.198	 H	1	UNK0	0.000	
35	   H	-3.289	0.426	-1.731	 H	1	UNK0	0.000	
36	   H	-2.467	1.373	-0.483	 H	1	UNK0	0.000	
37	   H	-0.512	1.079	-1.579	 H	1	UNK0	0.000	
38	   H	-1.372	0.298	-2.915	 H	1	UNK0	0.000	
39	   H	-2.678	1.477	1.668	 H	1	UNK0	0.000	
40	   H	-1.779	1.732	3.823	 H	1	UNK0	0.000	
41	   H	-1.875	-0.028	3.977	 H	1	UNK0	0.000	
42	   H	0.395	0.856	4.296	 H	1	UNK0	0.000	
43	   H	0.317	-0.387	3.005	 H	1	UNK0	0.000	
44	   H	2.419	1.412	1.264	 H	1	UNK0	0.000	
45	   H	2.335	0.523	2.801	 H	1	UNK0	0.000	
46	   H	2.411	2.658	4.070	 H	1	UNK0	0.000	
47	   H	3.807	2.485	2.916	 H	1	UNK0	0.000	
48	   H	0.739	5.002	2.599	 H	1	UNK0	0.000	
49	   H	0.885	4.170	1.043	 H	1	UNK0	0.000	
50	   H	-0.859	2.999	2.074	 H	1	UNK0	0.000	
51	   H	-0.078	3.059	3.668	 H	1	UNK0	0.000	
@<TRIPOS>BOND
1 1 2 1
2 2 3 2
3 2 10 1
4 3 4 1
5 4 5 1
6 4 8 2
7 5 6 2
8 6 7 1
9 7 8 1
10 8 9 1
11 9 10 2
12 9 11 1
13 11 12 1
14 11 16 1
15 12 13 1
16 13 14 1
17 14 15 1
18 14 17 1
19 15 16 1
20 17 18 2
21 17 19 1
22 19 20 1
23 20 21 1
24 21 22 1
25 22 23 1
26 22 27 1
27 23 24 1
28 24 25 1
29 25 26 1
30 26 27 1
31 6 28 1
32 7 29 1
33 12 30 1
34 12 31 1
35 13 32 1
36 13 33 1
37 14 34 1
38 15 35 1
39 15 36 1
40 16 37 1
41 16 38 1
42 19 39 1
43 20 40 1
44 20 41 1
45 21 42 1
46 21 43 1
47 23 44 1
48 23 45 1
49 24 46 1
50 24 47 1
51 26 48 1
52 26 49 1
53 27 50 1
54 27 51 1
@<TRIPOS>SUBSTRUCTURE
1	UNK0	1	GROUP	1 ****	UNK
