REMARK  5 active torsions:
REMARK  status: ('A' for Active; 'I' for Inactive)
REMARK    1  A    between atoms: C_9  and  N_11 
REMARK    2  A    between atoms: C_14  and  C_17 
REMARK       I    between atoms: C_17  and  N_19 
REMARK    3  A    between atoms: N_19  and  C_20 
REMARK    4  A    between atoms: C_20  and  C_21 
REMARK    5  A    between atoms: C_21  and  N_22 
ROOT
ATOM      1  N   UNK d   1      -0.486  -1.024  -1.606  0.00  0.00    -0.364 N 
ATOM      2  C   UNK d   1      -1.063  -2.181  -0.961  0.00  0.00     0.125 C 
ATOM      3  C   UNK d   1      -2.521  -2.014  -0.627  0.00  0.00     0.034 C 
ATOM      4  C   UNK d   1      -2.740  -0.675  -0.013  0.00  0.00     0.081 C 
ATOM      5  C   UNK d   1      -2.425   0.393  -1.003  0.00  0.00     0.034 C 
ATOM      6  C   UNK d   1      -1.189   0.206  -1.804  0.00  0.00     0.125 C 
ENDROOT
BRANCH   4   7
ATOM      7  C   UNK d   1      -2.077  -0.530   1.284  0.00  0.00     0.222 C 
ATOM      8  O   UNK d   1      -1.429  -1.505   1.737  0.00  0.00    -0.273 OA
ATOM      9  N   UNK d   1      -2.131   0.652   2.051  0.00  0.00    -0.359 N 
ATOM     10  H   UNK d   1      -2.678   1.477   1.668  0.00  0.00     0.162 HD
BRANCH   9  11
ATOM     11  C   UNK d   1      -1.482   0.809   3.332  0.00  0.00     0.152 C 
BRANCH  11  12
ATOM     12  C   UNK d   1       0.008   0.630   3.279  0.00  0.00     0.292 C 
BRANCH  12  13
ATOM     13  N   UNK d   1       0.619   1.600   2.388  0.00  0.00     0.094 N 
ATOM     14  C   UNK d   1       2.035   1.471   2.309  0.00  0.00     0.298 C 
ATOM     15  C   UNK d   1       2.713   2.634   3.005  0.00  0.00     0.198 C 
ATOM     16  O   UNK d   1       2.382   3.780   2.326  0.00  0.00    -0.388 OA
ATOM     17  C   UNK d   1       1.044   4.014   2.151  0.00  0.00     0.198 C 
ATOM     18  C   UNK d   1       0.125   2.918   2.566  0.00  0.00     0.298 C 
ENDBRANCH  12  13
ENDBRANCH  11  12
ENDBRANCH   9  11
ENDBRANCH   4   7
BRANCH   1  19
ATOM     19  C   UNK d   1       0.845  -1.119  -2.062  0.00  0.00     0.160 A 
ATOM     20  C   UNK d   1       1.883  -1.207  -1.173  0.00  0.00     0.128 A 
ATOM     21  C   UNK d   1       3.204  -1.323  -1.629  0.00  0.00     0.184 A 
ATOM     22  N   UNK d   1       1.952  -1.201   0.168  0.00  0.00    -0.345 N 
ATOM     23  N   UNK d   1       3.403  -1.343  -2.950  0.00  0.00    -0.196 NA
ATOM     24  N   UNK d   1       4.030  -1.385  -0.592  0.00  0.00    -0.222 NA
ATOM     25  C   UNK d   1       2.400  -1.258  -3.826  0.00  0.00     0.227 A 
ATOM     26 Cl   UNK d   1       2.731  -1.291  -5.527  0.00  0.00    -0.041 Cl
ATOM     27  N   UNK d   1       1.140  -1.148  -3.395  0.00  0.00    -0.198 NA
ATOM     28  C   UNK d   1       3.247  -1.310   0.492  0.00  0.00     0.210 A 
ATOM     29  H   UNK d   1       1.122  -1.119   0.801  0.00  0.00     0.167 HD
ENDBRANCH   1  19
TORSDOF 5
