REMARK  5 active torsions:
REMARK  status: ('A' for Active; 'I' for Inactive)
REMARK    1  A    between atoms: C_5  and  C_8 
REMARK    2  A    between atoms: C_8  and  O_32 
REMARK       I    between atoms: N_11  and  C_14 
REMARK    3  A    between atoms: C_14  and  C_16 
REMARK    4  A    between atoms: C_16  and  N_17 
REMARK       I    between atoms: N_17  and  C_18 
REMARK    5  A    between atoms: C_18  and  C_20 
ROOT
ATOM      1  C   UNK d   1       1.770   1.778  -1.646  0.00  0.00     0.210 C 
ENDROOT
BRANCH   1   2
ATOM      2  C   UNK d   1       1.981   2.503  -0.384  0.00  0.00     0.171 C 
ATOM      3  N   UNK d   1       1.272   2.491   0.810  0.00  0.00    -0.361 N 
ATOM      4  C   UNK d   1      -0.005   1.907   1.024  0.00  0.00     0.128 C 
ATOM      5  C   UNK d   1       1.898   3.132   1.996  0.00  0.00     0.128 C 
ATOM      6  C   UNK d   1       0.071   0.863   2.119  0.00  0.00     0.062 C 
ATOM      7  C   UNK d   1       0.344   1.678   3.381  0.00  0.00     0.088 C 
ATOM      8  C   UNK d   1       1.620   2.427   3.280  0.00  0.00     0.062 C 
ATOM      9  O   UNK d   1       3.020   3.297  -0.424  0.00  0.00    -0.175 OA
BRANCH   7  10
ATOM     10  C   UNK d   1       0.159   0.857   4.564  0.00  0.00    -0.024 A 
ATOM     11  C   UNK d   1      -1.015   1.046   5.305  0.00  0.00     0.012 A 
ATOM     12  C   UNK d   1      -1.274   0.334   6.476  0.00  0.00     0.024 A 
ATOM     13  C   UNK d   1      -0.377  -0.592   6.951  0.00  0.00     0.034 A 
ATOM     14 Cl   UNK d   1      -0.700  -1.497   8.453  0.00  0.00    -0.084 Cl
ATOM     15  C   UNK d   1       0.788  -0.789   6.228  0.00  0.00     0.024 A 
ATOM     16  C   UNK d   1       1.032  -0.076   5.070  0.00  0.00     0.012 A 
ENDBRANCH   7  10
BRANCH   7  17
ATOM     17  O   UNK d   1      -0.705   2.652   3.372  0.00  0.00    -0.385 OA
ATOM     18  H   UNK d   1      -0.307   3.491   3.713  0.00  0.00     0.211 HD
ENDBRANCH   7  17
ENDBRANCH   1   2
BRANCH   1  19
ATOM     19  N   UNK d   1       0.877   0.704  -1.643  0.00  0.00    -0.350 N 
ATOM     20  C   UNK d   1       0.383   0.044  -2.810  0.00  0.00     0.243 C 
ATOM     21  O   UNK d   1       0.795   0.517  -3.902  0.00  0.00    -0.269 OA
ATOM     22  H   UNK d   1       0.560   0.256  -0.742  0.00  0.00     0.163 HD
BRANCH  20  23
ATOM     23  C   UNK d   1      -0.512  -1.076  -2.710  0.00  0.00     0.105 C 
ATOM     24  C   UNK d   1      -1.101  -1.778  -3.621  0.00  0.00     0.064 A 
ATOM     25  N   UNK d   1      -0.955  -1.529  -5.021  0.00  0.00    -0.297 N 
ATOM     26  C   UNK d   1      -1.964  -2.930  -3.257  0.00  0.00     0.008 A 
ATOM     27  N   UNK d   1      -1.592  -2.326  -5.995  0.00  0.00    -0.265 N 
ATOM     28  H   UNK d   1      -0.364  -0.736  -5.368  0.00  0.00     0.187 HD
ATOM     29  C   UNK d   1      -2.407  -3.414  -5.623  0.00  0.00     0.271 A 
ATOM     30  H   UNK d   1      -1.461  -2.121  -7.013  0.00  0.00     0.190 HD
ATOM     31  O   UNK d   1      -2.958  -4.105  -6.529  0.00  0.00    -0.266 OA
ATOM     32  C   UNK d   1      -2.582  -3.703  -4.213  0.00  0.00     0.046 A 
ATOM     33  C   UNK d   1      -3.367  -4.794  -3.901  0.00  0.00     0.018 A 
ATOM     34  C   UNK d   1      -3.532  -5.115  -2.556  0.00  0.00     0.001 A 
ATOM     35  C   UNK d   1      -2.939  -4.378  -1.568  0.00  0.00     0.001 A 
ATOM     36  C   UNK d   1      -2.156  -3.283  -1.952  0.00  0.00     0.015 A 
ENDBRANCH  20  23
ENDBRANCH   1  19
TORSDOF 5
