REMARK  5 active torsions:
REMARK  status: ('A' for Active; 'I' for Inactive)
REMARK    1  A    between atoms: C_5  and  C_8 
REMARK    2  A    between atoms: C_11  and  C_13 
REMARK    3  A    between atoms: C_13  and  N_14 
REMARK    4  A    between atoms: C_22  and  C_24 
REMARK    5  A    between atoms: C_24  and  O_26 
ROOT
ATOM      1  N   UNK d   1      -0.455   0.925  -0.920  0.00  0.00    -0.357 N 
ATOM      2  C   UNK d   1       0.061   0.299  -1.998  0.00  0.00     0.110 A 
ATOM      3  C   UNK d   1      -0.749  -0.383  -2.870  0.00  0.00     0.080 A 
ATOM      4  C   UNK d   1      -2.194  -0.427  -2.620  0.00  0.00     0.111 A 
ATOM      5  N   UNK d   1      -2.734  -1.154  -3.622  0.00  0.00    -0.170 NA
ATOM      6  N   UNK d   1      -1.779  -1.549  -4.439  0.00  0.00    -0.242 N 
ATOM      7  C   UNK d   1      -0.573  -1.118  -4.041  0.00  0.00     0.275 A 
ATOM      8  O   UNK d   1       0.536  -1.318  -4.592  0.00  0.00    -0.266 OA
ATOM      9  C   UNK d   1      -2.675   0.228  -1.506  0.00  0.00     0.086 A 
ATOM     10  C   UNK d   1      -1.769   0.873  -0.711  0.00  0.00     0.111 A 
ATOM     11  H   UNK d   1      -1.943  -2.122  -5.287  0.00  0.00     0.192 HD
ENDROOT
BRANCH   1  12
ATOM     12  C   UNK d   1       0.457   1.637  -0.023  0.00  0.00     0.216 C 
BRANCH  12  13
ATOM     13  C   UNK d   1       0.934   0.725   1.035  0.00  0.00     0.191 A 
ATOM     14  O   UNK d   1       0.335   0.547   2.187  0.00  0.00    -0.194 OA
ATOM     15  N   UNK d   1       1.010  -0.317   2.884  0.00  0.00    -0.105 NA
ATOM     16  C   UNK d   1       2.084  -0.731   2.195  0.00  0.00     0.189 A 
ATOM     17  N   UNK d   1       2.035  -0.073   1.028  0.00  0.00    -0.202 NA
BRANCH  16  18
ATOM     18  C   UNK d   1       3.069  -1.697   2.661  0.00  0.00     0.014 A 
ATOM     19  C   UNK d   1       2.973  -2.288   3.899  0.00  0.00     0.017 A 
ATOM     20  C   UNK d   1       3.902  -3.206   4.351  0.00  0.00     0.025 A 
ATOM     21  C   UNK d   1       4.976  -3.563   3.556  0.00  0.00     0.034 A 
ATOM     22 Cl   UNK d   1       6.169  -4.727   4.107  0.00  0.00    -0.084 Cl
ATOM     23  C   UNK d   1       5.076  -2.969   2.306  0.00  0.00     0.025 A 
ATOM     24  C   UNK d   1       4.138  -2.050   1.863  0.00  0.00     0.017 A 
ENDBRANCH  16  18
ENDBRANCH  12  13
ENDBRANCH   1  12
BRANCH   9  25
ATOM     25  C   UNK d   1      -4.110   0.206  -1.224  0.00  0.00     0.296 C 
ATOM     26  O   UNK d   1      -4.894  -0.392  -1.974  0.00  0.00    -0.259 OA
BRANCH  25  27
ATOM     27  O   UNK d   1      -4.630   0.852  -0.115  0.00  0.00    -0.322 OA
ATOM     28  C   UNK d   1      -6.000   0.867   0.209  0.00  0.00     0.213 C 
ENDBRANCH  25  27
ENDBRANCH   9  25
TORSDOF 5
