# created with PyMOL 2.3.2
@<TRIPOS>MOLECULE
1928
39 42 1                 
SMALL
USER_CHARGES
@<TRIPOS>ATOM
1	  Cl	6.169	-4.727	4.107	Cl	1	UNK0	0.000	
2	   C	4.976	-3.563	3.556	C.2	1	UNK0	0.000	
3	   C	3.902	-3.206	4.351	C.2	1	UNK0	0.000	
4	   C	2.973	-2.288	3.899	C.2	1	UNK0	0.000	
5	   C	3.069	-1.697	2.661	C.2	1	UNK0	0.000	
6	   C	4.138	-2.050	1.863	C.2	1	UNK0	0.000	
7	   C	5.076	-2.969	2.306	C.2	1	UNK0	0.000	
8	   C	2.084	-0.731	2.195	C.2	1	UNK0	0.000	
9	   N	1.010	-0.317	2.884	N.2	1	UNK0	0.000	
10	   O	0.335	0.547	2.187	O.3	1	UNK0	0.000	
11	   C	0.934	0.725	1.035	C.2	1	UNK0	0.000	
12	   N	2.035	-0.073	1.028	N.2	1	UNK0	0.000	
13	   C	0.457	1.637	-0.023	C.3	1	UNK0	0.000	
14	   N	-0.455	0.925	-0.920	N.pl3	1	UNK0	0.000	
15	   C	0.061	0.299	-1.998	C.2	1	UNK0	0.000	
16	   C	-0.749	-0.383	-2.870	C.2	1	UNK0	0.000	
17	   C	-2.194	-0.427	-2.620	C.2	1	UNK0	0.000	
18	   N	-2.734	-1.154	-3.622	N.2	1	UNK0	0.000	
19	   N	-1.779	-1.549	-4.439	N.pl3	1	UNK0	0.000	
20	   C	-0.573	-1.118	-4.041	C.2	1	UNK0	0.000	
21	   O	0.536	-1.318	-4.592	O.2	1	UNK0	0.000	
22	   C	-2.675	0.228	-1.506	C.2	1	UNK0	0.000	
23	   C	-1.769	0.873	-0.711	C.2	1	UNK0	0.000	
24	   C	-4.110	0.206	-1.224	C.2	1	UNK0	0.000	
25	   O	-4.894	-0.392	-1.974	O.co2	1	UNK0	0.000	
26	   O	-4.630	0.852	-0.115	O.3	1	UNK0	0.000	
27	   C	-6.000	0.867	0.209	C.3	1	UNK0	0.000	
28	   H	3.807	-3.663	5.336	 H	1	UNK0	0.000	
29	   H	2.135	-2.011	4.524	 H	1	UNK0	0.000	
30	   H	4.219	-1.586	0.885	 H	1	UNK0	0.000	
31	   H	5.913	-3.248	1.687	 H	1	UNK0	0.000	
32	   H	-0.124	2.445	0.451	 H	1	UNK0	0.000	
33	   H	1.302	2.031	-0.637	 H	1	UNK0	0.000	
34	   H	1.123	0.327	-2.186	 H	1	UNK0	0.000	
35	   H	-1.943	-2.122	-5.287	 H	1	UNK0	0.000	
36	   H	-2.166	1.386	0.166	 H	1	UNK0	0.000	
37	   H	-6.632	0.398	-0.557	 H	1	UNK0	0.000	
38	   H	-6.198	0.316	1.174	 H	1	UNK0	0.000	
39	   H	-6.269	1.921	0.428	 H	1	UNK0	0.000	
@<TRIPOS>BOND
1 1 2 1
2 2 3 2
3 2 7 1
4 3 4 1
5 4 5 2
6 5 6 1
7 5 8 1
8 6 7 2
9 8 9 2
10 8 12 1
11 9 10 1
12 10 11 1
13 11 12 2
14 11 13 1
15 13 14 1
16 14 15 1
17 14 23 1
18 15 16 2
19 16 17 1
20 16 20 1
21 17 18 2
22 17 22 1
23 18 19 1
24 19 20 1
25 20 21 2
26 22 23 2
27 22 24 1
28 24 25 2
29 24 26 1
30 26 27 1
31 3 28 1
32 4 29 1
33 6 30 1
34 7 31 1
35 13 32 1
36 13 33 1
37 15 34 1
38 19 35 1
39 23 36 1
40 27 37 1
41 27 38 1
42 27 39 1
@<TRIPOS>SUBSTRUCTURE
1	UNK0	1	GROUP	1 ****	UNK
