REMARK  5 active torsions:
REMARK  status: ('A' for Active; 'I' for Inactive)
REMARK    1  A    between atoms: C_6  and  C_12 
REMARK    2  A    between atoms: C_12  and  C_13 
REMARK    3  A    between atoms: C_13  and  C_14 
REMARK       I    between atoms: C_14  and  N_16 
REMARK    4  A    between atoms: C_18  and  N_24 
REMARK    5  A    between atoms: C_19  and  O_22 
ROOT
ATOM      1  C   UNK d   1      -0.420   0.882   1.092  0.00  0.00     0.220 C 
ATOM      2  O   UNK d   1       0.660   1.444   0.776  0.00  0.00    -0.273 OA
ATOM      3  N   UNK d   1      -0.970  -0.095   0.242  0.00  0.00    -0.350 N 
ATOM      4  C   UNK d   1      -0.332  -0.494  -1.013  0.00  0.00     0.154 C 
ATOM      5  C   UNK d   1      -1.293  -0.068  -2.105  0.00  0.00     0.146 C 
ATOM      6  C   UNK d   1      -2.663  -0.664  -1.881  0.00  0.00     0.078 C 
ATOM      7  C   UNK d   1      -2.646  -1.599  -0.666  0.00  0.00     0.059 C 
ATOM      8  C   UNK d   1      -2.212  -0.786   0.542  0.00  0.00     0.129 C 
ATOM      9  C   UNK d   1      -3.211  -1.387  -3.074  0.00  0.00     0.048 C 
ENDROOT
BRANCH   1  10
ATOM     10  C   UNK d   1      -1.086   1.270   2.359  0.00  0.00     0.110 C 
BRANCH  10  11
ATOM     11  C   UNK d   1      -0.341   2.308   3.133  0.00  0.00     0.088 C 
BRANCH  11  12
ATOM     12  C   UNK d   1       1.025   1.892   3.536  0.00  0.00     0.107 A 
ATOM     13  N   UNK d   1       2.188   2.045   2.880  0.00  0.00    -0.233 NA
ATOM     14  C   UNK d   1       3.210   1.529   3.583  0.00  0.00     0.087 A 
ATOM     15  C   UNK d   1       4.579   1.410   3.400  0.00  0.00     0.057 A 
ATOM     16  C   UNK d   1       2.672   1.021   4.747  0.00  0.00     0.064 A 
ATOM     17  C   UNK d   1       5.399   0.814   4.324  0.00  0.00     0.036 A 
ATOM     18 Cl   UNK d   1       7.135   0.658   4.102  0.00  0.00    -0.084 Cl
ATOM     19  C   UNK d   1       4.829   0.317   5.477  0.00  0.00     0.026 A 
ATOM     20  C   UNK d   1       3.460   0.414   5.702  0.00  0.00     0.034 A 
ATOM     21  N   UNK d   1       1.355   1.252   4.695  0.00  0.00    -0.338 N 
ATOM     22  C   UNK d   1       0.350   0.899   5.696  0.00  0.00     0.158 C 
ENDBRANCH  11  12
ENDBRANCH  10  11
ENDBRANCH   1  10
BRANCH   5  23
ATOM     23  N   UNK d   1      -0.790  -0.216  -3.425  0.00  0.00    -0.300 N 
ATOM     24  C   UNK d   1      -0.749   0.834  -4.297  0.00  0.00     0.108 A 
ATOM     25  C   UNK d   1      -0.262   0.692  -5.579  0.00  0.00     0.022 A 
ATOM     26  C   UNK d   1       0.197  -0.537  -5.998  0.00  0.00     0.256 A 
ATOM     27  C   UNK d   1      -0.203   1.812  -6.551  0.00  0.00     0.056 C 
ATOM     28  O   UNK d   1       0.656  -0.710  -7.178  0.00  0.00    -0.267 OA
ATOM     29  N   UNK d   1       0.153  -1.566  -5.134  0.00  0.00    -0.275 N 
ATOM     30  C   UNK d   1      -0.338  -1.377  -3.875  0.00  0.00     0.329 A 
ATOM     31  H   UNK d   1       0.498  -2.493  -5.445  0.00  0.00     0.173 HD
ATOM     32  O   UNK d   1      -0.354  -2.371  -3.115  0.00  0.00    -0.246 OA
ENDBRANCH   5  23
BRANCH   6  33
ATOM     33  O   UNK d   1      -3.623   0.322  -1.546  0.00  0.00    -0.388 OA
ATOM     34  H   UNK d   1      -4.501  -0.129  -1.600  0.00  0.00     0.210 HD
ENDBRANCH   6  33
TORSDOF 5
