REMARK  4 active torsions:
REMARK  status: ('A' for Active; 'I' for Inactive)
REMARK    1  A    between atoms: C_6  and  C_11 
REMARK    2  A    between atoms: C_11  and  N_12 
REMARK       I    between atoms: N_12  and  C_13 
REMARK    3  A    between atoms: C_13  and  C_15 
REMARK    4  A    between atoms: C_15  and  N_18 
ROOT
ATOM      1  N   UNK d   1       0.566   1.173  -1.661  0.00  0.00    -0.352 N 
ATOM      2  C   UNK d   1       0.186   1.308  -0.312  0.00  0.00     0.246 C 
ATOM      3  O   UNK d   1       0.160   0.280   0.386  0.00  0.00    -0.271 OA
ATOM      4  H   UNK d   1       0.594   2.026  -2.267  0.00  0.00     0.162 HD
ENDROOT
BRANCH   1   5
ATOM      5  C   UNK d   1       0.920  -0.104  -2.253  0.00  0.00     0.201 C 
BRANCH   5   6
ATOM      6  C   UNK d   1      -0.252  -1.043  -2.182  0.00  0.00     0.123 A 
ATOM      7  N   UNK d   1      -1.527  -0.727  -1.887  0.00  0.00    -0.232 NA
ATOM      8  C   UNK d   1      -2.307  -1.822  -1.916  0.00  0.00     0.087 A 
ATOM      9  C   UNK d   1      -3.642  -2.091  -1.706  0.00  0.00     0.057 A 
ATOM     10  C   UNK d   1      -1.479  -2.898  -2.249  0.00  0.00     0.062 A 
ATOM     11  C   UNK d   1      -4.201  -3.354  -1.805  0.00  0.00     0.036 A 
ATOM     12 Cl   UNK d   1      -5.917  -3.643  -1.527  0.00  0.00    -0.084 Cl
ATOM     13  C   UNK d   1      -3.353  -4.406  -2.138  0.00  0.00     0.026 A 
ATOM     14  C   UNK d   1      -2.021  -4.158  -2.351  0.00  0.00     0.034 A 
ATOM     15  N   UNK d   1      -0.249  -2.368  -2.399  0.00  0.00    -0.341 N 
ATOM     16  H   UNK d   1       0.604  -2.917  -2.651  0.00  0.00     0.167 HD
ENDBRANCH   5   6
ENDBRANCH   1   5
BRANCH   2  17
ATOM     17  C   UNK d   1      -0.176   2.602   0.292  0.00  0.00     0.110 A 
ATOM     18  C   UNK d   1       0.340   3.809  -0.389  0.00  0.00     0.044 A 
ATOM     19  C   UNK d   1      -1.089   3.503  -0.607  0.00  0.00     0.044 A 
BRANCH  17  20
ATOM     20  N   UNK d   1      -0.587   2.656   1.663  0.00  0.00    -0.392 N 
ATOM     21  C   UNK d   1      -0.692   3.939   2.237  0.00  0.00     0.144 C 
ATOM     22  C   UNK d   1       0.596   4.210   3.005  0.00  0.00     0.187 C 
ATOM     23  O   UNK d   1       0.667   3.394   4.109  0.00  0.00    -0.388 OA
ATOM     24  C   UNK d   1       0.051   2.175   3.971  0.00  0.00     0.187 C 
ATOM     25  C   UNK d   1      -0.013   1.711   2.530  0.00  0.00     0.144 C 
ENDBRANCH  17  20
ENDBRANCH   2  17
TORSDOF 4
