# created with PyMOL 2.3.2
@<TRIPOS>MOLECULE
1936
42 45 1                 
SMALL
USER_CHARGES
@<TRIPOS>ATOM
1	  Cl	-5.917	-3.643	-1.527	Cl	1	UNK0	0.000	
2	   C	-4.201	-3.354	-1.805	C.2	1	UNK0	0.000	
3	   C	-3.642	-2.091	-1.706	C.2	1	UNK0	0.000	
4	   C	-2.307	-1.822	-1.916	C.2	1	UNK0	0.000	
5	   N	-1.527	-0.727	-1.887	N.2	1	UNK0	0.000	
6	   C	-0.252	-1.043	-2.182	C.2	1	UNK0	0.000	
7	   N	-0.249	-2.368	-2.399	N.pl3	1	UNK0	0.000	
8	   C	-1.479	-2.898	-2.249	C.2	1	UNK0	0.000	
9	   C	-2.021	-4.158	-2.351	C.2	1	UNK0	0.000	
10	   C	-3.353	-4.406	-2.138	C.2	1	UNK0	0.000	
11	   C	0.920	-0.104	-2.253	C.3	1	UNK0	0.000	
12	   N	0.566	1.173	-1.661	N.pl3	1	UNK0	0.000	
13	   C	0.186	1.308	-0.312	C.2	1	UNK0	0.000	
14	   O	0.160	0.280	0.386	O.2	1	UNK0	0.000	
15	   C	-0.176	2.602	0.292	C.3	1	UNK0	0.000	
16	   C	0.340	3.809	-0.389	C.3	1	UNK0	0.000	
17	   C	-1.089	3.503	-0.607	C.3	1	UNK0	0.000	
18	   N	-0.587	2.656	1.663	N.3	1	UNK0	0.000	
19	   C	-0.692	3.939	2.237	C.3	1	UNK0	0.000	
20	   C	0.596	4.210	3.005	C.3	1	UNK0	0.000	
21	   O	0.667	3.394	4.109	O.3	1	UNK0	0.000	
22	   C	0.051	2.175	3.971	C.3	1	UNK0	0.000	
23	   C	-0.013	1.711	2.530	C.3	1	UNK0	0.000	
24	   H	-4.296	-1.250	-1.446	 H	1	UNK0	0.000	
25	   H	0.604	-2.917	-2.651	 H	1	UNK0	0.000	
26	   H	-1.372	-4.975	-2.607	 H	1	UNK0	0.000	
27	   H	-3.811	-5.391	-2.210	 H	1	UNK0	0.000	
28	   H	1.255	0.043	-3.273	 H	1	UNK0	0.000	
29	   H	1.714	-0.541	-1.623	 H	1	UNK0	0.000	
30	   H	0.594	2.026	-2.267	 H	1	UNK0	0.000	
31	   H	0.993	3.735	-1.282	 H	1	UNK0	0.000	
32	   H	0.584	4.736	0.180	 H	1	UNK0	0.000	
33	   H	-1.438	3.021	-1.550	 H	1	UNK0	0.000	
34	   H	-1.826	4.137	-0.134	 H	1	UNK0	0.000	
35	   H	-0.976	4.768	1.593	 H	1	UNK0	0.000	
36	   H	-1.494	3.894	3.034	 H	1	UNK0	0.000	
37	   H	1.455	4.016	2.337	 H	1	UNK0	0.000	
38	   H	0.574	5.295	3.301	 H	1	UNK0	0.000	
39	   H	0.703	1.423	4.508	 H	1	UNK0	0.000	
40	   H	-0.935	2.109	4.477	 H	1	UNK0	0.000	
41	   H	1.005	1.363	2.272	 H	1	UNK0	0.000	
42	   H	-0.644	0.776	2.545	 H	1	UNK0	0.000	
@<TRIPOS>BOND
1 1 2 1
2 2 3 2
3 2 10 1
4 3 4 1
5 4 5 1
6 4 8 2
7 5 6 2
8 6 7 1
9 6 11 1
10 7 8 1
11 8 9 1
12 9 10 2
13 11 12 1
14 12 13 1
15 13 14 2
16 13 15 1
17 15 16 1
18 15 17 1
19 15 18 1
20 16 17 1
21 18 19 1
22 18 23 1
23 19 20 1
24 20 21 1
25 21 22 1
26 22 23 1
27 3 24 1
28 7 25 1
29 9 26 1
30 10 27 1
31 11 28 1
32 11 29 1
33 12 30 1
34 16 31 1
35 16 32 1
36 17 33 1
37 17 34 1
38 19 35 1
39 19 36 1
40 20 37 1
41 20 38 1
42 22 39 1
43 22 40 1
44 23 41 1
45 23 42 1
@<TRIPOS>SUBSTRUCTURE
1	UNK0	1	GROUP	1 ****	UNK
