# created with PyMOL 2.3.2
@<TRIPOS>MOLECULE
1937
54 57 1                 
SMALL
USER_CHARGES
@<TRIPOS>ATOM
1	  Cl	2.660	-0.330	3.276	Cl	1	UNK0	0.000	
2	   C	1.945	1.191	2.798	C.2	1	UNK0	0.000	
3	   C	2.197	1.663	1.515	C.2	1	UNK0	0.000	
4	   C	1.575	2.831	1.161	C.2	1	UNK0	0.000	
5	   C	0.748	3.506	2.051	C.2	1	UNK0	0.000	
6	   C	0.490	3.030	3.353	C.2	1	UNK0	0.000	
7	   C	1.126	1.844	3.660	C.2	1	UNK0	0.000	
8	   C	3.240	0.976	0.709	C.3	1	UNK0	0.000	
9	   N	2.769	0.547	-0.558	N.pl3	1	UNK0	0.000	
10	   C	3.514	-0.022	-1.593	C.2	1	UNK0	0.000	
11	   O	4.716	-0.078	-1.579	O.2	1	UNK0	0.000	
12	   C	2.742	-0.610	-2.779	C.3	1	UNK0	0.000	
13	   N	1.375	-0.771	-2.345	N.3	1	UNK0	0.000	
14	   C	0.336	-1.089	-3.210	C.3	1	UNK0	0.000	
15	   C	-0.914	-1.483	-2.314	C.3	1	UNK0	0.000	
16	   N	-0.665	-0.682	-1.145	N.pl3	1	UNK0	0.000	
17	   C	0.314	-1.356	-0.243	C.3	1	UNK0	0.000	
18	   C	1.411	-1.742	-1.195	C.3	1	UNK0	0.000	
19	   C	-1.293	0.488	-0.839	C.2	1	UNK0	0.000	
20	   O	-0.681	1.305	-0.069	O.2	1	UNK0	0.000	
21	   C	-2.649	0.947	-1.276	C.3	1	UNK0	0.000	
22	   O	-3.526	-0.181	-0.951	O.3	1	UNK0	0.000	
23	   C	-3.103	-0.802	0.260	C.2	1	UNK0	0.000	
24	   C	-2.578	0.008	1.232	C.2	1	UNK0	0.000	
25	   C	-2.131	-0.507	2.444	C.2	1	UNK0	0.000	
26	   C	-2.249	-1.882	2.611	C.2	1	UNK0	0.000	
27	   C	-2.780	-2.723	1.658	C.2	1	UNK0	0.000	
28	   C	-3.215	-2.172	0.469	C.2	1	UNK0	0.000	
29	   O	-2.490	1.385	0.999	O.3	1	UNK0	0.000	
30	   C	-3.062	1.980	-0.193	C.3	1	UNK0	0.000	
31	   H	1.704	3.291	0.194	 H	1	UNK0	0.000	
32	   H	0.247	4.442	1.823	 H	1	UNK0	0.000	
33	   H	-0.158	3.574	4.021	 H	1	UNK0	0.000	
34	   H	0.917	1.445	4.633	 H	1	UNK0	0.000	
35	   H	4.012	1.812	0.529	 H	1	UNK0	0.000	
36	   H	3.666	0.158	1.296	 H	1	UNK0	0.000	
37	   H	1.735	0.744	-0.807	 H	1	UNK0	0.000	
38	   H	2.773	0.068	-3.641	 H	1	UNK0	0.000	
39	   H	3.186	-1.585	-3.009	 H	1	UNK0	0.000	
40	   H	0.433	-1.876	-3.932	 H	1	UNK0	0.000	
41	   H	-0.058	-0.125	-3.664	 H	1	UNK0	0.000	
42	   H	-0.818	-2.555	-2.095	 H	1	UNK0	0.000	
43	   H	-1.836	-1.207	-2.811	 H	1	UNK0	0.000	
44	   H	-0.188	-2.294	0.056	 H	1	UNK0	0.000	
45	   H	0.586	-0.763	0.604	 H	1	UNK0	0.000	
46	   H	1.199	-2.714	-1.673	 H	1	UNK0	0.000	
47	   H	2.423	-1.732	-0.813	 H	1	UNK0	0.000	
48	   H	-2.735	1.291	-2.275	 H	1	UNK0	0.000	
49	   H	-1.700	0.162	3.201	 H	1	UNK0	0.000	
50	   H	-1.885	-2.285	3.548	 H	1	UNK0	0.000	
51	   H	-2.841	-3.814	1.832	 H	1	UNK0	0.000	
52	   H	-3.640	-2.782	-0.317	 H	1	UNK0	0.000	
53	   H	-2.407	2.866	-0.407	 H	1	UNK0	0.000	
54	   H	-4.113	2.158	-0.149	 H	1	UNK0	0.000	
@<TRIPOS>BOND
1 1 2 1
2 2 3 2
3 2 7 1
4 3 4 1
5 3 8 1
6 4 5 2
7 5 6 1
8 6 7 2
9 8 9 1
10 9 10 1
11 10 11 2
12 10 12 1
13 12 13 1
14 13 14 1
15 13 18 1
16 14 15 1
17 15 16 1
18 16 17 1
19 16 19 1
20 17 18 1
21 19 20 2
22 19 21 1
23 21 22 1
24 21 30 1
25 22 23 1
26 23 24 2
27 23 28 1
28 24 25 1
29 24 29 1
30 25 26 2
31 26 27 1
32 27 28 2
33 29 30 1
34 4 31 1
35 5 32 1
36 6 33 1
37 7 34 1
38 8 35 1
39 8 36 1
40 9 37 1
41 12 38 1
42 12 39 1
43 14 40 1
44 14 41 1
45 15 42 1
46 15 43 1
47 17 44 1
48 17 45 1
49 18 46 1
50 18 47 1
51 21 48 1
52 25 49 1
53 26 50 1
54 27 51 1
55 28 52 1
56 30 53 1
57 30 54 1
@<TRIPOS>SUBSTRUCTURE
1	UNK0	1	GROUP	1 ****	UNK
