REMARK  5 active torsions:
REMARK  status: ('A' for Active; 'I' for Inactive)
REMARK    1  A    between atoms: C_3  and  C_8 
REMARK    2  A    between atoms: C_8  and  N_9 
REMARK       I    between atoms: N_9  and  C_10 
REMARK    3  A    between atoms: C_10  and  C_12 
REMARK    4  A    between atoms: C_12  and  N_13 
REMARK       I    between atoms: N_16  and  C_19 
REMARK    5  A    between atoms: C_19  and  C_21 
ROOT
ATOM      1  N   UNK d   1       1.375  -0.771  -2.345  0.00  0.00     0.100 N 
ATOM      2  C   UNK d   1       0.336  -1.089  -3.210  0.00  0.00     0.293 C 
ATOM      3  C   UNK d   1      -0.914  -1.483  -2.314  0.00  0.00     0.156 C 
ATOM      4  N   UNK d   1      -0.665  -0.682  -1.145  0.00  0.00    -0.346 N 
ATOM      5  C   UNK d   1       0.314  -1.356  -0.243  0.00  0.00     0.156 C 
ATOM      6  C   UNK d   1       1.411  -1.742  -1.195  0.00  0.00     0.293 C 
ATOM      7  C   UNK d   1      -1.293   0.488  -0.839  0.00  0.00     0.251 C 
ATOM      8  O   UNK d   1      -0.681   1.305  -0.069  0.00  0.00    -0.270 OA
ENDROOT
BRANCH   1   9
ATOM      9  C   UNK d   1       2.742  -0.610  -2.779  0.00  0.00     0.374 C 
BRANCH   9  10
ATOM     10  C   UNK d   1       3.514  -0.022  -1.593  0.00  0.00     0.246 C 
ATOM     11  N   UNK d   1       2.769   0.547  -0.558  0.00  0.00    -0.355 N 
ATOM     12  H   UNK d   1       1.735   0.744  -0.807  0.00  0.00     0.162 HD
ATOM     13  O   UNK d   1       4.716  -0.078  -1.579  0.00  0.00    -0.272 OA
BRANCH  11  14
ATOM     14  C   UNK d   1       3.240   0.976   0.709  0.00  0.00     0.162 C 
BRANCH  14  15
ATOM     15  C   UNK d   1       2.197   1.663   1.515  0.00  0.00    -0.019 A 
ATOM     16  C   UNK d   1       1.945   1.191   2.798  0.00  0.00     0.042 A 
ATOM     17 Cl   UNK d   1       2.660  -0.330   3.276  0.00  0.00    -0.084 Cl
ATOM     18  C   UNK d   1       1.126   1.844   3.660  0.00  0.00     0.024 A 
ATOM     19  C   UNK d   1       0.490   3.030   3.353  0.00  0.00     0.002 A 
ATOM     20  C   UNK d   1       0.748   3.506   2.051  0.00  0.00     0.001 A 
ATOM     21  C   UNK d   1       1.575   2.831   1.161  0.00  0.00     0.010 A 
ENDBRANCH  14  15
ENDBRANCH  11  14
ENDBRANCH   9  10
ENDBRANCH   1   9
BRANCH   7  22
ATOM     22  C   UNK d   1      -2.649   0.947  -1.276  0.00  0.00     0.245 C 
ATOM     23  O   UNK d   1      -3.526  -0.181  -0.951  0.00  0.00    -0.331 OA
ATOM     24  C   UNK d   1      -3.103  -0.802   0.260  0.00  0.00     0.103 A 
ATOM     25  C   UNK d   1      -2.578   0.008   1.232  0.00  0.00     0.102 A 
ATOM     26  C   UNK d   1      -3.215  -2.172   0.469  0.00  0.00     0.040 A 
ATOM     27  C   UNK d   1      -2.131  -0.507   2.444  0.00  0.00     0.039 A 
ATOM     28  O   UNK d   1      -2.490   1.385   0.999  0.00  0.00    -0.345 OA
ATOM     29  C   UNK d   1      -2.249  -1.882   2.611  0.00  0.00     0.003 A 
ATOM     30  C   UNK d   1      -2.780  -2.723   1.658  0.00  0.00     0.003 A 
ATOM     31  C   UNK d   1      -3.062   1.980  -0.193  0.00  0.00     0.218 C 
ENDBRANCH   7  22
TORSDOF 5
