# created with PyMOL 2.3.2
@<TRIPOS>MOLECULE
1939
45 48 1                 
SMALL
USER_CHARGES
@<TRIPOS>ATOM
1	  Cl	5.252	-2.729	-3.858	Cl	1	UNK0	0.000	
2	   C	3.928	-2.536	-2.730	C.2	1	UNK0	0.000	
3	   C	2.712	-2.150	-3.209	C.2	1	UNK0	0.000	
4	   C	1.629	-1.985	-2.340	C.2	1	UNK0	0.000	
5	   C	1.727	-2.195	-1.004	C.2	1	UNK0	0.000	
6	   C	2.992	-2.592	-0.544	C.2	1	UNK0	0.000	
7	   C	4.071	-2.760	-1.380	C.2	1	UNK0	0.000	
8	   C	0.615	-2.088	-0.063	C.3	1	UNK0	0.000	
9	   N	-0.231	-0.930	-0.182	N.pl3	1	UNK0	0.000	
10	   C	-1.350	-0.912	-0.968	C.2	1	UNK0	0.000	
11	   C	-1.957	0.311	-0.887	C.2	1	UNK0	0.000	
12	   N	-1.193	1.005	-0.054	N.2	1	UNK0	0.000	
13	   C	-0.126	0.268	0.395	C.2	1	UNK0	0.000	
14	   N	0.825	0.785	1.302	N.pl3	1	UNK0	0.000	
15	   C	0.624	2.141	1.795	C.3	1	UNK0	0.000	
16	   C	1.119	2.068	3.251	C.3	1	UNK0	0.000	
17	   N	0.862	0.771	3.836	N.3	1	UNK0	0.000	
18	   C	1.622	-0.305	3.237	C.3	1	UNK0	0.000	
19	   C	1.980	0.160	1.833	C.3	1	UNK0	0.000	
20	   N	-3.087	0.586	-1.564	N.pl3	1	UNK0	0.000	
21	   C	-3.650	-0.368	-2.351	C.2	1	UNK0	0.000	
22	   O	-4.700	-0.067	-2.962	O.2	1	UNK0	0.000	
23	   N	-3.091	-1.585	-2.463	N.pl3	1	UNK0	0.000	
24	   C	-1.965	-1.848	-1.783	C.2	1	UNK0	0.000	
25	   O	-1.485	-2.995	-1.919	O.2	1	UNK0	0.000	
26	   C	-3.664	1.911	-1.421	C.3	1	UNK0	0.000	
27	   H	2.548	-1.963	-4.258	 H	1	UNK0	0.000	
28	   H	0.698	-1.668	-2.784	 H	1	UNK0	0.000	
29	   H	3.097	-2.769	0.533	 H	1	UNK0	0.000	
30	   H	5.046	-3.066	-1.026	 H	1	UNK0	0.000	
31	   H	0.942	-2.252	1.010	 H	1	UNK0	0.000	
32	   H	-0.017	-3.007	-0.222	 H	1	UNK0	0.000	
33	   H	-0.420	2.461	1.749	 H	1	UNK0	0.000	
34	   H	1.271	2.876	1.293	 H	1	UNK0	0.000	
35	   H	2.172	2.396	3.329	 H	1	UNK0	0.000	
36	   H	0.495	2.791	3.832	 H	1	UNK0	0.000	
37	   H	1.139	0.833	4.830	 H	1	UNK0	0.000	
38	   H	1.069	-1.266	3.222	 H	1	UNK0	0.000	
39	   H	2.569	-0.497	3.794	 H	1	UNK0	0.000	
40	   H	2.793	0.950	2.043	 H	1	UNK0	0.000	
41	   H	2.520	-0.552	1.237	 H	1	UNK0	0.000	
42	   H	-3.562	-2.280	-3.079	 H	1	UNK0	0.000	
43	   H	-3.007	2.676	-1.901	 H	1	UNK0	0.000	
44	   H	-3.778	2.200	-0.340	 H	1	UNK0	0.000	
45	   H	-4.651	2.000	-1.887	 H	1	UNK0	0.000	
@<TRIPOS>BOND
1 1 2 1
2 2 3 2
3 2 7 1
4 3 4 1
5 4 5 2
6 5 6 1
7 5 8 1
8 6 7 2
9 8 9 1
10 9 10 1
11 9 13 1
12 10 11 2
13 10 24 1
14 11 12 1
15 11 20 1
16 12 13 2
17 13 14 1
18 14 15 1
19 14 19 1
20 15 16 1
21 16 17 1
22 17 18 1
23 18 19 1
24 20 21 1
25 20 26 1
26 21 22 2
27 21 23 1
28 23 24 1
29 24 25 2
30 3 27 1
31 4 28 1
32 6 29 1
33 7 30 1
34 8 31 1
35 8 32 1
36 15 33 1
37 15 34 1
38 16 35 1
39 16 36 1
40 17 37 1
41 18 38 1
42 18 39 1
43 19 40 1
44 19 41 1
45 23 42 1
46 26 43 1
47 26 44 1
48 26 45 1
@<TRIPOS>SUBSTRUCTURE
1	UNK0	1	GROUP	1 ****	UNK
