REMARK  3 active torsions:
REMARK  status: ('A' for Active; 'I' for Inactive)
REMARK    1  A    between atoms: C_5  and  C_8 
REMARK    2  A    between atoms: C_8  and  N_9 
REMARK    3  A    between atoms: C_13  and  N_14 
ROOT
ATOM      1  N   UNK d   1      -0.231  -0.930  -0.182  0.00  0.00    -0.168 N 
ATOM      2  C   UNK d   1      -1.350  -0.912  -0.968  0.00  0.00     0.167 A 
ATOM      3  C   UNK d   1      -1.957   0.311  -0.887  0.00  0.00     0.185 A 
ATOM      4  N   UNK d   1      -1.193   1.005  -0.054  0.00  0.00    -0.044 NA
ATOM      5  C   UNK d   1      -0.126   0.268   0.395  0.00  0.00     0.707 A 
ATOM      6  N   UNK d   1      -3.087   0.586  -1.564  0.00  0.00    -0.286 N 
ATOM      7  C   UNK d   1      -3.650  -0.368  -2.351  0.00  0.00     0.330 A 
ATOM      8  O   UNK d   1      -4.700  -0.067  -2.962  0.00  0.00    -0.246 OA
ATOM      9  N   UNK d   1      -3.091  -1.585  -2.463  0.00  0.00    -0.273 N 
ATOM     10  C   UNK d   1      -1.965  -1.848  -1.783  0.00  0.00     0.280 A 
ATOM     11  O   UNK d   1      -1.485  -2.995  -1.919  0.00  0.00    -0.265 OA
ATOM     12  C   UNK d   1      -3.664   1.911  -1.421  0.00  0.00     0.163 C 
ATOM     13  H   UNK d   1      -3.562  -2.280  -3.079  0.00  0.00     0.173 HD
ENDROOT
BRANCH   1  14
ATOM     14  C   UNK d   1       0.615  -2.088  -0.063  0.00  0.00     0.186 C 
BRANCH  14  15
ATOM     15  C   UNK d   1       1.727  -2.195  -1.004  0.00  0.00    -0.039 A 
ATOM     16  C   UNK d   1       1.629  -1.985  -2.340  0.00  0.00     0.010 A 
ATOM     17  C   UNK d   1       2.712  -2.150  -3.209  0.00  0.00     0.024 A 
ATOM     18  C   UNK d   1       3.928  -2.536  -2.730  0.00  0.00     0.034 A 
ATOM     19 Cl   UNK d   1       5.252  -2.729  -3.858  0.00  0.00    -0.084 Cl
ATOM     20  C   UNK d   1       4.071  -2.760  -1.380  0.00  0.00     0.024 A 
ATOM     21  C   UNK d   1       2.992  -2.592  -0.544  0.00  0.00     0.010 A 
ENDBRANCH  14  15
ENDBRANCH   1  14
BRANCH   5  22
ATOM     22  N   UNK d   1       0.825   0.785   1.302  0.00  0.00    -0.212 N 
ATOM     23  C   UNK d   1       0.624   2.141   1.795  0.00  0.00     0.171 C 
ATOM     24  C   UNK d   1       1.119   2.068   3.251  0.00  0.00     0.290 C 
ATOM     25  N   UNK d   1       0.862   0.771   3.836  0.00  0.00     0.086 N 
ATOM     26  C   UNK d   1       1.622  -0.305   3.237  0.00  0.00     0.290 C 
ATOM     27  H   UNK d   1       1.139   0.833   4.830  0.00  0.00     0.316 HD
ATOM     28  C   UNK d   1       1.980   0.160   1.833  0.00  0.00     0.171 C 
ENDBRANCH   5  22
TORSDOF 3
