REMARK  5 active torsions:
REMARK  status: ('A' for Active; 'I' for Inactive)
REMARK    1  A    between atoms: C_5  and  C_8 
REMARK    2  A    between atoms: N_9  and  C_22 
REMARK    3  A    between atoms: C_15  and  C_17 
REMARK    4  A    between atoms: C_22  and  C_23 
REMARK    5  A    between atoms: C_23  and  N_24 
ROOT
ATOM      1  C   UNK d   1       0.361  -1.140   2.528  0.00  0.00     0.161 C 
ATOM      2  N   UNK d   1       0.737  -1.807   1.275  0.00  0.00    -0.331 N 
ATOM      3  C   UNK d   1      -0.366  -1.625   0.406  0.00  0.00     0.295 C 
ATOM      4  O   UNK d   1      -0.719  -2.387  -0.525  0.00  0.00    -0.264 OA
ATOM      5  C   UNK d   1      -1.023  -0.366   0.805  0.00  0.00     0.251 C 
ATOM      6  O   UNK d   1      -2.037   0.165   0.298  0.00  0.00    -0.282 OA
ATOM      7  C   UNK d   1      -0.231   0.123   1.925  0.00  0.00     0.064 C 
ATOM      8  C   UNK d   1      -0.072   1.346   2.295  0.00  0.00     0.153 C 
ATOM      9  O   UNK d   1       0.733   1.669   3.386  0.00  0.00    -0.188 OA
ENDROOT
BRANCH   2  10
ATOM     10  C   UNK d   1       1.986  -2.509   1.016  0.00  0.00     0.155 C 
BRANCH  10  11
ATOM     11  C   UNK d   1       3.067  -1.649   0.438  0.00  0.00     0.255 C 
BRANCH  11  12
ATOM     12  N   UNK d   1       2.792  -1.059  -0.827  0.00  0.00    -0.066 N 
ATOM     13  C   UNK d   1       2.401   0.314  -0.826  0.00  0.00     0.261 C 
ATOM     14  C   UNK d   1       3.474   1.252  -0.322  0.00  0.00     0.195 C 
ATOM     15  O   UNK d   1       4.641   1.115  -1.066  0.00  0.00    -0.388 OA
ATOM     16  C   UNK d   1       5.046  -0.212  -1.166  0.00  0.00     0.195 C 
ATOM     17  C   UNK d   1       3.975  -1.121  -1.710  0.00  0.00     0.261 C 
ATOM     18  H   UNK d   1       2.029  -1.605  -1.284  0.00  0.00     0.280 HD
ENDBRANCH  11  12
ENDBRANCH  10  11
ENDBRANCH   2  10
BRANCH   1  19
ATOM     19  C   UNK d   1      -0.784  -1.836   3.166  0.00  0.00    -0.030 A 
ATOM     20  C   UNK d   1      -0.871  -3.204   3.224  0.00  0.00     0.011 A 
ATOM     21  C   UNK d   1      -1.927  -3.861   3.825  0.00  0.00     0.024 A 
ATOM     22  C   UNK d   1      -2.945  -3.128   4.396  0.00  0.00     0.034 A 
ATOM     23 Cl   UNK d   1      -4.315  -3.876   5.178  0.00  0.00    -0.084 Cl
ATOM     24  C   UNK d   1      -2.879  -1.759   4.350  0.00  0.00     0.024 A 
ATOM     25  C   UNK d   1      -1.823  -1.110   3.749  0.00  0.00     0.011 A 
ENDBRANCH   1  19
BRANCH   8  26
ATOM     26  C   UNK d   1      -0.734   2.434   1.582  0.00  0.00     0.112 A 
ATOM     27  O   UNK d   1      -1.924   2.558   1.112  0.00  0.00    -0.320 OA
ATOM     28  C   UNK d   1      -2.083   3.718   0.542  0.00  0.00     0.142 A 
ATOM     29  C   UNK d   1      -0.915   4.431   0.634  0.00  0.00     0.027 A 
ATOM     30  C   UNK d   1      -0.040   3.618   1.299  0.00  0.00     0.042 A 
ENDBRANCH   8  26
TORSDOF 5
