REMARK  1 active torsions:
REMARK  status: ('A' for Active; 'I' for Inactive)
REMARK    1  A    between atoms: C_5  and  N_8 
ROOT
ATOM      1  N   UNK d   1      -1.084   0.751   0.621  0.00  0.00    -0.252 N 
ATOM      2  C   UNK d   1      -0.779  -0.008  -0.558  0.00  0.00     0.237 C 
ATOM      3  O   UNK d   1      -1.372   0.208  -1.671  0.00  0.00    -0.272 OA
ATOM      4  C   UNK d   1       0.265  -0.998  -0.248  0.00  0.00     0.104 C 
ATOM      5  C   UNK d   1       0.185  -1.115   1.255  0.00  0.00     0.104 C 
ATOM      6  C   UNK d   1      -0.232  -2.524   1.617  0.00  0.00     0.076 C 
ATOM      7  C   UNK d   1       0.948  -3.416   1.204  0.00  0.00     0.091 C 
ATOM      8  C   UNK d   1       1.033  -3.292  -0.290  0.00  0.00     0.133 C 
ATOM      9  O   UNK d   1       1.821  -3.951  -0.913  0.00  0.00    -0.298 OA
ATOM     10  C   UNK d   1       0.090  -2.311  -0.931  0.00  0.00     0.076 C 
ATOM     11  C   UNK d   1      -1.315  -2.866  -0.671  0.00  0.00     0.091 C 
ATOM     12  C   UNK d   1      -1.427  -2.978   0.825  0.00  0.00     0.133 C 
ATOM     13  O   UNK d   1      -2.430  -3.412   1.321  0.00  0.00    -0.298 OA
ATOM     14  C   UNK d   1      -0.733  -0.077   1.721  0.00  0.00     0.237 C 
ATOM     15  O   UNK d   1      -1.142   0.060   2.896  0.00  0.00    -0.272 OA
ENDROOT
BRANCH   1  16
ATOM     16  C   UNK d   1      -1.624   2.065   0.698  0.00  0.00     0.045 A 
ATOM     17  C   UNK d   1      -2.854   2.275   1.293  0.00  0.00     0.032 A 
ATOM     18  C   UNK d   1      -3.417   3.527   1.393  0.00  0.00     0.026 A 
ATOM     19  C   UNK d   1      -2.772   4.634   0.899  0.00  0.00     0.034 A 
ATOM     20 Cl   UNK d   1      -3.483   6.239   1.022  0.00  0.00    -0.084 Cl
ATOM     21  C   UNK d   1      -1.538   4.447   0.298  0.00  0.00     0.026 A 
ATOM     22  C   UNK d   1      -0.993   3.187   0.208  0.00  0.00     0.032 A 
ENDBRANCH   1  16
TORSDOF 1
