# created with PyMOL 2.3.2
@<TRIPOS>MOLECULE
1941
34 37 1                 
SMALL
USER_CHARGES
@<TRIPOS>ATOM
1	  Cl	-3.483	6.239	1.022	Cl	1	UNK0	0.000	
2	   C	-2.772	4.634	0.899	C.2	1	UNK0	0.000	
3	   C	-3.417	3.527	1.393	C.2	1	UNK0	0.000	
4	   C	-2.854	2.275	1.293	C.2	1	UNK0	0.000	
5	   C	-1.624	2.065	0.698	C.2	1	UNK0	0.000	
6	   C	-0.993	3.187	0.208	C.2	1	UNK0	0.000	
7	   C	-1.538	4.447	0.298	C.2	1	UNK0	0.000	
8	   N	-1.084	0.751	0.621	N.pl3	1	UNK0	0.000	
9	   C	-0.779	-0.008	-0.558	C.2	1	UNK0	0.000	
10	   O	-1.372	0.208	-1.671	O.2	1	UNK0	0.000	
11	   C	0.265	-0.998	-0.248	C.3	1	UNK0	0.000	
12	   C	0.185	-1.115	1.255	C.3	1	UNK0	0.000	
13	   C	-0.232	-2.524	1.617	C.3	1	UNK0	0.000	
14	   C	0.948	-3.416	1.204	C.3	1	UNK0	0.000	
15	   C	1.033	-3.292	-0.290	C.2	1	UNK0	0.000	
16	   O	1.821	-3.951	-0.913	O.2	1	UNK0	0.000	
17	   C	0.090	-2.311	-0.931	C.3	1	UNK0	0.000	
18	   C	-1.315	-2.866	-0.671	C.3	1	UNK0	0.000	
19	   C	-1.427	-2.978	0.825	C.2	1	UNK0	0.000	
20	   O	-2.430	-3.412	1.321	O.2	1	UNK0	0.000	
21	   C	-0.733	-0.077	1.721	C.2	1	UNK0	0.000	
22	   O	-1.142	0.060	2.896	O.2	1	UNK0	0.000	
23	   H	-4.374	3.665	1.861	 H	1	UNK0	0.000	
24	   H	-3.363	1.385	1.685	 H	1	UNK0	0.000	
25	   H	-0.030	3.085	-0.267	 H	1	UNK0	0.000	
26	   H	-1.033	5.339	-0.093	 H	1	UNK0	0.000	
27	   H	1.262	-0.588	-0.570	 H	1	UNK0	0.000	
28	   H	1.209	-0.968	1.664	 H	1	UNK0	0.000	
29	   H	-0.455	-2.618	2.694	 H	1	UNK0	0.000	
30	   H	1.862	-2.894	1.597	 H	1	UNK0	0.000	
31	   H	0.834	-4.442	1.544	 H	1	UNK0	0.000	
32	   H	0.323	-2.229	-1.992	 H	1	UNK0	0.000	
33	   H	-1.328	-3.878	-1.157	 H	1	UNK0	0.000	
34	   H	-2.094	-2.222	-1.089	 H	1	UNK0	0.000	
@<TRIPOS>BOND
1 1 2 1
2 2 3 2
3 2 7 1
4 3 4 1
5 4 5 2
6 5 6 1
7 5 8 1
8 6 7 2
9 8 9 1
10 8 21 1
11 9 10 2
12 9 11 1
13 11 12 1
14 11 17 1
15 12 13 1
16 12 21 1
17 13 14 1
18 13 19 1
19 14 15 1
20 15 16 2
21 15 17 1
22 17 18 1
23 18 19 1
24 19 20 2
25 21 22 2
26 3 23 1
27 4 24 1
28 6 25 1
29 7 26 1
30 11 27 1
31 12 28 1
32 13 29 1
33 14 30 1
34 14 31 1
35 17 32 1
36 18 33 1
37 18 34 1
@<TRIPOS>SUBSTRUCTURE
1	UNK0	1	GROUP	1 ****	UNK
