# created with PyMOL 2.3.2
@<TRIPOS>MOLECULE
1943
47 51 1                 
SMALL
USER_CHARGES
@<TRIPOS>ATOM
1	  Cl	-5.798	4.608	-3.382	Cl	1	UNK0	0.000	
2	   C	-4.613	3.547	-2.641	C.2	1	UNK0	0.000	
3	   C	-3.993	2.582	-3.397	C.2	1	UNK0	0.000	
4	   C	-3.062	1.742	-2.797	C.2	1	UNK0	0.000	
5	   C	-2.720	1.822	-1.475	C.2	1	UNK0	0.000	
6	   C	-3.355	2.797	-0.745	C.2	1	UNK0	0.000	
7	   C	-4.296	3.656	-1.322	C.2	1	UNK0	0.000	
8	   N	-1.786	0.975	-0.869	N.pl3	1	UNK0	0.000	
9	   C	-1.522	0.769	0.536	C.2	1	UNK0	0.000	
10	   O	-2.071	1.359	1.471	O.2	1	UNK0	0.000	
11	   C	-0.490	-0.264	0.695	C.3	1	UNK0	0.000	
12	   C	0.624	0.068	1.659	C.3	1	UNK0	0.000	
13	   N	1.692	0.679	0.905	N.3	1	UNK0	0.000	
14	   C	1.135	1.012	-0.391	C.3	1	UNK0	0.000	
15	   C	0.227	-0.177	-0.632	C.3	1	UNK0	0.000	
16	   C	-0.880	0.103	-1.565	C.2	1	UNK0	0.000	
17	   O	-0.952	-0.358	-2.707	O.2	1	UNK0	0.000	
18	   C	2.193	1.117	-1.458	C.3	1	UNK0	0.000	
19	   C	3.210	2.131	-1.197	C.2	1	UNK0	0.000	
20	   O	3.152	2.838	-0.173	O.2	1	UNK0	0.000	
21	   N	4.273	2.318	-2.111	N.pl3	1	UNK0	0.000	
22	   C	1.042	-1.257	2.235	C.2	1	UNK0	0.000	
23	   C	0.655	-1.278	3.545	C.2	1	UNK0	0.000	
24	   C	0.847	-2.409	4.354	C.2	1	UNK0	0.000	
25	   C	1.443	-3.539	3.834	C.2	1	UNK0	0.000	
26	   C	1.834	-3.518	2.522	C.2	1	UNK0	0.000	
27	   C	1.637	-2.399	1.740	C.2	1	UNK0	0.000	
28	   N	0.140	-0.018	3.944	N.pl3	1	UNK0	0.000	
29	   C	0.218	0.840	2.816	C.2	1	UNK0	0.000	
30	   O	-0.031	2.063	2.866	O.2	1	UNK0	0.000	
31	   H	-4.229	2.475	-4.457	 H	1	UNK0	0.000	
32	   H	-2.621	1.018	-3.431	 H	1	UNK0	0.000	
33	   H	-3.169	2.954	0.292	 H	1	UNK0	0.000	
34	   H	-4.790	4.424	-0.726	 H	1	UNK0	0.000	
35	   H	-0.919	-1.273	0.867	 H	1	UNK0	0.000	
36	   H	1.998	1.536	1.424	 H	1	UNK0	0.000	
37	   H	0.479	1.908	-0.334	 H	1	UNK0	0.000	
38	   H	0.791	-1.086	-0.897	 H	1	UNK0	0.000	
39	   H	1.649	1.403	-2.408	 H	1	UNK0	0.000	
40	   H	2.593	0.097	-1.639	 H	1	UNK0	0.000	
41	   H	4.366	1.809	-3.023	 H	1	UNK0	0.000	
42	   H	5.067	3.001	-1.937	 H	1	UNK0	0.000	
43	   H	0.535	-2.417	5.392	 H	1	UNK0	0.000	
44	   H	1.577	-4.405	4.485	 H	1	UNK0	0.000	
45	   H	2.303	-4.385	2.098	 H	1	UNK0	0.000	
46	   H	1.958	-2.399	0.703	 H	1	UNK0	0.000	
47	   H	-0.234	0.237	4.909	 H	1	UNK0	0.000	
@<TRIPOS>BOND
1 1 2 1
2 2 3 2
3 2 7 1
4 3 4 1
5 4 5 2
6 5 6 1
7 5 8 1
8 6 7 2
9 8 9 1
10 8 16 1
11 9 10 2
12 9 11 1
13 11 12 1
14 11 15 1
15 12 13 1
16 12 22 1
17 12 29 1
18 13 14 1
19 14 15 1
20 14 18 1
21 15 16 1
22 16 17 2
23 18 19 1
24 19 20 2
25 19 21 1
26 22 23 1
27 22 27 2
28 23 24 2
29 23 28 1
30 24 25 1
31 25 26 2
32 26 27 1
33 28 29 1
34 29 30 2
35 3 31 1
36 4 32 1
37 6 33 1
38 7 34 1
39 11 35 1
40 13 36 1
41 14 37 1
42 15 38 1
43 18 39 1
44 18 40 1
45 21 41 1
46 21 42 1
47 24 43 1
48 25 44 1
49 26 45 1
50 27 46 1
51 28 47 1
@<TRIPOS>SUBSTRUCTURE
1	UNK0	1	GROUP	1 ****	UNK
