REMARK  3 active torsions:
REMARK  status: ('A' for Active; 'I' for Inactive)
REMARK    1  A    between atoms: C_5  and  N_8 
REMARK    2  A    between atoms: C_14  and  C_18 
REMARK    3  A    between atoms: C_18  and  C_19 
REMARK       I    between atoms: C_19  and  N_21 
ROOT
ATOM      1  N   UNK d   1      -1.786   0.975  -0.869  0.00  0.00    -0.252 N 
ATOM      2  C   UNK d   1      -1.522   0.769   0.536  0.00  0.00     0.239 C 
ATOM      3  O   UNK d   1      -2.071   1.359   1.471  0.00  0.00    -0.272 OA
ATOM      4  C   UNK d   1      -0.490  -0.264   0.695  0.00  0.00     0.147 C 
ATOM      5  C   UNK d   1       0.624   0.068   1.659  0.00  0.00     0.279 C 
ATOM      6  N   UNK d   1       1.692   0.679   0.905  0.00  0.00     0.114 N 
ATOM      7  C   UNK d   1       1.135   1.012  -0.391  0.00  0.00     0.245 C 
ATOM      8  C   UNK d   1       0.227  -0.177  -0.632  0.00  0.00     0.129 C 
ATOM      9  C   UNK d   1      -0.880   0.103  -1.565  0.00  0.00     0.238 C 
ATOM     10  O   UNK d   1      -0.952  -0.358  -2.707  0.00  0.00    -0.272 OA
ATOM     11  C   UNK d   1       1.042  -1.257   2.235  0.00  0.00     0.017 A 
ATOM     12  C   UNK d   1       0.655  -1.278   3.545  0.00  0.00     0.044 A 
ATOM     13  C   UNK d   1       0.847  -2.409   4.354  0.00  0.00     0.030 A 
ATOM     14  C   UNK d   1       1.443  -3.539   3.834  0.00  0.00     0.002 A 
ATOM     15  C   UNK d   1       1.834  -3.518   2.522  0.00  0.00     0.001 A 
ATOM     16  C   UNK d   1       1.637  -2.399   1.740  0.00  0.00     0.012 A 
ATOM     17  N   UNK d   1       0.140  -0.018   3.944  0.00  0.00    -0.324 N 
ATOM     18  C   UNK d   1       0.218   0.840   2.816  0.00  0.00     0.267 C 
ATOM     19  O   UNK d   1      -0.031   2.063   2.866  0.00  0.00    -0.270 OA
ATOM     20  H   UNK d   1       1.998   1.536   1.424  0.00  0.00     0.318 HD
ATOM     21  H   UNK d   1      -0.234   0.237   4.909  0.00  0.00     0.169 HD
ENDROOT
BRANCH   7  22
ATOM     22  C   UNK d   1       2.193   1.117  -1.458  0.00  0.00     0.139 C 
BRANCH  22  23
ATOM     23  C   UNK d   1       3.210   2.131  -1.197  0.00  0.00     0.217 C 
ATOM     24  O   UNK d   1       3.152   2.838  -0.173  0.00  0.00    -0.274 OA
ATOM     25  N   UNK d   1       4.273   2.318  -2.111  0.00  0.00    -0.370 N 
ATOM     26  H   UNK d   1       4.366   1.809  -3.023  0.00  0.00     0.159 HD
ATOM     27  H   UNK d   1       5.067   3.001  -1.937  0.00  0.00     0.159 HD
ENDBRANCH  22  23
ENDBRANCH   7  22
BRANCH   1  28
ATOM     28  C   UNK d   1      -2.720   1.822  -1.475  0.00  0.00     0.045 A 
ATOM     29  C   UNK d   1      -3.062   1.742  -2.797  0.00  0.00     0.032 A 
ATOM     30  C   UNK d   1      -3.993   2.582  -3.397  0.00  0.00     0.026 A 
ATOM     31  C   UNK d   1      -4.613   3.547  -2.641  0.00  0.00     0.034 A 
ATOM     32 Cl   UNK d   1      -5.798   4.608  -3.382  0.00  0.00    -0.084 Cl
ATOM     33  C   UNK d   1      -4.296   3.656  -1.322  0.00  0.00     0.026 A 
ATOM     34  C   UNK d   1      -3.355   2.797  -0.745  0.00  0.00     0.032 A 
ENDBRANCH   1  28
TORSDOF 3
