REMARK  4 active torsions:
REMARK  status: ('A' for Active; 'I' for Inactive)
REMARK    1  A    between atoms: N_15  and  C_16 
REMARK    2  A    between atoms: C_16  and  C_17 
REMARK       I    between atoms: C_17  and  N_19 
REMARK    3  A    between atoms: N_19  and  C_20 
REMARK    4  A    between atoms: C_20  and  C_21 
ROOT
ATOM      1 Cl   UNK d   1      -3.977   4.382   0.108  0.00  0.00    -0.084 Cl
ATOM      2  C   UNK d   1      -3.720   2.657   0.279  0.00  0.00     0.036 A 
ATOM      3  C   UNK d   1      -2.575   2.045  -0.177  0.00  0.00     0.054 A 
ATOM      4  C   UNK d   1      -2.383   0.668  -0.035  0.00  0.00     0.055 A 
ATOM      5  C   UNK d   1      -3.380  -0.073   0.582  0.00  0.00     0.037 A 
ATOM      6  C   UNK d   1      -4.529   0.524   1.043  0.00  0.00     0.019 A 
ATOM      7  C   UNK d   1      -4.706   1.876   0.896  0.00  0.00     0.025 A 
ATOM      8  C   UNK d   1      -3.221  -1.528   0.755  0.00  0.00     0.141 A 
ATOM      9  N   UNK d   1      -3.974  -2.433   1.281  0.00  0.00    -0.270 NA
ATOM     10  C   UNK d   1      -3.386  -3.743   1.219  0.00  0.00     0.171 A 
ATOM     11  C   UNK d   1      -2.071  -3.524   0.537  0.00  0.00     0.157 A 
ATOM     12  N   UNK d   1      -2.027  -2.111   0.271  0.00  0.00    -0.281 N 
ATOM     13  C   UNK d   1      -1.023  -1.324  -0.357  0.00  0.00     0.331 A 
ATOM     14  O   UNK d   1       0.051  -1.825  -0.795  0.00  0.00    -0.246 OA
ATOM     15  N   UNK d   1      -1.176   0.097  -0.527  0.00  0.00    -0.290 N 
ENDROOT
BRANCH  15  16
ATOM     16  C   UNK d   1      -0.134   0.883  -1.173  0.00  0.00     0.236 C 
BRANCH  16  17
ATOM     17  C   UNK d   1       0.846   1.387  -0.184  0.00  0.00     0.236 C 
ATOM     18  O   UNK d   1       0.673   1.093   1.024  0.00  0.00    -0.272 OA
ATOM     19  N   UNK d   1       1.964   2.180  -0.537  0.00  0.00    -0.359 N 
ATOM     20  H   UNK d   1       2.094   2.414  -1.542  0.00  0.00     0.162 HD
BRANCH  19  21
ATOM     21  C   UNK d   1       2.905   2.658   0.447  0.00  0.00     0.127 C 
BRANCH  21  22
ATOM     22  C   UNK d   1       3.982   3.471  -0.221  0.00  0.00     0.003 A 
ATOM     23  C   UNK d   1       4.840   2.837  -1.258  0.00  0.00     0.007 A 
ATOM     24  C   UNK d   1       5.403   3.102   0.086  0.00  0.00     0.007 A 
ENDBRANCH  21  22
ENDBRANCH  19  21
ENDBRANCH  16  17
ENDBRANCH  15  16
TORSDOF 4
