REMARK  8 active torsions:
REMARK  status: ('A' for Active; 'I' for Inactive)
REMARK    1  A    between atoms: C_5  and  C_8 
REMARK    2  A    between atoms: C_10  and  C_24 
REMARK    3  A    between atoms: N_11  and  C_16 
REMARK    4  A    between atoms: C_16  and  C_17 
REMARK    5  A    between atoms: C_17  and  N_18 
REMARK    6  A    between atoms: C_27  and  O_30 
REMARK    7  A    between atoms: O_30  and  C_31 
REMARK    8  A    between atoms: C_31  and  C_32 
ROOT
ATOM      1  C   UNK d   1      -3.938  -0.690  -0.263  0.00  0.00     0.130 C 
ATOM      2  C   UNK d   1      -2.985   0.139   0.129  0.00  0.00     0.062 C 
ATOM      3  C   UNK d   1      -1.770  -0.246   0.935  0.00  0.00     0.161 C 
ATOM      4  N   UNK d   1      -1.204   0.991   1.390  0.00  0.00    -0.331 N 
ATOM      5  C   UNK d   1      -1.798   2.092   0.718  0.00  0.00     0.295 C 
ATOM      6  O   UNK d   1      -1.449   3.280   0.778  0.00  0.00    -0.264 OA
ATOM      7  C   UNK d   1      -2.925   1.551  -0.077  0.00  0.00     0.250 C 
ATOM      8  O   UNK d   1      -3.680   2.247  -0.796  0.00  0.00    -0.282 OA
ATOM      9  O   UNK d   1      -3.782  -2.042   0.125  0.00  0.00    -0.190 OA
ENDROOT
BRANCH   3  10
ATOM     10  C   UNK d   1      -0.881  -1.010   0.018  0.00  0.00    -0.030 A 
ATOM     11  C   UNK d   1      -0.670  -2.343   0.224  0.00  0.00     0.012 A 
ATOM     12  C   UNK d   1       0.137  -3.039  -0.630  0.00  0.00     0.037 A 
ATOM     13  C   UNK d   1       0.752  -2.433  -1.704  0.00  0.00     0.068 A 
ATOM     14  C   UNK d   1       0.540  -1.083  -1.914  0.00  0.00     0.037 A 
ATOM     15  C   UNK d   1      -0.281  -0.381  -1.044  0.00  0.00     0.012 A 
BRANCH  13  16
ATOM     16  O   UNK d   1       1.573  -3.149  -2.569  0.00  0.00    -0.351 OA
BRANCH  16  17
ATOM     17  C   UNK d   1       1.766  -4.548  -2.315  0.00  0.00     0.175 C 
BRANCH  17  18
ATOM     18  C   UNK d   1       2.695  -5.116  -3.385  0.00  0.00     0.022 C 
ATOM     19  C   UNK d   1       4.008  -4.353  -3.282  0.00  0.00     0.007 C 
ENDBRANCH  17  18
ENDBRANCH  16  17
ENDBRANCH  13  16
ENDBRANCH   3  10
BRANCH   4  20
ATOM     20  C   UNK d   1      -0.171   1.117   2.413  0.00  0.00     0.155 C 
BRANCH  20  21
ATOM     21  C   UNK d   1       1.175   1.090   1.775  0.00  0.00     0.255 C 
BRANCH  21  22
ATOM     22  N   UNK d   1       2.248   1.224   2.774  0.00  0.00    -0.066 N 
ATOM     23  C   UNK d   1       1.902   2.299   3.652  0.00  0.00     0.261 C 
ATOM     24  C   UNK d   1       3.102   2.779   4.465  0.00  0.00     0.195 C 
ATOM     25  O   UNK d   1       4.080   3.161   3.529  0.00  0.00    -0.388 OA
ATOM     26  C   UNK d   1       4.549   2.008   2.935  0.00  0.00     0.195 C 
ATOM     27  C   UNK d   1       3.470   1.445   2.032  0.00  0.00     0.261 C 
ATOM     28  H   UNK d   1       2.341   0.336   3.333  0.00  0.00     0.280 HD
ENDBRANCH  21  22
ENDBRANCH  20  21
ENDBRANCH   4  20
BRANCH   1  29
ATOM     29  C   UNK d   1      -5.080  -0.266  -1.042  0.00  0.00     0.001 A 
ATOM     30  C   UNK d   1      -6.374  -0.515  -0.564  0.00  0.00     0.016 A 
ATOM     31  C   UNK d   1      -7.506  -0.175  -1.275  0.00  0.00     0.024 A 
ATOM     32  C   UNK d   1      -7.406   0.432  -2.504  0.00  0.00     0.034 A 
ATOM     33 Cl   UNK d   1      -8.800   0.889  -3.456  0.00  0.00    -0.084 Cl
ATOM     34  C   UNK d   1      -6.159   0.687  -2.999  0.00  0.00     0.024 A 
ATOM     35  C   UNK d   1      -5.011   0.340  -2.274  0.00  0.00     0.016 A 
ENDBRANCH   1  29
TORSDOF 8
