REMARK  7 active torsions:
REMARK  status: ('A' for Active; 'I' for Inactive)
REMARK    1  A    between atoms: C_5  and  C_8 
REMARK    2  A    between atoms: C_8  and  O_9 
REMARK    3  A    between atoms: C_8  and  C_10 
REMARK    4  A    between atoms: N_17  and  C_20 
REMARK    5  A    between atoms: C_20  and  C_21 
REMARK    6  A    between atoms: C_21  and  C_22 
REMARK    7  A    between atoms: C_22  and  O_23 
ROOT
ATOM      1  C   UNK d   1      -1.532   0.610   1.231  0.00  0.00     0.269 C 
ATOM      2  N   UNK d   1      -2.151  -0.084   0.109  0.00  0.00     0.116 N 
ATOM      3  C   UNK d   1      -1.075  -0.682  -0.656  0.00  0.00     0.279 A 
ATOM      4  C   UNK d   1      -0.071  -1.026   0.406  0.00  0.00     0.147 C 
ATOM      5  C   UNK d   1      -0.156   0.086   1.403  0.00  0.00     0.131 C 
ATOM      6  C   UNK d   1       0.900   1.062   1.017  0.00  0.00     0.233 C 
ATOM      7  O   UNK d   1       1.009   2.244   1.421  0.00  0.00    -0.272 OA
ATOM      8  N   UNK d   1       1.769   0.376   0.089  0.00  0.00    -0.287 N 
ATOM      9  C   UNK d   1       1.332  -0.961  -0.039  0.00  0.00     0.234 C 
ATOM     10  O   UNK d   1       1.998  -1.940  -0.456  0.00  0.00    -0.272 OA
ATOM     11  C   UNK d   1      -1.522  -1.886  -1.398  0.00  0.00     0.017 A 
ATOM     12  C   UNK d   1      -1.344  -1.615  -2.734  0.00  0.00     0.044 A 
ATOM     13  C   UNK d   1      -1.684  -2.586  -3.666  0.00  0.00     0.030 A 
ATOM     14  C   UNK d   1      -2.187  -3.789  -3.230  0.00  0.00     0.002 A 
ATOM     15  C   UNK d   1      -2.369  -4.072  -1.887  0.00  0.00     0.001 A 
ATOM     16  C   UNK d   1      -2.028  -3.098  -0.972  0.00  0.00     0.012 A 
ATOM     17  N   UNK d   1      -0.811  -0.292  -2.926  0.00  0.00    -0.324 N 
ATOM     18  C   UNK d   1      -0.648   0.291  -1.646  0.00  0.00     0.267 A 
ATOM     19  O   UNK d   1      -0.213   1.439  -1.459  0.00  0.00    -0.270 OA
ATOM     20  H   UNK d   1      -2.709   0.566  -0.455  0.00  0.00     0.318 HD
ATOM     21  H   UNK d   1      -0.602   0.108  -3.869  0.00  0.00     0.169 HD
ENDROOT
BRANCH   1  22
ATOM     22  C   UNK d   1      -2.441   0.378   2.408  0.00  0.00     0.185 C 
BRANCH  22  23
ATOM     23  C   UNK d   1      -2.723  -1.065   2.653  0.00  0.00    -0.028 A 
ATOM     24  C   UNK d   1      -3.794  -1.692   2.018  0.00  0.00     0.011 A 
ATOM     25  C   UNK d   1      -4.086  -3.012   2.242  0.00  0.00     0.024 A 
ATOM     26  C   UNK d   1      -3.334  -3.784   3.106  0.00  0.00     0.034 A 
ATOM     27 Cl   UNK d   1      -3.697  -5.476   3.402  0.00  0.00    -0.084 Cl
ATOM     28  C   UNK d   1      -2.282  -3.144   3.722  0.00  0.00     0.024 A 
ATOM     29  C   UNK d   1      -1.968  -1.822   3.515  0.00  0.00     0.011 A 
ENDBRANCH  22  23
BRANCH  22  30
ATOM     30  O   UNK d   1      -2.003   0.952   3.573  0.00  0.00    -0.389 OA
ATOM     31  H   UNK d   1      -2.075   1.936   3.477  0.00  0.00     0.210 HD
ENDBRANCH  22  30
ENDBRANCH   1  22
BRANCH   8  32
ATOM     32  C   UNK d   1       2.881   0.970  -0.593  0.00  0.00     0.137 C 
BRANCH  32  33
ATOM     33  C   UNK d   1       4.183   0.914   0.114  0.00  0.00     0.046 C 
BRANCH  33  34
ATOM     34  C   UNK d   1       4.723  -0.439   0.419  0.00  0.00     0.168 C 
BRANCH  34  35
ATOM     35  O   UNK d   1       4.957  -1.207  -0.714  0.00  0.00    -0.396 OA
ATOM     36  C   UNK d   1       5.468  -2.464  -0.328  0.00  0.00     0.201 C 
ENDBRANCH  34  35
ENDBRANCH  33  34
ENDBRANCH  32  33
ENDBRANCH   8  32
TORSDOF 7
