# created with PyMOL 2.3.2
@<TRIPOS>MOLECULE
1958
48 51 1                 
SMALL
USER_CHARGES
@<TRIPOS>ATOM
1	  Cl	1.421	2.216	-7.465	Cl	1	UNK0	0.000	
2	   C	0.689	1.184	-6.256	C.2	1	UNK0	0.000	
3	   C	0.991	-0.173	-6.205	C.2	1	UNK0	0.000	
4	   C	0.408	-0.975	-5.248	C.2	1	UNK0	0.000	
5	   C	-0.483	-0.482	-4.319	C.2	1	UNK0	0.000	
6	   C	-0.787	0.861	-4.363	C.2	1	UNK0	0.000	
7	   C	-0.205	1.664	-5.318	C.2	1	UNK0	0.000	
8	   C	-1.121	-1.311	-3.284	C.3	1	UNK0	0.000	
9	   C	-0.296	-1.349	-2.034	C.2	1	UNK0	0.000	
10	   O	0.799	-0.687	-2.052	O.2	1	UNK0	0.000	
11	   N	-0.705	-2.073	-0.905	N.pl3	1	UNK0	0.000	
12	   C	-1.926	-2.814	-0.878	C.3	1	UNK0	0.000	
13	   C	-2.517	-2.986	0.493	C.3	1	UNK0	0.000	
14	   C	-2.054	-1.899	1.389	C.2	1	UNK0	0.000	
15	   C	-0.757	-1.426	1.315	C.2	1	UNK0	0.000	
16	   N	-0.328	-0.450	2.123	N.2	1	UNK0	0.000	
17	   C	-1.119	0.131	3.050	C.2	1	UNK0	0.000	
18	   N	-2.391	-0.329	3.126	N.2	1	UNK0	0.000	
19	   C	-2.868	-1.307	2.337	C.2	1	UNK0	0.000	
20	   O	-4.177	-1.755	2.441	O.3	1	UNK0	0.000	
21	   N	-0.620	1.155	3.873	N.pl3	1	UNK0	0.000	
22	   C	-1.447	1.754	4.878	C.3	1	UNK0	0.000	
23	   C	-0.491	2.356	5.918	C.3	1	UNK0	0.000	
24	   O	0.289	3.340	5.364	O.3	1	UNK0	0.000	
25	   C	0.885	3.037	4.170	C.3	1	UNK0	0.000	
26	   C	0.728	1.613	3.713	C.3	1	UNK0	0.000	
27	   C	0.120	-2.076	0.271	C.3	1	UNK0	0.000	
28	   H	1.686	-0.566	-6.927	 H	1	UNK0	0.000	
29	   H	0.637	-2.037	-5.200	 H	1	UNK0	0.000	
30	   H	-1.491	1.315	-3.648	 H	1	UNK0	0.000	
31	   H	-0.442	2.738	-5.361	 H	1	UNK0	0.000	
32	   H	-1.258	-2.336	-3.711	 H	1	UNK0	0.000	
33	   H	-2.133	-0.891	-3.097	 H	1	UNK0	0.000	
34	   H	-2.672	-2.455	-1.622	 H	1	UNK0	0.000	
35	   H	-1.692	-3.871	-1.227	 H	1	UNK0	0.000	
36	   H	-2.230	-3.975	0.959	 H	1	UNK0	0.000	
37	   H	-3.632	-3.015	0.472	 H	1	UNK0	0.000	
38	   H	-4.976	-1.160	2.207	 H	1	UNK0	0.000	
39	   H	-2.057	1.008	5.439	 H	1	UNK0	0.000	
40	   H	-2.133	2.542	4.483	 H	1	UNK0	0.000	
41	   H	0.170	1.523	6.236	 H	1	UNK0	0.000	
42	   H	-1.032	2.730	6.787	 H	1	UNK0	0.000	
43	   H	0.524	3.712	3.362	 H	1	UNK0	0.000	
44	   H	1.989	3.217	4.281	 H	1	UNK0	0.000	
45	   H	1.467	0.958	4.253	 H	1	UNK0	0.000	
46	   H	0.984	1.599	2.630	 H	1	UNK0	0.000	
47	   H	1.039	-1.480	0.118	 H	1	UNK0	0.000	
48	   H	0.399	-3.101	0.599	 H	1	UNK0	0.000	
@<TRIPOS>BOND
1 1 2 1
2 2 3 2
3 2 7 1
4 3 4 1
5 4 5 2
6 5 6 1
7 5 8 1
8 6 7 2
9 8 9 1
10 9 10 2
11 9 11 1
12 11 12 1
13 11 27 1
14 12 13 1
15 13 14 1
16 14 15 2
17 14 19 1
18 15 16 1
19 15 27 1
20 16 17 2
21 17 18 1
22 17 21 1
23 18 19 2
24 19 20 1
25 21 22 1
26 21 26 1
27 22 23 1
28 23 24 1
29 24 25 1
30 25 26 1
31 3 28 1
32 4 29 1
33 6 30 1
34 7 31 1
35 8 32 1
36 8 33 1
37 12 34 1
38 12 35 1
39 13 36 1
40 13 37 1
41 20 38 1
42 22 39 1
43 22 40 1
44 23 41 1
45 23 42 1
46 25 43 1
47 25 44 1
48 26 45 1
49 26 46 1
50 27 47 1
51 27 48 1
@<TRIPOS>SUBSTRUCTURE
1	UNK0	1	GROUP	1 ****	UNK
