REMARK  4 active torsions:
REMARK  status: ('A' for Active; 'I' for Inactive)
REMARK    1  A    between atoms: C_5  and  C_8 
REMARK    2  A    between atoms: C_8  and  C_9 
REMARK       I    between atoms: C_9  and  N_11 
REMARK    3  A    between atoms: N_14  and  C_17 
REMARK    4  A    between atoms: C_21  and  N_23 
ROOT
ATOM      1  C   UNK d   1      -0.600   0.100   1.945  0.00  0.00     0.224 C 
ATOM      2  O   UNK d   1       0.347  -0.725   1.854  0.00  0.00    -0.273 OA
ATOM      3  N   UNK d   1      -0.355   1.444   1.622  0.00  0.00    -0.349 N 
ATOM      4  C   UNK d   1       0.980   1.890   1.186  0.00  0.00     0.145 C 
ATOM      5  C   UNK d   1       0.796   2.939   0.100  0.00  0.00     0.143 C 
ATOM      6  N   UNK d   1      -0.471   2.654  -0.543  0.00  0.00    -0.376 N 
ATOM      7  C   UNK d   1      -1.652   2.973   0.241  0.00  0.00     0.143 C 
ATOM      8  C   UNK d   1      -1.353   2.503   1.675  0.00  0.00     0.145 C 
ENDROOT
BRANCH   6   9
ATOM      9  C   UNK d   1      -0.546   2.088  -1.842  0.00  0.00     0.053 A 
ATOM     10  C   UNK d   1      -1.752   2.062  -2.518  0.00  0.00     0.170 A 
ATOM     11  N   UNK d   1      -1.799   1.500  -3.761  0.00  0.00    -0.158 NA
ATOM     12  N   UNK d   1      -0.743   0.976  -4.352  0.00  0.00    -0.132 NA
ATOM     13  C   UNK d   1       0.482   0.968  -3.741  0.00  0.00     0.150 A 
ATOM     14  C   UNK d   1       0.524   1.530  -2.501  0.00  0.00     0.083 A 
BRANCH  13  15
ATOM     15  N   UNK d   1       1.570   0.388  -4.430  0.00  0.00    -0.360 N 
ATOM     16  C   UNK d   1       1.403  -0.158  -5.764  0.00  0.00     0.151 C 
ATOM     17  C   UNK d   1       2.101  -1.514  -5.878  0.00  0.00     0.187 C 
ATOM     18  O   UNK d   1       3.379  -1.474  -5.357  0.00  0.00    -0.388 OA
ATOM     19  C   UNK d   1       3.282  -1.187  -4.004  0.00  0.00     0.187 C 
ATOM     20  C   UNK d   1       2.891   0.295  -3.864  0.00  0.00     0.151 C 
ENDBRANCH  13  15
ENDBRANCH   6   9
BRANCH   1  21
ATOM     21  C   UNK d   1      -1.910  -0.414   2.388  0.00  0.00     0.141 C 
BRANCH  21  22
ATOM     22  C   UNK d   1      -1.862  -1.878   2.646  0.00  0.00    -0.049 A 
ATOM     23  C   UNK d   1      -2.159  -2.761   1.611  0.00  0.00     0.009 A 
ATOM     24  C   UNK d   1      -2.124  -4.129   1.810  0.00  0.00     0.024 A 
ATOM     25  C   UNK d   1      -1.788  -4.654   3.059  0.00  0.00     0.034 A 
ATOM     26 Cl   UNK d   1      -1.741  -6.371   3.318  0.00  0.00    -0.084 Cl
ATOM     27  C   UNK d   1      -1.498  -3.768   4.070  0.00  0.00     0.024 A 
ATOM     28  C   UNK d   1      -1.532  -2.388   3.871  0.00  0.00     0.009 A 
ENDBRANCH  21  22
ENDBRANCH   1  21
TORSDOF 4
