# created with PyMOL 2.3.2
@<TRIPOS>MOLECULE
1966
37 40 1                 
SMALL
USER_CHARGES
@<TRIPOS>ATOM
1	   F	1.688	0.071	-0.074	 F	1	UNK0	0.000	
2	   C	1.840	1.328	-0.558	C.2	1	UNK0	0.000	
3	   N	2.719	2.218	-0.004	N.pl3	1	UNK0	0.000	
4	   C	2.594	3.339	-0.732	C.2	1	UNK0	0.000	
5	   N	1.676	3.146	-1.693	N.2	1	UNK0	0.000	
6	   C	1.179	1.896	-1.618	C.2	1	UNK0	0.000	
7	   C	0.147	1.298	-2.507	C.2	1	UNK0	0.000	
8	   O	-0.234	2.157	-3.394	O.2	1	UNK0	0.000	
9	   N	-0.341	0.019	-2.414	N.pl3	1	UNK0	0.000	
10	   C	-0.827	-1.252	-2.321	C.3	1	UNK0	0.000	
11	   C	-0.251	-2.091	-1.208	C.2	1	UNK0	0.000	
12	   N	-0.859	-2.381	-0.055	N.pl3	1	UNK0	0.000	
13	   N	-0.039	-3.138	0.654	N.2	1	UNK0	0.000	
14	   N	1.076	-3.341	-0.014	N.2	1	UNK0	0.000	
15	   N	0.936	-2.688	-1.168	N.2	1	UNK0	0.000	
16	   C	-2.173	-1.920	0.265	C.2	1	UNK0	0.000	
17	   C	-3.127	-2.864	0.630	C.2	1	UNK0	0.000	
18	   C	-4.428	-2.484	0.936	C.2	1	UNK0	0.000	
19	   C	-4.815	-1.160	0.887	C.2	1	UNK0	0.000	
20	   C	-3.864	-0.230	0.525	C.2	1	UNK0	0.000	
21	   C	-2.568	-0.605	0.219	C.2	1	UNK0	0.000	
22	   C	3.379	4.409	-0.378	C.2	1	UNK0	0.000	
23	   C	4.278	4.359	0.689	C.2	1	UNK0	0.000	
24	   C	4.378	3.198	1.408	C.2	1	UNK0	0.000	
25	   C	3.572	2.130	1.030	C.2	1	UNK0	0.000	
26	  Cl	5.496	3.062	2.765	Cl	1	UNK0	0.000	
27	   H	-1.171	0.243	-3.477	 H	1	UNK0	0.000	
28	   H	-0.606	-1.879	-3.261	 H	1	UNK0	0.000	
29	   H	-1.957	-1.378	-2.252	 H	1	UNK0	0.000	
30	   H	-2.839	-3.902	0.674	 H	1	UNK0	0.000	
31	   H	-5.180	-3.207	1.219	 H	1	UNK0	0.000	
32	   H	-5.846	-0.857	1.125	 H	1	UNK0	0.000	
33	   H	-4.168	0.827	0.484	 H	1	UNK0	0.000	
34	   H	-1.852	0.157	-0.062	 H	1	UNK0	0.000	
35	   H	3.335	5.346	-0.916	 H	1	UNK0	0.000	
36	   H	4.899	5.221	0.965	 H	1	UNK0	0.000	
37	   H	3.667	1.225	1.607	 H	1	UNK0	0.000	
@<TRIPOS>BOND
1 1 2 1
2 2 3 1
3 2 6 2
4 3 4 1
5 3 25 1
6 4 5 2
7 4 22 1
8 5 6 1
9 6 7 1
10 7 8 2
11 7 9 1
12 9 10 1
13 10 11 1
14 11 12 1
15 11 15 2
16 12 13 1
17 12 16 1
18 13 14 2
19 14 15 1
20 16 17 2
21 16 21 1
22 17 18 1
23 18 19 2
24 19 20 1
25 20 21 2
26 22 23 2
27 23 24 1
28 24 25 2
29 24 26 1
30 9 27 1
31 10 28 1
32 10 29 1
33 17 30 1
34 18 31 1
35 19 32 1
36 20 33 1
37 21 34 1
38 22 35 1
39 23 36 1
40 25 37 1
@<TRIPOS>SUBSTRUCTURE
1	UNK0	1	GROUP	1 ****	UNK
