REMARK  3 active torsions:
REMARK  status: ('A' for Active; 'I' for Inactive)
REMARK    1  A    between atoms: C_6  and  C_7 
REMARK       I    between atoms: C_7  and  N_9 
REMARK    2  A    between atoms: C_10  and  C_11 
REMARK    3  A    between atoms: N_12  and  C_16 
ROOT
ATOM      1  C   UNK d   1       0.147   1.298  -2.507  0.00  0.00     0.275 C 
ATOM      2  O   UNK d   1      -0.234   2.157  -3.394  0.00  0.00    -0.266 OA
ATOM      3  N   UNK d   1      -0.341   0.019  -2.414  0.00  0.00    -0.348 N 
ATOM      4  C   UNK d   1      -0.827  -1.252  -2.321  0.00  0.00     0.205 C 
ATOM      5  H   UNK d   1      -1.171   0.243  -3.477  0.00  0.00     0.163 HD
ENDROOT
BRANCH   1   6
ATOM      6  C   UNK d   1       1.179   1.896  -1.618  0.00  0.00     0.183 A 
ATOM      7  C   UNK d   1       1.840   1.328  -0.558  0.00  0.00     0.231 A 
ATOM      8  F   UNK d   1       1.688   0.071  -0.074  0.00  0.00    -0.183 F 
ATOM      9  N   UNK d   1       2.719   2.218  -0.004  0.00  0.00    -0.279 N 
ATOM     10  C   UNK d   1       2.594   3.339  -0.732  0.00  0.00     0.137 A 
ATOM     11  C   UNK d   1       3.572   2.130   1.030  0.00  0.00     0.125 A 
ATOM     12  N   UNK d   1       1.676   3.146  -1.693  0.00  0.00    -0.220 NA
ATOM     13  C   UNK d   1       3.379   4.409  -0.378  0.00  0.00     0.053 A 
ATOM     14  C   UNK d   1       4.278   4.359   0.689  0.00  0.00     0.029 A 
ATOM     15  C   UNK d   1       4.378   3.198   1.408  0.00  0.00     0.050 A 
ATOM     16 Cl   UNK d   1       5.496   3.062   2.765  0.00  0.00    -0.083 Cl
ENDBRANCH   1   6
BRANCH   4  17
ATOM     17  C   UNK d   1      -0.251  -2.091  -1.208  0.00  0.00     0.171 A 
ATOM     18  N   UNK d   1      -0.859  -2.381  -0.055  0.00  0.00    -0.197 N 
ATOM     19  N   UNK d   1      -0.039  -3.138   0.654  0.00  0.00    -0.039 NA
ATOM     20  N   UNK d   1       1.076  -3.341  -0.014  0.00  0.00    -0.023 NA
ATOM     21  N   UNK d   1       0.936  -2.688  -1.168  0.00  0.00    -0.112 NA
BRANCH  18  22
ATOM     22  C   UNK d   1      -2.173  -1.920   0.265  0.00  0.00     0.062 A 
ATOM     23  C   UNK d   1      -3.127  -2.864   0.630  0.00  0.00     0.032 A 
ATOM     24  C   UNK d   1      -4.428  -2.484   0.936  0.00  0.00     0.002 A 
ATOM     25  C   UNK d   1      -4.815  -1.160   0.887  0.00  0.00     0.000 A 
ATOM     26  C   UNK d   1      -3.864  -0.230   0.525  0.00  0.00     0.002 A 
ATOM     27  C   UNK d   1      -2.568  -0.605   0.219  0.00  0.00     0.032 A 
ENDBRANCH  18  22
ENDBRANCH   4  17
TORSDOF 3
