REMARK  3 active torsions:
REMARK  status: ('A' for Active; 'I' for Inactive)
REMARK    1  A    between atoms: C_4  and  N_8 
REMARK    2  A    between atoms: C_11  and  C_13 
REMARK    3  A    between atoms: N_18  and  C_21 
ROOT
ATOM      1  C   UNK d   1      -1.037  -2.449   0.751  0.00  0.00     0.209 C 
ATOM      2  O   UNK d   1      -1.809  -3.552   1.102  0.00  0.00    -0.170 OA
ATOM      3  N   UNK d   1      -1.739  -1.299   0.890  0.00  0.00    -0.354 N 
ATOM      4  C   UNK d   1      -1.361   0.076   0.750  0.00  0.00     0.145 C 
ATOM      5  C   UNK d   1      -2.298   0.951   1.608  0.00  0.00     0.161 C 
ATOM      6  N   UNK d   1      -2.623   0.094   2.757  0.00  0.00    -0.211 N 
ATOM      7  C   UNK d   1      -3.487  -1.022   2.558  0.00  0.00     0.161 C 
ATOM      8  C   UNK d   1      -3.199  -1.488   1.167  0.00  0.00     0.145 C 
ENDROOT
BRANCH   1   9
ATOM      9  C   UNK d   1       0.225  -3.065   0.382  0.00  0.00     0.151 A 
ATOM     10  N   UNK d   1       1.281  -3.581   0.075  0.00  0.00    -0.126 NA
ATOM     11  N   UNK d   1       2.201  -3.289  -0.613  0.00  0.00    -0.060 NA
ATOM     12  N   UNK d   1       1.906  -2.102  -1.098  0.00  0.00    -0.224 N 
ATOM     13  C   UNK d   1       0.731  -1.799  -0.614  0.00  0.00     0.158 A 
BRANCH  12  14
ATOM     14  C   UNK d   1       2.815  -1.418  -1.991  0.00  0.00     0.061 A 
ATOM     15  C   UNK d   1       2.487  -0.361  -2.767  0.00  0.00     0.055 A 
ATOM     16  C   UNK d   1       3.423   0.248  -3.593  0.00  0.00     0.036 A 
ATOM     17 Cl   UNK d   1       3.076   1.599  -4.626  0.00  0.00    -0.084 Cl
ATOM     18  C   UNK d   1       4.766  -0.249  -3.634  0.00  0.00     0.024 A 
ATOM     19  C   UNK d   1       5.077  -1.304  -2.848  0.00  0.00     0.004 A 
ATOM     20  C   UNK d   1       4.122  -1.856  -2.063  0.00  0.00     0.032 A 
ENDBRANCH  12  14
ENDBRANCH   1   9
BRANCH   6  21
ATOM     21  C   UNK d   1      -1.995   0.317   3.977  0.00  0.00     0.724 A 
ATOM     22  N   UNK d   1      -0.617   0.121   4.124  0.00  0.00    -0.075 NA
ATOM     23  C   UNK d   1       0.065   0.322   5.196  0.00  0.00     0.138 A 
ATOM     24  C   UNK d   1      -0.531   0.791   6.377  0.00  0.00     0.040 A 
ATOM     25  C   UNK d   1      -1.900   0.982   6.243  0.00  0.00     0.138 A 
ATOM     26  N   UNK d   1      -2.524   0.759   5.148  0.00  0.00    -0.075 NA
ENDBRANCH   6  21
TORSDOF 3
