REMARK  3 active torsions:
REMARK  status: ('A' for Active; 'I' for Inactive)
REMARK    1  A    between atoms: C_4  and  N_8 
REMARK    2  A    between atoms: C_12  and  C_20 
REMARK    3  A    between atoms: C_20  and  O_21 
ROOT
ATOM      1  N   UNK d   1      -0.908   0.438  -0.677  0.00  0.00    -0.252 N 
ATOM      2  C   UNK d   1      -0.872   0.940   0.672  0.00  0.00     0.239 C 
ATOM      3  O   UNK d   1      -0.065   1.804   1.089  0.00  0.00    -0.272 OA
ATOM      4  C   UNK d   1      -1.911   0.291   1.467  0.00  0.00     0.135 C 
ATOM      5  C   UNK d   1      -1.422  -0.704   2.467  0.00  0.00     0.113 C 
ATOM      6  O   UNK d   1      -2.563  -1.540   2.565  0.00  0.00    -0.363 OA
ATOM      7  C   UNK d   1      -2.579  -1.951   1.207  0.00  0.00     0.159 C 
ATOM      8  C   UNK d   1      -2.687  -0.621   0.503  0.00  0.00     0.128 C 
ATOM      9  C   UNK d   1      -1.868  -0.612  -0.711  0.00  0.00     0.239 C 
ATOM     10  O   UNK d   1      -1.981  -1.414  -1.670  0.00  0.00    -0.272 OA
ATOM     11  C   UNK d   1      -1.190  -2.432   1.053  0.00  0.00     0.005 C 
ATOM     12  C   UNK d   1      -0.454  -1.660   1.885  0.00  0.00     0.012 C 
ENDROOT
BRANCH   1  13
ATOM     13  C   UNK d   1      -0.147   0.871  -1.798  0.00  0.00     0.046 A 
ATOM     14  C   UNK d   1       0.662   0.008  -2.520  0.00  0.00     0.054 A 
ATOM     15  C   UNK d   1       1.398   0.429  -3.607  0.00  0.00     0.036 A 
ATOM     16 Cl   UNK d   1       2.416  -0.673  -4.508  0.00  0.00    -0.084 Cl
ATOM     17  C   UNK d   1       1.357   1.744  -4.024  0.00  0.00     0.024 A 
ATOM     18  C   UNK d   1       0.553   2.611  -3.312  0.00  0.00     0.004 A 
ATOM     19  C   UNK d   1      -0.188   2.186  -2.217  0.00  0.00     0.030 A 
ENDBRANCH   1  13
BRANCH   5  20
ATOM     20  C   UNK d   1      -1.031  -0.140   3.787  0.00  0.00     0.207 C 
BRANCH  20  21
ATOM     21  O   UNK d   1      -0.734  -1.177   4.662  0.00  0.00    -0.398 OA
ATOM     22  H   UNK d   1      -0.878  -2.047   4.223  0.00  0.00     0.209 HD
ENDBRANCH  20  21
ENDBRANCH   5  20
TORSDOF 3
