REMARK  1 active torsions:
REMARK  status: ('A' for Active; 'I' for Inactive)
REMARK       I    between atoms: N_10  and  C_13 
REMARK    1  A    between atoms: C_13  and  C_15 
ROOT
ATOM      1 Cl   UNK d   1       4.827   5.287  -3.746  0.00  0.00    -0.083 Cl
ATOM      2  C   UNK d   1       3.616   4.736  -2.589  0.00  0.00     0.050 A 
ATOM      3  C   UNK d   1       3.747   3.545  -1.905  0.00  0.00     0.125 A 
ATOM      4  N   UNK d   1       2.828   3.105  -1.012  0.00  0.00    -0.271 N 
ATOM      5  C   UNK d   1       1.717   3.813  -0.736  0.00  0.00     0.137 A 
ATOM      6  N   UNK d   1       0.784   3.388   0.156  0.00  0.00    -0.234 NA
ATOM      7  C   UNK d   1       0.904   2.228   0.827  0.00  0.00     0.051 A 
ATOM      8  C   UNK d   1       2.047   1.484   0.553  0.00  0.00     0.053 A 
ATOM      9  C   UNK d   1       2.181   0.202   1.293  0.00  0.00     0.172 C 
ATOM     10  N   UNK d   1       0.861  -0.433   1.205  0.00  0.00    -0.347 N 
ATOM     11  C   UNK d   1      -0.249   0.257   1.799  0.00  0.00     0.132 C 
ATOM     12  C   UNK d   1      -0.107   1.753   1.806  0.00  0.00     0.080 C 
ATOM     13  C   UNK d   1       0.702  -1.674   0.550  0.00  0.00     0.224 C 
ATOM     14  O   UNK d   1       1.750  -2.198   0.041  0.00  0.00    -0.273 OA
ATOM     15  C   UNK d   1       2.976   1.940  -0.356  0.00  0.00     0.263 A 
ATOM     16  O   UNK d   1       4.014   1.240  -0.589  0.00  0.00    -0.267 OA
ATOM     17  C   UNK d   1       1.566   5.012  -1.413  0.00  0.00     0.053 A 
ATOM     18  C   UNK d   1       2.487   5.482  -2.326  0.00  0.00     0.029 A 
ENDROOT
BRANCH  13  19
ATOM     19  C   UNK d   1      -0.602  -2.365   0.441  0.00  0.00     0.082 C 
ATOM     20  C   UNK d   1      -1.139  -2.790   1.790  0.00  0.00     0.040 C 
ATOM     21  C   UNK d   1       0.057  -3.339   2.557  0.00  0.00     0.168 C 
ATOM     22  O   UNK d   1       0.890  -4.055   1.699  0.00  0.00    -0.391 OA
ATOM     23  C   UNK d   1       0.161  -4.670   0.672  0.00  0.00     0.168 C 
ATOM     24  C   UNK d   1      -0.373  -3.670  -0.336  0.00  0.00     0.040 C 
ENDBRANCH  13  19
TORSDOF 1
