# created with PyMOL 2.3.2
@<TRIPOS>MOLECULE
1974
41 44 1                 
SMALL
USER_CHARGES
@<TRIPOS>ATOM
1	   F	-0.140	0.282	4.345	 F	1	UNK0	0.000	
2	   C	-0.109	1.602	4.042	C.2	1	UNK0	0.000	
3	   C	-0.468	1.993	2.761	C.2	1	UNK0	0.000	
4	   C	-0.460	3.317	2.381	C.2	1	UNK0	0.000	
5	   C	-0.078	4.254	3.326	C.2	1	UNK0	0.000	
6	   C	0.278	3.868	4.597	C.2	1	UNK0	0.000	
7	   C	0.268	2.544	4.970	C.2	1	UNK0	0.000	
8	  Cl	-0.066	5.942	2.847	Cl	1	UNK0	0.000	
9	   C	-0.872	3.471	1.001	C.2	1	UNK0	0.000	
10	   O	-0.979	4.524	0.332	O.2	1	UNK0	0.000	
11	   C	-1.147	2.121	0.526	C.2	1	UNK0	0.000	
12	   O	-1.538	1.820	-0.645	O.2	1	UNK0	0.000	
13	   N	-0.896	1.238	1.608	N.pl3	1	UNK0	0.000	
14	   C	-1.032	-0.204	1.603	C.3	1	UNK0	0.000	
15	   N	0.181	-0.894	1.218	N.3	1	UNK0	0.000	
16	   C	-0.008	-2.304	1.226	C.3	1	UNK0	0.000	
17	   C	0.561	-3.036	0.062	C.3	1	UNK0	0.000	
18	   N	0.413	-2.339	-1.189	N.pl3	1	UNK0	0.000	
19	   C	0.115	-0.926	-1.160	C.3	1	UNK0	0.000	
20	   C	0.811	-0.359	0.059	C.3	1	UNK0	0.000	
21	   C	0.550	-2.986	-2.438	C.2	1	UNK0	0.000	
22	   N	0.407	-2.315	-3.593	N.2	1	UNK0	0.000	
23	   C	0.532	-2.909	-4.796	C.2	1	UNK0	0.000	
24	   C	0.818	-4.258	-4.883	C.2	1	UNK0	0.000	
25	   N	0.963	-4.934	-3.732	N.2	1	UNK0	0.000	
26	   C	0.838	-4.342	-2.529	C.2	1	UNK0	0.000	
27	   H	0.576	4.635	5.325	 H	1	UNK0	0.000	
28	   H	0.557	2.266	5.991	 H	1	UNK0	0.000	
29	   H	-1.395	-0.498	2.592	 H	1	UNK0	0.000	
30	   H	-1.819	-0.478	0.870	 H	1	UNK0	0.000	
31	   H	0.467	-2.709	2.157	 H	1	UNK0	0.000	
32	   H	-1.102	-2.541	1.348	 H	1	UNK0	0.000	
33	   H	1.611	-3.379	0.233	 H	1	UNK0	0.000	
34	   H	-0.030	-3.993	-0.045	 H	1	UNK0	0.000	
35	   H	-0.988	-0.852	-0.966	 H	1	UNK0	0.000	
36	   H	0.408	-0.409	-2.089	 H	1	UNK0	0.000	
37	   H	0.859	0.726	0.099	 H	1	UNK0	0.000	
38	   H	1.884	-0.709	0.066	 H	1	UNK0	0.000	
39	   H	0.414	-2.357	-5.723	 H	1	UNK0	0.000	
40	   H	0.914	-4.711	-5.865	 H	1	UNK0	0.000	
41	   H	0.953	-4.881	-1.596	 H	1	UNK0	0.000	
@<TRIPOS>BOND
1 1 2 1
2 2 3 2
3 2 7 1
4 3 4 1
5 3 13 1
6 4 5 2
7 4 9 1
8 5 6 1
9 5 8 1
10 6 7 2
11 9 10 2
12 9 11 1
13 11 12 2
14 11 13 1
15 13 14 1
16 14 15 1
17 15 16 1
18 15 20 1
19 16 17 1
20 17 18 1
21 18 19 1
22 18 21 1
23 19 20 1
24 21 22 2
25 21 26 1
26 22 23 1
27 23 24 2
28 24 25 1
29 25 26 2
30 6 27 1
31 7 28 1
32 14 29 1
33 14 30 1
34 16 31 1
35 16 32 1
36 17 33 1
37 17 34 1
38 19 35 1
39 19 36 1
40 20 37 1
41 20 38 1
42 23 39 1
43 24 40 1
44 26 41 1
@<TRIPOS>SUBSTRUCTURE
1	UNK0	1	GROUP	1 ****	UNK
