REMARK  3 active torsions:
REMARK  status: ('A' for Active; 'I' for Inactive)
REMARK    1  A    between atoms: N_13  and  C_14 
REMARK    2  A    between atoms: C_14  and  N_15 
REMARK    3  A    between atoms: N_18  and  C_21 
ROOT
ATOM      1  F   UNK d   1      -0.140   0.282   4.345  0.00  0.00    -0.204 F 
ATOM      2  C   UNK d   1      -0.109   1.602   4.042  0.00  0.00     0.144 A 
ATOM      3  C   UNK d   1      -0.468   1.993   2.761  0.00  0.00     0.094 A 
ATOM      4  C   UNK d   1      -0.460   3.317   2.381  0.00  0.00     0.071 A 
ATOM      5  C   UNK d   1      -0.078   4.254   3.326  0.00  0.00     0.051 A 
ATOM      6  C   UNK d   1       0.278   3.868   4.597  0.00  0.00     0.028 A 
ATOM      7  C   UNK d   1       0.268   2.544   4.970  0.00  0.00     0.046 A 
ATOM      8 Cl   UNK d   1      -0.066   5.942   2.847  0.00  0.00    -0.083 Cl
ATOM      9  C   UNK d   1      -0.872   3.471   1.001  0.00  0.00     0.254 A 
ATOM     10  O   UNK d   1      -0.979   4.524   0.332  0.00  0.00    -0.281 OA
ATOM     11  C   UNK d   1      -1.147   2.121   0.526  0.00  0.00     0.301 A 
ATOM     12  O   UNK d   1      -1.538   1.820  -0.645  0.00  0.00    -0.263 OA
ATOM     13  N   UNK d   1      -0.896   1.238   1.608  0.00  0.00    -0.280 N 
ENDROOT
BRANCH  13  14
ATOM     14  C   UNK d   1      -1.032  -0.204   1.603  0.00  0.00     0.405 C 
BRANCH  14  15
ATOM     15  N   UNK d   1       0.181  -0.894   1.218  0.00  0.00     0.109 N 
ATOM     16  C   UNK d   1      -0.008  -2.304   1.226  0.00  0.00     0.294 C 
ATOM     17  C   UNK d   1       0.561  -3.036   0.062  0.00  0.00     0.154 C 
ATOM     18  N   UNK d   1       0.413  -2.339  -1.189  0.00  0.00    -0.361 N 
ATOM     19  C   UNK d   1       0.115  -0.926  -1.160  0.00  0.00     0.154 C 
ATOM     20  C   UNK d   1       0.811  -0.359   0.059  0.00  0.00     0.294 C 
BRANCH  18  21
ATOM     21  C   UNK d   1       0.550  -2.986  -2.438  0.00  0.00     0.143 A 
ATOM     22  N   UNK d   1       0.407  -2.315  -3.593  0.00  0.00    -0.241 NA
ATOM     23  C   UNK d   1       0.532  -2.909  -4.796  0.00  0.00     0.138 A 
ATOM     24  C   UNK d   1       0.818  -4.258  -4.883  0.00  0.00     0.135 A 
ATOM     25  N   UNK d   1       0.963  -4.934  -3.732  0.00  0.00    -0.268 NA
ATOM     26  C   UNK d   1       0.838  -4.342  -2.529  0.00  0.00     0.166 A 
ENDBRANCH  18  21
ENDBRANCH  14  15
ENDBRANCH  13  14
TORSDOF 3
