REMARK  3 active torsions:
REMARK  status: ('A' for Active; 'I' for Inactive)
REMARK    1  A    between atoms: N_15  and  C_19 
REMARK    2  A    between atoms: C_19  and  C_20 
REMARK    3  A    between atoms: C_20  and  C_21 
REMARK       I    between atoms: C_21  and  N_23 
ROOT
ATOM      1 Cl   UNK d   1       2.892   4.327   1.869  0.00  0.00    -0.084 Cl
ATOM      2  C   UNK d   1       1.442   3.346   1.863  0.00  0.00     0.036 A 
ATOM      3  C   UNK d   1       1.324   2.195   1.112  0.00  0.00     0.055 A 
ATOM      4  C   UNK d   1       0.187   1.413   1.097  0.00  0.00     0.077 A 
ATOM      5  C   UNK d   1      -0.877   1.818   1.880  0.00  0.00     0.038 A 
ATOM      6  C   UNK d   1      -0.771   2.967   2.636  0.00  0.00     0.019 A 
ATOM      7  C   UNK d   1       0.366   3.749   2.650  0.00  0.00     0.025 A 
ATOM      8  C   UNK d   1      -2.106   0.995   1.881  0.00  0.00     0.153 A 
ATOM      9  N   UNK d   1      -3.203   1.139   2.497  0.00  0.00    -0.270 NA
ATOM     10  C   UNK d   1      -4.166   0.095   2.217  0.00  0.00     0.172 A 
ATOM     11  C   UNK d   1      -3.475  -0.815   1.255  0.00  0.00     0.171 A 
ATOM     12  N   UNK d   1      -2.180  -0.183   1.090  0.00  0.00    -0.160 N 
ATOM     13  C   UNK d   1      -1.036  -0.531   0.310  0.00  0.00     0.736 A 
ATOM     14  N   UNK d   1      -0.821  -1.569  -0.518  0.00  0.00     0.024 NA
ATOM     15  N   UNK d   1       0.390  -1.510  -1.045  0.00  0.00    -0.203 N 
ATOM     16  C   UNK d   1       0.947  -0.390  -0.522  0.00  0.00     0.364 A 
ATOM     17  O   UNK d   1       2.105  -0.009  -0.799  0.00  0.00    -0.244 OA
ATOM     18  N   UNK d   1       0.092   0.226   0.311  0.00  0.00    -0.090 N 
ENDROOT
BRANCH  15  19
ATOM     19  C   UNK d   1       0.989  -2.443  -1.980  0.00  0.00     0.166 C 
BRANCH  19  20
ATOM     20  C   UNK d   1       1.718  -3.544  -1.197  0.00  0.00     0.124 C 
BRANCH  20  21
ATOM     21  C   UNK d   1       2.340  -4.511  -2.136  0.00  0.00     0.216 C 
ATOM     22  O   UNK d   1       2.272  -4.428  -3.388  0.00  0.00    -0.274 OA
ATOM     23  N   UNK d   1       3.059  -5.602  -1.584  0.00  0.00    -0.370 N 
ATOM     24  H   UNK d   1       2.767  -6.106  -0.727  0.00  0.00     0.159 HD
ATOM     25  H   UNK d   1       3.927  -5.907  -2.071  0.00  0.00     0.159 HD
ENDBRANCH  20  21
ENDBRANCH  19  20
ENDBRANCH  15  19
TORSDOF 3
