REMARK  1 active torsions:
REMARK  status: ('A' for Active; 'I' for Inactive)
REMARK    1  A    between atoms: C_11  and  C_12 
ROOT
ATOM      1 Cl   UNK d   1      -2.367   4.508  -2.364  0.00  0.00    -0.084 Cl
ATOM      2  C   UNK d   1      -1.107   3.346  -1.987  0.00  0.00     0.034 A 
ATOM      3  C   UNK d   1      -1.000   2.799  -0.724  0.00  0.00     0.034 A 
ATOM      4  C   UNK d   1       0.006   1.872  -0.422  0.00  0.00    -0.009 A 
ATOM      5  C   UNK d   1       0.866   1.543  -1.438  0.00  0.00     0.085 A 
ATOM      6  C   UNK d   1       0.754   2.101  -2.719  0.00  0.00     0.039 A 
ATOM      7  C   UNK d   1      -0.239   3.012  -3.006  0.00  0.00     0.026 A 
ATOM      8  O   UNK d   1       1.874   0.623  -1.164  0.00  0.00    -0.292 OA
ATOM      9  C   UNK d   1       2.046   0.032   0.076  0.00  0.00     0.166 A 
ATOM     10  C   UNK d   1       1.176   0.366   1.102  0.00  0.00     0.075 A 
ATOM     11  C   UNK d   1       0.074   1.322   0.946  0.00  0.00     0.107 A 
ATOM     12  C   UNK d   1       1.387  -0.251   2.319  0.00  0.00     0.262 A 
ATOM     13  O   UNK d   1       0.620   0.016   3.298  0.00  0.00    -0.267 OA
ATOM     14  N   UNK d   1       2.367  -1.136   2.560  0.00  0.00    -0.270 N 
ATOM     15  C   UNK d   1       3.193  -1.432   1.527  0.00  0.00     0.332 A 
ATOM     16  O   UNK d   1       4.106  -2.265   1.775  0.00  0.00    -0.246 OA
ATOM     17  N   UNK d   1       3.025  -0.855   0.323  0.00  0.00    -0.283 N 
ATOM     18  C   UNK d   1       3.950  -1.223  -0.730  0.00  0.00     0.163 C 
ATOM     19  C   UNK d   1       2.545  -1.763   3.870  0.00  0.00     0.164 C 
ENDROOT
BRANCH  11  20
ATOM     20  C   UNK d   1      -1.223   0.637   1.258  0.00  0.00     0.078 A 
ATOM     21  C   UNK d   1      -1.554  -0.557   0.656  0.00  0.00     0.197 A 
ATOM     22  N   UNK d   1      -2.735  -1.168   0.946  0.00  0.00    -0.281 N 
ATOM     23  O   UNK d   1      -0.685  -1.124  -0.234  0.00  0.00    -0.171 OA
ATOM     24  C   UNK d   1      -3.600  -0.609   1.829  0.00  0.00     0.332 A 
ATOM     25  C   UNK d   1      -3.026  -2.432   0.277  0.00  0.00     0.163 C 
ATOM     26  O   UNK d   1      -4.687  -1.204   2.073  0.00  0.00    -0.246 OA
ATOM     27  N   UNK d   1      -3.305   0.554   2.431  0.00  0.00    -0.270 N 
ATOM     28  C   UNK d   1      -2.138   1.163   2.148  0.00  0.00     0.262 A 
ATOM     29  C   UNK d   1      -4.259   1.128   3.375  0.00  0.00     0.164 C 
ATOM     30  O   UNK d   1      -1.880   2.236   2.712  0.00  0.00    -0.267 OA
ENDBRANCH  11  20
TORSDOF 1
