REMARK  1 active torsions:
REMARK  status: ('A' for Active; 'I' for Inactive)
REMARK    1  A    between atoms: C_11  and  C_12 
ROOT
ATOM      1  N   UNK d   1       0.578  -1.385   1.808  0.00  0.00    -0.084 N 
ATOM      2  H   UNK d   1       0.451  -1.409   2.848  0.00  0.00     0.271 HD
ATOM      3  H   UNK d   1       1.432  -1.923   1.518  0.00  0.00     0.271 HD
ATOM      4  H   UNK d   1      -0.235  -1.784   1.302  0.00  0.00     0.271 HD
ATOM      5  H   UNK d   1       0.712  -0.417   1.442  0.00  0.00     0.271 HD
ENDROOT
TORSDOF 1
