REMARK  3 active torsions:
REMARK  status: ('A' for Active; 'I' for Inactive)
REMARK       I    between atoms: N_11  and  C_13 
REMARK    1  A    between atoms: C_13  and  C_15 
REMARK    2  A    between atoms: C_15  and  N_16 
REMARK    3  A    between atoms: C_19  and  C_22 
REMARK       I    between atoms: C_22  and  N_24 
ROOT
ATOM      1 Cl   UNK d   1      -2.015  -0.972  -6.797  0.00  0.00    -0.084 Cl
ATOM      2  C   UNK d   1      -0.985  -1.031  -5.387  0.00  0.00     0.034 A 
ATOM      3  C   UNK d   1      -1.515  -1.212  -4.129  0.00  0.00     0.035 A 
ATOM      4  C   UNK d   1      -0.692  -1.255  -3.034  0.00  0.00    -0.005 A 
ATOM      5  C   UNK d   1       0.691  -1.115  -3.202  0.00  0.00     0.078 A 
ATOM      6  C   UNK d   1       1.233  -0.932  -4.464  0.00  0.00     0.039 A 
ATOM      7  C   UNK d   1       0.378  -0.894  -5.531  0.00  0.00     0.026 A 
ATOM      8  O   UNK d   1       1.652  -1.135  -2.203  0.00  0.00    -0.338 OA
ATOM      9  C   UNK d   1       1.560  -1.727  -0.929  0.00  0.00     0.088 C 
ATOM     10  C   UNK d   1       0.525  -1.075  -0.071  0.00  0.00     0.164 C 
ATOM     11  N   UNK d   1      -0.692  -0.723  -0.738  0.00  0.00    -0.344 N 
ATOM     12  C   UNK d   1      -1.409  -1.456  -1.749  0.00  0.00     0.167 C 
ATOM     13  C   UNK d   1      -1.313   0.523  -0.382  0.00  0.00     0.248 C 
ATOM     14  O   UNK d   1      -2.382   0.813  -0.974  0.00  0.00    -0.271 OA
ATOM     15  C   UNK d   1       1.339  -3.224  -1.079  0.00  0.00     0.066 C 
ATOM     16  C   UNK d   1       2.671  -3.953  -1.092  0.00  0.00     0.170 C 
ATOM     17  O   UNK d   1       3.327  -3.877   0.121  0.00  0.00    -0.391 OA
ATOM     18  C   UNK d   1       2.981  -2.715   0.801  0.00  0.00     0.170 C 
ATOM     19  C   UNK d   1       2.898  -1.579  -0.200  0.00  0.00     0.066 C 
ENDROOT
BRANCH  13  20
ATOM     20  C   UNK d   1      -0.731   1.413   0.621  0.00  0.00     0.374 C 
BRANCH  20  21
ATOM     21  N   UNK d   1      -1.423   2.613   0.919  0.00  0.00     0.097 N 
ATOM     22  C   UNK d   1      -0.670   3.462   1.846  0.00  0.00     0.273 C 
ATOM     23  C   UNK d   1      -0.480   2.714   3.112  0.00  0.00     0.044 C 
ATOM     24  C   UNK d   1      -1.683   2.031   3.671  0.00  0.00     0.081 C 
ATOM     25  C   UNK d   1      -2.860   1.902   2.787  0.00  0.00     0.044 C 
ATOM     26  C   UNK d   1      -2.767   2.468   1.421  0.00  0.00     0.273 C 
BRANCH  24  27
ATOM     27  C   UNK d   1      -1.334   0.726   4.284  0.00  0.00     0.219 C 
ATOM     28  O   UNK d   1      -1.856  -0.317   3.841  0.00  0.00    -0.273 OA
ATOM     29  N   UNK d   1      -0.421   0.672   5.359  0.00  0.00    -0.370 N 
ATOM     30  H   UNK d   1       0.546   0.301   5.122  0.00  0.00     0.159 HD
ATOM     31  H   UNK d   1      -0.602   0.953   6.330  0.00  0.00     0.159 HD
ENDBRANCH  24  27
ENDBRANCH  20  21
ENDBRANCH  13  20
TORSDOF 3
