REMARK  3 active torsions:
REMARK  status: ('A' for Active; 'I' for Inactive)
REMARK    1  A    between atoms: S_1  and  N_4 
REMARK    2  A    between atoms: S_1  and  C_23 
REMARK       I    between atoms: N_7  and  C_10 
REMARK    3  A    between atoms: C_10  and  C_12 
ROOT
ATOM      1  N   UNK d   1      -0.997  -1.399   1.485  0.00  0.00    -0.303 N 
ATOM      2  C   UNK d   1      -0.648  -0.012   1.447  0.00  0.00     0.155 C 
ATOM      3  C   UNK d   1       0.633   0.261   0.704  0.00  0.00     0.146 C 
ATOM      4  N   UNK d   1       0.804  -0.610  -0.436  0.00  0.00    -0.345 N 
ATOM      5  C   UNK d   1      -0.162  -1.600  -0.832  0.00  0.00     0.146 C 
ATOM      6  C   UNK d   1      -1.102  -2.042   0.224  0.00  0.00     0.155 C 
ATOM      7  C   UNK d   1       1.990  -0.479  -1.208  0.00  0.00     0.260 C 
ATOM      8  O   UNK d   1       2.200  -1.218  -2.227  0.00  0.00    -0.267 OA
ENDROOT
BRANCH   7   9
ATOM      9  C   UNK d   1       3.010   0.509  -0.857  0.00  0.00     0.118 A 
ATOM     10  C   UNK d   1       4.063   0.239  -0.006  0.00  0.00     0.141 A 
ATOM     11  N   UNK d   1       4.966   1.198   0.271  0.00  0.00    -0.242 NA
ATOM     12  C   UNK d   1       4.908   2.440  -0.243  0.00  0.00     0.136 A 
ATOM     13  N   UNK d   1       3.888   2.719  -1.075  0.00  0.00    -0.273 N 
ATOM     14  C   UNK d   1       5.859   3.404   0.066  0.00  0.00     0.051 A 
ATOM     15  C   UNK d   1       3.813   3.958  -1.601  0.00  0.00     0.102 A 
ATOM     16  C   UNK d   1       2.964   1.787  -1.377  0.00  0.00     0.270 A 
ATOM     17  C   UNK d   1       4.742   4.937  -1.312  0.00  0.00     0.018 A 
ATOM     18  C   UNK d   1       5.801   4.682  -0.462  0.00  0.00     0.005 A 
ATOM     19  O   UNK d   1       2.012   2.047  -2.153  0.00  0.00    -0.266 OA
ENDBRANCH   7   9
BRANCH   1  20
ATOM     20  S   UNK d   1      -2.205  -1.793   2.604  0.00  0.00     0.267 S 
ATOM     21  O   UNK d   1      -2.461  -3.251   2.626  0.00  0.00    -0.200 OA
ATOM     22  O   UNK d   1      -1.766  -1.330   3.975  0.00  0.00    -0.200 OA
BRANCH  20  23
ATOM     23  C   UNK d   1      -3.688  -0.927   2.168  0.00  0.00     0.121 A 
ATOM     24  S   UNK d   1      -3.966   0.750   2.042  0.00  0.00    -0.064 SA
ATOM     25  C   UNK d   1      -5.609   0.718   1.587  0.00  0.00     0.075 A 
ATOM     26  C   UNK d   1      -5.893  -0.619   1.547  0.00  0.00     0.033 A 
ATOM     27 Cl   UNK d   1      -6.716   2.062   1.240  0.00  0.00    -0.076 Cl
ATOM     28  C   UNK d   1      -4.906  -1.469   1.846  0.00  0.00     0.035 A 
ENDBRANCH  20  23
ENDBRANCH   1  20
TORSDOF 3
