REMARK  3 active torsions:
REMARK  status: ('A' for Active; 'I' for Inactive)
REMARK    1  A    between atoms: S_1  and  N_4 
REMARK    2  A    between atoms: S_1  and  C_16 
REMARK       I    between atoms: N_7  and  C_10 
REMARK    3  A    between atoms: C_10  and  C_12 
ROOT
ATOM      1  S   UNK d   1      -1.081  -2.143   1.584  0.00  0.00     0.262 S 
ATOM      2  O   UNK d   1      -1.900  -2.524   2.808  0.00  0.00    -0.200 OA
ATOM      3  O   UNK d   1      -0.157  -3.341   1.372  0.00  0.00    -0.200 OA
ENDROOT
BRANCH   1   4
ATOM      4  N   UNK d   1      -0.154  -0.778   1.865  0.00  0.00    -0.304 N 
ATOM      5  C   UNK d   1      -0.811   0.424   2.138  0.00  0.00     0.155 C 
ATOM      6  C   UNK d   1       0.138   1.522   2.640  0.00  0.00     0.146 C 
ATOM      7  N   UNK d   1       1.396   1.484   1.956  0.00  0.00    -0.349 N 
ATOM      8  C   UNK d   1       2.024   0.196   1.758  0.00  0.00     0.146 C 
ATOM      9  C   UNK d   1       1.991   2.665   1.497  0.00  0.00     0.224 C 
ATOM     10  C   UNK d   1       1.016  -0.668   1.026  0.00  0.00     0.155 C 
ATOM     11  O   UNK d   1       1.426   3.773   1.680  0.00  0.00    -0.273 OA
BRANCH   9  12
ATOM     12  C   UNK d   1       3.304   2.675   0.778  0.00  0.00     0.078 C 
ATOM     13  C   UNK d   1       3.761   4.056   0.371  0.00  0.00     0.014 C 
ATOM     14  C   UNK d   1       3.038   3.832  -0.955  0.00  0.00     0.002 C 
ATOM     15  C   UNK d   1       3.145   2.329  -0.681  0.00  0.00     0.014 C 
ENDBRANCH   9  12
ENDBRANCH   1   4
BRANCH   1  16
ATOM     16  C   UNK d   1      -2.156  -2.092   0.204  0.00  0.00     0.104 A 
ATOM     17  C   UNK d   1      -1.791  -2.791  -0.964  0.00  0.00     0.066 A 
ATOM     18  C   UNK d   1      -2.565  -2.741  -2.101  0.00  0.00     0.098 A 
ATOM     19  C   UNK d   1      -3.731  -2.013  -2.171  0.00  0.00     0.070 A 
ATOM     20  O   UNK d   1      -2.181  -3.443  -3.244  0.00  0.00    -0.335 OA
ATOM     21  C   UNK d   1      -4.092  -1.332  -1.035  0.00  0.00     0.058 A 
ATOM     22  N   UNK d   1      -4.480  -2.001  -3.372  0.00  0.00    -0.323 N 
ATOM     23  C   UNK d   1      -3.318  -1.371   0.134  0.00  0.00     0.059 A 
ATOM     24 Cl   UNK d   1      -3.886  -0.538   1.561  0.00  0.00    -0.083 Cl
ATOM     25  C   UNK d   1      -4.073  -2.719  -4.530  0.00  0.00     0.251 C 
ATOM     26  H   UNK d   1      -5.366  -1.446  -3.419  0.00  0.00     0.169 HD
ATOM     27  O   UNK d   1      -4.799  -2.958  -5.514  0.00  0.00    -0.270 OA
ATOM     28  C   UNK d   1      -2.669  -3.208  -4.536  0.00  0.00     0.217 C 
ATOM     29  C   UNK d   1      -1.757  -2.210  -5.213  0.00  0.00     0.050 C 
ENDBRANCH   1  16
TORSDOF 3
