REMARK  2 active torsions:
REMARK  status: ('A' for Active; 'I' for Inactive)
REMARK    1  A    between atoms: C_4  and  N_8 
REMARK    2  A    between atoms: C_14  and  C_18 
ROOT
ATOM      1  N   UNK d   1      -1.648   1.028  -1.739  0.00  0.00    -0.246 N 
ATOM      2  C   UNK d   1      -2.240   0.080  -2.620  0.00  0.00     0.268 C 
ATOM      3  O   UNK d   1      -2.812   0.371  -3.684  0.00  0.00    -0.269 OA
ATOM      4  C   UNK d   1      -2.064  -1.273  -2.066  0.00  0.00     0.285 C 
ATOM      5  O   UNK d   1      -1.847  -2.296  -2.932  0.00  0.00    -0.260 OA
ATOM      6  N   UNK d   1      -0.969  -3.102  -2.231  0.00  0.00    -0.264 N 
ATOM      7  C   UNK d   1      -0.057  -2.256  -1.526  0.00  0.00     0.083 C 
ATOM      8  C   UNK d   1      -0.720  -1.110  -1.419  0.00  0.00     0.080 C 
ATOM      9  C   UNK d   1      -0.677   0.273  -0.968  0.00  0.00     0.266 C 
ATOM     10  O   UNK d   1       0.089   0.687  -0.061  0.00  0.00    -0.267 OA
ATOM     11  H   UNK d   1      -1.007  -4.134  -2.236  0.00  0.00     0.194 HD
ENDROOT
BRANCH   1  12
ATOM     12  C   UNK d   1      -1.869   2.424  -1.579  0.00  0.00     0.047 A 
ATOM     13  C   UNK d   1      -3.132   2.961  -1.491  0.00  0.00     0.054 A 
ATOM     14  C   UNK d   1      -3.251   4.339  -1.332  0.00  0.00     0.036 A 
ATOM     15 Cl   UNK d   1      -4.841   5.088  -1.218  0.00  0.00    -0.084 Cl
ATOM     16  C   UNK d   1      -2.126   5.134  -1.267  0.00  0.00     0.024 A 
ATOM     17  C   UNK d   1      -0.855   4.591  -1.353  0.00  0.00     0.004 A 
ATOM     18  C   UNK d   1      -0.731   3.243  -1.509  0.00  0.00     0.030 A 
ENDBRANCH   1  12
BRANCH   7  19
ATOM     19  C   UNK d   1       1.255  -2.575  -0.999  0.00  0.00     0.036 A 
ATOM     20  C   UNK d   1       1.605  -2.290   0.324  0.00  0.00     0.127 A 
ATOM     21  N   UNK d   1       2.871  -2.672   0.547  0.00  0.00    -0.284 N 
ATOM     22  N   UNK d   1       3.349  -3.192  -0.585  0.00  0.00    -0.177 NA
ATOM     23  C   UNK d   1       3.660  -2.572   1.770  0.00  0.00     0.179 C 
ATOM     24  C   UNK d   1       2.380  -3.138  -1.528  0.00  0.00     0.065 A 
ATOM     25  C   UNK d   1       2.516  -3.601  -2.932  0.00  0.00     0.073 C 
ENDBRANCH   7  19
TORSDOF 2
