REMARK  2 active torsions:
REMARK  status: ('A' for Active; 'I' for Inactive)
REMARK    1  A    between atoms: C_4  and  C_10 
REMARK    2  A    between atoms: C_5  and  O_8 
ROOT
ATOM      1  C   UNK d   1       0.045   0.779  -1.996  0.00  0.00     0.188 A 
ATOM      2  N   UNK d   1       0.530   0.277  -0.864  0.00  0.00    -0.107 N 
ATOM      3  C   UNK d   1       1.103  -0.939  -1.102  0.00  0.00     0.735 A 
ATOM      4  N   UNK d   1       0.947  -1.149  -2.430  0.00  0.00     0.045 NA
ATOM      5  N   UNK d   1       0.322  -0.140  -2.973  0.00  0.00    -0.114 NA
ATOM      6  N   UNK d   1       1.600  -1.458   0.031  0.00  0.00    -0.174 N 
ATOM      7  C   UNK d   1       1.373  -0.611   1.028  0.00  0.00     0.165 A 
ATOM      8  C   UNK d   1       0.699   0.486   0.466  0.00  0.00     0.170 A 
ATOM      9  N   UNK d   1       0.349   1.516   1.247  0.00  0.00    -0.286 N 
ATOM     10  C   UNK d   1       0.663   1.451   2.569  0.00  0.00     0.332 A 
ATOM     11  O   UNK d   1       0.317   2.441   3.286  0.00  0.00    -0.246 OA
ATOM     12  N   UNK d   1       1.297   0.436   3.150  0.00  0.00    -0.269 N 
ATOM     13  C   UNK d   1       1.650  -0.591   2.375  0.00  0.00     0.282 A 
ATOM     14  O   UNK d   1       2.252  -1.577   2.873  0.00  0.00    -0.265 OA
ATOM     15  C   UNK d   1       1.599   0.443   4.592  0.00  0.00     0.164 C 
ATOM     16  C   UNK d   1      -0.307   2.683   0.733  0.00  0.00     0.163 C 
ATOM     17  C   UNK d   1       2.277  -2.731   0.172  0.00  0.00     0.176 C 
ENDROOT
BRANCH   1  18
ATOM     18  C   UNK d   1      -0.647   2.022  -2.320  0.00  0.00     0.047 A 
ATOM     19  C   UNK d   1       0.019   3.056  -2.973  0.00  0.00     0.037 A 
ATOM     20  C   UNK d   1      -0.661   4.185  -3.339  0.00  0.00     0.012 A 
ATOM     21 Br   UNK d   1       0.241   5.619  -4.239  0.00  0.00    -0.051 Br
ATOM     22  C   UNK d   1      -2.010   4.370  -3.093  0.00  0.00     0.022 A 
ATOM     23  C   UNK d   1      -2.660   3.334  -2.443  0.00  0.00     0.039 A 
ATOM     24  C   UNK d   1      -1.992   2.204  -2.074  0.00  0.00     0.082 A 
BRANCH  24  25
ATOM     25  O   UNK d   1      -2.643   1.140  -1.411  0.00  0.00    -0.355 OA
ATOM     26  C   UNK d   1      -4.023   1.212  -1.104  0.00  0.00     0.210 C 
ENDBRANCH  24  25
ENDBRANCH   1  18
TORSDOF 2
