# created with PyMOL 2.3.2
@<TRIPOS>MOLECULE
2017
40 43 1                 
SMALL
USER_CHARGES
@<TRIPOS>ATOM
1	  Cl	-4.247	2.742	-2.818	Cl	1	UNK0	0.000	
2	   C	-2.712	1.986	-2.425	C.2	1	UNK0	0.000	
3	   C	-2.064	2.208	-1.225	C.2	1	UNK0	0.000	
4	   N	-0.876	1.618	-0.931	N.pl3	1	UNK0	0.000	
5	   C	-0.254	0.783	-1.781	C.2	1	UNK0	0.000	
6	   N	0.923	0.194	-1.499	N.2	1	UNK0	0.000	
7	   C	1.561	0.405	-0.334	C.2	1	UNK0	0.000	
8	   C	0.922	1.270	0.556	C.2	1	UNK0	0.000	
9	   C	-0.283	1.868	0.256	C.2	1	UNK0	0.000	
10	   O	-0.861	2.657	1.071	O.2	1	UNK0	0.000	
11	   C	2.860	-0.222	0.023	C.3	1	UNK0	0.000	
12	   N	2.620	-1.407	0.760	N.3	1	UNK0	0.000	
13	   C	1.874	-2.434	0.136	C.3	1	UNK0	0.000	
14	   C	1.081	-3.306	1.097	C.3	1	UNK0	0.000	
15	   C	0.336	-2.368	1.978	C.2	1	UNK0	0.000	
16	   C	1.076	-1.338	2.520	C.2	1	UNK0	0.000	
17	   N	0.447	-0.465	3.321	N.2	1	UNK0	0.000	
18	   C	-0.889	-0.603	3.584	C.2	1	UNK0	0.000	
19	   N	-1.583	-1.627	3.033	N.2	1	UNK0	0.000	
20	   C	-1.008	-2.539	2.218	C.2	1	UNK0	0.000	
21	   C	-1.597	0.358	4.469	C.3	1	UNK0	0.000	
22	   C	2.517	-1.278	2.174	C.3	1	UNK0	0.000	
23	   C	-0.884	0.542	-2.995	C.2	1	UNK0	0.000	
24	   C	-2.091	1.132	-3.312	C.2	1	UNK0	0.000	
25	   H	-2.547	2.883	-0.515	 H	1	UNK0	0.000	
26	   H	1.405	1.462	1.499	 H	1	UNK0	0.000	
27	   H	3.374	-0.456	-0.938	 H	1	UNK0	0.000	
28	   H	3.444	0.518	0.592	 H	1	UNK0	0.000	
29	   H	2.476	-3.100	-0.518	 H	1	UNK0	0.000	
30	   H	1.087	-1.953	-0.515	 H	1	UNK0	0.000	
31	   H	1.848	-3.856	1.712	 H	1	UNK0	0.000	
32	   H	0.417	-3.971	0.550	 H	1	UNK0	0.000	
33	   H	-1.591	-3.345	1.795	 H	1	UNK0	0.000	
34	   H	-0.839	0.891	5.074	 H	1	UNK0	0.000	
35	   H	-2.111	1.089	3.794	 H	1	UNK0	0.000	
36	   H	-2.315	-0.160	5.133	 H	1	UNK0	0.000	
37	   H	3.094	-2.056	2.733	 H	1	UNK0	0.000	
38	   H	2.931	-0.289	2.463	 H	1	UNK0	0.000	
39	   H	-0.386	-0.135	-3.692	 H	1	UNK0	0.000	
40	   H	-2.580	0.936	-4.271	 H	1	UNK0	0.000	
@<TRIPOS>BOND
1 1 2 1
2 2 3 2
3 2 24 1
4 3 4 1
5 4 5 1
6 4 9 1
7 5 6 2
8 5 23 1
9 6 7 1
10 7 8 2
11 7 11 1
12 8 9 1
13 9 10 2
14 11 12 1
15 12 13 1
16 12 22 1
17 13 14 1
18 14 15 1
19 15 16 2
20 15 20 1
21 16 17 1
22 16 22 1
23 17 18 2
24 18 19 1
25 18 21 1
26 19 20 2
27 23 24 2
28 3 25 1
29 8 26 1
30 11 27 1
31 11 28 1
32 13 29 1
33 13 30 1
34 14 31 1
35 14 32 1
36 20 33 1
37 21 34 1
38 21 35 1
39 21 36 1
40 22 37 1
41 22 38 1
42 23 39 1
43 24 40 1
@<TRIPOS>SUBSTRUCTURE
1	UNK0	1	GROUP	1 ****	UNK
