REMARK  2 active torsions:
REMARK  status: ('A' for Active; 'I' for Inactive)
REMARK    1  A    between atoms: C_7  and  C_11 
REMARK    2  A    between atoms: C_11  and  N_12 
ROOT
ATOM      1 Cl   UNK d   1      -4.247   2.742  -2.818  0.00  0.00    -0.083 Cl
ATOM      2  C   UNK d   1      -2.712   1.986  -2.425  0.00  0.00     0.050 A 
ATOM      3  C   UNK d   1      -2.064   2.208  -1.225  0.00  0.00     0.125 A 
ATOM      4  N   UNK d   1      -0.876   1.618  -0.931  0.00  0.00    -0.272 N 
ATOM      5  C   UNK d   1      -0.254   0.783  -1.781  0.00  0.00     0.137 A 
ATOM      6  N   UNK d   1       0.923   0.194  -1.499  0.00  0.00    -0.233 NA
ATOM      7  C   UNK d   1       1.561   0.405  -0.334  0.00  0.00     0.059 A 
ATOM      8  C   UNK d   1       0.922   1.270   0.556  0.00  0.00     0.103 A 
ATOM      9  C   UNK d   1      -0.283   1.868   0.256  0.00  0.00     0.255 A 
ATOM     10  O   UNK d   1      -0.861   2.657   1.071  0.00  0.00    -0.268 OA
ATOM     11  C   UNK d   1      -0.884   0.542  -2.995  0.00  0.00     0.053 A 
ATOM     12  C   UNK d   1      -2.091   1.132  -3.312  0.00  0.00     0.029 A 
ENDROOT
BRANCH   7  13
ATOM     13  C   UNK d   1       2.860  -0.222   0.023  0.00  0.00     0.177 C 
BRANCH  13  14
ATOM     14  N   UNK d   1       2.620  -1.407   0.760  0.00  0.00    -0.401 N 
ATOM     15  C   UNK d   1       1.874  -2.434   0.136  0.00  0.00     0.122 C 
ATOM     16  C   UNK d   1       1.081  -3.306   1.097  0.00  0.00     0.061 C 
ATOM     17  C   UNK d   1       0.336  -2.368   1.978  0.00  0.00    -0.013 A 
ATOM     18  C   UNK d   1       1.076  -1.338   2.520  0.00  0.00     0.061 A 
ATOM     19  C   UNK d   1      -1.008  -2.539   2.218  0.00  0.00     0.128 A 
ATOM     20  N   UNK d   1       0.447  -0.465   3.321  0.00  0.00    -0.236 NA
ATOM     21  C   UNK d   1       2.517  -1.278   2.174  0.00  0.00     0.177 C 
ATOM     22  C   UNK d   1      -0.889  -0.603   3.584  0.00  0.00     0.122 A 
ATOM     23  N   UNK d   1      -1.583  -1.627   3.033  0.00  0.00    -0.245 NA
ATOM     24  C   UNK d   1      -1.597   0.358   4.469  0.00  0.00     0.093 C 
ENDBRANCH  13  14
ENDBRANCH   7  13
TORSDOF 2
