REMARK  2 active torsions:
REMARK  status: ('A' for Active; 'I' for Inactive)
REMARK    1  A    between atoms: C_4  and  C_10 
REMARK    2  A    between atoms: C_5  and  O_8 
ROOT
ATOM      1  C   UNK d   1       1.083  -0.686   0.070  0.00  0.00     0.048 C 
ATOM      2  C   UNK d   1      -0.158  -1.621   0.053  0.00  0.00     0.178 C 
ATOM      3  C   UNK d   1      -1.012  -0.808  -0.939  0.00  0.00     0.233 C 
ATOM      4  O   UNK d   1      -1.581  -1.293  -1.900  0.00  0.00    -0.273 OA
ATOM      5  N   UNK d   1      -1.036   0.588  -0.563  0.00  0.00    -0.334 N 
ATOM      6  C   UNK d   1      -0.667   0.836   0.843  0.00  0.00     0.105 C 
ATOM      7  N   UNK d   1      -1.447  -0.171   1.576  0.00  0.00    -0.334 N 
ATOM      8  C   UNK d   1      -0.976  -1.505   1.299  0.00  0.00     0.233 C 
ATOM      9  O   UNK d   1      -1.222  -2.487   2.023  0.00  0.00    -0.273 OA
ATOM     10  C   UNK d   1       0.810   0.380   0.990  0.00  0.00     0.064 C 
ATOM     11  C   UNK d   1      -0.868   2.206   1.321  0.00  0.00     0.063 C 
ATOM     12  H   UNK d   1      -1.267   1.349  -1.207  0.00  0.00     0.165 HD
ATOM     13  H   UNK d   1      -2.228   0.064   2.199  0.00  0.00     0.165 HD
ENDROOT
BRANCH   1  14
ATOM     14  C   UNK d   1       1.342  -0.470  -1.349  0.00  0.00    -0.018 A 
ATOM     15  C   UNK d   1       1.241  -1.588  -2.187  0.00  0.00     0.029 A 
ATOM     16  C   UNK d   1       1.556  -1.505  -3.545  0.00  0.00     0.011 A 
ATOM     17 Br   UNK d   1       1.418  -3.047  -4.650  0.00  0.00    -0.051 Br
ATOM     18  C   UNK d   1       1.969  -0.338  -4.104  0.00  0.00     0.022 A 
ATOM     19  C   UNK d   1       2.074   0.762  -3.300  0.00  0.00     0.038 A 
ATOM     20  C   UNK d   1       1.766   0.701  -1.952  0.00  0.00     0.074 A 
BRANCH  20  21
ATOM     21  O   UNK d   1       1.849   1.784  -1.124  0.00  0.00    -0.355 OA
ATOM     22  C   UNK d   1       2.244   3.028  -1.636  0.00  0.00     0.210 C 
ENDBRANCH  20  21
ENDBRANCH   1  14
TORSDOF 2
