REMARK  5 active torsions:
REMARK  status: ('A' for Active; 'I' for Inactive)
REMARK    1  A    between atoms: C_11  and  C_23 
REMARK    2  A    between atoms: N_16  and  C_19 
REMARK    3  A    between atoms: C_19  and  C_20 
REMARK    4  A    between atoms: C_20  and  O_21 
REMARK    5  A    between atoms: C_23  and  O_24 
ROOT
ATOM      1 Cl   UNK d   1      -3.911  -2.577   3.880  0.00  0.00    -0.082 Cl
ATOM      2  C   UNK d   1      -2.367  -1.879   3.398  0.00  0.00     0.061 A 
ATOM      3  C   UNK d   1      -1.998  -1.961   2.043  0.00  0.00     0.066 A 
ATOM      4  C   UNK d   1      -0.805  -1.415   1.673  0.00  0.00     0.020 A 
ATOM      5  C   UNK d   1       0.036  -0.800   2.590  0.00  0.00     0.019 A 
ATOM      6  C   UNK d   1      -0.351  -0.737   3.909  0.00  0.00    -0.060 A 
ATOM      7  C   UNK d   1      -1.550  -1.271   4.325  0.00  0.00     0.033 A 
ATOM      8  C   UNK d   1       0.580  -0.065   4.882  0.00  0.00     0.048 C 
ATOM      9  C   UNK d   1      -0.716  -1.521   0.184  0.00  0.00     0.279 C 
ATOM     10  N   UNK d   1       0.569  -1.798  -0.321  0.00  0.00     0.116 N 
ATOM     11  C   UNK d   1       1.216  -0.533  -0.525  0.00  0.00     0.264 C 
ATOM     12  C   UNK d   1       0.226   0.549  -0.374  0.00  0.00     0.130 C 
ATOM     13  C   UNK d   1      -1.091  -0.226  -0.466  0.00  0.00     0.147 C 
ATOM     14  C   UNK d   1      -1.256  -0.318  -1.905  0.00  0.00     0.235 C 
ATOM     15  O   UNK d   1      -1.683  -1.213  -2.667  0.00  0.00    -0.272 OA
ATOM     16  N   UNK d   1      -0.789   0.960  -2.412  0.00  0.00    -0.286 N 
ATOM     17  C   UNK d   1       0.105   1.515  -1.459  0.00  0.00     0.233 C 
ATOM     18  O   UNK d   1       0.662   2.617  -1.559  0.00  0.00    -0.272 OA
ATOM     19  C   UNK d   1      -1.739  -2.511  -0.145  0.00  0.00     0.267 C 
ATOM     20  O   UNK d   1      -1.924  -3.208  -1.192  0.00  0.00    -0.270 OA
ATOM     21  N   UNK d   1      -2.612  -2.638   0.953  0.00  0.00    -0.323 N 
ATOM     22  H   UNK d   1       1.132  -2.423   0.305  0.00  0.00     0.318 HD
ATOM     23  H   UNK d   1      -3.543  -3.122   1.019  0.00  0.00     0.169 HD
ENDROOT
BRANCH  11  24
ATOM     24  C   UNK d   1       2.030  -0.505  -1.805  0.00  0.00     0.148 C 
ATOM     25  C   UNK d   1       2.937   0.681  -1.787  0.00  0.00     0.041 C 
BRANCH  24  26
ATOM     26  O   UNK d   1       1.318  -0.706  -2.950  0.00  0.00    -0.394 OA
ATOM     27  H   UNK d   1       1.554  -0.098  -3.696  0.00  0.00     0.210 HD
ENDBRANCH  24  26
ENDBRANCH  11  24
BRANCH  16  28
ATOM     28  C   UNK d   1      -1.144   1.606  -3.648  0.00  0.00     0.161 C 
BRANCH  28  29
ATOM     29  C   UNK d   1      -2.301   2.532  -3.582  0.00  0.00     0.187 C 
BRANCH  29  30
ATOM     30  O   UNK d   1      -3.509   2.017  -3.220  0.00  0.00    -0.394 OA
ATOM     31  C   UNK d   1      -4.027   1.070  -4.079  0.00  0.00     0.201 C 
ENDBRANCH  29  30
ENDBRANCH  28  29
ENDBRANCH  16  28
TORSDOF 5
