# created with PyMOL 2.3.2
@<TRIPOS>MOLECULE
2032
55 58 1                 
SMALL
USER_CHARGES
@<TRIPOS>ATOM
1	  Br	2.005	-3.825	5.738	Br	1	UNK0	0.000	
2	   C	1.277	-2.205	5.069	C.2	1	UNK0	0.000	
3	   C	-0.073	-2.096	4.690	C.2	1	UNK0	0.000	
4	   C	-0.569	-0.914	4.205	C.2	1	UNK0	0.000	
5	   C	0.264	0.175	4.093	C.2	1	UNK0	0.000	
6	   C	1.610	0.064	4.473	C.2	1	UNK0	0.000	
7	   C	2.101	-1.108	4.950	C.2	1	UNK0	0.000	
8	   O	-0.283	1.314	3.612	O.3	1	UNK0	0.000	
9	   C	0.343	2.534	3.411	C.3	1	UNK0	0.000	
10	   C	-1.977	-0.798	3.853	C.2	1	UNK0	0.000	
11	   C	-2.472	-0.257	2.787	C.2	1	UNK0	0.000	
12	   O	-1.774	0.321	1.764	O.3	1	UNK0	0.000	
13	   C	-2.672	0.777	0.801	C.2	1	UNK0	0.000	
14	   C	-3.962	0.529	1.145	C.2	1	UNK0	0.000	
15	   C	-5.019	0.893	0.303	C.2	1	UNK0	0.000	
16	   C	-4.812	1.516	-0.900	C.2	1	UNK0	0.000	
17	   C	-3.461	1.756	-1.209	C.2	1	UNK0	0.000	
18	   C	-2.417	1.412	-0.420	C.2	1	UNK0	0.000	
19	   C	-1.003	1.708	-0.718	C.3	1	UNK0	0.000	
20	   N	-0.450	0.763	-1.659	N.4	1	UNK0	0.000	
21	   C	0.909	0.436	-1.266	C.3	1	UNK0	0.000	
22	   C	1.861	0.296	-2.377	C.3	1	UNK0	0.000	
23	   N	1.325	-0.178	-3.613	N.3	1	UNK0	0.000	
24	   C	-0.058	-0.280	-3.734	C.3	1	UNK0	0.000	
25	   C	-0.736	0.909	-3.003	C.3	1	UNK0	0.000	
26	   C	2.081	0.084	-4.778	C.3	1	UNK0	0.000	
27	   C	2.167	1.514	-5.181	C.3	1	UNK0	0.000	
28	   O	-3.303	2.414	-2.447	O.2	1	UNK0	0.000	
29	   C	-3.891	-0.149	2.444	C.2	1	UNK0	0.000	
30	   O	-4.872	-0.561	3.129	O.2	1	UNK0	0.000	
31	   H	-0.656	-2.995	4.806	 H	1	UNK0	0.000	
32	   H	2.270	0.927	4.391	 H	1	UNK0	0.000	
33	   H	3.151	-1.138	5.234	 H	1	UNK0	0.000	
34	   H	0.228	2.906	2.355	 H	1	UNK0	0.000	
35	   H	1.430	2.573	3.597	 H	1	UNK0	0.000	
36	   H	-0.103	3.324	4.106	 H	1	UNK0	0.000	
37	   H	-2.745	-1.214	4.553	 H	1	UNK0	0.000	
38	   H	-6.011	0.642	0.673	 H	1	UNK0	0.000	
39	   H	-5.596	1.803	-1.560	 H	1	UNK0	0.000	
40	   H	-0.408	1.834	0.198	 H	1	UNK0	0.000	
41	   H	-1.003	2.753	-1.177	 H	1	UNK0	0.000	
42	   H	-1.006	-0.164	-1.362	 H	1	UNK0	0.000	
43	   H	0.910	-0.463	-0.600	 H	1	UNK0	0.000	
44	   H	1.264	1.257	-0.601	 H	1	UNK0	0.000	
45	   H	2.473	1.223	-2.496	 H	1	UNK0	0.000	
46	   H	2.627	-0.483	-2.061	 H	1	UNK0	0.000	
47	   H	-0.411	-0.383	-4.751	 H	1	UNK0	0.000	
48	   H	-0.444	-1.160	-3.147	 H	1	UNK0	0.000	
49	   H	-1.829	0.648	-3.185	 H	1	UNK0	0.000	
50	   H	-0.564	1.862	-3.472	 H	1	UNK0	0.000	
51	   H	3.132	-0.285	-4.589	 H	1	UNK0	0.000	
52	   H	1.665	-0.569	-5.594	 H	1	UNK0	0.000	
53	   H	1.463	2.175	-4.671	 H	1	UNK0	0.000	
54	   H	3.210	1.913	-5.071	 H	1	UNK0	0.000	
55	   H	1.919	1.570	-6.256	 H	1	UNK0	0.000	
@<TRIPOS>BOND
1 1 2 1
2 2 3 2
3 2 7 1
4 3 4 1
5 4 5 2
6 4 10 1
7 5 6 1
8 5 8 1
9 6 7 2
10 8 9 1
11 10 11 2
12 11 12 1
13 11 29 1
14 12 13 1
15 13 14 2
16 13 18 1
17 14 15 1
18 14 29 1
19 15 16 2
20 16 17 1
21 17 18 2
22 17 28 1
23 18 19 1
24 19 20 1
25 20 21 1
26 20 25 1
27 21 22 1
28 22 23 1
29 23 24 1
30 23 26 1
31 24 25 1
32 26 27 1
33 29 30 2
34 3 31 1
35 6 32 1
36 7 33 1
37 9 34 1
38 9 35 1
39 9 36 1
40 10 37 1
41 15 38 1
42 16 39 1
43 19 40 1
44 19 41 1
45 20 42 1
46 21 43 1
47 21 44 1
48 22 45 1
49 22 46 1
50 24 47 1
51 24 48 1
52 25 49 1
53 25 50 1
54 26 51 1
55 26 52 1
56 27 53 1
57 27 54 1
58 27 55 1
@<TRIPOS>SUBSTRUCTURE
1	UNK0	1	GROUP	1 ****	UNK
