REMARK  5 active torsions:
REMARK  status: ('A' for Active; 'I' for Inactive)
REMARK    1  A    between atoms: C_4  and  C_10 
REMARK    2  A    between atoms: C_5  and  O_8 
REMARK    3  A    between atoms: C_18  and  C_19 
REMARK    4  A    between atoms: C_19  and  N_20 
REMARK    5  A    between atoms: N_23  and  C_26 
ROOT
ATOM      1  C   UNK d   1      -1.977  -0.798   3.853  0.00  0.00     0.055 C 
ATOM      2  C   UNK d   1      -2.472  -0.257   2.787  0.00  0.00     0.128 A 
ATOM      3  O   UNK d   1      -1.774   0.321   1.764  0.00  0.00    -0.305 OA
ATOM      4  C   UNK d   1      -2.672   0.777   0.801  0.00  0.00     0.101 A 
ATOM      5  C   UNK d   1      -3.962   0.529   1.145  0.00  0.00     0.051 A 
ATOM      6  C   UNK d   1      -5.019   0.893   0.303  0.00  0.00     0.021 A 
ATOM      7  C   UNK d   1      -4.812   1.516  -0.900  0.00  0.00     0.041 A 
ATOM      8  C   UNK d   1      -3.461   1.756  -1.209  0.00  0.00     0.118 A 
ATOM      9  C   UNK d   1      -2.417   1.412  -0.420  0.00  0.00     0.039 A 
ATOM     10  O   UNK d   1      -3.303   2.414  -2.447  0.00  0.00    -0.191 OA
ATOM     11  C   UNK d   1      -3.891  -0.149   2.444  0.00  0.00     0.218 A 
ATOM     12  O   UNK d   1      -4.872  -0.561   3.129  0.00  0.00    -0.284 OA
ENDROOT
BRANCH   1  13
ATOM     13  C   UNK d   1      -0.569  -0.914   4.205  0.00  0.00     0.001 A 
ATOM     14  C   UNK d   1      -0.073  -2.096   4.690  0.00  0.00     0.033 A 
ATOM     15  C   UNK d   1       1.277  -2.205   5.069  0.00  0.00     0.011 A 
ATOM     16 Br   UNK d   1       2.005  -3.825   5.738  0.00  0.00    -0.051 Br
ATOM     17  C   UNK d   1       2.101  -1.108   4.950  0.00  0.00     0.022 A 
ATOM     18  C   UNK d   1       1.610   0.064   4.473  0.00  0.00     0.039 A 
ATOM     19  C   UNK d   1       0.264   0.175   4.093  0.00  0.00     0.078 A 
BRANCH  19  20
ATOM     20  O   UNK d   1      -0.283   1.314   3.612  0.00  0.00    -0.355 OA
ATOM     21  C   UNK d   1       0.343   2.534   3.411  0.00  0.00     0.210 C 
ENDBRANCH  19  20
ENDBRANCH   1  13
BRANCH   9  22
ATOM     22  C   UNK d   1      -1.003   1.708  -0.718  0.00  0.00     0.279 C 
BRANCH  22  23
ATOM     23  N   UNK d   1      -0.450   0.763  -1.659  0.00  0.00    -0.064 N 
ATOM     24  C   UNK d   1       0.909   0.436  -1.266  0.00  0.00     0.254 C 
ATOM     25  C   UNK d   1       1.861   0.296  -2.377  0.00  0.00     0.144 C 
ATOM     26  N   UNK d   1       1.325  -0.178  -3.613  0.00  0.00    -0.410 N 
ATOM     27  C   UNK d   1      -0.058  -0.280  -3.734  0.00  0.00     0.144 C 
ATOM     28  C   UNK d   1      -0.736   0.909  -3.003  0.00  0.00     0.254 C 
ATOM     29  H   UNK d   1      -1.006  -0.164  -1.362  0.00  0.00     0.280 HD
BRANCH  26  30
ATOM     30  C   UNK d   1       2.081   0.084  -4.778  0.00  0.00     0.112 C 
ATOM     31  C   UNK d   1       2.167   1.514  -5.181  0.00  0.00     0.026 C 
ENDBRANCH  26  30
ENDBRANCH  22  23
ENDBRANCH   9  22
TORSDOF 5
