# created with PyMOL 2.3.2
@<TRIPOS>MOLECULE
2033
48 51 1                 
SMALL
USER_CHARGES
@<TRIPOS>ATOM
1	  Br	-6.609	-2.307	4.179	Br	1	UNK0	0.000	
2	   C	-5.139	-2.342	2.968	C.2	1	UNK0	0.000	
3	   C	-3.907	-2.859	3.248	C.2	1	UNK0	0.000	
4	   C	-2.859	-2.873	2.354	C.2	1	UNK0	0.000	
5	   C	-3.097	-2.320	1.092	C.2	1	UNK0	0.000	
6	   C	-4.311	-1.787	0.756	C.2	1	UNK0	0.000	
7	   C	-5.331	-1.801	1.700	C.2	1	UNK0	0.000	
8	   O	-2.064	-2.326	0.175	O.3	1	UNK0	0.000	
9	   C	-2.250	-1.786	-1.107	C.3	1	UNK0	0.000	
10	   C	-1.560	-3.443	2.669	C.2	1	UNK0	0.000	
11	   C	-0.398	-2.905	2.421	C.2	1	UNK0	0.000	
12	   O	-0.217	-1.676	1.806	O.3	1	UNK0	0.000	
13	   C	1.122	-1.360	1.671	C.2	1	UNK0	0.000	
14	   C	1.910	-2.363	2.188	C.2	1	UNK0	0.000	
15	   C	3.284	-2.251	2.155	C.2	1	UNK0	0.000	
16	   C	3.859	-1.128	1.599	C.2	1	UNK0	0.000	
17	   C	3.030	-0.116	1.076	C.2	1	UNK0	0.000	
18	   C	1.672	-0.204	1.099	C.2	1	UNK0	0.000	
19	   C	0.778	0.804	0.599	C.3	1	UNK0	0.000	
20	   N	1.227	1.996	0.005	N.4	1	UNK0	0.000	
21	   C	1.540	1.919	-1.396	C.3	1	UNK0	0.000	
22	   C	0.340	2.036	-2.303	C.3	1	UNK0	0.000	
23	   O	-0.869	2.074	-1.622	O.3	1	UNK0	0.000	
24	   C	-0.807	3.176	-0.776	C.3	1	UNK0	0.000	
25	   C	0.298	3.119	0.227	C.3	1	UNK0	0.000	
26	   O	3.753	0.963	0.543	O.2	1	UNK0	0.000	
27	   C	0.967	-3.373	2.680	C.2	1	UNK0	0.000	
28	   O	1.262	-4.457	3.230	O.2	1	UNK0	0.000	
29	   H	-3.760	-3.284	4.245	 H	1	UNK0	0.000	
30	   H	-4.547	-1.340	-0.216	 H	1	UNK0	0.000	
31	   H	-6.312	-1.376	1.442	 H	1	UNK0	0.000	
32	   H	-1.501	-2.242	-1.826	 H	1	UNK0	0.000	
33	   H	-2.021	-0.690	-1.082	 H	1	UNK0	0.000	
34	   H	-3.241	-2.016	-1.550	 H	1	UNK0	0.000	
35	   H	-1.541	-4.427	3.165	 H	1	UNK0	0.000	
36	   H	3.898	-3.050	2.569	 H	1	UNK0	0.000	
37	   H	4.926	-0.984	1.545	 H	1	UNK0	0.000	
38	   H	0.014	0.368	-0.138	 H	1	UNK0	0.000	
39	   H	0.048	1.146	1.429	 H	1	UNK0	0.000	
40	   H	2.085	2.320	0.497	 H	1	UNK0	0.000	
41	   H	2.181	2.826	-1.612	 H	1	UNK0	0.000	
42	   H	2.156	1.051	-1.629	 H	1	UNK0	0.000	
43	   H	0.367	2.969	-2.937	 H	1	UNK0	0.000	
44	   H	0.346	1.204	-3.035	 H	1	UNK0	0.000	
45	   H	-1.771	3.166	-0.185	 H	1	UNK0	0.000	
46	   H	-0.810	4.124	-1.387	 H	1	UNK0	0.000	
47	   H	-0.061	3.078	1.276	 H	1	UNK0	0.000	
48	   H	0.869	4.068	0.151	 H	1	UNK0	0.000	
@<TRIPOS>BOND
1 1 2 1
2 2 3 2
3 2 7 1
4 3 4 1
5 4 5 2
6 4 10 1
7 5 6 1
8 5 8 1
9 6 7 2
10 8 9 1
11 10 11 2
12 11 12 1
13 11 27 1
14 12 13 1
15 13 14 2
16 13 18 1
17 14 15 1
18 14 27 1
19 15 16 2
20 16 17 1
21 17 18 2
22 17 26 1
23 18 19 1
24 19 20 1
25 20 21 1
26 20 25 1
27 21 22 1
28 22 23 1
29 23 24 1
30 24 25 1
31 27 28 2
32 3 29 1
33 6 30 1
34 7 31 1
35 9 32 1
36 9 33 1
37 9 34 1
38 10 35 1
39 15 36 1
40 16 37 1
41 19 38 1
42 19 39 1
43 20 40 1
44 21 41 1
45 21 42 1
46 22 43 1
47 22 44 1
48 24 45 1
49 24 46 1
50 25 47 1
51 25 48 1
@<TRIPOS>SUBSTRUCTURE
1	UNK0	1	GROUP	1 ****	UNK
