REMARK  5 active torsions:
REMARK  status: ('A' for Active; 'I' for Inactive)
REMARK    1  A    between atoms: S_1  and  N_4 
REMARK    2  A    between atoms: S_1  and  C_24 
REMARK       I    between atoms: N_7  and  C_10 
REMARK    3  A    between atoms: C_10  and  C_12 
REMARK    4  A    between atoms: C_12  and  S_13 
REMARK    5  A    between atoms: S_13  and  C_14 
ROOT
ATOM      1  N   UNK d   1       1.203  -1.432  -1.130  0.00  0.00    -0.203 NA
ATOM      2  C   UNK d   1       1.493  -0.307  -1.996  0.00  0.00     0.127 C 
ATOM      3  C   UNK d   1       0.280   0.609  -2.099  0.00  0.00     0.141 C 
ATOM      4  N   UNK d   1      -0.025   1.096  -0.754  0.00  0.00    -0.349 N 
ATOM      5  C   UNK d   1       0.676   0.431   0.304  0.00  0.00     0.141 C 
ATOM      6  C   UNK d   1       0.544  -1.053   0.083  0.00  0.00     0.127 C 
ATOM      7  C   UNK d   1      -0.934   2.147  -0.597  0.00  0.00     0.229 C 
ATOM      8  O   UNK d   1      -1.477   2.665  -1.656  0.00  0.00    -0.273 OA
ENDROOT
BRANCH   7   9
ATOM      9  C   UNK d   1      -1.386   2.786   0.643  0.00  0.00     0.183 C 
BRANCH   9  10
ATOM     10  S   UNK d   1      -3.103   2.492   1.046  0.00  0.00    -0.100 SA
BRANCH  10  11
ATOM     11  C   UNK d   1      -3.469   0.806   1.500  0.00  0.00     0.110 A 
ATOM     12  N   UNK d   1      -3.395   0.400   2.761  0.00  0.00    -0.234 NA
ATOM     13  C   UNK d   1      -3.676  -0.845   3.155  0.00  0.00     0.236 A 
ATOM     14  N   UNK d   1      -4.060  -1.752   2.204  0.00  0.00    -0.222 NA
ATOM     15  C   UNK d   1      -4.144  -1.375   0.924  0.00  0.00     0.161 A 
ATOM     16  N   UNK d   1      -4.504  -2.067  -0.196  0.00  0.00    -0.256 N 
ATOM     17  C   UNK d   1      -3.852  -0.085   0.521  0.00  0.00     0.066 A 
ATOM     18  N   UNK d   1      -4.437  -1.250  -1.227  0.00  0.00    -0.182 NA
ATOM     19  C   UNK d   1      -4.897  -3.445  -0.234  0.00  0.00     0.182 C 
ATOM     20  C   UNK d   1      -4.045  -0.036  -0.834  0.00  0.00     0.157 A 
ENDBRANCH  10  11
ENDBRANCH   9  10
ENDBRANCH   7   9
BRANCH   1  21
ATOM     21  S   UNK d   1       2.645  -2.309  -0.801  0.00  0.00     0.243 S 
ATOM     22  O   UNK d   1       2.258  -3.471   0.084  0.00  0.00    -0.206 OA
ATOM     23  O   UNK d   1       3.250  -2.883  -2.037  0.00  0.00    -0.206 OA
BRANCH  21  24
ATOM     24  C   UNK d   1       3.783  -1.274   0.032  0.00  0.00     0.074 A 
ATOM     25  C   UNK d   1       4.670  -0.432  -0.599  0.00  0.00     0.026 A 
ATOM     26  C   UNK d   1       5.547   0.351   0.112  0.00  0.00     0.025 A 
ATOM     27  C   UNK d   1       5.552   0.306   1.506  0.00  0.00     0.034 A 
ATOM     28  C   UNK d   1       4.656  -0.546   2.161  0.00  0.00     0.025 A 
ATOM     29 Cl   UNK d   1       6.670   1.306   2.395  0.00  0.00    -0.084 Cl
ATOM     30  C   UNK d   1       3.786  -1.321   1.426  0.00  0.00     0.026 A 
ENDBRANCH  21  24
ENDBRANCH   1  21
TORSDOF 5
