# created with PyMOL 2.3.2
@<TRIPOS>MOLECULE
2041
49 52 1                 
SMALL
USER_CHARGES
@<TRIPOS>ATOM
1	   S	2.645	-2.309	-0.801	S.O2	1	UNK0	0.000	
2	   O	2.258	-3.471	0.084	O.2	1	UNK0	0.000	
3	   O	3.250	-2.883	-2.037	O.2	1	UNK0	0.000	
4	   N	1.203	-1.432	-1.130	N.3	1	UNK0	0.000	
5	   C	1.493	-0.307	-1.996	C.3	1	UNK0	0.000	
6	   C	0.280	0.609	-2.099	C.3	1	UNK0	0.000	
7	   N	-0.025	1.096	-0.754	N.pl3	1	UNK0	0.000	
8	   C	0.676	0.431	0.304	C.3	1	UNK0	0.000	
9	   C	0.544	-1.053	0.083	C.3	1	UNK0	0.000	
10	   C	-0.934	2.147	-0.597	C.2	1	UNK0	0.000	
11	   O	-1.477	2.665	-1.656	O.2	1	UNK0	0.000	
12	   C	-1.386	2.786	0.643	C.3	1	UNK0	0.000	
13	   S	-3.103	2.492	1.046	S.3	1	UNK0	0.000	
14	   C	-3.469	0.806	1.500	C.2	1	UNK0	0.000	
15	   N	-3.395	0.400	2.761	N.2	1	UNK0	0.000	
16	   C	-3.676	-0.845	3.155	C.2	1	UNK0	0.000	
17	   N	-4.060	-1.752	2.204	N.2	1	UNK0	0.000	
18	   C	-4.144	-1.375	0.924	C.2	1	UNK0	0.000	
19	   N	-4.504	-2.067	-0.196	N.pl3	1	UNK0	0.000	
20	   N	-4.437	-1.250	-1.227	N.2	1	UNK0	0.000	
21	   C	-4.045	-0.036	-0.834	C.2	1	UNK0	0.000	
22	   C	-3.852	-0.085	0.521	C.2	1	UNK0	0.000	
23	   C	-4.897	-3.445	-0.234	C.3	1	UNK0	0.000	
24	   C	3.783	-1.274	0.032	C.2	1	UNK0	0.000	
25	   C	4.670	-0.432	-0.599	C.2	1	UNK0	0.000	
26	   C	5.547	0.351	0.112	C.2	1	UNK0	0.000	
27	   C	5.552	0.306	1.506	C.2	1	UNK0	0.000	
28	   C	4.656	-0.546	2.161	C.2	1	UNK0	0.000	
29	   C	3.786	-1.321	1.426	C.2	1	UNK0	0.000	
30	  Cl	6.670	1.306	2.395	Cl	1	UNK0	0.000	
31	   H	1.691	-0.695	-3.004	 H	1	UNK0	0.000	
32	   H	2.358	0.271	-1.661	 H	1	UNK0	0.000	
33	   H	0.578	1.459	-2.747	 H	1	UNK0	0.000	
34	   H	-0.540	0.018	-2.516	 H	1	UNK0	0.000	
35	   H	0.369	0.742	1.320	 H	1	UNK0	0.000	
36	   H	1.754	0.741	0.238	 H	1	UNK0	0.000	
37	   H	0.830	-1.636	0.968	 H	1	UNK0	0.000	
38	   H	-0.569	-1.233	-0.033	 H	1	UNK0	0.000	
39	   H	-1.258	3.881	0.524	 H	1	UNK0	0.000	
40	   H	-0.788	2.521	1.541	 H	1	UNK0	0.000	
41	   H	-3.604	-1.129	4.190	 H	1	UNK0	0.000	
42	   H	-3.911	0.819	-1.458	 H	1	UNK0	0.000	
43	   H	-5.524	-3.742	0.652	 H	1	UNK0	0.000	
44	   H	-5.472	-3.630	-1.184	 H	1	UNK0	0.000	
45	   H	-3.980	-4.064	-0.239	 H	1	UNK0	0.000	
46	   H	4.664	-0.396	-1.673	 H	1	UNK0	0.000	
47	   H	6.250	1.023	-0.352	 H	1	UNK0	0.000	
48	   H	4.686	-0.562	3.250	 H	1	UNK0	0.000	
49	   H	3.102	-1.971	1.920	 H	1	UNK0	0.000	
@<TRIPOS>BOND
1 1 2 2
2 1 3 2
3 1 4 1
4 1 24 1
5 4 5 1
6 4 9 1
7 5 6 1
8 6 7 1
9 7 8 1
10 7 10 1
11 8 9 1
12 10 11 2
13 10 12 1
14 12 13 1
15 13 14 1
16 14 15 2
17 14 22 1
18 15 16 1
19 16 17 2
20 17 18 1
21 18 19 1
22 18 22 2
23 19 20 1
24 19 23 1
25 20 21 2
26 21 22 1
27 24 25 2
28 24 29 1
29 25 26 1
30 26 27 2
31 27 28 1
32 27 30 1
33 28 29 2
34 5 31 1
35 5 32 1
36 6 33 1
37 6 34 1
38 8 35 1
39 8 36 1
40 9 37 1
41 9 38 1
42 12 39 1
43 12 40 1
44 16 41 1
45 21 42 1
46 23 43 1
47 23 44 1
48 23 45 1
49 25 46 1
50 26 47 1
51 28 48 1
52 29 49 1
@<TRIPOS>SUBSTRUCTURE
1	UNK0	1	GROUP	1 ****	UNK
