# created with PyMOL 2.3.2
@<TRIPOS>MOLECULE
2043
49 52 1                 
SMALL
USER_CHARGES
@<TRIPOS>ATOM
1	   S	-0.624	2.246	-4.276	S.O2	1	UNK0	0.000	
2	   O	-0.264	3.594	-4.887	O.2	1	UNK0	0.000	
3	   O	-1.760	1.722	-5.147	O.2	1	UNK0	0.000	
4	   N	0.697	1.227	-4.469	N.3	1	UNK0	0.000	
5	   C	0.477	-0.151	-4.105	C.3	1	UNK0	0.000	
6	   C	1.502	-0.521	-3.035	C.3	1	UNK0	0.000	
7	   N	1.632	0.545	-2.115	N.pl3	1	UNK0	0.000	
8	   C	2.428	1.690	-2.745	C.3	1	UNK0	0.000	
9	   C	1.976	1.750	-4.160	C.3	1	UNK0	0.000	
10	   C	1.150	0.737	-0.853	C.2	1	UNK0	0.000	
11	   O	1.708	1.875	-0.314	O.2	1	UNK0	0.000	
12	   C	0.273	0.161	0.089	C.2	1	UNK0	0.000	
13	   C	-0.574	-0.806	0.218	C.2	1	UNK0	0.000	
14	   N	-0.891	-1.711	-0.806	N.pl3	1	UNK0	0.000	
15	   N	-1.768	-2.810	-0.667	N.pl3	1	UNK0	0.000	
16	   C	-2.380	-3.035	0.570	C.2	1	UNK0	0.000	
17	   O	-3.164	-4.010	0.708	O.2	1	UNK0	0.000	
18	   C	-2.087	-2.116	1.684	C.2	1	UNK0	0.000	
19	   C	-1.227	-1.043	1.541	C.2	1	UNK0	0.000	
20	   C	-1.012	-0.246	2.619	C.2	1	UNK0	0.000	
21	   C	-1.653	-0.522	3.831	C.2	1	UNK0	0.000	
22	   C	-2.508	-1.585	3.979	C.2	1	UNK0	0.000	
23	   C	-2.723	-2.391	2.882	C.2	1	UNK0	0.000	
24	   C	-1.219	2.406	-2.671	C.2	1	UNK0	0.000	
25	   C	-2.187	1.567	-2.179	C.2	1	UNK0	0.000	
26	   C	-2.650	1.715	-0.884	C.2	1	UNK0	0.000	
27	   C	-2.169	2.696	-0.046	C.2	1	UNK0	0.000	
28	   C	-1.192	3.547	-0.537	C.2	1	UNK0	0.000	
29	   C	-0.734	3.386	-1.843	C.2	1	UNK0	0.000	
30	  Cl	-2.790	2.842	1.586	Cl	1	UNK0	0.000	
31	   H	-0.549	-0.382	-3.797	 H	1	UNK0	0.000	
32	   H	0.711	-0.774	-4.990	 H	1	UNK0	0.000	
33	   H	2.490	-0.560	-3.644	 H	1	UNK0	0.000	
34	   H	1.417	-1.514	-2.637	 H	1	UNK0	0.000	
35	   H	3.468	1.331	-2.656	 H	1	UNK0	0.000	
36	   H	2.274	2.598	-2.146	 H	1	UNK0	0.000	
37	   H	2.730	1.178	-4.778	 H	1	UNK0	0.000	
38	   H	2.022	2.786	-4.567	 H	1	UNK0	0.000	
39	   H	0.336	0.765	1.081	 H	1	UNK0	0.000	
40	   H	-0.516	-1.588	-1.749	 H	1	UNK0	0.000	
41	   H	-1.929	-3.428	-1.517	 H	1	UNK0	0.000	
42	   H	-0.356	0.607	2.579	 H	1	UNK0	0.000	
43	   H	-1.453	0.135	4.656	 H	1	UNK0	0.000	
44	   H	-3.013	-1.812	4.914	 H	1	UNK0	0.000	
45	   H	-3.395	-3.255	2.940	 H	1	UNK0	0.000	
46	   H	-2.629	0.765	-2.757	 H	1	UNK0	0.000	
47	   H	-3.423	1.054	-0.473	 H	1	UNK0	0.000	
48	   H	-0.803	4.326	0.115	 H	1	UNK0	0.000	
49	   H	0.040	4.103	-2.148	 H	1	UNK0	0.000	
@<TRIPOS>BOND
1 1 2 2
2 1 3 2
3 1 4 1
4 1 24 1
5 4 5 1
6 4 9 1
7 5 6 1
8 6 7 1
9 7 8 1
10 7 10 1
11 8 9 1
12 10 11 2
13 10 12 1
14 12 13 2
15 13 14 1
16 13 19 1
17 14 15 1
18 15 16 1
19 16 17 2
20 16 18 1
21 18 19 2
22 18 23 1
23 19 20 1
24 20 21 2
25 21 22 1
26 22 23 2
27 24 25 2
28 24 29 1
29 25 26 1
30 26 27 2
31 27 28 1
32 27 30 1
33 28 29 2
34 5 31 1
35 5 32 1
36 6 33 1
37 6 34 1
38 8 35 1
39 8 36 1
40 9 37 1
41 9 38 1
42 12 39 1
43 14 40 1
44 15 41 1
45 20 42 1
46 21 43 1
47 22 44 1
48 23 45 1
49 25 46 1
50 26 47 1
51 28 48 1
52 29 49 1
@<TRIPOS>SUBSTRUCTURE
1	UNK0	1	GROUP	1 ****	UNK
