REMARK  3 active torsions:
REMARK  status: ('A' for Active; 'I' for Inactive)
REMARK    1  A    between atoms: S_1  and  N_4 
REMARK    2  A    between atoms: S_1  and  C_24 
REMARK    3  A    between atoms: C_10  and  C_12 
ROOT
ATOM      1  N   UNK d   1       0.697   1.227  -4.469  0.00  0.00    -0.304 N 
ATOM      2  C   UNK d   1       0.477  -0.151  -4.105  0.00  0.00     0.155 C 
ATOM      3  C   UNK d   1       1.502  -0.521  -3.035  0.00  0.00     0.145 C 
ATOM      4  N   UNK d   1       1.632   0.545  -2.115  0.00  0.00    -0.356 N 
ATOM      5  C   UNK d   1       2.428   1.690  -2.745  0.00  0.00     0.145 C 
ATOM      6  C   UNK d   1       1.976   1.750  -4.160  0.00  0.00     0.155 C 
ATOM      7  C   UNK d   1       1.150   0.737  -0.853  0.00  0.00     0.179 C 
ATOM      8  O   UNK d   1       1.708   1.875  -0.314  0.00  0.00    -0.172 OA
ENDROOT
BRANCH   7   9
ATOM      9  C   UNK d   1       0.273   0.161   0.089  0.00  0.00     0.090 C 
ATOM     10  C   UNK d   1      -0.574  -0.806   0.218  0.00  0.00     0.063 A 
ATOM     11  N   UNK d   1      -0.891  -1.711  -0.806  0.00  0.00    -0.297 N 
ATOM     12  C   UNK d   1      -1.227  -1.043   1.541  0.00  0.00     0.008 A 
ATOM     13  N   UNK d   1      -1.768  -2.810  -0.667  0.00  0.00    -0.265 N 
ATOM     14  H   UNK d   1      -0.516  -1.588  -1.749  0.00  0.00     0.187 HD
ATOM     15  C   UNK d   1      -2.380  -3.035   0.570  0.00  0.00     0.271 A 
ATOM     16  H   UNK d   1      -1.929  -3.428  -1.517  0.00  0.00     0.190 HD
ATOM     17  O   UNK d   1      -3.164  -4.010   0.708  0.00  0.00    -0.266 OA
ATOM     18  C   UNK d   1      -2.087  -2.116   1.684  0.00  0.00     0.046 A 
ATOM     19  C   UNK d   1      -2.723  -2.391   2.882  0.00  0.00     0.018 A 
ATOM     20  C   UNK d   1      -2.508  -1.585   3.979  0.00  0.00     0.001 A 
ATOM     21  C   UNK d   1      -1.653  -0.522   3.831  0.00  0.00     0.001 A 
ATOM     22  C   UNK d   1      -1.012  -0.246   2.619  0.00  0.00     0.015 A 
ENDBRANCH   7   9
BRANCH   1  23
ATOM     23  S   UNK d   1      -0.624   2.246  -4.276  0.00  0.00     0.260 S 
ATOM     24  O   UNK d   1      -0.264   3.594  -4.887  0.00  0.00    -0.200 OA
ATOM     25  O   UNK d   1      -1.760   1.722  -5.147  0.00  0.00    -0.200 OA
BRANCH  23  26
ATOM     26  C   UNK d   1      -1.219   2.406  -2.671  0.00  0.00     0.079 A 
ATOM     27  C   UNK d   1      -2.187   1.567  -2.179  0.00  0.00     0.027 A 
ATOM     28  C   UNK d   1      -2.650   1.715  -0.884  0.00  0.00     0.025 A 
ATOM     29  C   UNK d   1      -2.169   2.696  -0.046  0.00  0.00     0.034 A 
ATOM     30  C   UNK d   1      -1.192   3.547  -0.537  0.00  0.00     0.025 A 
ATOM     31 Cl   UNK d   1      -2.790   2.842   1.586  0.00  0.00    -0.084 Cl
ATOM     32  C   UNK d   1      -0.734   3.386  -1.843  0.00  0.00     0.027 A 
ENDBRANCH  23  26
ENDBRANCH   1  23
TORSDOF 3
