REMARK  5 active torsions:
REMARK  status: ('A' for Active; 'I' for Inactive)
REMARK    1  A    between atoms: C_3  and  N_18 
REMARK    2  A    between atoms: C_5  and  N_8 
REMARK    3  A    between atoms: N_8  and  C_9 
REMARK    4  A    between atoms: C_9  and  C_10 
REMARK       I    between atoms: C_10  and  N_12 
REMARK    5  A    between atoms: C_22  and  C_23 
ROOT
ATOM      1 Cl   UNK d   1      -0.829   4.018   2.193  0.00  0.00    -0.082 Cl
ATOM      2  C   UNK d   1       0.229   2.648   2.058  0.00  0.00     0.063 A 
ATOM      3  C   UNK d   1       0.681   2.217   0.837  0.00  0.00     0.086 A 
ATOM      4  C   UNK d   1       1.517   1.124   0.796  0.00  0.00     0.062 A 
ATOM      5  C   UNK d   1       1.925   0.439   1.920  0.00  0.00     0.030 A 
ATOM      6  C   UNK d   1       1.462   0.885   3.137  0.00  0.00     0.031 A 
ATOM      7  C   UNK d   1       0.624   1.978   3.188  0.00  0.00     0.028 A 
ENDROOT
BRANCH   5   8
ATOM      8  N   UNK d   1       2.807  -0.709   1.846  0.00  0.00    -0.382 N 
ATOM      9  H   UNK d   1       3.114  -1.200   2.691  0.00  0.00     0.160 HD
BRANCH   8  10
ATOM     10  C   UNK d   1       3.216  -1.110   0.545  0.00  0.00     0.207 C 
BRANCH  10  11
ATOM     11  C   UNK d   1       2.263  -1.834  -0.291  0.00  0.00     0.171 C 
ATOM     12  O   UNK d   1       2.726  -2.060  -1.496  0.00  0.00    -0.175 OA
ATOM     13  N   UNK d   1       0.999  -2.311  -0.049  0.00  0.00    -0.358 N 
ATOM     14  C   UNK d   1       0.309  -2.286   1.201  0.00  0.00     0.151 C 
ATOM     15  C   UNK d   1       0.206  -2.887  -1.157  0.00  0.00     0.151 C 
ATOM     16  C   UNK d   1      -0.987  -1.501   1.019  0.00  0.00     0.187 C 
ATOM     17  O   UNK d   1      -1.740  -2.262   0.098  0.00  0.00    -0.388 OA
ATOM     18  C   UNK d   1      -1.142  -2.158  -1.139  0.00  0.00     0.187 C 
ENDBRANCH  10  11
ENDBRANCH   8  10
ENDBRANCH   5   8
BRANCH   3  19
ATOM     19  N   UNK d   1       0.315   2.842  -0.368  0.00  0.00    -0.196 N 
ATOM     20  N   UNK d   1      -0.756   2.539  -1.073  0.00  0.00    -0.039 NA
ATOM     21  N   UNK d   1      -0.828   3.308  -2.143  0.00  0.00    -0.023 NA
ATOM     22  N   UNK d   1       0.222   4.103  -2.100  0.00  0.00    -0.113 NA
ATOM     23  C   UNK d   1       0.959   3.825  -0.983  0.00  0.00     0.158 A 
BRANCH  23  24
ATOM     24  C   UNK d   1       2.195   4.536  -0.660  0.00  0.00     0.059 A 
ATOM     25  C   UNK d   1       2.987   4.359   0.551  0.00  0.00     0.013 A 
ATOM     26  C   UNK d   1       3.483   3.664  -0.728  0.00  0.00     0.013 A 
ENDBRANCH  23  24
ENDBRANCH   3  19
TORSDOF 5
