# created with PyMOL 2.3.2
@<TRIPOS>MOLECULE
2046
44 47 1                 
SMALL
USER_CHARGES
@<TRIPOS>ATOM
1	  Cl	-0.829	4.018	2.193	Cl	1	UNK0	0.000	
2	   C	0.229	2.648	2.058	C.2	1	UNK0	0.000	
3	   C	0.681	2.217	0.837	C.2	1	UNK0	0.000	
4	   C	1.517	1.124	0.796	C.2	1	UNK0	0.000	
5	   C	1.925	0.439	1.920	C.2	1	UNK0	0.000	
6	   C	1.462	0.885	3.137	C.2	1	UNK0	0.000	
7	   C	0.624	1.978	3.188	C.2	1	UNK0	0.000	
8	   N	2.807	-0.709	1.846	N.pl3	1	UNK0	0.000	
9	   C	3.216	-1.110	0.545	C.3	1	UNK0	0.000	
10	   C	2.263	-1.834	-0.291	C.2	1	UNK0	0.000	
11	   O	2.726	-2.060	-1.496	O.2	1	UNK0	0.000	
12	   N	0.999	-2.311	-0.049	N.pl3	1	UNK0	0.000	
13	   C	0.309	-2.286	1.201	C.3	1	UNK0	0.000	
14	   C	-0.987	-1.501	1.019	C.3	1	UNK0	0.000	
15	   O	-1.740	-2.262	0.098	O.3	1	UNK0	0.000	
16	   C	-1.142	-2.158	-1.139	C.3	1	UNK0	0.000	
17	   C	0.206	-2.887	-1.157	C.3	1	UNK0	0.000	
18	   N	0.315	2.842	-0.368	N.pl3	1	UNK0	0.000	
19	   N	-0.756	2.539	-1.073	N.2	1	UNK0	0.000	
20	   N	-0.828	3.308	-2.143	N.2	1	UNK0	0.000	
21	   N	0.222	4.103	-2.100	N.2	1	UNK0	0.000	
22	   C	0.959	3.825	-0.983	C.2	1	UNK0	0.000	
23	   C	2.195	4.536	-0.660	C.3	1	UNK0	0.000	
24	   C	2.987	4.359	0.551	C.3	1	UNK0	0.000	
25	   C	3.483	3.664	-0.728	C.3	1	UNK0	0.000	
26	   H	1.894	0.758	-0.176	 H	1	UNK0	0.000	
27	   H	1.786	0.342	4.021	 H	1	UNK0	0.000	
28	   H	0.285	2.290	4.186	 H	1	UNK0	0.000	
29	   H	3.114	-1.200	2.691	 H	1	UNK0	0.000	
30	   H	4.099	-1.808	0.689	 H	1	UNK0	0.000	
31	   H	3.682	-0.255	-0.024	 H	1	UNK0	0.000	
32	   H	-0.082	-3.369	1.320	 H	1	UNK0	0.000	
33	   H	0.867	-2.059	2.093	 H	1	UNK0	0.000	
34	   H	-1.489	-1.389	1.981	 H	1	UNK0	0.000	
35	   H	-0.846	-0.526	0.556	 H	1	UNK0	0.000	
36	   H	-1.002	-1.088	-1.392	 H	1	UNK0	0.000	
37	   H	-1.785	-2.594	-1.914	 H	1	UNK0	0.000	
38	   H	0.691	-2.766	-2.122	 H	1	UNK0	0.000	
39	   H	-0.003	-3.932	-0.854	 H	1	UNK0	0.000	
40	   H	2.383	5.507	-1.222	 H	1	UNK0	0.000	
41	   H	3.599	5.239	0.916	 H	1	UNK0	0.000	
42	   H	2.823	3.643	1.352	 H	1	UNK0	0.000	
43	   H	4.394	4.114	-1.143	 H	1	UNK0	0.000	
44	   H	3.362	2.590	-0.847	 H	1	UNK0	0.000	
@<TRIPOS>BOND
1 1 2 1
2 2 3 2
3 2 7 1
4 3 4 1
5 3 18 1
6 4 5 2
7 5 6 1
8 5 8 1
9 6 7 2
10 8 9 1
11 9 10 1
12 10 11 2
13 10 12 1
14 12 13 1
15 12 17 1
16 13 14 1
17 14 15 1
18 15 16 1
19 16 17 1
20 18 19 1
21 18 22 1
22 19 20 2
23 20 21 1
24 21 22 2
25 22 23 1
26 23 24 1
27 23 25 1
28 24 25 1
29 4 26 1
30 6 27 1
31 7 28 1
32 8 29 1
33 9 30 1
34 9 31 1
35 13 32 1
36 13 33 1
37 14 34 1
38 14 35 1
39 16 36 1
40 16 37 1
41 17 38 1
42 17 39 1
43 23 40 1
44 24 41 1
45 24 42 1
46 25 43 1
47 25 44 1
@<TRIPOS>SUBSTRUCTURE
1	UNK0	1	GROUP	1 ****	UNK
