REMARK  8 active torsions:
REMARK  status: ('A' for Active; 'I' for Inactive)
REMARK    1  A    between atoms: C_5  and  C_8 
REMARK    2  A    between atoms: C_15  and  O_17 
REMARK    3  A    between atoms: O_17  and  C_18 
REMARK    4  A    between atoms: C_20  and  C_27 
REMARK    5  A    between atoms: C_21  and  O_26 
REMARK    6  A    between atoms: C_22  and  O_25 
REMARK    7  A    between atoms: C_23  and  O_24 
REMARK    8  A    between atoms: C_27  and  O_28 
ROOT
ATOM      1  C   UNK d   1      -4.349  -0.835  -0.834  0.00  0.00     0.048 A 
ATOM      2  C   UNK d   1      -3.697  -1.676   0.063  0.00  0.00     0.159 A 
ATOM      3  O   UNK d   1      -2.409  -1.594   0.299  0.00  0.00    -0.321 OA
ATOM      4  C   UNK d   1      -1.632  -0.716  -0.290  0.00  0.00     0.091 A 
ATOM      5  C   UNK d   1      -2.187   0.159  -1.194  0.00  0.00     0.049 A 
ATOM      6  C   UNK d   1      -1.337   1.061  -1.786  0.00  0.00     0.021 A 
ATOM      7  C   UNK d   1       0.007   1.120  -1.518  0.00  0.00     0.038 A 
ATOM      8  C   UNK d   1       0.596   0.233  -0.594  0.00  0.00     0.074 A 
ATOM      9  C   UNK d   1      -0.261  -0.667  -0.006  0.00  0.00     0.075 A 
ATOM     10  C   UNK d   1      -3.537   0.100  -1.465  0.00  0.00     0.197 A 
ATOM     11  O   UNK d   1      -4.047   0.901  -2.293  0.00  0.00    -0.286 OA
ENDROOT
BRANCH   8  12
ATOM     12  O   UNK d   1       1.951   0.325  -0.352  0.00  0.00    -0.318 OA
BRANCH  12  13
ATOM     13  C   UNK d   1       2.679  -0.448   0.504  0.00  0.00     0.298 C 
ATOM     14  O   UNK d   1       3.333   0.302   1.518  0.00  0.00    -0.348 OA
ATOM     15  C   UNK d   1       3.555  -0.587   2.547  0.00  0.00     0.179 C 
ATOM     16  C   UNK d   1       4.488  -1.708   2.209  0.00  0.00     0.180 C 
ATOM     17  C   UNK d   1       4.216  -2.293   0.844  0.00  0.00     0.183 C 
ATOM     18  C   UNK d   1       3.801  -1.231  -0.153  0.00  0.00     0.205 C 
BRANCH  15  19
ATOM     19  C   UNK d   1       4.004   0.085   3.820  0.00  0.00     0.198 C 
BRANCH  19  20
ATOM     20  O   UNK d   1       5.195   0.787   3.649  0.00  0.00    -0.398 OA
ATOM     21  H   UNK d   1       5.318   1.313   4.500  0.00  0.00     0.209 HD
ENDBRANCH  19  20
ENDBRANCH  15  19
BRANCH  16  22
ATOM     22  O   UNK d   1       4.255  -2.735   3.138  0.00  0.00    -0.390 OA
ATOM     23  H   UNK d   1       3.284  -2.884   3.258  0.00  0.00     0.210 HD
ENDBRANCH  16  22
BRANCH  17  24
ATOM     24  O   UNK d   1       5.323  -3.016   0.419  0.00  0.00    -0.390 OA
ATOM     25  H   UNK d   1       5.988  -3.161   1.160  0.00  0.00     0.210 HD
ENDBRANCH  17  24
BRANCH  18  26
ATOM     26  O   UNK d   1       3.372  -1.872  -1.309  0.00  0.00    -0.388 OA
ATOM     27  H   UNK d   1       4.070  -1.846  -2.005  0.00  0.00     0.210 HD
ENDBRANCH  18  26
ENDBRANCH  12  13
ENDBRANCH   8  12
BRANCH   1  28
ATOM     28  C   UNK d   1      -5.772  -0.944  -1.079  0.00  0.00    -0.020 A 
ATOM     29  C   UNK d   1      -6.614   0.147  -1.137  0.00  0.00     0.014 A 
ATOM     30  C   UNK d   1      -7.972  -0.028  -1.376  0.00  0.00     0.020 A 
ATOM     31  C   UNK d   1      -8.529  -1.272  -1.562  0.00  0.00     0.011 A 
ATOM     32 Br   UNK d   1     -10.400  -1.497  -1.890  0.00  0.00    -0.051 Br
ATOM     33  C   UNK d   1      -7.683  -2.370  -1.503  0.00  0.00     0.020 A 
ATOM     34  C   UNK d   1      -6.335  -2.195  -1.266  0.00  0.00     0.014 A 
ENDBRANCH   1  28
TORSDOF 8
