# created with PyMOL 2.3.2
@<TRIPOS>MOLECULE
2072
45 48 1                 
SMALL
USER_CHARGES
@<TRIPOS>ATOM
1	   S	-2.629	-2.264	-0.303	S.O2	1	UNK0	0.000	
2	   O	-1.735	-1.887	0.857	O.2	1	UNK0	0.000	
3	   O	-3.975	-1.700	-0.041	O.2	1	UNK0	0.000	
4	   N	-1.939	-1.633	-1.750	N.3	1	UNK0	0.000	
5	   C	-0.643	-2.179	-1.926	C.3	1	UNK0	0.000	
6	   C	0.483	-1.222	-2.196	C.3	1	UNK0	0.000	
7	   N	0.225	0.007	-1.521	N.3	1	UNK0	0.000	
8	   C	-0.955	0.582	-2.166	C.3	1	UNK0	0.000	
9	   C	-2.132	-0.245	-1.806	C.3	1	UNK0	0.000	
10	   C	1.307	0.931	-1.507	C.3	1	UNK0	0.000	
11	   C	2.426	0.468	-0.638	C.3	1	UNK0	0.000	
12	   N	2.027	0.323	0.746	N.pl3	1	UNK0	0.000	
13	   N	2.009	1.268	1.685	N.2	1	UNK0	0.000	
14	   C	1.567	0.765	2.846	C.2	1	UNK0	0.000	
15	   N	1.299	-0.530	2.639	N.pl3	1	UNK0	0.000	
16	   C	0.831	-1.319	3.636	C.2	1	UNK0	0.000	
17	   C	0.606	-0.838	4.906	C.2	1	UNK0	0.000	
18	   C	0.874	0.495	5.148	C.2	1	UNK0	0.000	
19	   C	1.349	1.272	4.114	C.2	1	UNK0	0.000	
20	   C	1.589	-0.793	1.331	C.2	1	UNK0	0.000	
21	   O	1.437	-1.939	0.845	O.2	1	UNK0	0.000	
22	   C	-2.788	-4.023	-0.419	C.2	1	UNK0	0.000	
23	   S	-1.581	-5.204	-0.652	S.3	1	UNK0	0.000	
24	   C	-2.555	-6.600	-0.642	C.2	1	UNK0	0.000	
25	   C	-3.815	-6.098	-0.454	C.2	1	UNK0	0.000	
26	   C	-3.935	-4.770	-0.339	C.2	1	UNK0	0.000	
27	  Br	-2.045	-8.448	-0.842	Br	1	UNK0	0.000	
28	   H	-0.368	-2.717	-0.965	 H	1	UNK0	0.000	
29	   H	-0.706	-2.954	-2.751	 H	1	UNK0	0.000	
30	   H	1.415	-1.740	-1.888	 H	1	UNK0	0.000	
31	   H	0.475	-1.072	-3.317	 H	1	UNK0	0.000	
32	   H	-1.125	1.622	-1.859	 H	1	UNK0	0.000	
33	   H	-0.774	0.470	-3.261	 H	1	UNK0	0.000	
34	   H	-2.526	0.152	-0.826	 H	1	UNK0	0.000	
35	   H	-2.925	-0.038	-2.580	 H	1	UNK0	0.000	
36	   H	1.735	1.101	-2.543	 H	1	UNK0	0.000	
37	   H	0.925	1.922	-1.127	 H	1	UNK0	0.000	
38	   H	2.747	-0.556	-0.981	 H	1	UNK0	0.000	
39	   H	3.306	1.165	-0.670	 H	1	UNK0	0.000	
40	   H	0.621	-2.367	3.441	 H	1	UNK0	0.000	
41	   H	0.232	-1.453	5.712	 H	1	UNK0	0.000	
42	   H	0.701	0.890	6.149	 H	1	UNK0	0.000	
43	   H	1.555	2.309	4.315	 H	1	UNK0	0.000	
44	   H	-4.679	-6.797	-0.404	 H	1	UNK0	0.000	
45	   H	-4.920	-4.265	-0.184	 H	1	UNK0	0.000	
@<TRIPOS>BOND
1 1 2 2
2 1 3 2
3 1 4 1
4 1 22 1
5 4 5 1
6 4 9 1
7 5 6 1
8 6 7 1
9 7 8 1
10 7 10 1
11 8 9 1
12 10 11 1
13 11 12 1
14 12 13 1
15 12 20 1
16 13 14 2
17 14 15 1
18 14 19 1
19 15 16 1
20 15 20 1
21 16 17 2
22 17 18 1
23 18 19 2
24 20 21 2
25 22 23 1
26 22 26 2
27 23 24 1
28 24 25 2
29 24 27 1
30 25 26 1
31 5 28 1
32 5 29 1
33 6 30 1
34 6 31 1
35 8 32 1
36 8 33 1
37 9 34 1
38 9 35 1
39 10 36 1
40 10 37 1
41 11 38 1
42 11 39 1
43 16 40 1
44 17 41 1
45 18 42 1
46 19 43 1
47 25 44 1
48 26 45 1
@<TRIPOS>SUBSTRUCTURE
1	UNK0	1	GROUP	1 ****	UNK
