REMARK  6 active torsions:
REMARK  status: ('A' for Active; 'I' for Inactive)
REMARK    1  A    between atoms: C_5  and  C_8 
REMARK    2  A    between atoms: C_12  and  C_17 
REMARK    3  A    between atoms: C_17  and  N_18 
REMARK    4  A    between atoms: N_21  and  C_24 
REMARK    5  A    between atoms: C_24  and  C_25 
REMARK    6  A    between atoms: C_25  and  O_26 
ROOT
ATOM      1  C   UNK d   1      -0.562   1.294  -2.532  0.00  0.00     0.051 A 
ATOM      2  C   UNK d   1       0.493   0.706  -3.191  0.00  0.00     0.032 A 
ATOM      3  C   UNK d   1       1.473   0.044  -2.438  0.00  0.00    -0.000 A 
ATOM      4  C   UNK d   1       1.400  -0.022  -1.064  0.00  0.00     0.100 A 
ATOM      5  C   UNK d   1       2.322  -0.658  -0.232  0.00  0.00     0.039 A 
ATOM      6  C   UNK d   1       3.387  -1.271  -0.939  0.00  0.00     0.118 A 
ATOM      7  C   UNK d   1       3.494  -1.231  -2.326  0.00  0.00     0.041 A 
ATOM      8  C   UNK d   1       2.526  -0.571  -3.066  0.00  0.00     0.017 A 
ATOM      9  O   UNK d   1       4.406  -1.958  -0.309  0.00  0.00    -0.191 OA
ATOM     10  O   UNK d   1       0.408   0.536  -0.497  0.00  0.00    -0.273 OA
ATOM     11  C   UNK d   1      -0.575   1.186  -1.126  0.00  0.00     0.299 A 
ATOM     12  O   UNK d   1      -1.508   1.712  -0.508  0.00  0.00    -0.259 OA
ENDROOT
BRANCH   5  13
ATOM     13  C   UNK d   1       2.230  -0.905   1.164  0.00  0.00     0.279 C 
BRANCH  13  14
ATOM     14  N   UNK d   1       2.212   0.116   2.180  0.00  0.00    -0.064 N 
ATOM     15  C   UNK d   1       0.825   0.575   2.471  0.00  0.00     0.265 C 
ATOM     16  C   UNK d   1      -0.102  -0.588   2.477  0.00  0.00     0.300 C 
ATOM     17  N   UNK d   1       0.190  -1.606   3.460  0.00  0.00     0.093 N 
ATOM     18  C   UNK d   1       1.573  -1.684   3.788  0.00  0.00     0.300 C 
ATOM     19  C   UNK d   1       2.469  -0.578   3.483  0.00  0.00     0.265 C 
ATOM     20  H   UNK d   1       2.865   0.865   2.156  0.00  0.00     0.280 HD
BRANCH  17  21
ATOM     21  C   UNK d   1      -0.299  -2.914   2.998  0.00  0.00     0.298 C 
BRANCH  21  22
ATOM     22  C   UNK d   1      -1.806  -2.953   2.891  0.00  0.00     0.194 C 
BRANCH  22  23
ATOM     23  O   UNK d   1      -2.304  -2.016   1.998  0.00  0.00    -0.399 OA
ATOM     24  H   UNK d   1      -2.355  -2.448   1.087  0.00  0.00     0.209 HD
ENDBRANCH  22  23
ENDBRANCH  21  22
ENDBRANCH  17  21
ENDBRANCH  13  14
ENDBRANCH   5  13
BRANCH   1  25
ATOM     25  C   UNK d   1      -1.690   1.904  -3.264  0.00  0.00    -0.020 A 
ATOM     26  C   UNK d   1      -1.897   1.466  -4.586  0.00  0.00     0.014 A 
ATOM     27  C   UNK d   1      -2.966   1.954  -5.316  0.00  0.00     0.024 A 
ATOM     28  C   UNK d   1      -3.859   2.879  -4.788  0.00  0.00     0.034 A 
ATOM     29 Cl   UNK d   1      -5.292   3.449  -5.678  0.00  0.00    -0.084 Cl
ATOM     30  C   UNK d   1      -3.645   3.308  -3.490  0.00  0.00     0.024 A 
ATOM     31  C   UNK d   1      -2.568   2.807  -2.781  0.00  0.00     0.014 A 
ENDBRANCH   1  25
TORSDOF 6
