# created with PyMOL 2.3.2
@<TRIPOS>MOLECULE
2079
52 55 1                 
SMALL
USER_CHARGES
@<TRIPOS>ATOM
1	  Cl	-5.292	3.449	-5.678	Cl	1	UNK0	0.000	
2	   C	-3.859	2.879	-4.788	C.2	1	UNK0	0.000	
3	   C	-2.966	1.954	-5.316	C.2	1	UNK0	0.000	
4	   C	-1.897	1.466	-4.586	C.2	1	UNK0	0.000	
5	   C	-1.690	1.904	-3.264	C.2	1	UNK0	0.000	
6	   C	-2.568	2.807	-2.781	C.2	1	UNK0	0.000	
7	   C	-3.645	3.308	-3.490	C.2	1	UNK0	0.000	
8	   C	-0.562	1.294	-2.532	C.2	1	UNK0	0.000	
9	   C	0.493	0.706	-3.191	C.2	1	UNK0	0.000	
10	   C	1.473	0.044	-2.438	C.2	1	UNK0	0.000	
11	   C	1.400	-0.022	-1.064	C.2	1	UNK0	0.000	
12	   C	2.322	-0.658	-0.232	C.2	1	UNK0	0.000	
13	   C	3.387	-1.271	-0.939	C.2	1	UNK0	0.000	
14	   C	3.494	-1.231	-2.326	C.2	1	UNK0	0.000	
15	   C	2.526	-0.571	-3.066	C.2	1	UNK0	0.000	
16	   O	4.406	-1.958	-0.309	O.2	1	UNK0	0.000	
17	   C	2.230	-0.905	1.164	C.3	1	UNK0	0.000	
18	   N	2.212	0.116	2.180	N.4	1	UNK0	0.000	
19	   C	0.825	0.575	2.471	C.3	1	UNK0	0.000	
20	   C	-0.102	-0.588	2.477	C.3	1	UNK0	0.000	
21	   N	0.190	-1.606	3.460	N.3	1	UNK0	0.000	
22	   C	1.573	-1.684	3.788	C.3	1	UNK0	0.000	
23	   C	2.469	-0.578	3.483	C.3	1	UNK0	0.000	
24	   C	-0.299	-2.914	2.998	C.3	1	UNK0	0.000	
25	   C	-1.806	-2.953	2.891	C.3	1	UNK0	0.000	
26	   O	-2.304	-2.016	1.998	O.3	1	UNK0	0.000	
27	   O	0.408	0.536	-0.497	O.3	1	UNK0	0.000	
28	   C	-0.575	1.186	-1.126	C.2	1	UNK0	0.000	
29	   O	-1.508	1.712	-0.508	O.co2	1	UNK0	0.000	
30	   H	-3.152	1.622	-6.322	 H	1	UNK0	0.000	
31	   H	-1.216	0.740	-5.014	 H	1	UNK0	0.000	
32	   H	-2.473	3.201	-1.775	 H	1	UNK0	0.000	
33	   H	-4.319	4.034	-3.061	 H	1	UNK0	0.000	
34	   H	0.597	0.737	-4.261	 H	1	UNK0	0.000	
35	   H	4.315	-1.648	-2.858	 H	1	UNK0	0.000	
36	   H	2.580	-0.575	-4.172	 H	1	UNK0	0.000	
37	   H	3.373	-1.280	1.390	 H	1	UNK0	0.000	
38	   H	1.755	-1.822	1.421	 H	1	UNK0	0.000	
39	   H	2.865	0.865	2.156	 H	1	UNK0	0.000	
40	   H	0.503	1.421	1.894	 H	1	UNK0	0.000	
41	   H	0.878	0.965	3.553	 H	1	UNK0	0.000	
42	   H	-0.211	-1.028	1.479	 H	1	UNK0	0.000	
43	   H	-1.110	-0.167	2.756	 H	1	UNK0	0.000	
44	   H	1.967	-2.650	3.396	 H	1	UNK0	0.000	
45	   H	1.634	-1.831	4.930	 H	1	UNK0	0.000	
46	   H	3.538	-0.892	3.452	 H	1	UNK0	0.000	
47	   H	2.326	0.219	4.278	 H	1	UNK0	0.000	
48	   H	0.047	-3.652	3.725	 H	1	UNK0	0.000	
49	   H	0.094	-3.196	2.000	 H	1	UNK0	0.000	
50	   H	-2.334	-2.990	3.836	 H	1	UNK0	0.000	
51	   H	-2.007	-3.984	2.432	 H	1	UNK0	0.000	
52	   H	-2.355	-2.448	1.087	 H	1	UNK0	0.000	
@<TRIPOS>BOND
1 1 2 1
2 2 3 2
3 2 7 1
4 3 4 1
5 4 5 2
6 5 6 1
7 5 8 1
8 6 7 2
9 8 9 2
10 8 28 1
11 9 10 1
12 10 11 2
13 10 15 1
14 11 12 1
15 11 27 1
16 12 13 2
17 12 17 1
18 13 14 1
19 13 16 1
20 14 15 2
21 17 18 1
22 18 19 1
23 18 23 1
24 19 20 1
25 20 21 1
26 21 22 1
27 21 24 1
28 22 23 1
29 24 25 1
30 25 26 1
31 27 28 1
32 28 29 2
33 3 30 1
34 4 31 1
35 6 32 1
36 7 33 1
37 9 34 1
38 14 35 1
39 15 36 1
40 17 37 1
41 17 38 1
42 18 39 1
43 19 40 1
44 19 41 1
45 20 42 1
46 20 43 1
47 22 44 1
48 22 45 1
49 23 46 1
50 23 47 1
51 24 48 1
52 24 49 1
53 25 50 1
54 25 51 1
55 26 52 1
@<TRIPOS>SUBSTRUCTURE
1	UNK0	1	GROUP	1 ****	UNK
