REMARK  6 active torsions:
REMARK  status: ('A' for Active; 'I' for Inactive)
REMARK    1  A    between atoms: C_5  and  C_8 
REMARK    2  A    between atoms: C_8  and  N_9 
REMARK    3  A    between atoms: C_13  and  N_14 
REMARK    4  A    between atoms: N_17  and  C_20 
REMARK    5  A    between atoms: C_20  and  C_21 
REMARK    6  A    between atoms: C_21  and  O_23 
ROOT
ATOM      1  N   UNK d   1       0.314   0.629  -1.181  0.00  0.00    -0.168 N 
ATOM      2  C   UNK d   1       1.636   0.607  -1.551  0.00  0.00     0.167 A 
ATOM      3  C   UNK d   1       2.335  -0.241  -0.715  0.00  0.00     0.185 A 
ATOM      4  N   UNK d   1       1.428  -0.714   0.145  0.00  0.00    -0.044 NA
ATOM      5  C   UNK d   1       0.194  -0.185  -0.132  0.00  0.00     0.707 A 
ATOM      6  N   UNK d   1       3.660  -0.430  -0.868  0.00  0.00    -0.286 N 
ATOM      7  C   UNK d   1       4.285   0.229  -1.854  0.00  0.00     0.330 A 
ATOM      8  O   UNK d   1       5.521   0.045  -1.987  0.00  0.00    -0.246 OA
ATOM      9  N   UNK d   1       3.643   1.060  -2.682  0.00  0.00    -0.273 N 
ATOM     10  C   UNK d   1       2.299   1.276  -2.558  0.00  0.00     0.280 A 
ATOM     11  O   UNK d   1       1.727   2.064  -3.349  0.00  0.00    -0.265 OA
ATOM     12  C   UNK d   1       4.355  -1.335   0.029  0.00  0.00     0.163 C 
ATOM     13  H   UNK d   1       4.150   1.571  -3.449  0.00  0.00     0.173 HD
ENDROOT
BRANCH   5  14
ATOM     14  N   UNK d   1      -0.919  -0.443   0.684  0.00  0.00    -0.212 N 
ATOM     15  C   UNK d   1      -2.084   0.335   0.911  0.00  0.00     0.160 C 
ATOM     16  C   UNK d   1      -2.691   0.080   2.295  0.00  0.00     0.137 C 
ATOM     17  N   UNK d   1      -1.802  -0.402   3.270  0.00  0.00    -0.400 N 
ATOM     18  C   UNK d   1      -0.955  -1.469   2.907  0.00  0.00     0.137 C 
ATOM     19  C   UNK d   1      -0.911  -1.737   1.420  0.00  0.00     0.160 C 
BRANCH  17  20
ATOM     20  C   UNK d   1      -1.460   0.397   4.373  0.00  0.00     0.228 C 
BRANCH  20  21
ATOM     21  C   UNK d   1      -0.622   1.579   4.121  0.00  0.00     0.276 C 
ATOM     22  O   UNK d   1      -0.336   2.414   5.020  0.00  0.00    -0.263 OA
BRANCH  21  23
ATOM     23  O   UNK d   1      -0.118   1.804   2.858  0.00  0.00    -0.325 OA
ATOM     24  C   UNK d   1       0.684   2.911   2.550  0.00  0.00     0.213 C 
ENDBRANCH  21  23
ENDBRANCH  20  21
ENDBRANCH  17  20
ENDBRANCH   5  14
BRANCH   1  25
ATOM     25  C   UNK d   1      -0.700   1.390  -1.865  0.00  0.00     0.186 C 
BRANCH  25  26
ATOM     26  C   UNK d   1      -1.270   0.615  -3.039  0.00  0.00    -0.039 A 
ATOM     27  C   UNK d   1      -1.929  -0.545  -2.756  0.00  0.00     0.010 A 
ATOM     28  C   UNK d   1      -2.499  -1.272  -3.802  0.00  0.00     0.019 A 
ATOM     29  C   UNK d   1      -2.395  -0.821  -5.099  0.00  0.00     0.011 A 
ATOM     30 Br   UNK d   1      -3.167  -1.796  -6.545  0.00  0.00    -0.051 Br
ATOM     31  C   UNK d   1      -1.718   0.361  -5.349  0.00  0.00     0.019 A 
ATOM     32  C   UNK d   1      -1.158   1.076  -4.319  0.00  0.00     0.010 A 
ENDBRANCH  25  26
ENDBRANCH   1  25
TORSDOF 6
