# created with PyMOL 2.3.2
@<TRIPOS>MOLECULE
2087
54 57 1                 
SMALL
USER_CHARGES
@<TRIPOS>ATOM
1	  Br	-3.167	-1.796	-6.545	Br	1	UNK0	0.000	
2	   C	-2.395	-0.821	-5.099	C.2	1	UNK0	0.000	
3	   C	-2.499	-1.272	-3.802	C.2	1	UNK0	0.000	
4	   C	-1.929	-0.545	-2.756	C.2	1	UNK0	0.000	
5	   C	-1.270	0.615	-3.039	C.2	1	UNK0	0.000	
6	   C	-1.158	1.076	-4.319	C.2	1	UNK0	0.000	
7	   C	-1.718	0.361	-5.349	C.2	1	UNK0	0.000	
8	   C	-0.700	1.390	-1.865	C.3	1	UNK0	0.000	
9	   N	0.314	0.629	-1.181	N.pl3	1	UNK0	0.000	
10	   C	1.636	0.607	-1.551	C.2	1	UNK0	0.000	
11	   C	2.335	-0.241	-0.715	C.2	1	UNK0	0.000	
12	   N	1.428	-0.714	0.145	N.2	1	UNK0	0.000	
13	   C	0.194	-0.185	-0.132	C.2	1	UNK0	0.000	
14	   N	-0.919	-0.443	0.684	N.pl3	1	UNK0	0.000	
15	   C	-2.084	0.335	0.911	C.3	1	UNK0	0.000	
16	   C	-2.691	0.080	2.295	C.3	1	UNK0	0.000	
17	   N	-1.802	-0.402	3.270	N.3	1	UNK0	0.000	
18	   C	-0.955	-1.469	2.907	C.3	1	UNK0	0.000	
19	   C	-0.911	-1.737	1.420	C.3	1	UNK0	0.000	
20	   C	-1.460	0.397	4.373	C.3	1	UNK0	0.000	
21	   C	-0.622	1.579	4.121	C.2	1	UNK0	0.000	
22	   O	-0.336	2.414	5.020	O.co2	1	UNK0	0.000	
23	   O	-0.118	1.804	2.858	O.3	1	UNK0	0.000	
24	   C	0.684	2.911	2.550	C.3	1	UNK0	0.000	
25	   N	3.660	-0.430	-0.868	N.pl3	1	UNK0	0.000	
26	   C	4.285	0.229	-1.854	C.2	1	UNK0	0.000	
27	   O	5.521	0.045	-1.987	O.2	1	UNK0	0.000	
28	   N	3.643	1.060	-2.682	N.pl3	1	UNK0	0.000	
29	   C	2.299	1.276	-2.558	C.2	1	UNK0	0.000	
30	   O	1.727	2.064	-3.349	O.2	1	UNK0	0.000	
31	   C	4.355	-1.335	0.029	C.3	1	UNK0	0.000	
32	   H	-3.024	-2.200	-3.556	 H	1	UNK0	0.000	
33	   H	-2.036	-0.951	-1.742	 H	1	UNK0	0.000	
34	   H	-0.649	1.997	-4.534	 H	1	UNK0	0.000	
35	   H	-1.625	0.732	-6.358	 H	1	UNK0	0.000	
36	   H	-1.587	1.630	-1.283	 H	1	UNK0	0.000	
37	   H	-0.245	2.319	-2.301	 H	1	UNK0	0.000	
38	   H	-1.902	1.442	0.911	 H	1	UNK0	0.000	
39	   H	-2.877	0.023	0.205	 H	1	UNK0	0.000	
40	   H	-3.193	1.003	2.688	 H	1	UNK0	0.000	
41	   H	-3.539	-0.669	2.231	 H	1	UNK0	0.000	
42	   H	-1.359	-2.402	3.378	 H	1	UNK0	0.000	
43	   H	0.052	-1.324	3.330	 H	1	UNK0	0.000	
44	   H	-1.814	-2.270	1.060	 H	1	UNK0	0.000	
45	   H	-0.003	-2.312	1.201	 H	1	UNK0	0.000	
46	   H	-1.072	-0.226	5.216	 H	1	UNK0	0.000	
47	   H	-2.431	0.809	4.792	 H	1	UNK0	0.000	
48	   H	0.090	3.709	2.044	 H	1	UNK0	0.000	
49	   H	1.431	2.552	1.785	 H	1	UNK0	0.000	
50	   H	1.184	3.375	3.421	 H	1	UNK0	0.000	
51	   H	4.150	1.571	-3.449	 H	1	UNK0	0.000	
52	   H	4.245	-0.925	1.055	 H	1	UNK0	0.000	
53	   H	3.866	-2.342	0.040	 H	1	UNK0	0.000	
54	   H	5.392	-1.455	-0.306	 H	1	UNK0	0.000	
@<TRIPOS>BOND
1 1 2 1
2 2 3 2
3 2 7 1
4 3 4 1
5 4 5 2
6 5 6 1
7 5 8 1
8 6 7 2
9 8 9 1
10 9 10 1
11 9 13 1
12 10 11 2
13 10 29 1
14 11 12 1
15 11 25 1
16 12 13 2
17 13 14 1
18 14 15 1
19 14 19 1
20 15 16 1
21 16 17 1
22 17 18 1
23 17 20 1
24 18 19 1
25 20 21 1
26 21 22 2
27 21 23 1
28 23 24 1
29 25 26 1
30 25 31 1
31 26 27 2
32 26 28 1
33 28 29 1
34 29 30 2
35 3 32 1
36 4 33 1
37 6 34 1
38 7 35 1
39 8 36 1
40 8 37 1
41 15 38 1
42 15 39 1
43 16 40 1
44 16 41 1
45 18 42 1
46 18 43 1
47 19 44 1
48 19 45 1
49 20 46 1
50 20 47 1
51 24 48 1
52 24 49 1
53 24 50 1
54 28 51 1
55 31 52 1
56 31 53 1
57 31 54 1
@<TRIPOS>SUBSTRUCTURE
1	UNK0	1	GROUP	1 ****	UNK
