REMARK  3 active torsions:
REMARK  status: ('A' for Active; 'I' for Inactive)
REMARK    1  A    between atoms: C_5  and  C_8 
REMARK    2  A    between atoms: C_8  and  N_9 
REMARK    3  A    between atoms: C_13  and  N_14 
ROOT
ATOM      1  N   UNK d   1       0.562   1.918  -0.043  0.00  0.00    -0.168 N 
ATOM      2  C   UNK d   1       0.778   2.247   1.239  0.00  0.00     0.167 A 
ATOM      3  C   UNK d   1       1.081   1.106   1.948  0.00  0.00     0.185 A 
ATOM      4  N   UNK d   1       1.040   0.114   1.072  0.00  0.00    -0.044 NA
ATOM      5  C   UNK d   1       0.728   0.576  -0.147  0.00  0.00     0.707 A 
ATOM      6  N   UNK d   1       1.363   1.099   3.275  0.00  0.00    -0.286 N 
ATOM      7  C   UNK d   1       1.341   2.284   3.906  0.00  0.00     0.330 A 
ATOM      8  O   UNK d   1       1.603   2.259   5.135  0.00  0.00    -0.246 OA
ATOM      9  N   UNK d   1       1.056   3.433   3.269  0.00  0.00    -0.273 N 
ATOM     10  C   UNK d   1       0.774   3.451   1.953  0.00  0.00     0.280 A 
ATOM     11  O   UNK d   1       0.510   4.492   1.336  0.00  0.00    -0.265 OA
ATOM     12  C   UNK d   1       1.667  -0.152   3.937  0.00  0.00     0.163 C 
ATOM     13  H   UNK d   1       1.044   4.349   3.767  0.00  0.00     0.173 HD
ENDROOT
BRANCH   1  14
ATOM     14  C   UNK d   1       0.208   2.815  -1.116  0.00  0.00     0.186 C 
BRANCH  14  15
ATOM     15  C   UNK d   1      -1.198   2.990  -1.420  0.00  0.00    -0.039 A 
ATOM     16  C   UNK d   1      -2.063   3.832  -0.793  0.00  0.00     0.010 A 
ATOM     17  C   UNK d   1      -3.398   3.980  -1.165  0.00  0.00     0.019 A 
ATOM     18  C   UNK d   1      -3.890   3.235  -2.232  0.00  0.00     0.011 A 
ATOM     19 Br   UNK d   1      -5.698   3.386  -2.816  0.00  0.00    -0.051 Br
ATOM     20  C   UNK d   1      -3.051   2.371  -2.896  0.00  0.00     0.019 A 
ATOM     21  C   UNK d   1      -1.741   2.257  -2.493  0.00  0.00     0.010 A 
ENDBRANCH  14  15
ENDBRANCH   1  14
BRANCH   5  22
ATOM     22  N   UNK d   1       0.588  -0.193  -1.349  0.00  0.00    -0.213 N 
ATOM     23  C   UNK d   1      -0.523  -1.115  -1.433  0.00  0.00     0.160 C 
ATOM     24  C   UNK d   1       0.047  -2.524  -1.505  0.00  0.00     0.136 C 
ATOM     25  N   UNK d   1       1.383  -2.558  -1.999  0.00  0.00    -0.414 N 
ATOM     26  C   UNK d   1       1.731  -1.543  -2.937  0.00  0.00     0.136 C 
ATOM     27  C   UNK d   1       2.397  -2.996  -1.117  0.00  0.00     0.143 C 
ATOM     28  C   UNK d   1       1.479  -0.130  -2.477  0.00  0.00     0.160 C 
ENDBRANCH   5  22
TORSDOF 3
