REMARK  1 active torsions:
REMARK  status: ('A' for Active; 'I' for Inactive)
REMARK    1  A    between atoms: C_12  and  N_16 
ROOT
ATOM      1 Cl   UNK d   1       4.944   2.614  -1.732  0.00  0.00    -0.082 Cl
ATOM      2  C   UNK d   1       3.759   1.975  -0.612  0.00  0.00     0.061 A 
ATOM      3  C   UNK d   1       2.814   1.040  -1.035  0.00  0.00     0.065 A 
ATOM      4  C   UNK d   1       1.875   0.519  -0.195  0.00  0.00    -0.002 A 
ATOM      5  C   UNK d   1       1.903   0.966   1.119  0.00  0.00     0.011 A 
ATOM      6  C   UNK d   1       2.829   1.888   1.556  0.00  0.00     0.002 A 
ATOM      7  C   UNK d   1       3.769   2.403   0.692  0.00  0.00     0.026 A 
ATOM      8  C   UNK d   1       1.033  -0.434  -0.947  0.00  0.00     0.146 A 
ATOM      9  C   UNK d   1      -0.396   0.046  -0.980  0.00  0.00     0.071 A 
ATOM     10  C   UNK d   1      -1.404  -0.667  -0.561  0.00  0.00     0.060 A 
ATOM     11  N   UNK d   1      -1.227  -1.978  -0.029  0.00  0.00    -0.342 N 
ATOM     12  C   UNK d   1       0.085  -2.507   0.039  0.00  0.00     0.118 A 
ATOM     13  C   UNK d   1       1.108  -1.798  -0.381  0.00  0.00     0.093 A 
ATOM     14  C   UNK d   1       2.440  -2.380  -0.293  0.00  0.00     0.101 C 
ATOM     15  N   UNK d   1       3.505  -2.827  -0.226  0.00  0.00    -0.191 NA
ATOM     16  C   UNK d   1      -2.647   0.110  -0.742  0.00  0.00     0.106 A 
ATOM     17  O   UNK d   1      -2.263   1.309  -1.292  0.00  0.00    -0.301 OA
ATOM     18  C   UNK d   1      -0.898   1.327  -1.461  0.00  0.00     0.294 A 
ATOM     19  O   UNK d   1      -0.177   2.269  -1.943  0.00  0.00    -0.259 OA
ATOM     20  C   UNK d   1      -3.349   0.234   0.592  0.00  0.00     0.053 C 
ATOM     21  C   UNK d   1      -3.606  -0.573  -1.700  0.00  0.00     0.053 C 
ATOM     22  C   UNK d   1       1.587  -0.410  -2.321  0.00  0.00     0.246 A 
ATOM     23  O   UNK d   1       1.167  -1.088  -3.326  0.00  0.00    -0.271 OA
ATOM     24  N   UNK d   1       2.666   0.497  -2.336  0.00  0.00    -0.324 N 
ATOM     25  H   UNK d   1      -2.028  -2.553   0.308  0.00  0.00     0.167 HD
ATOM     26  H   UNK d   1       3.249   0.709  -3.202  0.00  0.00     0.169 HD
ENDROOT
BRANCH  12  27
ATOM     27  N   UNK d   1       0.342  -3.815   0.559  0.00  0.00    -0.384 N 
ATOM     28  H   UNK d   1      -0.033  -4.101   1.473  0.00  0.00     0.157 HD
ATOM     29  H   UNK d   1       0.910  -4.461  -0.002  0.00  0.00     0.157 HD
ENDBRANCH  12  27
TORSDOF 1
