# created with PyMOL 2.3.2
@<TRIPOS>MOLECULE
2109
36 39 1                 
SMALL
USER_CHARGES
@<TRIPOS>ATOM
1	  Cl	1.054	-6.364	2.910	Cl	1	UNK0	0.000	
2	   C	0.761	-4.999	1.847	C.2	1	UNK0	0.000	
3	   C	1.411	-3.799	2.048	C.2	1	UNK0	0.000	
4	   C	1.173	-2.727	1.204	C.2	1	UNK0	0.000	
5	   C	0.298	-2.792	0.141	C.2	1	UNK0	0.000	
6	   C	-0.351	-4.003	-0.053	C.2	1	UNK0	0.000	
7	   C	-0.117	-5.076	0.786	C.2	1	UNK0	0.000	
8	   N	0.046	-1.692	-0.735	N.pl3	1	UNK0	0.000	
9	   C	-1.178	-1.358	-1.406	C.2	1	UNK0	0.000	
10	   O	-2.249	-2.013	-1.365	O.2	1	UNK0	0.000	
11	   C	-1.005	-0.105	-2.176	C.3	1	UNK0	0.000	
12	   O	-1.998	0.830	-1.906	O.3	1	UNK0	0.000	
13	   N	-1.862	1.222	-0.650	N.3	1	UNK0	0.000	
14	   C	-0.553	1.039	-0.200	C.3	1	UNK0	0.000	
15	   C	0.176	0.519	-1.440	C.3	1	UNK0	0.000	
16	   C	0.980	-0.686	-1.125	C.2	1	UNK0	0.000	
17	   O	2.235	-0.856	-1.170	O.2	1	UNK0	0.000	
18	   C	0.150	2.153	0.451	C.3	1	UNK0	0.000	
19	   C	-0.591	3.414	0.664	C.3	1	UNK0	0.000	
20	   C	-2.043	3.086	0.934	C.3	1	UNK0	0.000	
21	   C	-2.559	2.389	-0.298	C.3	1	UNK0	0.000	
22	   H	2.119	-3.694	2.881	 H	1	UNK0	0.000	
23	   H	1.678	-1.786	1.356	 H	1	UNK0	0.000	
24	   H	-1.042	-4.062	-0.889	 H	1	UNK0	0.000	
25	   H	-0.620	-6.016	0.637	 H	1	UNK0	0.000	
26	   H	-0.817	-0.247	-3.236	 H	1	UNK0	0.000	
27	   H	-0.557	0.160	0.514	 H	1	UNK0	0.000	
28	   H	0.692	1.282	-2.003	 H	1	UNK0	0.000	
29	   H	1.061	2.403	-0.172	 H	1	UNK0	0.000	
30	   H	0.603	1.849	1.442	 H	1	UNK0	0.000	
31	   H	-0.212	3.942	1.572	 H	1	UNK0	0.000	
32	   H	-0.572	4.120	-0.190	 H	1	UNK0	0.000	
33	   H	-2.585	4.047	1.033	 H	1	UNK0	0.000	
34	   H	-2.187	2.510	1.852	 H	1	UNK0	0.000	
35	   H	-2.600	3.147	-1.120	 H	1	UNK0	0.000	
36	   H	-3.635	2.128	-0.090	 H	1	UNK0	0.000	
@<TRIPOS>BOND
1 1 2 1
2 2 3 2
3 2 7 1
4 3 4 1
5 4 5 2
6 5 6 1
7 5 8 1
8 6 7 2
9 8 9 1
10 8 16 1
11 9 10 2
12 9 11 1
13 11 12 1
14 11 15 1
15 12 13 1
16 13 14 1
17 13 21 1
18 14 15 1
19 14 18 1
20 15 16 1
21 16 17 2
22 18 19 1
23 19 20 1
24 20 21 1
25 3 22 1
26 4 23 1
27 6 24 1
28 7 25 1
29 11 26 1
30 14 27 1
31 15 28 1
32 18 29 1
33 18 30 1
34 19 31 1
35 19 32 1
36 20 33 1
37 20 34 1
38 21 35 1
39 21 36 1
@<TRIPOS>SUBSTRUCTURE
1	UNK0	1	GROUP	1 ****	UNK
