REMARK  1 active torsions:
REMARK  status: ('A' for Active; 'I' for Inactive)
REMARK    1  A    between atoms: C_5  and  N_8 
ROOT
ATOM      1  N   UNK d   1       0.046  -1.692  -0.735  0.00  0.00    -0.250 N 
ATOM      2  C   UNK d   1      -1.178  -1.358  -1.406  0.00  0.00     0.263 C 
ATOM      3  O   UNK d   1      -2.249  -2.013  -1.365  0.00  0.00    -0.270 OA
ATOM      4  C   UNK d   1      -1.005  -0.105  -2.176  0.00  0.00     0.259 C 
ATOM      5  O   UNK d   1      -1.998   0.830  -1.906  0.00  0.00    -0.266 OA
ATOM      6  N   UNK d   1      -1.862   1.222  -0.650  0.00  0.00    -0.288 N 
ATOM      7  C   UNK d   1      -0.553   1.039  -0.200  0.00  0.00     0.125 C 
ATOM      8  C   UNK d   1       0.176   0.519  -1.440  0.00  0.00     0.144 C 
ATOM      9  C   UNK d   1       0.980  -0.686  -1.125  0.00  0.00     0.240 C 
ATOM     10  O   UNK d   1       2.235  -0.856  -1.170  0.00  0.00    -0.272 OA
ATOM     11  C   UNK d   1       0.150   2.153   0.451  0.00  0.00     0.028 C 
ATOM     12  C   UNK d   1      -0.591   3.414   0.664  0.00  0.00     0.004 C 
ATOM     13  C   UNK d   1      -2.043   3.086   0.934  0.00  0.00     0.022 C 
ATOM     14  C   UNK d   1      -2.559   2.389  -0.298  0.00  0.00     0.150 C 
ENDROOT
BRANCH   1  15
ATOM     15  C   UNK d   1       0.298  -2.792   0.141  0.00  0.00     0.045 A 
ATOM     16  C   UNK d   1       1.173  -2.727   1.204  0.00  0.00     0.032 A 
ATOM     17  C   UNK d   1       1.411  -3.799   2.048  0.00  0.00     0.026 A 
ATOM     18  C   UNK d   1       0.761  -4.999   1.847  0.00  0.00     0.034 A 
ATOM     19 Cl   UNK d   1       1.054  -6.364   2.910  0.00  0.00    -0.084 Cl
ATOM     20  C   UNK d   1      -0.117  -5.076   0.786  0.00  0.00     0.026 A 
ATOM     21  C   UNK d   1      -0.351  -4.003  -0.053  0.00  0.00     0.032 A 
ENDBRANCH   1  15
TORSDOF 1
