# created with PyMOL 2.3.2
@<TRIPOS>MOLECULE
2116
52 55 1                 
SMALL
USER_CHARGES
@<TRIPOS>ATOM
1	  Br	-1.621	6.228	-4.470	Br	1	UNK0	0.000	
2	   C	-0.502	4.724	-4.153	C.2	1	UNK0	0.000	
3	   C	0.798	4.763	-4.632	C.2	1	UNK0	0.000	
4	   C	1.590	3.656	-4.394	C.2	1	UNK0	0.000	
5	   C	1.105	2.569	-3.714	C.2	1	UNK0	0.000	
6	   C	-0.198	2.508	-3.221	C.2	1	UNK0	0.000	
7	   C	-0.973	3.620	-3.468	C.2	1	UNK0	0.000	
8	   C	-0.641	1.338	-2.491	C.2	1	UNK0	0.000	
9	   N	-1.838	1.234	-2.025	N.2	1	UNK0	0.000	
10	   N	-2.305	0.138	-1.319	N.pl3	1	UNK0	0.000	
11	   C	-1.484	-0.499	-0.348	C.2	1	UNK0	0.000	
12	   N	-0.952	-1.685	-0.597	N.2	1	UNK0	0.000	
13	   C	-0.142	-2.345	0.249	C.2	1	UNK0	0.000	
14	   N	0.131	-1.737	1.424	N.2	1	UNK0	0.000	
15	   C	-0.386	-0.519	1.738	C.2	1	UNK0	0.000	
16	   N	-1.196	0.086	0.834	N.2	1	UNK0	0.000	
17	   N	-0.080	0.111	2.961	N.pl3	1	UNK0	0.000	
18	   C	0.801	-0.503	3.921	C.3	1	UNK0	0.000	
19	   C	1.868	0.558	4.228	C.3	1	UNK0	0.000	
20	   O	1.241	1.731	4.596	O.3	1	UNK0	0.000	
21	   C	0.600	2.307	3.500	C.3	1	UNK0	0.000	
22	   C	-0.632	1.407	3.264	C.3	1	UNK0	0.000	
23	   N	0.416	-3.631	-0.068	N.pl3	1	UNK0	0.000	
24	   C	1.357	-4.273	0.805	C.3	1	UNK0	0.000	
25	   C	1.672	-5.689	0.517	C.3	1	UNK0	0.000	
26	   O	1.311	-6.114	-0.754	O.3	1	UNK0	0.000	
27	   C	0.008	-5.758	-1.074	C.3	1	UNK0	0.000	
28	   C	0.006	-4.264	-1.287	C.3	1	UNK0	0.000	
29	   O	1.912	1.451	-3.478	O.3	1	UNK0	0.000	
30	   O	1.301	5.862	-5.325	O.3	1	UNK0	0.000	
31	   H	2.613	3.704	-4.781	 H	1	UNK0	0.000	
32	   H	-2.005	3.586	-3.087	 H	1	UNK0	0.000	
33	   H	0.044	0.522	-2.327	 H	1	UNK0	0.000	
34	   H	-3.250	-0.223	-1.495	 H	1	UNK0	0.000	
35	   H	0.242	-0.736	4.850	 H	1	UNK0	0.000	
36	   H	1.297	-1.414	3.500	 H	1	UNK0	0.000	
37	   H	2.525	0.155	5.019	 H	1	UNK0	0.000	
38	   H	2.449	0.687	3.281	 H	1	UNK0	0.000	
39	   H	1.260	2.142	2.597	 H	1	UNK0	0.000	
40	   H	0.337	3.350	3.656	 H	1	UNK0	0.000	
41	   H	-1.123	1.326	4.277	 H	1	UNK0	0.000	
42	   H	-1.299	1.812	2.497	 H	1	UNK0	0.000	
43	   H	2.286	-3.638	0.798	 H	1	UNK0	0.000	
44	   H	0.919	-4.214	1.849	 H	1	UNK0	0.000	
45	   H	1.218	-6.363	1.288	 H	1	UNK0	0.000	
46	   H	2.780	-5.831	0.602	 H	1	UNK0	0.000	
47	   H	-0.289	-6.327	-1.959	 H	1	UNK0	0.000	
48	   H	-0.707	-5.941	-0.228	 H	1	UNK0	0.000	
49	   H	-1.054	-4.009	-1.552	 H	1	UNK0	0.000	
50	   H	0.636	-3.961	-2.150	 H	1	UNK0	0.000	
51	   H	2.866	1.465	-3.826	 H	1	UNK0	0.000	
52	   H	0.766	6.695	-5.519	 H	1	UNK0	0.000	
@<TRIPOS>BOND
1 1 2 1
2 2 3 2
3 2 7 1
4 3 4 1
5 3 30 1
6 4 5 2
7 5 6 1
8 5 29 1
9 6 7 2
10 6 8 1
11 8 9 2
12 9 10 1
13 10 11 1
14 11 12 2
15 11 16 1
16 12 13 1
17 13 14 2
18 13 23 1
19 14 15 1
20 15 16 2
21 15 17 1
22 17 18 1
23 17 22 1
24 18 19 1
25 19 20 1
26 20 21 1
27 21 22 1
28 23 24 1
29 23 28 1
30 24 25 1
31 25 26 1
32 26 27 1
33 27 28 1
34 4 31 1
35 7 32 1
36 8 33 1
37 10 34 1
38 18 35 1
39 18 36 1
40 19 37 1
41 19 38 1
42 21 39 1
43 21 40 1
44 22 41 1
45 22 42 1
46 24 43 1
47 24 44 1
48 25 45 1
49 25 46 1
50 27 47 1
51 27 48 1
52 28 49 1
53 28 50 1
54 29 51 1
55 30 52 1
@<TRIPOS>SUBSTRUCTURE
1	UNK0	1	GROUP	1 ****	UNK
