REMARK  7 active torsions:
REMARK  status: ('A' for Active; 'I' for Inactive)
REMARK    1  A    between atoms: C_3  and  O_30 
REMARK    2  A    between atoms: C_5  and  O_29 
REMARK    3  A    between atoms: C_6  and  C_8 
REMARK    4  A    between atoms: N_9  and  N_10 
REMARK    5  A    between atoms: N_10  and  C_11 
REMARK    6  A    between atoms: C_13  and  N_23 
REMARK    7  A    between atoms: C_15  and  N_17 
ROOT
ATOM      1  C   UNK d   1      -1.484  -0.499  -0.348  0.00  0.00     0.774 A 
ATOM      2  N   UNK d   1      -0.952  -1.685  -0.597  0.00  0.00     0.133 NA
ATOM      3  C   UNK d   1      -0.142  -2.345   0.249  0.00  0.00     0.756 A 
ATOM      4  N   UNK d   1       0.131  -1.737   1.424  0.00  0.00     0.131 NA
ATOM      5  C   UNK d   1      -0.386  -0.519   1.738  0.00  0.00     0.756 A 
ATOM      6  N   UNK d   1      -1.196   0.086   0.834  0.00  0.00     0.133 NA
ENDROOT
BRANCH   1   7
ATOM      7  N   UNK d   1      -2.305   0.138  -1.319  0.00  0.00    -0.105 N 
ATOM      8  H   UNK d   1      -3.250  -0.223  -1.495  0.00  0.00     0.208 HD
BRANCH   7   9
ATOM      9  N   UNK d   1      -1.838   1.234  -2.025  0.00  0.00    -0.171 NA
ATOM     10  C   UNK d   1      -0.641   1.338  -2.491  0.00  0.00     0.153 C 
BRANCH  10  11
ATOM     11  C   UNK d   1      -0.198   2.508  -3.221  0.00  0.00     0.018 A 
ATOM     12  C   UNK d   1       1.105   2.569  -3.714  0.00  0.00     0.080 A 
ATOM     13  C   UNK d   1       1.590   3.656  -4.394  0.00  0.00     0.075 A 
ATOM     14  C   UNK d   1       0.798   4.763  -4.632  0.00  0.00     0.085 A 
ATOM     15  C   UNK d   1      -0.502   4.724  -4.153  0.00  0.00     0.045 A 
ATOM     16 Br   UNK d   1      -1.621   6.228  -4.470  0.00  0.00    -0.048 Br
ATOM     17  C   UNK d   1      -0.973   3.620  -3.468  0.00  0.00     0.037 A 
BRANCH  12  18
ATOM     18  O   UNK d   1       1.912   1.451  -3.478  0.00  0.00    -0.360 OA
ATOM     19  H   UNK d   1       2.866   1.465  -3.826  0.00  0.00     0.217 HD
ENDBRANCH  12  18
BRANCH  14  20
ATOM     20  O   UNK d   1       1.301   5.862  -5.325  0.00  0.00    -0.359 OA
ATOM     21  H   UNK d   1       0.766   6.695  -5.519  0.00  0.00     0.217 HD
ENDBRANCH  14  20
ENDBRANCH  10  11
ENDBRANCH   7   9
ENDBRANCH   1   7
BRANCH   3  22
ATOM     22  N   UNK d   1       0.416  -3.631  -0.068  0.00  0.00    -0.209 N 
ATOM     23  C   UNK d   1       1.357  -4.273   0.805  0.00  0.00     0.167 C 
ATOM     24  C   UNK d   1       1.672  -5.689   0.517  0.00  0.00     0.188 C 
ATOM     25  O   UNK d   1       1.311  -6.114  -0.754  0.00  0.00    -0.388 OA
ATOM     26  C   UNK d   1       0.008  -5.758  -1.074  0.00  0.00     0.188 C 
ATOM     27  C   UNK d   1       0.006  -4.264  -1.287  0.00  0.00     0.167 C 
ENDBRANCH   3  22
BRANCH   5  28
ATOM     28  N   UNK d   1      -0.080   0.111   2.961  0.00  0.00    -0.209 N 
ATOM     29  C   UNK d   1       0.801  -0.503   3.921  0.00  0.00     0.167 C 
ATOM     30  C   UNK d   1       1.868   0.558   4.228  0.00  0.00     0.188 C 
ATOM     31  O   UNK d   1       1.241   1.731   4.596  0.00  0.00    -0.388 OA
ATOM     32  C   UNK d   1       0.600   2.307   3.500  0.00  0.00     0.188 C 
ATOM     33  C   UNK d   1      -0.632   1.407   3.264  0.00  0.00     0.167 C 
ENDBRANCH   5  28
TORSDOF 7
