REMARK  3 active torsions:
REMARK  status: ('A' for Active; 'I' for Inactive)
REMARK    1  A    between atoms: C_7  and  C_9 
REMARK       I    between atoms: C_9  and  N_11 
REMARK    2  A    between atoms: C_14  and  N_19 
REMARK    3  A    between atoms: C_15  and  O_18 
REMARK       I    between atoms: N_22  and  C_25 
ROOT
ATOM      1  C   UNK d   1      -0.279   0.537   1.751  0.00  0.00     0.203 C 
ATOM      2  O   UNK d   1      -1.610   0.492   1.605  0.00  0.00    -0.170 OA
ATOM      3  N   UNK d   1       0.305  -0.711   1.795  0.00  0.00    -0.358 N 
ATOM      4  C   UNK d   1      -0.707  -1.791   1.623  0.00  0.00     0.127 C 
ATOM      5  C   UNK d   1      -0.847  -2.105   0.146  0.00  0.00     0.058 C 
ATOM      6  C   UNK d   1       0.387  -1.649  -0.534  0.00  0.00     0.253 C 
ATOM      7  C   UNK d   1       1.595  -2.332   0.020  0.00  0.00     0.153 C 
ATOM      8  C   UNK d   1       2.440  -1.229   0.681  0.00  0.00     0.054 C 
ATOM      9  C   UNK d   1       1.694  -0.939   1.997  0.00  0.00     0.127 C 
ENDROOT
BRANCH   1  10
ATOM     10  C   UNK d   1       0.233   1.878   1.827  0.00  0.00     0.088 A 
ATOM     11  N   UNK d   1       1.488   2.324   1.918  0.00  0.00    -0.352 N 
ATOM     12  C   UNK d   1       1.515   3.689   2.002  0.00  0.00     0.043 A 
ATOM     13  H   UNK d   1       2.362   1.783   1.914  0.00  0.00     0.166 HD
ATOM     14  C   UNK d   1       0.233   4.115   1.962  0.00  0.00    -0.005 A 
ATOM     15  C   UNK d   1       2.531   4.599   2.115  0.00  0.00     0.032 A 
ATOM     16  C   UNK d   1      -0.109   5.470   2.032  0.00  0.00     0.037 A 
ATOM     17  C   UNK d   1      -0.584   3.007   1.853  0.00  0.00     0.048 A 
ATOM     18  C   UNK d   1       0.910   6.360   2.144  0.00  0.00     0.035 A 
ATOM     19 Cl   UNK d   1       0.518   8.079   2.238  0.00  0.00    -0.084 Cl
ATOM     20  C   UNK d   1       2.227   5.950   2.187  0.00  0.00     0.026 A 
ENDBRANCH   1  10
BRANCH   6  21
ATOM     21  N   UNK d   1       0.416  -1.668  -1.962  0.00  0.00     0.098 N 
ATOM     22  C   UNK d   1       0.573  -0.378  -2.585  0.00  0.00     0.293 C 
ATOM     23  C   UNK d   1      -0.580   0.512  -2.314  0.00  0.00     0.156 C 
ATOM     24  N   UNK d   1      -1.777  -0.206  -2.766  0.00  0.00    -0.349 N 
ATOM     25  C   UNK d   1      -1.547  -1.500  -3.354  0.00  0.00     0.156 C 
ATOM     26  C   UNK d   1      -3.065   0.395  -2.627  0.00  0.00     0.215 C 
ATOM     27  C   UNK d   1      -0.665  -2.410  -2.552  0.00  0.00     0.293 C 
ATOM     28  O   UNK d   1      -4.070  -0.225  -2.999  0.00  0.00    -0.274 OA
ATOM     29  C   UNK d   1      -3.151   1.766  -2.032  0.00  0.00     0.117 C 
ENDBRANCH   6  21
BRANCH   7  30
ATOM     30  O   UNK d   1       2.336  -3.032  -0.930  0.00  0.00    -0.393 OA
ATOM     31  H   UNK d   1       1.661  -3.371  -1.603  0.00  0.00     0.210 HD
ENDBRANCH   7  30
TORSDOF 3
