REMARK  6 active torsions:
REMARK  status: ('A' for Active; 'I' for Inactive)
REMARK    1  A    between atoms: N_11  and  C_12 
REMARK    2  A    between atoms: C_12  and  C_13 
REMARK    3  A    between atoms: C_16  and  C_18 
REMARK       I    between atoms: C_18  and  N_20 
REMARK    4  A    between atoms: N_20  and  C_21 
REMARK    5  A    between atoms: C_21  and  C_22 
REMARK    6  A    between atoms: C_22  and  N_23 
ROOT
ATOM      1  C   UNK d   1       0.338   2.844   0.250  0.00  0.00     0.174 A 
ATOM      2  N   UNK d   1       0.603   1.686  -0.379  0.00  0.00    -0.109 NA
ATOM      3  O   UNK d   1       0.499   0.684   0.447  0.00  0.00    -0.186 OA
ATOM      4  C   UNK d   1       0.167   1.182   1.621  0.00  0.00     0.264 A 
ATOM      5  N   UNK d   1       0.064   2.510   1.518  0.00  0.00    -0.198 NA
ENDROOT
BRANCH   1   6
ATOM      6  C   UNK d   1       0.330   4.189  -0.388  0.00  0.00     0.217 C 
BRANCH   6   7
ATOM      7  N   UNK d   1      -1.015   4.606  -0.661  0.00  0.00    -0.283 N 
ATOM      8  C   UNK d   1      -1.790   4.378  -1.725  0.00  0.00     0.075 A 
ATOM      9  C   UNK d   1      -1.577   3.679  -2.905  0.00  0.00     0.056 A 
ATOM     10  C   UNK d   1      -3.031   4.990  -1.533  0.00  0.00     0.108 A 
ATOM     11  C   UNK d   1      -2.610   3.623  -3.836  0.00  0.00     0.036 A 
ATOM     12 Cl   UNK d   1      -2.346   2.741  -5.332  0.00  0.00    -0.084 Cl
ATOM     13  C   UNK d   1      -3.828   4.240  -3.614  0.00  0.00     0.026 A 
ATOM     14  C   UNK d   1      -4.034   4.925  -2.456  0.00  0.00     0.041 A 
ATOM     15  O   UNK d   1      -2.933   5.551  -0.367  0.00  0.00    -0.259 OA
ATOM     16  C   UNK d   1      -1.761   5.346   0.178  0.00  0.00     0.373 A 
ATOM     17  O   UNK d   1      -1.428   5.791   1.309  0.00  0.00    -0.237 OA
ENDBRANCH   6   7
ENDBRANCH   1   6
BRANCH   4  18
ATOM     18  C   UNK d   1      -0.041   0.297   2.816  0.00  0.00     0.297 C 
ATOM     19  O   UNK d   1      -0.178   0.999   3.877  0.00  0.00    -0.264 OA
ATOM     20  N   UNK d   1      -0.066  -1.041   2.677  0.00  0.00    -0.352 N 
ATOM     21  H   UNK d   1      -0.342  -1.166   4.015  0.00  0.00     0.162 HD
BRANCH  20  22
ATOM     22  C   UNK d   1      -0.095  -2.417   2.552  0.00  0.00     0.142 C 
BRANCH  22  23
ATOM     23  C   UNK d   1       0.115  -2.903   1.113  0.00  0.00     0.136 C 
BRANCH  23  24
ATOM     24  N   UNK d   1       1.337  -2.517   0.527  0.00  0.00    -0.407 N 
ATOM     25  C   UNK d   1       1.454  -3.011  -0.789  0.00  0.00     0.143 C 
ATOM     26  C   UNK d   1       2.868  -3.195  -1.227  0.00  0.00     0.187 C 
ATOM     27  O   UNK d   1       3.614  -2.132  -0.787  0.00  0.00    -0.388 OA
ATOM     28  C   UNK d   1       3.747  -2.069   0.587  0.00  0.00     0.187 C 
ATOM     29  C   UNK d   1       2.487  -2.408   1.327  0.00  0.00     0.143 C 
ENDBRANCH  23  24
ENDBRANCH  22  23
ENDBRANCH  20  22
ENDBRANCH   4  18
TORSDOF 6
