# created with PyMOL 2.3.2
@<TRIPOS>MOLECULE
2122
46 49 1                 
SMALL
USER_CHARGES
@<TRIPOS>ATOM
1	  Cl	-2.346	2.741	-5.332	Cl	1	UNK0	0.000	
2	   C	-2.610	3.623	-3.836	C.2	1	UNK0	0.000	
3	   C	-1.577	3.679	-2.905	C.2	1	UNK0	0.000	
4	   C	-1.790	4.378	-1.725	C.2	1	UNK0	0.000	
5	   C	-3.031	4.990	-1.533	C.2	1	UNK0	0.000	
6	   C	-4.034	4.925	-2.456	C.2	1	UNK0	0.000	
7	   C	-3.828	4.240	-3.614	C.2	1	UNK0	0.000	
8	   O	-2.933	5.551	-0.367	O.3	1	UNK0	0.000	
9	   C	-1.761	5.346	0.178	C.2	1	UNK0	0.000	
10	   O	-1.428	5.791	1.309	O.co2	1	UNK0	0.000	
11	   N	-1.015	4.606	-0.661	N.pl3	1	UNK0	0.000	
12	   C	0.330	4.189	-0.388	C.3	1	UNK0	0.000	
13	   C	0.338	2.844	0.250	C.2	1	UNK0	0.000	
14	   N	0.603	1.686	-0.379	N.2	1	UNK0	0.000	
15	   O	0.499	0.684	0.447	O.3	1	UNK0	0.000	
16	   C	0.167	1.182	1.621	C.2	1	UNK0	0.000	
17	   N	0.064	2.510	1.518	N.2	1	UNK0	0.000	
18	   C	-0.041	0.297	2.816	C.2	1	UNK0	0.000	
19	   O	-0.178	0.999	3.877	O.2	1	UNK0	0.000	
20	   N	-0.066	-1.041	2.677	N.pl3	1	UNK0	0.000	
21	   C	-0.095	-2.417	2.552	C.3	1	UNK0	0.000	
22	   C	0.115	-2.903	1.113	C.3	1	UNK0	0.000	
23	   N	1.337	-2.517	0.527	N.3	1	UNK0	0.000	
24	   C	1.454	-3.011	-0.789	C.3	1	UNK0	0.000	
25	   C	2.868	-3.195	-1.227	C.3	1	UNK0	0.000	
26	   O	3.614	-2.132	-0.787	O.3	1	UNK0	0.000	
27	   C	3.747	-2.069	0.587	C.3	1	UNK0	0.000	
28	   C	2.487	-2.408	1.327	C.3	1	UNK0	0.000	
29	   H	-0.624	3.221	-3.040	 H	1	UNK0	0.000	
30	   H	-4.984	5.424	-2.260	 H	1	UNK0	0.000	
31	   H	-4.631	4.188	-4.351	 H	1	UNK0	0.000	
32	   H	0.812	4.952	0.249	 H	1	UNK0	0.000	
33	   H	0.955	4.134	-1.307	 H	1	UNK0	0.000	
34	   H	-0.342	-1.166	4.015	 H	1	UNK0	0.000	
35	   H	-1.119	-2.827	2.808	 H	1	UNK0	0.000	
36	   H	0.627	-2.987	3.160	 H	1	UNK0	0.000	
37	   H	-0.706	-2.579	0.438	 H	1	UNK0	0.000	
38	   H	0.066	-4.006	1.160	 H	1	UNK0	0.000	
39	   H	0.863	-3.942	-0.927	 H	1	UNK0	0.000	
40	   H	1.000	-2.273	-1.518	 H	1	UNK0	0.000	
41	   H	3.297	-4.160	-0.893	 H	1	UNK0	0.000	
42	   H	2.934	-3.164	-2.358	 H	1	UNK0	0.000	
43	   H	4.132	-1.051	0.844	 H	1	UNK0	0.000	
44	   H	4.532	-2.789	0.884	 H	1	UNK0	0.000	
45	   H	2.382	-1.610	2.124	 H	1	UNK0	0.000	
46	   H	2.613	-3.355	1.887	 H	1	UNK0	0.000	
@<TRIPOS>BOND
1 1 2 1
2 2 3 2
3 2 7 1
4 3 4 1
5 4 5 2
6 4 11 1
7 5 6 1
8 5 8 1
9 6 7 2
10 8 9 1
11 9 10 2
12 9 11 1
13 11 12 1
14 12 13 1
15 13 14 2
16 13 17 1
17 14 15 1
18 15 16 1
19 16 17 2
20 16 18 1
21 18 19 2
22 18 20 1
23 20 21 1
24 21 22 1
25 22 23 1
26 23 24 1
27 23 28 1
28 24 25 1
29 25 26 1
30 26 27 1
31 27 28 1
32 3 29 1
33 6 30 1
34 7 31 1
35 12 32 1
36 12 33 1
37 20 34 1
38 21 35 1
39 21 36 1
40 22 37 1
41 22 38 1
42 24 39 1
43 24 40 1
44 25 41 1
45 25 42 1
46 27 43 1
47 27 44 1
48 28 45 1
49 28 46 1
@<TRIPOS>SUBSTRUCTURE
1	UNK0	1	GROUP	1 ****	UNK
