# created with PyMOL 2.3.2
@<TRIPOS>MOLECULE
2124
41 45 1                 
SMALL
USER_CHARGES
@<TRIPOS>ATOM
1	  Cl	5.896	-3.955	1.550	Cl	1	UNK0	0.000	
2	   C	4.549	-2.823	1.393	C.2	1	UNK0	0.000	
3	   C	3.282	-3.252	1.079	C.2	1	UNK0	0.000	
4	   C	2.249	-2.338	0.968	C.2	1	UNK0	0.000	
5	   C	2.427	-0.989	1.159	C.2	1	UNK0	0.000	
6	   C	3.701	-0.555	1.476	C.2	1	UNK0	0.000	
7	   C	4.742	-1.474	1.589	C.2	1	UNK0	0.000	
8	   N	1.367	-0.035	1.049	N.pl3	1	UNK0	0.000	
9	   C	0.982	0.768	-0.057	C.2	1	UNK0	0.000	
10	   O	1.466	0.688	-1.217	O.2	1	UNK0	0.000	
11	   C	-0.091	1.737	0.346	C.3	1	UNK0	0.000	
12	   C	-1.308	1.576	-0.502	C.3	1	UNK0	0.000	
13	   O	-2.375	1.459	0.423	O.3	1	UNK0	0.000	
14	   C	-1.809	0.402	1.181	C.3	1	UNK0	0.000	
15	   C	-0.565	1.133	1.676	C.3	1	UNK0	0.000	
16	   C	0.495	0.248	2.136	C.2	1	UNK0	0.000	
17	   O	0.599	-0.183	3.313	O.2	1	UNK0	0.000	
18	   C	-1.497	-0.565	0.102	C.2	1	UNK0	0.000	
19	   C	-1.299	0.168	-1.013	C.2	1	UNK0	0.000	
20	   C	-2.681	-0.110	2.250	C.3	1	UNK0	0.000	
21	   C	-1.545	2.593	-1.534	C.3	1	UNK0	0.000	
22	   O	-2.694	2.243	-2.246	O.3	1	UNK0	0.000	
23	   C	-3.779	2.780	-1.600	C.3	1	UNK0	0.000	
24	   C	-3.192	3.981	-0.907	C.3	1	UNK0	0.000	
25	   O	-1.825	3.818	-0.928	O.3	1	UNK0	0.000	
26	   H	3.109	-4.296	0.924	 H	1	UNK0	0.000	
27	   H	1.230	-2.655	0.720	 H	1	UNK0	0.000	
28	   H	3.887	0.501	1.634	 H	1	UNK0	0.000	
29	   H	5.739	-1.151	1.837	 H	1	UNK0	0.000	
30	   H	0.277	2.756	0.458	 H	1	UNK0	0.000	
31	   H	-0.880	1.899	2.381	 H	1	UNK0	0.000	
32	   H	-1.421	-1.644	0.106	 H	1	UNK0	0.000	
33	   H	-1.161	-0.150	-2.033	 H	1	UNK0	0.000	
34	   H	-2.474	0.310	3.262	 H	1	UNK0	0.000	
35	   H	-2.614	-1.229	2.359	 H	1	UNK0	0.000	
36	   H	-3.773	0.079	2.075	 H	1	UNK0	0.000	
37	   H	-0.674	2.725	-2.176	 H	1	UNK0	0.000	
38	   H	-4.523	3.074	-2.395	 H	1	UNK0	0.000	
39	   H	-4.313	2.095	-0.930	 H	1	UNK0	0.000	
40	   H	-3.618	3.990	0.129	 H	1	UNK0	0.000	
41	   H	-3.532	4.879	-1.486	 H	1	UNK0	0.000	
@<TRIPOS>BOND
1 1 2 1
2 2 3 2
3 2 7 1
4 3 4 1
5 4 5 2
6 5 6 1
7 5 8 1
8 6 7 2
9 8 9 1
10 8 16 1
11 9 10 2
12 9 11 1
13 11 12 1
14 11 15 1
15 12 13 1
16 12 19 1
17 12 21 1
18 13 14 1
19 14 15 1
20 14 18 1
21 14 20 1
22 15 16 1
23 16 17 2
24 18 19 2
25 21 22 1
26 21 25 1
27 22 23 1
28 23 24 1
29 24 25 1
30 3 26 1
31 4 27 1
32 6 28 1
33 7 29 1
34 11 30 1
35 15 31 1
36 18 32 1
37 19 33 1
38 20 34 1
39 20 35 1
40 20 36 1
41 21 37 1
42 23 38 1
43 23 39 1
44 24 40 1
45 24 41 1
@<TRIPOS>SUBSTRUCTURE
1	UNK0	1	GROUP	1 ****	UNK
