REMARK  2 active torsions:
REMARK  status: ('A' for Active; 'I' for Inactive)
REMARK    1  A    between atoms: C_5  and  N_8 
REMARK    2  A    between atoms: C_12  and  C_21 
ROOT
ATOM      1  N   UNK d   1       1.367  -0.035   1.049  0.00  0.00    -0.252 N 
ATOM      2  C   UNK d   1       0.982   0.768  -0.057  0.00  0.00     0.239 C 
ATOM      3  O   UNK d   1       1.466   0.688  -1.217  0.00  0.00    -0.272 OA
ATOM      4  C   UNK d   1      -0.091   1.737   0.346  0.00  0.00     0.138 C 
ATOM      5  C   UNK d   1      -1.308   1.576  -0.502  0.00  0.00     0.142 C 
ATOM      6  O   UNK d   1      -2.375   1.459   0.423  0.00  0.00    -0.355 OA
ATOM      7  C   UNK d   1      -1.809   0.402   1.181  0.00  0.00     0.089 C 
ATOM      8  C   UNK d   1      -0.565   1.133   1.676  0.00  0.00     0.133 C 
ATOM      9  C   UNK d   1       0.495   0.248   2.136  0.00  0.00     0.239 C 
ATOM     10  O   UNK d   1       0.599  -0.183   3.313  0.00  0.00    -0.272 OA
ATOM     11  C   UNK d   1      -1.497  -0.565   0.102  0.00  0.00     0.010 C 
ATOM     12  C   UNK d   1      -1.299   0.168  -1.013  0.00  0.00     0.016 C 
ATOM     13  C   UNK d   1      -2.681  -0.110   2.250  0.00  0.00     0.051 C 
ENDROOT
BRANCH   1  14
ATOM     14  C   UNK d   1       2.427  -0.989   1.159  0.00  0.00     0.045 A 
ATOM     15  C   UNK d   1       2.249  -2.338   0.968  0.00  0.00     0.032 A 
ATOM     16  C   UNK d   1       3.282  -3.252   1.079  0.00  0.00     0.026 A 
ATOM     17  C   UNK d   1       4.549  -2.823   1.393  0.00  0.00     0.034 A 
ATOM     18 Cl   UNK d   1       5.896  -3.955   1.550  0.00  0.00    -0.084 Cl
ATOM     19  C   UNK d   1       4.742  -1.474   1.589  0.00  0.00     0.026 A 
ATOM     20  C   UNK d   1       3.701  -0.555   1.476  0.00  0.00     0.032 A 
ENDBRANCH   1  14
BRANCH   5  21
ATOM     21  C   UNK d   1      -1.545   2.593  -1.534  0.00  0.00     0.298 C 
ATOM     22  O   UNK d   1      -2.694   2.243  -2.246  0.00  0.00    -0.356 OA
ATOM     23  C   UNK d   1      -3.779   2.780  -1.600  0.00  0.00     0.197 C 
ATOM     24  C   UNK d   1      -3.192   3.981  -0.907  0.00  0.00     0.197 C 
ATOM     25  O   UNK d   1      -1.825   3.818  -0.928  0.00  0.00    -0.356 OA
ENDBRANCH   5  21
TORSDOF 2
