REMARK  4 active torsions:
REMARK  status: ('A' for Active; 'I' for Inactive)
REMARK    1  A    between atoms: C_5  and  N_8 
REMARK       I    between atoms: N_8  and  C_9 
REMARK       I    between atoms: C_9  and  N_11 
REMARK    2  A    between atoms: N_11  and  N_12 
REMARK       I    between atoms: N_12  and  C_13 
REMARK    3  A    between atoms: C_13  and  C_15 
REMARK    4  A    between atoms: N_17  and  C_26 
ROOT
ATOM      1  C   UNK d   1      -1.107   0.754   0.994  0.00  0.00     0.244 A 
ATOM      2  N   UNK d   1      -0.992  -0.095   0.002  0.00  0.00    -0.127 NA
ATOM      3  N   UNK d   1      -2.205  -0.564  -0.434  0.00  0.00    -0.058 N 
ATOM      4  C   UNK d   1      -3.185   0.074   0.386  0.00  0.00     0.756 A 
ATOM      5  N   UNK d   1      -4.483   0.011   0.422  0.00  0.00     0.020 NA
ATOM      6  N   UNK d   1      -5.244   0.761   1.357  0.00  0.00    -0.258 N 
ATOM      7  C   UNK d   1      -4.638   1.614   2.297  0.00  0.00     0.110 A 
ATOM      8  C   UNK d   1      -5.335   2.314   3.182  0.00  0.00     0.050 C 
ATOM      9  C   UNK d   1      -3.182   1.701   2.272  0.00  0.00     0.295 A 
ATOM     10  O   UNK d   1      -2.629   2.445   3.088  0.00  0.00    -0.265 OA
ATOM     11  N   UNK d   1      -2.487   0.917   1.301  0.00  0.00    -0.080 N 
ATOM     12  H   UNK d   1      -6.280   0.637   1.300  0.00  0.00     0.190 HD
ENDROOT
BRANCH   1  13
ATOM     13  C   UNK d   1       0.007   1.407   1.653  0.00  0.00     0.308 C 
ATOM     14  N   UNK d   1       1.327   1.132   1.223  0.00  0.00    -0.259 N 
ATOM     15  H   UNK d   1       1.538   0.502   0.435  0.00  0.00     0.190 HD
ATOM     16  O   UNK d   1      -0.177   2.218   2.616  0.00  0.00    -0.262 OA
BRANCH  14  17
ATOM     17  N   UNK d   1       2.383   1.747   1.886  0.00  0.00    -0.248 N 
ATOM     18  C   UNK d   1       3.540   2.299   1.303  0.00  0.00     0.339 C 
ATOM     19  N   UNK d   1       4.573   2.910   2.035  0.00  0.00    -0.308 N 
ATOM     20  O   UNK d   1       3.662   2.249   0.049  0.00  0.00    -0.245 OA
ATOM     21  H   UNK d   1       4.504   2.960   3.082  0.00  0.00     0.170 HD
ATOM     22  H   UNK d   1       2.266   1.773   2.951  0.00  0.00     0.192 HD
BRANCH  19  23
ATOM     23  C   UNK d   1       5.747   3.494   1.480  0.00  0.00     0.036 A 
ATOM     24  C   UNK d   1       5.679   4.685   0.761  0.00  0.00     0.031 A 
ATOM     25  C   UNK d   1       6.798   5.272   0.213  0.00  0.00     0.026 A 
ATOM     26  C   UNK d   1       7.995   4.632   0.405  0.00  0.00     0.034 A 
ATOM     27 Cl   UNK d   1       9.491   5.307  -0.253  0.00  0.00    -0.084 Cl
ATOM     28  C   UNK d   1       8.108   3.461   1.105  0.00  0.00     0.026 A 
ATOM     29  C   UNK d   1       6.982   2.884   1.647  0.00  0.00     0.031 A 
ENDBRANCH  19  23
ENDBRANCH  14  17
ENDBRANCH   1  13
BRANCH   3  30
ATOM     30  C   UNK d   1      -2.419  -1.530  -1.459  0.00  0.00     0.077 A 
ATOM     31  C   UNK d   1      -1.391  -2.302  -1.942  0.00  0.00     0.033 A 
ATOM     32  C   UNK d   1      -1.552  -3.285  -2.909  0.00  0.00     0.009 A 
ATOM     33  C   UNK d   1      -2.803  -3.529  -3.439  0.00  0.00    -0.062 A 
ATOM     34  C   UNK d   1      -3.851  -2.764  -2.972  0.00  0.00     0.009 A 
ATOM     35  C   UNK d   1      -3.028  -4.603  -4.454  0.00  0.00     0.048 C 
ATOM     36  C   UNK d   1      -3.659  -1.783  -2.000  0.00  0.00     0.033 A 
ENDBRANCH   3  30
TORSDOF 4
