# created with PyMOL 2.3.2
@<TRIPOS>MOLECULE
2134
49 52 1                 
SMALL
USER_CHARGES
@<TRIPOS>ATOM
1	  Cl	9.491	5.307	-0.253	Cl	1	UNK0	0.000	
2	   C	7.995	4.632	0.405	C.2	1	UNK0	0.000	
3	   C	6.798	5.272	0.213	C.2	1	UNK0	0.000	
4	   C	5.679	4.685	0.761	C.2	1	UNK0	0.000	
5	   C	5.747	3.494	1.480	C.2	1	UNK0	0.000	
6	   C	6.982	2.884	1.647	C.2	1	UNK0	0.000	
7	   C	8.108	3.461	1.105	C.2	1	UNK0	0.000	
8	   N	4.573	2.910	2.035	N.pl3	1	UNK0	0.000	
9	   C	3.540	2.299	1.303	C.2	1	UNK0	0.000	
10	   O	3.662	2.249	0.049	O.2	1	UNK0	0.000	
11	   N	2.383	1.747	1.886	N.pl3	1	UNK0	0.000	
12	   N	1.327	1.132	1.223	N.pl3	1	UNK0	0.000	
13	   C	0.007	1.407	1.653	C.2	1	UNK0	0.000	
14	   O	-0.177	2.218	2.616	O.2	1	UNK0	0.000	
15	   C	-1.107	0.754	0.994	C.2	1	UNK0	0.000	
16	   N	-0.992	-0.095	0.002	N.2	1	UNK0	0.000	
17	   N	-2.205	-0.564	-0.434	N.pl3	1	UNK0	0.000	
18	   C	-3.185	0.074	0.386	C.2	1	UNK0	0.000	
19	   N	-4.483	0.011	0.422	N.2	1	UNK0	0.000	
20	   N	-5.244	0.761	1.357	N.pl3	1	UNK0	0.000	
21	   C	-4.638	1.614	2.297	C.2	1	UNK0	0.000	
22	   C	-5.335	2.314	3.182	C.2	1	UNK0	0.000	
23	   C	-3.182	1.701	2.272	C.2	1	UNK0	0.000	
24	   O	-2.629	2.445	3.088	O.2	1	UNK0	0.000	
25	   N	-2.487	0.917	1.301	N.pl3	1	UNK0	0.000	
26	   C	-2.419	-1.530	-1.459	C.2	1	UNK0	0.000	
27	   C	-1.391	-2.302	-1.942	C.2	1	UNK0	0.000	
28	   C	-1.552	-3.285	-2.909	C.2	1	UNK0	0.000	
29	   C	-2.803	-3.529	-3.439	C.2	1	UNK0	0.000	
30	   C	-3.851	-2.764	-2.972	C.2	1	UNK0	0.000	
31	   C	-3.659	-1.783	-2.000	C.2	1	UNK0	0.000	
32	   C	-3.028	-4.603	-4.454	C.3	1	UNK0	0.000	
33	   H	6.732	6.206	-0.349	 H	1	UNK0	0.000	
34	   H	4.699	5.157	0.637	 H	1	UNK0	0.000	
35	   H	6.996	1.953	2.211	 H	1	UNK0	0.000	
36	   H	9.073	2.956	1.244	 H	1	UNK0	0.000	
37	   H	4.504	2.960	3.082	 H	1	UNK0	0.000	
38	   H	2.266	1.773	2.951	 H	1	UNK0	0.000	
39	   H	1.538	0.502	0.435	 H	1	UNK0	0.000	
40	   H	-6.280	0.637	1.300	 H	1	UNK0	0.000	
41	   H	-6.409	2.282	3.248	 H	1	UNK0	0.000	
42	   H	-4.830	2.955	3.896	 H	1	UNK0	0.000	
43	   H	-0.392	-2.115	-1.524	 H	1	UNK0	0.000	
44	   H	-0.723	-3.870	-3.265	 H	1	UNK0	0.000	
45	   H	-4.831	-2.963	-3.403	 H	1	UNK0	0.000	
46	   H	-4.506	-1.194	-1.654	 H	1	UNK0	0.000	
47	   H	-2.715	-4.331	-5.465	 H	1	UNK0	0.000	
48	   H	-4.072	-4.938	-4.482	 H	1	UNK0	0.000	
49	   H	-2.444	-5.528	-4.154	 H	1	UNK0	0.000	
@<TRIPOS>BOND
1 1 2 1
2 2 3 2
3 2 7 1
4 3 4 1
5 4 5 2
6 5 6 1
7 5 8 1
8 6 7 2
9 8 9 1
10 9 10 2
11 9 11 1
12 11 12 1
13 12 13 1
14 13 14 2
15 13 15 1
16 15 16 2
17 15 25 1
18 16 17 1
19 17 18 1
20 17 26 1
21 18 19 2
22 18 25 1
23 19 20 1
24 20 21 1
25 21 22 2
26 21 23 1
27 23 24 2
28 23 25 1
29 26 27 2
30 26 31 1
31 27 28 1
32 28 29 2
33 29 30 1
34 29 32 1
35 30 31 2
36 3 33 1
37 4 34 1
38 6 35 1
39 7 36 1
40 8 37 1
41 11 38 1
42 12 39 1
43 20 40 1
44 22 41 1
45 22 42 1
46 27 43 1
47 28 44 1
48 30 45 1
49 31 46 1
50 32 47 1
51 32 48 1
52 32 49 1
@<TRIPOS>SUBSTRUCTURE
1	UNK0	1	GROUP	1 ****	UNK
