REMARK  5 active torsions:
REMARK  status: ('A' for Active; 'I' for Inactive)
REMARK    1  A    between atoms: C_10  and  C_22 
REMARK    2  A    between atoms: N_15  and  C_18 
REMARK    3  A    between atoms: C_18  and  C_19 
REMARK    4  A    between atoms: C_19  and  O_20 
REMARK    5  A    between atoms: C_22  and  C_23 
ROOT
ATOM      1 Cl   UNK d   1      -6.809   0.214   0.210  0.00  0.00    -0.082 Cl
ATOM      2  C   UNK d   1      -5.371   0.265  -0.788  0.00  0.00     0.061 A 
ATOM      3  C   UNK d   1      -4.137   0.642  -0.299  0.00  0.00     0.066 A 
ATOM      4  C   UNK d   1      -3.015   0.672  -1.120  0.00  0.00     0.019 A 
ATOM      5  C   UNK d   1      -3.200   0.310  -2.426  0.00  0.00     0.013 A 
ATOM      6  C   UNK d   1      -4.421  -0.069  -2.931  0.00  0.00     0.002 A 
ATOM      7  C   UNK d   1      -5.518  -0.097  -2.123  0.00  0.00     0.026 A 
ATOM      8  C   UNK d   1      -1.871   1.109  -0.311  0.00  0.00     0.279 A 
ATOM      9  N   UNK d   1      -1.248   2.312  -0.833  0.00  0.00     0.114 N 
ATOM     10  C   UNK d   1       0.034   2.321  -0.124  0.00  0.00     0.240 C 
ATOM     11  C   UNK d   1       0.457   0.908   0.013  0.00  0.00     0.128 C 
ATOM     12  C   UNK d   1      -0.745   0.112  -0.384  0.00  0.00     0.147 C 
ATOM     13  C   UNK d   1      -0.899  -1.001   0.557  0.00  0.00     0.235 C 
ATOM     14  O   UNK d   1      -1.643  -1.993   0.354  0.00  0.00    -0.272 OA
ATOM     15  N   UNK d   1      -0.066  -0.713   1.673  0.00  0.00    -0.286 N 
ATOM     16  C   UNK d   1       0.626   0.510   1.460  0.00  0.00     0.233 C 
ATOM     17  O   UNK d   1       1.287   1.199   2.284  0.00  0.00    -0.272 OA
ATOM     18  C   UNK d   1      -2.382   1.344   1.049  0.00  0.00     0.267 A 
ATOM     19  O   UNK d   1      -1.766   1.724   2.055  0.00  0.00    -0.270 OA
ATOM     20  N   UNK d   1      -3.770   1.045   1.012  0.00  0.00    -0.323 N 
ATOM     21  H   UNK d   1      -1.811   3.177  -0.606  0.00  0.00     0.318 HD
ATOM     22  H   UNK d   1      -4.449   1.104   1.818  0.00  0.00     0.169 HD
ENDROOT
BRANCH  10  23
ATOM     23  C   UNK d   1       1.057   3.131  -0.862  0.00  0.00     0.075 C 
BRANCH  23  24
ATOM     24  C   UNK d   1       1.354   2.652  -2.222  0.00  0.00    -0.056 A 
ATOM     25  C   UNK d   1       0.504   3.057  -3.249  0.00  0.00     0.007 A 
ATOM     26  C   UNK d   1       0.766   2.645  -4.530  0.00  0.00     0.001 A 
ATOM     27  C   UNK d   1       1.836   1.845  -4.853  0.00  0.00     0.000 A 
ATOM     28  C   UNK d   1       2.653   1.466  -3.810  0.00  0.00     0.001 A 
ATOM     29  C   UNK d   1       2.436   1.852  -2.504  0.00  0.00     0.007 A 
ENDBRANCH  23  24
ENDBRANCH  10  23
BRANCH  15  30
ATOM     30  C   UNK d   1       0.051  -1.559   2.858  0.00  0.00     0.161 C 
BRANCH  30  31
ATOM     31  C   UNK d   1       1.175  -2.555   2.612  0.00  0.00     0.187 C 
BRANCH  31  32
ATOM     32  O   UNK d   1       0.905  -3.341   1.503  0.00  0.00    -0.394 OA
ATOM     33  C   UNK d   1       1.942  -4.232   1.307  0.00  0.00     0.201 C 
ENDBRANCH  31  32
ENDBRANCH  30  31
ENDBRANCH  15  30
TORSDOF 5
