# created with PyMOL 2.3.2
@<TRIPOS>MOLECULE
2139
42 45 1                 
SMALL
USER_CHARGES
@<TRIPOS>ATOM
1	  Cl	4.145	1.117	-3.072	Cl	1	UNK0	0.000	
2	   C	3.480	0.041	-1.860	C.2	1	UNK0	0.000	
3	   C	2.270	-0.580	-2.087	C.2	1	UNK0	0.000	
4	   C	1.794	-1.423	-1.089	C.2	1	UNK0	0.000	
5	   C	2.460	-1.660	0.087	C.2	1	UNK0	0.000	
6	   C	3.663	-1.033	0.292	C.2	1	UNK0	0.000	
7	   C	4.151	-0.196	-0.682	C.2	1	UNK0	0.000	
8	   C	1.901	-2.560	1.094	C.3	1	UNK0	0.000	
9	   N	1.056	-1.973	2.061	N.3	1	UNK0	0.000	
10	   C	1.592	-0.961	2.881	C.3	1	UNK0	0.000	
11	   C	1.402	0.455	2.409	C.3	1	UNK0	0.000	
12	   N	0.234	0.426	1.490	N.pl3	1	UNK0	0.000	
13	   C	-0.804	-0.435	1.914	C.3	1	UNK0	0.000	
14	   C	-0.330	-1.857	1.705	C.3	1	UNK0	0.000	
15	   C	0.301	1.267	0.359	C.2	1	UNK0	0.000	
16	   N	1.148	2.340	0.376	N.2	1	UNK0	0.000	
17	   C	1.279	3.225	-0.604	C.2	1	UNK0	0.000	
18	   N	0.530	3.072	-1.709	N.2	1	UNK0	0.000	
19	   C	-0.326	2.028	-1.784	C.2	1	UNK0	0.000	
20	   N	-1.174	1.622	-2.747	N.2	1	UNK0	0.000	
21	   C	-1.797	0.514	-2.345	C.2	1	UNK0	0.000	
22	   N	-1.373	0.170	-1.116	N.pl3	1	UNK0	0.000	
23	   C	-0.468	1.094	-0.756	C.2	1	UNK0	0.000	
24	   N	2.195	4.337	-0.520	N.pl3	1	UNK0	0.000	
25	   H	1.715	-0.415	-3.006	 H	1	UNK0	0.000	
26	   H	0.833	-1.885	-1.324	 H	1	UNK0	0.000	
27	   H	4.241	-1.189	1.222	 H	1	UNK0	0.000	
28	   H	5.114	0.306	-0.516	 H	1	UNK0	0.000	
29	   H	1.367	-3.431	0.640	 H	1	UNK0	0.000	
30	   H	2.775	-3.029	1.635	 H	1	UNK0	0.000	
31	   H	2.655	-1.128	3.035	 H	1	UNK0	0.000	
32	   H	1.112	-1.048	3.899	 H	1	UNK0	0.000	
33	   H	2.273	0.907	1.939	 H	1	UNK0	0.000	
34	   H	1.077	1.109	3.245	 H	1	UNK0	0.000	
35	   H	-0.852	-0.324	3.059	 H	1	UNK0	0.000	
36	   H	-1.818	-0.233	1.605	 H	1	UNK0	0.000	
37	   H	-0.486	-2.240	0.683	 H	1	UNK0	0.000	
38	   H	-0.917	-2.500	2.401	 H	1	UNK0	0.000	
39	   H	-2.540	-0.015	-2.951	 H	1	UNK0	0.000	
40	   H	-1.709	-0.668	-0.595	 H	1	UNK0	0.000	
41	   H	1.873	5.314	-0.554	 H	1	UNK0	0.000	
42	   H	3.214	4.158	-0.421	 H	1	UNK0	0.000	
@<TRIPOS>BOND
1 1 2 1
2 2 3 2
3 2 7 1
4 3 4 1
5 4 5 2
6 5 6 1
7 5 8 1
8 6 7 2
9 8 9 1
10 9 10 1
11 9 14 1
12 10 11 1
13 11 12 1
14 12 13 1
15 12 15 1
16 13 14 1
17 15 16 2
18 15 23 1
19 16 17 1
20 17 18 2
21 17 24 1
22 18 19 1
23 19 20 1
24 19 23 2
25 20 21 2
26 21 22 1
27 22 23 1
28 3 25 1
29 4 26 1
30 6 27 1
31 7 28 1
32 8 29 1
33 8 30 1
34 10 31 1
35 10 32 1
36 11 33 1
37 11 34 1
38 13 35 1
39 13 36 1
40 14 37 1
41 14 38 1
42 21 39 1
43 22 40 1
44 24 41 1
45 24 42 1
@<TRIPOS>SUBSTRUCTURE
1	UNK0	1	GROUP	1 ****	UNK
