REMARK  4 active torsions:
REMARK  status: ('A' for Active; 'I' for Inactive)
REMARK    1  A    between atoms: C_5  and  C_8 
REMARK    2  A    between atoms: C_8  and  N_9 
REMARK    3  A    between atoms: N_12  and  C_15 
REMARK    4  A    between atoms: C_17  and  N_24 
ROOT
ATOM      1  N   UNK d   1       1.056  -1.973   2.061  0.00  0.00    -0.405 N 
ATOM      2  C   UNK d   1       1.592  -0.961   2.881  0.00  0.00     0.137 C 
ATOM      3  C   UNK d   1       1.402   0.455   2.409  0.00  0.00     0.144 C 
ATOM      4  N   UNK d   1       0.234   0.426   1.490  0.00  0.00    -0.360 N 
ATOM      5  C   UNK d   1      -0.804  -0.435   1.914  0.00  0.00     0.144 C 
ATOM      6  C   UNK d   1      -0.330  -1.857   1.705  0.00  0.00     0.137 C 
ENDROOT
BRANCH   4   7
ATOM      7  C   UNK d   1       0.301   1.267   0.359  0.00  0.00     0.176 A 
ATOM      8  N   UNK d   1       1.148   2.340   0.376  0.00  0.00    -0.043 NA
ATOM      9  C   UNK d   1       1.279   3.225  -0.604  0.00  0.00     0.724 A 
ATOM     10  N   UNK d   1       0.530   3.072  -1.709  0.00  0.00    -0.041 NA
ATOM     11  C   UNK d   1      -0.326   2.028  -1.784  0.00  0.00     0.200 A 
ATOM     12  N   UNK d   1      -1.174   1.622  -2.747  0.00  0.00    -0.222 NA
ATOM     13  C   UNK d   1      -0.468   1.094  -0.756  0.00  0.00     0.129 A 
ATOM     14  C   UNK d   1      -1.797   0.514  -2.345  0.00  0.00     0.210 A 
ATOM     15  N   UNK d   1      -1.373   0.170  -1.116  0.00  0.00    -0.344 N 
ATOM     16  H   UNK d   1      -1.709  -0.668  -0.595  0.00  0.00     0.167 HD
BRANCH   9  17
ATOM     17  N   UNK d   1       2.195   4.337  -0.520  0.00  0.00    -0.231 N 
ATOM     18  H   UNK d   1       1.873   5.314  -0.554  0.00  0.00     0.174 HD
ATOM     19  H   UNK d   1       3.214   4.158  -0.421  0.00  0.00     0.174 HD
ENDBRANCH   9  17
ENDBRANCH   4   7
BRANCH   1  20
ATOM     20  C   UNK d   1       1.901  -2.560   1.094  0.00  0.00     0.155 C 
BRANCH  20  21
ATOM     21  C   UNK d   1       2.460  -1.660   0.087  0.00  0.00    -0.041 A 
ATOM     22  C   UNK d   1       1.794  -1.423  -1.089  0.00  0.00     0.010 A 
ATOM     23  C   UNK d   1       2.270  -0.580  -2.087  0.00  0.00     0.024 A 
ATOM     24  C   UNK d   1       3.480   0.041  -1.860  0.00  0.00     0.034 A 
ATOM     25 Cl   UNK d   1       4.145   1.117  -3.072  0.00  0.00    -0.084 Cl
ATOM     26  C   UNK d   1       4.151  -0.196  -0.682  0.00  0.00     0.024 A 
ATOM     27  C   UNK d   1       3.663  -1.033   0.292  0.00  0.00     0.010 A 
ENDBRANCH  20  21
ENDBRANCH   1  20
TORSDOF 4
