REMARK  3 active torsions:
REMARK  status: ('A' for Active; 'I' for Inactive)
REMARK    1  A    between atoms: C_5  and  C_8 
REMARK    2  A    between atoms: C_8  and  N_9 
REMARK    3  A    between atoms: C_17  and  N_18 
ROOT
ATOM      1  N   UNK d   1      -1.562   1.127  -0.139  0.00  0.00    -0.227 N 
ATOM      2  N   UNK d   1      -0.456   1.803   0.109  0.00  0.00    -0.063 NA
ATOM      3  N   UNK d   1       0.559   1.331  -0.591  0.00  0.00    -0.124 NA
ATOM      4  C   UNK d   1       0.126   0.310  -1.330  0.00  0.00     0.173 A 
ATOM      5  C   UNK d   1      -1.216   0.179  -1.046  0.00  0.00     0.183 A 
ATOM      6  N   UNK d   1      -1.896  -0.793  -1.671  0.00  0.00    -0.220 NA
ATOM      7  C   UNK d   1      -1.286  -1.611  -2.546  0.00  0.00     0.237 A 
ATOM      8  N   UNK d   1       0.025  -1.464  -2.807  0.00  0.00    -0.222 NA
ATOM      9  C   UNK d   1       0.800  -0.511  -2.226  0.00  0.00     0.162 A 
ENDROOT
BRANCH   1  10
ATOM     10  C   UNK d   1      -2.898   1.322   0.421  0.00  0.00     0.193 C 
BRANCH  10  11
ATOM     11  C   UNK d   1      -2.999   0.488   1.646  0.00  0.00    -0.038 A 
ATOM     12  C   UNK d   1      -3.455  -0.794   1.507  0.00  0.00     0.010 A 
ATOM     13  C   UNK d   1      -3.580  -1.640   2.597  0.00  0.00     0.024 A 
ATOM     14  C   UNK d   1      -3.238  -1.181   3.844  0.00  0.00     0.034 A 
ATOM     15 Cl   UNK d   1      -3.389  -2.239   5.243  0.00  0.00    -0.084 Cl
ATOM     16  C   UNK d   1      -2.779   0.114   3.974  0.00  0.00     0.024 A 
ATOM     17  C   UNK d   1      -2.656   0.951   2.894  0.00  0.00     0.010 A 
ENDBRANCH  10  11
ENDBRANCH   1  10
BRANCH   9  18
ATOM     18  N   UNK d   1       2.171  -0.353  -2.496  0.00  0.00    -0.360 N 
ATOM     19  C   UNK d   1       2.814   0.817  -3.032  0.00  0.00     0.154 C 
ATOM     20  C   UNK d   1       3.828   1.282  -2.054  0.00  0.00     0.291 C 
ATOM     21  N   UNK d   1       4.250   0.388  -1.060  0.00  0.00     0.087 N 
ATOM     22  C   UNK d   1       4.060  -0.991  -1.215  0.00  0.00     0.291 C 
ATOM     23  C   UNK d   1       3.713   0.808   0.222  0.00  0.00     0.310 C 
ATOM     24  C   UNK d   1       3.078  -1.442  -2.230  0.00  0.00     0.154 C 
ENDBRANCH   9  18
TORSDOF 3
