# created with PyMOL 2.3.2
@<TRIPOS>MOLECULE
2149
42 45 1                 
SMALL
USER_CHARGES
@<TRIPOS>ATOM
1	  Cl	-3.389	-2.239	5.243	Cl	1	UNK0	0.000	
2	   C	-3.238	-1.181	3.844	C.2	1	UNK0	0.000	
3	   C	-3.580	-1.640	2.597	C.2	1	UNK0	0.000	
4	   C	-3.455	-0.794	1.507	C.2	1	UNK0	0.000	
5	   C	-2.999	0.488	1.646	C.2	1	UNK0	0.000	
6	   C	-2.656	0.951	2.894	C.2	1	UNK0	0.000	
7	   C	-2.779	0.114	3.974	C.2	1	UNK0	0.000	
8	   C	-2.898	1.322	0.421	C.3	1	UNK0	0.000	
9	   N	-1.562	1.127	-0.139	N.pl3	1	UNK0	0.000	
10	   N	-0.456	1.803	0.109	N.2	1	UNK0	0.000	
11	   N	0.559	1.331	-0.591	N.2	1	UNK0	0.000	
12	   C	0.126	0.310	-1.330	C.2	1	UNK0	0.000	
13	   C	-1.216	0.179	-1.046	C.2	1	UNK0	0.000	
14	   N	-1.896	-0.793	-1.671	N.2	1	UNK0	0.000	
15	   C	-1.286	-1.611	-2.546	C.2	1	UNK0	0.000	
16	   N	0.025	-1.464	-2.807	N.2	1	UNK0	0.000	
17	   C	0.800	-0.511	-2.226	C.2	1	UNK0	0.000	
18	   N	2.171	-0.353	-2.496	N.pl3	1	UNK0	0.000	
19	   C	2.814	0.817	-3.032	C.3	1	UNK0	0.000	
20	   C	3.828	1.282	-2.054	C.3	1	UNK0	0.000	
21	   N	4.250	0.388	-1.060	N.3	1	UNK0	0.000	
22	   C	4.060	-0.991	-1.215	C.3	1	UNK0	0.000	
23	   C	3.078	-1.442	-2.230	C.3	1	UNK0	0.000	
24	   C	3.713	0.808	0.222	C.3	1	UNK0	0.000	
25	   H	-3.943	-2.647	2.455	 H	1	UNK0	0.000	
26	   H	-3.730	-1.170	0.521	 H	1	UNK0	0.000	
27	   H	-2.301	1.949	3.001	 H	1	UNK0	0.000	
28	   H	-2.518	0.437	4.991	 H	1	UNK0	0.000	
29	   H	-3.640	1.009	-0.323	 H	1	UNK0	0.000	
30	   H	-3.072	2.385	0.688	 H	1	UNK0	0.000	
31	   H	-1.865	-2.384	-3.031	 H	1	UNK0	0.000	
32	   H	2.106	1.635	-3.263	 H	1	UNK0	0.000	
33	   H	3.287	0.553	-4.002	 H	1	UNK0	0.000	
34	   H	4.739	1.604	-2.642	 H	1	UNK0	0.000	
35	   H	3.477	2.245	-1.587	 H	1	UNK0	0.000	
36	   H	5.055	-1.457	-1.487	 H	1	UNK0	0.000	
37	   H	3.812	-1.479	-0.228	 H	1	UNK0	0.000	
38	   H	3.572	-1.756	-3.175	 H	1	UNK0	0.000	
39	   H	2.515	-2.334	-1.836	 H	1	UNK0	0.000	
40	   H	3.226	1.820	0.145	 H	1	UNK0	0.000	
41	   H	2.906	0.108	0.529	 H	1	UNK0	0.000	
42	   H	4.500	0.907	0.992	 H	1	UNK0	0.000	
@<TRIPOS>BOND
1 1 2 1
2 2 3 2
3 2 7 1
4 3 4 1
5 4 5 2
6 5 6 1
7 5 8 1
8 6 7 2
9 8 9 1
10 9 10 1
11 9 13 1
12 10 11 2
13 11 12 1
14 12 13 2
15 12 17 1
16 13 14 1
17 14 15 2
18 15 16 1
19 16 17 2
20 17 18 1
21 18 19 1
22 18 23 1
23 19 20 1
24 20 21 1
25 21 22 1
26 21 24 1
27 22 23 1
28 3 25 1
29 4 26 1
30 6 27 1
31 7 28 1
32 8 29 1
33 8 30 1
34 15 31 1
35 19 32 1
36 19 33 1
37 20 34 1
38 20 35 1
39 22 36 1
40 22 37 1
41 23 38 1
42 23 39 1
43 24 40 1
44 24 41 1
45 24 42 1
@<TRIPOS>SUBSTRUCTURE
1	UNK0	1	GROUP	1 ****	UNK
