REMARK  6 active torsions:
REMARK  status: ('A' for Active; 'I' for Inactive)
REMARK    1  A    between atoms: C_4  and  C_10 
REMARK    2  A    between atoms: C_5  and  O_8 
REMARK    3  A    between atoms: N_11  and  N_12 
REMARK    4  A    between atoms: N_12  and  C_13 
REMARK    5  A    between atoms: C_15  and  N_25 
REMARK    6  A    between atoms: C_17  and  N_19 
ROOT
ATOM      1  C   UNK d   1       0.862  -0.997  -1.357  0.00  0.00     0.774 A 
ATOM      2  N   UNK d   1       0.365  -2.122  -0.799  0.00  0.00     0.133 NA
ATOM      3  C   UNK d   1      -0.944  -2.398  -0.822  0.00  0.00     0.756 A 
ATOM      4  N   UNK d   1      -1.771  -1.525  -1.418  0.00  0.00     0.131 NA
ATOM      5  C   UNK d   1      -1.340  -0.374  -2.000  0.00  0.00     0.756 A 
ATOM      6  N   UNK d   1       0.003  -0.159  -1.938  0.00  0.00     0.133 NA
ENDROOT
BRANCH   1   7
ATOM      7  N   UNK d   1       2.247  -0.673  -1.351  0.00  0.00    -0.105 N 
ATOM      8  H   UNK d   1       2.880  -0.979  -2.139  0.00  0.00     0.208 HD
BRANCH   7   9
ATOM      9  N   UNK d   1       2.847   0.056  -0.323  0.00  0.00    -0.171 NA
ATOM     10  C   UNK d   1       2.205   0.808   0.489  0.00  0.00     0.153 C 
BRANCH  10  11
ATOM     11  C   UNK d   1       2.849   1.563   1.558  0.00  0.00     0.018 A 
ATOM     12  C   UNK d   1       4.207   1.510   1.759  0.00  0.00     0.034 A 
ATOM     13  C   UNK d   1       4.804   2.227   2.772  0.00  0.00     0.011 A 
ATOM     14 Br   UNK d   1       6.688   2.152   3.051  0.00  0.00    -0.051 Br
ATOM     15  C   UNK d   1       4.062   3.030   3.629  0.00  0.00     0.022 A 
ATOM     16  C   UNK d   1       2.692   3.088   3.431  0.00  0.00     0.039 A 
ATOM     17  C   UNK d   1       2.099   2.355   2.400  0.00  0.00     0.080 A 
BRANCH  17  18
ATOM     18  O   UNK d   1       0.728   2.391   2.174  0.00  0.00    -0.355 OA
ATOM     19  C   UNK d   1      -0.174   3.150   2.945  0.00  0.00     0.210 C 
ENDBRANCH  17  18
ENDBRANCH  10  11
ENDBRANCH   7   9
ENDBRANCH   1   7
BRANCH   3  20
ATOM     20  N   UNK d   1      -1.467  -3.581  -0.234  0.00  0.00    -0.209 N 
ATOM     21  C   UNK d   1      -0.626  -4.557   0.423  0.00  0.00     0.167 C 
ATOM     22  C   UNK d   1      -1.042  -5.975   0.062  0.00  0.00     0.188 C 
ATOM     23  O   UNK d   1      -2.433  -6.111   0.133  0.00  0.00    -0.388 OA
ATOM     24  C   UNK d   1      -3.072  -5.275  -0.751  0.00  0.00     0.188 C 
ATOM     25  C   UNK d   1      -2.887  -3.850  -0.276  0.00  0.00     0.167 C 
ENDBRANCH   3  20
BRANCH   5  26
ATOM     26  N   UNK d   1      -2.212   0.537  -2.623  0.00  0.00    -0.209 N 
ATOM     27  C   UNK d   1      -3.623   0.297  -2.683  0.00  0.00     0.167 C 
ATOM     28  C   UNK d   1      -4.034   0.417  -4.149  0.00  0.00     0.188 C 
ATOM     29  O   UNK d   1      -3.632   1.669  -4.581  0.00  0.00    -0.388 OA
ATOM     30  C   UNK d   1      -2.265   1.807  -4.633  0.00  0.00     0.188 C 
ATOM     31  C   UNK d   1      -1.693   1.734  -3.217  0.00  0.00     0.167 C 
ENDBRANCH   5  26
TORSDOF 6
