# created with PyMOL 2.3.2
@<TRIPOS>MOLECULE
2164
38 41 1                 
SMALL
USER_CHARGES
@<TRIPOS>ATOM
1	  Br	-3.542	6.011	-1.096	Br	1	UNK0	0.000	
2	   C	-3.530	4.433	-0.028	C.2	1	UNK0	0.000	
3	   C	-2.366	3.746	0.226	C.2	1	UNK0	0.000	
4	   C	-2.323	2.582	1.008	C.2	1	UNK0	0.000	
5	   C	-3.517	2.153	1.516	C.2	1	UNK0	0.000	
6	   C	-4.694	2.858	1.253	C.2	1	UNK0	0.000	
7	   C	-4.707	3.983	0.492	C.2	1	UNK0	0.000	
8	   N	-1.086	1.942	1.217	N.pl3	1	UNK0	0.000	
9	   C	-0.894	0.772	1.968	C.2	1	UNK0	0.000	
10	   O	-1.780	0.134	2.555	O.2	1	UNK0	0.000	
11	   C	0.494	0.207	2.101	C.3	1	UNK0	0.000	
12	   C	1.129	-0.167	0.787	C.3	1	UNK0	0.000	
13	   N	0.714	-1.568	0.952	N.pl3	1	UNK0	0.000	
14	   C	0.543	-1.270	2.362	C.3	1	UNK0	0.000	
15	   C	0.574	-2.664	0.057	C.2	1	UNK0	0.000	
16	   N	-0.614	-3.295	-0.132	N.2	1	UNK0	0.000	
17	   C	-0.722	-4.345	-0.998	C.2	1	UNK0	0.000	
18	   N	0.335	-4.786	-1.687	N.2	1	UNK0	0.000	
19	   C	1.532	-4.213	-1.550	C.2	1	UNK0	0.000	
20	   N	2.728	-4.466	-2.118	N.pl3	1	UNK0	0.000	
21	   N	3.570	-3.589	-1.616	N.2	1	UNK0	0.000	
22	   N	2.947	-2.786	-0.746	N.2	1	UNK0	0.000	
23	   C	1.639	-3.152	-0.674	C.2	1	UNK0	0.000	
24	   C	3.060	-5.497	-3.098	C.3	1	UNK0	0.000	
25	   H	-1.443	4.124	-0.198	 H	1	UNK0	0.000	
26	   H	-3.575	1.255	2.136	 H	1	UNK0	0.000	
27	   H	-5.624	2.467	1.687	 H	1	UNK0	0.000	
28	   H	-5.638	4.515	0.301	 H	1	UNK0	0.000	
29	   H	-0.223	2.407	0.751	 H	1	UNK0	0.000	
30	   H	1.169	0.841	2.701	 H	1	UNK0	0.000	
31	   H	0.627	0.226	-0.122	 H	1	UNK0	0.000	
32	   H	2.221	-0.117	0.750	 H	1	UNK0	0.000	
33	   H	-0.401	-1.653	2.804	 H	1	UNK0	0.000	
34	   H	1.422	-1.615	2.925	 H	1	UNK0	0.000	
35	   H	-1.697	-4.797	-1.097	 H	1	UNK0	0.000	
36	   H	3.893	-5.184	-3.748	 H	1	UNK0	0.000	
37	   H	2.188	-5.673	-3.794	 H	1	UNK0	0.000	
38	   H	3.275	-6.461	-2.634	 H	1	UNK0	0.000	
@<TRIPOS>BOND
1 1 2 1
2 2 3 2
3 2 7 1
4 3 4 1
5 4 5 2
6 4 8 1
7 5 6 1
8 6 7 2
9 8 9 1
10 9 10 2
11 9 11 1
12 11 12 1
13 11 14 1
14 12 13 1
15 13 14 1
16 13 15 1
17 15 16 2
18 15 23 1
19 16 17 1
20 17 18 2
21 18 19 1
22 19 20 1
23 19 23 2
24 20 21 1
25 20 24 1
26 21 22 2
27 22 23 1
28 3 25 1
29 5 26 1
30 6 27 1
31 7 28 1
32 8 29 1
33 11 30 1
34 12 31 1
35 12 32 1
36 14 33 1
37 14 34 1
38 17 35 1
39 24 36 1
40 24 37 1
41 24 38 1
@<TRIPOS>SUBSTRUCTURE
1	UNK0	1	GROUP	1 ****	UNK
