REMARK  4 active torsions:
REMARK  status: ('A' for Active; 'I' for Inactive)
REMARK    1  A    between atoms: C_5  and  C_8 
REMARK    2  A    between atoms: C_8  and  C_10 
REMARK    3  A    between atoms: C_10  and  N_11 
REMARK    4  A    between atoms: C_26  and  N_27 
ROOT
ATOM      1  N   UNK d   1      -0.112  -0.051   0.305  0.00  0.00    -0.092 N 
ATOM      2  N   UNK d   1      -0.683  -0.596  -0.748  0.00  0.00    -0.056 N 
ATOM      3  C   UNK d   1      -0.401  -1.903  -0.847  0.00  0.00     0.767 A 
ATOM      4  N   UNK d   1      -0.991  -2.439  -1.927  0.00  0.00    -0.040 NA
ATOM      5  C   UNK d   1      -1.684  -1.475  -2.571  0.00  0.00     0.188 A 
ATOM      6  C   UNK d   1      -1.480  -0.316  -1.814  0.00  0.00     0.190 A 
ATOM      7  C   UNK d   1      -2.100   0.816  -2.299  0.00  0.00     0.284 A 
ATOM      8  O   UNK d   1      -1.941   1.892  -1.648  0.00  0.00    -0.265 OA
ATOM      9  N   UNK d   1      -2.862   0.835  -3.425  0.00  0.00    -0.269 N 
ATOM     10  C   UNK d   1      -3.010  -0.319  -4.093  0.00  0.00     0.332 A 
ATOM     11  O   UNK d   1      -3.728  -0.280  -5.146  0.00  0.00    -0.246 OA
ATOM     12  N   UNK d   1      -2.436  -1.459  -3.684  0.00  0.00    -0.285 N 
ATOM     13  C   UNK d   1      -2.633  -2.662  -4.447  0.00  0.00     0.163 C 
ATOM     14  C   UNK d   1      -3.480   2.065  -3.865  0.00  0.00     0.164 C 
ATOM     15  N   UNK d   1       0.398  -2.174   0.216  0.00  0.00     0.132 NA
ATOM     16  C   UNK d   1       0.583  -1.053   0.926  0.00  0.00     0.736 A 
ENDROOT
BRANCH   1  17
ATOM     17  C   UNK d   1      -0.145   1.311   0.785  0.00  0.00     0.253 C 
BRANCH  17  18
ATOM     18  C   UNK d   1       0.879   2.178   0.176  0.00  0.00     0.179 C 
ATOM     19  O   UNK d   1       1.696   1.763  -0.676  0.00  0.00    -0.290 OA
BRANCH  18  20
ATOM     20  C   UNK d   1       0.931   3.573   0.594  0.00  0.00     0.011 A 
ATOM     21  C   UNK d   1       0.058   4.098   1.523  0.00  0.00     0.017 A 
ATOM     22  C   UNK d   1       0.112   5.420   1.917  0.00  0.00     0.025 A 
ATOM     23  C   UNK d   1       1.062   6.279   1.381  0.00  0.00     0.034 A 
ATOM     24 Cl   UNK d   1       1.152   7.964   1.865  0.00  0.00    -0.084 Cl
ATOM     25  C   UNK d   1       1.944   5.773   0.449  0.00  0.00     0.025 A 
ATOM     26  C   UNK d   1       1.883   4.451   0.062  0.00  0.00     0.017 A 
ENDBRANCH  18  20
ENDBRANCH  17  18
ENDBRANCH   1  17
BRANCH  16  27
ATOM     27  N   UNK d   1       1.349  -0.876   2.114  0.00  0.00    -0.210 N 
ATOM     28  C   UNK d   1       0.757  -1.012   3.434  0.00  0.00     0.167 C 
ATOM     29  C   UNK d   1       1.358   0.053   4.318  0.00  0.00     0.188 C 
ATOM     30  O   UNK d   1       2.758  -0.054   4.315  0.00  0.00    -0.388 OA
ATOM     31  C   UNK d   1       3.295   0.297   3.096  0.00  0.00     0.188 C 
ATOM     32  C   UNK d   1       2.749  -0.560   2.009  0.00  0.00     0.167 C 
ENDBRANCH  16  27
TORSDOF 4
