# created with PyMOL 2.3.2
@<TRIPOS>MOLECULE
2170
52 56 1                 
SMALL
USER_CHARGES
@<TRIPOS>ATOM
1	  Cl	1.152	7.964	1.865	Cl	1	UNK0	0.000	
2	   C	1.062	6.279	1.381	C.2	1	UNK0	0.000	
3	   C	0.112	5.420	1.917	C.2	1	UNK0	0.000	
4	   C	0.058	4.098	1.523	C.2	1	UNK0	0.000	
5	   C	0.931	3.573	0.594	C.2	1	UNK0	0.000	
6	   C	1.883	4.451	0.062	C.2	1	UNK0	0.000	
7	   C	1.944	5.773	0.449	C.2	1	UNK0	0.000	
8	   C	0.879	2.178	0.176	C.2	1	UNK0	0.000	
9	   O	1.696	1.763	-0.676	O.2	1	UNK0	0.000	
10	   C	-0.145	1.311	0.785	C.3	1	UNK0	0.000	
11	   N	-0.112	-0.051	0.305	N.pl3	1	UNK0	0.000	
12	   N	-0.683	-0.596	-0.748	N.pl3	1	UNK0	0.000	
13	   C	-0.401	-1.903	-0.847	C.2	1	UNK0	0.000	
14	   N	-0.991	-2.439	-1.927	N.2	1	UNK0	0.000	
15	   C	-1.684	-1.475	-2.571	C.2	1	UNK0	0.000	
16	   C	-1.480	-0.316	-1.814	C.2	1	UNK0	0.000	
17	   C	-2.100	0.816	-2.299	C.2	1	UNK0	0.000	
18	   O	-1.941	1.892	-1.648	O.2	1	UNK0	0.000	
19	   N	-2.862	0.835	-3.425	N.pl3	1	UNK0	0.000	
20	   C	-3.010	-0.319	-4.093	C.2	1	UNK0	0.000	
21	   O	-3.728	-0.280	-5.146	O.2	1	UNK0	0.000	
22	   N	-2.436	-1.459	-3.684	N.pl3	1	UNK0	0.000	
23	   C	-2.633	-2.662	-4.447	C.3	1	UNK0	0.000	
24	   C	-3.480	2.065	-3.865	C.3	1	UNK0	0.000	
25	   N	0.398	-2.174	0.216	N.2	1	UNK0	0.000	
26	   C	0.583	-1.053	0.926	C.2	1	UNK0	0.000	
27	   N	1.349	-0.876	2.114	N.pl3	1	UNK0	0.000	
28	   C	0.757	-1.012	3.434	C.3	1	UNK0	0.000	
29	   C	1.358	0.053	4.318	C.3	1	UNK0	0.000	
30	   O	2.758	-0.054	4.315	O.3	1	UNK0	0.000	
31	   C	3.295	0.297	3.096	C.3	1	UNK0	0.000	
32	   C	2.749	-0.560	2.009	C.3	1	UNK0	0.000	
33	   H	-0.582	5.799	2.644	 H	1	UNK0	0.000	
34	   H	-0.682	3.426	1.940	 H	1	UNK0	0.000	
35	   H	2.591	4.101	-0.668	 H	1	UNK0	0.000	
36	   H	2.683	6.463	0.040	 H	1	UNK0	0.000	
37	   H	-1.146	1.718	0.780	 H	1	UNK0	0.000	
38	   H	0.137	1.280	1.884	 H	1	UNK0	0.000	
39	   H	-3.604	-2.575	-4.993	 H	1	UNK0	0.000	
40	   H	-2.653	-3.542	-3.756	 H	1	UNK0	0.000	
41	   H	-1.786	-2.838	-5.133	 H	1	UNK0	0.000	
42	   H	-2.701	2.736	-4.312	 H	1	UNK0	0.000	
43	   H	-3.853	2.618	-2.966	 H	1	UNK0	0.000	
44	   H	-4.339	1.908	-4.519	 H	1	UNK0	0.000	
45	   H	0.979	-2.006	3.878	 H	1	UNK0	0.000	
46	   H	-0.345	-0.846	3.409	 H	1	UNK0	0.000	
47	   H	1.020	1.066	4.097	 H	1	UNK0	0.000	
48	   H	1.051	-0.181	5.370	 H	1	UNK0	0.000	
49	   H	3.086	1.370	2.838	 H	1	UNK0	0.000	
50	   H	4.390	0.115	3.157	 H	1	UNK0	0.000	
51	   H	3.312	-1.510	1.869	 H	1	UNK0	0.000	
52	   H	2.901	-0.005	1.041	 H	1	UNK0	0.000	
@<TRIPOS>BOND
1 1 2 1
2 2 3 2
3 2 7 1
4 3 4 1
5 4 5 2
6 5 6 1
7 5 8 1
8 6 7 2
9 8 9 2
10 8 10 1
11 10 11 1
12 11 12 1
13 11 26 1
14 12 13 1
15 12 16 1
16 13 14 2
17 13 25 1
18 14 15 1
19 15 16 2
20 15 22 1
21 16 17 1
22 17 18 2
23 17 19 1
24 19 20 1
25 19 24 1
26 20 21 2
27 20 22 1
28 22 23 1
29 25 26 2
30 26 27 1
31 27 28 1
32 27 32 1
33 28 29 1
34 29 30 1
35 30 31 1
36 31 32 1
37 3 33 1
38 4 34 1
39 6 35 1
40 7 36 1
41 10 37 1
42 10 38 1
43 23 39 1
44 23 40 1
45 23 41 1
46 24 42 1
47 24 43 1
48 24 44 1
49 28 45 1
50 28 46 1
51 29 47 1
52 29 48 1
53 31 49 1
54 31 50 1
55 32 51 1
56 32 52 1
@<TRIPOS>SUBSTRUCTURE
1	UNK0	1	GROUP	1 ****	UNK
