# created with PyMOL 2.3.2
@<TRIPOS>MOLECULE
2177
48 52 1                 
SMALL
USER_CHARGES
@<TRIPOS>ATOM
1	  Cl	-1.121	7.716	-2.698	Cl	1	UNK0	0.000	
2	   C	-0.484	6.288	-1.876	C.2	1	UNK0	0.000	
3	   C	0.473	6.438	-0.897	C.2	1	UNK0	0.000	
4	   C	0.989	5.348	-0.239	C.2	1	UNK0	0.000	
5	   C	0.566	4.068	-0.535	C.2	1	UNK0	0.000	
6	   C	-0.392	3.937	-1.518	C.2	1	UNK0	0.000	
7	   C	-0.918	5.019	-2.186	C.2	1	UNK0	0.000	
8	   N	1.136	2.982	0.179	N.pl3	1	UNK0	0.000	
9	   C	2.126	3.121	1.193	C.2	1	UNK0	0.000	
10	   C	2.633	2.095	1.836	C.2	1	UNK0	0.000	
11	   N	2.277	0.737	1.616	N.pl3	1	UNK0	0.000	
12	   C	1.159	0.203	2.357	C.3	1	UNK0	0.000	
13	   C	0.211	-0.441	1.379	C.3	1	UNK0	0.000	
14	   N	0.879	-1.265	0.391	N.pl3	1	UNK0	0.000	
15	   C	2.023	-0.721	-0.313	C.3	1	UNK0	0.000	
16	   C	2.973	-0.139	0.701	C.3	1	UNK0	0.000	
17	   C	0.405	-2.587	0.127	C.2	1	UNK0	0.000	
18	   N	1.236	-3.628	0.331	N.2	1	UNK0	0.000	
19	   C	0.825	-4.905	0.092	C.2	1	UNK0	0.000	
20	   N	-0.425	-5.155	-0.356	N.2	1	UNK0	0.000	
21	   C	-1.295	-4.164	-0.577	C.2	1	UNK0	0.000	
22	   N	-2.568	-4.130	-1.011	N.pl3	1	UNK0	0.000	
23	   N	-2.941	-2.863	-1.041	N.2	1	UNK0	0.000	
24	   C	-1.917	-2.064	-0.628	C.2	1	UNK0	0.000	
25	   C	-0.858	-2.862	-0.327	C.2	1	UNK0	0.000	
26	   C	-3.412	-5.268	-1.388	C.3	1	UNK0	0.000	
27	   N	2.566	4.434	1.505	N.pl3	1	UNK0	0.000	
28	   C	2.014	5.526	0.809	C.2	1	UNK0	0.000	
29	   O	2.361	6.731	1.035	O.2	1	UNK0	0.000	
30	   H	0.813	7.446	-0.655	 H	1	UNK0	0.000	
31	   H	-0.737	2.947	-1.767	 H	1	UNK0	0.000	
32	   H	-1.665	4.917	-2.952	 H	1	UNK0	0.000	
33	   H	0.823	2.012	-0.038	 H	1	UNK0	0.000	
34	   H	3.387	2.272	2.600	 H	1	UNK0	0.000	
35	   H	1.465	-0.583	3.078	 H	1	UNK0	0.000	
36	   H	0.594	1.002	2.879	 H	1	UNK0	0.000	
37	   H	-0.448	-1.113	2.008	 H	1	UNK0	0.000	
38	   H	-0.509	0.277	0.926	 H	1	UNK0	0.000	
39	   H	2.543	-1.587	-0.819	 H	1	UNK0	0.000	
40	   H	1.757	0.057	-1.049	 H	1	UNK0	0.000	
41	   H	3.849	0.347	0.234	 H	1	UNK0	0.000	
42	   H	3.344	-1.013	1.312	 H	1	UNK0	0.000	
43	   H	1.531	-5.713	0.271	 H	1	UNK0	0.000	
44	   H	-1.920	-0.987	-0.547	 H	1	UNK0	0.000	
45	   H	-4.468	-5.090	-1.087	 H	1	UNK0	0.000	
46	   H	-3.086	-6.174	-0.817	 H	1	UNK0	0.000	
47	   H	-3.397	-5.426	-2.482	 H	1	UNK0	0.000	
48	   H	3.289	4.618	2.237	 H	1	UNK0	0.000	
@<TRIPOS>BOND
1 1 2 1
2 2 3 2
3 2 7 1
4 3 4 1
5 4 5 2
6 4 28 1
7 5 6 1
8 5 8 1
9 6 7 2
10 8 9 1
11 9 10 2
12 9 27 1
13 10 11 1
14 11 12 1
15 11 16 1
16 12 13 1
17 13 14 1
18 14 15 1
19 14 17 1
20 15 16 1
21 17 18 2
22 17 25 1
23 18 19 1
24 19 20 2
25 20 21 1
26 21 22 1
27 21 25 2
28 22 23 1
29 22 26 1
30 23 24 2
31 24 25 1
32 27 28 1
33 28 29 2
34 3 30 1
35 6 31 1
36 7 32 1
37 8 33 1
38 10 34 1
39 12 35 1
40 12 36 1
41 13 37 1
42 13 38 1
43 15 39 1
44 15 40 1
45 16 41 1
46 16 42 1
47 19 43 1
48 24 44 1
49 26 45 1
50 26 46 1
51 26 47 1
52 27 48 1
@<TRIPOS>SUBSTRUCTURE
1	UNK0	1	GROUP	1 ****	UNK
