REMARK  2 active torsions:
REMARK  status: ('A' for Active; 'I' for Inactive)
REMARK    1  A    between atoms: C_10  and  N_11 
REMARK    2  A    between atoms: N_14  and  C_17 
ROOT
ATOM      1  N   UNK d   1       2.277   0.737   1.616  0.00  0.00    -0.384 N 
ATOM      2  C   UNK d   1       1.159   0.203   2.357  0.00  0.00     0.142 C 
ATOM      3  C   UNK d   1       0.211  -0.441   1.379  0.00  0.00     0.144 C 
ATOM      4  N   UNK d   1       0.879  -1.265   0.391  0.00  0.00    -0.362 N 
ATOM      5  C   UNK d   1       2.023  -0.721  -0.313  0.00  0.00     0.144 C 
ATOM      6  C   UNK d   1       2.973  -0.139   0.701  0.00  0.00     0.142 C 
ENDROOT
BRANCH   1   7
ATOM      7  C   UNK d   1       2.633   2.095   1.836  0.00  0.00     0.134 C 
ATOM      8  C   UNK d   1       2.126   3.121   1.193  0.00  0.00     0.124 A 
ATOM      9  N   UNK d   1       1.136   2.982   0.179  0.00  0.00    -0.340 N 
ATOM     10  N   UNK d   1       2.566   4.434   1.505  0.00  0.00    -0.308 N 
ATOM     11  C   UNK d   1       0.566   4.068  -0.535  0.00  0.00     0.049 A 
ATOM     12  H   UNK d   1       0.823   2.012  -0.038  0.00  0.00     0.167 HD
ATOM     13  C   UNK d   1       0.989   5.348  -0.239  0.00  0.00     0.060 A 
ATOM     14  C   UNK d   1      -0.392   3.937  -1.518  0.00  0.00     0.032 A 
ATOM     15  C   UNK d   1       0.473   6.438  -0.897  0.00  0.00     0.043 A 
ATOM     16  C   UNK d   1       2.014   5.526   0.809  0.00  0.00     0.259 A 
ATOM     17  C   UNK d   1      -0.484   6.288  -1.876  0.00  0.00     0.035 A 
ATOM     18 Cl   UNK d   1      -1.121   7.716  -2.698  0.00  0.00    -0.084 Cl
ATOM     19  C   UNK d   1      -0.918   5.019  -2.186  0.00  0.00     0.026 A 
ATOM     20  O   UNK d   1       2.361   6.731   1.035  0.00  0.00    -0.267 OA
ATOM     21  H   UNK d   1       3.289   4.618   2.237  0.00  0.00     0.170 HD
ENDBRANCH   1   7
BRANCH   4  22
ATOM     22  C   UNK d   1       0.405  -2.587   0.127  0.00  0.00     0.142 A 
ATOM     23  N   UNK d   1       1.236  -3.628   0.331  0.00  0.00    -0.224 NA
ATOM     24  C   UNK d   1       0.825  -4.905   0.092  0.00  0.00     0.237 A 
ATOM     25  N   UNK d   1      -0.425  -5.155  -0.356  0.00  0.00    -0.222 NA
ATOM     26  C   UNK d   1      -1.295  -4.164  -0.577  0.00  0.00     0.162 A 
ATOM     27  N   UNK d   1      -2.568  -4.130  -1.011  0.00  0.00    -0.256 N 
ATOM     28  C   UNK d   1      -0.858  -2.862  -0.327  0.00  0.00     0.076 A 
ATOM     29  N   UNK d   1      -2.941  -2.863  -1.041  0.00  0.00    -0.182 NA
ATOM     30  C   UNK d   1      -3.412  -5.268  -1.388  0.00  0.00     0.182 C 
ATOM     31  C   UNK d   1      -1.917  -2.064  -0.628  0.00  0.00     0.158 A 
ENDBRANCH   4  22
TORSDOF 2
