REMARK  4 active torsions:
REMARK  status: ('A' for Active; 'I' for Inactive)
REMARK    1  A    between atoms: C_13  and  C_14 
REMARK    2  A    between atoms: C_14  and  N_15 
REMARK    3  A    between atoms: N_18  and  C_21 
REMARK    4  A    between atoms: C_24  and  O_27 
ROOT
ATOM      1  N   UNK d   1       1.208   1.895  -0.680  0.00  0.00    -0.064 N 
ATOM      2  C   UNK d   1      -0.150   1.903  -0.936  0.00  0.00     0.255 C 
ATOM      3  C   UNK d   1      -0.456   1.199  -2.303  0.00  0.00     0.150 C 
ATOM      4  N   UNK d   1      -0.157  -0.248  -1.866  0.00  0.00    -0.378 N 
ATOM      5  C   UNK d   1       1.188  -0.442  -1.623  0.00  0.00     0.150 C 
ATOM      6  C   UNK d   1       1.843   0.957  -1.651  0.00  0.00     0.255 C 
ATOM      7  H   UNK d   1       1.601   2.833  -1.016  0.00  0.00     0.280 HD
ENDROOT
BRANCH   1   8
ATOM      8  C   UNK d   1       1.801   1.659   0.563  0.00  0.00     0.274 C 
BRANCH   8   9
ATOM      9  C   UNK d   1       1.294   0.645   1.502  0.00  0.00    -0.014 A 
ATOM     10  C   UNK d   1       2.323  -0.222   1.989  0.00  0.00     0.008 A 
ATOM     11  C   UNK d   1       3.573  -0.123   1.486  0.00  0.00     0.041 A 
ATOM     12  C   UNK d   1       2.015  -1.157   2.938  0.00  0.00     0.093 A 
ATOM     13  C   UNK d   1       4.574  -0.955   1.911  0.00  0.00     0.071 A 
ATOM     14 Cl   UNK d   1       6.215  -0.929   1.256  0.00  0.00    -0.081 Cl
ATOM     15  C   UNK d   1       4.318  -1.925   2.886  0.00  0.00     0.131 A 
ATOM     16  C   UNK d   1       3.048  -2.017   3.382  0.00  0.00     0.080 A 
ATOM     17  O   UNK d   1       5.332  -2.783   3.368  0.00  0.00    -0.190 OA
ATOM     18  O   UNK d   1       0.816  -1.299   3.427  0.00  0.00    -0.275 OA
ATOM     19  C   UNK d   1      -0.172  -0.518   3.005  0.00  0.00     0.288 A 
ATOM     20  O   UNK d   1      -1.303  -0.671   3.483  0.00  0.00    -0.260 OA
ATOM     21  C   UNK d   1       0.061   0.470   2.027  0.00  0.00     0.092 A 
ENDBRANCH   8   9
ENDBRANCH   1   8
BRANCH   4  22
ATOM     22  C   UNK d   1      -1.328  -1.027  -1.744  0.00  0.00     0.030 A 
ATOM     23  C   UNK d   1      -1.612  -1.906  -0.758  0.00  0.00     0.032 A 
ATOM     24  C   UNK d   1      -2.917  -2.452  -0.592  0.00  0.00     0.039 A 
ATOM     25  C   UNK d   1      -3.948  -2.111  -1.426  0.00  0.00     0.068 A 
ATOM     26  C   UNK d   1      -3.664  -1.213  -2.450  0.00  0.00     0.039 A 
ATOM     27  C   UNK d   1      -2.389  -0.690  -2.606  0.00  0.00     0.032 A 
BRANCH  25  28
ATOM     28  O   UNK d   1      -5.203  -2.672  -1.225  0.00  0.00    -0.356 OA
ATOM     29  C   UNK d   1      -6.326  -2.275  -2.027  0.00  0.00     0.210 C 
ENDBRANCH  25  28
ENDBRANCH   4  22
TORSDOF 4
