REMARK  5 active torsions:
REMARK  status: ('A' for Active; 'I' for Inactive)
REMARK    1  A    between atoms: S_1  and  N_4 
REMARK    2  A    between atoms: C_6  and  C_10 
REMARK    3  A    between atoms: N_13  and  C_20 
REMARK    4  A    between atoms: C_17  and  O_19 
REMARK    5  A    between atoms: C_20  and  C_21 
ROOT
ATOM      1  C   UNK d   1       0.296   0.926   0.065  0.00  0.00     0.137 A 
ATOM      2  N   UNK d   1       0.491  -0.324   0.480  0.00  0.00    -0.211 NA
ATOM      3  C   UNK d   1      -0.098  -0.804   1.589  0.00  0.00     0.184 A 
ATOM      4  N   UNK d   1      -0.073  -2.009   2.222  0.00  0.00    -0.227 N 
ATOM      5  N   UNK d   1      -0.854  -1.892   3.275  0.00  0.00    -0.063 NA
ATOM      6  N   UNK d   1      -1.379  -0.684   3.355  0.00  0.00    -0.124 NA
ATOM      7  C   UNK d   1      -0.932   0.033   2.318  0.00  0.00     0.180 A 
ATOM      8  C   UNK d   1      -1.144   1.335   1.898  0.00  0.00     0.199 A 
ATOM      9  N   UNK d   1      -0.510   1.716   0.781  0.00  0.00    -0.207 NA
ENDROOT
BRANCH   1  10
ATOM     10  C   UNK d   1       0.925   1.489  -1.161  0.00  0.00     0.076 C 
ATOM     11  C   UNK d   1       0.002   2.141  -2.092  0.00  0.00     0.147 C 
ATOM     12  N   UNK d   1      -0.011   3.526  -2.240  0.00  0.00    -0.310 N 
ATOM     13  C   UNK d   1       0.663   4.356  -1.355  0.00  0.00     0.135 C 
ATOM     14  C   UNK d   1       1.423   3.686  -0.247  0.00  0.00     0.021 C 
ATOM     15  C   UNK d   1       2.031   2.424  -0.745  0.00  0.00     0.015 C 
BRANCH  12  16
ATOM     16  S   UNK d   1      -1.391   4.143  -3.006  0.00  0.00     0.224 S 
ATOM     17  O   UNK d   1      -1.416   5.630  -3.067  0.00  0.00    -0.206 OA
ATOM     18  O   UNK d   1      -2.609   3.620  -2.272  0.00  0.00    -0.206 OA
ATOM     19  C   UNK d   1      -1.538   3.503  -4.681  0.00  0.00     0.186 C 
ENDBRANCH  12  16
ENDBRANCH   1  10
BRANCH   8  20
ATOM     20  O   UNK d   1      -1.974   2.187   2.613  0.00  0.00    -0.343 OA
ATOM     21  H   UNK d   1      -2.949   1.959   2.735  0.00  0.00     0.219 HD
ENDBRANCH   8  20
BRANCH   4  22
ATOM     22  C   UNK d   1       0.661  -3.166   1.814  0.00  0.00     0.195 C 
BRANCH  22  23
ATOM     23  C   UNK d   1      -0.095  -4.059   0.903  0.00  0.00    -0.017 A 
ATOM     24  C   UNK d   1       0.516  -5.201   0.450  0.00  0.00     0.042 A 
ATOM     25  C   UNK d   1      -0.122  -6.094  -0.408  0.00  0.00     0.024 A 
ATOM     26 Cl   UNK d   1       2.152  -5.581   0.946  0.00  0.00    -0.084 Cl
ATOM     27  C   UNK d   1      -1.410  -5.842  -0.829  0.00  0.00     0.002 A 
ATOM     28  C   UNK d   1      -2.030  -4.698  -0.378  0.00  0.00     0.001 A 
ATOM     29  C   UNK d   1      -1.382  -3.812   0.480  0.00  0.00     0.010 A 
ENDBRANCH  22  23
ENDBRANCH   4  22
TORSDOF 5
