# created with PyMOL 2.3.2
@<TRIPOS>MOLECULE
2197
54 57 1                 
SMALL
USER_CHARGES
@<TRIPOS>ATOM
1	   S	0.520	-3.102	-3.461	S.O2	1	UNK0	0.000	
2	   O	-0.030	-4.274	-4.285	O.2	1	UNK0	0.000	
3	   O	1.100	-2.169	-4.496	O.2	1	UNK0	0.000	
4	   N	-0.771	-2.440	-2.607	N.3	1	UNK0	0.000	
5	   C	-0.878	-0.983	-2.827	C.3	1	UNK0	0.000	
6	   C	0.324	-0.358	-2.222	C.3	1	UNK0	0.000	
7	   O	0.688	-0.719	-0.978	O.3	1	UNK0	0.000	
8	   C	0.202	-1.842	-0.429	C.3	1	UNK0	0.000	
9	   C	-0.827	-2.594	-1.200	C.3	1	UNK0	0.000	
10	   C	0.113	1.119	-2.258	C.2	1	UNK0	0.000	
11	   O	-0.240	1.622	-3.358	O.2	1	UNK0	0.000	
12	   N	0.279	1.982	-1.159	N.pl3	1	UNK0	0.000	
13	   C	0.681	1.549	0.166	C.3	1	UNK0	0.000	
14	   C	0.857	2.795	1.011	C.3	1	UNK0	0.000	
15	   N	-0.368	3.562	1.139	N.3	1	UNK0	0.000	
16	   C	-0.945	3.756	-0.153	C.3	1	UNK0	0.000	
17	   C	0.049	3.430	-1.275	C.3	1	UNK0	0.000	
18	   C	-1.208	2.910	2.091	C.3	1	UNK0	0.000	
19	   C	-2.522	3.605	2.321	C.3	1	UNK0	0.000	
20	   C	-3.407	2.893	3.343	C.3	1	UNK0	0.000	
21	   C	-3.803	3.030	1.906	C.3	1	UNK0	0.000	
22	   C	1.755	-3.783	-2.451	C.2	1	UNK0	0.000	
23	   C	1.579	-4.981	-1.794	C.2	1	UNK0	0.000	
24	   C	2.534	-5.502	-0.942	C.2	1	UNK0	0.000	
25	   C	3.704	-4.815	-0.736	C.2	1	UNK0	0.000	
26	   C	3.900	-3.608	-1.391	C.2	1	UNK0	0.000	
27	   C	2.951	-3.097	-2.231	C.2	1	UNK0	0.000	
28	  Cl	0.132	-5.966	-2.082	Cl	1	UNK0	0.000	
29	   H	-1.772	-0.650	-2.302	 H	1	UNK0	0.000	
30	   H	-0.932	-0.731	-3.885	 H	1	UNK0	0.000	
31	   H	1.231	-0.521	-2.886	 H	1	UNK0	0.000	
32	   H	-0.252	-1.572	0.573	 H	1	UNK0	0.000	
33	   H	1.029	-2.528	-0.172	 H	1	UNK0	0.000	
34	   H	-0.931	-3.638	-0.914	 H	1	UNK0	0.000	
35	   H	-1.847	-2.148	-0.905	 H	1	UNK0	0.000	
36	   H	-0.049	0.853	0.585	 H	1	UNK0	0.000	
37	   H	1.680	1.067	0.137	 H	1	UNK0	0.000	
38	   H	1.185	2.460	2.038	 H	1	UNK0	0.000	
39	   H	1.694	3.365	0.601	 H	1	UNK0	0.000	
40	   H	-1.213	4.811	-0.285	 H	1	UNK0	0.000	
41	   H	-1.800	3.065	-0.307	 H	1	UNK0	0.000	
42	   H	-0.508	3.584	-2.221	 H	1	UNK0	0.000	
43	   H	0.970	4.006	-1.195	 H	1	UNK0	0.000	
44	   H	-1.327	1.847	1.821	 H	1	UNK0	0.000	
45	   H	-0.661	2.914	3.069	 H	1	UNK0	0.000	
46	   H	-2.466	4.705	2.452	 H	1	UNK0	0.000	
47	   H	-3.098	1.902	3.716	 H	1	UNK0	0.000	
48	   H	-3.934	3.502	4.098	 H	1	UNK0	0.000	
49	   H	-4.649	3.711	1.720	 H	1	UNK0	0.000	
50	   H	-3.888	2.069	1.364	 H	1	UNK0	0.000	
51	   H	2.397	-6.443	-0.423	 H	1	UNK0	0.000	
52	   H	4.442	-5.231	-0.070	 H	1	UNK0	0.000	
53	   H	4.835	-3.105	-1.199	 H	1	UNK0	0.000	
54	   H	3.090	-2.155	-2.750	 H	1	UNK0	0.000	
@<TRIPOS>BOND
1 1 2 2
2 1 3 2
3 1 4 1
4 1 22 1
5 4 5 1
6 4 9 1
7 5 6 1
8 6 7 1
9 6 10 1
10 7 8 1
11 8 9 1
12 10 11 2
13 10 12 1
14 12 13 1
15 12 17 1
16 13 14 1
17 14 15 1
18 15 16 1
19 15 18 1
20 16 17 1
21 18 19 1
22 19 20 1
23 19 21 1
24 20 21 1
25 22 23 2
26 22 27 1
27 23 24 1
28 23 28 1
29 24 25 2
30 25 26 1
31 26 27 2
32 5 29 1
33 5 30 1
34 6 31 1
35 8 32 1
36 8 33 1
37 9 34 1
38 9 35 1
39 13 36 1
40 13 37 1
41 14 38 1
42 14 39 1
43 16 40 1
44 16 41 1
45 17 42 1
46 17 43 1
47 18 44 1
48 18 45 1
49 19 46 1
50 20 47 1
51 20 48 1
52 21 49 1
53 21 50 1
54 24 51 1
55 25 52 1
56 26 53 1
57 27 54 1
@<TRIPOS>SUBSTRUCTURE
1	UNK0	1	GROUP	1 ****	UNK
