REMARK  5 active torsions:
REMARK  status: ('A' for Active; 'I' for Inactive)
REMARK    1  A    between atoms: S_1  and  N_4 
REMARK    2  A    between atoms: S_1  and  C_22 
REMARK    3  A    between atoms: C_6  and  C_10 
REMARK       I    between atoms: C_10  and  N_12 
REMARK    4  A    between atoms: N_15  and  C_18 
REMARK    5  A    between atoms: C_18  and  C_19 
ROOT
ATOM      1  N   UNK d   1      -0.771  -2.440  -2.607  0.00  0.00    -0.202 NA
ATOM      2  C   UNK d   1      -0.878  -0.983  -2.827  0.00  0.00     0.149 C 
ATOM      3  C   UNK d   1       0.324  -0.358  -2.222  0.00  0.00     0.227 C 
ATOM      4  O   UNK d   1       0.688  -0.719  -0.978  0.00  0.00    -0.374 OA
ATOM      5  C   UNK d   1       0.202  -1.842  -0.429  0.00  0.00     0.184 C 
ATOM      6  C   UNK d   1      -0.827  -2.594  -1.200  0.00  0.00     0.134 C 
ENDROOT
BRANCH   3   7
ATOM      7  C   UNK d   1       0.113   1.119  -2.258  0.00  0.00     0.250 C 
ATOM      8  O   UNK d   1      -0.240   1.622  -3.358  0.00  0.00    -0.270 OA
ATOM      9  N   UNK d   1       0.279   1.982  -1.159  0.00  0.00    -0.347 N 
ATOM     10  C   UNK d   1       0.681   1.549   0.166  0.00  0.00     0.156 C 
ATOM     11  C   UNK d   1       0.049   3.430  -1.275  0.00  0.00     0.156 C 
ATOM     12  C   UNK d   1       0.857   2.795   1.011  0.00  0.00     0.292 C 
ATOM     13  N   UNK d   1      -0.368   3.562   1.139  0.00  0.00     0.091 N 
ATOM     14  C   UNK d   1      -0.945   3.756  -0.153  0.00  0.00     0.292 C 
BRANCH  13  15
ATOM     15  C   UNK d   1      -1.208   2.910   2.091  0.00  0.00     0.277 C 
BRANCH  15  16
ATOM     16  C   UNK d   1      -2.522   3.605   2.321  0.00  0.00     0.014 A 
ATOM     17  C   UNK d   1      -3.407   2.893   3.343  0.00  0.00     0.007 A 
ATOM     18  C   UNK d   1      -3.803   3.030   1.906  0.00  0.00     0.007 A 
ENDBRANCH  15  16
ENDBRANCH  13  15
ENDBRANCH   3   7
BRANCH   1  19
ATOM     19  S   UNK d   1       0.520  -3.102  -3.461  0.00  0.00     0.245 S 
ATOM     20  O   UNK d   1      -0.030  -4.274  -4.285  0.00  0.00    -0.206 OA
ATOM     21  O   UNK d   1       1.100  -2.169  -4.496  0.00  0.00    -0.206 OA
BRANCH  19  22
ATOM     22  C   UNK d   1       1.755  -3.783  -2.451  0.00  0.00     0.096 A 
ATOM     23  C   UNK d   1       1.579  -4.981  -1.794  0.00  0.00     0.056 A 
ATOM     24  C   UNK d   1       2.534  -5.502  -0.942  0.00  0.00     0.025 A 
ATOM     25 Cl   UNK d   1       0.132  -5.966  -2.082  0.00  0.00    -0.083 Cl
ATOM     26  C   UNK d   1       3.704  -4.815  -0.736  0.00  0.00     0.002 A 
ATOM     27  C   UNK d   1       3.900  -3.608  -1.391  0.00  0.00     0.002 A 
ATOM     28  C   UNK d   1       2.951  -3.097  -2.231  0.00  0.00     0.026 A 
ENDBRANCH  19  22
ENDBRANCH   1  19
TORSDOF 5
