REMARK  7 active torsions:
REMARK  status: ('A' for Active; 'I' for Inactive)
REMARK    1  A    between atoms: C_4  and  C_10 
REMARK    2  A    between atoms: C_5  and  O_8 
REMARK    3  A    between atoms: C_18  and  C_19 
REMARK    4  A    between atoms: C_19  and  N_20 
REMARK    5  A    between atoms: N_23  and  C_26 
REMARK    6  A    between atoms: C_26  and  C_27 
REMARK    7  A    between atoms: C_27  and  O_28 
ROOT
ATOM      1  C   UNK d   1      -3.299  -0.435  -1.141  0.00  0.00     0.055 C 
ATOM      2  C   UNK d   1      -2.147  -0.573  -1.810  0.00  0.00     0.128 A 
ATOM      3  O   UNK d   1      -0.983   0.124  -1.507  0.00  0.00    -0.305 OA
ATOM      4  C   UNK d   1       0.029  -0.288  -2.385  0.00  0.00     0.101 A 
ATOM      5  C   UNK d   1      -0.402  -1.228  -3.270  0.00  0.00     0.051 A 
ATOM      6  C   UNK d   1       0.437  -1.786  -4.206  0.00  0.00     0.021 A 
ATOM      7  C   UNK d   1       1.769  -1.390  -4.264  0.00  0.00     0.041 A 
ATOM      8  C   UNK d   1       2.204  -0.424  -3.355  0.00  0.00     0.118 A 
ATOM      9  C   UNK d   1       1.371   0.126  -2.435  0.00  0.00     0.039 A 
ATOM     10  O   UNK d   1       3.550  -0.081  -3.479  0.00  0.00    -0.191 OA
ATOM     11  C   UNK d   1      -1.839  -1.441  -2.927  0.00  0.00     0.218 A 
ATOM     12  O   UNK d   1      -2.626  -2.211  -3.493  0.00  0.00    -0.284 OA
ENDROOT
BRANCH   9  13
ATOM     13  C   UNK d   1       1.709   1.281  -1.576  0.00  0.00     0.279 C 
BRANCH  13  14
ATOM     14  N   UNK d   1       2.404   0.941  -0.425  0.00  0.00    -0.064 N 
ATOM     15  C   UNK d   1       2.392   2.043   0.588  0.00  0.00     0.254 C 
ATOM     16  C   UNK d   1       1.985   1.336   1.905  0.00  0.00     0.144 C 
ATOM     17  N   UNK d   1       2.137  -0.076   1.749  0.00  0.00    -0.407 N 
ATOM     18  C   UNK d   1       3.358  -0.500   1.185  0.00  0.00     0.144 C 
ATOM     19  C   UNK d   1       3.558   0.197  -0.231  0.00  0.00     0.254 C 
ATOM     20  H   UNK d   1       1.583   0.305   0.062  0.00  0.00     0.280 HD
BRANCH  17  21
ATOM     21  C   UNK d   1       1.110  -0.910   2.131  0.00  0.00     0.143 C 
BRANCH  21  22
ATOM     22  C   UNK d   1       1.122  -2.355   1.746  0.00  0.00     0.183 C 
BRANCH  22  23
ATOM     23  O   UNK d   1      -0.021  -3.014   2.227  0.00  0.00    -0.399 OA
ATOM     24  H   UNK d   1      -0.369  -3.630   1.502  0.00  0.00     0.209 HD
ENDBRANCH  22  23
ENDBRANCH  21  22
ENDBRANCH  17  21
ENDBRANCH  13  14
ENDBRANCH   9  13
BRANCH   1  25
ATOM     25  C   UNK d   1      -3.258   0.520  -0.020  0.00  0.00     0.001 A 
ATOM     26  C   UNK d   1      -2.959   1.813  -0.263  0.00  0.00     0.033 A 
ATOM     27  C   UNK d   1      -2.831   2.692   0.826  0.00  0.00     0.011 A 
ATOM     28 Br   UNK d   1      -2.411   4.524   0.515  0.00  0.00    -0.051 Br
ATOM     29  C   UNK d   1      -2.999   2.269   2.121  0.00  0.00     0.022 A 
ATOM     30  C   UNK d   1      -3.299   0.938   2.332  0.00  0.00     0.039 A 
ATOM     31  C   UNK d   1      -3.435   0.044   1.260  0.00  0.00     0.078 A 
BRANCH  31  32
ATOM     32  O   UNK d   1      -3.735  -1.294   1.470  0.00  0.00    -0.355 OA
ATOM     33  C   UNK d   1      -3.927  -1.913   2.694  0.00  0.00     0.210 C 
ENDBRANCH  31  32
ENDBRANCH   1  25
TORSDOF 7
