# created with PyMOL 2.3.2
@<TRIPOS>MOLECULE
2210
56 59 1                 
SMALL
USER_CHARGES
@<TRIPOS>ATOM
1	  Br	-2.411	4.524	0.515	Br	1	UNK0	0.000	
2	   C	-2.831	2.692	0.826	C.2	1	UNK0	0.000	
3	   C	-2.959	1.813	-0.263	C.2	1	UNK0	0.000	
4	   C	-3.258	0.520	-0.020	C.2	1	UNK0	0.000	
5	   C	-3.435	0.044	1.260	C.2	1	UNK0	0.000	
6	   C	-3.299	0.938	2.332	C.2	1	UNK0	0.000	
7	   C	-2.999	2.269	2.121	C.2	1	UNK0	0.000	
8	   O	-3.735	-1.294	1.470	O.3	1	UNK0	0.000	
9	   C	-3.927	-1.913	2.694	C.3	1	UNK0	0.000	
10	   C	-3.299	-0.435	-1.141	C.2	1	UNK0	0.000	
11	   C	-2.147	-0.573	-1.810	C.2	1	UNK0	0.000	
12	   O	-0.983	0.124	-1.507	O.3	1	UNK0	0.000	
13	   C	0.029	-0.288	-2.385	C.2	1	UNK0	0.000	
14	   C	-0.402	-1.228	-3.270	C.2	1	UNK0	0.000	
15	   C	0.437	-1.786	-4.206	C.2	1	UNK0	0.000	
16	   C	1.769	-1.390	-4.264	C.2	1	UNK0	0.000	
17	   C	2.204	-0.424	-3.355	C.2	1	UNK0	0.000	
18	   C	1.371	0.126	-2.435	C.2	1	UNK0	0.000	
19	   C	1.709	1.281	-1.576	C.3	1	UNK0	0.000	
20	   N	2.404	0.941	-0.425	N.4	1	UNK0	0.000	
21	   C	2.392	2.043	0.588	C.3	1	UNK0	0.000	
22	   C	1.985	1.336	1.905	C.3	1	UNK0	0.000	
23	   N	2.137	-0.076	1.749	N.3	1	UNK0	0.000	
24	   C	3.358	-0.500	1.185	C.3	1	UNK0	0.000	
25	   C	3.558	0.197	-0.231	C.3	1	UNK0	0.000	
26	   C	1.110	-0.910	2.131	C.3	1	UNK0	0.000	
27	   C	1.122	-2.355	1.746	C.3	1	UNK0	0.000	
28	   O	-0.021	-3.014	2.227	O.3	1	UNK0	0.000	
29	   O	3.550	-0.081	-3.479	O.2	1	UNK0	0.000	
30	   C	-1.839	-1.441	-2.927	C.2	1	UNK0	0.000	
31	   O	-2.626	-2.211	-3.493	O.2	1	UNK0	0.000	
32	   H	-2.794	2.250	-1.235	 H	1	UNK0	0.000	
33	   H	-3.432	0.608	3.351	 H	1	UNK0	0.000	
34	   H	-2.909	2.939	2.997	 H	1	UNK0	0.000	
35	   H	-4.720	-1.505	3.320	 H	1	UNK0	0.000	
36	   H	-4.183	-2.989	2.504	 H	1	UNK0	0.000	
37	   H	-2.971	-1.918	3.299	 H	1	UNK0	0.000	
38	   H	-4.171	-0.969	-1.423	 H	1	UNK0	0.000	
39	   H	0.044	-2.535	-4.893	 H	1	UNK0	0.000	
40	   H	2.410	-1.837	-5.011	 H	1	UNK0	0.000	
41	   H	2.305	2.012	-2.230	 H	1	UNK0	0.000	
42	   H	0.770	1.869	-1.395	 H	1	UNK0	0.000	
43	   H	1.583	0.305	0.062	 H	1	UNK0	0.000	
44	   H	1.648	2.798	0.296	 H	1	UNK0	0.000	
45	   H	3.421	2.425	0.667	 H	1	UNK0	0.000	
46	   H	2.624	1.737	2.705	 H	1	UNK0	0.000	
47	   H	0.947	1.597	2.083	 H	1	UNK0	0.000	
48	   H	4.178	-0.088	1.792	 H	1	UNK0	0.000	
49	   H	3.457	-1.561	1.101	 H	1	UNK0	0.000	
50	   H	4.436	0.911	-0.139	 H	1	UNK0	0.000	
51	   H	3.852	-0.591	-0.915	 H	1	UNK0	0.000	
52	   H	1.020	-0.925	3.287	 H	1	UNK0	0.000	
53	   H	0.103	-0.480	1.843	 H	1	UNK0	0.000	
54	   H	2.006	-2.927	2.019	 H	1	UNK0	0.000	
55	   H	1.055	-2.417	0.617	 H	1	UNK0	0.000	
56	   H	-0.369	-3.630	1.502	 H	1	UNK0	0.000	
@<TRIPOS>BOND
1 1 2 1
2 2 3 2
3 2 7 1
4 3 4 1
5 4 5 2
6 4 10 1
7 5 6 1
8 5 8 1
9 6 7 2
10 8 9 1
11 10 11 2
12 11 12 1
13 11 30 1
14 12 13 1
15 13 14 2
16 13 18 1
17 14 15 1
18 14 30 1
19 15 16 2
20 16 17 1
21 17 18 2
22 17 29 1
23 18 19 1
24 19 20 1
25 20 21 1
26 20 25 1
27 21 22 1
28 22 23 1
29 23 24 1
30 23 26 1
31 24 25 1
32 26 27 1
33 27 28 1
34 30 31 2
35 3 32 1
36 6 33 1
37 7 34 1
38 9 35 1
39 9 36 1
40 9 37 1
41 10 38 1
42 15 39 1
43 16 40 1
44 19 41 1
45 19 42 1
46 20 43 1
47 21 44 1
48 21 45 1
49 22 46 1
50 22 47 1
51 24 48 1
52 24 49 1
53 25 50 1
54 25 51 1
55 26 52 1
56 26 53 1
57 27 54 1
58 27 55 1
59 28 56 1
@<TRIPOS>SUBSTRUCTURE
1	UNK0	1	GROUP	1 ****	UNK
