# created with PyMOL 2.3.2
@<TRIPOS>MOLECULE
2213
46 49 1                 
SMALL
USER_CHARGES
@<TRIPOS>ATOM
1	  Cl	-3.611	0.085	4.275	Cl	1	UNK0	0.000	
2	   C	-3.395	0.196	2.542	C.2	1	UNK0	0.000	
3	   C	-2.248	-0.384	1.980	C.2	1	UNK0	0.000	
4	   C	-2.050	-0.313	0.626	C.2	1	UNK0	0.000	
5	   C	-3.026	0.347	-0.129	C.2	1	UNK0	0.000	
6	   C	-4.148	0.913	0.434	C.2	1	UNK0	0.000	
7	   C	-4.352	0.844	1.800	C.2	1	UNK0	0.000	
8	  Cl	-5.361	1.738	-0.537	Cl	1	UNK0	0.000	
9	   C	-0.878	-0.892	-0.048	C.3	1	UNK0	0.000	
10	   C	0.023	-1.540	0.920	C.2	1	UNK0	0.000	
11	   C	-0.192	-1.599	2.261	C.2	1	UNK0	0.000	
12	   N	0.677	-2.213	3.116	N.pl3	1	UNK0	0.000	
13	   C	1.768	-2.766	2.592	C.2	1	UNK0	0.000	
14	   O	2.607	-3.349	3.349	O.2	1	UNK0	0.000	
15	   N	2.021	-2.731	1.268	N.pl3	1	UNK0	0.000	
16	   C	1.176	-2.133	0.421	C.2	1	UNK0	0.000	
17	   O	1.411	-2.100	-0.814	O.2	1	UNK0	0.000	
18	   C	3.232	-3.357	0.756	C.3	1	UNK0	0.000	
19	   C	0.418	-2.257	4.539	C.3	1	UNK0	0.000	
20	   O	-1.320	-1.024	2.780	O.3	1	UNK0	0.000	
21	   C	-0.156	0.136	-0.869	C.2	1	UNK0	0.000	
22	   C	0.595	1.131	-0.292	C.2	1	UNK0	0.000	
23	   N	1.243	2.070	-0.999	N.pl3	1	UNK0	0.000	
24	   C	1.148	2.031	-2.342	C.2	1	UNK0	0.000	
25	   O	1.762	2.922	-2.999	O.2	1	UNK0	0.000	
26	   N	0.423	1.075	-2.949	N.pl3	1	UNK0	0.000	
27	   C	-0.230	0.128	-2.261	C.2	1	UNK0	0.000	
28	   O	-0.913	-0.776	-2.799	O.2	1	UNK0	0.000	
29	   C	0.351	1.077	-4.392	C.3	1	UNK0	0.000	
30	   C	2.032	3.106	-0.360	C.3	1	UNK0	0.000	
31	   O	0.691	1.170	1.084	O.2	1	UNK0	0.000	
32	   H	-2.875	0.406	-1.201	 H	1	UNK0	0.000	
33	   H	-5.219	1.276	2.272	 H	1	UNK0	0.000	
34	   H	-1.195	-1.694	-0.775	 H	1	UNK0	0.000	
35	   H	3.849	-3.739	1.613	 H	1	UNK0	0.000	
36	   H	3.833	-2.685	0.125	 H	1	UNK0	0.000	
37	   H	3.013	-4.262	0.146	 H	1	UNK0	0.000	
38	   H	-0.464	-1.620	4.802	 H	1	UNK0	0.000	
39	   H	1.264	-1.850	5.131	 H	1	UNK0	0.000	
40	   H	0.170	-3.297	4.818	 H	1	UNK0	0.000	
41	   H	0.354	0.045	-4.771	 H	1	UNK0	0.000	
42	   H	1.208	1.612	-4.852	 H	1	UNK0	0.000	
43	   H	-0.558	1.645	-4.748	 H	1	UNK0	0.000	
44	   H	3.090	2.963	-0.731	 H	1	UNK0	0.000	
45	   H	1.750	4.128	-0.701	 H	1	UNK0	0.000	
46	   H	2.068	2.990	0.724	 H	1	UNK0	0.000	
@<TRIPOS>BOND
1 1 2 1
2 2 3 2
3 2 7 1
4 3 4 1
5 3 20 1
6 4 5 2
7 4 9 1
8 5 6 1
9 6 7 2
10 6 8 1
11 9 10 1
12 9 21 1
13 10 11 2
14 10 16 1
15 11 12 1
16 11 20 1
17 12 13 1
18 12 19 1
19 13 14 2
20 13 15 1
21 15 16 1
22 15 18 1
23 16 17 2
24 21 22 2
25 21 27 1
26 22 23 1
27 22 31 1
28 23 24 1
29 23 30 1
30 24 25 2
31 24 26 1
32 26 27 1
33 26 29 1
34 27 28 2
35 5 32 1
36 7 33 1
37 9 34 1
38 18 35 1
39 18 36 1
40 18 37 1
41 19 38 1
42 19 39 1
43 19 40 1
44 29 41 1
45 29 42 1
46 29 43 1
47 30 44 1
48 30 45 1
49 30 46 1
@<TRIPOS>SUBSTRUCTURE
1	UNK0	1	GROUP	1 ****	UNK
