REMARK  1 active torsions:
REMARK  status: ('A' for Active; 'I' for Inactive)
REMARK    1  A    between atoms: C_9  and  C_21 
ROOT
ATOM      1 Cl   UNK d   1      -3.611   0.085   4.275  0.00  0.00    -0.081 Cl
ATOM      2  C   UNK d   1      -3.395   0.196   2.542  0.00  0.00     0.070 A 
ATOM      3  C   UNK d   1      -2.248  -0.384   1.980  0.00  0.00     0.107 A 
ATOM      4  C   UNK d   1      -2.050  -0.313   0.626  0.00  0.00    -0.007 A 
ATOM      5  C   UNK d   1      -3.026   0.347  -0.129  0.00  0.00     0.035 A 
ATOM      6  C   UNK d   1      -4.148   0.913   0.434  0.00  0.00     0.036 A 
ATOM      7  C   UNK d   1      -4.352   0.844   1.800  0.00  0.00     0.050 A 
ATOM      8 Cl   UNK d   1      -5.361   1.738  -0.537  0.00  0.00    -0.084 Cl
ATOM      9  C   UNK d   1      -0.878  -0.892  -0.048  0.00  0.00     0.107 A 
ATOM     10  C   UNK d   1       0.023  -1.540   0.920  0.00  0.00     0.075 A 
ATOM     11  C   UNK d   1      -0.192  -1.599   2.261  0.00  0.00     0.167 A 
ATOM     12  N   UNK d   1       0.677  -2.213   3.116  0.00  0.00    -0.283 N 
ATOM     13  C   UNK d   1       1.768  -2.766   2.592  0.00  0.00     0.332 A 
ATOM     14  O   UNK d   1       2.607  -3.349   3.349  0.00  0.00    -0.246 OA
ATOM     15  N   UNK d   1       2.021  -2.731   1.268  0.00  0.00    -0.270 N 
ATOM     16  C   UNK d   1       1.176  -2.133   0.421  0.00  0.00     0.262 A 
ATOM     17  O   UNK d   1       1.411  -2.100  -0.814  0.00  0.00    -0.267 OA
ATOM     18  C   UNK d   1       3.232  -3.357   0.756  0.00  0.00     0.164 C 
ATOM     19  C   UNK d   1       0.418  -2.257   4.539  0.00  0.00     0.163 C 
ATOM     20  O   UNK d   1      -1.320  -1.024   2.780  0.00  0.00    -0.290 OA
ENDROOT
BRANCH   9  21
ATOM     21  C   UNK d   1      -0.156   0.136  -0.869  0.00  0.00     0.078 A 
ATOM     22  C   UNK d   1       0.595   1.131  -0.292  0.00  0.00     0.197 A 
ATOM     23  N   UNK d   1       1.243   2.070  -0.999  0.00  0.00    -0.281 N 
ATOM     24  O   UNK d   1       0.691   1.170   1.084  0.00  0.00    -0.171 OA
ATOM     25  C   UNK d   1       1.148   2.031  -2.342  0.00  0.00     0.332 A 
ATOM     26  C   UNK d   1       2.032   3.106  -0.360  0.00  0.00     0.163 C 
ATOM     27  O   UNK d   1       1.762   2.922  -2.999  0.00  0.00    -0.246 OA
ATOM     28  N   UNK d   1       0.423   1.075  -2.949  0.00  0.00    -0.270 N 
ATOM     29  C   UNK d   1      -0.230   0.128  -2.261  0.00  0.00     0.262 A 
ATOM     30  C   UNK d   1       0.351   1.077  -4.392  0.00  0.00     0.164 C 
ATOM     31  O   UNK d   1      -0.913  -0.776  -2.799  0.00  0.00    -0.267 OA
ENDBRANCH   9  21
TORSDOF 1
