# created with PyMOL 2.3.2
@<TRIPOS>MOLECULE
2214
51 55 1                 
SMALL
USER_CHARGES
@<TRIPOS>ATOM
1	  Cl	4.912	-4.489	2.100	Cl	1	UNK0	0.000	
2	   C	3.991	-3.890	0.737	C.2	1	UNK0	0.000	
3	   C	2.778	-3.275	0.888	C.2	1	UNK0	0.000	
4	   C	2.076	-2.812	-0.228	C.2	1	UNK0	0.000	
5	   C	2.637	-2.993	-1.457	C.2	1	UNK0	0.000	
6	   C	3.882	-3.624	-1.615	C.2	1	UNK0	0.000	
7	   C	4.568	-4.077	-0.524	C.2	1	UNK0	0.000	
8	   N	1.761	-2.454	-2.442	N.pl3	1	UNK0	0.000	
9	   C	0.620	-1.920	-1.815	C.2	1	UNK0	0.000	
10	   O	-0.343	-1.371	-2.438	O.2	1	UNK0	0.000	
11	   C	0.781	-2.126	-0.372	C.3	1	UNK0	0.000	
12	   N	-0.222	-3.012	0.176	N.3	1	UNK0	0.000	
13	   C	-1.044	-2.305	1.106	C.3	1	UNK0	0.000	
14	   C	-0.675	-0.882	0.960	C.3	1	UNK0	0.000	
15	   C	0.724	-0.836	0.411	C.3	1	UNK0	0.000	
16	   C	0.690	0.360	-0.459	C.2	1	UNK0	0.000	
17	   O	1.655	1.037	-0.894	O.2	1	UNK0	0.000	
18	   N	-0.678	0.691	-0.780	N.pl3	1	UNK0	0.000	
19	   C	-1.493	-0.296	-0.159	C.2	1	UNK0	0.000	
20	   O	-2.661	-0.587	-0.508	O.2	1	UNK0	0.000	
21	   C	-1.112	1.814	-1.584	C.3	1	UNK0	0.000	
22	   C	-1.361	3.059	-0.777	C.3	1	UNK0	0.000	
23	   O	-1.773	4.087	-1.621	O.3	1	UNK0	0.000	
24	   C	-3.148	4.050	-1.667	C.3	1	UNK0	0.000	
25	   C	-3.646	3.464	-0.364	C.3	1	UNK0	0.000	
26	   C	-2.392	2.913	0.286	C.3	1	UNK0	0.000	
27	   C	-0.932	-2.839	2.509	C.3	1	UNK0	0.000	
28	   C	-1.754	-2.157	3.491	C.2	1	UNK0	0.000	
29	   O	-1.711	-2.498	4.692	O.2	1	UNK0	0.000	
30	   N	-2.614	-1.102	3.114	N.pl3	1	UNK0	0.000	
31	   H	2.344	-3.135	1.845	 H	1	UNK0	0.000	
32	   H	4.270	-3.737	-2.604	 H	1	UNK0	0.000	
33	   H	5.523	-4.559	-0.664	 H	1	UNK0	0.000	
34	   H	1.923	-2.444	-3.494	 H	1	UNK0	0.000	
35	   H	0.187	-3.834	0.673	 H	1	UNK0	0.000	
36	   H	-2.105	-2.430	0.738	 H	1	UNK0	0.000	
37	   H	-0.794	-0.258	1.869	 H	1	UNK0	0.000	
38	   H	1.502	-0.768	1.193	 H	1	UNK0	0.000	
39	   H	-0.353	2.030	-2.364	 H	1	UNK0	0.000	
40	   H	-2.046	1.530	-2.142	 H	1	UNK0	0.000	
41	   H	-0.407	3.382	-0.313	 H	1	UNK0	0.000	
42	   H	-3.505	5.101	-1.757	 H	1	UNK0	0.000	
43	   H	-3.547	3.507	-2.549	 H	1	UNK0	0.000	
44	   H	-4.047	4.269	0.275	 H	1	UNK0	0.000	
45	   H	-4.374	2.647	-0.538	 H	1	UNK0	0.000	
46	   H	-2.518	1.891	0.655	 H	1	UNK0	0.000	
47	   H	-2.132	3.526	1.199	 H	1	UNK0	0.000	
48	   H	-1.265	-3.915	2.463	 H	1	UNK0	0.000	
49	   H	0.146	-2.895	2.776	 H	1	UNK0	0.000	
50	   H	-2.557	-0.188	3.621	 H	1	UNK0	0.000	
51	   H	-3.317	-1.164	2.354	 H	1	UNK0	0.000	
@<TRIPOS>BOND
1 1 2 1
2 2 3 2
3 2 7 1
4 3 4 1
5 4 5 2
6 4 11 1
7 5 6 1
8 5 8 1
9 6 7 2
10 8 9 1
11 9 10 2
12 9 11 1
13 11 12 1
14 11 15 1
15 12 13 1
16 13 14 1
17 13 27 1
18 14 15 1
19 14 19 1
20 15 16 1
21 16 17 2
22 16 18 1
23 18 19 1
24 18 21 1
25 19 20 2
26 21 22 1
27 22 23 1
28 22 26 1
29 23 24 1
30 24 25 1
31 25 26 1
32 27 28 1
33 28 29 2
34 28 30 1
35 3 31 1
36 6 32 1
37 7 33 1
38 8 34 1
39 12 35 1
40 13 36 1
41 14 37 1
42 15 38 1
43 21 39 1
44 21 40 1
45 22 41 1
46 24 42 1
47 24 43 1
48 25 44 1
49 25 45 1
50 26 46 1
51 26 47 1
52 27 48 1
53 27 49 1
54 30 50 1
55 30 51 1
@<TRIPOS>SUBSTRUCTURE
1	UNK0	1	GROUP	1 ****	UNK
