REMARK  4 active torsions:
REMARK  status: ('A' for Active; 'I' for Inactive)
REMARK    1  A    between atoms: C_13  and  C_27 
REMARK    2  A    between atoms: N_18  and  C_21 
REMARK    3  A    between atoms: C_21  and  C_22 
REMARK    4  A    between atoms: C_27  and  C_28 
REMARK       I    between atoms: C_28  and  N_30 
ROOT
ATOM      1 Cl   UNK d   1       4.912  -4.489   2.100  0.00  0.00    -0.084 Cl
ATOM      2  C   UNK d   1       3.991  -3.890   0.737  0.00  0.00     0.034 A 
ATOM      3  C   UNK d   1       2.778  -3.275   0.888  0.00  0.00     0.036 A 
ATOM      4  C   UNK d   1       2.076  -2.812  -0.228  0.00  0.00     0.019 A 
ATOM      5  C   UNK d   1       2.637  -2.993  -1.457  0.00  0.00     0.044 A 
ATOM      6  C   UNK d   1       3.882  -3.624  -1.615  0.00  0.00     0.032 A 
ATOM      7  C   UNK d   1       4.568  -4.077  -0.524  0.00  0.00     0.026 A 
ATOM      8  N   UNK d   1       1.761  -2.454  -2.442  0.00  0.00    -0.324 N 
ATOM      9  C   UNK d   1       0.620  -1.920  -1.815  0.00  0.00     0.267 A 
ATOM     10  O   UNK d   1      -0.343  -1.371  -2.438  0.00  0.00    -0.270 OA
ATOM     11  C   UNK d   1       0.781  -2.126  -0.372  0.00  0.00     0.279 A 
ATOM     12  N   UNK d   1      -0.222  -3.012   0.176  0.00  0.00     0.114 N 
ATOM     13  C   UNK d   1      -1.044  -2.305   1.106  0.00  0.00     0.245 C 
ATOM     14  C   UNK d   1      -0.675  -0.882   0.960  0.00  0.00     0.128 C 
ATOM     15  C   UNK d   1       0.724  -0.836   0.411  0.00  0.00     0.147 C 
ATOM     16  C   UNK d   1       0.690   0.360  -0.459  0.00  0.00     0.235 C 
ATOM     17  O   UNK d   1       1.655   1.037  -0.894  0.00  0.00    -0.272 OA
ATOM     18  N   UNK d   1      -0.678   0.691  -0.780  0.00  0.00    -0.285 N 
ATOM     19  C   UNK d   1      -1.493  -0.296  -0.159  0.00  0.00     0.233 C 
ATOM     20  O   UNK d   1      -2.661  -0.587  -0.508  0.00  0.00    -0.272 OA
ATOM     21  H   UNK d   1       1.923  -2.444  -3.494  0.00  0.00     0.169 HD
ATOM     22  H   UNK d   1       0.187  -3.834   0.673  0.00  0.00     0.318 HD
ENDROOT
BRANCH  13  23
ATOM     23  C   UNK d   1      -0.932  -2.839   2.509  0.00  0.00     0.139 C 
BRANCH  23  24
ATOM     24  C   UNK d   1      -1.754  -2.157   3.491  0.00  0.00     0.217 C 
ATOM     25  O   UNK d   1      -1.711  -2.498   4.692  0.00  0.00    -0.274 OA
ATOM     26  N   UNK d   1      -2.614  -1.102   3.114  0.00  0.00    -0.370 N 
ATOM     27  H   UNK d   1      -2.557  -0.188   3.621  0.00  0.00     0.159 HD
ATOM     28  H   UNK d   1      -3.317  -1.164   2.354  0.00  0.00     0.159 HD
ENDBRANCH  23  24
ENDBRANCH  13  23
BRANCH  18  29
ATOM     29  C   UNK d   1      -1.112   1.814  -1.584  0.00  0.00     0.166 C 
BRANCH  29  30
ATOM     30  C   UNK d   1      -1.361   3.059  -0.777  0.00  0.00     0.140 C 
ATOM     31  O   UNK d   1      -1.773   4.087  -1.621  0.00  0.00    -0.384 OA
ATOM     32  C   UNK d   1      -3.148   4.050  -1.667  0.00  0.00     0.168 C 
ATOM     33  C   UNK d   1      -3.646   3.464  -0.364  0.00  0.00     0.029 C 
ATOM     34  C   UNK d   1      -2.392   2.913   0.286  0.00  0.00     0.035 C 
ENDBRANCH  29  30
ENDBRANCH  18  29
TORSDOF 4
