# created with PyMOL 2.3.2
@<TRIPOS>MOLECULE
2225
53 56 1                 
SMALL
USER_CHARGES
@<TRIPOS>ATOM
1	  Cl	0.581	-7.250	-3.964	Cl	1	UNK0	0.000	
2	   C	0.707	-5.509	-3.992	C.2	1	UNK0	0.000	
3	   C	0.947	-4.782	-2.849	C.2	1	UNK0	0.000	
4	   C	1.049	-3.424	-2.857	C.2	1	UNK0	0.000	
5	   C	0.911	-2.677	-4.047	C.2	1	UNK0	0.000	
6	   C	0.665	-3.440	-5.208	C.2	1	UNK0	0.000	
7	   C	0.570	-4.799	-5.163	C.2	1	UNK0	0.000	
8	   O	0.996	-1.388	-4.117	O.3	1	UNK0	0.000	
9	   C	1.086	-0.107	-4.147	C.3	1	UNK0	0.000	
10	   C	0.183	0.811	-3.426	C.2	1	UNK0	0.000	
11	   O	0.498	2.070	-3.556	O.2	1	UNK0	0.000	
12	   N	-0.931	0.545	-2.646	N.pl3	1	UNK0	0.000	
13	   C	-1.638	1.709	-2.029	C.3	1	UNK0	0.000	
14	   C	-2.001	1.276	-0.631	C.3	1	UNK0	0.000	
15	   N	-1.198	0.166	-0.151	N.pl3	1	UNK0	0.000	
16	   C	-1.288	-1.073	-0.876	C.3	1	UNK0	0.000	
17	   C	-1.547	-0.717	-2.331	C.3	1	UNK0	0.000	
18	   C	-0.370	0.327	0.980	C.2	1	UNK0	0.000	
19	   N	-0.181	1.550	1.549	N.2	1	UNK0	0.000	
20	   C	0.584	1.751	2.613	C.2	1	UNK0	0.000	
21	   N	1.204	0.668	3.149	N.2	1	UNK0	0.000	
22	   C	1.070	-0.549	2.654	C.2	1	UNK0	0.000	
23	   C	0.266	-0.753	1.537	C.2	1	UNK0	0.000	
24	   N	0.791	3.016	3.216	N.pl3	1	UNK0	0.000	
25	   C	0.133	4.198	2.670	C.3	1	UNK0	0.000	
26	   C	1.258	5.212	2.441	C.3	1	UNK0	0.000	
27	   O	1.878	5.502	3.627	O.3	1	UNK0	0.000	
28	   C	2.515	4.440	4.223	C.3	1	UNK0	0.000	
29	   C	1.636	3.218	4.367	C.3	1	UNK0	0.000	
30	   H	1.053	-5.365	-1.931	 H	1	UNK0	0.000	
31	   H	1.241	-2.881	-1.967	 H	1	UNK0	0.000	
32	   H	0.558	-2.878	-6.131	 H	1	UNK0	0.000	
33	   H	0.381	-5.360	-6.072	 H	1	UNK0	0.000	
34	   H	1.024	0.285	-5.245	 H	1	UNK0	0.000	
35	   H	2.144	0.315	-3.903	 H	1	UNK0	0.000	
36	   H	-2.545	1.838	-2.653	 H	1	UNK0	0.000	
37	   H	-0.969	2.597	-2.041	 H	1	UNK0	0.000	
38	   H	-3.058	0.875	-0.658	 H	1	UNK0	0.000	
39	   H	-1.939	2.119	0.107	 H	1	UNK0	0.000	
40	   H	-0.433	-1.743	-0.761	 H	1	UNK0	0.000	
41	   H	-2.172	-1.655	-0.479	 H	1	UNK0	0.000	
42	   H	-2.673	-0.533	-2.363	 H	1	UNK0	0.000	
43	   H	-1.390	-1.524	-3.034	 H	1	UNK0	0.000	
44	   H	1.579	-1.408	3.102	 H	1	UNK0	0.000	
45	   H	0.157	-1.760	1.137	 H	1	UNK0	0.000	
46	   H	-0.378	3.981	1.714	 H	1	UNK0	0.000	
47	   H	-0.523	4.594	3.444	 H	1	UNK0	0.000	
48	   H	1.944	4.774	1.678	 H	1	UNK0	0.000	
49	   H	0.802	6.113	2.029	 H	1	UNK0	0.000	
50	   H	3.448	4.137	3.699	 H	1	UNK0	0.000	
51	   H	2.812	4.749	5.247	 H	1	UNK0	0.000	
52	   H	2.315	2.352	4.514	 H	1	UNK0	0.000	
53	   H	1.024	3.315	5.279	 H	1	UNK0	0.000	
@<TRIPOS>BOND
1 1 2 1
2 2 3 2
3 2 7 1
4 3 4 1
5 4 5 2
6 5 6 1
7 5 8 1
8 6 7 2
9 8 9 1
10 9 10 1
11 10 11 2
12 10 12 1
13 12 13 1
14 12 17 1
15 13 14 1
16 14 15 1
17 15 16 1
18 15 18 1
19 16 17 1
20 18 19 2
21 18 23 1
22 19 20 1
23 20 21 2
24 20 24 1
25 21 22 1
26 22 23 2
27 24 25 1
28 24 29 1
29 25 26 1
30 26 27 1
31 27 28 1
32 28 29 1
33 3 30 1
34 4 31 1
35 6 32 1
36 7 33 1
37 9 34 1
38 9 35 1
39 13 36 1
40 13 37 1
41 14 38 1
42 14 39 1
43 16 40 1
44 16 41 1
45 17 42 1
46 17 43 1
47 22 44 1
48 23 45 1
49 25 46 1
50 25 47 1
51 26 48 1
52 26 49 1
53 28 50 1
54 28 51 1
55 29 52 1
56 29 53 1
@<TRIPOS>SUBSTRUCTURE
1	UNK0	1	GROUP	1 ****	UNK
