REMARK  5 active torsions:
REMARK  status: ('A' for Active; 'I' for Inactive)
REMARK    1  A    between atoms: C_5  and  O_8 
REMARK    2  A    between atoms: O_8  and  C_9 
REMARK    3  A    between atoms: C_9  and  C_10 
REMARK       I    between atoms: C_10  and  N_12 
REMARK    4  A    between atoms: N_15  and  C_18 
REMARK    5  A    between atoms: C_20  and  N_24 
ROOT
ATOM      1  C   UNK d   1       0.183   0.811  -3.426  0.00  0.00     0.177 C 
ATOM      2  O   UNK d   1       0.498   2.070  -3.556  0.00  0.00    -0.175 OA
ATOM      3  N   UNK d   1      -0.931   0.545  -2.646  0.00  0.00    -0.358 N 
ATOM      4  C   UNK d   1      -1.638   1.709  -2.029  0.00  0.00     0.144 C 
ATOM      5  C   UNK d   1      -2.001   1.276  -0.631  0.00  0.00     0.144 C 
ATOM      6  N   UNK d   1      -1.198   0.166  -0.151  0.00  0.00    -0.362 N 
ATOM      7  C   UNK d   1      -1.288  -1.073  -0.876  0.00  0.00     0.144 C 
ATOM      8  C   UNK d   1      -1.547  -0.717  -2.331  0.00  0.00     0.144 C 
ENDROOT
BRANCH   6   9
ATOM      9  C   UNK d   1      -0.370   0.327   0.980  0.00  0.00     0.146 A 
ATOM     10  N   UNK d   1      -0.181   1.550   1.549  0.00  0.00    -0.045 NA
ATOM     11  C   UNK d   1       0.584   1.751   2.613  0.00  0.00     0.726 A 
ATOM     12  N   UNK d   1       1.204   0.668   3.149  0.00  0.00    -0.075 NA
ATOM     13  C   UNK d   1       1.070  -0.549   2.654  0.00  0.00     0.140 A 
ATOM     14  C   UNK d   1       0.266  -0.753   1.537  0.00  0.00     0.071 A 
BRANCH  11  15
ATOM     15  N   UNK d   1       0.791   3.016   3.216  0.00  0.00    -0.210 N 
ATOM     16  C   UNK d   1       0.133   4.198   2.670  0.00  0.00     0.167 C 
ATOM     17  C   UNK d   1       1.258   5.212   2.441  0.00  0.00     0.188 C 
ATOM     18  O   UNK d   1       1.878   5.502   3.627  0.00  0.00    -0.388 OA
ATOM     19  C   UNK d   1       2.515   4.440   4.223  0.00  0.00     0.188 C 
ATOM     20  C   UNK d   1       1.636   3.218   4.367  0.00  0.00     0.167 C 
ENDBRANCH  11  15
ENDBRANCH   6   9
BRANCH   1  21
ATOM     21  C   UNK d   1       1.086  -0.107  -4.147  0.00  0.00     0.262 C 
BRANCH  21  22
ATOM     22  O   UNK d   1       0.996  -1.388  -4.117  0.00  0.00    -0.343 OA
BRANCH  22  23
ATOM     23  C   UNK d   1       0.911  -2.677  -4.047  0.00  0.00     0.069 A 
ATOM     24  C   UNK d   1       1.049  -3.424  -2.857  0.00  0.00     0.038 A 
ATOM     25  C   UNK d   1       0.947  -4.782  -2.849  0.00  0.00     0.026 A 
ATOM     26  C   UNK d   1       0.707  -5.509  -3.992  0.00  0.00     0.034 A 
ATOM     27 Cl   UNK d   1       0.581  -7.250  -3.964  0.00  0.00    -0.084 Cl
ATOM     28  C   UNK d   1       0.570  -4.799  -5.163  0.00  0.00     0.026 A 
ATOM     29  C   UNK d   1       0.665  -3.440  -5.208  0.00  0.00     0.038 A 
ENDBRANCH  22  23
ENDBRANCH  21  22
ENDBRANCH   1  21
TORSDOF 5
