# created with PyMOL 2.3.2
@<TRIPOS>MOLECULE
2231
45 49 1                 
SMALL
USER_CHARGES
@<TRIPOS>ATOM
1	  Cl	0.098	-5.017	-8.044	Cl	1	UNK0	0.000	
2	   C	0.117	-4.242	-6.490	C.2	1	UNK0	0.000	
3	   C	-1.059	-4.042	-5.812	C.2	1	UNK0	0.000	
4	   C	-1.049	-3.427	-4.580	C.2	1	UNK0	0.000	
5	   C	0.119	-2.999	-3.993	C.2	1	UNK0	0.000	
6	   C	1.283	-3.213	-4.697	C.2	1	UNK0	0.000	
7	   C	1.293	-3.828	-5.935	C.2	1	UNK0	0.000	
8	   N	0.192	-2.361	-2.727	N.pl3	1	UNK0	0.000	
9	   N	-0.377	-2.745	-1.598	N.2	1	UNK0	0.000	
10	   N	-0.103	-1.919	-0.607	N.2	1	UNK0	0.000	
11	   C	0.682	-0.928	-1.063	C.2	1	UNK0	0.000	
12	   C	0.857	-1.224	-2.400	C.2	1	UNK0	0.000	
13	   N	1.620	-0.384	-3.135	N.2	1	UNK0	0.000	
14	   C	2.172	0.693	-2.546	C.2	1	UNK0	0.000	
15	   N	1.997	0.978	-1.232	N.2	1	UNK0	0.000	
16	   C	1.247	0.175	-0.455	C.2	1	UNK0	0.000	
17	   N	1.051	0.460	0.930	N.pl3	1	UNK0	0.000	
18	   C	-0.319	0.664	1.361	C.3	1	UNK0	0.000	
19	   C	-0.471	0.367	2.851	C.3	1	UNK0	0.000	
20	   N	0.678	0.768	3.580	N.pl3	1	UNK0	0.000	
21	   C	1.912	0.025	3.178	C.3	1	UNK0	0.000	
22	   C	2.203	0.521	1.774	C.3	1	UNK0	0.000	
23	   C	0.736	1.739	4.565	C.2	1	UNK0	0.000	
24	   O	1.940	1.911	5.084	O.2	1	UNK0	0.000	
25	   C	-0.265	2.618	5.150	C.3	1	UNK0	0.000	
26	   C	-1.259	3.259	4.258	C.3	1	UNK0	0.000	
27	   C	-1.678	2.333	5.376	C.3	1	UNK0	0.000	
28	   H	-1.986	-4.386	-6.288	 H	1	UNK0	0.000	
29	   H	-1.991	-3.286	-4.076	 H	1	UNK0	0.000	
30	   H	2.225	-2.884	-4.255	 H	1	UNK0	0.000	
31	   H	2.265	-3.959	-6.426	 H	1	UNK0	0.000	
32	   H	2.790	1.369	-3.152	 H	1	UNK0	0.000	
33	   H	-0.652	1.682	1.095	 H	1	UNK0	0.000	
34	   H	-0.988	-0.043	0.832	 H	1	UNK0	0.000	
35	   H	-0.492	-0.777	2.938	 H	1	UNK0	0.000	
36	   H	-1.446	0.679	3.158	 H	1	UNK0	0.000	
37	   H	2.733	0.242	3.857	 H	1	UNK0	0.000	
38	   H	1.648	-1.031	3.117	 H	1	UNK0	0.000	
39	   H	2.616	1.554	1.897	 H	1	UNK0	0.000	
40	   H	3.029	-0.106	1.376	 H	1	UNK0	0.000	
41	   H	0.181	3.333	5.945	 H	1	UNK0	0.000	
42	   H	-1.344	2.975	3.199	 H	1	UNK0	0.000	
43	   H	-1.521	4.341	4.397	 H	1	UNK0	0.000	
44	   H	-2.162	2.838	6.280	 H	1	UNK0	0.000	
45	   H	-2.240	1.456	5.091	 H	1	UNK0	0.000	
@<TRIPOS>BOND
1 1 2 1
2 2 3 2
3 2 7 1
4 3 4 1
5 4 5 2
6 5 6 1
7 5 8 1
8 6 7 2
9 8 9 1
10 8 12 1
11 9 10 2
12 10 11 1
13 11 12 2
14 11 16 1
15 12 13 1
16 13 14 2
17 14 15 1
18 15 16 2
19 16 17 1
20 17 18 1
21 17 22 1
22 18 19 1
23 19 20 1
24 20 21 1
25 20 23 1
26 21 22 1
27 23 24 2
28 23 25 1
29 25 26 1
30 25 27 1
31 26 27 1
32 3 28 1
33 4 29 1
34 6 30 1
35 7 31 1
36 14 32 1
37 18 33 1
38 18 34 1
39 19 35 1
40 19 36 1
41 21 37 1
42 21 38 1
43 22 39 1
44 22 40 1
45 25 41 1
46 26 42 1
47 26 43 1
48 27 44 1
49 27 45 1
@<TRIPOS>SUBSTRUCTURE
1	UNK0	1	GROUP	1 ****	UNK
