REMARK  3 active torsions:
REMARK  status: ('A' for Active; 'I' for Inactive)
REMARK    1  A    between atoms: C_5  and  N_8 
REMARK    2  A    between atoms: C_16  and  N_17 
REMARK       I    between atoms: N_20  and  C_23 
REMARK    3  A    between atoms: C_23  and  C_25 
ROOT
ATOM      1  N   UNK d   1       0.192  -2.361  -2.727  0.00  0.00    -0.195 N 
ATOM      2  N   UNK d   1      -0.377  -2.745  -1.598  0.00  0.00    -0.058 NA
ATOM      3  N   UNK d   1      -0.103  -1.919  -0.607  0.00  0.00    -0.124 NA
ATOM      4  C   UNK d   1       0.682  -0.928  -1.063  0.00  0.00     0.174 A 
ATOM      5  C   UNK d   1       0.857  -1.224  -2.400  0.00  0.00     0.188 A 
ATOM      6  N   UNK d   1       1.620  -0.384  -3.135  0.00  0.00    -0.220 NA
ATOM      7  C   UNK d   1       2.172   0.693  -2.546  0.00  0.00     0.237 A 
ATOM      8  N   UNK d   1       1.997   0.978  -1.232  0.00  0.00    -0.222 NA
ATOM      9  C   UNK d   1       1.247   0.175  -0.455  0.00  0.00     0.162 A 
ENDROOT
BRANCH   9  10
ATOM     10  N   UNK d   1       1.051   0.460   0.930  0.00  0.00    -0.361 N 
ATOM     11  C   UNK d   1      -0.319   0.664   1.361  0.00  0.00     0.144 C 
ATOM     12  C   UNK d   1      -0.471   0.367   2.851  0.00  0.00     0.144 C 
ATOM     13  N   UNK d   1       0.678   0.768   3.580  0.00  0.00    -0.360 N 
ATOM     14  C   UNK d   1       1.912   0.025   3.178  0.00  0.00     0.144 C 
ATOM     15  C   UNK d   1       0.736   1.739   4.565  0.00  0.00     0.157 C 
ATOM     16  C   UNK d   1       2.203   0.521   1.774  0.00  0.00     0.144 C 
ATOM     17  O   UNK d   1       1.940   1.911   5.084  0.00  0.00    -0.177 OA
BRANCH  15  18
ATOM     18  C   UNK d   1      -0.265   2.618   5.150  0.00  0.00     0.063 A 
ATOM     19  C   UNK d   1      -1.259   3.259   4.258  0.00  0.00     0.013 A 
ATOM     20  C   UNK d   1      -1.678   2.333   5.376  0.00  0.00     0.013 A 
ENDBRANCH  15  18
ENDBRANCH   9  10
BRANCH   1  21
ATOM     21  C   UNK d   1       0.119  -2.999  -3.993  0.00  0.00     0.062 A 
ATOM     22  C   UNK d   1      -1.049  -3.427  -4.580  0.00  0.00     0.033 A 
ATOM     23  C   UNK d   1      -1.059  -4.042  -5.812  0.00  0.00     0.026 A 
ATOM     24  C   UNK d   1       0.117  -4.242  -6.490  0.00  0.00     0.034 A 
ATOM     25 Cl   UNK d   1       0.098  -5.017  -8.044  0.00  0.00    -0.084 Cl
ATOM     26  C   UNK d   1       1.293  -3.828  -5.935  0.00  0.00     0.026 A 
ATOM     27  C   UNK d   1       1.283  -3.213  -4.697  0.00  0.00     0.033 A 
ENDBRANCH   1  21
TORSDOF 3
