# created with PyMOL 2.3.2
@<TRIPOS>MOLECULE
2242
45 48 1                 
SMALL
USER_CHARGES
@<TRIPOS>ATOM
1	  Cl	-0.399	2.845	2.233	Cl	1	UNK0	0.000	
2	   C	0.835	2.015	3.156	C.2	1	UNK0	0.000	
3	   C	1.231	2.555	4.347	C.2	1	UNK0	0.000	
4	   C	2.189	1.964	5.122	C.2	1	UNK0	0.000	
5	   C	2.754	0.800	4.673	C.2	1	UNK0	0.000	
6	   C	2.343	0.249	3.447	C.2	1	UNK0	0.000	
7	   C	1.387	0.830	2.662	C.2	1	UNK0	0.000	
8	   N	0.911	0.349	1.436	N.pl3	1	UNK0	0.000	
9	   C	1.368	-0.805	0.795	C.2	1	UNK0	0.000	
10	   O	2.260	-1.529	1.260	O.2	1	UNK0	0.000	
11	   C	0.785	-1.226	-0.509	C.2	1	UNK0	0.000	
12	   N	-0.154	-0.501	-1.033	N.2	1	UNK0	0.000	
13	   N	-0.753	-0.824	-2.249	N.pl3	1	UNK0	0.000	
14	   C	-0.324	-1.978	-2.936	C.2	1	UNK0	0.000	
15	   O	-0.839	-2.185	-4.087	O.2	1	UNK0	0.000	
16	   C	0.669	-2.917	-2.376	C.3	1	UNK0	0.000	
17	   N	1.232	-2.391	-1.182	N.pl3	1	UNK0	0.000	
18	   C	-1.803	0.007	-2.801	C.2	1	UNK0	0.000	
19	   C	-1.518	1.124	-3.548	C.2	1	UNK0	0.000	
20	   C	-2.550	1.908	-4.074	C.2	1	UNK0	0.000	
21	   C	-3.872	1.579	-3.853	C.2	1	UNK0	0.000	
22	   C	-4.141	0.458	-3.102	C.2	1	UNK0	0.000	
23	   C	-3.130	-0.302	-2.593	C.2	1	UNK0	0.000	
24	   C	-5.010	2.380	-4.395	C.3	1	UNK0	0.000	
25	   O	3.737	0.134	5.400	O.3	1	UNK0	0.000	
26	   C	3.961	0.387	6.795	C.3	1	UNK0	0.000	
27	   C	3.613	1.803	7.115	C.2	1	UNK0	0.000	
28	   O	4.222	2.369	8.052	O.2	1	UNK0	0.000	
29	   N	2.615	2.503	6.379	N.pl3	1	UNK0	0.000	
30	   H	0.802	3.489	4.744	 H	1	UNK0	0.000	
31	   H	2.814	-0.672	3.129	 H	1	UNK0	0.000	
32	   H	0.139	0.911	0.956	 H	1	UNK0	0.000	
33	   H	0.131	-3.867	-2.087	 H	1	UNK0	0.000	
34	   H	1.429	-3.193	-3.137	 H	1	UNK0	0.000	
35	   H	2.047	-2.896	-0.746	 H	1	UNK0	0.000	
36	   H	-0.482	1.385	-3.724	 H	1	UNK0	0.000	
37	   H	-2.323	2.773	-4.654	 H	1	UNK0	0.000	
38	   H	-5.198	0.203	-2.931	 H	1	UNK0	0.000	
39	   H	-3.385	-1.181	-2.006	 H	1	UNK0	0.000	
40	   H	-5.781	2.575	-3.629	 H	1	UNK0	0.000	
41	   H	-4.686	3.335	-4.820	 H	1	UNK0	0.000	
42	   H	-5.491	1.796	-5.221	 H	1	UNK0	0.000	
43	   H	3.219	-0.259	7.335	 H	1	UNK0	0.000	
44	   H	4.990	0.131	7.074	 H	1	UNK0	0.000	
45	   H	2.205	3.385	6.744	 H	1	UNK0	0.000	
@<TRIPOS>BOND
1 1 2 1
2 2 3 2
3 2 7 1
4 3 4 1
5 4 5 2
6 4 29 1
7 5 6 1
8 5 25 1
9 6 7 2
10 7 8 1
11 8 9 1
12 9 10 2
13 9 11 1
14 11 12 2
15 11 17 1
16 12 13 1
17 13 14 1
18 13 18 1
19 14 15 2
20 14 16 1
21 16 17 1
22 18 19 2
23 18 23 1
24 19 20 1
25 20 21 2
26 21 22 1
27 21 24 1
28 22 23 2
29 25 26 1
30 26 27 1
31 27 28 2
32 27 29 1
33 3 30 1
34 6 31 1
35 8 32 1
36 16 33 1
37 16 34 1
38 17 35 1
39 19 36 1
40 20 37 1
41 22 38 1
42 23 39 1
43 24 40 1
44 24 41 1
45 24 42 1
46 26 43 1
47 26 44 1
48 29 45 1
@<TRIPOS>SUBSTRUCTURE
1	UNK0	1	GROUP	1 ****	UNK
