REMARK  3 active torsions:
REMARK  status: ('A' for Active; 'I' for Inactive)
REMARK    1  A    between atoms: C_7  and  N_8 
REMARK       I    between atoms: N_8  and  C_9 
REMARK    2  A    between atoms: C_9  and  C_11 
REMARK    3  A    between atoms: N_13  and  C_18 
ROOT
ATOM      1  N   UNK d   1       0.911   0.349   1.436  0.00  0.00    -0.319 N 
ATOM      2  C   UNK d   1       1.368  -0.805   0.795  0.00  0.00     0.293 C 
ATOM      3  O   UNK d   1       2.260  -1.529   1.260  0.00  0.00    -0.264 OA
ATOM      4  H   UNK d   1       0.139   0.911   0.956  0.00  0.00     0.169 HD
ENDROOT
BRANCH   2   5
ATOM      5  C   UNK d   1       0.785  -1.226  -0.509  0.00  0.00     0.213 C 
ATOM      6  N   UNK d   1      -0.154  -0.501  -1.033  0.00  0.00    -0.141 NA
ATOM      7  N   UNK d   1      -0.753  -0.824  -2.249  0.00  0.00    -0.198 N 
ATOM      8  C   UNK d   1      -0.324  -1.978  -2.936  0.00  0.00     0.262 C 
ATOM      9  O   UNK d   1      -0.839  -2.185  -4.087  0.00  0.00    -0.269 OA
ATOM     10  C   UNK d   1       0.669  -2.917  -2.376  0.00  0.00     0.226 C 
ATOM     11  N   UNK d   1       1.232  -2.391  -1.182  0.00  0.00    -0.360 N 
ATOM     12  H   UNK d   1       2.047  -2.896  -0.746  0.00  0.00     0.161 HD
BRANCH   7  13
ATOM     13  C   UNK d   1      -1.803   0.007  -2.801  0.00  0.00     0.062 A 
ATOM     14  C   UNK d   1      -1.518   1.124  -3.548  0.00  0.00     0.032 A 
ATOM     15  C   UNK d   1      -2.550   1.908  -4.074  0.00  0.00     0.009 A 
ATOM     16  C   UNK d   1      -3.872   1.579  -3.853  0.00  0.00    -0.062 A 
ATOM     17  C   UNK d   1      -4.141   0.458  -3.102  0.00  0.00     0.009 A 
ATOM     18  C   UNK d   1      -5.010   2.380  -4.395  0.00  0.00     0.048 C 
ATOM     19  C   UNK d   1      -3.130  -0.302  -2.593  0.00  0.00     0.032 A 
ENDBRANCH   7  13
ENDBRANCH   2   5
BRANCH   1  20
ATOM     20  C   UNK d   1       1.387   0.830   2.662  0.00  0.00     0.059 A 
ATOM     21  C   UNK d   1       0.835   2.015   3.156  0.00  0.00     0.063 A 
ATOM     22 Cl   UNK d   1      -0.399   2.845   2.233  0.00  0.00    -0.082 Cl
ATOM     23  C   UNK d   1       1.231   2.555   4.347  0.00  0.00     0.058 A 
ATOM     24  C   UNK d   1       2.189   1.964   5.122  0.00  0.00     0.070 A 
ATOM     25  C   UNK d   1       2.754   0.800   4.673  0.00  0.00     0.098 A 
ATOM     26  N   UNK d   1       2.615   2.503   6.379  0.00  0.00    -0.323 N 
ATOM     27  C   UNK d   1       2.343   0.249   3.447  0.00  0.00     0.070 A 
ATOM     28  O   UNK d   1       3.737   0.134   5.400  0.00  0.00    -0.340 OA
ATOM     29  C   UNK d   1       3.961   0.387   6.795  0.00  0.00     0.278 C 
ATOM     30  C   UNK d   1       3.613   1.803   7.115  0.00  0.00     0.246 C 
ATOM     31  O   UNK d   1       4.222   2.369   8.052  0.00  0.00    -0.271 OA
ATOM     32  H   UNK d   1       2.205   3.385   6.744  0.00  0.00     0.169 HD
ENDBRANCH   1  20
TORSDOF 3
