REMARK  3 active torsions:
REMARK  status: ('A' for Active; 'I' for Inactive)
REMARK    1  A    between atoms: S_1  and  N_4 
REMARK    2  A    between atoms: S_1  and  C_18 
REMARK    3  A    between atoms: C_19  and  O_25 
ROOT
ATOM      1  N   UNK d   1      -0.744   2.253   0.724  0.00  0.00    -0.301 N 
ATOM      2  C   UNK d   1      -0.178   2.721  -0.477  0.00  0.00     0.140 C 
ATOM      3  C   UNK d   1       1.338   2.726  -0.481  0.00  0.00     0.067 C 
ATOM      4  C   UNK d   1       1.755   1.349  -0.080  0.00  0.00     0.040 A 
ATOM      5  C   UNK d   1       1.116   0.805   1.015  0.00  0.00     0.067 A 
ATOM      6  N   UNK d   1       1.443  -0.421   1.424  0.00  0.00    -0.231 NA
ATOM      7  C   UNK d   1       2.396  -1.090   0.744  0.00  0.00     0.154 A 
ATOM      8  N   UNK d   1       3.033  -0.583  -0.326  0.00  0.00    -0.202 N 
ATOM      9  N   UNK d   1       3.928  -1.472  -0.796  0.00  0.00    -0.301 N 
ATOM     10  C   UNK d   1       3.904  -2.586  -0.050  0.00  0.00     0.112 A 
ATOM     11  C   UNK d   1       2.952  -2.365   0.917  0.00  0.00     0.071 A 
ATOM     12  C   UNK d   1       2.727   0.657  -0.768  0.00  0.00     0.276 A 
ATOM     13  O   UNK d   1       3.288   1.185  -1.762  0.00  0.00    -0.266 OA
ATOM     14  C   UNK d   1       0.087   1.642   1.677  0.00  0.00     0.195 C 
ATOM     15  H   UNK d   1       4.539  -1.292  -1.625  0.00  0.00     0.186 HD
ENDROOT
BRANCH   1  16
ATOM     16  S   UNK d   1      -2.392   1.941   0.750  0.00  0.00     0.264 S 
ATOM     17  O   UNK d   1      -2.879   1.572   2.144  0.00  0.00    -0.200 OA
ATOM     18  O   UNK d   1      -3.120   3.243   0.431  0.00  0.00    -0.200 OA
BRANCH  16  19
ATOM     19  C   UNK d   1      -2.966   0.726  -0.326  0.00  0.00     0.114 A 
ATOM     20  C   UNK d   1      -2.508  -0.586  -0.230  0.00  0.00     0.091 A 
ATOM     21  C   UNK d   1      -2.986  -1.533  -1.109  0.00  0.00     0.040 A 
ATOM     22  C   UNK d   1      -3.894  -1.235  -2.072  0.00  0.00     0.026 A 
ATOM     23  C   UNK d   1      -4.363   0.043  -2.192  0.00  0.00     0.035 A 
ATOM     24  C   UNK d   1      -3.885   0.992  -1.313  0.00  0.00     0.052 A 
ATOM     25 Cl   UNK d   1      -5.546   0.459  -3.437  0.00  0.00    -0.084 Cl
BRANCH  20  26
ATOM     26  O   UNK d   1      -1.589  -0.972   0.717  0.00  0.00    -0.354 OA
ATOM     27  C   UNK d   1      -1.169  -2.317   0.757  0.00  0.00     0.210 C 
ENDBRANCH  20  26
ENDBRANCH  16  19
ENDBRANCH   1  16
TORSDOF 3
