# created with PyMOL 2.3.2
@<TRIPOS>MOLECULE
2267
41 44 1                 
SMALL
USER_CHARGES
@<TRIPOS>ATOM
1	   S	1.831	-2.126	1.068	S.O2	1	UNK0	0.000	
2	   O	2.320	-1.355	2.273	O.2	1	UNK0	0.000	
3	   O	2.763	-3.288	0.892	O.2	1	UNK0	0.000	
4	   N	0.265	-2.636	1.333	N.3	1	UNK0	0.000	
5	   C	-0.383	-3.392	0.358	C.3	1	UNK0	0.000	
6	   C	-1.857	-3.086	0.231	C.3	1	UNK0	0.000	
7	   C	-2.211	-1.703	0.627	C.2	1	UNK0	0.000	
8	   C	-1.520	-1.162	1.684	C.2	1	UNK0	0.000	
9	   N	-1.773	0.080	2.113	N.2	1	UNK0	0.000	
10	   C	-2.740	0.825	1.484	C.2	1	UNK0	0.000	
11	   N	-3.408	0.277	0.448	N.pl3	1	UNK0	0.000	
12	   N	-4.281	1.192	0.018	N.pl3	1	UNK0	0.000	
13	   C	-4.186	2.297	0.747	C.2	1	UNK0	0.000	
14	   C	-3.198	2.105	1.711	C.2	1	UNK0	0.000	
15	   C	-3.196	-0.959	-0.022	C.2	1	UNK0	0.000	
16	   O	-3.818	-1.467	-0.986	O.2	1	UNK0	0.000	
17	   C	-0.486	-1.981	2.338	C.3	1	UNK0	0.000	
18	   C	2.027	-1.071	-0.314	C.2	1	UNK0	0.000	
19	   C	2.297	-1.543	-1.587	C.2	1	UNK0	0.000	
20	   C	2.443	-0.660	-2.646	C.2	1	UNK0	0.000	
21	   C	2.328	0.702	-2.489	C.2	1	UNK0	0.000	
22	   C	2.059	1.173	-1.222	C.2	1	UNK0	0.000	
23	   C	1.914	0.296	-0.170	C.2	1	UNK0	0.000	
24	   O	2.479	1.578	-3.576	O.3	1	UNK0	0.000	
25	   C	2.354	2.973	-3.374	C.3	1	UNK0	0.000	
26	  Cl	2.785	-1.275	-4.251	Cl	1	UNK0	0.000	
27	   H	0.124	-3.340	-0.641	 H	1	UNK0	0.000	
28	   H	-0.329	-4.482	0.657	 H	1	UNK0	0.000	
29	   H	-2.247	-3.346	-0.775	 H	1	UNK0	0.000	
30	   H	-2.440	-3.752	0.934	 H	1	UNK0	0.000	
31	   H	-4.949	1.070	-0.777	 H	1	UNK0	0.000	
32	   H	-4.751	3.200	0.645	 H	1	UNK0	0.000	
33	   H	-2.896	2.817	2.443	 H	1	UNK0	0.000	
34	   H	0.189	-1.405	2.981	 H	1	UNK0	0.000	
35	   H	-1.037	-2.774	2.924	 H	1	UNK0	0.000	
36	   H	2.385	-2.617	-1.700	 H	1	UNK0	0.000	
37	   H	1.965	2.259	-1.083	 H	1	UNK0	0.000	
38	   H	1.702	0.690	0.823	 H	1	UNK0	0.000	
39	   H	3.045	3.225	-2.519	 H	1	UNK0	0.000	
40	   H	2.781	3.524	-4.244	 H	1	UNK0	0.000	
41	   H	1.318	3.274	-3.158	 H	1	UNK0	0.000	
@<TRIPOS>BOND
1 1 2 2
2 1 3 2
3 1 4 1
4 1 18 1
5 4 5 1
6 4 17 1
7 5 6 1
8 6 7 1
9 7 8 2
10 7 15 1
11 8 9 1
12 8 17 1
13 9 10 2
14 10 11 1
15 10 14 1
16 11 12 1
17 11 15 1
18 12 13 1
19 13 14 2
20 15 16 2
21 18 19 2
22 18 23 1
23 19 20 1
24 20 21 2
25 20 26 1
26 21 22 1
27 21 24 1
28 22 23 2
29 24 25 1
30 5 27 1
31 5 28 1
32 6 29 1
33 6 30 1
34 12 31 1
35 13 32 1
36 14 33 1
37 17 34 1
38 17 35 1
39 19 36 1
40 22 37 1
41 23 38 1
42 25 39 1
43 25 40 1
44 25 41 1
@<TRIPOS>SUBSTRUCTURE
1	UNK0	1	GROUP	1 ****	UNK
