REMARK  3 active torsions:
REMARK  status: ('A' for Active; 'I' for Inactive)
REMARK    1  A    between atoms: S_1  and  N_4 
REMARK    2  A    between atoms: S_1  and  C_18 
REMARK    3  A    between atoms: C_21  and  O_24 
ROOT
ATOM      1  N   UNK d   1       0.265  -2.636   1.333  0.00  0.00    -0.301 N 
ATOM      2  C   UNK d   1      -0.383  -3.392   0.358  0.00  0.00     0.140 C 
ATOM      3  C   UNK d   1      -1.857  -3.086   0.231  0.00  0.00     0.067 C 
ATOM      4  C   UNK d   1      -2.211  -1.703   0.627  0.00  0.00     0.040 A 
ATOM      5  C   UNK d   1      -1.520  -1.162   1.684  0.00  0.00     0.067 A 
ATOM      6  N   UNK d   1      -1.773   0.080   2.113  0.00  0.00    -0.231 NA
ATOM      7  C   UNK d   1      -2.740   0.825   1.484  0.00  0.00     0.154 A 
ATOM      8  N   UNK d   1      -3.408   0.277   0.448  0.00  0.00    -0.202 N 
ATOM      9  N   UNK d   1      -4.281   1.192   0.018  0.00  0.00    -0.301 N 
ATOM     10  C   UNK d   1      -4.186   2.297   0.747  0.00  0.00     0.112 A 
ATOM     11  C   UNK d   1      -3.198   2.105   1.711  0.00  0.00     0.071 A 
ATOM     12  C   UNK d   1      -3.196  -0.959  -0.022  0.00  0.00     0.276 A 
ATOM     13  O   UNK d   1      -3.818  -1.467  -0.986  0.00  0.00    -0.266 OA
ATOM     14  C   UNK d   1      -0.486  -1.981   2.338  0.00  0.00     0.195 C 
ATOM     15  H   UNK d   1      -4.949   1.070  -0.777  0.00  0.00     0.186 HD
ENDROOT
BRANCH   1  16
ATOM     16  S   UNK d   1       1.831  -2.126   1.068  0.00  0.00     0.261 S 
ATOM     17  O   UNK d   1       2.320  -1.355   2.273  0.00  0.00    -0.200 OA
ATOM     18  O   UNK d   1       2.763  -3.288   0.892  0.00  0.00    -0.200 OA
BRANCH  16  19
ATOM     19  C   UNK d   1       2.027  -1.071  -0.314  0.00  0.00     0.081 A 
ATOM     20  C   UNK d   1       2.297  -1.543  -1.587  0.00  0.00     0.052 A 
ATOM     21  C   UNK d   1       2.443  -0.660  -2.646  0.00  0.00     0.068 A 
ATOM     22  C   UNK d   1       2.328   0.702  -2.489  0.00  0.00     0.089 A 
ATOM     23 Cl   UNK d   1       2.785  -1.275  -4.251  0.00  0.00    -0.081 Cl
ATOM     24  C   UNK d   1       2.059   1.173  -1.222  0.00  0.00     0.040 A 
ATOM     25  C   UNK d   1       1.914   0.296  -0.170  0.00  0.00     0.028 A 
BRANCH  22  26
ATOM     26  O   UNK d   1       2.479   1.578  -3.576  0.00  0.00    -0.354 OA
ATOM     27  C   UNK d   1       2.354   2.973  -3.374  0.00  0.00     0.210 C 
ENDBRANCH  22  26
ENDBRANCH  16  19
ENDBRANCH   1  16
TORSDOF 3
