REMARK  4 active torsions:
REMARK  status: ('A' for Active; 'I' for Inactive)
REMARK    1  A    between atoms: C_3  and  O_20 
REMARK    2  A    between atoms: C_5  and  C_8 
REMARK       I    between atoms: C_8  and  N_10 
REMARK    3  A    between atoms: N_10  and  C_11 
REMARK    4  A    between atoms: C_11  and  C_12 
ROOT
ATOM      1  C   UNK d   1       0.646  -0.889  -0.197  0.00  0.00     0.251 C 
ATOM      2  O   UNK d   1       1.475  -1.544   0.496  0.00  0.00    -0.268 OA
ATOM      3  N   UNK d   1      -0.220   0.079   0.398  0.00  0.00    -0.355 N 
ATOM      4  H   UNK d   1      -0.872   0.582  -0.203  0.00  0.00     0.162 HD
ENDROOT
BRANCH   1   5
ATOM      5  C   UNK d   1       0.576  -1.129  -1.616  0.00  0.00     0.034 A 
ATOM      6  C   UNK d   1       1.331  -2.187  -2.133  0.00  0.00     0.055 A 
ATOM      7  C   UNK d   1       1.350  -2.514  -3.470  0.00  0.00     0.090 A 
ATOM      8  C   UNK d   1       0.589  -1.765  -4.342  0.00  0.00     0.067 A 
ATOM      9 Cl   UNK d   1       0.597  -2.164  -6.058  0.00  0.00    -0.081 Cl
ATOM     10  C   UNK d   1      -0.167  -0.711  -3.850  0.00  0.00     0.028 A 
ATOM     11  C   UNK d   1      -0.174  -0.393  -2.487  0.00  0.00     0.019 A 
BRANCH   7  12
ATOM     12  O   UNK d   1       2.110  -3.570  -3.954  0.00  0.00    -0.354 OA
ATOM     13  C   UNK d   1       2.903  -4.363  -3.092  0.00  0.00     0.210 C 
ENDBRANCH   7  12
ENDBRANCH   1   5
BRANCH   3  14
ATOM     14  C   UNK d   1      -0.119   0.289   1.812  0.00  0.00     0.160 C 
BRANCH  14  15
ATOM     15  C   UNK d   1      -1.025   1.288   2.413  0.00  0.00     0.268 C 
ATOM     16  N   UNK d   1      -2.432   1.062   2.286  0.00  0.00     0.100 N 
ATOM     17  C   UNK d   1      -3.014   1.523   3.570  0.00  0.00     0.303 C 
ATOM     18  C   UNK d   1      -3.098   1.892   1.303  0.00  0.00     0.303 C 
ATOM     19  C   UNK d   1      -2.351   2.886   3.805  0.00  0.00     0.302 C 
ATOM     20  N   UNK d   1      -1.879   3.483   2.572  0.00  0.00     0.094 N 
ATOM     21  C   UNK d   1      -0.773   2.724   1.983  0.00  0.00     0.309 C 
ATOM     22  C   UNK d   1      -2.965   3.378   1.613  0.00  0.00     0.302 C 
ENDBRANCH  14  15
ENDBRANCH   3  14
TORSDOF 4
