# created with PyMOL 2.3.2
@<TRIPOS>MOLECULE
2271
47 50 1                 
SMALL
USER_CHARGES
@<TRIPOS>ATOM
1	  Cl	3.151	4.548	1.395	Cl	1	UNK0	0.000	
2	   C	1.713	3.579	1.196	C.2	1	UNK0	0.000	
3	   C	0.702	3.522	2.147	C.2	1	UNK0	0.000	
4	   C	-0.414	2.758	1.972	C.2	1	UNK0	0.000	
5	   C	-0.578	2.004	0.826	C.2	1	UNK0	0.000	
6	   C	0.417	2.056	-0.118	C.2	1	UNK0	0.000	
7	   C	1.549	2.832	0.062	C.2	1	UNK0	0.000	
8	   C	-1.786	1.221	0.662	C.3	1	UNK0	0.000	
9	   N	-1.799	-0.126	0.376	N.4	1	UNK0	0.000	
10	   C	-1.400	-0.219	-1.013	C.2	1	UNK0	0.000	
11	   C	-0.613	-0.978	-1.704	C.2	1	UNK0	0.000	
12	   C	-0.395	-0.836	-3.155	C.3	1	UNK0	0.000	
13	   C	-1.133	0.275	-3.813	C.3	1	UNK0	0.000	
14	   C	-2.337	0.747	-3.070	C.3	1	UNK0	0.000	
15	   N	-2.116	0.829	-1.642	N.pl3	1	UNK0	0.000	
16	   C	-2.474	1.797	-0.609	C.3	1	UNK0	0.000	
17	   C	-1.224	-1.103	1.174	C.2	1	UNK0	0.000	
18	   C	-0.538	-0.918	2.326	C.2	1	UNK0	0.000	
19	   C	-0.027	-2.009	3.027	C.2	1	UNK0	0.000	
20	   C	-0.190	-3.314	2.594	C.2	1	UNK0	0.000	
21	   C	-0.893	-3.471	1.418	C.2	1	UNK0	0.000	
22	   C	-1.407	-2.420	0.706	C.2	1	UNK0	0.000	
23	   O	0.335	-4.370	3.321	O.3	1	UNK0	0.000	
24	   C	0.156	-5.683	2.856	C.3	1	UNK0	0.000	
25	   O	-2.714	1.554	1.689	O.3	1	UNK0	0.000	
26	   H	0.858	4.130	3.047	 H	1	UNK0	0.000	
27	   H	-1.159	2.774	2.774	 H	1	UNK0	0.000	
28	   H	0.387	1.520	-1.053	 H	1	UNK0	0.000	
29	   H	2.341	2.869	-0.699	 H	1	UNK0	0.000	
30	   H	-2.845	-0.407	0.305	 H	1	UNK0	0.000	
31	   H	-0.047	-1.773	-1.232	 H	1	UNK0	0.000	
32	   H	-0.516	-1.815	-3.683	 H	1	UNK0	0.000	
33	   H	0.712	-0.624	-3.264	 H	1	UNK0	0.000	
34	   H	-1.462	-0.100	-4.825	 H	1	UNK0	0.000	
35	   H	-0.481	1.177	-3.983	 H	1	UNK0	0.000	
36	   H	-3.201	0.058	-3.296	 H	1	UNK0	0.000	
37	   H	-2.654	1.748	-3.421	 H	1	UNK0	0.000	
38	   H	-3.574	1.737	-0.484	 H	1	UNK0	0.000	
39	   H	-2.116	2.804	-0.834	 H	1	UNK0	0.000	
40	   H	-0.400	0.086	2.692	 H	1	UNK0	0.000	
41	   H	0.515	-1.790	3.947	 H	1	UNK0	0.000	
42	   H	-1.012	-4.511	1.094	 H	1	UNK0	0.000	
43	   H	-1.969	-2.621	-0.216	 H	1	UNK0	0.000	
44	   H	-0.907	-5.987	2.932	 H	1	UNK0	0.000	
45	   H	0.838	-6.398	3.364	 H	1	UNK0	0.000	
46	   H	0.422	-5.782	1.764	 H	1	UNK0	0.000	
47	   H	-3.605	1.306	1.331	 H	1	UNK0	0.000	
@<TRIPOS>BOND
1 1 2 1
2 2 3 2
3 2 7 1
4 3 4 1
5 4 5 2
6 5 6 1
7 5 8 1
8 6 7 2
9 8 9 1
10 8 16 1
11 8 25 1
12 9 10 1
13 9 17 1
14 10 11 2
15 10 15 1
16 11 12 1
17 12 13 1
18 13 14 1
19 14 15 1
20 15 16 1
21 17 18 2
22 17 22 1
23 18 19 1
24 19 20 2
25 20 21 1
26 20 23 1
27 21 22 2
28 23 24 1
29 3 26 1
30 4 27 1
31 6 28 1
32 7 29 1
33 9 30 1
34 11 31 1
35 12 32 1
36 12 33 1
37 13 34 1
38 13 35 1
39 14 36 1
40 14 37 1
41 16 38 1
42 16 39 1
43 18 40 1
44 19 41 1
45 21 42 1
46 22 43 1
47 24 44 1
48 24 45 1
49 24 46 1
50 25 47 1
@<TRIPOS>SUBSTRUCTURE
1	UNK0	1	GROUP	1 ****	UNK
