REMARK  4 active torsions:
REMARK  status: ('A' for Active; 'I' for Inactive)
REMARK    1  A    between atoms: C_5  and  C_8 
REMARK    2  A    between atoms: C_8  and  O_25 
REMARK    3  A    between atoms: N_9  and  C_17 
REMARK    4  A    between atoms: C_20  and  O_23 
ROOT
ATOM      1  C   UNK d   1      -1.786   1.221   0.662  0.00  0.00     0.283 C 
ATOM      2  N   UNK d   1      -1.799  -0.126   0.376  0.00  0.00     0.042 N 
ATOM      3  C   UNK d   1      -1.400  -0.219  -1.013  0.00  0.00     0.210 C 
ATOM      4  C   UNK d   1      -0.613  -0.978  -1.704  0.00  0.00     0.030 C 
ATOM      5  C   UNK d   1      -0.395  -0.836  -3.155  0.00  0.00     0.032 C 
ATOM      6  C   UNK d   1      -1.133   0.275  -3.813  0.00  0.00     0.023 C 
ATOM      7  C   UNK d   1      -2.337   0.747  -3.070  0.00  0.00     0.125 C 
ATOM      8  N   UNK d   1      -2.116   0.829  -1.642  0.00  0.00    -0.356 N 
ATOM      9  C   UNK d   1      -2.474   1.797  -0.609  0.00  0.00     0.200 C 
ATOM     10  H   UNK d   1      -2.845  -0.407   0.305  0.00  0.00     0.299 HD
ENDROOT
BRANCH   1  11
ATOM     11  C   UNK d   1      -0.578   2.004   0.826  0.00  0.00     0.007 A 
ATOM     12  C   UNK d   1      -0.414   2.758   1.972  0.00  0.00     0.014 A 
ATOM     13  C   UNK d   1       0.702   3.522   2.147  0.00  0.00     0.024 A 
ATOM     14  C   UNK d   1       1.713   3.579   1.196  0.00  0.00     0.034 A 
ATOM     15 Cl   UNK d   1       3.151   4.548   1.395  0.00  0.00    -0.084 Cl
ATOM     16  C   UNK d   1       1.549   2.832   0.062  0.00  0.00     0.024 A 
ATOM     17  C   UNK d   1       0.417   2.056  -0.118  0.00  0.00     0.014 A 
ENDBRANCH   1  11
BRANCH   1  18
ATOM     18  O   UNK d   1      -2.714   1.554   1.689  0.00  0.00    -0.359 OA
ATOM     19  H   UNK d   1      -3.605   1.306   1.331  0.00  0.00     0.213 HD
ENDBRANCH   1  18
BRANCH   2  20
ATOM     20  C   UNK d   1      -1.224  -1.103   1.174  0.00  0.00     0.146 A 
ATOM     21  C   UNK d   1      -0.538  -0.918   2.326  0.00  0.00     0.041 A 
ATOM     22  C   UNK d   1      -0.027  -2.009   3.027  0.00  0.00     0.039 A 
ATOM     23  C   UNK d   1      -0.190  -3.314   2.594  0.00  0.00     0.068 A 
ATOM     24  C   UNK d   1      -0.893  -3.471   1.418  0.00  0.00     0.039 A 
ATOM     25  C   UNK d   1      -1.407  -2.420   0.706  0.00  0.00     0.041 A 
BRANCH  23  26
ATOM     26  O   UNK d   1       0.335  -4.370   3.321  0.00  0.00    -0.356 OA
ATOM     27  C   UNK d   1       0.156  -5.683   2.856  0.00  0.00     0.210 C 
ENDBRANCH  23  26
ENDBRANCH   2  20
TORSDOF 4
