REMARK  6 active torsions:
REMARK  status: ('A' for Active; 'I' for Inactive)
REMARK    1  A    between atoms: N_8  and  C_12 
REMARK    2  A    between atoms: C_12  and  C_13 
REMARK    3  A    between atoms: C_13  and  C_14 
REMARK       I    between atoms: C_14  and  N_16 
REMARK    4  A    between atoms: N_19  and  C_22 
REMARK    5  A    between atoms: C_22  and  C_23 
REMARK       I    between atoms: C_23  and  N_25 
REMARK    6  A    between atoms: N_25  and  C_26 
ROOT
ATOM      1  C   UNK d   1      -0.263  -0.961   1.975  0.00  0.00     0.221 C 
ATOM      2  O   UNK d   1       0.564  -0.083   1.517  0.00  0.00    -0.273 OA
ATOM      3  N   UNK d   1      -0.086  -2.262   1.500  0.00  0.00    -0.349 N 
ATOM      4  C   UNK d   1      -1.037  -3.368   1.719  0.00  0.00     0.145 C 
ATOM      5  C   UNK d   1      -1.572  -3.506   0.259  0.00  0.00     0.137 C 
ATOM      6  N   UNK d   1      -0.474  -3.990  -0.566  0.00  0.00    -0.401 N 
ATOM      7  C   UNK d   1       0.818  -3.769  -0.209  0.00  0.00     0.137 C 
ATOM      8  C   UNK d   1       1.089  -2.673   0.782  0.00  0.00     0.145 C 
ENDROOT
BRANCH   1   9
ATOM      9  C   UNK d   1      -1.222  -0.450   2.924  0.00  0.00     0.123 C 
BRANCH   9  10
ATOM     10  C   UNK d   1      -2.013   0.749   2.662  0.00  0.00     0.144 C 
BRANCH  10  11
ATOM     11  N   UNK d   1      -1.300   1.939   2.231  0.00  0.00    -0.290 N 
ATOM     12  C   UNK d   1      -0.584   2.835   2.905  0.00  0.00     0.073 A 
ATOM     13  C   UNK d   1      -0.171   3.842   2.065  0.00  0.00     0.109 A 
ATOM     14  C   UNK d   1      -0.207   2.876   4.259  0.00  0.00     0.034 A 
ATOM     15  C   UNK d   1       0.613   4.913   2.513  0.00  0.00     0.063 A 
ATOM     16  O   UNK d   1      -0.654   3.528   0.892  0.00  0.00    -0.259 OA
ATOM     17  C   UNK d   1       0.985   4.966   3.828  0.00  0.00     0.036 A 
ATOM     18 Cl   UNK d   1       1.975   6.278   4.418  0.00  0.00    -0.084 Cl
ATOM     19  C   UNK d   1       0.568   3.949   4.667  0.00  0.00     0.026 A 
ATOM     20  C   UNK d   1      -1.332   2.408   0.938  0.00  0.00     0.372 A 
ATOM     21  O   UNK d   1      -1.922   1.842  -0.027  0.00  0.00    -0.237 OA
ENDBRANCH  10  11
ENDBRANCH   9  10
ENDBRANCH   1   9
BRANCH   6  22
ATOM     22  C   UNK d   1      -0.974  -4.248  -1.832  0.00  0.00     0.219 C 
BRANCH  22  23
ATOM     23  C   UNK d   1      -1.121  -2.970  -2.659  0.00  0.00     0.235 C 
ATOM     24  O   UNK d   1      -1.869  -3.116  -3.700  0.00  0.00    -0.272 OA
ATOM     25  N   UNK d   1      -0.512  -1.844  -2.306  0.00  0.00    -0.355 N 
ATOM     26  H   UNK d   1      -1.176  -1.140  -3.259  0.00  0.00     0.162 HD
BRANCH  25  27
ATOM     27  C   UNK d   1       0.137  -0.646  -1.930  0.00  0.00     0.084 A 
ATOM     28  C   UNK d   1       0.945   0.055  -3.088  0.00  0.00     0.027 A 
ATOM     29  C   UNK d   1       1.649  -0.602  -2.003  0.00  0.00     0.027 A 
ENDBRANCH  25  27
ENDBRANCH  22  23
ENDBRANCH   6  22
TORSDOF 6
