# created with PyMOL 2.3.2
@<TRIPOS>MOLECULE
2272
51 54 1                 
SMALL
USER_CHARGES
@<TRIPOS>ATOM
1	  Cl	1.975	6.278	4.418	Cl	1	UNK0	0.000	
2	   C	0.985	4.966	3.828	C.2	1	UNK0	0.000	
3	   C	0.613	4.913	2.513	C.2	1	UNK0	0.000	
4	   C	-0.171	3.842	2.065	C.2	1	UNK0	0.000	
5	   C	-0.584	2.835	2.905	C.2	1	UNK0	0.000	
6	   C	-0.207	2.876	4.259	C.2	1	UNK0	0.000	
7	   C	0.568	3.949	4.667	C.2	1	UNK0	0.000	
8	   N	-1.300	1.939	2.231	N.pl3	1	UNK0	0.000	
9	   C	-1.332	2.408	0.938	C.2	1	UNK0	0.000	
10	   O	-1.922	1.842	-0.027	O.co2	1	UNK0	0.000	
11	   O	-0.654	3.528	0.892	O.3	1	UNK0	0.000	
12	   C	-2.013	0.749	2.662	C.3	1	UNK0	0.000	
13	   C	-1.222	-0.450	2.924	C.3	1	UNK0	0.000	
14	   C	-0.263	-0.961	1.975	C.2	1	UNK0	0.000	
15	   O	0.564	-0.083	1.517	O.2	1	UNK0	0.000	
16	   N	-0.086	-2.262	1.500	N.pl3	1	UNK0	0.000	
17	   C	-1.037	-3.368	1.719	C.3	1	UNK0	0.000	
18	   C	-1.572	-3.506	0.259	C.3	1	UNK0	0.000	
19	   N	-0.474	-3.990	-0.566	N.3	1	UNK0	0.000	
20	   C	0.818	-3.769	-0.209	C.3	1	UNK0	0.000	
21	   C	1.089	-2.673	0.782	C.3	1	UNK0	0.000	
22	   C	-0.974	-4.248	-1.832	C.3	1	UNK0	0.000	
23	   C	-1.121	-2.970	-2.659	C.2	1	UNK0	0.000	
24	   O	-1.869	-3.116	-3.700	O.2	1	UNK0	0.000	
25	   N	-0.512	-1.844	-2.306	N.pl3	1	UNK0	0.000	
26	   C	0.137	-0.646	-1.930	C.3	1	UNK0	0.000	
27	   C	0.945	0.055	-3.088	C.3	1	UNK0	0.000	
28	   C	1.649	-0.602	-2.003	C.3	1	UNK0	0.000	
29	   H	0.917	5.692	1.820	 H	1	UNK0	0.000	
30	   H	-0.542	2.093	4.883	 H	1	UNK0	0.000	
31	   H	0.850	3.979	5.707	 H	1	UNK0	0.000	
32	   H	-2.783	0.537	1.859	 H	1	UNK0	0.000	
33	   H	-2.579	1.113	3.582	 H	1	UNK0	0.000	
34	   H	-1.925	-1.340	3.148	 H	1	UNK0	0.000	
35	   H	-0.635	-0.267	3.894	 H	1	UNK0	0.000	
36	   H	-1.812	-3.167	2.420	 H	1	UNK0	0.000	
37	   H	-0.514	-4.306	1.980	 H	1	UNK0	0.000	
38	   H	-2.399	-4.213	0.231	 H	1	UNK0	0.000	
39	   H	-1.915	-2.556	-0.150	 H	1	UNK0	0.000	
40	   H	1.474	-3.579	-1.116	 H	1	UNK0	0.000	
41	   H	1.279	-4.755	0.200	 H	1	UNK0	0.000	
42	   H	1.643	-1.851	0.340	 H	1	UNK0	0.000	
43	   H	1.826	-3.143	1.534	 H	1	UNK0	0.000	
44	   H	-1.986	-4.712	-1.753	 H	1	UNK0	0.000	
45	   H	-0.369	-4.983	-2.444	 H	1	UNK0	0.000	
46	   H	-1.176	-1.140	-3.259	 H	1	UNK0	0.000	
47	   H	-0.444	0.167	-1.438	 H	1	UNK0	0.000	
48	   H	0.678	-0.335	-4.055	 H	1	UNK0	0.000	
49	   H	0.943	1.186	-3.056	 H	1	UNK0	0.000	
50	   H	2.207	-1.569	-2.147	 H	1	UNK0	0.000	
51	   H	2.214	0.052	-1.281	 H	1	UNK0	0.000	
@<TRIPOS>BOND
1 1 2 1
2 2 3 2
3 2 7 1
4 3 4 1
5 4 5 2
6 4 11 1
7 5 6 1
8 5 8 1
9 6 7 2
10 8 9 1
11 8 12 1
12 9 10 2
13 9 11 1
14 12 13 1
15 13 14 1
16 14 15 2
17 14 16 1
18 16 17 1
19 16 21 1
20 17 18 1
21 18 19 1
22 19 20 1
23 19 22 1
24 20 21 1
25 22 23 1
26 23 24 2
27 23 25 1
28 25 26 1
29 26 27 1
30 26 28 1
31 27 28 1
32 3 29 1
33 6 30 1
34 7 31 1
35 12 32 1
36 12 33 1
37 13 34 1
38 13 35 1
39 17 36 1
40 17 37 1
41 18 38 1
42 18 39 1
43 20 40 1
44 20 41 1
45 21 42 1
46 21 43 1
47 22 44 1
48 22 45 1
49 25 46 1
50 26 47 1
51 27 48 1
52 27 49 1
53 28 50 1
54 28 51 1
@<TRIPOS>SUBSTRUCTURE
1	UNK0	1	GROUP	1 ****	UNK
