REMARK  2 active torsions:
REMARK  status: ('A' for Active; 'I' for Inactive)
REMARK    1  A    between atoms: C_3  and  N_17 
REMARK    2  A    between atoms: N_17  and  C_18 
ROOT
ATOM      1 Cl   UNK d   1      -0.354  -0.314  -4.275  0.00  0.00    -0.076 Cl
ATOM      2  C   UNK d   1      -0.043  -0.120  -2.564  0.00  0.00     0.135 A 
ATOM      3  C   UNK d   1       0.148  -1.229  -1.766  0.00  0.00     0.126 A 
ATOM      4  C   UNK d   1       0.393  -1.001  -0.430  0.00  0.00     0.291 A 
ATOM      5  O   UNK d   1       0.583  -1.949   0.392  0.00  0.00    -0.264 OA
ATOM      6  N   UNK d   1       0.436   0.255   0.039  0.00  0.00    -0.241 N 
ATOM      7  N   UNK d   1       0.260   1.342  -0.686  0.00  0.00    -0.242 N 
ATOM      8  C   UNK d   1       0.316   2.686  -0.136  0.00  0.00     0.134 C 
ATOM      9  C   UNK d   1      -0.895   3.013   0.712  0.00  0.00     0.031 C 
ATOM     10  C   UNK d   1      -0.732   2.447   2.112  0.00  0.00     0.005 C 
ATOM     11  C   UNK d   1      -0.595   0.942   2.084  0.00  0.00     0.031 C 
ATOM     12  C   UNK d   1       0.698   0.474   1.470  0.00  0.00     0.134 C 
ATOM     13  C   UNK d   1       1.677   1.591   1.544  0.00  0.00    -0.002 C 
ATOM     14  C   UNK d   1       1.492   2.684   0.812  0.00  0.00    -0.002 C 
ATOM     15  C   UNK d   1       0.015   1.143  -2.015  0.00  0.00     0.287 A 
ATOM     16  O   UNK d   1      -0.160   2.178  -2.743  0.00  0.00    -0.265 OA
ENDROOT
BRANCH   3  17
ATOM     17  N   UNK d   1       0.098  -2.563  -2.263  0.00  0.00    -0.380 N 
ATOM     18  H   UNK d   1       1.033  -2.930  -2.616  0.00  0.00     0.160 HD
BRANCH  17  19
ATOM     19  C   UNK d   1      -1.087  -3.376  -2.301  0.00  0.00     0.073 C 
ATOM     20  C   UNK d   1      -1.668  -3.597  -0.915  0.00  0.00     0.031 C 
ATOM     21  C   UNK d   1      -2.173  -2.847  -3.177  0.00  0.00     0.031 C 
ENDBRANCH  17  19
ENDBRANCH   3  17
TORSDOF 2
