REMARK  2 active torsions:
REMARK  status: ('A' for Active; 'I' for Inactive)
REMARK    1  A    between atoms: C_3  and  N_17 
REMARK    2  A    between atoms: N_17  and  C_18 
ROOT
ATOM      1 Cl   UNK d   1       2.230  -3.102   1.134  0.00  0.00    -0.076 Cl
ATOM      2  C   UNK d   1       1.442  -1.666   0.511  0.00  0.00     0.135 A 
ATOM      3  C   UNK d   1       0.486  -1.827  -0.470  0.00  0.00     0.126 A 
ATOM      4  C   UNK d   1      -0.098  -0.638  -0.925  0.00  0.00     0.291 A 
ATOM      5  O   UNK d   1      -0.969  -0.725  -1.812  0.00  0.00    -0.264 OA
ATOM      6  N   UNK d   1       0.264   0.550  -0.426  0.00  0.00    -0.241 N 
ATOM      7  N   UNK d   1       1.183   0.697   0.516  0.00  0.00    -0.241 N 
ATOM      8  C   UNK d   1       1.453   2.060   0.951  0.00  0.00     0.139 C 
ATOM      9  C   UNK d   1       1.852   2.837  -0.290  0.00  0.00     0.021 A 
ATOM     10  C   UNK d   1       0.868   2.647  -1.362  0.00  0.00     0.021 A 
ATOM     11  C   UNK d   1      -0.327   1.807  -0.891  0.00  0.00     0.139 C 
ATOM     12  C   UNK d   1      -0.820   2.468   0.366  0.00  0.00    -0.001 C 
ATOM     13  C   UNK d   1       0.090   2.601   1.316  0.00  0.00    -0.001 C 
ATOM     14  C   UNK d   1       1.065   4.022  -0.709  0.00  0.00     0.015 A 
ATOM     15  C   UNK d   1       1.771  -0.399   0.984  0.00  0.00     0.287 A 
ATOM     16  O   UNK d   1       2.645  -0.270   1.879  0.00  0.00    -0.265 OA
ENDROOT
BRANCH   3  17
ATOM     17  N   UNK d   1       0.087  -3.085  -1.007  0.00  0.00    -0.380 N 
ATOM     18  H   UNK d   1       0.643  -3.415  -1.824  0.00  0.00     0.160 HD
BRANCH  17  19
ATOM     19  C   UNK d   1      -0.977  -3.886  -0.522  0.00  0.00     0.073 C 
ATOM     20  C   UNK d   1      -0.833  -4.322   0.913  0.00  0.00     0.031 C 
ATOM     21  C   UNK d   1      -2.336  -3.209  -0.633  0.00  0.00     0.031 C 
ENDBRANCH  17  19
ENDBRANCH   3  17
TORSDOF 2
