REMARK  5 active torsions:
REMARK  status: ('A' for Active; 'I' for Inactive)
REMARK    1  A    between atoms: C_3  and  N_15 
REMARK    2  A    between atoms: N_6  and  C_9 
REMARK    3  A    between atoms: N_18  and  C_21 
REMARK    4  A    between atoms: C_21  and  C_22 
REMARK       I    between atoms: C_22  and  N_24 
REMARK       I    between atoms: N_24  and  C_25 
REMARK       I    between atoms: C_25  and  N_27 
REMARK    5  A    between atoms: N_27  and  C_28 
ROOT
ATOM      1  N   UNK d   1      -3.484  -1.498   0.925  0.00  0.00    -0.375 N 
ATOM      2  C   UNK d   1      -4.106  -2.010   2.072  0.00  0.00     0.153 C 
ATOM      3  C   UNK d   1      -2.997  -2.755   2.902  0.00  0.00     0.292 C 
ATOM      4  N   UNK d   1      -1.687  -2.564   2.522  0.00  0.00     0.100 N 
ATOM      5  C   UNK d   1      -1.388  -2.239   1.154  0.00  0.00     0.292 C 
ATOM      6  C   UNK d   1      -2.623  -2.560   0.250  0.00  0.00     0.153 C 
ENDROOT
BRANCH   1   7
ATOM      7  C   UNK d   1      -3.323  -0.235   0.377  0.00  0.00     0.077 A 
ATOM      8  C   UNK d   1      -3.290   0.081  -0.910  0.00  0.00     0.131 A 
ATOM      9 Cl   UNK d   1      -3.981  -1.119  -2.075  0.00  0.00    -0.076 Cl
ATOM     10  C   UNK d   1      -2.774   1.278  -1.408  0.00  0.00     0.292 A 
ATOM     11  N   UNK d   1      -2.301   2.157  -0.568  0.00  0.00    -0.197 N 
ATOM     12  O   UNK d   1      -2.781   1.435  -2.676  0.00  0.00    -0.264 OA
ATOM     13  N   UNK d   1      -2.332   1.880   0.762  0.00  0.00    -0.174 NA
ATOM     14  C   UNK d   1      -2.790   0.807   1.288  0.00  0.00     0.170 A 
BRANCH  11  15
ATOM     15  C   UNK d   1      -1.496   3.305  -0.982  0.00  0.00     0.062 A 
ATOM     16  C   UNK d   1      -1.778   4.577  -0.600  0.00  0.00     0.032 A 
ATOM     17  C   UNK d   1      -0.933   5.622  -0.905  0.00  0.00     0.002 A 
ATOM     18  C   UNK d   1       0.244   5.400  -1.618  0.00  0.00     0.000 A 
ATOM     19  C   UNK d   1       0.503   4.085  -2.004  0.00  0.00     0.002 A 
ATOM     20  C   UNK d   1      -0.333   3.083  -1.697  0.00  0.00     0.032 A 
ENDBRANCH  11  15
ENDBRANCH   1   7
BRANCH   4  21
ATOM     21  C   UNK d   1      -0.775  -3.730   2.772  0.00  0.00     0.375 C 
BRANCH  21  22
ATOM     22  C   UNK d   1       0.608  -3.323   2.573  0.00  0.00     0.254 C 
ATOM     23  O   UNK d   1       1.594  -3.845   2.516  0.00  0.00    -0.271 OA
ATOM     24  N   UNK d   1       0.690  -1.628   2.377  0.00  0.00    -0.278 N 
ATOM     25  C   UNK d   1       2.101  -1.637   1.852  0.00  0.00     0.323 C 
ATOM     26  H   UNK d   1      -0.034  -1.629   2.649  0.00  0.00     0.173 HD
ATOM     27  O   UNK d   1       2.958  -2.418   2.162  0.00  0.00    -0.247 OA
ATOM     28  N   UNK d   1       2.283  -0.570   0.895  0.00  0.00    -0.338 N 
ATOM     29  H   UNK d   1       1.429   0.066   0.754  0.00  0.00     0.164 HD
BRANCH  28  30
ATOM     30  C   UNK d   1       3.449  -0.263   0.156  0.00  0.00     0.086 C 
ATOM     31  C   UNK d   1       4.424  -1.326  -0.147  0.00  0.00     0.025 C 
ATOM     32  C   UNK d   1       4.045  -1.923  -1.506  0.00  0.00     0.002 C 
ATOM     33  C   UNK d   1       3.505  -0.706  -2.220  0.00  0.00     0.002 C 
ATOM     34  C   UNK d   1       2.933   0.201  -1.222  0.00  0.00     0.025 C 
ENDBRANCH  28  30
ENDBRANCH  21  22
ENDBRANCH   4  21
TORSDOF 5
