# created with PyMOL 2.3.2
@<TRIPOS>MOLECULE
2281
59 62 1                 
SMALL
USER_CHARGES
@<TRIPOS>ATOM
1	  Cl	-3.981	-1.119	-2.075	Cl	1	UNK0	0.000	
2	   C	-3.290	0.081	-0.910	C.2	1	UNK0	0.000	
3	   C	-3.323	-0.235	0.377	C.2	1	UNK0	0.000	
4	   C	-2.790	0.807	1.288	C.2	1	UNK0	0.000	
5	   N	-2.332	1.880	0.762	N.2	1	UNK0	0.000	
6	   N	-2.301	2.157	-0.568	N.pl3	1	UNK0	0.000	
7	   C	-2.774	1.278	-1.408	C.2	1	UNK0	0.000	
8	   O	-2.781	1.435	-2.676	O.2	1	UNK0	0.000	
9	   C	-1.496	3.305	-0.982	C.2	1	UNK0	0.000	
10	   C	-1.778	4.577	-0.600	C.2	1	UNK0	0.000	
11	   C	-0.933	5.622	-0.905	C.2	1	UNK0	0.000	
12	   C	0.244	5.400	-1.618	C.2	1	UNK0	0.000	
13	   C	0.503	4.085	-2.004	C.2	1	UNK0	0.000	
14	   C	-0.333	3.083	-1.697	C.2	1	UNK0	0.000	
15	   N	-3.484	-1.498	0.925	N.pl3	1	UNK0	0.000	
16	   C	-4.106	-2.010	2.072	C.3	1	UNK0	0.000	
17	   C	-2.997	-2.755	2.902	C.3	1	UNK0	0.000	
18	   N	-1.687	-2.564	2.522	N.3	1	UNK0	0.000	
19	   C	-1.388	-2.239	1.154	C.3	1	UNK0	0.000	
20	   C	-2.623	-2.560	0.250	C.3	1	UNK0	0.000	
21	   C	-0.775	-3.730	2.772	C.3	1	UNK0	0.000	
22	   C	0.608	-3.323	2.573	C.2	1	UNK0	0.000	
23	   O	1.594	-3.845	2.516	O.2	1	UNK0	0.000	
24	   N	0.690	-1.628	2.377	N.pl3	1	UNK0	0.000	
25	   C	2.101	-1.637	1.852	C.2	1	UNK0	0.000	
26	   O	2.958	-2.418	2.162	O.2	1	UNK0	0.000	
27	   N	2.283	-0.570	0.895	N.pl3	1	UNK0	0.000	
28	   C	3.449	-0.263	0.156	C.3	1	UNK0	0.000	
29	   C	4.424	-1.326	-0.147	C.3	1	UNK0	0.000	
30	   C	4.045	-1.923	-1.506	C.3	1	UNK0	0.000	
31	   C	3.505	-0.706	-2.220	C.3	1	UNK0	0.000	
32	   C	2.933	0.201	-1.222	C.3	1	UNK0	0.000	
33	   H	-2.881	0.486	2.302	 H	1	UNK0	0.000	
34	   H	-2.703	4.783	-0.062	 H	1	UNK0	0.000	
35	   H	-1.118	6.601	-0.585	 H	1	UNK0	0.000	
36	   H	0.876	6.235	-1.820	 H	1	UNK0	0.000	
37	   H	1.444	3.944	-2.538	 H	1	UNK0	0.000	
38	   H	-0.096	2.074	-2.009	 H	1	UNK0	0.000	
39	   H	-4.686	-1.349	2.702	 H	1	UNK0	0.000	
40	   H	-4.843	-2.786	1.719	 H	1	UNK0	0.000	
41	   H	-3.335	-3.836	2.854	 H	1	UNK0	0.000	
42	   H	-3.245	-2.492	3.976	 H	1	UNK0	0.000	
43	   H	-1.234	-1.150	0.953	 H	1	UNK0	0.000	
44	   H	-0.623	-2.902	0.757	 H	1	UNK0	0.000	
45	   H	-2.454	-2.389	-0.770	 H	1	UNK0	0.000	
46	   H	-2.973	-3.564	0.596	 H	1	UNK0	0.000	
47	   H	-1.034	-4.026	3.780	 H	1	UNK0	0.000	
48	   H	-1.053	-4.510	2.057	 H	1	UNK0	0.000	
49	   H	-0.034	-1.629	2.649	 H	1	UNK0	0.000	
50	   H	1.429	0.066	0.754	 H	1	UNK0	0.000	
51	   H	4.037	0.581	0.683	 H	1	UNK0	0.000	
52	   H	5.419	-0.845	-0.306	 H	1	UNK0	0.000	
53	   H	4.521	-2.120	0.622	 H	1	UNK0	0.000	
54	   H	3.248	-2.689	-1.396	 H	1	UNK0	0.000	
55	   H	4.944	-2.339	-2.033	 H	1	UNK0	0.000	
56	   H	2.642	-1.102	-2.868	 H	1	UNK0	0.000	
57	   H	4.235	-0.221	-2.899	 H	1	UNK0	0.000	
58	   H	3.063	1.290	-1.385	 H	1	UNK0	0.000	
59	   H	1.790	-0.012	-1.214	 H	1	UNK0	0.000	
@<TRIPOS>BOND
1 1 2 1
2 2 3 2
3 2 7 1
4 3 4 1
5 3 15 1
6 4 5 2
7 5 6 1
8 6 7 1
9 6 9 1
10 7 8 2
11 9 10 2
12 9 14 1
13 10 11 1
14 11 12 2
15 12 13 1
16 13 14 2
17 15 16 1
18 15 20 1
19 16 17 1
20 17 18 1
21 18 19 1
22 18 21 1
23 19 20 1
24 21 22 1
25 22 23 2
26 22 24 1
27 24 25 1
28 25 26 2
29 25 27 1
30 27 28 1
31 28 29 1
32 28 32 1
33 29 30 1
34 30 31 1
35 31 32 1
36 4 33 1
37 10 34 1
38 11 35 1
39 12 36 1
40 13 37 1
41 14 38 1
42 16 39 1
43 16 40 1
44 17 41 1
45 17 42 1
46 19 43 1
47 19 44 1
48 20 45 1
49 20 46 1
50 21 47 1
51 21 48 1
52 24 49 1
53 27 50 1
54 28 51 1
55 29 52 1
56 29 53 1
57 30 54 1
58 30 55 1
59 31 56 1
60 31 57 1
61 32 58 1
62 32 59 1
@<TRIPOS>SUBSTRUCTURE
1	UNK0	1	GROUP	1 ****	UNK
