REMARK  6 active torsions:
REMARK  status: ('A' for Active; 'I' for Inactive)
REMARK    1  A    between atoms: C_3  and  N_15 
REMARK    2  A    between atoms: N_6  and  C_9 
REMARK    3  A    between atoms: N_18  and  C_21 
REMARK    4  A    between atoms: C_21  and  C_22 
REMARK       I    between atoms: C_22  and  N_24 
REMARK    5  A    between atoms: N_24  and  C_25 
REMARK    6  A    between atoms: C_25  and  C_26 
ROOT
ATOM      1  N   UNK d   1      -0.734   1.598  -2.066  0.00  0.00    -0.375 N 
ATOM      2  C   UNK d   1       0.170   2.708  -1.882  0.00  0.00     0.153 C 
ATOM      3  C   UNK d   1      -0.394   3.665  -0.879  0.00  0.00     0.292 C 
ATOM      4  N   UNK d   1      -1.511   3.012  -0.243  0.00  0.00     0.100 NA
ATOM      5  C   UNK d   1      -2.571   2.902  -1.179  0.00  0.00     0.292 C 
ATOM      6  C   UNK d   1      -2.143   1.861  -2.218  0.00  0.00     0.153 C 
ENDROOT
BRANCH   1   7
ATOM      7  C   UNK d   1      -0.292   0.250  -2.107  0.00  0.00     0.077 A 
ATOM      8  C   UNK d   1       0.611  -0.200  -3.066  0.00  0.00     0.131 A 
ATOM      9 Cl   UNK d   1       1.179   0.970  -4.238  0.00  0.00    -0.076 Cl
ATOM     10  C   UNK d   1       1.030  -1.516  -3.079  0.00  0.00     0.292 A 
ATOM     11  N   UNK d   1       0.587  -2.409  -2.174  0.00  0.00    -0.197 N 
ATOM     12  O   UNK d   1       1.849  -1.919  -3.952  0.00  0.00    -0.264 OA
ATOM     13  N   UNK d   1      -0.269  -1.962  -1.272  0.00  0.00    -0.174 NA
ATOM     14  C   UNK d   1      -0.719  -0.697  -1.201  0.00  0.00     0.170 A 
BRANCH  11  15
ATOM     15  C   UNK d   1       1.025  -3.774  -2.186  0.00  0.00     0.062 A 
ATOM     16  C   UNK d   1       0.103  -4.795  -2.169  0.00  0.00     0.032 A 
ATOM     17  C   UNK d   1       0.519  -6.131  -2.181  0.00  0.00     0.002 A 
ATOM     18  C   UNK d   1       1.854  -6.464  -2.210  0.00  0.00     0.000 A 
ATOM     19  C   UNK d   1       2.784  -5.448  -2.228  0.00  0.00     0.002 A 
ATOM     20  C   UNK d   1       2.358  -4.124  -2.215  0.00  0.00     0.032 A 
ENDBRANCH  11  15
ENDBRANCH   1   7
BRANCH   4  21
ATOM     21  C   UNK d   1      -1.809   3.418   1.072  0.00  0.00     0.374 C 
BRANCH  21  22
ATOM     22  C   UNK d   1      -0.832   2.998   2.082  0.00  0.00     0.246 C 
ATOM     23  O   UNK d   1      -1.062   3.384   3.278  0.00  0.00    -0.272 OA
ATOM     24  N   UNK d   1       0.324   2.213   1.854  0.00  0.00    -0.357 N 
ATOM     25  H   UNK d   1       0.502   1.892   0.881  0.00  0.00     0.162 HD
BRANCH  24  26
ATOM     26  C   UNK d   1       1.256   1.824   2.882  0.00  0.00     0.154 C 
BRANCH  26  27
ATOM     27  C   UNK d   1       0.548   1.003   3.915  0.00  0.00     0.139 C 
ATOM     28  O   UNK d   1       0.014  -0.111   3.324  0.00  0.00    -0.384 OA
ATOM     29  C   UNK d   1       0.482  -1.252   3.916  0.00  0.00     0.168 C 
ATOM     30  C   UNK d   1       0.790  -0.810   5.331  0.00  0.00     0.029 C 
ATOM     31  C   UNK d   1       1.499   0.514   4.998  0.00  0.00     0.035 C 
ENDBRANCH  26  27
ENDBRANCH  24  26
ENDBRANCH  21  22
ENDBRANCH   4  21
TORSDOF 6
