# created with PyMOL 2.3.2
@<TRIPOS>MOLECULE
2284
50 54 1                 
SMALL
USER_CHARGES
@<TRIPOS>ATOM
1	   S	0.206	0.878	4.773	S.O2	1	UNK0	0.000	
2	   O	-0.281	1.210	6.180	O.2	1	UNK0	0.000	
3	   O	1.661	1.247	4.641	O.2	1	UNK0	0.000	
4	   N	-0.756	1.672	3.679	N.3	1	UNK0	0.000	
5	   C	-2.147	1.539	3.700	C.3	1	UNK0	0.000	
6	   C	-2.736	1.773	2.305	C.3	1	UNK0	0.000	
7	   N	-2.041	0.969	1.381	N.3	1	UNK0	0.000	
8	   C	-0.646	1.192	1.338	C.3	1	UNK0	0.000	
9	   C	-0.234	2.122	2.457	C.3	1	UNK0	0.000	
10	   C	-2.673	0.747	0.120	C.3	1	UNK0	0.000	
11	   C	-1.796	-0.115	-0.708	C.2	1	UNK0	0.000	
12	   C	-1.882	-1.493	-0.692	C.2	1	UNK0	0.000	
13	   C	-1.095	-2.332	-1.439	C.2	1	UNK0	0.000	
14	   O	-1.268	-3.591	-1.339	O.2	1	UNK0	0.000	
15	   N	-0.147	-1.804	-2.269	N.pl3	1	UNK0	0.000	
16	   N	0.645	-2.469	-3.012	N.2	1	UNK0	0.000	
17	   C	1.527	-1.901	-3.780	C.2	1	UNK0	0.000	
18	   S	1.204	-0.244	-3.415	S.3	1	UNK0	0.000	
19	   C	-0.066	-0.472	-2.282	C.2	1	UNK0	0.000	
20	   N	-0.844	0.351	-1.545	N.2	1	UNK0	0.000	
21	   C	2.525	-2.453	-4.704	C.2	1	UNK0	0.000	
22	   C	3.338	-1.582	-5.397	C.2	1	UNK0	0.000	
23	   C	4.301	-2.041	-6.285	C.2	1	UNK0	0.000	
24	   C	4.457	-3.397	-6.485	C.2	1	UNK0	0.000	
25	   C	3.652	-4.291	-5.800	C.2	1	UNK0	0.000	
26	   C	2.711	-3.788	-4.931	C.2	1	UNK0	0.000	
27	  Cl	5.656	-3.985	-7.591	Cl	1	UNK0	0.000	
28	   C	0.039	-0.857	4.622	C.2	1	UNK0	0.000	
29	   N	0.669	-1.805	5.370	N.2	1	UNK0	0.000	
30	   C	0.304	-3.025	4.972	C.2	1	UNK0	0.000	
31	   N	-0.570	-2.923	3.961	N.pl3	1	UNK0	0.000	
32	   C	-0.730	-1.588	3.749	C.2	1	UNK0	0.000	
33	   H	-2.553	2.340	4.397	 H	1	UNK0	0.000	
34	   H	-2.556	0.562	4.045	 H	1	UNK0	0.000	
35	   H	-2.561	2.845	2.076	 H	1	UNK0	0.000	
36	   H	-3.832	1.580	2.313	 H	1	UNK0	0.000	
37	   H	-0.126	0.227	1.536	 H	1	UNK0	0.000	
38	   H	-0.297	1.646	0.375	 H	1	UNK0	0.000	
39	   H	0.894	2.182	2.516	 H	1	UNK0	0.000	
40	   H	-0.573	3.161	2.253	 H	1	UNK0	0.000	
41	   H	-2.779	1.727	-0.388	 H	1	UNK0	0.000	
42	   H	-3.623	0.230	0.280	 H	1	UNK0	0.000	
43	   H	-2.657	-1.904	-0.013	 H	1	UNK0	0.000	
44	   H	3.260	-0.512	-5.279	 H	1	UNK0	0.000	
45	   H	4.953	-1.384	-6.843	 H	1	UNK0	0.000	
46	   H	3.774	-5.354	-5.957	 H	1	UNK0	0.000	
47	   H	2.092	-4.491	-4.404	 H	1	UNK0	0.000	
48	   H	0.660	-3.951	5.403	 H	1	UNK0	0.000	
49	   H	-1.024	-3.699	3.452	 H	1	UNK0	0.000	
50	   H	-1.381	-1.204	2.987	 H	1	UNK0	0.000	
@<TRIPOS>BOND
1 1 2 2
2 1 3 2
3 1 4 1
4 1 28 1
5 4 5 1
6 4 9 1
7 5 6 1
8 6 7 1
9 7 8 1
10 7 10 1
11 8 9 1
12 10 11 1
13 11 12 2
14 11 20 1
15 12 13 1
16 13 14 2
17 13 15 1
18 15 16 1
19 15 19 1
20 16 17 2
21 17 18 1
22 17 21 1
23 18 19 1
24 19 20 2
25 21 22 2
26 21 26 1
27 22 23 1
28 23 24 2
29 24 25 1
30 24 27 1
31 25 26 2
32 28 29 1
33 28 32 2
34 29 30 2
35 30 31 1
36 31 32 1
37 5 33 1
38 5 34 1
39 6 35 1
40 6 36 1
41 8 37 1
42 8 38 1
43 9 39 1
44 9 40 1
45 10 41 1
46 10 42 1
47 12 43 1
48 22 44 1
49 23 45 1
50 25 46 1
51 26 47 1
52 30 48 1
53 31 49 1
54 32 50 1
@<TRIPOS>SUBSTRUCTURE
1	UNK0	1	GROUP	1 ****	UNK
