REMARK  5 active torsions:
REMARK  status: ('A' for Active; 'I' for Inactive)
REMARK    1  A    between atoms: S_1  and  N_4 
REMARK    2  A    between atoms: S_1  and  C_28 
REMARK    3  A    between atoms: N_7  and  C_10 
REMARK    4  A    between atoms: C_10  and  C_11 
REMARK    5  A    between atoms: C_17  and  C_21 
ROOT
ATOM      1  C   UNK d   1      -1.796  -0.115  -0.708  0.00  0.00     0.060 A 
ATOM      2  C   UNK d   1      -1.882  -1.493  -0.692  0.00  0.00     0.105 A 
ATOM      3  C   UNK d   1      -1.095  -2.332  -1.439  0.00  0.00     0.272 A 
ATOM      4  O   UNK d   1      -1.268  -3.591  -1.339  0.00  0.00    -0.266 OA
ATOM      5  N   UNK d   1      -0.147  -1.804  -2.269  0.00  0.00    -0.171 N 
ATOM      6  N   UNK d   1       0.645  -2.469  -3.012  0.00  0.00    -0.154 NA
ATOM      7  C   UNK d   1       1.527  -1.901  -3.780  0.00  0.00     0.132 A 
ATOM      8  S   UNK d   1       1.204  -0.244  -3.415  0.00  0.00    -0.028 SA
ATOM      9  C   UNK d   1      -0.066  -0.472  -2.282  0.00  0.00     0.199 A 
ATOM     10  N   UNK d   1      -0.844   0.351  -1.545  0.00  0.00    -0.225 NA
ENDROOT
BRANCH   1  11
ATOM     11  C   UNK d   1      -2.673   0.747   0.120  0.00  0.00     0.176 C 
BRANCH  11  12
ATOM     12  N   UNK d   1      -2.041   0.969   1.381  0.00  0.00    -0.404 N 
ATOM     13  C   UNK d   1      -2.736   1.773   2.305  0.00  0.00     0.137 C 
ATOM     14  C   UNK d   1      -2.147   1.539   3.700  0.00  0.00     0.155 C 
ATOM     15  N   UNK d   1      -0.756   1.672   3.679  0.00  0.00    -0.302 N 
ATOM     16  C   UNK d   1      -0.234   2.122   2.457  0.00  0.00     0.155 C 
ATOM     17  C   UNK d   1      -0.646   1.192   1.338  0.00  0.00     0.137 C 
BRANCH  15  18
ATOM     18  S   UNK d   1       0.206   0.878   4.773  0.00  0.00     0.280 S 
ATOM     19  O   UNK d   1      -0.281   1.210   6.180  0.00  0.00    -0.199 OA
ATOM     20  O   UNK d   1       1.661   1.247   4.641  0.00  0.00    -0.199 OA
BRANCH  18  21
ATOM     21  C   UNK d   1       0.039  -0.857   4.622  0.00  0.00     0.188 A 
ATOM     22  N   UNK d   1       0.669  -1.805   5.370  0.00  0.00    -0.229 NA
ATOM     23  C   UNK d   1       0.304  -3.025   4.972  0.00  0.00     0.208 A 
ATOM     24  N   UNK d   1      -0.570  -2.923   3.961  0.00  0.00    -0.358 N 
ATOM     25  C   UNK d   1      -0.730  -1.588   3.749  0.00  0.00     0.134 A 
ATOM     26  H   UNK d   1      -1.024  -3.699   3.452  0.00  0.00     0.166 HD
ENDBRANCH  18  21
ENDBRANCH  15  18
ENDBRANCH  11  12
ENDBRANCH   1  11
BRANCH   7  27
ATOM     27  C   UNK d   1       2.525  -2.453  -4.704  0.00  0.00     0.002 A 
ATOM     28  C   UNK d   1       3.338  -1.582  -5.397  0.00  0.00     0.016 A 
ATOM     29  C   UNK d   1       4.301  -2.041  -6.285  0.00  0.00     0.024 A 
ATOM     30  C   UNK d   1       4.457  -3.397  -6.485  0.00  0.00     0.034 A 
ATOM     31  C   UNK d   1       3.652  -4.291  -5.800  0.00  0.00     0.024 A 
ATOM     32 Cl   UNK d   1       5.656  -3.985  -7.591  0.00  0.00    -0.084 Cl
ATOM     33  C   UNK d   1       2.711  -3.788  -4.931  0.00  0.00     0.016 A 
ENDBRANCH   7  27
TORSDOF 5
