# created with PyMOL 2.3.2
@<TRIPOS>MOLECULE
2285
55 58 1                 
SMALL
USER_CHARGES
@<TRIPOS>ATOM
1	   S	-1.411	-2.570	-1.523	S.O2	1	UNK0	0.000	
2	   O	-0.282	-3.556	-1.756	O.2	1	UNK0	0.000	
3	   O	-2.532	-2.861	-2.456	O.2	1	UNK0	0.000	
4	   N	-1.983	-2.822	0.143	N.3	1	UNK0	0.000	
5	   C	-0.820	-2.696	0.970	C.3	1	UNK0	0.000	
6	   C	-1.126	-2.310	2.429	C.3	1	UNK0	0.000	
7	   N	-1.890	-1.103	2.378	N.3	1	UNK0	0.000	
8	   C	-3.171	-1.416	1.808	C.3	1	UNK0	0.000	
9	   C	-2.883	-1.633	0.348	C.3	1	UNK0	0.000	
10	   C	-1.714	-0.145	3.361	C.3	1	UNK0	0.000	
11	   C	-0.389	0.467	3.483	C.2	1	UNK0	0.000	
12	   O	-0.333	1.362	4.437	O.2	1	UNK0	0.000	
13	   N	0.778	0.271	2.802	N.pl3	1	UNK0	0.000	
14	   C	2.059	0.898	3.135	C.3	1	UNK0	0.000	
15	   C	3.047	0.556	2.092	C.2	1	UNK0	0.000	
16	   C	4.175	-0.242	2.392	C.2	1	UNK0	0.000	
17	   C	5.166	-0.463	1.514	C.2	1	UNK0	0.000	
18	   C	5.115	0.113	0.206	C.2	1	UNK0	0.000	
19	   C	4.060	0.878	-0.091	C.2	1	UNK0	0.000	
20	   C	3.015	1.128	0.807	C.2	1	UNK0	0.000	
21	  Cl	4.257	-0.995	4.004	Cl	1	UNK0	0.000	
22	   C	-0.816	-0.975	-1.767	C.2	1	UNK0	0.000	
23	   C	-1.797	-0.006	-2.017	C.2	1	UNK0	0.000	
24	   C	-1.517	1.357	-2.145	C.2	1	UNK0	0.000	
25	   C	-0.194	1.769	-2.016	C.2	1	UNK0	0.000	
26	   C	0.763	0.800	-1.776	C.2	1	UNK0	0.000	
27	   C	0.472	-0.552	-1.647	C.2	1	UNK0	0.000	
28	   O	0.010	3.130	-2.148	O.3	1	UNK0	0.000	
29	   C	-0.986	4.013	-1.565	C.3	1	UNK0	0.000	
30	   C	-2.386	3.558	-1.812	C.3	1	UNK0	0.000	
31	   O	-2.513	2.285	-2.397	O.3	1	UNK0	0.000	
32	   H	-0.392	-3.755	1.051	 H	1	UNK0	0.000	
33	   H	0.023	-2.092	0.608	 H	1	UNK0	0.000	
34	   H	-1.707	-3.112	2.885	 H	1	UNK0	0.000	
35	   H	-0.229	-2.131	3.005	 H	1	UNK0	0.000	
36	   H	-3.575	-2.336	2.218	 H	1	UNK0	0.000	
37	   H	-3.843	-0.518	1.855	 H	1	UNK0	0.000	
38	   H	-2.242	-0.760	-0.010	 H	1	UNK0	0.000	
39	   H	-3.783	-1.826	-0.200	 H	1	UNK0	0.000	
40	   H	-1.923	-0.731	4.357	 H	1	UNK0	0.000	
41	   H	-2.523	0.632	3.429	 H	1	UNK0	0.000	
42	   H	0.889	-0.396	1.968	 H	1	UNK0	0.000	
43	   H	1.827	2.013	2.970	 H	1	UNK0	0.000	
44	   H	2.344	0.673	4.138	 H	1	UNK0	0.000	
45	   H	5.993	-1.067	1.774	 H	1	UNK0	0.000	
46	   H	5.910	-0.077	-0.474	 H	1	UNK0	0.000	
47	   H	3.975	1.354	-1.073	 H	1	UNK0	0.000	
48	   H	2.220	1.771	0.517	 H	1	UNK0	0.000	
49	   H	-2.840	-0.362	-2.135	 H	1	UNK0	0.000	
50	   H	1.757	1.155	-1.705	 H	1	UNK0	0.000	
51	   H	1.254	-1.255	-1.444	 H	1	UNK0	0.000	
52	   H	-0.723	4.040	-0.456	 H	1	UNK0	0.000	
53	   H	-0.849	5.013	-1.977	 H	1	UNK0	0.000	
54	   H	-2.912	4.272	-2.455	 H	1	UNK0	0.000	
55	   H	-2.891	3.553	-0.805	 H	1	UNK0	0.000	
@<TRIPOS>BOND
1 1 2 2
2 1 3 2
3 1 4 1
4 1 22 1
5 4 5 1
6 4 9 1
7 5 6 1
8 6 7 1
9 7 8 1
10 7 10 1
11 8 9 1
12 10 11 1
13 11 12 2
14 11 13 1
15 13 14 1
16 14 15 1
17 15 16 2
18 15 20 1
19 16 17 1
20 16 21 1
21 17 18 2
22 18 19 1
23 19 20 2
24 22 23 2
25 22 27 1
26 23 24 1
27 24 25 2
28 24 31 1
29 25 26 1
30 25 28 1
31 26 27 2
32 28 29 1
33 29 30 1
34 30 31 1
35 5 32 1
36 5 33 1
37 6 34 1
38 6 35 1
39 8 36 1
40 8 37 1
41 9 38 1
42 9 39 1
43 10 40 1
44 10 41 1
45 13 42 1
46 14 43 1
47 14 44 1
48 17 45 1
49 18 46 1
50 19 47 1
51 20 48 1
52 23 49 1
53 26 50 1
54 27 51 1
55 29 52 1
56 29 53 1
57 30 54 1
58 30 55 1
@<TRIPOS>SUBSTRUCTURE
1	UNK0	1	GROUP	1 ****	UNK
