REMARK  6 active torsions:
REMARK  status: ('A' for Active; 'I' for Inactive)
REMARK    1  A    between atoms: S_1  and  N_4 
REMARK    2  A    between atoms: S_1  and  C_22 
REMARK    3  A    between atoms: N_7  and  C_10 
REMARK    4  A    between atoms: C_10  and  C_11 
REMARK    5  A    between atoms: N_13  and  C_14 
REMARK    6  A    between atoms: C_14  and  C_15 
ROOT
ATOM      1  N   UNK d   1      -1.983  -2.822   0.143  0.00  0.00    -0.203 NA
ATOM      2  C   UNK d   1      -0.820  -2.696   0.970  0.00  0.00     0.127 C 
ATOM      3  C   UNK d   1      -1.126  -2.310   2.429  0.00  0.00     0.132 C 
ATOM      4  N   UNK d   1      -1.890  -1.103   2.378  0.00  0.00    -0.403 N 
ATOM      5  C   UNK d   1      -3.171  -1.416   1.808  0.00  0.00     0.132 C 
ATOM      6  C   UNK d   1      -2.883  -1.633   0.348  0.00  0.00     0.127 C 
ENDROOT
BRANCH   1   7
ATOM      7  S   UNK d   1      -1.411  -2.570  -1.523  0.00  0.00     0.243 S 
ATOM      8  O   UNK d   1      -0.282  -3.556  -1.756  0.00  0.00    -0.206 OA
ATOM      9  O   UNK d   1      -2.532  -2.861  -2.456  0.00  0.00    -0.206 OA
BRANCH   7  10
ATOM     10  C   UNK d   1      -0.816  -0.975  -1.767  0.00  0.00     0.077 A 
ATOM     11  C   UNK d   1      -1.797  -0.006  -2.017  0.00  0.00     0.064 A 
ATOM     12  C   UNK d   1      -1.517   1.357  -2.145  0.00  0.00     0.103 A 
ATOM     13  C   UNK d   1      -0.194   1.769  -2.016  0.00  0.00     0.102 A 
ATOM     14  O   UNK d   1      -2.513   2.285  -2.397  0.00  0.00    -0.346 OA
ATOM     15  C   UNK d   1       0.763   0.800  -1.776  0.00  0.00     0.041 A 
ATOM     16  O   UNK d   1       0.010   3.130  -2.148  0.00  0.00    -0.346 OA
ATOM     17  C   UNK d   1       0.472  -0.552  -1.647  0.00  0.00     0.028 A 
ATOM     18  C   UNK d   1      -0.986   4.013  -1.565  0.00  0.00     0.202 C 
ATOM     19  C   UNK d   1      -2.386   3.558  -1.812  0.00  0.00     0.202 C 
ENDBRANCH   7  10
ENDBRANCH   1   7
BRANCH   4  20
ATOM     20  C   UNK d   1      -1.714  -0.145   3.361  0.00  0.00     0.204 C 
BRANCH  20  21
ATOM     21  C   UNK d   1      -0.389   0.467   3.483  0.00  0.00     0.169 C 
ATOM     22  O   UNK d   1      -0.333   1.362   4.437  0.00  0.00    -0.176 OA
ATOM     23  N   UNK d   1       0.778   0.271   2.802  0.00  0.00    -0.366 N 
ATOM     24  H   UNK d   1       0.889  -0.396   1.968  0.00  0.00     0.161 HD
BRANCH  23  25
ATOM     25  C   UNK d   1       2.059   0.898   3.135  0.00  0.00     0.162 C 
BRANCH  25  26
ATOM     26  C   UNK d   1       3.047   0.556   2.092  0.00  0.00    -0.019 A 
ATOM     27  C   UNK d   1       4.175  -0.242   2.392  0.00  0.00     0.042 A 
ATOM     28  C   UNK d   1       5.166  -0.463   1.514  0.00  0.00     0.024 A 
ATOM     29 Cl   UNK d   1       4.257  -0.995   4.004  0.00  0.00    -0.084 Cl
ATOM     30  C   UNK d   1       5.115   0.113   0.206  0.00  0.00     0.002 A 
ATOM     31  C   UNK d   1       4.060   0.878  -0.091  0.00  0.00     0.001 A 
ATOM     32  C   UNK d   1       3.015   1.128   0.807  0.00  0.00     0.010 A 
ENDBRANCH  25  26
ENDBRANCH  23  25
ENDBRANCH  20  21
ENDBRANCH   4  20
TORSDOF 6
