REMARK  4 active torsions:
REMARK  status: ('A' for Active; 'I' for Inactive)
REMARK    1  A    between atoms: S_1  and  N_4 
REMARK    2  A    between atoms: S_1  and  C_26 
REMARK       I    between atoms: N_7  and  C_10 
REMARK    3  A    between atoms: C_10  and  C_12 
REMARK    4  A    between atoms: C_12  and  N_13 
ROOT
ATOM      1  N   UNK d   1      -5.301   0.556  -0.265  0.00  0.00    -0.303 N 
ATOM      2  C   UNK d   1      -4.680   1.820  -0.429  0.00  0.00     0.155 C 
ATOM      3  C   UNK d   1      -3.175   1.773  -0.433  0.00  0.00     0.146 C 
ATOM      4  N   UNK d   1      -2.666   0.618  -1.142  0.00  0.00    -0.348 N 
ATOM      5  C   UNK d   1      -3.631  -0.125  -1.930  0.00  0.00     0.146 C 
ATOM      6  C   UNK d   1      -4.853  -0.484  -1.121  0.00  0.00     0.155 C 
ATOM      7  C   UNK d   1      -1.311   0.280  -1.039  0.00  0.00     0.238 C 
ATOM      8  O   UNK d   1      -0.557   0.989  -0.331  0.00  0.00    -0.272 OA
ENDROOT
BRANCH   7   9
ATOM      9  C   UNK d   1      -0.727  -0.892  -1.741  0.00  0.00     0.239 C 
BRANCH   9  10
ATOM     10  N   UNK d   1       0.679  -1.033  -1.482  0.00  0.00    -0.259 N 
ATOM     11  C   UNK d   1       1.227  -1.785  -0.410  0.00  0.00     0.328 C 
ATOM     12  O   UNK d   1       0.539  -2.426   0.454  0.00  0.00    -0.247 OA
ATOM     13  N   UNK d   1       2.648  -1.739  -0.410  0.00  0.00    -0.320 N 
ATOM     14  C   UNK d   1       3.034  -0.739  -1.388  0.00  0.00     0.118 C 
ATOM     15  C   UNK d   1       3.528  -2.556   0.425  0.00  0.00     0.155 C 
ATOM     16  C   UNK d   1       4.092  -1.240  -2.328  0.00  0.00     0.041 C 
ATOM     17  C   UNK d   1       3.456   0.491  -0.620  0.00  0.00     0.041 C 
ATOM     18  C   UNK d   1       1.799  -0.500  -2.176  0.00  0.00     0.257 C 
ATOM     19  C   UNK d   1       5.489  -1.094  -1.801  0.00  0.00     0.003 C 
ATOM     20  C   UNK d   1       5.799   0.280  -1.284  0.00  0.00     0.000 C 
ATOM     21  C   UNK d   1       4.596   1.197  -1.320  0.00  0.00     0.003 C 
ATOM     22  O   UNK d   1       1.715   0.079  -3.285  0.00  0.00    -0.270 OA
ENDBRANCH   9  10
ENDBRANCH   7   9
BRANCH   1  23
ATOM     23  S   UNK d   1      -5.539   0.076   1.360  0.00  0.00     0.267 S 
ATOM     24  O   UNK d   1      -6.272  -1.230   1.387  0.00  0.00    -0.200 OA
ATOM     25  O   UNK d   1      -6.355   1.084   2.114  0.00  0.00    -0.200 OA
BRANCH  23  26
ATOM     26  C   UNK d   1      -4.001  -0.077   2.226  0.00  0.00     0.121 A 
ATOM     27  S   UNK d   1      -2.684  -1.093   1.880  0.00  0.00    -0.064 SA
ATOM     28  C   UNK d   1      -1.645  -0.641   3.148  0.00  0.00     0.075 A 
ATOM     29  C   UNK d   1      -2.364   0.309   3.823  0.00  0.00     0.033 A 
ATOM     30 Cl   UNK d   1      -0.016  -1.235   3.536  0.00  0.00    -0.076 Cl
ATOM     31  C   UNK d   1      -3.593   0.603   3.341  0.00  0.00     0.035 A 
ENDBRANCH  23  26
ENDBRANCH   1  23
TORSDOF 4
