# created with PyMOL 2.3.2
@<TRIPOS>MOLECULE
2286
56 59 1                 
SMALL
USER_CHARGES
@<TRIPOS>ATOM
1	   S	-5.539	0.076	1.360	S.O2	1	UNK0	0.000	
2	   O	-6.272	-1.230	1.387	O.2	1	UNK0	0.000	
3	   O	-6.355	1.084	2.114	O.2	1	UNK0	0.000	
4	   N	-5.301	0.556	-0.265	N.3	1	UNK0	0.000	
5	   C	-4.680	1.820	-0.429	C.3	1	UNK0	0.000	
6	   C	-3.175	1.773	-0.433	C.3	1	UNK0	0.000	
7	   N	-2.666	0.618	-1.142	N.pl3	1	UNK0	0.000	
8	   C	-3.631	-0.125	-1.930	C.3	1	UNK0	0.000	
9	   C	-4.853	-0.484	-1.121	C.3	1	UNK0	0.000	
10	   C	-1.311	0.280	-1.039	C.2	1	UNK0	0.000	
11	   O	-0.557	0.989	-0.331	O.2	1	UNK0	0.000	
12	   C	-0.727	-0.892	-1.741	C.3	1	UNK0	0.000	
13	   N	0.679	-1.033	-1.482	N.pl3	1	UNK0	0.000	
14	   C	1.227	-1.785	-0.410	C.2	1	UNK0	0.000	
15	   O	0.539	-2.426	0.454	O.2	1	UNK0	0.000	
16	   N	2.648	-1.739	-0.410	N.pl3	1	UNK0	0.000	
17	   C	3.034	-0.739	-1.388	C.3	1	UNK0	0.000	
18	   C	4.092	-1.240	-2.328	C.3	1	UNK0	0.000	
19	   C	5.489	-1.094	-1.801	C.3	1	UNK0	0.000	
20	   C	5.799	0.280	-1.284	C.3	1	UNK0	0.000	
21	   C	4.596	1.197	-1.320	C.3	1	UNK0	0.000	
22	   C	3.456	0.491	-0.620	C.3	1	UNK0	0.000	
23	   C	1.799	-0.500	-2.176	C.2	1	UNK0	0.000	
24	   O	1.715	0.079	-3.285	O.2	1	UNK0	0.000	
25	   C	3.528	-2.556	0.425	C.3	1	UNK0	0.000	
26	   C	-4.001	-0.077	2.226	C.2	1	UNK0	0.000	
27	   S	-2.684	-1.093	1.880	S.3	1	UNK0	0.000	
28	   C	-1.645	-0.641	3.148	C.2	1	UNK0	0.000	
29	   C	-2.364	0.309	3.823	C.2	1	UNK0	0.000	
30	   C	-3.593	0.603	3.341	C.2	1	UNK0	0.000	
31	  Cl	-0.016	-1.235	3.536	Cl	1	UNK0	0.000	
32	   H	-4.974	2.465	0.437	 H	1	UNK0	0.000	
33	   H	-5.032	2.299	-1.363	 H	1	UNK0	0.000	
34	   H	-2.745	1.846	0.587	 H	1	UNK0	0.000	
35	   H	-2.828	2.673	-1.004	 H	1	UNK0	0.000	
36	   H	-3.178	-1.077	-2.289	 H	1	UNK0	0.000	
37	   H	-3.944	0.440	-2.819	 H	1	UNK0	0.000	
38	   H	-4.723	-1.471	-0.595	 H	1	UNK0	0.000	
39	   H	-5.671	-0.684	-1.873	 H	1	UNK0	0.000	
40	   H	-0.869	-0.810	-2.825	 H	1	UNK0	0.000	
41	   H	-1.313	-1.777	-1.410	 H	1	UNK0	0.000	
42	   H	3.929	-2.310	-2.558	 H	1	UNK0	0.000	
43	   H	4.004	-0.658	-3.277	 H	1	UNK0	0.000	
44	   H	6.179	-1.322	-2.655	 H	1	UNK0	0.000	
45	   H	5.680	-1.871	-1.036	 H	1	UNK0	0.000	
46	   H	6.203	0.178	-0.255	 H	1	UNK0	0.000	
47	   H	6.593	0.775	-1.911	 H	1	UNK0	0.000	
48	   H	4.843	2.122	-0.783	 H	1	UNK0	0.000	
49	   H	4.316	1.370	-2.364	 H	1	UNK0	0.000	
50	   H	2.629	1.215	-0.484	 H	1	UNK0	0.000	
51	   H	3.801	0.202	0.395	 H	1	UNK0	0.000	
52	   H	4.299	-1.936	0.925	 H	1	UNK0	0.000	
53	   H	2.923	-3.068	1.179	 H	1	UNK0	0.000	
54	   H	3.955	-3.337	-0.237	 H	1	UNK0	0.000	
55	   H	-1.936	0.809	4.731	 H	1	UNK0	0.000	
56	   H	-4.237	1.374	3.847	 H	1	UNK0	0.000	
@<TRIPOS>BOND
1 1 2 2
2 1 3 2
3 1 4 1
4 1 26 1
5 4 5 1
6 4 9 1
7 5 6 1
8 6 7 1
9 7 8 1
10 7 10 1
11 8 9 1
12 10 11 2
13 10 12 1
14 12 13 1
15 13 14 1
16 13 23 1
17 14 15 2
18 14 16 1
19 16 17 1
20 16 25 1
21 17 18 1
22 17 22 1
23 17 23 1
24 18 19 1
25 19 20 1
26 20 21 1
27 21 22 1
28 23 24 2
29 26 27 1
30 26 30 2
31 27 28 1
32 28 29 2
33 28 31 1
34 29 30 1
35 5 32 1
36 5 33 1
37 6 34 1
38 6 35 1
39 8 36 1
40 8 37 1
41 9 38 1
42 9 39 1
43 12 40 1
44 12 41 1
45 18 42 1
46 18 43 1
47 19 44 1
48 19 45 1
49 20 46 1
50 20 47 1
51 21 48 1
52 21 49 1
53 22 50 1
54 22 51 1
55 25 52 1
56 25 53 1
57 25 54 1
58 29 55 1
59 30 56 1
@<TRIPOS>SUBSTRUCTURE
1	UNK0	1	GROUP	1 ****	UNK
