REMARK  7 active torsions:
REMARK  status: ('A' for Active; 'I' for Inactive)
REMARK    1  A    between atoms: S_1  and  N_4 
REMARK    2  A    between atoms: S_1  and  C_27 
REMARK    3  A    between atoms: N_7  and  C_10 
REMARK    4  A    between atoms: C_10  and  C_11 
REMARK       I    between atoms: C_11  and  N_13 
REMARK    5  A    between atoms: N_13  and  C_14 
REMARK    6  A    between atoms: C_14  and  C_15 
REMARK    7  A    between atoms: C_15  and  N_21 
ROOT
ATOM      1  C   UNK d   1       1.754   0.450  -1.384  0.00  0.00     0.374 C 
ENDROOT
BRANCH   1   2
ATOM      2  N   UNK d   1       2.075   1.278  -2.510  0.00  0.00     0.100 N 
ATOM      3  C   UNK d   1       1.398   2.525  -2.527  0.00  0.00     0.293 C 
ATOM      4  C   UNK d   1       2.276   3.747  -2.502  0.00  0.00     0.165 C 
ATOM      5  N   UNK d   1       3.292   3.600  -1.581  0.00  0.00    -0.303 N 
ATOM      6  C   UNK d   1       4.030   2.413  -1.636  0.00  0.00     0.165 C 
ATOM      7  C   UNK d   1       3.483   1.443  -2.679  0.00  0.00     0.293 C 
BRANCH   5   8
ATOM      8  S   UNK d   1       3.664   4.744  -0.434  0.00  0.00     0.260 S 
ATOM      9  O   UNK d   1       4.813   4.354   0.463  0.00  0.00    -0.200 OA
ATOM     10  O   UNK d   1       4.038   6.094  -1.004  0.00  0.00    -0.200 OA
BRANCH   8  11
ATOM     11  C   UNK d   1       2.286   4.989   0.635  0.00  0.00     0.079 A 
ATOM     12  C   UNK d   1       2.153   4.279   1.796  0.00  0.00     0.027 A 
ATOM     13  C   UNK d   1       1.083   4.466   2.631  0.00  0.00     0.025 A 
ATOM     14  C   UNK d   1       0.122   5.391   2.286  0.00  0.00     0.034 A 
ATOM     15  C   UNK d   1       0.253   6.110   1.113  0.00  0.00     0.025 A 
ATOM     16 Cl   UNK d   1      -1.236   5.607   3.376  0.00  0.00    -0.084 Cl
ATOM     17  C   UNK d   1       1.329   5.915   0.285  0.00  0.00     0.027 A 
ENDBRANCH   8  11
ENDBRANCH   5   8
ENDBRANCH   1   2
BRANCH   1  18
ATOM     18  C   UNK d   1       0.333  -0.031  -1.453  0.00  0.00     0.246 C 
ATOM     19  O   UNK d   1      -0.341   0.336  -2.440  0.00  0.00    -0.272 OA
ATOM     20  N   UNK d   1      -0.214  -0.863  -0.444  0.00  0.00    -0.357 N 
ATOM     21  H   UNK d   1       0.410  -1.138   0.361  0.00  0.00     0.162 HD
BRANCH  20  22
ATOM     22  C   UNK d   1      -1.580  -1.274  -0.591  0.00  0.00     0.164 C 
BRANCH  22  23
ATOM     23  C   UNK d   1      -2.134  -2.135   0.478  0.00  0.00     0.175 C 
ATOM     24  C   UNK d   1      -1.327  -3.407   0.568  0.00  0.00     0.043 C 
ATOM     25  C   UNK d   1      -1.903  -4.521  -0.312  0.00  0.00     0.003 C 
ATOM     26  C   UNK d   1      -3.243  -4.976   0.231  0.00  0.00     0.000 C 
ATOM     27  C   UNK d   1      -3.905  -3.769   0.870  0.00  0.00     0.003 C 
ATOM     28  C   UNK d   1      -3.532  -2.582   0.007  0.00  0.00     0.043 C 
BRANCH  23  29
ATOM     29  N   UNK d   1      -2.311  -1.572   1.761  0.00  0.00     0.103 N 
ATOM     30  C   UNK d   1      -1.163  -1.127   2.468  0.00  0.00     0.299 C 
ATOM     31  C   UNK d   1      -1.598  -0.994   3.939  0.00  0.00     0.198 C 
ATOM     32  O   UNK d   1      -2.575  -0.035   4.057  0.00  0.00    -0.388 OA
ATOM     33  C   UNK d   1      -2.959   0.534   2.869  0.00  0.00     0.198 C 
ATOM     34  C   UNK d   1      -3.300  -0.517   1.812  0.00  0.00     0.299 C 
ENDBRANCH  23  29
ENDBRANCH  22  23
ENDBRANCH  20  22
ENDBRANCH   1  18
TORSDOF 7
