# created with PyMOL 2.3.2
@<TRIPOS>MOLECULE
2298
68 71 1                 
SMALL
USER_CHARGES
@<TRIPOS>ATOM
1	   S	3.664	4.744	-0.434	S.O2	1	UNK0	0.000	
2	   O	4.813	4.354	0.463	O.2	1	UNK0	0.000	
3	   O	4.038	6.094	-1.004	O.2	1	UNK0	0.000	
4	   N	3.292	3.600	-1.581	N.3	1	UNK0	0.000	
5	   C	2.276	3.747	-2.502	C.3	1	UNK0	0.000	
6	   C	1.398	2.525	-2.527	C.3	1	UNK0	0.000	
7	   N	2.075	1.278	-2.510	N.3	1	UNK0	0.000	
8	   C	3.483	1.443	-2.679	C.3	1	UNK0	0.000	
9	   C	4.030	2.413	-1.636	C.3	1	UNK0	0.000	
10	   C	1.754	0.450	-1.384	C.3	1	UNK0	0.000	
11	   C	0.333	-0.031	-1.453	C.2	1	UNK0	0.000	
12	   O	-0.341	0.336	-2.440	O.2	1	UNK0	0.000	
13	   N	-0.214	-0.863	-0.444	N.pl3	1	UNK0	0.000	
14	   C	-1.580	-1.274	-0.591	C.3	1	UNK0	0.000	
15	   C	-2.134	-2.135	0.478	C.3	1	UNK0	0.000	
16	   C	-1.327	-3.407	0.568	C.3	1	UNK0	0.000	
17	   C	-1.903	-4.521	-0.312	C.3	1	UNK0	0.000	
18	   C	-3.243	-4.976	0.231	C.3	1	UNK0	0.000	
19	   C	-3.905	-3.769	0.870	C.3	1	UNK0	0.000	
20	   C	-3.532	-2.582	0.007	C.3	1	UNK0	0.000	
21	   N	-2.311	-1.572	1.761	N.3	1	UNK0	0.000	
22	   C	-1.163	-1.127	2.468	C.3	1	UNK0	0.000	
23	   C	-1.598	-0.994	3.939	C.3	1	UNK0	0.000	
24	   O	-2.575	-0.035	4.057	O.3	1	UNK0	0.000	
25	   C	-2.959	0.534	2.869	C.3	1	UNK0	0.000	
26	   C	-3.300	-0.517	1.812	C.3	1	UNK0	0.000	
27	   C	2.286	4.989	0.635	C.2	1	UNK0	0.000	
28	   C	2.153	4.279	1.796	C.2	1	UNK0	0.000	
29	   C	1.083	4.466	2.631	C.2	1	UNK0	0.000	
30	   C	0.122	5.391	2.286	C.2	1	UNK0	0.000	
31	   C	0.253	6.110	1.113	C.2	1	UNK0	0.000	
32	   C	1.329	5.915	0.285	C.2	1	UNK0	0.000	
33	  Cl	-1.236	5.607	3.376	Cl	1	UNK0	0.000	
34	   H	2.603	3.895	-3.572	 H	1	UNK0	0.000	
35	   H	1.604	4.625	-2.309	 H	1	UNK0	0.000	
36	   H	0.782	2.565	-3.464	 H	1	UNK0	0.000	
37	   H	0.665	2.641	-1.700	 H	1	UNK0	0.000	
38	   H	3.695	1.891	-3.691	 H	1	UNK0	0.000	
39	   H	3.989	0.483	-2.530	 H	1	UNK0	0.000	
40	   H	4.068	1.858	-0.654	 H	1	UNK0	0.000	
41	   H	5.107	2.614	-1.910	 H	1	UNK0	0.000	
42	   H	1.985	0.919	-0.406	 H	1	UNK0	0.000	
43	   H	2.374	-0.469	-1.443	 H	1	UNK0	0.000	
44	   H	0.410	-1.138	0.361	 H	1	UNK0	0.000	
45	   H	-2.181	-0.344	-0.707	 H	1	UNK0	0.000	
46	   H	-1.682	-1.867	-1.551	 H	1	UNK0	0.000	
47	   H	-1.330	-3.830	1.605	 H	1	UNK0	0.000	
48	   H	-0.287	-3.260	0.200	 H	1	UNK0	0.000	
49	   H	-1.201	-5.373	-0.242	 H	1	UNK0	0.000	
50	   H	-1.955	-4.222	-1.373	 H	1	UNK0	0.000	
51	   H	-3.864	-5.328	-0.619	 H	1	UNK0	0.000	
52	   H	-3.076	-5.789	0.941	 H	1	UNK0	0.000	
53	   H	-5.015	-3.882	0.920	 H	1	UNK0	0.000	
54	   H	-3.487	-3.601	1.883	 H	1	UNK0	0.000	
55	   H	-4.281	-1.807	0.146	 H	1	UNK0	0.000	
56	   H	-3.500	-2.832	-1.074	 H	1	UNK0	0.000	
57	   H	-0.334	-1.865	2.499	 H	1	UNK0	0.000	
58	   H	-0.780	-0.126	2.190	 H	1	UNK0	0.000	
59	   H	-2.076	-1.983	4.188	 H	1	UNK0	0.000	
60	   H	-0.729	-0.836	4.581	 H	1	UNK0	0.000	
61	   H	-2.226	1.280	2.462	 H	1	UNK0	0.000	
62	   H	-3.902	1.115	3.028	 H	1	UNK0	0.000	
63	   H	-4.274	-0.959	2.097	 H	1	UNK0	0.000	
64	   H	-3.418	0.038	0.865	 H	1	UNK0	0.000	
65	   H	2.911	3.536	2.087	 H	1	UNK0	0.000	
66	   H	0.988	3.892	3.554	 H	1	UNK0	0.000	
67	   H	-0.516	6.840	0.853	 H	1	UNK0	0.000	
68	   H	1.409	6.495	-0.637	 H	1	UNK0	0.000	
@<TRIPOS>BOND
1 1 2 2
2 1 3 2
3 1 4 1
4 1 27 1
5 4 5 1
6 4 9 1
7 5 6 1
8 6 7 1
9 7 8 1
10 7 10 1
11 8 9 1
12 10 11 1
13 11 12 2
14 11 13 1
15 13 14 1
16 14 15 1
17 15 16 1
18 15 20 1
19 15 21 1
20 16 17 1
21 17 18 1
22 18 19 1
23 19 20 1
24 21 22 1
25 21 26 1
26 22 23 1
27 23 24 1
28 24 25 1
29 25 26 1
30 27 28 2
31 27 32 1
32 28 29 1
33 29 30 2
34 30 31 1
35 30 33 1
36 31 32 2
37 5 34 1
38 5 35 1
39 6 36 1
40 6 37 1
41 8 38 1
42 8 39 1
43 9 40 1
44 9 41 1
45 10 42 1
46 10 43 1
47 13 44 1
48 14 45 1
49 14 46 1
50 16 47 1
51 16 48 1
52 17 49 1
53 17 50 1
54 18 51 1
55 18 52 1
56 19 53 1
57 19 54 1
58 20 55 1
59 20 56 1
60 22 57 1
61 22 58 1
62 23 59 1
63 23 60 1
64 25 61 1
65 25 62 1
66 26 63 1
67 26 64 1
68 28 65 1
69 29 66 1
70 31 67 1
71 32 68 1
@<TRIPOS>SUBSTRUCTURE
1	UNK0	1	GROUP	1 ****	UNK
