# created with PyMOL 2.3.2
@<TRIPOS>MOLECULE
2301
38 41 1                 
SMALL
USER_CHARGES
@<TRIPOS>ATOM
1	  Cl	-1.327	-5.979	0.541	Cl	1	UNK0	0.000	
2	   C	-0.654	-4.397	0.206	C.2	1	UNK0	0.000	
3	   C	-1.240	-3.521	-0.698	C.2	1	UNK0	0.000	
4	   C	-0.739	-2.283	-0.991	C.2	1	UNK0	0.000	
5	   C	0.401	-1.855	-0.374	C.2	1	UNK0	0.000	
6	   C	1.012	-2.711	0.541	C.2	1	UNK0	0.000	
7	   C	0.491	-3.959	0.823	C.2	1	UNK0	0.000	
8	   C	1.057	-0.554	-0.584	C.3	1	UNK0	0.000	
9	   C	1.197	0.152	0.724	C.3	1	UNK0	0.000	
10	   C	-0.140	0.792	1.137	C.3	1	UNK0	0.000	
11	   N	-0.348	1.807	0.094	N.pl3	1	UNK0	0.000	
12	   C	-0.574	1.276	-1.213	C.3	1	UNK0	0.000	
13	   C	0.469	0.290	-1.652	C.3	1	UNK0	0.000	
14	   C	-0.307	3.175	0.456	C.2	1	UNK0	0.000	
15	   N	-0.201	3.515	1.752	N.2	1	UNK0	0.000	
16	   N	-0.142	4.749	2.213	N.pl3	1	UNK0	0.000	
17	   N	-0.034	5.302	3.424	N.2	1	UNK0	0.000	
18	   N	-0.016	6.613	3.334	N.2	1	UNK0	0.000	
19	   N	-0.109	6.919	2.069	N.2	1	UNK0	0.000	
20	   C	-0.189	5.768	1.357	C.2	1	UNK0	0.000	
21	   C	-0.298	5.496	0.004	C.2	1	UNK0	0.000	
22	   C	-0.359	4.199	-0.460	C.2	1	UNK0	0.000	
23	   O	2.378	-0.880	-0.985	O.3	1	UNK0	0.000	
24	   H	-2.137	-3.835	-1.203	 H	1	UNK0	0.000	
25	   H	-1.201	-1.599	-1.692	 H	1	UNK0	0.000	
26	   H	1.912	-2.457	1.072	 H	1	UNK0	0.000	
27	   H	0.991	-4.631	1.548	 H	1	UNK0	0.000	
28	   H	1.480	-0.544	1.540	 H	1	UNK0	0.000	
29	   H	1.940	0.967	0.710	 H	1	UNK0	0.000	
30	   H	-0.051	1.249	2.132	 H	1	UNK0	0.000	
31	   H	-0.981	0.089	1.058	 H	1	UNK0	0.000	
32	   H	-1.557	0.716	-1.168	 H	1	UNK0	0.000	
33	   H	-0.690	2.060	-1.985	 H	1	UNK0	0.000	
34	   H	1.308	0.922	-2.080	 H	1	UNK0	0.000	
35	   H	0.101	-0.289	-2.510	 H	1	UNK0	0.000	
36	   H	-0.333	6.345	-0.657	 H	1	UNK0	0.000	
37	   H	-0.444	3.987	-1.511	 H	1	UNK0	0.000	
38	   H	2.748	-0.064	-1.444	 H	1	UNK0	0.000	
@<TRIPOS>BOND
1 1 2 1
2 2 3 2
3 2 7 1
4 3 4 1
5 4 5 2
6 5 6 1
7 5 8 1
8 6 7 2
9 8 9 1
10 8 13 1
11 8 23 1
12 9 10 1
13 10 11 1
14 11 12 1
15 11 14 1
16 12 13 1
17 14 15 2
18 14 22 1
19 15 16 1
20 16 17 1
21 16 20 1
22 17 18 2
23 18 19 1
24 19 20 2
25 20 21 1
26 21 22 2
27 3 24 1
28 4 25 1
29 6 26 1
30 7 27 1
31 9 28 1
32 9 29 1
33 10 30 1
34 10 31 1
35 12 32 1
36 12 33 1
37 13 34 1
38 13 35 1
39 21 36 1
40 22 37 1
41 23 38 1
@<TRIPOS>SUBSTRUCTURE
1	UNK0	1	GROUP	1 ****	UNK
