REMARK  3 active torsions:
REMARK  status: ('A' for Active; 'I' for Inactive)
REMARK    1  A    between atoms: C_5  and  C_8 
REMARK    2  A    between atoms: C_8  and  O_23 
REMARK    3  A    between atoms: N_11  and  C_14 
ROOT
ATOM      1  C   UNK d   1       1.057  -0.554  -0.584  0.00  0.00     0.088 C 
ATOM      2  C   UNK d   1       1.197   0.152   0.724  0.00  0.00     0.062 C 
ATOM      3  C   UNK d   1      -0.140   0.792   1.137  0.00  0.00     0.128 C 
ATOM      4  N   UNK d   1      -0.348   1.807   0.094  0.00  0.00    -0.364 N 
ATOM      5  C   UNK d   1      -0.574   1.276  -1.213  0.00  0.00     0.128 C 
ATOM      6  C   UNK d   1       0.469   0.290  -1.652  0.00  0.00     0.062 C 
ENDROOT
BRANCH   1   7
ATOM      7  C   UNK d   1       0.401  -1.855  -0.374  0.00  0.00    -0.024 A 
ATOM      8  C   UNK d   1      -0.739  -2.283  -0.991  0.00  0.00     0.012 A 
ATOM      9  C   UNK d   1      -1.240  -3.521  -0.698  0.00  0.00     0.024 A 
ATOM     10  C   UNK d   1      -0.654  -4.397   0.206  0.00  0.00     0.034 A 
ATOM     11 Cl   UNK d   1      -1.327  -5.979   0.541  0.00  0.00    -0.084 Cl
ATOM     12  C   UNK d   1       0.491  -3.959   0.823  0.00  0.00     0.024 A 
ATOM     13  C   UNK d   1       1.012  -2.711   0.541  0.00  0.00     0.012 A 
ENDBRANCH   1   7
BRANCH   1  14
ATOM     14  O   UNK d   1       2.378  -0.880  -0.985  0.00  0.00    -0.385 OA
ATOM     15  H   UNK d   1       2.748  -0.064  -1.444  0.00  0.00     0.211 HD
ENDBRANCH   1  14
BRANCH   4  16
ATOM     16  C   UNK d   1      -0.307   3.175   0.456  0.00  0.00     0.148 A 
ATOM     17  N   UNK d   1      -0.201   3.515   1.752  0.00  0.00    -0.129 NA
ATOM     18  N   UNK d   1      -0.142   4.749   2.213  0.00  0.00    -0.108 N 
ATOM     19  N   UNK d   1      -0.034   5.302   3.424  0.00  0.00    -0.021 NA
ATOM     20  C   UNK d   1      -0.189   5.768   1.357  0.00  0.00     0.196 A 
ATOM     21  N   UNK d   1      -0.016   6.613   3.334  0.00  0.00    -0.021 NA
ATOM     22  N   UNK d   1      -0.109   6.919   2.069  0.00  0.00    -0.107 NA
ATOM     23  C   UNK d   1      -0.298   5.496   0.004  0.00  0.00     0.060 A 
ATOM     24  C   UNK d   1      -0.359   4.199  -0.460  0.00  0.00     0.056 A 
ENDBRANCH   4  16
TORSDOF 3
