# created with PyMOL 2.3.2
@<TRIPOS>MOLECULE
2304
50 53 1                 
SMALL
USER_CHARGES
@<TRIPOS>ATOM
1	   S	2.492	1.093	3.736	S.O2	1	UNK0	0.000	
2	   O	3.869	1.570	3.396	O.2	1	UNK0	0.000	
3	   O	2.239	1.488	5.170	O.2	1	UNK0	0.000	
4	   N	1.328	1.849	2.760	N.3	1	UNK0	0.000	
5	   C	-0.020	1.588	3.096	C.3	1	UNK0	0.000	
6	   C	-0.999	1.742	1.962	C.3	1	UNK0	0.000	
7	   N	-0.523	1.187	0.726	N.pl3	1	UNK0	0.000	
8	   C	0.871	0.825	0.666	C.3	1	UNK0	0.000	
9	   C	1.643	1.933	1.377	C.3	1	UNK0	0.000	
10	   C	-1.401	1.023	-0.358	C.2	1	UNK0	0.000	
11	   O	-2.599	1.389	-0.192	O.2	1	UNK0	0.000	
12	   C	-1.009	0.450	-1.675	C.3	1	UNK0	0.000	
13	   N	-2.081	0.475	-2.601	N.pl3	1	UNK0	0.000	
14	   C	-2.932	-0.670	-2.622	C.3	1	UNK0	0.000	
15	   S	-1.810	-2.009	-2.169	S.3	1	UNK0	0.000	
16	   C	-0.452	-0.937	-1.553	C.3	1	UNK0	0.000	
17	   C	-3.243	-0.828	-4.098	C.3	1	UNK0	0.000	
18	   C	-3.591	0.630	-4.426	C.3	1	UNK0	0.000	
19	   C	-2.630	1.361	-3.604	C.2	1	UNK0	0.000	
20	   O	-2.348	2.585	-3.776	O.2	1	UNK0	0.000	
21	   C	-4.151	-0.597	-1.792	C.3	1	UNK0	0.000	
22	   C	2.403	-0.665	3.677	C.2	1	UNK0	0.000	
23	   C	1.607	-1.355	4.564	C.2	1	UNK0	0.000	
24	   C	1.516	-2.727	4.546	C.2	1	UNK0	0.000	
25	   C	2.225	-3.482	3.629	C.2	1	UNK0	0.000	
26	   C	3.016	-2.760	2.751	C.2	1	UNK0	0.000	
27	   C	3.116	-1.391	2.757	C.2	1	UNK0	0.000	
28	  Cl	2.133	-5.230	3.578	Cl	1	UNK0	0.000	
29	   H	-0.322	2.190	3.977	 H	1	UNK0	0.000	
30	   H	-0.090	0.514	3.425	 H	1	UNK0	0.000	
31	   H	-1.255	2.822	1.893	 H	1	UNK0	0.000	
32	   H	-1.969	1.246	2.260	 H	1	UNK0	0.000	
33	   H	1.239	0.686	-0.367	 H	1	UNK0	0.000	
34	   H	0.988	-0.113	1.258	 H	1	UNK0	0.000	
35	   H	1.433	2.907	0.931	 H	1	UNK0	0.000	
36	   H	2.744	1.758	1.261	 H	1	UNK0	0.000	
37	   H	-0.163	1.073	-2.037	 H	1	UNK0	0.000	
38	   H	0.422	-1.133	-2.195	 H	1	UNK0	0.000	
39	   H	-0.176	-1.227	-0.519	 H	1	UNK0	0.000	
40	   H	-2.290	-1.130	-4.587	 H	1	UNK0	0.000	
41	   H	-4.076	-1.502	-4.291	 H	1	UNK0	0.000	
42	   H	-3.418	0.784	-5.520	 H	1	UNK0	0.000	
43	   H	-4.624	0.809	-4.114	 H	1	UNK0	0.000	
44	   H	-4.930	-1.270	-2.260	 H	1	UNK0	0.000	
45	   H	-4.015	-1.027	-0.763	 H	1	UNK0	0.000	
46	   H	-4.620	0.404	-1.770	 H	1	UNK0	0.000	
47	   H	1.038	-0.772	5.298	 H	1	UNK0	0.000	
48	   H	0.881	-3.260	5.255	 H	1	UNK0	0.000	
49	   H	3.567	-3.381	2.036	 H	1	UNK0	0.000	
50	   H	3.750	-0.904	2.045	 H	1	UNK0	0.000	
@<TRIPOS>BOND
1 1 2 2
2 1 3 2
3 1 4 1
4 1 22 1
5 4 5 1
6 4 9 1
7 5 6 1
8 6 7 1
9 7 8 1
10 7 10 1
11 8 9 1
12 10 11 2
13 10 12 1
14 12 13 1
15 12 16 1
16 13 14 1
17 13 19 1
18 14 15 1
19 14 17 1
20 14 21 1
21 15 16 1
22 17 18 1
23 18 19 1
24 19 20 2
25 22 23 2
26 22 27 1
27 23 24 1
28 24 25 2
29 25 26 1
30 25 28 1
31 26 27 2
32 5 29 1
33 5 30 1
34 6 31 1
35 6 32 1
36 8 33 1
37 8 34 1
38 9 35 1
39 9 36 1
40 12 37 1
41 16 38 1
42 16 39 1
43 17 40 1
44 17 41 1
45 18 42 1
46 18 43 1
47 21 44 1
48 21 45 1
49 21 46 1
50 23 47 1
51 24 48 1
52 26 49 1
53 27 50 1
@<TRIPOS>SUBSTRUCTURE
1	UNK0	1	GROUP	1 ****	UNK
