REMARK  3 active torsions:
REMARK  status: ('A' for Active; 'I' for Inactive)
REMARK    1  A    between atoms: S_1  and  N_4 
REMARK    2  A    between atoms: S_1  and  C_22 
REMARK       I    between atoms: N_7  and  C_10 
REMARK    3  A    between atoms: C_10  and  C_12 
ROOT
ATOM      1  N   UNK d   1       1.328   1.849   2.760  0.00  0.00    -0.304 N 
ATOM      2  C   UNK d   1      -0.020   1.588   3.096  0.00  0.00     0.155 C 
ATOM      3  C   UNK d   1      -0.999   1.742   1.962  0.00  0.00     0.146 C 
ATOM      4  N   UNK d   1      -0.523   1.187   0.726  0.00  0.00    -0.347 N 
ATOM      5  C   UNK d   1       0.871   0.825   0.666  0.00  0.00     0.146 C 
ATOM      6  C   UNK d   1       1.643   1.933   1.377  0.00  0.00     0.155 C 
ATOM      7  C   UNK d   1      -1.401   1.023  -0.358  0.00  0.00     0.243 C 
ATOM      8  O   UNK d   1      -2.599   1.389  -0.192  0.00  0.00    -0.271 OA
ENDROOT
BRANCH   7   9
ATOM      9  C   UNK d   1      -1.009   0.450  -1.675  0.00  0.00     0.190 C 
ATOM     10  N   UNK d   1      -2.081   0.475  -2.601  0.00  0.00    -0.320 N 
ATOM     11  C   UNK d   1      -2.932  -0.670  -2.622  0.00  0.00     0.081 C 
ATOM     12  C   UNK d   1      -2.630   1.361  -3.604  0.00  0.00     0.222 C 
ATOM     13  S   UNK d   1      -1.810  -2.009  -2.169  0.00  0.00    -0.135 SA
ATOM     14  C   UNK d   1      -3.243  -0.828  -4.098  0.00  0.00     0.051 C 
ATOM     15  C   UNK d   1      -4.151  -0.597  -1.792  0.00  0.00     0.051 C 
ATOM     16  C   UNK d   1      -0.452  -0.937  -1.553  0.00  0.00     0.111 C 
ATOM     17  C   UNK d   1      -3.591   0.630  -4.426  0.00  0.00     0.106 C 
ATOM     18  O   UNK d   1      -2.348   2.585  -3.776  0.00  0.00    -0.273 OA
ENDBRANCH   7   9
BRANCH   1  19
ATOM     19  S   UNK d   1       2.492   1.093   3.736  0.00  0.00     0.260 S 
ATOM     20  O   UNK d   1       3.869   1.570   3.396  0.00  0.00    -0.200 OA
ATOM     21  O   UNK d   1       2.239   1.488   5.170  0.00  0.00    -0.200 OA
BRANCH  19  22
ATOM     22  C   UNK d   1       2.403  -0.665   3.677  0.00  0.00     0.079 A 
ATOM     23  C   UNK d   1       1.607  -1.355   4.564  0.00  0.00     0.027 A 
ATOM     24  C   UNK d   1       1.516  -2.727   4.546  0.00  0.00     0.025 A 
ATOM     25  C   UNK d   1       2.225  -3.482   3.629  0.00  0.00     0.034 A 
ATOM     26  C   UNK d   1       3.016  -2.760   2.751  0.00  0.00     0.025 A 
ATOM     27 Cl   UNK d   1       2.133  -5.230   3.578  0.00  0.00    -0.084 Cl
ATOM     28  C   UNK d   1       3.116  -1.391   2.757  0.00  0.00     0.027 A 
ENDBRANCH  19  22
ENDBRANCH   1  19
TORSDOF 3
