REMARK  4 active torsions:
REMARK  status: ('A' for Active; 'I' for Inactive)
REMARK    1  A    between atoms: N_10  and  N_11 
REMARK       I    between atoms: N_11  and  C_12 
REMARK    2  A    between atoms: C_12  and  C_14 
REMARK    3  A    between atoms: C_14  and  N_15 
REMARK       I    between atoms: N_15  and  C_16 
REMARK    4  A    between atoms: C_16  and  C_18 
ROOT
ATOM      1  N   UNK d   1       0.085   2.489  -1.688  0.00  0.00    -0.245 N 
ATOM      2  C   UNK d   1       0.407   1.505  -0.727  0.00  0.00     0.255 C 
ATOM      3  O   UNK d   1      -0.372   0.554  -0.509  0.00  0.00    -0.270 OA
ATOM      4  H   UNK d   1       0.686   3.308  -1.921  0.00  0.00     0.192 HD
ENDROOT
BRANCH   2   5
ATOM      5  C   UNK d   1       1.675   1.547   0.068  0.00  0.00     0.227 C 
BRANCH   5   6
ATOM      6  N   UNK d   1       1.772   0.444   0.984  0.00  0.00    -0.350 N 
ATOM      7  C   UNK d   1       0.820   0.209   2.013  0.00  0.00     0.249 C 
ATOM      8  O   UNK d   1      -0.143   0.999   2.122  0.00  0.00    -0.271 OA
ATOM      9  H   UNK d   1       2.561  -0.242   0.927  0.00  0.00     0.163 HD
BRANCH   7  10
ATOM     10  C   UNK d   1       0.909  -0.931   2.974  0.00  0.00     0.244 C 
ATOM     11  O   UNK d   1       2.033  -1.726   2.738  0.00  0.00    -0.331 OA
ATOM     12  C   UNK d   1       1.999  -3.022   2.228  0.00  0.00     0.103 A 
ATOM     13  C   UNK d   1       0.805  -3.689   2.306  0.00  0.00     0.102 A 
ATOM     14  C   UNK d   1       3.084  -3.631   1.672  0.00  0.00     0.040 A 
ATOM     15  C   UNK d   1       0.742  -4.989   1.804  0.00  0.00     0.039 A 
ATOM     16  O   UNK d   1      -0.281  -3.074   2.865  0.00  0.00    -0.345 OA
ATOM     17  C   UNK d   1       1.829  -5.617   1.240  0.00  0.00     0.003 A 
ATOM     18  C   UNK d   1       3.016  -4.913   1.179  0.00  0.00     0.003 A 
ATOM     19  C   UNK d   1      -0.366  -1.692   3.078  0.00  0.00     0.218 C 
ENDBRANCH   7  10
ENDBRANCH   5   6
ENDBRANCH   2   5
BRANCH   1  20
ATOM     20  N   UNK d   1      -1.125   2.363  -2.377  0.00  0.00    -0.166 NA
ATOM     21  C   UNK d   1      -2.241   2.769  -1.899  0.00  0.00     0.157 A 
ATOM     22  C   UNK d   1      -3.580   2.720  -2.467  0.00  0.00     0.029 A 
ATOM     23  C   UNK d   1      -2.391   3.408  -0.587  0.00  0.00     0.277 A 
ATOM     24  C   UNK d   1      -4.508   3.276  -1.603  0.00  0.00     0.065 A 
ATOM     25  C   UNK d   1      -4.066   2.236  -3.662  0.00  0.00     0.035 A 
ATOM     26  C   UNK d   1      -5.851   3.346  -1.912  0.00  0.00     0.040 A 
ATOM     27  N   UNK d   1      -3.770   3.692  -0.459  0.00  0.00    -0.320 N 
ATOM     28 Br   UNK d   1      -7.122   4.115  -0.705  0.00  0.00    -0.049 Br
ATOM     29  C   UNK d   1      -6.314   2.848  -3.130  0.00  0.00     0.040 A 
ATOM     30  C   UNK d   1      -5.398   2.289  -4.006  0.00  0.00     0.013 A 
ATOM     31 Br   UNK d   1      -6.007   1.598  -5.681  0.00  0.00    -0.051 Br
ATOM     32  H   UNK d   1      -4.195   4.148   0.366  0.00  0.00     0.169 HD
ATOM     33  O   UNK d   1      -1.433   3.623   0.203  0.00  0.00    -0.266 OA
ENDBRANCH   1  20
TORSDOF 4
