# created with PyMOL 2.3.2
@<TRIPOS>MOLECULE
2319
44 47 1                 
SMALL
USER_CHARGES
@<TRIPOS>ATOM
1	  Br	-7.122	4.115	-0.705	Br	1	UNK0	0.000	
2	   C	-5.851	3.346	-1.912	C.2	1	UNK0	0.000	
3	   C	-4.508	3.276	-1.603	C.2	1	UNK0	0.000	
4	   C	-3.580	2.720	-2.467	C.2	1	UNK0	0.000	
5	   C	-4.066	2.236	-3.662	C.2	1	UNK0	0.000	
6	   C	-5.398	2.289	-4.006	C.2	1	UNK0	0.000	
7	   C	-6.314	2.848	-3.130	C.2	1	UNK0	0.000	
8	  Br	-6.007	1.598	-5.681	Br	1	UNK0	0.000	
9	   C	-2.241	2.769	-1.899	C.2	1	UNK0	0.000	
10	   N	-1.125	2.363	-2.377	N.2	1	UNK0	0.000	
11	   N	0.085	2.489	-1.688	N.pl3	1	UNK0	0.000	
12	   C	0.407	1.505	-0.727	C.2	1	UNK0	0.000	
13	   O	-0.372	0.554	-0.509	O.2	1	UNK0	0.000	
14	   C	1.675	1.547	0.068	C.3	1	UNK0	0.000	
15	   N	1.772	0.444	0.984	N.pl3	1	UNK0	0.000	
16	   C	0.820	0.209	2.013	C.2	1	UNK0	0.000	
17	   O	-0.143	0.999	2.122	O.2	1	UNK0	0.000	
18	   C	0.909	-0.931	2.974	C.3	1	UNK0	0.000	
19	   O	2.033	-1.726	2.738	O.3	1	UNK0	0.000	
20	   C	1.999	-3.022	2.228	C.2	1	UNK0	0.000	
21	   C	0.805	-3.689	2.306	C.2	1	UNK0	0.000	
22	   C	0.742	-4.989	1.804	C.2	1	UNK0	0.000	
23	   C	1.829	-5.617	1.240	C.2	1	UNK0	0.000	
24	   C	3.016	-4.913	1.179	C.2	1	UNK0	0.000	
25	   C	3.084	-3.631	1.672	C.2	1	UNK0	0.000	
26	   O	-0.281	-3.074	2.865	O.3	1	UNK0	0.000	
27	   C	-0.366	-1.692	3.078	C.3	1	UNK0	0.000	
28	   C	-2.391	3.408	-0.587	C.2	1	UNK0	0.000	
29	   O	-1.433	3.623	0.203	O.2	1	UNK0	0.000	
30	   N	-3.770	3.692	-0.459	N.pl3	1	UNK0	0.000	
31	   H	-3.382	1.795	-4.367	 H	1	UNK0	0.000	
32	   H	-7.350	2.898	-3.375	 H	1	UNK0	0.000	
33	   H	0.686	3.308	-1.921	 H	1	UNK0	0.000	
34	   H	2.496	1.460	-0.677	 H	1	UNK0	0.000	
35	   H	1.800	2.531	0.572	 H	1	UNK0	0.000	
36	   H	2.561	-0.242	0.927	 H	1	UNK0	0.000	
37	   H	1.096	-0.433	3.971	 H	1	UNK0	0.000	
38	   H	-0.212	-5.496	1.877	 H	1	UNK0	0.000	
39	   H	1.737	-6.624	0.863	 H	1	UNK0	0.000	
40	   H	3.884	-5.422	0.725	 H	1	UNK0	0.000	
41	   H	4.026	-3.103	1.613	 H	1	UNK0	0.000	
42	   H	-0.844	-1.521	4.092	 H	1	UNK0	0.000	
43	   H	-1.096	-1.292	2.336	 H	1	UNK0	0.000	
44	   H	-4.195	4.148	0.366	 H	1	UNK0	0.000	
@<TRIPOS>BOND
1 1 2 1
2 2 3 2
3 2 7 1
4 3 4 1
5 3 30 1
6 4 5 2
7 4 9 1
8 5 6 1
9 6 7 2
10 6 8 1
11 9 10 2
12 9 28 1
13 10 11 1
14 11 12 1
15 12 13 2
16 12 14 1
17 14 15 1
18 15 16 1
19 16 17 2
20 16 18 1
21 18 19 1
22 18 27 1
23 19 20 1
24 20 21 2
25 20 25 1
26 21 22 1
27 21 26 1
28 22 23 2
29 23 24 1
30 24 25 2
31 26 27 1
32 28 29 2
33 28 30 1
34 5 31 1
35 7 32 1
36 11 33 1
37 14 34 1
38 14 35 1
39 15 36 1
40 18 37 1
41 22 38 1
42 23 39 1
43 24 40 1
44 25 41 1
45 27 42 1
46 27 43 1
47 30 44 1
@<TRIPOS>SUBSTRUCTURE
1	UNK0	1	GROUP	1 ****	UNK
