REMARK  5 active torsions:
REMARK  status: ('A' for Active; 'I' for Inactive)
REMARK    1  A    between atoms: C_3  and  C_13 
REMARK    2  A    between atoms: C_5  and  C_8 
REMARK       I    between atoms: C_13  and  N_15 
REMARK    3  A    between atoms: N_15  and  C_16 
REMARK    4  A    between atoms: C_16  and  C_17 
REMARK    5  A    between atoms: C_17  and  C_18 
ROOT
ATOM      1  C   UNK d   1      -1.029  -0.212  -0.227  0.00  0.00     0.253 C 
ATOM      2  O   UNK d   1      -0.206  -1.140  -0.400  0.00  0.00    -0.268 OA
ATOM      3  N   UNK d   1      -1.371   0.609  -1.303  0.00  0.00    -0.356 N 
ATOM      4  H   UNK d   1      -2.097   1.370  -1.048  0.00  0.00     0.162 HD
ENDROOT
BRANCH   1   5
ATOM      5  C   UNK d   1      -1.588  -0.052   1.128  0.00  0.00     0.054 A 
ATOM      6  C   UNK d   1      -2.741  -0.698   1.523  0.00  0.00     0.049 A 
ATOM      7 Cl   UNK d   1      -3.536  -1.734   0.347  0.00  0.00    -0.083 Cl
ATOM      8  C   UNK d   1      -3.269  -0.546   2.803  0.00  0.00     0.026 A 
ATOM      9  C   UNK d   1      -2.620   0.271   3.691  0.00  0.00     0.017 A 
ATOM     10  C   UNK d   1      -1.447   0.948   3.339  0.00  0.00     0.016 A 
ATOM     11  C   UNK d   1      -0.980   0.756   2.065  0.00  0.00     0.034 A 
BRANCH  10  12
ATOM     12  C   UNK d   1      -0.789   1.807   4.313  0.00  0.00     0.197 A 
ATOM     13  N   UNK d   1      -1.133   2.080   5.575  0.00  0.00    -0.139 NA
ATOM     14  N   UNK d   1      -0.231   2.925   6.100  0.00  0.00    -0.200 N 
ATOM     15  N   UNK d   1       0.677   3.185   5.176  0.00  0.00     0.022 NA
ATOM     16  H   UNK d   1      -0.229   3.321   7.068  0.00  0.00     0.208 HD
ATOM     17  N   UNK d   1       0.337   2.500   4.082  0.00  0.00    -0.136 NA
ENDBRANCH  10  12
ENDBRANCH   1   5
BRANCH   3  18
ATOM     18  C   UNK d   1      -0.937   0.614  -2.640  0.00  0.00     0.130 C 
BRANCH  18  19
ATOM     19  C   UNK d   1       0.462   0.900  -2.983  0.00  0.00     0.100 C 
BRANCH  19  20
ATOM     20  C   UNK d   1       1.525   0.056  -2.444  0.00  0.00     0.136 A 
ATOM     21  N   UNK d   1       1.995  -1.090  -2.948  0.00  0.00    -0.292 N 
ATOM     22  C   UNK d   1       2.985  -1.509  -2.176  0.00  0.00     0.157 A 
ATOM     23  C   UNK d   1       1.632  -1.805  -4.031  0.00  0.00     0.100 A 
ATOM     24  N   UNK d   1       3.133  -0.620  -1.185  0.00  0.00    -0.130 NA
ATOM     25  C   UNK d   1       3.682  -2.671  -2.430  0.00  0.00     0.053 A 
ATOM     26  N   UNK d   1       2.248   0.325  -1.351  0.00  0.00    -0.134 NA
ATOM     27  C   UNK d   1       3.309  -3.405  -3.541  0.00  0.00     0.005 A 
ATOM     28  C   UNK d   1       2.284  -2.964  -4.333  0.00  0.00     0.018 A 
ENDBRANCH  19  20
ENDBRANCH  18  19
ENDBRANCH   3  18
TORSDOF 5
