# created with PyMOL 2.3.2
@<TRIPOS>MOLECULE
2330
39 42 1                 
SMALL
USER_CHARGES
@<TRIPOS>ATOM
1	  Cl	-3.536	-1.734	0.347	Cl	1	UNK0	0.000	
2	   C	-2.741	-0.698	1.523	C.2	1	UNK0	0.000	
3	   C	-1.588	-0.052	1.128	C.2	1	UNK0	0.000	
4	   C	-0.980	0.756	2.065	C.2	1	UNK0	0.000	
5	   C	-1.447	0.948	3.339	C.2	1	UNK0	0.000	
6	   C	-2.620	0.271	3.691	C.2	1	UNK0	0.000	
7	   C	-3.269	-0.546	2.803	C.2	1	UNK0	0.000	
8	   C	-0.789	1.807	4.313	C.2	1	UNK0	0.000	
9	   N	-1.133	2.080	5.575	N.2	1	UNK0	0.000	
10	   N	-0.231	2.925	6.100	N.pl3	1	UNK0	0.000	
11	   N	0.677	3.185	5.176	N.2	1	UNK0	0.000	
12	   N	0.337	2.500	4.082	N.2	1	UNK0	0.000	
13	   C	-1.029	-0.212	-0.227	C.2	1	UNK0	0.000	
14	   O	-0.206	-1.140	-0.400	O.2	1	UNK0	0.000	
15	   N	-1.371	0.609	-1.303	N.pl3	1	UNK0	0.000	
16	   C	-0.937	0.614	-2.640	C.3	1	UNK0	0.000	
17	   C	0.462	0.900	-2.983	C.3	1	UNK0	0.000	
18	   C	1.525	0.056	-2.444	C.2	1	UNK0	0.000	
19	   N	1.995	-1.090	-2.948	N.pl3	1	UNK0	0.000	
20	   C	2.985	-1.509	-2.176	C.2	1	UNK0	0.000	
21	   N	3.133	-0.620	-1.185	N.2	1	UNK0	0.000	
22	   N	2.248	0.325	-1.351	N.2	1	UNK0	0.000	
23	   C	3.682	-2.671	-2.430	C.2	1	UNK0	0.000	
24	   C	3.309	-3.405	-3.541	C.2	1	UNK0	0.000	
25	   C	2.284	-2.964	-4.333	C.2	1	UNK0	0.000	
26	   C	1.632	-1.805	-4.031	C.2	1	UNK0	0.000	
27	   H	-0.077	1.264	1.758	 H	1	UNK0	0.000	
28	   H	-2.979	0.434	4.709	 H	1	UNK0	0.000	
29	   H	-4.174	-1.060	3.096	 H	1	UNK0	0.000	
30	   H	-0.229	3.321	7.068	 H	1	UNK0	0.000	
31	   H	-2.097	1.370	-1.048	 H	1	UNK0	0.000	
32	   H	-1.204	-0.396	-3.115	 H	1	UNK0	0.000	
33	   H	-1.592	1.302	-3.266	 H	1	UNK0	0.000	
34	   H	0.687	2.001	-2.780	 H	1	UNK0	0.000	
35	   H	0.584	0.874	-4.117	 H	1	UNK0	0.000	
36	   H	4.474	-2.977	-1.785	 H	1	UNK0	0.000	
37	   H	3.812	-4.314	-3.789	 H	1	UNK0	0.000	
38	   H	1.970	-3.513	-5.205	 H	1	UNK0	0.000	
39	   H	0.814	-1.426	-4.638	 H	1	UNK0	0.000	
@<TRIPOS>BOND
1 1 2 1
2 2 3 2
3 2 7 1
4 3 4 1
5 3 13 1
6 4 5 2
7 5 6 1
8 5 8 1
9 6 7 2
10 8 9 2
11 8 12 1
12 9 10 1
13 10 11 1
14 11 12 2
15 13 14 2
16 13 15 1
17 15 16 1
18 16 17 1
19 17 18 1
20 18 19 1
21 18 22 2
22 19 20 1
23 19 26 1
24 20 21 2
25 20 23 1
26 21 22 1
27 23 24 2
28 24 25 1
29 25 26 2
30 4 27 1
31 6 28 1
32 7 29 1
33 10 30 1
34 15 31 1
35 16 32 1
36 16 33 1
37 17 34 1
38 17 35 1
39 23 36 1
40 24 37 1
41 25 38 1
42 26 39 1
@<TRIPOS>SUBSTRUCTURE
1	UNK0	1	GROUP	1 ****	UNK
