REMARK  4 active torsions:
REMARK  status: ('A' for Active; 'I' for Inactive)
REMARK    1  A    between atoms: S_1  and  N_4 
REMARK    2  A    between atoms: S_1  and  C_18 
REMARK    3  A    between atoms: C_6  and  C_10 
REMARK       I    between atoms: C_10  and  N_12 
REMARK    4  A    between atoms: C_22  and  C_24 
ROOT
ATOM      1  S   UNK d   1      -0.674   1.993  -1.166  0.00  0.00     0.245 S 
ATOM      2  O   UNK d   1      -1.894   2.757  -0.646  0.00  0.00    -0.206 OA
ATOM      3  O   UNK d   1      -0.261   2.766  -2.424  0.00  0.00    -0.206 OA
ENDROOT
BRANCH   1   4
ATOM      4  N   UNK d   1       0.525   2.133   0.023  0.00  0.00    -0.206 NA
ATOM      5  C   UNK d   1       1.797   1.583  -0.285  0.00  0.00     0.121 C 
ATOM      6  C   UNK d   1       2.815   1.780   0.814  0.00  0.00     0.092 C 
ATOM      7  C   UNK d   1       2.940   3.225   1.155  0.00  0.00     0.016 C 
ATOM      8  C   UNK d   1       1.584   3.865   1.398  0.00  0.00     0.016 C 
ATOM      9  C   UNK d   1       0.703   3.585   0.231  0.00  0.00     0.107 C 
BRANCH   6  10
ATOM     10  C   UNK d   1       2.639   0.878   1.970  0.00  0.00     0.225 C 
ATOM     11  O   UNK d   1       2.183   1.439   3.034  0.00  0.00    -0.273 OA
ATOM     12  N   UNK d   1       2.904  -0.483   2.030  0.00  0.00    -0.348 N 
ATOM     13  C   UNK d   1       2.651  -1.249   3.210  0.00  0.00     0.152 C 
ATOM     14  C   UNK d   1       3.465  -1.200   0.911  0.00  0.00     0.152 C 
ATOM     15  C   UNK d   1       2.167  -2.645   2.933  0.00  0.00     0.187 C 
ATOM     16  O   UNK d   1       2.510  -3.155   1.720  0.00  0.00    -0.388 OA
ATOM     17  C   UNK d   1       2.426  -2.301   0.640  0.00  0.00     0.187 C 
ENDBRANCH   6  10
ENDBRANCH   1   4
BRANCH   1  18
ATOM     18  C   UNK d   1      -1.135   0.414  -1.644  0.00  0.00     0.097 A 
ATOM     19  C   UNK d   1      -0.360  -0.370  -2.463  0.00  0.00     0.057 A 
ATOM     20  C   UNK d   1      -0.757  -1.665  -2.761  0.00  0.00     0.026 A 
ATOM     21 Cl   UNK d   1       1.100   0.200  -3.243  0.00  0.00    -0.083 Cl
ATOM     22  C   UNK d   1      -1.941  -2.200  -2.246  0.00  0.00     0.017 A 
ATOM     23  C   UNK d   1      -2.729  -1.424  -1.426  0.00  0.00     0.016 A 
ATOM     24  C   UNK d   1      -2.318  -0.143  -1.142  0.00  0.00     0.042 A 
BRANCH  23  25
ATOM     25  C   UNK d   1      -3.969  -1.956  -0.877  0.00  0.00     0.189 A 
ATOM     26  N   UNK d   1      -4.822  -1.304  -0.069  0.00  0.00    -0.106 NA
ATOM     27  O   UNK d   1      -5.828  -2.078   0.232  0.00  0.00    -0.196 OA
ATOM     28  C   UNK d   1      -5.667  -3.233  -0.357  0.00  0.00     0.169 A 
ATOM     29  N   UNK d   1      -4.514  -3.171  -1.050  0.00  0.00    -0.204 NA
ATOM     30  C   UNK d   1      -6.588  -4.420  -0.283  0.00  0.00     0.102 C 
ENDBRANCH  23  25
ENDBRANCH   1  18
TORSDOF 4
