REMARK  7 active torsions:
REMARK  status: ('A' for Active; 'I' for Inactive)
REMARK    1  A    between atoms: S_1  and  N_4 
REMARK    2  A    between atoms: S_1  and  C_21 
REMARK    3  A    between atoms: C_6  and  C_10 
REMARK       I    between atoms: C_10  and  N_12 
REMARK    4  A    between atoms: N_12  and  C_13 
REMARK    5  A    between atoms: C_13  and  C_14 
REMARK    6  A    between atoms: C_14  and  N_15 
REMARK       I    between atoms: N_30  and  C_31 
REMARK    7  A    between atoms: C_31  and  C_33 
ROOT
ATOM      1  N   UNK d   1       2.139   2.244  -1.728  0.00  0.00    -0.306 N 
ATOM      2  C   UNK d   1       2.390   0.988  -1.141  0.00  0.00     0.149 C 
ATOM      3  C   UNK d   1       2.733   1.064   0.331  0.00  0.00     0.096 C 
ATOM      4  C   UNK d   1       3.361   2.340   0.743  0.00  0.00     0.017 C 
ATOM      5  C   UNK d   1       3.914   3.200  -0.334  0.00  0.00     0.021 C 
ATOM      6  C   UNK d   1       3.123   3.228  -1.617  0.00  0.00     0.135 C 
ENDROOT
BRANCH   1   7
ATOM      7  S   UNK d   1       0.678   2.542  -2.462  0.00  0.00     0.262 S 
ATOM      8  O   UNK d   1       0.537   1.611  -3.665  0.00  0.00    -0.200 OA
ATOM      9  O   UNK d   1       0.728   3.929  -3.091  0.00  0.00    -0.200 OA
BRANCH   7  10
ATOM     10  C   UNK d   1      -0.728   2.450  -1.467  0.00  0.00     0.099 A 
ATOM     11  C   UNK d   1      -1.703   1.498  -1.723  0.00  0.00     0.057 A 
ATOM     12  C   UNK d   1      -2.834   1.374  -0.953  0.00  0.00     0.045 A 
ATOM     13  C   UNK d   1      -3.011   2.242   0.131  0.00  0.00    -0.028 A 
ATOM     14  N   UNK d   1      -3.973   0.525  -0.949  0.00  0.00    -0.317 N 
ATOM     15  C   UNK d   1      -2.052   3.170   0.373  0.00  0.00     0.030 A 
ATOM     16  C   UNK d   1      -4.291   1.944   0.829  0.00  0.00     0.061 C 
ATOM     17  C   UNK d   1      -0.912   3.293  -0.404  0.00  0.00     0.035 A 
ATOM     18 Br   UNK d   1       0.382   4.656   0.035  0.00  0.00    -0.049 Br
ATOM     19  C   UNK d   1      -5.064   1.215  -0.251  0.00  0.00     0.137 C 
ATOM     20  C   UNK d   1      -4.099  -0.752  -1.492  0.00  0.00     0.224 C 
ATOM     21  O   UNK d   1      -5.196  -1.395  -1.351  0.00  0.00    -0.273 OA
BRANCH  20  22
ATOM     22  C   UNK d   1      -3.040  -1.435  -2.232  0.00  0.00     0.099 C 
ATOM     23  C   UNK d   1      -3.397  -2.889  -2.531  0.00  0.00     0.014 C 
ENDBRANCH  20  22
ENDBRANCH   7  10
ENDBRANCH   1   7
BRANCH   3  24
ATOM     24  C   UNK d   1       3.588  -0.081   0.736  0.00  0.00     0.223 C 
ATOM     25  O   UNK d   1       4.691   0.171   1.280  0.00  0.00    -0.273 OA
ATOM     26  N   UNK d   1       3.150  -1.439   0.506  0.00  0.00    -0.359 N 
ATOM     27  H   UNK d   1       2.240  -1.533   0.048  0.00  0.00     0.162 HD
BRANCH  26  28
ATOM     28  C   UNK d   1       4.016  -2.482   0.920  0.00  0.00     0.142 C 
BRANCH  28  29
ATOM     29  C   UNK d   1       3.601  -3.888   0.706  0.00  0.00     0.136 C 
BRANCH  29  30
ATOM     30  N   UNK d   1       2.434  -4.370   1.346  0.00  0.00    -0.407 N 
ATOM     31  C   UNK d   1       1.199  -3.914   0.901  0.00  0.00     0.143 C 
ATOM     32  C   UNK d   1       0.405  -3.076   1.861  0.00  0.00     0.187 C 
ATOM     33  O   UNK d   1       0.491  -3.535   3.167  0.00  0.00    -0.388 OA
ATOM     34  C   UNK d   1       1.829  -3.413   3.541  0.00  0.00     0.187 C 
ATOM     35  C   UNK d   1       2.595  -4.469   2.778  0.00  0.00     0.143 C 
ENDBRANCH  29  30
ENDBRANCH  28  29
ENDBRANCH  26  28
ENDBRANCH   3  24
TORSDOF 7
