# created with PyMOL 2.3.2
@<TRIPOS>MOLECULE
2335
67 70 1                 
SMALL
USER_CHARGES
@<TRIPOS>ATOM
1	   S	0.678	2.542	-2.462	S.O2	1	UNK0	0.000	
2	   O	0.537	1.611	-3.665	O.2	1	UNK0	0.000	
3	   O	0.728	3.929	-3.091	O.2	1	UNK0	0.000	
4	   N	2.139	2.244	-1.728	N.3	1	UNK0	0.000	
5	   C	2.390	0.988	-1.141	C.3	1	UNK0	0.000	
6	   C	2.733	1.064	0.331	C.3	1	UNK0	0.000	
7	   C	3.361	2.340	0.743	C.3	1	UNK0	0.000	
8	   C	3.914	3.200	-0.334	C.3	1	UNK0	0.000	
9	   C	3.123	3.228	-1.617	C.3	1	UNK0	0.000	
10	   C	3.588	-0.081	0.736	C.2	1	UNK0	0.000	
11	   O	4.691	0.171	1.280	O.2	1	UNK0	0.000	
12	   N	3.150	-1.439	0.506	N.pl3	1	UNK0	0.000	
13	   C	4.016	-2.482	0.920	C.3	1	UNK0	0.000	
14	   C	3.601	-3.888	0.706	C.3	1	UNK0	0.000	
15	   N	2.434	-4.370	1.346	N.3	1	UNK0	0.000	
16	   C	1.199	-3.914	0.901	C.3	1	UNK0	0.000	
17	   C	0.405	-3.076	1.861	C.3	1	UNK0	0.000	
18	   O	0.491	-3.535	3.167	O.3	1	UNK0	0.000	
19	   C	1.829	-3.413	3.541	C.3	1	UNK0	0.000	
20	   C	2.595	-4.469	2.778	C.3	1	UNK0	0.000	
21	   C	-0.728	2.450	-1.467	C.2	1	UNK0	0.000	
22	   C	-1.703	1.498	-1.723	C.2	1	UNK0	0.000	
23	   C	-2.834	1.374	-0.953	C.2	1	UNK0	0.000	
24	   C	-3.011	2.242	0.131	C.2	1	UNK0	0.000	
25	   C	-2.052	3.170	0.373	C.2	1	UNK0	0.000	
26	   C	-0.912	3.293	-0.404	C.2	1	UNK0	0.000	
27	  Br	0.382	4.656	0.035	Br	1	UNK0	0.000	
28	   C	-4.291	1.944	0.829	C.3	1	UNK0	0.000	
29	   C	-5.064	1.215	-0.251	C.3	1	UNK0	0.000	
30	   N	-3.973	0.525	-0.949	N.pl3	1	UNK0	0.000	
31	   C	-4.099	-0.752	-1.492	C.2	1	UNK0	0.000	
32	   O	-5.196	-1.395	-1.351	O.2	1	UNK0	0.000	
33	   C	-3.040	-1.435	-2.232	C.3	1	UNK0	0.000	
34	   C	-3.397	-2.889	-2.531	C.3	1	UNK0	0.000	
35	   H	3.293	0.535	-1.645	 H	1	UNK0	0.000	
36	   H	1.552	0.303	-1.350	 H	1	UNK0	0.000	
37	   H	1.740	0.945	0.860	 H	1	UNK0	0.000	
38	   H	4.225	2.114	1.441	 H	1	UNK0	0.000	
39	   H	2.626	2.954	1.321	 H	1	UNK0	0.000	
40	   H	3.930	4.260	0.036	 H	1	UNK0	0.000	
41	   H	4.996	2.957	-0.496	 H	1	UNK0	0.000	
42	   H	2.724	4.226	-1.876	 H	1	UNK0	0.000	
43	   H	3.889	3.037	-2.435	 H	1	UNK0	0.000	
44	   H	2.240	-1.533	0.048	 H	1	UNK0	0.000	
45	   H	4.154	-2.358	2.032	 H	1	UNK0	0.000	
46	   H	5.021	-2.268	0.429	 H	1	UNK0	0.000	
47	   H	3.512	-4.085	-0.422	 H	1	UNK0	0.000	
48	   H	4.497	-4.556	0.953	 H	1	UNK0	0.000	
49	   H	0.541	-4.862	0.784	 H	1	UNK0	0.000	
50	   H	1.215	-3.531	-0.129	 H	1	UNK0	0.000	
51	   H	0.799	-2.046	1.854	 H	1	UNK0	0.000	
52	   H	-0.666	-3.023	1.584	 H	1	UNK0	0.000	
53	   H	2.199	-2.396	3.404	 H	1	UNK0	0.000	
54	   H	1.963	-3.658	4.628	 H	1	UNK0	0.000	
55	   H	2.123	-5.455	3.066	 H	1	UNK0	0.000	
56	   H	3.647	-4.556	3.086	 H	1	UNK0	0.000	
57	   H	-1.617	0.803	-2.546	 H	1	UNK0	0.000	
58	   H	-2.161	3.864	1.214	 H	1	UNK0	0.000	
59	   H	-4.171	1.342	1.732	 H	1	UNK0	0.000	
60	   H	-4.823	2.883	1.062	 H	1	UNK0	0.000	
61	   H	-5.792	0.495	0.172	 H	1	UNK0	0.000	
62	   H	-5.608	1.916	-0.885	 H	1	UNK0	0.000	
63	   H	-2.970	-0.897	-3.230	 H	1	UNK0	0.000	
64	   H	-2.050	-1.419	-1.770	 H	1	UNK0	0.000	
65	   H	-3.104	-3.129	-3.564	 H	1	UNK0	0.000	
66	   H	-4.489	-3.010	-2.361	 H	1	UNK0	0.000	
67	   H	-2.863	-3.531	-1.803	 H	1	UNK0	0.000	
@<TRIPOS>BOND
1 1 2 2
2 1 3 2
3 1 4 1
4 1 21 1
5 4 5 1
6 4 9 1
7 5 6 1
8 6 7 1
9 6 10 1
10 7 8 1
11 8 9 1
12 10 11 2
13 10 12 1
14 12 13 1
15 13 14 1
16 14 15 1
17 15 16 1
18 15 20 1
19 16 17 1
20 17 18 1
21 18 19 1
22 19 20 1
23 21 22 2
24 21 26 1
25 22 23 1
26 23 24 2
27 23 30 1
28 24 25 1
29 24 28 1
30 25 26 2
31 26 27 1
32 28 29 1
33 29 30 1
34 30 31 1
35 31 32 2
36 31 33 1
37 33 34 1
38 5 35 1
39 5 36 1
40 6 37 1
41 7 38 1
42 7 39 1
43 8 40 1
44 8 41 1
45 9 42 1
46 9 43 1
47 12 44 1
48 13 45 1
49 13 46 1
50 14 47 1
51 14 48 1
52 16 49 1
53 16 50 1
54 17 51 1
55 17 52 1
56 19 53 1
57 19 54 1
58 20 55 1
59 20 56 1
60 22 57 1
61 25 58 1
62 28 59 1
63 28 60 1
64 29 61 1
65 29 62 1
66 33 63 1
67 33 64 1
68 34 65 1
69 34 66 1
70 34 67 1
@<TRIPOS>SUBSTRUCTURE
1	UNK0	1	GROUP	1 ****	UNK
