REMARK  3 active torsions:
REMARK  status: ('A' for Active; 'I' for Inactive)
REMARK    1  A    between atoms: C_5  and  N_8 
REMARK    2  A    between atoms: C_10  and  C_14 
REMARK       I    between atoms: C_14  and  N_16 
REMARK    3  A    between atoms: N_19  and  C_22 
ROOT
ATOM      1  C   UNK d   1       0.618   3.436  -0.353  0.00  0.00     0.226 C 
ATOM      2  O   UNK d   1       0.559   4.675  -0.008  0.00  0.00    -0.273 OA
ATOM      3  N   UNK d   1      -0.140   2.545   0.414  0.00  0.00    -0.349 N 
ATOM      4  C   UNK d   1      -0.926   3.030   1.537  0.00  0.00     0.146 C 
ATOM      5  C   UNK d   1      -0.522   2.314   2.822  0.00  0.00     0.161 C 
ATOM      6  N   UNK d   1      -0.174   0.959   2.511  0.00  0.00    -0.213 N 
ATOM      7  C   UNK d   1      -0.754   0.348   1.354  0.00  0.00     0.161 C 
ATOM      8  C   UNK d   1      -0.193   1.127   0.148  0.00  0.00     0.146 C 
ENDROOT
BRANCH   1   9
ATOM      9  C   UNK d   1       1.470   3.110  -1.503  0.00  0.00     0.105 C 
ATOM     10  C   UNK d   1       0.775   2.392  -2.626  0.00  0.00     0.146 C 
ATOM     11  N   UNK d   1       1.345   1.051  -2.673  0.00  0.00    -0.317 N 
ATOM     12  C   UNK d   1       2.669   1.181  -2.111  0.00  0.00     0.225 C 
ATOM     13  C   UNK d   1       2.712   2.343  -1.193  0.00  0.00     0.119 C 
ATOM     14  O   UNK d   1       3.592   0.361  -2.426  0.00  0.00    -0.273 OA
BRANCH  11  15
ATOM     15  C   UNK d   1       0.746  -0.144  -3.164  0.00  0.00     0.037 A 
ATOM     16  C   UNK d   1       1.163  -1.395  -2.763  0.00  0.00     0.031 A 
ATOM     17  C   UNK d   1       0.586  -2.557  -3.241  0.00  0.00     0.026 A 
ATOM     18  C   UNK d   1      -0.440  -2.495  -4.146  0.00  0.00     0.034 A 
ATOM     19 Cl   UNK d   1      -1.187  -3.967  -4.766  0.00  0.00    -0.084 Cl
ATOM     20  C   UNK d   1      -0.879  -1.270  -4.566  0.00  0.00     0.026 A 
ATOM     21  C   UNK d   1      -0.287  -0.097  -4.076  0.00  0.00     0.031 A 
ENDBRANCH  11  15
ENDBRANCH   1   9
BRANCH   6  22
ATOM     22  C   UNK d   1       0.729   0.238   3.321  0.00  0.00     0.704 A 
ATOM     23  N   UNK d   1       0.428  -0.471   4.444  0.00  0.00    -0.195 N 
ATOM     24  C   UNK d   1       1.551  -1.019   4.927  0.00  0.00     0.128 A 
ATOM     25  C   UNK d   1      -0.912  -0.608   5.030  0.00  0.00     0.175 C 
ATOM     26  C   UNK d   1       2.593  -0.658   4.106  0.00  0.00     0.154 A 
ATOM     27  N   UNK d   1       2.059   0.093   3.159  0.00  0.00    -0.075 NA
ENDBRANCH   6  22
TORSDOF 3
