REMARK  1 active torsions:
REMARK  status: ('A' for Active; 'I' for Inactive)
REMARK    1  A    between atoms: C_5  and  N_8 
ROOT
ATOM      1  N   UNK d   1      -2.207  -1.167   1.373  0.00  0.00    -0.231 N 
ATOM      2  C   UNK d   1      -3.299  -1.633   0.567  0.00  0.00     0.357 A 
ATOM      3  O   UNK d   1      -4.214  -2.310   1.115  0.00  0.00    -0.244 OA
ATOM      4  N   UNK d   1      -3.269  -1.292  -0.808  0.00  0.00    -0.169 NA
ATOM      5  C   UNK d   1      -2.362  -0.626  -1.373  0.00  0.00     0.202 A 
ATOM      6  C   UNK d   1      -1.135  -0.071  -0.704  0.00  0.00     0.140 A 
ATOM      7  C   UNK d   1       0.007  -0.824  -1.326  0.00  0.00     0.269 C 
ATOM      8  N   UNK d   1       1.277  -0.208  -1.311  0.00  0.00    -0.043 N 
ATOM      9  C   UNK d   1       1.300   1.183  -1.569  0.00  0.00     0.140 A 
ATOM     10  C   UNK d   1       0.175   1.925  -1.403  0.00  0.00    -0.021 A 
ATOM     11  C   UNK d   1       0.237   3.291  -1.665  0.00  0.00     0.016 A 
ATOM     12  C   UNK d   1       1.423   3.859  -2.084  0.00  0.00    -0.061 A 
ATOM     13  C   UNK d   1       2.571   3.100  -2.254  0.00  0.00     0.009 A 
ATOM     14  C   UNK d   1       2.495   1.734  -1.988  0.00  0.00     0.038 A 
ATOM     15  C   UNK d   1       1.519   5.323  -2.384  0.00  0.00     0.048 C 
ATOM     16  C   UNK d   1      -1.128   1.388  -0.954  0.00  0.00     0.070 C 
ATOM     17  C   UNK d   1       2.103  -0.505  -0.151  0.00  0.00     0.276 C 
ATOM     18  C   UNK d   1      -1.198  -0.400   0.741  0.00  0.00     0.251 A 
ATOM     19  O   UNK d   1      -0.288   0.021   1.542  0.00  0.00    -0.271 OA
ATOM     20  O   UNK d   1      -2.443  -0.342  -2.749  0.00  0.00    -0.173 OA
ATOM     21  H   UNK d   1       1.829  -0.631  -2.125  0.00  0.00     0.286 HD
ENDROOT
BRANCH   1  22
ATOM     22  C   UNK d   1      -2.206  -1.538   2.737  0.00  0.00     0.047 A 
ATOM     23  C   UNK d   1      -2.024  -2.864   3.135  0.00  0.00     0.032 A 
ATOM     24  C   UNK d   1      -2.013  -3.247   4.449  0.00  0.00     0.026 A 
ATOM     25  C   UNK d   1      -2.186  -2.323   5.480  0.00  0.00     0.034 A 
ATOM     26 Cl   UNK d   1      -2.158  -2.835   7.157  0.00  0.00    -0.084 Cl
ATOM     27  C   UNK d   1      -2.367  -1.011   5.088  0.00  0.00     0.026 A 
ATOM     28  C   UNK d   1      -2.378  -0.629   3.768  0.00  0.00     0.032 A 
ENDBRANCH   1  22
TORSDOF 1
