REMARK  3 active torsions:
REMARK  status: ('A' for Active; 'I' for Inactive)
REMARK    1  A    between atoms: C_5  and  N_8 
REMARK    2  A    between atoms: C_13  and  O_21 
REMARK    3  A    between atoms: C_14  and  O_20 
ROOT
ATOM      1  N   UNK d   1      -1.283  -0.308  -0.403  0.00  0.00    -0.252 N 
ATOM      2  C   UNK d   1      -2.109   0.803  -0.018  0.00  0.00     0.236 C 
ATOM      3  O   UNK d   1      -3.187   0.675   0.615  0.00  0.00    -0.272 OA
ATOM      4  C   UNK d   1      -1.511   2.084  -0.470  0.00  0.00     0.099 C 
ATOM      5  C   UNK d   1      -1.109   2.989   0.649  0.00  0.00     0.031 C 
ATOM      6  C   UNK d   1      -0.728   2.113   1.824  0.00  0.00     0.152 C 
ATOM      7  C   UNK d   1       0.512   1.403   1.283  0.00  0.00     0.152 C 
ATOM      8  C   UNK d   1       0.799   2.031  -0.061  0.00  0.00     0.031 C 
ATOM      9  C   UNK d   1      -0.190   1.649  -1.117  0.00  0.00     0.099 C 
ATOM     10  C   UNK d   1      -0.325   0.187  -1.325  0.00  0.00     0.236 C 
ATOM     11  O   UNK d   1       0.316  -0.468  -2.183  0.00  0.00    -0.272 OA
ATOM     12  C   UNK d   1       0.297   3.461   0.242  0.00  0.00     0.016 C 
ENDROOT
BRANCH   1  13
ATOM     13  C   UNK d   1      -1.356  -1.661   0.025  0.00  0.00     0.045 A 
ATOM     14  C   UNK d   1      -2.584  -2.333   0.055  0.00  0.00     0.032 A 
ATOM     15  C   UNK d   1      -2.661  -3.639   0.476  0.00  0.00     0.026 A 
ATOM     16  C   UNK d   1      -1.537  -4.333   0.882  0.00  0.00     0.034 A 
ATOM     17 Cl   UNK d   1      -1.666  -6.006   1.421  0.00  0.00    -0.084 Cl
ATOM     18  C   UNK d   1      -0.308  -3.689   0.862  0.00  0.00     0.026 A 
ATOM     19  C   UNK d   1      -0.260  -2.383   0.436  0.00  0.00     0.032 A 
ENDBRANCH   1  13
BRANCH   6  20
ATOM     20  O   UNK d   1      -0.321   2.937   2.851  0.00  0.00    -0.393 OA
ATOM     21  H   UNK d   1      -0.898   3.719   3.013  0.00  0.00     0.210 HD
ENDBRANCH   6  20
BRANCH   7  22
ATOM     22  O   UNK d   1       1.625   1.669   2.078  0.00  0.00    -0.393 OA
ATOM     23  H   UNK d   1       1.681   0.937   2.763  0.00  0.00     0.210 HD
ENDBRANCH   7  22
TORSDOF 3
