# created with PyMOL 2.3.2
@<TRIPOS>MOLECULE
2350
35 38 1                 
SMALL
USER_CHARGES
@<TRIPOS>ATOM
1	  Cl	-1.666	-6.006	1.421	Cl	1	UNK0	0.000	
2	   C	-1.537	-4.333	0.882	C.2	1	UNK0	0.000	
3	   C	-2.661	-3.639	0.476	C.2	1	UNK0	0.000	
4	   C	-2.584	-2.333	0.055	C.2	1	UNK0	0.000	
5	   C	-1.356	-1.661	0.025	C.2	1	UNK0	0.000	
6	   C	-0.260	-2.383	0.436	C.2	1	UNK0	0.000	
7	   C	-0.308	-3.689	0.862	C.2	1	UNK0	0.000	
8	   N	-1.283	-0.308	-0.403	N.pl3	1	UNK0	0.000	
9	   C	-2.109	0.803	-0.018	C.2	1	UNK0	0.000	
10	   O	-3.187	0.675	0.615	O.2	1	UNK0	0.000	
11	   C	-1.511	2.084	-0.470	C.3	1	UNK0	0.000	
12	   C	-1.109	2.989	0.649	C.3	1	UNK0	0.000	
13	   C	-0.728	2.113	1.824	C.3	1	UNK0	0.000	
14	   C	0.512	1.403	1.283	C.3	1	UNK0	0.000	
15	   C	0.799	2.031	-0.061	C.3	1	UNK0	0.000	
16	   C	-0.190	1.649	-1.117	C.3	1	UNK0	0.000	
17	   C	-0.325	0.187	-1.325	C.2	1	UNK0	0.000	
18	   O	0.316	-0.468	-2.183	O.2	1	UNK0	0.000	
19	   C	0.297	3.461	0.242	C.3	1	UNK0	0.000	
20	   O	1.625	1.669	2.078	O.3	1	UNK0	0.000	
21	   O	-0.321	2.937	2.851	O.3	1	UNK0	0.000	
22	   H	-3.611	-4.168	0.501	 H	1	UNK0	0.000	
23	   H	-3.440	-1.774	-0.266	 H	1	UNK0	0.000	
24	   H	0.717	-1.894	0.428	 H	1	UNK0	0.000	
25	   H	0.576	-4.246	1.186	 H	1	UNK0	0.000	
26	   H	-2.134	2.585	-1.239	 H	1	UNK0	0.000	
27	   H	-1.775	3.801	0.878	 H	1	UNK0	0.000	
28	   H	-1.518	1.404	2.096	 H	1	UNK0	0.000	
29	   H	0.372	0.328	1.241	 H	1	UNK0	0.000	
30	   H	1.842	2.018	-0.363	 H	1	UNK0	0.000	
31	   H	0.026	2.210	-2.041	 H	1	UNK0	0.000	
32	   H	0.292	4.089	-0.640	 H	1	UNK0	0.000	
33	   H	0.835	3.851	1.128	 H	1	UNK0	0.000	
34	   H	1.681	0.937	2.763	 H	1	UNK0	0.000	
35	   H	-0.898	3.719	3.013	 H	1	UNK0	0.000	
@<TRIPOS>BOND
1 1 2 1
2 2 3 2
3 2 7 1
4 3 4 1
5 4 5 2
6 5 6 1
7 5 8 1
8 6 7 2
9 8 9 1
10 8 17 1
11 9 10 2
12 9 11 1
13 11 12 1
14 11 16 1
15 12 13 1
16 12 19 1
17 13 14 1
18 13 21 1
19 14 15 1
20 14 20 1
21 15 16 1
22 15 19 1
23 16 17 1
24 17 18 2
25 3 22 1
26 4 23 1
27 6 24 1
28 7 25 1
29 11 26 1
30 12 27 1
31 13 28 1
32 14 29 1
33 15 30 1
34 16 31 1
35 19 32 1
36 19 33 1
37 20 34 1
38 21 35 1
@<TRIPOS>SUBSTRUCTURE
1	UNK0	1	GROUP	1 ****	UNK
