REMARK  6 active torsions:
REMARK  status: ('A' for Active; 'I' for Inactive)
REMARK    1  A    between atoms: C_5  and  N_8 
REMARK    2  A    between atoms: C_14  and  C_17 
REMARK    3  A    between atoms: C_19  and  C_22 
REMARK    4  A    between atoms: C_24  and  O_31 
REMARK    5  A    between atoms: C_25  and  O_30 
REMARK    6  A    between atoms: C_26  and  O_28 
ROOT
ATOM      1  C   UNK d   1      -2.144  -0.340   0.701  0.00  0.00     0.041 C 
ATOM      2  C   UNK d   1      -2.586   0.808   1.176  0.00  0.00     0.026 C 
ATOM      3  C   UNK d   1      -2.222   1.913   0.254  0.00  0.00     0.134 C 
ATOM      4  N   UNK d   1      -1.948   1.222  -0.975  0.00  0.00    -0.228 NA
ATOM      5  N   UNK d   1      -1.498  -0.030  -0.529  0.00  0.00    -0.323 N 
ATOM      6  H   UNK d   1      -1.307   1.696  -1.609  0.00  0.00     0.147 HD
ATOM      7  H   UNK d   1      -0.805  -0.621  -1.030  0.00  0.00     0.180 HD
ENDROOT
BRANCH   1   8
ATOM      8  C   UNK d   1      -2.288  -1.708   1.309  0.00  0.00     0.221 C 
ATOM      9  C   UNK d   1      -3.036  -2.601   0.396  0.00  0.00     0.244 C 
ATOM     10  N   UNK d   1      -2.343  -3.340  -0.590  0.00  0.00    -0.277 N 
ATOM     11  O   UNK d   1      -4.274  -2.692   0.505  0.00  0.00    -0.272 OA
ATOM     12  C   UNK d   1      -0.960  -3.527  -0.503  0.00  0.00     0.336 C 
ATOM     13  H   UNK d   1      -2.848  -3.772  -1.417  0.00  0.00     0.173 HD
ATOM     14  N   UNK d   1      -0.217  -2.980   0.577  0.00  0.00    -0.233 N 
ATOM     15  O   UNK d   1      -0.307  -4.192  -1.381  0.00  0.00    -0.246 OA
ATOM     16  C   UNK d   1      -0.927  -2.240   1.559  0.00  0.00     0.251 C 
ATOM     17  O   UNK d   1      -0.398  -2.029   2.664  0.00  0.00    -0.271 OA
BRANCH  14  18
ATOM     18  C   UNK d   1       1.188  -3.181   0.647  0.00  0.00     0.047 A 
ATOM     19  C   UNK d   1       2.002  -2.770  -0.377  0.00  0.00     0.032 A 
ATOM     20  C   UNK d   1       3.370  -2.948  -0.337  0.00  0.00     0.026 A 
ATOM     21  C   UNK d   1       3.955  -3.551   0.748  0.00  0.00     0.034 A 
ATOM     22 Cl   UNK d   1       5.706  -3.790   0.821  0.00  0.00    -0.084 Cl
ATOM     23  C   UNK d   1       3.158  -3.971   1.786  0.00  0.00     0.026 A 
ATOM     24  C   UNK d   1       1.771  -3.781   1.728  0.00  0.00     0.032 A 
ENDBRANCH  14  18
ENDBRANCH   1   8
BRANCH   3  25
ATOM     25  C   UNK d   1      -1.086   2.635   0.815  0.00  0.00    -0.030 A 
ATOM     26  C   UNK d   1      -0.834   2.516   2.165  0.00  0.00     0.049 A 
ATOM     27  C   UNK d   1       0.217   3.156   2.790  0.00  0.00     0.104 A 
ATOM     28  C   UNK d   1       1.053   3.958   2.002  0.00  0.00     0.133 A 
ATOM     29  C   UNK d   1       0.841   4.109   0.649  0.00  0.00     0.104 A 
ATOM     30  C   UNK d   1      -0.230   3.438   0.093  0.00  0.00     0.049 A 
BRANCH  27  31
ATOM     31  O   UNK d   1       0.480   3.042   4.149  0.00  0.00    -0.353 OA
ATOM     32  C   UNK d   1      -0.390   2.220   4.900  0.00  0.00     0.210 C 
ENDBRANCH  27  31
BRANCH  28  33
ATOM     33  O   UNK d   1       2.115   4.617   2.579  0.00  0.00    -0.356 OA
ATOM     34  H   UNK d   1       2.289   4.520   3.570  0.00  0.00     0.218 HD
ENDBRANCH  28  33
BRANCH  29  35
ATOM     35  O   UNK d   1       1.683   4.902  -0.072  0.00  0.00    -0.353 OA
ATOM     36  C   UNK d   1       1.613   5.166  -1.443  0.00  0.00     0.210 C 
ENDBRANCH  29  35
ENDBRANCH   3  25
TORSDOF 6
