REMARK  5 active torsions:
REMARK  status: ('A' for Active; 'I' for Inactive)
REMARK    1  A    between atoms: C_5  and  N_8 
REMARK    2  A    between atoms: C_14  and  C_17 
REMARK    3  A    between atoms: C_19  and  C_22 
REMARK    4  A    between atoms: C_24  and  O_30 
REMARK    5  A    between atoms: C_25  and  O_28 
ROOT
ATOM      1  N   UNK d   1      -0.343  -0.090  -3.116  0.00  0.00    -0.233 N 
ATOM      2  C   UNK d   1      -1.320   0.922  -2.916  0.00  0.00     0.336 C 
ATOM      3  O   UNK d   1      -1.021   2.112  -3.228  0.00  0.00    -0.246 OA
ATOM      4  N   UNK d   1      -2.595   0.625  -2.384  0.00  0.00    -0.277 N 
ATOM      5  C   UNK d   1      -2.936  -0.702  -2.033  0.00  0.00     0.244 C 
ATOM      6  O   UNK d   1      -4.136  -1.022  -1.721  0.00  0.00    -0.272 OA
ATOM      7  C   UNK d   1      -1.936  -1.769  -2.011  0.00  0.00     0.221 C 
ATOM      8  C   UNK d   1      -0.720  -1.410  -2.752  0.00  0.00     0.251 C 
ATOM      9  O   UNK d   1       0.086  -2.335  -3.115  0.00  0.00    -0.271 OA
ATOM     10  H   UNK d   1      -3.305   1.390  -2.243  0.00  0.00     0.173 HD
ENDROOT
BRANCH   7  11
ATOM     11  C   UNK d   1      -1.641  -2.172  -0.604  0.00  0.00     0.041 C 
ATOM     12  C   UNK d   1      -0.481  -2.231  -0.006  0.00  0.00     0.026 C 
ATOM     13  C   UNK d   1      -0.727  -2.687   1.384  0.00  0.00     0.134 C 
ATOM     14  N   UNK d   1      -2.047  -3.278   1.329  0.00  0.00    -0.228 NA
ATOM     15  N   UNK d   1      -2.669  -2.562   0.300  0.00  0.00    -0.323 N 
ATOM     16  H   UNK d   1      -2.000  -4.302   1.113  0.00  0.00     0.147 HD
ATOM     17  H   UNK d   1      -3.705  -2.379   0.258  0.00  0.00     0.180 HD
BRANCH  13  18
ATOM     18  C   UNK d   1      -0.717  -1.533   2.325  0.00  0.00    -0.032 A 
ATOM     19  C   UNK d   1      -0.116  -0.335   2.013  0.00  0.00     0.048 A 
ATOM     20  C   UNK d   1      -0.100   0.742   2.880  0.00  0.00     0.099 A 
ATOM     21  C   UNK d   1      -0.703   0.641   4.113  0.00  0.00     0.101 A 
ATOM     22  C   UNK d   1      -1.309  -0.546   4.443  0.00  0.00     0.040 A 
ATOM     23  C   UNK d   1      -1.319  -1.613   3.572  0.00  0.00     0.012 A 
BRANCH  20  24
ATOM     24  O   UNK d   1       0.520   1.920   2.510  0.00  0.00    -0.358 OA
ATOM     25  H   UNK d   1       0.965   2.016   1.619  0.00  0.00     0.217 HD
ENDBRANCH  20  24
BRANCH  21  26
ATOM     26  O   UNK d   1      -0.699   1.704   4.994  0.00  0.00    -0.353 OA
ATOM     27  C   UNK d   1      -1.326   1.571   6.249  0.00  0.00     0.210 C 
ENDBRANCH  21  26
ENDBRANCH  13  18
ENDBRANCH   7  11
BRANCH   1  28
ATOM     28  C   UNK d   1       0.946   0.178  -3.652  0.00  0.00     0.047 A 
ATOM     29  C   UNK d   1       1.397  -0.419  -4.823  0.00  0.00     0.032 A 
ATOM     30  C   UNK d   1       2.631  -0.165  -5.341  0.00  0.00     0.026 A 
ATOM     31  C   UNK d   1       3.480   0.718  -4.690  0.00  0.00     0.034 A 
ATOM     32 Cl   UNK d   1       5.076   1.072  -5.325  0.00  0.00    -0.084 Cl
ATOM     33  C   UNK d   1       3.062   1.331  -3.520  0.00  0.00     0.026 A 
ATOM     34  C   UNK d   1       1.792   1.054  -3.009  0.00  0.00     0.032 A 
ENDBRANCH   1  28
TORSDOF 5
