# created with PyMOL 2.3.2
@<TRIPOS>MOLECULE
2358
47 50 1                 
SMALL
USER_CHARGES
@<TRIPOS>ATOM
1	  Cl	5.076	1.072	-5.325	Cl	1	UNK0	0.000	
2	   C	3.480	0.718	-4.690	C.2	1	UNK0	0.000	
3	   C	2.631	-0.165	-5.341	C.2	1	UNK0	0.000	
4	   C	1.397	-0.419	-4.823	C.2	1	UNK0	0.000	
5	   C	0.946	0.178	-3.652	C.2	1	UNK0	0.000	
6	   C	1.792	1.054	-3.009	C.2	1	UNK0	0.000	
7	   C	3.062	1.331	-3.520	C.2	1	UNK0	0.000	
8	   N	-0.343	-0.090	-3.116	N.pl3	1	UNK0	0.000	
9	   C	-1.320	0.922	-2.916	C.2	1	UNK0	0.000	
10	   O	-1.021	2.112	-3.228	O.2	1	UNK0	0.000	
11	   N	-2.595	0.625	-2.384	N.pl3	1	UNK0	0.000	
12	   C	-2.936	-0.702	-2.033	C.2	1	UNK0	0.000	
13	   O	-4.136	-1.022	-1.721	O.2	1	UNK0	0.000	
14	   C	-1.936	-1.769	-2.011	C.3	1	UNK0	0.000	
15	   C	-0.720	-1.410	-2.752	C.2	1	UNK0	0.000	
16	   O	0.086	-2.335	-3.115	O.2	1	UNK0	0.000	
17	   C	-1.641	-2.172	-0.604	C.2	1	UNK0	0.000	
18	   C	-0.481	-2.231	-0.006	C.2	1	UNK0	0.000	
19	   C	-0.727	-2.687	1.384	C.3	1	UNK0	0.000	
20	   N	-2.047	-3.278	1.329	N.pl3	1	UNK0	0.000	
21	   N	-2.669	-2.562	0.300	N.pl3	1	UNK0	0.000	
22	   C	-0.717	-1.533	2.325	C.2	1	UNK0	0.000	
23	   C	-0.116	-0.335	2.013	C.2	1	UNK0	0.000	
24	   C	-0.100	0.742	2.880	C.2	1	UNK0	0.000	
25	   C	-0.703	0.641	4.113	C.2	1	UNK0	0.000	
26	   C	-1.309	-0.546	4.443	C.2	1	UNK0	0.000	
27	   C	-1.319	-1.613	3.572	C.2	1	UNK0	0.000	
28	   O	-0.699	1.704	4.994	O.3	1	UNK0	0.000	
29	   C	-1.326	1.571	6.249	C.3	1	UNK0	0.000	
30	   O	0.520	1.920	2.510	O.3	1	UNK0	0.000	
31	   H	2.954	-0.637	-6.242	 H	1	UNK0	0.000	
32	   H	0.731	-1.118	-5.343	 H	1	UNK0	0.000	
33	   H	1.432	1.514	-2.098	 H	1	UNK0	0.000	
34	   H	3.694	2.029	-2.977	 H	1	UNK0	0.000	
35	   H	-3.305	1.390	-2.243	 H	1	UNK0	0.000	
36	   H	-2.406	-2.654	-2.532	 H	1	UNK0	0.000	
37	   H	0.464	-1.982	-0.485	 H	1	UNK0	0.000	
38	   H	0.041	-3.437	1.691	 H	1	UNK0	0.000	
39	   H	-2.000	-4.302	1.113	 H	1	UNK0	0.000	
40	   H	-3.705	-2.379	0.258	 H	1	UNK0	0.000	
41	   H	0.357	-0.279	1.028	 H	1	UNK0	0.000	
42	   H	-1.793	-0.636	5.424	 H	1	UNK0	0.000	
43	   H	-1.800	-2.565	3.827	 H	1	UNK0	0.000	
44	   H	-0.851	0.800	6.885	 H	1	UNK0	0.000	
45	   H	-1.329	2.559	6.747	 H	1	UNK0	0.000	
46	   H	-2.389	1.311	6.060	 H	1	UNK0	0.000	
47	   H	0.965	2.016	1.619	 H	1	UNK0	0.000	
@<TRIPOS>BOND
1 1 2 1
2 2 3 2
3 2 7 1
4 3 4 1
5 4 5 2
6 5 6 1
7 5 8 1
8 6 7 2
9 8 9 1
10 8 15 1
11 9 10 2
12 9 11 1
13 11 12 1
14 12 13 2
15 12 14 1
16 14 15 1
17 14 17 1
18 15 16 2
19 17 18 2
20 17 21 1
21 18 19 1
22 19 20 1
23 19 22 1
24 20 21 1
25 22 23 2
26 22 27 1
27 23 24 1
28 24 25 2
29 24 30 1
30 25 26 1
31 25 28 1
32 26 27 2
33 28 29 1
34 3 31 1
35 4 32 1
36 6 33 1
37 7 34 1
38 11 35 1
39 14 36 1
40 18 37 1
41 19 38 1
42 20 39 1
43 21 40 1
44 23 41 1
45 26 42 1
46 27 43 1
47 29 44 1
48 29 45 1
49 29 46 1
50 30 47 1
@<TRIPOS>SUBSTRUCTURE
1	UNK0	1	GROUP	1 ****	UNK
