# created with PyMOL 2.3.2
@<TRIPOS>MOLECULE
2359
43 46 1                 
SMALL
USER_CHARGES
@<TRIPOS>ATOM
1	  Cl	6.131	-2.670	5.147	Cl	1	UNK0	0.000	
2	   C	4.939	-1.747	4.279	C.2	1	UNK0	0.000	
3	   C	3.606	-2.112	4.407	C.2	1	UNK0	0.000	
4	   C	2.641	-1.393	3.727	C.2	1	UNK0	0.000	
5	   C	2.938	-0.315	2.916	C.2	1	UNK0	0.000	
6	   C	4.270	0.033	2.802	C.2	1	UNK0	0.000	
7	   C	5.263	-0.663	3.467	C.2	1	UNK0	0.000	
8	   N	1.904	0.418	2.221	N.pl3	1	UNK0	0.000	
9	   C	1.810	1.826	2.490	C.2	1	UNK0	0.000	
10	   O	2.601	2.399	3.301	O.2	1	UNK0	0.000	
11	   N	0.792	2.540	1.805	N.pl3	1	UNK0	0.000	
12	   C	-0.095	1.862	0.887	C.2	1	UNK0	0.000	
13	   O	-0.630	2.557	0.014	O.2	1	UNK0	0.000	
14	   C	-0.310	0.435	1.029	C.3	1	UNK0	0.000	
15	   C	1.011	-0.203	1.310	C.2	1	UNK0	0.000	
16	   O	1.395	-1.278	0.783	O.2	1	UNK0	0.000	
17	   C	-1.057	-0.244	-0.005	C.2	1	UNK0	0.000	
18	   C	-1.470	0.210	-1.166	C.2	1	UNK0	0.000	
19	   C	-2.206	-0.833	-1.922	C.3	1	UNK0	0.000	
20	   N	-1.932	-2.030	-1.161	N.pl3	1	UNK0	0.000	
21	   N	-1.499	-1.614	0.096	N.pl3	1	UNK0	0.000	
22	   C	-1.688	-1.036	-3.280	C.2	1	UNK0	0.000	
23	   C	-1.955	-2.243	-3.908	C.2	1	UNK0	0.000	
24	   C	-1.485	-2.465	-5.181	C.2	1	UNK0	0.000	
25	   C	-0.752	-1.517	-5.856	C.2	1	UNK0	0.000	
26	   C	-0.478	-0.315	-5.247	C.2	1	UNK0	0.000	
27	   C	-0.956	-0.094	-3.955	C.2	1	UNK0	0.000	
28	   O	-1.749	-3.680	-5.827	O.3	1	UNK0	0.000	
29	   H	3.335	-2.966	5.044	 H	1	UNK0	0.000	
30	   H	1.612	-1.674	3.824	 H	1	UNK0	0.000	
31	   H	4.563	0.859	2.190	 H	1	UNK0	0.000	
32	   H	6.317	-0.416	3.400	 H	1	UNK0	0.000	
33	   H	0.708	3.556	1.985	 H	1	UNK0	0.000	
34	   H	-0.920	0.313	1.995	 H	1	UNK0	0.000	
35	   H	-1.343	1.202	-1.604	 H	1	UNK0	0.000	
36	   H	-3.300	-0.595	-1.931	 H	1	UNK0	0.000	
37	   H	-1.261	-2.670	-1.638	 H	1	UNK0	0.000	
38	   H	-1.518	-2.235	0.932	 H	1	UNK0	0.000	
39	   H	-2.535	-2.999	-3.384	 H	1	UNK0	0.000	
40	   H	-0.380	-1.694	-6.866	 H	1	UNK0	0.000	
41	   H	0.097	0.478	-5.725	 H	1	UNK0	0.000	
42	   H	-0.748	0.848	-3.465	 H	1	UNK0	0.000	
43	   H	-2.284	-4.383	-5.348	 H	1	UNK0	0.000	
@<TRIPOS>BOND
1 1 2 1
2 2 3 2
3 2 7 1
4 3 4 1
5 4 5 2
6 5 6 1
7 5 8 1
8 6 7 2
9 8 9 1
10 8 15 1
11 9 10 2
12 9 11 1
13 11 12 1
14 12 13 2
15 12 14 1
16 14 15 1
17 14 17 1
18 15 16 2
19 17 18 2
20 17 21 1
21 18 19 1
22 19 20 1
23 19 22 1
24 20 21 1
25 22 23 2
26 22 27 1
27 23 24 1
28 24 25 2
29 24 28 1
30 25 26 1
31 26 27 2
32 3 29 1
33 4 30 1
34 6 31 1
35 7 32 1
36 11 33 1
37 14 34 1
38 18 35 1
39 19 36 1
40 20 37 1
41 21 38 1
42 23 39 1
43 25 40 1
44 26 41 1
45 27 42 1
46 28 43 1
@<TRIPOS>SUBSTRUCTURE
1	UNK0	1	GROUP	1 ****	UNK
