REMARK  4 active torsions:
REMARK  status: ('A' for Active; 'I' for Inactive)
REMARK    1  A    between atoms: C_5  and  N_8 
REMARK    2  A    between atoms: C_14  and  C_17 
REMARK    3  A    between atoms: C_19  and  C_22 
REMARK    4  A    between atoms: C_24  and  O_28 
ROOT
ATOM      1  N   UNK d   1       1.904   0.418   2.221  0.00  0.00    -0.233 N 
ATOM      2  C   UNK d   1       1.810   1.826   2.490  0.00  0.00     0.336 C 
ATOM      3  O   UNK d   1       2.601   2.399   3.301  0.00  0.00    -0.246 OA
ATOM      4  N   UNK d   1       0.792   2.540   1.805  0.00  0.00    -0.277 N 
ATOM      5  C   UNK d   1      -0.095   1.862   0.887  0.00  0.00     0.244 C 
ATOM      6  O   UNK d   1      -0.630   2.557   0.014  0.00  0.00    -0.272 OA
ATOM      7  C   UNK d   1      -0.310   0.435   1.029  0.00  0.00     0.221 C 
ATOM      8  C   UNK d   1       1.011  -0.203   1.310  0.00  0.00     0.251 C 
ATOM      9  O   UNK d   1       1.395  -1.278   0.783  0.00  0.00    -0.271 OA
ATOM     10  H   UNK d   1       0.708   3.556   1.985  0.00  0.00     0.173 HD
ENDROOT
BRANCH   7  11
ATOM     11  C   UNK d   1      -1.057  -0.244  -0.005  0.00  0.00     0.041 C 
ATOM     12  C   UNK d   1      -1.470   0.210  -1.166  0.00  0.00     0.026 C 
ATOM     13  C   UNK d   1      -2.206  -0.833  -1.922  0.00  0.00     0.134 C 
ATOM     14  N   UNK d   1      -1.932  -2.030  -1.161  0.00  0.00    -0.228 NA
ATOM     15  N   UNK d   1      -1.499  -1.614   0.096  0.00  0.00    -0.323 N 
ATOM     16  H   UNK d   1      -1.261  -2.670  -1.638  0.00  0.00     0.147 HD
ATOM     17  H   UNK d   1      -1.518  -2.235   0.932  0.00  0.00     0.180 HD
BRANCH  13  18
ATOM     18  C   UNK d   1      -1.688  -1.036  -3.280  0.00  0.00    -0.033 A 
ATOM     19  C   UNK d   1      -1.955  -2.243  -3.908  0.00  0.00     0.045 A 
ATOM     20  C   UNK d   1      -1.485  -2.465  -5.181  0.00  0.00     0.066 A 
ATOM     21  C   UNK d   1      -0.752  -1.517  -5.856  0.00  0.00     0.036 A 
ATOM     22  C   UNK d   1      -0.478  -0.315  -5.247  0.00  0.00     0.003 A 
ATOM     23  C   UNK d   1      -0.956  -0.094  -3.955  0.00  0.00     0.009 A 
BRANCH  20  24
ATOM     24  O   UNK d   1      -1.749  -3.680  -5.827  0.00  0.00    -0.361 OA
ATOM     25  H   UNK d   1      -2.284  -4.383  -5.348  0.00  0.00     0.217 HD
ENDBRANCH  20  24
ENDBRANCH  13  18
ENDBRANCH   7  11
BRANCH   1  26
ATOM     26  C   UNK d   1       2.938  -0.315   2.916  0.00  0.00     0.047 A 
ATOM     27  C   UNK d   1       2.641  -1.393   3.727  0.00  0.00     0.032 A 
ATOM     28  C   UNK d   1       3.606  -2.112   4.407  0.00  0.00     0.026 A 
ATOM     29  C   UNK d   1       4.939  -1.747   4.279  0.00  0.00     0.034 A 
ATOM     30 Cl   UNK d   1       6.131  -2.670   5.147  0.00  0.00    -0.084 Cl
ATOM     31  C   UNK d   1       5.263  -0.663   3.467  0.00  0.00     0.026 A 
ATOM     32  C   UNK d   1       4.270   0.033   2.802  0.00  0.00     0.032 A 
ENDBRANCH   1  26
TORSDOF 4
