# created with PyMOL 2.3.2
@<TRIPOS>MOLECULE
2361
41 44 1                 
SMALL
USER_CHARGES
@<TRIPOS>ATOM
1	  Cl	-1.463	0.377	-7.226	Cl	1	UNK0	0.000	
2	   C	-1.511	0.129	-5.489	C.2	1	UNK0	0.000	
3	   C	-2.671	-0.261	-4.854	C.2	1	UNK0	0.000	
4	   C	-2.705	-0.455	-3.478	C.2	1	UNK0	0.000	
5	   C	-1.584	-0.266	-2.699	C.2	1	UNK0	0.000	
6	   C	-0.427	0.123	-3.337	C.2	1	UNK0	0.000	
7	   C	-0.392	0.316	-4.706	C.2	1	UNK0	0.000	
8	   N	-1.603	-0.465	-1.265	N.pl3	1	UNK0	0.000	
9	   C	-1.610	-1.770	-0.716	C.2	1	UNK0	0.000	
10	   O	-1.594	-2.774	-1.471	O.2	1	UNK0	0.000	
11	   N	-1.634	-1.922	0.714	N.pl3	1	UNK0	0.000	
12	   C	-1.652	-0.788	1.570	C.2	1	UNK0	0.000	
13	   O	-2.009	-0.923	2.767	O.2	1	UNK0	0.000	
14	   C	-1.252	0.525	1.039	C.3	1	UNK0	0.000	
15	   C	-1.622	0.643	-0.382	C.2	1	UNK0	0.000	
16	   O	-1.974	1.780	-0.852	O.2	1	UNK0	0.000	
17	   C	0.224	0.743	1.207	C.2	1	UNK0	0.000	
18	   C	1.115	-0.076	1.702	C.2	1	UNK0	0.000	
19	   C	2.437	0.569	1.669	C.3	1	UNK0	0.000	
20	   N	2.257	1.685	0.784	N.pl3	1	UNK0	0.000	
21	   N	0.877	1.940	0.818	N.pl3	1	UNK0	0.000	
22	   C	2.722	1.048	3.046	C.2	1	UNK0	0.000	
23	   C	3.733	0.478	3.782	C.2	1	UNK0	0.000	
24	   N	3.999	0.912	5.045	N.2	1	UNK0	0.000	
25	   C	3.303	1.900	5.630	C.2	1	UNK0	0.000	
26	   C	2.283	2.493	4.921	C.2	1	UNK0	0.000	
27	   C	1.996	2.058	3.619	C.2	1	UNK0	0.000	
28	   H	-3.558	-0.414	-5.447	 H	1	UNK0	0.000	
29	   H	-3.603	-0.762	-2.966	 H	1	UNK0	0.000	
30	   H	0.472	0.278	-2.730	 H	1	UNK0	0.000	
31	   H	0.520	0.627	-5.221	 H	1	UNK0	0.000	
32	   H	-1.640	-2.864	1.161	 H	1	UNK0	0.000	
33	   H	-1.728	1.368	1.589	 H	1	UNK0	0.000	
34	   H	0.886	-1.068	2.069	 H	1	UNK0	0.000	
35	   H	3.239	-0.123	1.315	 H	1	UNK0	0.000	
36	   H	2.585	1.492	-0.167	 H	1	UNK0	0.000	
37	   H	0.477	2.877	0.583	 H	1	UNK0	0.000	
38	   H	4.315	-0.329	3.327	 H	1	UNK0	0.000	
39	   H	3.534	2.236	6.652	 H	1	UNK0	0.000	
40	   H	1.718	3.288	5.381	 H	1	UNK0	0.000	
41	   H	1.207	2.522	3.081	 H	1	UNK0	0.000	
@<TRIPOS>BOND
1 1 2 1
2 2 3 2
3 2 7 1
4 3 4 1
5 4 5 2
6 5 6 1
7 5 8 1
8 6 7 2
9 8 9 1
10 8 15 1
11 9 10 2
12 9 11 1
13 11 12 1
14 12 13 2
15 12 14 1
16 14 15 1
17 14 17 1
18 15 16 2
19 17 18 2
20 17 21 1
21 18 19 1
22 19 20 1
23 19 22 1
24 20 21 1
25 22 23 2
26 22 27 1
27 23 24 1
28 24 25 2
29 25 26 1
30 26 27 2
31 3 28 1
32 4 29 1
33 6 30 1
34 7 31 1
35 11 32 1
36 14 33 1
37 18 34 1
38 19 35 1
39 20 36 1
40 21 37 1
41 23 38 1
42 25 39 1
43 26 40 1
44 27 41 1
@<TRIPOS>SUBSTRUCTURE
1	UNK0	1	GROUP	1 ****	UNK
