REMARK  3 active torsions:
REMARK  status: ('A' for Active; 'I' for Inactive)
REMARK    1  A    between atoms: C_5  and  N_8 
REMARK    2  A    between atoms: C_14  and  C_17 
REMARK    3  A    between atoms: C_19  and  C_22 
ROOT
ATOM      1  N   UNK d   1      -1.603  -0.465  -1.265  0.00  0.00    -0.233 N 
ATOM      2  C   UNK d   1      -1.610  -1.770  -0.716  0.00  0.00     0.336 C 
ATOM      3  O   UNK d   1      -1.594  -2.774  -1.471  0.00  0.00    -0.246 OA
ATOM      4  N   UNK d   1      -1.634  -1.922   0.714  0.00  0.00    -0.277 N 
ATOM      5  C   UNK d   1      -1.652  -0.788   1.570  0.00  0.00     0.244 C 
ATOM      6  O   UNK d   1      -2.009  -0.923   2.767  0.00  0.00    -0.272 OA
ATOM      7  C   UNK d   1      -1.252   0.525   1.039  0.00  0.00     0.221 C 
ATOM      8  C   UNK d   1      -1.622   0.643  -0.382  0.00  0.00     0.251 C 
ATOM      9  O   UNK d   1      -1.974   1.780  -0.852  0.00  0.00    -0.271 OA
ATOM     10  H   UNK d   1      -1.640  -2.864   1.161  0.00  0.00     0.173 HD
ENDROOT
BRANCH   7  11
ATOM     11  C   UNK d   1       0.224   0.743   1.207  0.00  0.00     0.041 C 
ATOM     12  C   UNK d   1       1.115  -0.076   1.702  0.00  0.00     0.026 C 
ATOM     13  C   UNK d   1       2.437   0.569   1.669  0.00  0.00     0.135 C 
ATOM     14  N   UNK d   1       2.257   1.685   0.784  0.00  0.00    -0.228 NA
ATOM     15  N   UNK d   1       0.877   1.940   0.818  0.00  0.00    -0.323 N 
ATOM     16  H   UNK d   1       2.585   1.492  -0.167  0.00  0.00     0.147 HD
ATOM     17  H   UNK d   1       0.477   2.877   0.583  0.00  0.00     0.180 HD
BRANCH  13  18
ATOM     18  C   UNK d   1       2.722   1.048   3.046  0.00  0.00    -0.018 A 
ATOM     19  C   UNK d   1       3.733   0.478   3.782  0.00  0.00     0.125 A 
ATOM     20  N   UNK d   1       3.999   0.912   5.045  0.00  0.00    -0.273 NA
ATOM     21  C   UNK d   1       3.303   1.900   5.630  0.00  0.00     0.116 A 
ATOM     22  C   UNK d   1       2.283   2.493   4.921  0.00  0.00     0.020 A 
ATOM     23  C   UNK d   1       1.996   2.058   3.619  0.00  0.00     0.012 A 
ENDBRANCH  13  18
ENDBRANCH   7  11
BRANCH   1  24
ATOM     24  C   UNK d   1      -1.584  -0.266  -2.699  0.00  0.00     0.047 A 
ATOM     25  C   UNK d   1      -2.705  -0.455  -3.478  0.00  0.00     0.032 A 
ATOM     26  C   UNK d   1      -2.671  -0.261  -4.854  0.00  0.00     0.026 A 
ATOM     27  C   UNK d   1      -1.511   0.129  -5.489  0.00  0.00     0.034 A 
ATOM     28 Cl   UNK d   1      -1.463   0.377  -7.226  0.00  0.00    -0.084 Cl
ATOM     29  C   UNK d   1      -0.392   0.316  -4.706  0.00  0.00     0.026 A 
ATOM     30  C   UNK d   1      -0.427   0.123  -3.337  0.00  0.00     0.032 A 
ENDBRANCH   1  24
TORSDOF 3
