REMARK  6 active torsions:
REMARK  status: ('A' for Active; 'I' for Inactive)
REMARK    1  A    between atoms: C_5  and  N_8 
REMARK    2  A    between atoms: C_9  and  O_19 
REMARK    3  A    between atoms: C_9  and  C_20 
REMARK       I    between atoms: C_20  and  N_22 
REMARK    4  A    between atoms: N_22  and  C_23 
REMARK    5  A    between atoms: C_23  and  C_24 
REMARK    6  A    between atoms: C_24  and  N_25 
ROOT
ATOM      1  N   UNK d   1       0.423   1.164  -1.745  0.00  0.00    -0.254 N 
ATOM      2  C   UNK d   1      -0.460   1.913  -0.924  0.00  0.00     0.256 A 
ATOM      3  C   UNK d   1      -1.816   2.031  -1.439  0.00  0.00     0.034 A 
ATOM      4  C   UNK d   1      -2.187   1.547  -2.657  0.00  0.00     0.048 A 
ATOM      5  C   UNK d   1      -3.512   1.717  -3.101  0.00  0.00     0.030 A 
ATOM      6  C   UNK d   1      -4.470   2.357  -2.356  0.00  0.00     0.002 A 
ATOM      7  C   UNK d   1      -4.075   2.842  -1.120  0.00  0.00     0.001 A 
ATOM      8  C   UNK d   1      -2.799   2.682  -0.686  0.00  0.00     0.015 A 
ATOM      9  N   UNK d   1      -1.272   0.838  -3.508  0.00  0.00    -0.308 N 
ATOM     10  C   UNK d   1       0.037   0.672  -3.001  0.00  0.00     0.330 A 
ATOM     11  O   UNK d   1       0.909   0.056  -3.696  0.00  0.00    -0.246 OA
ATOM     12  H   UNK d   1      -1.589   0.487  -4.429  0.00  0.00     0.170 HD
ENDROOT
BRANCH   2  13
ATOM     13  O   UNK d   1       0.101   3.239  -0.919  0.00  0.00    -0.359 OA
ATOM     14  H   UNK d   1      -0.117   3.686  -0.060  0.00  0.00     0.213 HD
ENDBRANCH   2  13
BRANCH   2  15
ATOM     15  C   UNK d   1      -0.426   1.472   0.494  0.00  0.00     0.279 C 
ATOM     16  O   UNK d   1       0.031   2.217   1.363  0.00  0.00    -0.268 OA
ATOM     17  N   UNK d   1      -0.928   0.193   0.799  0.00  0.00    -0.355 N 
ATOM     18  H   UNK d   1      -1.322  -0.453   0.060  0.00  0.00     0.162 HD
BRANCH  17  19
ATOM     19  C   UNK d   1      -0.944  -0.342   2.161  0.00  0.00     0.142 C 
BRANCH  19  20
ATOM     20  C   UNK d   1      -1.520  -1.704   2.232  0.00  0.00     0.136 C 
BRANCH  20  21
ATOM     21  N   UNK d   1      -0.883  -2.721   1.489  0.00  0.00    -0.407 N 
ATOM     22  C   UNK d   1       0.400  -3.142   1.876  0.00  0.00     0.143 C 
ATOM     23  C   UNK d   1       0.749  -4.417   1.103  0.00  0.00     0.187 C 
ATOM     24  O   UNK d   1       0.188  -4.374  -0.186  0.00  0.00    -0.388 OA
ATOM     25  C   UNK d   1      -1.196  -4.524  -0.140  0.00  0.00     0.187 C 
ATOM     26  C   UNK d   1      -1.711  -3.803   1.076  0.00  0.00     0.143 C 
ENDBRANCH  20  21
ENDBRANCH  19  20
ENDBRANCH  17  19
ENDBRANCH   2  15
BRANCH   1  27
ATOM     27  C   UNK d   1       1.786   0.884  -1.274  0.00  0.00     0.043 A 
ATOM     28  C   UNK d   1       2.675   1.892  -1.011  0.00  0.00     0.031 A 
ATOM     29  C   UNK d   1       3.963   1.612  -0.565  0.00  0.00     0.026 A 
ATOM     30  C   UNK d   1       4.346   0.302  -0.386  0.00  0.00     0.034 A 
ATOM     31 Cl   UNK d   1       5.984  -0.045   0.181  0.00  0.00    -0.084 Cl
ATOM     32  C   UNK d   1       3.471  -0.731  -0.643  0.00  0.00     0.026 A 
ATOM     33  C   UNK d   1       2.198  -0.417  -1.085  0.00  0.00     0.031 A 
ENDBRANCH   1  27
TORSDOF 6
