# created with PyMOL 2.3.2
@<TRIPOS>MOLECULE
2363
53 56 1                 
SMALL
USER_CHARGES
@<TRIPOS>ATOM
1	  Cl	5.984	-0.045	0.181	Cl	1	UNK0	0.000	
2	   C	4.346	0.302	-0.386	C.2	1	UNK0	0.000	
3	   C	3.963	1.612	-0.565	C.2	1	UNK0	0.000	
4	   C	2.675	1.892	-1.011	C.2	1	UNK0	0.000	
5	   C	1.786	0.884	-1.274	C.2	1	UNK0	0.000	
6	   C	2.198	-0.417	-1.085	C.2	1	UNK0	0.000	
7	   C	3.471	-0.731	-0.643	C.2	1	UNK0	0.000	
8	   N	0.423	1.164	-1.745	N.pl3	1	UNK0	0.000	
9	   C	-0.460	1.913	-0.924	C.3	1	UNK0	0.000	
10	   C	-1.816	2.031	-1.439	C.2	1	UNK0	0.000	
11	   C	-2.187	1.547	-2.657	C.2	1	UNK0	0.000	
12	   C	-3.512	1.717	-3.101	C.2	1	UNK0	0.000	
13	   C	-4.470	2.357	-2.356	C.2	1	UNK0	0.000	
14	   C	-4.075	2.842	-1.120	C.2	1	UNK0	0.000	
15	   C	-2.799	2.682	-0.686	C.2	1	UNK0	0.000	
16	   N	-1.272	0.838	-3.508	N.pl3	1	UNK0	0.000	
17	   C	0.037	0.672	-3.001	C.2	1	UNK0	0.000	
18	   O	0.909	0.056	-3.696	O.2	1	UNK0	0.000	
19	   O	0.101	3.239	-0.919	O.3	1	UNK0	0.000	
20	   C	-0.426	1.472	0.494	C.2	1	UNK0	0.000	
21	   O	0.031	2.217	1.363	O.2	1	UNK0	0.000	
22	   N	-0.928	0.193	0.799	N.pl3	1	UNK0	0.000	
23	   C	-0.944	-0.342	2.161	C.3	1	UNK0	0.000	
24	   C	-1.520	-1.704	2.232	C.3	1	UNK0	0.000	
25	   N	-0.883	-2.721	1.489	N.3	1	UNK0	0.000	
26	   C	0.400	-3.142	1.876	C.3	1	UNK0	0.000	
27	   C	0.749	-4.417	1.103	C.3	1	UNK0	0.000	
28	   O	0.188	-4.374	-0.186	O.3	1	UNK0	0.000	
29	   C	-1.196	-4.524	-0.140	C.3	1	UNK0	0.000	
30	   C	-1.711	-3.803	1.076	C.3	1	UNK0	0.000	
31	   H	4.677	2.385	-0.352	 H	1	UNK0	0.000	
32	   H	2.401	2.917	-1.143	 H	1	UNK0	0.000	
33	   H	1.519	-1.224	-1.285	 H	1	UNK0	0.000	
34	   H	3.815	-1.735	-0.489	 H	1	UNK0	0.000	
35	   H	-3.760	1.319	-4.068	 H	1	UNK0	0.000	
36	   H	-5.487	2.497	-2.677	 H	1	UNK0	0.000	
37	   H	-4.831	3.360	-0.503	 H	1	UNK0	0.000	
38	   H	-2.505	3.061	0.271	 H	1	UNK0	0.000	
39	   H	-1.589	0.487	-4.429	 H	1	UNK0	0.000	
40	   H	-0.117	3.686	-0.060	 H	1	UNK0	0.000	
41	   H	-1.322	-0.453	0.060	 H	1	UNK0	0.000	
42	   H	0.072	-0.232	2.547	 H	1	UNK0	0.000	
43	   H	-1.593	0.345	2.743	 H	1	UNK0	0.000	
44	   H	-2.584	-1.637	1.872	 H	1	UNK0	0.000	
45	   H	-1.599	-2.032	3.289	 H	1	UNK0	0.000	
46	   H	1.202	-2.386	1.794	 H	1	UNK0	0.000	
47	   H	0.376	-3.440	2.948	 H	1	UNK0	0.000	
48	   H	1.827	-4.578	1.032	 H	1	UNK0	0.000	
49	   H	0.304	-5.318	1.588	 H	1	UNK0	0.000	
50	   H	-1.514	-5.585	-0.141	 H	1	UNK0	0.000	
51	   H	-1.639	-4.059	-1.036	 H	1	UNK0	0.000	
52	   H	-2.763	-3.472	0.955	 H	1	UNK0	0.000	
53	   H	-1.720	-4.564	1.907	 H	1	UNK0	0.000	
@<TRIPOS>BOND
1 1 2 1
2 2 3 2
3 2 7 1
4 3 4 1
5 4 5 2
6 5 6 1
7 5 8 1
8 6 7 2
9 8 9 1
10 8 17 1
11 9 10 1
12 9 19 1
13 9 20 1
14 10 11 1
15 10 15 2
16 11 12 2
17 11 16 1
18 12 13 1
19 13 14 2
20 14 15 1
21 16 17 1
22 17 18 2
23 20 21 2
24 20 22 1
25 22 23 1
26 23 24 1
27 24 25 1
28 25 26 1
29 25 30 1
30 26 27 1
31 27 28 1
32 28 29 1
33 29 30 1
34 3 31 1
35 4 32 1
36 6 33 1
37 7 34 1
38 12 35 1
39 13 36 1
40 14 37 1
41 15 38 1
42 16 39 1
43 19 40 1
44 22 41 1
45 23 42 1
46 23 43 1
47 24 44 1
48 24 45 1
49 26 46 1
50 26 47 1
51 27 48 1
52 27 49 1
53 29 50 1
54 29 51 1
55 30 52 1
56 30 53 1
@<TRIPOS>SUBSTRUCTURE
1	UNK0	1	GROUP	1 ****	UNK
