REMARK  6 active torsions:
REMARK  status: ('A' for Active; 'I' for Inactive)
REMARK    1  A    between atoms: C_4  and  C_8 
REMARK    2  A    between atoms: C_8  and  N_9 
REMARK    3  A    between atoms: N_16  and  C_18 
REMARK    4  A    between atoms: C_18  and  C_19 
REMARK    5  A    between atoms: C_21  and  O_25 
REMARK    6  A    between atoms: C_30  and  O_32 
ROOT
ATOM      1  N   UNK d   1      -2.505   0.165  -0.658  0.00  0.00    -0.280 N 
ATOM      2  C   UNK d   1      -1.734  -0.578  -1.594  0.00  0.00     0.260 C 
ATOM      3  O   UNK d   1      -2.289  -1.015  -2.653  0.00  0.00    -0.270 OA
ATOM      4  C   UNK d   1      -0.310  -0.876  -1.410  0.00  0.00     0.319 C 
ATOM      5  N   UNK d   1       0.206  -0.574  -0.116  0.00  0.00     0.127 N 
ATOM      6  C   UNK d   1      -0.374   0.543   0.556  0.00  0.00     0.292 A 
ATOM      7  C   UNK d   1       0.250   1.886   0.265  0.00  0.00     0.326 A 
ATOM      8  N   UNK d   1       0.755   1.935   1.599  0.00  0.00     0.098 N 
ATOM      9  C   UNK d   1       0.233   0.672   1.943  0.00  0.00     0.326 A 
ATOM     10  C   UNK d   1      -1.860   0.544   0.552  0.00  0.00     0.270 C 
ATOM     11  O   UNK d   1      -2.552   0.860   1.553  0.00  0.00    -0.270 OA
ATOM     12  C   UNK d   1       0.079  -1.745   0.703  0.00  0.00     0.307 C 
ATOM     13  C   UNK d   1      -0.484  -2.849  -0.147  0.00  0.00     0.149 C 
ATOM     14  C   UNK d   1      -0.158  -2.398  -1.542  0.00  0.00     0.079 C 
ENDROOT
BRANCH   8  15
ATOM     15  C   UNK d   1       2.121   2.246   1.815  0.00  0.00     0.311 C 
BRANCH  15  16
ATOM     16  C   UNK d   1       3.096   1.334   1.206  0.00  0.00    -0.028 A 
ATOM     17  C   UNK d   1       3.537   0.235   1.901  0.00  0.00     0.045 A 
ATOM     18  C   UNK d   1       4.465  -0.650   1.345  0.00  0.00     0.068 A 
ATOM     19  C   UNK d   1       4.942  -0.409   0.077  0.00  0.00     0.037 A 
ATOM     20  C   UNK d   1       4.517   0.683  -0.641  0.00  0.00     0.003 A 
ATOM     21  C   UNK d   1       3.591   1.545  -0.057  0.00  0.00     0.009 A 
BRANCH  18  22
ATOM     22  O   UNK d   1       4.911  -1.756   2.041  0.00  0.00    -0.356 OA
ATOM     23  C   UNK d   1       4.407  -1.983   3.344  0.00  0.00     0.210 C 
ENDBRANCH  18  22
ENDBRANCH  15  16
ENDBRANCH   8  15
BRANCH   1  24
ATOM     24  C   UNK d   1      -3.889   0.526  -0.909  0.00  0.00     0.173 C 
BRANCH  24  25
ATOM     25  C   UNK d   1      -3.951   1.854  -1.612  0.00  0.00    -0.038 A 
ATOM     26  C   UNK d   1      -5.160   2.441  -1.910  0.00  0.00     0.032 A 
ATOM     27  C   UNK d   1      -5.244   3.658  -2.555  0.00  0.00     0.034 A 
ATOM     28 Cl   UNK d   1      -6.799   4.374  -2.917  0.00  0.00    -0.084 Cl
ATOM     29  C   UNK d   1      -4.097   4.321  -2.921  0.00  0.00     0.024 A 
ATOM     30  C   UNK d   1      -2.899   3.717  -2.614  0.00  0.00     0.002 A 
ATOM     31  C   UNK d   1      -2.802   2.519  -1.979  0.00  0.00     0.009 A 
ENDBRANCH  24  25
ENDBRANCH   1  24
BRANCH  13  32
ATOM     32  O   UNK d   1       0.057  -4.092   0.152  0.00  0.00    -0.394 OA
ATOM     33  H   UNK d   1      -0.508  -4.497   0.854  0.00  0.00     0.210 HD
ENDBRANCH  13  32
TORSDOF 6
