# created with PyMOL 2.3.2
@<TRIPOS>MOLECULE
2364
58 62 1                 
SMALL
USER_CHARGES
@<TRIPOS>ATOM
1	  Cl	-6.799	4.374	-2.917	Cl	1	UNK0	0.000	
2	   C	-5.244	3.658	-2.555	C.2	1	UNK0	0.000	
3	   C	-5.160	2.441	-1.910	C.2	1	UNK0	0.000	
4	   C	-3.951	1.854	-1.612	C.2	1	UNK0	0.000	
5	   C	-2.802	2.519	-1.979	C.2	1	UNK0	0.000	
6	   C	-2.899	3.717	-2.614	C.2	1	UNK0	0.000	
7	   C	-4.097	4.321	-2.921	C.2	1	UNK0	0.000	
8	   C	-3.889	0.526	-0.909	C.3	1	UNK0	0.000	
9	   N	-2.505	0.165	-0.658	N.pl3	1	UNK0	0.000	
10	   C	-1.734	-0.578	-1.594	C.2	1	UNK0	0.000	
11	   O	-2.289	-1.015	-2.653	O.2	1	UNK0	0.000	
12	   C	-0.310	-0.876	-1.410	C.3	1	UNK0	0.000	
13	   N	0.206	-0.574	-0.116	N.3	1	UNK0	0.000	
14	   C	-0.374	0.543	0.556	C.3	1	UNK0	0.000	
15	   C	0.250	1.886	0.265	C.3	1	UNK0	0.000	
16	   N	0.755	1.935	1.599	N.3	1	UNK0	0.000	
17	   C	0.233	0.672	1.943	C.3	1	UNK0	0.000	
18	   C	2.121	2.246	1.815	C.3	1	UNK0	0.000	
19	   C	3.096	1.334	1.206	C.2	1	UNK0	0.000	
20	   C	3.537	0.235	1.901	C.2	1	UNK0	0.000	
21	   C	4.465	-0.650	1.345	C.2	1	UNK0	0.000	
22	   C	4.942	-0.409	0.077	C.2	1	UNK0	0.000	
23	   C	4.517	0.683	-0.641	C.2	1	UNK0	0.000	
24	   C	3.591	1.545	-0.057	C.2	1	UNK0	0.000	
25	   O	4.911	-1.756	2.041	O.3	1	UNK0	0.000	
26	   C	4.407	-1.983	3.344	C.3	1	UNK0	0.000	
27	   C	-1.860	0.544	0.552	C.2	1	UNK0	0.000	
28	   O	-2.552	0.860	1.553	O.2	1	UNK0	0.000	
29	   C	0.079	-1.745	0.703	C.3	1	UNK0	0.000	
30	   C	-0.484	-2.849	-0.147	C.3	1	UNK0	0.000	
31	   C	-0.158	-2.398	-1.542	C.3	1	UNK0	0.000	
32	   O	0.057	-4.092	0.152	O.3	1	UNK0	0.000	
33	   H	-6.086	1.919	-1.622	 H	1	UNK0	0.000	
34	   H	-1.861	2.069	-1.753	 H	1	UNK0	0.000	
35	   H	-1.983	4.232	-2.899	 H	1	UNK0	0.000	
36	   H	-4.144	5.289	-3.434	 H	1	UNK0	0.000	
37	   H	-4.349	-0.217	-1.595	 H	1	UNK0	0.000	
38	   H	-4.450	0.634	0.039	 H	1	UNK0	0.000	
39	   H	0.319	-0.417	-2.209	 H	1	UNK0	0.000	
40	   H	0.948	1.923	-0.569	 H	1	UNK0	0.000	
41	   H	-0.543	2.682	0.151	 H	1	UNK0	0.000	
42	   H	0.908	-0.138	2.232	 H	1	UNK0	0.000	
43	   H	-0.597	0.742	2.705	 H	1	UNK0	0.000	
44	   H	2.266	3.311	1.457	 H	1	UNK0	0.000	
45	   H	2.278	2.343	2.931	 H	1	UNK0	0.000	
46	   H	3.205	-0.014	2.901	 H	1	UNK0	0.000	
47	   H	5.667	-1.120	-0.329	 H	1	UNK0	0.000	
48	   H	4.925	0.821	-1.631	 H	1	UNK0	0.000	
49	   H	3.294	2.386	-0.667	 H	1	UNK0	0.000	
50	   H	4.940	-2.878	3.735	 H	1	UNK0	0.000	
51	   H	4.586	-1.103	4.007	 H	1	UNK0	0.000	
52	   H	3.317	-2.184	3.339	 H	1	UNK0	0.000	
53	   H	-0.613	-1.605	1.571	 H	1	UNK0	0.000	
54	   H	1.099	-2.039	1.089	 H	1	UNK0	0.000	
55	   H	-1.605	-2.847	-0.048	 H	1	UNK0	0.000	
56	   H	-0.844	-2.804	-2.302	 H	1	UNK0	0.000	
57	   H	0.897	-2.605	-1.749	 H	1	UNK0	0.000	
58	   H	-0.508	-4.497	0.854	 H	1	UNK0	0.000	
@<TRIPOS>BOND
1 1 2 1
2 2 3 2
3 2 7 1
4 3 4 1
5 4 5 2
6 4 8 1
7 5 6 1
8 6 7 2
9 8 9 1
10 9 10 1
11 9 27 1
12 10 11 2
13 10 12 1
14 12 13 1
15 12 31 1
16 13 14 1
17 13 29 1
18 14 15 1
19 14 17 1
20 14 27 1
21 15 16 1
22 16 17 1
23 16 18 1
24 18 19 1
25 19 20 2
26 19 24 1
27 20 21 1
28 21 22 2
29 21 25 1
30 22 23 1
31 23 24 2
32 25 26 1
33 27 28 2
34 29 30 1
35 30 31 1
36 30 32 1
37 3 33 1
38 5 34 1
39 6 35 1
40 7 36 1
41 8 37 1
42 8 38 1
43 12 39 1
44 15 40 1
45 15 41 1
46 17 42 1
47 17 43 1
48 18 44 1
49 18 45 1
50 20 46 1
51 22 47 1
52 23 48 1
53 24 49 1
54 26 50 1
55 26 51 1
56 26 52 1
57 29 53 1
58 29 54 1
59 30 55 1
60 31 56 1
61 31 57 1
62 32 58 1
@<TRIPOS>SUBSTRUCTURE
1	UNK0	1	GROUP	1 ****	UNK
