REMARK  6 active torsions:
REMARK  status: ('A' for Active; 'I' for Inactive)
REMARK    1  A    between atoms: N_4  and  C_7 
REMARK    2  A    between atoms: C_7  and  C_8 
REMARK    3  A    between atoms: C_8  and  C_10 
REMARK       I    between atoms: C_10  and  N_12 
REMARK    4  A    between atoms: N_12  and  N_13 
REMARK       I    between atoms: N_13  and  C_14 
REMARK    5  A    between atoms: C_14  and  C_16 
REMARK    6  A    between atoms: C_18  and  N_26 
ROOT
ATOM      1  N   UNK d   1       0.723   0.043  -0.163  0.00  0.00    -0.267 N 
ATOM      2  C   UNK d   1       0.203   0.028   1.140  0.00  0.00     0.245 C 
ATOM      3  O   UNK d   1       0.668   0.855   1.982  0.00  0.00    -0.271 OA
ATOM      4  H   UNK d   1       0.348  -0.634  -0.871  0.00  0.00     0.190 HD
ENDROOT
BRANCH   2   5
ATOM      5  C   UNK d   1      -0.859  -0.894   1.606  0.00  0.00     0.045 C 
ATOM      6  C   UNK d   1      -1.205  -0.622   3.056  0.00  0.00     0.054 C 
ATOM      7  C   UNK d   1      -2.273  -1.563   3.537  0.00  0.00     0.078 C 
ATOM      8  C   UNK d   1      -3.526  -1.282   2.705  0.00  0.00     0.039 C 
ATOM      9  C   UNK d   1      -1.913  -3.004   3.350  0.00  0.00     0.039 C 
ATOM     10  C   UNK d   1      -3.231  -1.522   1.259  0.00  0.00    -0.010 C 
ATOM     11  C   UNK d   1      -2.106  -0.628   0.791  0.00  0.00     0.024 C 
ATOM     12  C   UNK d   1      -2.835  -2.968   1.069  0.00  0.00     0.009 C 
ATOM     13  C   UNK d   1      -1.594  -3.221   1.893  0.00  0.00    -0.010 C 
ATOM     14  C   UNK d   1      -0.465  -2.343   1.423  0.00  0.00     0.024 C 
BRANCH   7  15
ATOM     15  N   UNK d   1      -2.543  -1.235   4.923  0.00  0.00    -0.159 N 
ATOM     16  N   UNK d   1      -2.203  -1.873   6.029  0.00  0.00    -0.046 NA
ATOM     17  N   UNK d   1      -2.631  -1.264   7.094  0.00  0.00    -0.122 NA
ATOM     18  C   UNK d   1      -3.282  -0.181   6.708  0.00  0.00     0.282 A 
ATOM     19  N   UNK d   1      -3.228  -0.160   5.347  0.00  0.00    -0.144 NA
ENDBRANCH   7  15
ENDBRANCH   2   5
BRANCH   1  20
ATOM     20  N   UNK d   1       1.711   0.928  -0.532  0.00  0.00    -0.267 N 
ATOM     21  C   UNK d   1       2.420   0.882  -1.756  0.00  0.00     0.241 C 
ATOM     22  O   UNK d   1       2.178  -0.004  -2.614  0.00  0.00    -0.271 OA
ATOM     23  H   UNK d   1       1.972   1.704   0.139  0.00  0.00     0.190 HD
BRANCH  21  24
ATOM     24  C   UNK d   1       3.482   1.872  -2.098  0.00  0.00     0.095 C 
ATOM     25  C   UNK d   1       4.151   1.565  -3.395  0.00  0.00     0.022 C 
BRANCH  24  26
ATOM     26  C   UNK d   1       2.886   3.261  -2.089  0.00  0.00     0.164 C 
BRANCH  26  27
ATOM     27  N   UNK d   1       1.891   3.445  -3.119  0.00  0.00    -0.279 N 
ATOM     28  C   UNK d   1       0.554   3.222  -3.039  0.00  0.00     0.133 A 
ATOM     29  C   UNK d   1      -0.038   3.524  -4.249  0.00  0.00     0.047 A 
ATOM     30 Br   UNK d   1      -1.873   3.418  -4.753  0.00  0.00    -0.048 Br
ATOM     31  C   UNK d   1       1.014   3.943  -5.067  0.00  0.00     0.159 A 
ATOM     32  N   UNK d   1       2.136   3.871  -4.328  0.00  0.00    -0.184 NA
ENDBRANCH  26  27
ENDBRANCH  24  26
ENDBRANCH  21  24
ENDBRANCH   1  20
TORSDOF 6
