# created with PyMOL 2.3.2
@<TRIPOS>MOLECULE
2373
52 55 1                 
SMALL
USER_CHARGES
@<TRIPOS>ATOM
1	  Cl	-1.193	-1.676	8.152	Cl	1	UNK0	0.000	
2	   C	-0.441	-1.305	6.622	C.2	1	UNK0	0.000	
3	   C	0.206	-0.125	6.352	C.2	1	UNK0	0.000	
4	   C	0.782	0.117	5.130	C.2	1	UNK0	0.000	
5	   C	0.735	-0.831	4.101	C.2	1	UNK0	0.000	
6	   C	0.093	-2.004	4.368	C.2	1	UNK0	0.000	
7	   C	-0.482	-2.237	5.597	C.2	1	UNK0	0.000	
8	   C	1.366	-0.517	2.838	C.2	1	UNK0	0.000	
9	   O	1.955	0.607	2.705	O.2	1	UNK0	0.000	
10	   C	1.376	-1.425	1.671	C.3	1	UNK0	0.000	
11	   N	0.730	-0.735	0.550	N.pl3	1	UNK0	0.000	
12	   C	-0.531	-0.702	0.156	C.2	1	UNK0	0.000	
13	   N	-0.676	0.082	-0.946	N.pl3	1	UNK0	0.000	
14	   C	0.509	0.560	-1.256	C.2	1	UNK0	0.000	
15	   C	1.405	0.035	-0.301	C.2	1	UNK0	0.000	
16	   C	0.930	1.434	-2.355	C.2	1	UNK0	0.000	
17	   C	0.115	2.187	-3.137	C.2	1	UNK0	0.000	
18	   C	0.573	2.945	-4.214	C.2	1	UNK0	0.000	
19	   C	1.903	2.962	-4.533	C.2	1	UNK0	0.000	
20	   C	2.755	2.212	-3.759	C.2	1	UNK0	0.000	
21	   C	2.286	1.467	-2.699	C.2	1	UNK0	0.000	
22	   O	2.392	3.717	-5.613	O.3	1	UNK0	0.000	
23	   C	1.561	4.496	-6.431	C.3	1	UNK0	0.000	
24	   C	-1.923	0.271	-1.632	C.3	1	UNK0	0.000	
25	   C	-2.833	1.203	-0.835	C.3	1	UNK0	0.000	
26	   C	-2.552	0.861	0.632	C.3	1	UNK0	0.000	
27	   C	-2.905	-0.585	0.846	C.3	1	UNK0	0.000	
28	   C	-1.621	-1.429	0.877	C.3	1	UNK0	0.000	
29	   H	0.262	0.633	7.125	 H	1	UNK0	0.000	
30	   H	1.290	1.074	4.954	 H	1	UNK0	0.000	
31	   H	0.019	-2.774	3.626	 H	1	UNK0	0.000	
32	   H	-0.986	-3.190	5.769	 H	1	UNK0	0.000	
33	   H	2.465	-1.574	1.416	 H	1	UNK0	0.000	
34	   H	0.918	-2.394	1.870	 H	1	UNK0	0.000	
35	   H	2.476	0.250	-0.289	 H	1	UNK0	0.000	
36	   H	-0.918	2.254	-2.924	 H	1	UNK0	0.000	
37	   H	-0.116	3.533	-4.816	 H	1	UNK0	0.000	
38	   H	3.803	2.229	-4.014	 H	1	UNK0	0.000	
39	   H	2.964	0.878	-2.099	 H	1	UNK0	0.000	
40	   H	1.303	5.436	-5.896	 H	1	UNK0	0.000	
41	   H	2.029	4.694	-7.426	 H	1	UNK0	0.000	
42	   H	0.581	3.987	-6.668	 H	1	UNK0	0.000	
43	   H	-1.905	0.404	-2.691	 H	1	UNK0	0.000	
44	   H	-2.484	-0.742	-1.520	 H	1	UNK0	0.000	
45	   H	-2.590	2.244	-1.067	 H	1	UNK0	0.000	
46	   H	-3.893	1.010	-1.001	 H	1	UNK0	0.000	
47	   H	-1.451	0.997	0.814	 H	1	UNK0	0.000	
48	   H	-3.054	1.554	1.321	 H	1	UNK0	0.000	
49	   H	-3.415	-0.645	1.834	 H	1	UNK0	0.000	
50	   H	-3.641	-0.978	0.119	 H	1	UNK0	0.000	
51	   H	-1.781	-2.374	0.296	 H	1	UNK0	0.000	
52	   H	-1.342	-1.717	1.903	 H	1	UNK0	0.000	
@<TRIPOS>BOND
1 1 2 1
2 2 3 2
3 2 7 1
4 3 4 1
5 4 5 2
6 5 6 1
7 5 8 1
8 6 7 2
9 8 9 2
10 8 10 1
11 10 11 1
12 11 12 2
13 11 15 1
14 12 13 1
15 12 28 1
16 13 14 1
17 13 24 1
18 14 15 2
19 14 16 1
20 16 17 2
21 16 21 1
22 17 18 1
23 18 19 2
24 19 20 1
25 19 22 1
26 20 21 2
27 22 23 1
28 24 25 1
29 25 26 1
30 26 27 1
31 27 28 1
32 3 29 1
33 4 30 1
34 6 31 1
35 7 32 1
36 10 33 1
37 10 34 1
38 15 35 1
39 17 36 1
40 18 37 1
41 20 38 1
42 21 39 1
43 23 40 1
44 23 41 1
45 23 42 1
46 24 43 1
47 24 44 1
48 25 45 1
49 25 46 1
50 26 47 1
51 26 48 1
52 27 49 1
53 27 50 1
54 28 51 1
55 28 52 1
@<TRIPOS>SUBSTRUCTURE
1	UNK0	1	GROUP	1 ****	UNK
