REMARK  5 active torsions:
REMARK  status: ('A' for Active; 'I' for Inactive)
REMARK    1  A    between atoms: C_5  and  C_8 
REMARK    2  A    between atoms: C_8  and  C_10 
REMARK    3  A    between atoms: C_10  and  N_11 
REMARK    4  A    between atoms: C_14  and  C_16 
REMARK    5  A    between atoms: C_19  and  O_22 
ROOT
ATOM      1  N   UNK d   1       0.730  -0.735   0.550  0.00  0.00    -0.337 N 
ATOM      2  C   UNK d   1      -0.531  -0.702   0.156  0.00  0.00     0.086 A 
ATOM      3  N   UNK d   1      -0.676   0.082  -0.946  0.00  0.00    -0.335 N 
ATOM      4  C   UNK d   1       0.509   0.560  -1.256  0.00  0.00     0.061 A 
ATOM      5  C   UNK d   1       1.405   0.035  -0.301  0.00  0.00     0.123 A 
ATOM      6  C   UNK d   1      -1.923   0.271  -1.632  0.00  0.00     0.130 C 
ATOM      7  C   UNK d   1      -2.833   1.203  -0.835  0.00  0.00     0.020 C 
ATOM      8  C   UNK d   1      -2.552   0.861   0.632  0.00  0.00     0.002 C 
ATOM      9  C   UNK d   1      -2.905  -0.585   0.846  0.00  0.00     0.007 C 
ATOM     10  C   UNK d   1      -1.621  -1.429   0.877  0.00  0.00     0.077 C 
ENDROOT
BRANCH   1  11
ATOM     11  C   UNK d   1       1.376  -1.425   1.671  0.00  0.00     0.213 C 
BRANCH  11  12
ATOM     12  C   UNK d   1       1.366  -0.517   2.838  0.00  0.00     0.177 C 
ATOM     13  O   UNK d   1       1.955   0.607   2.705  0.00  0.00    -0.291 OA
BRANCH  12  14
ATOM     14  C   UNK d   1       0.735  -0.831   4.101  0.00  0.00     0.011 A 
ATOM     15  C   UNK d   1       0.782   0.117   5.130  0.00  0.00     0.017 A 
ATOM     16  C   UNK d   1       0.206  -0.125   6.352  0.00  0.00     0.025 A 
ATOM     17  C   UNK d   1      -0.441  -1.305   6.622  0.00  0.00     0.034 A 
ATOM     18 Cl   UNK d   1      -1.193  -1.676   8.152  0.00  0.00    -0.084 Cl
ATOM     19  C   UNK d   1      -0.482  -2.237   5.597  0.00  0.00     0.025 A 
ATOM     20  C   UNK d   1       0.093  -2.004   4.368  0.00  0.00     0.017 A 
ENDBRANCH  12  14
ENDBRANCH  11  12
ENDBRANCH   1  11
BRANCH   4  21
ATOM     21  C   UNK d   1       0.930   1.434  -2.355  0.00  0.00    -0.008 A 
ATOM     22  C   UNK d   1       0.115   2.187  -3.137  0.00  0.00     0.016 A 
ATOM     23  C   UNK d   1       0.573   2.945  -4.214  0.00  0.00     0.037 A 
ATOM     24  C   UNK d   1       1.903   2.962  -4.533  0.00  0.00     0.068 A 
ATOM     25  C   UNK d   1       2.755   2.212  -3.759  0.00  0.00     0.037 A 
ATOM     26  C   UNK d   1       2.286   1.467  -2.699  0.00  0.00     0.016 A 
BRANCH  24  27
ATOM     27  O   UNK d   1       2.392   3.717  -5.613  0.00  0.00    -0.356 OA
ATOM     28  C   UNK d   1       1.561   4.496  -6.431  0.00  0.00     0.210 C 
ENDBRANCH  24  27
ENDBRANCH   4  21
TORSDOF 5
