# created with PyMOL 2.3.2
@<TRIPOS>MOLECULE
2375
58 61 1                 
SMALL
USER_CHARGES
@<TRIPOS>ATOM
1	  Cl	7.755	-4.745	1.336	Cl	1	UNK0	0.000	
2	   C	6.564	-3.548	0.773	C.2	1	UNK0	0.000	
3	   C	5.954	-2.697	1.665	C.2	1	UNK0	0.000	
4	   C	5.006	-1.769	1.209	C.2	1	UNK0	0.000	
5	   C	4.660	-1.676	-0.131	C.2	1	UNK0	0.000	
6	   C	5.279	-2.525	-0.990	C.2	1	UNK0	0.000	
7	   C	6.218	-3.456	-0.564	C.2	1	UNK0	0.000	
8	   C	3.622	-0.676	-0.471	C.3	1	UNK0	0.000	
9	   C	3.096	-0.795	-1.839	C.3	1	UNK0	0.000	
10	   C	1.638	-0.474	-2.054	C.3	1	UNK0	0.000	
11	   N	0.952	0.074	-0.930	N.pl3	1	UNK0	0.000	
12	   C	1.206	-0.642	0.336	C.3	1	UNK0	0.000	
13	   C	2.615	-0.764	0.649	C.3	1	UNK0	0.000	
14	   C	-0.111	1.008	-0.962	C.2	1	UNK0	0.000	
15	   O	-0.759	1.199	-1.988	O.2	1	UNK0	0.000	
16	   C	-0.475	1.794	0.290	C.3	1	UNK0	0.000	
17	   N	-1.814	1.447	0.704	N.pl3	1	UNK0	0.000	
18	   C	-2.984	1.888	0.088	C.2	1	UNK0	0.000	
19	   O	-2.662	2.759	-0.934	O.2	1	UNK0	0.000	
20	   C	-4.356	1.704	0.166	C.2	1	UNK0	0.000	
21	   C	-5.378	1.067	0.655	C.2	1	UNK0	0.000	
22	   N	-6.732	1.472	0.254	N.pl3	1	UNK0	0.000	
23	   N	-7.872	0.799	0.647	N.pl3	1	UNK0	0.000	
24	   C	-7.823	-0.322	1.460	C.2	1	UNK0	0.000	
25	   O	-8.834	-0.961	1.847	O.2	1	UNK0	0.000	
26	   C	-6.499	-0.808	1.917	C.2	1	UNK0	0.000	
27	   C	-5.390	-0.111	1.500	C.2	1	UNK0	0.000	
28	   C	-4.160	-0.665	1.872	C.2	1	UNK0	0.000	
29	   C	-4.092	-1.831	2.621	C.2	1	UNK0	0.000	
30	   C	-5.226	-2.487	3.023	C.2	1	UNK0	0.000	
31	   C	-6.448	-1.963	2.659	C.2	1	UNK0	0.000	
32	   C	0.567	2.099	1.226	C.3	1	UNK0	0.000	
33	   O	4.247	0.604	-0.376	O.3	1	UNK0	0.000	
34	   H	6.222	-2.756	2.719	 H	1	UNK0	0.000	
35	   H	4.565	-1.114	1.945	 H	1	UNK0	0.000	
36	   H	5.078	-2.517	-2.055	 H	1	UNK0	0.000	
37	   H	6.709	-4.134	-1.232	 H	1	UNK0	0.000	
38	   H	3.283	-1.789	-2.328	 H	1	UNK0	0.000	
39	   H	3.668	-0.060	-2.492	 H	1	UNK0	0.000	
40	   H	1.104	-1.486	-2.224	 H	1	UNK0	0.000	
41	   H	1.422	0.045	-3.007	 H	1	UNK0	0.000	
42	   H	0.825	-1.712	0.057	 H	1	UNK0	0.000	
43	   H	0.583	-0.304	1.154	 H	1	UNK0	0.000	
44	   H	2.905	-0.048	1.443	 H	1	UNK0	0.000	
45	   H	2.742	-1.774	1.189	 H	1	UNK0	0.000	
46	   H	-0.712	2.852	-0.235	 H	1	UNK0	0.000	
47	   H	-1.787	0.850	1.598	 H	1	UNK0	0.000	
48	   H	-4.863	2.527	-0.569	 H	1	UNK0	0.000	
49	   H	-6.786	2.324	-0.368	 H	1	UNK0	0.000	
50	   H	-8.815	1.148	0.320	 H	1	UNK0	0.000	
51	   H	-3.289	-0.213	1.536	 H	1	UNK0	0.000	
52	   H	-3.105	-2.236	2.905	 H	1	UNK0	0.000	
53	   H	-5.106	-3.390	3.595	 H	1	UNK0	0.000	
54	   H	-7.373	-2.444	2.946	 H	1	UNK0	0.000	
55	   H	0.454	1.691	2.257	 H	1	UNK0	0.000	
56	   H	0.695	3.223	1.410	 H	1	UNK0	0.000	
57	   H	1.591	1.836	0.831	 H	1	UNK0	0.000	
58	   H	5.184	0.525	-0.130	 H	1	UNK0	0.000	
@<TRIPOS>BOND
1 1 2 1
2 2 3 2
3 2 7 1
4 3 4 1
5 4 5 2
6 5 6 1
7 5 8 1
8 6 7 2
9 8 9 1
10 8 13 1
11 8 33 1
12 9 10 1
13 10 11 1
14 11 12 1
15 11 14 1
16 12 13 1
17 14 15 2
18 14 16 1
19 16 17 1
20 16 32 1
21 17 18 1
22 18 19 2
23 18 20 1
24 20 21 2
25 21 22 1
26 21 27 1
27 22 23 1
28 23 24 1
29 24 25 2
30 24 26 1
31 26 27 2
32 26 31 1
33 27 28 1
34 28 29 2
35 29 30 1
36 30 31 2
37 3 34 1
38 4 35 1
39 6 36 1
40 7 37 1
41 9 38 1
42 9 39 1
43 10 40 1
44 10 41 1
45 12 42 1
46 12 43 1
47 13 44 1
48 13 45 1
49 16 46 1
50 17 47 1
51 20 48 1
52 22 49 1
53 23 50 1
54 28 51 1
55 29 52 1
56 30 53 1
57 31 54 1
58 32 55 1
59 32 56 1
60 32 57 1
61 33 58 1
@<TRIPOS>SUBSTRUCTURE
1	UNK0	1	GROUP	1 ****	UNK
