REMARK  5 active torsions:
REMARK  status: ('A' for Active; 'I' for Inactive)
REMARK    1  A    between atoms: C_5  and  C_8 
REMARK    2  A    between atoms: C_8  and  O_33 
REMARK       I    between atoms: N_11  and  C_14 
REMARK    3  A    between atoms: C_14  and  C_16 
REMARK    4  A    between atoms: C_16  and  N_17 
REMARK       I    between atoms: N_17  and  C_18 
REMARK    5  A    between atoms: C_20  and  C_21 
ROOT
ATOM      1  C   UNK d   1      -0.475   1.794   0.290  0.00  0.00     0.172 C 
ATOM      2  C   UNK d   1       0.567   2.099   1.226  0.00  0.00     0.042 C 
ENDROOT
BRANCH   1   3
ATOM      3  C   UNK d   1      -0.111   1.008  -0.962  0.00  0.00     0.242 C 
ATOM      4  N   UNK d   1       0.952   0.074  -0.930  0.00  0.00    -0.350 N 
ATOM      5  C   UNK d   1       1.638  -0.474  -2.054  0.00  0.00     0.129 C 
ATOM      6  C   UNK d   1       1.206  -0.642   0.336  0.00  0.00     0.129 C 
ATOM      7  C   UNK d   1       3.096  -0.795  -1.839  0.00  0.00     0.062 C 
ATOM      8  C   UNK d   1       3.622  -0.676  -0.471  0.00  0.00     0.088 C 
ATOM      9  C   UNK d   1       2.615  -0.764   0.649  0.00  0.00     0.062 C 
ATOM     10  O   UNK d   1      -0.759   1.199  -1.988  0.00  0.00    -0.271 OA
BRANCH   8  11
ATOM     11  C   UNK d   1       4.660  -1.676  -0.131  0.00  0.00    -0.024 A 
ATOM     12  C   UNK d   1       5.006  -1.769   1.209  0.00  0.00     0.012 A 
ATOM     13  C   UNK d   1       5.954  -2.697   1.665  0.00  0.00     0.024 A 
ATOM     14  C   UNK d   1       6.564  -3.548   0.773  0.00  0.00     0.034 A 
ATOM     15 Cl   UNK d   1       7.755  -4.745   1.336  0.00  0.00    -0.084 Cl
ATOM     16  C   UNK d   1       6.218  -3.456  -0.564  0.00  0.00     0.024 A 
ATOM     17  C   UNK d   1       5.279  -2.525  -0.990  0.00  0.00     0.012 A 
ENDBRANCH   8  11
BRANCH   8  18
ATOM     18  O   UNK d   1       4.247   0.604  -0.376  0.00  0.00    -0.385 OA
ATOM     19  H   UNK d   1       5.184   0.525  -0.130  0.00  0.00     0.211 HD
ENDBRANCH   8  18
ENDBRANCH   1   3
BRANCH   1  20
ATOM     20  N   UNK d   1      -1.814   1.447   0.704  0.00  0.00    -0.356 N 
ATOM     21  C   UNK d   1      -2.984   1.888   0.088  0.00  0.00     0.177 C 
ATOM     22  O   UNK d   1      -2.662   2.759  -0.934  0.00  0.00    -0.172 OA
ATOM     23  C   UNK d   1      -4.356   1.704   0.166  0.00  0.00     0.090 C 
ATOM     24  H   UNK d   1      -1.787   0.850   1.598  0.00  0.00     0.162 HD
BRANCH  23  25
ATOM     25  C   UNK d   1      -5.378   1.067   0.655  0.00  0.00     0.063 A 
ATOM     26  N   UNK d   1      -6.732   1.472   0.254  0.00  0.00    -0.297 N 
ATOM     27  N   UNK d   1      -7.872   0.799   0.647  0.00  0.00    -0.265 N 
ATOM     28  H   UNK d   1      -6.786   2.324  -0.368  0.00  0.00     0.187 HD
ATOM     29  C   UNK d   1      -7.823  -0.322   1.460  0.00  0.00     0.271 A 
ATOM     30  H   UNK d   1      -8.815   1.148   0.320  0.00  0.00     0.190 HD
ATOM     31  O   UNK d   1      -8.834  -0.961   1.847  0.00  0.00    -0.266 OA
ATOM     32  C   UNK d   1      -6.499  -0.808   1.917  0.00  0.00     0.046 A 
ATOM     33  C   UNK d   1      -5.390  -0.111   1.500  0.00  0.00     0.008 A 
ATOM     34  C   UNK d   1      -6.448  -1.963   2.659  0.00  0.00     0.018 A 
ATOM     35  C   UNK d   1      -4.160  -0.665   1.872  0.00  0.00     0.015 A 
ATOM     36  C   UNK d   1      -4.092  -1.831   2.621  0.00  0.00     0.001 A 
ATOM     37  C   UNK d   1      -5.226  -2.487   3.023  0.00  0.00     0.001 A 
ENDBRANCH  23  25
ENDBRANCH   1  20
TORSDOF 5
