REMARK  6 active torsions:
REMARK  status: ('A' for Active; 'I' for Inactive)
REMARK    1  A    between atoms: C_3  and  N_15 
REMARK    2  A    between atoms: N_6  and  C_9 
REMARK       I    between atoms: N_18  and  C_21 
REMARK    3  A    between atoms: C_21  and  C_23 
REMARK    4  A    between atoms: C_23  and  C_24 
REMARK    5  A    between atoms: C_24  and  C_25 
REMARK    6  A    between atoms: C_25  and  N_26 
ROOT
ATOM      1  N   UNK d   1      -1.496   0.944   2.583  0.00  0.00    -0.375 N 
ATOM      2  C   UNK d   1      -0.496   1.993   2.756  0.00  0.00     0.143 C 
ATOM      3  C   UNK d   1      -0.546   3.014   1.642  0.00  0.00     0.145 C 
ATOM      4  N   UNK d   1      -1.824   2.890   0.984  0.00  0.00    -0.349 N 
ATOM      5  C   UNK d   1      -2.974   2.750   1.859  0.00  0.00     0.145 C 
ATOM      6  C   UNK d   1      -2.904   1.346   2.458  0.00  0.00     0.143 C 
ATOM      7  C   UNK d   1      -2.000   2.899  -0.415  0.00  0.00     0.219 C 
ATOM      8  O   UNK d   1      -3.154   2.785  -0.883  0.00  0.00    -0.273 OA
ENDROOT
BRANCH   1   9
ATOM      9  C   UNK d   1      -1.099  -0.404   2.502  0.00  0.00     0.077 A 
ATOM     10  C   UNK d   1      -1.929  -1.466   2.790  0.00  0.00     0.131 A 
ATOM     11 Cl   UNK d   1      -3.546  -1.116   3.347  0.00  0.00    -0.076 Cl
ATOM     12  C   UNK d   1      -1.481  -2.783   2.655  0.00  0.00     0.292 A 
ATOM     13  N   UNK d   1      -0.243  -3.088   2.247  0.00  0.00    -0.197 N 
ATOM     14  O   UNK d   1      -2.295  -3.698   2.936  0.00  0.00    -0.264 OA
ATOM     15  N   UNK d   1       0.544  -2.069   1.974  0.00  0.00    -0.174 NA
ATOM     16  C   UNK d   1       0.185  -0.776   2.079  0.00  0.00     0.170 A 
BRANCH  13  17
ATOM     17  C   UNK d   1       0.220  -4.428   2.108  0.00  0.00     0.062 A 
ATOM     18  C   UNK d   1       0.680  -4.927   0.899  0.00  0.00     0.032 A 
ATOM     19  C   UNK d   1       1.132  -6.222   0.747  0.00  0.00     0.002 A 
ATOM     20  C   UNK d   1       1.122  -7.049   1.851  0.00  0.00     0.000 A 
ATOM     21  C   UNK d   1       0.669  -6.584   3.072  0.00  0.00     0.002 A 
ATOM     22  C   UNK d   1       0.217  -5.265   3.194  0.00  0.00     0.032 A 
ENDBRANCH  13  17
ENDBRANCH   1   9
BRANCH   7  23
ATOM     23  C   UNK d   1      -0.880   3.038  -1.377  0.00  0.00     0.104 C 
BRANCH  23  24
ATOM     24  C   UNK d   1      -1.388   3.011  -2.800  0.00  0.00     0.029 C 
BRANCH  24  25
ATOM     25  C   UNK d   1      -0.285   3.155  -3.806  0.00  0.00     0.137 C 
BRANCH  25  26
ATOM     26  N   UNK d   1       0.718   2.116  -3.730  0.00  0.00    -0.269 N 
ATOM     27  C   UNK d   1       1.900   2.151  -2.951  0.00  0.00     0.327 A 
ATOM     28  O   UNK d   1       2.279   3.103  -2.189  0.00  0.00    -0.247 OA
ATOM     29  N   UNK d   1       2.654   0.969  -3.108  0.00  0.00    -0.329 N 
ATOM     30  C   UNK d   1       1.959   0.109  -4.040  0.00  0.00     0.230 A 
ATOM     31  C   UNK d   1       3.909   0.655  -2.456  0.00  0.00     0.155 C 
ATOM     32  C   UNK d   1       0.734   0.854  -4.406  0.00  0.00     0.245 A 
ATOM     33  O   UNK d   1      -0.157   0.454  -5.185  0.00  0.00    -0.271 OA
ENDBRANCH  25  26
ENDBRANCH  24  25
ENDBRANCH  23  24
ENDBRANCH   7  23
TORSDOF 6
