# created with PyMOL 2.3.2
@<TRIPOS>MOLECULE
2380
48 51 1                 
SMALL
USER_CHARGES
@<TRIPOS>ATOM
1	  Cl	1.324	2.999	-2.477	Cl	1	UNK0	0.000	
2	   C	1.771	2.079	-1.044	C.2	1	UNK0	0.000	
3	   C	1.300	0.792	-0.938	C.2	1	UNK0	0.000	
4	   C	1.669	0.096	0.202	C.2	1	UNK0	0.000	
5	   N	2.446	0.683	1.129	N.2	1	UNK0	0.000	
6	   N	2.906	1.920	1.039	N.pl3	1	UNK0	0.000	
7	   C	2.566	2.624	-0.055	C.2	1	UNK0	0.000	
8	   O	2.969	3.812	-0.210	O.2	1	UNK0	0.000	
9	   C	3.733	2.491	2.064	C.2	1	UNK0	0.000	
10	   C	4.724	1.737	2.658	C.2	1	UNK0	0.000	
11	   C	5.537	2.280	3.657	C.2	1	UNK0	0.000	
12	   C	5.360	3.578	4.064	C.2	1	UNK0	0.000	
13	   C	4.378	4.339	3.483	C.2	1	UNK0	0.000	
14	   C	3.588	3.791	2.502	C.2	1	UNK0	0.000	
15	   N	0.488	0.254	-1.959	N.pl3	1	UNK0	0.000	
16	   C	-0.790	0.857	-2.320	C.3	1	UNK0	0.000	
17	   C	-1.850	-0.174	-1.886	C.3	1	UNK0	0.000	
18	   N	-1.550	-1.458	-2.438	N.pl3	1	UNK0	0.000	
19	   C	-0.399	-1.539	-3.362	C.3	1	UNK0	0.000	
20	   C	0.835	-0.924	-2.733	C.3	1	UNK0	0.000	
21	   C	-2.293	-2.632	-2.148	C.2	1	UNK0	0.000	
22	   O	-1.989	-3.750	-2.662	O.2	1	UNK0	0.000	
23	   C	-3.455	-2.638	-1.242	C.3	1	UNK0	0.000	
24	   O	-3.701	-1.393	-0.750	O.3	1	UNK0	0.000	
25	   C	-5.069	-1.266	-0.545	C.3	1	UNK0	0.000	
26	   C	-5.616	-1.914	-1.809	C.3	1	UNK0	0.000	
27	   C	-4.713	-3.124	-1.926	C.3	1	UNK0	0.000	
28	   H	1.303	-0.919	0.295	 H	1	UNK0	0.000	
29	   H	4.920	0.714	2.389	 H	1	UNK0	0.000	
30	   H	6.322	1.706	4.137	 H	1	UNK0	0.000	
31	   H	5.975	4.023	4.835	 H	1	UNK0	0.000	
32	   H	4.203	5.357	3.769	 H	1	UNK0	0.000	
33	   H	2.821	4.390	2.051	 H	1	UNK0	0.000	
34	   H	-0.843	0.960	-3.416	 H	1	UNK0	0.000	
35	   H	-1.005	1.768	-1.768	 H	1	UNK0	0.000	
36	   H	-1.728	-0.221	-0.780	 H	1	UNK0	0.000	
37	   H	-2.851	0.228	-2.142	 H	1	UNK0	0.000	
38	   H	-0.675	-0.908	-4.229	 H	1	UNK0	0.000	
39	   H	-0.242	-2.570	-3.674	 H	1	UNK0	0.000	
40	   H	1.544	-0.653	-3.549	 H	1	UNK0	0.000	
41	   H	1.342	-1.694	-2.119	 H	1	UNK0	0.000	
42	   H	-3.219	-3.391	-0.454	 H	1	UNK0	0.000	
43	   H	-5.413	-1.794	0.363	 H	1	UNK0	0.000	
44	   H	-5.383	-0.216	-0.505	 H	1	UNK0	0.000	
45	   H	-5.424	-1.257	-2.667	 H	1	UNK0	0.000	
46	   H	-6.676	-2.199	-1.683	 H	1	UNK0	0.000	
47	   H	-4.546	-3.419	-2.980	 H	1	UNK0	0.000	
48	   H	-5.201	-3.929	-1.341	 H	1	UNK0	0.000	
@<TRIPOS>BOND
1 1 2 1
2 2 3 2
3 2 7 1
4 3 4 1
5 3 15 1
6 4 5 2
7 5 6 1
8 6 7 1
9 6 9 1
10 7 8 2
11 9 10 2
12 9 14 1
13 10 11 1
14 11 12 2
15 12 13 1
16 13 14 2
17 15 16 1
18 15 20 1
19 16 17 1
20 17 18 1
21 18 19 1
22 18 21 1
23 19 20 1
24 21 22 2
25 21 23 1
26 23 24 1
27 23 27 1
28 24 25 1
29 25 26 1
30 26 27 1
31 4 28 1
32 10 29 1
33 11 30 1
34 12 31 1
35 13 32 1
36 14 33 1
37 16 34 1
38 16 35 1
39 17 36 1
40 17 37 1
41 19 38 1
42 19 39 1
43 20 40 1
44 20 41 1
45 23 42 1
46 25 43 1
47 25 44 1
48 26 45 1
49 26 46 1
50 27 47 1
51 27 48 1
@<TRIPOS>SUBSTRUCTURE
1	UNK0	1	GROUP	1 ****	UNK
