REMARK  3 active torsions:
REMARK  status: ('A' for Active; 'I' for Inactive)
REMARK    1  A    between atoms: C_3  and  N_15 
REMARK    2  A    between atoms: N_6  and  C_9 
REMARK       I    between atoms: N_18  and  C_21 
REMARK    3  A    between atoms: C_21  and  C_23 
ROOT
ATOM      1 Cl   UNK d   1       1.324   2.999  -2.477  0.00  0.00    -0.076 Cl
ATOM      2  C   UNK d   1       1.771   2.079  -1.044  0.00  0.00     0.131 A 
ATOM      3  C   UNK d   1       1.300   0.792  -0.938  0.00  0.00     0.077 A 
ATOM      4  C   UNK d   1       1.669   0.096   0.202  0.00  0.00     0.170 A 
ATOM      5  N   UNK d   1       2.446   0.683   1.129  0.00  0.00    -0.174 NA
ATOM      6  N   UNK d   1       2.906   1.920   1.039  0.00  0.00    -0.197 N 
ATOM      7  C   UNK d   1       2.566   2.624  -0.055  0.00  0.00     0.292 A 
ATOM      8  O   UNK d   1       2.969   3.812  -0.210  0.00  0.00    -0.264 OA
ENDROOT
BRANCH   3   9
ATOM      9  N   UNK d   1       0.488   0.254  -1.959  0.00  0.00    -0.375 N 
ATOM     10  C   UNK d   1      -0.790   0.857  -2.320  0.00  0.00     0.143 C 
ATOM     11  C   UNK d   1      -1.850  -0.174  -1.886  0.00  0.00     0.145 C 
ATOM     12  N   UNK d   1      -1.550  -1.458  -2.438  0.00  0.00    -0.347 N 
ATOM     13  C   UNK d   1      -0.399  -1.539  -3.362  0.00  0.00     0.145 C 
ATOM     14  C   UNK d   1      -2.293  -2.632  -2.148  0.00  0.00     0.248 C 
ATOM     15  C   UNK d   1       0.835  -0.924  -2.733  0.00  0.00     0.143 C 
ATOM     16  O   UNK d   1      -1.989  -3.750  -2.662  0.00  0.00    -0.270 OA
BRANCH  14  17
ATOM     17  C   UNK d   1      -3.455  -2.638  -1.242  0.00  0.00     0.213 C 
ATOM     18  O   UNK d   1      -3.701  -1.393  -0.750  0.00  0.00    -0.376 OA
ATOM     19  C   UNK d   1      -5.069  -1.266  -0.545  0.00  0.00     0.168 C 
ATOM     20  C   UNK d   1      -5.616  -1.914  -1.809  0.00  0.00     0.029 C 
ATOM     21  C   UNK d   1      -4.713  -3.124  -1.926  0.00  0.00     0.043 C 
ENDBRANCH  14  17
ENDBRANCH   3   9
BRANCH   6  22
ATOM     22  C   UNK d   1       3.733   2.491   2.064  0.00  0.00     0.062 A 
ATOM     23  C   UNK d   1       4.724   1.737   2.658  0.00  0.00     0.032 A 
ATOM     24  C   UNK d   1       5.537   2.280   3.657  0.00  0.00     0.002 A 
ATOM     25  C   UNK d   1       5.360   3.578   4.064  0.00  0.00     0.000 A 
ATOM     26  C   UNK d   1       4.378   4.339   3.483  0.00  0.00     0.002 A 
ATOM     27  C   UNK d   1       3.588   3.791   2.502  0.00  0.00     0.032 A 
ENDBRANCH   6  22
TORSDOF 3
