# created with PyMOL 2.3.2
@<TRIPOS>MOLECULE
2381
50 53 1                 
SMALL
USER_CHARGES
@<TRIPOS>ATOM
1	  Cl	0.123	2.016	-0.960	Cl	1	UNK0	0.000	
2	   C	1.416	0.842	-0.870	C.2	1	UNK0	0.000	
3	   C	1.101	-0.502	-0.862	C.2	1	UNK0	0.000	
4	   C	2.170	-1.377	-0.787	C.2	1	UNK0	0.000	
5	   N	3.443	-0.944	-0.725	N.2	1	UNK0	0.000	
6	   N	3.763	0.340	-0.732	N.pl3	1	UNK0	0.000	
7	   C	2.748	1.220	-0.804	C.2	1	UNK0	0.000	
8	   O	3.041	2.434	-0.812	O.2	1	UNK0	0.000	
9	   C	5.119	0.791	-0.667	C.2	1	UNK0	0.000	
10	   C	5.617	1.672	-1.605	C.2	1	UNK0	0.000	
11	   C	6.924	2.112	-1.550	C.2	1	UNK0	0.000	
12	   C	7.791	1.695	-0.561	C.2	1	UNK0	0.000	
13	   C	7.299	0.815	0.380	C.2	1	UNK0	0.000	
14	   C	5.995	0.379	0.320	C.2	1	UNK0	0.000	
15	   N	-0.246	-0.973	-0.928	N.pl3	1	UNK0	0.000	
16	   C	-1.030	-0.641	-2.085	C.3	1	UNK0	0.000	
17	   C	-2.466	-0.343	-1.715	C.3	1	UNK0	0.000	
18	   N	-2.914	-1.145	-0.604	N.pl3	1	UNK0	0.000	
19	   C	-2.115	-2.276	-0.199	C.3	1	UNK0	0.000	
20	   C	-0.750	-1.761	0.179	C.3	1	UNK0	0.000	
21	   C	-4.118	-0.820	0.071	C.2	1	UNK0	0.000	
22	   O	-4.827	0.177	-0.281	O.2	1	UNK0	0.000	
23	   C	-4.625	-1.614	1.221	C.3	1	UNK0	0.000	
24	   O	-5.827	-1.098	1.725	O.3	1	UNK0	0.000	
25	   C	-5.887	0.192	2.216	C.2	1	UNK0	0.000	
26	   N	-4.928	1.120	2.307	N.2	1	UNK0	0.000	
27	   O	-5.400	2.204	2.830	O.3	1	UNK0	0.000	
28	   C	-6.679	2.081	3.119	C.2	1	UNK0	0.000	
29	   C	-7.021	0.800	2.736	C.2	1	UNK0	0.000	
30	   C	-7.488	3.154	3.725	C.3	1	UNK0	0.000	
31	   H	1.931	-2.451	-0.779	 H	1	UNK0	0.000	
32	   H	4.961	2.016	-2.393	 H	1	UNK0	0.000	
33	   H	7.316	2.802	-2.285	 H	1	UNK0	0.000	
34	   H	8.818	2.049	-0.527	 H	1	UNK0	0.000	
35	   H	8.001	0.502	1.148	 H	1	UNK0	0.000	
36	   H	5.652	-0.308	1.074	 H	1	UNK0	0.000	
37	   H	-0.631	0.242	-2.619	 H	1	UNK0	0.000	
38	   H	-0.953	-1.506	-2.791	 H	1	UNK0	0.000	
39	   H	-2.617	0.729	-1.578	 H	1	UNK0	0.000	
40	   H	-3.094	-0.640	-2.596	 H	1	UNK0	0.000	
41	   H	-1.964	-2.912	-1.114	 H	1	UNK0	0.000	
42	   H	-2.587	-2.873	0.600	 H	1	UNK0	0.000	
43	   H	-0.786	-1.157	1.114	 H	1	UNK0	0.000	
44	   H	-0.085	-2.662	0.317	 H	1	UNK0	0.000	
45	   H	-3.864	-1.726	2.017	 H	1	UNK0	0.000	
46	   H	-4.854	-2.663	0.871	 H	1	UNK0	0.000	
47	   H	-8.008	0.380	2.839	 H	1	UNK0	0.000	
48	   H	-8.462	2.793	4.095	 H	1	UNK0	0.000	
49	   H	-7.690	3.984	2.986	 H	1	UNK0	0.000	
50	   H	-6.899	3.624	4.567	 H	1	UNK0	0.000	
@<TRIPOS>BOND
1 1 2 1
2 2 3 2
3 2 7 1
4 3 4 1
5 3 15 1
6 4 5 2
7 5 6 1
8 6 7 1
9 6 9 1
10 7 8 2
11 9 10 2
12 9 14 1
13 10 11 1
14 11 12 2
15 12 13 1
16 13 14 2
17 15 16 1
18 15 20 1
19 16 17 1
20 17 18 1
21 18 19 1
22 18 21 1
23 19 20 1
24 21 22 2
25 21 23 1
26 23 24 1
27 24 25 1
28 25 26 2
29 25 29 1
30 26 27 1
31 27 28 1
32 28 29 2
33 28 30 1
34 4 31 1
35 10 32 1
36 11 33 1
37 12 34 1
38 13 35 1
39 14 36 1
40 16 37 1
41 16 38 1
42 17 39 1
43 17 40 1
44 19 41 1
45 19 42 1
46 20 43 1
47 20 44 1
48 23 45 1
49 23 46 1
50 29 47 1
51 30 48 1
52 30 49 1
53 30 50 1
@<TRIPOS>SUBSTRUCTURE
1	UNK0	1	GROUP	1 ****	UNK
