REMARK  4 active torsions:
REMARK  status: ('A' for Active; 'I' for Inactive)
REMARK       I    between atoms: N_11  and  C_13 
REMARK    1  A    between atoms: C_13  and  C_15 
REMARK    2  A    between atoms: C_15  and  C_16 
REMARK    3  A    between atoms: C_16  and  C_17 
REMARK    4  A    between atoms: C_17  and  N_18 
ROOT
ATOM      1 Cl   UNK d   1      -4.028  -3.569   4.259  0.00  0.00    -0.084 Cl
ATOM      2  C   UNK d   1      -3.345  -2.357   3.180  0.00  0.00     0.034 A 
ATOM      3  C   UNK d   1      -1.992  -2.062   3.332  0.00  0.00     0.035 A 
ATOM      4  C   UNK d   1      -1.443  -1.116   2.496  0.00  0.00    -0.005 A 
ATOM      5  C   UNK d   1      -2.227  -0.487   1.538  0.00  0.00     0.078 A 
ATOM      6  C   UNK d   1      -3.576  -0.787   1.393  0.00  0.00     0.039 A 
ATOM      7  C   UNK d   1      -4.127  -1.737   2.234  0.00  0.00     0.026 A 
ATOM      8  O   UNK d   1      -1.749   0.473   0.662  0.00  0.00    -0.338 OA
ATOM      9  C   UNK d   1      -0.696   1.384   0.814  0.00  0.00     0.088 C 
ATOM     10  C   UNK d   1       0.650   0.797   1.037  0.00  0.00     0.164 C 
ATOM     11  N   UNK d   1       0.694  -0.522   1.580  0.00  0.00    -0.345 N 
ATOM     12  C   UNK d   1       0.001  -0.940   2.806  0.00  0.00     0.167 C 
ATOM     13  C   UNK d   1       1.461  -1.515   0.911  0.00  0.00     0.220 C 
ATOM     14  O   UNK d   1       2.065  -1.160  -0.127  0.00  0.00    -0.273 OA
ATOM     15  C   UNK d   1      -0.646   2.266  -0.448  0.00  0.00     0.066 C 
ATOM     16  C   UNK d   1      -2.046   2.772  -0.668  0.00  0.00     0.170 C 
ATOM     17  O   UNK d   1      -2.904   2.432   0.363  0.00  0.00    -0.391 OA
ATOM     18  C   UNK d   1      -2.462   2.878   1.596  0.00  0.00     0.170 C 
ATOM     19  C   UNK d   1      -1.071   2.380   1.923  0.00  0.00     0.066 C 
ENDROOT
BRANCH  13  20
ATOM     20  C   UNK d   1       1.559  -2.884   1.393  0.00  0.00     0.104 C 
BRANCH  20  21
ATOM     21  C   UNK d   1       2.016  -3.925   0.455  0.00  0.00     0.029 C 
BRANCH  21  22
ATOM     22  C   UNK d   1       1.197  -4.264  -0.720  0.00  0.00     0.137 C 
BRANCH  22  23
ATOM     23  N   UNK d   1       0.864  -3.272  -1.673  0.00  0.00    -0.269 N 
ATOM     24  C   UNK d   1      -0.308  -2.477  -1.661  0.00  0.00     0.325 C 
ATOM     25  O   UNK d   1      -1.258  -2.484  -0.823  0.00  0.00    -0.247 OA
ATOM     26  N   UNK d   1      -0.246  -1.626  -2.792  0.00  0.00    -0.334 N 
ATOM     27  C   UNK d   1       1.124  -1.621  -3.300  0.00  0.00     0.227 C 
ATOM     28  H   UNK d   1      -1.019  -1.080  -3.221  0.00  0.00     0.164 HD
ATOM     29  C   UNK d   1       1.638  -2.914  -2.801  0.00  0.00     0.245 C 
ATOM     30  O   UNK d   1       2.612  -3.570  -3.319  0.00  0.00    -0.271 OA
ENDBRANCH  22  23
ENDBRANCH  21  22
ENDBRANCH  20  21
ENDBRANCH  13  20
TORSDOF 4
