# created with PyMOL 2.3.2
@<TRIPOS>MOLECULE
2386
53 56 1                 
SMALL
USER_CHARGES
@<TRIPOS>ATOM
1	  Cl	-4.028	-3.569	4.259	Cl	1	UNK0	0.000	
2	   C	-3.345	-2.357	3.180	C.2	1	UNK0	0.000	
3	   C	-1.992	-2.062	3.332	C.2	1	UNK0	0.000	
4	   C	-1.443	-1.116	2.496	C.2	1	UNK0	0.000	
5	   C	-2.227	-0.487	1.538	C.2	1	UNK0	0.000	
6	   C	-3.576	-0.787	1.393	C.2	1	UNK0	0.000	
7	   C	-4.127	-1.737	2.234	C.2	1	UNK0	0.000	
8	   O	-1.749	0.473	0.662	O.3	1	UNK0	0.000	
9	   C	-0.696	1.384	0.814	C.3	1	UNK0	0.000	
10	   C	0.650	0.797	1.037	C.3	1	UNK0	0.000	
11	   N	0.694	-0.522	1.580	N.pl3	1	UNK0	0.000	
12	   C	0.001	-0.940	2.806	C.3	1	UNK0	0.000	
13	   C	1.461	-1.515	0.911	C.2	1	UNK0	0.000	
14	   O	2.065	-1.160	-0.127	O.2	1	UNK0	0.000	
15	   C	1.559	-2.884	1.393	C.3	1	UNK0	0.000	
16	   C	2.016	-3.925	0.455	C.3	1	UNK0	0.000	
17	   C	1.197	-4.264	-0.720	C.3	1	UNK0	0.000	
18	   N	0.864	-3.272	-1.673	N.pl3	1	UNK0	0.000	
19	   C	-0.308	-2.477	-1.661	C.2	1	UNK0	0.000	
20	   O	-1.258	-2.484	-0.823	O.2	1	UNK0	0.000	
21	   N	-0.246	-1.626	-2.792	N.pl3	1	UNK0	0.000	
22	   C	1.124	-1.621	-3.300	C.3	1	UNK0	0.000	
23	   C	1.638	-2.914	-2.801	C.2	1	UNK0	0.000	
24	   O	2.612	-3.570	-3.319	O.2	1	UNK0	0.000	
25	   C	-0.646	2.266	-0.448	C.3	1	UNK0	0.000	
26	   C	-2.046	2.772	-0.668	C.3	1	UNK0	0.000	
27	   O	-2.904	2.432	0.363	O.3	1	UNK0	0.000	
28	   C	-2.462	2.878	1.596	C.3	1	UNK0	0.000	
29	   C	-1.071	2.380	1.923	C.3	1	UNK0	0.000	
30	   H	-1.424	-2.574	4.087	 H	1	UNK0	0.000	
31	   H	-4.146	-0.285	0.650	 H	1	UNK0	0.000	
32	   H	-5.185	-1.994	2.143	 H	1	UNK0	0.000	
33	   H	1.183	1.462	1.780	 H	1	UNK0	0.000	
34	   H	1.280	0.891	0.107	 H	1	UNK0	0.000	
35	   H	0.453	-1.807	3.282	 H	1	UNK0	0.000	
36	   H	0.048	-0.114	3.566	 H	1	UNK0	0.000	
37	   H	0.615	-3.253	1.868	 H	1	UNK0	0.000	
38	   H	2.289	-2.879	2.259	 H	1	UNK0	0.000	
39	   H	2.110	-4.886	1.064	 H	1	UNK0	0.000	
40	   H	3.107	-3.749	0.170	 H	1	UNK0	0.000	
41	   H	1.720	-5.154	-1.217	 H	1	UNK0	0.000	
42	   H	0.208	-4.751	-0.420	 H	1	UNK0	0.000	
43	   H	-1.019	-1.080	-3.221	 H	1	UNK0	0.000	
44	   H	1.715	-0.816	-2.827	 H	1	UNK0	0.000	
45	   H	1.141	-1.576	-4.408	 H	1	UNK0	0.000	
46	   H	-0.236	1.717	-1.299	 H	1	UNK0	0.000	
47	   H	0.018	3.116	-0.181	 H	1	UNK0	0.000	
48	   H	-2.080	3.876	-0.832	 H	1	UNK0	0.000	
49	   H	-2.429	2.305	-1.598	 H	1	UNK0	0.000	
50	   H	-2.544	3.981	1.721	 H	1	UNK0	0.000	
51	   H	-3.162	2.440	2.364	 H	1	UNK0	0.000	
52	   H	-0.384	3.259	1.820	 H	1	UNK0	0.000	
53	   H	-0.996	1.943	2.918	 H	1	UNK0	0.000	
@<TRIPOS>BOND
1 1 2 1
2 2 3 2
3 2 7 1
4 3 4 1
5 4 5 2
6 4 12 1
7 5 6 1
8 5 8 1
9 6 7 2
10 8 9 1
11 9 10 1
12 9 25 1
13 9 29 1
14 10 11 1
15 11 12 1
16 11 13 1
17 13 14 2
18 13 15 1
19 15 16 1
20 16 17 1
21 17 18 1
22 18 19 1
23 18 23 1
24 19 20 2
25 19 21 1
26 21 22 1
27 22 23 1
28 23 24 2
29 25 26 1
30 26 27 1
31 27 28 1
32 28 29 1
33 3 30 1
34 6 31 1
35 7 32 1
36 10 33 1
37 10 34 1
38 12 35 1
39 12 36 1
40 15 37 1
41 15 38 1
42 16 39 1
43 16 40 1
44 17 41 1
45 17 42 1
46 21 43 1
47 22 44 1
48 22 45 1
49 25 46 1
50 25 47 1
51 26 48 1
52 26 49 1
53 28 50 1
54 28 51 1
55 29 52 1
56 29 53 1
@<TRIPOS>SUBSTRUCTURE
1	UNK0	1	GROUP	1 ****	UNK
