REMARK  6 active torsions:
REMARK  status: ('A' for Active; 'I' for Inactive)
REMARK    1  A    between atoms: C_5  and  C_8 
REMARK    2  A    between atoms: N_9  and  C_28 
REMARK    3  A    between atoms: C_15  and  C_17 
REMARK    4  A    between atoms: C_25  and  O_26 
REMARK    5  A    between atoms: C_28  and  C_29 
REMARK    6  A    between atoms: C_29  and  N_30 
ROOT
ATOM      1  C   UNK d   1       1.027   0.894  -0.931  0.00  0.00     0.161 C 
ATOM      2  N   UNK d   1       1.512  -0.447  -1.067  0.00  0.00    -0.331 N 
ATOM      3  C   UNK d   1       0.433  -1.368  -1.107  0.00  0.00     0.295 C 
ATOM      4  O   UNK d   1       0.413  -2.590  -1.391  0.00  0.00    -0.264 OA
ATOM      5  C   UNK d   1      -0.805  -0.645  -0.734  0.00  0.00     0.251 C 
ATOM      6  O   UNK d   1      -1.964  -1.124  -0.657  0.00  0.00    -0.282 OA
ATOM      7  C   UNK d   1      -0.382   0.720  -0.483  0.00  0.00     0.064 C 
ATOM      8  C   UNK d   1      -1.190   1.644   0.052  0.00  0.00     0.153 C 
ATOM      9  O   UNK d   1      -0.608   2.911   0.186  0.00  0.00    -0.188 OA
ENDROOT
BRANCH   1  10
ATOM     10  C   UNK d   1       1.202   1.738  -2.101  0.00  0.00    -0.030 A 
ATOM     11  C   UNK d   1       1.705   3.016  -1.948  0.00  0.00     0.011 A 
ATOM     12  C   UNK d   1       1.910   3.882  -2.981  0.00  0.00     0.019 A 
ATOM     13  C   UNK d   1       1.611   3.494  -4.255  0.00  0.00     0.011 A 
ATOM     14 Br   UNK d   1       1.918   4.745  -5.668  0.00  0.00    -0.051 Br
ATOM     15  C   UNK d   1       1.107   2.234  -4.474  0.00  0.00     0.019 A 
ATOM     16  C   UNK d   1       0.908   1.372  -3.397  0.00  0.00     0.011 A 
ENDBRANCH   1  10
BRANCH   8  17
ATOM     17  C   UNK d   1      -2.560   1.370   0.470  0.00  0.00     0.114 A 
ATOM     18  O   UNK d   1      -3.058   0.388   1.139  0.00  0.00    -0.304 OA
ATOM     19  C   UNK d   1      -4.341   0.459   1.334  0.00  0.00     0.119 A 
ATOM     20  C   UNK d   1      -4.793   1.624   0.733  0.00  0.00     0.003 A 
ATOM     21  C   UNK d   1      -5.259  -0.350   1.980  0.00  0.00     0.102 A 
ATOM     22  C   UNK d   1      -3.637   2.187   0.189  0.00  0.00     0.054 A 
ATOM     23  C   UNK d   1      -6.128   1.947   0.789  0.00  0.00     0.014 A 
ATOM     24  C   UNK d   1      -7.025   1.128   1.435  0.00  0.00     0.004 A 
ATOM     25  C   UNK d   1      -6.581  -0.041   2.040  0.00  0.00     0.040 A 
BRANCH  21  26
ATOM     26  O   UNK d   1      -4.786  -1.503   2.571  0.00  0.00    -0.353 OA
ATOM     27  C   UNK d   1      -5.593  -2.441   3.270  0.00  0.00     0.210 C 
ENDBRANCH  21  26
ENDBRANCH   8  17
BRANCH   2  28
ATOM     28  C   UNK d   1       2.891  -0.843  -1.155  0.00  0.00     0.155 C 
BRANCH  28  29
ATOM     29  C   UNK d   1       3.476  -1.134   0.215  0.00  0.00     0.254 C 
BRANCH  29  30
ATOM     30  N   UNK d   1       4.840  -1.536   0.179  0.00  0.00    -0.077 N 
ATOM     31  C   UNK d   1       5.512  -1.359  -1.072  0.00  0.00     0.269 C 
ATOM     32  C   UNK d   1       5.595  -0.915   1.259  0.00  0.00     0.269 C 
ATOM     33  H   UNK d   1       4.865  -2.580   0.381  0.00  0.00     0.279 HD
ENDBRANCH  29  30
ENDBRANCH  28  29
ENDBRANCH   2  28
TORSDOF 6
