# created with PyMOL 2.3.2
@<TRIPOS>MOLECULE
2403
39 42 1                 
SMALL
USER_CHARGES
@<TRIPOS>ATOM
1	  Br	2.210	7.545	0.517	Br	1	UNK0	0.000	
2	   C	1.587	5.829	-0.029	C.2	1	UNK0	0.000	
3	   C	0.497	5.305	0.611	C.2	1	UNK0	0.000	
4	   N	0.039	4.091	0.240	N.pl3	1	UNK0	0.000	
5	   C	0.637	3.400	-0.742	C.2	1	UNK0	0.000	
6	   N	0.173	2.172	-1.117	N.2	1	UNK0	0.000	
7	   C	-0.895	1.620	-0.514	C.2	1	UNK0	0.000	
8	   C	-1.492	2.344	0.488	C.2	1	UNK0	0.000	
9	   C	-1.049	3.585	0.890	C.2	1	UNK0	0.000	
10	   O	-1.572	4.257	1.792	O.2	1	UNK0	0.000	
11	   C	-1.368	0.271	-0.973	C.3	1	UNK0	0.000	
12	   N	-0.608	-0.810	-0.377	N.pl3	1	UNK0	0.000	
13	   C	-0.840	-1.524	0.734	C.2	1	UNK0	0.000	
14	   C	0.172	-2.454	0.946	C.2	1	UNK0	0.000	
15	   N	1.033	-2.277	-0.084	N.2	1	UNK0	0.000	
16	   C	0.573	-1.302	-0.872	C.2	1	UNK0	0.000	
17	   N	0.192	-3.309	1.989	N.pl3	1	UNK0	0.000	
18	   C	-0.842	-3.227	2.847	C.2	1	UNK0	0.000	
19	   O	-0.840	-4.019	3.829	O.2	1	UNK0	0.000	
20	   N	-1.844	-2.349	2.688	N.pl3	1	UNK0	0.000	
21	   C	-1.866	-1.492	1.646	C.2	1	UNK0	0.000	
22	   O	-2.789	-0.671	1.480	O.2	1	UNK0	0.000	
23	   C	-2.958	-2.264	3.616	C.3	1	UNK0	0.000	
24	   C	1.279	-4.255	2.154	C.3	1	UNK0	0.000	
25	   C	1.741	3.923	-1.396	C.2	1	UNK0	0.000	
26	   C	2.231	5.155	-1.041	C.2	1	UNK0	0.000	
27	   H	-0.016	5.849	1.422	 H	1	UNK0	0.000	
28	   H	-2.356	1.930	0.986	 H	1	UNK0	0.000	
29	   H	-2.448	0.180	-0.770	 H	1	UNK0	0.000	
30	   H	-1.215	0.233	-2.069	 H	1	UNK0	0.000	
31	   H	1.025	-0.916	-1.780	 H	1	UNK0	0.000	
32	   H	-3.412	-1.254	3.614	 H	1	UNK0	0.000	
33	   H	-3.683	-3.057	3.322	 H	1	UNK0	0.000	
34	   H	-2.601	-2.510	4.652	 H	1	UNK0	0.000	
35	   H	0.981	-5.266	1.803	 H	1	UNK0	0.000	
36	   H	1.565	-4.254	3.236	 H	1	UNK0	0.000	
37	   H	2.180	-3.889	1.610	 H	1	UNK0	0.000	
38	   H	2.205	3.335	-2.191	 H	1	UNK0	0.000	
39	   H	3.105	5.576	-1.554	 H	1	UNK0	0.000	
@<TRIPOS>BOND
1 1 2 1
2 2 3 2
3 2 26 1
4 3 4 1
5 4 5 1
6 4 9 1
7 5 6 2
8 5 25 1
9 6 7 1
10 7 8 2
11 7 11 1
12 8 9 1
13 9 10 2
14 11 12 1
15 12 13 1
16 12 16 1
17 13 14 2
18 13 21 1
19 14 15 1
20 14 17 1
21 15 16 2
22 17 18 1
23 17 24 1
24 18 19 2
25 18 20 1
26 20 21 1
27 20 23 1
28 21 22 2
29 25 26 2
30 3 27 1
31 8 28 1
32 11 29 1
33 11 30 1
34 16 31 1
35 23 32 1
36 23 33 1
37 23 34 1
38 24 35 1
39 24 36 1
40 24 37 1
41 25 38 1
42 26 39 1
@<TRIPOS>SUBSTRUCTURE
1	UNK0	1	GROUP	1 ****	UNK
