REMARK  2 active torsions:
REMARK  status: ('A' for Active; 'I' for Inactive)
REMARK    1  A    between atoms: C_7  and  C_11 
REMARK    2  A    between atoms: C_11  and  N_12 
ROOT
ATOM      1  N   UNK d   1      -0.608  -0.810  -0.377  0.00  0.00    -0.328 N 
ATOM      2  C   UNK d   1      -0.840  -1.524   0.734  0.00  0.00     0.151 A 
ATOM      3  C   UNK d   1       0.172  -2.454   0.946  0.00  0.00     0.167 A 
ATOM      4  N   UNK d   1       1.033  -2.277  -0.084  0.00  0.00    -0.223 NA
ATOM      5  C   UNK d   1       0.573  -1.302  -0.872  0.00  0.00     0.213 A 
ATOM      6  N   UNK d   1       0.192  -3.309   1.989  0.00  0.00    -0.286 N 
ATOM      7  C   UNK d   1      -0.842  -3.227   2.847  0.00  0.00     0.332 A 
ATOM      8  O   UNK d   1      -0.840  -4.019   3.829  0.00  0.00    -0.246 OA
ATOM      9  N   UNK d   1      -1.844  -2.349   2.688  0.00  0.00    -0.269 N 
ATOM     10  C   UNK d   1      -1.866  -1.492   1.646  0.00  0.00     0.282 A 
ATOM     11  O   UNK d   1      -2.789  -0.671   1.480  0.00  0.00    -0.265 OA
ATOM     12  C   UNK d   1      -2.958  -2.264   3.616  0.00  0.00     0.164 C 
ATOM     13  C   UNK d   1       1.279  -4.255   2.154  0.00  0.00     0.163 C 
ENDROOT
BRANCH   1  14
ATOM     14  C   UNK d   1      -1.368   0.271  -0.973  0.00  0.00     0.189 C 
BRANCH  14  15
ATOM     15  C   UNK d   1      -0.895   1.620  -0.514  0.00  0.00     0.060 A 
ATOM     16  N   UNK d   1       0.173   2.172  -1.117  0.00  0.00    -0.233 NA
ATOM     17  C   UNK d   1       0.637   3.400  -0.742  0.00  0.00     0.137 A 
ATOM     18  N   UNK d   1       0.039   4.091   0.240  0.00  0.00    -0.272 N 
ATOM     19  C   UNK d   1       1.741   3.923  -1.396  0.00  0.00     0.052 A 
ATOM     20  C   UNK d   1       0.497   5.305   0.611  0.00  0.00     0.121 A 
ATOM     21  C   UNK d   1      -1.049   3.585   0.890  0.00  0.00     0.255 A 
ATOM     22  C   UNK d   1       1.587   5.829  -0.029  0.00  0.00     0.027 A 
ATOM     23 Br   UNK d   1       2.210   7.545   0.517  0.00  0.00    -0.050 Br
ATOM     24  C   UNK d   1       2.231   5.155  -1.041  0.00  0.00     0.024 A 
ATOM     25  C   UNK d   1      -1.492   2.344   0.488  0.00  0.00     0.103 A 
ATOM     26  O   UNK d   1      -1.572   4.257   1.792  0.00  0.00    -0.268 OA
ENDBRANCH  14  15
ENDBRANCH   1  14
TORSDOF 2
