REMARK  4 active torsions:
REMARK  status: ('A' for Active; 'I' for Inactive)
REMARK    1  A    between atoms: S_1  and  N_4 
REMARK    2  A    between atoms: S_1  and  C_26 
REMARK       I    between atoms: N_7  and  C_10 
REMARK    3  A    between atoms: C_10  and  C_12 
REMARK    4  A    between atoms: C_12  and  C_13 
ROOT
ATOM      1  N   UNK d   1      -1.736   1.330  -1.579  0.00  0.00    -0.304 N 
ATOM      2  C   UNK d   1      -1.857  -0.040  -1.790  0.00  0.00     0.155 C 
ATOM      3  C   UNK d   1      -0.740  -0.499  -2.737  0.00  0.00     0.146 C 
ATOM      4  N   UNK d   1       0.507   0.183  -2.387  0.00  0.00    -0.349 N 
ATOM      5  C   UNK d   1       0.471   1.632  -2.413  0.00  0.00     0.146 C 
ATOM      6  C   UNK d   1      -1.007   2.023  -2.558  0.00  0.00     0.155 C 
ATOM      7  C   UNK d   1       1.661  -0.568  -2.028  0.00  0.00     0.222 C 
ATOM      8  O   UNK d   1       1.559  -1.817  -2.023  0.00  0.00    -0.273 OA
ENDROOT
BRANCH   7   9
ATOM      9  C   UNK d   1       2.912   0.104  -1.678  0.00  0.00     0.138 C 
BRANCH   9  10
ATOM     10  C   UNK d   1       3.559  -0.412  -0.401  0.00  0.00     0.186 C 
ATOM     11  N   UNK d   1       3.885  -1.813  -0.447  0.00  0.00    -0.343 N 
ATOM     12  C   UNK d   1       3.351  -2.943   0.228  0.00  0.00     0.254 C 
ATOM     13  H   UNK d   1       4.676  -2.107  -1.102  0.00  0.00     0.163 HD
ATOM     14  O   UNK d   1       4.035  -3.995   0.336  0.00  0.00    -0.268 OA
ATOM     15  C   UNK d   1       2.019  -3.055   0.861  0.00  0.00     0.058 A 
ATOM     16  C   UNK d   1       1.232  -2.006   1.349  0.00  0.00     0.050 A 
ATOM     17  C   UNK d   1       1.545  -4.339   0.946  0.00  0.00     0.019 A 
ATOM     18  C   UNK d   1       0.013  -2.280   1.901  0.00  0.00     0.030 A 
ATOM     19  N   UNK d   1       1.577  -0.629   1.332  0.00  0.00    -0.324 N 
ATOM     20  C   UNK d   1      -0.494  -3.577   2.001  0.00  0.00     0.002 A 
ATOM     21  C   UNK d   1       0.313  -4.601   1.504  0.00  0.00     0.001 A 
ATOM     22  C   UNK d   1       2.735  -0.013   0.760  0.00  0.00     0.245 C 
ATOM     23  H   UNK d   1       0.905  -0.011   1.786  0.00  0.00     0.169 HD
ATOM     24  O   UNK d   1       3.078   1.052   1.385  0.00  0.00    -0.271 OA
ENDBRANCH   9  10
ENDBRANCH   7   9
BRANCH   1  25
ATOM     25  S   UNK d   1      -2.642   2.136  -0.449  0.00  0.00     0.260 S 
ATOM     26  O   UNK d   1      -2.270   3.607  -0.481  0.00  0.00    -0.200 OA
ATOM     27  O   UNK d   1      -4.134   2.091  -0.705  0.00  0.00    -0.200 OA
BRANCH  25  28
ATOM     28  C   UNK d   1      -2.369   1.592   1.210  0.00  0.00     0.079 A 
ATOM     29  C   UNK d   1      -3.083   0.549   1.753  0.00  0.00     0.027 A 
ATOM     30  C   UNK d   1      -2.838   0.164   3.053  0.00  0.00     0.025 A 
ATOM     31  C   UNK d   1      -1.897   0.776   3.860  0.00  0.00     0.034 A 
ATOM     32  C   UNK d   1      -1.177   1.829   3.309  0.00  0.00     0.025 A 
ATOM     33 Cl   UNK d   1      -1.581   0.297   5.495  0.00  0.00    -0.084 Cl
ATOM     34  C   UNK d   1      -1.426   2.210   2.010  0.00  0.00     0.027 A 
ENDBRANCH  25  28
ENDBRANCH   1  25
TORSDOF 4
