# created with PyMOL 2.3.2
@<TRIPOS>MOLECULE
2416
53 56 1                 
SMALL
USER_CHARGES
@<TRIPOS>ATOM
1	   S	-2.642	2.136	-0.449	S.O2	1	UNK0	0.000	
2	   O	-2.270	3.607	-0.481	O.2	1	UNK0	0.000	
3	   O	-4.134	2.091	-0.705	O.2	1	UNK0	0.000	
4	   N	-1.736	1.330	-1.579	N.3	1	UNK0	0.000	
5	   C	-1.857	-0.040	-1.790	C.3	1	UNK0	0.000	
6	   C	-0.740	-0.499	-2.737	C.3	1	UNK0	0.000	
7	   N	0.507	0.183	-2.387	N.pl3	1	UNK0	0.000	
8	   C	0.471	1.632	-2.413	C.3	1	UNK0	0.000	
9	   C	-1.007	2.023	-2.558	C.3	1	UNK0	0.000	
10	   C	1.661	-0.568	-2.028	C.2	1	UNK0	0.000	
11	   O	1.559	-1.817	-2.023	O.2	1	UNK0	0.000	
12	   C	2.912	0.104	-1.678	C.3	1	UNK0	0.000	
13	   C	3.559	-0.412	-0.401	C.3	1	UNK0	0.000	
14	   N	3.885	-1.813	-0.447	N.pl3	1	UNK0	0.000	
15	   C	3.351	-2.943	0.228	C.2	1	UNK0	0.000	
16	   O	4.035	-3.995	0.336	O.2	1	UNK0	0.000	
17	   C	2.019	-3.055	0.861	C.2	1	UNK0	0.000	
18	   C	1.232	-2.006	1.349	C.2	1	UNK0	0.000	
19	   C	0.013	-2.280	1.901	C.2	1	UNK0	0.000	
20	   C	-0.494	-3.577	2.001	C.2	1	UNK0	0.000	
21	   C	0.313	-4.601	1.504	C.2	1	UNK0	0.000	
22	   C	1.545	-4.339	0.946	C.2	1	UNK0	0.000	
23	   N	1.577	-0.629	1.332	N.pl3	1	UNK0	0.000	
24	   C	2.735	-0.013	0.760	C.2	1	UNK0	0.000	
25	   O	3.078	1.052	1.385	O.2	1	UNK0	0.000	
26	   C	-2.369	1.592	1.210	C.2	1	UNK0	0.000	
27	   C	-3.083	0.549	1.753	C.2	1	UNK0	0.000	
28	   C	-2.838	0.164	3.053	C.2	1	UNK0	0.000	
29	   C	-1.897	0.776	3.860	C.2	1	UNK0	0.000	
30	   C	-1.177	1.829	3.309	C.2	1	UNK0	0.000	
31	   C	-1.426	2.210	2.010	C.2	1	UNK0	0.000	
32	  Cl	-1.581	0.297	5.495	Cl	1	UNK0	0.000	
33	   H	-2.828	-0.361	-2.272	 H	1	UNK0	0.000	
34	   H	-1.722	-0.681	-0.886	 H	1	UNK0	0.000	
35	   H	-0.976	-0.234	-3.780	 H	1	UNK0	0.000	
36	   H	-0.611	-1.597	-2.701	 H	1	UNK0	0.000	
37	   H	0.779	2.063	-1.433	 H	1	UNK0	0.000	
38	   H	1.025	2.038	-3.257	 H	1	UNK0	0.000	
39	   H	-1.302	1.732	-3.609	 H	1	UNK0	0.000	
40	   H	-1.110	3.135	-2.509	 H	1	UNK0	0.000	
41	   H	3.694	-0.085	-2.481	 H	1	UNK0	0.000	
42	   H	2.806	1.205	-1.640	 H	1	UNK0	0.000	
43	   H	4.539	0.151	-0.315	 H	1	UNK0	0.000	
44	   H	4.676	-2.107	-1.102	 H	1	UNK0	0.000	
45	   H	-0.586	-1.474	2.277	 H	1	UNK0	0.000	
46	   H	-1.452	-3.780	2.435	 H	1	UNK0	0.000	
47	   H	-0.086	-5.602	1.582	 H	1	UNK0	0.000	
48	   H	2.169	-5.127	0.563	 H	1	UNK0	0.000	
49	   H	0.905	-0.011	1.786	 H	1	UNK0	0.000	
50	   H	-3.829	0.020	1.195	 H	1	UNK0	0.000	
51	   H	-3.405	-0.673	3.494	 H	1	UNK0	0.000	
52	   H	-0.444	2.315	3.928	 H	1	UNK0	0.000	
53	   H	-0.851	3.030	1.618	 H	1	UNK0	0.000	
@<TRIPOS>BOND
1 1 2 2
2 1 3 2
3 1 4 1
4 1 26 1
5 4 5 1
6 4 9 1
7 5 6 1
8 6 7 1
9 7 8 1
10 7 10 1
11 8 9 1
12 10 11 2
13 10 12 1
14 12 13 1
15 13 14 1
16 13 24 1
17 14 15 1
18 15 16 2
19 15 17 1
20 17 18 2
21 17 22 1
22 18 19 1
23 18 23 1
24 19 20 2
25 20 21 1
26 21 22 2
27 23 24 1
28 24 25 2
29 26 27 2
30 26 31 1
31 27 28 1
32 28 29 2
33 29 30 1
34 29 32 1
35 30 31 2
36 5 33 1
37 5 34 1
38 6 35 1
39 6 36 1
40 8 37 1
41 8 38 1
42 9 39 1
43 9 40 1
44 12 41 1
45 12 42 1
46 13 43 1
47 14 44 1
48 19 45 1
49 20 46 1
50 21 47 1
51 22 48 1
52 23 49 1
53 27 50 1
54 28 51 1
55 30 52 1
56 31 53 1
@<TRIPOS>SUBSTRUCTURE
1	UNK0	1	GROUP	1 ****	UNK
