REMARK  6 active torsions:
REMARK  status: ('A' for Active; 'I' for Inactive)
REMARK    1  A    between atoms: C_7  and  C_8 
REMARK    2  A    between atoms: C_8  and  N_9 
REMARK    3  A    between atoms: C_11  and  C_16 
REMARK    4  A    between atoms: C_12  and  C_14 
REMARK    5  A    between atoms: C_14  and  O_15 
REMARK    6  A    between atoms: C_16  and  N_17 
ROOT
ATOM      1  N   UNK d   1      -1.102  -2.865   0.756  0.00  0.00     0.095 N 
ATOM      2  C   UNK d   1      -1.201  -2.541  -0.686  0.00  0.00     0.279 C 
ATOM      3  C   UNK d   1      -1.415  -1.097  -0.676  0.00  0.00     0.050 C 
ATOM      4  C   UNK d   1      -2.575  -0.990   0.301  0.00  0.00     0.045 C 
ATOM      5  C   UNK d   1      -1.949  -1.953   1.397  0.00  0.00     0.280 C 
ENDROOT
BRANCH   1   6
ATOM      6  C   UNK d   1       0.333  -2.845   1.078  0.00  0.00     0.334 C 
BRANCH   6   7
ATOM      7  C   UNK d   1       0.914  -1.565   1.396  0.00  0.00     0.097 A 
ATOM      8  C   UNK d   1       1.891  -0.833   0.759  0.00  0.00     0.042 A 
ATOM      9  C   UNK d   1       2.468  -0.986  -0.479  0.00  0.00     0.048 A 
ATOM     10  C   UNK d   1       2.248   0.275   1.492  0.00  0.00     0.066 A 
ATOM     11 Cl   UNK d   1       2.113  -2.464  -1.367  0.00  0.00    -0.083 Cl
ATOM     12  C   UNK d   1       3.354  -0.074  -0.986  0.00  0.00     0.025 A 
ATOM     13  C   UNK d   1       3.699   1.041  -0.229  0.00  0.00     0.004 A 
ATOM     14  C   UNK d   1       3.126   1.210   1.035  0.00  0.00     0.032 A 
ATOM     15  N   UNK d   1       1.489   0.213   2.608  0.00  0.00    -0.273 N 
ATOM     16  N   UNK d   1       0.715  -0.838   2.555  0.00  0.00    -0.174 NA
ATOM     17  C   UNK d   1       1.624   1.134   3.750  0.00  0.00     0.180 C 
ENDBRANCH   6   7
ENDBRANCH   1   6
BRANCH   3  18
ATOM     18  C   UNK d   1      -1.787  -0.477  -2.000  0.00  0.00     0.279 C 
BRANCH  18  19
ATOM     19  N   UNK d   1      -2.016   0.919  -1.797  0.00  0.00     0.093 N 
ATOM     20  C   UNK d   1      -0.810   1.648  -1.465  0.00  0.00     0.298 C 
ATOM     21  C   UNK d   1      -0.493   2.766  -2.431  0.00  0.00     0.198 C 
ATOM     22  O   UNK d   1      -1.529   3.651  -2.623  0.00  0.00    -0.388 OA
ATOM     23  C   UNK d   1      -2.777   3.035  -2.601  0.00  0.00     0.198 C 
ATOM     24  C   UNK d   1      -2.619   1.582  -2.930  0.00  0.00     0.298 C 
ENDBRANCH  18  19
ENDBRANCH   3  18
BRANCH   4  25
ATOM     25  C   UNK d   1      -3.777  -1.746  -0.187  0.00  0.00     0.170 C 
BRANCH  25  26
ATOM     26  O   UNK d   1      -4.865  -1.510   0.694  0.00  0.00    -0.400 OA
ATOM     27  H   UNK d   1      -5.048  -0.495   0.631  0.00  0.00     0.209 HD
ENDBRANCH  25  26
ENDBRANCH   4  25
TORSDOF 6
