# created with PyMOL 2.3.2
@<TRIPOS>MOLECULE
2419
58 62 1                 
SMALL
USER_CHARGES
@<TRIPOS>ATOM
1	  Br	-0.806	5.854	-6.181	Br	1	UNK0	0.000	
2	   C	-0.525	4.869	-4.550	C.2	1	UNK0	0.000	
3	   C	0.658	4.922	-3.879	C.2	1	UNK0	0.000	
4	   C	0.852	4.222	-2.723	C.2	1	UNK0	0.000	
5	   C	-0.133	3.426	-2.174	C.2	1	UNK0	0.000	
6	   C	-1.310	3.372	-2.840	C.2	1	UNK0	0.000	
7	   C	-1.527	4.092	-4.040	C.2	1	UNK0	0.000	
8	   C	0.157	2.708	-0.952	C.2	1	UNK0	0.000	
9	   C	1.416	2.742	-0.330	C.2	1	UNK0	0.000	
10	   N	1.322	1.994	0.762	N.pl3	1	UNK0	0.000	
11	   C	2.102	1.590	1.811	C.2	1	UNK0	0.000	
12	   C	1.287	0.804	2.586	C.2	1	UNK0	0.000	
13	   N	0.100	0.767	2.000	N.pl3	1	UNK0	0.000	
14	   C	0.107	1.508	0.855	C.cat	1	UNK0	0.000	
15	   N	-0.641	1.938	-0.204	N.pl3	1	UNK0	0.000	
16	   C	-2.016	1.567	-0.343	C.3	1	UNK0	0.000	
17	   C	-2.320	0.381	-1.166	C.3	1	UNK0	0.000	
18	   C	-1.811	-0.945	-0.729	C.3	1	UNK0	0.000	
19	   N	-2.400	-1.366	0.523	N.4	1	UNK0	0.000	
20	   C	-1.874	-2.608	1.007	C.3	1	UNK0	0.000	
21	   C	-0.703	-3.147	0.235	C.3	1	UNK0	0.000	
22	   C	-0.619	-4.642	0.577	C.3	1	UNK0	0.000	
23	   C	-0.359	-4.780	2.037	C.3	1	UNK0	0.000	
24	   C	-1.338	-4.024	2.905	C.3	1	UNK0	0.000	
25	   C	-1.429	-2.559	2.463	C.3	1	UNK0	0.000	
26	   C	1.753	0.209	3.762	C.2	1	UNK0	0.000	
27	   C	3.058	0.410	4.157	C.2	1	UNK0	0.000	
28	   C	3.855	1.202	3.362	C.2	1	UNK0	0.000	
29	   C	3.399	1.798	2.192	C.2	1	UNK0	0.000	
30	   H	1.475	5.544	-4.278	 H	1	UNK0	0.000	
31	   H	1.839	4.312	-2.225	 H	1	UNK0	0.000	
32	   H	-2.152	2.808	-2.552	 H	1	UNK0	0.000	
33	   H	-2.466	4.043	-4.563	 H	1	UNK0	0.000	
34	   H	2.299	3.274	-0.673	 H	1	UNK0	0.000	
35	   H	-0.706	0.245	2.393	 H	1	UNK0	0.000	
36	   H	-2.655	2.413	-0.578	 H	1	UNK0	0.000	
37	   H	-2.364	1.253	0.725	 H	1	UNK0	0.000	
38	   H	-3.458	0.281	-1.129	 H	1	UNK0	0.000	
39	   H	-2.161	0.533	-2.278	 H	1	UNK0	0.000	
40	   H	-0.710	-0.980	-0.597	 H	1	UNK0	0.000	
41	   H	-2.161	-1.690	-1.498	 H	1	UNK0	0.000	
42	   H	-2.464	-0.662	1.254	 H	1	UNK0	0.000	
43	   H	-3.437	-1.580	0.287	 H	1	UNK0	0.000	
44	   H	-2.664	-3.418	0.991	 H	1	UNK0	0.000	
45	   H	-0.759	-2.992	-0.842	 H	1	UNK0	0.000	
46	   H	0.242	-2.706	0.664	 H	1	UNK0	0.000	
47	   H	-1.583	-5.130	0.283	 H	1	UNK0	0.000	
48	   H	0.231	-5.088	0.032	 H	1	UNK0	0.000	
49	   H	-0.453	-5.852	2.305	 H	1	UNK0	0.000	
50	   H	0.674	-4.453	2.255	 H	1	UNK0	0.000	
51	   H	-0.951	-4.054	3.936	 H	1	UNK0	0.000	
52	   H	-2.321	-4.487	2.804	 H	1	UNK0	0.000	
53	   H	-0.409	-2.105	2.539	 H	1	UNK0	0.000	
54	   H	-2.198	-2.062	3.052	 H	1	UNK0	0.000	
55	   H	1.122	-0.409	4.376	 H	1	UNK0	0.000	
56	   H	3.461	-0.041	5.075	 H	1	UNK0	0.000	
57	   H	4.872	1.359	3.670	 H	1	UNK0	0.000	
58	   H	4.021	2.414	1.575	 H	1	UNK0	0.000	
@<TRIPOS>BOND
1 1 2 1
2 2 3 2
3 2 7 1
4 3 4 1
5 4 5 2
6 5 6 1
7 5 8 1
8 6 7 2
9 8 9 2
10 8 15 1
11 9 10 1
12 10 11 1
13 10 14 1
14 11 12 2
15 11 29 1
16 12 13 1
17 12 26 1
18 13 14 2
19 14 15 1
20 15 16 1
21 16 17 1
22 17 18 1
23 18 19 1
24 19 20 1
25 20 21 1
26 20 25 1
27 21 22 1
28 22 23 1
29 23 24 1
30 24 25 1
31 26 27 2
32 27 28 1
33 28 29 2
34 3 30 1
35 4 31 1
36 6 32 1
37 7 33 1
38 9 34 1
39 13 35 1
40 16 36 1
41 16 37 1
42 17 38 1
43 17 39 1
44 18 40 1
45 18 41 1
46 19 42 1
47 19 43 1
48 20 44 1
49 21 45 1
50 21 46 1
51 22 47 1
52 22 48 1
53 23 49 1
54 23 50 1
55 24 51 1
56 24 52 1
57 25 53 1
58 25 54 1
59 26 55 1
60 27 56 1
61 28 57 1
62 29 58 1
@<TRIPOS>SUBSTRUCTURE
1	UNK0	1	GROUP	1 ****	UNK
