REMARK  5 active torsions:
REMARK  status: ('A' for Active; 'I' for Inactive)
REMARK    1  A    between atoms: C_7  and  N_11 
REMARK    2  A    between atoms: C_13  and  C_17 
REMARK       I    between atoms: C_17  and  N_19 
REMARK    3  A    between atoms: N_19  and  C_20 
REMARK    4  A    between atoms: C_20  and  C_21 
REMARK    5  A    between atoms: C_21  and  N_22 
ROOT
ATOM      1  N   UNK d   1      -0.287   0.009  -3.856  0.00  0.00    -0.299 N 
ATOM      2  C   UNK d   1      -1.660   0.335  -3.475  0.00  0.00     0.148 C 
ATOM      3  C   UNK d   1      -1.600   1.827  -3.235  0.00  0.00     0.105 C 
ATOM      4  C   UNK d   1      -0.746   2.306  -4.403  0.00  0.00     0.119 C 
ATOM      5  C   UNK d   1       0.120   1.106  -4.679  0.00  0.00     0.226 C 
ATOM      6  O   UNK d   1       1.072   1.063  -5.514  0.00  0.00    -0.273 OA
ENDROOT
BRANCH   3   7
ATOM      7  C   UNK d   1      -0.941   2.154  -1.948  0.00  0.00     0.223 C 
ATOM      8  O   UNK d   1       0.052   2.923  -1.969  0.00  0.00    -0.273 OA
ATOM      9  N   UNK d   1      -1.386   1.635  -0.711  0.00  0.00    -0.359 N 
ATOM     10  H   UNK d   1      -2.219   0.993  -0.733  0.00  0.00     0.162 HD
BRANCH   9  11
ATOM     11  C   UNK d   1      -0.751   1.949   0.543  0.00  0.00     0.152 C 
BRANCH  11  12
ATOM     12  C   UNK d   1      -1.465   1.227   1.666  0.00  0.00     0.292 C 
BRANCH  12  13
ATOM     13  N   UNK d   1      -0.888   1.492   2.961  0.00  0.00     0.094 N 
ATOM     14  C   UNK d   1      -1.659   0.739   3.944  0.00  0.00     0.298 C 
ATOM     15  C   UNK d   1      -1.149  -0.697   4.030  0.00  0.00     0.198 C 
ATOM     16  O   UNK d   1       0.116  -0.779   4.563  0.00  0.00    -0.388 OA
ATOM     17  C   UNK d   1       0.760   0.426   4.405  0.00  0.00     0.198 C 
ATOM     18  C   UNK d   1       0.485   1.050   3.052  0.00  0.00     0.298 C 
ENDBRANCH  12  13
ENDBRANCH  11  12
ENDBRANCH   9  11
ENDBRANCH   3   7
BRANCH   1  19
ATOM     19  C   UNK d   1       0.456  -1.141  -3.486  0.00  0.00     0.165 A 
ATOM     20  N   UNK d   1       0.229  -2.438  -3.732  0.00  0.00    -0.155 NA
ATOM     21  N   UNK d   1       1.181  -3.185  -3.194  0.00  0.00    -0.275 N 
ATOM     22  C   UNK d   1       2.085  -2.384  -2.562  0.00  0.00     0.065 A 
ATOM     23  H   UNK d   1       1.313  -4.227  -3.194  0.00  0.00     0.189 HD
ATOM     24  C   UNK d   1       3.233  -2.592  -1.857  0.00  0.00     0.051 A 
ATOM     25  C   UNK d   1       1.631  -1.101  -2.745  0.00  0.00     0.040 A 
ATOM     26  C   UNK d   1       3.951  -1.546  -1.322  0.00  0.00     0.013 A 
ATOM     27 Br   UNK d   1       5.551  -1.862  -0.341  0.00  0.00    -0.051 Br
ATOM     28  C   UNK d   1       3.495  -0.239  -1.504  0.00  0.00     0.020 A 
ATOM     29  C   UNK d   1       2.336  -0.027  -2.216  0.00  0.00     0.019 A 
ENDBRANCH   1  19
TORSDOF 5
