REMARK  2 active torsions:
REMARK  status: ('A' for Active; 'I' for Inactive)
REMARK    1  A    between atoms: C_4  and  C_8 
REMARK       I    between atoms: C_8  and  N_10 
REMARK    2  A    between atoms: N_13  and  C_16 
ROOT
ATOM      1  C   UNK d   1      -0.471   2.501  -0.937  0.00  0.00     0.204 C 
ATOM      2  O   UNK d   1       0.734   2.913  -1.285  0.00  0.00    -0.170 OA
ATOM      3  N   UNK d   1      -0.638   2.084   0.374  0.00  0.00    -0.355 N 
ATOM      4  C   UNK d   1       0.552   2.092   1.259  0.00  0.00     0.145 C 
ATOM      5  C   UNK d   1       0.759   0.664   1.688  0.00  0.00     0.144 C 
ATOM      6  N   UNK d   1      -0.271  -0.238   1.280  0.00  0.00    -0.362 N 
ATOM      7  C   UNK d   1      -1.671   0.131   1.131  0.00  0.00     0.144 C 
ATOM      8  C   UNK d   1      -1.808   1.643   1.038  0.00  0.00     0.145 C 
ENDROOT
BRANCH   1   9
ATOM      9  C   UNK d   1      -1.407   2.569  -2.029  0.00  0.00     0.089 A 
ATOM     10  N   UNK d   1      -2.691   2.216  -2.107  0.00  0.00    -0.342 N 
ATOM     11  C   UNK d   1      -3.213   2.471  -3.339  0.00  0.00     0.126 A 
ATOM     12  H   UNK d   1      -3.305   1.784  -1.388  0.00  0.00     0.167 HD
ATOM     13 Cl   UNK d   1      -4.842   2.181  -3.910  0.00  0.00    -0.063 Cl
ATOM     14  C   UNK d   1      -2.228   3.019  -4.115  0.00  0.00     0.074 A 
ATOM     15  C   UNK d   1      -1.120   3.076  -3.303  0.00  0.00     0.061 A 
ATOM     16 Cl   UNK d   1      -2.373   3.530  -5.783  0.00  0.00    -0.081 Cl
ENDBRANCH   1   9
BRANCH   6  17
ATOM     17  C   UNK d   1       0.050  -1.592   0.989  0.00  0.00     0.142 A 
ATOM     18  N   UNK d   1      -0.498  -2.603   1.689  0.00  0.00    -0.224 NA
ATOM     19  C   UNK d   1      -0.202  -3.898   1.427  0.00  0.00     0.237 A 
ATOM     20  N   UNK d   1       0.660  -4.213   0.445  0.00  0.00    -0.222 NA
ATOM     21  C   UNK d   1       1.249  -3.263  -0.299  0.00  0.00     0.162 A 
ATOM     22  N   UNK d   1       2.127  -3.311  -1.318  0.00  0.00    -0.256 N 
ATOM     23  C   UNK d   1       0.932  -1.930  -0.015  0.00  0.00     0.076 A 
ATOM     24  N   UNK d   1       2.370  -2.067  -1.679  0.00  0.00    -0.182 NA
ATOM     25  C   UNK d   1       2.721  -4.498  -1.934  0.00  0.00     0.182 C 
ATOM     26  C   UNK d   1       1.665  -1.201  -0.914  0.00  0.00     0.158 A 
ENDBRANCH   6  17
TORSDOF 2
