# created with PyMOL 2.3.2
@<TRIPOS>MOLECULE
2432
40 43 1                 
SMALL
USER_CHARGES
@<TRIPOS>ATOM
1	  Cl	-4.842	2.181	-3.910	Cl	1	UNK0	0.000	
2	   C	-3.213	2.471	-3.339	C.2	1	UNK0	0.000	
3	   N	-2.691	2.216	-2.107	N.pl3	1	UNK0	0.000	
4	   C	-1.407	2.569	-2.029	C.2	1	UNK0	0.000	
5	   C	-1.120	3.076	-3.303	C.2	1	UNK0	0.000	
6	   C	-2.228	3.019	-4.115	C.2	1	UNK0	0.000	
7	  Cl	-2.373	3.530	-5.783	Cl	1	UNK0	0.000	
8	   C	-0.471	2.501	-0.937	C.2	1	UNK0	0.000	
9	   O	0.734	2.913	-1.285	O.2	1	UNK0	0.000	
10	   N	-0.638	2.084	0.374	N.pl3	1	UNK0	0.000	
11	   C	0.552	2.092	1.259	C.3	1	UNK0	0.000	
12	   C	0.759	0.664	1.688	C.3	1	UNK0	0.000	
13	   N	-0.271	-0.238	1.280	N.pl3	1	UNK0	0.000	
14	   C	-1.671	0.131	1.131	C.3	1	UNK0	0.000	
15	   C	-1.808	1.643	1.038	C.3	1	UNK0	0.000	
16	   C	0.050	-1.592	0.989	C.2	1	UNK0	0.000	
17	   N	-0.498	-2.603	1.689	N.2	1	UNK0	0.000	
18	   C	-0.202	-3.898	1.427	C.2	1	UNK0	0.000	
19	   N	0.660	-4.213	0.445	N.2	1	UNK0	0.000	
20	   C	1.249	-3.263	-0.299	C.2	1	UNK0	0.000	
21	   N	2.127	-3.311	-1.318	N.pl3	1	UNK0	0.000	
22	   N	2.370	-2.067	-1.679	N.2	1	UNK0	0.000	
23	   C	1.665	-1.201	-0.914	C.2	1	UNK0	0.000	
24	   C	0.932	-1.930	-0.015	C.2	1	UNK0	0.000	
25	   C	2.721	-4.498	-1.934	C.3	1	UNK0	0.000	
26	   H	-3.305	1.784	-1.388	 H	1	UNK0	0.000	
27	   H	-0.170	3.479	-3.674	 H	1	UNK0	0.000	
28	   H	1.411	2.516	0.720	 H	1	UNK0	0.000	
29	   H	0.296	2.731	2.141	 H	1	UNK0	0.000	
30	   H	1.769	0.366	1.342	 H	1	UNK0	0.000	
31	   H	0.829	0.647	2.815	 H	1	UNK0	0.000	
32	   H	-2.252	-0.260	1.971	 H	1	UNK0	0.000	
33	   H	-2.028	-0.311	0.187	 H	1	UNK0	0.000	
34	   H	-1.739	1.964	2.149	 H	1	UNK0	0.000	
35	   H	-2.775	1.949	0.696	 H	1	UNK0	0.000	
36	   H	-0.655	-4.690	2.004	 H	1	UNK0	0.000	
37	   H	1.678	-0.141	-0.997	 H	1	UNK0	0.000	
38	   H	3.805	-4.509	-1.646	 H	1	UNK0	0.000	
39	   H	2.608	-4.495	-3.027	 H	1	UNK0	0.000	
40	   H	2.263	-5.411	-1.541	 H	1	UNK0	0.000	
@<TRIPOS>BOND
1 1 2 1
2 2 3 1
3 2 6 2
4 3 4 1
5 4 5 2
6 4 8 1
7 5 6 1
8 6 7 1
9 8 9 2
10 8 10 1
11 10 11 1
12 10 15 1
13 11 12 1
14 12 13 1
15 13 14 1
16 13 16 1
17 14 15 1
18 16 17 2
19 16 24 1
20 17 18 1
21 18 19 2
22 19 20 1
23 20 21 1
24 20 24 2
25 21 22 1
26 21 25 1
27 22 23 2
28 23 24 1
29 3 26 1
30 5 27 1
31 11 28 1
32 11 29 1
33 12 30 1
34 12 31 1
35 14 32 1
36 14 33 1
37 15 34 1
38 15 35 1
39 18 36 1
40 23 37 1
41 25 38 1
42 25 39 1
43 25 40 1
@<TRIPOS>SUBSTRUCTURE
1	UNK0	1	GROUP	1 ****	UNK
