# created with PyMOL 2.3.2
@<TRIPOS>MOLECULE
2439
55 59 1                 
SMALL
USER_CHARGES
@<TRIPOS>ATOM
1	  Br	-2.874	-1.432	7.314	Br	1	UNK0	0.000	
2	   C	-2.456	-1.444	5.464	C.2	1	UNK0	0.000	
3	   C	-2.015	-2.571	4.834	C.2	1	UNK0	0.000	
4	   C	-1.720	-2.543	3.485	C.2	1	UNK0	0.000	
5	   C	-1.845	-1.405	2.689	C.2	1	UNK0	0.000	
6	   C	-2.286	-0.288	3.328	C.2	1	UNK0	0.000	
7	   C	-2.589	-0.310	4.711	C.2	1	UNK0	0.000	
8	   C	-1.486	-1.506	1.270	C.2	1	UNK0	0.000	
9	   C	-0.951	-2.687	0.725	C.2	1	UNK0	0.000	
10	   N	-0.740	-2.507	-0.577	N.pl3	1	UNK0	0.000	
11	   C	-0.288	-3.136	-1.693	C.2	1	UNK0	0.000	
12	   C	-0.394	-2.249	-2.709	C.2	1	UNK0	0.000	
13	   N	-0.900	-1.118	-2.196	N.pl3	1	UNK0	0.000	
14	   C	-1.120	-1.262	-0.870	C.cat	1	UNK0	0.000	
15	   N	-1.582	-0.631	0.259	N.pl3	1	UNK0	0.000	
16	   C	-2.084	0.703	0.274	C.3	1	UNK0	0.000	
17	   C	-1.082	1.772	0.627	C.3	1	UNK0	0.000	
18	   C	0.046	1.955	-0.287	C.3	1	UNK0	0.000	
19	   N	-0.194	2.376	-1.636	N.4	1	UNK0	0.000	
20	   C	-0.528	3.786	-1.727	C.3	1	UNK0	0.000	
21	   C	0.602	4.716	-1.860	C.3	1	UNK0	0.000	
22	   C	1.928	4.120	-2.155	C.3	1	UNK0	0.000	
23	   C	1.797	2.909	-3.009	C.3	1	UNK0	0.000	
24	   C	0.762	1.934	-2.588	C.3	1	UNK0	0.000	
25	   C	-0.007	-2.597	-3.991	C.2	1	UNK0	0.000	
26	   C	0.495	-3.860	-4.260	C.2	1	UNK0	0.000	
27	   C	0.604	-4.770	-3.217	C.2	1	UNK0	0.000	
28	   C	0.210	-4.389	-1.954	C.2	1	UNK0	0.000	
29	   H	-1.907	-3.472	5.420	 H	1	UNK0	0.000	
30	   H	-1.376	-3.473	3.039	 H	1	UNK0	0.000	
31	   H	-2.410	0.627	2.821	 H	1	UNK0	0.000	
32	   H	-2.935	0.597	5.173	 H	1	UNK0	0.000	
33	   H	-0.724	-3.616	1.219	 H	1	UNK0	0.000	
34	   H	-1.110	-0.241	-2.740	 H	1	UNK0	0.000	
35	   H	-3.030	0.821	0.820	 H	1	UNK0	0.000	
36	   H	-2.434	0.884	-0.811	 H	1	UNK0	0.000	
37	   H	-0.630	1.428	1.616	 H	1	UNK0	0.000	
38	   H	-1.587	2.720	0.943	 H	1	UNK0	0.000	
39	   H	0.569	0.954	-0.377	 H	1	UNK0	0.000	
40	   H	0.841	2.593	0.204	 H	1	UNK0	0.000	
41	   H	-1.100	1.923	-1.892	 H	1	UNK0	0.000	
42	   H	-1.264	4.004	-2.532	 H	1	UNK0	0.000	
43	   H	-1.102	4.003	-0.775	 H	1	UNK0	0.000	
44	   H	0.718	5.320	-0.910	 H	1	UNK0	0.000	
45	   H	0.404	5.513	-2.638	 H	1	UNK0	0.000	
46	   H	2.555	4.866	-2.687	 H	1	UNK0	0.000	
47	   H	2.499	3.914	-1.200	 H	1	UNK0	0.000	
48	   H	2.803	2.414	-3.049	 H	1	UNK0	0.000	
49	   H	1.623	3.257	-4.065	 H	1	UNK0	0.000	
50	   H	1.274	1.033	-2.141	 H	1	UNK0	0.000	
51	   H	0.290	1.528	-3.525	 H	1	UNK0	0.000	
52	   H	-0.090	-1.891	-4.804	 H	1	UNK0	0.000	
53	   H	0.806	-4.160	-5.254	 H	1	UNK0	0.000	
54	   H	0.998	-5.744	-3.455	 H	1	UNK0	0.000	
55	   H	0.296	-5.093	-1.159	 H	1	UNK0	0.000	
@<TRIPOS>BOND
1 1 2 1
2 2 3 2
3 2 7 1
4 3 4 1
5 4 5 2
6 5 6 1
7 5 8 1
8 6 7 2
9 8 9 2
10 8 15 1
11 9 10 1
12 10 11 1
13 10 14 1
14 11 12 2
15 11 28 1
16 12 13 1
17 12 25 1
18 13 14 2
19 14 15 1
20 15 16 1
21 16 17 1
22 17 18 1
23 18 19 1
24 19 20 1
25 19 24 1
26 20 21 1
27 21 22 1
28 22 23 1
29 23 24 1
30 25 26 2
31 26 27 1
32 27 28 2
33 3 29 1
34 4 30 1
35 6 31 1
36 7 32 1
37 9 33 1
38 13 34 1
39 16 35 1
40 16 36 1
41 17 37 1
42 17 38 1
43 18 39 1
44 18 40 1
45 19 41 1
46 20 42 1
47 20 43 1
48 21 44 1
49 21 45 1
50 22 46 1
51 22 47 1
52 23 48 1
53 23 49 1
54 24 50 1
55 24 51 1
56 25 52 1
57 26 53 1
58 27 54 1
59 28 55 1
@<TRIPOS>SUBSTRUCTURE
1	UNK0	1	GROUP	1 ****	UNK
