REMARK  5 active torsions:
REMARK  status: ('A' for Active; 'I' for Inactive)
REMARK    1  A    between atoms: C_5  and  C_8 
REMARK    2  A    between atoms: N_15  and  C_16 
REMARK    3  A    between atoms: C_16  and  C_17 
REMARK    4  A    between atoms: C_17  and  C_18 
REMARK    5  A    between atoms: C_18  and  N_19 
ROOT
ATOM      1  C   UNK d   1      -1.486  -1.506   1.270  0.00  0.00     0.078 A 
ATOM      2  C   UNK d   1      -0.951  -2.687   0.725  0.00  0.00     0.146 A 
ATOM      3  N   UNK d   1      -0.740  -2.507  -0.577  0.00  0.00    -0.153 N 
ATOM      4  C   UNK d   1      -0.288  -3.136  -1.693  0.00  0.00     0.083 A 
ATOM      5  C   UNK d   1      -0.394  -2.249  -2.709  0.00  0.00     0.077 A 
ATOM      6  N   UNK d   1      -0.900  -1.118  -2.196  0.00  0.00    -0.189 N 
ATOM      7  C   UNK d   1      -1.120  -1.262  -0.870  0.00  0.00     0.692 A 
ATOM      8  N   UNK d   1      -1.582  -0.631   0.259  0.00  0.00    -0.180 N 
ATOM      9  C   UNK d   1      -0.007  -2.597  -3.991  0.00  0.00     0.032 A 
ATOM     10  C   UNK d   1       0.495  -3.860  -4.260  0.00  0.00     0.002 A 
ATOM     11  C   UNK d   1       0.604  -4.770  -3.217  0.00  0.00     0.002 A 
ATOM     12  C   UNK d   1       0.210  -4.389  -1.954  0.00  0.00     0.033 A 
ATOM     13  H   UNK d   1      -1.110  -0.241  -2.740  0.00  0.00     0.184 HD
ENDROOT
BRANCH   8  14
ATOM     14  C   UNK d   1      -2.084   0.703   0.274  0.00  0.00     0.149 C 
BRANCH  14  15
ATOM     15  C   UNK d   1      -1.082   1.772   0.627  0.00  0.00     0.048 C 
BRANCH  15  16
ATOM     16  C   UNK d   1       0.046   1.955  -0.287  0.00  0.00     0.236 C 
BRANCH  16  17
ATOM     17  N   UNK d   1      -0.194   2.376  -1.636  0.00  0.00    -0.071 N 
ATOM     18  C   UNK d   1      -0.528   3.786  -1.727  0.00  0.00     0.235 C 
ATOM     19  C   UNK d   1       0.602   4.716  -1.860  0.00  0.00     0.028 C 
ATOM     20  C   UNK d   1       1.928   4.120  -2.155  0.00  0.00     0.003 C 
ATOM     21  C   UNK d   1       1.797   2.909  -3.009  0.00  0.00     0.028 C 
ATOM     22  C   UNK d   1       0.762   1.934  -2.588  0.00  0.00     0.235 C 
ATOM     23  H   UNK d   1      -1.100   1.923  -1.892  0.00  0.00     0.279 HD
ENDBRANCH  16  17
ENDBRANCH  15  16
ENDBRANCH  14  15
ENDBRANCH   8  14
BRANCH   1  24
ATOM     24  C   UNK d   1      -1.845  -1.405   2.689  0.00  0.00    -0.007 A 
ATOM     25  C   UNK d   1      -1.720  -2.543   3.485  0.00  0.00     0.015 A 
ATOM     26  C   UNK d   1      -2.015  -2.571   4.834  0.00  0.00     0.020 A 
ATOM     27  C   UNK d   1      -2.456  -1.444   5.464  0.00  0.00     0.011 A 
ATOM     28 Br   UNK d   1      -2.874  -1.432   7.314  0.00  0.00    -0.051 Br
ATOM     29  C   UNK d   1      -2.589  -0.310   4.711  0.00  0.00     0.020 A 
ATOM     30  C   UNK d   1      -2.286  -0.288   3.328  0.00  0.00     0.015 A 
ENDBRANCH   1  24
TORSDOF 5
