# created with PyMOL 2.3.2
@<TRIPOS>MOLECULE
2440
52 55 1                 
SMALL
USER_CHARGES
@<TRIPOS>ATOM
1	  Cl	-1.906	-5.828	0.717	Cl	1	UNK0	0.000	
2	   C	-1.134	-4.692	-0.385	C.2	1	UNK0	0.000	
3	   C	-1.109	-3.343	-0.001	C.2	1	UNK0	0.000	
4	   C	-0.508	-2.464	-0.860	C.2	1	UNK0	0.000	
5	   C	0.060	-2.896	-2.077	C.2	1	UNK0	0.000	
6	   C	0.029	-4.218	-2.442	C.2	1	UNK0	0.000	
7	   C	-0.577	-5.099	-1.573	C.2	1	UNK0	0.000	
8	   C	-0.584	-1.125	-0.260	C.3	1	UNK0	0.000	
9	   N	-1.132	-0.127	-1.107	N.3	1	UNK0	0.000	
10	   C	-0.619	1.138	-0.812	C.3	1	UNK0	0.000	
11	   C	0.635	0.875	-0.007	C.3	1	UNK0	0.000	
12	   C	0.813	-0.606	0.075	C.3	1	UNK0	0.000	
13	   C	1.215	-0.934	1.468	C.2	1	UNK0	0.000	
14	   O	1.545	-2.081	1.850	O.2	1	UNK0	0.000	
15	   N	1.149	0.267	2.238	N.pl3	1	UNK0	0.000	
16	   C	0.495	1.247	1.418	C.2	1	UNK0	0.000	
17	   O	-0.093	2.248	1.857	O.2	1	UNK0	0.000	
18	   C	1.634	0.492	3.565	C.3	1	UNK0	0.000	
19	   C	0.677	0.210	4.667	C.3	1	UNK0	0.000	
20	   C	0.195	-1.192	4.788	C.3	1	UNK0	0.000	
21	   C	1.339	-2.164	5.054	C.3	1	UNK0	0.000	
22	   C	-0.418	2.112	-1.907	C.3	1	UNK0	0.000	
23	   C	0.509	1.758	-3.000	C.3	1	UNK0	0.000	
24	   C	0.181	0.583	-3.814	C.2	1	UNK0	0.000	
25	   O	-0.932	0.034	-3.714	O.2	1	UNK0	0.000	
26	   N	1.092	0.011	-4.749	N.pl3	1	UNK0	0.000	
27	   C	-1.315	-1.303	0.998	C.2	1	UNK0	0.000	
28	   O	-1.655	-0.428	1.854	O.2	1	UNK0	0.000	
29	   N	-1.616	-2.677	1.149	N.pl3	1	UNK0	0.000	
30	   H	0.528	-2.168	-2.734	 H	1	UNK0	0.000	
31	   H	0.455	-4.583	-3.367	 H	1	UNK0	0.000	
32	   H	-0.612	-6.146	-1.840	 H	1	UNK0	0.000	
33	   H	-2.143	-0.205	-1.306	 H	1	UNK0	0.000	
34	   H	-1.337	1.627	-0.083	 H	1	UNK0	0.000	
35	   H	1.515	1.408	-0.401	 H	1	UNK0	0.000	
36	   H	1.567	-1.014	-0.598	 H	1	UNK0	0.000	
37	   H	1.901	1.587	3.654	 H	1	UNK0	0.000	
38	   H	2.604	-0.032	3.749	 H	1	UNK0	0.000	
39	   H	1.212	0.442	5.636	 H	1	UNK0	0.000	
40	   H	-0.161	0.952	4.658	 H	1	UNK0	0.000	
41	   H	-0.351	-1.601	3.936	 H	1	UNK0	0.000	
42	   H	-0.503	-1.216	5.673	 H	1	UNK0	0.000	
43	   H	2.257	-1.892	4.495	 H	1	UNK0	0.000	
44	   H	1.054	-3.205	4.778	 H	1	UNK0	0.000	
45	   H	1.621	-2.165	6.126	 H	1	UNK0	0.000	
46	   H	-1.435	2.421	-2.269	 H	1	UNK0	0.000	
47	   H	-0.026	3.066	-1.441	 H	1	UNK0	0.000	
48	   H	0.611	2.613	-3.742	 H	1	UNK0	0.000	
49	   H	1.561	1.613	-2.651	 H	1	UNK0	0.000	
50	   H	1.387	0.483	-5.622	 H	1	UNK0	0.000	
51	   H	1.483	-0.925	-4.549	 H	1	UNK0	0.000	
52	   H	-2.112	-3.158	1.936	 H	1	UNK0	0.000	
@<TRIPOS>BOND
1 1 2 1
2 2 3 2
3 2 7 1
4 3 4 1
5 3 29 1
6 4 5 2
7 4 8 1
8 5 6 1
9 6 7 2
10 8 9 1
11 8 12 1
12 8 27 1
13 9 10 1
14 10 11 1
15 10 22 1
16 11 12 1
17 11 16 1
18 12 13 1
19 13 14 2
20 13 15 1
21 15 16 1
22 15 18 1
23 16 17 2
24 18 19 1
25 19 20 1
26 20 21 1
27 22 23 1
28 23 24 1
29 24 25 2
30 24 26 1
31 27 28 2
32 27 29 1
33 5 30 1
34 6 31 1
35 7 32 1
36 9 33 1
37 10 34 1
38 11 35 1
39 12 36 1
40 18 37 1
41 18 38 1
42 19 39 1
43 19 40 1
44 20 41 1
45 20 42 1
46 21 43 1
47 21 44 1
48 21 45 1
49 22 46 1
50 22 47 1
51 23 48 1
52 23 49 1
53 26 50 1
54 26 51 1
55 29 52 1
@<TRIPOS>SUBSTRUCTURE
1	UNK0	1	GROUP	1 ****	UNK
