REMARK  6 active torsions:
REMARK  status: ('A' for Active; 'I' for Inactive)
REMARK    1  A    between atoms: C_10  and  C_22 
REMARK    2  A    between atoms: N_15  and  C_18 
REMARK    3  A    between atoms: C_18  and  C_19 
REMARK    4  A    between atoms: C_19  and  C_20 
REMARK    5  A    between atoms: C_22  and  C_23 
REMARK    6  A    between atoms: C_23  and  C_24 
REMARK       I    between atoms: C_24  and  N_26 
ROOT
ATOM      1 Cl   UNK d   1      -1.906  -5.828   0.717  0.00  0.00    -0.082 Cl
ATOM      2  C   UNK d   1      -1.134  -4.692  -0.385  0.00  0.00     0.061 A 
ATOM      3  C   UNK d   1      -1.109  -3.343  -0.001  0.00  0.00     0.066 A 
ATOM      4  C   UNK d   1      -0.508  -2.464  -0.860  0.00  0.00     0.008 A 
ATOM      5  C   UNK d   1       0.060  -2.896  -2.077  0.00  0.00     0.012 A 
ATOM      6  C   UNK d   1       0.029  -4.218  -2.442  0.00  0.00     0.002 A 
ATOM      7  C   UNK d   1      -0.577  -5.099  -1.573  0.00  0.00     0.026 A 
ATOM      8  C   UNK d   1      -0.584  -1.125  -0.260  0.00  0.00     0.151 A 
ATOM      9  N   UNK d   1      -1.132  -0.127  -1.107  0.00  0.00    -0.395 N 
ATOM     10  C   UNK d   1      -0.619   1.138  -0.812  0.00  0.00     0.092 C 
ATOM     11  C   UNK d   1       0.635   0.875  -0.007  0.00  0.00     0.117 C 
ATOM     12  C   UNK d   1       0.813  -0.606   0.075  0.00  0.00     0.135 C 
ATOM     13  C   UNK d   1       1.215  -0.934   1.468  0.00  0.00     0.234 C 
ATOM     14  O   UNK d   1       1.545  -2.081   1.850  0.00  0.00    -0.272 OA
ATOM     15  N   UNK d   1       1.149   0.267   2.238  0.00  0.00    -0.288 N 
ATOM     16  C   UNK d   1       0.495   1.247   1.418  0.00  0.00     0.233 C 
ATOM     17  O   UNK d   1      -0.093   2.248   1.857  0.00  0.00    -0.272 OA
ATOM     18  C   UNK d   1      -1.315  -1.303   0.998  0.00  0.00     0.256 A 
ATOM     19  O   UNK d   1      -1.655  -0.428   1.854  0.00  0.00    -0.270 OA
ATOM     20  N   UNK d   1      -1.616  -2.677   1.149  0.00  0.00    -0.323 N 
ATOM     21  H   UNK d   1      -2.143  -0.205  -1.306  0.00  0.00     0.155 HD
ATOM     22  H   UNK d   1      -2.112  -3.158   1.936  0.00  0.00     0.169 HD
ENDROOT
BRANCH  10  23
ATOM     23  C   UNK d   1      -0.418   2.112  -1.907  0.00  0.00     0.035 C 
BRANCH  23  24
ATOM     24  C   UNK d   1       0.509   1.758  -3.000  0.00  0.00     0.104 C 
BRANCH  24  25
ATOM     25  C   UNK d   1       0.181   0.583  -3.814  0.00  0.00     0.215 C 
ATOM     26  O   UNK d   1      -0.932   0.034  -3.714  0.00  0.00    -0.274 OA
ATOM     27  N   UNK d   1       1.092   0.011  -4.749  0.00  0.00    -0.370 N 
ATOM     28  H   UNK d   1       1.387   0.483  -5.622  0.00  0.00     0.159 HD
ATOM     29  H   UNK d   1       1.483  -0.925  -4.549  0.00  0.00     0.159 HD
ENDBRANCH  24  25
ENDBRANCH  23  24
ENDBRANCH  10  23
BRANCH  15  30
ATOM     30  C   UNK d   1       1.634   0.492   3.565  0.00  0.00     0.135 C 
BRANCH  30  31
ATOM     31  C   UNK d   1       0.677   0.210   4.667  0.00  0.00     0.020 C 
BRANCH  31  32
ATOM     32  C   UNK d   1       0.195  -1.192   4.788  0.00  0.00    -0.003 C 
ATOM     33  C   UNK d   1       1.339  -2.164   5.054  0.00  0.00     0.005 C 
ENDBRANCH  31  32
ENDBRANCH  30  31
ENDBRANCH  15  30
TORSDOF 6
