REMARK  6 active torsions:
REMARK  status: ('A' for Active; 'I' for Inactive)
REMARK    1  A    between atoms: S_1  and  N_4 
REMARK    2  A    between atoms: N_7  and  C_10 
REMARK    3  A    between atoms: C_10  and  C_11 
REMARK    4  A    between atoms: C_16  and  C_19 
REMARK    5  A    between atoms: C_19  and  N_20 
REMARK    6  A    between atoms: N_23  and  C_26 
ROOT
ATOM      1  C   UNK d   1      -1.640   3.232   0.061  0.00  0.00     0.178 C 
ATOM      2  C   UNK d   1      -2.510   4.230   0.748  0.00  0.00     0.276 C 
ATOM      3  O   UNK d   1      -3.197   5.072   0.122  0.00  0.00    -0.264 OA
ATOM      4  O   UNK d   1      -2.484   4.136   2.137  0.00  0.00    -0.290 OA
ATOM      5  C   UNK d   1      -2.237   2.976   2.841  0.00  0.00     0.158 C 
ATOM      6  C   UNK d   1      -2.004   1.848   2.135  0.00  0.00     0.028 C 
ATOM      7  C   UNK d   1      -2.029   1.919   0.690  0.00  0.00     0.174 C 
ATOM      8  O   UNK d   1      -2.356   0.954  -0.021  0.00  0.00    -0.292 OA
ENDROOT
BRANCH   6   9
ATOM      9  C   UNK d   1      -1.750   0.569   2.812  0.00  0.00     0.161 C 
BRANCH   9  10
ATOM     10  N   UNK d   1      -0.493  -0.007   2.564  0.00  0.00    -0.405 N 
ATOM     11  C   UNK d   1      -0.171  -0.528   1.305  0.00  0.00     0.137 C 
ATOM     12  C   UNK d   1       0.986  -1.546   1.423  0.00  0.00     0.142 C 
ATOM     13  N   UNK d   1       0.607  -2.412   2.510  0.00  0.00    -0.378 N 
ATOM     14  C   UNK d   1       0.644  -1.780   3.821  0.00  0.00     0.142 C 
ATOM     15  C   UNK d   1       0.350  -0.294   3.667  0.00  0.00     0.137 C 
BRANCH  13  16
ATOM     16  C   UNK d   1       0.221  -3.753   2.318  0.00  0.00     0.031 A 
ATOM     17  C   UNK d   1      -0.029  -4.309   1.084  0.00  0.00     0.053 A 
ATOM     18  C   UNK d   1      -0.400  -5.627   0.954  0.00  0.00     0.036 A 
ATOM     19  C   UNK d   1      -0.542  -6.460   2.039  0.00  0.00     0.024 A 
ATOM     20 Cl   UNK d   1      -0.704  -6.273  -0.636  0.00  0.00    -0.084 Cl
ATOM     21  C   UNK d   1      -0.300  -5.935   3.282  0.00  0.00     0.004 A 
ATOM     22  C   UNK d   1       0.074  -4.606   3.417  0.00  0.00     0.029 A 
ENDBRANCH  13  16
ENDBRANCH   9  10
ENDBRANCH   6   9
BRANCH   1  23
ATOM     23  C   UNK d   1      -1.824   3.209  -1.415  0.00  0.00     0.139 C 
BRANCH  23  24
ATOM     24  N   UNK d   1      -0.948   2.242  -1.977  0.00  0.00    -0.409 N 
ATOM     25  C   UNK d   1       0.454   2.574  -1.918  0.00  0.00     0.132 C 
ATOM     26  C   UNK d   1       0.911   2.850  -3.337  0.00  0.00     0.126 C 
ATOM     27  N   UNK d   1       0.914   1.624  -4.062  0.00  0.00    -0.208 NA
ATOM     28  C   UNK d   1      -0.179   0.782  -3.697  0.00  0.00     0.126 C 
ATOM     29  C   UNK d   1      -1.366   1.581  -3.157  0.00  0.00     0.132 C 
BRANCH  27  30
ATOM     30  S   UNK d   1       2.424   0.849  -4.143  0.00  0.00     0.207 S 
ATOM     31  O   UNK d   1       2.957   0.432  -2.789  0.00  0.00    -0.212 OA
ATOM     32  O   UNK d   1       2.249  -0.440  -4.935  0.00  0.00    -0.212 OA
ATOM     33  C   UNK d   1       3.662   1.790  -4.953  0.00  0.00     0.180 C 
ENDBRANCH  27  30
ENDBRANCH  23  24
ENDBRANCH   1  23
TORSDOF 6
