# created with PyMOL 2.3.2
@<TRIPOS>MOLECULE
3
50 53 1                 
SMALL
USER_CHARGES
@<TRIPOS>ATOM
1	  Br	6.306	4.298	0.806	Br	1	UNK0	0.000	
2	   C	4.690	4.421	-0.175	C.2	1	UNK0	0.000	
3	   C	4.471	5.486	-0.999	C.2	1	UNK0	0.000	
4	   C	3.273	5.549	-1.706	C.2	1	UNK0	0.000	
5	   C	2.333	4.534	-1.558	C.2	1	UNK0	0.000	
6	   C	2.545	3.462	-0.733	C.2	1	UNK0	0.000	
7	   C	3.734	3.413	-0.040	C.2	1	UNK0	0.000	
8	   O	3.938	2.323	0.792	O.3	1	UNK0	0.000	
9	   C	1.549	2.411	-0.592	C.2	1	UNK0	0.000	
10	   N	1.699	1.386	0.169	N.2	1	UNK0	0.000	
11	   N	0.652	0.405	0.237	N.pl3	1	UNK0	0.000	
12	   C	-0.027	0.286	1.442	C.2	1	UNK0	0.000	
13	   O	0.348	1.069	2.394	O.2	1	UNK0	0.000	
14	   C	-1.115	-0.607	1.793	C.2	1	UNK0	0.000	
15	   N	-1.691	-0.703	3.035	N.2	1	UNK0	0.000	
16	   N	-2.641	-1.596	3.004	N.2	1	UNK0	0.000	
17	   N	-2.760	-2.133	1.802	N.pl3	1	UNK0	0.000	
18	   C	-1.831	-1.539	1.034	C.2	1	UNK0	0.000	
19	   C	-1.544	-1.819	-0.376	C.3	1	UNK0	0.000	
20	   N	-2.463	-2.774	-1.001	N.3	1	UNK0	0.000	
21	   C	-1.913	-3.161	-2.315	C.3	1	UNK0	0.000	
22	   C	-1.479	-1.946	-3.058	C.3	1	UNK0	0.000	
23	   O	-2.519	-1.052	-3.129	O.3	1	UNK0	0.000	
24	   C	-3.723	-1.549	-2.704	C.3	1	UNK0	0.000	
25	   C	-3.733	-2.066	-1.289	C.3	1	UNK0	0.000	
26	   C	-3.687	-3.154	1.478	C.2	1	UNK0	0.000	
27	   N	-3.463	-4.390	0.983	N.2	1	UNK0	0.000	
28	   O	-4.598	-5.021	0.838	O.3	1	UNK0	0.000	
29	   N	-5.594	-4.261	1.216	N.2	1	UNK0	0.000	
30	   C	-5.065	-3.094	1.620	C.2	1	UNK0	0.000	
31	   N	-5.821	-2.005	2.105	N.pl3	1	UNK0	0.000	
32	  Br	2.938	7.015	-2.860	Br	1	UNK0	0.000	
33	   O	5.395	6.508	-1.161	O.3	1	UNK0	0.000	
34	   H	1.412	4.583	-2.102	 H	1	UNK0	0.000	
35	   H	4.796	2.241	1.323	 H	1	UNK0	0.000	
36	   H	0.620	2.477	-1.153	 H	1	UNK0	0.000	
37	   H	0.491	-0.145	-0.640	 H	1	UNK0	0.000	
38	   H	-0.539	-2.224	-0.515	 H	1	UNK0	0.000	
39	   H	-1.656	-0.898	-0.964	 H	1	UNK0	0.000	
40	   H	-1.112	-3.908	-2.201	 H	1	UNK0	0.000	
41	   H	-2.746	-3.642	-2.860	 H	1	UNK0	0.000	
42	   H	-0.599	-1.448	-2.617	 H	1	UNK0	0.000	
43	   H	-1.254	-2.251	-4.122	 H	1	UNK0	0.000	
44	   H	-4.440	-0.673	-2.714	 H	1	UNK0	0.000	
45	   H	-4.131	-2.281	-3.432	 H	1	UNK0	0.000	
46	   H	-4.536	-2.812	-1.232	 H	1	UNK0	0.000	
47	   H	-3.913	-1.242	-0.606	 H	1	UNK0	0.000	
48	   H	-6.273	-2.084	3.034	 H	1	UNK0	0.000	
49	   H	-5.943	-1.127	1.569	 H	1	UNK0	0.000	
50	   H	5.209	7.284	-1.775	 H	1	UNK0	0.000	
@<TRIPOS>BOND
1 1 2 1
2 2 3 2
3 2 7 1
4 3 4 1
5 3 33 1
6 4 5 2
7 4 32 1
8 5 6 1
9 6 7 2
10 6 9 1
11 7 8 1
12 9 10 2
13 10 11 1
14 11 12 1
15 12 13 2
16 12 14 1
17 14 15 1
18 14 18 2
19 15 16 2
20 16 17 1
21 17 18 1
22 17 26 1
23 18 19 1
24 19 20 1
25 20 21 1
26 20 25 1
27 21 22 1
28 22 23 1
29 23 24 1
30 24 25 1
31 26 27 2
32 26 30 1
33 27 28 1
34 28 29 1
35 29 30 2
36 30 31 1
37 5 34 1
38 8 35 1
39 9 36 1
40 11 37 1
41 19 38 1
42 19 39 1
43 21 40 1
44 21 41 1
45 22 42 1
46 22 43 1
47 24 44 1
48 24 45 1
49 25 46 1
50 25 47 1
51 31 48 1
52 31 49 1
53 33 50 1
@<TRIPOS>SUBSTRUCTURE
1	UNK0	1	GROUP	1 ****	UNK
# created with PyMOL 2.3.2
@<TRIPOS>MOLECULE
708
43 46 1                 
SMALL
USER_CHARGES
@<TRIPOS>ATOM
1	  Br	-1.272	-2.056	4.119	Br	1	UNK0	0.000	
2	   C	0.200	-2.477	2.987	C.2	1	UNK0	0.000	
3	   N	1.016	-1.522	2.445	N.pl3	1	UNK0	0.000	
4	   C	1.918	-2.214	1.721	C.2	1	UNK0	0.000	
5	   C	1.677	-3.576	1.802	C.2	1	UNK0	0.000	
6	   N	0.596	-3.699	2.602	N.2	1	UNK0	0.000	
7	   N	2.419	-4.513	1.187	N.pl3	1	UNK0	0.000	
8	   C	3.457	-4.072	0.454	C.2	1	UNK0	0.000	
9	   O	4.192	-4.923	-0.151	O.2	1	UNK0	0.000	
10	   N	3.728	-2.758	0.349	N.pl3	1	UNK0	0.000	
11	   C	2.978	-1.806	0.971	C.2	1	UNK0	0.000	
12	   O	3.244	-0.591	0.865	O.2	1	UNK0	0.000	
13	   C	2.159	-5.934	1.276	C.3	1	UNK0	0.000	
14	   C	0.883	-0.097	2.668	C.3	1	UNK0	0.000	
15	   C	-0.080	0.577	1.735	C.3	1	UNK0	0.000	
16	   C	0.274	0.463	0.280	C.3	1	UNK0	0.000	
17	   N	-0.731	1.135	-0.532	N.pl3	1	UNK0	0.000	
18	   C	-1.861	0.619	-1.067	C.2	1	UNK0	0.000	
19	   C	-2.542	1.587	-1.768	C.2	1	UNK0	0.000	
20	   N	-1.803	2.706	-1.650	N.2	1	UNK0	0.000	
21	   C	-0.713	2.425	-0.904	C.2	1	UNK0	0.000	
22	  Br	0.680	3.636	-0.414	Br	1	UNK0	0.000	
23	   N	-3.704	1.365	-2.410	N.pl3	1	UNK0	0.000	
24	   C	-4.202	0.106	-2.341	C.2	1	UNK0	0.000	
25	   O	-5.298	-0.107	-2.944	O.2	1	UNK0	0.000	
26	   N	-3.566	-0.873	-1.664	N.pl3	1	UNK0	0.000	
27	   C	-2.402	-0.639	-1.024	C.2	1	UNK0	0.000	
28	   O	-1.786	-1.527	-0.386	O.2	1	UNK0	0.000	
29	   C	-4.392	2.425	-3.143	C.3	1	UNK0	0.000	
30	   H	4.528	-2.400	-0.215	 H	1	UNK0	0.000	
31	   H	1.138	-6.138	1.661	 H	1	UNK0	0.000	
32	   H	2.158	-6.349	0.228	 H	1	UNK0	0.000	
33	   H	2.882	-6.463	1.928	 H	1	UNK0	0.000	
34	   H	1.886	0.384	2.665	 H	1	UNK0	0.000	
35	   H	0.441	0.020	3.700	 H	1	UNK0	0.000	
36	   H	-0.269	1.634	2.027	 H	1	UNK0	0.000	
37	   H	-1.083	0.066	1.852	 H	1	UNK0	0.000	
38	   H	1.226	1.045	0.098	 H	1	UNK0	0.000	
39	   H	0.395	-0.571	-0.039	 H	1	UNK0	0.000	
40	   H	-3.996	-1.819	-1.645	 H	1	UNK0	0.000	
41	   H	-4.747	3.221	-2.455	 H	1	UNK0	0.000	
42	   H	-3.726	2.900	-3.889	 H	1	UNK0	0.000	
43	   H	-5.280	1.969	-3.607	 H	1	UNK0	0.000	
@<TRIPOS>BOND
1 1 2 1
2 2 3 1
3 2 6 2
4 3 4 1
5 3 14 1
6 4 5 2
7 4 11 1
8 5 6 1
9 5 7 1
10 7 8 1
11 7 13 1
12 8 9 2
13 8 10 1
14 10 11 1
15 11 12 2
16 14 15 1
17 15 16 1
18 16 17 1
19 17 18 1
20 17 21 1
21 18 19 2
22 18 27 1
23 19 20 1
24 19 23 1
25 20 21 2
26 21 22 1
27 23 24 1
28 23 29 1
29 24 25 2
30 24 26 1
31 26 27 1
32 27 28 2
33 10 30 1
34 13 31 1
35 13 32 1
36 13 33 1
37 14 34 1
38 14 35 1
39 15 36 1
40 15 37 1
41 16 38 1
42 16 39 1
43 26 40 1
44 29 41 1
45 29 42 1
46 29 43 1
@<TRIPOS>SUBSTRUCTURE
1	UNK0	1	GROUP	1 ****	UNK
# created with PyMOL 2.3.2
@<TRIPOS>MOLECULE
1808
38 42 1                 
SMALL
USER_CHARGES
@<TRIPOS>ATOM
1	  Br	-7.367	-2.584	0.879	Br	1	UNK0	0.000	
2	   C	-5.496	-2.633	0.571	C.2	1	UNK0	0.000	
3	   C	-4.968	-1.952	-0.499	C.2	1	UNK0	0.000	
4	   C	-3.606	-2.004	-0.698	C.2	1	UNK0	0.000	
5	   C	-2.769	-2.713	0.135	C.2	1	UNK0	0.000	
6	   C	-3.301	-3.401	1.217	C.2	1	UNK0	0.000	
7	   C	-4.682	-3.345	1.416	C.2	1	UNK0	0.000	
8	   N	-1.353	-2.757	-0.082	N.pl3	1	UNK0	0.000	
9	   C	-0.414	-2.278	0.868	C.2	1	UNK0	0.000	
10	   O	-0.670	-2.099	2.083	O.2	1	UNK0	0.000	
11	   C	0.886	-2.035	0.187	C.3	1	UNK0	0.000	
12	   C	1.038	-0.611	-0.251	C.3	1	UNK0	0.000	
13	   O	1.830	-0.783	-1.408	O.3	1	UNK0	0.000	
14	   C	0.918	-1.604	-2.118	C.3	1	UNK0	0.000	
15	   C	0.751	-2.737	-1.165	C.3	1	UNK0	0.000	
16	   C	-0.643	-3.254	-1.216	C.2	1	UNK0	0.000	
17	   O	-1.089	-3.989	-2.101	O.2	1	UNK0	0.000	
18	   C	-0.291	-0.743	-2.043	C.2	1	UNK0	0.000	
19	   C	-0.237	-0.175	-0.842	C.2	1	UNK0	0.000	
20	   C	1.648	0.294	0.731	C.3	1	UNK0	0.000	
21	   O	0.899	0.477	1.861	O.3	1	UNK0	0.000	
22	   C	0.417	1.762	1.868	C.3	1	UNK0	0.000	
23	   C	0.934	2.414	0.628	C.3	1	UNK0	0.000	
24	   O	1.919	1.537	0.188	O.3	1	UNK0	0.000	
25	   H	-5.588	-1.375	-1.191	 H	1	UNK0	0.000	
26	   H	-3.151	-1.470	-1.546	 H	1	UNK0	0.000	
27	   H	-2.635	-3.950	1.860	 H	1	UNK0	0.000	
28	   H	-5.096	-3.881	2.258	 H	1	UNK0	0.000	
29	   H	1.713	-2.412	0.787	 H	1	UNK0	0.000	
30	   H	1.248	-1.850	-3.112	 H	1	UNK0	0.000	
31	   H	1.482	-3.539	-1.269	 H	1	UNK0	0.000	
32	   H	-1.014	-0.654	-2.843	 H	1	UNK0	0.000	
33	   H	-1.034	0.463	-0.474	 H	1	UNK0	0.000	
34	   H	2.637	-0.145	1.031	 H	1	UNK0	0.000	
35	   H	0.725	2.345	2.758	 H	1	UNK0	0.000	
36	   H	-0.700	1.707	1.793	 H	1	UNK0	0.000	
37	   H	1.376	3.426	0.864	 H	1	UNK0	0.000	
38	   H	0.159	2.520	-0.173	 H	1	UNK0	0.000	
@<TRIPOS>BOND
1 1 2 1
2 2 3 2
3 2 7 1
4 3 4 1
5 4 5 2
6 5 6 1
7 5 8 1
8 6 7 2
9 8 9 1
10 8 16 1
11 9 10 2
12 9 11 1
13 11 12 1
14 11 15 1
15 12 13 1
16 12 19 1
17 12 20 1
18 13 14 1
19 14 15 1
20 14 18 1
21 15 16 1
22 16 17 2
23 18 19 2
24 20 21 1
25 20 24 1
26 21 22 1
27 22 23 1
28 23 24 1
29 3 25 1
30 4 26 1
31 6 27 1
32 7 28 1
33 11 29 1
34 14 30 1
35 15 31 1
36 18 32 1
37 19 33 1
38 20 34 1
39 22 35 1
40 22 36 1
41 23 37 1
42 23 38 1
@<TRIPOS>SUBSTRUCTURE
1	UNK0	1	GROUP	1 ****	UNK
