# created with PyMOL 2.3.2
@<TRIPOS>MOLECULE
2
50 53 1                 
SMALL
USER_CHARGES
@<TRIPOS>ATOM
1	  Br	-1.998	6.872	-5.266	Br	1	UNK0	0.000	
2	   C	-0.718	5.479	-4.937	C.2	1	UNK0	0.000	
3	   C	0.457	5.480	-5.664	C.2	1	UNK0	0.000	
4	   C	1.362	4.472	-5.412	C.2	1	UNK0	0.000	
5	   C	1.089	3.501	-4.463	C.2	1	UNK0	0.000	
6	   C	-0.083	3.496	-3.735	C.2	1	UNK0	0.000	
7	   C	-0.984	4.508	-3.993	C.2	1	UNK0	0.000	
8	   O	-2.178	4.500	-3.249	O.3	1	UNK0	0.000	
9	   C	-0.381	2.470	-2.727	C.2	1	UNK0	0.000	
10	   N	0.428	1.515	-2.459	N.2	1	UNK0	0.000	
11	   N	0.092	0.534	-1.463	N.pl3	1	UNK0	0.000	
12	   C	-0.338	-0.711	-1.936	C.2	1	UNK0	0.000	
13	   O	-0.378	-0.835	-3.235	O.2	1	UNK0	0.000	
14	   C	-0.746	-1.894	-1.217	C.2	1	UNK0	0.000	
15	   N	-1.046	-3.081	-1.851	N.2	1	UNK0	0.000	
16	   N	-1.382	-3.940	-0.943	N.2	1	UNK0	0.000	
17	   N	-1.312	-3.352	0.283	N.pl3	1	UNK0	0.000	
18	   C	-0.922	-2.086	0.147	C.2	1	UNK0	0.000	
19	   C	-0.713	-1.070	1.178	C.3	1	UNK0	0.000	
20	   N	-0.936	-1.392	2.537	N.4	1	UNK0	0.000	
21	   C	-2.224	-0.933	3.036	C.3	1	UNK0	0.000	
22	   C	-2.431	0.500	2.749	C.3	1	UNK0	0.000	
23	   O	-1.400	1.347	2.732	O.3	1	UNK0	0.000	
24	   C	-0.141	0.878	2.924	C.3	1	UNK0	0.000	
25	   C	-0.000	-0.532	3.332	C.3	1	UNK0	0.000	
26	   C	-1.632	-4.115	1.449	C.2	1	UNK0	0.000	
27	   N	-2.724	-4.169	2.201	N.2	1	UNK0	0.000	
28	   O	-2.519	-5.049	3.125	O.3	1	UNK0	0.000	
29	   N	-1.343	-5.585	3.027	N.2	1	UNK0	0.000	
30	   C	-0.725	-5.042	1.987	C.2	1	UNK0	0.000	
31	   N	0.573	-5.297	1.475	N.pl3	1	UNK0	0.000	
32	  Br	2.987	4.477	-6.420	Br	1	UNK0	0.000	
33	   O	0.699	6.475	-6.613	O.2	1	UNK0	0.000	
34	   H	1.817	2.710	-4.277	 H	1	UNK0	0.000	
35	   H	-2.863	5.223	-3.406	 H	1	UNK0	0.000	
36	   H	-1.300	2.518	-2.198	 H	1	UNK0	0.000	
37	   H	0.189	0.792	-0.495	 H	1	UNK0	0.000	
38	   H	-1.278	-0.110	0.922	 H	1	UNK0	0.000	
39	   H	0.379	-0.760	1.114	 H	1	UNK0	0.000	
40	   H	-0.744	-2.358	2.758	 H	1	UNK0	0.000	
41	   H	-2.158	-1.051	4.158	 H	1	UNK0	0.000	
42	   H	-3.079	-1.517	2.708	 H	1	UNK0	0.000	
43	   H	-3.189	0.880	3.498	 H	1	UNK0	0.000	
44	   H	-2.993	0.578	1.772	 H	1	UNK0	0.000	
45	   H	0.458	1.067	2.010	 H	1	UNK0	0.000	
46	   H	0.341	1.514	3.721	 H	1	UNK0	0.000	
47	   H	-0.240	-0.727	4.385	 H	1	UNK0	0.000	
48	   H	0.999	-0.930	3.108	 H	1	UNK0	0.000	
49	   H	0.832	-6.266	1.196	 H	1	UNK0	0.000	
50	   H	1.302	-4.535	1.363	 H	1	UNK0	0.000	
@<TRIPOS>BOND
1 1 2 1
2 2 3 2
3 2 7 1
4 3 4 1
5 3 33 1
6 4 5 2
7 4 32 1
8 5 6 1
9 6 7 2
10 6 9 1
11 7 8 1
12 9 10 2
13 10 11 1
14 11 12 1
15 12 13 2
16 12 14 1
17 14 15 1
18 14 18 2
19 15 16 2
20 16 17 1
21 17 18 1
22 17 26 1
23 18 19 1
24 19 20 1
25 20 21 1
26 20 25 1
27 21 22 1
28 22 23 1
29 23 24 1
30 24 25 1
31 26 27 2
32 26 30 1
33 27 28 1
34 28 29 1
35 29 30 2
36 30 31 1
37 5 34 1
38 8 35 1
39 9 36 1
40 11 37 1
41 19 38 1
42 19 39 1
43 20 40 1
44 21 41 1
45 21 42 1
46 22 43 1
47 22 44 1
48 24 45 1
49 24 46 1
50 25 47 1
51 25 48 1
52 31 49 1
53 31 50 1
@<TRIPOS>SUBSTRUCTURE
1	UNK0	1	GROUP	1 ****	UNK
# created with PyMOL 2.3.2
@<TRIPOS>MOLECULE
3
50 53 1                 
SMALL
USER_CHARGES
@<TRIPOS>ATOM
1	  Br	6.306	4.298	0.806	Br	1	UNK0	0.000	
2	   C	4.690	4.421	-0.175	C.2	1	UNK0	0.000	
3	   C	4.471	5.486	-0.999	C.2	1	UNK0	0.000	
4	   C	3.273	5.549	-1.706	C.2	1	UNK0	0.000	
5	   C	2.333	4.534	-1.558	C.2	1	UNK0	0.000	
6	   C	2.545	3.462	-0.733	C.2	1	UNK0	0.000	
7	   C	3.734	3.413	-0.040	C.2	1	UNK0	0.000	
8	   O	3.938	2.323	0.792	O.3	1	UNK0	0.000	
9	   C	1.549	2.411	-0.592	C.2	1	UNK0	0.000	
10	   N	1.699	1.386	0.169	N.2	1	UNK0	0.000	
11	   N	0.652	0.405	0.237	N.pl3	1	UNK0	0.000	
12	   C	-0.027	0.286	1.442	C.2	1	UNK0	0.000	
13	   O	0.348	1.069	2.394	O.2	1	UNK0	0.000	
14	   C	-1.115	-0.607	1.793	C.2	1	UNK0	0.000	
15	   N	-1.691	-0.703	3.035	N.2	1	UNK0	0.000	
16	   N	-2.641	-1.596	3.004	N.2	1	UNK0	0.000	
17	   N	-2.760	-2.133	1.802	N.pl3	1	UNK0	0.000	
18	   C	-1.831	-1.539	1.034	C.2	1	UNK0	0.000	
19	   C	-1.544	-1.819	-0.376	C.3	1	UNK0	0.000	
20	   N	-2.463	-2.774	-1.001	N.3	1	UNK0	0.000	
21	   C	-1.913	-3.161	-2.315	C.3	1	UNK0	0.000	
22	   C	-1.479	-1.946	-3.058	C.3	1	UNK0	0.000	
23	   O	-2.519	-1.052	-3.129	O.3	1	UNK0	0.000	
24	   C	-3.723	-1.549	-2.704	C.3	1	UNK0	0.000	
25	   C	-3.733	-2.066	-1.289	C.3	1	UNK0	0.000	
26	   C	-3.687	-3.154	1.478	C.2	1	UNK0	0.000	
27	   N	-3.463	-4.390	0.983	N.2	1	UNK0	0.000	
28	   O	-4.598	-5.021	0.838	O.3	1	UNK0	0.000	
29	   N	-5.594	-4.261	1.216	N.2	1	UNK0	0.000	
30	   C	-5.065	-3.094	1.620	C.2	1	UNK0	0.000	
31	   N	-5.821	-2.005	2.105	N.pl3	1	UNK0	0.000	
32	  Br	2.938	7.015	-2.860	Br	1	UNK0	0.000	
33	   O	5.395	6.508	-1.161	O.3	1	UNK0	0.000	
34	   H	1.412	4.583	-2.102	 H	1	UNK0	0.000	
35	   H	4.796	2.241	1.323	 H	1	UNK0	0.000	
36	   H	0.620	2.477	-1.153	 H	1	UNK0	0.000	
37	   H	0.491	-0.145	-0.640	 H	1	UNK0	0.000	
38	   H	-0.539	-2.224	-0.515	 H	1	UNK0	0.000	
39	   H	-1.656	-0.898	-0.964	 H	1	UNK0	0.000	
40	   H	-1.112	-3.908	-2.201	 H	1	UNK0	0.000	
41	   H	-2.746	-3.642	-2.860	 H	1	UNK0	0.000	
42	   H	-0.599	-1.448	-2.617	 H	1	UNK0	0.000	
43	   H	-1.254	-2.251	-4.122	 H	1	UNK0	0.000	
44	   H	-4.440	-0.673	-2.714	 H	1	UNK0	0.000	
45	   H	-4.131	-2.281	-3.432	 H	1	UNK0	0.000	
46	   H	-4.536	-2.812	-1.232	 H	1	UNK0	0.000	
47	   H	-3.913	-1.242	-0.606	 H	1	UNK0	0.000	
48	   H	-6.273	-2.084	3.034	 H	1	UNK0	0.000	
49	   H	-5.943	-1.127	1.569	 H	1	UNK0	0.000	
50	   H	5.209	7.284	-1.775	 H	1	UNK0	0.000	
@<TRIPOS>BOND
1 1 2 1
2 2 3 2
3 2 7 1
4 3 4 1
5 3 33 1
6 4 5 2
7 4 32 1
8 5 6 1
9 6 7 2
10 6 9 1
11 7 8 1
12 9 10 2
13 10 11 1
14 11 12 1
15 12 13 2
16 12 14 1
17 14 15 1
18 14 18 2
19 15 16 2
20 16 17 1
21 17 18 1
22 17 26 1
23 18 19 1
24 19 20 1
25 20 21 1
26 20 25 1
27 21 22 1
28 22 23 1
29 23 24 1
30 24 25 1
31 26 27 2
32 26 30 1
33 27 28 1
34 28 29 1
35 29 30 2
36 30 31 1
37 5 34 1
38 8 35 1
39 9 36 1
40 11 37 1
41 19 38 1
42 19 39 1
43 21 40 1
44 21 41 1
45 22 42 1
46 22 43 1
47 24 44 1
48 24 45 1
49 25 46 1
50 25 47 1
51 31 48 1
52 31 49 1
53 33 50 1
@<TRIPOS>SUBSTRUCTURE
1	UNK0	1	GROUP	1 ****	UNK
# created with PyMOL 2.3.2
@<TRIPOS>MOLECULE
4
52 55 1                 
SMALL
USER_CHARGES
@<TRIPOS>ATOM
1	  Br	4.377	5.569	1.824	Br	1	UNK0	0.000	
2	   C	5.034	3.922	1.112	C.2	1	UNK0	0.000	
3	   C	6.391	3.681	1.201	C.2	1	UNK0	0.000	
4	   C	6.870	2.495	0.689	C.2	1	UNK0	0.000	
5	   C	6.026	1.568	0.104	C.2	1	UNK0	0.000	
6	   C	4.674	1.799	0.011	C.2	1	UNK0	0.000	
7	   C	4.196	2.987	0.524	C.2	1	UNK0	0.000	
8	   O	2.847	3.239	0.443	O.3	1	UNK0	0.000	
9	   C	3.810	0.808	-0.609	C.2	1	UNK0	0.000	
10	   N	2.549	0.937	-0.737	N.2	1	UNK0	0.000	
11	   N	1.732	-0.038	-1.342	N.pl3	1	UNK0	0.000	
12	   C	0.620	-0.553	-0.621	C.2	1	UNK0	0.000	
13	   N	0.346	-0.127	0.610	N.2	1	UNK0	0.000	
14	   C	-0.711	-0.597	1.333	C.2	1	UNK0	0.000	
15	   N	-1.466	-1.517	0.737	N.2	1	UNK0	0.000	
16	   C	-1.259	-2.005	-0.507	C.2	1	UNK0	0.000	
17	   N	-0.180	-1.480	-1.161	N.2	1	UNK0	0.000	
18	   N	-2.085	-2.979	-1.097	N.pl3	1	UNK0	0.000	
19	   C	-3.208	-3.512	-0.391	C.3	1	UNK0	0.000	
20	   C	-3.098	-5.038	-0.454	C.3	1	UNK0	0.000	
21	   O	-1.942	-5.447	-1.083	O.3	1	UNK0	0.000	
22	   C	-1.793	-4.974	-2.363	C.3	1	UNK0	0.000	
23	   C	-1.809	-3.451	-2.419	C.3	1	UNK0	0.000	
24	   N	-0.984	-0.132	2.637	N.pl3	1	UNK0	0.000	
25	   C	-0.144	0.863	3.243	C.3	1	UNK0	0.000	
26	   C	0.174	0.388	4.652	C.3	1	UNK0	0.000	
27	   O	-0.961	-0.053	5.321	O.3	1	UNK0	0.000	
28	   C	-1.570	-1.130	4.718	C.3	1	UNK0	0.000	
29	   C	-2.107	-0.655	3.362	C.3	1	UNK0	0.000	
30	  Br	8.750	2.149	0.805	Br	1	UNK0	0.000	
31	   O	7.226	4.626	1.793	O.3	1	UNK0	0.000	
32	   H	6.425	0.630	-0.298	 H	1	UNK0	0.000	
33	   H	2.454	4.110	0.812	 H	1	UNK0	0.000	
34	   H	4.260	-0.096	-0.985	 H	1	UNK0	0.000	
35	   H	1.990	-0.328	-2.291	 H	1	UNK0	0.000	
36	   H	-4.128	-3.251	-0.966	 H	1	UNK0	0.000	
37	   H	-3.250	-3.148	0.651	 H	1	UNK0	0.000	
38	   H	-3.994	-5.500	-0.880	 H	1	UNK0	0.000	
39	   H	-3.032	-5.392	0.607	 H	1	UNK0	0.000	
40	   H	-2.534	-5.406	-3.068	 H	1	UNK0	0.000	
41	   H	-0.794	-5.293	-2.727	 H	1	UNK0	0.000	
42	   H	-0.849	-3.041	-2.792	 H	1	UNK0	0.000	
43	   H	-2.578	-3.153	-3.161	 H	1	UNK0	0.000	
44	   H	0.846	0.972	2.729	 H	1	UNK0	0.000	
45	   H	-0.662	1.839	3.340	 H	1	UNK0	0.000	
46	   H	0.958	-0.387	4.614	 H	1	UNK0	0.000	
47	   H	0.574	1.253	5.223	 H	1	UNK0	0.000	
48	   H	-0.811	-1.900	4.494	 H	1	UNK0	0.000	
49	   H	-2.378	-1.486	5.367	 H	1	UNK0	0.000	
50	   H	-2.783	0.208	3.605	 H	1	UNK0	0.000	
51	   H	-2.631	-1.466	2.832	 H	1	UNK0	0.000	
52	   H	8.214	4.445	1.855	 H	1	UNK0	0.000	
@<TRIPOS>BOND
1 1 2 1
2 2 3 2
3 2 7 1
4 3 4 1
5 3 31 1
6 4 5 2
7 4 30 1
8 5 6 1
9 6 7 2
10 6 9 1
11 7 8 1
12 9 10 2
13 10 11 1
14 11 12 1
15 12 13 2
16 12 17 1
17 13 14 1
18 14 15 2
19 14 24 1
20 15 16 1
21 16 17 2
22 16 18 1
23 18 19 1
24 18 23 1
25 19 20 1
26 20 21 1
27 21 22 1
28 22 23 1
29 24 25 1
30 24 29 1
31 25 26 1
32 26 27 1
33 27 28 1
34 28 29 1
35 5 32 1
36 8 33 1
37 9 34 1
38 11 35 1
39 19 36 1
40 19 37 1
41 20 38 1
42 20 39 1
43 22 40 1
44 22 41 1
45 23 42 1
46 23 43 1
47 25 44 1
48 25 45 1
49 26 46 1
50 26 47 1
51 28 48 1
52 28 49 1
53 29 50 1
54 29 51 1
55 31 52 1
@<TRIPOS>SUBSTRUCTURE
1	UNK0	1	GROUP	1 ****	UNK
# created with PyMOL 2.3.2
@<TRIPOS>MOLECULE
5
60 63 1                 
SMALL
USER_CHARGES
@<TRIPOS>ATOM
1	  Br	-4.058	-3.114	2.258	Br	1	UNK0	0.000	
2	   C	-3.790	-1.219	2.239	C.2	1	UNK0	0.000	
3	   C	-2.652	-0.730	1.579	C.2	1	UNK0	0.000	
4	   C	-2.476	0.616	1.574	C.2	1	UNK0	0.000	
5	   C	-3.377	1.490	2.195	C.2	1	UNK0	0.000	
6	   C	-4.485	0.986	2.836	C.2	1	UNK0	0.000	
7	   C	-4.683	-0.378	2.852	C.2	1	UNK0	0.000	
8	  Br	-5.778	2.076	3.713	Br	1	UNK0	0.000	
9	  Br	-1.000	1.398	0.705	Br	1	UNK0	0.000	
10	   O	-1.806	-1.604	0.991	O.3	1	UNK0	0.000	
11	   C	-0.707	-2.268	1.611	C.3	1	UNK0	0.000	
12	   C	-0.069	-3.198	0.669	C.3	1	UNK0	0.000	
13	   O	-1.088	-4.051	0.209	O.3	1	UNK0	0.000	
14	   C	1.028	-2.875	-0.228	C.3	1	UNK0	0.000	
15	   N	0.955	-1.823	-1.178	N.pl3	1	UNK0	0.000	
16	   C	0.395	-1.906	-2.414	C.2	1	UNK0	0.000	
17	   C	0.508	-0.698	-3.049	C.2	1	UNK0	0.000	
18	   N	1.132	0.087	-2.195	N.2	1	UNK0	0.000	
19	   C	1.425	-0.569	-1.039	C.2	1	UNK0	0.000	
20	   N	2.209	0.035	0.006	N.pl3	1	UNK0	0.000	
21	   C	2.787	-0.600	1.127	C.3	1	UNK0	0.000	
22	   C	3.609	0.467	1.901	C.3	1	UNK0	0.000	
23	   N	2.628	1.446	2.328	N.4	1	UNK0	0.000	
24	   C	2.420	2.261	1.116	C.3	1	UNK0	0.000	
25	   C	2.476	1.473	-0.131	C.3	1	UNK0	0.000	
26	   C	3.137	2.283	3.396	C.3	1	UNK0	0.000	
27	   C	2.597	1.773	4.714	C.3	1	UNK0	0.000	
28	   O	3.017	0.450	4.899	O.3	1	UNK0	0.000	
29	   N	0.058	-0.447	-4.317	N.pl3	1	UNK0	0.000	
30	   C	-0.524	-1.468	-4.958	C.2	1	UNK0	0.000	
31	   O	-0.939	-1.233	-6.128	O.2	1	UNK0	0.000	
32	   N	-0.656	-2.677	-4.379	N.2	1	UNK0	0.000	
33	   C	-0.220	-2.937	-3.136	C.2	1	UNK0	0.000	
34	   O	-0.362	-4.183	-2.570	O.2	1	UNK0	0.000	
35	   C	0.224	0.882	-4.889	C.3	1	UNK0	0.000	
36	   H	-3.214	2.549	2.177	 H	1	UNK0	0.000	
37	   H	-5.555	-0.819	3.352	 H	1	UNK0	0.000	
38	   H	-1.239	-2.927	2.382	 H	1	UNK0	0.000	
39	   H	-0.077	-1.635	2.220	 H	1	UNK0	0.000	
40	   H	0.454	-3.992	1.432	 H	1	UNK0	0.000	
41	   H	-0.761	-4.952	0.036	 H	1	UNK0	0.000	
42	   H	2.043	-2.902	0.293	 H	1	UNK0	0.000	
43	   H	1.161	-3.859	-0.836	 H	1	UNK0	0.000	
44	   H	3.588	-1.339	0.866	 H	1	UNK0	0.000	
45	   H	2.075	-0.945	1.883	 H	1	UNK0	0.000	
46	   H	4.358	0.928	1.230	 H	1	UNK0	0.000	
47	   H	4.084	0.047	2.788	 H	1	UNK0	0.000	
48	   H	1.696	1.037	2.552	 H	1	UNK0	0.000	
49	   H	1.594	2.969	1.224	 H	1	UNK0	0.000	
50	   H	3.347	2.921	1.110	 H	1	UNK0	0.000	
51	   H	1.751	1.896	-0.851	 H	1	UNK0	0.000	
52	   H	3.467	1.516	-0.645	 H	1	UNK0	0.000	
53	   H	2.781	3.341	3.286	 H	1	UNK0	0.000	
54	   H	4.241	2.248	3.467	 H	1	UNK0	0.000	
55	   H	3.018	2.352	5.565	 H	1	UNK0	0.000	
56	   H	1.471	1.786	4.737	 H	1	UNK0	0.000	
57	   H	2.234	-0.162	4.974	 H	1	UNK0	0.000	
58	   H	-0.798	1.357	-4.815	 H	1	UNK0	0.000	
59	   H	0.851	1.482	-4.202	 H	1	UNK0	0.000	
60	   H	0.554	0.890	-5.925	 H	1	UNK0	0.000	
@<TRIPOS>BOND
1 1 2 1
2 2 3 2
3 2 7 1
4 3 4 1
5 3 10 1
6 4 5 2
7 4 9 1
8 5 6 1
9 6 7 2
10 6 8 1
11 10 11 1
12 11 12 1
13 12 13 1
14 12 14 1
15 14 15 1
16 15 16 1
17 15 19 1
18 16 17 2
19 16 33 1
20 17 18 1
21 17 29 1
22 18 19 2
23 19 20 1
24 20 21 1
25 20 25 1
26 21 22 1
27 22 23 1
28 23 24 1
29 23 26 1
30 24 25 1
31 26 27 1
32 27 28 1
33 29 30 1
34 29 35 1
35 30 31 2
36 30 32 1
37 32 33 2
38 33 34 1
39 5 36 1
40 7 37 1
41 11 38 1
42 11 39 1
43 12 40 1
44 13 41 1
45 14 42 1
46 14 43 1
47 21 44 1
48 21 45 1
49 22 46 1
50 22 47 1
51 23 48 1
52 24 49 1
53 24 50 1
54 25 51 1
55 25 52 1
56 26 53 1
57 26 54 1
58 27 55 1
59 27 56 1
60 28 57 1
61 35 58 1
62 35 59 1
63 35 60 1
@<TRIPOS>SUBSTRUCTURE
1	UNK0	1	GROUP	1 ****	UNK
# created with PyMOL 2.3.2
@<TRIPOS>MOLECULE
6
43 46 1                 
SMALL
USER_CHARGES
@<TRIPOS>ATOM
1	  Br	-2.874	-0.416	-6.512	Br	1	UNK0	0.000	
2	   C	-3.522	-1.337	-4.985	C.2	1	UNK0	0.000	
3	   C	-2.818	-1.244	-3.803	C.2	1	UNK0	0.000	
4	   C	-3.270	-1.899	-2.699	C.2	1	UNK0	0.000	
5	   C	-4.438	-2.669	-2.734	C.2	1	UNK0	0.000	
6	   C	-5.120	-2.744	-3.924	C.2	1	UNK0	0.000	
7	   C	-4.681	-2.091	-5.049	C.2	1	UNK0	0.000	
8	  Br	-6.723	-3.783	-4.028	Br	1	UNK0	0.000	
9	   C	-2.538	-1.808	-1.451	C.2	1	UNK0	0.000	
10	   N	-1.469	-1.109	-1.405	N.2	1	UNK0	0.000	
11	   N	-0.695	-0.955	-0.267	N.pl3	1	UNK0	0.000	
12	   C	-0.395	-1.993	0.649	C.2	1	UNK0	0.000	
13	   O	-0.872	-3.124	0.395	O.2	1	UNK0	0.000	
14	   C	0.415	-1.802	1.827	C.3	1	UNK0	0.000	
15	   N	0.920	-0.482	2.042	N.pl3	1	UNK0	0.000	
16	   C	0.334	0.526	2.741	C.2	1	UNK0	0.000	
17	   C	1.129	1.638	2.716	C.2	1	UNK0	0.000	
18	   N	2.204	1.289	1.992	N.2	1	UNK0	0.000	
19	   C	2.079	-0.011	1.577	C.2	1	UNK0	0.000	
20	   C	3.074	-0.703	0.767	C.2	1	UNK0	0.000	
21	   N	2.988	-1.970	0.342	N.2	1	UNK0	0.000	
22	   O	4.067	-2.257	-0.364	O.3	1	UNK0	0.000	
23	   N	4.854	-1.229	-0.417	N.2	1	UNK0	0.000	
24	   C	4.271	-0.229	0.280	C.2	1	UNK0	0.000	
25	   N	4.791	1.073	0.477	N.4	1	UNK0	0.000	
26	   C	0.703	2.773	3.374	C.2	1	UNK0	0.000	
27	   C	-0.502	2.817	4.056	C.2	1	UNK0	0.000	
28	   C	-1.285	1.676	4.064	C.2	1	UNK0	0.000	
29	   C	-0.861	0.539	3.406	C.2	1	UNK0	0.000	
30	   O	-1.661	-0.487	-3.751	O.2	1	UNK0	0.000	
31	   H	-4.810	-3.193	-1.869	 H	1	UNK0	0.000	
32	   H	-5.191	-2.129	-5.997	 H	1	UNK0	0.000	
33	   H	-2.852	-2.308	-0.543	 H	1	UNK0	0.000	
34	   H	-0.304	-0.010	-0.065	 H	1	UNK0	0.000	
35	   H	-0.149	-2.062	2.777	 H	1	UNK0	0.000	
36	   H	1.247	-2.534	1.823	 H	1	UNK0	0.000	
37	   H	4.585	1.708	-0.306	 H	1	UNK0	0.000	
38	   H	5.842	0.966	0.506	 H	1	UNK0	0.000	
39	   H	4.503	1.491	1.400	 H	1	UNK0	0.000	
40	   H	1.343	3.654	3.349	 H	1	UNK0	0.000	
41	   H	-0.811	3.735	4.569	 H	1	UNK0	0.000	
42	   H	-2.228	1.707	4.597	 H	1	UNK0	0.000	
43	   H	-1.459	-0.369	3.398	 H	1	UNK0	0.000	
@<TRIPOS>BOND
1 1 2 1
2 2 3 2
3 2 7 1
4 3 4 1
5 3 30 1
6 4 5 2
7 4 9 1
8 5 6 1
9 6 7 2
10 6 8 1
11 9 10 2
12 10 11 1
13 11 12 1
14 12 13 2
15 12 14 1
16 14 15 1
17 15 16 1
18 15 19 1
19 16 17 2
20 16 29 1
21 17 18 1
22 17 26 1
23 18 19 2
24 19 20 1
25 20 21 2
26 20 24 1
27 21 22 1
28 22 23 1
29 23 24 2
30 24 25 1
31 26 27 2
32 27 28 1
33 28 29 2
34 5 31 1
35 7 32 1
36 9 33 1
37 11 34 1
38 14 35 1
39 14 36 1
40 25 37 1
41 25 38 1
42 25 39 1
43 26 40 1
44 27 41 1
45 28 42 1
46 29 43 1
@<TRIPOS>SUBSTRUCTURE
1	UNK0	1	GROUP	1 ****	UNK
# created with PyMOL 2.3.2
@<TRIPOS>MOLECULE
11
50 53 1                 
SMALL
USER_CHARGES
@<TRIPOS>ATOM
1	  Br	1.519	5.105	1.754	Br	1	UNK0	0.000	
2	   C	-0.237	4.587	1.253	C.2	1	UNK0	0.000	
3	   C	-1.320	5.351	1.628	C.2	1	UNK0	0.000	
4	   C	-2.622	4.933	1.261	C.2	1	UNK0	0.000	
5	   C	-2.734	3.776	0.546	C.2	1	UNK0	0.000	
6	   C	-1.661	2.967	0.145	C.2	1	UNK0	0.000	
7	   C	-0.420	3.425	0.529	C.2	1	UNK0	0.000	
8	   C	-1.902	1.770	-0.584	C.2	1	UNK0	0.000	
9	   N	-1.219	0.904	-1.007	N.2	1	UNK0	0.000	
10	   N	-0.433	0.045	-1.413	N.pl3	1	UNK0	0.000	
11	   C	0.429	-0.901	-1.862	C.2	1	UNK0	0.000	
12	   O	0.359	-1.900	-2.575	O.2	1	UNK0	0.000	
13	   C	1.857	-0.645	-1.332	C.3	1	UNK0	0.000	
14	   N	2.698	-1.754	-1.520	N.pl3	1	UNK0	0.000	
15	   C	2.803	-2.715	-0.526	C.2	1	UNK0	0.000	
16	   C	3.684	-3.635	-0.957	C.2	1	UNK0	0.000	
17	   N	4.095	-3.247	-2.154	N.2	1	UNK0	0.000	
18	   C	3.478	-2.060	-2.522	C.2	1	UNK0	0.000	
19	   C	3.856	-1.514	-3.813	C.2	1	UNK0	0.000	
20	   N	4.796	-2.131	-4.636	N.2	1	UNK0	0.000	
21	   O	4.938	-1.479	-5.718	O.3	1	UNK0	0.000	
22	   N	4.180	-0.457	-5.725	N.2	1	UNK0	0.000	
23	   C	3.479	-0.444	-4.540	C.2	1	UNK0	0.000	
24	   N	2.529	0.557	-4.247	N.4	1	UNK0	0.000	
25	   C	4.035	-4.746	-0.206	C.2	1	UNK0	0.000	
26	   C	3.431	-4.870	1.022	C.2	1	UNK0	0.000	
27	   C	2.517	-3.957	1.512	C.2	1	UNK0	0.000	
28	   C	2.202	-2.858	0.715	C.2	1	UNK0	0.000	
29	   O	-3.690	5.718	1.653	O.3	1	UNK0	0.000	
30	   C	-5.007	5.409	1.349	C.3	1	UNK0	0.000	
31	   C	-5.523	4.104	1.886	C.3	1	UNK0	0.000	
32	   O	-1.214	6.506	2.347	O.2	1	UNK0	0.000	
33	   H	-3.708	3.422	0.257	 H	1	UNK0	0.000	
34	   H	0.476	2.843	0.232	 H	1	UNK0	0.000	
35	   H	-2.986	1.510	-0.859	 H	1	UNK0	0.000	
36	   H	-1.447	-0.596	-2.146	 H	1	UNK0	0.000	
37	   H	1.717	-0.513	-0.204	 H	1	UNK0	0.000	
38	   H	2.177	0.293	-1.747	 H	1	UNK0	0.000	
39	   H	2.346	1.126	-5.157	 H	1	UNK0	0.000	
40	   H	2.935	1.254	-3.611	 H	1	UNK0	0.000	
41	   H	1.613	0.163	-4.048	 H	1	UNK0	0.000	
42	   H	4.750	-5.449	-0.620	 H	1	UNK0	0.000	
43	   H	3.682	-5.744	1.654	 H	1	UNK0	0.000	
44	   H	2.074	-4.098	2.485	 H	1	UNK0	0.000	
45	   H	1.496	-2.119	1.044	 H	1	UNK0	0.000	
46	   H	-5.692	6.255	1.704	 H	1	UNK0	0.000	
47	   H	-5.190	5.398	0.231	 H	1	UNK0	0.000	
48	   H	-5.930	3.514	1.052	 H	1	UNK0	0.000	
49	   H	-4.737	3.570	2.406	 H	1	UNK0	0.000	
50	   H	-6.418	4.300	2.552	 H	1	UNK0	0.000	
@<TRIPOS>BOND
1 1 2 1
2 2 3 2
3 2 7 1
4 3 4 1
5 3 32 1
6 4 5 2
7 4 29 1
8 5 6 1
9 6 7 2
10 6 8 1
11 8 9 2
12 9 10 1
13 10 11 1
14 11 12 2
15 11 13 1
16 13 14 1
17 14 15 1
18 14 18 1
19 15 16 2
20 15 28 1
21 16 17 1
22 16 25 1
23 17 18 2
24 18 19 1
25 19 20 2
26 19 23 1
27 20 21 1
28 21 22 1
29 22 23 2
30 23 24 1
31 25 26 2
32 26 27 1
33 27 28 2
34 29 30 1
35 30 31 1
36 5 33 1
37 7 34 1
38 8 35 1
39 10 36 1
40 13 37 1
41 13 38 1
42 24 39 1
43 24 40 1
44 24 41 1
45 25 42 1
46 26 43 1
47 27 44 1
48 28 45 1
49 30 46 1
50 30 47 1
51 31 48 1
52 31 49 1
53 31 50 1
@<TRIPOS>SUBSTRUCTURE
1	UNK0	1	GROUP	1 ****	UNK
# created with PyMOL 2.3.2
@<TRIPOS>MOLECULE
17
56 59 1                 
SMALL
USER_CHARGES
@<TRIPOS>ATOM
1	  Br	8.676	-0.094	-0.178	Br	1	UNK0	0.000	
2	   C	7.040	0.593	-0.873	C.2	1	UNK0	0.000	
3	   C	6.958	1.122	-2.156	C.2	1	UNK0	0.000	
4	   C	5.780	1.620	-2.664	C.2	1	UNK0	0.000	
5	   C	4.671	1.579	-1.853	C.2	1	UNK0	0.000	
6	   C	4.716	1.059	-0.569	C.2	1	UNK0	0.000	
7	   C	5.916	0.571	-0.101	C.2	1	UNK0	0.000	
8	   C	3.560	1.002	0.311	C.2	1	UNK0	0.000	
9	   N	3.634	0.514	1.494	N.2	1	UNK0	0.000	
10	   N	2.597	0.421	2.389	N.pl3	1	UNK0	0.000	
11	   C	1.280	0.030	2.059	C.2	1	UNK0	0.000	
12	   O	1.011	-0.257	0.876	O.2	1	UNK0	0.000	
13	   C	0.227	-0.047	3.063	C.2	1	UNK0	0.000	
14	   N	0.296	0.213	4.375	N.2	1	UNK0	0.000	
15	   N	-0.879	0.023	4.923	N.2	1	UNK0	0.000	
16	   N	-1.775	-0.371	4.000	N.pl3	1	UNK0	0.000	
17	   C	-1.112	-0.421	2.841	C.2	1	UNK0	0.000	
18	   C	-1.610	-0.761	1.507	C.3	1	UNK0	0.000	
19	   N	-2.985	-1.181	1.410	N.3	1	UNK0	0.000	
20	   C	-3.246	-1.258	-0.033	C.3	1	UNK0	0.000	
21	   C	-2.408	-2.227	-0.768	C.3	1	UNK0	0.000	
22	   O	-2.090	-3.323	0.019	O.3	1	UNK0	0.000	
23	   C	-3.145	-3.565	0.872	C.3	1	UNK0	0.000	
24	   C	-3.125	-2.525	1.975	C.3	1	UNK0	0.000	
25	   C	-3.149	-0.633	4.305	C.2	1	UNK0	0.000	
26	   N	-3.675	-1.612	5.058	N.2	1	UNK0	0.000	
27	   O	-4.980	-1.482	5.082	O.3	1	UNK0	0.000	
28	   N	-5.350	-0.446	4.368	N.2	1	UNK0	0.000	
29	   C	-4.226	0.102	3.872	C.2	1	UNK0	0.000	
30	   N	-4.218	1.255	3.045	N.pl3	1	UNK0	0.000	
31	   O	5.773	2.128	-3.941	O.3	1	UNK0	0.000	
32	   C	4.688	2.670	-4.620	C.3	1	UNK0	0.000	
33	   C	3.533	1.741	-4.812	C.3	1	UNK0	0.000	
34	   O	8.114	1.138	-2.931	O.3	1	UNK0	0.000	
35	   H	3.738	1.964	-2.232	 H	1	UNK0	0.000	
36	   H	5.969	0.157	0.911	 H	1	UNK0	0.000	
37	   H	2.607	1.379	-0.034	 H	1	UNK0	0.000	
38	   H	2.809	0.662	3.400	 H	1	UNK0	0.000	
39	   H	-0.984	-1.587	1.075	 H	1	UNK0	0.000	
40	   H	-1.421	0.094	0.785	 H	1	UNK0	0.000	
41	   H	-4.305	-1.493	-0.145	 H	1	UNK0	0.000	
42	   H	-2.994	-0.226	-0.408	 H	1	UNK0	0.000	
43	   H	-1.421	-1.725	-0.993	 H	1	UNK0	0.000	
44	   H	-2.815	-2.521	-1.757	 H	1	UNK0	0.000	
45	   H	-3.080	-4.551	1.376	 H	1	UNK0	0.000	
46	   H	-4.086	-3.465	0.296	 H	1	UNK0	0.000	
47	   H	-2.269	-2.764	2.620	 H	1	UNK0	0.000	
48	   H	-4.101	-2.608	2.479	 H	1	UNK0	0.000	
49	   H	-4.332	1.230	2.011	 H	1	UNK0	0.000	
50	   H	-4.093	2.214	3.460	 H	1	UNK0	0.000	
51	   H	4.316	3.602	-4.122	 H	1	UNK0	0.000	
52	   H	5.047	2.980	-5.634	 H	1	UNK0	0.000	
53	   H	3.307	1.565	-5.901	 H	1	UNK0	0.000	
54	   H	2.589	2.090	-4.333	 H	1	UNK0	0.000	
55	   H	3.802	0.740	-4.407	 H	1	UNK0	0.000	
56	   H	8.085	1.517	-3.870	 H	1	UNK0	0.000	
@<TRIPOS>BOND
1 1 2 1
2 2 3 2
3 2 7 1
4 3 4 1
5 3 34 1
6 4 5 2
7 4 31 1
8 5 6 1
9 6 7 2
10 6 8 1
11 8 9 2
12 9 10 1
13 10 11 1
14 11 12 2
15 11 13 1
16 13 14 1
17 13 17 2
18 14 15 2
19 15 16 1
20 16 17 1
21 16 25 1
22 17 18 1
23 18 19 1
24 19 20 1
25 19 24 1
26 20 21 1
27 21 22 1
28 22 23 1
29 23 24 1
30 25 26 2
31 25 29 1
32 26 27 1
33 27 28 1
34 28 29 2
35 29 30 1
36 31 32 1
37 32 33 1
38 5 35 1
39 7 36 1
40 8 37 1
41 10 38 1
42 18 39 1
43 18 40 1
44 20 41 1
45 20 42 1
46 21 43 1
47 21 44 1
48 23 45 1
49 23 46 1
50 24 47 1
51 24 48 1
52 30 49 1
53 30 50 1
54 32 51 1
55 32 52 1
56 33 53 1
57 33 54 1
58 33 55 1
59 34 56 1
@<TRIPOS>SUBSTRUCTURE
1	UNK0	1	GROUP	1 ****	UNK
# created with PyMOL 2.3.2
@<TRIPOS>MOLECULE
18
53 56 1                 
SMALL
USER_CHARGES
@<TRIPOS>ATOM
1	  Br	0.088	-1.479	4.493	Br	1	UNK0	0.000	
2	   C	-0.236	-2.252	2.754	C.2	1	UNK0	0.000	
3	   C	-1.379	-2.999	2.563	C.2	1	UNK0	0.000	
4	   C	-1.644	-3.541	1.336	C.2	1	UNK0	0.000	
5	   C	-0.739	-3.318	0.324	C.2	1	UNK0	0.000	
6	   C	0.422	-2.579	0.463	C.2	1	UNK0	0.000	
7	   C	0.641	-2.032	1.781	C.2	1	UNK0	0.000	
8	   C	1.382	-2.299	-0.468	C.2	1	UNK0	0.000	
9	   N	1.904	-2.641	-1.661	N.2	1	UNK0	0.000	
10	   N	3.030	-1.510	-1.658	N.pl3	1	UNK0	0.000	
11	   C	2.282	-0.335	-2.046	C.2	1	UNK0	0.000	
12	   O	1.198	-0.452	-2.616	O.2	1	UNK0	0.000	
13	   C	2.755	0.983	-1.686	C.2	1	UNK0	0.000	
14	   N	3.901	1.518	-1.451	N.2	1	UNK0	0.000	
15	   N	3.752	2.591	-0.693	N.2	1	UNK0	0.000	
16	   N	2.462	2.756	-0.438	N.pl3	1	UNK0	0.000	
17	   C	1.721	1.822	-1.017	C.2	1	UNK0	0.000	
18	   C	0.339	1.441	-0.964	C.3	1	UNK0	0.000	
19	   N	-0.654	2.380	-1.490	N.3	1	UNK0	0.000	
20	   C	-1.826	2.444	-0.679	C.3	1	UNK0	0.000	
21	   C	-2.666	1.199	-0.684	C.3	1	UNK0	0.000	
22	   O	-3.339	1.099	-1.890	O.3	1	UNK0	0.000	
23	   C	-2.662	1.802	-2.893	C.3	1	UNK0	0.000	
24	   C	-1.190	1.639	-2.713	C.3	1	UNK0	0.000	
25	   C	2.041	3.570	0.684	C.2	1	UNK0	0.000	
26	   N	1.922	4.817	0.876	N.2	1	UNK0	0.000	
27	   O	1.539	5.107	2.120	O.3	1	UNK0	0.000	
28	   N	1.412	3.984	2.729	N.2	1	UNK0	0.000	
29	   C	1.701	2.957	1.929	C.2	1	UNK0	0.000	
30	   N	1.696	1.586	2.235	N.pl3	1	UNK0	0.000	
31	   O	-2.802	-4.291	1.098	O.3	1	UNK0	0.000	
32	   C	-3.053	-4.772	-0.238	C.3	1	UNK0	0.000	
33	   O	-2.260	-3.197	3.630	O.3	1	UNK0	0.000	
34	   H	-0.967	-3.750	-0.667	 H	1	UNK0	0.000	
35	   H	1.536	-1.424	1.941	 H	1	UNK0	0.000	
36	   H	2.081	-1.392	-0.131	 H	1	UNK0	0.000	
37	   H	3.862	-1.845	-1.407	 H	1	UNK0	0.000	
38	   H	0.036	0.412	-1.181	 H	1	UNK0	0.000	
39	   H	0.030	1.473	0.183	 H	1	UNK0	0.000	
40	   H	-1.530	2.684	0.350	 H	1	UNK0	0.000	
41	   H	-2.511	3.283	-1.040	 H	1	UNK0	0.000	
42	   H	-2.136	0.296	-0.381	 H	1	UNK0	0.000	
43	   H	-3.480	1.354	0.084	 H	1	UNK0	0.000	
44	   H	-3.017	2.789	-3.120	 H	1	UNK0	0.000	
45	   H	-2.903	1.191	-3.840	 H	1	UNK0	0.000	
46	   H	-0.656	1.926	-3.608	 H	1	UNK0	0.000	
47	   H	-1.085	0.545	-2.439	 H	1	UNK0	0.000	
48	   H	2.561	1.020	2.299	 H	1	UNK0	0.000	
49	   H	0.786	1.049	2.435	 H	1	UNK0	0.000	
50	   H	-3.967	-5.376	-0.286	 H	1	UNK0	0.000	
51	   H	-3.151	-3.842	-0.904	 H	1	UNK0	0.000	
52	   H	-2.180	-5.334	-0.559	 H	1	UNK0	0.000	
53	   H	-1.998	-2.804	4.559	 H	1	UNK0	0.000	
@<TRIPOS>BOND
1 1 2 1
2 2 3 2
3 2 7 1
4 3 4 1
5 3 33 1
6 4 5 2
7 4 31 1
8 5 6 1
9 6 7 2
10 6 8 1
11 8 9 2
12 9 10 1
13 10 11 1
14 11 12 2
15 11 13 1
16 13 14 1
17 13 17 2
18 14 15 2
19 15 16 1
20 16 17 1
21 16 25 1
22 17 18 1
23 18 19 1
24 19 20 1
25 19 24 1
26 20 21 1
27 21 22 1
28 22 23 1
29 23 24 1
30 25 26 2
31 25 29 1
32 26 27 1
33 27 28 1
34 28 29 2
35 29 30 1
36 31 32 1
37 5 34 1
38 7 35 1
39 8 36 1
40 10 37 1
41 18 38 1
42 18 39 1
43 20 40 1
44 20 41 1
45 21 42 1
46 21 43 1
47 23 44 1
48 23 45 1
49 24 46 1
50 24 47 1
51 30 48 1
52 30 49 1
53 32 50 1
54 32 51 1
55 32 52 1
56 33 53 1
@<TRIPOS>SUBSTRUCTURE
1	UNK0	1	GROUP	1 ****	UNK
# created with PyMOL 2.3.2
@<TRIPOS>MOLECULE
20
58 61 1                 
SMALL
USER_CHARGES
@<TRIPOS>ATOM
1	  Br	-4.806	0.550	4.254	Br	1	UNK0	0.000	
2	   C	-3.709	1.221	2.830	C.2	1	UNK0	0.000	
3	   C	-4.002	0.882	1.538	C.2	1	UNK0	0.000	
4	   C	-3.194	1.357	0.507	C.2	1	UNK0	0.000	
5	   C	-2.101	2.163	0.793	C.2	1	UNK0	0.000	
6	   C	-1.793	2.500	2.079	C.2	1	UNK0	0.000	
7	   C	-2.613	2.019	3.075	C.2	1	UNK0	0.000	
8	   C	-0.539	3.156	2.503	C.2	1	UNK0	0.000	
9	   N	0.450	3.328	1.920	N.2	1	UNK0	0.000	
10	   N	1.574	3.532	1.281	N.pl3	1	UNK0	0.000	
11	   C	1.885	2.368	0.419	C.2	1	UNK0	0.000	
12	   N	1.897	2.401	-0.900	N.2	1	UNK0	0.000	
13	   C	1.992	1.253	-1.630	C.2	1	UNK0	0.000	
14	   N	2.069	0.105	-0.916	N.2	1	UNK0	0.000	
15	   C	2.063	0.010	0.427	C.2	1	UNK0	0.000	
16	   N	1.971	1.186	1.088	N.2	1	UNK0	0.000	
17	   N	1.994	-1.206	1.084	N.pl3	1	UNK0	0.000	
18	   C	2.939	-1.842	1.918	C.3	1	UNK0	0.000	
19	   C	3.315	-3.157	1.229	C.3	1	UNK0	0.000	
20	   O	2.151	-3.858	1.004	O.3	1	UNK0	0.000	
21	   C	1.235	-3.244	0.181	C.3	1	UNK0	0.000	
22	   C	0.718	-1.956	0.884	C.3	1	UNK0	0.000	
23	   N	1.921	1.238	-3.043	N.pl3	1	UNK0	0.000	
24	   C	1.556	2.468	-3.764	C.3	1	UNK0	0.000	
25	   C	0.493	2.020	-4.800	C.3	1	UNK0	0.000	
26	   O	1.184	1.237	-5.680	O.3	1	UNK0	0.000	
27	   C	1.585	0.038	-5.161	C.3	1	UNK0	0.000	
28	   C	2.158	0.058	-3.782	C.3	1	UNK0	0.000	
29	   O	-3.562	0.978	-0.746	O.3	1	UNK0	0.000	
30	   C	-3.007	1.310	-1.969	C.3	1	UNK0	0.000	
31	   C	-3.677	0.598	-3.135	C.3	1	UNK0	0.000	
32	   O	-5.095	0.075	1.304	O.3	1	UNK0	0.000	
33	   H	-1.483	2.557	0.012	 H	1	UNK0	0.000	
34	   H	-2.440	2.277	4.100	 H	1	UNK0	0.000	
35	   H	-0.532	3.551	3.547	 H	1	UNK0	0.000	
36	   H	2.235	4.283	1.243	 H	1	UNK0	0.000	
37	   H	3.836	-1.292	2.198	 H	1	UNK0	0.000	
38	   H	2.362	-2.150	2.859	 H	1	UNK0	0.000	
39	   H	3.893	-3.757	1.976	 H	1	UNK0	0.000	
40	   H	3.894	-2.924	0.332	 H	1	UNK0	0.000	
41	   H	0.367	-3.871	0.052	 H	1	UNK0	0.000	
42	   H	1.623	-2.987	-0.832	 H	1	UNK0	0.000	
43	   H	0.070	-1.423	0.227	 H	1	UNK0	0.000	
44	   H	0.342	-2.200	1.868	 H	1	UNK0	0.000	
45	   H	1.056	3.185	-3.111	 H	1	UNK0	0.000	
46	   H	2.406	2.931	-4.227	 H	1	UNK0	0.000	
47	   H	0.083	2.902	-5.270	 H	1	UNK0	0.000	
48	   H	-0.273	1.456	-4.207	 H	1	UNK0	0.000	
49	   H	2.375	-0.390	-5.852	 H	1	UNK0	0.000	
50	   H	0.751	-0.690	-5.222	 H	1	UNK0	0.000	
51	   H	3.255	-0.166	-3.803	 H	1	UNK0	0.000	
52	   H	1.660	-0.783	-3.201	 H	1	UNK0	0.000	
53	   H	-3.205	2.426	-2.109	 H	1	UNK0	0.000	
54	   H	-1.940	1.129	-2.020	 H	1	UNK0	0.000	
55	   H	-4.357	-0.196	-2.815	 H	1	UNK0	0.000	
56	   H	-2.880	0.188	-3.807	 H	1	UNK0	0.000	
57	   H	-4.251	1.340	-3.743	 H	1	UNK0	0.000	
58	   H	-5.678	-0.294	2.016	 H	1	UNK0	0.000	
@<TRIPOS>BOND
1 1 2 1
2 2 3 2
3 2 7 1
4 3 4 1
5 3 32 1
6 4 5 2
7 4 29 1
8 5 6 1
9 6 7 2
10 6 8 1
11 8 9 2
12 9 10 1
13 10 11 1
14 11 12 2
15 11 16 1
16 12 13 1
17 13 14 2
18 13 23 1
19 14 15 1
20 15 16 2
21 15 17 1
22 17 18 1
23 17 22 1
24 18 19 1
25 19 20 1
26 20 21 1
27 21 22 1
28 23 24 1
29 23 28 1
30 24 25 1
31 25 26 1
32 26 27 1
33 27 28 1
34 29 30 1
35 30 31 1
36 5 33 1
37 7 34 1
38 8 35 1
39 10 36 1
40 18 37 1
41 18 38 1
42 19 39 1
43 19 40 1
44 21 41 1
45 21 42 1
46 22 43 1
47 22 44 1
48 24 45 1
49 24 46 1
50 25 47 1
51 25 48 1
52 27 49 1
53 27 50 1
54 28 51 1
55 28 52 1
56 30 53 1
57 30 54 1
58 31 55 1
59 31 56 1
60 31 57 1
61 32 58 1
@<TRIPOS>SUBSTRUCTURE
1	UNK0	1	GROUP	1 ****	UNK
# created with PyMOL 2.3.2
@<TRIPOS>MOLECULE
23
64 67 1                 
SMALL
USER_CHARGES
@<TRIPOS>ATOM
1	  Br	-4.817	1.464	-3.964	Br	1	UNK0	0.000	
2	   C	-3.291	1.744	-2.874	C.2	1	UNK0	0.000	
3	   C	-3.153	2.968	-2.204	C.2	1	UNK0	0.000	
4	   C	-2.035	3.174	-1.406	C.2	1	UNK0	0.000	
5	   C	-1.117	2.183	-1.304	C.2	1	UNK0	0.000	
6	   C	-1.255	0.974	-1.967	C.2	1	UNK0	0.000	
7	   C	-2.349	0.741	-2.763	C.2	1	UNK0	0.000	
8	   C	-0.163	-0.014	-1.766	C.3	1	UNK0	0.000	
9	   N	1.089	0.693	-1.935	N.pl3	1	UNK0	0.000	
10	   C	1.735	0.896	-0.711	C.2	1	UNK0	0.000	
11	   O	2.755	1.576	-0.524	O.2	1	UNK0	0.000	
12	   C	0.988	0.162	0.311	C.2	1	UNK0	0.000	
13	   O	1.324	0.155	1.523	O.2	1	UNK0	0.000	
14	   C	-0.128	-0.494	-0.336	C.2	1	UNK0	0.000	
15	   C	-0.965	-1.309	0.247	C.2	1	UNK0	0.000	
16	   O	-2.034	-1.822	-0.470	O.2	1	UNK0	0.000	
17	   C	-0.813	-1.707	1.625	C.2	1	UNK0	0.000	
18	   C	-1.940	-1.485	2.427	C.2	1	UNK0	0.000	
19	   C	-1.951	-1.848	3.751	C.2	1	UNK0	0.000	
20	   C	-0.844	-2.439	4.314	C.2	1	UNK0	0.000	
21	   C	0.256	-2.647	3.503	C.2	1	UNK0	0.000	
22	   C	0.285	-2.291	2.172	C.2	1	UNK0	0.000	
23	   O	-1.130	-2.702	5.670	O.3	1	UNK0	0.000	
24	   C	-2.263	-1.927	6.049	C.3	1	UNK0	0.000	
25	   C	-3.037	-1.694	4.772	C.3	1	UNK0	0.000	
26	   C	-1.866	-0.570	6.599	C.3	1	UNK0	0.000	
27	   C	1.546	1.112	-3.244	C.3	1	UNK0	0.000	
28	   C	2.388	0.161	-3.984	C.3	1	UNK0	0.000	
29	   C	3.682	-0.243	-3.381	C.3	1	UNK0	0.000	
30	   N	4.601	0.847	-3.163	N.4	1	UNK0	0.000	
31	   C	5.395	1.053	-4.383	C.3	1	UNK0	0.000	
32	   C	5.523	0.430	-2.122	C.3	1	UNK0	0.000	
33	   O	-1.893	4.392	-0.736	O.3	1	UNK0	0.000	
34	   C	-0.801	4.692	0.090	C.3	1	UNK0	0.000	
35	   O	-4.091	3.963	-2.316	O.3	1	UNK0	0.000	
36	   H	-0.245	2.379	-0.665	 H	1	UNK0	0.000	
37	   H	-2.439	-0.213	-3.272	 H	1	UNK0	0.000	
38	   H	-0.228	-0.864	-2.474	 H	1	UNK0	0.000	
39	   H	-2.846	-1.015	2.007	 H	1	UNK0	0.000	
40	   H	1.155	-3.118	3.927	 H	1	UNK0	0.000	
41	   H	1.142	-2.478	1.537	 H	1	UNK0	0.000	
42	   H	-2.921	-2.439	6.765	 H	1	UNK0	0.000	
43	   H	-3.474	-0.652	4.734	 H	1	UNK0	0.000	
44	   H	-3.871	-2.385	4.621	 H	1	UNK0	0.000	
45	   H	-0.822	-0.337	6.277	 H	1	UNK0	0.000	
46	   H	-1.992	-0.530	7.703	 H	1	UNK0	0.000	
47	   H	-2.515	0.202	6.167	 H	1	UNK0	0.000	
48	   H	0.650	1.353	-3.851	 H	1	UNK0	0.000	
49	   H	2.063	2.117	-3.150	 H	1	UNK0	0.000	
50	   H	2.624	0.616	-4.990	 H	1	UNK0	0.000	
51	   H	1.818	-0.754	-4.230	 H	1	UNK0	0.000	
52	   H	3.615	-0.827	-2.454	 H	1	UNK0	0.000	
53	   H	4.188	-0.922	-4.122	 H	1	UNK0	0.000	
54	   H	4.172	1.726	-2.861	 H	1	UNK0	0.000	
55	   H	4.764	1.505	-5.194	 H	1	UNK0	0.000	
56	   H	6.241	1.746	-4.206	 H	1	UNK0	0.000	
57	   H	5.801	0.063	-4.706	 H	1	UNK0	0.000	
58	   H	5.574	1.162	-1.295	 H	1	UNK0	0.000	
59	   H	6.536	0.233	-2.537	 H	1	UNK0	0.000	
60	   H	5.200	-0.542	-1.653	 H	1	UNK0	0.000	
61	   H	-0.653	3.928	0.896	 H	1	UNK0	0.000	
62	   H	0.110	4.753	-0.574	 H	1	UNK0	0.000	
63	   H	-0.959	5.680	0.535	 H	1	UNK0	0.000	
64	   H	-3.974	4.821	-1.836	 H	1	UNK0	0.000	
@<TRIPOS>BOND
1 1 2 1
2 2 3 2
3 2 7 1
4 3 4 1
5 3 35 1
6 4 5 2
7 4 33 1
8 5 6 1
9 6 7 2
10 6 8 1
11 8 9 1
12 8 14 1
13 9 10 1
14 9 27 1
15 10 11 2
16 10 12 1
17 12 13 2
18 12 14 1
19 14 15 2
20 15 16 1
21 15 17 1
22 17 18 2
23 17 22 1
24 18 19 1
25 19 20 2
26 19 25 1
27 20 21 1
28 20 23 1
29 21 22 2
30 23 24 1
31 24 25 1
32 24 26 1
33 27 28 1
34 28 29 1
35 29 30 1
36 30 31 1
37 30 32 1
38 33 34 1
39 5 36 1
40 7 37 1
41 8 38 1
42 18 39 1
43 21 40 1
44 22 41 1
45 24 42 1
46 25 43 1
47 25 44 1
48 26 45 1
49 26 46 1
50 26 47 1
51 27 48 1
52 27 49 1
53 28 50 1
54 28 51 1
55 29 52 1
56 29 53 1
57 30 54 1
58 31 55 1
59 31 56 1
60 31 57 1
61 32 58 1
62 32 59 1
63 32 60 1
64 34 61 1
65 34 62 1
66 34 63 1
67 35 64 1
@<TRIPOS>SUBSTRUCTURE
1	UNK0	1	GROUP	1 ****	UNK
# created with PyMOL 2.3.2
@<TRIPOS>MOLECULE
26
39 42 1                 
SMALL
USER_CHARGES
@<TRIPOS>ATOM
1	  Br	5.024	-0.749	0.222	Br	1	UNK0	0.000	
2	   C	3.325	-1.262	0.903	C.2	1	UNK0	0.000	
3	   C	3.210	-1.707	2.198	C.2	1	UNK0	0.000	
4	   C	1.965	-2.072	2.665	C.2	1	UNK0	0.000	
5	   C	0.816	-2.019	1.906	C.2	1	UNK0	0.000	
6	   C	0.939	-1.571	0.608	C.2	1	UNK0	0.000	
7	   C	2.171	-1.200	0.116	C.2	1	UNK0	0.000	
8	   C	-0.229	-1.463	-0.311	C.3	1	UNK0	0.000	
9	   N	0.100	-2.035	-1.550	N.4	1	UNK0	0.000	
10	   C	-0.260	-1.370	-2.744	C.3	1	UNK0	0.000	
11	   C	-1.366	-0.358	-2.613	C.3	1	UNK0	0.000	
12	   C	-1.187	0.510	-1.425	C.2	1	UNK0	0.000	
13	   C	-1.477	1.827	-1.191	C.2	1	UNK0	0.000	
14	   C	-1.074	2.056	0.113	C.2	1	UNK0	0.000	
15	   N	-0.563	0.906	0.628	N.pl3	1	UNK0	0.000	
16	   C	-0.631	-0.045	-0.313	C.2	1	UNK0	0.000	
17	   C	-1.259	3.330	0.606	C.2	1	UNK0	0.000	
18	   C	-1.818	4.330	-0.161	C.2	1	UNK0	0.000	
19	   C	-2.219	4.100	-1.461	C.2	1	UNK0	0.000	
20	   C	-2.041	2.825	-1.972	C.2	1	UNK0	0.000	
21	   C	0.891	-0.682	-3.391	C.2	1	UNK0	0.000	
22	   O	1.758	-1.375	-4.025	O.co2	1	UNK0	0.000	
23	   O	1.010	0.695	-3.296	O.co2	1	UNK0	0.000	
24	  Br	1.830	-2.687	4.464	Br	1	UNK0	0.000	
25	   O	4.338	-1.791	3.039	O.3	1	UNK0	0.000	
26	   H	-0.158	-2.295	2.242	 H	1	UNK0	0.000	
27	   H	2.346	-0.836	-0.892	 H	1	UNK0	0.000	
28	   H	-1.062	-2.024	0.196	 H	1	UNK0	0.000	
29	   H	1.130	-2.280	-1.610	 H	1	UNK0	0.000	
30	   H	-0.345	-3.008	-1.584	 H	1	UNK0	0.000	
31	   H	-0.623	-2.103	-3.528	 H	1	UNK0	0.000	
32	   H	-2.375	-0.814	-2.550	 H	1	UNK0	0.000	
33	   H	-1.362	0.298	-3.508	 H	1	UNK0	0.000	
34	   H	-0.202	0.868	1.606	 H	1	UNK0	0.000	
35	   H	-0.955	3.536	1.618	 H	1	UNK0	0.000	
36	   H	-1.964	5.346	0.239	 H	1	UNK0	0.000	
37	   H	-2.654	4.909	-2.032	 H	1	UNK0	0.000	
38	   H	-2.346	2.618	-2.989	 H	1	UNK0	0.000	
39	   H	5.231	-1.514	2.656	 H	1	UNK0	0.000	
@<TRIPOS>BOND
1 1 2 1
2 2 3 2
3 2 7 1
4 3 4 1
5 3 25 1
6 4 5 2
7 4 24 1
8 5 6 1
9 6 7 2
10 6 8 1
11 8 9 1
12 8 16 1
13 9 10 1
14 10 11 1
15 10 21 1
16 11 12 1
17 12 13 1
18 12 16 2
19 13 14 2
20 13 20 1
21 14 15 1
22 14 17 1
23 15 16 1
24 17 18 2
25 18 19 1
26 19 20 2
27 21 22 2
28 21 23 1
29 5 26 1
30 7 27 1
31 8 28 1
32 9 29 1
33 9 30 1
34 10 31 1
35 11 32 1
36 11 33 1
37 15 34 1
38 17 35 1
39 18 36 1
40 19 37 1
41 20 38 1
42 25 39 1
@<TRIPOS>SUBSTRUCTURE
1	UNK0	1	GROUP	1 ****	UNK
# created with PyMOL 2.3.2
@<TRIPOS>MOLECULE
31
47 50 1                 
SMALL
USER_CHARGES
@<TRIPOS>ATOM
1	  Br	2.578	-3.921	-0.763	Br	1	UNK0	0.000	
2	   C	2.346	-2.022	-0.935	C.2	1	UNK0	0.000	
3	   C	1.118	-1.472	-1.037	C.2	1	UNK0	0.000	
4	   C	0.962	-0.068	-1.228	C.2	1	UNK0	0.000	
5	   C	2.083	0.683	-1.311	C.2	1	UNK0	0.000	
6	   C	3.331	0.099	-1.216	C.2	1	UNK0	0.000	
7	   C	3.478	-1.241	-1.027	C.2	1	UNK0	0.000	
8	   C	-0.380	0.304	-1.717	C.3	1	UNK0	0.000	
9	   N	-1.177	1.242	-1.039	N.4	1	UNK0	0.000	
10	   C	-0.930	2.594	-1.097	C.3	1	UNK0	0.000	
11	   N	-1.968	3.374	-0.427	N.3	1	UNK0	0.000	
12	   C	-2.024	2.930	0.956	C.3	1	UNK0	0.000	
13	   N	-2.247	1.503	1.063	N.3	1	UNK0	0.000	
14	   C	-1.298	0.727	0.368	C.3	1	UNK0	0.000	
15	   C	-3.579	1.220	0.570	C.3	1	UNK0	0.000	
16	   C	-3.609	1.692	-0.862	C.3	1	UNK0	0.000	
17	   C	-2.546	0.965	-1.599	C.3	1	UNK0	0.000	
18	   C	-3.283	3.178	-0.986	C.3	1	UNK0	0.000	
19	   O	0.003	-2.228	-0.962	O.3	1	UNK0	0.000	
20	   C	-0.368	-2.997	0.200	C.3	1	UNK0	0.000	
21	   C	-0.101	-2.405	1.508	C.2	1	UNK0	0.000	
22	   O	-0.944	-2.170	2.362	O.co2	1	UNK0	0.000	
23	   O	1.232	-2.115	1.820	O.3	1	UNK0	0.000	
24	   C	1.632	-1.586	3.056	C.3	1	UNK0	0.000	
25	   H	2.008	1.752	-1.502	 H	1	UNK0	0.000	
26	   H	4.224	0.757	-1.308	 H	1	UNK0	0.000	
27	   H	4.451	-1.690	-0.908	 H	1	UNK0	0.000	
28	   H	-0.890	-0.448	-2.327	 H	1	UNK0	0.000	
29	   H	-0.076	1.043	-2.694	 H	1	UNK0	0.000	
30	   H	-0.744	2.943	-2.116	 H	1	UNK0	0.000	
31	   H	0.004	2.806	-0.513	 H	1	UNK0	0.000	
32	   H	-2.918	3.407	1.416	 H	1	UNK0	0.000	
33	   H	-1.145	3.265	1.526	 H	1	UNK0	0.000	
34	   H	-0.325	0.745	0.872	 H	1	UNK0	0.000	
35	   H	-1.690	-0.318	0.245	 H	1	UNK0	0.000	
36	   H	-3.684	0.102	0.526	 H	1	UNK0	0.000	
37	   H	-4.365	1.701	1.147	 H	1	UNK0	0.000	
38	   H	-4.571	1.456	-1.371	 H	1	UNK0	0.000	
39	   H	-2.648	-0.143	-1.590	 H	1	UNK0	0.000	
40	   H	-2.449	1.311	-2.668	 H	1	UNK0	0.000	
41	   H	-4.013	3.713	-0.377	 H	1	UNK0	0.000	
42	   H	-3.310	3.406	-2.060	 H	1	UNK0	0.000	
43	   H	0.049	-4.045	0.068	 H	1	UNK0	0.000	
44	   H	-1.495	-3.153	0.150	 H	1	UNK0	0.000	
45	   H	2.723	-1.726	3.209	 H	1	UNK0	0.000	
46	   H	1.037	-2.067	3.864	 H	1	UNK0	0.000	
47	   H	1.391	-0.487	3.004	 H	1	UNK0	0.000	
@<TRIPOS>BOND
1 1 2 1
2 2 3 2
3 2 7 1
4 3 4 1
5 3 19 1
6 4 5 2
7 4 8 1
8 5 6 1
9 6 7 2
10 8 9 1
11 9 10 1
12 9 14 1
13 9 17 1
14 10 11 1
15 11 12 1
16 11 18 1
17 12 13 1
18 13 14 1
19 13 15 1
20 15 16 1
21 16 17 1
22 16 18 1
23 19 20 1
24 20 21 1
25 21 22 2
26 21 23 1
27 23 24 1
28 5 25 1
29 6 26 1
30 7 27 1
31 8 28 1
32 8 29 1
33 10 30 1
34 10 31 1
35 12 32 1
36 12 33 1
37 14 34 1
38 14 35 1
39 15 36 1
40 15 37 1
41 16 38 1
42 17 39 1
43 17 40 1
44 18 41 1
45 18 42 1
46 20 43 1
47 20 44 1
48 24 45 1
49 24 46 1
50 24 47 1
@<TRIPOS>SUBSTRUCTURE
1	UNK0	1	GROUP	1 ****	UNK
# created with PyMOL 2.3.2
@<TRIPOS>MOLECULE
33
52 55 1                 
SMALL
USER_CHARGES
@<TRIPOS>ATOM
1	  Br	-1.621	6.228	-4.470	Br	1	UNK0	0.000	
2	   C	-0.502	4.724	-4.153	C.2	1	UNK0	0.000	
3	   C	0.798	4.763	-4.632	C.2	1	UNK0	0.000	
4	   C	1.590	3.656	-4.394	C.2	1	UNK0	0.000	
5	   C	1.105	2.569	-3.714	C.2	1	UNK0	0.000	
6	   C	-0.198	2.508	-3.221	C.2	1	UNK0	0.000	
7	   C	-0.973	3.620	-3.468	C.2	1	UNK0	0.000	
8	   C	-0.641	1.338	-2.491	C.2	1	UNK0	0.000	
9	   N	-1.838	1.234	-2.025	N.2	1	UNK0	0.000	
10	   N	-2.305	0.138	-1.319	N.pl3	1	UNK0	0.000	
11	   C	-1.484	-0.499	-0.348	C.2	1	UNK0	0.000	
12	   N	-0.952	-1.685	-0.597	N.2	1	UNK0	0.000	
13	   C	-0.142	-2.345	0.249	C.2	1	UNK0	0.000	
14	   N	0.131	-1.737	1.424	N.2	1	UNK0	0.000	
15	   C	-0.386	-0.519	1.738	C.2	1	UNK0	0.000	
16	   N	-1.196	0.086	0.834	N.2	1	UNK0	0.000	
17	   N	-0.080	0.111	2.961	N.pl3	1	UNK0	0.000	
18	   C	0.801	-0.503	3.921	C.3	1	UNK0	0.000	
19	   C	1.868	0.558	4.228	C.3	1	UNK0	0.000	
20	   O	1.241	1.731	4.596	O.3	1	UNK0	0.000	
21	   C	0.600	2.307	3.500	C.3	1	UNK0	0.000	
22	   C	-0.632	1.407	3.264	C.3	1	UNK0	0.000	
23	   N	0.416	-3.631	-0.068	N.pl3	1	UNK0	0.000	
24	   C	1.357	-4.273	0.805	C.3	1	UNK0	0.000	
25	   C	1.672	-5.689	0.517	C.3	1	UNK0	0.000	
26	   O	1.311	-6.114	-0.754	O.3	1	UNK0	0.000	
27	   C	0.008	-5.758	-1.074	C.3	1	UNK0	0.000	
28	   C	0.006	-4.264	-1.287	C.3	1	UNK0	0.000	
29	   O	1.912	1.451	-3.478	O.3	1	UNK0	0.000	
30	   O	1.301	5.862	-5.325	O.3	1	UNK0	0.000	
31	   H	2.613	3.704	-4.781	 H	1	UNK0	0.000	
32	   H	-2.005	3.586	-3.087	 H	1	UNK0	0.000	
33	   H	0.044	0.522	-2.327	 H	1	UNK0	0.000	
34	   H	-3.250	-0.223	-1.495	 H	1	UNK0	0.000	
35	   H	0.242	-0.736	4.850	 H	1	UNK0	0.000	
36	   H	1.297	-1.414	3.500	 H	1	UNK0	0.000	
37	   H	2.525	0.155	5.019	 H	1	UNK0	0.000	
38	   H	2.449	0.687	3.281	 H	1	UNK0	0.000	
39	   H	1.260	2.142	2.597	 H	1	UNK0	0.000	
40	   H	0.337	3.350	3.656	 H	1	UNK0	0.000	
41	   H	-1.123	1.326	4.277	 H	1	UNK0	0.000	
42	   H	-1.299	1.812	2.497	 H	1	UNK0	0.000	
43	   H	2.286	-3.638	0.798	 H	1	UNK0	0.000	
44	   H	0.919	-4.214	1.849	 H	1	UNK0	0.000	
45	   H	1.218	-6.363	1.288	 H	1	UNK0	0.000	
46	   H	2.780	-5.831	0.602	 H	1	UNK0	0.000	
47	   H	-0.289	-6.327	-1.959	 H	1	UNK0	0.000	
48	   H	-0.707	-5.941	-0.228	 H	1	UNK0	0.000	
49	   H	-1.054	-4.009	-1.552	 H	1	UNK0	0.000	
50	   H	0.636	-3.961	-2.150	 H	1	UNK0	0.000	
51	   H	2.866	1.465	-3.826	 H	1	UNK0	0.000	
52	   H	0.766	6.695	-5.519	 H	1	UNK0	0.000	
@<TRIPOS>BOND
1 1 2 1
2 2 3 2
3 2 7 1
4 3 4 1
5 3 30 1
6 4 5 2
7 5 6 1
8 5 29 1
9 6 7 2
10 6 8 1
11 8 9 2
12 9 10 1
13 10 11 1
14 11 12 2
15 11 16 1
16 12 13 1
17 13 14 2
18 13 23 1
19 14 15 1
20 15 16 2
21 15 17 1
22 17 18 1
23 17 22 1
24 18 19 1
25 19 20 1
26 20 21 1
27 21 22 1
28 23 24 1
29 23 28 1
30 24 25 1
31 25 26 1
32 26 27 1
33 27 28 1
34 4 31 1
35 7 32 1
36 8 33 1
37 10 34 1
38 18 35 1
39 18 36 1
40 19 37 1
41 19 38 1
42 21 39 1
43 21 40 1
44 22 41 1
45 22 42 1
46 24 43 1
47 24 44 1
48 25 45 1
49 25 46 1
50 27 47 1
51 27 48 1
52 28 49 1
53 28 50 1
54 29 51 1
55 30 52 1
@<TRIPOS>SUBSTRUCTURE
1	UNK0	1	GROUP	1 ****	UNK
# created with PyMOL 2.3.2
@<TRIPOS>MOLECULE
35
52 55 1                 
SMALL
USER_CHARGES
@<TRIPOS>ATOM
1	  Br	2.177	3.304	3.459	Br	1	UNK0	0.000	
2	   C	1.099	2.003	4.342	C.2	1	UNK0	0.000	
3	   C	0.878	2.083	5.705	C.2	1	UNK0	0.000	
4	   C	0.090	1.124	6.323	C.2	1	UNK0	0.000	
5	   C	-0.458	0.107	5.574	C.2	1	UNK0	0.000	
6	   C	-0.213	0.061	4.210	C.2	1	UNK0	0.000	
7	   C	0.563	0.998	3.572	C.2	1	UNK0	0.000	
8	   C	0.797	0.906	2.152	C.2	1	UNK0	0.000	
9	   N	1.514	1.738	1.471	N.2	1	UNK0	0.000	
10	   N	1.688	1.564	0.070	N.pl3	1	UNK0	0.000	
11	   C	1.111	0.480	-0.623	C.2	1	UNK0	0.000	
12	   N	-0.071	0.641	-1.225	N.2	1	UNK0	0.000	
13	   C	-0.683	-0.367	-1.902	C.2	1	UNK0	0.000	
14	   N	-0.077	-1.563	-1.967	N.2	1	UNK0	0.000	
15	   C	1.110	-1.757	-1.373	C.2	1	UNK0	0.000	
16	   N	1.694	-0.720	-0.702	N.2	1	UNK0	0.000	
17	   N	1.762	-3.025	-1.439	N.pl3	1	UNK0	0.000	
18	   C	1.263	-4.139	-2.209	C.3	1	UNK0	0.000	
19	   C	1.316	-5.418	-1.401	C.3	1	UNK0	0.000	
20	   O	1.805	-5.217	-0.119	O.3	1	UNK0	0.000	
21	   C	3.090	-4.647	-0.205	C.3	1	UNK0	0.000	
22	   C	2.989	-3.215	-0.692	C.3	1	UNK0	0.000	
23	   N	-1.927	-0.089	-2.504	N.pl3	1	UNK0	0.000	
24	   C	-2.428	1.259	-2.497	C.3	1	UNK0	0.000	
25	   C	-2.674	1.605	-3.974	C.3	1	UNK0	0.000	
26	   O	-3.651	0.708	-4.407	O.3	1	UNK0	0.000	
27	   C	-3.170	-0.595	-4.479	C.3	1	UNK0	0.000	
28	   C	-2.724	-1.117	-3.128	C.3	1	UNK0	0.000	
29	   O	-1.238	-0.831	6.232	O.3	1	UNK0	0.000	
30	   O	1.431	3.106	6.453	O.3	1	UNK0	0.000	
31	   H	-0.073	1.203	7.390	 H	1	UNK0	0.000	
32	   H	-0.674	-0.763	3.682	 H	1	UNK0	0.000	
33	   H	0.357	0.093	1.575	 H	1	UNK0	0.000	
34	   H	2.253	2.248	-0.475	 H	1	UNK0	0.000	
35	   H	1.971	-4.275	-3.078	 H	1	UNK0	0.000	
36	   H	0.237	-3.978	-2.594	 H	1	UNK0	0.000	
37	   H	1.977	-6.186	-1.880	 H	1	UNK0	0.000	
38	   H	0.285	-5.850	-1.284	 H	1	UNK0	0.000	
39	   H	3.516	-4.681	0.823	 H	1	UNK0	0.000	
40	   H	3.746	-5.249	-0.897	 H	1	UNK0	0.000	
41	   H	3.825	-2.991	-1.373	 H	1	UNK0	0.000	
42	   H	3.013	-2.529	0.204	 H	1	UNK0	0.000	
43	   H	-1.679	1.953	-2.060	 H	1	UNK0	0.000	
44	   H	-3.391	1.278	-1.936	 H	1	UNK0	0.000	
45	   H	-3.019	2.625	-4.122	 H	1	UNK0	0.000	
46	   H	-1.693	1.395	-4.483	 H	1	UNK0	0.000	
47	   H	-2.392	-0.731	-5.248	 H	1	UNK0	0.000	
48	   H	-4.044	-1.229	-4.768	 H	1	UNK0	0.000	
49	   H	-3.644	-1.265	-2.503	 H	1	UNK0	0.000	
50	   H	-2.172	-2.060	-3.273	 H	1	UNK0	0.000	
51	   H	-2.237	-0.749	6.363	 H	1	UNK0	0.000	
52	   H	2.001	3.793	5.977	 H	1	UNK0	0.000	
@<TRIPOS>BOND
1 1 2 1
2 2 3 2
3 2 7 1
4 3 4 1
5 3 30 1
6 4 5 2
7 5 6 1
8 5 29 1
9 6 7 2
10 7 8 1
11 8 9 2
12 9 10 1
13 10 11 1
14 11 12 2
15 11 16 1
16 12 13 1
17 13 14 2
18 13 23 1
19 14 15 1
20 15 16 2
21 15 17 1
22 17 18 1
23 17 22 1
24 18 19 1
25 19 20 1
26 20 21 1
27 21 22 1
28 23 24 1
29 23 28 1
30 24 25 1
31 25 26 1
32 26 27 1
33 27 28 1
34 4 31 1
35 6 32 1
36 8 33 1
37 10 34 1
38 18 35 1
39 18 36 1
40 19 37 1
41 19 38 1
42 21 39 1
43 21 40 1
44 22 41 1
45 22 42 1
46 24 43 1
47 24 44 1
48 25 45 1
49 25 46 1
50 27 47 1
51 27 48 1
52 28 49 1
53 28 50 1
54 29 51 1
55 30 52 1
@<TRIPOS>SUBSTRUCTURE
1	UNK0	1	GROUP	1 ****	UNK
# created with PyMOL 2.3.2
@<TRIPOS>MOLECULE
37
46 49 1                 
SMALL
USER_CHARGES
@<TRIPOS>ATOM
1	  Br	5.249	2.891	4.341	Br	1	UNK0	0.000	
2	   C	4.135	2.426	2.866	C.2	1	UNK0	0.000	
3	   C	2.896	1.852	3.125	C.2	1	UNK0	0.000	
4	   C	2.114	1.529	2.050	C.2	1	UNK0	0.000	
5	   C	2.463	1.729	0.732	C.2	1	UNK0	0.000	
6	   C	3.716	2.308	0.515	C.2	1	UNK0	0.000	
7	   C	4.542	2.652	1.567	C.2	1	UNK0	0.000	
8	   N	1.638	1.385	-0.373	N.pl3	1	UNK0	0.000	
9	   C	0.593	0.390	-0.321	C.3	1	UNK0	0.000	
10	   C	-0.408	0.939	-1.314	C.3	1	UNK0	0.000	
11	   C	0.503	1.325	-2.466	C.3	1	UNK0	0.000	
12	   C	1.643	1.890	-1.696	C.2	1	UNK0	0.000	
13	   O	2.478	2.694	-2.162	O.2	1	UNK0	0.000	
14	   C	-1.407	-0.073	-1.716	C.2	1	UNK0	0.000	
15	   O	-1.539	-0.417	-2.915	O.2	1	UNK0	0.000	
16	   N	-2.223	-0.659	-0.726	N.pl3	1	UNK0	0.000	
17	   C	-3.209	-1.653	-1.073	C.3	1	UNK0	0.000	
18	   C	-2.576	-2.838	-1.717	C.2	1	UNK0	0.000	
19	   N	-1.936	-3.870	-1.112	N.pl3	1	UNK0	0.000	
20	   C	-1.510	-4.739	-2.044	C.2	1	UNK0	0.000	
21	   N	-1.906	-4.213	-3.231	N.2	1	UNK0	0.000	
22	   N	-2.543	-3.076	-3.038	N.2	1	UNK0	0.000	
23	   C	-0.796	-5.895	-1.409	C.3	1	UNK0	0.000	
24	   C	-0.539	-5.381	-0.010	C.3	1	UNK0	0.000	
25	   C	-1.578	-4.305	0.226	C.3	1	UNK0	0.000	
26	   C	2.487	1.620	4.537	C.3	1	UNK0	0.000	
27	   H	1.139	1.078	2.271	 H	1	UNK0	0.000	
28	   H	4.092	2.511	-0.475	 H	1	UNK0	0.000	
29	   H	5.512	3.101	1.417	 H	1	UNK0	0.000	
30	   H	1.039	-0.573	-0.664	 H	1	UNK0	0.000	
31	   H	0.152	0.286	0.692	 H	1	UNK0	0.000	
32	   H	-0.846	1.846	-0.864	 H	1	UNK0	0.000	
33	   H	-0.035	2.109	-3.037	 H	1	UNK0	0.000	
34	   H	0.782	0.462	-3.071	 H	1	UNK0	0.000	
35	   H	-2.122	-0.380	0.266	 H	1	UNK0	0.000	
36	   H	-3.796	-1.991	-0.200	 H	1	UNK0	0.000	
37	   H	-3.959	-1.222	-1.792	 H	1	UNK0	0.000	
38	   H	-1.449	-6.779	-1.427	 H	1	UNK0	0.000	
39	   H	0.200	-6.060	-1.870	 H	1	UNK0	0.000	
40	   H	0.496	-4.995	0.112	 H	1	UNK0	0.000	
41	   H	-0.641	-6.234	0.682	 H	1	UNK0	0.000	
42	   H	-1.192	-3.466	0.827	 H	1	UNK0	0.000	
43	   H	-2.426	-4.765	0.773	 H	1	UNK0	0.000	
44	   H	1.528	1.070	4.562	 H	1	UNK0	0.000	
45	   H	3.286	1.115	5.113	 H	1	UNK0	0.000	
46	   H	2.260	2.636	4.955	 H	1	UNK0	0.000	
@<TRIPOS>BOND
1 1 2 1
2 2 3 2
3 2 7 1
4 3 4 1
5 3 26 1
6 4 5 2
7 5 6 1
8 5 8 1
9 6 7 2
10 8 9 1
11 8 12 1
12 9 10 1
13 10 11 1
14 10 14 1
15 11 12 1
16 12 13 2
17 14 15 2
18 14 16 1
19 16 17 1
20 17 18 1
21 18 19 1
22 18 22 2
23 19 20 1
24 19 25 1
25 20 21 2
26 20 23 1
27 21 22 1
28 23 24 1
29 24 25 1
30 4 27 1
31 6 28 1
32 7 29 1
33 9 30 1
34 9 31 1
35 10 32 1
36 11 33 1
37 11 34 1
38 16 35 1
39 17 36 1
40 17 37 1
41 23 38 1
42 23 39 1
43 24 40 1
44 24 41 1
45 25 42 1
46 25 43 1
47 26 44 1
48 26 45 1
49 26 46 1
@<TRIPOS>SUBSTRUCTURE
1	UNK0	1	GROUP	1 ****	UNK
# created with PyMOL 2.3.2
@<TRIPOS>MOLECULE
39
41 43 1                 
SMALL
USER_CHARGES
@<TRIPOS>ATOM
1	  Br	3.076	-3.016	-0.376	Br	1	UNK0	0.000	
2	   C	1.357	-3.372	0.407	C.2	1	UNK0	0.000	
3	   C	0.510	-2.265	0.562	C.2	1	UNK0	0.000	
4	   C	-0.716	-2.549	1.125	C.2	1	UNK0	0.000	
5	   C	-1.068	-3.846	1.506	C.2	1	UNK0	0.000	
6	   C	-0.221	-4.915	1.344	C.2	1	UNK0	0.000	
7	   C	1.004	-4.645	0.783	C.2	1	UNK0	0.000	
8	   C	-0.616	-6.296	1.757	C.3	1	UNK0	0.000	
9	   N	0.931	-0.978	0.155	N.pl3	1	UNK0	0.000	
10	   C	0.234	0.229	0.229	C.2	1	UNK0	0.000	
11	   O	-0.912	0.287	0.697	O.2	1	UNK0	0.000	
12	   C	0.883	1.460	-0.263	C.3	1	UNK0	0.000	
13	   N	0.114	2.657	-0.156	N.4	1	UNK0	0.000	
14	   C	1.008	3.786	-0.457	C.3	1	UNK0	0.000	
15	   C	0.140	4.928	-0.924	C.3	1	UNK0	0.000	
16	   N	-1.056	4.894	-0.083	N.3	1	UNK0	0.000	
17	   C	-1.912	3.864	-0.664	C.3	1	UNK0	0.000	
18	   C	-1.027	2.693	-1.067	C.3	1	UNK0	0.000	
19	   C	-0.690	4.433	1.247	C.3	1	UNK0	0.000	
20	   C	-0.399	2.925	1.172	C.3	1	UNK0	0.000	
21	   H	-1.431	-1.748	1.281	 H	1	UNK0	0.000	
22	   H	-2.042	-4.054	1.951	 H	1	UNK0	0.000	
23	   H	1.699	-5.468	0.641	 H	1	UNK0	0.000	
24	   H	0.277	-6.932	1.931	 H	1	UNK0	0.000	
25	   H	-1.244	-6.785	1.009	 H	1	UNK0	0.000	
26	   H	-1.109	-6.189	2.747	 H	1	UNK0	0.000	
27	   H	1.908	-0.925	-0.262	 H	1	UNK0	0.000	
28	   H	1.141	1.357	-1.361	 H	1	UNK0	0.000	
29	   H	1.851	1.660	0.262	 H	1	UNK0	0.000	
30	   H	1.556	4.004	0.477	 H	1	UNK0	0.000	
31	   H	1.748	3.478	-1.224	 H	1	UNK0	0.000	
32	   H	-0.107	4.754	-1.985	 H	1	UNK0	0.000	
33	   H	0.662	5.917	-0.784	 H	1	UNK0	0.000	
34	   H	-2.365	4.257	-1.597	 H	1	UNK0	0.000	
35	   H	-2.697	3.528	0.056	 H	1	UNK0	0.000	
36	   H	-1.617	1.789	-0.906	 H	1	UNK0	0.000	
37	   H	-0.627	2.790	-2.088	 H	1	UNK0	0.000	
38	   H	0.184	5.013	1.573	 H	1	UNK0	0.000	
39	   H	-1.539	4.625	1.938	 H	1	UNK0	0.000	
40	   H	-1.383	2.424	1.317	 H	1	UNK0	0.000	
41	   H	0.322	2.718	1.969	 H	1	UNK0	0.000	
@<TRIPOS>BOND
1 1 2 1
2 2 3 2
3 2 7 1
4 3 4 1
5 3 9 1
6 4 5 2
7 5 6 1
8 6 7 2
9 6 8 1
10 9 10 1
11 10 11 2
12 10 12 1
13 12 13 1
14 13 14 1
15 13 18 1
16 13 20 1
17 14 15 1
18 15 16 1
19 16 17 1
20 16 19 1
21 17 18 1
22 19 20 1
23 4 21 1
24 5 22 1
25 7 23 1
26 8 24 1
27 8 25 1
28 8 26 1
29 9 27 1
30 12 28 1
31 12 29 1
32 14 30 1
33 14 31 1
34 15 32 1
35 15 33 1
36 17 34 1
37 17 35 1
38 18 36 1
39 18 37 1
40 19 38 1
41 19 39 1
42 20 40 1
43 20 41 1
@<TRIPOS>SUBSTRUCTURE
1	UNK0	1	GROUP	1 ****	UNK
# created with PyMOL 2.3.2
@<TRIPOS>MOLECULE
56
33 36 1                 
SMALL
USER_CHARGES
@<TRIPOS>ATOM
1	  Br	2.590	2.303	-1.902	Br	1	UNK0	0.000	
2	   C	2.321	0.508	-1.311	C.2	1	UNK0	0.000	
3	   C	1.069	-0.048	-1.236	C.2	1	UNK0	0.000	
4	   C	0.913	-1.342	-0.799	C.2	1	UNK0	0.000	
5	   C	2.002	-2.118	-0.426	C.2	1	UNK0	0.000	
6	   C	3.265	-1.581	-0.493	C.2	1	UNK0	0.000	
7	   C	3.414	-0.263	-0.939	C.2	1	UNK0	0.000	
8	   C	-0.154	0.703	-1.621	C.3	1	UNK0	0.000	
9	   C	-1.383	0.132	-1.286	C.3	1	UNK0	0.000	
10	   C	-2.166	-0.141	-0.050	C.3	1	UNK0	0.000	
11	   N	-2.973	1.101	-0.151	N.2	1	UNK0	0.000	
12	   C	-2.187	2.053	-0.546	C.2	1	UNK0	0.000	
13	   C	-0.883	1.489	-0.702	C.3	1	UNK0	0.000	
14	   C	-0.244	1.459	0.648	C.1	1	UNK0	0.000	
15	   N	0.284	1.447	1.707	N.1	1	UNK0	0.000	
16	   N	-2.576	3.425	-0.780	N.pl3	1	UNK0	0.000	
17	   O	-2.993	-1.243	-0.294	O.3	1	UNK0	0.000	
18	   C	-2.806	-2.128	0.750	C.3	1	UNK0	0.000	
19	   C	-2.336	-1.214	1.869	C.3	1	UNK0	0.000	
20	   O	-1.532	-0.326	1.112	O.3	1	UNK0	0.000	
21	   C	-2.393	0.257	-2.397	C.1	1	UNK0	0.000	
22	   N	-3.171	0.368	-3.279	N.1	1	UNK0	0.000	
23	   H	-0.066	-1.839	-0.719	 H	1	UNK0	0.000	
24	   H	1.898	-3.131	-0.083	 H	1	UNK0	0.000	
25	   H	4.109	-2.161	-0.214	 H	1	UNK0	0.000	
26	   H	4.394	0.203	-1.010	 H	1	UNK0	0.000	
27	   H	0.016	1.169	-2.633	 H	1	UNK0	0.000	
28	   H	-3.287	3.890	-0.184	 H	1	UNK0	0.000	
29	   H	-2.150	3.972	-1.551	 H	1	UNK0	0.000	
30	   H	-1.987	-2.828	0.479	 H	1	UNK0	0.000	
31	   H	-3.737	-2.672	1.017	 H	1	UNK0	0.000	
32	   H	-3.201	-0.670	2.306	 H	1	UNK0	0.000	
33	   H	-1.751	-1.737	2.637	 H	1	UNK0	0.000	
@<TRIPOS>BOND
1 1 2 1
2 2 3 2
3 2 7 1
4 3 4 1
5 3 8 1
6 4 5 2
7 5 6 1
8 6 7 2
9 8 9 1
10 8 13 1
11 9 10 1
12 9 13 1
13 9 21 1
14 10 11 1
15 10 17 1
16 10 20 1
17 11 12 2
18 12 13 1
19 12 16 1
20 13 14 1
21 14 15 3
22 17 18 1
23 18 19 1
24 19 20 1
25 21 22 3
26 4 23 1
27 5 24 1
28 6 25 1
29 7 26 1
30 8 27 1
31 16 28 1
32 16 29 1
33 18 30 1
34 18 31 1
35 19 32 1
36 19 33 1
@<TRIPOS>SUBSTRUCTURE
1	UNK0	1	GROUP	1 ****	UNK
# created with PyMOL 2.3.2
@<TRIPOS>MOLECULE
64
33 36 1                 
SMALL
USER_CHARGES
@<TRIPOS>ATOM
1	  Br	-2.980	-1.697	-2.316	Br	1	UNK0	0.000	
2	   C	-1.377	-2.334	-1.457	C.2	1	UNK0	0.000	
3	   C	-0.683	-1.432	-0.683	C.2	1	UNK0	0.000	
4	   C	0.468	-1.919	-0.073	C.2	1	UNK0	0.000	
5	   C	0.893	-3.224	-0.231	C.2	1	UNK0	0.000	
6	   C	0.167	-4.108	-1.021	C.2	1	UNK0	0.000	
7	   C	-0.968	-3.638	-1.626	C.2	1	UNK0	0.000	
8	   N	-1.084	-0.083	-0.491	N.pl3	1	UNK0	0.000	
9	   C	-0.417	1.112	-0.864	C.2	1	UNK0	0.000	
10	   O	0.623	1.151	-1.545	O.2	1	UNK0	0.000	
11	   C	-1.122	2.303	-0.337	C.3	1	UNK0	0.000	
12	   C	-0.324	3.065	0.663	C.3	1	UNK0	0.000	
13	   O	-1.170	3.197	1.796	O.3	1	UNK0	0.000	
14	   C	-1.482	1.818	1.918	C.3	1	UNK0	0.000	
15	   C	-2.194	1.670	0.568	C.3	1	UNK0	0.000	
16	   C	-2.308	0.260	0.166	C.2	1	UNK0	0.000	
17	   O	-3.269	-0.520	0.343	O.2	1	UNK0	0.000	
18	   C	-0.126	1.230	1.893	C.2	1	UNK0	0.000	
19	   C	0.655	2.105	1.260	C.2	1	UNK0	0.000	
20	   C	0.266	4.342	0.235	C.3	1	UNK0	0.000	
21	   O	1.038	4.845	1.299	O.3	1	UNK0	0.000	
22	   H	1.032	-1.226	0.543	 H	1	UNK0	0.000	
23	   H	1.805	-3.590	0.258	 H	1	UNK0	0.000	
24	   H	0.527	-5.126	-1.123	 H	1	UNK0	0.000	
25	   H	-1.549	-4.301	-2.242	 H	1	UNK0	0.000	
26	   H	-1.578	2.919	-1.120	 H	1	UNK0	0.000	
27	   H	-2.086	1.579	2.769	 H	1	UNK0	0.000	
28	   H	-3.120	2.240	0.582	 H	1	UNK0	0.000	
29	   H	0.257	0.281	2.286	 H	1	UNK0	0.000	
30	   H	1.732	2.133	1.183	 H	1	UNK0	0.000	
31	   H	-0.516	5.128	0.060	 H	1	UNK0	0.000	
32	   H	0.854	4.259	-0.686	 H	1	UNK0	0.000	
33	   H	0.429	5.215	2.003	 H	1	UNK0	0.000	
@<TRIPOS>BOND
1 1 2 1
2 2 3 2
3 2 7 1
4 3 4 1
5 3 8 1
6 4 5 2
7 5 6 1
8 6 7 2
9 8 9 1
10 8 16 1
11 9 10 2
12 9 11 1
13 11 12 1
14 11 15 1
15 12 13 1
16 12 19 1
17 12 20 1
18 13 14 1
19 14 15 1
20 14 18 1
21 15 16 1
22 16 17 2
23 18 19 2
24 20 21 1
25 4 22 1
26 5 23 1
27 6 24 1
28 7 25 1
29 11 26 1
30 14 27 1
31 15 28 1
32 18 29 1
33 19 30 1
34 20 31 1
35 20 32 1
36 21 33 1
@<TRIPOS>SUBSTRUCTURE
1	UNK0	1	GROUP	1 ****	UNK
# created with PyMOL 2.3.2
@<TRIPOS>MOLECULE
67
36 39 1                 
SMALL
USER_CHARGES
@<TRIPOS>ATOM
1	  Br	-0.737	0.248	-3.632	Br	1	UNK0	0.000	
2	   C	-1.741	0.794	-2.133	C.2	1	UNK0	0.000	
3	   C	-1.215	0.762	-0.853	C.2	1	UNK0	0.000	
4	   C	-2.069	1.192	0.155	C.2	1	UNK0	0.000	
5	   C	-3.351	1.626	-0.071	C.2	1	UNK0	0.000	
6	   C	-3.849	1.649	-1.335	C.2	1	UNK0	0.000	
7	   C	-3.046	1.235	-2.364	C.2	1	UNK0	0.000	
8	   N	0.106	0.320	-0.582	N.pl3	1	UNK0	0.000	
9	   C	0.916	-0.616	-1.385	C.3	1	UNK0	0.000	
10	   C	1.798	-1.183	-0.373	C.3	1	UNK0	0.000	
11	   O	1.286	-2.273	0.351	O.3	1	UNK0	0.000	
12	   C	2.349	-2.334	1.291	C.3	1	UNK0	0.000	
13	   C	2.129	-0.955	1.928	C.3	1	UNK0	0.000	
14	   C	2.051	-0.107	0.697	C.3	1	UNK0	0.000	
15	   C	0.869	0.726	0.548	C.2	1	UNK0	0.000	
16	   O	0.547	1.673	1.295	O.2	1	UNK0	0.000	
17	   C	0.785	-1.046	2.582	C.2	1	UNK0	0.000	
18	   O	0.615	-0.877	3.798	O.co2	1	UNK0	0.000	
19	   O	-0.318	-1.334	1.788	O.3	1	UNK0	0.000	
20	   C	-1.605	-1.423	2.411	C.3	1	UNK0	0.000	
21	   C	3.525	-2.341	0.372	C.2	1	UNK0	0.000	
22	   C	3.109	-1.705	-0.746	C.2	1	UNK0	0.000	
23	   H	-1.733	1.198	1.182	 H	1	UNK0	0.000	
24	   H	-3.982	1.952	0.746	 H	1	UNK0	0.000	
25	   H	-4.865	1.990	-1.531	 H	1	UNK0	0.000	
26	   H	-3.446	1.255	-3.367	 H	1	UNK0	0.000	
27	   H	0.211	-1.378	-1.770	 H	1	UNK0	0.000	
28	   H	1.429	-0.120	-2.216	 H	1	UNK0	0.000	
29	   H	2.284	-3.152	1.973	 H	1	UNK0	0.000	
30	   H	2.916	-0.692	2.625	 H	1	UNK0	0.000	
31	   H	2.994	0.434	0.480	 H	1	UNK0	0.000	
32	   H	-2.401	-1.521	1.657	 H	1	UNK0	0.000	
33	   H	-1.816	-0.532	3.036	 H	1	UNK0	0.000	
34	   H	-1.655	-2.346	3.042	 H	1	UNK0	0.000	
35	   H	4.499	-2.772	0.579	 H	1	UNK0	0.000	
36	   H	3.666	-1.636	-1.667	 H	1	UNK0	0.000	
@<TRIPOS>BOND
1 1 2 1
2 2 3 2
3 2 7 1
4 3 4 1
5 3 8 1
6 4 5 2
7 5 6 1
8 6 7 2
9 8 9 1
10 8 15 1
11 9 10 1
12 10 11 1
13 10 14 1
14 10 22 1
15 11 12 1
16 12 13 1
17 12 21 1
18 13 14 1
19 13 17 1
20 14 15 1
21 15 16 2
22 17 18 2
23 17 19 1
24 19 20 1
25 21 22 2
26 4 23 1
27 5 24 1
28 6 25 1
29 7 26 1
30 9 27 1
31 9 28 1
32 12 29 1
33 13 30 1
34 14 31 1
35 20 32 1
36 20 33 1
37 20 34 1
38 21 35 1
39 22 36 1
@<TRIPOS>SUBSTRUCTURE
1	UNK0	1	GROUP	1 ****	UNK
# created with PyMOL 2.3.2
@<TRIPOS>MOLECULE
81
35 38 1                 
SMALL
USER_CHARGES
@<TRIPOS>ATOM
1	  Br	2.899	-3.141	2.438	Br	1	UNK0	0.000	
2	   C	1.462	-1.946	2.102	C.2	1	UNK0	0.000	
3	   C	0.691	-1.889	0.970	C.2	1	UNK0	0.000	
4	   N	-0.197	-0.904	1.164	N.pl3	1	UNK0	0.000	
5	   N	-0.002	-0.366	2.352	N.2	1	UNK0	0.000	
6	   C	1.026	-0.985	2.976	C.2	1	UNK0	0.000	
7	   C	1.563	-0.666	4.348	C.3	1	UNK0	0.000	
8	   C	-1.205	-0.508	0.208	C.3	1	UNK0	0.000	
9	   C	-0.693	0.560	-0.719	C.2	1	UNK0	0.000	
10	   N	-0.069	0.385	-1.898	N.2	1	UNK0	0.000	
11	   N	0.231	1.575	-2.422	N.pl3	1	UNK0	0.000	
12	   C	-0.197	2.541	-1.584	C.2	1	UNK0	0.000	
13	   N	-0.760	1.892	-0.548	N.2	1	UNK0	0.000	
14	   C	0.006	3.865	-1.922	C.2	1	UNK0	0.000	
15	   C	0.635	4.240	-3.092	C.2	1	UNK0	0.000	
16	   N	0.702	5.584	-3.172	N.pl3	1	UNK0	0.000	
17	   N	0.133	6.068	-2.085	N.2	1	UNK0	0.000	
18	   C	-0.309	5.050	-1.289	C.2	1	UNK0	0.000	
19	   C	1.281	6.392	-4.233	C.3	1	UNK0	0.000	
20	   N	1.046	3.246	-3.900	N.2	1	UNK0	0.000	
21	   C	0.843	1.945	-3.561	C.2	1	UNK0	0.000	
22	   C	0.848	-2.776	-0.227	C.3	1	UNK0	0.000	
23	   H	2.647	-0.517	4.245	 H	1	UNK0	0.000	
24	   H	1.385	-1.484	5.053	 H	1	UNK0	0.000	
25	   H	1.129	0.300	4.678	 H	1	UNK0	0.000	
26	   H	-2.119	-0.134	0.747	 H	1	UNK0	0.000	
27	   H	-1.533	-1.361	-0.408	 H	1	UNK0	0.000	
28	   H	-0.808	5.135	-0.347	 H	1	UNK0	0.000	
29	   H	0.513	6.725	-4.970	 H	1	UNK0	0.000	
30	   H	1.880	7.235	-3.842	 H	1	UNK0	0.000	
31	   H	2.006	5.764	-4.825	 H	1	UNK0	0.000	
32	   H	1.178	1.137	-4.219	 H	1	UNK0	0.000	
33	   H	0.106	-3.576	-0.134	 H	1	UNK0	0.000	
34	   H	1.867	-3.211	-0.243	 H	1	UNK0	0.000	
35	   H	0.756	-2.193	-1.178	 H	1	UNK0	0.000	
@<TRIPOS>BOND
1 1 2 1
2 2 3 2
3 2 6 1
4 3 4 1
5 3 22 1
6 4 5 1
7 4 8 1
8 5 6 2
9 6 7 1
10 8 9 1
11 9 10 2
12 9 13 1
13 10 11 1
14 11 12 1
15 11 21 1
16 12 13 2
17 12 14 1
18 14 15 2
19 14 18 1
20 15 16 1
21 15 20 1
22 16 17 1
23 16 19 1
24 17 18 2
25 20 21 2
26 7 23 1
27 7 24 1
28 7 25 1
29 8 26 1
30 8 27 1
31 18 28 1
32 19 29 1
33 19 30 1
34 19 31 1
35 21 32 1
36 22 33 1
37 22 34 1
38 22 35 1
@<TRIPOS>SUBSTRUCTURE
1	UNK0	1	GROUP	1 ****	UNK
# created with PyMOL 2.3.2
@<TRIPOS>MOLECULE
85
40 43 1                 
SMALL
USER_CHARGES
@<TRIPOS>ATOM
1	  Br	3.465	-3.093	0.697	Br	1	UNK0	0.000	
2	   C	2.467	-3.079	2.325	C.2	1	UNK0	0.000	
3	   C	1.350	-2.376	2.639	C.2	1	UNK0	0.000	
4	   N	1.001	-2.676	3.937	N.pl3	1	UNK0	0.000	
5	   N	1.886	-3.532	4.375	N.2	1	UNK0	0.000	
6	   C	2.808	-3.831	3.467	C.2	1	UNK0	0.000	
7	   C	-0.123	-2.148	4.665	C.3	1	UNK0	0.000	
8	   C	0.564	-1.450	1.797	C.2	1	UNK0	0.000	
9	   O	-0.354	-0.775	2.396	O.2	1	UNK0	0.000	
10	   N	0.767	-1.283	0.430	N.pl3	1	UNK0	0.000	
11	   C	0.038	-0.402	-0.408	C.2	1	UNK0	0.000	
12	   C	0.393	-0.376	-1.772	C.2	1	UNK0	0.000	
13	   N	1.344	-1.070	-2.454	N.2	1	UNK0	0.000	
14	   O	1.277	-0.691	-3.694	O.3	1	UNK0	0.000	
15	   N	0.347	0.199	-3.850	N.2	1	UNK0	0.000	
16	   C	-0.244	0.437	-2.672	C.2	1	UNK0	0.000	
17	   C	-1.272	1.282	-2.306	C.2	1	UNK0	0.000	
18	   C	-1.617	1.254	-0.968	C.2	1	UNK0	0.000	
19	   C	-0.976	0.431	-0.044	C.2	1	UNK0	0.000	
20	   N	-1.935	2.123	-3.218	N.pl3	1	UNK0	0.000	
21	   C	-3.020	2.966	-2.723	C.3	1	UNK0	0.000	
22	   C	-3.734	3.668	-3.845	C.3	1	UNK0	0.000	
23	   O	-3.928	2.943	-4.974	O.3	1	UNK0	0.000	
24	   C	-3.013	1.985	-5.300	C.3	1	UNK0	0.000	
25	   C	-1.693	2.283	-4.620	C.3	1	UNK0	0.000	
26	   H	3.653	-4.484	3.509	 H	1	UNK0	0.000	
27	   H	-1.055	-2.253	4.064	 H	1	UNK0	0.000	
28	   H	0.033	-1.073	4.861	 H	1	UNK0	0.000	
29	   H	-0.205	-2.669	5.629	 H	1	UNK0	0.000	
30	   H	1.532	-1.890	0.007	 H	1	UNK0	0.000	
31	   H	-2.420	1.908	-0.659	 H	1	UNK0	0.000	
32	   H	-1.296	0.461	0.977	 H	1	UNK0	0.000	
33	   H	-3.776	2.368	-2.171	 H	1	UNK0	0.000	
34	   H	-2.631	3.747	-2.028	 H	1	UNK0	0.000	
35	   H	-4.746	3.958	-3.444	 H	1	UNK0	0.000	
36	   H	-3.212	4.647	-4.018	 H	1	UNK0	0.000	
37	   H	-3.379	1.006	-4.893	 H	1	UNK0	0.000	
38	   H	-2.836	1.876	-6.395	 H	1	UNK0	0.000	
39	   H	-1.503	3.389	-4.771	 H	1	UNK0	0.000	
40	   H	-0.850	1.780	-5.055	 H	1	UNK0	0.000	
@<TRIPOS>BOND
1 1 2 1
2 2 3 2
3 2 6 1
4 3 4 1
5 3 8 1
6 4 5 1
7 4 7 1
8 5 6 2
9 8 9 2
10 8 10 1
11 10 11 1
12 11 12 1
13 11 19 2
14 12 13 2
15 12 16 1
16 13 14 1
17 14 15 1
18 15 16 2
19 16 17 1
20 17 18 2
21 17 20 1
22 18 19 1
23 20 21 1
24 20 25 1
25 21 22 1
26 22 23 1
27 23 24 1
28 24 25 1
29 6 26 1
30 7 27 1
31 7 28 1
32 7 29 1
33 10 30 1
34 18 31 1
35 19 32 1
36 21 33 1
37 21 34 1
38 22 35 1
39 22 36 1
40 24 37 1
41 24 38 1
42 25 39 1
43 25 40 1
@<TRIPOS>SUBSTRUCTURE
1	UNK0	1	GROUP	1 ****	UNK
# created with PyMOL 2.3.2
@<TRIPOS>MOLECULE
95
36 39 1                 
SMALL
USER_CHARGES
@<TRIPOS>ATOM
1	  Br	4.292	3.117	-1.905	Br	1	UNK0	0.000	
2	   C	2.908	1.977	-2.512	C.2	1	UNK0	0.000	
3	   C	1.727	1.868	-1.768	C.2	1	UNK0	0.000	
4	   C	0.735	1.038	-2.224	C.2	1	UNK0	0.000	
5	   C	0.887	0.324	-3.383	C.2	1	UNK0	0.000	
6	   C	2.070	0.431	-4.134	C.2	1	UNK0	0.000	
7	   C	3.069	1.266	-3.676	C.2	1	UNK0	0.000	
8	   N	-0.176	-0.519	-3.789	N.pl3	1	UNK0	0.000	
9	   N	-0.394	-1.718	-3.284	N.2	1	UNK0	0.000	
10	   N	-1.446	-2.277	-3.843	N.2	1	UNK0	0.000	
11	   N	-1.935	-1.432	-4.736	N.2	1	UNK0	0.000	
12	   C	-1.148	-0.352	-4.698	C.2	1	UNK0	0.000	
13	   C	-0.568	0.885	-1.474	C.2	1	UNK0	0.000	
14	   O	-1.605	0.763	-2.203	O.2	1	UNK0	0.000	
15	   N	-0.539	0.889	-0.100	N.pl3	1	UNK0	0.000	
16	   C	-0.511	0.893	1.266	C.3	1	UNK0	0.000	
17	   C	-1.002	-0.399	1.898	C.2	1	UNK0	0.000	
18	   N	-0.614	-1.639	1.528	N.pl3	1	UNK0	0.000	
19	   C	-1.229	-2.560	2.281	C.2	1	UNK0	0.000	
20	   N	-2.009	-1.874	3.131	N.2	1	UNK0	0.000	
21	   N	-1.873	-0.560	2.900	N.2	1	UNK0	0.000	
22	   C	-0.983	-3.925	2.082	C.2	1	UNK0	0.000	
23	   C	-0.109	-4.333	1.113	C.2	1	UNK0	0.000	
24	   C	0.525	-3.383	0.337	C.2	1	UNK0	0.000	
25	   C	0.258	-2.040	0.560	C.2	1	UNK0	0.000	
26	   H	1.592	2.421	-0.850	 H	1	UNK0	0.000	
27	   H	2.149	-0.145	-5.039	 H	1	UNK0	0.000	
28	   H	3.984	1.347	-4.255	 H	1	UNK0	0.000	
29	   H	-1.280	0.522	-5.305	 H	1	UNK0	0.000	
30	   H	-1.892	0.742	-0.058	 H	1	UNK0	0.000	
31	   H	-1.088	1.712	1.784	 H	1	UNK0	0.000	
32	   H	0.521	1.006	1.730	 H	1	UNK0	0.000	
33	   H	-1.510	-4.623	2.714	 H	1	UNK0	0.000	
34	   H	0.108	-5.395	0.927	 H	1	UNK0	0.000	
35	   H	1.219	-3.633	-0.432	 H	1	UNK0	0.000	
36	   H	0.730	-1.268	-0.025	 H	1	UNK0	0.000	
@<TRIPOS>BOND
1 1 2 1
2 2 3 2
3 2 7 1
4 3 4 1
5 4 5 2
6 4 13 1
7 5 6 1
8 5 8 1
9 6 7 2
10 8 9 1
11 8 12 1
12 9 10 2
13 10 11 1
14 11 12 2
15 13 14 2
16 13 15 1
17 15 16 1
18 16 17 1
19 17 18 1
20 17 21 2
21 18 19 1
22 18 25 1
23 19 20 2
24 19 22 1
25 20 21 1
26 22 23 2
27 23 24 1
28 24 25 2
29 3 26 1
30 6 27 1
31 7 28 1
32 12 29 1
33 15 30 1
34 16 31 1
35 16 32 1
36 22 33 1
37 23 34 1
38 24 35 1
39 25 36 1
@<TRIPOS>SUBSTRUCTURE
1	UNK0	1	GROUP	1 ****	UNK
# created with PyMOL 2.3.2
@<TRIPOS>MOLECULE
106
48 51 1                 
SMALL
USER_CHARGES
@<TRIPOS>ATOM
1	  Br	-6.609	-2.307	4.179	Br	1	UNK0	0.000	
2	   C	-5.139	-2.342	2.968	C.2	1	UNK0	0.000	
3	   C	-3.907	-2.859	3.248	C.2	1	UNK0	0.000	
4	   C	-2.859	-2.873	2.354	C.2	1	UNK0	0.000	
5	   C	-3.097	-2.320	1.092	C.2	1	UNK0	0.000	
6	   C	-4.311	-1.787	0.756	C.2	1	UNK0	0.000	
7	   C	-5.331	-1.801	1.700	C.2	1	UNK0	0.000	
8	   O	-2.064	-2.326	0.175	O.3	1	UNK0	0.000	
9	   C	-2.250	-1.786	-1.107	C.3	1	UNK0	0.000	
10	   C	-1.560	-3.443	2.669	C.2	1	UNK0	0.000	
11	   C	-0.398	-2.905	2.421	C.2	1	UNK0	0.000	
12	   O	-0.217	-1.676	1.806	O.3	1	UNK0	0.000	
13	   C	1.122	-1.360	1.671	C.2	1	UNK0	0.000	
14	   C	1.910	-2.363	2.188	C.2	1	UNK0	0.000	
15	   C	3.284	-2.251	2.155	C.2	1	UNK0	0.000	
16	   C	3.859	-1.128	1.599	C.2	1	UNK0	0.000	
17	   C	3.030	-0.116	1.076	C.2	1	UNK0	0.000	
18	   C	1.672	-0.204	1.099	C.2	1	UNK0	0.000	
19	   C	0.778	0.804	0.599	C.3	1	UNK0	0.000	
20	   N	1.227	1.996	0.005	N.4	1	UNK0	0.000	
21	   C	1.540	1.919	-1.396	C.3	1	UNK0	0.000	
22	   C	0.340	2.036	-2.303	C.3	1	UNK0	0.000	
23	   O	-0.869	2.074	-1.622	O.3	1	UNK0	0.000	
24	   C	-0.807	3.176	-0.776	C.3	1	UNK0	0.000	
25	   C	0.298	3.119	0.227	C.3	1	UNK0	0.000	
26	   O	3.753	0.963	0.543	O.2	1	UNK0	0.000	
27	   C	0.967	-3.373	2.680	C.2	1	UNK0	0.000	
28	   O	1.262	-4.457	3.230	O.2	1	UNK0	0.000	
29	   H	-3.760	-3.284	4.245	 H	1	UNK0	0.000	
30	   H	-4.547	-1.340	-0.216	 H	1	UNK0	0.000	
31	   H	-6.312	-1.376	1.442	 H	1	UNK0	0.000	
32	   H	-1.501	-2.242	-1.826	 H	1	UNK0	0.000	
33	   H	-2.021	-0.690	-1.082	 H	1	UNK0	0.000	
34	   H	-3.241	-2.016	-1.550	 H	1	UNK0	0.000	
35	   H	-1.541	-4.427	3.165	 H	1	UNK0	0.000	
36	   H	3.898	-3.050	2.569	 H	1	UNK0	0.000	
37	   H	4.926	-0.984	1.545	 H	1	UNK0	0.000	
38	   H	0.014	0.368	-0.138	 H	1	UNK0	0.000	
39	   H	0.048	1.146	1.429	 H	1	UNK0	0.000	
40	   H	2.085	2.320	0.497	 H	1	UNK0	0.000	
41	   H	2.181	2.826	-1.612	 H	1	UNK0	0.000	
42	   H	2.156	1.051	-1.629	 H	1	UNK0	0.000	
43	   H	0.367	2.969	-2.937	 H	1	UNK0	0.000	
44	   H	0.346	1.204	-3.035	 H	1	UNK0	0.000	
45	   H	-1.771	3.166	-0.185	 H	1	UNK0	0.000	
46	   H	-0.810	4.124	-1.387	 H	1	UNK0	0.000	
47	   H	-0.061	3.078	1.276	 H	1	UNK0	0.000	
48	   H	0.869	4.068	0.151	 H	1	UNK0	0.000	
@<TRIPOS>BOND
1 1 2 1
2 2 3 2
3 2 7 1
4 3 4 1
5 4 5 2
6 4 10 1
7 5 6 1
8 5 8 1
9 6 7 2
10 8 9 1
11 10 11 2
12 11 12 1
13 11 27 1
14 12 13 1
15 13 14 2
16 13 18 1
17 14 15 1
18 14 27 1
19 15 16 2
20 16 17 1
21 17 18 2
22 17 26 1
23 18 19 1
24 19 20 1
25 20 21 1
26 20 25 1
27 21 22 1
28 22 23 1
29 23 24 1
30 24 25 1
31 27 28 2
32 3 29 1
33 6 30 1
34 7 31 1
35 9 32 1
36 9 33 1
37 9 34 1
38 10 35 1
39 15 36 1
40 16 37 1
41 19 38 1
42 19 39 1
43 20 40 1
44 21 41 1
45 21 42 1
46 22 43 1
47 22 44 1
48 24 45 1
49 24 46 1
50 25 47 1
51 25 48 1
@<TRIPOS>SUBSTRUCTURE
1	UNK0	1	GROUP	1 ****	UNK
# created with PyMOL 2.3.2
@<TRIPOS>MOLECULE
107
54 57 1                 
SMALL
USER_CHARGES
@<TRIPOS>ATOM
1	  Br	6.688	2.152	3.051	Br	1	UNK0	0.000	
2	   C	4.804	2.227	2.772	C.2	1	UNK0	0.000	
3	   C	4.207	1.510	1.759	C.2	1	UNK0	0.000	
4	   C	2.849	1.563	1.558	C.2	1	UNK0	0.000	
5	   C	2.099	2.355	2.400	C.2	1	UNK0	0.000	
6	   C	2.692	3.088	3.431	C.2	1	UNK0	0.000	
7	   C	4.062	3.030	3.629	C.2	1	UNK0	0.000	
8	   O	0.728	2.391	2.174	O.3	1	UNK0	0.000	
9	   C	-0.174	3.150	2.945	C.3	1	UNK0	0.000	
10	   C	2.205	0.808	0.489	C.2	1	UNK0	0.000	
11	   N	2.847	0.056	-0.323	N.2	1	UNK0	0.000	
12	   N	2.247	-0.673	-1.351	N.pl3	1	UNK0	0.000	
13	   C	0.862	-0.997	-1.357	C.2	1	UNK0	0.000	
14	   N	0.365	-2.122	-0.799	N.2	1	UNK0	0.000	
15	   C	-0.944	-2.398	-0.822	C.2	1	UNK0	0.000	
16	   N	-1.771	-1.525	-1.418	N.2	1	UNK0	0.000	
17	   C	-1.340	-0.374	-2.000	C.2	1	UNK0	0.000	
18	   N	0.003	-0.159	-1.938	N.2	1	UNK0	0.000	
19	   N	-2.212	0.537	-2.623	N.pl3	1	UNK0	0.000	
20	   C	-3.623	0.297	-2.683	C.3	1	UNK0	0.000	
21	   C	-4.034	0.417	-4.149	C.3	1	UNK0	0.000	
22	   O	-3.632	1.669	-4.581	O.3	1	UNK0	0.000	
23	   C	-2.265	1.807	-4.633	C.3	1	UNK0	0.000	
24	   C	-1.693	1.734	-3.217	C.3	1	UNK0	0.000	
25	   N	-1.467	-3.581	-0.234	N.pl3	1	UNK0	0.000	
26	   C	-0.626	-4.557	0.423	C.3	1	UNK0	0.000	
27	   C	-1.042	-5.975	0.062	C.3	1	UNK0	0.000	
28	   O	-2.433	-6.111	0.133	O.3	1	UNK0	0.000	
29	   C	-3.072	-5.275	-0.751	C.3	1	UNK0	0.000	
30	   C	-2.887	-3.850	-0.276	C.3	1	UNK0	0.000	
31	   H	4.789	0.875	1.080	 H	1	UNK0	0.000	
32	   H	2.079	3.710	4.088	 H	1	UNK0	0.000	
33	   H	4.497	3.602	4.431	 H	1	UNK0	0.000	
34	   H	-0.521	2.490	3.780	 H	1	UNK0	0.000	
35	   H	0.244	4.106	3.296	 H	1	UNK0	0.000	
36	   H	-1.074	3.366	2.326	 H	1	UNK0	0.000	
37	   H	1.134	0.873	0.361	 H	1	UNK0	0.000	
38	   H	2.880	-0.979	-2.139	 H	1	UNK0	0.000	
39	   H	-3.890	-0.713	-2.277	 H	1	UNK0	0.000	
40	   H	-4.158	1.102	-2.129	 H	1	UNK0	0.000	
41	   H	-5.142	0.386	-4.153	 H	1	UNK0	0.000	
42	   H	-3.630	-0.406	-4.743	 H	1	UNK0	0.000	
43	   H	-1.780	0.978	-5.202	 H	1	UNK0	0.000	
44	   H	-2.018	2.783	-5.063	 H	1	UNK0	0.000	
45	   H	-0.589	1.769	-3.233	 H	1	UNK0	0.000	
46	   H	-2.122	2.615	-2.683	 H	1	UNK0	0.000	
47	   H	-0.850	-4.459	1.524	 H	1	UNK0	0.000	
48	   H	0.438	-4.426	0.207	 H	1	UNK0	0.000	
49	   H	-0.644	-6.196	-0.937	 H	1	UNK0	0.000	
50	   H	-0.637	-6.650	0.858	 H	1	UNK0	0.000	
51	   H	-2.640	-5.434	-1.760	 H	1	UNK0	0.000	
52	   H	-4.127	-5.561	-0.800	 H	1	UNK0	0.000	
53	   H	-3.279	-3.791	0.744	 H	1	UNK0	0.000	
54	   H	-3.414	-3.126	-0.918	 H	1	UNK0	0.000	
@<TRIPOS>BOND
1 1 2 1
2 2 3 2
3 2 7 1
4 3 4 1
5 4 5 2
6 4 10 1
7 5 6 1
8 5 8 1
9 6 7 2
10 8 9 1
11 10 11 2
12 11 12 1
13 12 13 1
14 13 14 2
15 13 18 1
16 14 15 1
17 15 16 2
18 15 25 1
19 16 17 1
20 17 18 2
21 17 19 1
22 19 20 1
23 19 24 1
24 20 21 1
25 21 22 1
26 22 23 1
27 23 24 1
28 25 26 1
29 25 30 1
30 26 27 1
31 27 28 1
32 28 29 1
33 29 30 1
34 3 31 1
35 6 32 1
36 7 33 1
37 9 34 1
38 9 35 1
39 9 36 1
40 10 37 1
41 12 38 1
42 20 39 1
43 20 40 1
44 21 41 1
45 21 42 1
46 23 43 1
47 23 44 1
48 24 45 1
49 24 46 1
50 26 47 1
51 26 48 1
52 27 49 1
53 27 50 1
54 29 51 1
55 29 52 1
56 30 53 1
57 30 54 1
@<TRIPOS>SUBSTRUCTURE
1	UNK0	1	GROUP	1 ****	UNK
# created with PyMOL 2.3.2
@<TRIPOS>MOLECULE
111
45 48 1                 
SMALL
USER_CHARGES
@<TRIPOS>ATOM
1	  Br	3.402	0.952	-5.349	Br	1	UNK0	0.000	
2	   C	3.384	0.147	-3.620	C.2	1	UNK0	0.000	
3	   C	2.484	0.571	-2.686	C.2	1	UNK0	0.000	
4	   C	2.351	0.095	-1.417	C.2	1	UNK0	0.000	
5	   C	3.271	-0.936	-1.117	C.2	1	UNK0	0.000	
6	   C	4.194	-1.395	-2.026	C.2	1	UNK0	0.000	
7	   C	4.257	-0.850	-3.299	C.2	1	UNK0	0.000	
8	   O	3.241	-1.508	0.143	O.3	1	UNK0	0.000	
9	   C	4.090	-2.529	0.566	C.3	1	UNK0	0.000	
10	   C	1.419	0.486	-0.398	C.2	1	UNK0	0.000	
11	   N	0.119	0.563	-0.213	N.pl3	1	UNK0	0.000	
12	   C	-0.160	1.046	1.039	C.2	1	UNK0	0.000	
13	   N	1.033	1.263	1.638	N.2	1	UNK0	0.000	
14	   N	1.967	0.939	0.810	N.2	1	UNK0	0.000	
15	   N	-1.482	1.117	1.210	N.pl3	1	UNK0	0.000	
16	   C	-2.049	0.677	0.075	C.2	1	UNK0	0.000	
17	   C	-1.062	0.318	-0.836	C.2	1	UNK0	0.000	
18	   N	-1.337	-0.171	-2.030	N.pl3	1	UNK0	0.000	
19	   C	-2.662	-0.308	-2.350	C.2	1	UNK0	0.000	
20	   O	-3.037	-0.761	-3.461	O.2	1	UNK0	0.000	
21	   N	-3.647	0.034	-1.493	N.pl3	1	UNK0	0.000	
22	   C	-3.373	0.522	-0.289	C.2	1	UNK0	0.000	
23	   O	-4.244	0.858	0.553	O.2	1	UNK0	0.000	
24	   C	-0.439	-0.654	-3.035	C.3	1	UNK0	0.000	
25	   C	-2.189	1.572	2.371	C.3	1	UNK0	0.000	
26	   C	-2.444	0.401	3.297	C.3	1	UNK0	0.000	
27	   O	-1.225	-0.134	3.664	O.3	1	UNK0	0.000	
28	   C	-1.380	-1.231	4.529	C.3	1	UNK0	0.000	
29	   H	1.803	1.370	-2.939	 H	1	UNK0	0.000	
30	   H	4.902	-2.178	-1.819	 H	1	UNK0	0.000	
31	   H	4.973	-1.198	-4.021	 H	1	UNK0	0.000	
32	   H	5.128	-2.428	0.189	 H	1	UNK0	0.000	
33	   H	4.181	-2.576	1.682	 H	1	UNK0	0.000	
34	   H	3.661	-3.506	0.250	 H	1	UNK0	0.000	
35	   H	-4.650	-0.075	-1.752	 H	1	UNK0	0.000	
36	   H	0.373	-1.276	-2.633	 H	1	UNK0	0.000	
37	   H	-1.048	-1.308	-3.751	 H	1	UNK0	0.000	
38	   H	-0.059	0.150	-3.656	 H	1	UNK0	0.000	
39	   H	-3.105	2.142	2.134	 H	1	UNK0	0.000	
40	   H	-1.484	2.249	2.938	 H	1	UNK0	0.000	
41	   H	-3.008	-0.411	2.775	 H	1	UNK0	0.000	
42	   H	-3.015	0.785	4.165	 H	1	UNK0	0.000	
43	   H	-1.912	-0.872	5.437	 H	1	UNK0	0.000	
44	   H	-0.396	-1.588	4.864	 H	1	UNK0	0.000	
45	   H	-1.941	-2.047	4.071	 H	1	UNK0	0.000	
@<TRIPOS>BOND
1 1 2 1
2 2 3 2
3 2 7 1
4 3 4 1
5 4 5 2
6 4 10 1
7 5 6 1
8 5 8 1
9 6 7 2
10 8 9 1
11 10 11 1
12 10 14 2
13 11 12 1
14 11 17 1
15 12 13 2
16 12 15 1
17 13 14 1
18 15 16 1
19 15 25 1
20 16 17 2
21 16 22 1
22 17 18 1
23 18 19 1
24 18 24 1
25 19 20 2
26 19 21 1
27 21 22 1
28 22 23 2
29 25 26 1
30 26 27 1
31 27 28 1
32 3 29 1
33 6 30 1
34 7 31 1
35 9 32 1
36 9 33 1
37 9 34 1
38 21 35 1
39 24 36 1
40 24 37 1
41 24 38 1
42 25 39 1
43 25 40 1
44 26 41 1
45 26 42 1
46 28 43 1
47 28 44 1
48 28 45 1
@<TRIPOS>SUBSTRUCTURE
1	UNK0	1	GROUP	1 ****	UNK
# created with PyMOL 2.3.2
@<TRIPOS>MOLECULE
127
50 53 1                 
SMALL
USER_CHARGES
@<TRIPOS>ATOM
1	  Br	0.392	6.076	4.947	Br	1	UNK0	0.000	
2	   C	0.154	4.212	4.649	C.2	1	UNK0	0.000	
3	   C	0.266	3.647	3.385	C.2	1	UNK0	0.000	
4	   C	0.094	2.305	3.168	C.2	1	UNK0	0.000	
5	   C	-0.199	1.489	4.236	C.2	1	UNK0	0.000	
6	   C	-0.311	2.041	5.487	C.2	1	UNK0	0.000	
7	   C	-0.139	3.399	5.722	C.2	1	UNK0	0.000	
8	   C	0.220	1.746	1.826	C.2	1	UNK0	0.000	
9	   O	0.066	0.518	1.601	O.2	1	UNK0	0.000	
10	   C	0.534	2.640	0.710	C.3	1	UNK0	0.000	
11	   N	0.601	1.998	-0.544	N.3	1	UNK0	0.000	
12	   C	-0.616	1.505	-1.073	C.3	1	UNK0	0.000	
13	   C	-0.514	0.736	-2.334	C.3	1	UNK0	0.000	
14	   N	0.454	-0.308	-2.226	N.pl3	1	UNK0	0.000	
15	   C	1.470	-0.198	-1.219	C.3	1	UNK0	0.000	
16	   C	1.765	1.223	-0.798	C.3	1	UNK0	0.000	
17	   C	0.460	-1.431	-3.095	C.2	1	UNK0	0.000	
18	   C	-0.397	-2.419	-2.845	C.2	1	UNK0	0.000	
19	   N	-1.389	-2.664	-1.864	N.pl3	1	UNK0	0.000	
20	   N	-1.933	-3.926	-2.195	N.pl3	1	UNK0	0.000	
21	   C	-1.278	-4.421	-3.347	C.2	1	UNK0	0.000	
22	   C	-0.359	-3.569	-3.775	C.2	1	UNK0	0.000	
23	   N	0.560	-3.574	-4.862	N.2	1	UNK0	0.000	
24	   C	1.368	-2.592	-5.060	C.2	1	UNK0	0.000	
25	   N	1.377	-1.471	-4.208	N.pl3	1	UNK0	0.000	
26	   C	-1.541	-5.714	-4.033	C.3	1	UNK0	0.000	
27	   C	-1.760	-1.806	-0.765	C.3	1	UNK0	0.000	
28	   H	0.497	4.341	2.590	 H	1	UNK0	0.000	
29	   H	-0.331	0.425	4.035	 H	1	UNK0	0.000	
30	   H	-0.541	1.418	6.339	 H	1	UNK0	0.000	
31	   H	-0.236	3.806	6.740	 H	1	UNK0	0.000	
32	   H	1.497	3.180	0.914	 H	1	UNK0	0.000	
33	   H	-0.225	3.475	0.637	 H	1	UNK0	0.000	
34	   H	-1.188	0.976	-0.289	 H	1	UNK0	0.000	
35	   H	-1.250	2.419	-1.302	 H	1	UNK0	0.000	
36	   H	-0.171	1.439	-3.141	 H	1	UNK0	0.000	
37	   H	-1.509	0.387	-2.674	 H	1	UNK0	0.000	
38	   H	1.374	-0.882	-0.369	 H	1	UNK0	0.000	
39	   H	2.421	-0.541	-1.738	 H	1	UNK0	0.000	
40	   H	2.364	1.165	0.135	 H	1	UNK0	0.000	
41	   H	2.392	1.766	-1.538	 H	1	UNK0	0.000	
42	   H	-2.694	-4.360	-1.632	 H	1	UNK0	0.000	
43	   H	2.059	-2.656	-5.923	 H	1	UNK0	0.000	
44	   H	2.007	-0.659	-4.326	 H	1	UNK0	0.000	
45	   H	-2.104	-6.381	-3.352	 H	1	UNK0	0.000	
46	   H	-0.636	-6.160	-4.452	 H	1	UNK0	0.000	
47	   H	-2.233	-5.492	-4.892	 H	1	UNK0	0.000	
48	   H	-0.932	-1.395	-0.195	 H	1	UNK0	0.000	
49	   H	-2.520	-1.073	-1.108	 H	1	UNK0	0.000	
50	   H	-2.295	-2.492	-0.029	 H	1	UNK0	0.000	
@<TRIPOS>BOND
1 1 2 1
2 2 3 2
3 2 7 1
4 3 4 1
5 4 5 2
6 4 8 1
7 5 6 1
8 6 7 2
9 8 9 2
10 8 10 1
11 10 11 1
12 11 12 1
13 11 16 1
14 12 13 1
15 13 14 1
16 14 15 1
17 14 17 1
18 15 16 1
19 17 18 2
20 17 25 1
21 18 19 1
22 18 22 1
23 19 20 1
24 19 27 1
25 20 21 1
26 21 22 2
27 21 26 1
28 22 23 1
29 23 24 2
30 24 25 1
31 3 28 1
32 5 29 1
33 6 30 1
34 7 31 1
35 10 32 1
36 10 33 1
37 12 34 1
38 12 35 1
39 13 36 1
40 13 37 1
41 15 38 1
42 15 39 1
43 16 40 1
44 16 41 1
45 20 42 1
46 24 43 1
47 25 44 1
48 26 45 1
49 26 46 1
50 26 47 1
51 27 48 1
52 27 49 1
53 27 50 1
@<TRIPOS>SUBSTRUCTURE
1	UNK0	1	GROUP	1 ****	UNK
# created with PyMOL 2.3.2
@<TRIPOS>MOLECULE
129
52 55 1                 
SMALL
USER_CHARGES
@<TRIPOS>ATOM
1	  Br	3.568	-0.687	-3.044	Br	1	UNK0	0.000	
2	   C	1.848	-1.270	-3.687	C.2	1	UNK0	0.000	
3	   C	0.936	-1.796	-2.803	C.2	1	UNK0	0.000	
4	   C	-0.289	-2.221	-3.270	C.2	1	UNK0	0.000	
5	   C	-0.601	-2.121	-4.588	C.2	1	UNK0	0.000	
6	   C	0.319	-1.592	-5.451	C.2	1	UNK0	0.000	
7	   C	1.576	-1.149	-5.034	C.2	1	UNK0	0.000	
8	   C	-1.270	-2.750	-2.250	C.2	1	UNK0	0.000	
9	   O	-1.608	-3.913	-2.386	O.2	1	UNK0	0.000	
10	   N	-1.630	-1.809	-1.290	N.pl3	1	UNK0	0.000	
11	   C	-2.481	-2.056	-0.184	C.3	1	UNK0	0.000	
12	   C	-1.985	-3.122	0.780	C.3	1	UNK0	0.000	
13	   C	-2.864	-0.863	0.557	C.2	1	UNK0	0.000	
14	   O	-4.094	-0.545	0.530	O.2	1	UNK0	0.000	
15	   N	-1.926	-0.064	1.272	N.pl3	1	UNK0	0.000	
16	   C	-0.504	-0.284	1.199	C.3	1	UNK0	0.000	
17	   C	0.007	0.998	0.499	C.3	1	UNK0	0.000	
18	   C	-0.090	2.070	1.551	C.3	1	UNK0	0.000	
19	   N	0.022	3.348	0.850	N.3	1	UNK0	0.000	
20	   C	1.209	3.468	0.089	C.3	1	UNK0	0.000	
21	   C	2.467	3.447	0.938	C.3	1	UNK0	0.000	
22	   C	2.319	2.572	2.116	C.2	1	UNK0	0.000	
23	   N	3.225	2.249	3.054	N.2	1	UNK0	0.000	
24	   C	2.616	1.424	3.934	C.2	1	UNK0	0.000	
25	   N	1.334	1.245	3.526	N.pl3	1	UNK0	0.000	
26	   C	1.120	1.945	2.395	C.2	1	UNK0	0.000	
27	   C	-1.354	2.082	2.336	C.3	1	UNK0	0.000	
28	   C	-2.362	1.012	2.088	C.3	1	UNK0	0.000	
29	   H	1.137	-1.888	-1.725	 H	1	UNK0	0.000	
30	   H	-1.598	-2.455	-4.946	 H	1	UNK0	0.000	
31	   H	0.105	-1.495	-6.519	 H	1	UNK0	0.000	
32	   H	2.306	-0.716	-5.706	 H	1	UNK0	0.000	
33	   H	-1.296	-0.804	-1.396	 H	1	UNK0	0.000	
34	   H	-3.388	-2.567	-0.630	 H	1	UNK0	0.000	
35	   H	-2.385	-2.891	1.817	 H	1	UNK0	0.000	
36	   H	-2.471	-4.138	0.545	 H	1	UNK0	0.000	
37	   H	-0.923	-3.218	0.846	 H	1	UNK0	0.000	
38	   H	-0.157	-1.112	0.563	 H	1	UNK0	0.000	
39	   H	0.025	-0.315	2.145	 H	1	UNK0	0.000	
40	   H	1.068	0.762	0.291	 H	1	UNK0	0.000	
41	   H	-0.499	1.191	-0.435	 H	1	UNK0	0.000	
42	   H	-0.137	4.166	1.492	 H	1	UNK0	0.000	
43	   H	1.231	2.725	-0.715	 H	1	UNK0	0.000	
44	   H	1.205	4.461	-0.409	 H	1	UNK0	0.000	
45	   H	2.708	4.479	1.314	 H	1	UNK0	0.000	
46	   H	3.297	3.104	0.281	 H	1	UNK0	0.000	
47	   H	3.092	0.987	4.820	 H	1	UNK0	0.000	
48	   H	0.707	0.636	4.089	 H	1	UNK0	0.000	
49	   H	-1.091	2.039	3.413	 H	1	UNK0	0.000	
50	   H	-1.887	3.073	2.217	 H	1	UNK0	0.000	
51	   H	-3.279	1.418	1.638	 H	1	UNK0	0.000	
52	   H	-2.698	0.546	3.068	 H	1	UNK0	0.000	
@<TRIPOS>BOND
1 1 2 1
2 2 3 2
3 2 7 1
4 3 4 1
5 4 5 2
6 4 8 1
7 5 6 1
8 6 7 2
9 8 9 2
10 8 10 1
11 10 11 1
12 11 12 1
13 11 13 1
14 13 14 2
15 13 15 1
16 15 16 1
17 15 28 1
18 16 17 1
19 17 18 1
20 18 19 1
21 18 26 1
22 18 27 1
23 19 20 1
24 20 21 1
25 21 22 1
26 22 23 1
27 22 26 2
28 23 24 2
29 24 25 1
30 25 26 1
31 27 28 1
32 3 29 1
33 5 30 1
34 6 31 1
35 7 32 1
36 10 33 1
37 11 34 1
38 12 35 1
39 12 36 1
40 12 37 1
41 16 38 1
42 16 39 1
43 17 40 1
44 17 41 1
45 19 42 1
46 20 43 1
47 20 44 1
48 21 45 1
49 21 46 1
50 24 47 1
51 25 48 1
52 27 49 1
53 27 50 1
54 28 51 1
55 28 52 1
@<TRIPOS>SUBSTRUCTURE
1	UNK0	1	GROUP	1 ****	UNK
# created with PyMOL 2.3.2
@<TRIPOS>MOLECULE
130
49 52 1                 
SMALL
USER_CHARGES
@<TRIPOS>ATOM
1	  Br	2.665	-6.620	2.871	Br	1	UNK0	0.000	
2	   C	2.069	-6.308	1.108	C.2	1	UNK0	0.000	
3	   C	0.937	-5.536	0.896	C.2	1	UNK0	0.000	
4	   C	0.476	-5.295	-0.371	C.2	1	UNK0	0.000	
5	   C	1.095	-5.793	-1.478	C.2	1	UNK0	0.000	
6	   C	2.238	-6.572	-1.273	C.2	1	UNK0	0.000	
7	   C	2.707	-6.817	0.004	C.2	1	UNK0	0.000	
8	   C	-0.731	-4.429	-0.617	C.2	1	UNK0	0.000	
9	   O	-1.623	-4.999	-1.339	O.2	1	UNK0	0.000	
10	   N	-0.750	-3.218	-0.085	N.pl3	1	UNK0	0.000	
11	   C	-0.770	-1.949	0.472	C.3	1	UNK0	0.000	
12	   C	-0.870	-0.881	-0.587	C.2	1	UNK0	0.000	
13	   O	-0.944	-1.327	-1.786	O.2	1	UNK0	0.000	
14	   N	-0.883	0.494	-0.317	N.pl3	1	UNK0	0.000	
15	   C	-0.798	1.027	1.005	C.3	1	UNK0	0.000	
16	   C	-0.012	2.306	1.066	C.3	1	UNK0	0.000	
17	   C	0.944	2.520	-0.087	C.3	1	UNK0	0.000	
18	   N	1.341	3.915	0.047	N.3	1	UNK0	0.000	
19	   C	2.402	4.343	-0.782	C.3	1	UNK0	0.000	
20	   C	3.270	3.305	-1.393	C.3	1	UNK0	0.000	
21	   C	3.314	2.061	-0.563	C.2	1	UNK0	0.000	
22	   N	4.296	1.198	-0.306	N.2	1	UNK0	0.000	
23	   C	3.761	0.264	0.508	C.2	1	UNK0	0.000	
24	   N	2.462	0.544	0.752	N.pl3	1	UNK0	0.000	
25	   C	2.158	1.689	0.075	C.2	1	UNK0	0.000	
26	   C	0.331	2.276	-1.442	C.3	1	UNK0	0.000	
27	   C	-0.962	1.483	-1.386	C.3	1	UNK0	0.000	
28	   H	0.417	-5.123	1.729	 H	1	UNK0	0.000	
29	   H	0.713	-5.587	-2.457	 H	1	UNK0	0.000	
30	   H	2.755	-6.985	-2.120	 H	1	UNK0	0.000	
31	   H	3.591	-7.417	0.161	 H	1	UNK0	0.000	
32	   H	-2.004	-2.987	-0.622	 H	1	UNK0	0.000	
33	   H	0.188	-1.747	1.065	 H	1	UNK0	0.000	
34	   H	-1.564	-1.827	1.249	 H	1	UNK0	0.000	
35	   H	-1.860	1.298	1.291	 H	1	UNK0	0.000	
36	   H	-0.501	0.287	1.771	 H	1	UNK0	0.000	
37	   H	-0.692	3.164	1.120	 H	1	UNK0	0.000	
38	   H	0.617	2.244	1.980	 H	1	UNK0	0.000	
39	   H	0.448	4.452	-0.150	 H	1	UNK0	0.000	
40	   H	3.073	5.000	-0.150	 H	1	UNK0	0.000	
41	   H	1.992	5.041	-1.571	 H	1	UNK0	0.000	
42	   H	2.917	3.079	-2.426	 H	1	UNK0	0.000	
43	   H	4.305	3.725	-1.541	 H	1	UNK0	0.000	
44	   H	4.324	-0.568	0.885	 H	1	UNK0	0.000	
45	   H	1.825	-0.015	1.344	 H	1	UNK0	0.000	
46	   H	1.045	1.646	-2.054	 H	1	UNK0	0.000	
47	   H	0.120	3.198	-2.007	 H	1	UNK0	0.000	
48	   H	-1.847	2.148	-1.257	 H	1	UNK0	0.000	
49	   H	-1.051	0.938	-2.344	 H	1	UNK0	0.000	
@<TRIPOS>BOND
1 1 2 1
2 2 3 2
3 2 7 1
4 3 4 1
5 4 5 2
6 4 8 1
7 5 6 1
8 6 7 2
9 8 9 2
10 8 10 1
11 10 11 1
12 11 12 1
13 12 13 2
14 12 14 1
15 14 15 1
16 14 27 1
17 15 16 1
18 16 17 1
19 17 18 1
20 17 25 1
21 17 26 1
22 18 19 1
23 19 20 1
24 20 21 1
25 21 22 1
26 21 25 2
27 22 23 2
28 23 24 1
29 24 25 1
30 26 27 1
31 3 28 1
32 5 29 1
33 6 30 1
34 7 31 1
35 10 32 1
36 11 33 1
37 11 34 1
38 15 35 1
39 15 36 1
40 16 37 1
41 16 38 1
42 18 39 1
43 19 40 1
44 19 41 1
45 20 42 1
46 20 43 1
47 23 44 1
48 24 45 1
49 26 46 1
50 26 47 1
51 27 48 1
52 27 49 1
@<TRIPOS>SUBSTRUCTURE
1	UNK0	1	GROUP	1 ****	UNK
# created with PyMOL 2.3.2
@<TRIPOS>MOLECULE
131
49 52 1                 
SMALL
USER_CHARGES
@<TRIPOS>ATOM
1	  Br	4.844	-6.740	-2.680	Br	1	UNK0	0.000	
2	   C	3.482	-6.257	-1.456	C.2	1	UNK0	0.000	
3	   C	3.251	-4.918	-1.197	C.2	1	UNK0	0.000	
4	   C	2.273	-4.500	-0.314	C.2	1	UNK0	0.000	
5	   C	1.512	-5.473	0.318	C.2	1	UNK0	0.000	
6	   C	1.747	-6.802	0.056	C.2	1	UNK0	0.000	
7	   C	2.717	-7.236	-0.820	C.2	1	UNK0	0.000	
8	   C	2.007	-3.099	-0.021	C.2	1	UNK0	0.000	
9	   O	1.099	-2.799	0.796	O.2	1	UNK0	0.000	
10	   N	2.726	-2.037	-0.615	N.pl3	1	UNK0	0.000	
11	   C	2.442	-0.652	-0.306	C.3	1	UNK0	0.000	
12	   C	1.042	-0.289	-0.651	C.2	1	UNK0	0.000	
13	   O	0.324	-1.194	-1.143	O.2	1	UNK0	0.000	
14	   N	0.498	0.990	-0.456	N.pl3	1	UNK0	0.000	
15	   C	1.260	2.079	0.103	C.3	1	UNK0	0.000	
16	   C	0.608	2.440	1.420	C.3	1	UNK0	0.000	
17	   C	-0.875	2.639	1.216	C.3	1	UNK0	0.000	
18	   N	-1.572	1.640	1.998	N.3	1	UNK0	0.000	
19	   C	-2.987	1.771	2.013	C.3	1	UNK0	0.000	
20	   C	-3.539	3.147	2.092	C.3	1	UNK0	0.000	
21	   C	-2.525	4.211	2.247	C.2	1	UNK0	0.000	
22	   N	-2.588	5.480	2.755	N.pl3	1	UNK0	0.000	
23	   C	-1.360	6.000	2.640	C.2	1	UNK0	0.000	
24	   N	-0.546	5.091	2.079	N.2	1	UNK0	0.000	
25	   C	-1.242	3.956	1.818	C.2	1	UNK0	0.000	
26	   C	-1.314	2.593	-0.212	C.3	1	UNK0	0.000	
27	   C	-0.870	1.258	-0.818	C.3	1	UNK0	0.000	
28	   H	3.854	-4.204	-1.700	 H	1	UNK0	0.000	
29	   H	0.723	-5.231	1.026	 H	1	UNK0	0.000	
30	   H	1.162	-7.578	0.541	 H	1	UNK0	0.000	
31	   H	2.925	-8.256	-1.046	 H	1	UNK0	0.000	
32	   H	3.481	-2.260	-1.293	 H	1	UNK0	0.000	
33	   H	3.094	0.026	-0.894	 H	1	UNK0	0.000	
34	   H	2.664	-0.514	0.770	 H	1	UNK0	0.000	
35	   H	1.223	2.972	-0.571	 H	1	UNK0	0.000	
36	   H	2.332	1.842	0.219	 H	1	UNK0	0.000	
37	   H	1.079	3.335	1.880	 H	1	UNK0	0.000	
38	   H	0.806	1.567	2.100	 H	1	UNK0	0.000	
39	   H	-1.336	0.691	1.605	 H	1	UNK0	0.000	
40	   H	-3.352	1.217	2.928	 H	1	UNK0	0.000	
41	   H	-3.481	1.217	1.169	 H	1	UNK0	0.000	
42	   H	-4.275	3.269	2.942	 H	1	UNK0	0.000	
43	   H	-4.164	3.398	1.187	 H	1	UNK0	0.000	
44	   H	-3.468	5.922	3.152	 H	1	UNK0	0.000	
45	   H	-1.068	6.990	2.949	 H	1	UNK0	0.000	
46	   H	-0.984	3.448	-0.802	 H	1	UNK0	0.000	
47	   H	-2.418	2.576	-0.228	 H	1	UNK0	0.000	
48	   H	-0.944	1.292	-1.925	 H	1	UNK0	0.000	
49	   H	-1.574	0.502	-0.461	 H	1	UNK0	0.000	
@<TRIPOS>BOND
1 1 2 1
2 2 3 2
3 2 7 1
4 3 4 1
5 4 5 2
6 4 8 1
7 5 6 1
8 6 7 2
9 8 9 2
10 8 10 1
11 10 11 1
12 11 12 1
13 12 13 2
14 12 14 1
15 14 15 1
16 14 27 1
17 15 16 1
18 16 17 1
19 17 18 1
20 17 25 1
21 17 26 1
22 18 19 1
23 19 20 1
24 20 21 1
25 21 22 1
26 21 25 2
27 22 23 1
28 23 24 2
29 24 25 1
30 26 27 1
31 3 28 1
32 5 29 1
33 6 30 1
34 7 31 1
35 10 32 1
36 11 33 1
37 11 34 1
38 15 35 1
39 15 36 1
40 16 37 1
41 16 38 1
42 18 39 1
43 19 40 1
44 19 41 1
45 20 42 1
46 20 43 1
47 22 44 1
48 23 45 1
49 26 46 1
50 26 47 1
51 27 48 1
52 27 49 1
@<TRIPOS>SUBSTRUCTURE
1	UNK0	1	GROUP	1 ****	UNK
# created with PyMOL 2.3.2
@<TRIPOS>MOLECULE
136
48 51 1                 
SMALL
USER_CHARGES
@<TRIPOS>ATOM
1	  Br	-7.447	1.135	3.763	Br	1	UNK0	0.000	
2	   C	-5.731	0.326	4.013	C.2	1	UNK0	0.000	
3	   C	-4.773	0.431	3.043	C.2	1	UNK0	0.000	
4	   C	-3.524	-0.153	3.216	C.2	1	UNK0	0.000	
5	   C	-3.288	-0.829	4.372	C.2	1	UNK0	0.000	
6	   C	-4.266	-0.930	5.349	C.2	1	UNK0	0.000	
7	   C	-5.499	-0.351	5.176	C.2	1	UNK0	0.000	
8	   C	-2.511	-0.043	2.180	C.2	1	UNK0	0.000	
9	   O	-2.864	0.401	1.026	O.2	1	UNK0	0.000	
10	   N	-1.167	-0.405	2.402	N.pl3	1	UNK0	0.000	
11	   C	-0.241	-0.254	1.294	C.3	1	UNK0	0.000	
12	   C	0.412	-1.574	0.932	C.3	1	UNK0	0.000	
13	   N	1.648	-1.160	0.297	N.pl3	1	UNK0	0.000	
14	   C	1.856	0.266	0.446	C.3	1	UNK0	0.000	
15	   C	0.952	0.590	1.643	C.3	1	UNK0	0.000	
16	   C	3.266	0.502	0.752	C.2	1	UNK0	0.000	
17	   O	3.613	1.170	1.737	O.2	1	UNK0	0.000	
18	   N	4.236	-0.059	-0.118	N.pl3	1	UNK0	0.000	
19	   C	3.914	-1.252	-0.868	C.3	1	UNK0	0.000	
20	   C	2.654	-1.888	-0.422	C.2	1	UNK0	0.000	
21	   O	2.446	-3.104	-0.674	O.2	1	UNK0	0.000	
22	   C	3.936	-1.021	-2.364	C.3	1	UNK0	0.000	
23	   C	2.976	0.003	-2.808	C.2	1	UNK0	0.000	
24	   C	1.690	-0.366	-3.159	C.2	1	UNK0	0.000	
25	   C	0.787	0.585	-3.575	C.2	1	UNK0	0.000	
26	   C	1.105	1.927	-3.664	C.2	1	UNK0	0.000	
27	   C	2.386	2.298	-3.315	C.2	1	UNK0	0.000	
28	   C	3.306	1.357	-2.895	C.2	1	UNK0	0.000	
29	   H	-4.934	0.967	2.104	 H	1	UNK0	0.000	
30	   H	-2.317	-1.302	4.536	 H	1	UNK0	0.000	
31	   H	-4.080	-1.465	6.266	 H	1	UNK0	0.000	
32	   H	-6.288	-0.414	5.926	 H	1	UNK0	0.000	
33	   H	-0.877	-0.756	3.325	 H	1	UNK0	0.000	
34	   H	-0.714	0.133	0.394	 H	1	UNK0	0.000	
35	   H	0.652	-2.187	1.828	 H	1	UNK0	0.000	
36	   H	-0.221	-2.170	0.239	 H	1	UNK0	0.000	
37	   H	1.529	0.845	-0.443	 H	1	UNK0	0.000	
38	   H	0.763	1.673	1.589	 H	1	UNK0	0.000	
39	   H	1.480	0.261	2.545	 H	1	UNK0	0.000	
40	   H	5.187	0.356	-0.242	 H	1	UNK0	0.000	
41	   H	4.773	-1.962	-0.672	 H	1	UNK0	0.000	
42	   H	4.969	-0.756	-2.658	 H	1	UNK0	0.000	
43	   H	3.659	-1.974	-2.842	 H	1	UNK0	0.000	
44	   H	1.342	-1.392	-3.124	 H	1	UNK0	0.000	
45	   H	-0.220	0.303	-3.851	 H	1	UNK0	0.000	
46	   H	0.359	2.652	-3.999	 H	1	UNK0	0.000	
47	   H	2.637	3.358	-3.385	 H	1	UNK0	0.000	
48	   H	4.304	1.683	-2.629	 H	1	UNK0	0.000	
@<TRIPOS>BOND
1 1 2 1
2 2 3 2
3 2 7 1
4 3 4 1
5 4 5 2
6 4 8 1
7 5 6 1
8 6 7 2
9 8 9 2
10 8 10 1
11 10 11 1
12 11 12 1
13 11 15 1
14 12 13 1
15 13 14 1
16 13 20 1
17 14 15 1
18 14 16 1
19 16 17 2
20 16 18 1
21 18 19 1
22 19 20 1
23 19 22 1
24 20 21 2
25 22 23 1
26 23 24 2
27 23 28 1
28 24 25 1
29 25 26 2
30 26 27 1
31 27 28 2
32 3 29 1
33 5 30 1
34 6 31 1
35 7 32 1
36 10 33 1
37 11 34 1
38 12 35 1
39 12 36 1
40 14 37 1
41 15 38 1
42 15 39 1
43 18 40 1
44 19 41 1
45 22 42 1
46 22 43 1
47 24 44 1
48 25 45 1
49 26 46 1
50 27 47 1
51 28 48 1
@<TRIPOS>SUBSTRUCTURE
1	UNK0	1	GROUP	1 ****	UNK
# created with PyMOL 2.3.2
@<TRIPOS>MOLECULE
137
42 45 1                 
SMALL
USER_CHARGES
@<TRIPOS>ATOM
1	  Br	1.394	1.127	-7.340	Br	1	UNK0	0.000	
2	   C	0.927	0.848	-5.519	C.2	1	UNK0	0.000	
3	   C	1.571	-0.068	-4.724	C.2	1	UNK0	0.000	
4	   C	1.219	-0.284	-3.414	C.2	1	UNK0	0.000	
5	   C	0.187	0.439	-2.873	C.2	1	UNK0	0.000	
6	   C	-0.492	1.376	-3.642	C.2	1	UNK0	0.000	
7	   C	-0.116	1.567	-4.942	C.2	1	UNK0	0.000	
8	   C	1.948	-1.304	-2.567	C.2	1	UNK0	0.000	
9	   O	2.636	-2.087	-3.292	O.2	1	UNK0	0.000	
10	   N	1.795	-1.272	-1.203	N.pl3	1	UNK0	0.000	
11	   C	1.652	-1.245	0.117	C.3	1	UNK0	0.000	
12	   C	0.230	-1.717	0.597	C.3	1	UNK0	0.000	
13	   N	0.179	-1.294	1.955	N.pl3	1	UNK0	0.000	
14	   C	1.158	-0.237	2.163	C.3	1	UNK0	0.000	
15	   C	1.584	0.152	0.807	C.3	1	UNK0	0.000	
16	   C	0.596	0.815	3.025	C.2	1	UNK0	0.000	
17	   O	0.836	2.008	2.769	O.2	1	UNK0	0.000	
18	   N	-0.209	0.474	4.135	N.pl3	1	UNK0	0.000	
19	   C	-1.043	-0.706	4.078	C.3	1	UNK0	0.000	
20	   C	-1.093	-1.238	5.496	C.3	1	UNK0	0.000	
21	   C	-0.356	-0.233	6.310	C.3	1	UNK0	0.000	
22	   C	-0.447	1.042	5.458	C.3	1	UNK0	0.000	
23	   C	-0.598	-1.677	3.084	C.2	1	UNK0	0.000	
24	   O	-0.906	-2.913	3.216	O.2	1	UNK0	0.000	
25	   H	2.392	-0.650	-5.123	 H	1	UNK0	0.000	
26	   H	-0.143	0.316	-1.865	 H	1	UNK0	0.000	
27	   H	-1.312	1.939	-3.180	 H	1	UNK0	0.000	
28	   H	-0.635	2.299	-5.564	 H	1	UNK0	0.000	
29	   H	2.644	-2.352	-1.103	 H	1	UNK0	0.000	
30	   H	2.305	-1.828	0.826	 H	1	UNK0	0.000	
31	   H	-0.467	-1.234	-0.084	 H	1	UNK0	0.000	
32	   H	0.198	-2.807	0.449	 H	1	UNK0	0.000	
33	   H	2.048	-0.642	2.708	 H	1	UNK0	0.000	
34	   H	2.581	0.626	0.736	 H	1	UNK0	0.000	
35	   H	0.827	0.715	0.239	 H	1	UNK0	0.000	
36	   H	-2.117	-0.424	3.849	 H	1	UNK0	0.000	
37	   H	-0.590	-2.253	5.533	 H	1	UNK0	0.000	
38	   H	-2.121	-1.327	5.892	 H	1	UNK0	0.000	
39	   H	0.707	-0.563	6.396	 H	1	UNK0	0.000	
40	   H	-0.778	-0.068	7.323	 H	1	UNK0	0.000	
41	   H	-1.436	1.477	5.573	 H	1	UNK0	0.000	
42	   H	0.322	1.722	5.809	 H	1	UNK0	0.000	
@<TRIPOS>BOND
1 1 2 1
2 2 3 2
3 2 7 1
4 3 4 1
5 4 5 2
6 4 8 1
7 5 6 1
8 6 7 2
9 8 9 2
10 8 10 1
11 10 11 1
12 11 12 1
13 11 15 1
14 12 13 1
15 13 14 1
16 13 23 1
17 14 15 1
18 14 16 1
19 16 17 2
20 16 18 1
21 18 19 1
22 18 22 1
23 19 20 1
24 19 23 1
25 20 21 1
26 21 22 1
27 23 24 2
28 3 25 1
29 5 26 1
30 6 27 1
31 7 28 1
32 10 29 1
33 11 30 1
34 12 31 1
35 12 32 1
36 14 33 1
37 15 34 1
38 15 35 1
39 19 36 1
40 20 37 1
41 20 38 1
42 21 39 1
43 21 40 1
44 22 41 1
45 22 42 1
@<TRIPOS>SUBSTRUCTURE
1	UNK0	1	GROUP	1 ****	UNK
# created with PyMOL 2.3.2
@<TRIPOS>MOLECULE
138
42 45 1                 
SMALL
USER_CHARGES
@<TRIPOS>ATOM
1	  Br	3.777	4.525	-7.043	Br	1	UNK0	0.000	
2	   C	3.610	2.812	-6.236	C.2	1	UNK0	0.000	
3	   C	2.887	2.607	-5.089	C.2	1	UNK0	0.000	
4	   C	2.750	1.382	-4.486	C.2	1	UNK0	0.000	
5	   C	3.383	0.320	-5.086	C.2	1	UNK0	0.000	
6	   C	4.133	0.486	-6.260	C.2	1	UNK0	0.000	
7	   C	4.242	1.743	-6.833	C.2	1	UNK0	0.000	
8	   C	1.980	1.180	-3.271	C.2	1	UNK0	0.000	
9	   O	1.431	2.231	-2.787	O.2	1	UNK0	0.000	
10	   N	1.805	-0.057	-2.613	N.pl3	1	UNK0	0.000	
11	   C	1.031	-0.134	-1.430	C.3	1	UNK0	0.000	
12	   C	1.719	-0.743	-0.254	C.3	1	UNK0	0.000	
13	   N	0.596	-1.138	0.614	N.pl3	1	UNK0	0.000	
14	   C	-0.643	-1.071	-0.147	C.3	1	UNK0	0.000	
15	   C	-0.178	-1.071	-1.571	C.3	1	UNK0	0.000	
16	   C	-1.460	-2.224	0.221	C.2	1	UNK0	0.000	
17	   O	-2.170	-2.797	-0.614	O.2	1	UNK0	0.000	
18	   N	-1.441	-2.703	1.573	N.pl3	1	UNK0	0.000	
19	   C	-0.805	-1.844	2.542	C.3	1	UNK0	0.000	
20	   C	-0.767	-2.497	3.862	C.3	1	UNK0	0.000	
21	   C	-1.799	-3.597	3.710	C.3	1	UNK0	0.000	
22	   C	-1.913	-3.872	2.249	C.3	1	UNK0	0.000	
23	   C	0.557	-1.544	1.979	C.2	1	UNK0	0.000	
24	   O	1.594	-1.646	2.672	O.2	1	UNK0	0.000	
25	   H	2.383	3.446	-4.609	 H	1	UNK0	0.000	
26	   H	3.329	-0.678	-4.680	 H	1	UNK0	0.000	
27	   H	4.630	-0.349	-6.732	 H	1	UNK0	0.000	
28	   H	4.830	1.824	-7.737	 H	1	UNK0	0.000	
29	   H	2.251	-0.905	-3.007	 H	1	UNK0	0.000	
30	   H	0.608	0.839	-1.111	 H	1	UNK0	0.000	
31	   H	2.228	-1.678	-0.624	 H	1	UNK0	0.000	
32	   H	2.432	-0.100	0.259	 H	1	UNK0	0.000	
33	   H	-1.130	-0.096	0.115	 H	1	UNK0	0.000	
34	   H	0.130	-2.080	-1.852	 H	1	UNK0	0.000	
35	   H	-0.915	-0.609	-2.258	 H	1	UNK0	0.000	
36	   H	-1.322	-0.845	2.545	 H	1	UNK0	0.000	
37	   H	-1.163	-1.782	4.626	 H	1	UNK0	0.000	
38	   H	0.211	-2.864	4.197	 H	1	UNK0	0.000	
39	   H	-2.801	-3.230	4.075	 H	1	UNK0	0.000	
40	   H	-1.480	-4.449	4.324	 H	1	UNK0	0.000	
41	   H	-1.307	-4.780	2.026	 H	1	UNK0	0.000	
42	   H	-2.991	-4.100	2.004	 H	1	UNK0	0.000	
@<TRIPOS>BOND
1 1 2 1
2 2 3 2
3 2 7 1
4 3 4 1
5 4 5 2
6 4 8 1
7 5 6 1
8 6 7 2
9 8 9 2
10 8 10 1
11 10 11 1
12 11 12 1
13 11 15 1
14 12 13 1
15 13 14 1
16 13 23 1
17 14 15 1
18 14 16 1
19 16 17 2
20 16 18 1
21 18 19 1
22 18 22 1
23 19 20 1
24 19 23 1
25 20 21 1
26 21 22 1
27 23 24 2
28 3 25 1
29 5 26 1
30 6 27 1
31 7 28 1
32 10 29 1
33 11 30 1
34 12 31 1
35 12 32 1
36 14 33 1
37 15 34 1
38 15 35 1
39 19 36 1
40 20 37 1
41 20 38 1
42 21 39 1
43 21 40 1
44 22 41 1
45 22 42 1
@<TRIPOS>SUBSTRUCTURE
1	UNK0	1	GROUP	1 ****	UNK
# created with PyMOL 2.3.2
@<TRIPOS>MOLECULE
141
35 38 1                 
SMALL
USER_CHARGES
@<TRIPOS>ATOM
1	  Br	-0.667	-4.515	5.796	Br	1	UNK0	0.000	
2	   C	-0.514	-2.701	5.239	C.2	1	UNK0	0.000	
3	   C	0.137	-2.426	4.062	C.2	1	UNK0	0.000	
4	   C	0.272	-1.116	3.609	C.2	1	UNK0	0.000	
5	   C	-0.258	-0.117	4.365	C.2	1	UNK0	0.000	
6	   C	-0.910	-0.399	5.545	C.2	1	UNK0	0.000	
7	   C	-1.056	-1.682	6.013	C.2	1	UNK0	0.000	
8	   C	0.972	-0.874	2.363	C.2	1	UNK0	0.000	
9	   O	1.748	-1.758	1.960	O.2	1	UNK0	0.000	
10	   N	0.781	0.313	1.635	N.pl3	1	UNK0	0.000	
11	   N	1.410	0.638	0.417	N.pl3	1	UNK0	0.000	
12	   C	1.281	1.953	-0.157	C.2	1	UNK0	0.000	
13	   O	0.635	2.947	0.303	O.2	1	UNK0	0.000	
14	   C	2.031	1.985	-1.398	C.3	1	UNK0	0.000	
15	   C	3.015	0.800	-1.338	C.3	1	UNK0	0.000	
16	   C	3.040	0.221	-2.715	C.3	1	UNK0	0.000	
17	   C	2.464	1.377	-3.557	C.3	1	UNK0	0.000	
18	   C	1.244	1.556	-2.628	C.3	1	UNK0	0.000	
19	   C	0.827	0.129	-2.514	C.2	1	UNK0	0.000	
20	   C	1.842	-0.689	-2.823	C.2	1	UNK0	0.000	
21	   C	2.211	-0.123	-0.444	C.2	1	UNK0	0.000	
22	   O	2.274	-1.372	-0.493	O.2	1	UNK0	0.000	
23	   H	0.551	-3.243	3.475	 H	1	UNK0	0.000	
24	   H	-0.181	0.904	4.065	 H	1	UNK0	0.000	
25	   H	-1.342	0.397	6.165	 H	1	UNK0	0.000	
26	   H	-1.550	-1.957	6.917	 H	1	UNK0	0.000	
27	   H	0.092	1.006	2.069	 H	1	UNK0	0.000	
28	   H	2.531	2.928	-1.625	 H	1	UNK0	0.000	
29	   H	3.973	1.061	-0.902	 H	1	UNK0	0.000	
30	   H	3.957	-0.178	-3.066	 H	1	UNK0	0.000	
31	   H	2.144	1.028	-4.546	 H	1	UNK0	0.000	
32	   H	3.106	2.256	-3.564	 H	1	UNK0	0.000	
33	   H	0.523	2.246	-2.995	 H	1	UNK0	0.000	
34	   H	-0.161	-0.239	-2.221	 H	1	UNK0	0.000	
35	   H	1.902	-1.711	-3.085	 H	1	UNK0	0.000	
@<TRIPOS>BOND
1 1 2 1
2 2 3 2
3 2 7 1
4 3 4 1
5 4 5 2
6 4 8 1
7 5 6 1
8 6 7 2
9 8 9 2
10 8 10 1
11 10 11 1
12 11 12 1
13 11 21 1
14 12 13 2
15 12 14 1
16 14 15 1
17 14 18 1
18 15 16 1
19 15 21 1
20 16 17 1
21 16 20 1
22 17 18 1
23 18 19 1
24 19 20 2
25 21 22 2
26 3 23 1
27 5 24 1
28 6 25 1
29 7 26 1
30 10 27 1
31 14 28 1
32 15 29 1
33 16 30 1
34 17 31 1
35 17 32 1
36 18 33 1
37 19 34 1
38 20 35 1
@<TRIPOS>SUBSTRUCTURE
1	UNK0	1	GROUP	1 ****	UNK
# created with PyMOL 2.3.2
@<TRIPOS>MOLECULE
152
44 47 1                 
SMALL
USER_CHARGES
@<TRIPOS>ATOM
1	  Br	1.452	2.439	-2.374	Br	1	UNK0	0.000	
2	   C	0.329	3.626	-1.388	C.2	1	UNK0	0.000	
3	   C	-0.176	3.178	-0.160	C.2	1	UNK0	0.000	
4	   C	-0.994	3.990	0.640	C.2	1	UNK0	0.000	
5	   C	-1.286	5.236	0.164	C.2	1	UNK0	0.000	
6	   C	-0.790	5.712	-1.069	C.2	1	UNK0	0.000	
7	   C	0.038	4.859	-1.845	C.2	1	UNK0	0.000	
8	   C	-1.176	3.641	2.075	C.2	1	UNK0	0.000	
9	   C	-1.102	2.364	2.467	C.2	1	UNK0	0.000	
10	   O	-0.883	1.309	1.683	O.3	1	UNK0	0.000	
11	   C	-0.841	0.127	2.465	C.2	1	UNK0	0.000	
12	   C	-1.031	0.407	3.776	C.2	1	UNK0	0.000	
13	   C	-0.943	-0.641	4.689	C.2	1	UNK0	0.000	
14	   C	-0.697	-1.909	4.264	C.2	1	UNK0	0.000	
15	   C	-0.539	-2.167	2.917	C.2	1	UNK0	0.000	
16	   C	-0.606	-1.182	1.961	C.2	1	UNK0	0.000	
17	   C	-0.923	-1.321	0.554	C.3	1	UNK0	0.000	
18	   N	-0.352	-1.560	-0.643	N.4	1	UNK0	0.000	
19	   C	0.027	-2.797	-1.170	C.3	1	UNK0	0.000	
20	   C	-1.029	-3.431	-2.102	C.3	1	UNK0	0.000	
21	   O	-1.236	-2.717	-3.258	O.3	1	UNK0	0.000	
22	   C	-1.205	-1.347	-2.974	C.3	1	UNK0	0.000	
23	   C	-1.470	-1.045	-1.594	C.3	1	UNK0	0.000	
24	   O	-0.299	-3.487	2.528	O.2	1	UNK0	0.000	
25	   C	-1.222	1.875	3.847	C.2	1	UNK0	0.000	
26	   O	-1.444	2.550	4.869	O.2	1	UNK0	0.000	
27	   H	0.116	2.228	0.150	 H	1	UNK0	0.000	
28	   H	-1.889	5.920	0.700	 H	1	UNK0	0.000	
29	   H	-0.969	6.675	-1.490	 H	1	UNK0	0.000	
30	   H	0.438	5.206	-2.770	 H	1	UNK0	0.000	
31	   H	-1.398	4.389	2.801	 H	1	UNK0	0.000	
32	   H	-1.082	-0.437	5.718	 H	1	UNK0	0.000	
33	   H	-0.613	-2.745	4.994	 H	1	UNK0	0.000	
34	   H	-1.550	-2.466	0.692	 H	1	UNK0	0.000	
35	   H	-2.013	-0.802	0.424	 H	1	UNK0	0.000	
36	   H	0.449	-0.842	-0.812	 H	1	UNK0	0.000	
37	   H	0.312	-3.564	-0.430	 H	1	UNK0	0.000	
38	   H	0.951	-2.676	-1.877	 H	1	UNK0	0.000	
39	   H	-1.944	-3.638	-1.510	 H	1	UNK0	0.000	
40	   H	-0.560	-4.412	-2.418	 H	1	UNK0	0.000	
41	   H	-0.323	-0.813	-3.339	 H	1	UNK0	0.000	
42	   H	-2.085	-0.895	-3.553	 H	1	UNK0	0.000	
43	   H	-2.387	-1.576	-1.151	 H	1	UNK0	0.000	
44	   H	-1.528	-0.018	-1.361	 H	1	UNK0	0.000	
@<TRIPOS>BOND
1 1 2 1
2 2 3 2
3 2 7 1
4 3 4 1
5 4 5 2
6 4 8 1
7 5 6 1
8 6 7 2
9 8 9 2
10 9 10 1
11 9 25 1
12 10 11 1
13 11 12 2
14 11 16 1
15 12 13 1
16 12 25 1
17 13 14 2
18 14 15 1
19 15 16 2
20 15 24 1
21 16 17 1
22 17 18 1
23 18 19 1
24 18 23 1
25 19 20 1
26 20 21 1
27 21 22 1
28 22 23 1
29 25 26 2
30 3 27 1
31 5 28 1
32 6 29 1
33 7 30 1
34 8 31 1
35 13 32 1
36 14 33 1
37 17 34 1
38 17 35 1
39 18 36 1
40 19 37 1
41 19 38 1
42 20 39 1
43 20 40 1
44 22 41 1
45 22 42 1
46 23 43 1
47 23 44 1
@<TRIPOS>SUBSTRUCTURE
1	UNK0	1	GROUP	1 ****	UNK
# created with PyMOL 2.3.2
@<TRIPOS>MOLECULE
153
52 55 1                 
SMALL
USER_CHARGES
@<TRIPOS>ATOM
1	  Br	-2.553	-0.071	6.679	Br	1	UNK0	0.000	
2	   C	-2.272	-1.781	5.858	C.2	1	UNK0	0.000	
3	   C	-1.438	-1.932	4.751	C.2	1	UNK0	0.000	
4	   C	-1.296	-3.180	4.176	C.2	1	UNK0	0.000	
5	   C	-1.990	-4.237	4.737	C.2	1	UNK0	0.000	
6	   C	-2.793	-4.044	5.823	C.2	1	UNK0	0.000	
7	   C	-2.984	-2.830	6.429	C.2	1	UNK0	0.000	
8	   C	-0.562	-3.461	2.927	C.2	1	UNK0	0.000	
9	   N	0.273	-2.613	2.395	N.2	1	UNK0	0.000	
10	   N	0.965	-2.745	1.285	N.pl3	1	UNK0	0.000	
11	   C	2.097	-2.959	0.553	C.2	1	UNK0	0.000	
12	   O	3.251	-3.207	0.966	O.2	1	UNK0	0.000	
13	   C	1.907	-2.904	-0.956	C.2	1	UNK0	0.000	
14	   N	2.151	-3.769	-1.880	N.2	1	UNK0	0.000	
15	   N	1.634	-3.359	-3.034	N.2	1	UNK0	0.000	
16	   N	1.015	-2.166	-2.833	N.pl3	1	UNK0	0.000	
17	   C	1.174	-1.829	-1.596	C.2	1	UNK0	0.000	
18	   C	0.826	-0.676	-0.772	C.3	1	UNK0	0.000	
19	   N	1.233	0.623	-1.059	N.3	1	UNK0	0.000	
20	   C	1.034	1.502	-2.054	C.3	1	UNK0	0.000	
21	   C	0.113	2.637	-1.529	C.3	1	UNK0	0.000	
22	   N	-0.647	2.101	-0.457	N.3	1	UNK0	0.000	
23	   C	0.175	1.873	0.693	C.3	1	UNK0	0.000	
24	   C	1.537	1.370	0.198	C.3	1	UNK0	0.000	
25	   C	-1.945	2.574	-0.220	C.3	1	UNK0	0.000	
26	   C	0.004	-1.782	-3.807	C.2	1	UNK0	0.000	
27	   N	-1.158	-2.638	-3.797	N.2	1	UNK0	0.000	
28	   O	-1.991	-2.273	-4.651	O.3	1	UNK0	0.000	
29	   N	-1.530	-1.235	-5.279	N.2	1	UNK0	0.000	
30	   C	-0.280	-0.938	-4.737	C.2	1	UNK0	0.000	
31	   N	0.446	0.161	-5.239	N.pl3	1	UNK0	0.000	
32	   H	-0.927	-1.088	4.351	 H	1	UNK0	0.000	
33	   H	-1.856	-5.209	4.274	 H	1	UNK0	0.000	
34	   H	-3.338	-4.901	6.280	 H	1	UNK0	0.000	
35	   H	-3.633	-2.724	7.274	 H	1	UNK0	0.000	
36	   H	-0.757	-4.336	2.346	 H	1	UNK0	0.000	
37	   H	0.091	-2.699	0.430	 H	1	UNK0	0.000	
38	   H	-0.404	-0.671	-0.919	 H	1	UNK0	0.000	
39	   H	0.838	-0.847	0.308	 H	1	UNK0	0.000	
40	   H	0.720	1.199	-3.033	 H	1	UNK0	0.000	
41	   H	2.044	2.049	-2.254	 H	1	UNK0	0.000	
42	   H	0.722	3.457	-1.195	 H	1	UNK0	0.000	
43	   H	-0.550	2.895	-2.360	 H	1	UNK0	0.000	
44	   H	-0.232	1.099	1.414	 H	1	UNK0	0.000	
45	   H	0.289	2.800	1.265	 H	1	UNK0	0.000	
46	   H	2.073	0.764	0.882	 H	1	UNK0	0.000	
47	   H	2.134	2.213	-0.095	 H	1	UNK0	0.000	
48	   H	-2.168	3.371	-0.988	 H	1	UNK0	0.000	
49	   H	-2.671	1.722	-0.413	 H	1	UNK0	0.000	
50	   H	-2.095	2.986	0.778	 H	1	UNK0	0.000	
51	   H	-0.113	1.084	-5.193	 H	1	UNK0	0.000	
52	   H	1.367	0.242	-5.624	 H	1	UNK0	0.000	
@<TRIPOS>BOND
1 1 2 1
2 2 3 2
3 2 7 1
4 3 4 1
5 4 5 2
6 4 8 1
7 5 6 1
8 6 7 2
9 8 9 2
10 9 10 1
11 10 11 1
12 11 12 2
13 11 13 1
14 13 14 1
15 13 17 2
16 14 15 2
17 15 16 1
18 16 17 1
19 16 26 1
20 17 18 1
21 18 19 1
22 19 20 1
23 19 24 1
24 20 21 1
25 21 22 1
26 22 23 1
27 22 25 1
28 23 24 1
29 26 27 2
30 26 30 1
31 27 28 1
32 28 29 1
33 29 30 2
34 30 31 1
35 3 32 1
36 5 33 1
37 6 34 1
38 7 35 1
39 8 36 1
40 10 37 1
41 18 38 1
42 18 39 1
43 20 40 1
44 20 41 1
45 21 42 1
46 21 43 1
47 23 44 1
48 23 45 1
49 24 46 1
50 24 47 1
51 25 48 1
52 25 49 1
53 25 50 1
54 31 51 1
55 31 52 1
@<TRIPOS>SUBSTRUCTURE
1	UNK0	1	GROUP	1 ****	UNK
# created with PyMOL 2.3.2
@<TRIPOS>MOLECULE
156
50 53 1                 
SMALL
USER_CHARGES
@<TRIPOS>ATOM
1	  Br	4.755	0.405	6.620	Br	1	UNK0	0.000	
2	   C	2.982	0.118	5.955	C.2	1	UNK0	0.000	
3	   C	2.591	0.604	4.731	C.2	1	UNK0	0.000	
4	   C	1.322	0.423	4.209	C.2	1	UNK0	0.000	
5	   C	0.434	-0.288	4.987	C.2	1	UNK0	0.000	
6	   C	0.792	-0.797	6.233	C.2	1	UNK0	0.000	
7	   C	2.069	-0.589	6.710	C.2	1	UNK0	0.000	
8	   C	0.939	0.951	2.906	C.2	1	UNK0	0.000	
9	   N	1.726	1.613	2.153	N.2	1	UNK0	0.000	
10	   N	1.385	2.132	0.901	N.pl3	1	UNK0	0.000	
11	   C	0.590	1.392	-0.018	C.2	1	UNK0	0.000	
12	   N	0.280	1.914	-1.209	N.2	1	UNK0	0.000	
13	   C	-0.477	1.259	-2.133	C.2	1	UNK0	0.000	
14	   N	-0.904	0.030	-1.771	N.2	1	UNK0	0.000	
15	   C	-0.626	-0.548	-0.590	C.2	1	UNK0	0.000	
16	   N	0.133	0.175	0.270	N.2	1	UNK0	0.000	
17	   N	-1.083	-1.829	-0.238	N.pl3	1	UNK0	0.000	
18	   C	-1.890	-2.623	-1.125	C.3	1	UNK0	0.000	
19	   C	-1.417	-4.071	-0.938	C.3	1	UNK0	0.000	
20	   O	-0.090	-4.095	-0.516	O.3	1	UNK0	0.000	
21	   C	0.102	-3.632	0.761	C.3	1	UNK0	0.000	
22	   C	-0.748	-2.385	1.042	C.3	1	UNK0	0.000	
23	   N	-0.791	1.831	-3.385	N.pl3	1	UNK0	0.000	
24	   C	-0.318	3.142	-3.733	C.3	1	UNK0	0.000	
25	   C	0.412	3.010	-5.065	C.3	1	UNK0	0.000	
26	   O	-0.525	2.531	-5.977	O.3	1	UNK0	0.000	
27	   C	-0.907	1.230	-5.704	C.3	1	UNK0	0.000	
28	   C	-1.591	1.121	-4.345	C.3	1	UNK0	0.000	
29	   H	3.291	1.167	4.111	 H	1	UNK0	0.000	
30	   H	-0.583	-0.471	4.642	 H	1	UNK0	0.000	
31	   H	0.098	-1.355	6.848	 H	1	UNK0	0.000	
32	   H	2.325	-0.991	7.674	 H	1	UNK0	0.000	
33	   H	-0.070	0.770	2.565	 H	1	UNK0	0.000	
34	   H	1.731	3.082	0.653	 H	1	UNK0	0.000	
35	   H	-1.799	-2.316	-2.185	 H	1	UNK0	0.000	
36	   H	-2.929	-2.590	-0.756	 H	1	UNK0	0.000	
37	   H	-1.443	-4.533	-1.937	 H	1	UNK0	0.000	
38	   H	-2.061	-4.620	-0.242	 H	1	UNK0	0.000	
39	   H	-0.012	-4.379	1.548	 H	1	UNK0	0.000	
40	   H	1.169	-3.265	0.823	 H	1	UNK0	0.000	
41	   H	-0.186	-1.648	1.622	 H	1	UNK0	0.000	
42	   H	-1.676	-2.724	1.594	 H	1	UNK0	0.000	
43	   H	0.319	3.601	-2.961	 H	1	UNK0	0.000	
44	   H	-1.225	3.769	-3.953	 H	1	UNK0	0.000	
45	   H	1.171	2.222	-4.930	 H	1	UNK0	0.000	
46	   H	0.811	3.962	-5.419	 H	1	UNK0	0.000	
47	   H	0.022	0.609	-5.736	 H	1	UNK0	0.000	
48	   H	-1.608	0.916	-6.502	 H	1	UNK0	0.000	
49	   H	-2.569	1.635	-4.449	 H	1	UNK0	0.000	
50	   H	-1.727	0.054	-4.106	 H	1	UNK0	0.000	
@<TRIPOS>BOND
1 1 2 1
2 2 3 2
3 2 7 1
4 3 4 1
5 4 5 2
6 4 8 1
7 5 6 1
8 6 7 2
9 8 9 2
10 9 10 1
11 10 11 1
12 11 12 2
13 11 16 1
14 12 13 1
15 13 14 2
16 13 23 1
17 14 15 1
18 15 16 2
19 15 17 1
20 17 18 1
21 17 22 1
22 18 19 1
23 19 20 1
24 20 21 1
25 21 22 1
26 23 24 1
27 23 28 1
28 24 25 1
29 25 26 1
30 26 27 1
31 27 28 1
32 3 29 1
33 5 30 1
34 6 31 1
35 7 32 1
36 8 33 1
37 10 34 1
38 18 35 1
39 18 36 1
40 19 37 1
41 19 38 1
42 21 39 1
43 21 40 1
44 22 41 1
45 22 42 1
46 24 43 1
47 24 44 1
48 25 45 1
49 25 46 1
50 27 47 1
51 27 48 1
52 28 49 1
53 28 50 1
@<TRIPOS>SUBSTRUCTURE
1	UNK0	1	GROUP	1 ****	UNK
# created with PyMOL 2.3.2
@<TRIPOS>MOLECULE
167
61 64 1                 
SMALL
USER_CHARGES
@<TRIPOS>ATOM
1	  Br	2.367	1.346	-5.455	Br	1	UNK0	0.000	
2	   C	1.096	1.021	-4.068	C.2	1	UNK0	0.000	
3	   C	1.338	1.250	-2.748	C.2	1	UNK0	0.000	
4	   C	0.445	1.027	-1.714	C.2	1	UNK0	0.000	
5	   C	-0.809	0.526	-2.053	C.2	1	UNK0	0.000	
6	   C	-1.089	0.283	-3.384	C.2	1	UNK0	0.000	
7	   C	-0.173	0.516	-4.395	C.2	1	UNK0	0.000	
8	   C	0.882	1.310	-0.343	C.3	1	UNK0	0.000	
9	   N	0.020	2.242	0.282	N.pl3	1	UNK0	0.000	
10	   C	-0.664	1.616	1.355	C.2	1	UNK0	0.000	
11	   O	-1.576	2.159	2.053	O.2	1	UNK0	0.000	
12	   C	-0.142	0.276	1.514	C.2	1	UNK0	0.000	
13	   O	-0.581	-0.505	2.401	O.2	1	UNK0	0.000	
14	   C	0.884	0.090	0.506	C.2	1	UNK0	0.000	
15	   C	1.613	-0.995	0.375	C.2	1	UNK0	0.000	
16	   O	2.510	-1.078	-0.665	O.2	1	UNK0	0.000	
17	   C	1.495	-2.092	1.303	C.2	1	UNK0	0.000	
18	   C	1.267	-3.425	0.918	C.2	1	UNK0	0.000	
19	   N	1.247	-4.199	2.010	N.pl3	1	UNK0	0.000	
20	   N	1.451	-3.409	3.048	N.2	1	UNK0	0.000	
21	   C	1.607	-2.133	2.665	C.2	1	UNK0	0.000	
22	   C	1.059	-5.606	2.064	C.2	1	UNK0	0.000	
23	   C	2.177	-6.429	2.089	C.2	1	UNK0	0.000	
24	   C	2.069	-7.804	2.152	C.2	1	UNK0	0.000	
25	   C	0.820	-8.425	2.194	C.2	1	UNK0	0.000	
26	   C	-0.294	-7.605	2.169	C.2	1	UNK0	0.000	
27	   C	-0.160	-6.242	2.106	C.2	1	UNK0	0.000	
28	   C	1.085	-3.861	-0.497	C.3	1	UNK0	0.000	
29	   C	-0.157	3.677	-0.078	C.3	1	UNK0	0.000	
30	   C	-1.305	3.818	-1.044	C.3	1	UNK0	0.000	
31	   C	-1.582	5.234	-1.439	C.3	1	UNK0	0.000	
32	   N	-1.908	6.132	-0.381	N.4	1	UNK0	0.000	
33	   C	-2.448	5.549	0.803	C.3	1	UNK0	0.000	
34	   C	-0.720	6.909	0.008	C.3	1	UNK0	0.000	
35	   H	2.346	1.645	-2.514	 H	1	UNK0	0.000	
36	   H	-1.528	0.337	-1.277	 H	1	UNK0	0.000	
37	   H	-2.076	-0.110	-3.645	 H	1	UNK0	0.000	
38	   H	-0.390	0.324	-5.440	 H	1	UNK0	0.000	
39	   H	1.910	1.754	-0.381	 H	1	UNK0	0.000	
40	   H	1.804	-1.279	3.316	 H	1	UNK0	0.000	
41	   H	3.153	-5.915	2.056	 H	1	UNK0	0.000	
42	   H	2.961	-8.418	2.174	 H	1	UNK0	0.000	
43	   H	0.763	-9.515	2.241	 H	1	UNK0	0.000	
44	   H	-1.264	-8.105	2.201	 H	1	UNK0	0.000	
45	   H	-1.057	-5.640	2.092	 H	1	UNK0	0.000	
46	   H	1.768	-3.292	-1.173	 H	1	UNK0	0.000	
47	   H	0.028	-3.802	-0.815	 H	1	UNK0	0.000	
48	   H	1.392	-4.930	-0.603	 H	1	UNK0	0.000	
49	   H	-0.262	4.286	0.838	 H	1	UNK0	0.000	
50	   H	0.766	3.983	-0.650	 H	1	UNK0	0.000	
51	   H	-0.927	3.324	-1.991	 H	1	UNK0	0.000	
52	   H	-2.179	3.227	-0.765	 H	1	UNK0	0.000	
53	   H	-2.435	5.283	-2.187	 H	1	UNK0	0.000	
54	   H	-0.697	5.645	-2.009	 H	1	UNK0	0.000	
55	   H	-2.593	6.866	-0.736	 H	1	UNK0	0.000	
56	   H	-1.863	5.832	1.720	 H	1	UNK0	0.000	
57	   H	-2.646	4.460	0.770	 H	1	UNK0	0.000	
58	   H	-3.463	6.010	0.986	 H	1	UNK0	0.000	
59	   H	-0.885	7.992	-0.116	 H	1	UNK0	0.000	
60	   H	0.109	6.590	-0.663	 H	1	UNK0	0.000	
61	   H	-0.408	6.638	1.042	 H	1	UNK0	0.000	
@<TRIPOS>BOND
1 1 2 1
2 2 3 2
3 2 7 1
4 3 4 1
5 4 5 2
6 4 8 1
7 5 6 1
8 6 7 2
9 8 9 1
10 8 14 1
11 9 10 1
12 9 29 1
13 10 11 2
14 10 12 1
15 12 13 2
16 12 14 1
17 14 15 2
18 15 16 1
19 15 17 1
20 17 18 2
21 17 21 1
22 18 19 1
23 18 28 1
24 19 20 1
25 19 22 1
26 20 21 2
27 22 23 2
28 22 27 1
29 23 24 1
30 24 25 2
31 25 26 1
32 26 27 2
33 29 30 1
34 30 31 1
35 31 32 1
36 32 33 1
37 32 34 1
38 3 35 1
39 5 36 1
40 6 37 1
41 7 38 1
42 8 39 1
43 21 40 1
44 23 41 1
45 24 42 1
46 25 43 1
47 26 44 1
48 27 45 1
49 28 46 1
50 28 47 1
51 28 48 1
52 29 49 1
53 29 50 1
54 30 51 1
55 30 52 1
56 31 53 1
57 31 54 1
58 32 55 1
59 33 56 1
60 33 57 1
61 33 58 1
62 34 59 1
63 34 60 1
64 34 61 1
@<TRIPOS>SUBSTRUCTURE
1	UNK0	1	GROUP	1 ****	UNK
# created with PyMOL 2.3.2
@<TRIPOS>MOLECULE
169
63 66 1                 
SMALL
USER_CHARGES
@<TRIPOS>ATOM
1	  Br	2.237	5.847	-3.226	Br	1	UNK0	0.000	
2	   C	2.500	3.976	-3.487	C.2	1	UNK0	0.000	
3	   C	2.088	3.085	-2.519	C.2	1	UNK0	0.000	
4	   C	2.257	1.714	-2.662	C.2	1	UNK0	0.000	
5	   C	2.865	1.304	-3.839	C.2	1	UNK0	0.000	
6	   C	3.280	2.187	-4.813	C.2	1	UNK0	0.000	
7	   C	3.102	3.543	-4.648	C.2	1	UNK0	0.000	
8	   C	1.803	0.761	-1.621	C.3	1	UNK0	0.000	
9	   N	1.243	-0.403	-2.280	N.pl3	1	UNK0	0.000	
10	   C	-0.047	-0.020	-2.734	C.2	1	UNK0	0.000	
11	   O	-0.694	-0.508	-3.687	O.2	1	UNK0	0.000	
12	   C	-0.497	1.086	-1.860	C.2	1	UNK0	0.000	
13	   O	-1.582	1.705	-1.917	O.2	1	UNK0	0.000	
14	   C	0.589	1.300	-0.913	C.2	1	UNK0	0.000	
15	   C	0.472	1.802	0.278	C.2	1	UNK0	0.000	
16	   O	1.628	1.876	1.083	O.2	1	UNK0	0.000	
17	   C	-0.758	2.308	0.870	C.2	1	UNK0	0.000	
18	   C	-1.565	3.359	0.591	C.2	1	UNK0	0.000	
19	   N	-2.613	3.323	1.440	N.pl3	1	UNK0	0.000	
20	   C	-2.525	2.281	2.276	C.2	1	UNK0	0.000	
21	   C	-1.370	1.626	1.941	C.2	1	UNK0	0.000	
22	   C	-0.852	0.393	2.607	C.3	1	UNK0	0.000	
23	   C	-3.478	1.912	3.342	C.2	1	UNK0	0.000	
24	   O	-3.252	0.909	4.035	O.co2	1	UNK0	0.000	
25	   O	-4.610	2.671	3.570	O.3	1	UNK0	0.000	
26	   C	-5.561	2.379	4.568	C.3	1	UNK0	0.000	
27	   C	-1.355	4.436	-0.434	C.3	1	UNK0	0.000	
28	   C	1.869	-1.717	-2.448	C.3	1	UNK0	0.000	
29	   C	1.553	-2.625	-1.280	C.3	1	UNK0	0.000	
30	   N	0.160	-2.873	-1.099	N.4	1	UNK0	0.000	
31	   C	-0.408	-2.219	0.074	C.3	1	UNK0	0.000	
32	   C	-1.901	-2.178	-0.109	C.3	1	UNK0	0.000	
33	   O	-2.281	-3.171	-0.977	O.3	1	UNK0	0.000	
34	   C	-1.653	-4.386	-0.766	C.3	1	UNK0	0.000	
35	   C	-0.137	-4.290	-0.930	C.3	1	UNK0	0.000	
36	   H	1.621	3.431	-1.603	 H	1	UNK0	0.000	
37	   H	3.008	0.233	-3.973	 H	1	UNK0	0.000	
38	   H	3.756	1.849	-5.731	 H	1	UNK0	0.000	
39	   H	3.429	4.256	-5.419	 H	1	UNK0	0.000	
40	   H	2.602	0.508	-0.902	 H	1	UNK0	0.000	
41	   H	-3.400	4.035	1.439	 H	1	UNK0	0.000	
42	   H	-0.836	0.520	3.709	 H	1	UNK0	0.000	
43	   H	0.193	0.230	2.295	 H	1	UNK0	0.000	
44	   H	-1.467	-0.492	2.388	 H	1	UNK0	0.000	
45	   H	-5.093	2.053	5.524	 H	1	UNK0	0.000	
46	   H	-6.316	1.629	4.211	 H	1	UNK0	0.000	
47	   H	-6.127	3.330	4.749	 H	1	UNK0	0.000	
48	   H	-2.035	4.313	-1.294	 H	1	UNK0	0.000	
49	   H	-0.305	4.452	-0.758	 H	1	UNK0	0.000	
50	   H	-1.599	5.399	0.117	 H	1	UNK0	0.000	
51	   H	1.519	-2.205	-3.381	 H	1	UNK0	0.000	
52	   H	2.976	-1.613	-2.467	 H	1	UNK0	0.000	
53	   H	2.013	-2.168	-0.353	 H	1	UNK0	0.000	
54	   H	2.059	-3.600	-1.389	 H	1	UNK0	0.000	
55	   H	-0.354	-2.582	-1.950	 H	1	UNK0	0.000	
56	   H	-0.209	-2.912	0.942	 H	1	UNK0	0.000	
57	   H	0.053	-1.264	0.317	 H	1	UNK0	0.000	
58	   H	-2.465	-2.270	0.836	 H	1	UNK0	0.000	
59	   H	-2.208	-1.200	-0.565	 H	1	UNK0	0.000	
60	   H	-2.013	-5.063	-1.593	 H	1	UNK0	0.000	
61	   H	-1.933	-4.870	0.191	 H	1	UNK0	0.000	
62	   H	0.230	-4.904	-1.753	 H	1	UNK0	0.000	
63	   H	0.305	-4.626	0.044	 H	1	UNK0	0.000	
@<TRIPOS>BOND
1 1 2 1
2 2 3 2
3 2 7 1
4 3 4 1
5 4 5 2
6 4 8 1
7 5 6 1
8 6 7 2
9 8 9 1
10 8 14 1
11 9 10 1
12 9 28 1
13 10 11 2
14 10 12 1
15 12 13 2
16 12 14 1
17 14 15 2
18 15 16 1
19 15 17 1
20 17 18 2
21 17 21 1
22 18 19 1
23 18 27 1
24 19 20 1
25 20 21 2
26 20 23 1
27 21 22 1
28 23 24 2
29 23 25 1
30 25 26 1
31 28 29 1
32 29 30 1
33 30 31 1
34 30 35 1
35 31 32 1
36 32 33 1
37 33 34 1
38 34 35 1
39 3 36 1
40 5 37 1
41 6 38 1
42 7 39 1
43 8 40 1
44 19 41 1
45 22 42 1
46 22 43 1
47 22 44 1
48 26 45 1
49 26 46 1
50 26 47 1
51 27 48 1
52 27 49 1
53 27 50 1
54 28 51 1
55 28 52 1
56 29 53 1
57 29 54 1
58 30 55 1
59 31 56 1
60 31 57 1
61 32 58 1
62 32 59 1
63 34 60 1
64 34 61 1
65 35 62 1
66 35 63 1
@<TRIPOS>SUBSTRUCTURE
1	UNK0	1	GROUP	1 ****	UNK
# created with PyMOL 2.3.2
@<TRIPOS>MOLECULE
170
63 66 1                 
SMALL
USER_CHARGES
@<TRIPOS>ATOM
1	  Br	-1.898	5.473	-2.543	Br	1	UNK0	0.000	
2	   C	-2.080	3.621	-2.951	C.2	1	UNK0	0.000	
3	   C	-1.390	2.666	-2.213	C.2	1	UNK0	0.000	
4	   C	-1.512	1.324	-2.494	C.2	1	UNK0	0.000	
5	   C	-2.334	0.935	-3.528	C.2	1	UNK0	0.000	
6	   C	-3.022	1.879	-4.264	C.2	1	UNK0	0.000	
7	   C	-2.907	3.225	-3.990	C.2	1	UNK0	0.000	
8	   C	-0.790	0.295	-1.725	C.3	1	UNK0	0.000	
9	   N	0.597	0.636	-1.477	N.pl3	1	UNK0	0.000	
10	   C	0.734	1.310	-0.245	C.2	1	UNK0	0.000	
11	   O	1.662	2.030	0.205	O.2	1	UNK0	0.000	
12	   C	-0.506	1.012	0.515	C.2	1	UNK0	0.000	
13	   O	-0.732	1.444	1.663	O.2	1	UNK0	0.000	
14	   C	-1.329	0.163	-0.327	C.2	1	UNK0	0.000	
15	   C	-2.309	-0.602	0.080	C.2	1	UNK0	0.000	
16	   O	-2.969	-1.424	-0.850	O.2	1	UNK0	0.000	
17	   C	-2.746	-0.631	1.450	C.2	1	UNK0	0.000	
18	   C	-2.697	-1.872	2.102	C.2	1	UNK0	0.000	
19	   C	-3.131	-2.001	3.392	C.2	1	UNK0	0.000	
20	   C	-3.635	-0.923	4.109	C.2	1	UNK0	0.000	
21	   C	-3.674	0.270	3.457	C.2	1	UNK0	0.000	
22	   C	-3.241	0.418	2.155	C.2	1	UNK0	0.000	
23	   O	-4.052	-1.136	5.407	O.3	1	UNK0	0.000	
24	   C	-4.575	-0.072	6.188	C.3	1	UNK0	0.000	
25	   C	-3.072	-3.334	4.073	C.3	1	UNK0	0.000	
26	   C	1.732	0.329	-2.362	C.3	1	UNK0	0.000	
27	   C	2.293	-1.024	-2.022	C.3	1	UNK0	0.000	
28	   C	2.802	-1.165	-0.628	C.3	1	UNK0	0.000	
29	   N	3.885	-0.260	-0.310	N.4	1	UNK0	0.000	
30	   C	3.986	-0.021	1.116	C.3	1	UNK0	0.000	
31	   C	5.286	-0.552	1.657	C.3	1	UNK0	0.000	
32	   O	6.332	0.139	1.012	O.3	1	UNK0	0.000	
33	   C	6.336	-0.144	-0.352	C.3	1	UNK0	0.000	
34	   C	5.116	-0.868	-0.824	C.3	1	UNK0	0.000	
35	   H	-0.753	2.977	-1.412	 H	1	UNK0	0.000	
36	   H	-2.472	-0.107	-3.799	 H	1	UNK0	0.000	
37	   H	-3.664	1.560	-5.072	 H	1	UNK0	0.000	
38	   H	-3.444	3.963	-4.567	 H	1	UNK0	0.000	
39	   H	-0.775	-0.688	-2.244	 H	1	UNK0	0.000	
40	   H	-2.304	-2.747	1.562	 H	1	UNK0	0.000	
41	   H	-4.062	1.138	3.984	 H	1	UNK0	0.000	
42	   H	-3.319	1.395	1.652	 H	1	UNK0	0.000	
43	   H	-5.071	-0.431	7.097	 H	1	UNK0	0.000	
44	   H	-5.273	0.574	5.601	 H	1	UNK0	0.000	
45	   H	-3.751	0.618	6.521	 H	1	UNK0	0.000	
46	   H	-3.672	-4.021	3.425	 H	1	UNK0	0.000	
47	   H	-3.552	-3.287	5.047	 H	1	UNK0	0.000	
48	   H	-2.027	-3.703	4.170	 H	1	UNK0	0.000	
49	   H	2.509	1.108	-2.278	 H	1	UNK0	0.000	
50	   H	1.328	0.266	-3.409	 H	1	UNK0	0.000	
51	   H	1.518	-1.828	-2.157	 H	1	UNK0	0.000	
52	   H	3.149	-1.279	-2.704	 H	1	UNK0	0.000	
53	   H	3.126	-2.232	-0.509	 H	1	UNK0	0.000	
54	   H	2.021	-1.014	0.143	 H	1	UNK0	0.000	
55	   H	3.814	0.658	-0.797	 H	1	UNK0	0.000	
56	   H	3.164	-0.522	1.668	 H	1	UNK0	0.000	
57	   H	3.993	1.088	1.331	 H	1	UNK0	0.000	
58	   H	5.390	-0.340	2.723	 H	1	UNK0	0.000	
59	   H	5.393	-1.644	1.490	 H	1	UNK0	0.000	
60	   H	6.428	0.792	-0.942	 H	1	UNK0	0.000	
61	   H	7.215	-0.803	-0.562	 H	1	UNK0	0.000	
62	   H	5.060	-0.693	-1.939	 H	1	UNK0	0.000	
63	   H	5.136	-1.959	-0.658	 H	1	UNK0	0.000	
@<TRIPOS>BOND
1 1 2 1
2 2 3 2
3 2 7 1
4 3 4 1
5 4 5 2
6 4 8 1
7 5 6 1
8 6 7 2
9 8 9 1
10 8 14 1
11 9 10 1
12 9 26 1
13 10 11 2
14 10 12 1
15 12 13 2
16 12 14 1
17 14 15 2
18 15 16 1
19 15 17 1
20 17 18 2
21 17 22 1
22 18 19 1
23 19 20 2
24 19 25 1
25 20 21 1
26 20 23 1
27 21 22 2
28 23 24 1
29 26 27 1
30 27 28 1
31 28 29 1
32 29 30 1
33 29 34 1
34 30 31 1
35 31 32 1
36 32 33 1
37 33 34 1
38 3 35 1
39 5 36 1
40 6 37 1
41 7 38 1
42 8 39 1
43 18 40 1
44 21 41 1
45 22 42 1
46 24 43 1
47 24 44 1
48 24 45 1
49 25 46 1
50 25 47 1
51 25 48 1
52 26 49 1
53 26 50 1
54 27 51 1
55 27 52 1
56 28 53 1
57 28 54 1
58 29 55 1
59 30 56 1
60 30 57 1
61 31 58 1
62 31 59 1
63 33 60 1
64 33 61 1
65 34 62 1
66 34 63 1
@<TRIPOS>SUBSTRUCTURE
1	UNK0	1	GROUP	1 ****	UNK
# created with PyMOL 2.3.2
@<TRIPOS>MOLECULE
175
56 59 1                 
SMALL
USER_CHARGES
@<TRIPOS>ATOM
1	  Br	-3.083	0.093	-4.215	Br	1	UNK0	0.000	
2	   C	-1.435	0.762	-3.519	C.2	1	UNK0	0.000	
3	   C	-1.062	0.525	-2.200	C.2	1	UNK0	0.000	
4	   C	0.121	0.994	-1.668	C.2	1	UNK0	0.000	
5	   C	0.934	1.726	-2.522	C.2	1	UNK0	0.000	
6	   C	0.583	1.973	-3.832	C.2	1	UNK0	0.000	
7	   C	-0.604	1.485	-4.316	C.2	1	UNK0	0.000	
8	   C	0.518	0.738	-0.255	C.3	1	UNK0	0.000	
9	   N	0.306	-0.621	0.145	N.pl3	1	UNK0	0.000	
10	   C	-1.011	-0.681	0.671	C.2	1	UNK0	0.000	
11	   O	-1.697	-1.723	0.818	O.2	1	UNK0	0.000	
12	   C	-1.457	0.687	1.026	C.2	1	UNK0	0.000	
13	   O	-2.547	1.030	1.514	O.2	1	UNK0	0.000	
14	   C	-0.342	1.548	0.680	C.2	1	UNK0	0.000	
15	   C	-0.089	2.761	1.120	C.2	1	UNK0	0.000	
16	   O	1.065	3.406	0.729	O.2	1	UNK0	0.000	
17	   C	-0.994	3.450	2.004	C.2	1	UNK0	0.000	
18	   C	-2.301	3.754	1.755	C.2	1	UNK0	0.000	
19	   C	-3.068	4.386	2.716	C.2	1	UNK0	0.000	
20	   C	-2.589	4.746	3.955	C.2	1	UNK0	0.000	
21	   C	-1.268	4.439	4.205	C.2	1	UNK0	0.000	
22	   C	-0.489	3.812	3.264	C.2	1	UNK0	0.000	
23	   C	-3.437	5.427	4.973	C.3	1	UNK0	0.000	
24	   C	1.240	-1.760	0.044	C.3	1	UNK0	0.000	
25	   C	1.013	-2.406	-1.294	C.3	1	UNK0	0.000	
26	   N	1.831	-3.531	-1.570	N.4	1	UNK0	0.000	
27	   C	2.467	-4.141	-0.439	C.3	1	UNK0	0.000	
28	   C	1.674	-5.252	0.193	C.3	1	UNK0	0.000	
29	   O	1.066	-6.088	-0.717	O.3	1	UNK0	0.000	
30	   C	0.245	-5.407	-1.585	C.3	1	UNK0	0.000	
31	   C	1.103	-4.467	-2.389	C.3	1	UNK0	0.000	
32	   H	-1.727	-0.042	-1.599	 H	1	UNK0	0.000	
33	   H	1.867	2.115	-2.158	 H	1	UNK0	0.000	
34	   H	1.240	2.547	-4.471	 H	1	UNK0	0.000	
35	   H	-0.884	1.679	-5.354	 H	1	UNK0	0.000	
36	   H	1.576	0.976	-0.145	 H	1	UNK0	0.000	
37	   H	-2.699	3.510	0.775	 H	1	UNK0	0.000	
38	   H	-4.103	4.615	2.492	 H	1	UNK0	0.000	
39	   H	-0.877	4.723	5.188	 H	1	UNK0	0.000	
40	   H	0.544	3.599	3.526	 H	1	UNK0	0.000	
41	   H	-4.513	5.116	4.888	 H	1	UNK0	0.000	
42	   H	-3.132	5.066	5.999	 H	1	UNK0	0.000	
43	   H	-3.325	6.511	4.975	 H	1	UNK0	0.000	
44	   H	2.282	-1.366	0.049	 H	1	UNK0	0.000	
45	   H	1.005	-2.396	0.899	 H	1	UNK0	0.000	
46	   H	1.123	-1.581	-2.058	 H	1	UNK0	0.000	
47	   H	-0.071	-2.674	-1.340	 H	1	UNK0	0.000	
48	   H	2.615	-3.185	-2.201	 H	1	UNK0	0.000	
49	   H	2.692	-3.410	0.364	 H	1	UNK0	0.000	
50	   H	3.449	-4.578	-0.726	 H	1	UNK0	0.000	
51	   H	2.377	-5.885	0.796	 H	1	UNK0	0.000	
52	   H	0.914	-4.900	0.910	 H	1	UNK0	0.000	
53	   H	-0.604	-4.899	-1.089	 H	1	UNK0	0.000	
54	   H	-0.193	-6.139	-2.294	 H	1	UNK0	0.000	
55	   H	0.503	-3.859	-3.109	 H	1	UNK0	0.000	
56	   H	1.794	-5.080	-3.005	 H	1	UNK0	0.000	
@<TRIPOS>BOND
1 1 2 1
2 2 3 2
3 2 7 1
4 3 4 1
5 4 5 2
6 4 8 1
7 5 6 1
8 6 7 2
9 8 9 1
10 8 14 1
11 9 10 1
12 9 24 1
13 10 11 2
14 10 12 1
15 12 13 2
16 12 14 1
17 14 15 2
18 15 16 1
19 15 17 1
20 17 18 2
21 17 22 1
22 18 19 1
23 19 20 2
24 20 21 1
25 20 23 1
26 21 22 2
27 24 25 1
28 25 26 1
29 26 27 1
30 26 31 1
31 27 28 1
32 28 29 1
33 29 30 1
34 30 31 1
35 3 32 1
36 5 33 1
37 6 34 1
38 7 35 1
39 8 36 1
40 18 37 1
41 19 38 1
42 21 39 1
43 22 40 1
44 23 41 1
45 23 42 1
46 23 43 1
47 24 44 1
48 24 45 1
49 25 46 1
50 25 47 1
51 26 48 1
52 27 49 1
53 27 50 1
54 28 51 1
55 28 52 1
56 30 53 1
57 30 54 1
58 31 55 1
59 31 56 1
@<TRIPOS>SUBSTRUCTURE
1	UNK0	1	GROUP	1 ****	UNK
# created with PyMOL 2.3.2
@<TRIPOS>MOLECULE
176
56 59 1                 
SMALL
USER_CHARGES
@<TRIPOS>ATOM
1	  Br	-4.594	-4.151	-1.863	Br	1	UNK0	0.000	
2	   C	-3.437	-2.745	-2.406	C.2	1	UNK0	0.000	
3	   C	-2.355	-2.328	-1.643	C.2	1	UNK0	0.000	
4	   C	-1.524	-1.306	-2.042	C.2	1	UNK0	0.000	
5	   C	-1.789	-0.693	-3.230	C.2	1	UNK0	0.000	
6	   C	-2.878	-1.106	-4.010	C.2	1	UNK0	0.000	
7	   C	-3.708	-2.128	-3.609	C.2	1	UNK0	0.000	
8	   C	-0.378	-0.900	-1.190	C.3	1	UNK0	0.000	
9	   N	0.800	-0.642	-2.002	N.pl3	1	UNK0	0.000	
10	   C	0.795	0.767	-2.312	C.2	1	UNK0	0.000	
11	   O	1.450	1.297	-3.243	O.2	1	UNK0	0.000	
12	   C	-0.088	1.407	-1.360	C.2	1	UNK0	0.000	
13	   O	-0.387	2.639	-1.271	O.2	1	UNK0	0.000	
14	   C	-0.608	0.371	-0.478	C.2	1	UNK0	0.000	
15	   C	-1.193	0.582	0.692	C.2	1	UNK0	0.000	
16	   O	-1.658	-0.591	1.323	O.2	1	UNK0	0.000	
17	   C	-1.361	1.885	1.314	C.2	1	UNK0	0.000	
18	   C	-0.370	2.824	1.475	C.2	1	UNK0	0.000	
19	   C	-0.597	4.061	2.044	C.2	1	UNK0	0.000	
20	   C	-1.854	4.409	2.484	C.2	1	UNK0	0.000	
21	   C	-2.862	3.478	2.331	C.2	1	UNK0	0.000	
22	   C	-2.625	2.243	1.760	C.2	1	UNK0	0.000	
23	  Cl	-2.170	5.986	3.215	Cl	1	UNK0	0.000	
24	   C	1.714	-1.628	-2.481	C.3	1	UNK0	0.000	
25	   C	2.997	-1.823	-1.783	C.3	1	UNK0	0.000	
26	   C	3.016	-2.216	-0.353	C.3	1	UNK0	0.000	
27	   N	2.503	-1.298	0.607	N.4	1	UNK0	0.000	
28	   C	1.729	-1.983	1.611	C.3	1	UNK0	0.000	
29	   C	2.539	-2.372	2.830	C.3	1	UNK0	0.000	
30	   O	2.973	-1.227	3.502	O.3	1	UNK0	0.000	
31	   C	3.056	-0.140	2.630	C.3	1	UNK0	0.000	
32	   C	3.635	-0.651	1.340	C.3	1	UNK0	0.000	
33	   H	-2.166	-2.827	-0.708	 H	1	UNK0	0.000	
34	   H	-1.171	0.104	-3.580	 H	1	UNK0	0.000	
35	   H	-3.090	-0.629	-4.946	 H	1	UNK0	0.000	
36	   H	-4.558	-2.453	-4.214	 H	1	UNK0	0.000	
37	   H	-0.127	-1.740	-0.510	 H	1	UNK0	0.000	
38	   H	0.635	2.589	1.165	 H	1	UNK0	0.000	
39	   H	0.186	4.798	2.168	 H	1	UNK0	0.000	
40	   H	-3.844	3.770	2.684	 H	1	UNK0	0.000	
41	   H	-3.428	1.517	1.646	 H	1	UNK0	0.000	
42	   H	1.940	-1.337	-3.561	 H	1	UNK0	0.000	
43	   H	1.147	-2.625	-2.531	 H	1	UNK0	0.000	
44	   H	3.678	-0.900	-1.924	 H	1	UNK0	0.000	
45	   H	3.605	-2.636	-2.330	 H	1	UNK0	0.000	
46	   H	4.059	-2.478	-0.017	 H	1	UNK0	0.000	
47	   H	2.445	-3.196	-0.210	 H	1	UNK0	0.000	
48	   H	2.019	-0.509	0.186	 H	1	UNK0	0.000	
49	   H	1.281	-2.904	1.182	 H	1	UNK0	0.000	
50	   H	0.899	-1.338	1.949	 H	1	UNK0	0.000	
51	   H	3.378	-3.024	2.516	 H	1	UNK0	0.000	
52	   H	1.895	-2.947	3.497	 H	1	UNK0	0.000	
53	   H	2.037	0.257	2.489	 H	1	UNK0	0.000	
54	   H	3.697	0.634	3.105	 H	1	UNK0	0.000	
55	   H	4.396	-1.437	1.524	 H	1	UNK0	0.000	
56	   H	4.009	0.187	0.722	 H	1	UNK0	0.000	
@<TRIPOS>BOND
1 1 2 1
2 2 3 2
3 2 7 1
4 3 4 1
5 4 5 2
6 4 8 1
7 5 6 1
8 6 7 2
9 8 9 1
10 8 14 1
11 9 10 1
12 9 24 1
13 10 11 2
14 10 12 1
15 12 13 2
16 12 14 1
17 14 15 2
18 15 16 1
19 15 17 1
20 17 18 2
21 17 22 1
22 18 19 1
23 19 20 2
24 20 21 1
25 20 23 1
26 21 22 2
27 24 25 1
28 25 26 1
29 26 27 1
30 27 28 1
31 27 32 1
32 28 29 1
33 29 30 1
34 30 31 1
35 31 32 1
36 3 33 1
37 5 34 1
38 6 35 1
39 7 36 1
40 8 37 1
41 18 38 1
42 19 39 1
43 21 40 1
44 22 41 1
45 24 42 1
46 24 43 1
47 25 44 1
48 25 45 1
49 26 46 1
50 26 47 1
51 27 48 1
52 28 49 1
53 28 50 1
54 29 51 1
55 29 52 1
56 31 53 1
57 31 54 1
58 32 55 1
59 32 56 1
@<TRIPOS>SUBSTRUCTURE
1	UNK0	1	GROUP	1 ****	UNK
# created with PyMOL 2.3.2
@<TRIPOS>MOLECULE
182
62 66 1                 
SMALL
USER_CHARGES
@<TRIPOS>ATOM
1	  Br	-0.856	0.890	-6.671	Br	1	UNK0	0.000	
2	   C	-0.384	0.066	-5.007	C.2	1	UNK0	0.000	
3	   C	-0.104	0.825	-3.901	C.2	1	UNK0	0.000	
4	   C	0.249	0.271	-2.654	C.2	1	UNK0	0.000	
5	   C	0.282	-1.106	-2.660	C.2	1	UNK0	0.000	
6	   C	0.005	-1.889	-3.760	C.2	1	UNK0	0.000	
7	   C	-0.335	-1.301	-4.957	C.2	1	UNK0	0.000	
8	   C	0.512	1.143	-1.549	C.3	1	UNK0	0.000	
9	   N	1.722	1.044	-0.810	N.pl3	1	UNK0	0.000	
10	   C	1.538	2.017	0.271	C.2	1	UNK0	0.000	
11	   O	2.438	2.629	0.868	O.2	1	UNK0	0.000	
12	   C	0.086	2.112	0.495	C.2	1	UNK0	0.000	
13	   O	-0.523	2.820	1.329	O.2	1	UNK0	0.000	
14	   C	-0.516	1.193	-0.468	C.2	1	UNK0	0.000	
15	   C	-1.654	0.560	-0.345	C.2	1	UNK0	0.000	
16	   O	-2.007	-0.333	-1.380	O.2	1	UNK0	0.000	
17	   C	-2.548	0.747	0.788	C.2	1	UNK0	0.000	
18	   N	-3.312	1.783	1.163	N.pl3	1	UNK0	0.000	
19	   C	-3.929	1.494	2.312	C.2	1	UNK0	0.000	
20	   N	-3.545	0.241	2.672	N.2	1	UNK0	0.000	
21	   C	-2.697	-0.254	1.761	C.2	1	UNK0	0.000	
22	   C	-2.043	-1.593	1.777	C.3	1	UNK0	0.000	
23	   C	-4.800	2.394	2.922	C.2	1	UNK0	0.000	
24	   C	-5.004	3.603	2.286	C.2	1	UNK0	0.000	
25	   C	-4.351	3.870	1.097	C.2	1	UNK0	0.000	
26	   C	-3.495	2.967	0.515	C.2	1	UNK0	0.000	
27	   C	-5.456	2.020	4.199	C.3	1	UNK0	0.000	
28	   C	2.951	0.285	-0.962	C.3	1	UNK0	0.000	
29	   C	3.024	-0.972	-0.166	C.3	1	UNK0	0.000	
30	   N	4.268	-1.691	-0.358	N.4	1	UNK0	0.000	
31	   C	5.090	-1.654	0.831	C.3	1	UNK0	0.000	
32	   C	4.485	-2.566	1.903	C.3	1	UNK0	0.000	
33	   O	4.584	-3.866	1.395	O.3	1	UNK0	0.000	
34	   C	3.641	-3.937	0.349	C.3	1	UNK0	0.000	
35	   C	4.034	-3.049	-0.808	C.3	1	UNK0	0.000	
36	   H	-0.161	1.913	-4.008	 H	1	UNK0	0.000	
37	   H	0.523	-1.609	-1.760	 H	1	UNK0	0.000	
38	   H	0.043	-2.967	-3.725	 H	1	UNK0	0.000	
39	   H	-0.561	-1.864	-5.846	 H	1	UNK0	0.000	
40	   H	0.507	2.216	-1.947	 H	1	UNK0	0.000	
41	   H	-1.061	-1.493	2.282	 H	1	UNK0	0.000	
42	   H	-1.874	-1.893	0.736	 H	1	UNK0	0.000	
43	   H	-2.693	-2.326	2.318	 H	1	UNK0	0.000	
44	   H	-5.684	4.332	2.740	 H	1	UNK0	0.000	
45	   H	-4.505	4.813	0.593	 H	1	UNK0	0.000	
46	   H	-2.980	3.161	-0.410	 H	1	UNK0	0.000	
47	   H	-6.001	2.898	4.604	 H	1	UNK0	0.000	
48	   H	-4.674	1.702	4.935	 H	1	UNK0	0.000	
49	   H	-6.183	1.210	4.092	 H	1	UNK0	0.000	
50	   H	3.030	0.002	-2.037	 H	1	UNK0	0.000	
51	   H	3.834	0.953	-0.785	 H	1	UNK0	0.000	
52	   H	3.014	-0.634	0.921	 H	1	UNK0	0.000	
53	   H	2.221	-1.681	-0.250	 H	1	UNK0	0.000	
54	   H	4.820	-1.218	-1.115	 H	1	UNK0	0.000	
55	   H	5.021	-0.627	1.237	 H	1	UNK0	0.000	
56	   H	6.139	-1.876	0.636	 H	1	UNK0	0.000	
57	   H	4.999	-2.432	2.859	 H	1	UNK0	0.000	
58	   H	3.408	-2.340	1.967	 H	1	UNK0	0.000	
59	   H	2.693	-3.517	0.765	 H	1	UNK0	0.000	
60	   H	3.499	-4.957	-0.009	 H	1	UNK0	0.000	
61	   H	3.163	-3.016	-1.495	 H	1	UNK0	0.000	
62	   H	4.887	-3.450	-1.389	 H	1	UNK0	0.000	
@<TRIPOS>BOND
1 1 2 1
2 2 3 2
3 2 7 1
4 3 4 1
5 4 5 2
6 4 8 1
7 5 6 1
8 6 7 2
9 8 9 1
10 8 14 1
11 9 10 1
12 9 28 1
13 10 11 2
14 10 12 1
15 12 13 2
16 12 14 1
17 14 15 2
18 15 16 1
19 15 17 1
20 17 18 1
21 17 21 2
22 18 19 1
23 18 26 1
24 19 20 2
25 19 23 1
26 20 21 1
27 21 22 1
28 23 24 2
29 23 27 1
30 24 25 1
31 25 26 2
32 28 29 1
33 29 30 1
34 30 31 1
35 30 35 1
36 31 32 1
37 32 33 1
38 33 34 1
39 34 35 1
40 3 36 1
41 5 37 1
42 6 38 1
43 7 39 1
44 8 40 1
45 22 41 1
46 22 42 1
47 22 43 1
48 24 44 1
49 25 45 1
50 26 46 1
51 27 47 1
52 27 48 1
53 27 49 1
54 28 50 1
55 28 51 1
56 29 52 1
57 29 53 1
58 30 54 1
59 31 55 1
60 31 56 1
61 32 57 1
62 32 58 1
63 34 59 1
64 34 60 1
65 35 61 1
66 35 62 1
@<TRIPOS>SUBSTRUCTURE
1	UNK0	1	GROUP	1 ****	UNK
# created with PyMOL 2.3.2
@<TRIPOS>MOLECULE
184
57 60 1                 
SMALL
USER_CHARGES
@<TRIPOS>ATOM
1	  Br	1.726	-3.205	3.391	Br	1	UNK0	0.000	
2	   C	1.406	-1.352	3.121	C.2	1	UNK0	0.000	
3	   C	0.939	-0.912	1.882	C.2	1	UNK0	0.000	
4	   C	0.702	0.403	1.661	C.2	1	UNK0	0.000	
5	   C	0.940	1.300	2.708	C.2	1	UNK0	0.000	
6	   C	1.396	0.866	3.917	C.2	1	UNK0	0.000	
7	   C	1.643	-0.467	4.163	C.2	1	UNK0	0.000	
8	   C	0.204	0.952	0.394	C.3	1	UNK0	0.000	
9	   N	-0.993	0.313	-0.117	N.pl3	1	UNK0	0.000	
10	   C	-1.021	0.635	-1.514	C.2	1	UNK0	0.000	
11	   O	-2.014	0.689	-2.261	O.2	1	UNK0	0.000	
12	   C	0.356	0.894	-1.917	C.2	1	UNK0	0.000	
13	   O	0.837	1.217	-3.044	O.2	1	UNK0	0.000	
14	   C	1.169	0.712	-0.724	C.2	1	UNK0	0.000	
15	   C	2.460	0.446	-0.700	C.2	1	UNK0	0.000	
16	   O	3.050	0.377	0.570	O.2	1	UNK0	0.000	
17	   C	3.292	0.218	-1.872	C.2	1	UNK0	0.000	
18	   N	3.102	-0.682	-2.848	N.pl3	1	UNK0	0.000	
19	   C	4.063	-0.572	-3.801	C.2	1	UNK0	0.000	
20	   N	4.867	0.441	-3.374	N.2	1	UNK0	0.000	
21	   C	4.442	0.940	-2.226	C.2	1	UNK0	0.000	
22	   C	4.971	2.032	-1.379	C.3	1	UNK0	0.000	
23	   C	4.113	-1.391	-4.918	C.2	1	UNK0	0.000	
24	   C	3.157	-2.370	-5.093	C.2	1	UNK0	0.000	
25	   C	2.178	-2.477	-4.112	C.2	1	UNK0	0.000	
26	   C	2.160	-1.655	-3.028	C.2	1	UNK0	0.000	
27	   C	-1.985	-0.480	0.613	C.3	1	UNK0	0.000	
28	   C	-3.086	0.331	1.191	C.3	1	UNK0	0.000	
29	   C	-3.948	1.101	0.278	C.3	1	UNK0	0.000	
30	   N	-4.683	0.358	-0.685	N.4	1	UNK0	0.000	
31	   C	-5.169	1.235	-1.723	C.3	1	UNK0	0.000	
32	   C	-5.885	-0.210	-0.046	C.3	1	UNK0	0.000	
33	   H	0.784	-1.645	1.126	 H	1	UNK0	0.000	
34	   H	0.755	2.352	2.543	 H	1	UNK0	0.000	
35	   H	1.584	1.564	4.742	 H	1	UNK0	0.000	
36	   H	2.011	-0.822	5.136	 H	1	UNK0	0.000	
37	   H	0.005	2.021	0.451	 H	1	UNK0	0.000	
38	   H	6.021	2.209	-1.707	 H	1	UNK0	0.000	
39	   H	5.048	1.704	-0.315	 H	1	UNK0	0.000	
40	   H	4.410	2.975	-1.472	 H	1	UNK0	0.000	
41	   H	4.900	-1.261	-5.647	 H	1	UNK0	0.000	
42	   H	3.139	-3.041	-5.942	 H	1	UNK0	0.000	
43	   H	1.407	-3.247	-4.228	 H	1	UNK0	0.000	
44	   H	1.401	-1.728	-2.237	 H	1	UNK0	0.000	
45	   H	-2.329	-1.329	-0.016	 H	1	UNK0	0.000	
46	   H	-1.455	-0.951	1.464	 H	1	UNK0	0.000	
47	   H	-3.721	-0.262	1.898	 H	1	UNK0	0.000	
48	   H	-2.589	1.083	1.878	 H	1	UNK0	0.000	
49	   H	-4.693	1.652	0.916	 H	1	UNK0	0.000	
50	   H	-3.355	1.931	-0.207	 H	1	UNK0	0.000	
51	   H	-4.183	-0.477	-1.061	 H	1	UNK0	0.000	
52	   H	-6.277	1.261	-1.796	 H	1	UNK0	0.000	
53	   H	-4.838	2.264	-1.482	 H	1	UNK0	0.000	
54	   H	-4.747	1.003	-2.718	 H	1	UNK0	0.000	
55	   H	-5.594	-0.941	0.742	 H	1	UNK0	0.000	
56	   H	-6.515	0.619	0.360	 H	1	UNK0	0.000	
57	   H	-6.497	-0.772	-0.775	 H	1	UNK0	0.000	
@<TRIPOS>BOND
1 1 2 1
2 2 3 2
3 2 7 1
4 3 4 1
5 4 5 2
6 4 8 1
7 5 6 1
8 6 7 2
9 8 9 1
10 8 14 1
11 9 10 1
12 9 27 1
13 10 11 2
14 10 12 1
15 12 13 2
16 12 14 1
17 14 15 2
18 15 16 1
19 15 17 1
20 17 18 1
21 17 21 2
22 18 19 1
23 18 26 1
24 19 20 2
25 19 23 1
26 20 21 1
27 21 22 1
28 23 24 2
29 24 25 1
30 25 26 2
31 27 28 1
32 28 29 1
33 29 30 1
34 30 31 1
35 30 32 1
36 3 33 1
37 5 34 1
38 6 35 1
39 7 36 1
40 8 37 1
41 22 38 1
42 22 39 1
43 22 40 1
44 23 41 1
45 24 42 1
46 25 43 1
47 26 44 1
48 27 45 1
49 27 46 1
50 28 47 1
51 28 48 1
52 29 49 1
53 29 50 1
54 30 51 1
55 31 52 1
56 31 53 1
57 31 54 1
58 32 55 1
59 32 56 1
60 32 57 1
@<TRIPOS>SUBSTRUCTURE
1	UNK0	1	GROUP	1 ****	UNK
# created with PyMOL 2.3.2
@<TRIPOS>MOLECULE
188
53 56 1                 
SMALL
USER_CHARGES
@<TRIPOS>ATOM
1	  Br	-6.773	2.802	-0.121	Br	1	UNK0	0.000	
2	   C	-5.012	2.974	-0.861	C.2	1	UNK0	0.000	
3	   C	-3.997	2.091	-0.526	C.2	1	UNK0	0.000	
4	   C	-2.722	2.188	-1.038	C.2	1	UNK0	0.000	
5	   C	-2.468	3.219	-1.922	C.2	1	UNK0	0.000	
6	   C	-3.479	4.118	-2.270	C.2	1	UNK0	0.000	
7	   C	-4.752	4.002	-1.744	C.2	1	UNK0	0.000	
8	   C	-1.669	1.207	-0.641	C.3	1	UNK0	0.000	
9	   N	-1.682	0.971	0.795	N.pl3	1	UNK0	0.000	
10	   C	-1.092	2.179	1.331	C.2	1	UNK0	0.000	
11	   O	-1.262	2.645	2.478	O.2	1	UNK0	0.000	
12	   C	-0.252	2.784	0.306	C.2	1	UNK0	0.000	
13	   O	0.445	3.831	0.319	O.2	1	UNK0	0.000	
14	   C	-0.351	1.907	-0.860	C.2	1	UNK0	0.000	
15	   C	0.467	1.766	-1.863	C.2	1	UNK0	0.000	
16	   O	0.110	0.864	-2.888	O.2	1	UNK0	0.000	
17	   C	1.709	2.515	-1.918	C.2	1	UNK0	0.000	
18	   O	2.127	3.137	-2.988	O.3	1	UNK0	0.000	
19	   C	3.270	3.729	-2.775	C.2	1	UNK0	0.000	
20	   C	3.638	3.489	-1.486	C.2	1	UNK0	0.000	
21	   C	2.629	2.699	-0.923	C.2	1	UNK0	0.000	
22	   C	-2.159	-0.140	1.575	C.3	1	UNK0	0.000	
23	   C	-1.103	-1.181	1.867	C.3	1	UNK0	0.000	
24	   C	-0.583	-1.730	0.598	C.3	1	UNK0	0.000	
25	   N	0.417	-2.764	0.740	N.4	1	UNK0	0.000	
26	   C	1.189	-2.957	-0.465	C.3	1	UNK0	0.000	
27	   C	2.484	-2.227	-0.503	C.3	1	UNK0	0.000	
28	   O	3.204	-2.231	0.673	O.3	1	UNK0	0.000	
29	   C	2.457	-1.869	1.786	C.3	1	UNK0	0.000	
30	   C	1.206	-2.698	1.923	C.3	1	UNK0	0.000	
31	   H	-4.207	1.282	0.171	 H	1	UNK0	0.000	
32	   H	-1.474	3.306	-2.330	 H	1	UNK0	0.000	
33	   H	-3.267	4.914	-2.958	 H	1	UNK0	0.000	
34	   H	-5.554	4.684	-1.996	 H	1	UNK0	0.000	
35	   H	-1.659	0.316	-1.257	 H	1	UNK0	0.000	
36	   H	3.808	4.310	-3.528	 H	1	UNK0	0.000	
37	   H	4.526	3.835	-0.995	 H	1	UNK0	0.000	
38	   H	2.649	2.340	0.091	 H	1	UNK0	0.000	
39	   H	-2.518	0.241	2.578	 H	1	UNK0	0.000	
40	   H	-3.076	-0.601	1.134	 H	1	UNK0	0.000	
41	   H	-1.575	-2.011	2.442	 H	1	UNK0	0.000	
42	   H	-0.345	-0.640	2.477	 H	1	UNK0	0.000	
43	   H	-0.094	-0.950	-0.042	 H	1	UNK0	0.000	
44	   H	-1.430	-2.123	0.002	 H	1	UNK0	0.000	
45	   H	-0.157	-3.662	0.828	 H	1	UNK0	0.000	
46	   H	1.386	-4.038	-0.650	 H	1	UNK0	0.000	
47	   H	0.568	-2.614	-1.321	 H	1	UNK0	0.000	
48	   H	3.137	-2.749	-1.266	 H	1	UNK0	0.000	
49	   H	2.390	-1.184	-0.929	 H	1	UNK0	0.000	
50	   H	3.091	-2.106	2.680	 H	1	UNK0	0.000	
51	   H	2.217	-0.805	1.847	 H	1	UNK0	0.000	
52	   H	1.572	-3.738	2.184	 H	1	UNK0	0.000	
53	   H	0.632	-2.378	2.788	 H	1	UNK0	0.000	
@<TRIPOS>BOND
1 1 2 1
2 2 3 2
3 2 7 1
4 3 4 1
5 4 5 2
6 4 8 1
7 5 6 1
8 6 7 2
9 8 9 1
10 8 14 1
11 9 10 1
12 9 22 1
13 10 11 2
14 10 12 1
15 12 13 2
16 12 14 1
17 14 15 2
18 15 16 1
19 15 17 1
20 17 18 1
21 17 21 2
22 18 19 1
23 19 20 2
24 20 21 1
25 22 23 1
26 23 24 1
27 24 25 1
28 25 26 1
29 25 30 1
30 26 27 1
31 27 28 1
32 28 29 1
33 29 30 1
34 3 31 1
35 5 32 1
36 6 33 1
37 7 34 1
38 8 35 1
39 19 36 1
40 20 37 1
41 21 38 1
42 22 39 1
43 22 40 1
44 23 41 1
45 23 42 1
46 24 43 1
47 24 44 1
48 25 45 1
49 26 46 1
50 26 47 1
51 27 48 1
52 27 49 1
53 29 50 1
54 29 51 1
55 30 52 1
56 30 53 1
@<TRIPOS>SUBSTRUCTURE
1	UNK0	1	GROUP	1 ****	UNK
# created with PyMOL 2.3.2
@<TRIPOS>MOLECULE
191
58 61 1                 
SMALL
USER_CHARGES
@<TRIPOS>ATOM
1	  Br	-0.548	-4.921	5.335	Br	1	UNK0	0.000	
2	   C	0.548	-4.202	3.925	C.2	1	UNK0	0.000	
3	   C	-0.022	-3.536	2.879	C.2	1	UNK0	0.000	
4	   C	0.713	-2.991	1.824	C.2	1	UNK0	0.000	
5	   C	2.076	-3.172	1.905	C.2	1	UNK0	0.000	
6	   C	2.669	-3.850	2.967	C.2	1	UNK0	0.000	
7	   C	1.901	-4.363	3.973	C.2	1	UNK0	0.000	
8	   C	0.048	-2.270	0.709	C.3	1	UNK0	0.000	
9	   N	0.523	-2.670	-0.600	N.pl3	1	UNK0	0.000	
10	   C	1.711	-1.885	-0.841	C.2	1	UNK0	0.000	
11	   O	2.632	-2.184	-1.639	O.2	1	UNK0	0.000	
12	   C	1.613	-0.701	0.018	C.2	1	UNK0	0.000	
13	   O	2.426	0.252	0.132	O.2	1	UNK0	0.000	
14	   C	0.364	-0.794	0.765	C.2	1	UNK0	0.000	
15	   C	-0.303	0.185	1.352	C.2	1	UNK0	0.000	
16	   O	-1.460	-0.103	2.031	O.2	1	UNK0	0.000	
17	   C	0.169	1.581	1.290	C.2	1	UNK0	0.000	
18	   O	0.670	2.166	0.236	O.3	1	UNK0	0.000	
19	   C	1.010	3.395	0.438	C.2	1	UNK0	0.000	
20	   C	0.715	3.677	1.750	C.2	1	UNK0	0.000	
21	   C	0.182	2.525	2.289	C.2	1	UNK0	0.000	
22	   C	0.989	4.942	2.222	C.2	1	UNK0	0.000	
23	   C	1.545	5.914	1.415	C.2	1	UNK0	0.000	
24	   C	1.828	5.583	0.086	C.2	1	UNK0	0.000	
25	   C	1.569	4.334	-0.419	C.2	1	UNK0	0.000	
26	   O	1.860	4.051	-1.729	O.3	1	UNK0	0.000	
27	   C	2.422	4.914	-2.665	C.3	1	UNK0	0.000	
28	   C	-0.030	-3.657	-1.495	C.3	1	UNK0	0.000	
29	   C	-0.980	-3.034	-2.489	C.3	1	UNK0	0.000	
30	   C	-2.146	-2.331	-1.894	C.3	1	UNK0	0.000	
31	   N	-3.052	-1.755	-2.838	N.4	1	UNK0	0.000	
32	   C	-4.440	-1.955	-2.412	C.3	1	UNK0	0.000	
33	   C	-2.880	-2.271	-4.161	C.3	1	UNK0	0.000	
34	   H	-1.093	-3.395	2.819	 H	1	UNK0	0.000	
35	   H	2.735	-2.803	1.165	 H	1	UNK0	0.000	
36	   H	3.740	-3.994	3.031	 H	1	UNK0	0.000	
37	   H	2.310	-4.903	4.826	 H	1	UNK0	0.000	
38	   H	-1.037	-2.465	0.825	 H	1	UNK0	0.000	
39	   H	-0.160	2.388	3.299	 H	1	UNK0	0.000	
40	   H	0.755	5.154	3.254	 H	1	UNK0	0.000	
41	   H	1.753	6.900	1.804	 H	1	UNK0	0.000	
42	   H	2.269	6.395	-0.509	 H	1	UNK0	0.000	
43	   H	2.117	5.973	-2.562	 H	1	UNK0	0.000	
44	   H	2.249	4.586	-3.718	 H	1	UNK0	0.000	
45	   H	3.526	4.908	-2.515	 H	1	UNK0	0.000	
46	   H	0.791	-4.157	-2.047	 H	1	UNK0	0.000	
47	   H	-0.616	-4.372	-0.879	 H	1	UNK0	0.000	
48	   H	-0.409	-2.301	-3.138	 H	1	UNK0	0.000	
49	   H	-1.299	-3.821	-3.233	 H	1	UNK0	0.000	
50	   H	-1.735	-1.550	-1.207	 H	1	UNK0	0.000	
51	   H	-2.710	-3.057	-1.255	 H	1	UNK0	0.000	
52	   H	-2.954	-0.701	-2.900	 H	1	UNK0	0.000	
53	   H	-5.072	-1.226	-2.950	 H	1	UNK0	0.000	
54	   H	-4.768	-2.999	-2.541	 H	1	UNK0	0.000	
55	   H	-4.519	-1.754	-1.307	 H	1	UNK0	0.000	
56	   H	-1.857	-2.036	-4.515	 H	1	UNK0	0.000	
57	   H	-3.022	-3.370	-4.191	 H	1	UNK0	0.000	
58	   H	-3.655	-1.806	-4.826	 H	1	UNK0	0.000	
@<TRIPOS>BOND
1 1 2 1
2 2 3 2
3 2 7 1
4 3 4 1
5 4 5 2
6 4 8 1
7 5 6 1
8 6 7 2
9 8 9 1
10 8 14 1
11 9 10 1
12 9 28 1
13 10 11 2
14 10 12 1
15 12 13 2
16 12 14 1
17 14 15 2
18 15 16 1
19 15 17 1
20 17 18 1
21 17 21 2
22 18 19 1
23 19 20 2
24 19 25 1
25 20 21 1
26 20 22 1
27 22 23 2
28 23 24 1
29 24 25 2
30 25 26 1
31 26 27 1
32 28 29 1
33 29 30 1
34 30 31 1
35 31 32 1
36 31 33 1
37 3 34 1
38 5 35 1
39 6 36 1
40 7 37 1
41 8 38 1
42 21 39 1
43 22 40 1
44 23 41 1
45 24 42 1
46 27 43 1
47 27 44 1
48 27 45 1
49 28 46 1
50 28 47 1
51 29 48 1
52 29 49 1
53 30 50 1
54 30 51 1
55 31 52 1
56 32 53 1
57 32 54 1
58 32 55 1
59 33 56 1
60 33 57 1
61 33 58 1
@<TRIPOS>SUBSTRUCTURE
1	UNK0	1	GROUP	1 ****	UNK
# created with PyMOL 2.3.2
@<TRIPOS>MOLECULE
199
38 41 1                 
SMALL
USER_CHARGES
@<TRIPOS>ATOM
1	  Br	-3.542	6.011	-1.096	Br	1	UNK0	0.000	
2	   C	-3.530	4.433	-0.028	C.2	1	UNK0	0.000	
3	   C	-2.366	3.746	0.226	C.2	1	UNK0	0.000	
4	   C	-2.323	2.582	1.008	C.2	1	UNK0	0.000	
5	   C	-3.517	2.153	1.516	C.2	1	UNK0	0.000	
6	   C	-4.694	2.858	1.253	C.2	1	UNK0	0.000	
7	   C	-4.707	3.983	0.492	C.2	1	UNK0	0.000	
8	   N	-1.086	1.942	1.217	N.pl3	1	UNK0	0.000	
9	   C	-0.894	0.772	1.968	C.2	1	UNK0	0.000	
10	   O	-1.780	0.134	2.555	O.2	1	UNK0	0.000	
11	   C	0.494	0.207	2.101	C.3	1	UNK0	0.000	
12	   C	1.129	-0.167	0.787	C.3	1	UNK0	0.000	
13	   N	0.714	-1.568	0.952	N.pl3	1	UNK0	0.000	
14	   C	0.543	-1.270	2.362	C.3	1	UNK0	0.000	
15	   C	0.574	-2.664	0.057	C.2	1	UNK0	0.000	
16	   N	-0.614	-3.295	-0.132	N.2	1	UNK0	0.000	
17	   C	-0.722	-4.345	-0.998	C.2	1	UNK0	0.000	
18	   N	0.335	-4.786	-1.687	N.2	1	UNK0	0.000	
19	   C	1.532	-4.213	-1.550	C.2	1	UNK0	0.000	
20	   N	2.728	-4.466	-2.118	N.pl3	1	UNK0	0.000	
21	   N	3.570	-3.589	-1.616	N.2	1	UNK0	0.000	
22	   N	2.947	-2.786	-0.746	N.2	1	UNK0	0.000	
23	   C	1.639	-3.152	-0.674	C.2	1	UNK0	0.000	
24	   C	3.060	-5.497	-3.098	C.3	1	UNK0	0.000	
25	   H	-1.443	4.124	-0.198	 H	1	UNK0	0.000	
26	   H	-3.575	1.255	2.136	 H	1	UNK0	0.000	
27	   H	-5.624	2.467	1.687	 H	1	UNK0	0.000	
28	   H	-5.638	4.515	0.301	 H	1	UNK0	0.000	
29	   H	-0.223	2.407	0.751	 H	1	UNK0	0.000	
30	   H	1.169	0.841	2.701	 H	1	UNK0	0.000	
31	   H	0.627	0.226	-0.122	 H	1	UNK0	0.000	
32	   H	2.221	-0.117	0.750	 H	1	UNK0	0.000	
33	   H	-0.401	-1.653	2.804	 H	1	UNK0	0.000	
34	   H	1.422	-1.615	2.925	 H	1	UNK0	0.000	
35	   H	-1.697	-4.797	-1.097	 H	1	UNK0	0.000	
36	   H	3.893	-5.184	-3.748	 H	1	UNK0	0.000	
37	   H	2.188	-5.673	-3.794	 H	1	UNK0	0.000	
38	   H	3.275	-6.461	-2.634	 H	1	UNK0	0.000	
@<TRIPOS>BOND
1 1 2 1
2 2 3 2
3 2 7 1
4 3 4 1
5 4 5 2
6 4 8 1
7 5 6 1
8 6 7 2
9 8 9 1
10 9 10 2
11 9 11 1
12 11 12 1
13 11 14 1
14 12 13 1
15 13 14 1
16 13 15 1
17 15 16 2
18 15 23 1
19 16 17 1
20 17 18 2
21 18 19 1
22 19 20 1
23 19 23 2
24 20 21 1
25 20 24 1
26 21 22 2
27 22 23 1
28 3 25 1
29 5 26 1
30 6 27 1
31 7 28 1
32 8 29 1
33 11 30 1
34 12 31 1
35 12 32 1
36 14 33 1
37 14 34 1
38 17 35 1
39 24 36 1
40 24 37 1
41 24 38 1
@<TRIPOS>SUBSTRUCTURE
1	UNK0	1	GROUP	1 ****	UNK
# created with PyMOL 2.3.2
@<TRIPOS>MOLECULE
200
25 28 1                 
SMALL
USER_CHARGES
@<TRIPOS>ATOM
1	  Br	4.070	2.923	2.248	Br	1	UNK0	0.000	
2	   C	3.185	1.243	2.075	C.2	1	UNK0	0.000	
3	   C	2.183	1.041	1.140	C.2	1	UNK0	0.000	
4	   C	1.505	-0.134	0.958	C.2	1	UNK0	0.000	
5	   C	1.909	-1.174	1.822	C.2	1	UNK0	0.000	
6	   C	2.898	-1.009	2.760	C.2	1	UNK0	0.000	
7	   C	3.542	0.201	2.891	C.2	1	UNK0	0.000	
8	   N	0.481	-0.382	0.020	N.pl3	1	UNK0	0.000	
9	   C	-0.016	0.571	-0.900	C.2	1	UNK0	0.000	
10	   N	0.380	1.831	-1.044	N.2	1	UNK0	0.000	
11	   C	-0.121	2.704	-1.934	C.2	1	UNK0	0.000	
12	   N	0.098	3.988	-2.267	N.2	1	UNK0	0.000	
13	   O	-0.684	4.365	-3.229	O.3	1	UNK0	0.000	
14	   N	-1.421	3.360	-3.545	N.2	1	UNK0	0.000	
15	   C	-1.134	2.289	-2.787	C.2	1	UNK0	0.000	
16	   N	-1.567	1.024	-2.680	N.pl3	1	UNK0	0.000	
17	   N	-2.514	0.400	-3.376	N.2	1	UNK0	0.000	
18	   N	-2.587	-0.855	-2.907	N.2	1	UNK0	0.000	
19	   N	-1.686	-0.983	-1.931	N.2	1	UNK0	0.000	
20	   C	-1.044	0.178	-1.779	C.2	1	UNK0	0.000	
21	   H	1.951	1.888	0.534	 H	1	UNK0	0.000	
22	   H	1.427	-2.130	1.746	 H	1	UNK0	0.000	
23	   H	3.197	-1.821	3.419	 H	1	UNK0	0.000	
24	   H	4.318	0.336	3.625	 H	1	UNK0	0.000	
25	   H	0.075	-1.361	0.030	 H	1	UNK0	0.000	
@<TRIPOS>BOND
1 1 2 1
2 2 3 2
3 2 7 1
4 3 4 1
5 4 5 2
6 4 8 1
7 5 6 1
8 6 7 2
9 8 9 1
10 9 10 2
11 9 20 1
12 10 11 1
13 11 12 2
14 11 15 1
15 12 13 1
16 13 14 1
17 14 15 2
18 15 16 1
19 16 17 1
20 16 20 1
21 17 18 2
22 18 19 1
23 19 20 2
24 3 21 1
25 5 22 1
26 6 23 1
27 7 24 1
28 8 25 1
@<TRIPOS>SUBSTRUCTURE
1	UNK0	1	GROUP	1 ****	UNK
# created with PyMOL 2.3.2
@<TRIPOS>MOLECULE
201
38 41 1                 
SMALL
USER_CHARGES
@<TRIPOS>ATOM
1	  Br	7.911	1.319	-1.079	Br	1	UNK0	0.000	
2	   C	6.139	1.973	-0.822	C.2	1	UNK0	0.000	
3	   C	5.046	1.340	-1.423	C.2	1	UNK0	0.000	
4	   C	3.770	1.813	-1.236	C.2	1	UNK0	0.000	
5	   C	3.603	2.926	-0.441	C.2	1	UNK0	0.000	
6	   C	4.688	3.568	0.166	C.2	1	UNK0	0.000	
7	   C	5.962	3.085	-0.028	C.2	1	UNK0	0.000	
8	   N	2.617	1.201	-1.830	N.pl3	1	UNK0	0.000	
9	   N	2.201	1.243	-3.068	N.2	1	UNK0	0.000	
10	   N	1.088	0.542	-3.211	N.2	1	UNK0	0.000	
11	   C	0.761	0.015	-2.006	C.2	1	UNK0	0.000	
12	   C	1.744	0.445	-1.144	C.2	1	UNK0	0.000	
13	   C	-0.382	-0.828	-1.678	C.2	1	UNK0	0.000	
14	   O	-0.511	-1.218	-0.491	O.2	1	UNK0	0.000	
15	   N	-1.343	-1.220	-2.632	N.pl3	1	UNK0	0.000	
16	   C	-2.488	-2.054	-2.345	C.3	1	UNK0	0.000	
17	   C	-3.377	-1.417	-1.312	C.2	1	UNK0	0.000	
18	   N	-3.548	-1.776	-0.017	N.pl3	1	UNK0	0.000	
19	   C	-4.425	-0.950	0.563	C.2	1	UNK0	0.000	
20	   N	-4.798	-0.070	-0.397	N.2	1	UNK0	0.000	
21	   N	-4.169	-0.350	-1.521	N.2	1	UNK0	0.000	
22	   C	-4.643	-1.319	2.009	C.3	1	UNK0	0.000	
23	   C	-4.107	-2.735	2.026	C.3	1	UNK0	0.000	
24	   C	-3.072	-2.781	0.918	C.3	1	UNK0	0.000	
25	   H	5.179	0.469	-2.045	 H	1	UNK0	0.000	
26	   H	2.604	3.303	-0.290	 H	1	UNK0	0.000	
27	   H	4.545	4.450	0.795	 H	1	UNK0	0.000	
28	   H	6.806	3.577	0.439	 H	1	UNK0	0.000	
29	   H	1.792	0.205	-0.087	 H	1	UNK0	0.000	
30	   H	-1.219	-0.886	-3.614	 H	1	UNK0	0.000	
31	   H	-3.056	-2.276	-3.267	 H	1	UNK0	0.000	
32	   H	-2.128	-3.014	-1.871	 H	1	UNK0	0.000	
33	   H	-5.702	-1.250	2.267	 H	1	UNK0	0.000	
34	   H	-3.981	-0.693	2.659	 H	1	UNK0	0.000	
35	   H	-3.570	-2.974	2.964	 H	1	UNK0	0.000	
36	   H	-4.967	-3.408	1.829	 H	1	UNK0	0.000	
37	   H	-2.054	-2.595	1.294	 H	1	UNK0	0.000	
38	   H	-3.091	-3.805	0.493	 H	1	UNK0	0.000	
@<TRIPOS>BOND
1 1 2 1
2 2 3 2
3 2 7 1
4 3 4 1
5 4 5 2
6 4 8 1
7 5 6 1
8 6 7 2
9 8 9 1
10 8 12 1
11 9 10 2
12 10 11 1
13 11 12 2
14 11 13 1
15 13 14 2
16 13 15 1
17 15 16 1
18 16 17 1
19 17 18 1
20 17 21 2
21 18 19 1
22 18 24 1
23 19 20 2
24 19 22 1
25 20 21 1
26 22 23 1
27 23 24 1
28 3 25 1
29 5 26 1
30 6 27 1
31 7 28 1
32 12 29 1
33 15 30 1
34 16 31 1
35 16 32 1
36 22 33 1
37 22 34 1
38 23 35 1
39 23 36 1
40 24 37 1
41 24 38 1
@<TRIPOS>SUBSTRUCTURE
1	UNK0	1	GROUP	1 ****	UNK
# created with PyMOL 2.3.2
@<TRIPOS>MOLECULE
205
37 40 1                 
SMALL
USER_CHARGES
@<TRIPOS>ATOM
1	  Br	-6.689	3.052	-2.551	Br	1	UNK0	0.000	
2	   C	-5.941	2.728	-0.827	C.2	1	UNK0	0.000	
3	   C	-4.594	2.567	-0.622	C.2	1	UNK0	0.000	
4	   C	-4.021	2.332	0.626	C.2	1	UNK0	0.000	
5	   C	-4.912	2.267	1.686	C.2	1	UNK0	0.000	
6	   C	-6.263	2.426	1.492	C.2	1	UNK0	0.000	
7	   C	-6.817	2.661	0.237	C.2	1	UNK0	0.000	
8	   N	-2.627	2.171	0.791	N.pl3	1	UNK0	0.000	
9	   C	-1.668	3.065	1.391	C.2	1	UNK0	0.000	
10	   O	-1.857	4.307	1.525	O.2	1	UNK0	0.000	
11	   C	-0.490	2.302	1.799	C.3	1	UNK0	0.000	
12	   O	0.735	2.897	1.680	O.3	1	UNK0	0.000	
13	   N	1.554	1.819	1.352	N.pl3	1	UNK0	0.000	
14	   C	0.845	0.984	0.468	C.2	1	UNK0	0.000	
15	   C	-0.445	1.258	0.708	C.2	1	UNK0	0.000	
16	   C	-1.846	1.040	0.367	C.2	1	UNK0	0.000	
17	   O	-2.298	0.027	-0.207	O.2	1	UNK0	0.000	
18	   C	1.351	-0.007	-0.469	C.2	1	UNK0	0.000	
19	   C	0.970	-1.352	-0.485	C.2	1	UNK0	0.000	
20	   N	1.600	-1.951	-1.476	N.pl3	1	UNK0	0.000	
21	   N	2.365	-1.053	-2.092	N.2	1	UNK0	0.000	
22	   C	2.234	0.124	-1.504	C.2	1	UNK0	0.000	
23	   C	1.501	-3.360	-1.853	C.3	1	UNK0	0.000	
24	   C	0.040	-2.008	0.464	C.3	1	UNK0	0.000	
25	   H	-3.897	2.613	-1.452	 H	1	UNK0	0.000	
26	   H	-4.511	2.085	2.678	 H	1	UNK0	0.000	
27	   H	-6.992	2.378	2.312	 H	1	UNK0	0.000	
28	   H	-7.878	2.782	0.097	 H	1	UNK0	0.000	
29	   H	-0.635	1.814	2.789	 H	1	UNK0	0.000	
30	   H	2.510	1.662	1.695	 H	1	UNK0	0.000	
31	   H	2.730	1.035	-1.783	 H	1	UNK0	0.000	
32	   H	1.245	-3.439	-2.941	 H	1	UNK0	0.000	
33	   H	2.420	-3.929	-1.631	 H	1	UNK0	0.000	
34	   H	0.659	-3.819	-1.279	 H	1	UNK0	0.000	
35	   H	-0.188	-1.341	1.331	 H	1	UNK0	0.000	
36	   H	-0.856	-2.312	-0.104	 H	1	UNK0	0.000	
37	   H	0.557	-2.914	0.827	 H	1	UNK0	0.000	
@<TRIPOS>BOND
1 1 2 1
2 2 3 2
3 2 7 1
4 3 4 1
5 4 5 2
6 4 8 1
7 5 6 1
8 6 7 2
9 8 9 1
10 8 16 1
11 9 10 2
12 9 11 1
13 11 12 1
14 11 15 1
15 12 13 1
16 13 14 1
17 14 15 2
18 14 18 1
19 15 16 1
20 16 17 2
21 18 19 2
22 18 22 1
23 19 20 1
24 19 24 1
25 20 21 1
26 20 23 1
27 21 22 2
28 3 25 1
29 5 26 1
30 6 27 1
31 7 28 1
32 11 29 1
33 13 30 1
34 22 31 1
35 23 32 1
36 23 33 1
37 23 34 1
38 24 35 1
39 24 36 1
40 24 37 1
@<TRIPOS>SUBSTRUCTURE
1	UNK0	1	GROUP	1 ****	UNK
# created with PyMOL 2.3.2
@<TRIPOS>MOLECULE
211
33 36 1                 
SMALL
USER_CHARGES
@<TRIPOS>ATOM
1	  Br	-0.956	-5.748	0.659	Br	1	UNK0	0.000	
2	   C	-1.293	-4.016	1.389	C.2	1	UNK0	0.000	
3	   C	-1.118	-2.911	0.619	C.2	1	UNK0	0.000	
4	   C	-1.334	-1.610	1.047	C.2	1	UNK0	0.000	
5	   C	-1.754	-1.461	2.349	C.2	1	UNK0	0.000	
6	   C	-1.943	-2.577	3.168	C.2	1	UNK0	0.000	
7	   C	-1.715	-3.852	2.694	C.2	1	UNK0	0.000	
8	   N	-1.128	-0.473	0.177	N.pl3	1	UNK0	0.000	
9	   C	-0.368	0.691	0.469	C.2	1	UNK0	0.000	
10	   O	-0.144	1.141	1.653	O.2	1	UNK0	0.000	
11	   C	0.109	1.279	-0.791	C.3	1	UNK0	0.000	
12	   C	1.475	0.736	-1.077	C.3	1	UNK0	0.000	
13	   O	1.136	-0.603	-1.400	O.3	1	UNK0	0.000	
14	   C	0.314	-0.290	-2.515	C.3	1	UNK0	0.000	
15	   C	-0.718	0.599	-1.846	C.3	1	UNK0	0.000	
16	   C	-1.646	-0.300	-1.131	C.2	1	UNK0	0.000	
17	   O	-2.694	-0.808	-1.609	O.2	1	UNK0	0.000	
18	   C	1.265	0.518	-3.312	C.2	1	UNK0	0.000	
19	   C	2.019	1.156	-2.397	C.2	1	UNK0	0.000	
20	   C	2.448	0.842	0.035	C.3	1	UNK0	0.000	
21	   O	2.715	2.192	0.269	O.3	1	UNK0	0.000	
22	   H	-0.783	-3.043	-0.416	 H	1	UNK0	0.000	
23	   H	-1.943	-0.486	2.757	 H	1	UNK0	0.000	
24	   H	-2.273	-2.493	4.193	 H	1	UNK0	0.000	
25	   H	-1.844	-4.742	3.279	 H	1	UNK0	0.000	
26	   H	0.053	2.382	-0.827	 H	1	UNK0	0.000	
27	   H	-0.087	-1.159	-3.004	 H	1	UNK0	0.000	
28	   H	-1.216	1.289	-2.541	 H	1	UNK0	0.000	
29	   H	1.364	0.603	-4.386	 H	1	UNK0	0.000	
30	   H	2.844	1.829	-2.617	 H	1	UNK0	0.000	
31	   H	2.059	0.439	0.992	 H	1	UNK0	0.000	
32	   H	3.391	0.335	-0.185	 H	1	UNK0	0.000	
33	   H	3.691	2.342	0.337	 H	1	UNK0	0.000	
@<TRIPOS>BOND
1 1 2 1
2 2 3 2
3 2 7 1
4 3 4 1
5 4 5 2
6 4 8 1
7 5 6 1
8 6 7 2
9 8 9 1
10 8 16 1
11 9 10 2
12 9 11 1
13 11 12 1
14 11 15 1
15 12 13 1
16 12 19 1
17 12 20 1
18 13 14 1
19 14 15 1
20 14 18 1
21 15 16 1
22 16 17 2
23 18 19 2
24 20 21 1
25 3 22 1
26 5 23 1
27 6 24 1
28 7 25 1
29 11 26 1
30 14 27 1
31 15 28 1
32 18 29 1
33 19 30 1
34 20 31 1
35 20 32 1
36 21 33 1
@<TRIPOS>SUBSTRUCTURE
1	UNK0	1	GROUP	1 ****	UNK
# created with PyMOL 2.3.2
@<TRIPOS>MOLECULE
213
37 40 1                 
SMALL
USER_CHARGES
@<TRIPOS>ATOM
1	  Br	-2.293	1.667	-7.650	Br	1	UNK0	0.000	
2	   C	-1.068	1.896	-6.212	C.2	1	UNK0	0.000	
3	   C	-1.458	1.618	-4.898	C.2	1	UNK0	0.000	
4	   C	-0.587	1.776	-3.844	C.2	1	UNK0	0.000	
5	   C	0.681	2.218	-4.129	C.2	1	UNK0	0.000	
6	   C	1.076	2.498	-5.445	C.2	1	UNK0	0.000	
7	   C	0.202	2.339	-6.499	C.2	1	UNK0	0.000	
8	   N	-1.005	1.482	-2.526	N.pl3	1	UNK0	0.000	
9	   C	-2.245	0.843	-2.151	C.2	1	UNK0	0.000	
10	   O	-2.953	0.093	-2.832	O.2	1	UNK0	0.000	
11	   C	-2.551	1.247	-0.748	C.3	1	UNK0	0.000	
12	   O	-3.148	0.258	0.012	O.3	1	UNK0	0.000	
13	   N	-2.680	0.556	1.270	N.pl3	1	UNK0	0.000	
14	   C	-1.280	0.825	1.075	C.2	1	UNK0	0.000	
15	   C	-1.155	1.253	-0.158	C.2	1	UNK0	0.000	
16	   C	-0.331	1.735	-1.273	C.2	1	UNK0	0.000	
17	   O	0.770	2.270	-1.105	O.2	1	UNK0	0.000	
18	   C	-0.197	0.663	2.007	C.2	1	UNK0	0.000	
19	   C	-0.312	1.000	3.354	C.2	1	UNK0	0.000	
20	   N	0.845	0.730	3.985	N.pl3	1	UNK0	0.000	
21	   N	1.653	0.241	3.060	N.2	1	UNK0	0.000	
22	   C	1.082	0.178	1.859	C.2	1	UNK0	0.000	
23	   C	1.676	-0.324	0.574	C.3	1	UNK0	0.000	
24	   C	1.137	0.943	5.412	C.3	1	UNK0	0.000	
25	   H	-2.453	1.280	-4.728	 H	1	UNK0	0.000	
26	   H	1.378	2.350	-3.330	 H	1	UNK0	0.000	
27	   H	2.090	2.847	-5.638	 H	1	UNK0	0.000	
28	   H	0.527	2.560	-7.516	 H	1	UNK0	0.000	
29	   H	-3.026	2.233	-0.691	 H	1	UNK0	0.000	
30	   H	-3.187	0.587	2.161	 H	1	UNK0	0.000	
31	   H	-1.192	1.418	3.837	 H	1	UNK0	0.000	
32	   H	2.380	0.391	0.145	 H	1	UNK0	0.000	
33	   H	0.884	-0.659	-0.093	 H	1	UNK0	0.000	
34	   H	2.273	-1.226	0.868	 H	1	UNK0	0.000	
35	   H	0.833	-0.028	5.898	 H	1	UNK0	0.000	
36	   H	0.552	1.779	5.806	 H	1	UNK0	0.000	
37	   H	2.215	1.021	5.523	 H	1	UNK0	0.000	
@<TRIPOS>BOND
1 1 2 1
2 2 3 2
3 2 7 1
4 3 4 1
5 4 5 2
6 4 8 1
7 5 6 1
8 6 7 2
9 8 9 1
10 8 16 1
11 9 10 2
12 9 11 1
13 11 12 1
14 11 15 1
15 12 13 1
16 13 14 1
17 14 15 2
18 14 18 1
19 15 16 1
20 16 17 2
21 18 19 2
22 18 22 1
23 19 20 1
24 20 21 1
25 20 24 1
26 21 22 2
27 22 23 1
28 3 25 1
29 5 26 1
30 6 27 1
31 7 28 1
32 11 29 1
33 13 30 1
34 19 31 1
35 23 32 1
36 23 33 1
37 23 34 1
38 24 35 1
39 24 36 1
40 24 37 1
@<TRIPOS>SUBSTRUCTURE
1	UNK0	1	GROUP	1 ****	UNK
# created with PyMOL 2.3.2
@<TRIPOS>MOLECULE
216
52 55 1                 
SMALL
USER_CHARGES
@<TRIPOS>ATOM
1	  Br	-0.501	-2.317	-7.723	Br	1	UNK0	0.000	
2	   C	0.796	-2.169	-6.358	C.2	1	UNK0	0.000	
3	   C	0.814	-1.032	-5.558	C.2	1	UNK0	0.000	
4	   C	1.732	-0.852	-4.540	C.2	1	UNK0	0.000	
5	   C	2.637	-1.875	-4.361	C.2	1	UNK0	0.000	
6	   C	2.676	-3.029	-5.116	C.2	1	UNK0	0.000	
7	   C	1.742	-3.165	-6.120	C.2	1	UNK0	0.000	
8	   N	1.693	0.324	-3.757	N.pl3	1	UNK0	0.000	
9	   C	0.501	0.848	-3.107	C.3	1	UNK0	0.000	
10	   C	1.142	1.104	-1.727	C.3	1	UNK0	0.000	
11	   C	2.251	2.047	-2.207	C.3	1	UNK0	0.000	
12	   C	2.700	1.260	-3.389	C.2	1	UNK0	0.000	
13	   O	3.799	1.400	-3.973	O.2	1	UNK0	0.000	
14	   C	0.215	1.710	-0.792	C.2	1	UNK0	0.000	
15	   O	-0.930	2.020	-1.206	O.2	1	UNK0	0.000	
16	   N	0.609	1.935	0.544	N.pl3	1	UNK0	0.000	
17	   C	1.926	1.587	1.059	C.3	1	UNK0	0.000	
18	   C	1.810	1.302	2.551	C.3	1	UNK0	0.000	
19	   N	0.493	0.831	2.932	N.3	1	UNK0	0.000	
20	   C	-0.444	1.888	2.780	C.3	1	UNK0	0.000	
21	   C	-0.373	2.550	1.446	C.3	1	UNK0	0.000	
22	   C	0.169	-0.417	2.338	C.3	1	UNK0	0.000	
23	   C	-1.147	-0.993	2.795	C.3	1	UNK0	0.000	
24	   N	-1.218	-1.243	4.206	N.pl3	1	UNK0	0.000	
25	   C	-1.641	-0.428	5.174	C.2	1	UNK0	0.000	
26	   N	-1.536	-1.052	6.367	N.2	1	UNK0	0.000	
27	   C	-1.041	-2.277	6.155	C.2	1	UNK0	0.000	
28	   C	-0.845	-2.386	4.798	C.2	1	UNK0	0.000	
29	   H	0.092	-0.251	-5.725	 H	1	UNK0	0.000	
30	   H	3.370	-1.771	-3.577	 H	1	UNK0	0.000	
31	   H	3.393	-3.824	-4.963	 H	1	UNK0	0.000	
32	   H	1.727	-4.055	-6.745	 H	1	UNK0	0.000	
33	   H	-0.304	0.096	-3.023	 H	1	UNK0	0.000	
34	   H	0.203	1.789	-3.582	 H	1	UNK0	0.000	
35	   H	1.583	0.147	-1.441	 H	1	UNK0	0.000	
36	   H	1.819	3.027	-2.478	 H	1	UNK0	0.000	
37	   H	3.044	2.141	-1.446	 H	1	UNK0	0.000	
38	   H	2.584	2.458	0.869	 H	1	UNK0	0.000	
39	   H	2.379	0.712	0.598	 H	1	UNK0	0.000	
40	   H	2.015	2.230	3.084	 H	1	UNK0	0.000	
41	   H	2.562	0.556	2.888	 H	1	UNK0	0.000	
42	   H	-1.479	1.518	2.979	 H	1	UNK0	0.000	
43	   H	-0.212	2.638	3.588	 H	1	UNK0	0.000	
44	   H	-1.382	2.546	0.979	 H	1	UNK0	0.000	
45	   H	-0.068	3.628	1.595	 H	1	UNK0	0.000	
46	   H	0.101	-0.358	1.223	 H	1	UNK0	0.000	
47	   H	0.975	-1.180	2.552	 H	1	UNK0	0.000	
48	   H	-1.987	-0.340	2.440	 H	1	UNK0	0.000	
49	   H	-1.285	-1.951	2.213	 H	1	UNK0	0.000	
50	   H	-2.017	0.571	5.069	 H	1	UNK0	0.000	
51	   H	-0.841	-3.023	6.933	 H	1	UNK0	0.000	
52	   H	-0.444	-3.292	4.339	 H	1	UNK0	0.000	
@<TRIPOS>BOND
1 1 2 1
2 2 3 2
3 2 7 1
4 3 4 1
5 4 5 2
6 4 8 1
7 5 6 1
8 6 7 2
9 8 9 1
10 8 12 1
11 9 10 1
12 10 11 1
13 10 14 1
14 11 12 1
15 12 13 2
16 14 15 2
17 14 16 1
18 16 17 1
19 16 21 1
20 17 18 1
21 18 19 1
22 19 20 1
23 19 22 1
24 20 21 1
25 22 23 1
26 23 24 1
27 24 25 1
28 24 28 1
29 25 26 2
30 26 27 1
31 27 28 2
32 3 29 1
33 5 30 1
34 6 31 1
35 7 32 1
36 9 33 1
37 9 34 1
38 10 35 1
39 11 36 1
40 11 37 1
41 17 38 1
42 17 39 1
43 18 40 1
44 18 41 1
45 20 42 1
46 20 43 1
47 21 44 1
48 21 45 1
49 22 46 1
50 22 47 1
51 23 48 1
52 23 49 1
53 25 50 1
54 27 51 1
55 28 52 1
@<TRIPOS>SUBSTRUCTURE
1	UNK0	1	GROUP	1 ****	UNK
# created with PyMOL 2.3.2
@<TRIPOS>MOLECULE
219
45 48 1                 
SMALL
USER_CHARGES
@<TRIPOS>ATOM
1	  Br	-3.743	2.558	-2.455	Br	1	UNK0	0.000	
2	   C	-3.395	2.325	-0.592	C.2	1	UNK0	0.000	
3	   C	-2.123	2.304	-0.089	C.2	1	UNK0	0.000	
4	   C	-1.838	2.134	1.278	C.2	1	UNK0	0.000	
5	   C	-2.972	1.986	2.102	C.2	1	UNK0	0.000	
6	   C	-4.250	2.007	1.600	C.2	1	UNK0	0.000	
7	   C	-4.466	2.177	0.247	C.2	1	UNK0	0.000	
8	   O	-0.623	2.124	1.686	O.3	1	UNK0	0.000	
9	   C	0.569	2.101	2.187	C.3	1	UNK0	0.000	
10	   C	0.866	0.773	2.901	C.3	1	UNK0	0.000	
11	   N	0.769	-0.321	1.983	N.pl3	1	UNK0	0.000	
12	   C	0.996	-1.671	2.368	C.2	1	UNK0	0.000	
13	   O	1.289	-1.839	3.603	O.2	1	UNK0	0.000	
14	   C	0.917	-2.836	1.463	C.3	1	UNK0	0.000	
15	   N	0.581	-2.518	0.102	N.pl3	1	UNK0	0.000	
16	   C	1.585	-2.205	-0.878	C.2	1	UNK0	0.000	
17	   O	2.780	-1.873	-0.677	O.2	1	UNK0	0.000	
18	   C	0.971	-2.338	-2.199	C.3	1	UNK0	0.000	
19	   C	-0.493	-2.765	-1.972	C.3	1	UNK0	0.000	
20	   C	-1.326	-1.839	-2.786	C.3	1	UNK0	0.000	
21	   C	-0.340	-1.484	-3.919	C.3	1	UNK0	0.000	
22	   C	0.762	-1.043	-2.935	C.3	1	UNK0	0.000	
23	   C	-0.064	-0.138	-2.066	C.2	1	UNK0	0.000	
24	   C	-1.335	-0.525	-2.096	C.2	1	UNK0	0.000	
25	   C	-0.704	-2.464	-0.532	C.2	1	UNK0	0.000	
26	   O	-1.775	-2.208	0.045	O.2	1	UNK0	0.000	
27	   H	-1.266	2.422	-0.757	 H	1	UNK0	0.000	
28	   H	-2.767	1.856	3.146	 H	1	UNK0	0.000	
29	   H	-5.111	1.893	2.238	 H	1	UNK0	0.000	
30	   H	-5.474	2.191	-0.131	 H	1	UNK0	0.000	
31	   H	1.360	2.144	1.357	 H	1	UNK0	0.000	
32	   H	0.866	2.944	2.893	 H	1	UNK0	0.000	
33	   H	1.836	0.823	3.426	 H	1	UNK0	0.000	
34	   H	0.082	0.722	3.713	 H	1	UNK0	0.000	
35	   H	0.522	-0.126	0.990	 H	1	UNK0	0.000	
36	   H	0.087	-3.488	1.872	 H	1	UNK0	0.000	
37	   H	1.864	-3.453	1.520	 H	1	UNK0	0.000	
38	   H	1.488	-3.069	-2.866	 H	1	UNK0	0.000	
39	   H	-0.630	-3.835	-2.201	 H	1	UNK0	0.000	
40	   H	-2.268	-2.194	-3.135	 H	1	UNK0	0.000	
41	   H	-0.049	-2.358	-4.499	 H	1	UNK0	0.000	
42	   H	-0.696	-0.626	-4.503	 H	1	UNK0	0.000	
43	   H	1.610	-0.600	-3.399	 H	1	UNK0	0.000	
44	   H	0.271	0.712	-1.484	 H	1	UNK0	0.000	
45	   H	-2.240	-0.063	-1.733	 H	1	UNK0	0.000	
@<TRIPOS>BOND
1 1 2 1
2 2 3 2
3 2 7 1
4 3 4 1
5 4 5 2
6 4 8 1
7 5 6 1
8 6 7 2
9 8 9 1
10 9 10 1
11 10 11 1
12 11 12 1
13 12 13 2
14 12 14 1
15 14 15 1
16 15 16 1
17 15 25 1
18 16 17 2
19 16 18 1
20 18 19 1
21 18 22 1
22 19 20 1
23 19 25 1
24 20 21 1
25 20 24 1
26 21 22 1
27 22 23 1
28 23 24 2
29 25 26 2
30 3 27 1
31 5 28 1
32 6 29 1
33 7 30 1
34 9 31 1
35 9 32 1
36 10 33 1
37 10 34 1
38 11 35 1
39 14 36 1
40 14 37 1
41 18 38 1
42 19 39 1
43 20 40 1
44 21 41 1
45 21 42 1
46 22 43 1
47 23 44 1
48 24 45 1
@<TRIPOS>SUBSTRUCTURE
1	UNK0	1	GROUP	1 ****	UNK
# created with PyMOL 2.3.2
@<TRIPOS>MOLECULE
226
50 53 1                 
SMALL
USER_CHARGES
@<TRIPOS>ATOM
1	  Br	-2.881	0.082	6.966	Br	1	UNK0	0.000	
2	   C	-1.983	0.187	5.293	C.2	1	UNK0	0.000	
3	   C	-0.641	0.535	5.241	C.2	1	UNK0	0.000	
4	   C	0.040	0.620	4.038	C.2	1	UNK0	0.000	
5	   C	-0.583	0.365	2.841	C.2	1	UNK0	0.000	
6	   C	-1.921	0.019	2.906	C.2	1	UNK0	0.000	
7	   C	-2.610	-0.070	4.094	C.2	1	UNK0	0.000	
8	   C	0.133	0.451	1.570	C.2	1	UNK0	0.000	
9	   O	1.333	0.770	1.586	O.2	1	UNK0	0.000	
10	   C	-0.564	0.162	0.278	C.3	1	UNK0	0.000	
11	   N	0.300	0.264	-0.864	N.pl3	1	UNK0	0.000	
12	   C	0.550	1.359	-1.601	C.2	1	UNK0	0.000	
13	   C	1.430	1.045	-2.619	C.2	1	UNK0	0.000	
14	   N	1.689	-0.259	-2.463	N.2	1	UNK0	0.000	
15	   C	1.019	-0.758	-1.409	C.2	1	UNK0	0.000	
16	   N	1.009	-2.082	-0.908	N.pl3	1	UNK0	0.000	
17	   C	2.027	-2.484	0.008	C.3	1	UNK0	0.000	
18	   C	1.794	-3.732	0.775	C.3	1	UNK0	0.000	
19	   N	0.904	-4.679	0.171	N.3	1	UNK0	0.000	
20	   C	-0.316	-3.982	-0.187	C.3	1	UNK0	0.000	
21	   C	-0.014	-2.995	-1.316	C.3	1	UNK0	0.000	
22	   C	1.483	-5.393	-0.931	C.3	1	UNK0	0.000	
23	   N	1.823	1.993	-3.489	N.pl3	1	UNK0	0.000	
24	   C	1.369	3.254	-3.381	C.2	1	UNK0	0.000	
25	   O	1.710	4.169	-4.171	O.2	1	UNK0	0.000	
26	   N	0.501	3.577	-2.383	N.pl3	1	UNK0	0.000	
27	   C	0.079	2.665	-1.489	C.2	1	UNK0	0.000	
28	   O	-0.732	3.007	-0.568	O.2	1	UNK0	0.000	
29	   C	2.745	1.696	-4.566	C.3	1	UNK0	0.000	
30	   H	-0.144	0.737	6.188	 H	1	UNK0	0.000	
31	   H	1.103	0.898	4.030	 H	1	UNK0	0.000	
32	   H	-2.432	-0.188	1.967	 H	1	UNK0	0.000	
33	   H	-3.651	-0.340	4.116	 H	1	UNK0	0.000	
34	   H	-1.080	-0.820	0.343	 H	1	UNK0	0.000	
35	   H	-1.374	0.910	0.186	 H	1	UNK0	0.000	
36	   H	2.960	-2.600	-0.607	 H	1	UNK0	0.000	
37	   H	2.234	-1.663	0.737	 H	1	UNK0	0.000	
38	   H	1.443	-3.525	1.816	 H	1	UNK0	0.000	
39	   H	2.787	-4.273	0.853	 H	1	UNK0	0.000	
40	   H	-0.588	-3.352	0.694	 H	1	UNK0	0.000	
41	   H	-1.153	-4.614	-0.460	 H	1	UNK0	0.000	
42	   H	0.250	-3.550	-2.251	 H	1	UNK0	0.000	
43	   H	-0.987	-2.506	-1.531	 H	1	UNK0	0.000	
44	   H	2.257	-4.737	-1.424	 H	1	UNK0	0.000	
45	   H	0.736	-5.708	-1.685	 H	1	UNK0	0.000	
46	   H	2.039	-6.295	-0.610	 H	1	UNK0	0.000	
47	   H	0.171	4.569	-2.335	 H	1	UNK0	0.000	
48	   H	3.756	1.655	-4.109	 H	1	UNK0	0.000	
49	   H	2.523	0.686	-4.963	 H	1	UNK0	0.000	
50	   H	2.703	2.473	-5.354	 H	1	UNK0	0.000	
@<TRIPOS>BOND
1 1 2 1
2 2 3 2
3 2 7 1
4 3 4 1
5 4 5 2
6 5 6 1
7 5 8 1
8 6 7 2
9 8 9 2
10 8 10 1
11 10 11 1
12 11 12 1
13 11 15 1
14 12 13 2
15 12 27 1
16 13 14 1
17 13 23 1
18 14 15 2
19 15 16 1
20 16 17 1
21 16 21 1
22 17 18 1
23 18 19 1
24 19 20 1
25 19 22 1
26 20 21 1
27 23 24 1
28 23 29 1
29 24 25 2
30 24 26 1
31 26 27 1
32 27 28 2
33 3 30 1
34 4 31 1
35 6 32 1
36 7 33 1
37 10 34 1
38 10 35 1
39 17 36 1
40 17 37 1
41 18 38 1
42 18 39 1
43 20 40 1
44 20 41 1
45 21 42 1
46 21 43 1
47 22 44 1
48 22 45 1
49 22 46 1
50 26 47 1
51 29 48 1
52 29 49 1
53 29 50 1
@<TRIPOS>SUBSTRUCTURE
1	UNK0	1	GROUP	1 ****	UNK
# created with PyMOL 2.3.2
@<TRIPOS>MOLECULE
231
58 61 1                 
SMALL
USER_CHARGES
@<TRIPOS>ATOM
1	  Br	-1.522	4.121	-6.672	Br	1	UNK0	0.000	
2	   C	-1.224	3.635	-4.862	C.2	1	UNK0	0.000	
3	   C	-1.160	4.625	-3.911	C.2	1	UNK0	0.000	
4	   C	-0.945	4.288	-2.600	C.2	1	UNK0	0.000	
5	   C	-0.789	2.957	-2.196	C.2	1	UNK0	0.000	
6	   C	-0.864	2.012	-3.199	C.2	1	UNK0	0.000	
7	   C	-1.079	2.314	-4.531	C.2	1	UNK0	0.000	
8	   C	-0.569	2.626	-0.800	C.2	1	UNK0	0.000	
9	   O	-0.544	3.550	0.039	O.2	1	UNK0	0.000	
10	   C	-0.382	1.243	-0.402	C.3	1	UNK0	0.000	
11	   C	-0.196	1.020	1.079	C.3	1	UNK0	0.000	
12	   N	0.293	-0.339	1.123	N.pl3	1	UNK0	0.000	
13	   C	1.088	-0.516	-0.045	C.2	1	UNK0	0.000	
14	   O	1.811	-1.527	-0.305	O.2	1	UNK0	0.000	
15	   C	0.927	0.678	-0.897	C.2	1	UNK0	0.000	
16	   O	1.695	1.081	-1.785	O.2	1	UNK0	0.000	
17	   C	0.072	-1.371	2.105	C.3	1	UNK0	0.000	
18	   C	-1.129	-2.221	1.821	C.3	1	UNK0	0.000	
19	   N	-1.106	-2.919	0.594	N.4	1	UNK0	0.000	
20	   C	-2.455	-3.435	0.339	C.3	1	UNK0	0.000	
21	   C	-2.826	-4.549	1.261	C.3	1	UNK0	0.000	
22	   O	-1.775	-5.098	1.954	O.3	1	UNK0	0.000	
23	   C	-0.683	-5.281	1.142	C.3	1	UNK0	0.000	
24	   C	-0.203	-4.010	0.495	C.3	1	UNK0	0.000	
25	   C	0.669	1.991	1.731	C.2	1	UNK0	0.000	
26	   C	0.167	2.965	2.606	C.2	1	UNK0	0.000	
27	   C	0.994	3.880	3.224	C.2	1	UNK0	0.000	
28	   C	2.359	3.870	3.004	C.2	1	UNK0	0.000	
29	   C	2.874	2.920	2.148	C.2	1	UNK0	0.000	
30	   C	2.030	2.008	1.534	C.2	1	UNK0	0.000	
31	   O	3.214	4.780	3.613	O.2	1	UNK0	0.000	
32	   O	0.505	4.844	4.088	O.3	1	UNK0	0.000	
33	   C	-0.855	4.981	4.412	C.3	1	UNK0	0.000	
34	   H	-1.280	5.645	-4.225	 H	1	UNK0	0.000	
35	   H	-0.886	5.026	-1.814	 H	1	UNK0	0.000	
36	   H	-0.758	0.961	-2.970	 H	1	UNK0	0.000	
37	   H	-1.135	1.568	-5.295	 H	1	UNK0	0.000	
38	   H	-1.164	0.551	-0.781	 H	1	UNK0	0.000	
39	   H	-1.209	1.114	1.528	 H	1	UNK0	0.000	
40	   H	-0.130	-0.841	3.075	 H	1	UNK0	0.000	
41	   H	0.931	-2.020	2.274	 H	1	UNK0	0.000	
42	   H	-2.075	-1.605	1.850	 H	1	UNK0	0.000	
43	   H	-1.234	-2.937	2.662	 H	1	UNK0	0.000	
44	   H	-0.916	-2.263	-0.214	 H	1	UNK0	0.000	
45	   H	-3.203	-2.621	0.303	 H	1	UNK0	0.000	
46	   H	-2.414	-3.865	-0.699	 H	1	UNK0	0.000	
47	   H	-3.546	-4.147	2.016	 H	1	UNK0	0.000	
48	   H	-3.328	-5.398	0.713	 H	1	UNK0	0.000	
49	   H	0.134	-5.774	1.746	 H	1	UNK0	0.000	
50	   H	-0.965	-6.065	0.387	 H	1	UNK0	0.000	
51	   H	0.820	-3.811	0.863	 H	1	UNK0	0.000	
52	   H	-0.079	-4.243	-0.604	 H	1	UNK0	0.000	
53	   H	-0.908	2.974	2.780	 H	1	UNK0	0.000	
54	   H	3.943	2.923	1.983	 H	1	UNK0	0.000	
55	   H	2.474	1.296	0.886	 H	1	UNK0	0.000	
56	   H	-1.504	4.992	3.497	 H	1	UNK0	0.000	
57	   H	-0.999	5.977	4.883	 H	1	UNK0	0.000	
58	   H	-1.231	4.224	5.110	 H	1	UNK0	0.000	
@<TRIPOS>BOND
1 1 2 1
2 2 3 2
3 2 7 1
4 3 4 1
5 4 5 2
6 5 6 1
7 5 8 1
8 6 7 2
9 8 9 2
10 8 10 1
11 10 11 1
12 10 15 1
13 11 12 1
14 11 25 1
15 12 13 1
16 12 17 1
17 13 14 2
18 13 15 1
19 15 16 2
20 17 18 1
21 18 19 1
22 19 20 1
23 19 24 1
24 20 21 1
25 21 22 1
26 22 23 1
27 23 24 1
28 25 26 2
29 25 30 1
30 26 27 1
31 27 28 2
32 27 32 1
33 28 29 1
34 28 31 1
35 29 30 2
36 32 33 1
37 3 34 1
38 4 35 1
39 6 36 1
40 7 37 1
41 10 38 1
42 11 39 1
43 17 40 1
44 17 41 1
45 18 42 1
46 18 43 1
47 19 44 1
48 20 45 1
49 20 46 1
50 21 47 1
51 21 48 1
52 23 49 1
53 23 50 1
54 24 51 1
55 24 52 1
56 26 53 1
57 29 54 1
58 30 55 1
59 33 56 1
60 33 57 1
61 33 58 1
@<TRIPOS>SUBSTRUCTURE
1	UNK0	1	GROUP	1 ****	UNK
# created with PyMOL 2.3.2
@<TRIPOS>MOLECULE
235
41 44 1                 
SMALL
USER_CHARGES
@<TRIPOS>ATOM
1	  Br	-0.093	-6.471	-1.344	Br	1	UNK0	0.000	
2	   C	-0.407	-4.745	-0.591	C.2	1	UNK0	0.000	
3	   C	-0.638	-3.648	-1.392	C.2	1	UNK0	0.000	
4	   C	-0.869	-2.385	-0.896	C.2	1	UNK0	0.000	
5	   C	-0.877	-2.170	0.458	C.2	1	UNK0	0.000	
6	   C	-0.646	-3.266	1.274	C.2	1	UNK0	0.000	
7	   C	-0.416	-4.525	0.769	C.2	1	UNK0	0.000	
8	   C	-1.109	-0.866	1.037	C.2	1	UNK0	0.000	
9	   O	-1.117	-0.766	2.307	O.2	1	UNK0	0.000	
10	   C	-1.341	0.373	0.282	C.3	1	UNK0	0.000	
11	   N	-1.644	1.486	1.168	N.pl3	1	UNK0	0.000	
12	   N	-1.885	1.670	2.514	N.2	1	UNK0	0.000	
13	   C	-2.020	2.826	3.062	C.2	1	UNK0	0.000	
14	   C	-1.931	4.017	2.249	C.2	1	UNK0	0.000	
15	   C	-1.731	3.923	0.955	C.2	1	UNK0	0.000	
16	   C	-1.603	2.645	0.280	C.3	1	UNK0	0.000	
17	   C	-0.327	2.407	-0.447	C.3	1	UNK0	0.000	
18	   C	-0.092	0.893	-0.395	C.3	1	UNK0	0.000	
19	   C	1.107	0.750	0.428	C.2	1	UNK0	0.000	
20	   O	1.513	-0.324	0.952	O.2	1	UNK0	0.000	
21	   N	1.737	2.011	0.543	N.pl3	1	UNK0	0.000	
22	   C	0.839	3.049	0.172	C.2	1	UNK0	0.000	
23	   O	1.003	4.282	0.338	O.2	1	UNK0	0.000	
24	   C	3.097	2.239	0.972	C.3	1	UNK0	0.000	
25	   C	4.088	2.238	-0.152	C.3	1	UNK0	0.000	
26	   H	-0.641	-3.774	-2.481	 H	1	UNK0	0.000	
27	   H	-1.054	-1.531	-1.559	 H	1	UNK0	0.000	
28	   H	-0.646	-3.125	2.366	 H	1	UNK0	0.000	
29	   H	-0.240	-5.351	1.438	 H	1	UNK0	0.000	
30	   H	-2.105	0.202	-0.472	 H	1	UNK0	0.000	
31	   H	-2.203	2.950	4.140	 H	1	UNK0	0.000	
32	   H	-2.034	4.990	2.737	 H	1	UNK0	0.000	
33	   H	-1.658	4.830	0.365	 H	1	UNK0	0.000	
34	   H	-2.497	2.517	-0.398	 H	1	UNK0	0.000	
35	   H	-0.386	2.775	-1.495	 H	1	UNK0	0.000	
36	   H	0.030	0.577	-1.436	 H	1	UNK0	0.000	
37	   H	3.433	1.490	1.725	 H	1	UNK0	0.000	
38	   H	3.195	3.233	1.487	 H	1	UNK0	0.000	
39	   H	3.764	1.607	-1.009	 H	1	UNK0	0.000	
40	   H	4.319	3.282	-0.478	 H	1	UNK0	0.000	
41	   H	5.067	1.817	0.197	 H	1	UNK0	0.000	
@<TRIPOS>BOND
1 1 2 1
2 2 3 2
3 2 7 1
4 3 4 1
5 4 5 2
6 5 6 1
7 5 8 1
8 6 7 2
9 8 9 2
10 8 10 1
11 10 11 1
12 10 18 1
13 11 12 1
14 11 16 1
15 12 13 2
16 13 14 1
17 14 15 2
18 15 16 1
19 16 17 1
20 17 18 1
21 17 22 1
22 18 19 1
23 19 20 2
24 19 21 1
25 21 22 1
26 21 24 1
27 22 23 2
28 24 25 1
29 3 26 1
30 4 27 1
31 6 28 1
32 7 29 1
33 10 30 1
34 13 31 1
35 14 32 1
36 15 33 1
37 16 34 1
38 17 35 1
39 18 36 1
40 24 37 1
41 24 38 1
42 25 39 1
43 25 40 1
44 25 41 1
@<TRIPOS>SUBSTRUCTURE
1	UNK0	1	GROUP	1 ****	UNK
# created with PyMOL 2.3.2
@<TRIPOS>MOLECULE
243
48 51 1                 
SMALL
USER_CHARGES
@<TRIPOS>ATOM
1	  Br	6.441	-4.402	-4.911	Br	1	UNK0	0.000	
2	   C	4.808	-3.542	-4.459	C.2	1	UNK0	0.000	
3	   C	4.503	-3.120	-3.181	C.2	1	UNK0	0.000	
4	   C	3.307	-2.498	-2.886	C.2	1	UNK0	0.000	
5	   C	2.351	-2.266	-3.853	C.2	1	UNK0	0.000	
6	   C	2.655	-2.687	-5.127	C.2	1	UNK0	0.000	
7	   C	3.843	-3.307	-5.432	C.2	1	UNK0	0.000	
8	   C	1.077	-1.604	-3.538	C.2	1	UNK0	0.000	
9	   O	0.279	-1.440	-4.522	O.2	1	UNK0	0.000	
10	   N	0.730	-1.170	-2.256	N.pl3	1	UNK0	0.000	
11	   C	-0.535	-0.527	-2.009	C.3	1	UNK0	0.000	
12	   C	-0.374	0.882	-1.493	C.3	1	UNK0	0.000	
13	   N	-0.401	0.740	-0.053	N.pl3	1	UNK0	0.000	
14	   C	-0.991	-0.538	0.309	C.3	1	UNK0	0.000	
15	   C	-1.251	-1.305	-0.940	C.3	1	UNK0	0.000	
16	   C	-0.021	-1.194	1.215	C.2	1	UNK0	0.000	
17	   O	0.305	-2.384	1.008	O.2	1	UNK0	0.000	
18	   N	0.504	-0.438	2.291	N.pl3	1	UNK0	0.000	
19	   C	0.467	1.005	2.351	C.3	1	UNK0	0.000	
20	   C	0.009	1.550	1.041	C.2	1	UNK0	0.000	
21	   O	-0.026	2.820	0.860	O.2	1	UNK0	0.000	
22	   C	-0.383	1.484	3.503	C.3	1	UNK0	0.000	
23	   C	-1.788	1.003	3.380	C.2	1	UNK0	0.000	
24	   C	-2.741	1.765	2.703	C.2	1	UNK0	0.000	
25	   C	-4.024	1.271	2.620	C.2	1	UNK0	0.000	
26	   C	-4.404	0.061	3.174	C.2	1	UNK0	0.000	
27	   C	-3.430	-0.654	3.831	C.2	1	UNK0	0.000	
28	   C	-2.131	-0.211	3.947	C.2	1	UNK0	0.000	
29	   H	5.266	-3.308	-2.420	 H	1	UNK0	0.000	
30	   H	3.147	-2.202	-1.878	 H	1	UNK0	0.000	
31	   H	1.940	-2.527	-5.915	 H	1	UNK0	0.000	
32	   H	4.078	-3.640	-6.450	 H	1	UNK0	0.000	
33	   H	1.378	-1.304	-1.462	 H	1	UNK0	0.000	
34	   H	-1.094	-0.463	-2.951	 H	1	UNK0	0.000	
35	   H	0.573	1.270	-1.879	 H	1	UNK0	0.000	
36	   H	-1.180	1.561	-1.796	 H	1	UNK0	0.000	
37	   H	-1.956	-0.351	0.825	 H	1	UNK0	0.000	
38	   H	-0.930	-2.352	-0.868	 H	1	UNK0	0.000	
39	   H	-2.333	-1.296	-1.178	 H	1	UNK0	0.000	
40	   H	0.940	-0.990	3.076	 H	1	UNK0	0.000	
41	   H	1.512	1.357	2.475	 H	1	UNK0	0.000	
42	   H	-0.373	2.586	3.580	 H	1	UNK0	0.000	
43	   H	0.036	1.022	4.419	 H	1	UNK0	0.000	
44	   H	-2.430	2.706	2.277	 H	1	UNK0	0.000	
45	   H	-4.788	1.857	2.090	 H	1	UNK0	0.000	
46	   H	-5.428	-0.278	3.077	 H	1	UNK0	0.000	
47	   H	-3.717	-1.614	4.274	 H	1	UNK0	0.000	
48	   H	-1.374	-0.778	4.464	 H	1	UNK0	0.000	
@<TRIPOS>BOND
1 1 2 1
2 2 3 2
3 2 7 1
4 3 4 1
5 4 5 2
6 5 6 1
7 5 8 1
8 6 7 2
9 8 9 2
10 8 10 1
11 10 11 1
12 11 12 1
13 11 15 1
14 12 13 1
15 13 14 1
16 13 20 1
17 14 15 1
18 14 16 1
19 16 17 2
20 16 18 1
21 18 19 1
22 19 20 1
23 19 22 1
24 20 21 2
25 22 23 1
26 23 24 2
27 23 28 1
28 24 25 1
29 25 26 2
30 26 27 1
31 27 28 2
32 3 29 1
33 4 30 1
34 6 31 1
35 7 32 1
36 10 33 1
37 11 34 1
38 12 35 1
39 12 36 1
40 14 37 1
41 15 38 1
42 15 39 1
43 18 40 1
44 19 41 1
45 22 42 1
46 22 43 1
47 24 44 1
48 25 45 1
49 26 46 1
50 27 47 1
51 28 48 1
@<TRIPOS>SUBSTRUCTURE
1	UNK0	1	GROUP	1 ****	UNK
# created with PyMOL 2.3.2
@<TRIPOS>MOLECULE
244
42 45 1                 
SMALL
USER_CHARGES
@<TRIPOS>ATOM
1	  Br	4.422	-2.856	-6.260	Br	1	UNK0	0.000	
2	   C	3.166	-1.791	-5.316	C.2	1	UNK0	0.000	
3	   C	2.358	-0.906	-6.009	C.2	1	UNK0	0.000	
4	   C	1.431	-0.110	-5.373	C.2	1	UNK0	0.000	
5	   C	1.275	-0.172	-4.006	C.2	1	UNK0	0.000	
6	   C	2.067	-1.041	-3.318	C.2	1	UNK0	0.000	
7	   C	3.010	-1.853	-3.944	C.2	1	UNK0	0.000	
8	   C	0.272	0.695	-3.357	C.2	1	UNK0	0.000	
9	   O	-0.412	1.464	-4.064	O.2	1	UNK0	0.000	
10	   N	0.074	0.669	-1.953	N.pl3	1	UNK0	0.000	
11	   C	-0.905	1.521	-1.362	C.3	1	UNK0	0.000	
12	   C	-0.349	2.405	-0.270	C.3	1	UNK0	0.000	
13	   N	-0.387	1.543	0.898	N.pl3	1	UNK0	0.000	
14	   C	-1.427	0.549	0.719	C.3	1	UNK0	0.000	
15	   C	-1.934	0.653	-0.680	C.3	1	UNK0	0.000	
16	   C	-0.810	-0.768	1.019	C.2	1	UNK0	0.000	
17	   O	-0.963	-1.785	0.303	O.2	1	UNK0	0.000	
18	   N	0.001	-0.914	2.170	N.pl3	1	UNK0	0.000	
19	   C	0.721	0.196	2.759	C.3	1	UNK0	0.000	
20	   C	0.307	0.073	4.191	C.3	1	UNK0	0.000	
21	   C	0.359	-1.446	4.394	C.3	1	UNK0	0.000	
22	   C	0.305	-2.054	2.989	C.3	1	UNK0	0.000	
23	   C	0.346	1.480	2.115	C.2	1	UNK0	0.000	
24	   O	0.686	2.586	2.659	O.2	1	UNK0	0.000	
25	   H	2.439	-0.818	-7.079	 H	1	UNK0	0.000	
26	   H	0.795	0.589	-5.931	 H	1	UNK0	0.000	
27	   H	1.992	-1.132	-2.265	 H	1	UNK0	0.000	
28	   H	3.632	-2.539	-3.385	 H	1	UNK0	0.000	
29	   H	0.627	0.037	-1.321	 H	1	UNK0	0.000	
30	   H	-1.396	2.117	-2.155	 H	1	UNK0	0.000	
31	   H	-1.021	3.266	-0.147	 H	1	UNK0	0.000	
32	   H	0.644	2.761	-0.527	 H	1	UNK0	0.000	
33	   H	-2.263	0.685	1.454	 H	1	UNK0	0.000	
34	   H	-2.109	-0.294	-1.190	 H	1	UNK0	0.000	
35	   H	-2.896	1.237	-0.692	 H	1	UNK0	0.000	
36	   H	1.821	0.063	2.690	 H	1	UNK0	0.000	
37	   H	1.026	0.586	4.840	 H	1	UNK0	0.000	
38	   H	-0.740	0.451	4.344	 H	1	UNK0	0.000	
39	   H	-0.492	-1.789	5.017	 H	1	UNK0	0.000	
40	   H	1.311	-1.758	4.845	 H	1	UNK0	0.000	
41	   H	1.275	-2.514	2.721	 H	1	UNK0	0.000	
42	   H	-0.468	-2.845	2.945	 H	1	UNK0	0.000	
@<TRIPOS>BOND
1 1 2 1
2 2 3 2
3 2 7 1
4 3 4 1
5 4 5 2
6 5 6 1
7 5 8 1
8 6 7 2
9 8 9 2
10 8 10 1
11 10 11 1
12 11 12 1
13 11 15 1
14 12 13 1
15 13 14 1
16 13 23 1
17 14 15 1
18 14 16 1
19 16 17 2
20 16 18 1
21 18 19 1
22 18 22 1
23 19 20 1
24 19 23 1
25 20 21 1
26 21 22 1
27 23 24 2
28 3 25 1
29 4 26 1
30 6 27 1
31 7 28 1
32 10 29 1
33 11 30 1
34 12 31 1
35 12 32 1
36 14 33 1
37 15 34 1
38 15 35 1
39 19 36 1
40 20 37 1
41 20 38 1
42 21 39 1
43 21 40 1
44 22 41 1
45 22 42 1
@<TRIPOS>SUBSTRUCTURE
1	UNK0	1	GROUP	1 ****	UNK
# created with PyMOL 2.3.2
@<TRIPOS>MOLECULE
247
35 38 1                 
SMALL
USER_CHARGES
@<TRIPOS>ATOM
1	  Br	6.211	2.913	-3.363	Br	1	UNK0	0.000	
2	   C	4.593	2.076	-2.781	C.2	1	UNK0	0.000	
3	   C	4.474	1.660	-1.487	C.2	1	UNK0	0.000	
4	   C	3.313	1.057	-1.049	C.2	1	UNK0	0.000	
5	   C	2.239	0.858	-1.911	C.2	1	UNK0	0.000	
6	   C	2.377	1.284	-3.212	C.2	1	UNK0	0.000	
7	   C	3.526	1.884	-3.658	C.2	1	UNK0	0.000	
8	   C	1.041	0.234	-1.403	C.2	1	UNK0	0.000	
9	   O	0.255	-0.310	-2.245	O.2	1	UNK0	0.000	
10	   N	0.761	0.235	-0.020	N.pl3	1	UNK0	0.000	
11	   N	-0.411	-0.375	0.498	N.pl3	1	UNK0	0.000	
12	   C	-0.530	-1.396	1.482	C.2	1	UNK0	0.000	
13	   O	0.494	-2.021	1.923	O.2	1	UNK0	0.000	
14	   C	-1.952	-1.585	1.870	C.3	1	UNK0	0.000	
15	   C	-2.633	-0.451	1.128	C.3	1	UNK0	0.000	
16	   C	-2.763	0.572	2.236	C.3	1	UNK0	0.000	
17	   C	-3.400	-0.360	3.288	C.3	1	UNK0	0.000	
18	   C	-2.166	-1.281	3.326	C.3	1	UNK0	0.000	
19	   C	-1.145	-0.233	3.683	C.2	1	UNK0	0.000	
20	   C	-1.456	0.802	2.912	C.2	1	UNK0	0.000	
21	   C	-1.708	-0.015	0.067	C.2	1	UNK0	0.000	
22	   O	-2.034	0.558	-0.995	O.2	1	UNK0	0.000	
23	   H	5.277	1.797	-0.799	 H	1	UNK0	0.000	
24	   H	3.265	0.737	-0.014	 H	1	UNK0	0.000	
25	   H	1.541	1.136	-3.907	 H	1	UNK0	0.000	
26	   H	3.656	2.225	-4.678	 H	1	UNK0	0.000	
27	   H	1.414	0.693	0.641	 H	1	UNK0	0.000	
28	   H	-2.329	-2.582	1.574	 H	1	UNK0	0.000	
29	   H	-3.614	-0.762	0.782	 H	1	UNK0	0.000	
30	   H	-3.351	1.431	2.016	 H	1	UNK0	0.000	
31	   H	-3.548	0.171	4.234	 H	1	UNK0	0.000	
32	   H	-4.278	-0.855	2.882	 H	1	UNK0	0.000	
33	   H	-2.249	-2.094	4.001	 H	1	UNK0	0.000	
34	   H	-0.378	-0.391	4.414	 H	1	UNK0	0.000	
35	   H	-0.837	1.678	2.802	 H	1	UNK0	0.000	
@<TRIPOS>BOND
1 1 2 1
2 2 3 2
3 2 7 1
4 3 4 1
5 4 5 2
6 5 6 1
7 5 8 1
8 6 7 2
9 8 9 2
10 8 10 1
11 10 11 1
12 11 12 1
13 11 21 1
14 12 13 2
15 12 14 1
16 14 15 1
17 14 18 1
18 15 16 1
19 15 21 1
20 16 17 1
21 16 20 1
22 17 18 1
23 18 19 1
24 19 20 2
25 21 22 2
26 3 23 1
27 4 24 1
28 6 25 1
29 7 26 1
30 10 27 1
31 14 28 1
32 15 29 1
33 16 30 1
34 17 31 1
35 17 32 1
36 18 33 1
37 19 34 1
38 20 35 1
@<TRIPOS>SUBSTRUCTURE
1	UNK0	1	GROUP	1 ****	UNK
# created with PyMOL 2.3.2
@<TRIPOS>MOLECULE
257
49 52 1                 
SMALL
USER_CHARGES
@<TRIPOS>ATOM
1	  Br	-6.832	3.785	-2.789	Br	1	UNK0	0.000	
2	   C	-5.040	3.355	-2.305	C.2	1	UNK0	0.000	
3	   C	-3.980	4.215	-2.497	C.2	1	UNK0	0.000	
4	   C	-2.690	3.887	-2.141	C.2	1	UNK0	0.000	
5	   C	-2.399	2.646	-1.560	C.2	1	UNK0	0.000	
6	   C	-3.470	1.798	-1.375	C.2	1	UNK0	0.000	
7	   C	-4.775	2.128	-1.735	C.2	1	UNK0	0.000	
8	   C	-1.034	2.342	-1.167	C.2	1	UNK0	0.000	
9	   C	-0.488	1.206	-1.517	C.2	1	UNK0	0.000	
10	   C	0.889	0.700	-1.214	C.3	1	UNK0	0.000	
11	   N	0.614	-0.711	-0.970	N.pl3	1	UNK0	0.000	
12	   C	-0.368	-1.060	-1.966	C.2	1	UNK0	0.000	
13	   O	-0.542	-2.207	-2.409	O.2	1	UNK0	0.000	
14	   C	-1.092	0.166	-2.336	C.2	1	UNK0	0.000	
15	   O	-2.023	0.293	-3.174	O.2	1	UNK0	0.000	
16	   C	1.206	-1.550	0.031	C.3	1	UNK0	0.000	
17	   C	2.472	-2.229	-0.468	C.3	1	UNK0	0.000	
18	   C	3.013	-3.093	0.671	C.3	1	UNK0	0.000	
19	   N	2.055	-4.103	1.077	N.pl3	1	UNK0	0.000	
20	   C	1.929	-5.360	0.591	C.2	1	UNK0	0.000	
21	   N	0.922	-5.976	1.233	N.pl3	1	UNK0	0.000	
22	   C	0.385	-5.140	2.134	C.2	1	UNK0	0.000	
23	   C	1.110	-3.971	2.020	C.2	1	UNK0	0.000	
24	   C	1.456	1.393	-0.031	C.2	1	UNK0	0.000	
25	   N	2.575	2.115	-0.202	N.2	1	UNK0	0.000	
26	   C	3.169	2.790	0.785	C.2	1	UNK0	0.000	
27	   C	2.602	2.738	2.037	C.2	1	UNK0	0.000	
28	   C	1.456	2.011	2.258	C.2	1	UNK0	0.000	
29	   C	0.885	1.336	1.210	C.2	1	UNK0	0.000	
30	   O	-0.272	3.251	-0.407	O.2	1	UNK0	0.000	
31	   H	-4.208	5.176	-2.947	 H	1	UNK0	0.000	
32	   H	-1.857	4.567	-2.294	 H	1	UNK0	0.000	
33	   H	-3.300	0.835	-0.912	 H	1	UNK0	0.000	
34	   H	-5.588	1.410	-1.562	 H	1	UNK0	0.000	
35	   H	1.561	0.836	-2.076	 H	1	UNK0	0.000	
36	   H	0.493	-2.394	0.232	 H	1	UNK0	0.000	
37	   H	1.432	-1.075	0.983	 H	1	UNK0	0.000	
38	   H	2.292	-2.900	-1.315	 H	1	UNK0	0.000	
39	   H	3.256	-1.484	-0.688	 H	1	UNK0	0.000	
40	   H	3.952	-3.561	0.298	 H	1	UNK0	0.000	
41	   H	3.315	-2.443	1.537	 H	1	UNK0	0.000	
42	   H	2.526	-5.819	-0.184	 H	1	UNK0	0.000	
43	   H	0.587	-6.967	1.070	 H	1	UNK0	0.000	
44	   H	-0.434	-5.306	2.818	 H	1	UNK0	0.000	
45	   H	0.947	-3.064	2.607	 H	1	UNK0	0.000	
46	   H	4.082	3.377	0.635	 H	1	UNK0	0.000	
47	   H	3.080	3.287	2.856	 H	1	UNK0	0.000	
48	   H	1.002	1.964	3.238	 H	1	UNK0	0.000	
49	   H	-0.027	0.749	1.319	 H	1	UNK0	0.000	
@<TRIPOS>BOND
1 1 2 1
2 2 3 2
3 2 7 1
4 3 4 1
5 4 5 2
6 5 6 1
7 5 8 1
8 6 7 2
9 8 9 2
10 8 30 1
11 9 10 1
12 9 14 1
13 10 11 1
14 10 24 1
15 11 12 1
16 11 16 1
17 12 13 2
18 12 14 1
19 14 15 2
20 16 17 1
21 17 18 1
22 18 19 1
23 19 20 1
24 19 23 1
25 20 21 2
26 21 22 1
27 22 23 2
28 24 25 2
29 24 29 1
30 25 26 1
31 26 27 2
32 27 28 1
33 28 29 2
34 3 31 1
35 4 32 1
36 6 33 1
37 7 34 1
38 10 35 1
39 16 36 1
40 16 37 1
41 17 38 1
42 17 39 1
43 18 40 1
44 18 41 1
45 20 42 1
46 21 43 1
47 22 44 1
48 23 45 1
49 26 46 1
50 27 47 1
51 28 48 1
52 29 49 1
@<TRIPOS>SUBSTRUCTURE
1	UNK0	1	GROUP	1 ****	UNK
# created with PyMOL 2.3.2
@<TRIPOS>MOLECULE
263
55 58 1                 
SMALL
USER_CHARGES
@<TRIPOS>ATOM
1	  Br	3.754	4.123	-5.878	Br	1	UNK0	0.000	
2	   C	2.774	2.759	-4.941	C.2	1	UNK0	0.000	
3	   C	3.469	1.964	-4.058	C.2	1	UNK0	0.000	
4	   C	2.795	0.988	-3.380	C.2	1	UNK0	0.000	
5	   C	1.428	0.797	-3.575	C.2	1	UNK0	0.000	
6	   C	0.754	1.586	-4.448	C.2	1	UNK0	0.000	
7	   C	1.422	2.575	-5.139	C.2	1	UNK0	0.000	
8	   C	0.834	-0.304	-2.835	C.2	1	UNK0	0.000	
9	   C	-0.123	-0.099	-1.969	C.2	1	UNK0	0.000	
10	   C	-0.836	-1.134	-1.138	C.3	1	UNK0	0.000	
11	   N	-1.149	-0.434	0.060	N.pl3	1	UNK0	0.000	
12	   C	-1.318	0.960	-0.294	C.2	1	UNK0	0.000	
13	   O	-1.913	1.847	0.364	O.2	1	UNK0	0.000	
14	   C	-0.668	1.182	-1.581	C.2	1	UNK0	0.000	
15	   O	-0.615	2.299	-2.198	O.2	1	UNK0	0.000	
16	   C	-1.358	-0.848	1.435	C.3	1	UNK0	0.000	
17	   C	-0.157	-0.769	2.321	C.3	1	UNK0	0.000	
18	   N	0.393	0.574	2.409	N.4	1	UNK0	0.000	
19	   C	1.766	0.540	2.923	C.3	1	UNK0	0.000	
20	   C	2.265	1.987	2.810	C.3	1	UNK0	0.000	
21	   O	1.503	2.861	3.546	O.3	1	UNK0	0.000	
22	   C	0.143	2.785	3.289	C.3	1	UNK0	0.000	
23	   C	-0.367	1.366	3.343	C.3	1	UNK0	0.000	
24	   C	-0.057	-2.361	-1.031	C.2	1	UNK0	0.000	
25	   C	1.165	-2.487	-0.427	C.2	1	UNK0	0.000	
26	   C	1.831	-3.683	-0.360	C.2	1	UNK0	0.000	
27	   C	1.267	-4.800	-0.914	C.2	1	UNK0	0.000	
28	   C	0.027	-4.735	-1.542	C.2	1	UNK0	0.000	
29	   C	-0.612	-3.523	-1.591	C.2	1	UNK0	0.000	
30	   N	3.086	-3.740	0.278	N.pl3	1	UNK0	0.000	
31	   O	3.624	-2.727	0.794	O.2	1	UNK0	0.000	
32	   O	3.739	-4.950	0.334	O.2	1	UNK0	0.000	
33	   O	1.279	-1.630	-3.034	O.2	1	UNK0	0.000	
34	   H	4.542	2.083	-3.878	 H	1	UNK0	0.000	
35	   H	3.345	0.345	-2.669	 H	1	UNK0	0.000	
36	   H	-0.318	1.417	-4.625	 H	1	UNK0	0.000	
37	   H	0.877	3.210	-5.841	 H	1	UNK0	0.000	
38	   H	-1.809	-1.331	-1.659	 H	1	UNK0	0.000	
39	   H	-1.675	-1.915	1.402	 H	1	UNK0	0.000	
40	   H	-2.174	-0.266	1.914	 H	1	UNK0	0.000	
41	   H	0.641	-1.476	2.150	 H	1	UNK0	0.000	
42	   H	-0.558	-1.040	3.363	 H	1	UNK0	0.000	
43	   H	0.444	1.069	1.515	 H	1	UNK0	0.000	
44	   H	2.431	-0.064	2.277	 H	1	UNK0	0.000	
45	   H	1.813	0.278	3.983	 H	1	UNK0	0.000	
46	   H	3.307	2.078	3.119	 H	1	UNK0	0.000	
47	   H	2.211	2.227	1.713	 H	1	UNK0	0.000	
48	   H	-0.360	3.328	4.142	 H	1	UNK0	0.000	
49	   H	-0.166	3.282	2.359	 H	1	UNK0	0.000	
50	   H	-1.423	1.355	3.022	 H	1	UNK0	0.000	
51	   H	-0.260	0.961	4.376	 H	1	UNK0	0.000	
52	   H	1.617	-1.613	0.003	 H	1	UNK0	0.000	
53	   H	1.739	-5.773	-0.895	 H	1	UNK0	0.000	
54	   H	-0.422	-5.628	-1.984	 H	1	UNK0	0.000	
55	   H	-1.592	-3.474	-2.088	 H	1	UNK0	0.000	
@<TRIPOS>BOND
1 1 2 1
2 2 3 2
3 2 7 1
4 3 4 1
5 4 5 2
6 5 6 1
7 5 8 1
8 6 7 2
9 8 9 2
10 8 33 1
11 9 10 1
12 9 14 1
13 10 11 1
14 10 24 1
15 11 12 1
16 11 16 1
17 12 13 2
18 12 14 1
19 14 15 2
20 16 17 1
21 17 18 1
22 18 19 1
23 18 23 1
24 19 20 1
25 20 21 1
26 21 22 1
27 22 23 1
28 24 25 2
29 24 29 1
30 25 26 1
31 26 27 2
32 26 30 1
33 27 28 1
34 28 29 2
35 30 31 2
36 30 32 1
37 3 34 1
38 4 35 1
39 6 36 1
40 7 37 1
41 10 38 1
42 16 39 1
43 16 40 1
44 17 41 1
45 17 42 1
46 18 43 1
47 19 44 1
48 19 45 1
49 20 46 1
50 20 47 1
51 22 48 1
52 22 49 1
53 23 50 1
54 23 51 1
55 25 52 1
56 27 53 1
57 28 54 1
58 29 55 1
@<TRIPOS>SUBSTRUCTURE
1	UNK0	1	GROUP	1 ****	UNK
# created with PyMOL 2.3.2
@<TRIPOS>MOLECULE
265
59 62 1                 
SMALL
USER_CHARGES
@<TRIPOS>ATOM
1	  Br	-6.598	0.446	-5.572	Br	1	UNK0	0.000	
2	   C	-5.253	0.315	-4.218	C.2	1	UNK0	0.000	
3	   C	-4.458	-0.809	-4.151	C.2	1	UNK0	0.000	
4	   C	-3.482	-0.920	-3.184	C.2	1	UNK0	0.000	
5	   C	-3.240	0.077	-2.230	C.2	1	UNK0	0.000	
6	   C	-4.043	1.190	-2.312	C.2	1	UNK0	0.000	
7	   C	-5.036	1.308	-3.293	C.2	1	UNK0	0.000	
8	   C	-2.219	-0.116	-1.211	C.2	1	UNK0	0.000	
9	   C	-1.235	0.728	-0.992	C.2	1	UNK0	0.000	
10	   C	-0.158	0.578	0.052	C.3	1	UNK0	0.000	
11	   N	0.630	1.759	-0.022	N.pl3	1	UNK0	0.000	
12	   C	0.220	2.590	-1.128	C.2	1	UNK0	0.000	
13	   O	0.721	3.650	-1.528	O.2	1	UNK0	0.000	
14	   C	-0.958	1.933	-1.739	C.2	1	UNK0	0.000	
15	   O	-1.595	2.375	-2.749	O.2	1	UNK0	0.000	
16	   C	1.715	2.155	0.835	C.3	1	UNK0	0.000	
17	   C	1.327	2.975	2.017	C.3	1	UNK0	0.000	
18	   N	0.421	2.346	2.931	N.4	1	UNK0	0.000	
19	   C	-0.951	2.792	2.802	C.3	1	UNK0	0.000	
20	   C	-1.795	1.900	3.689	C.3	1	UNK0	0.000	
21	   O	-1.419	2.214	5.017	O.3	1	UNK0	0.000	
22	   C	-0.115	1.733	5.164	C.3	1	UNK0	0.000	
23	   C	0.798	2.619	4.332	C.3	1	UNK0	0.000	
24	   C	0.615	-0.627	-0.380	C.2	1	UNK0	0.000	
25	   C	1.346	-0.546	-1.523	C.2	1	UNK0	0.000	
26	   C	2.074	-1.629	-1.971	C.2	1	UNK0	0.000	
27	   C	2.064	-2.799	-1.261	C.2	1	UNK0	0.000	
28	   C	1.327	-2.878	-0.108	C.2	1	UNK0	0.000	
29	   C	0.594	-1.794	0.347	C.2	1	UNK0	0.000	
30	   C	2.830	-3.957	-1.728	C.2	1	UNK0	0.000	
31	   O	3.496	-3.870	-2.791	O.co2	1	UNK0	0.000	
32	   O	2.861	-5.151	-1.061	O.3	1	UNK0	0.000	
33	   C	3.598	-6.265	-1.513	C.3	1	UNK0	0.000	
34	   O	-2.239	-1.261	-0.381	O.2	1	UNK0	0.000	
35	   H	-4.629	-1.602	-4.887	 H	1	UNK0	0.000	
36	   H	-2.875	-1.804	-3.148	 H	1	UNK0	0.000	
37	   H	-3.918	1.994	-1.578	 H	1	UNK0	0.000	
38	   H	-5.651	2.195	-3.333	 H	1	UNK0	0.000	
39	   H	-0.692	0.404	0.997	 H	1	UNK0	0.000	
40	   H	2.304	1.259	1.190	 H	1	UNK0	0.000	
41	   H	2.474	2.762	0.263	 H	1	UNK0	0.000	
42	   H	0.784	3.882	1.619	 H	1	UNK0	0.000	
43	   H	2.195	3.398	2.561	 H	1	UNK0	0.000	
44	   H	0.473	1.294	2.877	 H	1	UNK0	0.000	
45	   H	-1.316	2.802	1.756	 H	1	UNK0	0.000	
46	   H	-1.023	3.822	3.232	 H	1	UNK0	0.000	
47	   H	-2.872	2.143	3.557	 H	1	UNK0	0.000	
48	   H	-1.581	0.815	3.483	 H	1	UNK0	0.000	
49	   H	-0.086	0.721	4.673	 H	1	UNK0	0.000	
50	   H	0.196	1.705	6.225	 H	1	UNK0	0.000	
51	   H	0.586	3.705	4.504	 H	1	UNK0	0.000	
52	   H	1.868	2.389	4.510	 H	1	UNK0	0.000	
53	   H	1.381	0.347	-2.107	 H	1	UNK0	0.000	
54	   H	2.642	-1.552	-2.870	 H	1	UNK0	0.000	
55	   H	1.337	-3.828	0.442	 H	1	UNK0	0.000	
56	   H	0.023	-1.858	1.241	 H	1	UNK0	0.000	
57	   H	2.984	-7.015	-2.015	 H	1	UNK0	0.000	
58	   H	4.416	-5.945	-2.206	 H	1	UNK0	0.000	
59	   H	4.099	-6.775	-0.643	 H	1	UNK0	0.000	
@<TRIPOS>BOND
1 1 2 1
2 2 3 2
3 2 7 1
4 3 4 1
5 4 5 2
6 5 6 1
7 5 8 1
8 6 7 2
9 8 9 2
10 8 34 1
11 9 10 1
12 9 14 1
13 10 11 1
14 10 24 1
15 11 12 1
16 11 16 1
17 12 13 2
18 12 14 1
19 14 15 2
20 16 17 1
21 17 18 1
22 18 19 1
23 18 23 1
24 19 20 1
25 20 21 1
26 21 22 1
27 22 23 1
28 24 25 2
29 24 29 1
30 25 26 1
31 26 27 2
32 27 28 1
33 27 30 1
34 28 29 2
35 30 31 2
36 30 32 1
37 32 33 1
38 3 35 1
39 4 36 1
40 6 37 1
41 7 38 1
42 10 39 1
43 16 40 1
44 16 41 1
45 17 42 1
46 17 43 1
47 18 44 1
48 19 45 1
49 19 46 1
50 20 47 1
51 20 48 1
52 22 49 1
53 22 50 1
54 23 51 1
55 23 52 1
56 25 53 1
57 26 54 1
58 28 55 1
59 29 56 1
60 33 57 1
61 33 58 1
62 33 59 1
@<TRIPOS>SUBSTRUCTURE
1	UNK0	1	GROUP	1 ****	UNK
# created with PyMOL 2.3.2
@<TRIPOS>MOLECULE
274
53 56 1                 
SMALL
USER_CHARGES
@<TRIPOS>ATOM
1	  Br	2.577	-8.824	2.339	Br	1	UNK0	0.000	
2	   C	2.215	-6.942	2.272	C.2	1	UNK0	0.000	
3	   C	1.553	-6.306	3.297	C.2	1	UNK0	0.000	
4	   C	1.294	-4.945	3.241	C.2	1	UNK0	0.000	
5	   C	1.685	-4.177	2.167	C.2	1	UNK0	0.000	
6	   C	2.348	-4.815	1.144	C.2	1	UNK0	0.000	
7	   C	2.612	-6.187	1.194	C.2	1	UNK0	0.000	
8	   C	1.438	-2.746	2.127	C.2	1	UNK0	0.000	
9	   C	0.914	-2.099	1.104	C.2	1	UNK0	0.000	
10	   C	0.618	-0.647	0.939	C.3	1	UNK0	0.000	
11	   N	0.861	-0.424	-0.496	N.pl3	1	UNK0	0.000	
12	   C	0.435	-1.617	-1.125	C.2	1	UNK0	0.000	
13	   O	0.104	-1.710	-2.314	O.2	1	UNK0	0.000	
14	   C	0.453	-2.698	-0.146	C.2	1	UNK0	0.000	
15	   O	0.151	-3.912	-0.264	O.2	1	UNK0	0.000	
16	   C	1.406	0.783	-1.001	C.3	1	UNK0	0.000	
17	   C	0.491	1.882	-1.355	C.3	1	UNK0	0.000	
18	   N	-0.485	1.599	-2.362	N.4	1	UNK0	0.000	
19	   C	0.024	1.251	-3.642	C.3	1	UNK0	0.000	
20	   C	-0.184	2.416	-4.585	C.3	1	UNK0	0.000	
21	   O	0.062	3.642	-3.973	O.3	1	UNK0	0.000	
22	   C	-0.867	3.941	-2.994	C.3	1	UNK0	0.000	
23	   C	-1.474	2.645	-2.505	C.3	1	UNK0	0.000	
24	   C	-0.730	-0.257	1.358	C.2	1	UNK0	0.000	
25	   C	-0.932	0.485	2.528	C.2	1	UNK0	0.000	
26	   C	-2.157	0.879	2.971	C.2	1	UNK0	0.000	
27	   C	-3.289	0.545	2.251	C.2	1	UNK0	0.000	
28	   C	-3.124	-0.179	1.105	C.2	1	UNK0	0.000	
29	   C	-1.865	-0.583	0.651	C.2	1	UNK0	0.000	
30	   O	1.783	-1.989	3.264	O.2	1	UNK0	0.000	
31	   H	1.240	-6.893	4.145	 H	1	UNK0	0.000	
32	   H	0.773	-4.427	4.039	 H	1	UNK0	0.000	
33	   H	2.720	-4.320	0.259	 H	1	UNK0	0.000	
34	   H	3.135	-6.683	0.382	 H	1	UNK0	0.000	
35	   H	1.344	-0.068	1.547	 H	1	UNK0	0.000	
36	   H	2.172	1.140	-0.259	 H	1	UNK0	0.000	
37	   H	2.048	0.502	-1.890	 H	1	UNK0	0.000	
38	   H	1.137	2.708	-1.787	 H	1	UNK0	0.000	
39	   H	-0.025	2.357	-0.506	 H	1	UNK0	0.000	
40	   H	-1.019	0.752	-1.995	 H	1	UNK0	0.000	
41	   H	1.080	0.909	-3.632	 H	1	UNK0	0.000	
42	   H	-0.573	0.393	-4.069	 H	1	UNK0	0.000	
43	   H	-1.222	2.334	-4.974	 H	1	UNK0	0.000	
44	   H	0.496	2.258	-5.451	 H	1	UNK0	0.000	
45	   H	-1.676	4.576	-3.405	 H	1	UNK0	0.000	
46	   H	-0.402	4.521	-2.171	 H	1	UNK0	0.000	
47	   H	-2.039	2.803	-1.540	 H	1	UNK0	0.000	
48	   H	-2.257	2.364	-3.235	 H	1	UNK0	0.000	
49	   H	-0.058	0.760	3.111	 H	1	UNK0	0.000	
50	   H	-2.265	1.451	3.880	 H	1	UNK0	0.000	
51	   H	-4.262	0.863	2.611	 H	1	UNK0	0.000	
52	   H	-3.969	-0.464	0.508	 H	1	UNK0	0.000	
53	   H	-1.803	-1.145	-0.248	 H	1	UNK0	0.000	
@<TRIPOS>BOND
1 1 2 1
2 2 3 2
3 2 7 1
4 3 4 1
5 4 5 2
6 5 6 1
7 5 8 1
8 6 7 2
9 8 9 2
10 8 30 1
11 9 10 1
12 9 14 1
13 10 11 1
14 10 24 1
15 11 12 1
16 11 16 1
17 12 13 2
18 12 14 1
19 14 15 2
20 16 17 1
21 17 18 1
22 18 19 1
23 18 23 1
24 19 20 1
25 20 21 1
26 21 22 1
27 22 23 1
28 24 25 2
29 24 29 1
30 25 26 1
31 26 27 2
32 27 28 1
33 28 29 2
34 3 31 1
35 4 32 1
36 6 33 1
37 7 34 1
38 10 35 1
39 16 36 1
40 16 37 1
41 17 38 1
42 17 39 1
43 18 40 1
44 19 41 1
45 19 42 1
46 20 43 1
47 20 44 1
48 22 45 1
49 22 46 1
50 23 47 1
51 23 48 1
52 25 49 1
53 26 50 1
54 27 51 1
55 28 52 1
56 29 53 1
@<TRIPOS>SUBSTRUCTURE
1	UNK0	1	GROUP	1 ****	UNK
# created with PyMOL 2.3.2
@<TRIPOS>MOLECULE
278
48 51 1                 
SMALL
USER_CHARGES
@<TRIPOS>ATOM
1	  Br	2.421	-3.323	7.205	Br	1	UNK0	0.000	
2	   C	1.681	-2.321	5.751	C.2	1	UNK0	0.000	
3	   C	0.374	-2.540	5.379	C.2	1	UNK0	0.000	
4	   C	-0.149	-1.820	4.338	C.2	1	UNK0	0.000	
5	   C	0.623	-0.896	3.679	C.2	1	UNK0	0.000	
6	   C	1.924	-0.705	4.078	C.2	1	UNK0	0.000	
7	   C	2.498	-1.409	5.125	C.2	1	UNK0	0.000	
8	   C	0.045	-0.106	2.528	C.3	1	UNK0	0.000	
9	   O	0.384	1.217	2.735	O.3	1	UNK0	0.000	
10	   C	0.511	-0.663	1.217	C.3	1	UNK0	0.000	
11	   N	-0.006	0.043	0.081	N.pl3	1	UNK0	0.000	
12	   C	-1.182	-0.294	-0.500	C.2	1	UNK0	0.000	
13	   C	-1.359	0.588	-1.554	C.2	1	UNK0	0.000	
14	   C	-2.499	0.477	-2.328	C.2	1	UNK0	0.000	
15	   C	-3.472	-0.498	-2.076	C.2	1	UNK0	0.000	
16	   C	-3.250	-1.358	-1.009	C.2	1	UNK0	0.000	
17	   C	-2.127	-1.270	-0.224	C.2	1	UNK0	0.000	
18	   N	-0.303	1.453	-1.620	N.pl3	1	UNK0	0.000	
19	   C	0.511	1.087	-0.594	C.cat	1	UNK0	0.000	
20	   N	1.625	1.683	-0.329	N.pl3	1	UNK0	0.000	
21	   C	-0.169	2.482	-2.607	C.3	1	UNK0	0.000	
22	   C	0.576	2.043	-3.837	C.2	1	UNK0	0.000	
23	   C	1.939	2.273	-3.913	C.2	1	UNK0	0.000	
24	   C	2.693	1.898	-5.008	C.2	1	UNK0	0.000	
25	   C	2.040	1.276	-6.043	C.2	1	UNK0	0.000	
26	   C	0.692	1.037	-5.994	C.2	1	UNK0	0.000	
27	   C	-0.027	1.421	-4.894	C.2	1	UNK0	0.000	
28	   H	-0.241	-3.289	5.919	 H	1	UNK0	0.000	
29	   H	-1.177	-1.981	4.034	 H	1	UNK0	0.000	
30	   H	2.560	0.032	3.557	 H	1	UNK0	0.000	
31	   H	3.536	-1.247	5.433	 H	1	UNK0	0.000	
32	   H	-1.070	-0.162	2.637	 H	1	UNK0	0.000	
33	   H	1.346	1.385	2.707	 H	1	UNK0	0.000	
34	   H	1.630	-0.508	1.197	 H	1	UNK0	0.000	
35	   H	0.370	-1.747	1.127	 H	1	UNK0	0.000	
36	   H	-2.634	1.175	-3.141	 H	1	UNK0	0.000	
37	   H	-4.335	-0.545	-2.701	 H	1	UNK0	0.000	
38	   H	-3.994	-2.119	-0.800	 H	1	UNK0	0.000	
39	   H	-1.989	-1.956	0.596	 H	1	UNK0	0.000	
40	   H	2.209	1.338	0.491	 H	1	UNK0	0.000	
41	   H	2.025	2.480	-0.829	 H	1	UNK0	0.000	
42	   H	0.381	3.364	-2.204	 H	1	UNK0	0.000	
43	   H	-1.180	2.799	-2.935	 H	1	UNK0	0.000	
44	   H	2.494	2.775	-3.103	 H	1	UNK0	0.000	
45	   H	3.774	2.087	-5.052	 H	1	UNK0	0.000	
46	   H	2.589	0.960	-6.929	 H	1	UNK0	0.000	
47	   H	0.211	0.533	-6.852	 H	1	UNK0	0.000	
48	   H	-1.073	1.229	-4.877	 H	1	UNK0	0.000	
@<TRIPOS>BOND
1 1 2 1
2 2 3 2
3 2 7 1
4 3 4 1
5 4 5 2
6 5 6 1
7 5 8 1
8 6 7 2
9 8 9 1
10 8 10 1
11 10 11 1
12 11 12 1
13 11 19 1
14 12 13 1
15 12 17 2
16 13 14 2
17 13 18 1
18 14 15 1
19 15 16 2
20 16 17 1
21 18 19 1
22 18 21 1
23 19 20 2
24 21 22 1
25 22 23 2
26 22 27 1
27 23 24 1
28 24 25 2
29 25 26 1
30 26 27 2
31 3 28 1
32 4 29 1
33 6 30 1
34 7 31 1
35 8 32 1
36 9 33 1
37 10 34 1
38 10 35 1
39 14 36 1
40 15 37 1
41 16 38 1
42 17 39 1
43 20 40 1
44 20 41 1
45 21 42 1
46 21 43 1
47 23 44 1
48 24 45 1
49 25 46 1
50 26 47 1
51 27 48 1
@<TRIPOS>SUBSTRUCTURE
1	UNK0	1	GROUP	1 ****	UNK
# created with PyMOL 2.3.2
@<TRIPOS>MOLECULE
289
55 58 1                 
SMALL
USER_CHARGES
@<TRIPOS>ATOM
1	  Br	-3.850	-5.982	-4.530	Br	1	UNK0	0.000	
2	   C	-3.259	-4.266	-3.898	C.2	1	UNK0	0.000	
3	   C	-2.008	-3.787	-4.229	C.2	1	UNK0	0.000	
4	   C	-1.578	-2.551	-3.773	C.2	1	UNK0	0.000	
5	   C	-2.396	-1.785	-2.981	C.2	1	UNK0	0.000	
6	   C	-3.650	-2.248	-2.642	C.2	1	UNK0	0.000	
7	   C	-4.064	-3.481	-3.104	C.2	1	UNK0	0.000	
8	   C	-1.888	-0.483	-2.509	C.3	1	UNK0	0.000	
9	   N	-2.556	0.034	-1.361	N.3	1	UNK0	0.000	
10	   C	-2.518	-0.765	-0.210	C.3	1	UNK0	0.000	
11	   C	-1.712	-0.129	0.918	C.3	1	UNK0	0.000	
12	   N	-1.128	1.058	0.398	N.pl3	1	UNK0	0.000	
13	   C	-2.042	2.069	-0.076	C.3	1	UNK0	0.000	
14	   C	-2.742	1.424	-1.278	C.3	1	UNK0	0.000	
15	   C	0.259	1.271	0.312	C.2	1	UNK0	0.000	
16	   N	1.108	1.622	1.292	N.pl3	1	UNK0	0.000	
17	   C	2.350	1.770	0.774	C.2	1	UNK0	0.000	
18	   C	2.297	1.505	-0.577	C.2	1	UNK0	0.000	
19	   N	1.023	1.205	-0.830	N.2	1	UNK0	0.000	
20	   N	3.420	1.590	-1.314	N.pl3	1	UNK0	0.000	
21	   C	4.598	1.927	-0.772	C.2	1	UNK0	0.000	
22	   O	5.638	1.999	-1.502	O.2	1	UNK0	0.000	
23	   N	4.671	2.190	0.544	N.pl3	1	UNK0	0.000	
24	   C	3.572	2.114	1.307	C.2	1	UNK0	0.000	
25	   O	3.643	2.361	2.536	O.2	1	UNK0	0.000	
26	   C	3.324	1.306	-2.750	C.3	1	UNK0	0.000	
27	   C	0.837	1.786	2.695	C.3	1	UNK0	0.000	
28	   C	1.117	0.525	3.481	C.3	1	UNK0	0.000	
29	   O	0.858	0.637	4.832	O.3	1	UNK0	0.000	
30	   C	1.188	-0.619	5.392	C.3	1	UNK0	0.000	
31	   H	-1.379	-4.398	-4.847	 H	1	UNK0	0.000	
32	   H	-0.583	-2.247	-4.079	 H	1	UNK0	0.000	
33	   H	-4.331	-1.656	-2.011	 H	1	UNK0	0.000	
34	   H	-5.059	-3.828	-2.820	 H	1	UNK0	0.000	
35	   H	-1.838	0.252	-3.332	 H	1	UNK0	0.000	
36	   H	-0.818	-0.668	-2.192	 H	1	UNK0	0.000	
37	   H	-1.932	-1.706	-0.462	 H	1	UNK0	0.000	
38	   H	-3.503	-1.146	0.159	 H	1	UNK0	0.000	
39	   H	-2.481	0.104	1.723	 H	1	UNK0	0.000	
40	   H	-1.036	-0.849	1.399	 H	1	UNK0	0.000	
41	   H	-1.504	2.977	-0.358	 H	1	UNK0	0.000	
42	   H	-2.833	2.313	0.690	 H	1	UNK0	0.000	
43	   H	-2.281	1.895	-2.175	 H	1	UNK0	0.000	
44	   H	-3.804	1.742	-1.301	 H	1	UNK0	0.000	
45	   H	5.601	2.457	0.980	 H	1	UNK0	0.000	
46	   H	2.930	2.230	-3.234	 H	1	UNK0	0.000	
47	   H	4.266	0.978	-3.182	 H	1	UNK0	0.000	
48	   H	2.526	0.533	-2.866	 H	1	UNK0	0.000	
49	   H	1.410	2.606	3.172	 H	1	UNK0	0.000	
50	   H	-0.249	2.061	2.859	 H	1	UNK0	0.000	
51	   H	2.165	0.187	3.278	 H	1	UNK0	0.000	
52	   H	0.481	-0.292	3.099	 H	1	UNK0	0.000	
53	   H	2.279	-0.802	5.189	 H	1	UNK0	0.000	
54	   H	0.661	-1.447	4.902	 H	1	UNK0	0.000	
55	   H	0.998	-0.578	6.481	 H	1	UNK0	0.000	
@<TRIPOS>BOND
1 1 2 1
2 2 3 2
3 2 7 1
4 3 4 1
5 4 5 2
6 5 6 1
7 5 8 1
8 6 7 2
9 8 9 1
10 9 10 1
11 9 14 1
12 10 11 1
13 11 12 1
14 12 13 1
15 12 15 1
16 13 14 1
17 15 16 1
18 15 19 2
19 16 17 1
20 16 27 1
21 17 18 2
22 17 24 1
23 18 19 1
24 18 20 1
25 20 21 1
26 20 26 1
27 21 22 2
28 21 23 1
29 23 24 1
30 24 25 2
31 27 28 1
32 28 29 1
33 29 30 1
34 3 31 1
35 4 32 1
36 6 33 1
37 7 34 1
38 8 35 1
39 8 36 1
40 10 37 1
41 10 38 1
42 11 39 1
43 11 40 1
44 13 41 1
45 13 42 1
46 14 43 1
47 14 44 1
48 23 45 1
49 26 46 1
50 26 47 1
51 26 48 1
52 27 49 1
53 27 50 1
54 28 51 1
55 28 52 1
56 30 53 1
57 30 54 1
58 30 55 1
@<TRIPOS>SUBSTRUCTURE
1	UNK0	1	GROUP	1 ****	UNK
# created with PyMOL 2.3.2
@<TRIPOS>MOLECULE
293
44 47 1                 
SMALL
USER_CHARGES
@<TRIPOS>ATOM
1	  Br	-4.323	4.400	3.868	Br	1	UNK0	0.000	
2	   C	-3.815	2.546	3.849	C.2	1	UNK0	0.000	
3	   C	-3.545	1.872	5.018	C.2	1	UNK0	0.000	
4	   C	-3.177	0.540	5.005	C.2	1	UNK0	0.000	
5	   C	-3.064	-0.176	3.825	C.2	1	UNK0	0.000	
6	   C	-3.336	0.502	2.658	C.2	1	UNK0	0.000	
7	   C	-3.708	1.849	2.664	C.2	1	UNK0	0.000	
8	   C	-2.677	-1.583	3.849	C.2	1	UNK0	0.000	
9	   C	-1.852	-2.057	2.908	C.2	1	UNK0	0.000	
10	   O	-1.329	-1.279	1.888	O.3	1	UNK0	0.000	
11	   C	-0.502	-2.020	1.050	C.2	1	UNK0	0.000	
12	   C	-0.473	-3.301	1.512	C.2	1	UNK0	0.000	
13	   C	0.280	-4.254	0.858	C.2	1	UNK0	0.000	
14	   C	0.979	-3.857	-0.252	C.2	1	UNK0	0.000	
15	   C	0.951	-2.540	-0.729	C.2	1	UNK0	0.000	
16	   C	0.207	-1.578	-0.093	C.2	1	UNK0	0.000	
17	   C	0.078	-0.166	-0.473	C.3	1	UNK0	0.000	
18	   N	0.781	0.292	-1.608	N.4	1	UNK0	0.000	
19	   C	0.090	-0.007	-2.845	C.3	1	UNK0	0.000	
20	   C	-0.902	1.100	-3.151	C.3	1	UNK0	0.000	
21	   O	-0.197	2.173	-3.674	O.3	1	UNK0	0.000	
22	   C	1.045	2.224	-3.032	C.3	1	UNK0	0.000	
23	   C	0.905	1.760	-1.591	C.3	1	UNK0	0.000	
24	   O	1.692	-2.218	-1.867	O.2	1	UNK0	0.000	
25	   C	-1.326	-3.380	2.706	C.2	1	UNK0	0.000	
26	   O	-1.570	-4.378	3.431	O.2	1	UNK0	0.000	
27	   H	-3.635	2.441	5.937	 H	1	UNK0	0.000	
28	   H	-2.964	0.014	5.934	 H	1	UNK0	0.000	
29	   H	-3.265	-0.006	1.717	 H	1	UNK0	0.000	
30	   H	-3.923	2.394	1.753	 H	1	UNK0	0.000	
31	   H	-3.022	-2.292	4.600	 H	1	UNK0	0.000	
32	   H	0.315	-5.278	1.213	 H	1	UNK0	0.000	
33	   H	1.576	-4.576	-0.782	 H	1	UNK0	0.000	
34	   H	0.258	0.467	0.428	 H	1	UNK0	0.000	
35	   H	-1.024	-0.015	-0.698	 H	1	UNK0	0.000	
36	   H	1.764	-0.048	-1.626	 H	1	UNK0	0.000	
37	   H	0.762	-0.205	-3.700	 H	1	UNK0	0.000	
38	   H	-0.523	-0.921	-2.697	 H	1	UNK0	0.000	
39	   H	-1.431	1.362	-2.216	 H	1	UNK0	0.000	
40	   H	-1.627	0.665	-3.888	 H	1	UNK0	0.000	
41	   H	1.388	3.273	-3.095	 H	1	UNK0	0.000	
42	   H	1.805	1.605	-3.567	 H	1	UNK0	0.000	
43	   H	1.836	2.041	-1.054	 H	1	UNK0	0.000	
44	   H	0.048	2.257	-1.138	 H	1	UNK0	0.000	
@<TRIPOS>BOND
1 1 2 1
2 2 3 2
3 2 7 1
4 3 4 1
5 4 5 2
6 5 6 1
7 5 8 1
8 6 7 2
9 8 9 2
10 9 10 1
11 9 25 1
12 10 11 1
13 11 12 2
14 11 16 1
15 12 13 1
16 12 25 1
17 13 14 2
18 14 15 1
19 15 16 2
20 15 24 1
21 16 17 1
22 17 18 1
23 18 19 1
24 18 23 1
25 19 20 1
26 20 21 1
27 21 22 1
28 22 23 1
29 25 26 2
30 3 27 1
31 4 28 1
32 6 29 1
33 7 30 1
34 8 31 1
35 13 32 1
36 14 33 1
37 17 34 1
38 17 35 1
39 18 36 1
40 19 37 1
41 19 38 1
42 20 39 1
43 20 40 1
44 22 41 1
45 22 42 1
46 23 43 1
47 23 44 1
@<TRIPOS>SUBSTRUCTURE
1	UNK0	1	GROUP	1 ****	UNK
# created with PyMOL 2.3.2
@<TRIPOS>MOLECULE
294
42 45 1                 
SMALL
USER_CHARGES
@<TRIPOS>ATOM
1	  Br	-1.933	4.911	6.282	Br	1	UNK0	0.000	
2	   C	-1.197	3.761	4.948	C.2	1	UNK0	0.000	
3	   C	-1.965	2.767	4.360	C.2	1	UNK0	0.000	
4	   C	-1.452	1.922	3.392	C.2	1	UNK0	0.000	
5	   C	-0.143	2.045	2.976	C.2	1	UNK0	0.000	
6	   C	0.612	3.036	3.566	C.2	1	UNK0	0.000	
7	   C	0.112	3.885	4.532	C.2	1	UNK0	0.000	
8	   C	0.420	1.166	1.957	C.2	1	UNK0	0.000	
9	   N	-0.243	0.238	1.387	N.2	1	UNK0	0.000	
10	   N	0.239	-0.618	0.421	N.pl3	1	UNK0	0.000	
11	   C	0.590	-1.943	0.776	C.2	1	UNK0	0.000	
12	   O	0.456	-2.313	1.964	O.2	1	UNK0	0.000	
13	   C	1.112	-2.894	-0.240	C.3	1	UNK0	0.000	
14	   N	1.192	-2.276	-1.549	N.pl3	1	UNK0	0.000	
15	   N	0.137	-2.383	-2.413	N.2	1	UNK0	0.000	
16	   C	0.449	-1.755	-3.555	C.2	1	UNK0	0.000	
17	   N	1.679	-1.276	-3.377	N.2	1	UNK0	0.000	
18	   C	2.155	-1.599	-2.116	C.2	1	UNK0	0.000	
19	   C	3.470	-1.199	-1.659	C.2	1	UNK0	0.000	
20	   N	4.339	-0.471	-2.467	N.2	1	UNK0	0.000	
21	   O	5.418	-0.232	-1.831	O.3	1	UNK0	0.000	
22	   N	5.357	-0.734	-0.661	N.2	1	UNK0	0.000	
23	   C	4.145	-1.351	-0.517	C.2	1	UNK0	0.000	
24	   N	3.806	-1.980	0.687	N.pl3	1	UNK0	0.000	
25	   C	-0.378	-1.619	-4.748	C.2	1	UNK0	0.000	
26	   N	-0.060	-0.991	-5.884	N.2	1	UNK0	0.000	
27	   O	-1.071	-1.086	-6.730	O.3	1	UNK0	0.000	
28	   N	-2.050	-1.757	-6.193	N.2	1	UNK0	0.000	
29	   C	-1.645	-2.111	-4.935	C.2	1	UNK0	0.000	
30	   N	-2.444	-2.857	-4.031	N.pl3	1	UNK0	0.000	
31	   H	-2.981	2.658	4.671	 H	1	UNK0	0.000	
32	   H	-2.068	1.139	2.934	 H	1	UNK0	0.000	
33	   H	1.651	3.117	3.221	 H	1	UNK0	0.000	
34	   H	0.752	4.662	4.977	 H	1	UNK0	0.000	
35	   H	1.451	1.311	1.672	 H	1	UNK0	0.000	
36	   H	0.341	-0.274	-0.582	 H	1	UNK0	0.000	
37	   H	1.925	-3.534	0.049	 H	1	UNK0	0.000	
38	   H	0.248	-3.672	-0.352	 H	1	UNK0	0.000	
39	   H	4.067	-2.983	0.831	 H	1	UNK0	0.000	
40	   H	3.310	-1.514	1.475	 H	1	UNK0	0.000	
41	   H	-3.212	-3.483	-4.403	 H	1	UNK0	0.000	
42	   H	-2.327	-2.833	-3.000	 H	1	UNK0	0.000	
@<TRIPOS>BOND
1 1 2 1
2 2 3 2
3 2 7 1
4 3 4 1
5 4 5 2
6 5 6 1
7 5 8 1
8 6 7 2
9 8 9 2
10 9 10 1
11 10 11 1
12 11 12 2
13 11 13 1
14 13 14 1
15 14 15 1
16 14 18 1
17 15 16 2
18 16 17 1
19 16 25 1
20 17 18 2
21 18 19 1
22 19 20 2
23 19 23 1
24 20 21 1
25 21 22 1
26 22 23 2
27 23 24 1
28 25 26 2
29 25 29 1
30 26 27 1
31 27 28 1
32 28 29 2
33 29 30 1
34 3 31 1
35 4 32 1
36 6 33 1
37 7 34 1
38 8 35 1
39 10 36 1
40 13 37 1
41 13 38 1
42 24 39 1
43 24 40 1
44 30 41 1
45 30 42 1
@<TRIPOS>SUBSTRUCTURE
1	UNK0	1	GROUP	1 ****	UNK
# created with PyMOL 2.3.2
@<TRIPOS>MOLECULE
302
50 54 1                 
SMALL
USER_CHARGES
@<TRIPOS>ATOM
1	  Br	0.841	1.106	-7.921	Br	1	UNK0	0.000	
2	   C	0.247	1.032	-6.120	C.2	1	UNK0	0.000	
3	   C	0.987	0.358	-5.168	C.2	1	UNK0	0.000	
4	   C	0.549	0.306	-3.847	C.2	1	UNK0	0.000	
5	   C	-0.619	0.914	-3.446	C.2	1	UNK0	0.000	
6	   C	-1.350	1.584	-4.401	C.2	1	UNK0	0.000	
7	   C	-0.926	1.646	-5.731	C.2	1	UNK0	0.000	
8	   C	-1.079	0.859	-2.062	C.2	1	UNK0	0.000	
9	   N	-0.465	0.241	-1.032	N.pl3	1	UNK0	0.000	
10	   C	-1.186	0.404	0.105	C.cat	1	UNK0	0.000	
11	   N	-2.277	1.132	-0.189	N.pl3	1	UNK0	0.000	
12	   C	-2.216	1.413	-1.511	C.2	1	UNK0	0.000	
13	   C	-2.957	1.265	0.966	C.2	1	UNK0	0.000	
14	   C	-2.292	0.619	1.986	C.2	1	UNK0	0.000	
15	   C	-2.776	0.599	3.289	C.2	1	UNK0	0.000	
16	   C	-3.957	1.240	3.585	C.2	1	UNK0	0.000	
17	   C	-4.615	1.883	2.559	C.2	1	UNK0	0.000	
18	   C	-4.158	1.919	1.259	C.2	1	UNK0	0.000	
19	   N	-1.181	0.088	1.410	N.pl3	1	UNK0	0.000	
20	   C	-0.208	-0.679	2.160	C.3	1	UNK0	0.000	
21	   C	0.879	0.204	2.733	C.3	1	UNK0	0.000	
22	   N	1.826	-0.584	3.469	N.4	1	UNK0	0.000	
23	   C	3.148	-0.001	3.376	C.3	1	UNK0	0.000	
24	   C	4.219	-1.027	3.096	C.3	1	UNK0	0.000	
25	   O	4.098	-2.068	4.019	O.3	1	UNK0	0.000	
26	   C	2.861	-2.674	3.964	C.3	1	UNK0	0.000	
27	   C	1.914	-1.949	3.044	C.3	1	UNK0	0.000	
28	   H	1.911	-0.125	-5.476	 H	1	UNK0	0.000	
29	   H	1.150	-0.227	-3.140	 H	1	UNK0	0.000	
30	   H	-2.273	2.080	-4.148	 H	1	UNK0	0.000	
31	   H	-1.517	2.182	-6.476	 H	1	UNK0	0.000	
32	   H	0.430	-0.287	-1.077	 H	1	UNK0	0.000	
33	   H	-2.945	1.985	-2.067	 H	1	UNK0	0.000	
34	   H	-2.210	0.078	4.036	 H	1	UNK0	0.000	
35	   H	-4.371	1.245	4.606	 H	1	UNK0	0.000	
36	   H	-5.539	2.387	2.781	 H	1	UNK0	0.000	
37	   H	-4.652	2.410	0.455	 H	1	UNK0	0.000	
38	   H	-0.714	-1.190	3.014	 H	1	UNK0	0.000	
39	   H	0.214	-1.469	1.509	 H	1	UNK0	0.000	
40	   H	0.465	0.961	3.400	 H	1	UNK0	0.000	
41	   H	1.395	0.687	1.881	 H	1	UNK0	0.000	
42	   H	1.580	-0.593	4.491	 H	1	UNK0	0.000	
43	   H	3.179	0.779	2.564	 H	1	UNK0	0.000	
44	   H	3.439	0.527	4.311	 H	1	UNK0	0.000	
45	   H	5.194	-0.524	3.260	 H	1	UNK0	0.000	
46	   H	4.162	-1.369	2.049	 H	1	UNK0	0.000	
47	   H	3.030	-3.706	3.546	 H	1	UNK0	0.000	
48	   H	2.386	-2.780	4.965	 H	1	UNK0	0.000	
49	   H	0.903	-2.420	3.205	 H	1	UNK0	0.000	
50	   H	2.250	-2.077	2.006	 H	1	UNK0	0.000	
@<TRIPOS>BOND
1 1 2 1
2 2 3 2
3 2 7 1
4 3 4 1
5 4 5 2
6 5 6 1
7 5 8 1
8 6 7 2
9 8 9 1
10 8 12 2
11 9 10 2
12 10 11 1
13 10 19 1
14 11 12 1
15 11 13 1
16 13 14 2
17 13 18 1
18 14 15 1
19 14 19 1
20 15 16 2
21 16 17 1
22 17 18 2
23 19 20 1
24 20 21 1
25 21 22 1
26 22 23 1
27 22 27 1
28 23 24 1
29 24 25 1
30 25 26 1
31 26 27 1
32 3 28 1
33 4 29 1
34 6 30 1
35 7 31 1
36 9 32 1
37 12 33 1
38 15 34 1
39 16 35 1
40 17 36 1
41 18 37 1
42 20 38 1
43 20 39 1
44 21 40 1
45 21 41 1
46 22 42 1
47 23 43 1
48 23 44 1
49 24 45 1
50 24 46 1
51 26 47 1
52 26 48 1
53 27 49 1
54 27 50 1
@<TRIPOS>SUBSTRUCTURE
1	UNK0	1	GROUP	1 ****	UNK
# created with PyMOL 2.3.2
@<TRIPOS>MOLECULE
305
41 44 1                 
SMALL
USER_CHARGES
@<TRIPOS>ATOM
1	  Br	-5.578	0.031	-4.960	Br	1	UNK0	0.000	
2	   C	-4.118	-0.380	-3.826	C.2	1	UNK0	0.000	
3	   C	-3.344	-1.492	-4.084	C.2	1	UNK0	0.000	
4	   C	-2.295	-1.789	-3.271	C.2	1	UNK0	0.000	
5	   C	-1.959	-1.004	-2.166	C.2	1	UNK0	0.000	
6	   C	-2.769	0.084	-1.965	C.2	1	UNK0	0.000	
7	   C	-3.839	0.433	-2.750	C.2	1	UNK0	0.000	
8	   C	-0.927	-1.502	-1.277	C.2	1	UNK0	0.000	
9	   N	0.150	-1.013	-0.676	N.pl3	1	UNK0	0.000	
10	   C	0.757	-1.968	0.071	C.2	1	UNK0	0.000	
11	   N	0.027	-3.088	-0.086	N.2	1	UNK0	0.000	
12	   N	-0.966	-2.840	-0.876	N.2	1	UNK0	0.000	
13	   N	1.851	-1.503	0.686	N.pl3	1	UNK0	0.000	
14	   C	1.946	-0.222	0.314	C.2	1	UNK0	0.000	
15	   C	0.895	0.120	-0.548	C.2	1	UNK0	0.000	
16	   N	0.808	1.331	-1.074	N.pl3	1	UNK0	0.000	
17	   C	1.775	2.238	-0.734	C.2	1	UNK0	0.000	
18	   O	1.727	3.398	-1.207	O.2	1	UNK0	0.000	
19	   N	2.786	1.945	0.093	N.pl3	1	UNK0	0.000	
20	   C	2.897	0.719	0.631	C.2	1	UNK0	0.000	
21	   O	3.834	0.406	1.411	O.2	1	UNK0	0.000	
22	   C	-0.137	1.781	-2.063	C.3	1	UNK0	0.000	
23	   C	2.739	-2.226	1.568	C.3	1	UNK0	0.000	
24	   C	2.328	-2.124	3.021	C.3	1	UNK0	0.000	
25	   O	1.054	-2.635	3.237	O.3	1	UNK0	0.000	
26	   C	0.774	-2.494	4.596	C.3	1	UNK0	0.000	
27	   H	-3.559	-2.137	-4.929	 H	1	UNK0	0.000	
28	   H	-1.694	-2.674	-3.493	 H	1	UNK0	0.000	
29	   H	-2.564	0.710	-1.075	 H	1	UNK0	0.000	
30	   H	-4.423	1.297	-2.530	 H	1	UNK0	0.000	
31	   H	3.520	2.635	0.353	 H	1	UNK0	0.000	
32	   H	-0.296	1.048	-2.869	 H	1	UNK0	0.000	
33	   H	-1.023	2.293	-1.666	 H	1	UNK0	0.000	
34	   H	0.364	2.640	-2.668	 H	1	UNK0	0.000	
35	   H	3.762	-1.885	1.476	 H	1	UNK0	0.000	
36	   H	2.670	-3.292	1.251	 H	1	UNK0	0.000	
37	   H	2.314	-1.043	3.312	 H	1	UNK0	0.000	
38	   H	3.082	-2.620	3.633	 H	1	UNK0	0.000	
39	   H	0.812	-1.412	4.881	 H	1	UNK0	0.000	
40	   H	1.456	-3.088	5.238	 H	1	UNK0	0.000	
41	   H	-0.266	-2.858	4.823	 H	1	UNK0	0.000	
@<TRIPOS>BOND
1 1 2 1
2 2 3 2
3 2 7 1
4 3 4 1
5 4 5 2
6 5 6 1
7 5 8 1
8 6 7 2
9 8 9 1
10 8 12 2
11 9 10 1
12 9 15 1
13 10 11 2
14 10 13 1
15 11 12 1
16 13 14 1
17 13 23 1
18 14 15 2
19 14 20 1
20 15 16 1
21 16 17 1
22 16 22 1
23 17 18 2
24 17 19 1
25 19 20 1
26 20 21 2
27 23 24 1
28 24 25 1
29 25 26 1
30 3 27 1
31 4 28 1
32 6 29 1
33 7 30 1
34 19 31 1
35 22 32 1
36 22 33 1
37 22 34 1
38 23 35 1
39 23 36 1
40 24 37 1
41 24 38 1
42 26 39 1
43 26 40 1
44 26 41 1
@<TRIPOS>SUBSTRUCTURE
1	UNK0	1	GROUP	1 ****	UNK
# created with PyMOL 2.3.2
@<TRIPOS>MOLECULE
309
57 60 1                 
SMALL
USER_CHARGES
@<TRIPOS>ATOM
1	  Br	-7.123	3.704	1.033	Br	1	UNK0	0.000	
2	   C	-5.334	3.077	0.780	C.2	1	UNK0	0.000	
3	   C	-4.879	2.064	1.572	C.2	1	UNK0	0.000	
4	   C	-3.591	1.605	1.402	C.2	1	UNK0	0.000	
5	   C	-2.713	2.124	0.454	C.2	1	UNK0	0.000	
6	   C	-3.195	3.140	-0.329	C.2	1	UNK0	0.000	
7	   C	-4.504	3.625	-0.175	C.2	1	UNK0	0.000	
8	   C	-1.364	1.653	0.288	C.2	1	UNK0	0.000	
9	   C	-1.100	0.525	-0.451	C.2	1	UNK0	0.000	
10	   O	0.117	0.041	-0.609	O.3	1	UNK0	0.000	
11	   C	1.159	0.613	-0.062	C.2	1	UNK0	0.000	
12	   C	0.965	1.726	0.676	C.2	1	UNK0	0.000	
13	   C	2.042	2.349	1.267	C.2	1	UNK0	0.000	
14	   C	3.290	1.811	1.084	C.2	1	UNK0	0.000	
15	   C	3.481	0.649	0.312	C.2	1	UNK0	0.000	
16	   C	2.431	0.016	-0.283	C.2	1	UNK0	0.000	
17	   C	2.470	-1.162	-1.115	C.3	1	UNK0	0.000	
18	   N	3.648	-1.878	-1.390	N.4	1	UNK0	0.000	
19	   C	4.114	-2.611	-0.267	C.3	1	UNK0	0.000	
20	   C	5.558	-2.899	-0.143	C.3	1	UNK0	0.000	
21	   N	6.369	-2.068	-0.923	N.3	1	UNK0	0.000	
22	   C	5.989	-1.806	-2.242	C.3	1	UNK0	0.000	
23	   C	4.574	-1.325	-2.311	C.3	1	UNK0	0.000	
24	   C	7.535	-1.503	-0.387	C.3	1	UNK0	0.000	
25	   O	4.806	0.253	0.240	O.2	1	UNK0	0.000	
26	   C	-0.277	2.293	0.886	C.2	1	UNK0	0.000	
27	   O	-0.452	3.312	1.562	O.2	1	UNK0	0.000	
28	   C	-2.231	-0.164	-1.092	C.2	1	UNK0	0.000	
29	   O	-1.985	-1.193	-1.770	O.co2	1	UNK0	0.000	
30	   O	-3.523	0.250	-0.991	O.3	1	UNK0	0.000	
31	   C	-4.555	-0.459	-1.633	C.3	1	UNK0	0.000	
32	   C	-4.599	-1.861	-1.091	C.3	1	UNK0	0.000	
33	   H	-5.554	1.642	2.327	 H	1	UNK0	0.000	
34	   H	-3.240	0.817	2.020	 H	1	UNK0	0.000	
35	   H	-2.603	3.616	-1.095	 H	1	UNK0	0.000	
36	   H	-4.877	4.424	-0.790	 H	1	UNK0	0.000	
37	   H	1.870	3.247	1.858	 H	1	UNK0	0.000	
38	   H	4.140	2.290	1.538	 H	1	UNK0	0.000	
39	   H	1.981	-0.929	-2.142	 H	1	UNK0	0.000	
40	   H	1.712	-1.920	-0.719	 H	1	UNK0	0.000	
41	   H	3.227	-2.726	-2.021	 H	1	UNK0	0.000	
42	   H	3.768	-2.094	0.673	 H	1	UNK0	0.000	
43	   H	3.558	-3.614	-0.167	 H	1	UNK0	0.000	
44	   H	5.795	-3.993	-0.362	 H	1	UNK0	0.000	
45	   H	5.915	-2.806	0.933	 H	1	UNK0	0.000	
46	   H	6.109	-2.680	-2.941	 H	1	UNK0	0.000	
47	   H	6.669	-1.025	-2.671	 H	1	UNK0	0.000	
48	   H	4.542	-0.218	-2.285	 H	1	UNK0	0.000	
49	   H	4.258	-1.536	-3.394	 H	1	UNK0	0.000	
50	   H	7.618	-0.444	-0.712	 H	1	UNK0	0.000	
51	   H	7.429	-1.437	0.735	 H	1	UNK0	0.000	
52	   H	8.477	-2.064	-0.544	 H	1	UNK0	0.000	
53	   H	-5.543	0.058	-1.524	 H	1	UNK0	0.000	
54	   H	-4.387	-0.472	-2.751	 H	1	UNK0	0.000	
55	   H	-4.717	-2.616	-1.914	 H	1	UNK0	0.000	
56	   H	-3.705	-2.033	-0.466	 H	1	UNK0	0.000	
57	   H	-5.491	-1.901	-0.412	 H	1	UNK0	0.000	
@<TRIPOS>BOND
1 1 2 1
2 2 3 2
3 2 7 1
4 3 4 1
5 4 5 2
6 5 6 1
7 5 8 1
8 6 7 2
9 8 9 2
10 8 26 1
11 9 10 1
12 9 28 1
13 10 11 1
14 11 12 2
15 11 16 1
16 12 13 1
17 12 26 1
18 13 14 2
19 14 15 1
20 15 16 2
21 15 25 1
22 16 17 1
23 17 18 1
24 18 19 1
25 18 23 1
26 19 20 1
27 20 21 1
28 21 22 1
29 21 24 1
30 22 23 1
31 26 27 2
32 28 29 2
33 28 30 1
34 30 31 1
35 31 32 1
36 3 33 1
37 4 34 1
38 6 35 1
39 7 36 1
40 13 37 1
41 14 38 1
42 17 39 1
43 17 40 1
44 18 41 1
45 19 42 1
46 19 43 1
47 20 44 1
48 20 45 1
49 22 46 1
50 22 47 1
51 23 48 1
52 23 49 1
53 24 50 1
54 24 51 1
55 24 52 1
56 31 53 1
57 31 54 1
58 32 55 1
59 32 56 1
60 32 57 1
@<TRIPOS>SUBSTRUCTURE
1	UNK0	1	GROUP	1 ****	UNK
# created with PyMOL 2.3.2
@<TRIPOS>MOLECULE
320
58 62 1                 
SMALL
USER_CHARGES
@<TRIPOS>ATOM
1	  Br	-0.806	5.854	-6.181	Br	1	UNK0	0.000	
2	   C	-0.525	4.869	-4.550	C.2	1	UNK0	0.000	
3	   C	0.658	4.922	-3.879	C.2	1	UNK0	0.000	
4	   C	0.852	4.222	-2.723	C.2	1	UNK0	0.000	
5	   C	-0.133	3.426	-2.174	C.2	1	UNK0	0.000	
6	   C	-1.310	3.372	-2.840	C.2	1	UNK0	0.000	
7	   C	-1.527	4.092	-4.040	C.2	1	UNK0	0.000	
8	   C	0.157	2.708	-0.952	C.2	1	UNK0	0.000	
9	   C	1.416	2.742	-0.330	C.2	1	UNK0	0.000	
10	   N	1.322	1.994	0.762	N.pl3	1	UNK0	0.000	
11	   C	2.102	1.590	1.811	C.2	1	UNK0	0.000	
12	   C	1.287	0.804	2.586	C.2	1	UNK0	0.000	
13	   N	0.100	0.767	2.000	N.pl3	1	UNK0	0.000	
14	   C	0.107	1.508	0.855	C.cat	1	UNK0	0.000	
15	   N	-0.641	1.938	-0.204	N.pl3	1	UNK0	0.000	
16	   C	-2.016	1.567	-0.343	C.3	1	UNK0	0.000	
17	   C	-2.320	0.381	-1.166	C.3	1	UNK0	0.000	
18	   C	-1.811	-0.945	-0.729	C.3	1	UNK0	0.000	
19	   N	-2.400	-1.366	0.523	N.4	1	UNK0	0.000	
20	   C	-1.874	-2.608	1.007	C.3	1	UNK0	0.000	
21	   C	-0.703	-3.147	0.235	C.3	1	UNK0	0.000	
22	   C	-0.619	-4.642	0.577	C.3	1	UNK0	0.000	
23	   C	-0.359	-4.780	2.037	C.3	1	UNK0	0.000	
24	   C	-1.338	-4.024	2.905	C.3	1	UNK0	0.000	
25	   C	-1.429	-2.559	2.463	C.3	1	UNK0	0.000	
26	   C	1.753	0.209	3.762	C.2	1	UNK0	0.000	
27	   C	3.058	0.410	4.157	C.2	1	UNK0	0.000	
28	   C	3.855	1.202	3.362	C.2	1	UNK0	0.000	
29	   C	3.399	1.798	2.192	C.2	1	UNK0	0.000	
30	   H	1.475	5.544	-4.278	 H	1	UNK0	0.000	
31	   H	1.839	4.312	-2.225	 H	1	UNK0	0.000	
32	   H	-2.152	2.808	-2.552	 H	1	UNK0	0.000	
33	   H	-2.466	4.043	-4.563	 H	1	UNK0	0.000	
34	   H	2.299	3.274	-0.673	 H	1	UNK0	0.000	
35	   H	-0.706	0.245	2.393	 H	1	UNK0	0.000	
36	   H	-2.655	2.413	-0.578	 H	1	UNK0	0.000	
37	   H	-2.364	1.253	0.725	 H	1	UNK0	0.000	
38	   H	-3.458	0.281	-1.129	 H	1	UNK0	0.000	
39	   H	-2.161	0.533	-2.278	 H	1	UNK0	0.000	
40	   H	-0.710	-0.980	-0.597	 H	1	UNK0	0.000	
41	   H	-2.161	-1.690	-1.498	 H	1	UNK0	0.000	
42	   H	-2.464	-0.662	1.254	 H	1	UNK0	0.000	
43	   H	-3.437	-1.580	0.287	 H	1	UNK0	0.000	
44	   H	-2.664	-3.418	0.991	 H	1	UNK0	0.000	
45	   H	-0.759	-2.992	-0.842	 H	1	UNK0	0.000	
46	   H	0.242	-2.706	0.664	 H	1	UNK0	0.000	
47	   H	-1.583	-5.130	0.283	 H	1	UNK0	0.000	
48	   H	0.231	-5.088	0.032	 H	1	UNK0	0.000	
49	   H	-0.453	-5.852	2.305	 H	1	UNK0	0.000	
50	   H	0.674	-4.453	2.255	 H	1	UNK0	0.000	
51	   H	-0.951	-4.054	3.936	 H	1	UNK0	0.000	
52	   H	-2.321	-4.487	2.804	 H	1	UNK0	0.000	
53	   H	-0.409	-2.105	2.539	 H	1	UNK0	0.000	
54	   H	-2.198	-2.062	3.052	 H	1	UNK0	0.000	
55	   H	1.122	-0.409	4.376	 H	1	UNK0	0.000	
56	   H	3.461	-0.041	5.075	 H	1	UNK0	0.000	
57	   H	4.872	1.359	3.670	 H	1	UNK0	0.000	
58	   H	4.021	2.414	1.575	 H	1	UNK0	0.000	
@<TRIPOS>BOND
1 1 2 1
2 2 3 2
3 2 7 1
4 3 4 1
5 4 5 2
6 5 6 1
7 5 8 1
8 6 7 2
9 8 9 2
10 8 15 1
11 9 10 1
12 10 11 1
13 10 14 1
14 11 12 2
15 11 29 1
16 12 13 1
17 12 26 1
18 13 14 2
19 14 15 1
20 15 16 1
21 16 17 1
22 17 18 1
23 18 19 1
24 19 20 1
25 20 21 1
26 20 25 1
27 21 22 1
28 22 23 1
29 23 24 1
30 24 25 1
31 26 27 2
32 27 28 1
33 28 29 2
34 3 30 1
35 4 31 1
36 6 32 1
37 7 33 1
38 9 34 1
39 13 35 1
40 16 36 1
41 16 37 1
42 17 38 1
43 17 39 1
44 18 40 1
45 18 41 1
46 19 42 1
47 19 43 1
48 20 44 1
49 21 45 1
50 21 46 1
51 22 47 1
52 22 48 1
53 23 49 1
54 23 50 1
55 24 51 1
56 24 52 1
57 25 53 1
58 25 54 1
59 26 55 1
60 27 56 1
61 28 57 1
62 29 58 1
@<TRIPOS>SUBSTRUCTURE
1	UNK0	1	GROUP	1 ****	UNK
# created with PyMOL 2.3.2
@<TRIPOS>MOLECULE
324
61 65 1                 
SMALL
USER_CHARGES
@<TRIPOS>ATOM
1	  Br	5.448	5.856	-0.418	Br	1	UNK0	0.000	
2	   C	4.040	4.624	0.004	C.2	1	UNK0	0.000	
3	   C	3.216	4.133	-0.976	C.2	1	UNK0	0.000	
4	   C	2.185	3.231	-0.665	C.2	1	UNK0	0.000	
5	   C	1.941	2.796	0.598	C.2	1	UNK0	0.000	
6	   C	2.792	3.307	1.579	C.2	1	UNK0	0.000	
7	   C	3.812	4.197	1.282	C.2	1	UNK0	0.000	
8	   C	0.863	1.897	1.008	C.2	1	UNK0	0.000	
9	   C	0.748	1.362	2.305	C.2	1	UNK0	0.000	
10	   N	-0.348	0.603	2.411	N.pl3	1	UNK0	0.000	
11	   C	-1.070	-0.170	3.259	C.2	1	UNK0	0.000	
12	   C	-2.148	-0.624	2.539	C.2	1	UNK0	0.000	
13	   N	-2.054	-0.118	1.278	N.pl3	1	UNK0	0.000	
14	   C	-0.939	0.634	1.220	C.cat	1	UNK0	0.000	
15	   N	-0.203	1.424	0.359	N.pl3	1	UNK0	0.000	
16	   C	-0.604	1.671	-1.010	C.3	1	UNK0	0.000	
17	   C	-0.041	0.682	-2.003	C.3	1	UNK0	0.000	
18	   C	-0.491	-0.723	-1.690	C.3	1	UNK0	0.000	
19	   N	-0.013	-1.728	-2.599	N.3	1	UNK0	0.000	
20	   C	-0.604	-2.980	-2.154	C.3	1	UNK0	0.000	
21	   C	0.336	-4.125	-2.097	C.3	1	UNK0	0.000	
22	   N	1.618	-3.861	-1.503	N.4	1	UNK0	0.000	
23	   C	1.979	-2.459	-1.505	C.3	1	UNK0	0.000	
24	   C	1.401	-1.820	-2.751	C.3	1	UNK0	0.000	
25	   C	1.774	-4.519	-0.245	C.3	1	UNK0	0.000	
26	   C	1.597	-3.668	0.966	C.3	1	UNK0	0.000	
27	   O	0.336	-3.082	1.061	O.3	1	UNK0	0.000	
28	   C	-3.055	-1.444	3.177	C.2	1	UNK0	0.000	
29	   C	-2.900	-1.810	4.508	C.2	1	UNK0	0.000	
30	   C	-1.823	-1.355	5.226	C.2	1	UNK0	0.000	
31	   C	-0.903	-0.523	4.577	C.2	1	UNK0	0.000	
32	   H	3.364	4.446	-1.999	 H	1	UNK0	0.000	
33	   H	1.616	2.898	-1.498	 H	1	UNK0	0.000	
34	   H	2.628	2.988	2.594	 H	1	UNK0	0.000	
35	   H	4.441	4.565	2.072	 H	1	UNK0	0.000	
36	   H	1.469	1.548	3.108	 H	1	UNK0	0.000	
37	   H	-2.742	-0.301	0.515	 H	1	UNK0	0.000	
38	   H	-1.746	1.498	-1.075	 H	1	UNK0	0.000	
39	   H	-0.490	2.681	-1.352	 H	1	UNK0	0.000	
40	   H	-0.546	0.939	-2.981	 H	1	UNK0	0.000	
41	   H	1.024	0.762	-2.190	 H	1	UNK0	0.000	
42	   H	-1.599	-0.789	-1.693	 H	1	UNK0	0.000	
43	   H	-0.201	-0.959	-0.624	 H	1	UNK0	0.000	
44	   H	-1.179	-2.891	-1.217	 H	1	UNK0	0.000	
45	   H	-1.376	-3.227	-2.941	 H	1	UNK0	0.000	
46	   H	0.419	-4.585	-3.126	 H	1	UNK0	0.000	
47	   H	-0.178	-4.932	-1.496	 H	1	UNK0	0.000	
48	   H	2.334	-4.318	-2.151	 H	1	UNK0	0.000	
49	   H	3.089	-2.366	-1.577	 H	1	UNK0	0.000	
50	   H	1.640	-1.893	-0.643	 H	1	UNK0	0.000	
51	   H	1.629	-2.439	-3.659	 H	1	UNK0	0.000	
52	   H	1.889	-0.862	-2.905	 H	1	UNK0	0.000	
53	   H	2.772	-5.033	-0.130	 H	1	UNK0	0.000	
54	   H	1.030	-5.360	-0.175	 H	1	UNK0	0.000	
55	   H	1.659	-4.369	1.851	 H	1	UNK0	0.000	
56	   H	2.412	-2.938	1.126	 H	1	UNK0	0.000	
57	   H	-0.351	-3.745	0.875	 H	1	UNK0	0.000	
58	   H	-3.915	-1.822	2.647	 H	1	UNK0	0.000	
59	   H	-3.602	-2.448	5.011	 H	1	UNK0	0.000	
60	   H	-1.698	-1.637	6.262	 H	1	UNK0	0.000	
61	   H	-0.050	-0.156	5.124	 H	1	UNK0	0.000	
@<TRIPOS>BOND
1 1 2 1
2 2 3 2
3 2 7 1
4 3 4 1
5 4 5 2
6 5 6 1
7 5 8 1
8 6 7 2
9 8 9 2
10 8 15 1
11 9 10 1
12 10 11 1
13 10 14 1
14 11 12 2
15 11 31 1
16 12 13 1
17 12 28 1
18 13 14 2
19 14 15 1
20 15 16 1
21 16 17 1
22 17 18 1
23 18 19 1
24 19 20 1
25 19 24 1
26 20 21 1
27 21 22 1
28 22 23 1
29 22 25 1
30 23 24 1
31 25 26 1
32 26 27 1
33 28 29 2
34 29 30 1
35 30 31 2
36 3 32 1
37 4 33 1
38 6 34 1
39 7 35 1
40 9 36 1
41 13 37 1
42 16 38 1
43 16 39 1
44 17 40 1
45 17 41 1
46 18 42 1
47 18 43 1
48 20 44 1
49 20 45 1
50 21 46 1
51 21 47 1
52 22 48 1
53 23 49 1
54 23 50 1
55 24 51 1
56 24 52 1
57 25 53 1
58 25 54 1
59 26 55 1
60 26 56 1
61 27 57 1
62 28 58 1
63 29 59 1
64 30 60 1
65 31 61 1
@<TRIPOS>SUBSTRUCTURE
1	UNK0	1	GROUP	1 ****	UNK
# created with PyMOL 2.3.2
@<TRIPOS>MOLECULE
346
63 66 1                 
SMALL
USER_CHARGES
@<TRIPOS>ATOM
1	  Br	6.381	1.302	3.923	Br	1	UNK0	0.000	
2	   C	4.709	1.036	3.015	C.2	1	UNK0	0.000	
3	   C	4.325	-0.237	2.657	C.2	1	UNK0	0.000	
4	   C	3.112	-0.458	1.997	C.2	1	UNK0	0.000	
5	   C	2.271	0.589	1.687	C.2	1	UNK0	0.000	
6	   C	2.691	1.845	2.062	C.2	1	UNK0	0.000	
7	   C	3.880	2.080	2.711	C.2	1	UNK0	0.000	
8	   C	1.000	0.354	0.997	C.3	1	UNK0	0.000	
9	   N	0.259	-0.756	1.531	N.pl3	1	UNK0	0.000	
10	   C	-0.044	-1.700	0.522	C.2	1	UNK0	0.000	
11	   O	-0.700	-2.782	0.629	O.2	1	UNK0	0.000	
12	   C	0.539	-1.239	-0.758	C.2	1	UNK0	0.000	
13	   O	0.451	-1.844	-1.850	O.2	1	UNK0	0.000	
14	   C	1.196	0.014	-0.451	C.2	1	UNK0	0.000	
15	   C	1.817	0.735	-1.358	C.2	1	UNK0	0.000	
16	   O	2.362	1.971	-0.951	O.2	1	UNK0	0.000	
17	   C	2.007	0.382	-2.742	C.2	1	UNK0	0.000	
18	   C	2.571	-0.749	-3.219	C.2	1	UNK0	0.000	
19	   C	2.660	-0.978	-4.576	C.2	1	UNK0	0.000	
20	   C	2.191	-0.093	-5.523	C.2	1	UNK0	0.000	
21	   C	1.620	1.055	-5.010	C.2	1	UNK0	0.000	
22	   C	1.517	1.313	-3.671	C.2	1	UNK0	0.000	
23	   O	2.284	-0.330	-6.889	O.3	1	UNK0	0.000	
24	   C	1.779	0.624	-7.812	C.3	1	UNK0	0.000	
25	   C	3.294	-2.250	-5.056	C.3	1	UNK0	0.000	
26	   C	-0.124	-0.866	2.927	C.3	1	UNK0	0.000	
27	   C	-1.451	-0.228	3.234	C.3	1	UNK0	0.000	
28	   C	-2.562	-0.849	2.444	C.3	1	UNK0	0.000	
29	   N	-3.843	-0.261	2.708	N.4	1	UNK0	0.000	
30	   C	-3.810	1.186	2.765	C.3	1	UNK0	0.000	
31	   C	-5.267	1.659	2.803	C.3	1	UNK0	0.000	
32	   O	-6.124	0.591	3.023	O.3	1	UNK0	0.000	
33	   C	-5.725	-0.127	4.172	C.3	1	UNK0	0.000	
34	   C	-4.405	-0.838	3.896	C.3	1	UNK0	0.000	
35	   H	4.974	-1.068	2.895	 H	1	UNK0	0.000	
36	   H	2.808	-1.454	1.715	 H	1	UNK0	0.000	
37	   H	2.010	2.674	1.808	 H	1	UNK0	0.000	
38	   H	4.159	3.078	2.980	 H	1	UNK0	0.000	
39	   H	0.364	1.253	1.116	 H	1	UNK0	0.000	
40	   H	2.975	-1.466	-2.497	 H	1	UNK0	0.000	
41	   H	1.248	1.761	-5.771	 H	1	UNK0	0.000	
42	   H	1.054	2.239	-3.342	 H	1	UNK0	0.000	
43	   H	2.311	1.592	-7.618	 H	1	UNK0	0.000	
44	   H	1.971	0.350	-8.850	 H	1	UNK0	0.000	
45	   H	0.695	0.837	-7.593	 H	1	UNK0	0.000	
46	   H	4.090	-2.594	-4.365	 H	1	UNK0	0.000	
47	   H	3.669	-2.064	-6.078	 H	1	UNK0	0.000	
48	   H	2.458	-2.983	-5.148	 H	1	UNK0	0.000	
49	   H	0.651	-0.361	3.554	 H	1	UNK0	0.000	
50	   H	-0.177	-1.925	3.255	 H	1	UNK0	0.000	
51	   H	-1.366	0.865	3.027	 H	1	UNK0	0.000	
52	   H	-1.651	-0.405	4.308	 H	1	UNK0	0.000	
53	   H	-2.396	-0.757	1.351	 H	1	UNK0	0.000	
54	   H	-2.596	-1.934	2.670	 H	1	UNK0	0.000	
55	   H	-4.496	-0.506	1.905	 H	1	UNK0	0.000	
56	   H	-3.374	1.571	1.842	 H	1	UNK0	0.000	
57	   H	-3.337	1.538	3.689	 H	1	UNK0	0.000	
58	   H	-5.416	2.450	3.550	 H	1	UNK0	0.000	
59	   H	-5.567	2.090	1.808	 H	1	UNK0	0.000	
60	   H	-6.524	-0.897	4.313	 H	1	UNK0	0.000	
61	   H	-5.697	0.497	5.068	 H	1	UNK0	0.000	
62	   H	-3.683	-0.678	4.727	 H	1	UNK0	0.000	
63	   H	-4.591	-1.916	3.684	 H	1	UNK0	0.000	
@<TRIPOS>BOND
1 1 2 1
2 2 3 2
3 2 7 1
4 3 4 1
5 4 5 2
6 5 6 1
7 5 8 1
8 6 7 2
9 8 9 1
10 8 14 1
11 9 10 1
12 9 26 1
13 10 11 2
14 10 12 1
15 12 13 2
16 12 14 1
17 14 15 2
18 15 16 1
19 15 17 1
20 17 18 2
21 17 22 1
22 18 19 1
23 19 20 2
24 19 25 1
25 20 21 1
26 20 23 1
27 21 22 2
28 23 24 1
29 26 27 1
30 27 28 1
31 28 29 1
32 29 30 1
33 29 34 1
34 30 31 1
35 31 32 1
36 32 33 1
37 33 34 1
38 3 35 1
39 4 36 1
40 6 37 1
41 7 38 1
42 8 39 1
43 18 40 1
44 21 41 1
45 22 42 1
46 24 43 1
47 24 44 1
48 24 45 1
49 25 46 1
50 25 47 1
51 25 48 1
52 26 49 1
53 26 50 1
54 27 51 1
55 27 52 1
56 28 53 1
57 28 54 1
58 29 55 1
59 30 56 1
60 30 57 1
61 31 58 1
62 31 59 1
63 33 60 1
64 33 61 1
65 34 62 1
66 34 63 1
@<TRIPOS>SUBSTRUCTURE
1	UNK0	1	GROUP	1 ****	UNK
# created with PyMOL 2.3.2
@<TRIPOS>MOLECULE
347
60 63 1                 
SMALL
USER_CHARGES
@<TRIPOS>ATOM
1	  Br	5.340	0.548	6.087	Br	1	UNK0	0.000	
2	   C	3.877	0.722	4.875	C.2	1	UNK0	0.000	
3	   C	2.647	0.201	5.201	C.2	1	UNK0	0.000	
4	   C	1.573	0.328	4.316	C.2	1	UNK0	0.000	
5	   C	1.715	0.969	3.110	C.2	1	UNK0	0.000	
6	   C	2.958	1.480	2.811	C.2	1	UNK0	0.000	
7	   C	4.032	1.364	3.675	C.2	1	UNK0	0.000	
8	   C	0.583	1.105	2.204	C.3	1	UNK0	0.000	
9	   N	-0.196	-0.115	2.146	N.pl3	1	UNK0	0.000	
10	   C	0.515	-1.005	1.283	C.2	1	UNK0	0.000	
11	   O	0.467	-2.260	1.290	O.2	1	UNK0	0.000	
12	   C	1.303	-0.155	0.397	C.2	1	UNK0	0.000	
13	   O	2.088	-0.479	-0.529	O.2	1	UNK0	0.000	
14	   C	1.031	1.230	0.768	C.2	1	UNK0	0.000	
15	   C	1.189	2.295	0.021	C.2	1	UNK0	0.000	
16	   O	0.906	3.528	0.635	O.2	1	UNK0	0.000	
17	   C	1.624	2.244	-1.371	C.2	1	UNK0	0.000	
18	   C	1.081	1.408	-2.320	C.2	1	UNK0	0.000	
19	   C	1.502	1.339	-3.636	C.2	1	UNK0	0.000	
20	   C	2.525	2.151	-4.034	C.2	1	UNK0	0.000	
21	   C	3.104	3.014	-3.108	C.2	1	UNK0	0.000	
22	   C	2.658	3.055	-1.804	C.2	1	UNK0	0.000	
23	   O	0.844	0.444	-4.449	O.3	1	UNK0	0.000	
24	   C	1.072	0.188	-5.792	C.3	1	UNK0	0.000	
25	   C	-1.468	-0.404	2.830	C.3	1	UNK0	0.000	
26	   C	-2.654	0.006	1.944	C.3	1	UNK0	0.000	
27	   C	-2.594	-0.761	0.654	C.3	1	UNK0	0.000	
28	   N	-3.716	-0.383	-0.171	N.4	1	UNK0	0.000	
29	   C	-4.901	-1.145	0.069	C.3	1	UNK0	0.000	
30	   C	-4.817	-2.541	-0.447	C.3	1	UNK0	0.000	
31	   O	-4.512	-2.552	-1.797	O.3	1	UNK0	0.000	
32	   C	-3.264	-1.948	-1.954	C.3	1	UNK0	0.000	
33	   C	-3.411	-0.484	-1.587	C.3	1	UNK0	0.000	
34	   H	2.557	-0.299	6.151	 H	1	UNK0	0.000	
35	   H	0.644	-0.094	4.619	 H	1	UNK0	0.000	
36	   H	3.042	1.980	1.855	 H	1	UNK0	0.000	
37	   H	4.988	1.782	3.407	 H	1	UNK0	0.000	
38	   H	-0.030	1.979	2.493	 H	1	UNK0	0.000	
39	   H	0.263	0.774	-2.022	 H	1	UNK0	0.000	
40	   H	2.873	2.114	-5.061	 H	1	UNK0	0.000	
41	   H	3.916	3.635	-3.488	 H	1	UNK0	0.000	
42	   H	3.154	3.756	-1.114	 H	1	UNK0	0.000	
43	   H	0.120	0.064	-6.381	 H	1	UNK0	0.000	
44	   H	1.712	0.960	-6.228	 H	1	UNK0	0.000	
45	   H	1.578	-0.796	-5.883	 H	1	UNK0	0.000	
46	   H	-1.530	0.229	3.714	 H	1	UNK0	0.000	
47	   H	-1.465	-1.483	3.005	 H	1	UNK0	0.000	
48	   H	-3.605	-0.212	2.424	 H	1	UNK0	0.000	
49	   H	-2.607	1.094	1.727	 H	1	UNK0	0.000	
50	   H	-1.620	-0.495	0.181	 H	1	UNK0	0.000	
51	   H	-2.622	-1.829	0.858	 H	1	UNK0	0.000	
52	   H	-3.927	0.626	0.009	 H	1	UNK0	0.000	
53	   H	-5.116	-1.148	1.161	 H	1	UNK0	0.000	
54	   H	-5.758	-0.616	-0.417	 H	1	UNK0	0.000	
55	   H	-3.994	-3.092	0.074	 H	1	UNK0	0.000	
56	   H	-5.779	-3.058	-0.228	 H	1	UNK0	0.000	
57	   H	-2.876	-2.026	-2.988	 H	1	UNK0	0.000	
58	   H	-2.495	-2.395	-1.286	 H	1	UNK0	0.000	
59	   H	-4.290	-0.109	-2.147	 H	1	UNK0	0.000	
60	   H	-2.512	0.085	-1.864	 H	1	UNK0	0.000	
@<TRIPOS>BOND
1 1 2 1
2 2 3 2
3 2 7 1
4 3 4 1
5 4 5 2
6 5 6 1
7 5 8 1
8 6 7 2
9 8 9 1
10 8 14 1
11 9 10 1
12 9 25 1
13 10 11 2
14 10 12 1
15 12 13 2
16 12 14 1
17 14 15 2
18 15 16 1
19 15 17 1
20 17 18 2
21 17 22 1
22 18 19 1
23 19 20 2
24 19 23 1
25 20 21 1
26 21 22 2
27 23 24 1
28 25 26 1
29 26 27 1
30 27 28 1
31 28 29 1
32 28 33 1
33 29 30 1
34 30 31 1
35 31 32 1
36 32 33 1
37 3 34 1
38 4 35 1
39 6 36 1
40 7 37 1
41 8 38 1
42 18 39 1
43 20 40 1
44 21 41 1
45 22 42 1
46 24 43 1
47 24 44 1
48 24 45 1
49 25 46 1
50 25 47 1
51 26 48 1
52 26 49 1
53 27 50 1
54 27 51 1
55 28 52 1
56 29 53 1
57 29 54 1
58 30 55 1
59 30 56 1
60 32 57 1
61 32 58 1
62 33 59 1
63 33 60 1
@<TRIPOS>SUBSTRUCTURE
1	UNK0	1	GROUP	1 ****	UNK
# created with PyMOL 2.3.2
@<TRIPOS>MOLECULE
349
56 59 1                 
SMALL
USER_CHARGES
@<TRIPOS>ATOM
1	  Br	-2.303	-7.501	0.418	Br	1	UNK0	0.000	
2	   C	-1.257	-5.951	0.004	C.2	1	UNK0	0.000	
3	   C	-0.111	-5.642	0.704	C.2	1	UNK0	0.000	
4	   C	0.619	-4.531	0.392	C.2	1	UNK0	0.000	
5	   C	0.250	-3.656	-0.641	C.2	1	UNK0	0.000	
6	   C	-0.873	-3.964	-1.324	C.2	1	UNK0	0.000	
7	   C	-1.623	-5.098	-1.009	C.2	1	UNK0	0.000	
8	   C	1.088	-2.545	-0.881	C.3	1	UNK0	0.000	
9	   N	1.334	-1.889	-2.092	N.pl3	1	UNK0	0.000	
10	   C	2.459	-0.986	-1.772	C.2	1	UNK0	0.000	
11	   O	3.366	-0.592	-2.556	O.2	1	UNK0	0.000	
12	   C	2.273	-0.662	-0.354	C.2	1	UNK0	0.000	
13	   O	2.982	0.093	0.379	O.2	1	UNK0	0.000	
14	   C	1.065	-1.397	0.068	C.2	1	UNK0	0.000	
15	   C	0.203	-1.059	1.000	C.2	1	UNK0	0.000	
16	   O	-0.929	-1.833	1.226	O.2	1	UNK0	0.000	
17	   C	0.369	0.111	1.848	C.2	1	UNK0	0.000	
18	   C	1.418	0.358	2.677	C.2	1	UNK0	0.000	
19	   C	1.477	1.540	3.402	C.2	1	UNK0	0.000	
20	   C	0.475	2.477	3.292	C.2	1	UNK0	0.000	
21	   C	-0.603	2.265	2.465	C.2	1	UNK0	0.000	
22	   C	-0.640	1.076	1.750	C.2	1	UNK0	0.000	
23	   C	0.504	3.760	4.056	C.3	1	UNK0	0.000	
24	   C	0.835	-1.901	-3.459	C.3	1	UNK0	0.000	
25	   C	-0.103	-0.767	-3.780	C.3	1	UNK0	0.000	
26	   N	-1.251	-0.710	-2.936	N.4	1	UNK0	0.000	
27	   C	-2.406	-1.258	-3.622	C.3	1	UNK0	0.000	
28	   C	-3.585	-1.220	-2.686	C.3	1	UNK0	0.000	
29	   O	-3.917	0.135	-2.525	O.3	1	UNK0	0.000	
30	   C	-2.862	0.753	-1.895	C.3	1	UNK0	0.000	
31	   C	-1.589	0.708	-2.700	C.3	1	UNK0	0.000	
32	   H	0.169	-6.327	1.507	 H	1	UNK0	0.000	
33	   H	1.528	-4.326	0.981	 H	1	UNK0	0.000	
34	   H	-1.289	-3.402	-2.151	 H	1	UNK0	0.000	
35	   H	-2.531	-5.358	-1.551	 H	1	UNK0	0.000	
36	   H	2.173	-2.988	-0.632	 H	1	UNK0	0.000	
37	   H	2.198	-0.397	2.791	 H	1	UNK0	0.000	
38	   H	2.318	1.724	4.057	 H	1	UNK0	0.000	
39	   H	-1.413	2.997	2.363	 H	1	UNK0	0.000	
40	   H	-1.473	0.862	1.083	 H	1	UNK0	0.000	
41	   H	-0.302	3.810	4.814	 H	1	UNK0	0.000	
42	   H	1.490	3.853	4.590	 H	1	UNK0	0.000	
43	   H	0.434	4.635	3.378	 H	1	UNK0	0.000	
44	   H	1.717	-1.750	-4.148	 H	1	UNK0	0.000	
45	   H	0.329	-2.829	-3.706	 H	1	UNK0	0.000	
46	   H	0.449	0.222	-3.645	 H	1	UNK0	0.000	
47	   H	-0.404	-0.812	-4.865	 H	1	UNK0	0.000	
48	   H	-1.110	-1.166	-2.023	 H	1	UNK0	0.000	
49	   H	-2.286	-2.277	-3.990	 H	1	UNK0	0.000	
50	   H	-2.620	-0.627	-4.514	 H	1	UNK0	0.000	
51	   H	-3.349	-1.671	-1.714	 H	1	UNK0	0.000	
52	   H	-4.454	-1.745	-3.124	 H	1	UNK0	0.000	
53	   H	-3.147	1.831	-1.765	 H	1	UNK0	0.000	
54	   H	-2.698	0.313	-0.906	 H	1	UNK0	0.000	
55	   H	-1.737	1.155	-3.698	 H	1	UNK0	0.000	
56	   H	-0.806	1.236	-2.149	 H	1	UNK0	0.000	
@<TRIPOS>BOND
1 1 2 1
2 2 3 2
3 2 7 1
4 3 4 1
5 4 5 2
6 5 6 1
7 5 8 1
8 6 7 2
9 8 9 1
10 8 14 1
11 9 10 1
12 9 24 1
13 10 11 2
14 10 12 1
15 12 13 2
16 12 14 1
17 14 15 2
18 15 16 1
19 15 17 1
20 17 18 2
21 17 22 1
22 18 19 1
23 19 20 2
24 20 21 1
25 20 23 1
26 21 22 2
27 24 25 1
28 25 26 1
29 26 27 1
30 26 31 1
31 27 28 1
32 28 29 1
33 29 30 1
34 30 31 1
35 3 32 1
36 4 33 1
37 6 34 1
38 7 35 1
39 8 36 1
40 18 37 1
41 19 38 1
42 21 39 1
43 22 40 1
44 23 41 1
45 23 42 1
46 23 43 1
47 24 44 1
48 24 45 1
49 25 46 1
50 25 47 1
51 26 48 1
52 27 49 1
53 27 50 1
54 28 51 1
55 28 52 1
56 30 53 1
57 30 54 1
58 31 55 1
59 31 56 1
@<TRIPOS>SUBSTRUCTURE
1	UNK0	1	GROUP	1 ****	UNK
# created with PyMOL 2.3.2
@<TRIPOS>MOLECULE
351
53 56 1                 
SMALL
USER_CHARGES
@<TRIPOS>ATOM
1	  Br	-0.468	-3.467	5.423	Br	1	UNK0	0.000	
2	   C	-0.201	-2.719	3.695	C.2	1	UNK0	0.000	
3	   C	-0.923	-1.649	3.218	C.2	1	UNK0	0.000	
4	   C	-0.697	-1.124	1.937	C.2	1	UNK0	0.000	
5	   C	0.253	-1.662	1.116	C.2	1	UNK0	0.000	
6	   C	0.961	-2.733	1.621	C.2	1	UNK0	0.000	
7	   C	0.753	-3.260	2.875	C.2	1	UNK0	0.000	
8	   C	0.511	-1.183	-0.188	C.3	1	UNK0	0.000	
9	   N	-0.494	-1.063	-1.180	N.pl3	1	UNK0	0.000	
10	   C	0.222	-0.493	-2.317	C.2	1	UNK0	0.000	
11	   O	-0.067	-0.655	-3.534	O.2	1	UNK0	0.000	
12	   C	1.318	0.288	-1.746	C.2	1	UNK0	0.000	
13	   O	2.193	0.962	-2.349	O.2	1	UNK0	0.000	
14	   C	1.201	0.137	-0.294	C.2	1	UNK0	0.000	
15	   C	1.577	0.992	0.640	C.2	1	UNK0	0.000	
16	   O	1.333	0.720	1.977	O.2	1	UNK0	0.000	
17	   C	2.263	2.245	0.357	C.2	1	UNK0	0.000	
18	   C	1.600	3.390	0.819	C.2	1	UNK0	0.000	
19	   C	2.131	4.650	0.669	C.2	1	UNK0	0.000	
20	   C	3.364	4.773	0.038	C.2	1	UNK0	0.000	
21	   C	4.010	3.643	-0.413	C.2	1	UNK0	0.000	
22	   C	3.469	2.384	-0.257	C.2	1	UNK0	0.000	
23	  Cl	4.029	6.380	-0.148	Cl	1	UNK0	0.000	
24	   C	-1.913	-1.425	-1.238	C.3	1	UNK0	0.000	
25	   C	-2.852	-0.295	-0.948	C.3	1	UNK0	0.000	
26	   N	-4.241	-0.692	-1.005	N.4	1	UNK0	0.000	
27	   C	-4.825	-0.501	-2.303	C.3	1	UNK0	0.000	
28	   C	-5.023	0.939	-2.676	C.3	1	UNK0	0.000	
29	   O	-5.715	1.647	-1.692	O.3	1	UNK0	0.000	
30	   C	-4.931	1.570	-0.531	C.3	1	UNK0	0.000	
31	   C	-4.979	0.131	-0.064	C.3	1	UNK0	0.000	
32	   H	-1.666	-1.233	3.865	 H	1	UNK0	0.000	
33	   H	-1.321	-0.282	1.698	 H	1	UNK0	0.000	
34	   H	1.748	-3.233	1.034	 H	1	UNK0	0.000	
35	   H	1.331	-4.103	3.237	 H	1	UNK0	0.000	
36	   H	1.285	-1.897	-0.659	 H	1	UNK0	0.000	
37	   H	0.641	3.321	1.313	 H	1	UNK0	0.000	
38	   H	1.588	5.511	1.040	 H	1	UNK0	0.000	
39	   H	4.963	3.773	-0.898	 H	1	UNK0	0.000	
40	   H	4.009	1.505	-0.593	 H	1	UNK0	0.000	
41	   H	-2.086	-2.187	-0.421	 H	1	UNK0	0.000	
42	   H	-2.181	-1.835	-2.226	 H	1	UNK0	0.000	
43	   H	-2.723	0.434	-1.792	 H	1	UNK0	0.000	
44	   H	-2.655	0.286	-0.043	 H	1	UNK0	0.000	
45	   H	-4.386	-1.681	-0.724	 H	1	UNK0	0.000	
46	   H	-4.298	-1.010	-3.116	 H	1	UNK0	0.000	
47	   H	-5.852	-0.961	-2.257	 H	1	UNK0	0.000	
48	   H	-4.070	1.444	-2.944	 H	1	UNK0	0.000	
49	   H	-5.678	0.956	-3.581	 H	1	UNK0	0.000	
50	   H	-5.315	2.241	0.264	 H	1	UNK0	0.000	
51	   H	-3.930	1.912	-0.798	 H	1	UNK0	0.000	
52	   H	-4.570	0.028	0.972	 H	1	UNK0	0.000	
53	   H	-6.060	-0.166	-0.075	 H	1	UNK0	0.000	
@<TRIPOS>BOND
1 1 2 1
2 2 3 2
3 2 7 1
4 3 4 1
5 4 5 2
6 5 6 1
7 5 8 1
8 6 7 2
9 8 9 1
10 8 14 1
11 9 10 1
12 9 24 1
13 10 11 2
14 10 12 1
15 12 13 2
16 12 14 1
17 14 15 2
18 15 16 1
19 15 17 1
20 17 18 2
21 17 22 1
22 18 19 1
23 19 20 2
24 20 21 1
25 20 23 1
26 21 22 2
27 24 25 1
28 25 26 1
29 26 27 1
30 26 31 1
31 27 28 1
32 28 29 1
33 29 30 1
34 30 31 1
35 3 32 1
36 4 33 1
37 6 34 1
38 7 35 1
39 8 36 1
40 18 37 1
41 19 38 1
42 21 39 1
43 22 40 1
44 24 41 1
45 24 42 1
46 25 43 1
47 25 44 1
48 26 45 1
49 27 46 1
50 27 47 1
51 28 48 1
52 28 49 1
53 30 50 1
54 30 51 1
55 31 52 1
56 31 53 1
@<TRIPOS>SUBSTRUCTURE
1	UNK0	1	GROUP	1 ****	UNK
# created with PyMOL 2.3.2
@<TRIPOS>MOLECULE
354
55 58 1                 
SMALL
USER_CHARGES
@<TRIPOS>ATOM
1	  Br	-1.368	-6.588	-0.481	Br	1	UNK0	0.000	
2	   C	-1.506	-4.868	0.336	C.2	1	UNK0	0.000	
3	   C	-0.931	-3.744	-0.216	C.2	1	UNK0	0.000	
4	   C	-1.040	-2.506	0.388	C.2	1	UNK0	0.000	
5	   C	-1.711	-2.322	1.549	C.2	1	UNK0	0.000	
6	   C	-2.293	-3.475	2.102	C.2	1	UNK0	0.000	
7	   C	-2.198	-4.717	1.518	C.2	1	UNK0	0.000	
8	   C	-1.872	-1.083	2.284	C.3	1	UNK0	0.000	
9	   N	-0.702	-0.411	2.751	N.pl3	1	UNK0	0.000	
10	   C	-1.107	0.964	2.977	C.2	1	UNK0	0.000	
11	   O	-0.492	1.777	3.715	O.2	1	UNK0	0.000	
12	   C	-2.315	1.204	2.211	C.2	1	UNK0	0.000	
13	   O	-2.984	2.279	2.133	O.2	1	UNK0	0.000	
14	   C	-2.622	-0.040	1.535	C.2	1	UNK0	0.000	
15	   C	-3.384	-0.173	0.464	C.2	1	UNK0	0.000	
16	   O	-3.505	-1.485	-0.055	O.2	1	UNK0	0.000	
17	   C	-4.087	0.916	-0.184	C.2	1	UNK0	0.000	
18	   C	-3.776	1.134	-1.532	C.2	1	UNK0	0.000	
19	   C	-4.400	2.108	-2.283	C.2	1	UNK0	0.000	
20	   N	-5.341	2.883	-1.714	N.2	1	UNK0	0.000	
21	   C	-5.661	2.695	-0.417	C.2	1	UNK0	0.000	
22	   C	-5.038	1.714	0.352	C.2	1	UNK0	0.000	
23	   C	0.646	-0.890	3.063	C.3	1	UNK0	0.000	
24	   C	1.654	-0.695	1.982	C.3	1	UNK0	0.000	
25	   C	1.813	0.771	1.610	C.3	1	UNK0	0.000	
26	   N	2.792	0.943	0.562	N.4	1	UNK0	0.000	
27	   C	2.715	-0.091	-0.445	C.3	1	UNK0	0.000	
28	   C	3.473	0.431	-1.668	C.3	1	UNK0	0.000	
29	   O	2.675	1.378	-2.309	O.3	1	UNK0	0.000	
30	   C	2.016	2.198	-1.394	C.3	1	UNK0	0.000	
31	   C	2.733	2.230	-0.060	C.3	1	UNK0	0.000	
32	   H	-0.391	-3.873	-1.143	 H	1	UNK0	0.000	
33	   H	-0.580	-1.633	-0.095	 H	1	UNK0	0.000	
34	   H	-2.849	-3.419	3.029	 H	1	UNK0	0.000	
35	   H	-2.669	-5.592	1.985	 H	1	UNK0	0.000	
36	   H	-2.500	-1.260	3.201	 H	1	UNK0	0.000	
37	   H	-3.027	0.537	-2.032	 H	1	UNK0	0.000	
38	   H	-4.166	2.283	-3.323	 H	1	UNK0	0.000	
39	   H	-6.422	3.320	0.047	 H	1	UNK0	0.000	
40	   H	-5.356	1.589	1.372	 H	1	UNK0	0.000	
41	   H	0.562	-1.969	3.275	 H	1	UNK0	0.000	
42	   H	1.041	-0.418	3.986	 H	1	UNK0	0.000	
43	   H	2.670	-1.097	2.300	 H	1	UNK0	0.000	
44	   H	1.381	-1.238	1.074	 H	1	UNK0	0.000	
45	   H	0.856	1.133	1.233	 H	1	UNK0	0.000	
46	   H	2.182	1.294	2.506	 H	1	UNK0	0.000	
47	   H	3.732	0.853	1.017	 H	1	UNK0	0.000	
48	   H	3.208	-1.030	-0.155	 H	1	UNK0	0.000	
49	   H	1.676	-0.298	-0.735	 H	1	UNK0	0.000	
50	   H	3.783	-0.382	-2.322	 H	1	UNK0	0.000	
51	   H	4.365	0.955	-1.274	 H	1	UNK0	0.000	
52	   H	1.987	3.243	-1.762	 H	1	UNK0	0.000	
53	   H	0.979	1.824	-1.236	 H	1	UNK0	0.000	
54	   H	2.212	2.930	0.590	 H	1	UNK0	0.000	
55	   H	3.749	2.655	-0.265	 H	1	UNK0	0.000	
@<TRIPOS>BOND
1 1 2 1
2 2 3 2
3 2 7 1
4 3 4 1
5 4 5 2
6 5 6 1
7 5 8 1
8 6 7 2
9 8 9 1
10 8 14 1
11 9 10 1
12 9 23 1
13 10 11 2
14 10 12 1
15 12 13 2
16 12 14 1
17 14 15 2
18 15 16 1
19 15 17 1
20 17 18 2
21 17 22 1
22 18 19 1
23 19 20 2
24 20 21 1
25 21 22 2
26 23 24 1
27 24 25 1
28 25 26 1
29 26 27 1
30 26 31 1
31 27 28 1
32 28 29 1
33 29 30 1
34 30 31 1
35 3 32 1
36 4 33 1
37 6 34 1
38 7 35 1
39 8 36 1
40 18 37 1
41 19 38 1
42 21 39 1
43 22 40 1
44 23 41 1
45 23 42 1
46 24 43 1
47 24 44 1
48 25 45 1
49 25 46 1
50 26 47 1
51 27 48 1
52 27 49 1
53 28 50 1
54 28 51 1
55 30 52 1
56 30 53 1
57 31 54 1
58 31 55 1
@<TRIPOS>SUBSTRUCTURE
1	UNK0	1	GROUP	1 ****	UNK
# created with PyMOL 2.3.2
@<TRIPOS>MOLECULE
361
57 60 1                 
SMALL
USER_CHARGES
@<TRIPOS>ATOM
1	  Br	2.082	5.262	4.959	Br	1	UNK0	0.000	
2	   C	1.947	3.938	3.573	C.2	1	UNK0	0.000	
3	   C	2.866	2.908	3.488	C.2	1	UNK0	0.000	
4	   C	2.755	1.955	2.477	C.2	1	UNK0	0.000	
5	   C	1.750	1.994	1.540	C.2	1	UNK0	0.000	
6	   C	0.845	3.028	1.643	C.2	1	UNK0	0.000	
7	   C	0.945	3.974	2.636	C.2	1	UNK0	0.000	
8	   C	1.658	0.980	0.466	C.3	1	UNK0	0.000	
9	   N	2.065	-0.347	0.964	N.pl3	1	UNK0	0.000	
10	   C	0.971	-0.776	1.767	C.2	1	UNK0	0.000	
11	   O	1.067	-1.610	2.713	O.2	1	UNK0	0.000	
12	   C	-0.240	-0.101	1.312	C.2	1	UNK0	0.000	
13	   O	-1.392	-0.233	1.774	O.2	1	UNK0	0.000	
14	   C	0.189	0.744	0.213	C.2	1	UNK0	0.000	
15	   C	-0.518	1.178	-0.799	C.2	1	UNK0	0.000	
16	   O	0.062	1.943	-1.801	O.2	1	UNK0	0.000	
17	   C	-1.934	0.888	-0.922	C.2	1	UNK0	0.000	
18	   N	-2.996	1.286	-0.192	N.pl3	1	UNK0	0.000	
19	   C	-4.127	0.734	-0.655	C.2	1	UNK0	0.000	
20	   N	-3.765	-0.033	-1.706	N.2	1	UNK0	0.000	
21	   C	-2.463	0.026	-1.907	C.2	1	UNK0	0.000	
22	   C	-1.626	-0.651	-2.949	C.3	1	UNK0	0.000	
23	   C	-5.381	0.987	-0.098	C.2	1	UNK0	0.000	
24	   C	-5.497	1.839	0.976	C.2	1	UNK0	0.000	
25	   C	-4.327	2.398	1.436	C.2	1	UNK0	0.000	
26	   C	-3.105	2.129	0.867	C.2	1	UNK0	0.000	
27	   C	3.309	-1.017	0.690	C.3	1	UNK0	0.000	
28	   C	3.422	-1.878	-0.506	C.3	1	UNK0	0.000	
29	   C	2.556	-3.064	-0.666	C.3	1	UNK0	0.000	
30	   N	1.145	-2.856	-0.790	N.4	1	UNK0	0.000	
31	   C	0.739	-3.460	-2.091	C.3	1	UNK0	0.000	
32	   C	0.441	-3.645	0.200	C.3	1	UNK0	0.000	
33	   H	3.675	2.860	4.227	 H	1	UNK0	0.000	
34	   H	3.483	1.163	2.435	 H	1	UNK0	0.000	
35	   H	0.059	3.072	0.904	 H	1	UNK0	0.000	
36	   H	0.222	4.762	2.681	 H	1	UNK0	0.000	
37	   H	2.187	1.258	-0.448	 H	1	UNK0	0.000	
38	   H	-0.657	-0.966	-2.546	 H	1	UNK0	0.000	
39	   H	-1.481	0.040	-3.832	 H	1	UNK0	0.000	
40	   H	-2.157	-1.545	-3.335	 H	1	UNK0	0.000	
41	   H	-6.272	0.522	-0.498	 H	1	UNK0	0.000	
42	   H	-6.464	2.051	1.426	 H	1	UNK0	0.000	
43	   H	-4.421	3.075	2.288	 H	1	UNK0	0.000	
44	   H	-2.198	2.568	1.234	 H	1	UNK0	0.000	
45	   H	3.664	-1.586	1.599	 H	1	UNK0	0.000	
46	   H	4.076	-0.179	0.558	 H	1	UNK0	0.000	
47	   H	4.502	-2.115	-0.749	 H	1	UNK0	0.000	
48	   H	3.145	-1.187	-1.388	 H	1	UNK0	0.000	
49	   H	2.762	-3.840	0.136	 H	1	UNK0	0.000	
50	   H	2.898	-3.618	-1.599	 H	1	UNK0	0.000	
51	   H	0.816	-1.891	-0.768	 H	1	UNK0	0.000	
52	   H	-0.342	-3.347	-2.246	 H	1	UNK0	0.000	
53	   H	1.326	-2.993	-2.907	 H	1	UNK0	0.000	
54	   H	0.951	-4.542	-1.967	 H	1	UNK0	0.000	
55	   H	1.074	-3.836	1.097	 H	1	UNK0	0.000	
56	   H	-0.425	-3.050	0.552	 H	1	UNK0	0.000	
57	   H	0.022	-4.583	-0.208	 H	1	UNK0	0.000	
@<TRIPOS>BOND
1 1 2 1
2 2 3 2
3 2 7 1
4 3 4 1
5 4 5 2
6 5 6 1
7 5 8 1
8 6 7 2
9 8 9 1
10 8 14 1
11 9 10 1
12 9 27 1
13 10 11 2
14 10 12 1
15 12 13 2
16 12 14 1
17 14 15 2
18 15 16 1
19 15 17 1
20 17 18 1
21 17 21 2
22 18 19 1
23 18 26 1
24 19 20 2
25 19 23 1
26 20 21 1
27 21 22 1
28 23 24 2
29 24 25 1
30 25 26 2
31 27 28 1
32 28 29 1
33 29 30 1
34 30 31 1
35 30 32 1
36 3 33 1
37 4 34 1
38 6 35 1
39 7 36 1
40 8 37 1
41 22 38 1
42 22 39 1
43 22 40 1
44 23 41 1
45 24 42 1
46 25 43 1
47 26 44 1
48 27 45 1
49 27 46 1
50 28 47 1
51 28 48 1
52 29 49 1
53 29 50 1
54 30 51 1
55 31 52 1
56 31 53 1
57 31 54 1
58 32 55 1
59 32 56 1
60 32 57 1
@<TRIPOS>SUBSTRUCTURE
1	UNK0	1	GROUP	1 ****	UNK
# created with PyMOL 2.3.2
@<TRIPOS>MOLECULE
362
62 66 1                 
SMALL
USER_CHARGES
@<TRIPOS>ATOM
1	  Br	6.776	-3.937	-1.486	Br	1	UNK0	0.000	
2	   C	4.958	-3.564	-1.044	C.2	1	UNK0	0.000	
3	   C	4.199	-4.422	-0.270	C.2	1	UNK0	0.000	
4	   C	2.885	-4.153	0.050	C.2	1	UNK0	0.000	
5	   C	2.289	-3.009	-0.398	C.2	1	UNK0	0.000	
6	   C	3.035	-2.158	-1.163	C.2	1	UNK0	0.000	
7	   C	4.347	-2.409	-1.493	C.2	1	UNK0	0.000	
8	   C	0.936	-2.669	-0.084	C.3	1	UNK0	0.000	
9	   N	-0.001	-2.267	-1.047	N.pl3	1	UNK0	0.000	
10	   C	-1.167	-1.942	-0.243	C.2	1	UNK0	0.000	
11	   O	-2.396	-1.966	-0.593	O.2	1	UNK0	0.000	
12	   C	-0.695	-1.566	1.085	C.2	1	UNK0	0.000	
13	   O	-1.335	-1.207	2.125	O.2	1	UNK0	0.000	
14	   C	0.760	-1.684	1.014	C.2	1	UNK0	0.000	
15	   C	1.669	-1.095	1.768	C.2	1	UNK0	0.000	
16	   O	3.015	-1.378	1.581	O.2	1	UNK0	0.000	
17	   C	1.327	-0.138	2.809	C.2	1	UNK0	0.000	
18	   N	0.589	0.979	2.694	N.pl3	1	UNK0	0.000	
19	   C	0.467	1.581	3.900	C.2	1	UNK0	0.000	
20	   N	1.144	0.818	4.773	N.2	1	UNK0	0.000	
21	   C	1.681	-0.232	4.156	C.2	1	UNK0	0.000	
22	   C	2.508	-1.339	4.706	C.3	1	UNK0	0.000	
23	   C	-0.233	2.756	4.073	C.2	1	UNK0	0.000	
24	   C	-0.845	3.377	3.010	C.2	1	UNK0	0.000	
25	   C	-0.729	2.779	1.775	C.2	1	UNK0	0.000	
26	   C	-0.028	1.619	1.658	C.2	1	UNK0	0.000	
27	   C	-0.119	-2.135	-2.463	C.3	1	UNK0	0.000	
28	   C	0.190	-0.916	-3.178	C.3	1	UNK0	0.000	
29	   C	-0.582	0.331	-2.816	C.3	1	UNK0	0.000	
30	   N	-0.169	1.468	-3.633	N.4	1	UNK0	0.000	
31	   C	1.133	1.974	-3.313	C.3	1	UNK0	0.000	
32	   C	1.155	3.010	-2.228	C.3	1	UNK0	0.000	
33	   O	-0.010	3.084	-1.512	O.3	1	UNK0	0.000	
34	   C	-1.151	3.230	-2.257	C.3	1	UNK0	0.000	
35	   C	-1.113	2.543	-3.582	C.3	1	UNK0	0.000	
36	   H	4.663	-5.340	0.095	 H	1	UNK0	0.000	
37	   H	2.344	-4.899	0.680	 H	1	UNK0	0.000	
38	   H	2.623	-1.209	-1.554	 H	1	UNK0	0.000	
39	   H	4.942	-1.720	-2.109	 H	1	UNK0	0.000	
40	   H	0.488	-3.618	0.368	 H	1	UNK0	0.000	
41	   H	2.157	-2.290	4.261	 H	1	UNK0	0.000	
42	   H	2.344	-1.367	5.791	 H	1	UNK0	0.000	
43	   H	3.563	-1.122	4.462	 H	1	UNK0	0.000	
44	   H	-0.311	3.207	5.047	 H	1	UNK0	0.000	
45	   H	-1.397	4.286	3.096	 H	1	UNK0	0.000	
46	   H	-1.204	3.250	0.933	 H	1	UNK0	0.000	
47	   H	0.074	1.143	0.670	 H	1	UNK0	0.000	
48	   H	-1.130	-2.518	-2.818	 H	1	UNK0	0.000	
49	   H	0.570	-2.937	-2.882	 H	1	UNK0	0.000	
50	   H	1.270	-0.702	-3.403	 H	1	UNK0	0.000	
51	   H	-0.161	-1.107	-4.255	 H	1	UNK0	0.000	
52	   H	-0.381	0.652	-1.769	 H	1	UNK0	0.000	
53	   H	-1.649	0.156	-3.030	 H	1	UNK0	0.000	
54	   H	-0.123	1.114	-4.621	 H	1	UNK0	0.000	
55	   H	1.909	1.197	-3.154	 H	1	UNK0	0.000	
56	   H	1.479	2.516	-4.246	 H	1	UNK0	0.000	
57	   H	1.497	4.021	-2.586	 H	1	UNK0	0.000	
58	   H	1.963	2.707	-1.501	 H	1	UNK0	0.000	
59	   H	-1.455	4.309	-2.360	 H	1	UNK0	0.000	
60	   H	-1.995	2.767	-1.668	 H	1	UNK0	0.000	
61	   H	-0.792	3.297	-4.341	 H	1	UNK0	0.000	
62	   H	-2.099	2.171	-3.925	 H	1	UNK0	0.000	
@<TRIPOS>BOND
1 1 2 1
2 2 3 2
3 2 7 1
4 3 4 1
5 4 5 2
6 5 6 1
7 5 8 1
8 6 7 2
9 8 9 1
10 8 14 1
11 9 10 1
12 9 27 1
13 10 11 2
14 10 12 1
15 12 13 2
16 12 14 1
17 14 15 2
18 15 16 1
19 15 17 1
20 17 18 1
21 17 21 2
22 18 19 1
23 18 26 1
24 19 20 2
25 19 23 1
26 20 21 1
27 21 22 1
28 23 24 2
29 24 25 1
30 25 26 2
31 27 28 1
32 28 29 1
33 29 30 1
34 30 31 1
35 30 35 1
36 31 32 1
37 32 33 1
38 33 34 1
39 34 35 1
40 3 36 1
41 4 37 1
42 6 38 1
43 7 39 1
44 8 40 1
45 22 41 1
46 22 42 1
47 22 43 1
48 23 44 1
49 24 45 1
50 25 46 1
51 26 47 1
52 27 48 1
53 27 49 1
54 28 50 1
55 28 51 1
56 29 52 1
57 29 53 1
58 30 54 1
59 31 55 1
60 31 56 1
61 32 57 1
62 32 58 1
63 34 59 1
64 34 60 1
65 35 61 1
66 35 62 1
@<TRIPOS>SUBSTRUCTURE
1	UNK0	1	GROUP	1 ****	UNK
# created with PyMOL 2.3.2
@<TRIPOS>MOLECULE
364
54 57 1                 
SMALL
USER_CHARGES
@<TRIPOS>ATOM
1	  Br	-4.050	-4.697	3.776	Br	1	UNK0	0.000	
2	   C	-3.162	-3.494	2.586	C.2	1	UNK0	0.000	
3	   C	-2.803	-2.259	3.045	C.2	1	UNK0	0.000	
4	   C	-2.164	-1.383	2.199	C.2	1	UNK0	0.000	
5	   C	-1.848	-1.664	0.889	C.2	1	UNK0	0.000	
6	   C	-2.228	-2.934	0.452	C.2	1	UNK0	0.000	
7	   C	-2.868	-3.822	1.284	C.2	1	UNK0	0.000	
8	   C	-1.155	-0.690	0.003	C.3	1	UNK0	0.000	
9	   N	-1.710	0.631	0.111	N.pl3	1	UNK0	0.000	
10	   C	-0.797	1.416	0.858	C.2	1	UNK0	0.000	
11	   O	-1.028	2.567	1.327	O.2	1	UNK0	0.000	
12	   C	0.462	0.681	1.003	C.2	1	UNK0	0.000	
13	   O	1.504	1.055	1.596	O.2	1	UNK0	0.000	
14	   C	0.286	-0.587	0.318	C.2	1	UNK0	0.000	
15	   C	1.252	-1.434	0.001	C.2	1	UNK0	0.000	
16	   O	0.887	-2.579	-0.734	O.2	1	UNK0	0.000	
17	   C	2.647	-1.306	0.342	C.2	1	UNK0	0.000	
18	   N	3.306	-1.283	1.507	N.pl3	1	UNK0	0.000	
19	   C	4.623	-1.099	1.310	C.2	1	UNK0	0.000	
20	   N	4.811	-1.003	-0.017	N.2	1	UNK0	0.000	
21	   C	3.635	-1.124	-0.635	C.2	1	UNK0	0.000	
22	   C	3.431	-1.073	-2.110	C.3	1	UNK0	0.000	
23	   C	5.555	-1.050	2.341	C.2	1	UNK0	0.000	
24	   C	5.108	-1.198	3.625	C.2	1	UNK0	0.000	
25	   C	3.754	-1.389	3.831	C.2	1	UNK0	0.000	
26	   C	2.871	-1.429	2.777	C.2	1	UNK0	0.000	
27	   C	-2.996	1.098	-0.452	C.3	1	UNK0	0.000	
28	   C	-2.782	1.635	-1.851	C.3	1	UNK0	0.000	
29	   N	-3.974	2.105	-2.465	N.4	1	UNK0	0.000	
30	   C	-3.649	3.340	-3.179	C.3	1	UNK0	0.000	
31	   C	-4.589	1.195	-3.381	C.3	1	UNK0	0.000	
32	   H	-3.013	-1.944	4.078	 H	1	UNK0	0.000	
33	   H	-1.897	-0.417	2.599	 H	1	UNK0	0.000	
34	   H	-2.017	-3.233	-0.565	 H	1	UNK0	0.000	
35	   H	-3.157	-4.802	0.932	 H	1	UNK0	0.000	
36	   H	-1.334	-1.049	-1.036	 H	1	UNK0	0.000	
37	   H	3.168	-2.076	-2.515	 H	1	UNK0	0.000	
38	   H	2.571	-0.370	-2.273	 H	1	UNK0	0.000	
39	   H	4.305	-0.634	-2.589	 H	1	UNK0	0.000	
40	   H	6.602	-0.895	2.080	 H	1	UNK0	0.000	
41	   H	5.830	-1.161	4.431	 H	1	UNK0	0.000	
42	   H	3.369	-1.511	4.845	 H	1	UNK0	0.000	
43	   H	1.805	-1.577	2.909	 H	1	UNK0	0.000	
44	   H	-3.439	1.872	0.203	 H	1	UNK0	0.000	
45	   H	-3.647	0.215	-0.475	 H	1	UNK0	0.000	
46	   H	-2.327	0.797	-2.440	 H	1	UNK0	0.000	
47	   H	-1.974	2.414	-1.794	 H	1	UNK0	0.000	
48	   H	-4.709	2.372	-1.751	 H	1	UNK0	0.000	
49	   H	-2.974	3.143	-4.023	 H	1	UNK0	0.000	
50	   H	-4.594	3.855	-3.512	 H	1	UNK0	0.000	
51	   H	-3.137	4.074	-2.520	 H	1	UNK0	0.000	
52	   H	-5.069	1.798	-4.191	 H	1	UNK0	0.000	
53	   H	-3.867	0.523	-3.889	 H	1	UNK0	0.000	
54	   H	-5.431	0.635	-2.903	 H	1	UNK0	0.000	
@<TRIPOS>BOND
1 1 2 1
2 2 3 2
3 2 7 1
4 3 4 1
5 4 5 2
6 5 6 1
7 5 8 1
8 6 7 2
9 8 9 1
10 8 14 1
11 9 10 1
12 9 27 1
13 10 11 2
14 10 12 1
15 12 13 2
16 12 14 1
17 14 15 2
18 15 16 1
19 15 17 1
20 17 18 1
21 17 21 2
22 18 19 1
23 18 26 1
24 19 20 2
25 19 23 1
26 20 21 1
27 21 22 1
28 23 24 2
29 24 25 1
30 25 26 2
31 27 28 1
32 28 29 1
33 29 30 1
34 29 31 1
35 3 32 1
36 4 33 1
37 6 34 1
38 7 35 1
39 8 36 1
40 22 37 1
41 22 38 1
42 22 39 1
43 23 40 1
44 24 41 1
45 25 42 1
46 26 43 1
47 27 44 1
48 27 45 1
49 28 46 1
50 28 47 1
51 29 48 1
52 30 49 1
53 30 50 1
54 30 51 1
55 31 52 1
56 31 53 1
57 31 54 1
@<TRIPOS>SUBSTRUCTURE
1	UNK0	1	GROUP	1 ****	UNK
# created with PyMOL 2.3.2
@<TRIPOS>MOLECULE
381
44 47 1                 
SMALL
USER_CHARGES
@<TRIPOS>ATOM
1	  Br	4.010	-4.323	5.301	Br	1	UNK0	0.000	
2	   C	2.548	-3.429	4.456	C.2	1	UNK0	0.000	
3	   C	1.772	-4.045	3.510	C.2	1	UNK0	0.000	
4	   C	0.704	-3.377	2.895	C.2	1	UNK0	0.000	
5	   C	0.364	-2.081	3.192	C.2	1	UNK0	0.000	
6	   C	1.181	-1.479	4.169	C.2	1	UNK0	0.000	
7	   C	2.225	-2.124	4.772	C.2	1	UNK0	0.000	
8	   N	-0.660	-1.322	2.619	N.pl3	1	UNK0	0.000	
9	   C	-1.319	-1.611	1.418	C.2	1	UNK0	0.000	
10	   O	-0.970	-2.664	0.750	O.2	1	UNK0	0.000	
11	   C	-2.397	-0.857	0.780	C.3	1	UNK0	0.000	
12	   N	-1.896	0.422	0.250	N.pl3	1	UNK0	0.000	
13	   N	-1.292	0.515	-0.931	N.2	1	UNK0	0.000	
14	   C	-0.805	1.701	-1.396	C.2	1	UNK0	0.000	
15	   N	-0.939	2.805	-0.645	N.pl3	1	UNK0	0.000	
16	   C	-0.381	3.952	-1.327	C.3	1	UNK0	0.000	
17	   C	0.157	3.461	-2.638	C.3	1	UNK0	0.000	
18	   N	-0.100	2.034	-2.586	N.pl3	1	UNK0	0.000	
19	   C	0.316	1.144	-3.604	C.2	1	UNK0	0.000	
20	   C	-0.154	-0.135	-3.737	C.2	1	UNK0	0.000	
21	   C	0.285	-0.987	-4.735	C.2	1	UNK0	0.000	
22	   C	1.232	-0.547	-5.640	C.2	1	UNK0	0.000	
23	   C	1.711	0.720	-5.526	C.2	1	UNK0	0.000	
24	   C	1.269	1.562	-4.528	C.2	1	UNK0	0.000	
25	   C	-1.538	2.774	0.553	C.2	1	UNK0	0.000	
26	   O	-1.662	3.807	1.253	O.2	1	UNK0	0.000	
27	   C	-2.011	1.548	0.976	C.2	1	UNK0	0.000	
28	   O	-2.582	1.469	2.093	O.2	1	UNK0	0.000	
29	   H	1.995	-5.067	3.238	 H	1	UNK0	0.000	
30	   H	0.106	-3.908	2.159	 H	1	UNK0	0.000	
31	   H	0.952	-0.456	4.437	 H	1	UNK0	0.000	
32	   H	2.854	-1.644	5.526	 H	1	UNK0	0.000	
33	   H	-0.971	-0.446	3.127	 H	1	UNK0	0.000	
34	   H	-3.211	-0.577	1.492	 H	1	UNK0	0.000	
35	   H	-2.824	-1.423	-0.066	 H	1	UNK0	0.000	
36	   H	-1.239	4.622	-1.570	 H	1	UNK0	0.000	
37	   H	0.382	4.487	-0.715	 H	1	UNK0	0.000	
38	   H	1.265	3.633	-2.599	 H	1	UNK0	0.000	
39	   H	-0.298	3.936	-3.531	 H	1	UNK0	0.000	
40	   H	-0.883	-0.475	-3.041	 H	1	UNK0	0.000	
41	   H	-0.102	-1.996	-4.813	 H	1	UNK0	0.000	
42	   H	1.577	-1.229	-6.428	 H	1	UNK0	0.000	
43	   H	2.449	1.086	-6.216	 H	1	UNK0	0.000	
44	   H	1.652	2.548	-4.447	 H	1	UNK0	0.000	
@<TRIPOS>BOND
1 1 2 1
2 2 3 2
3 2 7 1
4 3 4 1
5 4 5 2
6 5 6 1
7 5 8 1
8 6 7 2
9 8 9 1
10 9 10 2
11 9 11 1
12 11 12 1
13 12 13 1
14 12 27 1
15 13 14 2
16 14 15 1
17 14 18 1
18 15 16 1
19 15 25 1
20 16 17 1
21 17 18 1
22 18 19 1
23 19 20 2
24 19 24 1
25 20 21 1
26 21 22 2
27 22 23 1
28 23 24 2
29 25 26 2
30 25 27 1
31 27 28 2
32 3 29 1
33 4 30 1
34 6 31 1
35 7 32 1
36 8 33 1
37 11 34 1
38 11 35 1
39 16 36 1
40 16 37 1
41 17 38 1
42 17 39 1
43 20 40 1
44 21 41 1
45 22 42 1
46 23 43 1
47 24 44 1
@<TRIPOS>SUBSTRUCTURE
1	UNK0	1	GROUP	1 ****	UNK
# created with PyMOL 2.3.2
@<TRIPOS>MOLECULE
382
44 47 1                 
SMALL
USER_CHARGES
@<TRIPOS>ATOM
1	  Br	2.139	-2.458	-7.052	Br	1	UNK0	0.000	
2	   C	1.824	-2.487	-5.178	C.2	1	UNK0	0.000	
3	   C	2.793	-2.171	-4.260	C.2	1	UNK0	0.000	
4	   C	2.512	-2.209	-2.901	C.2	1	UNK0	0.000	
5	   C	1.278	-2.556	-2.395	C.2	1	UNK0	0.000	
6	   C	0.309	-2.873	-3.366	C.2	1	UNK0	0.000	
7	   C	0.582	-2.837	-4.696	C.2	1	UNK0	0.000	
8	   N	0.947	-2.635	-1.023	N.pl3	1	UNK0	0.000	
9	   C	1.854	-2.757	0.038	C.2	1	UNK0	0.000	
10	   O	3.084	-2.817	-0.169	O.2	1	UNK0	0.000	
11	   C	1.344	-2.822	1.468	C.3	1	UNK0	0.000	
12	   N	1.571	-1.536	2.097	N.pl3	1	UNK0	0.000	
13	   N	2.679	-1.206	2.761	N.pl3	1	UNK0	0.000	
14	   N	2.572	0.025	3.205	N.pl3	1	UNK0	0.000	
15	   C	1.367	0.514	2.826	C.2	1	UNK0	0.000	
16	   C	0.761	-0.464	2.142	C.2	1	UNK0	0.000	
17	   C	-0.456	0.071	1.775	C.2	1	UNK0	0.000	
18	   O	-1.312	-0.579	1.104	O.2	1	UNK0	0.000	
19	   N	-0.605	1.331	2.212	N.pl3	1	UNK0	0.000	
20	   C	0.549	1.618	2.879	C.2	1	UNK0	0.000	
21	   O	0.761	2.733	3.429	O.2	1	UNK0	0.000	
22	   C	-1.719	2.219	2.039	C.2	1	UNK0	0.000	
23	   C	-2.694	2.330	3.007	C.2	1	UNK0	0.000	
24	   C	-3.763	3.190	2.853	C.2	1	UNK0	0.000	
25	   C	-3.913	3.979	1.727	C.2	1	UNK0	0.000	
26	   C	-2.939	3.870	0.757	C.2	1	UNK0	0.000	
27	   C	-1.868	3.006	0.917	C.2	1	UNK0	0.000	
28	   C	-5.075	4.899	1.595	C.3	1	UNK0	0.000	
29	   H	3.769	-1.894	-4.612	 H	1	UNK0	0.000	
30	   H	3.305	-1.941	-2.184	 H	1	UNK0	0.000	
31	   H	-0.683	-3.151	-2.971	 H	1	UNK0	0.000	
32	   H	-0.200	-3.092	-5.415	 H	1	UNK0	0.000	
33	   H	-0.097	-2.594	-0.797	 H	1	UNK0	0.000	
34	   H	1.893	-3.590	2.021	 H	1	UNK0	0.000	
35	   H	0.243	-3.011	1.414	 H	1	UNK0	0.000	
36	   H	3.482	-1.857	2.885	 H	1	UNK0	0.000	
37	   H	3.266	0.583	3.762	 H	1	UNK0	0.000	
38	   H	-2.590	1.717	3.896	 H	1	UNK0	0.000	
39	   H	-4.543	3.287	3.617	 H	1	UNK0	0.000	
40	   H	-3.035	4.485	-0.144	 H	1	UNK0	0.000	
41	   H	-1.100	2.918	0.154	 H	1	UNK0	0.000	
42	   H	-6.048	4.361	1.657	 H	1	UNK0	0.000	
43	   H	-5.036	5.325	0.563	 H	1	UNK0	0.000	
44	   H	-5.030	5.741	2.303	 H	1	UNK0	0.000	
@<TRIPOS>BOND
1 1 2 1
2 2 3 2
3 2 7 1
4 3 4 1
5 4 5 2
6 5 6 1
7 5 8 1
8 6 7 2
9 8 9 1
10 9 10 2
11 9 11 1
12 11 12 1
13 12 13 1
14 12 16 1
15 13 14 1
16 14 15 1
17 15 16 2
18 15 20 1
19 16 17 1
20 17 18 2
21 17 19 1
22 19 20 1
23 19 22 1
24 20 21 2
25 22 23 2
26 22 27 1
27 23 24 1
28 24 25 2
29 25 26 1
30 25 28 1
31 26 27 2
32 3 29 1
33 4 30 1
34 6 31 1
35 7 32 1
36 8 33 1
37 11 34 1
38 11 35 1
39 13 36 1
40 14 37 1
41 23 38 1
42 24 39 1
43 26 40 1
44 27 41 1
45 28 42 1
46 28 43 1
47 28 44 1
@<TRIPOS>SUBSTRUCTURE
1	UNK0	1	GROUP	1 ****	UNK
# created with PyMOL 2.3.2
@<TRIPOS>MOLECULE
385
47 50 1                 
SMALL
USER_CHARGES
@<TRIPOS>ATOM
1	  Br	-6.160	6.615	-2.654	Br	1	UNK0	0.000	
2	   C	-5.088	5.253	-1.829	C.2	1	UNK0	0.000	
3	   C	-3.792	5.504	-1.453	C.2	1	UNK0	0.000	
4	   C	-3.028	4.555	-0.877	C.2	1	UNK0	0.000	
5	   C	-3.528	3.237	-0.630	C.2	1	UNK0	0.000	
6	   C	-4.832	3.028	-1.022	C.2	1	UNK0	0.000	
7	   C	-5.609	3.997	-1.607	C.2	1	UNK0	0.000	
8	   N	-2.635	2.334	-0.110	N.pl3	1	UNK0	0.000	
9	   C	-1.776	1.463	0.392	C.2	1	UNK0	0.000	
10	   O	-1.965	0.429	1.148	O.2	1	UNK0	0.000	
11	   C	-0.269	1.612	0.091	C.3	1	UNK0	0.000	
12	   C	-0.185	1.840	-1.389	C.3	1	UNK0	0.000	
13	   C	0.032	0.624	-2.183	C.2	1	UNK0	0.000	
14	   O	-0.447	0.587	-3.349	O.2	1	UNK0	0.000	
15	   N	0.757	-0.464	-1.638	N.pl3	1	UNK0	0.000	
16	   C	0.988	-0.533	-0.247	C.2	1	UNK0	0.000	
17	   N	1.703	-1.587	0.256	N.2	1	UNK0	0.000	
18	   C	1.970	-1.708	1.558	C.2	1	UNK0	0.000	
19	   N	1.511	-0.754	2.378	N.2	1	UNK0	0.000	
20	   C	0.792	0.316	1.929	C.2	1	UNK0	0.000	
21	   C	0.503	0.465	0.587	C.2	1	UNK0	0.000	
22	   N	0.315	1.298	2.843	N.pl3	1	UNK0	0.000	
23	   N	2.725	-2.832	2.066	N.pl3	1	UNK0	0.000	
24	   C	3.056	-2.818	3.448	C.3	1	UNK0	0.000	
25	   C	3.425	-4.161	4.009	C.3	1	UNK0	0.000	
26	   O	3.282	-5.184	3.078	O.3	1	UNK0	0.000	
27	   C	3.927	-4.891	1.884	C.3	1	UNK0	0.000	
28	   C	3.084	-3.887	1.141	C.3	1	UNK0	0.000	
29	   H	-3.382	6.506	-1.636	 H	1	UNK0	0.000	
30	   H	-1.994	4.748	-0.581	 H	1	UNK0	0.000	
31	   H	-5.283	2.029	-0.872	 H	1	UNK0	0.000	
32	   H	-6.645	3.796	-1.904	 H	1	UNK0	0.000	
33	   H	-3.634	1.784	0.635	 H	1	UNK0	0.000	
34	   H	0.049	2.580	0.594	 H	1	UNK0	0.000	
35	   H	0.651	2.570	-1.574	 H	1	UNK0	0.000	
36	   H	-1.140	2.325	-1.721	 H	1	UNK0	0.000	
37	   H	1.139	-1.242	-2.250	 H	1	UNK0	0.000	
38	   H	-0.018	2.222	2.552	 H	1	UNK0	0.000	
39	   H	0.310	1.066	3.869	 H	1	UNK0	0.000	
40	   H	3.950	-2.137	3.550	 H	1	UNK0	0.000	
41	   H	2.229	-2.310	4.009	 H	1	UNK0	0.000	
42	   H	4.472	-4.174	4.402	 H	1	UNK0	0.000	
43	   H	2.760	-4.388	4.859	 H	1	UNK0	0.000	
44	   H	3.976	-5.869	1.322	 H	1	UNK0	0.000	
45	   H	4.956	-4.528	2.067	 H	1	UNK0	0.000	
46	   H	3.607	-3.480	0.247	 H	1	UNK0	0.000	
47	   H	2.178	-4.423	0.751	 H	1	UNK0	0.000	
@<TRIPOS>BOND
1 1 2 1
2 2 3 2
3 2 7 1
4 3 4 1
5 4 5 2
6 5 6 1
7 5 8 1
8 6 7 2
9 8 9 1
10 9 10 2
11 9 11 1
12 11 12 1
13 11 21 1
14 12 13 1
15 13 14 2
16 13 15 1
17 15 16 1
18 16 17 2
19 16 21 1
20 17 18 1
21 18 19 2
22 18 23 1
23 19 20 1
24 20 21 2
25 20 22 1
26 23 24 1
27 23 28 1
28 24 25 1
29 25 26 1
30 26 27 1
31 27 28 1
32 3 29 1
33 4 30 1
34 6 31 1
35 7 32 1
36 8 33 1
37 11 34 1
38 12 35 1
39 12 36 1
40 15 37 1
41 22 38 1
42 22 39 1
43 24 40 1
44 24 41 1
45 25 42 1
46 25 43 1
47 27 44 1
48 27 45 1
49 28 46 1
50 28 47 1
@<TRIPOS>SUBSTRUCTURE
1	UNK0	1	GROUP	1 ****	UNK
# created with PyMOL 2.3.2
@<TRIPOS>MOLECULE
386
52 55 1                 
SMALL
USER_CHARGES
@<TRIPOS>ATOM
1	  Br	-1.031	2.639	6.627	Br	1	UNK0	0.000	
2	   C	0.096	2.389	5.127	C.2	1	UNK0	0.000	
3	   C	0.559	1.122	4.818	C.2	1	UNK0	0.000	
4	   C	1.368	0.861	3.763	C.2	1	UNK0	0.000	
5	   C	1.754	1.963	2.934	C.2	1	UNK0	0.000	
6	   C	1.277	3.208	3.268	C.2	1	UNK0	0.000	
7	   C	0.455	3.450	4.346	C.2	1	UNK0	0.000	
8	   N	2.514	1.609	1.847	N.pl3	1	UNK0	0.000	
9	   C	3.260	1.263	0.780	C.2	1	UNK0	0.000	
10	   O	4.257	1.918	0.249	O.2	1	UNK0	0.000	
11	   C	3.033	0.002	0.024	C.3	1	UNK0	0.000	
12	   C	4.267	-0.528	-0.682	C.3	1	UNK0	0.000	
13	   C	3.997	-1.945	-1.072	C.2	1	UNK0	0.000	
14	   O	4.801	-2.825	-0.822	O.2	1	UNK0	0.000	
15	   N	2.785	-2.191	-1.733	N.pl3	1	UNK0	0.000	
16	   C	1.701	-1.291	-1.617	C.2	1	UNK0	0.000	
17	   N	0.566	-1.464	-2.324	N.2	1	UNK0	0.000	
18	   C	-0.466	-0.620	-2.346	C.2	1	UNK0	0.000	
19	   N	-0.316	0.491	-1.579	N.2	1	UNK0	0.000	
20	   C	0.797	0.730	-0.839	C.2	1	UNK0	0.000	
21	   C	1.848	-0.135	-0.814	C.2	1	UNK0	0.000	
22	   O	0.870	1.897	-0.083	O.3	1	UNK0	0.000	
23	   N	-1.667	-0.850	-3.057	N.pl3	1	UNK0	0.000	
24	   C	-2.095	-2.095	-3.640	C.3	1	UNK0	0.000	
25	   C	-3.601	-2.227	-3.434	C.3	1	UNK0	0.000	
26	   C	-4.068	-1.523	-2.194	C.3	1	UNK0	0.000	
27	   C	-3.759	-0.068	-2.241	C.3	1	UNK0	0.000	
28	   C	-2.613	0.259	-3.226	C.3	1	UNK0	0.000	
29	   C	-3.572	-2.181	-0.962	C.2	1	UNK0	0.000	
30	   O	-2.858	-3.196	-1.094	O.2	1	UNK0	0.000	
31	   N	-3.865	-1.729	0.344	N.pl3	1	UNK0	0.000	
32	   H	0.259	0.273	5.463	 H	1	UNK0	0.000	
33	   H	1.731	-0.141	3.529	 H	1	UNK0	0.000	
34	   H	1.540	4.066	2.647	 H	1	UNK0	0.000	
35	   H	0.091	4.442	4.588	 H	1	UNK0	0.000	
36	   H	3.315	2.668	2.075	 H	1	UNK0	0.000	
37	   H	2.947	-0.767	0.905	 H	1	UNK0	0.000	
38	   H	5.155	-0.541	-0.021	 H	1	UNK0	0.000	
39	   H	4.506	0.049	-1.579	 H	1	UNK0	0.000	
40	   H	2.626	-3.039	-2.341	 H	1	UNK0	0.000	
41	   H	1.042	2.808	-0.503	 H	1	UNK0	0.000	
42	   H	-1.610	-2.961	-3.157	 H	1	UNK0	0.000	
43	   H	-1.913	-2.198	-4.723	 H	1	UNK0	0.000	
44	   H	-4.138	-1.928	-4.348	 H	1	UNK0	0.000	
45	   H	-3.823	-3.315	-3.316	 H	1	UNK0	0.000	
46	   H	-5.188	-1.615	-2.161	 H	1	UNK0	0.000	
47	   H	-3.421	0.290	-1.227	 H	1	UNK0	0.000	
48	   H	-4.621	0.569	-2.505	 H	1	UNK0	0.000	
49	   H	-3.020	0.295	-4.236	 H	1	UNK0	0.000	
50	   H	-2.177	1.210	-2.868	 H	1	UNK0	0.000	
51	   H	-3.949	-0.724	0.583	 H	1	UNK0	0.000	
52	   H	-4.003	-2.435	1.097	 H	1	UNK0	0.000	
@<TRIPOS>BOND
1 1 2 1
2 2 3 2
3 2 7 1
4 3 4 1
5 4 5 2
6 5 6 1
7 5 8 1
8 6 7 2
9 8 9 1
10 9 10 2
11 9 11 1
12 11 12 1
13 11 21 1
14 12 13 1
15 13 14 2
16 13 15 1
17 15 16 1
18 16 17 2
19 16 21 1
20 17 18 1
21 18 19 2
22 18 23 1
23 19 20 1
24 20 21 2
25 20 22 1
26 23 24 1
27 23 28 1
28 24 25 1
29 25 26 1
30 26 27 1
31 26 29 1
32 27 28 1
33 29 30 2
34 29 31 1
35 3 32 1
36 4 33 1
37 6 34 1
38 7 35 1
39 8 36 1
40 11 37 1
41 12 38 1
42 12 39 1
43 15 40 1
44 22 41 1
45 24 42 1
46 24 43 1
47 25 44 1
48 25 45 1
49 26 46 1
50 27 47 1
51 27 48 1
52 28 49 1
53 28 50 1
54 31 51 1
55 31 52 1
@<TRIPOS>SUBSTRUCTURE
1	UNK0	1	GROUP	1 ****	UNK
# created with PyMOL 2.3.2
@<TRIPOS>MOLECULE
393
42 45 1                 
SMALL
USER_CHARGES
@<TRIPOS>ATOM
1	  Br	3.066	6.906	1.182	Br	1	UNK0	0.000	
2	   C	1.890	5.408	1.008	C.2	1	UNK0	0.000	
3	   C	0.669	5.546	0.382	C.2	1	UNK0	0.000	
4	   C	-0.167	4.454	0.265	C.2	1	UNK0	0.000	
5	   C	0.156	3.201	0.751	C.2	1	UNK0	0.000	
6	   C	1.384	3.078	1.375	C.2	1	UNK0	0.000	
7	   C	2.231	4.161	1.499	C.2	1	UNK0	0.000	
8	   N	-0.728	2.085	0.617	N.pl3	1	UNK0	0.000	
9	   N	-1.956	2.025	1.069	N.2	1	UNK0	0.000	
10	   C	-2.549	0.846	0.795	C.2	1	UNK0	0.000	
11	   C	-1.618	0.108	0.117	C.2	1	UNK0	0.000	
12	   C	-0.493	0.899	0.018	C.2	1	UNK0	0.000	
13	   N	0.751	0.535	-0.622	N.pl3	1	UNK0	0.000	
14	   C	1.175	0.853	-1.836	C.2	1	UNK0	0.000	
15	   C	2.417	0.310	-2.071	C.2	1	UNK0	0.000	
16	   C	2.740	-0.370	-0.921	C.2	1	UNK0	0.000	
17	   C	1.696	-0.218	-0.036	C.2	1	UNK0	0.000	
18	   C	-1.820	-1.246	-0.384	C.2	1	UNK0	0.000	
19	   O	-2.276	-1.350	-1.548	O.2	1	UNK0	0.000	
20	   N	-1.531	-2.406	0.367	N.pl3	1	UNK0	0.000	
21	   C	-1.768	-3.701	-0.224	C.3	1	UNK0	0.000	
22	   C	-0.440	-4.368	-0.425	C.3	1	UNK0	0.000	
23	   N	0.595	-3.806	0.435	N.pl3	1	UNK0	0.000	
24	   C	0.296	-3.122	1.647	C.2	1	UNK0	0.000	
25	   O	1.121	-3.138	2.593	O.2	1	UNK0	0.000	
26	   C	-1.005	-2.416	1.713	C.3	1	UNK0	0.000	
27	   H	0.383	6.531	-0.014	 H	1	UNK0	0.000	
28	   H	-1.120	4.588	-0.229	 H	1	UNK0	0.000	
29	   H	1.641	2.092	1.758	 H	1	UNK0	0.000	
30	   H	3.181	4.056	1.985	 H	1	UNK0	0.000	
31	   H	-3.572	0.585	1.082	 H	1	UNK0	0.000	
32	   H	0.628	1.457	-2.554	 H	1	UNK0	0.000	
33	   H	3.024	0.399	-2.985	 H	1	UNK0	0.000	
34	   H	3.653	-0.925	-0.744	 H	1	UNK0	0.000	
35	   H	1.654	-0.648	0.979	 H	1	UNK0	0.000	
36	   H	-2.398	-3.665	-1.122	 H	1	UNK0	0.000	
37	   H	-2.328	-4.329	0.529	 H	1	UNK0	0.000	
38	   H	-0.134	-4.295	-1.487	 H	1	UNK0	0.000	
39	   H	-0.476	-5.461	-0.181	 H	1	UNK0	0.000	
40	   H	1.606	-3.923	0.125	 H	1	UNK0	0.000	
41	   H	-1.705	-2.993	2.350	 H	1	UNK0	0.000	
42	   H	-0.930	-1.411	2.156	 H	1	UNK0	0.000	
@<TRIPOS>BOND
1 1 2 1
2 2 3 2
3 2 7 1
4 3 4 1
5 4 5 2
6 5 6 1
7 5 8 1
8 6 7 2
9 8 9 1
10 8 12 1
11 9 10 2
12 10 11 1
13 11 12 2
14 11 18 1
15 12 13 1
16 13 14 1
17 13 17 1
18 14 15 2
19 15 16 1
20 16 17 2
21 18 19 2
22 18 20 1
23 20 21 1
24 20 26 1
25 21 22 1
26 22 23 1
27 23 24 1
28 24 25 2
29 24 26 1
30 3 27 1
31 4 28 1
32 6 29 1
33 7 30 1
34 10 31 1
35 14 32 1
36 15 33 1
37 16 34 1
38 17 35 1
39 21 36 1
40 21 37 1
41 22 38 1
42 22 39 1
43 23 40 1
44 26 41 1
45 26 42 1
@<TRIPOS>SUBSTRUCTURE
1	UNK0	1	GROUP	1 ****	UNK
# created with PyMOL 2.3.2
@<TRIPOS>MOLECULE
395
47 50 1                 
SMALL
USER_CHARGES
@<TRIPOS>ATOM
1	  Br	8.011	-4.096	4.983	Br	1	UNK0	0.000	
2	   C	6.567	-2.886	4.638	C.2	1	UNK0	0.000	
3	   C	6.489	-1.666	5.276	C.2	1	UNK0	0.000	
4	   C	5.451	-0.777	5.039	C.2	1	UNK0	0.000	
5	   C	4.450	-1.091	4.144	C.2	1	UNK0	0.000	
6	   C	4.535	-2.314	3.509	C.2	1	UNK0	0.000	
7	   C	5.566	-3.200	3.743	C.2	1	UNK0	0.000	
8	   N	3.383	-0.170	3.905	N.pl3	1	UNK0	0.000	
9	   N	2.870	0.720	4.737	N.2	1	UNK0	0.000	
10	   N	1.890	1.403	4.170	N.2	1	UNK0	0.000	
11	   C	1.731	0.957	2.895	C.2	1	UNK0	0.000	
12	   C	2.688	-0.033	2.762	C.2	1	UNK0	0.000	
13	   N	2.757	-0.656	1.580	N.2	1	UNK0	0.000	
14	   C	1.927	-0.324	0.576	C.2	1	UNK0	0.000	
15	   N	0.989	0.643	0.698	N.pl3	1	UNK0	0.000	
16	   C	0.886	1.292	1.864	C.2	1	UNK0	0.000	
17	   O	0.020	2.187	1.980	O.2	1	UNK0	0.000	
18	   C	0.140	0.931	-0.443	C.3	1	UNK0	0.000	
19	   C	-1.098	0.072	-0.399	C.2	1	UNK0	0.000	
20	   O	-1.276	-0.749	0.540	O.2	1	UNK0	0.000	
21	   N	-2.084	0.169	-1.409	N.pl3	1	UNK0	0.000	
22	   C	-3.273	-0.649	-1.378	C.3	1	UNK0	0.000	
23	   C	-3.477	-1.184	-2.785	C.3	1	UNK0	0.000	
24	   O	-3.534	-0.204	-3.742	O.3	1	UNK0	0.000	
25	   C	-3.202	1.054	-3.303	C.3	1	UNK0	0.000	
26	   C	-1.916	1.097	-2.503	C.3	1	UNK0	0.000	
27	   C	-3.148	2.076	-4.400	C.3	1	UNK0	0.000	
28	   C	-4.839	-1.886	-2.779	C.3	1	UNK0	0.000	
29	   H	7.266	-1.414	5.975	 H	1	UNK0	0.000	
30	   H	5.398	0.175	5.543	 H	1	UNK0	0.000	
31	   H	3.767	-2.587	2.805	 H	1	UNK0	0.000	
32	   H	5.631	-4.166	3.240	 H	1	UNK0	0.000	
33	   H	2.009	-0.853	-0.382	 H	1	UNK0	0.000	
34	   H	-0.194	1.986	-0.446	 H	1	UNK0	0.000	
35	   H	0.652	0.660	-1.389	 H	1	UNK0	0.000	
36	   H	-4.163	-0.081	-1.035	 H	1	UNK0	0.000	
37	   H	-3.085	-1.480	-0.680	 H	1	UNK0	0.000	
38	   H	-2.690	-1.952	-2.968	 H	1	UNK0	0.000	
39	   H	-4.010	1.385	-2.588	 H	1	UNK0	0.000	
40	   H	-1.780	2.138	-2.157	 H	1	UNK0	0.000	
41	   H	-1.040	0.773	-3.089	 H	1	UNK0	0.000	
42	   H	-3.483	3.061	-4.011	 H	1	UNK0	0.000	
43	   H	-2.112	2.226	-4.792	 H	1	UNK0	0.000	
44	   H	-3.852	1.814	-5.229	 H	1	UNK0	0.000	
45	   H	-4.942	-2.353	-1.783	 H	1	UNK0	0.000	
46	   H	-5.662	-1.179	-2.918	 H	1	UNK0	0.000	
47	   H	-4.846	-2.713	-3.537	 H	1	UNK0	0.000	
@<TRIPOS>BOND
1 1 2 1
2 2 3 2
3 2 7 1
4 3 4 1
5 4 5 2
6 5 6 1
7 5 8 1
8 6 7 2
9 8 9 1
10 8 12 1
11 9 10 2
12 10 11 1
13 11 12 2
14 11 16 1
15 12 13 1
16 13 14 2
17 14 15 1
18 15 16 1
19 15 18 1
20 16 17 2
21 18 19 1
22 19 20 2
23 19 21 1
24 21 22 1
25 21 26 1
26 22 23 1
27 23 24 1
28 23 28 1
29 24 25 1
30 25 26 1
31 25 27 1
32 3 29 1
33 4 30 1
34 6 31 1
35 7 32 1
36 14 33 1
37 18 34 1
38 18 35 1
39 22 36 1
40 22 37 1
41 23 38 1
42 25 39 1
43 26 40 1
44 26 41 1
45 27 42 1
46 27 43 1
47 27 44 1
48 28 45 1
49 28 46 1
50 28 47 1
@<TRIPOS>SUBSTRUCTURE
1	UNK0	1	GROUP	1 ****	UNK
# created with PyMOL 2.3.2
@<TRIPOS>MOLECULE
399
47 50 1                 
SMALL
USER_CHARGES
@<TRIPOS>ATOM
1	  Br	-0.395	3.264	6.514	Br	1	UNK0	0.000	
2	   C	0.142	2.080	5.108	C.2	1	UNK0	0.000	
3	   C	-0.749	1.243	4.494	C.2	1	UNK0	0.000	
4	   C	-0.350	0.380	3.468	C.2	1	UNK0	0.000	
5	   C	0.944	0.338	3.036	C.2	1	UNK0	0.000	
6	   C	1.837	1.171	3.646	C.2	1	UNK0	0.000	
7	   C	1.448	2.040	4.677	C.2	1	UNK0	0.000	
8	   N	1.356	-0.541	1.987	N.pl3	1	UNK0	0.000	
9	   C	0.594	-1.514	1.281	C.2	1	UNK0	0.000	
10	   O	-0.581	-1.840	1.554	O.2	1	UNK0	0.000	
11	   C	1.368	-2.099	0.176	C.3	1	UNK0	0.000	
12	   C	2.803	-1.859	0.631	C.3	1	UNK0	0.000	
13	   C	2.682	-0.596	1.426	C.2	1	UNK0	0.000	
14	   O	3.635	0.200	1.517	O.2	1	UNK0	0.000	
15	   N	1.145	-1.497	-1.119	N.4	1	UNK0	0.000	
16	   C	0.077	-2.138	-1.848	C.3	1	UNK0	0.000	
17	   C	-1.257	-1.432	-1.750	C.3	1	UNK0	0.000	
18	   N	-1.102	-0.002	-1.832	N.pl3	1	UNK0	0.000	
19	   C	0.217	0.434	-2.226	C.3	1	UNK0	0.000	
20	   C	1.132	-0.079	-1.098	C.3	1	UNK0	0.000	
21	   C	-2.120	0.912	-1.541	C.2	1	UNK0	0.000	
22	   C	-2.103	2.256	-1.855	C.2	1	UNK0	0.000	
23	   C	-3.130	3.124	-1.521	C.2	1	UNK0	0.000	
24	   C	-4.228	2.661	-0.847	C.2	1	UNK0	0.000	
25	   C	-4.297	1.325	-0.507	C.2	1	UNK0	0.000	
26	   C	-3.259	0.478	-0.852	C.2	1	UNK0	0.000	
27	   O	-5.296	3.481	-0.481	O.2	1	UNK0	0.000	
28	   H	-1.767	1.259	4.816	 H	1	UNK0	0.000	
29	   H	-1.112	-0.230	3.053	 H	1	UNK0	0.000	
30	   H	2.867	1.224	3.396	 H	1	UNK0	0.000	
31	   H	2.159	2.696	5.153	 H	1	UNK0	0.000	
32	   H	1.269	-3.209	0.123	 H	1	UNK0	0.000	
33	   H	3.176	-2.696	1.243	 H	1	UNK0	0.000	
34	   H	3.432	-1.707	-0.264	 H	1	UNK0	0.000	
35	   H	2.025	-1.770	-1.675	 H	1	UNK0	0.000	
36	   H	-0.055	-3.161	-1.435	 H	1	UNK0	0.000	
37	   H	0.322	-2.263	-2.927	 H	1	UNK0	0.000	
38	   H	-1.844	-1.748	-2.662	 H	1	UNK0	0.000	
39	   H	-1.772	-1.819	-0.883	 H	1	UNK0	0.000	
40	   H	0.505	-0.106	-3.151	 H	1	UNK0	0.000	
41	   H	0.355	1.492	-2.371	 H	1	UNK0	0.000	
42	   H	0.726	0.262	-0.114	 H	1	UNK0	0.000	
43	   H	2.149	0.317	-1.216	 H	1	UNK0	0.000	
44	   H	-1.226	2.641	-2.404	 H	1	UNK0	0.000	
45	   H	-3.048	4.145	-1.796	 H	1	UNK0	0.000	
46	   H	-5.152	0.927	0.029	 H	1	UNK0	0.000	
47	   H	-3.288	-0.580	-0.595	 H	1	UNK0	0.000	
@<TRIPOS>BOND
1 1 2 1
2 2 3 2
3 2 7 1
4 3 4 1
5 4 5 2
6 5 6 1
7 5 8 1
8 6 7 2
9 8 9 1
10 8 13 1
11 9 10 2
12 9 11 1
13 11 12 1
14 11 15 1
15 12 13 1
16 13 14 2
17 15 16 1
18 15 20 1
19 16 17 1
20 17 18 1
21 18 19 1
22 18 21 1
23 19 20 1
24 21 22 2
25 21 26 1
26 22 23 1
27 23 24 2
28 24 25 1
29 24 27 1
30 25 26 2
31 3 28 1
32 4 29 1
33 6 30 1
34 7 31 1
35 11 32 1
36 12 33 1
37 12 34 1
38 15 35 1
39 16 36 1
40 16 37 1
41 17 38 1
42 17 39 1
43 19 40 1
44 19 41 1
45 20 42 1
46 20 43 1
47 22 44 1
48 23 45 1
49 25 46 1
50 26 47 1
@<TRIPOS>SUBSTRUCTURE
1	UNK0	1	GROUP	1 ****	UNK
# created with PyMOL 2.3.2
@<TRIPOS>MOLECULE
400
56 59 1                 
SMALL
USER_CHARGES
@<TRIPOS>ATOM
1	  Br	4.105	-5.017	2.443	Br	1	UNK0	0.000	
2	   C	3.880	-3.440	1.385	C.2	1	UNK0	0.000	
3	   C	4.622	-2.302	1.601	C.2	1	UNK0	0.000	
4	   C	4.451	-1.151	0.822	C.2	1	UNK0	0.000	
5	   C	3.530	-1.121	-0.191	C.2	1	UNK0	0.000	
6	   C	2.792	-2.265	-0.398	C.2	1	UNK0	0.000	
7	   C	2.953	-3.410	0.366	C.2	1	UNK0	0.000	
8	   N	3.369	0.064	-0.975	N.pl3	1	UNK0	0.000	
9	   C	2.412	0.278	-2.018	C.2	1	UNK0	0.000	
10	   O	1.863	-0.586	-2.744	O.2	1	UNK0	0.000	
11	   C	2.162	1.740	-2.107	C.3	1	UNK0	0.000	
12	   C	3.244	2.415	-1.294	C.3	1	UNK0	0.000	
13	   C	4.112	1.274	-0.898	C.2	1	UNK0	0.000	
14	   O	5.340	1.347	-0.539	O.2	1	UNK0	0.000	
15	   N	0.854	2.024	-1.675	N.3	1	UNK0	0.000	
16	   C	0.484	1.728	-0.350	C.3	1	UNK0	0.000	
17	   C	-1.017	2.003	-0.188	C.3	1	UNK0	0.000	
18	   C	-1.842	1.027	-0.997	C.3	1	UNK0	0.000	
19	   C	-1.205	0.810	-2.310	C.3	1	UNK0	0.000	
20	   C	-0.181	1.871	-2.626	C.3	1	UNK0	0.000	
21	   N	-2.080	-0.112	-0.211	N.3	1	UNK0	0.000	
22	   C	-2.809	0.027	0.979	C.3	1	UNK0	0.000	
23	   C	-1.936	-0.554	2.105	C.3	1	UNK0	0.000	
24	   C	-1.816	-2.035	1.808	C.3	1	UNK0	0.000	
25	   C	-2.189	-2.393	0.408	C.3	1	UNK0	0.000	
26	   C	-1.687	-1.371	-0.623	C.3	1	UNK0	0.000	
27	   C	-3.164	1.713	-1.221	C.2	1	UNK0	0.000	
28	   O	-3.209	2.797	-1.877	O.2	1	UNK0	0.000	
29	   N	-4.388	1.202	-0.728	N.pl3	1	UNK0	0.000	
30	   H	5.340	-2.334	2.396	 H	1	UNK0	0.000	
31	   H	5.073	-0.293	1.054	 H	1	UNK0	0.000	
32	   H	2.059	-2.272	-1.185	 H	1	UNK0	0.000	
33	   H	2.356	-4.306	0.183	 H	1	UNK0	0.000	
34	   H	2.352	2.016	-3.180	 H	1	UNK0	0.000	
35	   H	2.866	2.862	-0.351	 H	1	UNK0	0.000	
36	   H	3.853	3.099	-1.897	 H	1	UNK0	0.000	
37	   H	0.654	0.642	-0.141	 H	1	UNK0	0.000	
38	   H	0.966	2.365	0.435	 H	1	UNK0	0.000	
39	   H	-1.165	3.004	-0.675	 H	1	UNK0	0.000	
40	   H	-1.293	2.055	0.863	 H	1	UNK0	0.000	
41	   H	-1.996	0.930	-3.112	 H	1	UNK0	0.000	
42	   H	-0.828	-0.215	-2.487	 H	1	UNK0	0.000	
43	   H	0.203	1.744	-3.681	 H	1	UNK0	0.000	
44	   H	-0.707	2.875	-2.686	 H	1	UNK0	0.000	
45	   H	-3.015	1.075	1.203	 H	1	UNK0	0.000	
46	   H	-3.724	-0.599	0.926	 H	1	UNK0	0.000	
47	   H	-0.908	-0.111	2.058	 H	1	UNK0	0.000	
48	   H	-2.409	-0.345	3.077	 H	1	UNK0	0.000	
49	   H	-0.830	-2.440	2.117	 H	1	UNK0	0.000	
50	   H	-2.554	-2.535	2.497	 H	1	UNK0	0.000	
51	   H	-1.675	-3.360	0.153	 H	1	UNK0	0.000	
52	   H	-3.286	-2.558	0.264	 H	1	UNK0	0.000	
53	   H	-2.030	-1.735	-1.599	 H	1	UNK0	0.000	
54	   H	-0.576	-1.462	-0.629	 H	1	UNK0	0.000	
55	   H	-4.929	1.747	-0.046	 H	1	UNK0	0.000	
56	   H	-4.750	0.283	-1.047	 H	1	UNK0	0.000	
@<TRIPOS>BOND
1 1 2 1
2 2 3 2
3 2 7 1
4 3 4 1
5 4 5 2
6 5 6 1
7 5 8 1
8 6 7 2
9 8 9 1
10 8 13 1
11 9 10 2
12 9 11 1
13 11 12 1
14 11 15 1
15 12 13 1
16 13 14 2
17 15 16 1
18 15 20 1
19 16 17 1
20 17 18 1
21 18 19 1
22 18 21 1
23 18 27 1
24 19 20 1
25 21 22 1
26 21 26 1
27 22 23 1
28 23 24 1
29 24 25 1
30 25 26 1
31 27 28 2
32 27 29 1
33 3 30 1
34 4 31 1
35 6 32 1
36 7 33 1
37 11 34 1
38 12 35 1
39 12 36 1
40 16 37 1
41 16 38 1
42 17 39 1
43 17 40 1
44 19 41 1
45 19 42 1
46 20 43 1
47 20 44 1
48 22 45 1
49 22 46 1
50 23 47 1
51 23 48 1
52 24 49 1
53 24 50 1
54 25 51 1
55 25 52 1
56 26 53 1
57 26 54 1
58 29 55 1
59 29 56 1
@<TRIPOS>SUBSTRUCTURE
1	UNK0	1	GROUP	1 ****	UNK
# created with PyMOL 2.3.2
@<TRIPOS>MOLECULE
408
44 47 1                 
SMALL
USER_CHARGES
@<TRIPOS>ATOM
1	  Br	-1.729	-6.056	4.849	Br	1	UNK0	0.000	
2	   C	-1.649	-4.553	3.657	C.2	1	UNK0	0.000	
3	   C	-2.793	-3.884	3.278	C.2	1	UNK0	0.000	
4	   C	-2.738	-2.802	2.420	C.2	1	UNK0	0.000	
5	   C	-1.536	-2.346	1.906	C.2	1	UNK0	0.000	
6	   C	-0.403	-3.030	2.298	C.2	1	UNK0	0.000	
7	   C	-0.448	-4.108	3.152	C.2	1	UNK0	0.000	
8	   N	-1.504	-1.228	1.023	N.pl3	1	UNK0	0.000	
9	   C	-1.021	0.000	1.277	C.2	1	UNK0	0.000	
10	   O	-0.507	0.339	2.387	O.2	1	UNK0	0.000	
11	   C	-1.163	0.833	0.167	C.2	1	UNK0	0.000	
12	   C	-1.742	0.083	-0.766	C.2	1	UNK0	0.000	
13	   N	-1.869	0.904	-1.824	N.pl3	1	UNK0	0.000	
14	   N	-1.384	2.101	-1.538	N.pl3	1	UNK0	0.000	
15	   N	-0.943	2.067	-0.304	N.pl3	1	UNK0	0.000	
16	   C	-0.331	3.142	0.435	C.3	1	UNK0	0.000	
17	   C	1.160	3.161	0.263	C.2	1	UNK0	0.000	
18	   O	1.742	4.080	0.887	O.2	1	UNK0	0.000	
19	   N	1.838	2.230	-0.528	N.pl3	1	UNK0	0.000	
20	   C	3.217	2.156	-0.757	C.2	1	UNK0	0.000	
21	   C	3.674	1.125	-1.594	C.2	1	UNK0	0.000	
22	   C	5.018	1.015	-1.846	C.2	1	UNK0	0.000	
23	   C	5.953	1.877	-1.313	C.2	1	UNK0	0.000	
24	   C	5.517	2.880	-0.499	C.2	1	UNK0	0.000	
25	   C	4.168	3.000	-0.238	C.2	1	UNK0	0.000	
26	   C	2.740	0.160	-2.206	C.3	1	UNK0	0.000	
27	   C	-1.955	-1.180	-0.251	C.2	1	UNK0	0.000	
28	   O	-2.478	-2.155	-0.834	O.2	1	UNK0	0.000	
29	   H	-3.758	-4.208	3.658	 H	1	UNK0	0.000	
30	   H	-3.640	-2.266	2.115	 H	1	UNK0	0.000	
31	   H	0.545	-2.698	1.915	 H	1	UNK0	0.000	
32	   H	0.441	-4.656	3.469	 H	1	UNK0	0.000	
33	   H	-2.303	0.573	-2.723	 H	1	UNK0	0.000	
34	   H	-1.382	2.894	-2.220	 H	1	UNK0	0.000	
35	   H	-0.677	4.138	0.044	 H	1	UNK0	0.000	
36	   H	-0.609	3.014	1.504	 H	1	UNK0	0.000	
37	   H	1.202	1.503	-1.000	 H	1	UNK0	0.000	
38	   H	5.416	0.223	-2.496	 H	1	UNK0	0.000	
39	   H	7.022	1.778	-1.522	 H	1	UNK0	0.000	
40	   H	6.246	3.573	-0.066	 H	1	UNK0	0.000	
41	   H	3.883	3.804	0.406	 H	1	UNK0	0.000	
42	   H	3.308	-0.687	-2.637	 H	1	UNK0	0.000	
43	   H	2.076	-0.287	-1.425	 H	1	UNK0	0.000	
44	   H	2.124	0.587	-3.013	 H	1	UNK0	0.000	
@<TRIPOS>BOND
1 1 2 1
2 2 3 2
3 2 7 1
4 3 4 1
5 4 5 2
6 5 6 1
7 5 8 1
8 6 7 2
9 8 9 1
10 8 27 1
11 9 10 2
12 9 11 1
13 11 12 2
14 11 15 1
15 12 13 1
16 12 27 1
17 13 14 1
18 14 15 1
19 15 16 1
20 16 17 1
21 17 18 2
22 17 19 1
23 19 20 1
24 20 21 2
25 20 25 1
26 21 22 1
27 21 26 1
28 22 23 2
29 23 24 1
30 24 25 2
31 27 28 2
32 3 29 1
33 4 30 1
34 6 31 1
35 7 32 1
36 13 33 1
37 14 34 1
38 16 35 1
39 16 36 1
40 19 37 1
41 22 38 1
42 23 39 1
43 24 40 1
44 25 41 1
45 26 42 1
46 26 43 1
47 26 44 1
@<TRIPOS>SUBSTRUCTURE
1	UNK0	1	GROUP	1 ****	UNK
# created with PyMOL 2.3.2
@<TRIPOS>MOLECULE
411
49 52 1                 
SMALL
USER_CHARGES
@<TRIPOS>ATOM
1	  Br	-0.255	-7.235	-5.605	Br	1	UNK0	0.000	
2	   C	-0.332	-5.472	-4.861	C.2	1	UNK0	0.000	
3	   C	-0.675	-4.381	-5.635	C.2	1	UNK0	0.000	
4	   C	-0.730	-3.102	-5.089	C.2	1	UNK0	0.000	
5	   C	-0.443	-2.875	-3.759	C.2	1	UNK0	0.000	
6	   C	-0.101	-3.967	-2.992	C.2	1	UNK0	0.000	
7	   C	-0.047	-5.236	-3.531	C.2	1	UNK0	0.000	
8	   N	-0.489	-1.582	-3.167	N.pl3	1	UNK0	0.000	
9	   C	0.336	-1.010	-2.275	C.2	1	UNK0	0.000	
10	   O	1.344	-1.602	-1.811	O.2	1	UNK0	0.000	
11	   C	-0.078	0.274	-1.962	C.2	1	UNK0	0.000	
12	   C	-1.175	0.485	-2.678	C.2	1	UNK0	0.000	
13	   N	-1.576	1.729	-2.374	N.pl3	1	UNK0	0.000	
14	   N	-0.746	2.263	-1.496	N.pl3	1	UNK0	0.000	
15	   N	0.183	1.384	-1.230	N.pl3	1	UNK0	0.000	
16	   C	1.300	1.527	-0.327	C.3	1	UNK0	0.000	
17	   C	0.887	1.059	1.049	C.2	1	UNK0	0.000	
18	   O	1.062	-0.139	1.364	O.2	1	UNK0	0.000	
19	   N	0.315	1.962	1.957	N.pl3	1	UNK0	0.000	
20	   C	-0.107	1.660	3.267	C.2	1	UNK0	0.000	
21	   C	0.170	0.507	3.957	C.2	1	UNK0	0.000	
22	   C	-0.289	0.264	5.235	C.2	1	UNK0	0.000	
23	   C	-1.062	1.232	5.841	C.2	1	UNK0	0.000	
24	   C	-1.364	2.411	5.179	C.2	1	UNK0	0.000	
25	   C	-0.899	2.630	3.911	C.2	1	UNK0	0.000	
26	   O	-1.535	1.007	7.131	O.3	1	UNK0	0.000	
27	   C	-2.328	1.996	7.757	C.3	1	UNK0	0.000	
28	   O	0.009	-0.917	5.911	O.3	1	UNK0	0.000	
29	   C	0.817	-1.885	5.229	C.3	1	UNK0	0.000	
30	   C	-1.434	-0.649	-3.419	C.2	1	UNK0	0.000	
31	   O	-2.414	-0.798	-4.222	O.2	1	UNK0	0.000	
32	   H	-0.900	-4.569	-6.684	 H	1	UNK0	0.000	
33	   H	-0.998	-2.258	-5.700	 H	1	UNK0	0.000	
34	   H	0.123	-3.780	-1.944	 H	1	UNK0	0.000	
35	   H	0.228	-6.083	-2.897	 H	1	UNK0	0.000	
36	   H	-2.406	2.229	-2.750	 H	1	UNK0	0.000	
37	   H	-0.800	3.234	-1.066	 H	1	UNK0	0.000	
38	   H	1.640	2.584	-0.225	 H	1	UNK0	0.000	
39	   H	2.145	0.888	-0.627	 H	1	UNK0	0.000	
40	   H	0.196	2.972	1.619	 H	1	UNK0	0.000	
41	   H	0.781	-0.264	3.508	 H	1	UNK0	0.000	
42	   H	-1.979	3.155	5.688	 H	1	UNK0	0.000	
43	   H	-1.148	3.574	3.395	 H	1	UNK0	0.000	
44	   H	-3.169	2.212	7.056	 H	1	UNK0	0.000	
45	   H	-1.735	2.909	7.895	 H	1	UNK0	0.000	
46	   H	-2.729	1.586	8.713	 H	1	UNK0	0.000	
47	   H	1.847	-1.467	5.055	 H	1	UNK0	0.000	
48	   H	0.892	-2.818	5.822	 H	1	UNK0	0.000	
49	   H	0.375	-2.130	4.241	 H	1	UNK0	0.000	
@<TRIPOS>BOND
1 1 2 1
2 2 3 2
3 2 7 1
4 3 4 1
5 4 5 2
6 5 6 1
7 5 8 1
8 6 7 2
9 8 9 1
10 8 30 1
11 9 10 2
12 9 11 1
13 11 12 2
14 11 15 1
15 12 13 1
16 12 30 1
17 13 14 1
18 14 15 1
19 15 16 1
20 16 17 1
21 17 18 2
22 17 19 1
23 19 20 1
24 20 21 2
25 20 25 1
26 21 22 1
27 22 23 2
28 22 28 1
29 23 24 1
30 23 26 1
31 24 25 2
32 26 27 1
33 28 29 1
34 30 31 2
35 3 32 1
36 4 33 1
37 6 34 1
38 7 35 1
39 13 36 1
40 14 37 1
41 16 38 1
42 16 39 1
43 19 40 1
44 21 41 1
45 24 42 1
46 25 43 1
47 27 44 1
48 27 45 1
49 27 46 1
50 29 47 1
51 29 48 1
52 29 49 1
@<TRIPOS>SUBSTRUCTURE
1	UNK0	1	GROUP	1 ****	UNK
# created with PyMOL 2.3.2
@<TRIPOS>MOLECULE
412
49 52 1                 
SMALL
USER_CHARGES
@<TRIPOS>ATOM
1	  Br	-6.227	2.637	6.136	Br	1	UNK0	0.000	
2	   C	-4.673	1.798	5.362	C.2	1	UNK0	0.000	
3	   C	-3.408	2.098	5.807	C.2	1	UNK0	0.000	
4	   C	-2.278	1.488	5.240	C.2	1	UNK0	0.000	
5	   C	-2.414	0.574	4.224	C.2	1	UNK0	0.000	
6	   C	-3.693	0.289	3.796	C.2	1	UNK0	0.000	
7	   C	-4.806	0.882	4.344	C.2	1	UNK0	0.000	
8	   N	-1.267	-0.050	3.640	N.pl3	1	UNK0	0.000	
9	   C	-0.532	0.319	2.588	C.2	1	UNK0	0.000	
10	   O	-0.761	1.360	1.886	O.2	1	UNK0	0.000	
11	   C	0.510	-0.538	2.320	C.2	1	UNK0	0.000	
12	   C	0.404	-1.488	3.269	C.2	1	UNK0	0.000	
13	   N	1.423	-2.348	3.028	N.pl3	1	UNK0	0.000	
14	   N	2.121	-1.943	1.982	N.pl3	1	UNK0	0.000	
15	   N	1.565	-0.832	1.544	N.pl3	1	UNK0	0.000	
16	   C	2.031	-0.074	0.419	C.3	1	UNK0	0.000	
17	   C	1.439	-0.481	-0.853	C.2	1	UNK0	0.000	
18	   O	0.466	-1.287	-0.924	O.2	1	UNK0	0.000	
19	   N	1.987	0.048	-2.043	N.pl3	1	UNK0	0.000	
20	   C	1.425	-0.336	-3.287	C.2	1	UNK0	0.000	
21	   C	2.269	-0.953	-4.177	C.2	1	UNK0	0.000	
22	   C	1.799	-1.336	-5.439	C.2	1	UNK0	0.000	
23	   C	0.496	-1.092	-5.784	C.2	1	UNK0	0.000	
24	   C	-0.372	-0.466	-4.892	C.2	1	UNK0	0.000	
25	   C	0.124	-0.101	-3.650	C.2	1	UNK0	0.000	
26	   O	-1.668	-0.249	-5.310	O.3	1	UNK0	0.000	
27	   C	-2.694	0.359	-4.589	C.3	1	UNK0	0.000	
28	   O	2.728	-1.948	-6.246	O.3	1	UNK0	0.000	
29	   C	2.475	-2.410	-7.522	C.3	1	UNK0	0.000	
30	   C	-0.672	-1.203	4.077	C.2	1	UNK0	0.000	
31	   O	-1.097	-1.846	5.067	O.2	1	UNK0	0.000	
32	   H	-3.295	2.813	6.604	 H	1	UNK0	0.000	
33	   H	-1.293	1.744	5.605	 H	1	UNK0	0.000	
34	   H	-3.774	-0.439	2.987	 H	1	UNK0	0.000	
35	   H	-5.809	0.647	3.998	 H	1	UNK0	0.000	
36	   H	1.606	-3.204	3.602	 H	1	UNK0	0.000	
37	   H	2.961	-2.465	1.614	 H	1	UNK0	0.000	
38	   H	1.855	1.026	0.554	 H	1	UNK0	0.000	
39	   H	3.151	-0.148	0.301	 H	1	UNK0	0.000	
40	   H	2.811	0.724	-2.007	 H	1	UNK0	0.000	
41	   H	3.312	-1.146	-3.894	 H	1	UNK0	0.000	
42	   H	0.156	-1.398	-6.764	 H	1	UNK0	0.000	
43	   H	-0.549	0.383	-2.951	 H	1	UNK0	0.000	
44	   H	-3.675	-0.086	-4.875	 H	1	UNK0	0.000	
45	   H	-2.797	1.452	-4.859	 H	1	UNK0	0.000	
46	   H	-2.591	0.280	-3.491	 H	1	UNK0	0.000	
47	   H	3.355	-2.212	-8.180	 H	1	UNK0	0.000	
48	   H	1.597	-1.970	-7.989	 H	1	UNK0	0.000	
49	   H	2.392	-3.537	-7.465	 H	1	UNK0	0.000	
@<TRIPOS>BOND
1 1 2 1
2 2 3 2
3 2 7 1
4 3 4 1
5 4 5 2
6 5 6 1
7 5 8 1
8 6 7 2
9 8 9 1
10 8 30 1
11 9 10 2
12 9 11 1
13 11 12 2
14 11 15 1
15 12 13 1
16 12 30 1
17 13 14 1
18 14 15 1
19 15 16 1
20 16 17 1
21 17 18 2
22 17 19 1
23 19 20 1
24 20 21 2
25 20 25 1
26 21 22 1
27 22 23 2
28 22 28 1
29 23 24 1
30 24 25 2
31 24 26 1
32 26 27 1
33 28 29 1
34 30 31 2
35 3 32 1
36 4 33 1
37 6 34 1
38 7 35 1
39 13 36 1
40 14 37 1
41 16 38 1
42 16 39 1
43 19 40 1
44 21 41 1
45 23 42 1
46 25 43 1
47 27 44 1
48 27 45 1
49 27 46 1
50 29 47 1
51 29 48 1
52 29 49 1
@<TRIPOS>SUBSTRUCTURE
1	UNK0	1	GROUP	1 ****	UNK
# created with PyMOL 2.3.2
@<TRIPOS>MOLECULE
414
50 53 1                 
SMALL
USER_CHARGES
@<TRIPOS>ATOM
1	  Br	0.635	5.289	7.067	Br	1	UNK0	0.000	
2	   C	0.169	3.703	6.127	C.2	1	UNK0	0.000	
3	   C	0.839	3.268	5.003	C.2	1	UNK0	0.000	
4	   C	0.481	2.129	4.352	C.2	1	UNK0	0.000	
5	   C	-0.579	1.353	4.795	C.2	1	UNK0	0.000	
6	   C	-1.254	1.774	5.912	C.2	1	UNK0	0.000	
7	   C	-0.882	2.923	6.556	C.2	1	UNK0	0.000	
8	   N	-0.925	0.165	4.087	N.pl3	1	UNK0	0.000	
9	   C	-1.766	0.142	3.022	C.2	1	UNK0	0.000	
10	   O	-2.354	1.145	2.510	O.2	1	UNK0	0.000	
11	   C	-1.896	-1.157	2.562	C.2	1	UNK0	0.000	
12	   C	-1.129	-1.897	3.359	C.2	1	UNK0	0.000	
13	   N	-1.239	-3.177	2.929	N.pl3	1	UNK0	0.000	
14	   N	-2.065	-3.177	1.887	N.pl3	1	UNK0	0.000	
15	   N	-2.489	-1.954	1.633	N.pl3	1	UNK0	0.000	
16	   C	-3.398	-1.489	0.592	C.3	1	UNK0	0.000	
17	   C	-2.598	-1.132	-0.637	C.2	1	UNK0	0.000	
18	   O	-3.320	-0.721	-1.579	O.2	1	UNK0	0.000	
19	   N	-1.212	-1.277	-0.631	N.pl3	1	UNK0	0.000	
20	   C	-0.315	-0.991	-1.690	C.2	1	UNK0	0.000	
21	   C	-0.676	-0.510	-2.926	C.2	1	UNK0	0.000	
22	   C	0.274	-0.252	-3.924	C.2	1	UNK0	0.000	
23	   C	1.614	-0.469	-3.709	C.2	1	UNK0	0.000	
24	   C	1.986	-0.949	-2.477	C.2	1	UNK0	0.000	
25	   C	1.048	-1.203	-1.495	C.2	1	UNK0	0.000	
26	   C	2.567	-0.186	-4.777	C.2	1	UNK0	0.000	
27	   O	3.786	-0.393	-4.553	O.co2	1	UNK0	0.000	
28	   O	2.225	0.292	-6.011	O.3	1	UNK0	0.000	
29	   C	3.103	0.576	-7.062	C.3	1	UNK0	0.000	
30	   C	2.240	1.083	-8.226	C.3	1	UNK0	0.000	
31	   C	-0.527	-1.097	4.301	C.2	1	UNK0	0.000	
32	   O	0.257	-1.456	5.207	O.2	1	UNK0	0.000	
33	   H	1.668	3.875	4.657	 H	1	UNK0	0.000	
34	   H	1.042	1.816	3.457	 H	1	UNK0	0.000	
35	   H	-2.086	1.192	6.285	 H	1	UNK0	0.000	
36	   H	-1.413	3.271	7.451	 H	1	UNK0	0.000	
37	   H	-0.758	-3.999	3.347	 H	1	UNK0	0.000	
38	   H	-2.334	-4.023	1.355	 H	1	UNK0	0.000	
39	   H	-4.175	-2.241	0.361	 H	1	UNK0	0.000	
40	   H	-3.916	-0.597	1.003	 H	1	UNK0	0.000	
41	   H	-0.791	-1.646	0.280	 H	1	UNK0	0.000	
42	   H	-1.712	-0.332	-3.122	 H	1	UNK0	0.000	
43	   H	-0.052	0.130	-4.894	 H	1	UNK0	0.000	
44	   H	3.052	-1.117	-2.317	 H	1	UNK0	0.000	
45	   H	1.383	-1.587	-0.521	 H	1	UNK0	0.000	
46	   H	3.828	1.382	-6.837	 H	1	UNK0	0.000	
47	   H	3.680	-0.297	-7.421	 H	1	UNK0	0.000	
48	   H	1.862	2.111	-7.954	 H	1	UNK0	0.000	
49	   H	1.346	0.452	-8.364	 H	1	UNK0	0.000	
50	   H	2.792	1.115	-9.167	 H	1	UNK0	0.000	
@<TRIPOS>BOND
1 1 2 1
2 2 3 2
3 2 7 1
4 3 4 1
5 4 5 2
6 5 6 1
7 5 8 1
8 6 7 2
9 8 9 1
10 8 31 1
11 9 10 2
12 9 11 1
13 11 12 2
14 11 15 1
15 12 13 1
16 12 31 1
17 13 14 1
18 14 15 1
19 15 16 1
20 16 17 1
21 17 18 2
22 17 19 1
23 19 20 1
24 20 21 2
25 20 25 1
26 21 22 1
27 22 23 2
28 23 24 1
29 23 26 1
30 24 25 2
31 26 27 2
32 26 28 1
33 28 29 1
34 29 30 1
35 31 32 2
36 3 33 1
37 4 34 1
38 6 35 1
39 7 36 1
40 13 37 1
41 14 38 1
42 16 39 1
43 16 40 1
44 19 41 1
45 21 42 1
46 22 43 1
47 24 44 1
48 25 45 1
49 29 46 1
50 29 47 1
51 30 48 1
52 30 49 1
53 30 50 1
@<TRIPOS>SUBSTRUCTURE
1	UNK0	1	GROUP	1 ****	UNK
# created with PyMOL 2.3.2
@<TRIPOS>MOLECULE
416
48 51 1                 
SMALL
USER_CHARGES
@<TRIPOS>ATOM
1	  Br	2.258	-6.087	-4.971	Br	1	UNK0	0.000	
2	   C	1.126	-4.642	-4.449	C.2	1	UNK0	0.000	
3	   C	1.098	-3.446	-5.135	C.2	1	UNK0	0.000	
4	   C	0.267	-2.407	-4.744	C.2	1	UNK0	0.000	
5	   C	-0.572	-2.514	-3.654	C.2	1	UNK0	0.000	
6	   C	-0.546	-3.712	-2.963	C.2	1	UNK0	0.000	
7	   C	0.281	-4.746	-3.351	C.2	1	UNK0	0.000	
8	   N	-1.444	-1.473	-3.223	N.pl3	1	UNK0	0.000	
9	   C	-1.794	-1.152	-1.946	C.2	1	UNK0	0.000	
10	   O	-1.369	-1.759	-0.934	O.2	1	UNK0	0.000	
11	   C	-2.666	-0.085	-1.928	C.2	1	UNK0	0.000	
12	   C	-2.853	0.251	-3.196	C.2	1	UNK0	0.000	
13	   N	-3.704	1.293	-3.210	N.pl3	1	UNK0	0.000	
14	   N	-4.024	1.578	-1.956	N.pl3	1	UNK0	0.000	
15	   N	-3.402	0.748	-1.140	N.pl3	1	UNK0	0.000	
16	   C	-3.472	0.693	0.291	C.3	1	UNK0	0.000	
17	   C	-2.419	1.532	0.976	C.2	1	UNK0	0.000	
18	   O	-2.645	2.761	1.010	O.2	1	UNK0	0.000	
19	   N	-1.275	0.966	1.535	N.pl3	1	UNK0	0.000	
20	   C	-0.203	1.572	2.212	C.2	1	UNK0	0.000	
21	   C	0.770	0.784	2.827	C.2	1	UNK0	0.000	
22	   C	1.821	1.332	3.512	C.2	1	UNK0	0.000	
23	   C	1.948	2.718	3.616	C.2	1	UNK0	0.000	
24	   C	0.975	3.466	2.999	C.2	1	UNK0	0.000	
25	   C	-0.082	2.921	2.308	C.2	1	UNK0	0.000	
26	   O	3.017	3.226	4.317	O.3	1	UNK0	0.000	
27	   C	3.313	4.568	4.530	C.3	1	UNK0	0.000	
28	   C	3.547	5.353	3.285	C.3	1	UNK0	0.000	
29	   C	-2.108	-0.594	-3.987	C.2	1	UNK0	0.000	
30	   O	-2.033	-0.577	-5.256	O.2	1	UNK0	0.000	
31	   H	1.759	-3.360	-5.995	 H	1	UNK0	0.000	
32	   H	0.247	-1.473	-5.282	 H	1	UNK0	0.000	
33	   H	-1.206	-3.792	-2.106	 H	1	UNK0	0.000	
34	   H	0.282	-5.670	-2.796	 H	1	UNK0	0.000	
35	   H	-4.064	1.808	-4.032	 H	1	UNK0	0.000	
36	   H	-4.681	2.359	-1.664	 H	1	UNK0	0.000	
37	   H	-4.470	1.069	0.643	 H	1	UNK0	0.000	
38	   H	-3.322	-0.346	0.692	 H	1	UNK0	0.000	
39	   H	-1.196	-0.106	1.432	 H	1	UNK0	0.000	
40	   H	0.693	-0.286	2.761	 H	1	UNK0	0.000	
41	   H	2.570	0.683	3.985	 H	1	UNK0	0.000	
42	   H	1.031	4.540	3.053	 H	1	UNK0	0.000	
43	   H	-0.823	3.578	1.833	 H	1	UNK0	0.000	
44	   H	2.425	5.037	5.052	 H	1	UNK0	0.000	
45	   H	4.184	4.700	5.207	 H	1	UNK0	0.000	
46	   H	2.790	6.134	3.072	 H	1	UNK0	0.000	
47	   H	4.518	5.898	3.344	 H	1	UNK0	0.000	
48	   H	3.629	4.723	2.360	 H	1	UNK0	0.000	
@<TRIPOS>BOND
1 1 2 1
2 2 3 2
3 2 7 1
4 3 4 1
5 4 5 2
6 5 6 1
7 5 8 1
8 6 7 2
9 8 9 1
10 8 29 1
11 9 10 2
12 9 11 1
13 11 12 2
14 11 15 1
15 12 13 1
16 12 29 1
17 13 14 1
18 14 15 1
19 15 16 1
20 16 17 1
21 17 18 2
22 17 19 1
23 19 20 1
24 20 21 2
25 20 25 1
26 21 22 1
27 22 23 2
28 23 24 1
29 23 26 1
30 24 25 2
31 26 27 1
32 27 28 1
33 29 30 2
34 3 31 1
35 4 32 1
36 6 33 1
37 7 34 1
38 13 35 1
39 14 36 1
40 16 37 1
41 16 38 1
42 19 39 1
43 21 40 1
44 22 41 1
45 24 42 1
46 25 43 1
47 27 44 1
48 27 45 1
49 28 46 1
50 28 47 1
51 28 48 1
@<TRIPOS>SUBSTRUCTURE
1	UNK0	1	GROUP	1 ****	UNK
# created with PyMOL 2.3.2
@<TRIPOS>MOLECULE
421
36 39 1                 
SMALL
USER_CHARGES
@<TRIPOS>ATOM
1	  Br	-5.404	0.824	-5.803	Br	1	UNK0	0.000	
2	   C	-3.975	0.539	-4.561	C.2	1	UNK0	0.000	
3	   C	-4.199	0.002	-3.310	C.2	1	UNK0	0.000	
4	   C	-3.150	-0.199	-2.417	C.2	1	UNK0	0.000	
5	   C	-1.854	0.131	-2.754	C.2	1	UNK0	0.000	
6	   C	-1.645	0.667	-4.008	C.2	1	UNK0	0.000	
7	   C	-2.680	0.871	-4.901	C.2	1	UNK0	0.000	
8	   N	-0.752	-0.064	-1.858	N.pl3	1	UNK0	0.000	
9	   C	-0.787	0.072	-0.514	C.2	1	UNK0	0.000	
10	   O	-1.785	0.394	0.207	O.2	1	UNK0	0.000	
11	   C	0.453	-0.190	0.039	C.2	1	UNK0	0.000	
12	   C	1.239	-0.488	-0.998	C.2	1	UNK0	0.000	
13	   N	2.455	-0.746	-0.459	N.pl3	1	UNK0	0.000	
14	   N	2.373	-0.601	0.853	N.pl3	1	UNK0	0.000	
15	   N	1.142	-0.256	1.192	N.pl3	1	UNK0	0.000	
16	   C	0.654	-0.007	2.516	C.2	1	UNK0	0.000	
17	   C	-0.095	-0.951	3.188	C.2	1	UNK0	0.000	
18	   C	-0.581	-0.739	4.472	C.2	1	UNK0	0.000	
19	   C	-0.320	0.449	5.121	C.2	1	UNK0	0.000	
20	   C	0.428	1.394	4.452	C.2	1	UNK0	0.000	
21	   C	0.912	1.179	3.171	C.2	1	UNK0	0.000	
22	   N	-0.805	0.696	6.438	N.pl3	1	UNK0	0.000	
23	   O	-1.483	-0.141	7.063	O.2	1	UNK0	0.000	
24	   O	-0.523	1.882	7.038	O.2	1	UNK0	0.000	
25	   C	0.509	-0.413	-2.165	C.2	1	UNK0	0.000	
26	   O	0.900	-0.624	-3.340	O.2	1	UNK0	0.000	
27	   H	-5.225	-0.255	-3.055	 H	1	UNK0	0.000	
28	   H	-3.320	-0.614	-1.451	 H	1	UNK0	0.000	
29	   H	-0.625	0.933	-4.289	 H	1	UNK0	0.000	
30	   H	-2.499	1.297	-5.893	 H	1	UNK0	0.000	
31	   H	3.307	-1.015	-1.017	 H	1	UNK0	0.000	
32	   H	3.143	-0.729	1.560	 H	1	UNK0	0.000	
33	   H	-0.310	-1.886	2.699	 H	1	UNK0	0.000	
34	   H	-1.175	-1.501	4.991	 H	1	UNK0	0.000	
35	   H	0.623	2.318	4.976	 H	1	UNK0	0.000	
36	   H	1.497	1.926	2.656	 H	1	UNK0	0.000	
@<TRIPOS>BOND
1 1 2 1
2 2 3 2
3 2 7 1
4 3 4 1
5 4 5 2
6 5 6 1
7 5 8 1
8 6 7 2
9 8 9 1
10 8 25 1
11 9 10 2
12 9 11 1
13 11 12 2
14 11 15 1
15 12 13 1
16 12 25 1
17 13 14 1
18 14 15 1
19 15 16 1
20 16 17 2
21 16 21 1
22 17 18 1
23 18 19 2
24 19 20 1
25 19 22 1
26 20 21 2
27 22 23 2
28 22 24 1
29 25 26 2
30 3 27 1
31 4 28 1
32 6 29 1
33 7 30 1
34 13 31 1
35 14 32 1
36 17 33 1
37 18 34 1
38 20 35 1
39 21 36 1
@<TRIPOS>SUBSTRUCTURE
1	UNK0	1	GROUP	1 ****	UNK
# created with PyMOL 2.3.2
@<TRIPOS>MOLECULE
425
38 42 1                 
SMALL
USER_CHARGES
@<TRIPOS>ATOM
1	  Br	-7.367	-2.584	0.879	Br	1	UNK0	0.000	
2	   C	-5.496	-2.633	0.571	C.2	1	UNK0	0.000	
3	   C	-4.968	-1.952	-0.499	C.2	1	UNK0	0.000	
4	   C	-3.606	-2.004	-0.698	C.2	1	UNK0	0.000	
5	   C	-2.769	-2.713	0.135	C.2	1	UNK0	0.000	
6	   C	-3.301	-3.401	1.217	C.2	1	UNK0	0.000	
7	   C	-4.682	-3.345	1.416	C.2	1	UNK0	0.000	
8	   N	-1.353	-2.757	-0.082	N.pl3	1	UNK0	0.000	
9	   C	-0.414	-2.278	0.868	C.2	1	UNK0	0.000	
10	   O	-0.670	-2.099	2.083	O.2	1	UNK0	0.000	
11	   C	0.886	-2.035	0.187	C.3	1	UNK0	0.000	
12	   C	1.038	-0.611	-0.251	C.3	1	UNK0	0.000	
13	   O	1.830	-0.783	-1.408	O.3	1	UNK0	0.000	
14	   C	0.918	-1.604	-2.118	C.3	1	UNK0	0.000	
15	   C	0.751	-2.737	-1.165	C.3	1	UNK0	0.000	
16	   C	-0.643	-3.254	-1.216	C.2	1	UNK0	0.000	
17	   O	-1.089	-3.989	-2.101	O.2	1	UNK0	0.000	
18	   C	-0.291	-0.743	-2.043	C.2	1	UNK0	0.000	
19	   C	-0.237	-0.175	-0.842	C.2	1	UNK0	0.000	
20	   C	1.648	0.294	0.731	C.3	1	UNK0	0.000	
21	   O	0.899	0.477	1.861	O.3	1	UNK0	0.000	
22	   C	0.417	1.762	1.868	C.3	1	UNK0	0.000	
23	   C	0.934	2.414	0.628	C.3	1	UNK0	0.000	
24	   O	1.919	1.537	0.188	O.3	1	UNK0	0.000	
25	   H	-5.588	-1.375	-1.191	 H	1	UNK0	0.000	
26	   H	-3.151	-1.470	-1.546	 H	1	UNK0	0.000	
27	   H	-2.635	-3.950	1.860	 H	1	UNK0	0.000	
28	   H	-5.096	-3.881	2.258	 H	1	UNK0	0.000	
29	   H	1.713	-2.412	0.787	 H	1	UNK0	0.000	
30	   H	1.248	-1.850	-3.112	 H	1	UNK0	0.000	
31	   H	1.482	-3.539	-1.269	 H	1	UNK0	0.000	
32	   H	-1.014	-0.654	-2.843	 H	1	UNK0	0.000	
33	   H	-1.034	0.463	-0.474	 H	1	UNK0	0.000	
34	   H	2.637	-0.145	1.031	 H	1	UNK0	0.000	
35	   H	0.725	2.345	2.758	 H	1	UNK0	0.000	
36	   H	-0.700	1.707	1.793	 H	1	UNK0	0.000	
37	   H	1.376	3.426	0.864	 H	1	UNK0	0.000	
38	   H	0.159	2.520	-0.173	 H	1	UNK0	0.000	
@<TRIPOS>BOND
1 1 2 1
2 2 3 2
3 2 7 1
4 3 4 1
5 4 5 2
6 5 6 1
7 5 8 1
8 6 7 2
9 8 9 1
10 8 16 1
11 9 10 2
12 9 11 1
13 11 12 1
14 11 15 1
15 12 13 1
16 12 19 1
17 12 20 1
18 13 14 1
19 14 15 1
20 14 18 1
21 15 16 1
22 16 17 2
23 18 19 2
24 20 21 1
25 20 24 1
26 21 22 1
27 22 23 1
28 23 24 1
29 3 25 1
30 4 26 1
31 6 27 1
32 7 28 1
33 11 29 1
34 14 30 1
35 15 31 1
36 18 32 1
37 19 33 1
38 20 34 1
39 22 35 1
40 22 36 1
41 23 37 1
42 23 38 1
@<TRIPOS>SUBSTRUCTURE
1	UNK0	1	GROUP	1 ****	UNK
# created with PyMOL 2.3.2
@<TRIPOS>MOLECULE
426
41 44 1                 
SMALL
USER_CHARGES
@<TRIPOS>ATOM
1	  Br	6.990	0.310	5.595	Br	1	UNK0	0.000	
2	   C	5.905	-0.238	4.099	C.2	1	UNK0	0.000	
3	   C	4.586	0.134	4.047	C.2	1	UNK0	0.000	
4	   C	3.837	-0.262	2.986	C.2	1	UNK0	0.000	
5	   C	4.327	-1.036	1.927	C.2	1	UNK0	0.000	
6	   C	5.646	-1.394	2.002	C.2	1	UNK0	0.000	
7	   C	6.427	-1.002	3.073	C.2	1	UNK0	0.000	
8	   N	3.476	-1.403	0.861	N.pl3	1	UNK0	0.000	
9	   C	3.169	-2.723	0.372	C.2	1	UNK0	0.000	
10	   O	3.236	-3.798	1.033	O.2	1	UNK0	0.000	
11	   C	2.763	-2.572	-1.044	C.3	1	UNK0	0.000	
12	   N	1.745	-3.508	-1.479	N.pl3	1	UNK0	0.000	
13	   N	1.020	-2.645	-2.358	N.pl3	1	UNK0	0.000	
14	   C	0.921	-1.357	-1.750	C.2	1	UNK0	0.000	
15	   C	1.973	-1.287	-0.942	C.2	1	UNK0	0.000	
16	   C	2.724	-0.507	0.034	C.2	1	UNK0	0.000	
17	   O	2.656	0.753	0.066	O.2	1	UNK0	0.000	
18	   C	-0.096	-0.333	-1.962	C.2	1	UNK0	0.000	
19	   O	-0.067	0.762	-1.353	O.co2	1	UNK0	0.000	
20	   O	-1.150	-0.511	-2.846	O.3	1	UNK0	0.000	
21	   C	-2.137	0.492	-3.043	C.3	1	UNK0	0.000	
22	   C	-2.833	0.764	-1.741	C.2	1	UNK0	0.000	
23	   C	-2.974	-0.248	-0.793	C.2	1	UNK0	0.000	
24	   C	-3.597	-0.041	0.408	C.2	1	UNK0	0.000	
25	   C	-4.109	1.222	0.693	C.2	1	UNK0	0.000	
26	   C	-3.968	2.219	-0.247	C.2	1	UNK0	0.000	
27	   C	-3.329	1.997	-1.469	C.2	1	UNK0	0.000	
28	   H	4.170	0.738	4.854	 H	1	UNK0	0.000	
29	   H	2.797	0.030	2.941	 H	1	UNK0	0.000	
30	   H	6.099	-1.992	1.221	 H	1	UNK0	0.000	
31	   H	7.469	-1.280	3.140	 H	1	UNK0	0.000	
32	   H	3.597	-2.489	-1.743	 H	1	UNK0	0.000	
33	   H	1.108	-3.629	-0.642	 H	1	UNK0	0.000	
34	   H	0.626	-2.901	-3.284	 H	1	UNK0	0.000	
35	   H	-1.736	1.406	-3.480	 H	1	UNK0	0.000	
36	   H	-2.904	0.082	-3.728	 H	1	UNK0	0.000	
37	   H	-2.584	-1.220	-1.001	 H	1	UNK0	0.000	
38	   H	-3.711	-0.820	1.146	 H	1	UNK0	0.000	
39	   H	-4.612	1.421	1.638	 H	1	UNK0	0.000	
40	   H	-4.340	3.210	-0.085	 H	1	UNK0	0.000	
41	   H	-3.235	2.800	-2.182	 H	1	UNK0	0.000	
@<TRIPOS>BOND
1 1 2 1
2 2 3 2
3 2 7 1
4 3 4 1
5 4 5 2
6 5 6 1
7 5 8 1
8 6 7 2
9 8 9 1
10 8 16 1
11 9 10 2
12 9 11 1
13 11 12 1
14 11 15 1
15 12 13 1
16 13 14 1
17 14 15 2
18 14 18 1
19 15 16 1
20 16 17 2
21 18 19 2
22 18 20 1
23 20 21 1
24 21 22 1
25 22 23 2
26 22 27 1
27 23 24 1
28 24 25 2
29 25 26 1
30 26 27 2
31 3 28 1
32 4 29 1
33 6 30 1
34 7 31 1
35 11 32 1
36 12 33 1
37 13 34 1
38 21 35 1
39 21 36 1
40 23 37 1
41 24 38 1
42 25 39 1
43 26 40 1
44 27 41 1
@<TRIPOS>SUBSTRUCTURE
1	UNK0	1	GROUP	1 ****	UNK
# created with PyMOL 2.3.2
@<TRIPOS>MOLECULE
428
45 48 1                 
SMALL
USER_CHARGES
@<TRIPOS>ATOM
1	  Br	-0.570	-6.948	0.502	Br	1	UNK0	0.000	
2	   C	-0.906	-5.092	0.219	C.2	1	UNK0	0.000	
3	   C	0.059	-4.323	-0.374	C.2	1	UNK0	0.000	
4	   C	-0.179	-2.970	-0.583	C.2	1	UNK0	0.000	
5	   C	-1.363	-2.375	-0.210	C.2	1	UNK0	0.000	
6	   C	-2.320	-3.167	0.385	C.2	1	UNK0	0.000	
7	   C	-2.107	-4.518	0.604	C.2	1	UNK0	0.000	
8	   N	-1.519	-0.987	-0.465	N.pl3	1	UNK0	0.000	
9	   C	-2.642	-0.508	-1.228	C.2	1	UNK0	0.000	
10	   O	-3.489	-1.332	-1.671	O.2	1	UNK0	0.000	
11	   N	-2.730	0.883	-1.438	N.2	1	UNK0	0.000	
12	   C	-1.892	1.729	-1.002	C.2	1	UNK0	0.000	
13	   C	-0.680	1.424	-0.202	C.3	1	UNK0	0.000	
14	   C	0.498	2.011	-0.900	C.3	1	UNK0	0.000	
15	   N	1.603	2.389	-0.096	N.4	1	UNK0	0.000	
16	   C	1.573	1.947	1.242	C.2	1	UNK0	0.000	
17	   C	0.354	1.817	1.919	C.2	1	UNK0	0.000	
18	   C	0.345	1.387	3.216	C.2	1	UNK0	0.000	
19	   C	1.482	1.064	3.921	C.2	1	UNK0	0.000	
20	   C	2.680	1.193	3.250	C.2	1	UNK0	0.000	
21	   C	2.722	1.628	1.932	C.2	1	UNK0	0.000	
22	   C	1.432	0.599	5.327	C.3	1	UNK0	0.000	
23	   C	-0.848	2.175	1.122	C.3	1	UNK0	0.000	
24	   C	1.865	3.837	-0.152	C.3	1	UNK0	0.000	
25	   C	-0.580	-0.034	0.022	C.2	1	UNK0	0.000	
26	   O	0.391	-0.524	0.688	O.2	1	UNK0	0.000	
27	   O	-2.104	3.095	-1.287	O.2	1	UNK0	0.000	
28	   H	0.986	-4.800	-0.664	 H	1	UNK0	0.000	
29	   H	0.626	-2.418	-1.058	 H	1	UNK0	0.000	
30	   H	-3.265	-2.732	0.691	 H	1	UNK0	0.000	
31	   H	-2.836	-5.164	1.066	 H	1	UNK0	0.000	
32	   H	0.780	1.319	-1.728	 H	1	UNK0	0.000	
33	   H	0.136	2.942	-1.430	 H	1	UNK0	0.000	
34	   H	2.474	1.958	-0.529	 H	1	UNK0	0.000	
35	   H	-0.623	1.298	3.709	 H	1	UNK0	0.000	
36	   H	3.600	0.950	3.771	 H	1	UNK0	0.000	
37	   H	3.671	1.722	1.429	 H	1	UNK0	0.000	
38	   H	2.363	0.742	5.869	 H	1	UNK0	0.000	
39	   H	0.544	1.055	5.807	 H	1	UNK0	0.000	
40	   H	1.220	-0.508	5.274	 H	1	UNK0	0.000	
41	   H	-1.785	1.899	1.625	 H	1	UNK0	0.000	
42	   H	-0.785	3.249	0.870	 H	1	UNK0	0.000	
43	   H	1.319	4.379	0.639	 H	1	UNK0	0.000	
44	   H	1.621	4.201	-1.166	 H	1	UNK0	0.000	
45	   H	2.947	4.000	0.030	 H	1	UNK0	0.000	
@<TRIPOS>BOND
1 1 2 1
2 2 3 2
3 2 7 1
4 3 4 1
5 4 5 2
6 5 6 1
7 5 8 1
8 6 7 2
9 8 9 1
10 8 25 1
11 9 10 2
12 9 11 1
13 11 12 2
14 12 13 1
15 12 27 1
16 13 14 1
17 13 23 1
18 13 25 1
19 14 15 1
20 15 16 1
21 15 24 1
22 16 17 2
23 16 21 1
24 17 18 1
25 17 23 1
26 18 19 2
27 19 20 1
28 19 22 1
29 20 21 2
30 25 26 2
31 3 28 1
32 4 29 1
33 6 30 1
34 7 31 1
35 14 32 1
36 14 33 1
37 15 34 1
38 18 35 1
39 20 36 1
40 21 37 1
41 22 38 1
42 22 39 1
43 22 40 1
44 23 41 1
45 23 42 1
46 24 43 1
47 24 44 1
48 24 45 1
@<TRIPOS>SUBSTRUCTURE
1	UNK0	1	GROUP	1 ****	UNK
# created with PyMOL 2.3.2
@<TRIPOS>MOLECULE
429
50 53 1                 
SMALL
USER_CHARGES
@<TRIPOS>ATOM
1	  Br	-6.492	2.559	0.534	Br	1	UNK0	0.000	
2	   C	-4.614	2.565	0.163	C.2	1	UNK0	0.000	
3	   C	-4.137	2.201	-1.085	C.2	1	UNK0	0.000	
4	   C	-2.780	2.209	-1.344	C.2	1	UNK0	0.000	
5	   C	-1.855	2.573	-0.386	C.2	1	UNK0	0.000	
6	   C	-2.314	2.938	0.862	C.2	1	UNK0	0.000	
7	   C	-3.673	2.925	1.103	C.2	1	UNK0	0.000	
8	   N	-0.490	2.564	-0.694	N.pl3	1	UNK0	0.000	
9	   C	-0.030	3.198	-1.889	C.2	1	UNK0	0.000	
10	   O	-0.902	3.753	-2.631	O.2	1	UNK0	0.000	
11	   N	1.351	3.188	-2.203	N.pl3	1	UNK0	0.000	
12	   C	2.344	2.573	-1.388	C.2	1	UNK0	0.000	
13	   O	3.569	2.581	-1.694	O.2	1	UNK0	0.000	
14	   C	1.905	1.910	-0.147	C.2	1	UNK0	0.000	
15	   C	2.780	1.319	0.652	C.2	1	UNK0	0.000	
16	   N	2.326	0.688	1.841	N.pl3	1	UNK0	0.000	
17	   N	2.194	-0.679	2.022	N.pl3	1	UNK0	0.000	
18	   C	1.611	-1.567	1.076	C.2	1	UNK0	0.000	
19	   N	1.470	-2.886	1.243	N.pl3	1	UNK0	0.000	
20	   C	0.879	-3.415	0.159	C.2	1	UNK0	0.000	
21	   C	0.640	-2.374	-0.728	C.2	1	UNK0	0.000	
22	   N	1.102	-1.281	-0.123	N.2	1	UNK0	0.000	
23	   N	0.053	-2.583	-1.920	N.pl3	1	UNK0	0.000	
24	   C	-0.306	-3.823	-2.253	C.2	1	UNK0	0.000	
25	   O	-0.863	-4.063	-3.368	O.2	1	UNK0	0.000	
26	   N	-0.102	-4.888	-1.432	N.pl3	1	UNK0	0.000	
27	   C	0.490	-4.667	-0.235	C.2	1	UNK0	0.000	
28	   O	0.680	-5.642	0.521	O.2	1	UNK0	0.000	
29	   C	-0.510	-6.209	-1.837	C.3	1	UNK0	0.000	
30	   C	-0.160	-1.459	-2.783	C.3	1	UNK0	0.000	
31	   C	1.860	-3.722	2.384	C.3	1	UNK0	0.000	
32	   C	0.477	1.938	0.148	C.2	1	UNK0	0.000	
33	   O	0.055	1.385	1.196	O.2	1	UNK0	0.000	
34	   H	-4.880	1.921	-1.819	 H	1	UNK0	0.000	
35	   H	-2.493	1.906	-2.356	 H	1	UNK0	0.000	
36	   H	-1.627	3.239	1.668	 H	1	UNK0	0.000	
37	   H	-3.993	3.217	2.093	 H	1	UNK0	0.000	
38	   H	1.646	3.664	-3.087	 H	1	UNK0	0.000	
39	   H	3.825	1.298	0.434	 H	1	UNK0	0.000	
40	   H	2.078	1.341	2.633	 H	1	UNK0	0.000	
41	   H	2.570	-1.045	2.945	 H	1	UNK0	0.000	
42	   H	-1.132	-6.127	-2.752	 H	1	UNK0	0.000	
43	   H	-1.161	-6.688	-1.072	 H	1	UNK0	0.000	
44	   H	0.380	-6.838	-2.016	 H	1	UNK0	0.000	
45	   H	0.627	-1.353	-3.556	 H	1	UNK0	0.000	
46	   H	-1.164	-1.562	-3.245	 H	1	UNK0	0.000	
47	   H	-0.175	-0.518	-2.195	 H	1	UNK0	0.000	
48	   H	0.948	-3.850	3.035	 H	1	UNK0	0.000	
49	   H	2.168	-4.720	2.071	 H	1	UNK0	0.000	
50	   H	2.611	-3.184	2.994	 H	1	UNK0	0.000	
@<TRIPOS>BOND
1 1 2 1
2 2 3 2
3 2 7 1
4 3 4 1
5 4 5 2
6 5 6 1
7 5 8 1
8 6 7 2
9 8 9 1
10 8 32 1
11 9 10 2
12 9 11 1
13 11 12 1
14 12 13 2
15 12 14 1
16 14 15 2
17 14 32 1
18 15 16 1
19 16 17 1
20 17 18 1
21 18 19 1
22 18 22 2
23 19 20 1
24 19 31 1
25 20 21 2
26 20 27 1
27 21 22 1
28 21 23 1
29 23 24 1
30 23 30 1
31 24 25 2
32 24 26 1
33 26 27 1
34 26 29 1
35 27 28 2
36 32 33 2
37 3 34 1
38 4 35 1
39 6 36 1
40 7 37 1
41 11 38 1
42 15 39 1
43 16 40 1
44 17 41 1
45 29 42 1
46 29 43 1
47 29 44 1
48 30 45 1
49 30 46 1
50 30 47 1
51 31 48 1
52 31 49 1
53 31 50 1
@<TRIPOS>SUBSTRUCTURE
1	UNK0	1	GROUP	1 ****	UNK
# created with PyMOL 2.3.2
@<TRIPOS>MOLECULE
436
44 47 1                 
SMALL
USER_CHARGES
@<TRIPOS>ATOM
1	  Br	1.574	3.197	6.341	Br	1	UNK0	0.000	
2	   C	0.640	2.501	4.858	C.2	1	UNK0	0.000	
3	   C	1.242	2.310	3.632	C.2	1	UNK0	0.000	
4	   C	0.529	1.793	2.549	C.2	1	UNK0	0.000	
5	   C	-0.799	1.464	2.697	C.2	1	UNK0	0.000	
6	   C	-1.366	1.668	3.934	C.2	1	UNK0	0.000	
7	   C	-0.692	2.173	5.013	C.2	1	UNK0	0.000	
8	   N	-1.604	0.937	1.662	N.pl3	1	UNK0	0.000	
9	   C	-2.978	0.576	1.949	C.3	1	UNK0	0.000	
10	   C	-3.688	-0.034	0.763	C.3	1	UNK0	0.000	
11	   C	-2.717	-1.047	0.137	C.3	1	UNK0	0.000	
12	   N	-1.679	-0.247	-0.459	N.pl3	1	UNK0	0.000	
13	   C	-1.146	0.734	0.331	C.2	1	UNK0	0.000	
14	   N	-0.202	1.380	-0.373	N.2	1	UNK0	0.000	
15	   C	-0.159	0.790	-1.594	C.2	1	UNK0	0.000	
16	   C	-1.087	-0.238	-1.657	C.2	1	UNK0	0.000	
17	   C	-1.230	-0.989	-2.807	C.2	1	UNK0	0.000	
18	   O	-2.096	-1.927	-2.824	O.2	1	UNK0	0.000	
19	   N	-0.457	-0.716	-3.873	N.pl3	1	UNK0	0.000	
20	   C	0.435	0.286	-3.785	C.2	1	UNK0	0.000	
21	   O	1.139	0.508	-4.807	O.2	1	UNK0	0.000	
22	   N	0.590	1.024	-2.686	N.pl3	1	UNK0	0.000	
23	   C	1.566	2.102	-2.626	C.3	1	UNK0	0.000	
24	   C	-0.599	-1.501	-5.087	C.3	1	UNK0	0.000	
25	   C	0.334	-2.673	-5.009	C.2	1	UNK0	0.000	
26	   O	0.394	-3.503	-5.946	O.2	1	UNK0	0.000	
27	   N	1.168	-2.876	-3.886	N.pl3	1	UNK0	0.000	
28	   H	2.288	2.562	3.491	 H	1	UNK0	0.000	
29	   H	1.041	1.658	1.608	 H	1	UNK0	0.000	
30	   H	-2.425	1.420	4.104	 H	1	UNK0	0.000	
31	   H	-1.192	2.310	5.960	 H	1	UNK0	0.000	
32	   H	-2.984	-0.217	2.752	 H	1	UNK0	0.000	
33	   H	-3.553	1.436	2.364	 H	1	UNK0	0.000	
34	   H	-3.921	0.765	0.007	 H	1	UNK0	0.000	
35	   H	-4.581	-0.559	1.091	 H	1	UNK0	0.000	
36	   H	-3.217	-1.714	-0.566	 H	1	UNK0	0.000	
37	   H	-2.264	-1.586	1.016	 H	1	UNK0	0.000	
38	   H	1.365	2.773	-1.793	 H	1	UNK0	0.000	
39	   H	2.589	1.692	-2.663	 H	1	UNK0	0.000	
40	   H	1.428	2.678	-3.585	 H	1	UNK0	0.000	
41	   H	-0.372	-0.887	-5.972	 H	1	UNK0	0.000	
42	   H	-1.628	-1.885	-5.138	 H	1	UNK0	0.000	
43	   H	2.137	-3.260	-3.964	 H	1	UNK0	0.000	
44	   H	0.842	-2.645	-2.915	 H	1	UNK0	0.000	
@<TRIPOS>BOND
1 1 2 1
2 2 3 2
3 2 7 1
4 3 4 1
5 4 5 2
6 5 6 1
7 5 8 1
8 6 7 2
9 8 9 1
10 8 13 1
11 9 10 1
12 10 11 1
13 11 12 1
14 12 13 1
15 12 16 1
16 13 14 2
17 14 15 1
18 15 16 2
19 15 22 1
20 16 17 1
21 17 18 2
22 17 19 1
23 19 20 1
24 19 24 1
25 20 21 2
26 20 22 1
27 22 23 1
28 24 25 1
29 25 26 2
30 25 27 1
31 3 28 1
32 4 29 1
33 6 30 1
34 7 31 1
35 9 32 1
36 9 33 1
37 10 34 1
38 10 35 1
39 11 36 1
40 11 37 1
41 23 38 1
42 23 39 1
43 23 40 1
44 24 41 1
45 24 42 1
46 27 43 1
47 27 44 1
@<TRIPOS>SUBSTRUCTURE
1	UNK0	1	GROUP	1 ****	UNK
# created with PyMOL 2.3.2
@<TRIPOS>MOLECULE
439
47 51 1                 
SMALL
USER_CHARGES
@<TRIPOS>ATOM
1	  Br	1.805	-7.290	-1.262	Br	1	UNK0	0.000	
2	   C	1.733	-5.381	-1.484	C.2	1	UNK0	0.000	
3	   C	2.827	-4.593	-1.286	C.2	1	UNK0	0.000	
4	   C	2.735	-3.214	-1.457	C.2	1	UNK0	0.000	
5	   C	1.552	-2.608	-1.826	C.2	1	UNK0	0.000	
6	   C	0.467	-3.436	-2.017	C.2	1	UNK0	0.000	
7	   C	0.531	-4.801	-1.855	C.2	1	UNK0	0.000	
8	   N	1.494	-1.196	-1.992	N.pl3	1	UNK0	0.000	
9	   N	1.553	-0.506	-3.126	N.pl3	1	UNK0	0.000	
10	   C	1.464	0.814	-2.879	C.2	1	UNK0	0.000	
11	   C	1.490	1.786	-3.782	C.2	1	UNK0	0.000	
12	   C	1.342	0.998	-1.517	C.2	1	UNK0	0.000	
13	   C	1.226	2.142	-0.837	C.2	1	UNK0	0.000	
14	   N	1.112	2.066	0.579	N.pl3	1	UNK0	0.000	
15	   C	-0.043	2.548	1.280	C.3	1	UNK0	0.000	
16	   C	0.105	2.343	2.754	C.3	1	UNK0	0.000	
17	   N	-1.040	2.932	3.434	N.3	1	UNK0	0.000	
18	   C	-1.059	4.355	3.118	C.3	1	UNK0	0.000	
19	   N	-1.270	4.587	1.710	N.3	1	UNK0	0.000	
20	   C	-2.481	3.896	1.278	C.3	1	UNK0	0.000	
21	   N	-2.417	2.479	1.556	N.3	1	UNK0	0.000	
22	   C	-2.244	2.286	2.977	C.3	1	UNK0	0.000	
23	   C	-1.321	1.875	0.837	C.3	1	UNK0	0.000	
24	   C	-0.166	4.042	0.964	C.3	1	UNK0	0.000	
25	   C	1.365	-0.289	-1.001	C.2	1	UNK0	0.000	
26	   O	1.276	-0.553	0.220	O.2	1	UNK0	0.000	
27	   H	3.759	-5.046	-0.998	 H	1	UNK0	0.000	
28	   H	3.605	-2.594	-1.299	 H	1	UNK0	0.000	
29	   H	-0.466	-2.978	-2.306	 H	1	UNK0	0.000	
30	   H	-0.321	-5.460	-2.004	 H	1	UNK0	0.000	
31	   H	1.653	-0.927	-4.071	 H	1	UNK0	0.000	
32	   H	1.589	1.545	-4.831	 H	1	UNK0	0.000	
33	   H	1.415	2.825	-3.530	 H	1	UNK0	0.000	
34	   H	1.224	3.069	-1.382	 H	1	UNK0	0.000	
35	   H	1.894	1.648	1.104	 H	1	UNK0	0.000	
36	   H	1.053	2.768	3.099	 H	1	UNK0	0.000	
37	   H	0.118	1.245	2.941	 H	1	UNK0	0.000	
38	   H	-0.092	4.782	3.414	 H	1	UNK0	0.000	
39	   H	-1.909	4.827	3.664	 H	1	UNK0	0.000	
40	   H	-2.668	4.123	0.223	 H	1	UNK0	0.000	
41	   H	-3.309	4.336	1.872	 H	1	UNK0	0.000	
42	   H	-2.130	1.196	3.209	 H	1	UNK0	0.000	
43	   H	-3.093	2.711	3.538	 H	1	UNK0	0.000	
44	   H	-1.274	0.797	1.092	 H	1	UNK0	0.000	
45	   H	-1.489	1.976	-0.257	 H	1	UNK0	0.000	
46	   H	0.782	4.498	1.317	 H	1	UNK0	0.000	
47	   H	-0.318	4.139	-0.129	 H	1	UNK0	0.000	
@<TRIPOS>BOND
1 1 2 1
2 2 3 2
3 2 7 1
4 3 4 1
5 4 5 2
6 5 6 1
7 5 8 1
8 6 7 2
9 8 9 1
10 8 25 1
11 9 10 1
12 10 11 2
13 10 12 1
14 12 13 2
15 12 25 1
16 13 14 1
17 14 15 1
18 15 16 1
19 15 23 1
20 15 24 1
21 16 17 1
22 17 18 1
23 17 22 1
24 18 19 1
25 19 20 1
26 19 24 1
27 20 21 1
28 21 22 1
29 21 23 1
30 25 26 2
31 3 27 1
32 4 28 1
33 6 29 1
34 7 30 1
35 9 31 1
36 11 32 1
37 11 33 1
38 13 34 1
39 14 35 1
40 16 36 1
41 16 37 1
42 18 38 1
43 18 39 1
44 20 40 1
45 20 41 1
46 22 42 1
47 22 43 1
48 23 44 1
49 23 45 1
50 24 46 1
51 24 47 1
@<TRIPOS>SUBSTRUCTURE
1	UNK0	1	GROUP	1 ****	UNK
# created with PyMOL 2.3.2
@<TRIPOS>MOLECULE
441
49 52 1                 
SMALL
USER_CHARGES
@<TRIPOS>ATOM
1	  Br	0.576	3.223	9.508	Br	1	UNK0	0.000	
2	   C	0.405	2.566	7.712	C.2	1	UNK0	0.000	
3	   C	0.744	3.379	6.653	C.2	1	UNK0	0.000	
4	   C	0.619	2.900	5.346	C.2	1	UNK0	0.000	
5	   C	0.163	1.627	5.099	C.2	1	UNK0	0.000	
6	   C	-0.169	0.832	6.168	C.2	1	UNK0	0.000	
7	   C	-0.052	1.289	7.460	C.2	1	UNK0	0.000	
8	   O	0.044	1.164	3.807	O.3	1	UNK0	0.000	
9	   C	-0.423	-0.134	3.578	C.3	1	UNK0	0.000	
10	   C	-0.495	-0.482	2.147	C.2	1	UNK0	0.000	
11	   O	-0.156	0.350	1.287	O.2	1	UNK0	0.000	
12	   N	-0.947	-1.760	1.761	N.pl3	1	UNK0	0.000	
13	   C	-1.043	-2.164	0.397	C.2	1	UNK0	0.000	
14	   N	-0.703	-1.331	-0.604	N.2	1	UNK0	0.000	
15	   C	-0.801	-1.741	-1.858	C.2	1	UNK0	0.000	
16	   N	-0.526	-1.108	-3.006	N.pl3	1	UNK0	0.000	
17	   C	-0.806	-1.995	-3.988	C.2	1	UNK0	0.000	
18	   N	-1.242	-3.143	-3.461	N.2	1	UNK0	0.000	
19	   C	-1.258	-3.036	-2.131	C.2	1	UNK0	0.000	
20	   C	-1.609	-3.897	-1.108	C.2	1	UNK0	0.000	
21	   N	-1.490	-3.428	0.137	N.2	1	UNK0	0.000	
22	   O	-2.055	-5.169	-1.436	O.3	1	UNK0	0.000	
23	   C	-0.046	0.196	-3.260	C.3	1	UNK0	0.000	
24	   O	1.326	0.202	-3.544	O.3	1	UNK0	0.000	
25	   C	1.889	0.557	-2.321	C.3	1	UNK0	0.000	
26	   C	1.071	1.798	-1.996	C.3	1	UNK0	0.000	
27	   C	-0.324	1.236	-2.259	C.3	1	UNK0	0.000	
28	   O	-1.163	2.253	-2.767	O.3	1	UNK0	0.000	
29	   O	1.244	2.250	-0.718	O.3	1	UNK0	0.000	
30	   C	3.356	0.857	-2.428	C.3	1	UNK0	0.000	
31	   O	3.651	1.888	-3.278	O.3	1	UNK0	0.000	
32	   H	1.100	4.373	6.855	 H	1	UNK0	0.000	
33	   H	0.902	3.592	4.571	 H	1	UNK0	0.000	
34	   H	-0.539	-0.191	6.052	 H	1	UNK0	0.000	
35	   H	-0.308	0.680	8.320	 H	1	UNK0	0.000	
36	   H	-1.476	-0.183	3.970	 H	1	UNK0	0.000	
37	   H	0.132	-0.900	4.157	 H	1	UNK0	0.000	
38	   H	-1.236	-2.470	2.494	 H	1	UNK0	0.000	
39	   H	-0.703	-1.830	-5.070	 H	1	UNK0	0.000	
40	   H	-2.703	-5.221	-2.230	 H	1	UNK0	0.000	
41	   H	-0.508	0.546	-4.235	 H	1	UNK0	0.000	
42	   H	1.664	-0.173	-1.519	 H	1	UNK0	0.000	
43	   H	1.256	2.586	-2.756	 H	1	UNK0	0.000	
44	   H	-0.746	0.938	-1.315	 H	1	UNK0	0.000	
45	   H	-1.398	2.814	-1.986	 H	1	UNK0	0.000	
46	   H	2.157	2.039	-0.341	 H	1	UNK0	0.000	
47	   H	3.868	-0.096	-2.666	 H	1	UNK0	0.000	
48	   H	3.702	1.136	-1.401	 H	1	UNK0	0.000	
49	   H	3.651	2.734	-2.759	 H	1	UNK0	0.000	
@<TRIPOS>BOND
1 1 2 1
2 2 3 2
3 2 7 1
4 3 4 1
5 4 5 2
6 5 6 1
7 5 8 1
8 6 7 2
9 8 9 1
10 9 10 1
11 10 11 2
12 10 12 1
13 12 13 1
14 13 14 2
15 13 21 1
16 14 15 1
17 15 16 1
18 15 19 2
19 16 17 1
20 16 23 1
21 17 18 2
22 18 19 1
23 19 20 1
24 20 21 2
25 20 22 1
26 23 24 1
27 23 27 1
28 24 25 1
29 25 26 1
30 25 30 1
31 26 27 1
32 26 29 1
33 27 28 1
34 30 31 1
35 3 32 1
36 4 33 1
37 6 34 1
38 7 35 1
39 9 36 1
40 9 37 1
41 12 38 1
42 17 39 1
43 22 40 1
44 23 41 1
45 25 42 1
46 26 43 1
47 27 44 1
48 28 45 1
49 29 46 1
50 30 47 1
51 30 48 1
52 31 49 1
@<TRIPOS>SUBSTRUCTURE
1	UNK0	1	GROUP	1 ****	UNK
# created with PyMOL 2.3.2
@<TRIPOS>MOLECULE
444
56 59 1                 
SMALL
USER_CHARGES
@<TRIPOS>ATOM
1	  Br	1.882	-4.836	-2.117	Br	1	UNK0	0.000	
2	   C	0.863	-3.948	-0.782	C.2	1	UNK0	0.000	
3	   C	1.508	-3.141	0.116	C.2	1	UNK0	0.000	
4	   C	0.773	-2.495	1.086	C.2	1	UNK0	0.000	
5	   C	-0.597	-2.631	1.187	C.2	1	UNK0	0.000	
6	   C	-1.233	-3.472	0.246	C.2	1	UNK0	0.000	
7	   C	-0.506	-4.105	-0.706	C.2	1	UNK0	0.000	
8	   O	-1.346	-2.040	2.086	O.3	1	UNK0	0.000	
9	   C	-1.605	-1.265	3.118	C.3	1	UNK0	0.000	
10	   C	-1.244	0.177	2.951	C.3	1	UNK0	0.000	
11	   O	0.142	0.243	2.750	O.3	1	UNK0	0.000	
12	   C	-2.004	0.950	1.913	C.3	1	UNK0	0.000	
13	   N	-1.863	0.474	0.554	N.pl3	1	UNK0	0.000	
14	   C	-2.679	-0.408	-0.068	C.2	1	UNK0	0.000	
15	   C	-2.175	-0.653	-1.325	C.2	1	UNK0	0.000	
16	   N	-1.088	0.085	-1.414	N.2	1	UNK0	0.000	
17	   C	-0.857	0.804	-0.271	C.2	1	UNK0	0.000	
18	   N	0.224	1.745	-0.125	N.pl3	1	UNK0	0.000	
19	   C	1.360	1.482	-1.036	C.3	1	UNK0	0.000	
20	   C	2.339	2.581	-1.132	C.3	1	UNK0	0.000	
21	   N	2.522	3.298	0.105	N.3	1	UNK0	0.000	
22	   C	1.263	3.905	0.401	C.3	1	UNK0	0.000	
23	   C	0.205	2.860	0.754	C.3	1	UNK0	0.000	
24	   C	3.069	2.483	1.139	C.3	1	UNK0	0.000	
25	   N	-2.753	-1.499	-2.227	N.pl3	1	UNK0	0.000	
26	   C	-3.874	-2.119	-1.855	C.2	1	UNK0	0.000	
27	   O	-4.421	-2.905	-2.675	O.2	1	UNK0	0.000	
28	   N	-4.389	-1.899	-0.638	N.pl3	1	UNK0	0.000	
29	   C	-3.839	-1.067	0.277	C.2	1	UNK0	0.000	
30	   O	-4.339	-0.882	1.396	O.2	1	UNK0	0.000	
31	   C	-2.135	-1.701	-3.538	C.3	1	UNK0	0.000	
32	   H	2.588	-3.009	0.060	 H	1	UNK0	0.000	
33	   H	1.332	-1.884	1.770	 H	1	UNK0	0.000	
34	   H	-2.302	-3.586	0.317	 H	1	UNK0	0.000	
35	   H	-1.025	-4.748	-1.429	 H	1	UNK0	0.000	
36	   H	-2.711	-1.317	3.470	 H	1	UNK0	0.000	
37	   H	-1.038	-1.586	4.081	 H	1	UNK0	0.000	
38	   H	-1.498	0.698	3.931	 H	1	UNK0	0.000	
39	   H	0.606	0.067	3.631	 H	1	UNK0	0.000	
40	   H	-1.889	2.041	2.031	 H	1	UNK0	0.000	
41	   H	-3.095	0.797	2.209	 H	1	UNK0	0.000	
42	   H	1.803	0.494	-0.769	 H	1	UNK0	0.000	
43	   H	0.916	1.323	-2.062	 H	1	UNK0	0.000	
44	   H	3.276	2.184	-1.542	 H	1	UNK0	0.000	
45	   H	1.948	3.349	-1.863	 H	1	UNK0	0.000	
46	   H	1.374	4.593	1.278	 H	1	UNK0	0.000	
47	   H	0.941	4.512	-0.444	 H	1	UNK0	0.000	
48	   H	-0.761	3.416	0.535	 H	1	UNK0	0.000	
49	   H	0.366	2.673	1.820	 H	1	UNK0	0.000	
50	   H	4.153	2.761	1.276	 H	1	UNK0	0.000	
51	   H	2.565	2.561	2.118	 H	1	UNK0	0.000	
52	   H	3.099	1.390	0.893	 H	1	UNK0	0.000	
53	   H	-5.265	-2.401	-0.384	 H	1	UNK0	0.000	
54	   H	-2.480	-2.622	-4.014	 H	1	UNK0	0.000	
55	   H	-1.046	-1.832	-3.356	 H	1	UNK0	0.000	
56	   H	-2.333	-0.843	-4.201	 H	1	UNK0	0.000	
@<TRIPOS>BOND
1 1 2 1
2 2 3 2
3 2 7 1
4 3 4 1
5 4 5 2
6 5 6 1
7 5 8 1
8 6 7 2
9 8 9 1
10 9 10 1
11 10 11 1
12 10 12 1
13 12 13 1
14 13 14 1
15 13 17 1
16 14 15 2
17 14 29 1
18 15 16 1
19 15 25 1
20 16 17 2
21 17 18 1
22 18 19 1
23 18 23 1
24 19 20 1
25 20 21 1
26 21 22 1
27 21 24 1
28 22 23 1
29 25 26 1
30 25 31 1
31 26 27 2
32 26 28 1
33 28 29 1
34 29 30 2
35 3 32 1
36 4 33 1
37 6 34 1
38 7 35 1
39 9 36 1
40 9 37 1
41 10 38 1
42 11 39 1
43 12 40 1
44 12 41 1
45 19 42 1
46 19 43 1
47 20 44 1
48 20 45 1
49 22 46 1
50 22 47 1
51 23 48 1
52 23 49 1
53 24 50 1
54 24 51 1
55 24 52 1
56 28 53 1
57 31 54 1
58 31 55 1
59 31 56 1
@<TRIPOS>SUBSTRUCTURE
1	UNK0	1	GROUP	1 ****	UNK
# created with PyMOL 2.3.2
@<TRIPOS>MOLECULE
454
39 43 1                 
SMALL
USER_CHARGES
@<TRIPOS>ATOM
1	  Br	-2.836	-1.502	-1.033	Br	1	UNK0	0.000	
2	   C	-1.242	-0.797	-1.822	C.2	1	UNK0	0.000	
3	   C	-1.214	-0.470	-3.165	C.2	1	UNK0	0.000	
4	   C	-0.070	0.034	-3.750	C.2	1	UNK0	0.000	
5	   C	1.111	0.243	-3.078	C.2	1	UNK0	0.000	
6	   C	1.077	-0.084	-1.750	C.2	1	UNK0	0.000	
7	   C	-0.051	-0.595	-1.104	C.2	1	UNK0	0.000	
8	   C	-0.006	-1.071	0.279	C.3	1	UNK0	0.000	
9	   N	-0.092	-0.163	1.345	N.4	1	UNK0	0.000	
10	   C	-0.815	-1.000	2.369	C.3	1	UNK0	0.000	
11	   N	-1.323	-0.282	3.460	N.3	1	UNK0	0.000	
12	   C	-2.197	0.750	2.930	C.3	1	UNK0	0.000	
13	   N	-1.375	1.653	2.163	N.3	1	UNK0	0.000	
14	   C	-0.868	1.023	0.987	C.3	1	UNK0	0.000	
15	   C	-0.242	2.202	2.917	C.3	1	UNK0	0.000	
16	   N	0.616	1.082	3.268	N.3	1	UNK0	0.000	
17	   C	1.039	0.329	2.068	C.3	1	UNK0	0.000	
18	   C	-0.158	0.261	4.168	C.3	1	UNK0	0.000	
19	   O	1.987	0.737	-4.031	O.3	1	UNK0	0.000	
20	   C	1.567	0.222	-5.325	C.3	1	UNK0	0.000	
21	   O	0.137	0.419	-5.110	O.3	1	UNK0	0.000	
22	   H	-2.130	-0.659	-3.671	 H	1	UNK0	0.000	
23	   H	2.030	0.079	-1.167	 H	1	UNK0	0.000	
24	   H	1.042	-1.563	0.412	 H	1	UNK0	0.000	
25	   H	-0.676	-1.967	0.317	 H	1	UNK0	0.000	
26	   H	0.023	-1.681	2.712	 H	1	UNK0	0.000	
27	   H	-1.555	-1.639	1.901	 H	1	UNK0	0.000	
28	   H	-2.815	1.263	3.673	 H	1	UNK0	0.000	
29	   H	-2.847	0.211	2.178	 H	1	UNK0	0.000	
30	   H	-1.675	0.866	0.301	 H	1	UNK0	0.000	
31	   H	-0.073	1.726	0.583	 H	1	UNK0	0.000	
32	   H	0.217	2.967	2.306	 H	1	UNK0	0.000	
33	   H	-0.672	2.570	3.868	 H	1	UNK0	0.000	
34	   H	1.756	-0.447	2.432	 H	1	UNK0	0.000	
35	   H	1.590	1.074	1.429	 H	1	UNK0	0.000	
36	   H	0.385	-0.570	4.589	 H	1	UNK0	0.000	
37	   H	-0.575	0.962	4.925	 H	1	UNK0	0.000	
38	   H	1.629	-0.904	-5.364	 H	1	UNK0	0.000	
39	   H	1.957	0.764	-6.156	 H	1	UNK0	0.000	
@<TRIPOS>BOND
1 1 2 1
2 2 3 2
3 2 7 1
4 3 4 1
5 4 5 2
6 4 21 1
7 5 6 1
8 5 19 1
9 6 7 2
10 7 8 1
11 8 9 1
12 9 10 1
13 9 14 1
14 9 17 1
15 10 11 1
16 11 12 1
17 11 18 1
18 12 13 1
19 13 14 1
20 13 15 1
21 15 16 1
22 16 17 1
23 16 18 1
24 19 20 1
25 20 21 1
26 3 22 1
27 6 23 1
28 8 24 1
29 8 25 1
30 10 26 1
31 10 27 1
32 12 28 1
33 12 29 1
34 14 30 1
35 14 31 1
36 15 32 1
37 15 33 1
38 17 34 1
39 17 35 1
40 18 36 1
41 18 37 1
42 20 38 1
43 20 39 1
@<TRIPOS>SUBSTRUCTURE
1	UNK0	1	GROUP	1 ****	UNK
# created with PyMOL 2.3.2
@<TRIPOS>MOLECULE
455
49 52 1                 
SMALL
USER_CHARGES
@<TRIPOS>ATOM
1	  Br	-3.417	4.430	0.300	Br	1	UNK0	0.000	
2	   C	-1.784	3.971	-0.578	C.2	1	UNK0	0.000	
3	   C	-0.890	4.951	-0.944	C.2	1	UNK0	0.000	
4	   C	0.288	4.637	-1.575	C.2	1	UNK0	0.000	
5	   C	0.547	3.320	-1.829	C.2	1	UNK0	0.000	
6	   C	-0.361	2.330	-1.457	C.2	1	UNK0	0.000	
7	   C	-1.551	2.619	-0.822	C.2	1	UNK0	0.000	
8	   C	-2.524	1.583	-0.394	C.3	1	UNK0	0.000	
9	   N	-2.072	0.266	-0.798	N.3	1	UNK0	0.000	
10	   C	-2.984	-0.762	-0.232	C.3	1	UNK0	0.000	
11	   C	-2.265	-2.071	-0.541	C.3	1	UNK0	0.000	
12	   N	-1.182	-1.933	-1.444	N.3	1	UNK0	0.000	
13	   C	-1.521	-1.175	-2.620	C.3	1	UNK0	0.000	
14	   C	-2.252	0.079	-2.239	C.3	1	UNK0	0.000	
15	   C	0.106	-1.702	-0.909	C.3	1	UNK0	0.000	
16	   C	0.704	-2.797	-0.168	C.2	1	UNK0	0.000	
17	   O	0.099	-3.879	-0.015	O.2	1	UNK0	0.000	
18	   N	1.992	-2.672	0.402	N.pl3	1	UNK0	0.000	
19	   C	2.624	-3.750	1.153	C.3	1	UNK0	0.000	
20	   C	3.625	-3.453	2.190	C.3	1	UNK0	0.000	
21	   C	4.109	-3.946	0.860	C.3	1	UNK0	0.000	
22	   O	1.731	2.982	-2.465	O.3	1	UNK0	0.000	
23	   C	2.565	3.915	-3.102	C.3	1	UNK0	0.000	
24	   C	2.490	5.255	-2.443	C.3	1	UNK0	0.000	
25	   O	1.216	5.596	-1.959	O.3	1	UNK0	0.000	
26	   H	-1.077	6.009	-0.750	 H	1	UNK0	0.000	
27	   H	-0.073	1.334	-1.683	 H	1	UNK0	0.000	
28	   H	-3.542	1.779	-0.750	 H	1	UNK0	0.000	
29	   H	-2.541	1.592	0.724	 H	1	UNK0	0.000	
30	   H	-3.169	-0.607	0.828	 H	1	UNK0	0.000	
31	   H	-3.931	-0.671	-0.802	 H	1	UNK0	0.000	
32	   H	-3.040	-2.727	-1.039	 H	1	UNK0	0.000	
33	   H	-2.006	-2.615	0.389	 H	1	UNK0	0.000	
34	   H	-2.113	-1.814	-3.320	 H	1	UNK0	0.000	
35	   H	-0.585	-0.938	-3.206	 H	1	UNK0	0.000	
36	   H	-2.058	0.957	-2.843	 H	1	UNK0	0.000	
37	   H	-3.351	-0.149	-2.420	 H	1	UNK0	0.000	
38	   H	0.810	-1.369	-1.708	 H	1	UNK0	0.000	
39	   H	0.049	-0.814	-0.216	 H	1	UNK0	0.000	
40	   H	2.570	-1.787	0.314	 H	1	UNK0	0.000	
41	   H	1.992	-4.637	1.248	 H	1	UNK0	0.000	
42	   H	3.931	-2.412	2.451	 H	1	UNK0	0.000	
43	   H	3.733	-4.162	3.035	 H	1	UNK0	0.000	
44	   H	4.592	-3.206	0.194	 H	1	UNK0	0.000	
45	   H	4.388	-5.013	0.750	 H	1	UNK0	0.000	
46	   H	2.315	3.934	-4.175	 H	1	UNK0	0.000	
47	   H	3.619	3.541	-2.964	 H	1	UNK0	0.000	
48	   H	3.220	5.283	-1.586	 H	1	UNK0	0.000	
49	   H	2.757	6.023	-3.206	 H	1	UNK0	0.000	
@<TRIPOS>BOND
1 1 2 1
2 2 3 2
3 2 7 1
4 3 4 1
5 4 5 2
6 4 25 1
7 5 6 1
8 5 22 1
9 6 7 2
10 7 8 1
11 8 9 1
12 9 10 1
13 9 14 1
14 10 11 1
15 11 12 1
16 12 13 1
17 12 15 1
18 13 14 1
19 15 16 1
20 16 17 2
21 16 18 1
22 18 19 1
23 19 20 1
24 19 21 1
25 20 21 1
26 22 23 1
27 23 24 1
28 24 25 1
29 3 26 1
30 6 27 1
31 8 28 1
32 8 29 1
33 10 30 1
34 10 31 1
35 11 32 1
36 11 33 1
37 13 34 1
38 13 35 1
39 14 36 1
40 14 37 1
41 15 38 1
42 15 39 1
43 18 40 1
44 19 41 1
45 20 42 1
46 20 43 1
47 21 44 1
48 21 45 1
49 23 46 1
50 23 47 1
51 24 48 1
52 24 49 1
@<TRIPOS>SUBSTRUCTURE
1	UNK0	1	GROUP	1 ****	UNK
# created with PyMOL 2.3.2
@<TRIPOS>MOLECULE
459
41 44 1                 
SMALL
USER_CHARGES
@<TRIPOS>ATOM
1	  Br	-3.297	5.754	-1.709	Br	1	UNK0	0.000	
2	   C	-1.540	5.119	-1.287	C.2	1	UNK0	0.000	
3	   C	-0.462	5.397	-2.090	C.2	1	UNK0	0.000	
4	   C	0.797	4.931	-1.770	C.2	1	UNK0	0.000	
5	   C	0.963	4.178	-0.627	C.2	1	UNK0	0.000	
6	   C	-0.137	3.901	0.183	C.2	1	UNK0	0.000	
7	   C	-1.400	4.356	-0.120	C.2	1	UNK0	0.000	
8	   C	-2.563	4.103	0.748	C.3	1	UNK0	0.000	
9	   O	-2.292	3.279	1.842	O.3	1	UNK0	0.000	
10	   C	-1.914	1.952	1.736	C.2	1	UNK0	0.000	
11	   C	-1.635	1.198	2.884	C.2	1	UNK0	0.000	
12	   C	-1.259	-0.125	2.836	C.2	1	UNK0	0.000	
13	   C	-1.141	-0.775	1.627	C.2	1	UNK0	0.000	
14	   C	-1.413	-0.049	0.487	C.2	1	UNK0	0.000	
15	   C	-1.794	1.293	0.533	C.2	1	UNK0	0.000	
16	   C	-0.742	-2.183	1.560	C.2	1	UNK0	0.000	
17	   N	-0.580	-2.961	0.477	N.2	1	UNK0	0.000	
18	   N	-0.208	-4.181	0.878	N.pl3	1	UNK0	0.000	
19	   N	-0.135	-4.182	2.201	N.2	1	UNK0	0.000	
20	   N	-0.460	-2.968	2.612	N.2	1	UNK0	0.000	
21	   C	0.079	-5.343	0.063	C.3	1	UNK0	0.000	
22	   C	1.513	-5.372	-0.299	C.2	1	UNK0	0.000	
23	   O	1.951	-6.299	-0.999	O.2	1	UNK0	0.000	
24	   N	2.362	-4.342	0.160	N.pl3	1	UNK0	0.000	
25	   O	2.302	3.849	-0.553	O.3	1	UNK0	0.000	
26	   C	3.054	4.629	-1.466	C.3	1	UNK0	0.000	
27	   O	2.053	5.044	-2.370	O.3	1	UNK0	0.000	
28	   H	-0.582	5.998	-3.005	 H	1	UNK0	0.000	
29	   H	0.071	3.317	1.074	 H	1	UNK0	0.000	
30	   H	-3.068	5.039	1.068	 H	1	UNK0	0.000	
31	   H	-3.313	3.568	0.116	 H	1	UNK0	0.000	
32	   H	-1.738	1.743	3.822	 H	1	UNK0	0.000	
33	   H	-1.051	-0.679	3.741	 H	1	UNK0	0.000	
34	   H	-1.319	-0.562	-0.454	 H	1	UNK0	0.000	
35	   H	-2.004	1.818	-0.396	 H	1	UNK0	0.000	
36	   H	-0.177	-6.257	0.635	 H	1	UNK0	0.000	
37	   H	-0.571	-5.293	-0.835	 H	1	UNK0	0.000	
38	   H	2.198	-3.830	1.071	 H	1	UNK0	0.000	
39	   H	3.190	-4.059	-0.406	 H	1	UNK0	0.000	
40	   H	3.497	5.475	-0.907	 H	1	UNK0	0.000	
41	   H	3.842	4.014	-1.931	 H	1	UNK0	0.000	
@<TRIPOS>BOND
1 1 2 1
2 2 3 2
3 2 7 1
4 3 4 1
5 4 5 2
6 4 27 1
7 5 6 1
8 5 25 1
9 6 7 2
10 7 8 1
11 8 9 1
12 9 10 1
13 10 11 2
14 10 15 1
15 11 12 1
16 12 13 2
17 13 14 1
18 13 16 1
19 14 15 2
20 16 17 2
21 16 20 1
22 17 18 1
23 18 19 1
24 18 21 1
25 19 20 2
26 21 22 1
27 22 23 2
28 22 24 1
29 25 26 1
30 26 27 1
31 3 28 1
32 6 29 1
33 8 30 1
34 8 31 1
35 11 32 1
36 12 33 1
37 14 34 1
38 15 35 1
39 21 36 1
40 21 37 1
41 24 38 1
42 24 39 1
43 26 40 1
44 26 41 1
@<TRIPOS>SUBSTRUCTURE
1	UNK0	1	GROUP	1 ****	UNK
# created with PyMOL 2.3.2
@<TRIPOS>MOLECULE
467
44 47 1                 
SMALL
USER_CHARGES
@<TRIPOS>ATOM
1	  Br	-2.689	-2.433	0.385	Br	1	UNK0	0.000	
2	   C	-2.189	-3.025	-1.344	C.2	1	UNK0	0.000	
3	   C	-2.524	-4.298	-1.766	C.2	1	UNK0	0.000	
4	   C	-2.176	-4.778	-3.030	C.2	1	UNK0	0.000	
5	   C	-1.469	-3.925	-3.874	C.2	1	UNK0	0.000	
6	   C	-1.146	-2.659	-3.431	C.2	1	UNK0	0.000	
7	   C	-1.490	-2.174	-2.171	C.2	1	UNK0	0.000	
8	   C	-1.119	-0.836	-1.758	C.2	1	UNK0	0.000	
9	   N	-0.475	-0.058	-2.519	N.2	1	UNK0	0.000	
10	   N	-0.052	1.232	-2.267	N.pl3	1	UNK0	0.000	
11	   C	0.164	1.723	-0.961	C.2	1	UNK0	0.000	
12	   N	1.291	1.322	-0.350	N.2	1	UNK0	0.000	
13	   C	1.641	1.741	0.896	C.2	1	UNK0	0.000	
14	   N	0.793	2.582	1.486	N.2	1	UNK0	0.000	
15	   C	-0.338	3.017	0.936	C.2	1	UNK0	0.000	
16	   N	-0.643	2.565	-0.317	N.2	1	UNK0	0.000	
17	   O	-1.199	3.892	1.576	O.3	1	UNK0	0.000	
18	   C	-2.379	4.321	0.951	C.3	1	UNK0	0.000	
19	   N	2.826	1.267	1.463	N.pl3	1	UNK0	0.000	
20	   C	3.514	0.121	0.918	C.3	1	UNK0	0.000	
21	   C	4.939	0.048	1.425	C.3	1	UNK0	0.000	
22	   O	5.551	1.239	1.640	O.3	1	UNK0	0.000	
23	   C	4.833	2.273	2.155	C.3	1	UNK0	0.000	
24	   C	3.420	1.914	2.605	C.3	1	UNK0	0.000	
25	   O	-1.250	-4.623	-5.040	O.3	1	UNK0	0.000	
26	   C	-1.641	-5.975	-4.904	C.3	1	UNK0	0.000	
27	   O	-2.369	-5.973	-3.704	O.3	1	UNK0	0.000	
28	   H	-3.082	-4.966	-1.095	 H	1	UNK0	0.000	
29	   H	-0.587	-2.026	-4.139	 H	1	UNK0	0.000	
30	   H	-1.393	-0.491	-0.780	 H	1	UNK0	0.000	
31	   H	0.114	1.870	-3.075	 H	1	UNK0	0.000	
32	   H	-2.214	5.383	0.625	 H	1	UNK0	0.000	
33	   H	-3.242	4.364	1.663	 H	1	UNK0	0.000	
34	   H	-2.671	3.651	0.116	 H	1	UNK0	0.000	
35	   H	3.472	0.026	-0.174	 H	1	UNK0	0.000	
36	   H	2.994	-0.797	1.335	 H	1	UNK0	0.000	
37	   H	5.033	-0.601	2.343	 H	1	UNK0	0.000	
38	   H	5.521	-0.508	0.631	 H	1	UNK0	0.000	
39	   H	5.383	2.845	2.940	 H	1	UNK0	0.000	
40	   H	4.672	3.010	1.312	 H	1	UNK0	0.000	
41	   H	3.499	1.123	3.394	 H	1	UNK0	0.000	
42	   H	2.923	2.816	2.950	 H	1	UNK0	0.000	
43	   H	-0.788	-6.684	-4.903	 H	1	UNK0	0.000	
44	   H	-2.338	-6.183	-5.751	 H	1	UNK0	0.000	
@<TRIPOS>BOND
1 1 2 1
2 2 3 2
3 2 7 1
4 3 4 1
5 4 5 2
6 4 27 1
7 5 6 1
8 5 25 1
9 6 7 2
10 7 8 1
11 8 9 2
12 9 10 1
13 10 11 1
14 11 12 2
15 11 16 1
16 12 13 1
17 13 14 2
18 13 19 1
19 14 15 1
20 15 16 2
21 15 17 1
22 17 18 1
23 19 20 1
24 19 24 1
25 20 21 1
26 21 22 1
27 22 23 1
28 23 24 1
29 25 26 1
30 26 27 1
31 3 28 1
32 6 29 1
33 8 30 1
34 10 31 1
35 18 32 1
36 18 33 1
37 18 34 1
38 20 35 1
39 20 36 1
40 21 37 1
41 21 38 1
42 23 39 1
43 23 40 1
44 24 41 1
45 24 42 1
46 26 43 1
47 26 44 1
@<TRIPOS>SUBSTRUCTURE
1	UNK0	1	GROUP	1 ****	UNK
# created with PyMOL 2.3.2
@<TRIPOS>MOLECULE
469
53 57 1                 
SMALL
USER_CHARGES
@<TRIPOS>ATOM
1	  Br	-2.464	-3.959	5.465	Br	1	UNK0	0.000	
2	   C	-1.131	-4.153	4.128	C.2	1	UNK0	0.000	
3	   C	-0.378	-5.298	4.018	C.2	1	UNK0	0.000	
4	   C	0.579	-5.448	3.064	C.2	1	UNK0	0.000	
5	   C	0.812	-4.424	2.172	C.2	1	UNK0	0.000	
6	   C	0.058	-3.249	2.265	C.2	1	UNK0	0.000	
7	   C	-0.917	-3.093	3.235	C.2	1	UNK0	0.000	
8	   N	-1.712	-1.931	3.384	N.pl3	1	UNK0	0.000	
9	   C	-1.618	-0.770	2.589	C.2	1	UNK0	0.000	
10	   O	-0.828	-0.598	1.646	O.2	1	UNK0	0.000	
11	   C	-2.558	0.371	2.907	C.3	1	UNK0	0.000	
12	   N	-2.350	1.492	2.020	N.3	1	UNK0	0.000	
13	   C	-2.716	1.300	0.698	C.3	1	UNK0	0.000	
14	   C	-2.011	2.011	-0.392	C.3	1	UNK0	0.000	
15	   N	-1.313	3.136	0.161	N.pl3	1	UNK0	0.000	
16	   C	-0.415	2.800	1.237	C.3	1	UNK0	0.000	
17	   C	-1.274	2.330	2.382	C.3	1	UNK0	0.000	
18	   C	-1.432	4.476	-0.243	C.2	1	UNK0	0.000	
19	   N	-1.827	5.481	0.579	N.2	1	UNK0	0.000	
20	   C	-1.930	6.756	0.163	C.2	1	UNK0	0.000	
21	   N	-1.641	7.098	-1.105	N.2	1	UNK0	0.000	
22	   C	-1.240	6.165	-1.992	C.2	1	UNK0	0.000	
23	   N	-0.891	6.219	-3.303	N.pl3	1	UNK0	0.000	
24	   N	-0.585	4.983	-3.654	N.2	1	UNK0	0.000	
25	   C	-0.719	4.130	-2.636	C.2	1	UNK0	0.000	
26	   C	-1.140	4.869	-1.553	C.2	1	UNK0	0.000	
27	   C	-0.869	7.424	-4.134	C.3	1	UNK0	0.000	
28	   O	1.782	-4.598	1.218	O.3	1	UNK0	0.000	
29	   C	2.868	-5.483	1.346	C.3	1	UNK0	0.000	
30	   C	2.722	-6.437	2.488	C.3	1	UNK0	0.000	
31	   O	1.362	-6.585	2.917	O.3	1	UNK0	0.000	
32	   H	-0.555	-6.109	4.714	 H	1	UNK0	0.000	
33	   H	0.265	-2.477	1.557	 H	1	UNK0	0.000	
34	   H	-2.444	-1.933	4.162	 H	1	UNK0	0.000	
35	   H	-3.574	-0.036	2.749	 H	1	UNK0	0.000	
36	   H	-2.450	0.637	3.976	 H	1	UNK0	0.000	
37	   H	-2.664	0.194	0.460	 H	1	UNK0	0.000	
38	   H	-3.824	1.510	0.590	 H	1	UNK0	0.000	
39	   H	-1.270	1.358	-0.916	 H	1	UNK0	0.000	
40	   H	-2.736	2.294	-1.182	 H	1	UNK0	0.000	
41	   H	0.224	3.633	1.536	 H	1	UNK0	0.000	
42	   H	0.234	1.929	0.954	 H	1	UNK0	0.000	
43	   H	-1.656	3.199	2.957	 H	1	UNK0	0.000	
44	   H	-0.606	1.771	3.074	 H	1	UNK0	0.000	
45	   H	-2.256	7.476	0.909	 H	1	UNK0	0.000	
46	   H	-0.552	3.063	-2.583	 H	1	UNK0	0.000	
47	   H	0.050	7.494	-4.745	 H	1	UNK0	0.000	
48	   H	-1.727	7.446	-4.844	 H	1	UNK0	0.000	
49	   H	-0.994	8.302	-3.464	 H	1	UNK0	0.000	
50	   H	3.013	-6.017	0.368	 H	1	UNK0	0.000	
51	   H	3.794	-4.862	1.515	 H	1	UNK0	0.000	
52	   H	3.271	-6.018	3.378	 H	1	UNK0	0.000	
53	   H	3.174	-7.416	2.286	 H	1	UNK0	0.000	
@<TRIPOS>BOND
1 1 2 1
2 2 3 2
3 2 7 1
4 3 4 1
5 4 5 2
6 4 31 1
7 5 6 1
8 5 28 1
9 6 7 2
10 7 8 1
11 8 9 1
12 9 10 2
13 9 11 1
14 11 12 1
15 12 13 1
16 12 17 1
17 13 14 1
18 14 15 1
19 15 16 1
20 15 18 1
21 16 17 1
22 18 19 2
23 18 26 1
24 19 20 1
25 20 21 2
26 21 22 1
27 22 23 1
28 22 26 2
29 23 24 1
30 23 27 1
31 24 25 2
32 25 26 1
33 28 29 1
34 29 30 1
35 30 31 1
36 3 32 1
37 6 33 1
38 8 34 1
39 11 35 1
40 11 36 1
41 13 37 1
42 13 38 1
43 14 39 1
44 14 40 1
45 16 41 1
46 16 42 1
47 17 43 1
48 17 44 1
49 20 45 1
50 25 46 1
51 27 47 1
52 27 48 1
53 27 49 1
54 29 50 1
55 29 51 1
56 30 52 1
57 30 53 1
@<TRIPOS>SUBSTRUCTURE
1	UNK0	1	GROUP	1 ****	UNK
# created with PyMOL 2.3.2
@<TRIPOS>MOLECULE
471
44 47 1                 
SMALL
USER_CHARGES
@<TRIPOS>ATOM
1	  Br	-4.462	-5.096	1.110	Br	1	UNK0	0.000	
2	   C	-3.301	-3.884	2.016	C.2	1	UNK0	0.000	
3	   C	-2.697	-2.846	1.327	C.2	1	UNK0	0.000	
4	   C	-1.848	-1.949	1.959	C.2	1	UNK0	0.000	
5	   C	-1.644	-2.153	3.310	C.2	1	UNK0	0.000	
6	   C	-2.229	-3.174	4.018	C.2	1	UNK0	0.000	
7	   C	-3.066	-4.048	3.368	C.2	1	UNK0	0.000	
8	   C	-0.798	-1.262	3.945	C.2	1	UNK0	0.000	
9	   O	-0.566	-1.394	5.192	O.2	1	UNK0	0.000	
10	   C	-0.224	-0.247	3.209	C.2	1	UNK0	0.000	
11	   C	-0.468	-0.095	1.864	C.2	1	UNK0	0.000	
12	   O	-1.275	-0.965	1.310	O.3	1	UNK0	0.000	
13	   C	0.167	1.002	1.123	C.2	1	UNK0	0.000	
14	   O	0.929	1.784	1.762	O.2	1	UNK0	0.000	
15	   N	-0.040	1.212	-0.255	N.pl3	1	UNK0	0.000	
16	   C	0.625	2.316	-0.899	C.3	1	UNK0	0.000	
17	   C	1.444	1.890	-2.099	C.3	1	UNK0	0.000	
18	   N	0.827	0.759	-2.685	N.3	1	UNK0	0.000	
19	   C	-0.577	0.769	-2.556	C.3	1	UNK0	0.000	
20	   C	-0.882	0.394	-1.094	C.3	1	UNK0	0.000	
21	   C	1.490	-0.476	-2.556	C.3	1	UNK0	0.000	
22	   C	2.829	-0.540	-3.135	C.2	1	UNK0	0.000	
23	   N	3.455	0.468	-3.764	N.2	1	UNK0	0.000	
24	   O	4.607	0.032	-4.131	O.3	1	UNK0	0.000	
25	   N	4.780	-1.217	-3.777	N.2	1	UNK0	0.000	
26	   C	3.663	-1.624	-3.135	C.2	1	UNK0	0.000	
27	   C	3.404	-2.975	-2.553	C.3	1	UNK0	0.000	
28	   H	-2.893	-2.735	0.278	 H	1	UNK0	0.000	
29	   H	-2.022	-3.272	5.074	 H	1	UNK0	0.000	
30	   H	-3.538	-4.864	3.918	 H	1	UNK0	0.000	
31	   H	0.438	0.446	3.723	 H	1	UNK0	0.000	
32	   H	1.257	2.891	-0.169	 H	1	UNK0	0.000	
33	   H	-0.159	3.043	-1.268	 H	1	UNK0	0.000	
34	   H	2.500	1.689	-1.781	 H	1	UNK0	0.000	
35	   H	1.498	2.748	-2.832	 H	1	UNK0	0.000	
36	   H	-0.945	1.806	-2.691	 H	1	UNK0	0.000	
37	   H	-1.131	0.081	-3.197	 H	1	UNK0	0.000	
38	   H	-1.950	0.586	-0.863	 H	1	UNK0	0.000	
39	   H	-0.722	-0.690	-0.938	 H	1	UNK0	0.000	
40	   H	0.860	-1.281	-2.987	 H	1	UNK0	0.000	
41	   H	1.567	-0.725	-1.459	 H	1	UNK0	0.000	
42	   H	2.689	-2.900	-1.690	 H	1	UNK0	0.000	
43	   H	2.951	-3.600	-3.326	 H	1	UNK0	0.000	
44	   H	4.340	-3.394	-2.125	 H	1	UNK0	0.000	
@<TRIPOS>BOND
1 1 2 1
2 2 3 2
3 2 7 1
4 3 4 1
5 4 5 2
6 4 12 1
7 5 6 1
8 5 8 1
9 6 7 2
10 8 9 2
11 8 10 1
12 10 11 2
13 11 12 1
14 11 13 1
15 13 14 2
16 13 15 1
17 15 16 1
18 15 20 1
19 16 17 1
20 17 18 1
21 18 19 1
22 18 21 1
23 19 20 1
24 21 22 1
25 22 23 2
26 22 26 1
27 23 24 1
28 24 25 1
29 25 26 2
30 26 27 1
31 3 28 1
32 6 29 1
33 7 30 1
34 10 31 1
35 16 32 1
36 16 33 1
37 17 34 1
38 17 35 1
39 19 36 1
40 19 37 1
41 20 38 1
42 20 39 1
43 21 40 1
44 21 41 1
45 27 42 1
46 27 43 1
47 27 44 1
@<TRIPOS>SUBSTRUCTURE
1	UNK0	1	GROUP	1 ****	UNK
# created with PyMOL 2.3.2
@<TRIPOS>MOLECULE
473
49 52 1                 
SMALL
USER_CHARGES
@<TRIPOS>ATOM
1	  Br	5.069	8.039	-4.269	Br	1	UNK0	0.000	
2	   C	4.572	6.347	-3.541	C.2	1	UNK0	0.000	
3	   C	3.275	5.904	-3.704	C.2	1	UNK0	0.000	
4	   C	2.864	4.685	-3.197	C.2	1	UNK0	0.000	
5	   C	3.797	3.925	-2.519	C.2	1	UNK0	0.000	
6	   C	5.091	4.378	-2.362	C.2	1	UNK0	0.000	
7	   C	5.509	5.593	-2.866	C.2	1	UNK0	0.000	
8	   C	3.128	2.709	-2.091	C.2	1	UNK0	0.000	
9	   O	3.700	1.780	-1.435	O.2	1	UNK0	0.000	
10	   N	1.779	2.766	-2.530	N.pl3	1	UNK0	0.000	
11	   C	1.576	3.975	-3.218	C.2	1	UNK0	0.000	
12	   O	0.516	4.395	-3.758	O.2	1	UNK0	0.000	
13	   C	0.820	1.714	-2.274	C.3	1	UNK0	0.000	
14	   C	0.074	1.885	-1.003	C.3	1	UNK0	0.000	
15	   C	-0.898	0.753	-0.826	C.3	1	UNK0	0.000	
16	   C	-0.268	-0.584	-0.734	C.2	1	UNK0	0.000	
17	   O	0.974	-0.764	-0.640	O.2	1	UNK0	0.000	
18	   N	-1.078	-1.776	-0.748	N.pl3	1	UNK0	0.000	
19	   C	-0.473	-3.085	-0.657	C.3	1	UNK0	0.000	
20	   C	-1.183	-4.006	0.278	C.3	1	UNK0	0.000	
21	   N	-2.346	-3.431	0.911	N.pl3	1	UNK0	0.000	
22	   C	-3.168	-2.403	0.331	C.3	1	UNK0	0.000	
23	   C	-2.524	-1.724	-0.853	C.3	1	UNK0	0.000	
24	   C	-2.707	-3.919	2.207	C.2	1	UNK0	0.000	
25	   N	-1.982	-4.886	2.832	N.2	1	UNK0	0.000	
26	   C	-2.284	-5.367	4.037	C.2	1	UNK0	0.000	
27	   C	-3.394	-4.864	4.699	C.2	1	UNK0	0.000	
28	   N	-4.138	-3.900	4.105	N.2	1	UNK0	0.000	
29	   C	-3.802	-3.440	2.889	C.2	1	UNK0	0.000	
30	   H	2.512	6.474	-4.232	 H	1	UNK0	0.000	
31	   H	5.787	3.745	-1.822	 H	1	UNK0	0.000	
32	   H	6.529	5.916	-2.724	 H	1	UNK0	0.000	
33	   H	1.370	0.761	-2.262	 H	1	UNK0	0.000	
34	   H	0.085	1.734	-3.134	 H	1	UNK0	0.000	
35	   H	-0.409	2.871	-0.890	 H	1	UNK0	0.000	
36	   H	0.781	1.829	-0.121	 H	1	UNK0	0.000	
37	   H	-1.543	0.895	0.073	 H	1	UNK0	0.000	
38	   H	-1.599	0.726	-1.687	 H	1	UNK0	0.000	
39	   H	0.608	-2.998	-0.434	 H	1	UNK0	0.000	
40	   H	-0.522	-3.518	-1.696	 H	1	UNK0	0.000	
41	   H	-1.546	-4.929	-0.258	 H	1	UNK0	0.000	
42	   H	-0.489	-4.388	1.061	 H	1	UNK0	0.000	
43	   H	-4.115	-2.841	0.007	 H	1	UNK0	0.000	
44	   H	-3.290	-1.613	1.120	 H	1	UNK0	0.000	
45	   H	-2.893	-0.689	-0.994	 H	1	UNK0	0.000	
46	   H	-2.780	-2.334	-1.768	 H	1	UNK0	0.000	
47	   H	-1.695	-6.137	4.519	 H	1	UNK0	0.000	
48	   H	-3.665	-5.227	5.666	 H	1	UNK0	0.000	
49	   H	-4.416	-2.673	2.446	 H	1	UNK0	0.000	
@<TRIPOS>BOND
1 1 2 1
2 2 3 2
3 2 7 1
4 3 4 1
5 4 5 2
6 4 11 1
7 5 6 1
8 5 8 1
9 6 7 2
10 8 9 2
11 8 10 1
12 10 11 1
13 10 13 1
14 11 12 2
15 13 14 1
16 14 15 1
17 15 16 1
18 16 17 2
19 16 18 1
20 18 19 1
21 18 23 1
22 19 20 1
23 20 21 1
24 21 22 1
25 21 24 1
26 22 23 1
27 24 25 2
28 24 29 1
29 25 26 1
30 26 27 2
31 27 28 1
32 28 29 2
33 3 30 1
34 6 31 1
35 7 32 1
36 13 33 1
37 13 34 1
38 14 35 1
39 14 36 1
40 15 37 1
41 15 38 1
42 19 39 1
43 19 40 1
44 20 41 1
45 20 42 1
46 22 43 1
47 22 44 1
48 23 45 1
49 23 46 1
50 26 47 1
51 27 48 1
52 29 49 1
@<TRIPOS>SUBSTRUCTURE
1	UNK0	1	GROUP	1 ****	UNK
# created with PyMOL 2.3.2
@<TRIPOS>MOLECULE
483
44 47 1                 
SMALL
USER_CHARGES
@<TRIPOS>ATOM
1	  Br	0.186	2.968	3.895	Br	1	UNK0	0.000	
2	   C	-0.338	3.376	2.114	C.2	1	UNK0	0.000	
3	   C	-1.131	2.502	1.361	C.2	1	UNK0	0.000	
4	   C	-1.514	2.793	0.069	C.2	1	UNK0	0.000	
5	   C	-1.098	3.998	-0.510	C.2	1	UNK0	0.000	
6	   C	-0.313	4.856	0.246	C.2	1	UNK0	0.000	
7	   C	0.059	4.548	1.533	C.2	1	UNK0	0.000	
8	   N	-1.595	4.109	-1.839	N.pl3	1	UNK0	0.000	
9	   C	-2.346	2.933	-2.098	C.2	1	UNK0	0.000	
10	   O	-2.972	2.586	-3.137	O.2	1	UNK0	0.000	
11	   C	-2.319	2.065	-0.901	C.2	1	UNK0	0.000	
12	   N	-2.888	0.917	-0.762	N.2	1	UNK0	0.000	
13	   N	-2.796	0.178	0.420	N.pl3	1	UNK0	0.000	
14	   C	-1.921	-0.927	0.562	C.2	1	UNK0	0.000	
15	   O	-1.199	-1.261	-0.405	O.2	1	UNK0	0.000	
16	   C	-1.865	-1.663	1.817	C.3	1	UNK0	0.000	
17	   N	-0.919	-2.762	1.790	N.pl3	1	UNK0	0.000	
18	   N	-1.156	-4.012	1.431	N.2	1	UNK0	0.000	
19	   N	-0.054	-4.737	1.532	N.2	1	UNK0	0.000	
20	   C	0.931	-3.935	1.971	C.2	1	UNK0	0.000	
21	   N	0.365	-2.730	2.118	N.2	1	UNK0	0.000	
22	   C	2.310	-4.344	2.218	C.2	1	UNK0	0.000	
23	   C	2.693	-5.650	2.000	C.2	1	UNK0	0.000	
24	   C	4.012	-6.045	2.235	C.2	1	UNK0	0.000	
25	   C	4.962	-5.157	2.686	C.2	1	UNK0	0.000	
26	   C	4.580	-3.845	2.905	C.2	1	UNK0	0.000	
27	   C	3.267	-3.461	2.669	C.2	1	UNK0	0.000	
28	   C	-1.419	5.174	-2.806	C.3	1	UNK0	0.000	
29	   C	-2.479	6.161	-2.674	C.1	1	UNK0	0.000	
30	   C	-3.345	6.990	-2.569	C.1	1	UNK0	0.000	
31	   H	-1.434	1.579	1.842	 H	1	UNK0	0.000	
32	   H	0.031	5.796	-0.159	 H	1	UNK0	0.000	
33	   H	0.680	5.225	2.132	 H	1	UNK0	0.000	
34	   H	-3.403	0.451	1.219	 H	1	UNK0	0.000	
35	   H	-2.866	-2.045	2.093	 H	1	UNK0	0.000	
36	   H	-1.580	-0.947	2.626	 H	1	UNK0	0.000	
37	   H	1.959	-6.372	1.644	 H	1	UNK0	0.000	
38	   H	4.317	-7.077	2.064	 H	1	UNK0	0.000	
39	   H	5.991	-5.490	2.863	 H	1	UNK0	0.000	
40	   H	5.324	-3.139	3.260	 H	1	UNK0	0.000	
41	   H	2.952	-2.434	2.836	 H	1	UNK0	0.000	
42	   H	-0.440	5.697	-2.675	 H	1	UNK0	0.000	
43	   H	-1.381	4.714	-3.823	 H	1	UNK0	0.000	
44	   H	-4.113	7.738	-2.464	 H	1	UNK0	0.000	
@<TRIPOS>BOND
1 1 2 1
2 2 3 2
3 2 7 1
4 3 4 1
5 4 5 2
6 4 11 1
7 5 6 1
8 5 8 1
9 6 7 2
10 8 9 1
11 8 28 1
12 9 10 2
13 9 11 1
14 11 12 2
15 12 13 1
16 13 14 1
17 14 15 2
18 14 16 1
19 16 17 1
20 17 18 1
21 17 21 1
22 18 19 2
23 19 20 1
24 20 21 2
25 20 22 1
26 22 23 2
27 22 27 1
28 23 24 1
29 24 25 2
30 25 26 1
31 26 27 2
32 28 29 1
33 29 30 3
34 3 31 1
35 6 32 1
36 7 33 1
37 13 34 1
38 16 35 1
39 16 36 1
40 23 37 1
41 24 38 1
42 25 39 1
43 26 40 1
44 27 41 1
45 28 42 1
46 28 43 1
47 30 44 1
@<TRIPOS>SUBSTRUCTURE
1	UNK0	1	GROUP	1 ****	UNK
# created with PyMOL 2.3.2
@<TRIPOS>MOLECULE
484
58 61 1                 
SMALL
USER_CHARGES
@<TRIPOS>ATOM
1	  Br	2.828	0.041	4.378	Br	1	UNK0	0.000	
2	   C	1.257	0.074	3.293	C.2	1	UNK0	0.000	
3	   C	1.270	0.613	1.998	C.2	1	UNK0	0.000	
4	   C	0.091	0.575	1.311	C.2	1	UNK0	0.000	
5	   C	-1.082	0.051	1.813	C.2	1	UNK0	0.000	
6	   C	-1.093	-0.472	3.086	C.2	1	UNK0	0.000	
7	   C	0.101	-0.457	3.822	C.2	1	UNK0	0.000	
8	   N	-2.149	0.145	0.878	N.pl3	1	UNK0	0.000	
9	   C	-1.595	0.789	-0.299	C.2	1	UNK0	0.000	
10	   O	-2.226	1.034	-1.348	O.2	1	UNK0	0.000	
11	   C	-0.206	1.059	-0.001	C.2	1	UNK0	0.000	
12	   N	0.631	1.751	-0.673	N.2	1	UNK0	0.000	
13	   N	1.686	2.247	-0.715	N.pl3	1	UNK0	0.000	
14	   C	2.962	2.854	-0.746	C.2	1	UNK0	0.000	
15	   O	3.619	3.424	0.096	O.2	1	UNK0	0.000	
16	   C	3.548	2.731	-2.171	C.3	1	UNK0	0.000	
17	   O	2.670	1.791	-2.827	O.3	1	UNK0	0.000	
18	   N	2.875	0.433	-2.450	N.2	1	UNK0	0.000	
19	   C	2.072	-0.488	-2.816	C.2	1	UNK0	0.000	
20	   C	2.293	-1.856	-2.407	C.2	1	UNK0	0.000	
21	   C	3.235	-2.272	-1.527	C.2	1	UNK0	0.000	
22	   C	3.334	-3.672	-1.321	C.2	1	UNK0	0.000	
23	   C	2.592	-4.620	-1.890	C.2	1	UNK0	0.000	
24	   C	1.663	-4.154	-2.757	C.2	1	UNK0	0.000	
25	   C	1.426	-2.875	-3.091	C.2	1	UNK0	0.000	
26	   O	2.795	-5.971	-1.587	O.3	1	UNK0	0.000	
27	   C	2.050	-6.984	-2.253	C.3	1	UNK0	0.000	
28	   C	-3.528	-0.313	0.922	C.3	1	UNK0	0.000	
29	   N	-4.388	0.672	1.361	N.3	1	UNK0	0.000	
30	   C	-5.739	0.290	1.277	C.3	1	UNK0	0.000	
31	   C	-6.466	0.687	2.564	C.3	1	UNK0	0.000	
32	   O	-5.647	0.128	3.583	O.3	1	UNK0	0.000	
33	   C	-4.506	0.926	3.741	C.3	1	UNK0	0.000	
34	   C	-3.965	1.457	2.450	C.3	1	UNK0	0.000	
35	   H	2.181	0.962	1.673	 H	1	UNK0	0.000	
36	   H	-1.974	-0.910	3.546	 H	1	UNK0	0.000	
37	   H	0.085	-0.840	4.818	 H	1	UNK0	0.000	
38	   H	1.577	2.747	0.576	 H	1	UNK0	0.000	
39	   H	3.085	3.736	-2.579	 H	1	UNK0	0.000	
40	   H	4.544	2.720	-2.288	 H	1	UNK0	0.000	
41	   H	1.217	-0.272	-3.453	 H	1	UNK0	0.000	
42	   H	3.872	-1.594	-1.013	 H	1	UNK0	0.000	
43	   H	4.111	-3.966	-0.590	 H	1	UNK0	0.000	
44	   H	1.044	-4.959	-3.239	 H	1	UNK0	0.000	
45	   H	0.715	-2.463	-3.743	 H	1	UNK0	0.000	
46	   H	2.465	-7.160	-3.281	 H	1	UNK0	0.000	
47	   H	2.248	-7.950	-1.688	 H	1	UNK0	0.000	
48	   H	0.960	-6.813	-2.258	 H	1	UNK0	0.000	
49	   H	-3.494	-1.236	1.538	 H	1	UNK0	0.000	
50	   H	-3.751	-0.703	-0.115	 H	1	UNK0	0.000	
51	   H	-6.259	0.715	0.386	 H	1	UNK0	0.000	
52	   H	-5.808	-0.803	1.161	 H	1	UNK0	0.000	
53	   H	-7.416	0.167	2.567	 H	1	UNK0	0.000	
54	   H	-6.558	1.762	2.683	 H	1	UNK0	0.000	
55	   H	-3.726	0.372	4.277	 H	1	UNK0	0.000	
56	   H	-4.819	1.793	4.373	 H	1	UNK0	0.000	
57	   H	-4.323	2.555	2.312	 H	1	UNK0	0.000	
58	   H	-2.875	1.541	2.494	 H	1	UNK0	0.000	
@<TRIPOS>BOND
1 1 2 1
2 2 3 2
3 2 7 1
4 3 4 1
5 4 5 2
6 4 11 1
7 5 6 1
8 5 8 1
9 6 7 2
10 8 9 1
11 8 28 1
12 9 10 2
13 9 11 1
14 11 12 2
15 12 13 1
16 13 14 1
17 14 15 2
18 14 16 1
19 16 17 1
20 17 18 1
21 18 19 2
22 19 20 1
23 20 21 2
24 20 25 1
25 21 22 1
26 22 23 2
27 23 24 1
28 23 26 1
29 24 25 2
30 26 27 1
31 28 29 1
32 29 30 1
33 29 34 1
34 30 31 1
35 31 32 1
36 32 33 1
37 33 34 1
38 3 35 1
39 6 36 1
40 7 37 1
41 13 38 1
42 16 39 1
43 16 40 1
44 19 41 1
45 21 42 1
46 22 43 1
47 24 44 1
48 25 45 1
49 27 46 1
50 27 47 1
51 27 48 1
52 28 49 1
53 28 50 1
54 30 51 1
55 30 52 1
56 31 53 1
57 31 54 1
58 33 55 1
59 33 56 1
60 34 57 1
61 34 58 1
@<TRIPOS>SUBSTRUCTURE
1	UNK0	1	GROUP	1 ****	UNK
# created with PyMOL 2.3.2
@<TRIPOS>MOLECULE
485
59 62 1                 
SMALL
USER_CHARGES
@<TRIPOS>ATOM
1	  Br	-4.295	-6.548	2.565	Br	1	UNK0	0.000	
2	   C	-2.873	-5.317	2.168	C.2	1	UNK0	0.000	
3	   C	-3.057	-3.956	2.250	C.2	1	UNK0	0.000	
4	   C	-2.060	-3.027	1.972	C.2	1	UNK0	0.000	
5	   C	-0.803	-3.504	1.589	C.2	1	UNK0	0.000	
6	   C	-0.618	-4.869	1.507	C.2	1	UNK0	0.000	
7	   C	-1.631	-5.781	1.790	C.2	1	UNK0	0.000	
8	   N	0.086	-2.404	1.349	N.pl3	1	UNK0	0.000	
9	   C	-0.658	-1.218	1.594	C.2	1	UNK0	0.000	
10	   O	-0.217	-0.052	1.488	O.2	1	UNK0	0.000	
11	   C	-2.007	-1.577	1.987	C.2	1	UNK0	0.000	
12	   N	-2.969	-0.780	2.289	N.2	1	UNK0	0.000	
13	   N	-2.842	0.604	2.280	N.pl3	1	UNK0	0.000	
14	   C	-3.783	1.390	1.583	C.2	1	UNK0	0.000	
15	   O	-4.762	0.860	0.952	O.2	1	UNK0	0.000	
16	   C	-3.724	2.872	1.522	C.3	1	UNK0	0.000	
17	   O	-2.597	3.349	2.256	O.3	1	UNK0	0.000	
18	   C	-2.348	4.709	2.331	C.2	1	UNK0	0.000	
19	   C	-1.261	5.176	3.039	C.2	1	UNK0	0.000	
20	   C	-1.017	6.544	3.110	C.2	1	UNK0	0.000	
21	   C	-1.857	7.440	2.477	C.2	1	UNK0	0.000	
22	   C	-2.928	6.963	1.781	C.2	1	UNK0	0.000	
23	   C	-3.170	5.601	1.711	C.2	1	UNK0	0.000	
24	   O	-0.408	4.313	3.679	O.3	1	UNK0	0.000	
25	   C	0.697	4.801	4.397	C.3	1	UNK0	0.000	
26	   C	1.474	-2.532	0.938	C.3	1	UNK0	0.000	
27	   N	1.683	-2.551	-0.465	N.3	1	UNK0	0.000	
28	   C	1.041	-3.603	-1.176	C.3	1	UNK0	0.000	
29	   C	1.390	-3.584	-2.667	C.3	1	UNK0	0.000	
30	   N	2.504	-2.693	-2.821	N.3	1	UNK0	0.000	
31	   C	2.177	-1.331	-2.533	C.3	1	UNK0	0.000	
32	   C	1.638	-1.273	-1.115	C.3	1	UNK0	0.000	
33	   C	3.239	-2.885	-4.038	C.3	1	UNK0	0.000	
34	   H	-4.038	-3.589	2.549	 H	1	UNK0	0.000	
35	   H	0.349	-5.291	1.212	 H	1	UNK0	0.000	
36	   H	-1.493	-6.848	1.728	 H	1	UNK0	0.000	
37	   H	-2.060	1.046	2.783	 H	1	UNK0	0.000	
38	   H	-3.637	3.259	0.494	 H	1	UNK0	0.000	
39	   H	-4.637	3.318	1.955	 H	1	UNK0	0.000	
40	   H	-0.154	6.900	3.673	 H	1	UNK0	0.000	
41	   H	-1.689	8.517	2.517	 H	1	UNK0	0.000	
42	   H	-3.585	7.640	1.287	 H	1	UNK0	0.000	
43	   H	-4.030	5.282	1.147	 H	1	UNK0	0.000	
44	   H	1.352	5.454	3.780	 H	1	UNK0	0.000	
45	   H	0.307	5.465	5.212	 H	1	UNK0	0.000	
46	   H	1.234	3.926	4.821	 H	1	UNK0	0.000	
47	   H	2.114	-1.766	1.439	 H	1	UNK0	0.000	
48	   H	1.831	-3.513	1.348	 H	1	UNK0	0.000	
49	   H	1.429	-4.572	-0.800	 H	1	UNK0	0.000	
50	   H	-0.061	-3.626	-1.044	 H	1	UNK0	0.000	
51	   H	1.668	-4.580	-3.040	 H	1	UNK0	0.000	
52	   H	0.481	-3.259	-3.209	 H	1	UNK0	0.000	
53	   H	1.440	-0.880	-3.222	 H	1	UNK0	0.000	
54	   H	3.122	-0.740	-2.638	 H	1	UNK0	0.000	
55	   H	0.571	-0.924	-1.132	 H	1	UNK0	0.000	
56	   H	2.283	-0.569	-0.554	 H	1	UNK0	0.000	
57	   H	4.344	-2.787	-3.858	 H	1	UNK0	0.000	
58	   H	2.944	-2.196	-4.851	 H	1	UNK0	0.000	
59	   H	3.089	-3.950	-4.350	 H	1	UNK0	0.000	
@<TRIPOS>BOND
1 1 2 1
2 2 3 2
3 2 7 1
4 3 4 1
5 4 5 2
6 4 11 1
7 5 6 1
8 5 8 1
9 6 7 2
10 8 9 1
11 8 26 1
12 9 10 2
13 9 11 1
14 11 12 2
15 12 13 1
16 13 14 1
17 14 15 2
18 14 16 1
19 16 17 1
20 17 18 1
21 18 19 2
22 18 23 1
23 19 20 1
24 19 24 1
25 20 21 2
26 21 22 1
27 22 23 2
28 24 25 1
29 26 27 1
30 27 28 1
31 27 32 1
32 28 29 1
33 29 30 1
34 30 31 1
35 30 33 1
36 31 32 1
37 3 34 1
38 6 35 1
39 7 36 1
40 13 37 1
41 16 38 1
42 16 39 1
43 20 40 1
44 21 41 1
45 22 42 1
46 23 43 1
47 25 44 1
48 25 45 1
49 25 46 1
50 26 47 1
51 26 48 1
52 28 49 1
53 28 50 1
54 29 51 1
55 29 52 1
56 31 53 1
57 31 54 1
58 32 55 1
59 32 56 1
60 33 57 1
61 33 58 1
62 33 59 1
@<TRIPOS>SUBSTRUCTURE
1	UNK0	1	GROUP	1 ****	UNK
# created with PyMOL 2.3.2
@<TRIPOS>MOLECULE
500
45 48 1                 
SMALL
USER_CHARGES
@<TRIPOS>ATOM
1	  Br	3.517	-0.947	-3.154	Br	1	UNK0	0.000	
2	   C	2.830	-0.245	-1.498	C.2	1	UNK0	0.000	
3	   C	1.500	-0.067	-1.250	C.2	1	UNK0	0.000	
4	   C	1.053	0.465	-0.068	C.2	1	UNK0	0.000	
5	   C	1.995	0.811	0.859	C.2	1	UNK0	0.000	
6	   C	3.366	0.636	0.631	C.2	1	UNK0	0.000	
7	   C	3.804	0.101	-0.563	C.2	1	UNK0	0.000	
8	   N	1.400	1.382	2.008	N.pl3	1	UNK0	0.000	
9	   C	0.023	1.400	1.798	C.2	1	UNK0	0.000	
10	   O	-0.804	1.866	2.625	O.2	1	UNK0	0.000	
11	   C	-0.287	0.785	0.455	C.3	1	UNK0	0.000	
12	   C	-1.161	-0.339	0.753	C.2	1	UNK0	0.000	
13	   C	-2.457	-0.328	0.336	C.2	1	UNK0	0.000	
14	   N	-3.014	-1.494	0.768	N.2	1	UNK0	0.000	
15	   N	-2.116	-2.189	1.417	N.pl3	1	UNK0	0.000	
16	   C	-0.932	-1.535	1.452	C.2	1	UNK0	0.000	
17	   C	0.307	-2.048	2.090	C.3	1	UNK0	0.000	
18	   C	1.202	-2.686	1.100	C.2	1	UNK0	0.000	
19	   O	2.413	-2.968	1.288	O.co2	1	UNK0	0.000	
20	   O	0.664	-2.997	-0.129	O.3	1	UNK0	0.000	
21	   C	1.332	-3.616	-1.196	C.3	1	UNK0	0.000	
22	   C	0.407	-3.717	-2.386	C.3	1	UNK0	0.000	
23	   O	-3.016	0.740	-0.394	O.3	1	UNK0	0.000	
24	   C	-2.181	1.804	-0.675	C.2	1	UNK0	0.000	
25	   C	-0.934	1.849	-0.299	C.2	1	UNK0	0.000	
26	   C	-0.131	3.027	-0.641	C.1	1	UNK0	0.000	
27	   N	0.503	3.938	-0.925	N.1	1	UNK0	0.000	
28	   N	-2.753	2.903	-1.424	N.pl3	1	UNK0	0.000	
29	   C	2.109	1.866	3.210	C.3	1	UNK0	0.000	
30	   H	0.794	-0.347	-1.994	 H	1	UNK0	0.000	
31	   H	4.120	0.902	1.356	 H	1	UNK0	0.000	
32	   H	4.858	-0.040	-0.754	 H	1	UNK0	0.000	
33	   H	-2.248	-3.139	1.871	 H	1	UNK0	0.000	
34	   H	0.890	-1.249	2.579	 H	1	UNK0	0.000	
35	   H	0.060	-2.771	2.908	 H	1	UNK0	0.000	
36	   H	1.577	-4.692	-0.920	 H	1	UNK0	0.000	
37	   H	2.275	-3.102	-1.422	 H	1	UNK0	0.000	
38	   H	-0.625	-3.398	-2.055	 H	1	UNK0	0.000	
39	   H	0.307	-4.737	-2.753	 H	1	UNK0	0.000	
40	   H	0.680	-2.985	-3.183	 H	1	UNK0	0.000	
41	   H	-3.614	2.821	-1.992	 H	1	UNK0	0.000	
42	   H	-2.269	3.814	-1.382	 H	1	UNK0	0.000	
43	   H	2.406	0.977	3.826	 H	1	UNK0	0.000	
44	   H	2.988	2.475	2.919	 H	1	UNK0	0.000	
45	   H	1.403	2.451	3.815	 H	1	UNK0	0.000	
@<TRIPOS>BOND
1 1 2 1
2 2 3 2
3 2 7 1
4 3 4 1
5 4 5 2
6 4 11 1
7 5 6 1
8 5 8 1
9 6 7 2
10 8 9 1
11 8 29 1
12 9 10 2
13 9 11 1
14 11 12 1
15 11 25 1
16 12 13 1
17 12 16 2
18 13 14 2
19 13 23 1
20 14 15 1
21 15 16 1
22 16 17 1
23 17 18 1
24 18 19 2
25 18 20 1
26 20 21 1
27 21 22 1
28 23 24 1
29 24 25 2
30 24 28 1
31 25 26 1
32 26 27 3
33 3 30 1
34 6 31 1
35 7 32 1
36 15 33 1
37 17 34 1
38 17 35 1
39 21 36 1
40 21 37 1
41 22 38 1
42 22 39 1
43 22 40 1
44 28 41 1
45 28 42 1
46 29 43 1
47 29 44 1
48 29 45 1
@<TRIPOS>SUBSTRUCTURE
1	UNK0	1	GROUP	1 ****	UNK
# created with PyMOL 2.3.2
@<TRIPOS>MOLECULE
502
36 39 1                 
SMALL
USER_CHARGES
@<TRIPOS>ATOM
1	  Br	-3.116	4.734	0.099	Br	1	UNK0	0.000	
2	   C	-1.934	3.212	0.072	C.2	1	UNK0	0.000	
3	   C	-2.402	1.959	-0.224	C.2	1	UNK0	0.000	
4	   C	-1.537	0.885	-0.238	C.2	1	UNK0	0.000	
5	   C	-0.221	1.125	0.051	C.2	1	UNK0	0.000	
6	   C	0.259	2.415	0.355	C.2	1	UNK0	0.000	
7	   C	-0.614	3.470	0.364	C.2	1	UNK0	0.000	
8	   N	0.543	-0.076	-0.003	N.pl3	1	UNK0	0.000	
9	   C	-0.324	-1.123	-0.340	C.2	1	UNK0	0.000	
10	   O	0.016	-2.338	-0.476	O.2	1	UNK0	0.000	
11	   C	-1.711	-0.563	-0.510	C.3	1	UNK0	0.000	
12	   C	-2.089	-0.845	-1.890	C.2	1	UNK0	0.000	
13	   C	-3.135	-1.664	-2.182	C.2	1	UNK0	0.000	
14	   N	-3.221	-1.716	-3.544	N.2	1	UNK0	0.000	
15	   N	-2.281	-0.972	-4.088	N.pl3	1	UNK0	0.000	
16	   C	-1.563	-0.419	-3.113	C.2	1	UNK0	0.000	
17	   C	-0.389	0.504	-3.209	C.3	1	UNK0	0.000	
18	   O	-3.911	-2.283	-1.196	O.3	1	UNK0	0.000	
19	   C	-3.547	-2.012	0.119	C.2	1	UNK0	0.000	
20	   C	-2.553	-1.235	0.462	C.2	1	UNK0	0.000	
21	   C	-2.312	-1.061	1.905	C.1	1	UNK0	0.000	
22	   N	-2.103	-0.909	3.044	N.1	1	UNK0	0.000	
23	   N	-4.318	-2.628	1.189	N.pl3	1	UNK0	0.000	
24	   C	1.986	-0.208	0.249	C.3	1	UNK0	0.000	
25	   H	-3.442	1.788	-0.450	 H	1	UNK0	0.000	
26	   H	1.300	2.601	0.583	 H	1	UNK0	0.000	
27	   H	-0.267	4.488	0.598	 H	1	UNK0	0.000	
28	   H	-2.085	-0.807	-5.109	 H	1	UNK0	0.000	
29	   H	-0.207	0.659	-4.304	 H	1	UNK0	0.000	
30	   H	-0.635	1.520	-2.814	 H	1	UNK0	0.000	
31	   H	0.525	0.076	-2.799	 H	1	UNK0	0.000	
32	   H	-3.977	-3.564	1.486	 H	1	UNK0	0.000	
33	   H	-5.129	-2.190	1.621	 H	1	UNK0	0.000	
34	   H	2.109	-0.900	1.105	 H	1	UNK0	0.000	
35	   H	2.385	-0.735	-0.649	 H	1	UNK0	0.000	
36	   H	2.461	0.763	0.386	 H	1	UNK0	0.000	
@<TRIPOS>BOND
1 1 2 1
2 2 3 2
3 2 7 1
4 3 4 1
5 4 5 2
6 4 11 1
7 5 6 1
8 5 8 1
9 6 7 2
10 8 9 1
11 8 24 1
12 9 10 2
13 9 11 1
14 11 12 1
15 11 20 1
16 12 13 1
17 12 16 2
18 13 14 2
19 13 18 1
20 14 15 1
21 15 16 1
22 16 17 1
23 18 19 1
24 19 20 2
25 19 23 1
26 20 21 1
27 21 22 3
28 3 25 1
29 6 26 1
30 7 27 1
31 15 28 1
32 17 29 1
33 17 30 1
34 17 31 1
35 23 32 1
36 23 33 1
37 24 34 1
38 24 35 1
39 24 36 1
@<TRIPOS>SUBSTRUCTURE
1	UNK0	1	GROUP	1 ****	UNK
# created with PyMOL 2.3.2
@<TRIPOS>MOLECULE
504
41 44 1                 
SMALL
USER_CHARGES
@<TRIPOS>ATOM
1	  Br	3.212	-0.166	-3.474	Br	1	UNK0	0.000	
2	   C	1.570	0.223	-2.601	C.2	1	UNK0	0.000	
3	   C	1.482	0.496	-1.257	C.2	1	UNK0	0.000	
4	   C	0.238	0.772	-0.691	C.2	1	UNK0	0.000	
5	   C	-0.914	0.788	-1.403	C.2	1	UNK0	0.000	
6	   C	-0.824	0.511	-2.770	C.2	1	UNK0	0.000	
7	   C	0.396	0.236	-3.346	C.2	1	UNK0	0.000	
8	   N	-2.036	1.095	-0.598	N.pl3	1	UNK0	0.000	
9	   C	-1.573	1.288	0.718	C.2	1	UNK0	0.000	
10	   O	-2.282	1.578	1.721	O.2	1	UNK0	0.000	
11	   C	-0.096	1.094	0.734	C.3	1	UNK0	0.000	
12	   C	0.266	-0.054	1.603	C.2	1	UNK0	0.000	
13	   C	1.130	0.039	2.548	C.2	1	UNK0	0.000	
14	   N	1.832	1.276	2.853	N.pl3	1	UNK0	0.000	
15	   C	1.497	2.376	2.033	C.2	1	UNK0	0.000	
16	   C	0.622	2.304	1.068	C.2	1	UNK0	0.000	
17	   C	0.379	3.523	0.306	C.1	1	UNK0	0.000	
18	   N	0.171	4.481	-0.311	N.1	1	UNK0	0.000	
19	   N	2.168	3.640	2.292	N.pl3	1	UNK0	0.000	
20	   C	1.253	-1.292	3.219	C.3	1	UNK0	0.000	
21	   O	0.375	-2.121	2.552	O.3	1	UNK0	0.000	
22	   C	-0.268	-1.454	1.554	C.2	1	UNK0	0.000	
23	   O	-1.139	-1.862	0.728	O.co2	1	UNK0	0.000	
24	   C	0.951	-1.156	4.699	C.3	1	UNK0	0.000	
25	   C	2.653	-1.852	3.046	C.3	1	UNK0	0.000	
26	   C	-3.442	1.201	-1.017	C.3	1	UNK0	0.000	
27	   H	2.390	0.487	-0.677	 H	1	UNK0	0.000	
28	   H	-1.748	0.524	-3.338	 H	1	UNK0	0.000	
29	   H	0.420	0.026	-4.410	 H	1	UNK0	0.000	
30	   H	2.519	1.295	3.626	 H	1	UNK0	0.000	
31	   H	1.588	4.407	2.689	 H	1	UNK0	0.000	
32	   H	3.169	3.770	2.090	 H	1	UNK0	0.000	
33	   H	-0.092	-1.478	4.943	 H	1	UNK0	0.000	
34	   H	1.702	-1.734	5.268	 H	1	UNK0	0.000	
35	   H	1.069	-0.092	4.957	 H	1	UNK0	0.000	
36	   H	2.708	-2.401	2.086	 H	1	UNK0	0.000	
37	   H	2.912	-2.522	3.886	 H	1	UNK0	0.000	
38	   H	3.413	-1.046	3.029	 H	1	UNK0	0.000	
39	   H	-3.754	2.275	-0.906	 H	1	UNK0	0.000	
40	   H	-3.531	0.963	-2.100	 H	1	UNK0	0.000	
41	   H	-4.094	0.555	-0.429	 H	1	UNK0	0.000	
@<TRIPOS>BOND
1 1 2 1
2 2 3 2
3 2 7 1
4 3 4 1
5 4 5 2
6 4 11 1
7 5 6 1
8 5 8 1
9 6 7 2
10 8 9 1
11 8 26 1
12 9 10 2
13 9 11 1
14 11 12 1
15 11 16 1
16 12 13 2
17 12 22 1
18 13 14 1
19 13 20 1
20 14 15 1
21 15 16 2
22 15 19 1
23 16 17 1
24 17 18 3
25 20 21 1
26 20 24 1
27 20 25 1
28 21 22 1
29 22 23 2
30 3 27 1
31 6 28 1
32 7 29 1
33 14 30 1
34 19 31 1
35 19 32 1
36 24 33 1
37 24 34 1
38 24 35 1
39 25 36 1
40 25 37 1
41 25 38 1
42 26 39 1
43 26 40 1
44 26 41 1
@<TRIPOS>SUBSTRUCTURE
1	UNK0	1	GROUP	1 ****	UNK
# created with PyMOL 2.3.2
@<TRIPOS>MOLECULE
505
39 42 1                 
SMALL
USER_CHARGES
@<TRIPOS>ATOM
1	  Br	4.024	-3.350	-2.029	Br	1	UNK0	0.000	
2	   C	2.453	-2.303	-2.270	C.2	1	UNK0	0.000	
3	   C	2.066	-1.413	-1.292	C.2	1	UNK0	0.000	
4	   C	0.916	-0.632	-1.445	C.2	1	UNK0	0.000	
5	   C	0.199	-0.783	-2.588	C.2	1	UNK0	0.000	
6	   C	0.596	-1.695	-3.588	C.2	1	UNK0	0.000	
7	   C	1.729	-2.459	-3.430	C.2	1	UNK0	0.000	
8	   N	-0.921	0.092	-2.548	N.pl3	1	UNK0	0.000	
9	   C	-0.913	0.819	-1.344	C.2	1	UNK0	0.000	
10	   O	-1.743	1.682	-0.963	O.2	1	UNK0	0.000	
11	   C	0.282	0.389	-0.559	C.3	1	UNK0	0.000	
12	   C	-0.117	-0.198	0.725	C.2	1	UNK0	0.000	
13	   C	0.371	0.266	1.903	C.2	1	UNK0	0.000	
14	   O	1.277	1.331	1.919	O.3	1	UNK0	0.000	
15	   C	1.684	1.919	0.738	C.2	1	UNK0	0.000	
16	   C	1.232	1.494	-0.403	C.2	1	UNK0	0.000	
17	   C	1.719	2.179	-1.609	C.1	1	UNK0	0.000	
18	   N	2.102	2.703	-2.545	N.1	1	UNK0	0.000	
19	   N	2.617	3.008	0.833	N.pl3	1	UNK0	0.000	
20	   C	-0.037	-0.325	3.102	C.2	1	UNK0	0.000	
21	   O	0.419	0.112	4.179	O.2	1	UNK0	0.000	
22	   C	-0.929	-1.371	3.070	C.2	1	UNK0	0.000	
23	   C	-1.391	-1.801	1.844	C.2	1	UNK0	0.000	
24	   O	-0.979	-1.217	0.770	O.3	1	UNK0	0.000	
25	   C	-2.374	-2.951	1.783	C.3	1	UNK0	0.000	
26	   O	-3.672	-2.444	1.844	O.3	1	UNK0	0.000	
27	   C	-1.912	0.181	-3.638	C.3	1	UNK0	0.000	
28	   H	2.614	-1.266	-0.368	 H	1	UNK0	0.000	
29	   H	0.014	-1.809	-4.502	 H	1	UNK0	0.000	
30	   H	2.036	-3.165	-4.206	 H	1	UNK0	0.000	
31	   H	3.451	2.989	0.249	 H	1	UNK0	0.000	
32	   H	2.413	3.765	1.484	 H	1	UNK0	0.000	
33	   H	-1.285	-1.872	3.957	 H	1	UNK0	0.000	
34	   H	-2.247	-3.536	0.872	 H	1	UNK0	0.000	
35	   H	-2.259	-3.590	2.703	 H	1	UNK0	0.000	
36	   H	-3.660	-1.574	2.345	 H	1	UNK0	0.000	
37	   H	-1.499	-0.259	-4.565	 H	1	UNK0	0.000	
38	   H	-2.807	-0.383	-3.328	 H	1	UNK0	0.000	
39	   H	-2.129	1.260	-3.847	 H	1	UNK0	0.000	
@<TRIPOS>BOND
1 1 2 1
2 2 3 2
3 2 7 1
4 3 4 1
5 4 5 2
6 4 11 1
7 5 6 1
8 5 8 1
9 6 7 2
10 8 9 1
11 8 27 1
12 9 10 2
13 9 11 1
14 11 12 1
15 11 16 1
16 12 13 2
17 12 24 1
18 13 14 1
19 13 20 1
20 14 15 1
21 15 16 2
22 15 19 1
23 16 17 1
24 17 18 3
25 20 21 2
26 20 22 1
27 22 23 2
28 23 24 1
29 23 25 1
30 25 26 1
31 3 28 1
32 6 29 1
33 7 30 1
34 19 31 1
35 19 32 1
36 22 33 1
37 25 34 1
38 25 35 1
39 26 36 1
40 27 37 1
41 27 38 1
42 27 39 1
@<TRIPOS>SUBSTRUCTURE
1	UNK0	1	GROUP	1 ****	UNK
# created with PyMOL 2.3.2
@<TRIPOS>MOLECULE
513
46 49 1                 
SMALL
USER_CHARGES
@<TRIPOS>ATOM
1	  Br	-1.568	4.805	2.428	Br	1	UNK0	0.000	
2	   C	-1.143	4.104	0.698	C.2	1	UNK0	0.000	
3	   C	-1.679	2.888	0.275	C.2	1	UNK0	0.000	
4	   C	-1.407	2.332	-0.956	C.2	1	UNK0	0.000	
5	   C	-0.564	3.036	-1.783	C.2	1	UNK0	0.000	
6	   C	-0.007	4.262	-1.391	C.2	1	UNK0	0.000	
7	   C	-0.307	4.776	-0.156	C.2	1	UNK0	0.000	
8	   N	-0.420	2.289	-2.983	N.pl3	1	UNK0	0.000	
9	   C	-1.181	1.097	-2.917	C.2	1	UNK0	0.000	
10	   O	-1.302	0.195	-3.781	O.2	1	UNK0	0.000	
11	   C	-1.842	1.089	-1.602	C.2	1	UNK0	0.000	
12	   C	-2.643	0.151	-1.145	C.2	1	UNK0	0.000	
13	   N	-3.266	0.159	0.110	N.pl3	1	UNK0	0.000	
14	   N	-2.688	-0.323	1.270	N.pl3	1	UNK0	0.000	
15	   C	-1.311	-0.653	1.387	C.2	1	UNK0	0.000	
16	   O	-0.605	-0.504	0.377	O.2	1	UNK0	0.000	
17	   C	-0.700	-1.152	2.639	C.3	1	UNK0	0.000	
18	   N	-0.144	-2.415	2.492	N.pl3	1	UNK0	0.000	
19	   C	1.100	-2.820	2.241	C.2	1	UNK0	0.000	
20	   C	1.108	-4.204	2.130	C.2	1	UNK0	0.000	
21	   N	-0.160	-4.614	2.322	N.2	1	UNK0	0.000	
22	   C	-0.905	-3.554	2.538	C.2	1	UNK0	0.000	
23	   C	2.291	-4.870	1.879	C.2	1	UNK0	0.000	
24	   O	2.266	-6.124	1.781	O.2	1	UNK0	0.000	
25	   N	3.389	-4.140	1.753	N.pl3	1	UNK0	0.000	
26	   C	3.370	-2.800	1.865	C.2	1	UNK0	0.000	
27	   O	4.433	-2.147	1.740	O.2	1	UNK0	0.000	
28	   N	2.230	-2.095	2.112	N.pl3	1	UNK0	0.000	
29	   C	2.249	-0.668	2.262	C.3	1	UNK0	0.000	
30	   C	4.677	-4.800	1.482	C.3	1	UNK0	0.000	
31	   H	-2.343	2.359	0.939	 H	1	UNK0	0.000	
32	   H	0.648	4.784	-2.066	 H	1	UNK0	0.000	
33	   H	0.138	5.737	0.134	 H	1	UNK0	0.000	
34	   H	0.161	2.568	-3.808	 H	1	UNK0	0.000	
35	   H	-2.842	-0.696	-1.786	 H	1	UNK0	0.000	
36	   H	-4.240	0.567	0.142	 H	1	UNK0	0.000	
37	   H	-3.282	-0.462	2.116	 H	1	UNK0	0.000	
38	   H	-0.118	-0.337	3.050	 H	1	UNK0	0.000	
39	   H	-1.582	-1.233	3.365	 H	1	UNK0	0.000	
40	   H	-1.967	-3.599	2.725	 H	1	UNK0	0.000	
41	   H	3.329	-0.361	2.030	 H	1	UNK0	0.000	
42	   H	1.702	-0.078	1.544	 H	1	UNK0	0.000	
43	   H	2.198	-0.344	3.328	 H	1	UNK0	0.000	
44	   H	4.527	-5.517	0.650	 H	1	UNK0	0.000	
45	   H	5.006	-5.399	2.359	 H	1	UNK0	0.000	
46	   H	5.460	-4.060	1.221	 H	1	UNK0	0.000	
@<TRIPOS>BOND
1 1 2 1
2 2 3 2
3 2 7 1
4 3 4 1
5 4 5 2
6 4 11 1
7 5 6 1
8 5 8 1
9 6 7 2
10 8 9 1
11 9 10 2
12 9 11 1
13 11 12 2
14 12 13 1
15 13 14 1
16 14 15 1
17 15 16 2
18 15 17 1
19 17 18 1
20 18 19 1
21 18 22 1
22 19 20 2
23 19 28 1
24 20 21 1
25 20 23 1
26 21 22 2
27 23 24 2
28 23 25 1
29 25 26 1
30 25 30 1
31 26 27 2
32 26 28 1
33 28 29 1
34 3 31 1
35 6 32 1
36 7 33 1
37 8 34 1
38 12 35 1
39 13 36 1
40 14 37 1
41 17 38 1
42 17 39 1
43 22 40 1
44 29 41 1
45 29 42 1
46 29 43 1
47 30 44 1
48 30 45 1
49 30 46 1
@<TRIPOS>SUBSTRUCTURE
1	UNK0	1	GROUP	1 ****	UNK
# created with PyMOL 2.3.2
@<TRIPOS>MOLECULE
526
41 44 1                 
SMALL
USER_CHARGES
@<TRIPOS>ATOM
1	  Br	2.093	7.501	3.435	Br	1	UNK0	0.000	
2	   C	1.808	5.695	3.944	C.2	1	UNK0	0.000	
3	   C	1.726	4.688	3.025	C.2	1	UNK0	0.000	
4	   C	1.515	3.381	3.407	C.2	1	UNK0	0.000	
5	   C	1.378	3.017	4.709	C.2	1	UNK0	0.000	
6	   C	1.461	4.042	5.657	C.2	1	UNK0	0.000	
7	   C	1.671	5.345	5.282	C.2	1	UNK0	0.000	
8	   N	1.170	1.628	4.847	N.pl3	1	UNK0	0.000	
9	   C	1.164	1.026	3.550	C.2	1	UNK0	0.000	
10	   O	1.015	-0.148	3.205	O.2	1	UNK0	0.000	
11	   C	1.387	2.159	2.603	C.2	1	UNK0	0.000	
12	   N	1.447	1.967	1.429	N.2	1	UNK0	0.000	
13	   N	1.365	0.989	0.503	N.pl3	1	UNK0	0.000	
14	   C	2.419	0.071	0.340	C.2	1	UNK0	0.000	
15	   O	3.455	0.202	1.084	O.2	1	UNK0	0.000	
16	   C	2.483	-1.057	-0.594	C.3	1	UNK0	0.000	
17	   N	1.331	-1.260	-1.426	N.pl3	1	UNK0	0.000	
18	   C	1.276	-2.313	-2.382	C.2	1	UNK0	0.000	
19	   O	2.327	-3.062	-2.450	O.2	1	UNK0	0.000	
20	   C	0.185	-2.609	-3.259	C.2	1	UNK0	0.000	
21	   C	-1.154	-2.373	-2.985	C.2	1	UNK0	0.000	
22	   C	-2.139	-2.670	-3.864	C.2	1	UNK0	0.000	
23	   C	-1.853	-3.230	-5.093	C.2	1	UNK0	0.000	
24	   C	-0.554	-3.483	-5.403	C.2	1	UNK0	0.000	
25	   C	0.481	-3.179	-4.506	C.2	1	UNK0	0.000	
26	   O	-3.059	-3.418	-5.788	O.3	1	UNK0	0.000	
27	   C	-3.867	-2.324	-5.291	C.3	1	UNK0	0.000	
28	   O	-3.577	-2.534	-3.863	O.3	1	UNK0	0.000	
29	   H	1.827	4.911	1.988	 H	1	UNK0	0.000	
30	   H	1.355	3.784	6.676	 H	1	UNK0	0.000	
31	   H	1.747	6.166	5.977	 H	1	UNK0	0.000	
32	   H	1.032	1.087	5.734	 H	1	UNK0	0.000	
33	   H	0.510	0.902	-0.111	 H	1	UNK0	0.000	
34	   H	3.343	-0.857	-1.289	 H	1	UNK0	0.000	
35	   H	2.718	-1.993	-0.041	 H	1	UNK0	0.000	
36	   H	0.505	-0.644	-1.380	 H	1	UNK0	0.000	
37	   H	-1.424	-1.933	-2.008	 H	1	UNK0	0.000	
38	   H	-0.315	-3.935	-6.383	 H	1	UNK0	0.000	
39	   H	1.481	-3.368	-4.732	 H	1	UNK0	0.000	
40	   H	-4.903	-2.375	-5.514	 H	1	UNK0	0.000	
41	   H	-3.411	-1.380	-5.597	 H	1	UNK0	0.000	
@<TRIPOS>BOND
1 1 2 1
2 2 3 2
3 2 7 1
4 3 4 1
5 4 5 2
6 4 11 1
7 5 6 1
8 5 8 1
9 6 7 2
10 8 9 1
11 9 10 2
12 9 11 1
13 11 12 2
14 12 13 1
15 13 14 1
16 14 15 2
17 14 16 1
18 16 17 1
19 17 18 1
20 18 19 2
21 18 20 1
22 20 21 2
23 20 25 1
24 21 22 1
25 22 23 2
26 22 28 1
27 23 24 1
28 23 26 1
29 24 25 2
30 26 27 1
31 27 28 1
32 3 29 1
33 6 30 1
34 7 31 1
35 8 32 1
36 13 33 1
37 16 34 1
38 16 35 1
39 17 36 1
40 21 37 1
41 24 38 1
42 25 39 1
43 27 40 1
44 27 41 1
@<TRIPOS>SUBSTRUCTURE
1	UNK0	1	GROUP	1 ****	UNK
# created with PyMOL 2.3.2
@<TRIPOS>MOLECULE
550
51 56 1                 
SMALL
USER_CHARGES
@<TRIPOS>ATOM
1	  Br	-4.356	4.365	0.760	Br	1	UNK0	0.000	
2	   C	-2.714	3.886	-0.084	C.2	1	UNK0	0.000	
3	   C	-1.982	2.770	0.304	C.2	1	UNK0	0.000	
4	   C	-0.804	2.432	-0.306	C.2	1	UNK0	0.000	
5	   C	-0.364	3.251	-1.335	C.2	1	UNK0	0.000	
6	   C	-1.085	4.360	-1.725	C.2	1	UNK0	0.000	
7	   C	-2.267	4.690	-1.104	C.2	1	UNK0	0.000	
8	   N	0.870	2.758	-1.863	N.pl3	1	UNK0	0.000	
9	   C	1.231	1.592	-1.154	C.2	1	UNK0	0.000	
10	   O	2.251	0.925	-1.379	O.2	1	UNK0	0.000	
11	   C	0.177	1.362	-0.143	C.3	1	UNK0	0.000	
12	   N	0.823	1.289	1.133	N.3	1	UNK0	0.000	
13	   C	1.442	-0.035	1.142	C.3	1	UNK0	0.000	
14	   C	0.546	-0.924	0.344	C.3	1	UNK0	0.000	
15	   C	-0.453	-0.003	-0.266	C.3	1	UNK0	0.000	
16	   C	-0.594	-0.459	-1.645	C.2	1	UNK0	0.000	
17	   O	-1.439	-0.057	-2.476	O.2	1	UNK0	0.000	
18	   N	0.379	-1.437	-1.915	N.pl3	1	UNK0	0.000	
19	   C	1.263	-1.585	-0.793	C.2	1	UNK0	0.000	
20	   O	2.391	-2.136	-0.742	O.2	1	UNK0	0.000	
21	   C	0.500	-2.194	-3.121	C.3	1	UNK0	0.000	
22	   C	-0.256	-3.472	-3.147	C.3	1	UNK0	0.000	
23	   O	-1.628	-3.317	-2.985	O.3	1	UNK0	0.000	
24	   C	-2.085	-4.615	-2.801	C.3	1	UNK0	0.000	
25	   C	-1.062	-5.362	-2.004	C.3	1	UNK0	0.000	
26	   C	0.193	-4.506	-2.172	C.3	1	UNK0	0.000	
27	   C	1.398	-0.494	2.592	C.3	1	UNK0	0.000	
28	   C	0.772	0.644	3.371	C.3	1	UNK0	0.000	
29	   C	-0.075	1.295	2.269	C.3	1	UNK0	0.000	
30	   H	-2.414	2.191	1.122	 H	1	UNK0	0.000	
31	   H	-0.752	5.022	-2.538	 H	1	UNK0	0.000	
32	   H	-2.838	5.581	-1.424	 H	1	UNK0	0.000	
33	   H	1.409	3.212	-2.658	 H	1	UNK0	0.000	
34	   H	2.476	0.009	0.768	 H	1	UNK0	0.000	
35	   H	0.072	-1.718	0.982	 H	1	UNK0	0.000	
36	   H	-1.411	0.024	0.291	 H	1	UNK0	0.000	
37	   H	0.126	-1.560	-3.955	 H	1	UNK0	0.000	
38	   H	1.561	-2.426	-3.385	 H	1	UNK0	0.000	
39	   H	-0.124	-3.911	-4.175	 H	1	UNK0	0.000	
40	   H	-3.010	-4.540	-2.161	 H	1	UNK0	0.000	
41	   H	-2.366	-5.112	-3.751	 H	1	UNK0	0.000	
42	   H	-0.878	-6.389	-2.380	 H	1	UNK0	0.000	
43	   H	-1.306	-5.353	-0.921	 H	1	UNK0	0.000	
44	   H	0.568	-4.134	-1.221	 H	1	UNK0	0.000	
45	   H	1.016	-5.142	-2.614	 H	1	UNK0	0.000	
46	   H	2.382	-0.792	2.971	 H	1	UNK0	0.000	
47	   H	0.728	-1.381	2.722	 H	1	UNK0	0.000	
48	   H	1.497	1.355	3.771	 H	1	UNK0	0.000	
49	   H	0.101	0.317	4.164	 H	1	UNK0	0.000	
50	   H	-0.370	2.293	2.594	 H	1	UNK0	0.000	
51	   H	-0.948	0.642	2.164	 H	1	UNK0	0.000	
@<TRIPOS>BOND
1 1 2 1
2 2 3 2
3 2 7 1
4 3 4 1
5 4 5 2
6 4 11 1
7 5 6 1
8 5 8 1
9 6 7 2
10 8 9 1
11 9 10 2
12 9 11 1
13 11 12 1
14 11 15 1
15 12 13 1
16 12 29 1
17 13 14 1
18 13 27 1
19 14 15 1
20 14 19 1
21 15 16 1
22 16 17 2
23 16 18 1
24 18 19 1
25 18 21 1
26 19 20 2
27 21 22 1
28 22 23 1
29 22 26 1
30 23 24 1
31 24 25 1
32 25 26 1
33 27 28 1
34 28 29 1
35 3 30 1
36 6 31 1
37 7 32 1
38 8 33 1
39 13 34 1
40 14 35 1
41 15 36 1
42 21 37 1
43 21 38 1
44 22 39 1
45 24 40 1
46 24 41 1
47 25 42 1
48 25 43 1
49 26 44 1
50 26 45 1
51 27 46 1
52 27 47 1
53 28 48 1
54 28 49 1
55 29 50 1
56 29 51 1
@<TRIPOS>SUBSTRUCTURE
1	UNK0	1	GROUP	1 ****	UNK
# created with PyMOL 2.3.2
@<TRIPOS>MOLECULE
556
41 44 1                 
SMALL
USER_CHARGES
@<TRIPOS>ATOM
1	  Br	3.330	3.856	-1.783	Br	1	UNK0	0.000	
2	   C	2.710	2.702	-0.397	C.2	1	UNK0	0.000	
3	   C	2.410	1.408	-0.746	C.2	1	UNK0	0.000	
4	   C	1.952	0.523	0.236	C.2	1	UNK0	0.000	
5	   C	1.813	0.963	1.512	C.2	1	UNK0	0.000	
6	   C	2.115	2.285	1.891	C.2	1	UNK0	0.000	
7	   C	2.563	3.132	0.905	C.2	1	UNK0	0.000	
8	   N	1.335	-0.073	2.350	N.pl3	1	UNK0	0.000	
9	   C	1.167	-1.211	1.559	C.2	1	UNK0	0.000	
10	   O	0.740	-2.369	1.940	O.2	1	UNK0	0.000	
11	   C	1.570	-0.878	0.160	C.3	1	UNK0	0.000	
12	   C	2.601	-1.819	-0.192	C.2	1	UNK0	0.000	
13	   C	2.400	-2.760	-1.131	C.2	1	UNK0	0.000	
14	   N	3.564	-3.484	-1.226	N.pl3	1	UNK0	0.000	
15	   N	4.433	-2.991	-0.370	N.2	1	UNK0	0.000	
16	   C	3.913	-1.964	0.303	C.2	1	UNK0	0.000	
17	   C	4.550	-1.125	1.359	C.3	1	UNK0	0.000	
18	   O	1.191	-2.904	-1.836	O.3	1	UNK0	0.000	
19	   C	0.183	-2.005	-1.511	C.2	1	UNK0	0.000	
20	   C	0.320	-1.077	-0.613	C.2	1	UNK0	0.000	
21	   C	-0.826	-0.162	-0.340	C.2	1	UNK0	0.000	
22	   O	-1.873	-0.332	-0.990	O.co2	1	UNK0	0.000	
23	   O	-0.778	0.844	0.586	O.3	1	UNK0	0.000	
24	   C	-1.838	1.725	0.871	C.3	1	UNK0	0.000	
25	   C	-3.018	0.874	1.352	C.3	1	UNK0	0.000	
26	   N	-1.089	-2.089	-2.192	N.pl3	1	UNK0	0.000	
27	   H	2.522	1.051	-1.777	 H	1	UNK0	0.000	
28	   H	2.003	2.626	2.902	 H	1	UNK0	0.000	
29	   H	2.810	4.159	1.142	 H	1	UNK0	0.000	
30	   H	1.130	-0.031	3.389	 H	1	UNK0	0.000	
31	   H	3.727	-4.291	-1.870	 H	1	UNK0	0.000	
32	   H	5.624	-1.382	1.453	 H	1	UNK0	0.000	
33	   H	4.069	-1.403	2.319	 H	1	UNK0	0.000	
34	   H	4.503	-0.047	1.133	 H	1	UNK0	0.000	
35	   H	-2.118	2.351	0.018	 H	1	UNK0	0.000	
36	   H	-1.549	2.366	1.732	 H	1	UNK0	0.000	
37	   H	-2.657	-0.017	1.904	 H	1	UNK0	0.000	
38	   H	-3.683	1.447	2.025	 H	1	UNK0	0.000	
39	   H	-3.631	0.586	0.465	 H	1	UNK0	0.000	
40	   H	-1.860	-2.562	-1.715	 H	1	UNK0	0.000	
41	   H	-1.186	-1.678	-3.121	 H	1	UNK0	0.000	
@<TRIPOS>BOND
1 1 2 1
2 2 3 2
3 2 7 1
4 3 4 1
5 4 5 2
6 4 11 1
7 5 6 1
8 5 8 1
9 6 7 2
10 8 9 1
11 9 10 2
12 9 11 1
13 11 12 1
14 11 20 1
15 12 13 2
16 12 16 1
17 13 14 1
18 13 18 1
19 14 15 1
20 15 16 2
21 16 17 1
22 18 19 1
23 19 20 2
24 19 26 1
25 20 21 1
26 21 22 2
27 21 23 1
28 23 24 1
29 24 25 1
30 3 27 1
31 6 28 1
32 7 29 1
33 8 30 1
34 14 31 1
35 17 32 1
36 17 33 1
37 17 34 1
38 24 35 1
39 24 36 1
40 25 37 1
41 25 38 1
42 25 39 1
43 26 40 1
44 26 41 1
@<TRIPOS>SUBSTRUCTURE
1	UNK0	1	GROUP	1 ****	UNK
# created with PyMOL 2.3.2
@<TRIPOS>MOLECULE
558
38 41 1                 
SMALL
USER_CHARGES
@<TRIPOS>ATOM
1	  Br	-0.745	2.753	-4.904	Br	1	UNK0	0.000	
2	   C	-0.468	0.992	-4.249	C.2	1	UNK0	0.000	
3	   C	-0.482	0.697	-2.882	C.2	1	UNK0	0.000	
4	   C	-0.282	-0.576	-2.418	C.2	1	UNK0	0.000	
5	   C	-0.061	-1.585	-3.309	C.2	1	UNK0	0.000	
6	   C	-0.037	-1.340	-4.689	C.2	1	UNK0	0.000	
7	   C	-0.242	-0.053	-5.125	C.2	1	UNK0	0.000	
8	   N	0.123	-2.820	-2.638	N.pl3	1	UNK0	0.000	
9	   C	0.012	-2.570	-1.259	C.2	1	UNK0	0.000	
10	   O	0.111	-3.394	-0.312	O.2	1	UNK0	0.000	
11	   C	-0.251	-1.129	-1.052	C.3	1	UNK0	0.000	
12	   C	0.869	-0.526	-0.259	C.2	1	UNK0	0.000	
13	   C	0.736	0.126	0.866	C.2	1	UNK0	0.000	
14	   N	-0.566	0.287	1.396	N.pl3	1	UNK0	0.000	
15	   C	-1.689	-0.250	0.715	C.2	1	UNK0	0.000	
16	   C	-1.559	-0.904	-0.413	C.2	1	UNK0	0.000	
17	   C	-2.770	-1.427	-1.053	C.1	1	UNK0	0.000	
18	   N	-3.714	-1.852	-1.568	N.1	1	UNK0	0.000	
19	   N	-3.017	-0.072	1.279	N.pl3	1	UNK0	0.000	
20	   C	2.080	0.556	1.323	C.3	1	UNK0	0.000	
21	   O	3.005	0.100	0.370	O.3	1	UNK0	0.000	
22	   C	2.299	-0.567	-0.612	C.2	1	UNK0	0.000	
23	   O	2.816	-1.118	-1.644	O.co2	1	UNK0	0.000	
24	   C	2.450	-0.128	2.641	C.3	1	UNK0	0.000	
25	   C	2.145	2.068	1.487	C.3	1	UNK0	0.000	
26	   H	-0.661	1.534	-2.218	 H	1	UNK0	0.000	
27	   H	0.133	-2.108	-5.420	 H	1	UNK0	0.000	
28	   H	-0.224	0.140	-6.197	 H	1	UNK0	0.000	
29	   H	0.310	-3.758	-3.113	 H	1	UNK0	0.000	
30	   H	-0.734	0.803	2.298	 H	1	UNK0	0.000	
31	   H	-3.882	-0.098	0.715	 H	1	UNK0	0.000	
32	   H	-3.088	0.087	2.297	 H	1	UNK0	0.000	
33	   H	3.559	-0.095	2.693	 H	1	UNK0	0.000	
34	   H	2.068	0.424	3.505	 H	1	UNK0	0.000	
35	   H	2.153	-1.181	2.602	 H	1	UNK0	0.000	
36	   H	2.272	2.347	2.559	 H	1	UNK0	0.000	
37	   H	3.035	2.415	0.897	 H	1	UNK0	0.000	
38	   H	1.250	2.531	1.045	 H	1	UNK0	0.000	
@<TRIPOS>BOND
1 1 2 1
2 2 3 2
3 2 7 1
4 3 4 1
5 4 5 2
6 4 11 1
7 5 6 1
8 5 8 1
9 6 7 2
10 8 9 1
11 9 10 2
12 9 11 1
13 11 12 1
14 11 16 1
15 12 13 2
16 12 22 1
17 13 14 1
18 13 20 1
19 14 15 1
20 15 16 2
21 15 19 1
22 16 17 1
23 17 18 3
24 20 21 1
25 20 24 1
26 20 25 1
27 21 22 1
28 22 23 2
29 3 26 1
30 6 27 1
31 7 28 1
32 8 29 1
33 14 30 1
34 19 31 1
35 19 32 1
36 24 33 1
37 24 34 1
38 24 35 1
39 25 36 1
40 25 37 1
41 25 38 1
@<TRIPOS>SUBSTRUCTURE
1	UNK0	1	GROUP	1 ****	UNK
# created with PyMOL 2.3.2
@<TRIPOS>MOLECULE
559
49 52 1                 
SMALL
USER_CHARGES
@<TRIPOS>ATOM
1	  Br	3.781	0.055	4.675	Br	1	UNK0	0.000	
2	   C	2.559	1.326	3.916	C.2	1	UNK0	0.000	
3	   C	1.984	1.130	2.674	C.2	1	UNK0	0.000	
4	   C	1.105	2.038	2.120	C.2	1	UNK0	0.000	
5	   C	0.827	3.160	2.873	C.2	1	UNK0	0.000	
6	   C	1.404	3.361	4.123	C.2	1	UNK0	0.000	
7	   C	2.268	2.449	4.647	C.2	1	UNK0	0.000	
8	   N	-0.092	3.989	2.144	N.pl3	1	UNK0	0.000	
9	   C	-0.393	3.369	0.906	C.2	1	UNK0	0.000	
10	   O	-1.161	3.856	0.044	O.2	1	UNK0	0.000	
11	   C	0.350	2.093	0.847	C.3	1	UNK0	0.000	
12	   N	1.208	2.046	-0.306	N.3	1	UNK0	0.000	
13	   C	0.318	1.677	-1.387	C.3	1	UNK0	0.000	
14	   C	-0.547	0.603	-0.783	C.3	1	UNK0	0.000	
15	   C	-0.615	0.974	0.679	C.3	1	UNK0	0.000	
16	   C	-0.292	-0.260	1.409	C.2	1	UNK0	0.000	
17	   O	-0.352	-0.437	2.652	O.2	1	UNK0	0.000	
18	   N	0.120	-1.285	0.476	N.pl3	1	UNK0	0.000	
19	   C	0.075	-0.738	-0.832	C.2	1	UNK0	0.000	
20	   O	0.505	-1.324	-1.854	O.2	1	UNK0	0.000	
21	   C	0.512	-2.635	0.796	C.3	1	UNK0	0.000	
22	   C	0.875	-3.425	-0.438	C.3	1	UNK0	0.000	
23	   C	1.711	-2.589	1.748	C.3	1	UNK0	0.000	
24	   C	-0.614	-3.374	1.485	C.3	1	UNK0	0.000	
25	   C	1.107	1.217	-2.583	C.3	1	UNK0	0.000	
26	   C	0.215	0.838	-3.691	C.2	1	UNK0	0.000	
27	   O	0.728	0.428	-4.768	O.2	1	UNK0	0.000	
28	   N	-1.201	0.897	-3.643	N.pl3	1	UNK0	0.000	
29	   H	2.261	0.228	2.159	 H	1	UNK0	0.000	
30	   H	1.179	4.246	4.707	 H	1	UNK0	0.000	
31	   H	2.705	2.637	5.633	 H	1	UNK0	0.000	
32	   H	-0.452	4.897	2.510	 H	1	UNK0	0.000	
33	   H	1.900	1.290	-0.179	 H	1	UNK0	0.000	
34	   H	-0.302	2.541	-1.730	 H	1	UNK0	0.000	
35	   H	-1.569	0.570	-1.188	 H	1	UNK0	0.000	
36	   H	-1.632	1.331	0.956	 H	1	UNK0	0.000	
37	   H	-0.013	-3.459	-1.101	 H	1	UNK0	0.000	
38	   H	1.078	-4.491	-0.169	 H	1	UNK0	0.000	
39	   H	1.787	-3.027	-0.932	 H	1	UNK0	0.000	
40	   H	2.482	-1.980	1.235	 H	1	UNK0	0.000	
41	   H	2.086	-3.596	1.958	 H	1	UNK0	0.000	
42	   H	1.354	-2.044	2.654	 H	1	UNK0	0.000	
43	   H	-0.507	-4.453	1.262	 H	1	UNK0	0.000	
44	   H	-0.611	-3.251	2.578	 H	1	UNK0	0.000	
45	   H	-1.568	-2.985	1.089	 H	1	UNK0	0.000	
46	   H	1.663	2.135	-2.938	 H	1	UNK0	0.000	
47	   H	1.890	0.485	-2.352	 H	1	UNK0	0.000	
48	   H	-1.753	1.696	-3.299	 H	1	UNK0	0.000	
49	   H	-1.724	0.050	-3.989	 H	1	UNK0	0.000	
@<TRIPOS>BOND
1 1 2 1
2 2 3 2
3 2 7 1
4 3 4 1
5 4 5 2
6 4 11 1
7 5 6 1
8 5 8 1
9 6 7 2
10 8 9 1
11 9 10 2
12 9 11 1
13 11 12 1
14 11 15 1
15 12 13 1
16 13 14 1
17 13 25 1
18 14 15 1
19 14 19 1
20 15 16 1
21 16 17 2
22 16 18 1
23 18 19 1
24 18 21 1
25 19 20 2
26 21 22 1
27 21 23 1
28 21 24 1
29 25 26 1
30 26 27 2
31 26 28 1
32 3 29 1
33 6 30 1
34 7 31 1
35 8 32 1
36 12 33 1
37 13 34 1
38 14 35 1
39 15 36 1
40 22 37 1
41 22 38 1
42 22 39 1
43 23 40 1
44 23 41 1
45 23 42 1
46 24 43 1
47 24 44 1
48 24 45 1
49 25 46 1
50 25 47 1
51 28 48 1
52 28 49 1
@<TRIPOS>SUBSTRUCTURE
1	UNK0	1	GROUP	1 ****	UNK
# created with PyMOL 2.3.2
@<TRIPOS>MOLECULE
566
49 52 1                 
SMALL
USER_CHARGES
@<TRIPOS>ATOM
1	  Br	-0.704	4.785	-4.369	Br	1	UNK0	0.000	
2	   C	-1.507	3.419	-3.306	C.2	1	UNK0	0.000	
3	   C	-0.826	2.855	-2.257	C.2	1	UNK0	0.000	
4	   C	-1.408	1.847	-1.467	C.2	1	UNK0	0.000	
5	   C	-2.673	1.394	-1.717	C.2	1	UNK0	0.000	
6	   C	-3.369	1.971	-2.789	C.2	1	UNK0	0.000	
7	   C	-2.781	2.955	-3.549	C.2	1	UNK0	0.000	
8	   N	-3.042	0.381	-0.792	N.pl3	1	UNK0	0.000	
9	   C	-1.948	0.191	0.083	C.2	1	UNK0	0.000	
10	   O	-1.979	-0.662	1.031	O.2	1	UNK0	0.000	
11	   C	-0.882	1.099	-0.304	C.3	1	UNK0	0.000	
12	   N	-0.457	1.983	0.764	N.3	1	UNK0	0.000	
13	   C	0.598	1.274	1.465	C.3	1	UNK0	0.000	
14	   C	1.373	0.667	0.331	C.3	1	UNK0	0.000	
15	   C	0.346	0.299	-0.685	C.3	1	UNK0	0.000	
16	   C	0.151	-1.153	-0.549	C.2	1	UNK0	0.000	
17	   O	-0.802	-1.875	-0.991	O.2	1	UNK0	0.000	
18	   N	1.230	-1.710	0.191	N.pl3	1	UNK0	0.000	
19	   C	1.989	-0.628	0.692	C.2	1	UNK0	0.000	
20	   O	3.061	-0.711	1.365	O.2	1	UNK0	0.000	
21	   C	1.507	-3.118	0.397	C.3	1	UNK0	0.000	
22	   C	0.841	-3.658	1.621	C.3	1	UNK0	0.000	
23	   C	1.218	-5.142	1.712	C.3	1	UNK0	0.000	
24	   C	0.745	-5.880	0.490	C.3	1	UNK0	0.000	
25	   C	1.394	2.249	2.274	C.3	1	UNK0	0.000	
26	   O	0.524	2.858	3.187	O.3	1	UNK0	0.000	
27	   C	1.940	3.339	1.385	C.3	1	UNK0	0.000	
28	   H	0.193	3.174	-2.004	 H	1	UNK0	0.000	
29	   H	-4.380	1.612	-2.992	 H	1	UNK0	0.000	
30	   H	-3.311	3.409	-4.382	 H	1	UNK0	0.000	
31	   H	-3.975	-0.105	-0.804	 H	1	UNK0	0.000	
32	   H	-1.236	2.267	1.385	 H	1	UNK0	0.000	
33	   H	0.212	0.451	2.087	 H	1	UNK0	0.000	
34	   H	2.118	1.366	-0.101	 H	1	UNK0	0.000	
35	   H	0.708	0.567	-1.709	 H	1	UNK0	0.000	
36	   H	1.197	-3.739	-0.464	 H	1	UNK0	0.000	
37	   H	2.609	-3.245	0.502	 H	1	UNK0	0.000	
38	   H	-0.271	-3.653	1.488	 H	1	UNK0	0.000	
39	   H	1.058	-3.130	2.547	 H	1	UNK0	0.000	
40	   H	2.339	-5.154	1.722	 H	1	UNK0	0.000	
41	   H	0.868	-5.585	2.656	 H	1	UNK0	0.000	
42	   H	-0.190	-5.481	0.070	 H	1	UNK0	0.000	
43	   H	1.512	-5.822	-0.329	 H	1	UNK0	0.000	
44	   H	0.661	-6.956	0.739	 H	1	UNK0	0.000	
45	   H	2.230	1.733	2.791	 H	1	UNK0	0.000	
46	   H	0.682	3.836	3.228	 H	1	UNK0	0.000	
47	   H	2.879	2.992	0.910	 H	1	UNK0	0.000	
48	   H	1.165	3.598	0.652	 H	1	UNK0	0.000	
49	   H	2.216	4.196	2.053	 H	1	UNK0	0.000	
@<TRIPOS>BOND
1 1 2 1
2 2 3 2
3 2 7 1
4 3 4 1
5 4 5 2
6 4 11 1
7 5 6 1
8 5 8 1
9 6 7 2
10 8 9 1
11 9 10 2
12 9 11 1
13 11 12 1
14 11 15 1
15 12 13 1
16 13 14 1
17 13 25 1
18 14 15 1
19 14 19 1
20 15 16 1
21 16 17 2
22 16 18 1
23 18 19 1
24 18 21 1
25 19 20 2
26 21 22 1
27 22 23 1
28 23 24 1
29 25 26 1
30 25 27 1
31 3 28 1
32 6 29 1
33 7 30 1
34 8 31 1
35 12 32 1
36 13 33 1
37 14 34 1
38 15 35 1
39 21 36 1
40 21 37 1
41 22 38 1
42 22 39 1
43 23 40 1
44 23 41 1
45 24 42 1
46 24 43 1
47 24 44 1
48 25 45 1
49 26 46 1
50 27 47 1
51 27 48 1
52 27 49 1
@<TRIPOS>SUBSTRUCTURE
1	UNK0	1	GROUP	1 ****	UNK
# created with PyMOL 2.3.2
@<TRIPOS>MOLECULE
571
53 57 1                 
SMALL
USER_CHARGES
@<TRIPOS>ATOM
1	  Br	-1.149	-2.926	2.449	Br	1	UNK0	0.000	
2	   C	0.170	-2.467	1.147	C.2	1	UNK0	0.000	
3	   C	-0.129	-1.753	0.008	C.2	1	UNK0	0.000	
4	   C	0.843	-1.424	-0.949	C.2	1	UNK0	0.000	
5	   C	2.129	-1.843	-0.710	C.2	1	UNK0	0.000	
6	   C	2.438	-2.562	0.436	C.2	1	UNK0	0.000	
7	   C	1.475	-2.880	1.368	C.2	1	UNK0	0.000	
8	   N	2.992	-1.454	-1.761	N.pl3	1	UNK0	0.000	
9	   C	2.216	-0.757	-2.710	C.2	1	UNK0	0.000	
10	   O	2.707	-0.281	-3.772	O.2	1	UNK0	0.000	
11	   C	0.820	-0.712	-2.227	C.3	1	UNK0	0.000	
12	   N	-0.073	-1.377	-3.181	N.3	1	UNK0	0.000	
13	   C	-1.329	-0.666	-3.097	C.3	1	UNK0	0.000	
14	   C	-1.050	0.709	-2.633	C.3	1	UNK0	0.000	
15	   C	0.402	0.710	-2.191	C.3	1	UNK0	0.000	
16	   C	0.419	1.395	-0.904	C.2	1	UNK0	0.000	
17	   O	1.402	1.506	-0.130	O.2	1	UNK0	0.000	
18	   N	-0.883	1.950	-0.619	N.pl3	1	UNK0	0.000	
19	   C	-1.775	1.153	-1.426	C.2	1	UNK0	0.000	
20	   O	-2.953	0.897	-1.135	O.2	1	UNK0	0.000	
21	   C	-1.235	3.046	0.226	C.3	1	UNK0	0.000	
22	   C	-1.527	2.708	1.659	C.3	1	UNK0	0.000	
23	   C	-0.400	2.117	2.401	C.2	1	UNK0	0.000	
24	   C	0.522	2.953	3.019	C.2	1	UNK0	0.000	
25	   C	1.548	2.422	3.726	C.2	1	UNK0	0.000	
26	   C	1.726	1.076	3.867	C.2	1	UNK0	0.000	
27	   C	0.800	0.251	3.247	C.2	1	UNK0	0.000	
28	   C	-0.242	0.762	2.528	C.2	1	UNK0	0.000	
29	   C	-2.055	-0.729	-4.420	C.3	1	UNK0	0.000	
30	   O	-3.254	-0.048	-4.333	O.3	1	UNK0	0.000	
31	   C	-1.200	-0.250	-5.568	C.3	1	UNK0	0.000	
32	   H	-1.152	-1.443	-0.138	 H	1	UNK0	0.000	
33	   H	3.455	-2.899	0.636	 H	1	UNK0	0.000	
34	   H	1.699	-3.444	2.275	 H	1	UNK0	0.000	
35	   H	4.029	-1.651	-1.820	 H	1	UNK0	0.000	
36	   H	-0.192	-2.390	-2.951	 H	1	UNK0	0.000	
37	   H	-1.965	-1.190	-2.361	 H	1	UNK0	0.000	
38	   H	-1.225	1.494	-3.403	 H	1	UNK0	0.000	
39	   H	0.964	1.353	-2.912	 H	1	UNK0	0.000	
40	   H	-0.375	3.782	0.173	 H	1	UNK0	0.000	
41	   H	-2.142	3.572	-0.176	 H	1	UNK0	0.000	
42	   H	-2.401	2.009	1.728	 H	1	UNK0	0.000	
43	   H	-1.902	3.640	2.176	 H	1	UNK0	0.000	
44	   H	0.415	4.036	2.930	 H	1	UNK0	0.000	
45	   H	2.251	3.128	4.196	 H	1	UNK0	0.000	
46	   H	2.538	0.645	4.428	 H	1	UNK0	0.000	
47	   H	0.939	-0.825	3.362	 H	1	UNK0	0.000	
48	   H	-0.960	0.126	2.047	 H	1	UNK0	0.000	
49	   H	-2.281	-1.803	-4.610	 H	1	UNK0	0.000	
50	   H	-3.718	0.005	-5.190	 H	1	UNK0	0.000	
51	   H	-0.506	-1.018	-5.936	 H	1	UNK0	0.000	
52	   H	-0.655	0.674	-5.345	 H	1	UNK0	0.000	
53	   H	-1.894	-0.018	-6.414	 H	1	UNK0	0.000	
@<TRIPOS>BOND
1 1 2 1
2 2 3 2
3 2 7 1
4 3 4 1
5 4 5 2
6 4 11 1
7 5 6 1
8 5 8 1
9 6 7 2
10 8 9 1
11 9 10 2
12 9 11 1
13 11 12 1
14 11 15 1
15 12 13 1
16 13 14 1
17 13 29 1
18 14 15 1
19 14 19 1
20 15 16 1
21 16 17 2
22 16 18 1
23 18 19 1
24 18 21 1
25 19 20 2
26 21 22 1
27 22 23 1
28 23 24 2
29 23 28 1
30 24 25 1
31 25 26 2
32 26 27 1
33 27 28 2
34 29 30 1
35 29 31 1
36 3 32 1
37 6 33 1
38 7 34 1
39 8 35 1
40 12 36 1
41 13 37 1
42 14 38 1
43 15 39 1
44 21 40 1
45 21 41 1
46 22 42 1
47 22 43 1
48 24 44 1
49 25 45 1
50 26 46 1
51 27 47 1
52 28 48 1
53 29 49 1
54 30 50 1
55 31 51 1
56 31 52 1
57 31 53 1
@<TRIPOS>SUBSTRUCTURE
1	UNK0	1	GROUP	1 ****	UNK
# created with PyMOL 2.3.2
@<TRIPOS>MOLECULE
578
45 48 1                 
SMALL
USER_CHARGES
@<TRIPOS>ATOM
1	  Br	3.521	2.179	3.622	Br	1	UNK0	0.000	
2	   C	2.733	2.894	2.036	C.2	1	UNK0	0.000	
3	   C	1.670	2.292	1.411	C.2	1	UNK0	0.000	
4	   C	1.065	2.789	0.243	C.2	1	UNK0	0.000	
5	   C	1.585	3.937	-0.275	C.2	1	UNK0	0.000	
6	   C	2.676	4.568	0.352	C.2	1	UNK0	0.000	
7	   C	3.246	4.056	1.494	C.2	1	UNK0	0.000	
8	   N	0.876	4.330	-1.442	N.pl3	1	UNK0	0.000	
9	   C	-0.137	3.375	-1.657	C.2	1	UNK0	0.000	
10	   O	-0.996	3.398	-2.613	O.2	1	UNK0	0.000	
11	   C	-0.033	2.357	-0.596	C.3	1	UNK0	0.000	
12	   N	-1.310	2.484	0.129	N.3	1	UNK0	0.000	
13	   C	-2.179	1.430	-0.293	C.3	1	UNK0	0.000	
14	   C	-1.263	0.331	-0.688	C.3	1	UNK0	0.000	
15	   C	0.029	0.970	-1.120	C.3	1	UNK0	0.000	
16	   C	1.042	0.082	-0.597	C.2	1	UNK0	0.000	
17	   O	2.260	0.084	-0.943	O.2	1	UNK0	0.000	
18	   N	0.451	-0.786	0.360	N.pl3	1	UNK0	0.000	
19	   C	-0.916	-0.447	0.543	C.2	1	UNK0	0.000	
20	   O	-1.607	-0.762	1.532	O.2	1	UNK0	0.000	
21	   C	1.192	-1.850	1.024	C.3	1	UNK0	0.000	
22	   C	1.125	-3.140	0.264	C.3	1	UNK0	0.000	
23	   C	-0.279	-3.653	0.089	C.3	1	UNK0	0.000	
24	   C	-0.167	-4.963	-0.699	C.3	1	UNK0	0.000	
25	   C	-3.155	1.812	-1.381	C.3	1	UNK0	0.000	
26	   H	1.290	1.393	1.854	 H	1	UNK0	0.000	
27	   H	3.062	5.489	-0.100	 H	1	UNK0	0.000	
28	   H	4.088	4.529	1.992	 H	1	UNK0	0.000	
29	   H	1.059	5.180	-2.052	 H	1	UNK0	0.000	
30	   H	-1.154	2.474	1.161	 H	1	UNK0	0.000	
31	   H	-2.762	1.086	0.623	 H	1	UNK0	0.000	
32	   H	-1.682	-0.339	-1.472	 H	1	UNK0	0.000	
33	   H	0.061	1.057	-2.249	 H	1	UNK0	0.000	
34	   H	2.255	-1.570	1.120	 H	1	UNK0	0.000	
35	   H	0.774	-1.987	2.051	 H	1	UNK0	0.000	
36	   H	1.687	-3.897	0.832	 H	1	UNK0	0.000	
37	   H	1.554	-2.966	-0.746	 H	1	UNK0	0.000	
38	   H	-0.914	-2.927	-0.470	 H	1	UNK0	0.000	
39	   H	-0.747	-3.848	1.055	 H	1	UNK0	0.000	
40	   H	-1.116	-5.189	-1.221	 H	1	UNK0	0.000	
41	   H	0.705	-4.915	-1.373	 H	1	UNK0	0.000	
42	   H	0.084	-5.749	0.071	 H	1	UNK0	0.000	
43	   H	-4.151	1.315	-1.172	 H	1	UNK0	0.000	
44	   H	-3.350	2.880	-1.321	 H	1	UNK0	0.000	
45	   H	-2.866	1.418	-2.369	 H	1	UNK0	0.000	
@<TRIPOS>BOND
1 1 2 1
2 2 3 2
3 2 7 1
4 3 4 1
5 4 5 2
6 4 11 1
7 5 6 1
8 5 8 1
9 6 7 2
10 8 9 1
11 9 10 2
12 9 11 1
13 11 12 1
14 11 15 1
15 12 13 1
16 13 14 1
17 13 25 1
18 14 15 1
19 14 19 1
20 15 16 1
21 16 17 2
22 16 18 1
23 18 19 1
24 18 21 1
25 19 20 2
26 21 22 1
27 22 23 1
28 23 24 1
29 3 26 1
30 6 27 1
31 7 28 1
32 8 29 1
33 12 30 1
34 13 31 1
35 14 32 1
36 15 33 1
37 21 34 1
38 21 35 1
39 22 36 1
40 22 37 1
41 23 38 1
42 23 39 1
43 24 40 1
44 24 41 1
45 24 42 1
46 25 43 1
47 25 44 1
48 25 45 1
@<TRIPOS>SUBSTRUCTURE
1	UNK0	1	GROUP	1 ****	UNK
# created with PyMOL 2.3.2
@<TRIPOS>MOLECULE
579
47 50 1                 
SMALL
USER_CHARGES
@<TRIPOS>ATOM
1	  Br	5.998	-1.275	2.196	Br	1	UNK0	0.000	
2	   C	4.494	-2.021	1.291	C.2	1	UNK0	0.000	
3	   C	3.332	-1.317	1.066	C.2	1	UNK0	0.000	
4	   C	2.236	-1.868	0.403	C.2	1	UNK0	0.000	
5	   C	2.307	-3.163	-0.046	C.2	1	UNK0	0.000	
6	   C	3.463	-3.897	0.166	C.2	1	UNK0	0.000	
7	   C	4.549	-3.319	0.834	C.2	1	UNK0	0.000	
8	   N	1.086	-3.525	-0.698	N.pl3	1	UNK0	0.000	
9	   C	0.213	-2.409	-0.655	C.2	1	UNK0	0.000	
10	   O	-0.929	-2.414	-1.154	O.2	1	UNK0	0.000	
11	   C	0.891	-1.331	0.047	C.3	1	UNK0	0.000	
12	   N	1.015	-0.215	-0.890	N.3	1	UNK0	0.000	
13	   C	0.800	0.969	-0.113	C.3	1	UNK0	0.000	
14	   C	-0.248	0.571	0.861	C.3	1	UNK0	0.000	
15	   C	0.191	-0.816	1.269	C.3	1	UNK0	0.000	
16	   C	-1.042	-1.501	1.632	C.2	1	UNK0	0.000	
17	   O	-1.127	-2.548	2.309	O.2	1	UNK0	0.000	
18	   N	-2.127	-0.767	1.078	N.pl3	1	UNK0	0.000	
19	   C	-1.587	0.311	0.277	C.2	1	UNK0	0.000	
20	   O	-2.211	0.822	-0.667	O.2	1	UNK0	0.000	
21	   C	-3.510	-1.074	1.302	C.3	1	UNK0	0.000	
22	   C	-4.120	-2.026	0.328	C.3	1	UNK0	0.000	
23	   O	-3.501	-3.265	0.311	O.3	1	UNK0	0.000	
24	   C	-4.096	-4.125	-0.609	C.3	1	UNK0	0.000	
25	   C	0.491	2.177	-0.929	C.3	1	UNK0	0.000	
26	   C	1.604	2.460	-1.842	C.2	1	UNK0	0.000	
27	   O	2.621	1.710	-1.839	O.2	1	UNK0	0.000	
28	   N	1.554	3.571	-2.735	N.pl3	1	UNK0	0.000	
29	   H	3.310	-0.297	1.434	 H	1	UNK0	0.000	
30	   H	3.505	-4.915	-0.193	 H	1	UNK0	0.000	
31	   H	5.443	-3.909	0.990	 H	1	UNK0	0.000	
32	   H	0.897	-4.473	-1.128	 H	1	UNK0	0.000	
33	   H	0.261	-0.264	-1.616	 H	1	UNK0	0.000	
34	   H	1.713	1.223	0.492	 H	1	UNK0	0.000	
35	   H	-0.314	1.256	1.737	 H	1	UNK0	0.000	
36	   H	0.891	-0.675	2.125	 H	1	UNK0	0.000	
37	   H	-4.099	-0.131	1.233	 H	1	UNK0	0.000	
38	   H	-3.647	-1.533	2.318	 H	1	UNK0	0.000	
39	   H	-4.178	-1.613	-0.705	 H	1	UNK0	0.000	
40	   H	-5.170	-2.195	0.642	 H	1	UNK0	0.000	
41	   H	-3.522	-5.092	-0.542	 H	1	UNK0	0.000	
42	   H	-5.133	-4.374	-0.367	 H	1	UNK0	0.000	
43	   H	-3.948	-3.780	-1.657	 H	1	UNK0	0.000	
44	   H	-0.470	2.152	-1.463	 H	1	UNK0	0.000	
45	   H	0.422	3.045	-0.222	 H	1	UNK0	0.000	
46	   H	2.051	3.533	-3.648	 H	1	UNK0	0.000	
47	   H	1.016	4.420	-2.466	 H	1	UNK0	0.000	
@<TRIPOS>BOND
1 1 2 1
2 2 3 2
3 2 7 1
4 3 4 1
5 4 5 2
6 4 11 1
7 5 6 1
8 5 8 1
9 6 7 2
10 8 9 1
11 9 10 2
12 9 11 1
13 11 12 1
14 11 15 1
15 12 13 1
16 13 14 1
17 13 25 1
18 14 15 1
19 14 19 1
20 15 16 1
21 16 17 2
22 16 18 1
23 18 19 1
24 18 21 1
25 19 20 2
26 21 22 1
27 22 23 1
28 23 24 1
29 25 26 1
30 26 27 2
31 26 28 1
32 3 29 1
33 6 30 1
34 7 31 1
35 8 32 1
36 12 33 1
37 13 34 1
38 14 35 1
39 15 36 1
40 21 37 1
41 21 38 1
42 22 39 1
43 22 40 1
44 24 41 1
45 24 42 1
46 24 43 1
47 25 44 1
48 25 45 1
49 28 46 1
50 28 47 1
@<TRIPOS>SUBSTRUCTURE
1	UNK0	1	GROUP	1 ****	UNK
# created with PyMOL 2.3.2
@<TRIPOS>MOLECULE
588
39 42 1                 
SMALL
USER_CHARGES
@<TRIPOS>ATOM
1	  Br	4.243	-4.413	0.103	Br	1	UNK0	0.000	
2	   C	3.066	-3.151	0.911	C.2	1	UNK0	0.000	
3	   C	2.012	-2.687	0.179	C.2	1	UNK0	0.000	
4	   C	1.141	-1.769	0.741	C.2	1	UNK0	0.000	
5	   C	1.337	-1.322	2.042	C.2	1	UNK0	0.000	
6	   C	2.398	-1.782	2.795	C.2	1	UNK0	0.000	
7	   C	3.238	-2.693	2.195	C.2	1	UNK0	0.000	
8	   N	0.516	-0.391	2.718	N.pl3	1	UNK0	0.000	
9	   N	0.483	-0.343	4.055	N.2	1	UNK0	0.000	
10	   N	-0.358	0.608	4.359	N.2	1	UNK0	0.000	
11	   N	-0.852	1.157	3.261	N.2	1	UNK0	0.000	
12	   C	-0.291	0.516	2.195	C.2	1	UNK0	0.000	
13	   C	-0.632	0.891	0.779	C.3	1	UNK0	0.000	
14	   N	-0.802	-0.303	-0.045	N.pl3	1	UNK0	0.000	
15	   C	0.084	-1.404	-0.210	C.2	1	UNK0	0.000	
16	   O	-0.043	-2.119	-1.243	O.2	1	UNK0	0.000	
17	   C	0.575	1.607	0.236	C.3	1	UNK0	0.000	
18	   C	0.182	2.437	-0.942	C.3	1	UNK0	0.000	
19	   O	-0.700	3.385	-0.495	O.3	1	UNK0	0.000	
20	   C	-1.904	2.910	-0.050	C.3	1	UNK0	0.000	
21	   C	-1.882	1.692	0.769	C.3	1	UNK0	0.000	
22	   C	1.413	3.188	-1.465	C.3	1	UNK0	0.000	
23	   C	-0.340	1.628	-2.099	C.3	1	UNK0	0.000	
24	   H	1.806	-2.997	-0.839	 H	1	UNK0	0.000	
25	   H	2.518	-1.411	3.803	 H	1	UNK0	0.000	
26	   H	4.070	-3.060	2.771	 H	1	UNK0	0.000	
27	   H	-1.704	-0.378	-0.606	 H	1	UNK0	0.000	
28	   H	1.311	0.838	-0.093	 H	1	UNK0	0.000	
29	   H	1.020	2.286	0.993	 H	1	UNK0	0.000	
30	   H	-2.556	2.783	-0.966	 H	1	UNK0	0.000	
31	   H	-2.401	3.766	0.499	 H	1	UNK0	0.000	
32	   H	-2.181	1.959	1.827	 H	1	UNK0	0.000	
33	   H	-2.730	1.024	0.433	 H	1	UNK0	0.000	
34	   H	2.089	3.478	-0.645	 H	1	UNK0	0.000	
35	   H	1.136	3.993	-2.147	 H	1	UNK0	0.000	
36	   H	1.974	2.425	-2.078	 H	1	UNK0	0.000	
37	   H	-0.137	2.212	-3.045	 H	1	UNK0	0.000	
38	   H	-1.439	1.494	-2.083	 H	1	UNK0	0.000	
39	   H	0.206	0.683	-2.219	 H	1	UNK0	0.000	
@<TRIPOS>BOND
1 1 2 1
2 2 3 2
3 2 7 1
4 3 4 1
5 4 5 2
6 4 15 1
7 5 6 1
8 5 8 1
9 6 7 2
10 8 9 1
11 8 12 1
12 9 10 2
13 10 11 1
14 11 12 2
15 12 13 1
16 13 14 1
17 13 17 1
18 13 21 1
19 14 15 1
20 15 16 2
21 17 18 1
22 18 19 1
23 18 22 1
24 18 23 1
25 19 20 1
26 20 21 1
27 3 24 1
28 6 25 1
29 7 26 1
30 14 27 1
31 17 28 1
32 17 29 1
33 20 30 1
34 20 31 1
35 21 32 1
36 21 33 1
37 22 34 1
38 22 35 1
39 22 36 1
40 23 37 1
41 23 38 1
42 23 39 1
@<TRIPOS>SUBSTRUCTURE
1	UNK0	1	GROUP	1 ****	UNK
# created with PyMOL 2.3.2
@<TRIPOS>MOLECULE
591
37 40 1                 
SMALL
USER_CHARGES
@<TRIPOS>ATOM
1	  Br	6.094	-0.047	3.945	Br	1	UNK0	0.000	
2	   C	4.868	0.071	2.472	C.2	1	UNK0	0.000	
3	   C	3.600	-0.460	2.575	C.2	1	UNK0	0.000	
4	   C	2.723	-0.372	1.514	C.2	1	UNK0	0.000	
5	   C	3.054	0.236	0.318	C.2	1	UNK0	0.000	
6	   C	4.339	0.766	0.231	C.2	1	UNK0	0.000	
7	   C	5.221	0.683	1.288	C.2	1	UNK0	0.000	
8	   N	2.287	0.409	-0.851	N.pl3	1	UNK0	0.000	
9	   N	2.801	0.775	-2.014	N.2	1	UNK0	0.000	
10	   N	1.810	0.843	-2.889	N.2	1	UNK0	0.000	
11	   N	0.692	0.524	-2.282	N.2	1	UNK0	0.000	
12	   C	0.955	0.241	-0.982	C.2	1	UNK0	0.000	
13	   C	-0.123	-0.146	-0.070	C.3	1	UNK0	0.000	
14	   N	0.233	-0.987	1.020	N.pl3	1	UNK0	0.000	
15	   C	1.423	-0.986	1.792	C.2	1	UNK0	0.000	
16	   O	1.424	-1.590	2.898	O.2	1	UNK0	0.000	
17	   C	-0.813	1.084	0.540	C.3	1	UNK0	0.000	
18	   C	-2.273	0.768	0.744	C.3	1	UNK0	0.000	
19	   N	-2.922	0.864	-0.544	N.3	1	UNK0	0.000	
20	   C	-2.154	0.128	-1.513	C.3	1	UNK0	0.000	
21	   C	-1.196	-0.856	-0.888	C.3	1	UNK0	0.000	
22	   C	-3.012	2.282	-0.889	C.3	1	UNK0	0.000	
23	   H	3.258	-0.955	3.478	 H	1	UNK0	0.000	
24	   H	4.604	1.243	-0.702	 H	1	UNK0	0.000	
25	   H	6.209	1.103	1.192	 H	1	UNK0	0.000	
26	   H	-0.479	-1.698	1.285	 H	1	UNK0	0.000	
27	   H	-0.392	1.290	1.562	 H	1	UNK0	0.000	
28	   H	-0.621	1.964	-0.068	 H	1	UNK0	0.000	
29	   H	-2.355	-0.267	1.112	 H	1	UNK0	0.000	
30	   H	-2.721	1.431	1.486	 H	1	UNK0	0.000	
31	   H	-1.665	0.837	-2.187	 H	1	UNK0	0.000	
32	   H	-2.868	-0.463	-2.120	 H	1	UNK0	0.000	
33	   H	-1.744	-1.606	-0.320	 H	1	UNK0	0.000	
34	   H	-0.676	-1.374	-1.722	 H	1	UNK0	0.000	
35	   H	-2.405	2.424	-1.811	 H	1	UNK0	0.000	
36	   H	-4.063	2.606	-1.039	 H	1	UNK0	0.000	
37	   H	-2.602	2.924	-0.072	 H	1	UNK0	0.000	
@<TRIPOS>BOND
1 1 2 1
2 2 3 2
3 2 7 1
4 3 4 1
5 4 5 2
6 4 15 1
7 5 6 1
8 5 8 1
9 6 7 2
10 8 9 1
11 8 12 1
12 9 10 2
13 10 11 1
14 11 12 2
15 12 13 1
16 13 14 1
17 13 17 1
18 13 21 1
19 14 15 1
20 15 16 2
21 17 18 1
22 18 19 1
23 19 20 1
24 19 22 1
25 20 21 1
26 3 23 1
27 6 24 1
28 7 25 1
29 14 26 1
30 17 27 1
31 17 28 1
32 18 29 1
33 18 30 1
34 20 31 1
35 20 32 1
36 21 33 1
37 21 34 1
38 22 35 1
39 22 36 1
40 22 37 1
@<TRIPOS>SUBSTRUCTURE
1	UNK0	1	GROUP	1 ****	UNK
# created with PyMOL 2.3.2
@<TRIPOS>MOLECULE
592
33 36 1                 
SMALL
USER_CHARGES
@<TRIPOS>ATOM
1	  Br	4.647	0.353	-1.437	Br	1	UNK0	0.000	
2	   C	2.750	0.369	-1.528	C.2	1	UNK0	0.000	
3	   C	2.034	0.566	-0.380	C.2	1	UNK0	0.000	
4	   C	0.637	0.577	-0.448	C.2	1	UNK0	0.000	
5	   C	0.038	0.393	-1.650	C.2	1	UNK0	0.000	
6	   C	0.780	0.190	-2.832	C.2	1	UNK0	0.000	
7	   C	2.152	0.179	-2.761	C.2	1	UNK0	0.000	
8	   O	-1.340	0.396	-1.770	O.3	1	UNK0	0.000	
9	   C	-2.100	0.591	-0.637	C.2	1	UNK0	0.000	
10	   C	-1.592	0.776	0.558	C.2	1	UNK0	0.000	
11	   C	-0.153	0.789	0.783	C.3	1	UNK0	0.000	
12	   C	0.269	-0.135	1.863	C.2	1	UNK0	0.000	
13	   C	0.813	0.602	2.878	C.2	1	UNK0	0.000	
14	   N	1.200	-0.252	3.871	N.2	1	UNK0	0.000	
15	   N	0.894	-1.469	3.458	N.pl3	1	UNK0	0.000	
16	   C	0.327	-1.446	2.245	C.2	1	UNK0	0.000	
17	   C	-0.131	-2.662	1.507	C.3	1	UNK0	0.000	
18	   N	0.796	1.980	2.573	N.pl3	1	UNK0	0.000	
19	   C	0.214	2.124	1.303	C.2	1	UNK0	0.000	
20	   O	0.018	3.198	0.674	O.2	1	UNK0	0.000	
21	   C	-2.455	0.974	1.698	C.1	1	UNK0	0.000	
22	   N	-3.142	1.152	2.613	N.1	1	UNK0	0.000	
23	   N	-3.530	0.591	-0.778	N.pl3	1	UNK0	0.000	
24	   H	2.466	0.717	0.596	 H	1	UNK0	0.000	
25	   H	0.272	0.045	-3.781	 H	1	UNK0	0.000	
26	   H	2.784	0.030	-3.625	 H	1	UNK0	0.000	
27	   H	1.094	-2.318	4.051	 H	1	UNK0	0.000	
28	   H	-0.508	-2.389	0.517	 H	1	UNK0	0.000	
29	   H	-0.901	-3.184	2.127	 H	1	UNK0	0.000	
30	   H	0.700	-3.401	1.381	 H	1	UNK0	0.000	
31	   H	1.168	2.758	3.213	 H	1	UNK0	0.000	
32	   H	-3.968	0.079	-1.574	 H	1	UNK0	0.000	
33	   H	-4.158	1.089	-0.108	 H	1	UNK0	0.000	
@<TRIPOS>BOND
1 1 2 1
2 2 3 2
3 2 7 1
4 3 4 1
5 4 5 2
6 4 11 1
7 5 6 1
8 5 8 1
9 6 7 2
10 8 9 1
11 9 10 2
12 9 23 1
13 10 11 1
14 10 21 1
15 11 12 1
16 11 19 1
17 12 13 1
18 12 16 2
19 13 14 2
20 13 18 1
21 14 15 1
22 15 16 1
23 16 17 1
24 18 19 1
25 19 20 2
26 21 22 3
27 3 24 1
28 6 25 1
29 7 26 1
30 15 27 1
31 17 28 1
32 17 29 1
33 17 30 1
34 18 31 1
35 23 32 1
36 23 33 1
@<TRIPOS>SUBSTRUCTURE
1	UNK0	1	GROUP	1 ****	UNK
# created with PyMOL 2.3.2
@<TRIPOS>MOLECULE
596
44 47 1                 
SMALL
USER_CHARGES
@<TRIPOS>ATOM
1	  Br	-0.739	3.080	-7.895	Br	1	UNK0	0.000	
2	   C	0.181	3.273	-6.250	C.2	1	UNK0	0.000	
3	   C	-0.188	2.555	-5.127	C.2	1	UNK0	0.000	
4	   C	0.461	2.655	-3.910	C.2	1	UNK0	0.000	
5	   C	1.533	3.520	-3.826	C.2	1	UNK0	0.000	
6	   C	1.949	4.267	-4.918	C.2	1	UNK0	0.000	
7	   C	1.275	4.139	-6.110	C.2	1	UNK0	0.000	
8	   O	2.177	3.636	-2.663	O.3	1	UNK0	0.000	
9	   C	1.849	2.979	-1.607	C.2	1	UNK0	0.000	
10	   O	2.458	3.082	-0.497	O.co2	1	UNK0	0.000	
11	   C	0.787	2.100	-1.625	C.2	1	UNK0	0.000	
12	   C	0.086	1.942	-2.799	C.2	1	UNK0	0.000	
13	   C	0.391	1.378	-0.417	C.2	1	UNK0	0.000	
14	   C	0.129	2.052	0.765	C.2	1	UNK0	0.000	
15	   C	-0.299	1.363	1.880	C.2	1	UNK0	0.000	
16	   O	-0.521	2.051	2.926	O.co2	1	UNK0	0.000	
17	   O	-0.461	0.076	1.844	O.3	1	UNK0	0.000	
18	   C	-0.236	-0.605	0.787	C.2	1	UNK0	0.000	
19	   C	0.203	0.018	-0.397	C.2	1	UNK0	0.000	
20	   C	0.447	-0.737	-1.507	C.2	1	UNK0	0.000	
21	   C	0.241	-2.118	-1.417	C.2	1	UNK0	0.000	
22	   C	-0.194	-2.698	-0.242	C.2	1	UNK0	0.000	
23	   C	-0.447	-1.967	0.897	C.2	1	UNK0	0.000	
24	   C	-0.993	-2.629	2.051	C.3	1	UNK0	0.000	
25	   N	-0.518	-2.451	3.362	N.4	1	UNK0	0.000	
26	   C	0.885	-2.192	3.532	C.3	1	UNK0	0.000	
27	   C	-1.369	-1.522	4.149	C.3	1	UNK0	0.000	
28	   O	-0.375	-4.098	-0.260	O.2	1	UNK0	0.000	
29	   H	-1.031	1.849	-5.172	 H	1	UNK0	0.000	
30	   H	2.788	4.930	-4.778	 H	1	UNK0	0.000	
31	   H	1.543	4.691	-7.003	 H	1	UNK0	0.000	
32	   H	-0.793	1.268	-2.879	 H	1	UNK0	0.000	
33	   H	0.283	3.129	0.781	 H	1	UNK0	0.000	
34	   H	0.815	-0.290	-2.422	 H	1	UNK0	0.000	
35	   H	0.434	-2.686	-2.316	 H	1	UNK0	0.000	
36	   H	-0.880	-3.761	1.842	 H	1	UNK0	0.000	
37	   H	-2.117	-2.542	2.061	 H	1	UNK0	0.000	
38	   H	-0.656	-3.374	3.867	 H	1	UNK0	0.000	
39	   H	1.133	-1.108	3.677	 H	1	UNK0	0.000	
40	   H	1.538	-2.651	2.755	 H	1	UNK0	0.000	
41	   H	1.296	-2.644	4.499	 H	1	UNK0	0.000	
42	   H	-2.187	-1.099	3.509	 H	1	UNK0	0.000	
43	   H	-1.954	-2.056	4.943	 H	1	UNK0	0.000	
44	   H	-0.756	-0.783	4.671	 H	1	UNK0	0.000	
@<TRIPOS>BOND
1 1 2 1
2 2 3 2
3 2 7 1
4 3 4 1
5 4 5 2
6 4 12 1
7 5 6 1
8 5 8 1
9 6 7 2
10 8 9 1
11 9 10 2
12 9 11 1
13 11 12 2
14 11 13 1
15 13 14 2
16 13 19 1
17 14 15 1
18 15 16 2
19 15 17 1
20 17 18 1
21 18 19 2
22 18 23 1
23 19 20 1
24 20 21 2
25 21 22 1
26 22 23 2
27 22 28 1
28 23 24 1
29 24 25 1
30 25 26 1
31 25 27 1
32 3 29 1
33 6 30 1
34 7 31 1
35 12 32 1
36 14 33 1
37 20 34 1
38 21 35 1
39 24 36 1
40 24 37 1
41 25 38 1
42 26 39 1
43 26 40 1
44 26 41 1
45 27 42 1
46 27 43 1
47 27 44 1
@<TRIPOS>SUBSTRUCTURE
1	UNK0	1	GROUP	1 ****	UNK
# created with PyMOL 2.3.2
@<TRIPOS>MOLECULE
610
51 54 1                 
SMALL
USER_CHARGES
@<TRIPOS>ATOM
1	  Br	-1.039	-1.610	-6.563	Br	1	UNK0	0.000	
2	   C	-0.686	-0.482	-5.065	C.2	1	UNK0	0.000	
3	   C	-0.058	-0.985	-3.929	C.2	1	UNK0	0.000	
4	   C	0.200	-0.165	-2.839	C.2	1	UNK0	0.000	
5	   C	-0.167	1.163	-2.874	C.2	1	UNK0	0.000	
6	   N	0.088	1.967	-1.811	N.2	1	UNK0	0.000	
7	   C	0.697	1.506	-0.704	C.2	1	UNK0	0.000	
8	   N	1.046	0.214	-0.688	N.2	1	UNK0	0.000	
9	   C	0.824	-0.640	-1.704	C.2	1	UNK0	0.000	
10	   C	1.244	-2.027	-1.586	C.2	1	UNK0	0.000	
11	   C	2.571	-2.339	-1.324	C.2	1	UNK0	0.000	
12	   C	3.004	-3.641	-1.192	C.2	1	UNK0	0.000	
13	   C	2.126	-4.698	-1.315	C.2	1	UNK0	0.000	
14	   C	0.798	-4.384	-1.577	C.2	1	UNK0	0.000	
15	   C	0.374	-3.080	-1.708	C.2	1	UNK0	0.000	
16	  Cl	3.718	-1.007	-1.162	Cl	1	UNK0	0.000	
17	   N	0.952	2.386	0.398	N.4	1	UNK0	0.000	
18	   C	1.611	1.671	1.457	C.3	1	UNK0	0.000	
19	   C	0.720	0.766	2.238	C.3	1	UNK0	0.000	
20	   N	-0.682	1.014	1.985	N.pl3	1	UNK0	0.000	
21	   C	-1.076	2.394	1.804	C.3	1	UNK0	0.000	
22	   C	-0.205	3.113	0.821	C.3	1	UNK0	0.000	
23	   C	-1.569	-0.088	1.931	C.2	1	UNK0	0.000	
24	   O	-1.154	-1.256	2.097	O.2	1	UNK0	0.000	
25	   C	-3.004	0.224	1.669	C.3	1	UNK0	0.000	
26	   C	-3.841	-1.019	1.640	C.3	1	UNK0	0.000	
27	   C	-3.429	-1.974	0.600	C.2	1	UNK0	0.000	
28	   O	-2.469	-1.736	-0.162	O.co2	1	UNK0	0.000	
29	   O	-4.117	-3.162	0.462	O.co2	1	UNK0	0.000	
30	   C	-0.793	1.641	-4.018	C.2	1	UNK0	0.000	
31	   C	-1.058	0.845	-5.111	C.2	1	UNK0	0.000	
32	   H	0.232	-2.009	-3.900	 H	1	UNK0	0.000	
33	   H	4.038	-3.883	-0.989	 H	1	UNK0	0.000	
34	   H	2.458	-5.726	-1.212	 H	1	UNK0	0.000	
35	   H	0.094	-5.196	-1.678	 H	1	UNK0	0.000	
36	   H	-0.669	-2.910	-1.905	 H	1	UNK0	0.000	
37	   H	1.674	3.072	0.024	 H	1	UNK0	0.000	
38	   H	2.455	1.108	1.018	 H	1	UNK0	0.000	
39	   H	2.053	2.445	2.136	 H	1	UNK0	0.000	
40	   H	0.871	0.954	3.338	 H	1	UNK0	0.000	
41	   H	1.005	-0.285	2.034	 H	1	UNK0	0.000	
42	   H	-2.148	2.491	1.534	 H	1	UNK0	0.000	
43	   H	-0.905	2.877	2.811	 H	1	UNK0	0.000	
44	   H	0.160	4.083	1.256	 H	1	UNK0	0.000	
45	   H	-0.793	3.375	-0.090	 H	1	UNK0	0.000	
46	   H	-3.372	0.862	2.499	 H	1	UNK0	0.000	
47	   H	-3.132	0.811	0.737	 H	1	UNK0	0.000	
48	   H	-4.891	-0.710	1.408	 H	1	UNK0	0.000	
49	   H	-3.861	-1.493	2.642	 H	1	UNK0	0.000	
50	   H	-1.080	2.668	-4.048	 H	1	UNK0	0.000	
51	   H	-1.545	1.199	-6.011	 H	1	UNK0	0.000	
@<TRIPOS>BOND
1 1 2 1
2 2 3 2
3 2 31 1
4 3 4 1
5 4 5 2
6 4 9 1
7 5 6 1
8 5 30 1
9 6 7 2
10 7 8 1
11 7 17 1
12 8 9 2
13 9 10 1
14 10 11 2
15 10 15 1
16 11 12 1
17 11 16 1
18 12 13 2
19 13 14 1
20 14 15 2
21 17 18 1
22 17 22 1
23 18 19 1
24 19 20 1
25 20 21 1
26 20 23 1
27 21 22 1
28 23 24 2
29 23 25 1
30 25 26 1
31 26 27 1
32 27 28 2
33 27 29 1
34 30 31 2
35 3 32 1
36 12 33 1
37 13 34 1
38 14 35 1
39 15 36 1
40 17 37 1
41 18 38 1
42 18 39 1
43 19 40 1
44 19 41 1
45 21 42 1
46 21 43 1
47 22 44 1
48 22 45 1
49 25 46 1
50 25 47 1
51 26 48 1
52 26 49 1
53 30 50 1
54 31 51 1
@<TRIPOS>SUBSTRUCTURE
1	UNK0	1	GROUP	1 ****	UNK
# created with PyMOL 2.3.2
@<TRIPOS>MOLECULE
611
54 57 1                 
SMALL
USER_CHARGES
@<TRIPOS>ATOM
1	  Br	0.455	5.719	5.730	Br	1	UNK0	0.000	
2	   C	-0.098	4.362	4.502	C.2	1	UNK0	0.000	
3	   C	0.721	3.299	4.165	C.2	1	UNK0	0.000	
4	   C	0.352	2.306	3.284	C.2	1	UNK0	0.000	
5	   C	-0.896	2.347	2.690	C.2	1	UNK0	0.000	
6	   N	-1.276	1.384	1.814	N.2	1	UNK0	0.000	
7	   C	-0.477	0.356	1.482	C.2	1	UNK0	0.000	
8	   N	0.737	0.314	2.060	N.2	1	UNK0	0.000	
9	   C	1.164	1.250	2.940	C.2	1	UNK0	0.000	
10	   C	2.489	1.157	3.534	C.2	1	UNK0	0.000	
11	   C	3.638	1.121	2.759	C.2	1	UNK0	0.000	
12	   C	4.902	1.013	3.311	C.2	1	UNK0	0.000	
13	   C	4.993	0.940	4.706	C.2	1	UNK0	0.000	
14	   C	3.870	0.973	5.506	C.2	1	UNK0	0.000	
15	   C	2.649	1.079	4.920	C.2	1	UNK0	0.000	
16	  Cl	3.495	1.214	1.011	Cl	1	UNK0	0.000	
17	   N	-0.910	-0.637	0.559	N.4	1	UNK0	0.000	
18	   C	-2.250	-0.361	0.091	C.3	1	UNK0	0.000	
19	   C	-2.481	-1.132	-1.170	C.3	1	UNK0	0.000	
20	   N	-1.454	-2.147	-1.287	N.pl3	1	UNK0	0.000	
21	   C	-1.136	-2.911	-0.094	C.3	1	UNK0	0.000	
22	   C	-0.900	-1.973	1.096	C.3	1	UNK0	0.000	
23	   C	-0.825	-2.341	-2.528	C.2	1	UNK0	0.000	
24	   O	0.065	-3.224	-2.603	O.2	1	UNK0	0.000	
25	   C	-1.169	-1.557	-3.716	C.3	1	UNK0	0.000	
26	   C	-0.324	-1.993	-4.878	C.3	1	UNK0	0.000	
27	   C	-0.629	-1.220	-6.142	C.3	1	UNK0	0.000	
28	   C	-2.030	-1.363	-6.585	C.2	1	UNK0	0.000	
29	   O	-2.891	-0.653	-6.014	O.co2	1	UNK0	0.000	
30	   O	-2.352	-2.256	-7.596	O.co2	1	UNK0	0.000	
31	   C	-1.719	3.401	3.020	C.2	1	UNK0	0.000	
32	   C	-1.341	4.400	3.909	C.2	1	UNK0	0.000	
33	   H	1.696	3.289	4.630	 H	1	UNK0	0.000	
34	   H	5.800	0.986	2.700	 H	1	UNK0	0.000	
35	   H	5.996	0.854	5.137	 H	1	UNK0	0.000	
36	   H	3.954	0.917	6.597	 H	1	UNK0	0.000	
37	   H	1.766	1.100	5.541	 H	1	UNK0	0.000	
38	   H	-0.251	-0.614	-0.247	 H	1	UNK0	0.000	
39	   H	-2.317	0.735	-0.068	 H	1	UNK0	0.000	
40	   H	-2.948	-0.632	0.911	 H	1	UNK0	0.000	
41	   H	-2.446	-0.414	-2.016	 H	1	UNK0	0.000	
42	   H	-3.491	-1.594	-1.168	 H	1	UNK0	0.000	
43	   H	-2.042	-3.503	0.152	 H	1	UNK0	0.000	
44	   H	-0.315	-3.617	-0.234	 H	1	UNK0	0.000	
45	   H	-1.638	-2.129	1.890	 H	1	UNK0	0.000	
46	   H	0.088	-2.230	1.499	 H	1	UNK0	0.000	
47	   H	-2.240	-1.709	-4.036	 H	1	UNK0	0.000	
48	   H	-1.089	-0.465	-3.538	 H	1	UNK0	0.000	
49	   H	0.765	-1.825	-4.675	 H	1	UNK0	0.000	
50	   H	-0.433	-3.067	-5.085	 H	1	UNK0	0.000	
51	   H	0.027	-1.621	-6.939	 H	1	UNK0	0.000	
52	   H	-0.346	-0.147	-5.990	 H	1	UNK0	0.000	
53	   H	-2.697	3.435	2.556	 H	1	UNK0	0.000	
54	   H	-1.978	5.228	4.175	 H	1	UNK0	0.000	
@<TRIPOS>BOND
1 1 2 1
2 2 3 2
3 2 32 1
4 3 4 1
5 4 5 2
6 4 9 1
7 5 6 1
8 5 31 1
9 6 7 2
10 7 8 1
11 7 17 1
12 8 9 2
13 9 10 1
14 10 11 2
15 10 15 1
16 11 12 1
17 11 16 1
18 12 13 2
19 13 14 1
20 14 15 2
21 17 18 1
22 17 22 1
23 18 19 1
24 19 20 1
25 20 21 1
26 20 23 1
27 21 22 1
28 23 24 2
29 23 25 1
30 25 26 1
31 26 27 1
32 27 28 1
33 28 29 2
34 28 30 1
35 31 32 2
36 3 33 1
37 12 34 1
38 13 35 1
39 14 36 1
40 15 37 1
41 17 38 1
42 18 39 1
43 18 40 1
44 19 41 1
45 19 42 1
46 21 43 1
47 21 44 1
48 22 45 1
49 22 46 1
50 25 47 1
51 25 48 1
52 26 49 1
53 26 50 1
54 27 51 1
55 27 52 1
56 31 53 1
57 32 54 1
@<TRIPOS>SUBSTRUCTURE
1	UNK0	1	GROUP	1 ****	UNK
# created with PyMOL 2.3.2
@<TRIPOS>MOLECULE
616
50 53 1                 
SMALL
USER_CHARGES
@<TRIPOS>ATOM
1	  Br	-4.734	3.542	-7.120	Br	1	UNK0	0.000	
2	   C	-3.989	2.959	-5.451	C.2	1	UNK0	0.000	
3	   C	-2.761	3.387	-5.017	C.2	1	UNK0	0.000	
4	   C	-2.225	2.957	-3.800	C.2	1	UNK0	0.000	
5	   C	-2.933	2.089	-3.015	C.2	1	UNK0	0.000	
6	   N	-2.197	1.826	-1.891	N.pl3	1	UNK0	0.000	
7	   C	-1.036	2.486	-1.909	C.2	1	UNK0	0.000	
8	   C	-1.061	3.206	-3.130	C.2	1	UNK0	0.000	
9	   C	0.071	2.531	-0.974	C.2	1	UNK0	0.000	
10	   O	1.077	3.289	-1.251	O.2	1	UNK0	0.000	
11	   N	0.161	1.820	0.223	N.pl3	1	UNK0	0.000	
12	   C	-0.814	0.902	0.747	C.3	1	UNK0	0.000	
13	   C	-0.354	0.257	2.061	C.3	1	UNK0	0.000	
14	   N	1.008	-0.224	1.888	N.pl3	1	UNK0	0.000	
15	   C	1.994	0.614	1.204	C.3	1	UNK0	0.000	
16	   C	1.358	2.002	1.087	C.3	1	UNK0	0.000	
17	   C	1.402	-1.493	2.366	C.2	1	UNK0	0.000	
18	   O	0.528	-2.185	2.941	O.2	1	UNK0	0.000	
19	   C	2.774	-1.935	2.173	C.3	1	UNK0	0.000	
20	   N	3.069	-3.256	2.682	N.3	1	UNK0	0.000	
21	   C	4.502	-3.516	2.527	C.3	1	UNK0	0.000	
22	   C	4.775	-4.296	1.288	C.3	1	UNK0	0.000	
23	   O	3.901	-3.925	0.269	O.3	1	UNK0	0.000	
24	   C	2.598	-4.349	0.540	C.3	1	UNK0	0.000	
25	   C	2.305	-4.300	2.022	C.3	1	UNK0	0.000	
26	   C	-4.172	1.653	-3.445	C.2	1	UNK0	0.000	
27	   C	-4.696	2.085	-4.655	C.2	1	UNK0	0.000	
28	   H	-2.180	4.074	-5.617	 H	1	UNK0	0.000	
29	   H	-2.555	1.193	-1.161	 H	1	UNK0	0.000	
30	   H	-0.278	3.850	-3.471	 H	1	UNK0	0.000	
31	   H	-0.937	0.090	-0.020	 H	1	UNK0	0.000	
32	   H	-1.749	1.426	0.998	 H	1	UNK0	0.000	
33	   H	-0.373	0.989	2.888	 H	1	UNK0	0.000	
34	   H	-1.031	-0.566	2.280	 H	1	UNK0	0.000	
35	   H	2.926	0.708	1.804	 H	1	UNK0	0.000	
36	   H	2.225	0.269	0.190	 H	1	UNK0	0.000	
37	   H	1.057	2.391	2.069	 H	1	UNK0	0.000	
38	   H	2.053	2.697	0.617	 H	1	UNK0	0.000	
39	   H	3.437	-1.232	2.750	 H	1	UNK0	0.000	
40	   H	3.122	-1.876	1.120	 H	1	UNK0	0.000	
41	   H	5.036	-2.538	2.454	 H	1	UNK0	0.000	
42	   H	4.854	-4.034	3.441	 H	1	UNK0	0.000	
43	   H	5.802	-4.036	0.943	 H	1	UNK0	0.000	
44	   H	4.702	-5.401	1.438	 H	1	UNK0	0.000	
45	   H	1.907	-3.774	-0.080	 H	1	UNK0	0.000	
46	   H	2.531	-5.409	0.223	 H	1	UNK0	0.000	
47	   H	1.243	-4.198	2.186	 H	1	UNK0	0.000	
48	   H	2.652	-5.259	2.460	 H	1	UNK0	0.000	
49	   H	-4.736	0.959	-2.816	 H	1	UNK0	0.000	
50	   H	-5.679	1.742	-4.999	 H	1	UNK0	0.000	
@<TRIPOS>BOND
1 1 2 1
2 2 3 2
3 2 27 1
4 3 4 1
5 4 5 2
6 4 8 1
7 5 6 1
8 5 26 1
9 6 7 1
10 7 8 2
11 7 9 1
12 9 10 2
13 9 11 1
14 11 12 1
15 11 16 1
16 12 13 1
17 13 14 1
18 14 15 1
19 14 17 1
20 15 16 1
21 17 18 2
22 17 19 1
23 19 20 1
24 20 21 1
25 20 25 1
26 21 22 1
27 22 23 1
28 23 24 1
29 24 25 1
30 26 27 2
31 3 28 1
32 6 29 1
33 8 30 1
34 12 31 1
35 12 32 1
36 13 33 1
37 13 34 1
38 15 35 1
39 15 36 1
40 16 37 1
41 16 38 1
42 19 39 1
43 19 40 1
44 21 41 1
45 21 42 1
46 22 43 1
47 22 44 1
48 24 45 1
49 24 46 1
50 25 47 1
51 25 48 1
52 26 49 1
53 27 50 1
@<TRIPOS>SUBSTRUCTURE
1	UNK0	1	GROUP	1 ****	UNK
# created with PyMOL 2.3.2
@<TRIPOS>MOLECULE
617
41 44 1                 
SMALL
USER_CHARGES
@<TRIPOS>ATOM
1	  Br	6.067	-3.237	5.890	Br	1	UNK0	0.000	
2	   C	5.673	-2.398	4.229	C.2	1	UNK0	0.000	
3	   C	4.412	-1.913	3.950	C.2	1	UNK0	0.000	
4	   C	4.110	-1.302	2.750	C.2	1	UNK0	0.000	
5	   C	5.116	-1.182	1.810	C.2	1	UNK0	0.000	
6	   N	4.553	-0.561	0.758	N.pl3	1	UNK0	0.000	
7	   C	3.246	-0.287	0.996	C.2	1	UNK0	0.000	
8	   C	2.946	-0.751	2.259	C.2	1	UNK0	0.000	
9	   N	1.690	-0.590	2.720	N.2	1	UNK0	0.000	
10	   C	0.731	0.007	1.987	C.2	1	UNK0	0.000	
11	   N	0.994	0.468	0.757	N.pl3	1	UNK0	0.000	
12	   C	2.238	0.317	0.279	C.2	1	UNK0	0.000	
13	   O	2.503	0.743	-0.873	O.2	1	UNK0	0.000	
14	   C	-0.051	1.120	-0.051	C.3	1	UNK0	0.000	
15	   C	-0.774	0.119	-0.867	C.3	1	UNK0	0.000	
16	   N	-1.814	0.603	-1.700	N.3	1	UNK0	0.000	
17	   C	-2.961	1.098	-1.021	C.3	1	UNK0	0.000	
18	   C	-4.069	0.091	-0.902	C.3	1	UNK0	0.000	
19	   N	-4.187	-0.747	-2.076	N.3	1	UNK0	0.000	
20	   C	-3.498	-0.160	-3.213	C.3	1	UNK0	0.000	
21	   C	-2.028	-0.168	-2.872	C.3	1	UNK0	0.000	
22	   C	6.375	-1.673	2.102	C.2	1	UNK0	0.000	
23	   C	6.686	-2.286	3.299	C.2	1	UNK0	0.000	
24	   H	3.616	-2.002	4.680	 H	1	UNK0	0.000	
25	   H	5.031	-0.313	-0.128	 H	1	UNK0	0.000	
26	   H	-0.279	0.129	2.376	 H	1	UNK0	0.000	
27	   H	0.502	1.844	-0.691	 H	1	UNK0	0.000	
28	   H	-0.651	1.697	0.646	 H	1	UNK0	0.000	
29	   H	-0.055	-0.457	-1.483	 H	1	UNK0	0.000	
30	   H	-1.234	-0.634	-0.163	 H	1	UNK0	0.000	
31	   H	-2.701	1.489	-0.018	 H	1	UNK0	0.000	
32	   H	-3.368	1.951	-1.605	 H	1	UNK0	0.000	
33	   H	-5.055	0.562	-0.718	 H	1	UNK0	0.000	
34	   H	-3.864	-0.578	-0.043	 H	1	UNK0	0.000	
35	   H	-3.855	-1.723	-1.902	 H	1	UNK0	0.000	
36	   H	-3.842	0.878	-3.318	 H	1	UNK0	0.000	
37	   H	-3.739	-0.805	-4.082	 H	1	UNK0	0.000	
38	   H	-1.469	0.344	-3.705	 H	1	UNK0	0.000	
39	   H	-1.667	-1.214	-2.801	 H	1	UNK0	0.000	
40	   H	7.167	-1.578	1.360	 H	1	UNK0	0.000	
41	   H	7.683	-2.672	3.527	 H	1	UNK0	0.000	
@<TRIPOS>BOND
1 1 2 1
2 2 3 2
3 2 23 1
4 3 4 1
5 4 5 2
6 4 8 1
7 5 6 1
8 5 22 1
9 6 7 1
10 7 8 2
11 7 12 1
12 8 9 1
13 9 10 2
14 10 11 1
15 11 12 1
16 11 14 1
17 12 13 2
18 14 15 1
19 15 16 1
20 16 17 1
21 16 21 1
22 17 18 1
23 18 19 1
24 19 20 1
25 20 21 1
26 22 23 2
27 3 24 1
28 6 25 1
29 10 26 1
30 14 27 1
31 14 28 1
32 15 29 1
33 15 30 1
34 17 31 1
35 17 32 1
36 18 33 1
37 18 34 1
38 19 35 1
39 20 36 1
40 20 37 1
41 21 38 1
42 21 39 1
43 22 40 1
44 23 41 1
@<TRIPOS>SUBSTRUCTURE
1	UNK0	1	GROUP	1 ****	UNK
# created with PyMOL 2.3.2
@<TRIPOS>MOLECULE
624
37 40 1                 
SMALL
USER_CHARGES
@<TRIPOS>ATOM
1	  Br	2.381	5.151	-1.512	Br	1	UNK0	0.000	
2	   C	1.193	4.005	-0.562	C.2	1	UNK0	0.000	
3	   C	0.174	4.567	0.178	C.2	1	UNK0	0.000	
4	   C	-0.716	3.751	0.888	C.2	1	UNK0	0.000	
5	   C	-0.544	2.406	0.823	C.2	1	UNK0	0.000	
6	   C	0.458	1.799	0.098	C.2	1	UNK0	0.000	
7	   C	1.317	2.618	-0.588	C.2	1	UNK0	0.000	
8	   C	0.516	0.431	0.121	C.2	1	UNK0	0.000	
9	   O	1.414	-0.129	-0.529	O.2	1	UNK0	0.000	
10	   C	-0.384	-0.345	0.836	C.2	1	UNK0	0.000	
11	   C	-1.362	0.324	1.540	C.2	1	UNK0	0.000	
12	   N	-1.428	1.694	1.524	N.pl3	1	UNK0	0.000	
13	   C	-2.329	2.631	2.157	C.3	1	UNK0	0.000	
14	   C	-1.880	4.009	1.753	C.3	1	UNK0	0.000	
15	   C	-0.309	-1.802	0.849	C.2	1	UNK0	0.000	
16	   O	0.380	-2.370	1.727	O.2	1	UNK0	0.000	
17	   N	-1.012	-2.582	-0.128	N.pl3	1	UNK0	0.000	
18	   C	-0.954	-4.028	-0.138	C.3	1	UNK0	0.000	
19	   C	-0.511	-4.425	-1.552	C.3	1	UNK0	0.000	
20	   O	-1.341	-3.831	-2.472	O.3	1	UNK0	0.000	
21	   C	-1.270	-2.454	-2.492	C.3	1	UNK0	0.000	
22	   C	-1.815	-1.947	-1.154	C.3	1	UNK0	0.000	
23	   H	0.021	5.634	0.242	 H	1	UNK0	0.000	
24	   H	2.103	2.168	-1.159	 H	1	UNK0	0.000	
25	   H	-2.105	-0.191	2.125	 H	1	UNK0	0.000	
26	   H	-2.249	2.529	3.277	 H	1	UNK0	0.000	
27	   H	-3.387	2.442	1.877	 H	1	UNK0	0.000	
28	   H	-2.695	4.551	1.219	 H	1	UNK0	0.000	
29	   H	-1.541	4.609	2.645	 H	1	UNK0	0.000	
30	   H	-2.009	-4.421	-0.058	 H	1	UNK0	0.000	
31	   H	-0.287	-4.447	0.623	 H	1	UNK0	0.000	
32	   H	-0.539	-5.511	-1.685	 H	1	UNK0	0.000	
33	   H	0.519	-4.089	-1.724	 H	1	UNK0	0.000	
34	   H	-1.972	-2.092	-3.270	 H	1	UNK0	0.000	
35	   H	-0.231	-2.067	-2.642	 H	1	UNK0	0.000	
36	   H	-2.839	-2.416	-1.074	 H	1	UNK0	0.000	
37	   H	-1.834	-0.861	-1.096	 H	1	UNK0	0.000	
@<TRIPOS>BOND
1 1 2 1
2 2 3 2
3 2 7 1
4 3 4 1
5 4 5 2
6 4 14 1
7 5 6 1
8 5 12 1
9 6 7 2
10 6 8 1
11 8 9 2
12 8 10 1
13 10 11 2
14 10 15 1
15 11 12 1
16 12 13 1
17 13 14 1
18 15 16 2
19 15 17 1
20 17 18 1
21 17 22 1
22 18 19 1
23 19 20 1
24 20 21 1
25 21 22 1
26 3 23 1
27 7 24 1
28 11 25 1
29 13 26 1
30 13 27 1
31 14 28 1
32 14 29 1
33 18 30 1
34 18 31 1
35 19 32 1
36 19 33 1
37 21 34 1
38 21 35 1
39 22 36 1
40 22 37 1
@<TRIPOS>SUBSTRUCTURE
1	UNK0	1	GROUP	1 ****	UNK
# created with PyMOL 2.3.2
@<TRIPOS>MOLECULE
625
55 58 1                 
SMALL
USER_CHARGES
@<TRIPOS>ATOM
1	  Br	-0.553	-5.114	3.134	Br	1	UNK0	0.000	
2	   C	-0.024	-3.548	2.229	C.2	1	UNK0	0.000	
3	   C	-0.930	-2.800	1.495	C.2	1	UNK0	0.000	
4	   C	-0.569	-1.672	0.817	C.2	1	UNK0	0.000	
5	   N	-1.326	-0.788	0.100	N.pl3	1	UNK0	0.000	
6	   C	-0.508	0.200	-0.303	C.2	1	UNK0	0.000	
7	   C	0.812	-0.078	0.144	C.2	1	UNK0	0.000	
8	   C	0.714	-1.252	0.846	C.2	1	UNK0	0.000	
9	   C	1.647	-1.988	1.581	C.2	1	UNK0	0.000	
10	   C	1.294	-3.135	2.277	C.2	1	UNK0	0.000	
11	   O	2.207	-3.892	3.033	O.3	1	UNK0	0.000	
12	   C	2.055	0.616	-0.218	C.2	1	UNK0	0.000	
13	   O	3.120	0.210	0.320	O.co2	1	UNK0	0.000	
14	   O	2.159	1.647	-1.091	O.3	1	UNK0	0.000	
15	   C	3.248	2.367	-1.545	C.3	1	UNK0	0.000	
16	   C	4.275	1.546	-2.315	C.3	1	UNK0	0.000	
17	   C	-0.822	1.438	-1.016	C.3	1	UNK0	0.000	
18	   N	-1.668	2.404	-0.387	N.4	1	UNK0	0.000	
19	   C	-2.791	2.246	0.355	C.3	1	UNK0	0.000	
20	   C	-3.714	3.457	0.076	C.3	1	UNK0	0.000	
21	   C	-2.672	4.496	-0.331	C.3	1	UNK0	0.000	
22	   C	-1.804	3.613	-1.217	C.3	1	UNK0	0.000	
23	   C	-2.683	-1.143	-0.359	C.3	1	UNK0	0.000	
24	   C	-2.474	-1.899	-1.691	C.2	1	UNK0	0.000	
25	   C	-3.613	-2.349	-2.293	C.2	1	UNK0	0.000	
26	   C	-3.503	-3.035	-3.514	C.2	1	UNK0	0.000	
27	   C	-2.307	-3.264	-4.126	C.2	1	UNK0	0.000	
28	   C	-1.172	-2.781	-3.474	C.2	1	UNK0	0.000	
29	   C	-1.267	-2.100	-2.254	C.2	1	UNK0	0.000	
30	   H	-1.974	-3.104	1.458	 H	1	UNK0	0.000	
31	   H	2.686	-1.649	1.631	 H	1	UNK0	0.000	
32	   H	1.870	-4.728	3.532	 H	1	UNK0	0.000	
33	   H	2.860	3.132	-2.282	 H	1	UNK0	0.000	
34	   H	3.769	2.904	-0.746	 H	1	UNK0	0.000	
35	   H	4.927	2.219	-2.914	 H	1	UNK0	0.000	
36	   H	4.943	0.970	-1.647	 H	1	UNK0	0.000	
37	   H	3.787	0.815	-3.011	 H	1	UNK0	0.000	
38	   H	0.106	1.957	-1.289	 H	1	UNK0	0.000	
39	   H	-1.382	1.152	-1.986	 H	1	UNK0	0.000	
40	   H	-0.876	2.859	0.360	 H	1	UNK0	0.000	
41	   H	-2.606	2.382	1.506	 H	1	UNK0	0.000	
42	   H	-3.418	1.363	0.292	 H	1	UNK0	0.000	
43	   H	-4.287	3.721	0.958	 H	1	UNK0	0.000	
44	   H	-4.280	3.221	-0.809	 H	1	UNK0	0.000	
45	   H	-2.154	4.790	0.595	 H	1	UNK0	0.000	
46	   H	-3.120	5.336	-0.839	 H	1	UNK0	0.000	
47	   H	-2.377	3.357	-2.116	 H	1	UNK0	0.000	
48	   H	-0.833	4.071	-1.457	 H	1	UNK0	0.000	
49	   H	-3.365	-0.363	-0.551	 H	1	UNK0	0.000	
50	   H	-3.073	-1.916	0.315	 H	1	UNK0	0.000	
51	   H	-4.594	-2.194	-1.868	 H	1	UNK0	0.000	
52	   H	-4.392	-3.411	-4.015	 H	1	UNK0	0.000	
53	   H	-2.235	-3.794	-5.073	 H	1	UNK0	0.000	
54	   H	-0.224	-2.934	-3.943	 H	1	UNK0	0.000	
55	   H	-0.375	-1.757	-1.795	 H	1	UNK0	0.000	
@<TRIPOS>BOND
1 1 2 1
2 2 3 2
3 2 10 1
4 3 4 1
5 4 5 1
6 4 8 2
7 5 6 1
8 5 23 1
9 6 7 2
10 6 17 1
11 7 8 1
12 7 12 1
13 8 9 1
14 9 10 2
15 10 11 1
16 12 13 2
17 12 14 1
18 14 15 1
19 15 16 1
20 17 18 1
21 18 19 1
22 18 22 1
23 19 20 1
24 20 21 1
25 21 22 1
26 23 24 1
27 24 25 2
28 24 29 1
29 25 26 1
30 26 27 2
31 27 28 1
32 28 29 2
33 3 30 1
34 9 31 1
35 11 32 1
36 15 33 1
37 15 34 1
38 16 35 1
39 16 36 1
40 16 37 1
41 17 38 1
42 17 39 1
43 18 40 1
44 19 41 1
45 19 42 1
46 20 43 1
47 20 44 1
48 21 45 1
49 21 46 1
50 22 47 1
51 22 48 1
52 23 49 1
53 23 50 1
54 25 51 1
55 26 52 1
56 27 53 1
57 28 54 1
58 29 55 1
@<TRIPOS>SUBSTRUCTURE
1	UNK0	1	GROUP	1 ****	UNK
# created with PyMOL 2.3.2
@<TRIPOS>MOLECULE
626
51 54 1                 
SMALL
USER_CHARGES
@<TRIPOS>ATOM
1	  Br	-1.916	-1.198	-0.363	Br	1	UNK0	0.000	
2	   C	-1.747	-2.638	0.893	C.2	1	UNK0	0.000	
3	   C	-2.124	-3.904	0.507	C.2	1	UNK0	0.000	
4	   C	-2.026	-4.958	1.382	C.2	1	UNK0	0.000	
5	   N	-2.293	-6.277	1.341	N.2	1	UNK0	0.000	
6	   C	-1.996	-6.853	2.521	C.2	1	UNK0	0.000	
7	   N	-1.537	-5.854	3.295	N.pl3	1	UNK0	0.000	
8	   C	-1.542	-4.681	2.629	C.2	1	UNK0	0.000	
9	   C	-1.156	-3.393	3.027	C.2	1	UNK0	0.000	
10	   C	-1.253	-2.335	2.152	C.2	1	UNK0	0.000	
11	   N	-0.883	-1.003	2.441	N.pl3	1	UNK0	0.000	
12	   C	-0.404	-0.494	3.655	C.2	1	UNK0	0.000	
13	   O	-0.258	-1.254	4.646	O.2	1	UNK0	0.000	
14	   C	-0.044	0.912	3.868	C.3	1	UNK0	0.000	
15	   N	-0.213	1.812	2.798	N.3	1	UNK0	0.000	
16	   C	-1.533	2.147	2.403	C.3	1	UNK0	0.000	
17	   C	-1.583	2.729	0.990	C.3	1	UNK0	0.000	
18	   N	-0.691	3.807	0.934	N.3	1	UNK0	0.000	
19	   C	0.144	4.057	2.043	C.3	1	UNK0	0.000	
20	   C	0.748	2.859	2.712	C.3	1	UNK0	0.000	
21	   C	-0.336	4.263	-0.333	C.3	1	UNK0	0.000	
22	   C	0.530	3.426	-1.164	C.2	1	UNK0	0.000	
23	   O	0.794	3.904	-2.335	O.2	1	UNK0	0.000	
24	   N	1.096	2.196	-0.848	N.pl3	1	UNK0	0.000	
25	   C	1.951	1.448	-1.765	C.3	1	UNK0	0.000	
26	   C	2.967	0.512	-1.258	C.3	1	UNK0	0.000	
27	   C	1.706	-0.040	-1.896	C.3	1	UNK0	0.000	
28	   O	-2.141	-8.214	2.855	O.3	1	UNK0	0.000	
29	   H	-2.505	-4.109	-0.483	 H	1	UNK0	0.000	
30	   H	-1.212	-5.961	4.296	 H	1	UNK0	0.000	
31	   H	-0.789	-3.252	4.016	 H	1	UNK0	0.000	
32	   H	-0.955	-0.287	1.655	 H	1	UNK0	0.000	
33	   H	-0.707	1.265	4.718	 H	1	UNK0	0.000	
34	   H	0.998	1.032	4.257	 H	1	UNK0	0.000	
35	   H	-1.835	3.031	3.056	 H	1	UNK0	0.000	
36	   H	-2.267	1.378	2.595	 H	1	UNK0	0.000	
37	   H	-2.629	3.122	0.876	 H	1	UNK0	0.000	
38	   H	-1.352	1.949	0.279	 H	1	UNK0	0.000	
39	   H	0.906	4.840	1.817	 H	1	UNK0	0.000	
40	   H	-0.505	4.545	2.835	 H	1	UNK0	0.000	
41	   H	1.706	2.545	2.240	 H	1	UNK0	0.000	
42	   H	1.013	3.164	3.756	 H	1	UNK0	0.000	
43	   H	-1.314	4.471	-0.898	 H	1	UNK0	0.000	
44	   H	0.081	5.333	-0.273	 H	1	UNK0	0.000	
45	   H	0.929	1.763	0.083	 H	1	UNK0	0.000	
46	   H	2.164	1.938	-2.735	 H	1	UNK0	0.000	
47	   H	3.898	0.326	-1.850	 H	1	UNK0	0.000	
48	   H	3.094	0.269	-0.204	 H	1	UNK0	0.000	
49	   H	0.966	-0.540	-1.235	 H	1	UNK0	0.000	
50	   H	1.778	-0.514	-2.905	 H	1	UNK0	0.000	
51	   H	-1.304	-8.792	2.702	 H	1	UNK0	0.000	
@<TRIPOS>BOND
1 1 2 1
2 2 3 2
3 2 10 1
4 3 4 1
5 4 5 1
6 4 8 2
7 5 6 2
8 6 7 1
9 6 28 1
10 7 8 1
11 8 9 1
12 9 10 2
13 10 11 1
14 11 12 1
15 12 13 2
16 12 14 1
17 14 15 1
18 15 16 1
19 15 20 1
20 16 17 1
21 17 18 1
22 18 19 1
23 18 21 1
24 19 20 1
25 21 22 1
26 22 23 2
27 22 24 1
28 24 25 1
29 25 26 1
30 25 27 1
31 26 27 1
32 3 29 1
33 7 30 1
34 9 31 1
35 11 32 1
36 14 33 1
37 14 34 1
38 16 35 1
39 16 36 1
40 17 37 1
41 17 38 1
42 19 39 1
43 19 40 1
44 20 41 1
45 20 42 1
46 21 43 1
47 21 44 1
48 24 45 1
49 25 46 1
50 26 47 1
51 26 48 1
52 27 49 1
53 27 50 1
54 28 51 1
@<TRIPOS>SUBSTRUCTURE
1	UNK0	1	GROUP	1 ****	UNK
# created with PyMOL 2.3.2
@<TRIPOS>MOLECULE
631
43 46 1                 
SMALL
USER_CHARGES
@<TRIPOS>ATOM
1	  Br	-5.976	2.473	-2.695	Br	1	UNK0	0.000	
2	   C	-4.828	2.151	-1.196	C.2	1	UNK0	0.000	
3	   C	-5.008	2.836	0.004	C.2	1	UNK0	0.000	
4	   C	-4.142	2.550	1.034	C.2	1	UNK0	0.000	
5	   N	-4.033	3.015	2.291	N.2	1	UNK0	0.000	
6	   N	-3.016	2.415	2.903	N.pl3	1	UNK0	0.000	
7	   C	-2.414	1.536	2.089	C.2	1	UNK0	0.000	
8	   C	-3.143	1.627	0.887	C.2	1	UNK0	0.000	
9	   C	-2.958	0.949	-0.285	C.2	1	UNK0	0.000	
10	   C	-3.809	1.218	-1.328	C.2	1	UNK0	0.000	
11	   N	-1.309	0.694	2.311	N.pl3	1	UNK0	0.000	
12	   C	-0.000	0.948	1.670	C.3	1	UNK0	0.000	
13	   C	0.485	-0.450	1.321	C.3	1	UNK0	0.000	
14	   C	-0.082	-1.291	2.445	C.3	1	UNK0	0.000	
15	   C	-1.160	-0.494	3.085	C.2	1	UNK0	0.000	
16	   O	-1.813	-0.786	4.096	O.2	1	UNK0	0.000	
17	   C	1.954	-0.363	1.304	C.2	1	UNK0	0.000	
18	   O	2.662	-1.224	1.876	O.2	1	UNK0	0.000	
19	   N	2.552	0.728	0.617	N.pl3	1	UNK0	0.000	
20	   C	3.988	0.885	0.544	C.3	1	UNK0	0.000	
21	   C	4.665	-0.265	-0.171	C.3	1	UNK0	0.000	
22	   C	4.191	-0.368	-1.565	C.2	1	UNK0	0.000	
23	   N	4.768	0.265	-2.599	N.2	1	UNK0	0.000	
24	   C	4.123	-0.023	-3.730	C.2	1	UNK0	0.000	
25	   N	3.101	-0.865	-3.418	N.pl3	1	UNK0	0.000	
26	   C	3.153	-1.068	-2.098	C.2	1	UNK0	0.000	
27	   H	-5.813	3.547	0.045	 H	1	UNK0	0.000	
28	   H	-2.752	2.626	3.885	 H	1	UNK0	0.000	
29	   H	-2.151	0.221	-0.356	 H	1	UNK0	0.000	
30	   H	-3.691	0.699	-2.266	 H	1	UNK0	0.000	
31	   H	-0.142	1.559	0.785	 H	1	UNK0	0.000	
32	   H	0.629	1.463	2.404	 H	1	UNK0	0.000	
33	   H	0.130	-0.772	0.337	 H	1	UNK0	0.000	
34	   H	-0.626	-2.148	1.943	 H	1	UNK0	0.000	
35	   H	0.647	-1.717	3.124	 H	1	UNK0	0.000	
36	   H	1.927	1.423	0.164	 H	1	UNK0	0.000	
37	   H	4.220	1.805	-0.010	 H	1	UNK0	0.000	
38	   H	4.428	0.985	1.560	 H	1	UNK0	0.000	
39	   H	5.748	-0.033	-0.195	 H	1	UNK0	0.000	
40	   H	4.590	-1.222	0.395	 H	1	UNK0	0.000	
41	   H	4.370	0.344	-4.711	 H	1	UNK0	0.000	
42	   H	2.442	-1.237	-4.139	 H	1	UNK0	0.000	
43	   H	2.463	-1.699	-1.566	 H	1	UNK0	0.000	
@<TRIPOS>BOND
1 1 2 1
2 2 3 2
3 2 10 1
4 3 4 1
5 4 5 2
6 4 8 1
7 5 6 1
8 6 7 1
9 7 8 2
10 7 11 1
11 8 9 1
12 9 10 2
13 11 12 1
14 11 15 1
15 12 13 1
16 13 14 1
17 13 17 1
18 14 15 1
19 15 16 2
20 17 18 2
21 17 19 1
22 19 20 1
23 20 21 1
24 21 22 1
25 22 23 1
26 22 26 2
27 23 24 2
28 24 25 1
29 25 26 1
30 3 27 1
31 6 28 1
32 9 29 1
33 10 30 1
34 12 31 1
35 12 32 1
36 13 33 1
37 14 34 1
38 14 35 1
39 19 36 1
40 20 37 1
41 20 38 1
42 21 39 1
43 21 40 1
44 24 41 1
45 25 42 1
46 26 43 1
@<TRIPOS>SUBSTRUCTURE
1	UNK0	1	GROUP	1 ****	UNK
# created with PyMOL 2.3.2
@<TRIPOS>MOLECULE
648
58 61 1                 
SMALL
USER_CHARGES
@<TRIPOS>ATOM
1	  Br	2.743	-2.958	-4.406	Br	1	UNK0	0.000	
2	   C	3.926	-2.236	-3.072	C.2	1	UNK0	0.000	
3	   C	5.184	-1.735	-3.269	C.2	1	UNK0	0.000	
4	   N	5.643	-1.343	-2.076	N.pl3	1	UNK0	0.000	
5	   N	4.732	-1.580	-1.170	N.2	1	UNK0	0.000	
6	   C	3.613	-2.144	-1.712	C.2	1	UNK0	0.000	
7	   C	2.395	-2.553	-1.060	C.2	1	UNK0	0.000	
8	   O	1.507	-3.078	-1.824	O.2	1	UNK0	0.000	
9	   N	2.098	-2.437	0.272	N.pl3	1	UNK0	0.000	
10	   C	2.946	-1.868	1.273	C.3	1	UNK0	0.000	
11	   C	2.379	-0.551	1.691	C.3	1	UNK0	0.000	
12	   N	0.936	-0.507	1.504	N.pl3	1	UNK0	0.000	
13	   C	0.119	-1.672	1.426	C.3	1	UNK0	0.000	
14	   C	0.804	-2.893	0.820	C.3	1	UNK0	0.000	
15	   C	0.419	0.823	1.343	C.2	1	UNK0	0.000	
16	   O	1.292	1.787	1.294	O.2	1	UNK0	0.000	
17	   C	-0.959	1.154	1.233	C.2	1	UNK0	0.000	
18	   N	-1.409	2.422	0.888	N.pl3	1	UNK0	0.000	
19	   N	-2.701	2.453	0.924	N.2	1	UNK0	0.000	
20	   C	-3.204	1.274	1.278	C.2	1	UNK0	0.000	
21	   C	-2.082	0.444	1.476	C.2	1	UNK0	0.000	
22	   C	-4.589	0.863	1.421	C.2	1	UNK0	0.000	
23	   O	-4.787	-0.345	1.804	O.2	1	UNK0	0.000	
24	   N	-5.696	1.661	1.178	N.pl3	1	UNK0	0.000	
25	   C	-7.025	1.082	1.399	C.3	1	UNK0	0.000	
26	   C	-7.791	1.306	0.112	C.3	1	UNK0	0.000	
27	   O	-7.954	2.700	0.014	O.3	1	UNK0	0.000	
28	   C	-6.759	3.289	-0.293	C.3	1	UNK0	0.000	
29	   C	-5.643	3.009	0.705	C.3	1	UNK0	0.000	
30	   C	-0.570	3.543	0.536	C.3	1	UNK0	0.000	
31	   C	6.970	-0.761	-1.916	C.3	1	UNK0	0.000	
32	   C	6.975	0.737	-2.064	C.3	1	UNK0	0.000	
33	   H	5.696	-1.679	-4.229	 H	1	UNK0	0.000	
34	   H	2.894	-2.530	2.192	 H	1	UNK0	0.000	
35	   H	3.997	-1.708	0.982	 H	1	UNK0	0.000	
36	   H	2.800	0.294	1.076	 H	1	UNK0	0.000	
37	   H	2.641	-0.405	2.767	 H	1	UNK0	0.000	
38	   H	-0.655	-1.427	0.623	 H	1	UNK0	0.000	
39	   H	-0.420	-1.963	2.323	 H	1	UNK0	0.000	
40	   H	0.228	-3.405	0.060	 H	1	UNK0	0.000	
41	   H	1.046	-3.573	1.648	 H	1	UNK0	0.000	
42	   H	-2.182	-0.570	1.800	 H	1	UNK0	0.000	
43	   H	-7.467	1.663	2.236	 H	1	UNK0	0.000	
44	   H	-6.988	0.017	1.638	 H	1	UNK0	0.000	
45	   H	-7.178	0.964	-0.734	 H	1	UNK0	0.000	
46	   H	-8.789	0.817	0.166	 H	1	UNK0	0.000	
47	   H	-6.417	2.925	-1.286	 H	1	UNK0	0.000	
48	   H	-6.903	4.378	-0.401	 H	1	UNK0	0.000	
49	   H	-4.698	3.169	0.152	 H	1	UNK0	0.000	
50	   H	-5.737	3.711	1.543	 H	1	UNK0	0.000	
51	   H	-0.097	4.001	1.406	 H	1	UNK0	0.000	
52	   H	0.183	3.241	-0.229	 H	1	UNK0	0.000	
53	   H	-1.190	4.318	0.046	 H	1	UNK0	0.000	
54	   H	7.407	-1.029	-0.927	 H	1	UNK0	0.000	
55	   H	7.666	-1.181	-2.680	 H	1	UNK0	0.000	
56	   H	6.061	1.177	-1.607	 H	1	UNK0	0.000	
57	   H	7.841	1.131	-1.491	 H	1	UNK0	0.000	
58	   H	7.114	1.009	-3.126	 H	1	UNK0	0.000	
@<TRIPOS>BOND
1 1 2 1
2 2 3 2
3 2 6 1
4 3 4 1
5 4 5 1
6 4 31 1
7 5 6 2
8 6 7 1
9 7 8 2
10 7 9 1
11 9 10 1
12 9 14 1
13 10 11 1
14 11 12 1
15 12 13 1
16 12 15 1
17 13 14 1
18 15 16 2
19 15 17 1
20 17 18 1
21 17 21 2
22 18 19 1
23 18 30 1
24 19 20 2
25 20 21 1
26 20 22 1
27 22 23 2
28 22 24 1
29 24 25 1
30 24 29 1
31 25 26 1
32 26 27 1
33 27 28 1
34 28 29 1
35 31 32 1
36 3 33 1
37 10 34 1
38 10 35 1
39 11 36 1
40 11 37 1
41 13 38 1
42 13 39 1
43 14 40 1
44 14 41 1
45 21 42 1
46 25 43 1
47 25 44 1
48 26 45 1
49 26 46 1
50 28 47 1
51 28 48 1
52 29 49 1
53 29 50 1
54 30 51 1
55 30 52 1
56 30 53 1
57 31 54 1
58 31 55 1
59 32 56 1
60 32 57 1
61 32 58 1
@<TRIPOS>SUBSTRUCTURE
1	UNK0	1	GROUP	1 ****	UNK
# created with PyMOL 2.3.2
@<TRIPOS>MOLECULE
653
47 50 1                 
SMALL
USER_CHARGES
@<TRIPOS>ATOM
1	  Br	5.574	-2.081	-2.679	Br	1	UNK0	0.000	
2	   C	4.994	-1.625	-0.918	C.2	1	UNK0	0.000	
3	   C	4.334	-0.486	-0.518	C.2	1	UNK0	0.000	
4	   N	4.115	-0.573	0.790	N.pl3	1	UNK0	0.000	
5	   N	4.621	-1.732	1.204	N.2	1	UNK0	0.000	
6	   C	5.173	-2.418	0.192	C.2	1	UNK0	0.000	
7	   C	3.441	0.416	1.653	C.3	1	UNK0	0.000	
8	   C	1.992	0.079	1.638	C.2	1	UNK0	0.000	
9	   O	1.230	0.743	2.412	O.2	1	UNK0	0.000	
10	   N	1.501	-0.912	0.816	N.pl3	1	UNK0	0.000	
11	   C	0.138	-1.386	0.658	C.3	1	UNK0	0.000	
12	   C	-0.823	-0.312	0.328	C.2	1	UNK0	0.000	
13	   C	-0.589	0.608	-0.662	C.2	1	UNK0	0.000	
14	   C	-1.524	1.577	-0.977	C.2	1	UNK0	0.000	
15	   C	-2.724	1.648	-0.305	C.2	1	UNK0	0.000	
16	   C	-2.978	0.709	0.713	C.2	1	UNK0	0.000	
17	   C	-2.051	-0.250	1.025	C.2	1	UNK0	0.000	
18	   C	-2.323	-1.215	2.093	C.3	1	UNK0	0.000	
19	   C	-3.733	-1.438	2.471	C.3	1	UNK0	0.000	
20	   N	-4.568	-0.248	2.367	N.pl3	1	UNK0	0.000	
21	   C	-4.273	0.736	1.385	C.2	1	UNK0	0.000	
22	   O	-5.144	1.617	1.114	O.2	1	UNK0	0.000	
23	   C	-5.683	-0.152	3.281	C.3	1	UNK0	0.000	
24	   O	-3.682	2.604	-0.591	O.3	1	UNK0	0.000	
25	   C	-3.694	3.850	0.074	C.3	1	UNK0	0.000	
26	   O	-0.980	2.330	-1.999	O.3	1	UNK0	0.000	
27	   C	0.361	1.971	-2.217	C.3	1	UNK0	0.000	
28	   O	0.544	0.756	-1.495	O.3	1	UNK0	0.000	
29	   H	4.061	0.325	-1.197	 H	1	UNK0	0.000	
30	   H	5.662	-3.378	0.186	 H	1	UNK0	0.000	
31	   H	3.617	1.422	1.198	 H	1	UNK0	0.000	
32	   H	3.837	0.416	2.667	 H	1	UNK0	0.000	
33	   H	2.196	-1.434	0.194	 H	1	UNK0	0.000	
34	   H	-0.110	-1.714	1.724	 H	1	UNK0	0.000	
35	   H	0.043	-2.275	0.031	 H	1	UNK0	0.000	
36	   H	-1.697	-1.061	2.998	 H	1	UNK0	0.000	
37	   H	-1.956	-2.218	1.699	 H	1	UNK0	0.000	
38	   H	-4.204	-2.208	1.791	 H	1	UNK0	0.000	
39	   H	-3.766	-1.869	3.509	 H	1	UNK0	0.000	
40	   H	-6.092	-1.176	3.456	 H	1	UNK0	0.000	
41	   H	-5.294	0.229	4.243	 H	1	UNK0	0.000	
42	   H	-6.468	0.548	2.937	 H	1	UNK0	0.000	
43	   H	-3.305	3.664	1.114	 H	1	UNK0	0.000	
44	   H	-4.716	4.269	0.167	 H	1	UNK0	0.000	
45	   H	-3.044	4.607	-0.441	 H	1	UNK0	0.000	
46	   H	1.084	2.709	-1.802	 H	1	UNK0	0.000	
47	   H	0.548	1.723	-3.285	 H	1	UNK0	0.000	
@<TRIPOS>BOND
1 1 2 1
2 2 3 2
3 2 6 1
4 3 4 1
5 4 5 1
6 4 7 1
7 5 6 2
8 7 8 1
9 8 9 2
10 8 10 1
11 10 11 1
12 11 12 1
13 12 13 2
14 12 17 1
15 13 14 1
16 13 28 1
17 14 15 2
18 14 26 1
19 15 16 1
20 15 24 1
21 16 17 2
22 16 21 1
23 17 18 1
24 18 19 1
25 19 20 1
26 20 21 1
27 20 23 1
28 21 22 2
29 24 25 1
30 26 27 1
31 27 28 1
32 3 29 1
33 6 30 1
34 7 31 1
35 7 32 1
36 10 33 1
37 11 34 1
38 11 35 1
39 18 36 1
40 18 37 1
41 19 38 1
42 19 39 1
43 23 40 1
44 23 41 1
45 23 42 1
46 25 43 1
47 25 44 1
48 25 45 1
49 27 46 1
50 27 47 1
@<TRIPOS>SUBSTRUCTURE
1	UNK0	1	GROUP	1 ****	UNK
# created with PyMOL 2.3.2
@<TRIPOS>MOLECULE
662
33 37 1                 
SMALL
USER_CHARGES
@<TRIPOS>ATOM
1	  Br	-1.457	-0.178	-6.953	Br	1	UNK0	0.000	
2	   C	-0.633	-1.129	-5.541	C.2	1	UNK0	0.000	
3	   C	0.569	-0.826	-4.934	C.2	1	UNK0	0.000	
4	   N	0.800	-1.742	-3.979	N.pl3	1	UNK0	0.000	
5	   N	-0.206	-2.598	-3.970	N.2	1	UNK0	0.000	
6	   C	-1.112	-2.258	-4.915	C.2	1	UNK0	0.000	
7	   C	1.952	-1.793	-3.103	C.3	1	UNK0	0.000	
8	   N	1.723	-1.032	-1.872	N.pl3	1	UNK0	0.000	
9	   N	1.205	-1.519	-0.758	N.2	1	UNK0	0.000	
10	   C	1.123	-0.572	0.192	C.2	1	UNK0	0.000	
11	   C	1.628	0.573	-0.387	C.2	1	UNK0	0.000	
12	   C	2.003	0.270	-1.692	C.2	1	UNK0	0.000	
13	   C	0.613	-0.702	1.556	C.2	1	UNK0	0.000	
14	   N	0.122	-1.818	2.118	N.2	1	UNK0	0.000	
15	   N	-0.252	-1.574	3.374	N.pl3	1	UNK0	0.000	
16	   C	0.006	-0.259	3.628	C.2	1	UNK0	0.000	
17	   N	0.535	0.251	2.499	N.2	1	UNK0	0.000	
18	   C	-0.299	0.239	4.877	C.2	1	UNK0	0.000	
19	   C	-0.854	-0.541	5.876	C.2	1	UNK0	0.000	
20	   N	-1.038	0.213	6.973	N.pl3	1	UNK0	0.000	
21	   N	-0.615	1.433	6.683	N.2	1	UNK0	0.000	
22	   C	-0.157	1.490	5.415	C.2	1	UNK0	0.000	
23	   N	-1.090	-1.829	5.580	N.2	1	UNK0	0.000	
24	   C	-0.792	-2.310	4.362	C.2	1	UNK0	0.000	
25	   H	1.183	0.006	-5.206	 H	1	UNK0	0.000	
26	   H	-2.031	-2.754	-5.153	 H	1	UNK0	0.000	
27	   H	2.868	-1.389	-3.591	 H	1	UNK0	0.000	
28	   H	2.207	-2.860	-2.840	 H	1	UNK0	0.000	
29	   H	1.706	1.526	0.109	 H	1	UNK0	0.000	
30	   H	2.436	0.928	-2.432	 H	1	UNK0	0.000	
31	   H	-1.436	-0.079	7.891	 H	1	UNK0	0.000	
32	   H	0.256	2.350	4.881	 H	1	UNK0	0.000	
33	   H	-0.997	-3.352	4.163	 H	1	UNK0	0.000	
@<TRIPOS>BOND
1 1 2 1
2 2 3 2
3 2 6 1
4 3 4 1
5 4 5 1
6 4 7 1
7 5 6 2
8 7 8 1
9 8 9 1
10 8 12 1
11 9 10 2
12 10 11 1
13 10 13 1
14 11 12 2
15 13 14 2
16 13 17 1
17 14 15 1
18 15 16 1
19 15 24 1
20 16 17 2
21 16 18 1
22 18 19 2
23 18 22 1
24 19 20 1
25 19 23 1
26 20 21 1
27 21 22 2
28 23 24 2
29 3 25 1
30 6 26 1
31 7 27 1
32 7 28 1
33 11 29 1
34 12 30 1
35 20 31 1
36 22 32 1
37 24 33 1
@<TRIPOS>SUBSTRUCTURE
1	UNK0	1	GROUP	1 ****	UNK
# created with PyMOL 2.3.2
@<TRIPOS>MOLECULE
663
42 45 1                 
SMALL
USER_CHARGES
@<TRIPOS>ATOM
1	  Br	-3.501	-7.315	2.874	Br	1	UNK0	0.000	
2	   C	-2.288	-5.820	2.848	C.2	1	UNK0	0.000	
3	   C	-2.125	-4.893	1.842	C.2	1	UNK0	0.000	
4	   N	-1.181	-4.005	2.202	N.pl3	1	UNK0	0.000	
5	   N	-0.765	-4.364	3.398	N.2	1	UNK0	0.000	
6	   C	-1.399	-5.451	3.833	C.2	1	UNK0	0.000	
7	   C	-0.694	-2.886	1.476	C.2	1	UNK0	0.000	
8	   C	0.573	-2.891	0.946	C.2	1	UNK0	0.000	
9	   C	1.068	-1.826	0.242	C.2	1	UNK0	0.000	
10	   C	0.321	-0.653	0.008	C.2	1	UNK0	0.000	
11	   C	-0.945	-0.660	0.545	C.2	1	UNK0	0.000	
12	   C	-1.441	-1.759	1.264	C.2	1	UNK0	0.000	
13	   C	0.932	0.443	-0.709	C.2	1	UNK0	0.000	
14	   O	2.203	0.303	-0.914	O.2	1	UNK0	0.000	
15	   N	0.369	1.607	-1.204	N.pl3	1	UNK0	0.000	
16	   C	-0.990	2.077	-1.217	C.3	1	UNK0	0.000	
17	   C	-1.126	3.078	-0.086	C.3	1	UNK0	0.000	
18	   C	0.134	3.911	0.036	C.3	1	UNK0	0.000	
19	   N	-0.276	5.263	0.347	N.pl3	1	UNK0	0.000	
20	   C	-0.451	5.353	1.753	C.2	1	UNK0	0.000	
21	   O	-1.121	6.217	2.407	O.2	1	UNK0	0.000	
22	   N	0.286	4.263	2.329	N.pl3	1	UNK0	0.000	
23	   C	0.894	3.533	1.242	C.2	1	UNK0	0.000	
24	   O	1.865	2.757	1.372	O.2	1	UNK0	0.000	
25	   C	0.953	3.940	-1.214	C.3	1	UNK0	0.000	
26	   C	1.302	2.614	-1.800	C.3	1	UNK0	0.000	
27	   H	-2.672	-4.885	0.908	 H	1	UNK0	0.000	
28	   H	-1.284	-5.996	4.780	 H	1	UNK0	0.000	
29	   H	1.159	-3.799	1.123	 H	1	UNK0	0.000	
30	   H	2.064	-1.870	-0.158	 H	1	UNK0	0.000	
31	   H	-1.571	0.208	0.435	 H	1	UNK0	0.000	
32	   H	-2.445	-1.724	1.670	 H	1	UNK0	0.000	
33	   H	-1.086	2.762	-2.153	 H	1	UNK0	0.000	
34	   H	-1.778	1.363	-1.331	 H	1	UNK0	0.000	
35	   H	-1.999	3.713	-0.234	 H	1	UNK0	0.000	
36	   H	-1.248	2.512	0.851	 H	1	UNK0	0.000	
37	   H	-0.428	6.056	-0.306	 H	1	UNK0	0.000	
38	   H	0.395	4.001	3.333	 H	1	UNK0	0.000	
39	   H	1.929	4.435	-0.932	 H	1	UNK0	0.000	
40	   H	0.512	4.626	-1.975	 H	1	UNK0	0.000	
41	   H	1.048	2.609	-2.880	 H	1	UNK0	0.000	
42	   H	2.340	2.299	-1.683	 H	1	UNK0	0.000	
@<TRIPOS>BOND
1 1 2 1
2 2 3 2
3 2 6 1
4 3 4 1
5 4 5 1
6 4 7 1
7 5 6 2
8 7 8 2
9 7 12 1
10 8 9 1
11 9 10 2
12 10 11 1
13 10 13 1
14 11 12 2
15 13 14 2
16 13 15 1
17 15 16 1
18 15 26 1
19 16 17 1
20 17 18 1
21 18 19 1
22 18 23 1
23 18 25 1
24 19 20 1
25 20 21 2
26 20 22 1
27 22 23 1
28 23 24 2
29 25 26 1
30 3 27 1
31 6 28 1
32 8 29 1
33 9 30 1
34 11 31 1
35 12 32 1
36 16 33 1
37 16 34 1
38 17 35 1
39 17 36 1
40 19 37 1
41 22 38 1
42 25 39 1
43 25 40 1
44 26 41 1
45 26 42 1
@<TRIPOS>SUBSTRUCTURE
1	UNK0	1	GROUP	1 ****	UNK
# created with PyMOL 2.3.2
@<TRIPOS>MOLECULE
666
41 44 1                 
SMALL
USER_CHARGES
@<TRIPOS>ATOM
1	  Br	-6.444	1.412	-0.400	Br	1	UNK0	0.000	
2	   C	-4.544	1.500	-0.591	C.2	1	UNK0	0.000	
3	   C	-3.741	0.410	-0.382	C.2	1	UNK0	0.000	
4	   N	-2.414	0.494	-0.529	N.2	1	UNK0	0.000	
5	   C	-1.765	1.634	-0.888	C.2	1	UNK0	0.000	
6	   C	-2.594	2.743	-1.097	C.2	1	UNK0	0.000	
7	   C	-3.954	2.688	-0.956	C.2	1	UNK0	0.000	
8	   N	-0.360	1.664	-1.046	N.pl3	1	UNK0	0.000	
9	   C	0.358	0.459	-0.860	C.2	1	UNK0	0.000	
10	   C	1.409	0.238	-0.127	C.2	1	UNK0	0.000	
11	   C	1.745	-1.177	-0.294	C.2	1	UNK0	0.000	
12	   O	2.724	-1.745	0.283	O.2	1	UNK0	0.000	
13	   N	0.826	-1.823	-1.187	N.pl3	1	UNK0	0.000	
14	   C	-0.071	-0.777	-1.558	C.2	1	UNK0	0.000	
15	   O	-1.052	-0.887	-2.340	O.2	1	UNK0	0.000	
16	   C	0.819	-3.184	-1.587	C.2	1	UNK0	0.000	
17	   C	1.876	-4.035	-1.389	C.2	1	UNK0	0.000	
18	   C	1.827	-5.388	-1.785	C.2	1	UNK0	0.000	
19	   C	0.700	-5.897	-2.389	C.2	1	UNK0	0.000	
20	   C	-0.360	-5.050	-2.589	C.2	1	UNK0	0.000	
21	   C	-0.294	-3.714	-2.191	C.2	1	UNK0	0.000	
22	   N	2.137	1.158	0.689	N.pl3	1	UNK0	0.000	
23	   C	1.490	2.159	1.313	C.2	1	UNK0	0.000	
24	   C	2.177	3.086	2.116	C.2	1	UNK0	0.000	
25	   C	3.546	2.978	2.274	C.2	1	UNK0	0.000	
26	   C	4.186	1.944	1.625	C.2	1	UNK0	0.000	
27	   C	3.479	1.061	0.852	C.2	1	UNK0	0.000	
28	   H	-4.200	-0.520	-0.092	 H	1	UNK0	0.000	
29	   H	-2.095	3.666	-1.382	 H	1	UNK0	0.000	
30	   H	-4.603	3.551	-1.119	 H	1	UNK0	0.000	
31	   H	0.124	2.529	-1.285	 H	1	UNK0	0.000	
32	   H	2.772	-3.659	-0.920	 H	1	UNK0	0.000	
33	   H	2.692	-6.023	-1.607	 H	1	UNK0	0.000	
34	   H	0.674	-6.944	-2.690	 H	1	UNK0	0.000	
35	   H	-1.250	-5.442	-3.066	 H	1	UNK0	0.000	
36	   H	-1.167	-3.110	-2.376	 H	1	UNK0	0.000	
37	   H	0.416	2.224	1.176	 H	1	UNK0	0.000	
38	   H	1.608	3.880	2.605	 H	1	UNK0	0.000	
39	   H	4.095	3.693	2.895	 H	1	UNK0	0.000	
40	   H	5.252	1.852	1.739	 H	1	UNK0	0.000	
41	   H	3.982	0.231	0.330	 H	1	UNK0	0.000	
@<TRIPOS>BOND
1 1 2 1
2 2 3 2
3 2 7 1
4 3 4 1
5 4 5 2
6 5 6 1
7 5 8 1
8 6 7 2
9 8 9 1
10 9 10 2
11 9 14 1
12 10 11 1
13 10 22 1
14 11 12 2
15 11 13 1
16 13 14 1
17 13 16 1
18 14 15 2
19 16 17 2
20 16 21 1
21 17 18 1
22 18 19 2
23 19 20 1
24 20 21 2
25 22 23 2
26 22 27 1
27 23 24 1
28 24 25 2
29 25 26 1
30 26 27 2
31 3 28 1
32 6 29 1
33 7 30 1
34 8 31 1
35 17 32 1
36 18 33 1
37 19 34 1
38 20 35 1
39 21 36 1
40 23 37 1
41 24 38 1
42 25 39 1
43 26 40 1
44 27 41 1
@<TRIPOS>SUBSTRUCTURE
1	UNK0	1	GROUP	1 ****	UNK
# created with PyMOL 2.3.2
@<TRIPOS>MOLECULE
670
38 41 1                 
SMALL
USER_CHARGES
@<TRIPOS>ATOM
1	  Br	3.562	-7.864	-0.335	Br	1	UNK0	0.000	
2	   C	2.496	-6.288	-0.534	C.2	1	UNK0	0.000	
3	   C	3.060	-5.115	-0.982	C.2	1	UNK0	0.000	
4	   N	2.303	-4.034	-1.113	N.2	1	UNK0	0.000	
5	   C	0.982	-3.976	-0.838	C.2	1	UNK0	0.000	
6	   N	0.429	-5.143	-0.393	N.2	1	UNK0	0.000	
7	   C	1.149	-6.269	-0.242	C.2	1	UNK0	0.000	
8	   N	0.203	-2.823	-0.983	N.pl3	1	UNK0	0.000	
9	   C	-1.172	-2.470	-0.777	C.3	1	UNK0	0.000	
10	   C	-0.637	-1.122	-0.336	C.3	1	UNK0	0.000	
11	   C	0.399	-1.464	-1.401	C.3	1	UNK0	0.000	
12	   C	-1.503	0.057	-0.650	C.3	1	UNK0	0.000	
13	   N	-0.840	1.237	-0.161	N.pl3	1	UNK0	0.000	
14	   N	-1.072	1.689	1.138	N.pl3	1	UNK0	0.000	
15	   C	-0.441	2.848	1.665	C.2	1	UNK0	0.000	
16	   C	-0.696	3.232	2.901	C.2	1	UNK0	0.000	
17	   C	-1.331	3.160	4.232	C.3	1	UNK0	0.000	
18	   C	-0.407	4.255	3.981	C.3	1	UNK0	0.000	
19	   C	0.483	3.612	0.850	C.2	1	UNK0	0.000	
20	   C	0.718	3.202	-0.386	C.2	1	UNK0	0.000	
21	   C	0.068	1.998	-0.943	C.2	1	UNK0	0.000	
22	   O	0.309	1.629	-2.123	O.2	1	UNK0	0.000	
23	   H	4.121	-5.145	-1.208	 H	1	UNK0	0.000	
24	   H	0.721	-7.200	0.109	 H	1	UNK0	0.000	
25	   H	-1.762	-2.311	-1.724	 H	1	UNK0	0.000	
26	   H	-1.717	-3.032	-0.001	 H	1	UNK0	0.000	
27	   H	-0.230	-1.181	0.678	 H	1	UNK0	0.000	
28	   H	0.013	-1.215	-2.413	 H	1	UNK0	0.000	
29	   H	1.401	-1.036	-1.228	 H	1	UNK0	0.000	
30	   H	-2.494	-0.050	-0.154	 H	1	UNK0	0.000	
31	   H	-1.673	0.177	-1.719	 H	1	UNK0	0.000	
32	   H	-1.750	1.124	1.728	 H	1	UNK0	0.000	
33	   H	-2.413	3.423	4.316	 H	1	UNK0	0.000	
34	   H	-1.034	2.373	4.944	 H	1	UNK0	0.000	
35	   H	-0.824	5.279	3.808	 H	1	UNK0	0.000	
36	   H	0.638	4.232	4.367	 H	1	UNK0	0.000	
37	   H	0.984	4.518	1.244	 H	1	UNK0	0.000	
38	   H	1.408	3.781	-0.980	 H	1	UNK0	0.000	
@<TRIPOS>BOND
1 1 2 1
2 2 3 2
3 2 7 1
4 3 4 1
5 4 5 2
6 5 6 1
7 5 8 1
8 6 7 2
9 8 9 1
10 8 11 1
11 9 10 1
12 10 11 1
13 10 12 1
14 12 13 1
15 13 14 1
16 13 21 1
17 14 15 1
18 15 16 2
19 15 19 1
20 16 17 1
21 16 18 1
22 17 18 1
23 19 20 2
24 20 21 1
25 21 22 2
26 3 23 1
27 7 24 1
28 9 25 1
29 9 26 1
30 10 27 1
31 11 28 1
32 11 29 1
33 12 30 1
34 12 31 1
35 14 32 1
36 17 33 1
37 17 34 1
38 18 35 1
39 18 36 1
40 19 37 1
41 20 38 1
@<TRIPOS>SUBSTRUCTURE
1	UNK0	1	GROUP	1 ****	UNK
# created with PyMOL 2.3.2
@<TRIPOS>MOLECULE
677
43 46 1                 
SMALL
USER_CHARGES
@<TRIPOS>ATOM
1	  Br	-4.873	3.737	2.419	Br	1	UNK0	0.000	
2	   C	-5.092	2.400	1.073	C.2	1	UNK0	0.000	
3	   C	-6.333	2.036	0.656	C.2	1	UNK0	0.000	
4	   N	-6.501	1.105	-0.282	N.2	1	UNK0	0.000	
5	   C	-5.430	0.512	-0.829	C.2	1	UNK0	0.000	
6	   C	-4.137	0.845	-0.441	C.2	1	UNK0	0.000	
7	   C	-3.955	1.806	0.527	C.2	1	UNK0	0.000	
8	   C	-3.042	0.161	-1.087	C.2	1	UNK0	0.000	
9	   O	-3.209	-0.430	-2.167	O.2	1	UNK0	0.000	
10	   N	-1.696	0.147	-0.478	N.pl3	1	UNK0	0.000	
11	   C	-0.717	-0.544	-1.196	C.3	1	UNK0	0.000	
12	   C	0.692	-0.596	-0.869	C.2	1	UNK0	0.000	
13	   C	1.402	-1.488	-1.749	C.2	1	UNK0	0.000	
14	   C	2.726	-1.675	-1.590	C.2	1	UNK0	0.000	
15	   C	3.437	-1.012	-0.573	C.2	1	UNK0	0.000	
16	   C	2.776	-0.156	0.274	C.2	1	UNK0	0.000	
17	   C	1.396	0.049	0.116	C.2	1	UNK0	0.000	
18	   C	0.684	1.042	0.961	C.3	1	UNK0	0.000	
19	   C	1.612	2.041	1.644	C.3	1	UNK0	0.000	
20	   N	2.748	1.387	2.250	N.pl3	1	UNK0	0.000	
21	   C	3.472	0.524	1.362	C.2	1	UNK0	0.000	
22	   O	4.695	0.401	1.580	O.2	1	UNK0	0.000	
23	   C	3.121	1.586	3.634	C.3	1	UNK0	0.000	
24	   O	4.757	-1.253	-0.479	O.3	1	UNK0	0.000	
25	   O	3.137	-2.583	-2.578	O.3	1	UNK0	0.000	
26	   C	2.008	-3.159	-3.200	C.3	1	UNK0	0.000	
27	   O	0.974	-2.270	-2.826	O.3	1	UNK0	0.000	
28	   H	-7.254	2.484	1.065	 H	1	UNK0	0.000	
29	   H	-5.528	-0.251	-1.597	 H	1	UNK0	0.000	
30	   H	-2.967	2.089	0.847	 H	1	UNK0	0.000	
31	   H	-1.692	0.634	0.430	 H	1	UNK0	0.000	
32	   H	-1.105	-1.646	-1.290	 H	1	UNK0	0.000	
33	   H	-0.839	-0.263	-2.326	 H	1	UNK0	0.000	
34	   H	0.084	0.595	1.760	 H	1	UNK0	0.000	
35	   H	0.042	1.705	0.332	 H	1	UNK0	0.000	
36	   H	0.977	2.555	2.408	 H	1	UNK0	0.000	
37	   H	1.941	2.753	0.855	 H	1	UNK0	0.000	
38	   H	2.401	0.986	4.244	 H	1	UNK0	0.000	
39	   H	2.994	2.647	3.914	 H	1	UNK0	0.000	
40	   H	4.127	1.184	3.809	 H	1	UNK0	0.000	
41	   H	5.427	-0.918	0.124	 H	1	UNK0	0.000	
42	   H	2.126	-3.220	-4.302	 H	1	UNK0	0.000	
43	   H	1.879	-4.168	-2.777	 H	1	UNK0	0.000	
@<TRIPOS>BOND
1 1 2 1
2 2 3 2
3 2 7 1
4 3 4 1
5 4 5 2
6 5 6 1
7 6 7 2
8 6 8 1
9 8 9 2
10 8 10 1
11 10 11 1
12 11 12 1
13 12 13 2
14 12 17 1
15 13 14 1
16 13 27 1
17 14 15 2
18 14 25 1
19 15 16 1
20 15 24 1
21 16 17 2
22 16 21 1
23 17 18 1
24 18 19 1
25 19 20 1
26 20 21 1
27 20 23 1
28 21 22 2
29 25 26 1
30 26 27 1
31 3 28 1
32 5 29 1
33 7 30 1
34 10 31 1
35 11 32 1
36 11 33 1
37 18 34 1
38 18 35 1
39 19 36 1
40 19 37 1
41 23 38 1
42 23 39 1
43 23 40 1
44 24 41 1
45 26 42 1
46 26 43 1
@<TRIPOS>SUBSTRUCTURE
1	UNK0	1	GROUP	1 ****	UNK
# created with PyMOL 2.3.2
@<TRIPOS>MOLECULE
680
40 43 1                 
SMALL
USER_CHARGES
@<TRIPOS>ATOM
1	  Br	-3.567	-5.143	1.274	Br	1	UNK0	0.000	
2	   C	-3.121	-4.644	-0.508	C.2	1	UNK0	0.000	
3	   C	-3.540	-5.435	-1.551	C.2	1	UNK0	0.000	
4	   N	-3.232	-5.093	-2.828	N.2	1	UNK0	0.000	
5	   C	-2.520	-3.993	-3.096	C.2	1	UNK0	0.000	
6	   C	-2.052	-3.130	-2.096	C.2	1	UNK0	0.000	
7	   C	-2.386	-3.510	-0.816	C.2	1	UNK0	0.000	
8	   C	-1.301	-1.947	-2.444	C.2	1	UNK0	0.000	
9	   O	-1.163	-1.737	-3.705	O.2	1	UNK0	0.000	
10	   N	-0.715	-1.016	-1.566	N.pl3	1	UNK0	0.000	
11	   C	-0.556	-0.792	-0.163	C.3	1	UNK0	0.000	
12	   C	0.734	-0.024	-0.503	C.3	1	UNK0	0.000	
13	   C	0.021	0.248	-1.773	C.3	1	UNK0	0.000	
14	   N	0.948	1.082	0.389	N.pl3	1	UNK0	0.000	
15	   C	2.133	1.409	1.139	C.2	1	UNK0	0.000	
16	   O	3.287	1.066	0.829	O.2	1	UNK0	0.000	
17	   C	1.655	2.218	2.313	C.3	1	UNK0	0.000	
18	   C	0.582	3.045	1.645	C.3	1	UNK0	0.000	
19	   C	-0.400	3.580	2.650	C.3	1	UNK0	0.000	
20	   C	-1.033	2.449	3.380	C.2	1	UNK0	0.000	
21	   C	-0.281	1.406	3.666	C.2	1	UNK0	0.000	
22	   C	1.141	1.254	3.327	C.3	1	UNK0	0.000	
23	   C	-0.014	2.085	0.696	C.2	1	UNK0	0.000	
24	   O	-1.188	2.185	0.262	O.2	1	UNK0	0.000	
25	   H	-4.116	-6.324	-1.326	 H	1	UNK0	0.000	
26	   H	-2.299	-3.762	-4.124	 H	1	UNK0	0.000	
27	   H	-2.083	-2.913	0.007	 H	1	UNK0	0.000	
28	   H	-0.241	-1.645	0.475	 H	1	UNK0	0.000	
29	   H	-1.340	-0.144	0.305	 H	1	UNK0	0.000	
30	   H	1.574	-0.713	-0.639	 H	1	UNK0	0.000	
31	   H	-0.723	1.069	-1.758	 H	1	UNK0	0.000	
32	   H	0.613	0.242	-2.705	 H	1	UNK0	0.000	
33	   H	2.471	2.855	2.709	 H	1	UNK0	0.000	
34	   H	1.069	3.905	1.143	 H	1	UNK0	0.000	
35	   H	-1.126	4.218	2.130	 H	1	UNK0	0.000	
36	   H	0.185	4.177	3.386	 H	1	UNK0	0.000	
37	   H	-2.090	2.531	3.647	 H	1	UNK0	0.000	
38	   H	-0.756	0.577	4.204	 H	1	UNK0	0.000	
39	   H	1.291	0.180	3.016	 H	1	UNK0	0.000	
40	   H	1.716	1.347	4.273	 H	1	UNK0	0.000	
@<TRIPOS>BOND
1 1 2 1
2 2 3 2
3 2 7 1
4 3 4 1
5 4 5 2
6 5 6 1
7 6 7 2
8 6 8 1
9 8 9 2
10 8 10 1
11 10 11 1
12 10 13 1
13 11 12 1
14 12 13 1
15 12 14 1
16 14 15 1
17 14 23 1
18 15 16 2
19 15 17 1
20 17 18 1
21 17 22 1
22 18 19 1
23 18 23 1
24 19 20 1
25 20 21 2
26 21 22 1
27 23 24 2
28 3 25 1
29 5 26 1
30 7 27 1
31 11 28 1
32 11 29 1
33 12 30 1
34 13 31 1
35 13 32 1
36 17 33 1
37 18 34 1
38 19 35 1
39 19 36 1
40 20 37 1
41 21 38 1
42 22 39 1
43 22 40 1
@<TRIPOS>SUBSTRUCTURE
1	UNK0	1	GROUP	1 ****	UNK
# created with PyMOL 2.3.2
@<TRIPOS>MOLECULE
681
37 40 1                 
SMALL
USER_CHARGES
@<TRIPOS>ATOM
1	  Br	1.573	-4.034	4.460	Br	1	UNK0	0.000	
2	   C	0.598	-3.382	2.937	C.2	1	UNK0	0.000	
3	   C	-0.728	-3.727	2.810	C.2	1	UNK0	0.000	
4	   N	-1.385	-3.261	1.742	N.2	1	UNK0	0.000	
5	   C	-0.786	-2.473	0.802	C.2	1	UNK0	0.000	
6	   C	0.531	-2.095	0.874	C.2	1	UNK0	0.000	
7	   C	1.213	-2.590	2.001	C.2	1	UNK0	0.000	
8	   C	1.243	-1.276	-0.075	C.2	1	UNK0	0.000	
9	   O	2.455	-0.990	0.175	O.2	1	UNK0	0.000	
10	   N	0.667	-0.782	-1.252	N.pl3	1	UNK0	0.000	
11	   C	-0.572	-0.807	-1.983	C.3	1	UNK0	0.000	
12	   C	0.052	-0.123	-3.190	C.3	1	UNK0	0.000	
13	   C	1.236	0.092	-2.297	C.3	1	UNK0	0.000	
14	   O	-0.581	1.025	-3.662	O.3	1	UNK0	0.000	
15	   C	-0.783	2.192	-2.954	C.2	1	UNK0	0.000	
16	   C	-1.912	2.363	-2.271	C.2	1	UNK0	0.000	
17	   C	-2.184	3.572	-1.504	C.2	1	UNK0	0.000	
18	   C	-3.316	3.708	-0.836	C.2	1	UNK0	0.000	
19	   N	-1.191	4.588	-1.506	N.pl3	1	UNK0	0.000	
20	   C	0.017	4.376	-2.253	C.2	1	UNK0	0.000	
21	   N	0.207	3.240	-2.939	N.pl3	1	UNK0	0.000	
22	   N	1.398	3.297	-3.544	N.2	1	UNK0	0.000	
23	   C	1.943	4.477	-3.228	C.2	1	UNK0	0.000	
24	   N	1.097	5.142	-2.435	N.2	1	UNK0	0.000	
25	   H	-1.231	-4.362	3.555	 H	1	UNK0	0.000	
26	   H	-1.365	-2.112	-0.045	 H	1	UNK0	0.000	
27	   H	2.255	-2.328	2.116	 H	1	UNK0	0.000	
28	   H	-0.911	-1.833	-2.283	 H	1	UNK0	0.000	
29	   H	-1.338	-0.215	-1.468	 H	1	UNK0	0.000	
30	   H	0.234	-0.841	-4.031	 H	1	UNK0	0.000	
31	   H	1.333	1.092	-1.880	 H	1	UNK0	0.000	
32	   H	2.178	-0.286	-2.713	 H	1	UNK0	0.000	
33	   H	-2.656	1.552	-2.306	 H	1	UNK0	0.000	
34	   H	-3.482	4.609	-0.284	 H	1	UNK0	0.000	
35	   H	-4.055	2.946	-0.838	 H	1	UNK0	0.000	
36	   H	-1.373	5.450	-0.965	 H	1	UNK0	0.000	
37	   H	2.917	4.871	-3.545	 H	1	UNK0	0.000	
@<TRIPOS>BOND
1 1 2 1
2 2 3 2
3 2 7 1
4 3 4 1
5 4 5 2
6 5 6 1
7 6 7 2
8 6 8 1
9 8 9 2
10 8 10 1
11 10 11 1
12 10 13 1
13 11 12 1
14 12 13 1
15 12 14 1
16 14 15 1
17 15 16 2
18 15 21 1
19 16 17 1
20 17 18 2
21 17 19 1
22 19 20 1
23 20 21 1
24 20 24 2
25 21 22 1
26 22 23 2
27 23 24 1
28 3 25 1
29 5 26 1
30 7 27 1
31 11 28 1
32 11 29 1
33 12 30 1
34 13 31 1
35 13 32 1
36 16 33 1
37 18 34 1
38 18 35 1
39 19 36 1
40 23 37 1
@<TRIPOS>SUBSTRUCTURE
1	UNK0	1	GROUP	1 ****	UNK
# created with PyMOL 2.3.2
@<TRIPOS>MOLECULE
683
48 50 1                 
SMALL
USER_CHARGES
@<TRIPOS>ATOM
1	  Br	1.993	-1.320	2.008	Br	1	UNK0	0.000	
2	   C	2.449	-0.035	0.701	C.2	1	UNK0	0.000	
3	   C	3.776	0.142	0.344	C.2	1	UNK0	0.000	
4	   N	4.049	1.066	-0.589	N.2	1	UNK0	0.000	
5	   C	3.118	1.822	-1.191	C.2	1	UNK0	0.000	
6	   C	1.806	1.641	-0.831	C.2	1	UNK0	0.000	
7	   C	1.440	0.707	0.124	C.2	1	UNK0	0.000	
8	   C	0.768	2.441	-1.461	C.2	1	UNK0	0.000	
9	   O	1.064	3.303	-2.336	O.co2	1	UNK0	0.000	
10	   O	-0.565	2.287	-1.124	O.co2	1	UNK0	0.000	
11	   N	3.033	-0.836	-0.371	N.4	1	UNK0	0.000	
12	   C	3.914	0.303	-0.172	C.3	1	UNK0	0.000	
13	   C	3.197	1.472	0.465	C.3	1	UNK0	0.000	
14	   C	2.595	2.361	-0.609	C.3	1	UNK0	0.000	
15	   C	1.363	1.721	-1.208	C.3	1	UNK0	0.000	
16	   C	0.933	0.598	-0.360	C.2	1	UNK0	0.000	
17	   C	1.675	-0.504	-0.009	C.2	1	UNK0	0.000	
18	   N	1.131	-1.439	0.774	N.2	1	UNK0	0.000	
19	   C	-0.120	-1.344	1.233	C.2	1	UNK0	0.000	
20	   C	-0.879	-0.253	0.895	C.2	1	UNK0	0.000	
21	   C	-0.343	0.729	0.087	C.2	1	UNK0	0.000	
22	   N	-1.156	1.863	-0.255	N.pl3	1	UNK0	0.000	
23	   C	-2.188	-0.103	1.345	C.2	1	UNK0	0.000	
24	   C	-2.708	-1.088	2.147	C.2	1	UNK0	0.000	
25	   C	-1.947	-2.180	2.485	C.2	1	UNK0	0.000	
26	   C	-0.637	-2.320	2.029	C.2	1	UNK0	0.000	
27	   C	3.475	-1.899	0.525	C.3	1	UNK0	0.000	
28	   H	4.531	-0.461	0.820	 H	1	UNK0	0.000	
29	   H	3.414	2.543	-1.929	 H	1	UNK0	0.000	
30	   H	0.430	0.543	0.424	 H	1	UNK0	0.000	
31	   H	3.076	-1.161	-1.364	 H	1	UNK0	0.000	
32	   H	4.382	0.651	-1.105	 H	1	UNK0	0.000	
33	   H	4.760	0.043	0.516	 H	1	UNK0	0.000	
34	   H	3.948	2.094	0.997	 H	1	UNK0	0.000	
35	   H	2.424	1.060	1.135	 H	1	UNK0	0.000	
36	   H	2.368	3.333	-0.168	 H	1	UNK0	0.000	
37	   H	3.347	2.478	-1.405	 H	1	UNK0	0.000	
38	   H	0.571	2.491	-1.311	 H	1	UNK0	0.000	
39	   H	1.565	1.373	-2.262	 H	1	UNK0	0.000	
40	   H	-0.890	2.803	0.078	 H	1	UNK0	0.000	
41	   H	-2.018	1.753	-0.837	 H	1	UNK0	0.000	
42	   H	-2.759	0.766	1.062	 H	1	UNK0	0.000	
43	   H	-3.724	-1.014	2.522	 H	1	UNK0	0.000	
44	   H	-2.348	-2.954	3.112	 H	1	UNK0	0.000	
45	   H	-0.020	-3.170	2.281	 H	1	UNK0	0.000	
46	   H	4.577	-1.921	0.490	 H	1	UNK0	0.000	
47	   H	2.994	-2.855	0.271	 H	1	UNK0	0.000	
48	   H	3.188	-1.601	1.565	 H	1	UNK0	0.000	
@<TRIPOS>BOND
1 1 2 1
2 2 3 2
3 2 7 1
4 3 4 1
5 4 5 2
6 5 6 1
7 6 7 2
8 6 8 1
9 8 9 2
10 8 10 1
11 11 12 1
12 11 17 1
13 11 27 1
14 12 13 1
15 13 14 1
16 14 15 1
17 15 16 1
18 16 17 2
19 16 21 1
20 17 18 1
21 18 19 2
22 19 20 1
23 19 26 1
24 20 21 2
25 20 23 1
26 21 22 1
27 23 24 2
28 24 25 1
29 25 26 2
30 3 28 1
31 5 29 1
32 7 30 1
33 11 31 1
34 12 32 1
35 12 33 1
36 13 34 1
37 13 35 1
38 14 36 1
39 14 37 1
40 15 38 1
41 15 39 1
42 22 40 1
43 22 41 1
44 23 42 1
45 24 43 1
46 25 44 1
47 26 45 1
48 27 46 1
49 27 47 1
50 27 48 1
@<TRIPOS>SUBSTRUCTURE
1	UNK0	1	GROUP	1 ****	UNK
# created with PyMOL 2.3.2
@<TRIPOS>MOLECULE
684
45 47 1                 
SMALL
USER_CHARGES
@<TRIPOS>ATOM
1	  Br	-0.214	-3.690	-0.924	Br	1	UNK0	0.000	
2	   C	0.196	-1.945	-0.278	C.2	1	UNK0	0.000	
3	   C	0.238	-0.847	-1.110	C.2	1	UNK0	0.000	
4	   N	0.527	0.387	-0.661	N.2	1	UNK0	0.000	
5	   C	0.783	0.554	0.645	C.2	1	UNK0	0.000	
6	   C	0.761	-0.491	1.541	C.2	1	UNK0	0.000	
7	   C	0.464	-1.738	1.057	C.2	1	UNK0	0.000	
8	   C	1.041	-0.293	2.958	C.2	1	UNK0	0.000	
9	   O	1.010	-1.275	3.739	O.co2	1	UNK0	0.000	
10	   O	1.337	0.989	3.397	O.co2	1	UNK0	0.000	
11	   N	1.892	1.904	0.806	N.4	1	UNK0	0.000	
12	   C	0.805	2.803	0.376	C.3	1	UNK0	0.000	
13	   C	0.818	2.887	-1.115	C.3	1	UNK0	0.000	
14	   C	0.577	1.518	-1.692	C.3	1	UNK0	0.000	
15	   C	0.751	0.412	-0.736	C.2	1	UNK0	0.000	
16	   C	1.388	0.595	0.471	C.2	1	UNK0	0.000	
17	   N	1.513	-0.448	1.289	N.2	1	UNK0	0.000	
18	   C	1.049	-1.683	1.002	C.2	1	UNK0	0.000	
19	   C	0.406	-1.903	-0.198	C.2	1	UNK0	0.000	
20	   C	0.253	-0.853	-1.076	C.2	1	UNK0	0.000	
21	   N	-0.411	-1.084	-2.313	N.pl3	1	UNK0	0.000	
22	   C	-0.075	-3.179	-0.498	C.2	1	UNK0	0.000	
23	   C	0.067	-4.242	0.366	C.2	1	UNK0	0.000	
24	   C	0.712	-4.016	1.565	C.2	1	UNK0	0.000	
25	   C	1.190	-2.749	1.864	C.2	1	UNK0	0.000	
26	   C	2.006	2.075	2.240	C.3	1	UNK0	0.000	
27	   H	0.023	-1.026	-2.170	 H	1	UNK0	0.000	
28	   H	1.014	1.549	0.997	 H	1	UNK0	0.000	
29	   H	0.426	-2.614	1.695	 H	1	UNK0	0.000	
30	   H	2.768	2.125	0.304	 H	1	UNK0	0.000	
31	   H	0.939	3.816	0.794	 H	1	UNK0	0.000	
32	   H	-0.135	2.321	0.729	 H	1	UNK0	0.000	
33	   H	0.058	3.625	-1.453	 H	1	UNK0	0.000	
34	   H	1.834	3.282	-1.412	 H	1	UNK0	0.000	
35	   H	-0.450	1.536	-2.133	 H	1	UNK0	0.000	
36	   H	1.262	1.421	-2.573	 H	1	UNK0	0.000	
37	   H	-1.437	-1.271	-2.270	 H	1	UNK0	0.000	
38	   H	0.044	-1.080	-3.237	 H	1	UNK0	0.000	
39	   H	-0.576	-3.354	-1.431	 H	1	UNK0	0.000	
40	   H	-0.322	-5.220	0.093	 H	1	UNK0	0.000	
41	   H	0.816	-4.861	2.232	 H	1	UNK0	0.000	
42	   H	1.692	-2.606	2.815	 H	1	UNK0	0.000	
43	   H	1.099	1.643	2.709	 H	1	UNK0	0.000	
44	   H	2.941	1.572	2.601	 H	1	UNK0	0.000	
45	   H	2.035	3.167	2.428	 H	1	UNK0	0.000	
@<TRIPOS>BOND
1 1 2 1
2 2 3 2
3 2 7 1
4 3 4 1
5 4 5 2
6 5 6 1
7 6 7 2
8 6 8 1
9 8 9 2
10 8 10 1
11 11 12 1
12 11 16 1
13 11 26 1
14 12 13 1
15 13 14 1
16 14 15 1
17 15 16 2
18 15 20 1
19 16 17 1
20 17 18 2
21 18 19 1
22 18 25 1
23 19 20 2
24 19 22 1
25 20 21 1
26 22 23 2
27 23 24 1
28 24 25 2
29 3 27 1
30 5 28 1
31 7 29 1
32 11 30 1
33 12 31 1
34 12 32 1
35 13 33 1
36 13 34 1
37 14 35 1
38 14 36 1
39 21 37 1
40 21 38 1
41 22 39 1
42 23 40 1
43 24 41 1
44 25 42 1
45 26 43 1
46 26 44 1
47 26 45 1
@<TRIPOS>SUBSTRUCTURE
1	UNK0	1	GROUP	1 ****	UNK
# created with PyMOL 2.3.2
@<TRIPOS>MOLECULE
692
57 60 1                 
SMALL
USER_CHARGES
@<TRIPOS>ATOM
1	  Br	0.265	-5.531	2.929	Br	1	UNK0	0.000	
2	   C	1.134	-4.746	1.433	C.2	1	UNK0	0.000	
3	   C	0.712	-3.514	0.971	C.2	1	UNK0	0.000	
4	   C	1.309	-2.880	-0.129	C.2	1	UNK0	0.000	
5	   C	2.350	-3.501	-0.773	C.2	1	UNK0	0.000	
6	   C	2.777	-4.733	-0.316	C.2	1	UNK0	0.000	
7	   C	2.191	-5.356	0.764	C.2	1	UNK0	0.000	
8	  Br	4.218	-5.622	-1.185	Br	1	UNK0	0.000	
9	   C	0.819	-1.586	-0.588	C.2	1	UNK0	0.000	
10	   O	1.074	-1.296	-1.789	O.2	1	UNK0	0.000	
11	   C	0.079	-0.676	0.279	C.3	1	UNK0	0.000	
12	   C	-0.210	-1.398	1.622	C.3	1	UNK0	0.000	
13	   O	-0.320	-2.770	1.516	O.3	1	UNK0	0.000	
14	   C	0.732	0.566	0.680	C.3	1	UNK0	0.000	
15	   N	1.210	1.564	-0.159	N.4	1	UNK0	0.000	
16	   C	0.372	2.143	-1.162	C.3	1	UNK0	0.000	
17	   C	0.955	3.551	-1.447	C.3	1	UNK0	0.000	
18	   C	2.225	3.300	-2.233	C.3	1	UNK0	0.000	
19	   C	2.700	1.871	-2.091	C.3	1	UNK0	0.000	
20	   C	2.559	1.369	-0.670	C.3	1	UNK0	0.000	
21	   C	-1.248	-0.366	-0.396	C.3	1	UNK0	0.000	
22	   N	-2.054	-1.541	-0.619	N.4	1	UNK0	0.000	
23	   C	-2.657	-1.424	-1.939	C.3	1	UNK0	0.000	
24	   C	-3.381	-0.122	-2.031	C.3	1	UNK0	0.000	
25	   C	-4.369	0.130	-0.952	C.3	1	UNK0	0.000	
26	   C	-4.002	-0.400	0.391	C.3	1	UNK0	0.000	
27	   C	-3.185	-1.668	0.282	C.3	1	UNK0	0.000	
28	   H	2.833	-3.023	-1.637	 H	1	UNK0	0.000	
29	   H	2.522	-6.321	1.126	 H	1	UNK0	0.000	
30	   H	-1.081	-0.907	2.116	 H	1	UNK0	0.000	
31	   H	0.646	-1.146	2.280	 H	1	UNK0	0.000	
32	   H	1.601	0.315	1.377	 H	1	UNK0	0.000	
33	   H	0.018	1.056	1.429	 H	1	UNK0	0.000	
34	   H	1.354	2.406	0.512	 H	1	UNK0	0.000	
35	   H	-0.656	2.296	-0.814	 H	1	UNK0	0.000	
36	   H	0.457	1.684	-2.172	 H	1	UNK0	0.000	
37	   H	1.163	4.072	-0.494	 H	1	UNK0	0.000	
38	   H	0.202	4.102	-2.045	 H	1	UNK0	0.000	
39	   H	1.946	3.423	-3.317	 H	1	UNK0	0.000	
40	   H	3.010	4.042	-2.032	 H	1	UNK0	0.000	
41	   H	3.814	1.912	-2.282	 H	1	UNK0	0.000	
42	   H	2.308	1.187	-2.847	 H	1	UNK0	0.000	
43	   H	3.332	1.952	-0.083	 H	1	UNK0	0.000	
44	   H	2.918	0.341	-0.622	 H	1	UNK0	0.000	
45	   H	-1.781	0.435	0.123	 H	1	UNK0	0.000	
46	   H	-0.966	0.005	-1.400	 H	1	UNK0	0.000	
47	   H	-1.500	-2.410	-0.519	 H	1	UNK0	0.000	
48	   H	-1.923	-1.500	-2.746	 H	1	UNK0	0.000	
49	   H	-3.431	-2.233	-2.010	 H	1	UNK0	0.000	
50	   H	-3.937	-0.136	-3.015	 H	1	UNK0	0.000	
51	   H	-2.717	0.762	-2.108	 H	1	UNK0	0.000	
52	   H	-4.516	1.244	-0.836	 H	1	UNK0	0.000	
53	   H	-5.380	-0.235	-1.290	 H	1	UNK0	0.000	
54	   H	-4.970	-0.718	0.884	 H	1	UNK0	0.000	
55	   H	-3.572	0.342	1.085	 H	1	UNK0	0.000	
56	   H	-2.964	-2.103	1.251	 H	1	UNK0	0.000	
57	   H	-3.874	-2.412	-0.223	 H	1	UNK0	0.000	
@<TRIPOS>BOND
1 1 2 1
2 2 3 2
3 2 7 1
4 3 4 1
5 3 13 1
6 4 5 2
7 4 9 1
8 5 6 1
9 6 7 2
10 6 8 1
11 9 10 2
12 9 11 1
13 11 12 1
14 11 14 1
15 11 21 1
16 12 13 1
17 14 15 1
18 15 16 1
19 15 20 1
20 16 17 1
21 17 18 1
22 18 19 1
23 19 20 1
24 21 22 1
25 22 23 1
26 22 27 1
27 23 24 1
28 24 25 1
29 25 26 1
30 26 27 1
31 5 28 1
32 7 29 1
33 12 30 1
34 12 31 1
35 14 32 1
36 14 33 1
37 15 34 1
38 16 35 1
39 16 36 1
40 17 37 1
41 17 38 1
42 18 39 1
43 18 40 1
44 19 41 1
45 19 42 1
46 20 43 1
47 20 44 1
48 21 45 1
49 21 46 1
50 22 47 1
51 23 48 1
52 23 49 1
53 24 50 1
54 24 51 1
55 25 52 1
56 25 53 1
57 26 54 1
58 26 55 1
59 27 56 1
60 27 57 1
@<TRIPOS>SUBSTRUCTURE
1	UNK0	1	GROUP	1 ****	UNK
# created with PyMOL 2.3.2
@<TRIPOS>MOLECULE
693
44 47 1                 
SMALL
USER_CHARGES
@<TRIPOS>ATOM
1	  Br	-7.122	4.115	-0.705	Br	1	UNK0	0.000	
2	   C	-5.851	3.346	-1.912	C.2	1	UNK0	0.000	
3	   C	-4.508	3.276	-1.603	C.2	1	UNK0	0.000	
4	   C	-3.580	2.720	-2.467	C.2	1	UNK0	0.000	
5	   C	-4.066	2.236	-3.662	C.2	1	UNK0	0.000	
6	   C	-5.398	2.289	-4.006	C.2	1	UNK0	0.000	
7	   C	-6.314	2.848	-3.130	C.2	1	UNK0	0.000	
8	  Br	-6.007	1.598	-5.681	Br	1	UNK0	0.000	
9	   C	-2.241	2.769	-1.899	C.2	1	UNK0	0.000	
10	   N	-1.125	2.363	-2.377	N.2	1	UNK0	0.000	
11	   N	0.085	2.489	-1.688	N.pl3	1	UNK0	0.000	
12	   C	0.407	1.505	-0.727	C.2	1	UNK0	0.000	
13	   O	-0.372	0.554	-0.509	O.2	1	UNK0	0.000	
14	   C	1.675	1.547	0.068	C.3	1	UNK0	0.000	
15	   N	1.772	0.444	0.984	N.pl3	1	UNK0	0.000	
16	   C	0.820	0.209	2.013	C.2	1	UNK0	0.000	
17	   O	-0.143	0.999	2.122	O.2	1	UNK0	0.000	
18	   C	0.909	-0.931	2.974	C.3	1	UNK0	0.000	
19	   O	2.033	-1.726	2.738	O.3	1	UNK0	0.000	
20	   C	1.999	-3.022	2.228	C.2	1	UNK0	0.000	
21	   C	0.805	-3.689	2.306	C.2	1	UNK0	0.000	
22	   C	0.742	-4.989	1.804	C.2	1	UNK0	0.000	
23	   C	1.829	-5.617	1.240	C.2	1	UNK0	0.000	
24	   C	3.016	-4.913	1.179	C.2	1	UNK0	0.000	
25	   C	3.084	-3.631	1.672	C.2	1	UNK0	0.000	
26	   O	-0.281	-3.074	2.865	O.3	1	UNK0	0.000	
27	   C	-0.366	-1.692	3.078	C.3	1	UNK0	0.000	
28	   C	-2.391	3.408	-0.587	C.2	1	UNK0	0.000	
29	   O	-1.433	3.623	0.203	O.2	1	UNK0	0.000	
30	   N	-3.770	3.692	-0.459	N.pl3	1	UNK0	0.000	
31	   H	-3.382	1.795	-4.367	 H	1	UNK0	0.000	
32	   H	-7.350	2.898	-3.375	 H	1	UNK0	0.000	
33	   H	0.686	3.308	-1.921	 H	1	UNK0	0.000	
34	   H	2.496	1.460	-0.677	 H	1	UNK0	0.000	
35	   H	1.800	2.531	0.572	 H	1	UNK0	0.000	
36	   H	2.561	-0.242	0.927	 H	1	UNK0	0.000	
37	   H	1.096	-0.433	3.971	 H	1	UNK0	0.000	
38	   H	-0.212	-5.496	1.877	 H	1	UNK0	0.000	
39	   H	1.737	-6.624	0.863	 H	1	UNK0	0.000	
40	   H	3.884	-5.422	0.725	 H	1	UNK0	0.000	
41	   H	4.026	-3.103	1.613	 H	1	UNK0	0.000	
42	   H	-0.844	-1.521	4.092	 H	1	UNK0	0.000	
43	   H	-1.096	-1.292	2.336	 H	1	UNK0	0.000	
44	   H	-4.195	4.148	0.366	 H	1	UNK0	0.000	
@<TRIPOS>BOND
1 1 2 1
2 2 3 2
3 2 7 1
4 3 4 1
5 3 30 1
6 4 5 2
7 4 9 1
8 5 6 1
9 6 7 2
10 6 8 1
11 9 10 2
12 9 28 1
13 10 11 1
14 11 12 1
15 12 13 2
16 12 14 1
17 14 15 1
18 15 16 1
19 16 17 2
20 16 18 1
21 18 19 1
22 18 27 1
23 19 20 1
24 20 21 2
25 20 25 1
26 21 22 1
27 21 26 1
28 22 23 2
29 23 24 1
30 24 25 2
31 26 27 1
32 28 29 2
33 28 30 1
34 5 31 1
35 7 32 1
36 11 33 1
37 14 34 1
38 14 35 1
39 15 36 1
40 18 37 1
41 22 38 1
42 23 39 1
43 24 40 1
44 25 41 1
45 27 42 1
46 27 43 1
47 30 44 1
@<TRIPOS>SUBSTRUCTURE
1	UNK0	1	GROUP	1 ****	UNK
# created with PyMOL 2.3.2
@<TRIPOS>MOLECULE
695
31 34 1                 
SMALL
USER_CHARGES
@<TRIPOS>ATOM
1	  Br	2.700	-0.925	-3.812	Br	1	UNK0	0.000	
2	   C	1.590	-0.541	-2.292	C.2	1	UNK0	0.000	
3	   C	1.491	-1.510	-1.316	C.2	1	UNK0	0.000	
4	   C	0.698	-1.236	-0.229	C.2	1	UNK0	0.000	
5	   C	0.024	-0.017	-0.134	C.2	1	UNK0	0.000	
6	   C	0.116	0.956	-1.102	C.2	1	UNK0	0.000	
7	   C	0.926	0.666	-2.204	C.2	1	UNK0	0.000	
8	   C	-0.587	2.262	-1.026	C.3	1	UNK0	0.000	
9	   N	-1.135	2.435	0.297	N.pl3	1	UNK0	0.000	
10	   C	-0.227	2.470	1.414	C.2	1	UNK0	0.000	
11	   N	1.095	2.345	1.235	N.2	1	UNK0	0.000	
12	   C	1.936	2.379	2.284	C.2	1	UNK0	0.000	
13	   C	1.465	2.544	3.583	C.2	1	UNK0	0.000	
14	   N	0.149	2.668	3.753	N.pl3	1	UNK0	0.000	
15	   C	-0.703	2.634	2.696	C.2	1	UNK0	0.000	
16	   N	-1.950	2.782	3.172	N.2	1	UNK0	0.000	
17	   N	-1.915	2.908	4.488	N.2	1	UNK0	0.000	
18	   C	-0.628	2.837	4.838	C.2	1	UNK0	0.000	
19	   O	0.766	-2.358	0.599	O.3	1	UNK0	0.000	
20	   C	1.157	-3.468	-0.224	C.3	1	UNK0	0.000	
21	   O	2.031	-2.789	-1.137	O.3	1	UNK0	0.000	
22	   H	-0.586	0.152	0.729	 H	1	UNK0	0.000	
23	   H	1.040	1.386	-2.997	 H	1	UNK0	0.000	
24	   H	-1.457	2.234	-1.737	 H	1	UNK0	0.000	
25	   H	0.072	3.105	-1.321	 H	1	UNK0	0.000	
26	   H	-2.151	2.534	0.461	 H	1	UNK0	0.000	
27	   H	3.001	2.281	2.168	 H	1	UNK0	0.000	
28	   H	2.139	2.570	4.416	 H	1	UNK0	0.000	
29	   H	-0.292	2.910	5.872	 H	1	UNK0	0.000	
30	   H	1.663	-4.249	0.340	 H	1	UNK0	0.000	
31	   H	0.278	-3.806	-0.806	 H	1	UNK0	0.000	
@<TRIPOS>BOND
1 1 2 1
2 2 3 2
3 2 7 1
4 3 4 1
5 3 21 1
6 4 5 2
7 4 19 1
8 5 6 1
9 6 7 2
10 6 8 1
11 8 9 1
12 9 10 1
13 10 11 2
14 10 15 1
15 11 12 1
16 12 13 2
17 13 14 1
18 14 15 1
19 14 18 1
20 15 16 2
21 16 17 1
22 17 18 2
23 19 20 1
24 20 21 1
25 5 22 1
26 7 23 1
27 8 24 1
28 8 25 1
29 9 26 1
30 12 27 1
31 13 28 1
32 18 29 1
33 20 30 1
34 20 31 1
@<TRIPOS>SUBSTRUCTURE
1	UNK0	1	GROUP	1 ****	UNK
# created with PyMOL 2.3.2
@<TRIPOS>MOLECULE
696
56 59 1                 
SMALL
USER_CHARGES
@<TRIPOS>ATOM
1	  Br	1.544	-5.049	0.329	Br	1	UNK0	0.000	
2	   C	0.458	-3.760	1.202	C.2	1	UNK0	0.000	
3	   C	-0.029	-2.668	0.471	C.2	1	UNK0	0.000	
4	   C	-0.819	-1.717	1.041	C.2	1	UNK0	0.000	
5	   C	-1.142	-1.841	2.381	C.2	1	UNK0	0.000	
6	   C	-0.663	-2.921	3.114	C.2	1	UNK0	0.000	
7	   C	0.134	-3.881	2.535	C.2	1	UNK0	0.000	
8	   C	-0.988	-3.091	4.559	C.3	1	UNK0	0.000	
9	   C	-1.359	-0.589	0.234	C.3	1	UNK0	0.000	
10	   C	-0.524	-0.123	-0.904	C.3	1	UNK0	0.000	
11	   C	0.609	-1.131	-1.213	C.3	1	UNK0	0.000	
12	   O	0.246	-2.459	-0.873	O.3	1	UNK0	0.000	
13	   C	0.241	1.150	-0.595	C.3	1	UNK0	0.000	
14	   N	1.140	1.054	0.535	N.4	1	UNK0	0.000	
15	   C	0.719	1.993	1.575	C.3	1	UNK0	0.000	
16	   C	1.905	2.303	2.411	C.3	1	UNK0	0.000	
17	   C	3.044	1.691	1.668	C.3	1	UNK0	0.000	
18	   C	2.463	1.585	0.252	C.3	1	UNK0	0.000	
19	   C	-1.282	-0.052	-2.175	C.3	1	UNK0	0.000	
20	   N	-2.370	0.711	-2.510	N.4	1	UNK0	0.000	
21	   C	-3.456	-0.149	-3.032	C.3	1	UNK0	0.000	
22	   C	-4.729	0.469	-2.601	C.3	1	UNK0	0.000	
23	   C	-4.422	1.283	-1.403	C.3	1	UNK0	0.000	
24	   C	-2.930	1.574	-1.554	C.3	1	UNK0	0.000	
25	   O	-2.634	-1.082	-0.162	O.3	1	UNK0	0.000	
26	   H	-1.755	-1.133	2.895	 H	1	UNK0	0.000	
27	   H	0.523	-4.731	3.070	 H	1	UNK0	0.000	
28	   H	-1.239	-2.127	5.037	 H	1	UNK0	0.000	
29	   H	-1.833	-3.826	4.632	 H	1	UNK0	0.000	
30	   H	-0.131	-3.596	5.087	 H	1	UNK0	0.000	
31	   H	-1.621	0.244	0.950	 H	1	UNK0	0.000	
32	   H	1.570	-0.809	-0.816	 H	1	UNK0	0.000	
33	   H	0.744	-1.137	-2.329	 H	1	UNK0	0.000	
34	   H	0.927	1.356	-1.480	 H	1	UNK0	0.000	
35	   H	-0.328	2.056	-0.498	 H	1	UNK0	0.000	
36	   H	1.277	0.106	0.914	 H	1	UNK0	0.000	
37	   H	-0.103	1.630	2.182	 H	1	UNK0	0.000	
38	   H	0.361	2.902	1.029	 H	1	UNK0	0.000	
39	   H	1.785	1.948	3.445	 H	1	UNK0	0.000	
40	   H	2.046	3.420	2.487	 H	1	UNK0	0.000	
41	   H	3.203	0.647	2.051	 H	1	UNK0	0.000	
42	   H	3.969	2.281	1.669	 H	1	UNK0	0.000	
43	   H	2.398	2.616	-0.162	 H	1	UNK0	0.000	
44	   H	3.096	0.951	-0.360	 H	1	UNK0	0.000	
45	   H	-0.510	0.120	-3.047	 H	1	UNK0	0.000	
46	   H	-1.566	-1.140	-2.495	 H	1	UNK0	0.000	
47	   H	-2.178	1.300	-3.435	 H	1	UNK0	0.000	
48	   H	-3.467	-0.164	-4.154	 H	1	UNK0	0.000	
49	   H	-3.356	-1.192	-2.737	 H	1	UNK0	0.000	
50	   H	-5.167	1.130	-3.384	 H	1	UNK0	0.000	
51	   H	-5.496	-0.299	-2.317	 H	1	UNK0	0.000	
52	   H	-4.952	2.250	-1.385	 H	1	UNK0	0.000	
53	   H	-4.638	0.766	-0.438	 H	1	UNK0	0.000	
54	   H	-2.544	1.552	-0.541	 H	1	UNK0	0.000	
55	   H	-2.822	2.670	-1.871	 H	1	UNK0	0.000	
56	   H	-3.285	-0.993	0.555	 H	1	UNK0	0.000	
@<TRIPOS>BOND
1 1 2 1
2 2 3 2
3 2 7 1
4 3 4 1
5 3 12 1
6 4 5 2
7 4 9 1
8 5 6 1
9 6 7 2
10 6 8 1
11 9 10 1
12 9 25 1
13 10 11 1
14 10 13 1
15 10 19 1
16 11 12 1
17 13 14 1
18 14 15 1
19 14 18 1
20 15 16 1
21 16 17 1
22 17 18 1
23 19 20 1
24 20 21 1
25 20 24 1
26 21 22 1
27 22 23 1
28 23 24 1
29 5 26 1
30 7 27 1
31 8 28 1
32 8 29 1
33 8 30 1
34 9 31 1
35 11 32 1
36 11 33 1
37 13 34 1
38 13 35 1
39 14 36 1
40 15 37 1
41 15 38 1
42 16 39 1
43 16 40 1
44 17 41 1
45 17 42 1
46 18 43 1
47 18 44 1
48 19 45 1
49 19 46 1
50 20 47 1
51 21 48 1
52 21 49 1
53 22 50 1
54 22 51 1
55 23 52 1
56 23 53 1
57 24 54 1
58 24 55 1
59 25 56 1
@<TRIPOS>SUBSTRUCTURE
1	UNK0	1	GROUP	1 ****	UNK
# created with PyMOL 2.3.2
@<TRIPOS>MOLECULE
699
56 59 1                 
SMALL
USER_CHARGES
@<TRIPOS>ATOM
1	  Br	-3.073	1.887	-3.753	Br	1	UNK0	0.000	
2	   C	-3.658	0.237	-3.008	C.2	1	UNK0	0.000	
3	   C	-4.982	0.091	-2.644	C.2	1	UNK0	0.000	
4	   C	-5.434	-1.094	-2.102	C.2	1	UNK0	0.000	
5	   C	-4.510	-2.107	-1.946	C.2	1	UNK0	0.000	
6	   C	-3.188	-1.953	-2.313	C.2	1	UNK0	0.000	
7	   C	-2.726	-0.771	-2.856	C.2	1	UNK0	0.000	
8	   O	-1.394	-0.603	-3.230	O.3	1	UNK0	0.000	
9	   C	-0.515	-1.694	-3.035	C.3	1	UNK0	0.000	
10	   C	0.890	-1.377	-3.481	C.3	1	UNK0	0.000	
11	   O	1.761	-2.420	-3.301	O.3	1	UNK0	0.000	
12	   C	1.375	-0.117	-2.852	C.3	1	UNK0	0.000	
13	   N	1.574	-0.214	-1.423	N.4	1	UNK0	0.000	
14	   C	1.494	1.136	-0.894	C.3	1	UNK0	0.000	
15	   C	1.939	1.205	0.574	C.3	1	UNK0	0.000	
16	   N	3.264	0.707	0.674	N.pl3	1	UNK0	0.000	
17	   C	3.835	0.207	-0.594	C.3	1	UNK0	0.000	
18	   C	2.888	-0.789	-1.176	C.3	1	UNK0	0.000	
19	   C	4.026	0.665	1.847	C.2	1	UNK0	0.000	
20	   O	5.232	0.151	1.667	O.2	1	UNK0	0.000	
21	   C	3.749	1.067	3.188	C.2	1	UNK0	0.000	
22	   C	2.593	1.626	3.653	C.2	1	UNK0	0.000	
23	   C	2.388	1.996	4.975	C.2	1	UNK0	0.000	
24	   C	3.369	1.808	5.895	C.2	1	UNK0	0.000	
25	   C	4.550	1.245	5.457	C.2	1	UNK0	0.000	
26	   C	4.753	0.880	4.150	C.2	1	UNK0	0.000	
27	   C	-6.762	-1.240	-1.737	C.2	1	UNK0	0.000	
28	   C	-7.687	-0.228	-1.893	C.2	1	UNK0	0.000	
29	   C	-7.235	0.959	-2.435	C.2	1	UNK0	0.000	
30	   C	-5.911	1.105	-2.799	C.2	1	UNK0	0.000	
31	   H	-4.857	-3.041	-1.521	 H	1	UNK0	0.000	
32	   H	-2.462	-2.755	-2.188	 H	1	UNK0	0.000	
33	   H	-0.507	-1.917	-1.949	 H	1	UNK0	0.000	
34	   H	-0.934	-2.562	-3.589	 H	1	UNK0	0.000	
35	   H	0.820	-1.172	-4.589	 H	1	UNK0	0.000	
36	   H	1.519	-3.043	-2.592	 H	1	UNK0	0.000	
37	   H	0.589	0.671	-3.006	 H	1	UNK0	0.000	
38	   H	2.334	0.205	-3.293	 H	1	UNK0	0.000	
39	   H	0.853	-0.787	-0.936	 H	1	UNK0	0.000	
40	   H	2.042	1.843	-1.536	 H	1	UNK0	0.000	
41	   H	0.420	1.418	-0.895	 H	1	UNK0	0.000	
42	   H	1.930	2.283	0.820	 H	1	UNK0	0.000	
43	   H	1.175	0.682	1.178	 H	1	UNK0	0.000	
44	   H	3.897	1.084	-1.262	 H	1	UNK0	0.000	
45	   H	4.808	-0.249	-0.429	 H	1	UNK0	0.000	
46	   H	2.827	-1.668	-0.504	 H	1	UNK0	0.000	
47	   H	3.341	-1.158	-2.131	 H	1	UNK0	0.000	
48	   H	1.772	1.810	3.006	 H	1	UNK0	0.000	
49	   H	1.442	2.437	5.281	 H	1	UNK0	0.000	
50	   H	3.245	2.084	6.932	 H	1	UNK0	0.000	
51	   H	5.331	1.097	6.192	 H	1	UNK0	0.000	
52	   H	5.715	0.449	3.919	 H	1	UNK0	0.000	
53	   H	-7.118	-2.169	-1.312	 H	1	UNK0	0.000	
54	   H	-8.720	-0.374	-1.597	 H	1	UNK0	0.000	
55	   H	-7.970	1.752	-2.555	 H	1	UNK0	0.000	
56	   H	-5.558	2.037	-3.225	 H	1	UNK0	0.000	
@<TRIPOS>BOND
1 1 2 1
2 2 3 2
3 2 7 1
4 3 4 1
5 3 30 1
6 4 5 2
7 4 27 1
8 5 6 1
9 6 7 2
10 7 8 1
11 8 9 1
12 9 10 1
13 10 11 1
14 10 12 1
15 12 13 1
16 13 14 1
17 13 18 1
18 14 15 1
19 15 16 1
20 16 17 1
21 16 19 1
22 17 18 1
23 19 20 2
24 19 21 1
25 21 22 2
26 21 26 1
27 22 23 1
28 23 24 2
29 24 25 1
30 25 26 2
31 27 28 2
32 28 29 1
33 29 30 2
34 5 31 1
35 6 32 1
36 9 33 1
37 9 34 1
38 10 35 1
39 11 36 1
40 12 37 1
41 12 38 1
42 13 39 1
43 14 40 1
44 14 41 1
45 15 42 1
46 15 43 1
47 17 44 1
48 17 45 1
49 18 46 1
50 18 47 1
51 22 48 1
52 23 49 1
53 24 50 1
54 25 51 1
55 26 52 1
56 27 53 1
57 28 54 1
58 29 55 1
59 30 56 1
@<TRIPOS>SUBSTRUCTURE
1	UNK0	1	GROUP	1 ****	UNK
# created with PyMOL 2.3.2
@<TRIPOS>MOLECULE
706
46 49 1                 
SMALL
USER_CHARGES
@<TRIPOS>ATOM
1	  Br	2.425	-5.071	1.709	Br	1	UNK0	0.000	
2	   C	2.660	-3.674	0.400	C.2	1	UNK0	0.000	
3	   N	2.417	-2.360	0.563	N.pl3	1	UNK0	0.000	
4	   C	2.703	-1.708	-0.575	C.2	1	UNK0	0.000	
5	   C	3.142	-2.648	-1.487	C.2	1	UNK0	0.000	
6	   N	3.102	-3.831	-0.860	N.2	1	UNK0	0.000	
7	   N	3.498	-2.237	-2.721	N.pl3	1	UNK0	0.000	
8	   C	3.445	-0.942	-3.104	C.2	1	UNK0	0.000	
9	   O	3.789	-0.598	-4.274	O.2	1	UNK0	0.000	
10	   N	3.023	0.000	-2.241	N.pl3	1	UNK0	0.000	
11	   C	2.666	-0.399	-1.008	C.2	1	UNK0	0.000	
12	   O	2.275	0.467	-0.199	O.2	1	UNK0	0.000	
13	   C	2.976	1.383	-2.675	C.3	1	UNK0	0.000	
14	   C	3.956	-3.230	-3.671	C.3	1	UNK0	0.000	
15	   C	1.940	-1.804	1.784	C.3	1	UNK0	0.000	
16	   C	0.469	-1.761	1.984	C.3	1	UNK0	0.000	
17	   N	-0.300	-1.008	1.051	N.pl3	1	UNK0	0.000	
18	   C	-0.615	0.306	1.169	C.2	1	UNK0	0.000	
19	   C	-1.372	0.691	0.090	C.2	1	UNK0	0.000	
20	   N	-1.496	-0.414	-0.664	N.2	1	UNK0	0.000	
21	   C	-0.852	-1.438	-0.087	C.2	1	UNK0	0.000	
22	  Br	-0.713	-3.248	-0.736	Br	1	UNK0	0.000	
23	   N	-1.842	1.956	-0.077	N.pl3	1	UNK0	0.000	
24	   C	-1.532	2.848	0.881	C.2	1	UNK0	0.000	
25	   O	-1.962	4.025	0.738	O.2	1	UNK0	0.000	
26	   N	-0.795	2.528	1.959	N.pl3	1	UNK0	0.000	
27	   C	-0.339	1.286	2.114	C.2	1	UNK0	0.000	
28	   O	0.356	0.921	3.100	O.2	1	UNK0	0.000	
29	   C	-0.489	3.526	2.962	C.3	1	UNK0	0.000	
30	   C	-2.642	2.329	-1.236	C.3	1	UNK0	0.000	
31	   H	2.297	1.970	-2.029	 H	1	UNK0	0.000	
32	   H	3.974	1.876	-2.628	 H	1	UNK0	0.000	
33	   H	2.618	1.387	-3.726	 H	1	UNK0	0.000	
34	   H	3.553	-2.942	-4.679	 H	1	UNK0	0.000	
35	   H	3.559	-4.217	-3.419	 H	1	UNK0	0.000	
36	   H	5.067	-3.202	-3.730	 H	1	UNK0	0.000	
37	   H	2.357	-2.333	2.693	 H	1	UNK0	0.000	
38	   H	2.398	-0.775	1.868	 H	1	UNK0	0.000	
39	   H	0.294	-1.387	3.027	 H	1	UNK0	0.000	
40	   H	0.035	-2.809	2.027	 H	1	UNK0	0.000	
41	   H	-0.218	3.068	3.935	 H	1	UNK0	0.000	
42	   H	0.394	4.160	2.667	 H	1	UNK0	0.000	
43	   H	-1.375	4.176	3.178	 H	1	UNK0	0.000	
44	   H	-2.272	1.853	-2.168	 H	1	UNK0	0.000	
45	   H	-3.721	2.122	-1.062	 H	1	UNK0	0.000	
46	   H	-2.505	3.422	-1.380	 H	1	UNK0	0.000	
@<TRIPOS>BOND
1 1 2 1
2 2 3 1
3 2 6 2
4 3 4 1
5 3 15 1
6 4 5 2
7 4 11 1
8 5 6 1
9 5 7 1
10 7 8 1
11 7 14 1
12 8 9 2
13 8 10 1
14 10 11 1
15 10 13 1
16 11 12 2
17 15 16 1
18 16 17 1
19 17 18 1
20 17 21 1
21 18 19 2
22 18 27 1
23 19 20 1
24 19 23 1
25 20 21 2
26 21 22 1
27 23 24 1
28 23 30 1
29 24 25 2
30 24 26 1
31 26 27 1
32 26 29 1
33 27 28 2
34 13 31 1
35 13 32 1
36 13 33 1
37 14 34 1
38 14 35 1
39 14 36 1
40 15 37 1
41 15 38 1
42 16 39 1
43 16 40 1
44 29 41 1
45 29 42 1
46 29 43 1
47 30 44 1
48 30 45 1
49 30 46 1
@<TRIPOS>SUBSTRUCTURE
1	UNK0	1	GROUP	1 ****	UNK
# created with PyMOL 2.3.2
@<TRIPOS>MOLECULE
708
43 46 1                 
SMALL
USER_CHARGES
@<TRIPOS>ATOM
1	  Br	-1.272	-2.056	4.119	Br	1	UNK0	0.000	
2	   C	0.200	-2.477	2.987	C.2	1	UNK0	0.000	
3	   N	1.016	-1.522	2.445	N.pl3	1	UNK0	0.000	
4	   C	1.918	-2.214	1.721	C.2	1	UNK0	0.000	
5	   C	1.677	-3.576	1.802	C.2	1	UNK0	0.000	
6	   N	0.596	-3.699	2.602	N.2	1	UNK0	0.000	
7	   N	2.419	-4.513	1.187	N.pl3	1	UNK0	0.000	
8	   C	3.457	-4.072	0.454	C.2	1	UNK0	0.000	
9	   O	4.192	-4.923	-0.151	O.2	1	UNK0	0.000	
10	   N	3.728	-2.758	0.349	N.pl3	1	UNK0	0.000	
11	   C	2.978	-1.806	0.971	C.2	1	UNK0	0.000	
12	   O	3.244	-0.591	0.865	O.2	1	UNK0	0.000	
13	   C	2.159	-5.934	1.276	C.3	1	UNK0	0.000	
14	   C	0.883	-0.097	2.668	C.3	1	UNK0	0.000	
15	   C	-0.080	0.577	1.735	C.3	1	UNK0	0.000	
16	   C	0.274	0.463	0.280	C.3	1	UNK0	0.000	
17	   N	-0.731	1.135	-0.532	N.pl3	1	UNK0	0.000	
18	   C	-1.861	0.619	-1.067	C.2	1	UNK0	0.000	
19	   C	-2.542	1.587	-1.768	C.2	1	UNK0	0.000	
20	   N	-1.803	2.706	-1.650	N.2	1	UNK0	0.000	
21	   C	-0.713	2.425	-0.904	C.2	1	UNK0	0.000	
22	  Br	0.680	3.636	-0.414	Br	1	UNK0	0.000	
23	   N	-3.704	1.365	-2.410	N.pl3	1	UNK0	0.000	
24	   C	-4.202	0.106	-2.341	C.2	1	UNK0	0.000	
25	   O	-5.298	-0.107	-2.944	O.2	1	UNK0	0.000	
26	   N	-3.566	-0.873	-1.664	N.pl3	1	UNK0	0.000	
27	   C	-2.402	-0.639	-1.024	C.2	1	UNK0	0.000	
28	   O	-1.786	-1.527	-0.386	O.2	1	UNK0	0.000	
29	   C	-4.392	2.425	-3.143	C.3	1	UNK0	0.000	
30	   H	4.528	-2.400	-0.215	 H	1	UNK0	0.000	
31	   H	1.138	-6.138	1.661	 H	1	UNK0	0.000	
32	   H	2.158	-6.349	0.228	 H	1	UNK0	0.000	
33	   H	2.882	-6.463	1.928	 H	1	UNK0	0.000	
34	   H	1.886	0.384	2.665	 H	1	UNK0	0.000	
35	   H	0.441	0.020	3.700	 H	1	UNK0	0.000	
36	   H	-0.269	1.634	2.027	 H	1	UNK0	0.000	
37	   H	-1.083	0.066	1.852	 H	1	UNK0	0.000	
38	   H	1.226	1.045	0.098	 H	1	UNK0	0.000	
39	   H	0.395	-0.571	-0.039	 H	1	UNK0	0.000	
40	   H	-3.996	-1.819	-1.645	 H	1	UNK0	0.000	
41	   H	-4.747	3.221	-2.455	 H	1	UNK0	0.000	
42	   H	-3.726	2.900	-3.889	 H	1	UNK0	0.000	
43	   H	-5.280	1.969	-3.607	 H	1	UNK0	0.000	
@<TRIPOS>BOND
1 1 2 1
2 2 3 1
3 2 6 2
4 3 4 1
5 3 14 1
6 4 5 2
7 4 11 1
8 5 6 1
9 5 7 1
10 7 8 1
11 7 13 1
12 8 9 2
13 8 10 1
14 10 11 1
15 11 12 2
16 14 15 1
17 15 16 1
18 16 17 1
19 17 18 1
20 17 21 1
21 18 19 2
22 18 27 1
23 19 20 1
24 19 23 1
25 20 21 2
26 21 22 1
27 23 24 1
28 23 29 1
29 24 25 2
30 24 26 1
31 26 27 1
32 27 28 2
33 10 30 1
34 13 31 1
35 13 32 1
36 13 33 1
37 14 34 1
38 14 35 1
39 15 36 1
40 15 37 1
41 16 38 1
42 16 39 1
43 26 40 1
44 29 41 1
45 29 42 1
46 29 43 1
@<TRIPOS>SUBSTRUCTURE
1	UNK0	1	GROUP	1 ****	UNK
# created with PyMOL 2.3.2
@<TRIPOS>MOLECULE
709
40 43 1                 
SMALL
USER_CHARGES
@<TRIPOS>ATOM
1	  Br	-2.511	4.166	0.093	Br	1	UNK0	0.000	
2	   C	-1.379	2.914	0.986	C.2	1	UNK0	0.000	
3	   N	-0.141	2.592	0.542	N.pl3	1	UNK0	0.000	
4	   C	0.349	1.687	1.421	C.2	1	UNK0	0.000	
5	   C	-0.586	1.439	2.422	C.2	1	UNK0	0.000	
6	   N	-1.641	2.224	2.107	N.2	1	UNK0	0.000	
7	   N	-0.324	0.575	3.419	N.pl3	1	UNK0	0.000	
8	   C	0.854	-0.071	3.472	C.2	1	UNK0	0.000	
9	   O	1.110	-0.890	4.411	O.2	1	UNK0	0.000	
10	   N	1.796	0.131	2.533	N.pl3	1	UNK0	0.000	
11	   C	1.536	1.002	1.524	C.2	1	UNK0	0.000	
12	   O	2.398	1.221	0.623	O.2	1	UNK0	0.000	
13	   C	-1.290	0.312	4.461	C.3	1	UNK0	0.000	
14	   C	0.483	3.137	-0.615	C.3	1	UNK0	0.000	
15	   C	0.228	2.450	-1.909	C.3	1	UNK0	0.000	
16	   N	0.643	1.099	-2.049	N.pl3	1	UNK0	0.000	
17	   C	-0.074	-0.011	-1.808	C.2	1	UNK0	0.000	
18	   C	0.710	-1.117	-2.062	C.2	1	UNK0	0.000	
19	   N	1.897	-0.614	-2.458	N.2	1	UNK0	0.000	
20	   C	1.887	0.714	-2.461	C.2	1	UNK0	0.000	
21	  Br	3.328	1.898	-2.945	Br	1	UNK0	0.000	
22	   N	0.214	-2.343	-1.900	N.pl3	1	UNK0	0.000	
23	   C	-1.045	-2.517	-1.490	C.2	1	UNK0	0.000	
24	   O	-1.547	-3.678	-1.324	O.2	1	UNK0	0.000	
25	   N	-1.872	-1.491	-1.222	N.pl3	1	UNK0	0.000	
26	   C	-1.371	-0.260	-1.387	C.2	1	UNK0	0.000	
27	   O	-2.134	0.701	-1.143	O.2	1	UNK0	0.000	
28	   C	1.024	-3.510	-2.161	C.3	1	UNK0	0.000	
29	   H	2.716	-0.359	2.555	 H	1	UNK0	0.000	
30	   H	-0.854	0.641	5.439	 H	1	UNK0	0.000	
31	   H	-1.514	-0.765	4.442	 H	1	UNK0	0.000	
32	   H	-2.234	0.868	4.239	 H	1	UNK0	0.000	
33	   H	1.571	3.319	-0.442	 H	1	UNK0	0.000	
34	   H	0.082	4.193	-0.753	 H	1	UNK0	0.000	
35	   H	0.613	3.112	-2.731	 H	1	UNK0	0.000	
36	   H	-0.899	2.461	-2.048	 H	1	UNK0	0.000	
37	   H	-2.859	-1.663	-0.901	 H	1	UNK0	0.000	
38	   H	1.780	-3.217	-2.914	 H	1	UNK0	0.000	
39	   H	1.510	-3.923	-1.275	 H	1	UNK0	0.000	
40	   H	0.425	-4.326	-2.638	 H	1	UNK0	0.000	
@<TRIPOS>BOND
1 1 2 1
2 2 3 1
3 2 6 2
4 3 4 1
5 3 14 1
6 4 5 2
7 4 11 1
8 5 6 1
9 5 7 1
10 7 8 1
11 7 13 1
12 8 9 2
13 8 10 1
14 10 11 1
15 11 12 2
16 14 15 1
17 15 16 1
18 16 17 1
19 16 20 1
20 17 18 2
21 17 26 1
22 18 19 1
23 18 22 1
24 19 20 2
25 20 21 1
26 22 23 1
27 22 28 1
28 23 24 2
29 23 25 1
30 25 26 1
31 26 27 2
32 10 29 1
33 13 30 1
34 13 31 1
35 13 32 1
36 14 33 1
37 14 34 1
38 15 35 1
39 15 36 1
40 25 37 1
41 28 38 1
42 28 39 1
43 28 40 1
@<TRIPOS>SUBSTRUCTURE
1	UNK0	1	GROUP	1 ****	UNK
# created with PyMOL 2.3.2
@<TRIPOS>MOLECULE
716
50 54 1                 
SMALL
USER_CHARGES
@<TRIPOS>ATOM
1	  Br	2.596	-2.899	-5.326	Br	1	UNK0	0.000	
2	   C	2.849	-1.415	-4.138	C.2	1	UNK0	0.000	
3	   N	1.950	-0.872	-3.297	N.2	1	UNK0	0.000	
4	   N	2.484	0.144	-2.631	N.pl3	1	UNK0	0.000	
5	   C	3.752	0.235	-3.072	C.2	1	UNK0	0.000	
6	   N	3.994	-0.710	-3.993	N.2	1	UNK0	0.000	
7	   C	1.836	0.990	-1.630	C.3	1	UNK0	0.000	
8	   C	1.249	0.117	-0.544	C.3	1	UNK0	0.000	
9	   C	0.776	0.980	0.589	C.3	1	UNK0	0.000	
10	   C	-0.393	1.807	0.036	C.3	1	UNK0	0.000	
11	   C	0.103	2.624	-1.130	C.3	1	UNK0	0.000	
12	   C	0.693	1.780	-2.230	C.3	1	UNK0	0.000	
13	   C	1.117	3.603	-0.630	C.3	1	UNK0	0.000	
14	   C	2.278	2.834	-0.040	C.3	1	UNK0	0.000	
15	   C	2.848	1.961	-1.107	C.3	1	UNK0	0.000	
16	   C	1.792	1.952	1.089	C.3	1	UNK0	0.000	
17	   C	0.287	0.167	1.723	C.2	1	UNK0	0.000	
18	   O	0.868	0.289	2.831	O.2	1	UNK0	0.000	
19	   N	-0.810	-0.728	1.564	N.pl3	1	UNK0	0.000	
20	   C	-1.347	-1.547	2.592	C.2	1	UNK0	0.000	
21	   C	-2.400	-2.402	2.429	C.2	1	UNK0	0.000	
22	   N	-2.617	-3.001	3.624	N.pl3	1	UNK0	0.000	
23	   N	-1.742	-2.542	4.493	N.2	1	UNK0	0.000	
24	   C	-0.941	-1.646	3.907	C.2	1	UNK0	0.000	
25	   C	-3.629	-3.990	3.951	C.3	1	UNK0	0.000	
26	   C	-3.211	-2.705	1.267	C.2	1	UNK0	0.000	
27	   O	-3.002	-2.145	0.162	O.2	1	UNK0	0.000	
28	   N	-4.283	-3.638	1.283	N.pl3	1	UNK0	0.000	
29	   H	4.474	0.963	-2.734	 H	1	UNK0	0.000	
30	   H	0.324	-0.347	-0.996	 H	1	UNK0	0.000	
31	   H	1.891	-0.711	-0.246	 H	1	UNK0	0.000	
32	   H	-0.786	2.493	0.792	 H	1	UNK0	0.000	
33	   H	-1.211	1.171	-0.323	 H	1	UNK0	0.000	
34	   H	-0.750	3.182	-1.556	 H	1	UNK0	0.000	
35	   H	-0.064	1.139	-2.714	 H	1	UNK0	0.000	
36	   H	1.087	2.464	-2.997	 H	1	UNK0	0.000	
37	   H	0.655	4.290	0.119	 H	1	UNK0	0.000	
38	   H	1.484	4.242	-1.452	 H	1	UNK0	0.000	
39	   H	3.066	3.492	0.353	 H	1	UNK0	0.000	
40	   H	3.191	2.585	-1.944	 H	1	UNK0	0.000	
41	   H	3.716	1.419	-0.678	 H	1	UNK0	0.000	
42	   H	2.654	1.387	1.501	 H	1	UNK0	0.000	
43	   H	1.305	2.612	1.825	 H	1	UNK0	0.000	
44	   H	-1.235	-0.772	0.619	 H	1	UNK0	0.000	
45	   H	-0.116	-1.090	4.365	 H	1	UNK0	0.000	
46	   H	-3.362	-4.467	4.914	 H	1	UNK0	0.000	
47	   H	-3.515	-4.815	3.194	 H	1	UNK0	0.000	
48	   H	-4.652	-3.564	3.969	 H	1	UNK0	0.000	
49	   H	-4.102	-4.605	0.885	 H	1	UNK0	0.000	
50	   H	-5.234	-3.448	1.653	 H	1	UNK0	0.000	
@<TRIPOS>BOND
1 1 2 1
2 2 3 2
3 2 6 1
4 3 4 1
5 4 5 1
6 4 7 1
7 5 6 2
8 7 8 1
9 7 12 1
10 7 15 1
11 8 9 1
12 9 10 1
13 9 16 1
14 9 17 1
15 10 11 1
16 11 12 1
17 11 13 1
18 13 14 1
19 14 15 1
20 14 16 1
21 17 18 2
22 17 19 1
23 19 20 1
24 20 21 2
25 20 24 1
26 21 22 1
27 21 26 1
28 22 23 1
29 22 25 1
30 23 24 2
31 26 27 2
32 26 28 1
33 5 29 1
34 8 30 1
35 8 31 1
36 10 32 1
37 10 33 1
38 11 34 1
39 12 35 1
40 12 36 1
41 13 37 1
42 13 38 1
43 14 39 1
44 15 40 1
45 15 41 1
46 16 42 1
47 16 43 1
48 19 44 1
49 24 45 1
50 25 46 1
51 25 47 1
52 25 48 1
53 28 49 1
54 28 50 1
@<TRIPOS>SUBSTRUCTURE
1	UNK0	1	GROUP	1 ****	UNK
# created with PyMOL 2.3.2
@<TRIPOS>MOLECULE
723
37 40 1                 
SMALL
USER_CHARGES
@<TRIPOS>ATOM
1	  Br	1.196	-1.407	2.328	Br	1	UNK0	0.000	
2	   C	1.390	0.164	1.271	C.2	1	UNK0	0.000	
3	   N	1.207	1.444	1.665	N.2	1	UNK0	0.000	
4	   N	1.454	2.287	0.689	N.pl3	1	UNK0	0.000	
5	   C	1.807	1.539	-0.372	C.2	1	UNK0	0.000	
6	   N	2.175	1.874	-1.613	N.2	1	UNK0	0.000	
7	   C	2.508	0.941	-2.523	C.2	1	UNK0	0.000	
8	   N	2.479	-0.366	-2.208	N.2	1	UNK0	0.000	
9	   C	2.112	-0.786	-0.958	C.2	1	UNK0	0.000	
10	   C	1.779	0.177	-0.047	C.2	1	UNK0	0.000	
11	   N	2.043	-2.196	-0.697	N.pl3	1	UNK0	0.000	
12	   C	0.825	-2.932	-0.829	C.3	1	UNK0	0.000	
13	   C	0.729	-4.082	0.098	C.3	1	UNK0	0.000	
14	   O	1.855	-4.420	0.798	O.3	1	UNK0	0.000	
15	   C	3.023	-4.259	0.061	C.3	1	UNK0	0.000	
16	   C	3.266	-2.833	-0.316	C.3	1	UNK0	0.000	
17	   C	-0.358	-2.043	-0.796	C.2	1	UNK0	0.000	
18	   N	-0.491	-0.890	-1.453	N.2	1	UNK0	0.000	
19	   C	-1.727	-0.408	-1.137	C.2	1	UNK0	0.000	
20	   N	-2.282	-1.301	-0.298	N.2	1	UNK0	0.000	
21	   O	-1.439	-2.274	-0.109	O.3	1	UNK0	0.000	
22	   C	-2.349	0.848	-1.615	C.3	1	UNK0	0.000	
23	   C	1.358	3.733	0.762	C.3	1	UNK0	0.000	
24	   H	2.799	1.296	-3.518	 H	1	UNK0	0.000	
25	   H	0.891	-3.409	-1.881	 H	1	UNK0	0.000	
26	   H	0.273	-4.996	-0.395	 H	1	UNK0	0.000	
27	   H	-0.056	-3.816	0.870	 H	1	UNK0	0.000	
28	   H	3.860	-4.587	0.716	 H	1	UNK0	0.000	
29	   H	3.051	-4.945	-0.822	 H	1	UNK0	0.000	
30	   H	3.819	-2.269	0.473	 H	1	UNK0	0.000	
31	   H	3.941	-2.765	-1.224	 H	1	UNK0	0.000	
32	   H	-1.531	1.605	-1.784	 H	1	UNK0	0.000	
33	   H	-3.039	1.284	-0.871	 H	1	UNK0	0.000	
34	   H	-2.880	0.711	-2.589	 H	1	UNK0	0.000	
35	   H	0.752	4.015	1.645	 H	1	UNK0	0.000	
36	   H	0.847	4.111	-0.158	 H	1	UNK0	0.000	
37	   H	2.361	4.210	0.904	 H	1	UNK0	0.000	
@<TRIPOS>BOND
1 1 2 1
2 2 3 2
3 2 10 1
4 3 4 1
5 4 5 1
6 4 23 1
7 5 6 1
8 5 10 2
9 6 7 2
10 7 8 1
11 8 9 2
12 9 10 1
13 9 11 1
14 11 12 1
15 11 16 1
16 12 13 1
17 12 17 1
18 13 14 1
19 14 15 1
20 15 16 1
21 17 18 2
22 17 21 1
23 18 19 1
24 19 20 2
25 19 22 1
26 20 21 1
27 7 24 1
28 12 25 1
29 13 26 1
30 13 27 1
31 15 28 1
32 15 29 1
33 16 30 1
34 16 31 1
35 22 32 1
36 22 33 1
37 22 34 1
38 23 35 1
39 23 36 1
40 23 37 1
@<TRIPOS>SUBSTRUCTURE
1	UNK0	1	GROUP	1 ****	UNK
# created with PyMOL 2.3.2
@<TRIPOS>MOLECULE
727
35 38 1                 
SMALL
USER_CHARGES
@<TRIPOS>ATOM
1	  Br	-1.021	-0.972	-4.405	Br	1	UNK0	0.000	
2	   C	-2.317	-1.094	-3.016	C.2	1	UNK0	0.000	
3	   N	-3.626	-1.450	-3.171	N.2	1	UNK0	0.000	
4	   N	-4.205	-1.445	-1.994	N.pl3	1	UNK0	0.000	
5	   C	-3.318	-1.093	-1.049	C.2	1	UNK0	0.000	
6	   N	-3.388	-0.948	0.284	N.2	1	UNK0	0.000	
7	   C	-2.331	-0.592	1.009	C.2	1	UNK0	0.000	
8	   N	-1.165	-0.369	0.410	N.2	1	UNK0	0.000	
9	   C	-0.983	-0.488	-0.947	C.2	1	UNK0	0.000	
10	   C	-2.084	-0.858	-1.678	C.2	1	UNK0	0.000	
11	   N	0.250	-0.204	-1.534	N.pl3	1	UNK0	0.000	
12	   C	0.472	1.030	-2.255	C.3	1	UNK0	0.000	
13	   C	1.392	1.909	-1.382	C.3	1	UNK0	0.000	
14	   C	2.391	1.051	-0.709	C.2	1	UNK0	0.000	
15	   N	3.447	1.461	0.031	N.pl3	1	UNK0	0.000	
16	   C	4.099	0.366	0.457	C.2	1	UNK0	0.000	
17	   N	3.493	-0.733	0.012	N.2	1	UNK0	0.000	
18	   C	2.433	-0.311	-0.712	C.2	1	UNK0	0.000	
19	   C	1.395	-1.074	-1.447	C.3	1	UNK0	0.000	
20	   C	3.849	2.809	0.341	C.3	1	UNK0	0.000	
21	   C	-5.604	-1.762	-1.671	C.3	1	UNK0	0.000	
22	   H	-2.420	-0.486	2.067	 H	1	UNK0	0.000	
23	   H	-0.435	1.620	-2.435	 H	1	UNK0	0.000	
24	   H	0.976	0.865	-3.237	 H	1	UNK0	0.000	
25	   H	0.805	2.461	-0.624	 H	1	UNK0	0.000	
26	   H	1.838	2.652	-2.067	 H	1	UNK0	0.000	
27	   H	5.004	0.336	1.083	 H	1	UNK0	0.000	
28	   H	1.165	-2.050	-0.978	 H	1	UNK0	0.000	
29	   H	1.808	-1.218	-2.489	 H	1	UNK0	0.000	
30	   H	4.152	2.911	1.405	 H	1	UNK0	0.000	
31	   H	4.752	3.080	-0.258	 H	1	UNK0	0.000	
32	   H	3.013	3.527	0.167	 H	1	UNK0	0.000	
33	   H	-5.638	-2.560	-0.904	 H	1	UNK0	0.000	
34	   H	-6.130	-2.053	-2.597	 H	1	UNK0	0.000	
35	   H	-6.108	-0.846	-1.287	 H	1	UNK0	0.000	
@<TRIPOS>BOND
1 1 2 1
2 2 3 2
3 2 10 1
4 3 4 1
5 4 5 1
6 4 21 1
7 5 6 1
8 5 10 2
9 6 7 2
10 7 8 1
11 8 9 2
12 9 10 1
13 9 11 1
14 11 12 1
15 11 19 1
16 12 13 1
17 13 14 1
18 14 15 1
19 14 18 2
20 15 16 1
21 15 20 1
22 16 17 2
23 17 18 1
24 18 19 1
25 7 22 1
26 12 23 1
27 12 24 1
28 13 25 1
29 13 26 1
30 16 27 1
31 19 28 1
32 19 29 1
33 20 30 1
34 20 31 1
35 20 32 1
36 21 33 1
37 21 34 1
38 21 35 1
@<TRIPOS>SUBSTRUCTURE
1	UNK0	1	GROUP	1 ****	UNK
# created with PyMOL 2.3.2
@<TRIPOS>MOLECULE
729
53 56 1                 
SMALL
USER_CHARGES
@<TRIPOS>ATOM
1	  Br	1.832	0.884	4.697	Br	1	UNK0	0.000	
2	   C	0.186	-0.011	4.988	C.2	1	UNK0	0.000	
3	   N	-0.375	-0.372	6.156	N.2	1	UNK0	0.000	
4	   N	-1.511	-0.991	5.978	N.pl3	1	UNK0	0.000	
5	   C	-1.732	-1.054	4.651	C.2	1	UNK0	0.000	
6	   N	-2.722	-1.578	3.908	N.2	1	UNK0	0.000	
7	   C	-2.720	-1.528	2.573	C.2	1	UNK0	0.000	
8	   N	-1.707	-0.939	1.949	N.2	1	UNK0	0.000	
9	   C	-0.664	-0.382	2.609	C.2	1	UNK0	0.000	
10	   C	-0.669	-0.437	3.998	C.2	1	UNK0	0.000	
11	   N	0.371	0.262	1.922	N.pl3	1	UNK0	0.000	
12	   C	0.495	1.692	1.912	C.3	1	UNK0	0.000	
13	   C	0.098	2.115	0.495	C.3	1	UNK0	0.000	
14	   N	0.207	0.987	-0.437	N.3	1	UNK0	0.000	
15	   C	1.448	0.254	-0.174	C.3	1	UNK0	0.000	
16	   C	1.354	-0.467	1.158	C.3	1	UNK0	0.000	
17	   C	0.292	1.563	-1.770	C.3	1	UNK0	0.000	
18	   C	-1.007	2.387	-1.985	C.3	1	UNK0	0.000	
19	   C	0.354	0.513	-2.802	C.2	1	UNK0	0.000	
20	   O	1.043	0.859	-3.850	O.2	1	UNK0	0.000	
21	   N	-0.225	-0.766	-2.791	N.pl3	1	UNK0	0.000	
22	   C	-1.049	-1.365	-1.785	C.3	1	UNK0	0.000	
23	   C	-0.678	-2.793	-1.443	C.3	1	UNK0	0.000	
24	   C	-0.187	-3.597	-2.597	C.3	1	UNK0	0.000	
25	   C	0.782	-2.825	-3.467	C.3	1	UNK0	0.000	
26	   C	0.027	-1.623	-3.972	C.3	1	UNK0	0.000	
27	   C	-2.433	-1.544	6.960	C.3	1	UNK0	0.000	
28	   H	-3.557	-1.974	1.990	 H	1	UNK0	0.000	
29	   H	1.606	1.926	1.925	 H	1	UNK0	0.000	
30	   H	-0.065	2.232	2.670	 H	1	UNK0	0.000	
31	   H	-0.976	2.376	0.535	 H	1	UNK0	0.000	
32	   H	0.645	3.010	0.149	 H	1	UNK0	0.000	
33	   H	1.543	-0.508	-0.961	 H	1	UNK0	0.000	
34	   H	2.316	0.919	-0.142	 H	1	UNK0	0.000	
35	   H	1.152	-1.525	1.029	 H	1	UNK0	0.000	
36	   H	2.333	-0.345	1.712	 H	1	UNK0	0.000	
37	   H	1.153	2.228	-1.860	 H	1	UNK0	0.000	
38	   H	-1.826	1.951	-1.382	 H	1	UNK0	0.000	
39	   H	-1.316	2.330	-3.041	 H	1	UNK0	0.000	
40	   H	-0.835	3.438	-1.719	 H	1	UNK0	0.000	
41	   H	-2.092	-1.394	-2.243	 H	1	UNK0	0.000	
42	   H	-1.139	-0.821	-0.853	 H	1	UNK0	0.000	
43	   H	-1.625	-3.280	-1.084	 H	1	UNK0	0.000	
44	   H	0.005	-2.820	-0.585	 H	1	UNK0	0.000	
45	   H	-1.038	-3.950	-3.205	 H	1	UNK0	0.000	
46	   H	0.339	-4.483	-2.213	 H	1	UNK0	0.000	
47	   H	1.664	-2.530	-2.847	 H	1	UNK0	0.000	
48	   H	1.098	-3.487	-4.289	 H	1	UNK0	0.000	
49	   H	0.563	-1.085	-4.759	 H	1	UNK0	0.000	
50	   H	-0.947	-1.969	-4.364	 H	1	UNK0	0.000	
51	   H	-2.475	-2.661	6.891	 H	1	UNK0	0.000	
52	   H	-3.440	-1.172	6.707	 H	1	UNK0	0.000	
53	   H	-2.107	-1.314	7.986	 H	1	UNK0	0.000	
@<TRIPOS>BOND
1 1 2 1
2 2 3 2
3 2 10 1
4 3 4 1
5 4 5 1
6 4 27 1
7 5 6 1
8 5 10 2
9 6 7 2
10 7 8 1
11 8 9 2
12 9 10 1
13 9 11 1
14 11 12 1
15 11 16 1
16 12 13 1
17 13 14 1
18 14 15 1
19 14 17 1
20 15 16 1
21 17 18 1
22 17 19 1
23 19 20 2
24 19 21 1
25 21 22 1
26 21 26 1
27 22 23 1
28 23 24 1
29 24 25 1
30 25 26 1
31 7 28 1
32 12 29 1
33 12 30 1
34 13 31 1
35 13 32 1
36 15 33 1
37 15 34 1
38 16 35 1
39 16 36 1
40 17 37 1
41 18 38 1
42 18 39 1
43 18 40 1
44 22 41 1
45 22 42 1
46 23 43 1
47 23 44 1
48 24 45 1
49 24 46 1
50 25 47 1
51 25 48 1
52 26 49 1
53 26 50 1
54 27 51 1
55 27 52 1
56 27 53 1
@<TRIPOS>SUBSTRUCTURE
1	UNK0	1	GROUP	1 ****	UNK
# created with PyMOL 2.3.2
@<TRIPOS>MOLECULE
737
32 35 1                 
SMALL
USER_CHARGES
@<TRIPOS>ATOM
1	  Br	5.511	1.468	0.160	Br	1	UNK0	0.000	
2	   C	4.257	0.078	0.574	C.2	1	UNK0	0.000	
3	   N	2.953	0.194	0.850	N.pl3	1	UNK0	0.000	
4	   C	2.438	-1.012	1.082	C.2	1	UNK0	0.000	
5	   N	3.449	-1.910	0.947	N.2	1	UNK0	0.000	
6	   C	4.584	-1.261	0.632	C.2	1	UNK0	0.000	
7	   C	0.992	-1.171	1.418	C.3	1	UNK0	0.000	
8	   N	0.214	-0.132	0.790	N.pl3	1	UNK0	0.000	
9	   C	0.745	1.157	0.413	C.3	1	UNK0	0.000	
10	   C	2.140	1.392	0.913	C.3	1	UNK0	0.000	
11	   C	-1.146	-0.391	0.532	C.2	1	UNK0	0.000	
12	   C	-2.022	-0.259	1.502	C.2	1	UNK0	0.000	
13	   C	-3.455	-0.516	1.291	C.2	1	UNK0	0.000	
14	   C	-4.347	-0.387	2.257	C.2	1	UNK0	0.000	
15	   N	-3.813	-0.913	-0.024	N.pl3	1	UNK0	0.000	
16	   C	-2.842	-1.052	-1.070	C.2	1	UNK0	0.000	
17	   N	-1.543	-0.789	-0.765	N.pl3	1	UNK0	0.000	
18	   N	-0.859	-0.991	-1.897	N.2	1	UNK0	0.000	
19	   C	-1.674	-1.368	-2.893	C.2	1	UNK0	0.000	
20	   N	-2.909	-1.403	-2.366	N.2	1	UNK0	0.000	
21	   H	5.574	-1.702	0.457	 H	1	UNK0	0.000	
22	   H	0.660	-2.188	1.129	 H	1	UNK0	0.000	
23	   H	0.852	-1.058	2.526	 H	1	UNK0	0.000	
24	   H	0.083	1.932	0.885	 H	1	UNK0	0.000	
25	   H	0.650	1.269	-0.669	 H	1	UNK0	0.000	
26	   H	2.580	2.202	0.294	 H	1	UNK0	0.000	
27	   H	2.170	1.756	1.960	 H	1	UNK0	0.000	
28	   H	-1.740	0.047	2.514	 H	1	UNK0	0.000	
29	   H	-4.081	-0.085	3.263	 H	1	UNK0	0.000	
30	   H	-5.399	-0.577	2.100	 H	1	UNK0	0.000	
31	   H	-4.814	-1.110	-0.238	 H	1	UNK0	0.000	
32	   H	-1.383	-1.600	-3.930	 H	1	UNK0	0.000	
@<TRIPOS>BOND
1 1 2 1
2 2 3 1
3 2 6 2
4 3 4 1
5 3 10 1
6 4 5 2
7 4 7 1
8 5 6 1
9 7 8 1
10 8 9 1
11 8 11 1
12 9 10 1
13 11 12 2
14 11 17 1
15 12 13 1
16 13 14 2
17 13 15 1
18 15 16 1
19 16 17 1
20 16 20 2
21 17 18 1
22 18 19 2
23 19 20 1
24 6 21 1
25 7 22 1
26 7 23 1
27 9 24 1
28 9 25 1
29 10 26 1
30 10 27 1
31 12 28 1
32 14 29 1
33 14 30 1
34 15 31 1
35 19 32 1
@<TRIPOS>SUBSTRUCTURE
1	UNK0	1	GROUP	1 ****	UNK
# created with PyMOL 2.3.2
@<TRIPOS>MOLECULE
743
49 52 1                 
SMALL
USER_CHARGES
@<TRIPOS>ATOM
1	  Br	-8.639	2.421	3.921	Br	1	UNK0	0.000	
2	   C	-6.847	1.982	3.374	C.2	1	UNK0	0.000	
3	   O	-5.977	1.220	3.966	O.3	1	UNK0	0.000	
4	   C	-4.863	1.144	3.317	C.2	1	UNK0	0.000	
5	   C	-4.981	1.931	2.165	C.2	1	UNK0	0.000	
6	   C	-6.255	2.455	2.225	C.2	1	UNK0	0.000	
7	   C	-3.694	0.389	3.692	C.2	1	UNK0	0.000	
8	   O	-3.722	-0.285	4.764	O.2	1	UNK0	0.000	
9	   N	-2.500	0.357	2.922	N.pl3	1	UNK0	0.000	
10	   C	-1.352	-0.399	3.315	C.3	1	UNK0	0.000	
11	   C	-0.207	-0.289	2.356	C.3	1	UNK0	0.000	
12	   C	-0.539	-0.760	1.002	C.2	1	UNK0	0.000	
13	   O	-1.725	-1.196	0.824	O.2	1	UNK0	0.000	
14	   N	0.389	-0.745	-0.074	N.pl3	1	UNK0	0.000	
15	   C	-0.015	-1.224	-1.367	C.3	1	UNK0	0.000	
16	   C	0.635	-0.511	-2.513	C.3	1	UNK0	0.000	
17	   C	1.948	0.123	-2.159	C.3	1	UNK0	0.000	
18	   N	2.809	0.181	-3.301	N.3	1	UNK0	0.000	
19	   C	4.096	0.731	-3.042	C.3	1	UNK0	0.000	
20	   C	4.109	1.959	-2.193	C.3	1	UNK0	0.000	
21	   C	2.753	2.386	-1.763	C.2	1	UNK0	0.000	
22	   N	2.285	3.564	-1.348	N.2	1	UNK0	0.000	
23	   C	0.979	3.449	-1.070	C.2	1	UNK0	0.000	
24	   N	0.596	2.187	-1.306	N.pl3	1	UNK0	0.000	
25	   C	1.681	1.528	-1.732	C.2	1	UNK0	0.000	
26	   C	2.576	-0.598	-0.977	C.3	1	UNK0	0.000	
27	   C	1.723	-0.230	0.219	C.3	1	UNK0	0.000	
28	   H	-4.246	2.091	1.409	 H	1	UNK0	0.000	
29	   H	-6.735	3.129	1.501	 H	1	UNK0	0.000	
30	   H	-2.474	0.908	2.043	 H	1	UNK0	0.000	
31	   H	-1.023	-0.166	4.345	 H	1	UNK0	0.000	
32	   H	-1.679	-1.480	3.357	 H	1	UNK0	0.000	
33	   H	0.040	0.806	2.267	 H	1	UNK0	0.000	
34	   H	0.695	-0.766	2.788	 H	1	UNK0	0.000	
35	   H	-1.121	-1.170	-1.423	 H	1	UNK0	0.000	
36	   H	0.258	-2.299	-1.427	 H	1	UNK0	0.000	
37	   H	-0.051	0.293	-2.849	 H	1	UNK0	0.000	
38	   H	0.787	-1.170	-3.396	 H	1	UNK0	0.000	
39	   H	2.926	-0.789	-3.668	 H	1	UNK0	0.000	
40	   H	4.537	1.022	-4.040	 H	1	UNK0	0.000	
41	   H	4.805	-0.032	-2.640	 H	1	UNK0	0.000	
42	   H	4.723	1.767	-1.272	 H	1	UNK0	0.000	
43	   H	4.589	2.831	-2.684	 H	1	UNK0	0.000	
44	   H	0.287	4.212	-0.710	 H	1	UNK0	0.000	
45	   H	-0.386	1.780	-1.180	 H	1	UNK0	0.000	
46	   H	3.635	-0.329	-0.840	 H	1	UNK0	0.000	
47	   H	2.464	-1.715	-1.093	 H	1	UNK0	0.000	
48	   H	1.634	0.856	0.367	 H	1	UNK0	0.000	
49	   H	2.167	-0.753	1.089	 H	1	UNK0	0.000	
@<TRIPOS>BOND
1 1 2 1
2 2 3 1
3 2 6 2
4 3 4 1
5 4 5 2
6 4 7 1
7 5 6 1
8 7 8 2
9 7 9 1
10 9 10 1
11 10 11 1
12 11 12 1
13 12 13 2
14 12 14 1
15 14 15 1
16 14 27 1
17 15 16 1
18 16 17 1
19 17 18 1
20 17 25 1
21 17 26 1
22 18 19 1
23 19 20 1
24 20 21 1
25 21 22 1
26 21 25 2
27 22 23 2
28 23 24 1
29 24 25 1
30 26 27 1
31 5 28 1
32 6 29 1
33 9 30 1
34 10 31 1
35 10 32 1
36 11 33 1
37 11 34 1
38 15 35 1
39 15 36 1
40 16 37 1
41 16 38 1
42 18 39 1
43 19 40 1
44 19 41 1
45 20 42 1
46 20 43 1
47 23 44 1
48 24 45 1
49 26 46 1
50 26 47 1
51 27 48 1
52 27 49 1
@<TRIPOS>SUBSTRUCTURE
1	UNK0	1	GROUP	1 ****	UNK
# created with PyMOL 2.3.2
@<TRIPOS>MOLECULE
746
49 52 1                 
SMALL
USER_CHARGES
@<TRIPOS>ATOM
1	  Br	-6.366	4.578	-1.632	Br	1	UNK0	0.000	
2	   C	-6.089	2.878	-0.772	C.2	1	UNK0	0.000	
3	   O	-4.947	2.247	-0.681	O.3	1	UNK0	0.000	
4	   C	-5.100	1.096	-0.025	C.2	1	UNK0	0.000	
5	   C	-6.432	1.009	0.314	C.2	1	UNK0	0.000	
6	   C	-7.075	2.128	-0.151	C.2	1	UNK0	0.000	
7	   C	-4.032	0.149	0.254	C.2	1	UNK0	0.000	
8	   O	-4.285	-0.903	0.876	O.2	1	UNK0	0.000	
9	   N	-2.716	0.405	-0.171	N.pl3	1	UNK0	0.000	
10	   C	-1.609	-0.497	0.075	C.3	1	UNK0	0.000	
11	   C	-1.116	-1.018	-1.226	C.3	1	UNK0	0.000	
12	   C	-0.583	0.104	0.944	C.2	1	UNK0	0.000	
13	   O	-0.803	1.309	1.317	O.2	1	UNK0	0.000	
14	   N	0.595	-0.497	1.402	N.pl3	1	UNK0	0.000	
15	   C	0.968	-1.855	1.063	C.3	1	UNK0	0.000	
16	   C	2.256	-1.802	0.301	C.3	1	UNK0	0.000	
17	   C	3.306	-1.016	1.020	C.3	1	UNK0	0.000	
18	   N	4.470	-1.865	1.204	N.3	1	UNK0	0.000	
19	   C	5.016	-2.164	-0.107	C.3	1	UNK0	0.000	
20	   C	5.865	-0.950	-0.501	C.3	1	UNK0	0.000	
21	   C	4.948	0.214	-0.452	C.2	1	UNK0	0.000	
22	   N	5.069	1.425	-1.029	N.pl3	1	UNK0	0.000	
23	   C	3.982	2.137	-0.693	C.2	1	UNK0	0.000	
24	   N	3.201	1.366	0.085	N.2	1	UNK0	0.000	
25	   C	3.772	0.162	0.255	C.2	1	UNK0	0.000	
26	   C	2.785	-0.598	2.395	C.3	1	UNK0	0.000	
27	   C	1.531	0.203	2.263	C.3	1	UNK0	0.000	
28	   H	-6.863	0.188	0.853	 H	1	UNK0	0.000	
29	   H	-8.130	2.388	-0.060	 H	1	UNK0	0.000	
30	   H	-2.516	1.285	-0.689	 H	1	UNK0	0.000	
31	   H	-2.034	-1.377	0.642	 H	1	UNK0	0.000	
32	   H	-1.731	-0.584	-2.042	 H	1	UNK0	0.000	
33	   H	-1.209	-2.116	-1.362	 H	1	UNK0	0.000	
34	   H	-0.077	-0.686	-1.457	 H	1	UNK0	0.000	
35	   H	0.172	-2.408	0.559	 H	1	UNK0	0.000	
36	   H	1.151	-2.433	2.018	 H	1	UNK0	0.000	
37	   H	2.601	-2.871	0.187	 H	1	UNK0	0.000	
38	   H	2.065	-1.430	-0.726	 H	1	UNK0	0.000	
39	   H	4.200	-2.797	1.626	 H	1	UNK0	0.000	
40	   H	5.583	-3.097	-0.143	 H	1	UNK0	0.000	
41	   H	4.202	-2.201	-0.883	 H	1	UNK0	0.000	
42	   H	6.614	-0.800	0.317	 H	1	UNK0	0.000	
43	   H	6.335	-1.090	-1.479	 H	1	UNK0	0.000	
44	   H	5.842	1.798	-1.636	 H	1	UNK0	0.000	
45	   H	3.751	3.145	-0.980	 H	1	UNK0	0.000	
46	   H	3.591	0.022	2.852	 H	1	UNK0	0.000	
47	   H	2.676	-1.512	2.989	 H	1	UNK0	0.000	
48	   H	1.042	0.207	3.282	 H	1	UNK0	0.000	
49	   H	1.692	1.242	1.959	 H	1	UNK0	0.000	
@<TRIPOS>BOND
1 1 2 1
2 2 3 1
3 2 6 2
4 3 4 1
5 4 5 2
6 4 7 1
7 5 6 1
8 7 8 2
9 7 9 1
10 9 10 1
11 10 11 1
12 10 12 1
13 12 13 2
14 12 14 1
15 14 15 1
16 14 27 1
17 15 16 1
18 16 17 1
19 17 18 1
20 17 25 1
21 17 26 1
22 18 19 1
23 19 20 1
24 20 21 1
25 21 22 1
26 21 25 2
27 22 23 1
28 23 24 2
29 24 25 1
30 26 27 1
31 5 28 1
32 6 29 1
33 9 30 1
34 10 31 1
35 11 32 1
36 11 33 1
37 11 34 1
38 15 35 1
39 15 36 1
40 16 37 1
41 16 38 1
42 18 39 1
43 19 40 1
44 19 41 1
45 20 42 1
46 20 43 1
47 22 44 1
48 23 45 1
49 26 46 1
50 26 47 1
51 27 48 1
52 27 49 1
@<TRIPOS>SUBSTRUCTURE
1	UNK0	1	GROUP	1 ****	UNK
# created with PyMOL 2.3.2
@<TRIPOS>MOLECULE
754
49 52 1                 
SMALL
USER_CHARGES
@<TRIPOS>ATOM
1	  Br	6.183	-0.832	-3.462	Br	1	UNK0	0.000	
2	   C	5.605	0.188	-1.924	C.2	1	UNK0	0.000	
3	   O	4.490	0.801	-1.752	O.3	1	UNK0	0.000	
4	   C	4.430	1.390	-0.596	C.2	1	UNK0	0.000	
5	   C	5.619	1.137	0.049	C.2	1	UNK0	0.000	
6	   C	6.373	0.368	-0.800	C.2	1	UNK0	0.000	
7	   C	3.326	2.187	-0.032	C.2	1	UNK0	0.000	
8	   O	3.461	2.673	1.100	O.2	1	UNK0	0.000	
9	   N	2.127	2.405	-0.754	N.pl3	1	UNK0	0.000	
10	   C	1.066	3.197	-0.166	C.3	1	UNK0	0.000	
11	   C	-0.213	2.411	-0.010	C.3	1	UNK0	0.000	
12	   N	-0.217	1.406	-1.086	N.pl3	1	UNK0	0.000	
13	   C	0.349	1.814	-2.326	C.3	1	UNK0	0.000	
14	   C	1.868	1.880	-2.081	C.3	1	UNK0	0.000	
15	   C	-0.781	0.144	-0.779	C.2	1	UNK0	0.000	
16	   N	-1.342	-0.109	0.436	N.2	1	UNK0	0.000	
17	   C	-1.878	-1.301	0.741	C.2	1	UNK0	0.000	
18	   N	-1.873	-2.299	-0.169	N.2	1	UNK0	0.000	
19	   C	-1.342	-2.141	-1.394	C.2	1	UNK0	0.000	
20	   C	-0.790	-0.883	-1.678	C.2	1	UNK0	0.000	
21	   C	-1.326	-3.226	-2.412	C.3	1	UNK0	0.000	
22	   N	-2.451	-1.514	2.020	N.pl3	1	UNK0	0.000	
23	   C	-3.044	-2.766	2.423	C.3	1	UNK0	0.000	
24	   C	-2.447	-3.224	3.720	C.3	1	UNK0	0.000	
25	   O	-1.661	-2.250	4.333	O.3	1	UNK0	0.000	
26	   C	-2.327	-1.028	4.365	C.3	1	UNK0	0.000	
27	   C	-2.450	-0.434	2.983	C.3	1	UNK0	0.000	
28	   H	5.913	1.484	1.054	 H	1	UNK0	0.000	
29	   H	7.378	-0.014	-0.601	 H	1	UNK0	0.000	
30	   H	0.872	4.127	-0.736	 H	1	UNK0	0.000	
31	   H	1.355	3.521	0.877	 H	1	UNK0	0.000	
32	   H	-0.293	1.914	0.956	 H	1	UNK0	0.000	
33	   H	-1.113	3.055	-0.231	 H	1	UNK0	0.000	
34	   H	0.136	1.092	-3.116	 H	1	UNK0	0.000	
35	   H	0.002	2.844	-2.593	 H	1	UNK0	0.000	
36	   H	2.223	0.868	-2.249	 H	1	UNK0	0.000	
37	   H	2.364	2.552	-2.807	 H	1	UNK0	0.000	
38	   H	-0.371	-0.783	-2.663	 H	1	UNK0	0.000	
39	   H	-0.283	-3.484	-2.684	 H	1	UNK0	0.000	
40	   H	-1.916	-4.061	-2.037	 H	1	UNK0	0.000	
41	   H	-1.827	-2.817	-3.320	 H	1	UNK0	0.000	
42	   H	-2.852	-3.563	1.654	 H	1	UNK0	0.000	
43	   H	-4.153	-2.652	2.535	 H	1	UNK0	0.000	
44	   H	-3.265	-3.481	4.448	 H	1	UNK0	0.000	
45	   H	-1.835	-4.138	3.582	 H	1	UNK0	0.000	
46	   H	-1.768	-0.329	5.010	 H	1	UNK0	0.000	
47	   H	-3.338	-1.162	4.837	 H	1	UNK0	0.000	
48	   H	-1.613	0.281	2.808	 H	1	UNK0	0.000	
49	   H	-3.427	0.109	2.928	 H	1	UNK0	0.000	
@<TRIPOS>BOND
1 1 2 1
2 2 3 1
3 2 6 2
4 3 4 1
5 4 5 2
6 4 7 1
7 5 6 1
8 7 8 2
9 7 9 1
10 9 10 1
11 9 14 1
12 10 11 1
13 11 12 1
14 12 13 1
15 12 15 1
16 13 14 1
17 15 16 2
18 15 20 1
19 16 17 1
20 17 18 2
21 17 22 1
22 18 19 1
23 19 20 2
24 19 21 1
25 22 23 1
26 22 27 1
27 23 24 1
28 24 25 1
29 25 26 1
30 26 27 1
31 5 28 1
32 6 29 1
33 10 30 1
34 10 31 1
35 11 32 1
36 11 33 1
37 13 34 1
38 13 35 1
39 14 36 1
40 14 37 1
41 20 38 1
42 21 39 1
43 21 40 1
44 21 41 1
45 23 42 1
46 23 43 1
47 24 44 1
48 24 45 1
49 26 46 1
50 26 47 1
51 27 48 1
52 27 49 1
@<TRIPOS>SUBSTRUCTURE
1	UNK0	1	GROUP	1 ****	UNK
# created with PyMOL 2.3.2
@<TRIPOS>MOLECULE
755
53 56 1                 
SMALL
USER_CHARGES
@<TRIPOS>ATOM
1	  Br	-7.675	1.313	-0.763	Br	1	UNK0	0.000	
2	   C	-6.143	2.434	-0.545	C.2	1	UNK0	0.000	
3	   O	-4.928	2.159	-0.947	O.3	1	UNK0	0.000	
4	   C	-4.081	3.116	-0.660	C.2	1	UNK0	0.000	
5	   C	-4.805	4.093	-0.020	C.2	1	UNK0	0.000	
6	   C	-6.108	3.673	0.058	C.2	1	UNK0	0.000	
7	   C	-2.632	3.138	-0.966	C.2	1	UNK0	0.000	
8	   O	-1.949	4.118	-0.633	O.2	1	UNK0	0.000	
9	   N	-2.046	2.033	-1.638	N.pl3	1	UNK0	0.000	
10	   C	-2.858	0.883	-2.027	C.3	1	UNK0	0.000	
11	   C	-1.975	-0.185	-2.669	C.3	1	UNK0	0.000	
12	   N	-0.850	-0.403	-1.781	N.pl3	1	UNK0	0.000	
13	   C	-0.015	0.716	-1.439	C.3	1	UNK0	0.000	
14	   C	-0.636	1.983	-1.969	C.3	1	UNK0	0.000	
15	   C	-0.561	-1.701	-1.246	C.2	1	UNK0	0.000	
16	   N	-1.301	-2.773	-1.562	N.2	1	UNK0	0.000	
17	   C	-1.008	-3.972	-1.046	C.2	1	UNK0	0.000	
18	   N	0.026	-4.147	-0.200	N.2	1	UNK0	0.000	
19	   C	0.808	-3.113	0.158	C.2	1	UNK0	0.000	
20	   C	0.490	-1.886	-0.385	C.2	1	UNK0	0.000	
21	   N	1.906	-3.246	1.043	N.pl3	1	UNK0	0.000	
22	   C	2.695	-2.088	1.410	C.3	1	UNK0	0.000	
23	   C	3.568	-2.491	2.580	C.3	1	UNK0	0.000	
24	   N	4.441	-3.554	2.161	N.3	1	UNK0	0.000	
25	   C	3.801	-4.619	1.455	C.3	1	UNK0	0.000	
26	   C	2.300	-4.516	1.622	C.3	1	UNK0	0.000	
27	   C	5.600	-3.009	1.501	C.3	1	UNK0	0.000	
28	   C	-1.833	-5.153	-1.403	C.3	1	UNK0	0.000	
29	   H	-4.429	5.029	0.359	 H	1	UNK0	0.000	
30	   H	-6.968	4.199	0.505	 H	1	UNK0	0.000	
31	   H	-3.661	1.182	-2.719	 H	1	UNK0	0.000	
32	   H	-3.336	0.462	-1.117	 H	1	UNK0	0.000	
33	   H	-2.537	-1.111	-2.802	 H	1	UNK0	0.000	
34	   H	-1.617	0.237	-3.634	 H	1	UNK0	0.000	
35	   H	0.135	0.766	-0.333	 H	1	UNK0	0.000	
36	   H	0.978	0.592	-1.956	 H	1	UNK0	0.000	
37	   H	-0.091	2.871	-1.625	 H	1	UNK0	0.000	
38	   H	-0.568	1.940	-3.084	 H	1	UNK0	0.000	
39	   H	1.090	-1.024	-0.128	 H	1	UNK0	0.000	
40	   H	3.321	-1.780	0.562	 H	1	UNK0	0.000	
41	   H	1.987	-1.278	1.683	 H	1	UNK0	0.000	
42	   H	4.172	-1.606	2.847	 H	1	UNK0	0.000	
43	   H	2.934	-2.773	3.437	 H	1	UNK0	0.000	
44	   H	4.134	-5.605	1.838	 H	1	UNK0	0.000	
45	   H	4.029	-4.586	0.378	 H	1	UNK0	0.000	
46	   H	2.064	-4.472	2.714	 H	1	UNK0	0.000	
47	   H	1.768	-5.347	1.120	 H	1	UNK0	0.000	
48	   H	5.671	-1.924	1.611	 H	1	UNK0	0.000	
49	   H	6.509	-3.472	1.967	 H	1	UNK0	0.000	
50	   H	5.579	-3.283	0.425	 H	1	UNK0	0.000	
51	   H	-1.170	-6.039	-1.476	 H	1	UNK0	0.000	
52	   H	-2.605	-5.325	-0.625	 H	1	UNK0	0.000	
53	   H	-2.276	-5.010	-2.404	 H	1	UNK0	0.000	
@<TRIPOS>BOND
1 1 2 1
2 2 3 1
3 2 6 2
4 3 4 1
5 4 5 2
6 4 7 1
7 5 6 1
8 7 8 2
9 7 9 1
10 9 10 1
11 9 14 1
12 10 11 1
13 11 12 1
14 12 13 1
15 12 15 1
16 13 14 1
17 15 16 2
18 15 20 1
19 16 17 1
20 17 18 2
21 17 28 1
22 18 19 1
23 19 20 2
24 19 21 1
25 21 22 1
26 21 26 1
27 22 23 1
28 23 24 1
29 24 25 1
30 24 27 1
31 25 26 1
32 5 29 1
33 6 30 1
34 10 31 1
35 10 32 1
36 11 33 1
37 11 34 1
38 13 35 1
39 13 36 1
40 14 37 1
41 14 38 1
42 20 39 1
43 22 40 1
44 22 41 1
45 23 42 1
46 23 43 1
47 25 44 1
48 25 45 1
49 26 46 1
50 26 47 1
51 27 48 1
52 27 49 1
53 27 50 1
54 28 51 1
55 28 52 1
56 28 53 1
@<TRIPOS>SUBSTRUCTURE
1	UNK0	1	GROUP	1 ****	UNK
# created with PyMOL 2.3.2
@<TRIPOS>MOLECULE
767
43 46 1                 
SMALL
USER_CHARGES
@<TRIPOS>ATOM
1	  Br	0.627	5.671	3.268	Br	1	UNK0	0.000	
2	   C	0.576	3.956	4.077	C.2	1	UNK0	0.000	
3	   O	0.107	2.843	3.601	O.3	1	UNK0	0.000	
4	   C	0.238	1.847	4.440	C.2	1	UNK0	0.000	
5	   C	0.850	2.362	5.568	C.2	1	UNK0	0.000	
6	   C	1.076	3.714	5.358	C.2	1	UNK0	0.000	
7	   C	-0.170	0.460	4.252	C.2	1	UNK0	0.000	
8	   N	-0.035	-0.567	5.121	N.2	1	UNK0	0.000	
9	   O	-0.521	-1.653	4.591	O.3	1	UNK0	0.000	
10	   C	-0.983	-1.405	3.392	C.2	1	UNK0	0.000	
11	   N	-0.765	-0.101	3.185	N.2	1	UNK0	0.000	
12	   C	-1.593	-2.415	2.536	C.2	1	UNK0	0.000	
13	   O	-1.700	-3.619	2.950	O.2	1	UNK0	0.000	
14	   N	-2.082	-2.107	1.236	N.pl3	1	UNK0	0.000	
15	   C	-2.677	-3.096	0.403	C.3	1	UNK0	0.000	
16	   C	-3.124	-2.549	-0.936	C.3	1	UNK0	0.000	
17	   N	-2.003	-1.995	-1.682	N.pl3	1	UNK0	0.000	
18	   C	-2.237	-1.436	-2.950	C.2	1	UNK0	0.000	
19	   O	-3.457	-1.466	-3.345	O.2	1	UNK0	0.000	
20	   C	-1.280	-0.840	-3.847	C.2	1	UNK0	0.000	
21	   C	-1.747	-0.231	-5.011	C.2	1	UNK0	0.000	
22	   C	-0.858	0.353	-5.878	C.2	1	UNK0	0.000	
23	   C	0.475	0.339	-5.607	C.2	1	UNK0	0.000	
24	   C	1.376	0.935	-6.493	C.2	1	UNK0	0.000	
25	   C	0.955	1.546	-7.649	C.2	1	UNK0	0.000	
26	   C	-0.390	1.556	-7.917	C.2	1	UNK0	0.000	
27	   C	-1.291	0.973	-7.054	C.2	1	UNK0	0.000	
28	   O	0.880	-0.237	-4.512	O.3	1	UNK0	0.000	
29	   C	0.075	-0.820	-3.631	C.2	1	UNK0	0.000	
30	   O	0.595	-1.340	-2.616	O.co2	1	UNK0	0.000	
31	   H	1.086	1.781	6.425	 H	1	UNK0	0.000	
32	   H	1.541	4.416	6.045	 H	1	UNK0	0.000	
33	   H	-1.998	-1.132	0.893	 H	1	UNK0	0.000	
34	   H	-3.609	-3.454	0.921	 H	1	UNK0	0.000	
35	   H	-2.034	-3.990	0.289	 H	1	UNK0	0.000	
36	   H	-3.501	-3.409	-1.528	 H	1	UNK0	0.000	
37	   H	-3.954	-1.828	-0.822	 H	1	UNK0	0.000	
38	   H	-1.040	-2.000	-1.300	 H	1	UNK0	0.000	
39	   H	-2.814	-0.210	-5.246	 H	1	UNK0	0.000	
40	   H	2.425	0.907	-6.248	 H	1	UNK0	0.000	
41	   H	1.683	1.994	-8.305	 H	1	UNK0	0.000	
42	   H	-0.731	2.032	-8.821	 H	1	UNK0	0.000	
43	   H	-2.350	0.976	-7.256	 H	1	UNK0	0.000	
@<TRIPOS>BOND
1 1 2 1
2 2 3 1
3 2 6 2
4 3 4 1
5 4 5 2
6 4 7 1
7 5 6 1
8 7 8 2
9 7 11 1
10 8 9 1
11 9 10 1
12 10 11 2
13 10 12 1
14 12 13 2
15 12 14 1
16 14 15 1
17 15 16 1
18 16 17 1
19 17 18 1
20 18 19 2
21 18 20 1
22 20 21 2
23 20 29 1
24 21 22 1
25 22 23 2
26 22 27 1
27 23 24 1
28 23 28 1
29 24 25 2
30 25 26 1
31 26 27 2
32 28 29 1
33 29 30 2
34 5 31 1
35 6 32 1
36 14 33 1
37 15 34 1
38 15 35 1
39 16 36 1
40 16 37 1
41 17 38 1
42 21 39 1
43 24 40 1
44 25 41 1
45 26 42 1
46 27 43 1
@<TRIPOS>SUBSTRUCTURE
1	UNK0	1	GROUP	1 ****	UNK
# created with PyMOL 2.3.2
@<TRIPOS>MOLECULE
769
43 46 1                 
SMALL
USER_CHARGES
@<TRIPOS>ATOM
1	  Br	-5.956	4.459	-2.075	Br	1	UNK0	0.000	
2	   C	-6.103	2.841	-1.121	C.2	1	UNK0	0.000	
3	   C	-4.986	2.220	-0.554	C.2	1	UNK0	0.000	
4	   C	-5.144	1.045	0.130	C.2	1	UNK0	0.000	
5	   C	-6.442	0.533	0.217	C.2	1	UNK0	0.000	
6	   O	-7.446	1.145	-0.325	O.3	1	UNK0	0.000	
7	   C	-7.334	2.250	-0.974	C.2	1	UNK0	0.000	
8	   O	-8.370	2.768	-1.466	O.co2	1	UNK0	0.000	
9	   C	-4.050	0.324	0.752	C.2	1	UNK0	0.000	
10	   O	-4.459	-0.778	1.352	O.2	1	UNK0	0.000	
11	   N	-2.688	0.575	0.827	N.pl3	1	UNK0	0.000	
12	   C	-1.821	-0.387	1.554	C.3	1	UNK0	0.000	
13	   C	-0.730	-0.856	0.621	C.3	1	UNK0	0.000	
14	   N	0.001	0.253	0.150	N.3	1	UNK0	0.000	
15	   C	-0.501	1.485	0.655	C.3	1	UNK0	0.000	
16	   C	-1.990	1.673	0.277	C.3	1	UNK0	0.000	
17	   C	1.423	0.161	0.247	C.3	1	UNK0	0.000	
18	   C	2.044	-0.938	-0.514	C.2	1	UNK0	0.000	
19	   C	1.464	-1.583	-1.557	C.2	1	UNK0	0.000	
20	   C	2.122	-2.600	-2.203	C.2	1	UNK0	0.000	
21	   C	3.374	-2.966	-1.789	C.2	1	UNK0	0.000	
22	   C	3.983	-2.326	-0.733	C.2	1	UNK0	0.000	
23	   C	3.310	-1.324	-0.113	C.2	1	UNK0	0.000	
24	   O	3.838	-4.004	-2.579	O.3	1	UNK0	0.000	
25	   C	2.702	-4.524	-3.255	C.3	1	UNK0	0.000	
26	   O	1.798	-3.436	-3.283	O.3	1	UNK0	0.000	
27	   H	-4.054	2.715	-0.694	 H	1	UNK0	0.000	
28	   H	-6.641	-0.418	0.759	 H	1	UNK0	0.000	
29	   H	-2.462	-1.247	1.861	 H	1	UNK0	0.000	
30	   H	-1.392	0.091	2.432	 H	1	UNK0	0.000	
31	   H	-0.065	-1.571	1.198	 H	1	UNK0	0.000	
32	   H	-1.148	-1.515	-0.185	 H	1	UNK0	0.000	
33	   H	-0.427	1.663	1.723	 H	1	UNK0	0.000	
34	   H	0.070	2.298	0.125	 H	1	UNK0	0.000	
35	   H	-2.023	1.793	-0.815	 H	1	UNK0	0.000	
36	   H	-2.331	2.644	0.733	 H	1	UNK0	0.000	
37	   H	1.839	1.117	-0.192	 H	1	UNK0	0.000	
38	   H	1.801	0.140	1.283	 H	1	UNK0	0.000	
39	   H	0.484	-1.310	-1.901	 H	1	UNK0	0.000	
40	   H	4.969	-2.622	-0.415	 H	1	UNK0	0.000	
41	   H	3.804	-0.828	0.718	 H	1	UNK0	0.000	
42	   H	2.292	-5.415	-2.783	 H	1	UNK0	0.000	
43	   H	2.936	-4.764	-4.315	 H	1	UNK0	0.000	
@<TRIPOS>BOND
1 1 2 1
2 2 3 2
3 2 7 1
4 3 4 1
5 4 5 2
6 4 9 1
7 5 6 1
8 6 7 1
9 7 8 2
10 9 10 2
11 9 11 1
12 11 12 1
13 11 16 1
14 12 13 1
15 13 14 1
16 14 15 1
17 14 17 1
18 15 16 1
19 17 18 1
20 18 19 2
21 18 23 1
22 19 20 1
23 20 21 2
24 20 26 1
25 21 22 1
26 21 24 1
27 22 23 2
28 24 25 1
29 25 26 1
30 3 27 1
31 5 28 1
32 12 29 1
33 12 30 1
34 13 31 1
35 13 32 1
36 15 33 1
37 15 34 1
38 16 35 1
39 16 36 1
40 17 37 1
41 17 38 1
42 19 39 1
43 22 40 1
44 23 41 1
45 25 42 1
46 25 43 1
@<TRIPOS>SUBSTRUCTURE
1	UNK0	1	GROUP	1 ****	UNK
# created with PyMOL 2.3.2
@<TRIPOS>MOLECULE
776
63 66 1                 
SMALL
USER_CHARGES
@<TRIPOS>ATOM
1	  Br	-4.279	0.010	-5.610	Br	1	UNK0	0.000	
2	   C	-2.673	-0.972	-5.889	C.2	1	UNK0	0.000	
3	   C	-1.756	-1.026	-4.870	C.2	1	UNK0	0.000	
4	   N	-0.592	-1.693	-4.968	N.pl3	1	UNK0	0.000	
5	   C	-0.386	-2.319	-6.166	C.2	1	UNK0	0.000	
6	   O	0.687	-2.968	-6.336	O.2	1	UNK0	0.000	
7	   N	-1.249	-2.286	-7.169	N.pl3	1	UNK0	0.000	
8	   C	-2.412	-1.620	-7.071	C.2	1	UNK0	0.000	
9	   O	-3.257	-1.566	-7.998	O.2	1	UNK0	0.000	
10	   C	0.382	-1.769	-3.927	C.3	1	UNK0	0.000	
11	   C	0.128	-2.940	-2.969	C.3	1	UNK0	0.000	
12	   C	-0.840	-2.512	-1.920	C.3	1	UNK0	0.000	
13	   C	-0.217	-1.393	-1.116	C.3	1	UNK0	0.000	
14	   O	0.829	-0.779	-1.779	O.3	1	UNK0	0.000	
15	   C	0.568	-0.528	-3.119	C.3	1	UNK0	0.000	
16	   C	-1.305	-0.467	-0.710	C.3	1	UNK0	0.000	
17	   C	-0.692	0.656	0.141	C.3	1	UNK0	0.000	
18	   N	-0.235	0.075	1.360	N.pl3	1	UNK0	0.000	
19	   C	-0.267	-1.426	1.385	C.3	1	UNK0	0.000	
20	   C	0.346	-2.001	0.151	C.3	1	UNK0	0.000	
21	   C	0.221	0.754	2.473	C.2	1	UNK0	0.000	
22	   O	0.570	-0.005	3.491	O.2	1	UNK0	0.000	
23	   C	0.382	2.144	2.714	C.2	1	UNK0	0.000	
24	   C	0.776	2.600	3.985	C.2	1	UNK0	0.000	
25	   C	0.980	3.897	4.334	C.2	1	UNK0	0.000	
26	   C	0.777	4.859	3.323	C.2	1	UNK0	0.000	
27	   C	0.398	4.445	2.092	C.2	1	UNK0	0.000	
28	   C	0.194	3.094	1.763	C.2	1	UNK0	0.000	
29	   O	1.358	4.300	5.580	O.3	1	UNK0	0.000	
30	   C	1.588	3.612	6.734	C.3	1	UNK0	0.000	
31	   C	0.366	2.949	7.271	C.3	1	UNK0	0.000	
32	   N	-0.655	3.959	7.553	N.3	1	UNK0	0.000	
33	   O	1.348	-3.205	-2.342	O.3	1	UNK0	0.000	
34	   C	-0.281	-4.170	-3.713	C.3	1	UNK0	0.000	
35	   H	-1.964	-0.524	-3.961	 H	1	UNK0	0.000	
36	   H	-1.065	-2.773	-8.071	 H	1	UNK0	0.000	
37	   H	1.364	-2.042	-4.419	 H	1	UNK0	0.000	
38	   H	-1.844	-2.248	-2.302	 H	1	UNK0	0.000	
39	   H	-1.018	-3.412	-1.260	 H	1	UNK0	0.000	
40	   H	-0.237	0.203	-3.171	 H	1	UNK0	0.000	
41	   H	1.487	0.010	-3.501	 H	1	UNK0	0.000	
42	   H	-2.031	-0.993	-0.080	 H	1	UNK0	0.000	
43	   H	-1.870	-0.032	-1.559	 H	1	UNK0	0.000	
44	   H	-1.556	1.367	0.305	 H	1	UNK0	0.000	
45	   H	0.078	1.118	-0.495	 H	1	UNK0	0.000	
46	   H	-1.276	-1.789	1.575	 H	1	UNK0	0.000	
47	   H	0.335	-1.713	2.278	 H	1	UNK0	0.000	
48	   H	1.456	-1.815	0.236	 H	1	UNK0	0.000	
49	   H	0.207	-3.107	0.168	 H	1	UNK0	0.000	
50	   H	0.946	1.846	4.724	 H	1	UNK0	0.000	
51	   H	0.943	5.883	3.614	 H	1	UNK0	0.000	
52	   H	0.245	5.204	1.321	 H	1	UNK0	0.000	
53	   H	-0.090	2.929	0.754	 H	1	UNK0	0.000	
54	   H	1.928	4.341	7.541	 H	1	UNK0	0.000	
55	   H	2.411	2.848	6.597	 H	1	UNK0	0.000	
56	   H	-0.109	2.191	6.666	 H	1	UNK0	0.000	
57	   H	0.610	2.532	8.293	 H	1	UNK0	0.000	
58	   H	-1.176	4.232	6.707	 H	1	UNK0	0.000	
59	   H	-0.302	4.736	8.120	 H	1	UNK0	0.000	
60	   H	2.122	-2.828	-2.831	 H	1	UNK0	0.000	
61	   H	-1.053	-4.006	-4.477	 H	1	UNK0	0.000	
62	   H	0.640	-4.627	-4.142	 H	1	UNK0	0.000	
63	   H	-0.661	-4.902	-2.966	 H	1	UNK0	0.000	
@<TRIPOS>BOND
1 1 2 1
2 2 3 2
3 2 8 1
4 3 4 1
5 4 5 1
6 4 10 1
7 5 6 2
8 5 7 1
9 7 8 1
10 8 9 2
11 10 11 1
12 10 15 1
13 11 12 1
14 11 33 1
15 11 34 1
16 12 13 1
17 13 14 1
18 13 16 1
19 13 20 1
20 14 15 1
21 16 17 1
22 17 18 1
23 18 19 1
24 18 21 1
25 19 20 1
26 21 22 2
27 21 23 1
28 23 24 2
29 23 28 1
30 24 25 1
31 25 26 2
32 25 29 1
33 26 27 1
34 27 28 2
35 29 30 1
36 30 31 1
37 31 32 1
38 3 35 1
39 7 36 1
40 10 37 1
41 12 38 1
42 12 39 1
43 15 40 1
44 15 41 1
45 16 42 1
46 16 43 1
47 17 44 1
48 17 45 1
49 19 46 1
50 19 47 1
51 20 48 1
52 20 49 1
53 24 50 1
54 26 51 1
55 27 52 1
56 28 53 1
57 30 54 1
58 30 55 1
59 31 56 1
60 31 57 1
61 32 58 1
62 32 59 1
63 33 60 1
64 34 61 1
65 34 62 1
66 34 63 1
@<TRIPOS>SUBSTRUCTURE
1	UNK0	1	GROUP	1 ****	UNK
# created with PyMOL 2.3.2
@<TRIPOS>MOLECULE
783
63 66 1                 
SMALL
USER_CHARGES
@<TRIPOS>ATOM
1	  Br	5.138	0.082	3.169	Br	1	UNK0	0.000	
2	   C	4.979	-0.789	1.464	C.2	1	UNK0	0.000	
3	   C	4.147	-0.274	0.497	C.2	1	UNK0	0.000	
4	   N	4.026	-0.865	-0.687	N.pl3	1	UNK0	0.000	
5	   C	4.710	-1.972	-0.964	C.2	1	UNK0	0.000	
6	   O	4.621	-2.568	-2.088	O.2	1	UNK0	0.000	
7	   N	5.526	-2.490	-0.033	N.pl3	1	UNK0	0.000	
8	   C	5.690	-1.937	1.183	C.2	1	UNK0	0.000	
9	   O	6.468	-2.450	2.040	O.2	1	UNK0	0.000	
10	   C	3.147	-0.293	-1.687	C.3	1	UNK0	0.000	
11	   C	1.750	-0.766	-1.622	C.3	1	UNK0	0.000	
12	   C	0.722	0.246	-2.142	C.3	1	UNK0	0.000	
13	   C	0.877	1.570	-1.436	C.3	1	UNK0	0.000	
14	   O	2.139	1.717	-0.892	O.3	1	UNK0	0.000	
15	   C	3.162	1.210	-1.632	C.3	1	UNK0	0.000	
16	   C	-0.204	1.648	-0.373	C.3	1	UNK0	0.000	
17	   C	-1.400	2.400	-0.892	C.3	1	UNK0	0.000	
18	   N	-1.624	2.022	-2.264	N.pl3	1	UNK0	0.000	
19	   C	-0.618	2.469	-3.216	C.3	1	UNK0	0.000	
20	   C	0.671	2.668	-2.452	C.3	1	UNK0	0.000	
21	   C	-2.754	1.290	-2.637	C.2	1	UNK0	0.000	
22	   O	-2.840	1.010	-3.888	O.2	1	UNK0	0.000	
23	   C	-3.854	0.800	-1.813	C.3	1	UNK0	0.000	
24	   N	-4.965	0.300	-2.624	N.3	1	UNK0	0.000	
25	   C	-3.499	-0.321	-0.862	C.3	1	UNK0	0.000	
26	   C	-4.777	-0.668	-0.136	C.2	1	UNK0	0.000	
27	   C	-5.107	-0.023	1.027	C.2	1	UNK0	0.000	
28	   C	-6.294	-0.374	1.664	C.2	1	UNK0	0.000	
29	   C	-7.131	-1.341	1.156	C.2	1	UNK0	0.000	
30	   C	-6.764	-1.968	-0.018	C.2	1	UNK0	0.000	
31	   C	-5.593	-1.643	-0.672	C.2	1	UNK0	0.000	
32	   O	-8.297	-1.648	1.831	O.3	1	UNK0	0.000	
33	   O	1.637	-1.851	-2.529	O.3	1	UNK0	0.000	
34	   C	1.308	-1.299	-0.298	C.3	1	UNK0	0.000	
35	   H	3.606	0.635	0.770	 H	1	UNK0	0.000	
36	   H	6.073	-3.376	-0.255	 H	1	UNK0	0.000	
37	   H	3.620	-0.580	-2.680	 H	1	UNK0	0.000	
38	   H	0.835	0.402	-3.221	 H	1	UNK0	0.000	
39	   H	-0.280	-0.148	-1.947	 H	1	UNK0	0.000	
40	   H	4.133	1.602	-1.247	 H	1	UNK0	0.000	
41	   H	3.048	1.587	-2.692	 H	1	UNK0	0.000	
42	   H	-0.527	0.651	-0.040	 H	1	UNK0	0.000	
43	   H	0.146	2.212	0.520	 H	1	UNK0	0.000	
44	   H	-2.279	2.260	-0.229	 H	1	UNK0	0.000	
45	   H	-1.164	3.492	-0.802	 H	1	UNK0	0.000	
46	   H	-0.434	1.775	-4.032	 H	1	UNK0	0.000	
47	   H	-0.913	3.443	-3.643	 H	1	UNK0	0.000	
48	   H	0.719	3.668	-1.970	 H	1	UNK0	0.000	
49	   H	1.474	2.666	-3.210	 H	1	UNK0	0.000	
50	   H	-4.249	1.638	-1.204	 H	1	UNK0	0.000	
51	   H	-5.110	0.894	-3.469	 H	1	UNK0	0.000	
52	   H	-5.847	0.374	-2.059	 H	1	UNK0	0.000	
53	   H	-3.162	-1.228	-1.359	 H	1	UNK0	0.000	
54	   H	-2.760	-0.036	-0.115	 H	1	UNK0	0.000	
55	   H	-4.444	0.730	1.410	 H	1	UNK0	0.000	
56	   H	-6.556	0.132	2.579	 H	1	UNK0	0.000	
57	   H	-7.404	-2.722	-0.422	 H	1	UNK0	0.000	
58	   H	-5.297	-2.128	-1.593	 H	1	UNK0	0.000	
59	   H	-8.366	-2.364	2.554	 H	1	UNK0	0.000	
60	   H	2.042	-1.639	-3.402	 H	1	UNK0	0.000	
61	   H	1.400	-0.612	0.546	 H	1	UNK0	0.000	
62	   H	0.243	-1.594	-0.380	 H	1	UNK0	0.000	
63	   H	1.851	-2.273	-0.109	 H	1	UNK0	0.000	
@<TRIPOS>BOND
1 1 2 1
2 2 3 2
3 2 8 1
4 3 4 1
5 4 5 1
6 4 10 1
7 5 6 2
8 5 7 1
9 7 8 1
10 8 9 2
11 10 11 1
12 10 15 1
13 11 12 1
14 11 33 1
15 11 34 1
16 12 13 1
17 13 14 1
18 13 16 1
19 13 20 1
20 14 15 1
21 16 17 1
22 17 18 1
23 18 19 1
24 18 21 1
25 19 20 1
26 21 22 2
27 21 23 1
28 23 24 1
29 23 25 1
30 25 26 1
31 26 27 2
32 26 31 1
33 27 28 1
34 28 29 2
35 29 30 1
36 29 32 1
37 30 31 2
38 3 35 1
39 7 36 1
40 10 37 1
41 12 38 1
42 12 39 1
43 15 40 1
44 15 41 1
45 16 42 1
46 16 43 1
47 17 44 1
48 17 45 1
49 19 46 1
50 19 47 1
51 20 48 1
52 20 49 1
53 23 50 1
54 24 51 1
55 24 52 1
56 25 53 1
57 25 54 1
58 27 55 1
59 28 56 1
60 30 57 1
61 31 58 1
62 32 59 1
63 33 60 1
64 34 61 1
65 34 62 1
66 34 63 1
@<TRIPOS>SUBSTRUCTURE
1	UNK0	1	GROUP	1 ****	UNK
# created with PyMOL 2.3.2
@<TRIPOS>MOLECULE
784
64 67 1                 
SMALL
USER_CHARGES
@<TRIPOS>ATOM
1	  Br	1.717	-7.887	-1.494	Br	1	UNK0	0.000	
2	   C	0.711	-6.288	-1.359	C.2	1	UNK0	0.000	
3	   C	1.390	-5.083	-1.178	C.2	1	UNK0	0.000	
4	   N	0.750	-3.916	-1.075	N.pl3	1	UNK0	0.000	
5	   C	-0.614	-3.964	-1.157	C.2	1	UNK0	0.000	
6	   O	-1.265	-2.888	-1.066	O.2	1	UNK0	0.000	
7	   N	-1.295	-5.109	-1.332	N.pl3	1	UNK0	0.000	
8	   C	-0.664	-6.292	-1.437	C.2	1	UNK0	0.000	
9	   O	-1.309	-7.378	-1.603	O.2	1	UNK0	0.000	
10	   C	1.358	-2.661	-0.891	C.3	1	UNK0	0.000	
11	   C	1.304	-2.179	0.568	C.3	1	UNK0	0.000	
12	   C	1.498	-0.660	0.462	C.3	1	UNK0	0.000	
13	   C	2.724	-0.337	-0.346	C.3	1	UNK0	0.000	
14	   O	3.418	-1.496	-0.597	O.3	1	UNK0	0.000	
15	   C	2.734	-2.434	-1.366	C.3	1	UNK0	0.000	
16	   C	3.609	0.519	0.550	C.3	1	UNK0	0.000	
17	   C	3.186	1.963	0.453	C.3	1	UNK0	0.000	
18	   N	1.793	2.058	-0.015	N.pl3	1	UNK0	0.000	
19	   C	1.573	1.647	-1.370	C.3	1	UNK0	0.000	
20	   C	2.467	0.430	-1.594	C.3	1	UNK0	0.000	
21	   C	0.753	2.481	0.812	C.2	1	UNK0	0.000	
22	   O	0.966	2.762	2.055	O.2	1	UNK0	0.000	
23	   C	-0.619	2.635	0.354	C.3	1	UNK0	0.000	
24	   N	-1.516	2.842	1.465	N.pl3	1	UNK0	0.000	
25	   C	-1.854	4.031	2.100	C.2	1	UNK0	0.000	
26	   O	-1.409	5.161	1.811	O.2	1	UNK0	0.000	
27	   C	-2.842	4.039	3.252	C.3	1	UNK0	0.000	
28	   C	-0.764	3.834	-0.635	C.3	1	UNK0	0.000	
29	   C	-2.159	3.936	-1.099	C.2	1	UNK0	0.000	
30	   N	-3.173	4.620	-0.593	N.2	1	UNK0	0.000	
31	   C	-4.307	4.446	-1.326	C.2	1	UNK0	0.000	
32	   N	-3.978	3.615	-2.333	N.pl3	1	UNK0	0.000	
33	   C	-2.673	3.292	-2.212	C.2	1	UNK0	0.000	
34	   O	0.081	-2.427	1.152	O.3	1	UNK0	0.000	
35	   C	2.370	-2.825	1.395	C.3	1	UNK0	0.000	
36	   H	2.471	-5.056	-1.111	 H	1	UNK0	0.000	
37	   H	-2.347	-5.059	-1.385	 H	1	UNK0	0.000	
38	   H	0.712	-1.901	-1.434	 H	1	UNK0	0.000	
39	   H	1.525	-0.261	1.495	 H	1	UNK0	0.000	
40	   H	0.575	-0.288	-0.020	 H	1	UNK0	0.000	
41	   H	2.734	-2.023	-2.420	 H	1	UNK0	0.000	
42	   H	3.404	-3.309	-1.427	 H	1	UNK0	0.000	
43	   H	3.569	0.225	1.602	 H	1	UNK0	0.000	
44	   H	4.654	0.369	0.205	 H	1	UNK0	0.000	
45	   H	3.779	2.540	-0.290	 H	1	UNK0	0.000	
46	   H	3.238	2.473	1.424	 H	1	UNK0	0.000	
47	   H	0.515	1.383	-1.608	 H	1	UNK0	0.000	
48	   H	1.861	2.471	-2.048	 H	1	UNK0	0.000	
49	   H	2.008	-0.129	-2.414	 H	1	UNK0	0.000	
50	   H	3.436	0.826	-1.961	 H	1	UNK0	0.000	
51	   H	-1.039	1.809	-0.268	 H	1	UNK0	0.000	
52	   H	-1.968	1.950	1.836	 H	1	UNK0	0.000	
53	   H	-2.596	4.817	3.976	 H	1	UNK0	0.000	
54	   H	-3.861	4.223	2.850	 H	1	UNK0	0.000	
55	   H	-2.847	3.048	3.732	 H	1	UNK0	0.000	
56	   H	-0.461	4.762	-0.165	 H	1	UNK0	0.000	
57	   H	-0.082	3.633	-1.503	 H	1	UNK0	0.000	
58	   H	-5.275	4.899	-1.120	 H	1	UNK0	0.000	
59	   H	-4.661	3.300	-3.064	 H	1	UNK0	0.000	
60	   H	-2.159	2.634	-2.897	 H	1	UNK0	0.000	
61	   H	0.197	-2.490	2.134	 H	1	UNK0	0.000	
62	   H	1.945	-3.475	2.210	 H	1	UNK0	0.000	
63	   H	3.038	-3.499	0.804	 H	1	UNK0	0.000	
64	   H	3.013	-2.091	1.884	 H	1	UNK0	0.000	
@<TRIPOS>BOND
1 1 2 1
2 2 3 2
3 2 8 1
4 3 4 1
5 4 5 1
6 4 10 1
7 5 6 2
8 5 7 1
9 7 8 1
10 8 9 2
11 10 11 1
12 10 15 1
13 11 12 1
14 11 34 1
15 11 35 1
16 12 13 1
17 13 14 1
18 13 16 1
19 13 20 1
20 14 15 1
21 16 17 1
22 17 18 1
23 18 19 1
24 18 21 1
25 19 20 1
26 21 22 2
27 21 23 1
28 23 24 1
29 23 28 1
30 24 25 1
31 25 26 2
32 25 27 1
33 28 29 1
34 29 30 1
35 29 33 2
36 30 31 2
37 31 32 1
38 32 33 1
39 3 36 1
40 7 37 1
41 10 38 1
42 12 39 1
43 12 40 1
44 15 41 1
45 15 42 1
46 16 43 1
47 16 44 1
48 17 45 1
49 17 46 1
50 19 47 1
51 19 48 1
52 20 49 1
53 20 50 1
54 23 51 1
55 24 52 1
56 27 53 1
57 27 54 1
58 27 55 1
59 28 56 1
60 28 57 1
61 31 58 1
62 32 59 1
63 33 60 1
64 34 61 1
65 35 62 1
66 35 63 1
67 35 64 1
@<TRIPOS>SUBSTRUCTURE
1	UNK0	1	GROUP	1 ****	UNK
# created with PyMOL 2.3.2
@<TRIPOS>MOLECULE
786
41 44 1                 
SMALL
USER_CHARGES
@<TRIPOS>ATOM
1	  Br	-2.739	5.637	-0.360	Br	1	UNK0	0.000	
2	   C	-1.563	4.475	0.607	C.2	1	UNK0	0.000	
3	   C	-1.845	3.140	0.795	C.2	1	UNK0	0.000	
4	   N	-1.010	2.310	1.482	N.pl3	1	UNK0	0.000	
5	   C	0.127	2.817	1.992	C.2	1	UNK0	0.000	
6	   N	0.788	1.830	2.621	N.2	1	UNK0	0.000	
7	   C	0.086	0.686	2.522	C.2	1	UNK0	0.000	
8	   C	-1.046	1.003	1.801	C.2	1	UNK0	0.000	
9	   C	0.442	-0.647	3.071	C.3	1	UNK0	0.000	
10	   N	1.306	-1.372	2.166	N.pl3	1	UNK0	0.000	
11	   C	0.764	-1.967	1.016	C.2	1	UNK0	0.000	
12	   O	-0.458	-1.869	0.779	O.2	1	UNK0	0.000	
13	   C	1.627	-2.710	0.079	C.3	1	UNK0	0.000	
14	   C	0.817	-3.247	-1.074	C.3	1	UNK0	0.000	
15	   N	0.228	-2.104	-1.745	N.pl3	1	UNK0	0.000	
16	   C	0.917	-0.956	-1.850	C.2	1	UNK0	0.000	
17	   N	0.128	-0.086	-2.512	N.2	1	UNK0	0.000	
18	   N	-1.000	-0.661	-2.808	N.2	1	UNK0	0.000	
19	   C	-0.951	-1.914	-2.338	C.2	1	UNK0	0.000	
20	   C	-2.083	-2.879	-2.495	C.3	1	UNK0	0.000	
21	   C	2.274	-0.742	-1.324	C.3	1	UNK0	0.000	
22	   C	2.738	-1.813	-0.402	C.3	1	UNK0	0.000	
23	   C	0.441	4.162	1.819	C.2	1	UNK0	0.000	
24	   C	-0.399	4.999	1.128	C.2	1	UNK0	0.000	
25	   H	-2.750	2.746	0.388	 H	1	UNK0	0.000	
26	   H	-1.869	0.369	1.502	 H	1	UNK0	0.000	
27	   H	0.905	-0.513	4.079	 H	1	UNK0	0.000	
28	   H	-0.497	-1.241	3.243	 H	1	UNK0	0.000	
29	   H	2.323	-1.460	2.353	 H	1	UNK0	0.000	
30	   H	2.113	-3.538	0.646	 H	1	UNK0	0.000	
31	   H	1.505	-3.777	-1.775	 H	1	UNK0	0.000	
32	   H	0.056	-3.947	-0.676	 H	1	UNK0	0.000	
33	   H	-1.987	-3.690	-1.767	 H	1	UNK0	0.000	
34	   H	-3.062	-2.362	-2.303	 H	1	UNK0	0.000	
35	   H	-2.097	-3.236	-3.544	 H	1	UNK0	0.000	
36	   H	3.006	-0.689	-2.177	 H	1	UNK0	0.000	
37	   H	2.304	0.262	-0.851	 H	1	UNK0	0.000	
38	   H	3.201	-1.342	0.507	 H	1	UNK0	0.000	
39	   H	3.527	-2.451	-0.857	 H	1	UNK0	0.000	
40	   H	1.370	4.507	2.253	 H	1	UNK0	0.000	
41	   H	-0.112	6.040	1.019	 H	1	UNK0	0.000	
@<TRIPOS>BOND
1 1 2 1
2 2 3 2
3 2 24 1
4 3 4 1
5 4 5 1
6 4 8 1
7 5 6 2
8 5 23 1
9 6 7 1
10 7 8 2
11 7 9 1
12 9 10 1
13 10 11 1
14 11 12 2
15 11 13 1
16 13 14 1
17 13 22 1
18 14 15 1
19 15 16 1
20 15 19 1
21 16 17 2
22 16 21 1
23 17 18 1
24 18 19 2
25 19 20 1
26 21 22 1
27 23 24 2
28 3 25 1
29 8 26 1
30 9 27 1
31 9 28 1
32 10 29 1
33 13 30 1
34 14 31 1
35 14 32 1
36 20 33 1
37 20 34 1
38 20 35 1
39 21 36 1
40 21 37 1
41 22 38 1
42 22 39 1
43 23 40 1
44 24 41 1
@<TRIPOS>SUBSTRUCTURE
1	UNK0	1	GROUP	1 ****	UNK
# created with PyMOL 2.3.2
@<TRIPOS>MOLECULE
789
37 40 1                 
SMALL
USER_CHARGES
@<TRIPOS>ATOM
1	  Br	-6.268	0.748	-4.747	Br	1	UNK0	0.000	
2	   C	-5.297	-0.418	-3.568	C.2	1	UNK0	0.000	
3	   C	-4.095	-0.041	-3.011	C.2	1	UNK0	0.000	
4	   N	-3.397	-0.854	-2.176	N.pl3	1	UNK0	0.000	
5	   N	-2.250	-0.734	-1.526	N.2	1	UNK0	0.000	
6	   C	-1.968	-1.830	-0.808	C.2	1	UNK0	0.000	
7	   C	-3.047	-2.680	-1.052	C.2	1	UNK0	0.000	
8	   C	-3.933	-2.059	-1.909	C.2	1	UNK0	0.000	
9	   N	-5.119	-2.441	-2.452	N.2	1	UNK0	0.000	
10	   C	-5.826	-1.656	-3.279	C.2	1	UNK0	0.000	
11	   C	-0.814	-2.125	0.053	C.2	1	UNK0	0.000	
12	   O	-0.754	-3.239	0.640	O.2	1	UNK0	0.000	
13	   N	0.247	-1.206	0.254	N.pl3	1	UNK0	0.000	
14	   C	1.338	-1.551	1.090	C.3	1	UNK0	0.000	
15	   C	2.008	-0.386	1.717	C.3	1	UNK0	0.000	
16	   N	1.481	0.903	1.371	N.3	1	UNK0	0.000	
17	   C	1.274	1.026	-0.060	C.3	1	UNK0	0.000	
18	   C	0.159	0.062	-0.418	C.3	1	UNK0	0.000	
19	   C	2.441	1.817	1.911	C.3	1	UNK0	0.000	
20	   C	3.783	1.163	1.696	C.3	1	UNK0	0.000	
21	   C	3.466	-0.264	1.308	C.3	1	UNK0	0.000	
22	   H	-3.702	0.934	-3.253	 H	1	UNK0	0.000	
23	   H	-3.121	-3.662	-0.609	 H	1	UNK0	0.000	
24	   H	-6.780	-1.972	-3.711	 H	1	UNK0	0.000	
25	   H	2.083	-2.146	0.507	 H	1	UNK0	0.000	
26	   H	0.989	-2.276	1.889	 H	1	UNK0	0.000	
27	   H	1.963	-0.464	2.828	 H	1	UNK0	0.000	
28	   H	0.912	2.054	-0.250	 H	1	UNK0	0.000	
29	   H	2.185	0.877	-0.652	 H	1	UNK0	0.000	
30	   H	0.142	-0.121	-1.512	 H	1	UNK0	0.000	
31	   H	-0.833	0.562	-0.183	 H	1	UNK0	0.000	
32	   H	2.229	1.896	3.015	 H	1	UNK0	0.000	
33	   H	2.392	2.826	1.458	 H	1	UNK0	0.000	
34	   H	4.335	1.709	0.904	 H	1	UNK0	0.000	
35	   H	4.407	1.207	2.614	 H	1	UNK0	0.000	
36	   H	4.087	-1.002	1.834	 H	1	UNK0	0.000	
37	   H	3.532	-0.409	0.213	 H	1	UNK0	0.000	
@<TRIPOS>BOND
1 1 2 1
2 2 3 2
3 2 10 1
4 3 4 1
5 4 5 1
6 4 8 1
7 5 6 2
8 6 7 1
9 6 11 1
10 7 8 2
11 8 9 1
12 9 10 2
13 11 12 2
14 11 13 1
15 13 14 1
16 13 18 1
17 14 15 1
18 15 16 1
19 15 21 1
20 16 17 1
21 16 19 1
22 17 18 1
23 19 20 1
24 20 21 1
25 3 22 1
26 7 23 1
27 10 24 1
28 14 25 1
29 14 26 1
30 15 27 1
31 17 28 1
32 17 29 1
33 18 30 1
34 18 31 1
35 19 32 1
36 19 33 1
37 20 34 1
38 20 35 1
39 21 36 1
40 21 37 1
@<TRIPOS>SUBSTRUCTURE
1	UNK0	1	GROUP	1 ****	UNK
# created with PyMOL 2.3.2
@<TRIPOS>MOLECULE
790
39 42 1                 
SMALL
USER_CHARGES
@<TRIPOS>ATOM
1	  Br	-4.455	-0.196	-2.310	Br	1	UNK0	0.000	
2	   C	-3.037	-0.527	-1.083	C.2	1	UNK0	0.000	
3	   C	-2.583	-1.790	-0.867	C.2	1	UNK0	0.000	
4	   N	-1.595	-2.027	-0.013	N.pl3	1	UNK0	0.000	
5	   N	-0.993	-3.159	0.356	N.2	1	UNK0	0.000	
6	   C	-0.045	-2.853	1.257	C.2	1	UNK0	0.000	
7	   C	-0.041	-1.494	1.469	C.2	1	UNK0	0.000	
8	   C	-1.042	-0.993	0.644	C.2	1	UNK0	0.000	
9	   N	-1.479	0.260	0.442	N.2	1	UNK0	0.000	
10	   C	-2.471	0.522	-0.412	C.2	1	UNK0	0.000	
11	   C	0.796	-0.711	2.344	C.2	1	UNK0	0.000	
12	   O	0.397	-0.516	3.528	O.2	1	UNK0	0.000	
13	   N	2.030	-0.176	1.893	N.pl3	1	UNK0	0.000	
14	   C	2.418	-0.451	0.501	C.3	1	UNK0	0.000	
15	   C	3.336	0.716	0.137	C.3	1	UNK0	0.000	
16	   N	2.762	1.873	0.757	N.pl3	1	UNK0	0.000	
17	   C	3.167	2.008	2.187	C.3	1	UNK0	0.000	
18	   C	2.889	0.616	2.761	C.3	1	UNK0	0.000	
19	   C	1.887	2.800	0.215	C.2	1	UNK0	0.000	
20	   O	1.539	3.797	0.974	O.2	1	UNK0	0.000	
21	   C	1.274	2.841	-1.102	C.2	1	UNK0	0.000	
22	   O	0.478	3.827	-1.539	O.3	1	UNK0	0.000	
23	   C	0.065	3.618	-2.742	C.2	1	UNK0	0.000	
24	   C	0.580	2.432	-3.202	C.2	1	UNK0	0.000	
25	   C	1.343	1.954	-2.149	C.2	1	UNK0	0.000	
26	   H	-3.035	-2.630	-1.403	 H	1	UNK0	0.000	
27	   H	0.600	-3.587	1.726	 H	1	UNK0	0.000	
28	   H	-2.845	1.519	-0.597	 H	1	UNK0	0.000	
29	   H	1.537	-0.375	-0.140	 H	1	UNK0	0.000	
30	   H	2.968	-1.393	0.453	 H	1	UNK0	0.000	
31	   H	3.621	0.777	-0.896	 H	1	UNK0	0.000	
32	   H	4.333	0.476	0.668	 H	1	UNK0	0.000	
33	   H	2.591	2.793	2.684	 H	1	UNK0	0.000	
34	   H	4.255	2.218	2.144	 H	1	UNK0	0.000	
35	   H	3.826	0.069	2.954	 H	1	UNK0	0.000	
36	   H	2.343	0.768	3.709	 H	1	UNK0	0.000	
37	   H	-0.597	4.265	-3.339	 H	1	UNK0	0.000	
38	   H	0.433	1.955	-4.174	 H	1	UNK0	0.000	
39	   H	1.874	1.014	-2.203	 H	1	UNK0	0.000	
@<TRIPOS>BOND
1 1 2 1
2 2 3 2
3 2 10 1
4 3 4 1
5 4 5 1
6 4 8 1
7 5 6 2
8 6 7 1
9 7 8 2
10 7 11 1
11 8 9 1
12 9 10 2
13 11 12 2
14 11 13 1
15 13 14 1
16 13 18 1
17 14 15 1
18 15 16 1
19 16 17 1
20 16 19 1
21 17 18 1
22 19 20 2
23 19 21 1
24 21 22 1
25 21 25 2
26 22 23 1
27 23 24 2
28 24 25 1
29 3 26 1
30 6 27 1
31 10 28 1
32 14 29 1
33 14 30 1
34 15 31 1
35 15 32 1
36 17 33 1
37 17 34 1
38 18 35 1
39 18 36 1
40 23 37 1
41 24 38 1
42 25 39 1
@<TRIPOS>SUBSTRUCTURE
1	UNK0	1	GROUP	1 ****	UNK
# created with PyMOL 2.3.2
@<TRIPOS>MOLECULE
797
40 43 1                 
SMALL
USER_CHARGES
@<TRIPOS>ATOM
1	  Br	5.710	-4.639	3.155	Br	1	UNK0	0.000	
2	   C	4.426	-3.813	1.994	C.2	1	UNK0	0.000	
3	   C	4.747	-2.716	1.225	C.2	1	UNK0	0.000	
4	   N	3.871	-2.107	0.397	N.pl3	1	UNK0	0.000	
5	   C	2.605	-2.543	0.270	C.2	1	UNK0	0.000	
6	   N	1.720	-1.949	-0.549	N.2	1	UNK0	0.000	
7	   C	2.030	-0.871	-1.308	C.2	1	UNK0	0.000	
8	   C	3.323	-0.406	-1.193	C.2	1	UNK0	0.000	
9	   C	4.226	-1.034	-0.340	C.2	1	UNK0	0.000	
10	   O	5.392	-0.624	-0.229	O.2	1	UNK0	0.000	
11	   C	1.032	-0.237	-2.208	C.3	1	UNK0	0.000	
12	   O	0.139	0.619	-1.545	O.3	1	UNK0	0.000	
13	   C	0.490	1.743	-0.827	C.2	1	UNK0	0.000	
14	   O	1.692	2.064	-0.733	O.co2	1	UNK0	0.000	
15	   C	-0.581	2.540	-0.186	C.3	1	UNK0	0.000	
16	   N	-1.872	1.968	-0.440	N.pl3	1	UNK0	0.000	
17	   C	-2.528	1.006	0.356	C.2	1	UNK0	0.000	
18	   O	-2.145	0.456	1.421	O.2	1	UNK0	0.000	
19	   C	-3.831	0.698	-0.272	C.2	1	UNK0	0.000	
20	   C	-3.935	1.460	-1.404	C.2	1	UNK0	0.000	
21	   C	-5.036	1.400	-2.209	C.2	1	UNK0	0.000	
22	   C	-6.057	0.549	-1.862	C.2	1	UNK0	0.000	
23	   C	-5.953	-0.220	-0.719	C.2	1	UNK0	0.000	
24	   C	-4.846	-0.167	0.100	C.2	1	UNK0	0.000	
25	   C	-2.717	2.264	-1.528	C.2	1	UNK0	0.000	
26	   O	-2.493	3.082	-2.472	O.2	1	UNK0	0.000	
27	   C	2.250	-3.655	1.038	C.2	1	UNK0	0.000	
28	   C	3.135	-4.284	1.886	C.2	1	UNK0	0.000	
29	   H	5.769	-2.341	1.309	 H	1	UNK0	0.000	
30	   H	3.645	0.461	-1.780	 H	1	UNK0	0.000	
31	   H	1.527	0.341	-3.013	 H	1	UNK0	0.000	
32	   H	0.412	-1.017	-2.733	 H	1	UNK0	0.000	
33	   H	-0.553	3.542	-0.701	 H	1	UNK0	0.000	
34	   H	-0.388	2.697	0.898	 H	1	UNK0	0.000	
35	   H	-5.106	2.004	-3.096	 H	1	UNK0	0.000	
36	   H	-6.917	0.518	-2.512	 H	1	UNK0	0.000	
37	   H	-6.788	-0.871	-0.498	 H	1	UNK0	0.000	
38	   H	-4.758	-0.764	0.992	 H	1	UNK0	0.000	
39	   H	1.235	-3.997	0.930	 H	1	UNK0	0.000	
40	   H	2.855	-5.144	2.479	 H	1	UNK0	0.000	
@<TRIPOS>BOND
1 1 2 1
2 2 3 2
3 2 28 1
4 3 4 1
5 4 5 1
6 4 9 1
7 5 6 2
8 5 27 1
9 6 7 1
10 7 8 2
11 7 11 1
12 8 9 1
13 9 10 2
14 11 12 1
15 12 13 1
16 13 14 2
17 13 15 1
18 15 16 1
19 16 17 1
20 16 25 1
21 17 18 2
22 17 19 1
23 19 20 2
24 19 24 1
25 20 21 1
26 20 25 1
27 21 22 2
28 22 23 1
29 23 24 2
30 25 26 2
31 27 28 2
32 3 29 1
33 8 30 1
34 11 31 1
35 11 32 1
36 15 33 1
37 15 34 1
38 21 35 1
39 22 36 1
40 23 37 1
41 24 38 1
42 27 39 1
43 28 40 1
@<TRIPOS>SUBSTRUCTURE
1	UNK0	1	GROUP	1 ****	UNK
# created with PyMOL 2.3.2
@<TRIPOS>MOLECULE
800
45 48 1                 
SMALL
USER_CHARGES
@<TRIPOS>ATOM
1	  Br	-5.940	5.455	0.689	Br	1	UNK0	0.000	
2	   C	-4.449	4.404	0.122	C.2	1	UNK0	0.000	
3	   C	-4.426	3.917	-1.167	C.2	1	UNK0	0.000	
4	   N	-3.379	3.177	-1.569	N.pl3	1	UNK0	0.000	
5	   C	-2.348	2.899	-0.745	C.2	1	UNK0	0.000	
6	   N	-1.302	2.151	-1.171	N.2	1	UNK0	0.000	
7	   C	-1.238	1.655	-2.419	C.2	1	UNK0	0.000	
8	   C	-2.280	1.929	-3.274	C.2	1	UNK0	0.000	
9	   C	-3.360	2.701	-2.834	C.2	1	UNK0	0.000	
10	   O	-4.306	2.954	-3.598	O.2	1	UNK0	0.000	
11	   C	-0.086	0.837	-2.874	C.3	1	UNK0	0.000	
12	   O	0.856	0.756	-1.821	O.3	1	UNK0	0.000	
13	   C	1.465	1.861	-1.276	C.2	1	UNK0	0.000	
14	   O	1.168	2.993	-1.738	O.co2	1	UNK0	0.000	
15	   C	2.458	1.816	-0.171	C.3	1	UNK0	0.000	
16	   N	2.721	0.481	0.278	N.pl3	1	UNK0	0.000	
17	   C	3.725	-0.401	-0.222	C.2	1	UNK0	0.000	
18	   O	4.539	-0.122	-1.149	O.2	1	UNK0	0.000	
19	   N	3.639	-1.623	0.502	N.pl3	1	UNK0	0.000	
20	   C	2.477	-1.579	1.353	C.3	1	UNK0	0.000	
21	   C	1.372	-2.488	0.884	C.3	1	UNK0	0.000	
22	   C	0.527	-2.660	2.107	C.3	1	UNK0	0.000	
23	   C	1.328	-2.203	3.291	C.3	1	UNK0	0.000	
24	   C	2.731	-2.049	2.745	C.3	1	UNK0	0.000	
25	   C	2.008	-0.195	1.316	C.2	1	UNK0	0.000	
26	   O	1.143	0.355	2.037	O.2	1	UNK0	0.000	
27	   C	-2.365	3.384	0.548	C.2	1	UNK0	0.000	
28	   C	-3.415	4.146	1.009	C.2	1	UNK0	0.000	
29	   H	-5.231	4.114	-1.865	 H	1	UNK0	0.000	
30	   H	-2.254	1.542	-4.285	 H	1	UNK0	0.000	
31	   H	-0.436	-0.184	-3.116	 H	1	UNK0	0.000	
32	   H	0.370	1.303	-3.777	 H	1	UNK0	0.000	
33	   H	3.387	2.349	-0.474	 H	1	UNK0	0.000	
34	   H	2.017	2.428	0.660	 H	1	UNK0	0.000	
35	   H	4.319	-2.397	0.408	 H	1	UNK0	0.000	
36	   H	0.789	-1.917	0.106	 H	1	UNK0	0.000	
37	   H	1.721	-3.430	0.457	 H	1	UNK0	0.000	
38	   H	0.319	-3.758	2.242	 H	1	UNK0	0.000	
39	   H	-0.437	-2.111	2.000	 H	1	UNK0	0.000	
40	   H	1.306	-2.947	4.119	 H	1	UNK0	0.000	
41	   H	0.958	-1.242	3.728	 H	1	UNK0	0.000	
42	   H	3.334	-1.353	3.360	 H	1	UNK0	0.000	
43	   H	3.205	-3.059	2.738	 H	1	UNK0	0.000	
44	   H	-1.528	3.145	1.184	 H	1	UNK0	0.000	
45	   H	-3.446	4.535	2.016	 H	1	UNK0	0.000	
@<TRIPOS>BOND
1 1 2 1
2 2 3 2
3 2 28 1
4 3 4 1
5 4 5 1
6 4 9 1
7 5 6 2
8 5 27 1
9 6 7 1
10 7 8 2
11 7 11 1
12 8 9 1
13 9 10 2
14 11 12 1
15 12 13 1
16 13 14 2
17 13 15 1
18 15 16 1
19 16 17 1
20 16 25 1
21 17 18 2
22 17 19 1
23 19 20 1
24 20 21 1
25 20 24 1
26 20 25 1
27 21 22 1
28 22 23 1
29 23 24 1
30 25 26 2
31 27 28 2
32 3 29 1
33 8 30 1
34 11 31 1
35 11 32 1
36 15 33 1
37 15 34 1
38 19 35 1
39 21 36 1
40 21 37 1
41 22 38 1
42 22 39 1
43 23 40 1
44 23 41 1
45 24 42 1
46 24 43 1
47 27 44 1
48 28 45 1
@<TRIPOS>SUBSTRUCTURE
1	UNK0	1	GROUP	1 ****	UNK
# created with PyMOL 2.3.2
@<TRIPOS>MOLECULE
803
47 50 1                 
SMALL
USER_CHARGES
@<TRIPOS>ATOM
1	  Br	0.688	-3.126	0.898	Br	1	UNK0	0.000	
2	   C	-0.134	-1.565	0.193	C.2	1	UNK0	0.000	
3	   C	-0.550	-1.457	-1.088	C.2	1	UNK0	0.000	
4	   N	-1.206	-0.396	-1.567	N.pl3	1	UNK0	0.000	
5	   C	-1.467	0.614	-0.738	C.cat	1	UNK0	0.000	
6	   N	-2.128	1.710	-1.206	N.2	1	UNK0	0.000	
7	   C	-2.532	1.830	-2.463	C.2	1	UNK0	0.000	
8	   C	-2.275	0.800	-3.339	C.2	1	UNK0	0.000	
9	   C	-2.664	0.869	-4.662	C.2	1	UNK0	0.000	
10	   C	-3.335	1.976	-5.183	C.2	1	UNK0	0.000	
11	   C	-3.587	3.001	-4.297	C.2	1	UNK0	0.000	
12	   C	-3.199	2.936	-2.970	C.2	1	UNK0	0.000	
13	   C	-1.601	-0.309	-2.842	C.2	1	UNK0	0.000	
14	   O	-1.360	-1.252	-3.628	O.2	1	UNK0	0.000	
15	   N	-1.060	0.531	0.550	N.pl3	1	UNK0	0.000	
16	   C	-0.405	-0.484	1.097	C.2	1	UNK0	0.000	
17	   N	0.124	-0.592	2.344	N.pl3	1	UNK0	0.000	
18	   C	0.645	-0.698	3.573	C.2	1	UNK0	0.000	
19	   C	1.976	-1.108	3.725	C.2	1	UNK0	0.000	
20	   C	2.461	-1.452	4.944	C.2	1	UNK0	0.000	
21	   C	1.655	-1.399	6.055	C.2	1	UNK0	0.000	
22	   C	0.340	-0.998	5.974	C.2	1	UNK0	0.000	
23	   C	-0.129	-0.657	4.727	C.2	1	UNK0	0.000	
24	   C	2.937	-1.042	2.617	C.2	1	UNK0	0.000	
25	   O	4.104	-1.457	2.832	O.co2	1	UNK0	0.000	
26	   O	2.675	-0.561	1.367	O.3	1	UNK0	0.000	
27	   C	3.649	-0.517	0.342	C.3	1	UNK0	0.000	
28	   C	3.045	0.068	-0.938	C.3	1	UNK0	0.000	
29	   C	4.114	0.103	-2.004	C.3	1	UNK0	0.000	
30	   H	-0.347	-2.270	-1.784	 H	1	UNK0	0.000	
31	   H	-2.436	0.035	-5.290	 H	1	UNK0	0.000	
32	   H	-3.632	2.010	-6.227	 H	1	UNK0	0.000	
33	   H	-4.108	3.881	-4.669	 H	1	UNK0	0.000	
34	   H	-3.388	3.732	-2.267	 H	1	UNK0	0.000	
35	   H	-1.331	1.404	1.109	 H	1	UNK0	0.000	
36	   H	-0.434	0.593	2.735	 H	1	UNK0	0.000	
37	   H	3.501	-1.782	5.102	 H	1	UNK0	0.000	
38	   H	2.071	-1.687	7.010	 H	1	UNK0	0.000	
39	   H	-0.240	-0.977	6.882	 H	1	UNK0	0.000	
40	   H	-1.166	-0.349	4.688	 H	1	UNK0	0.000	
41	   H	4.523	0.115	0.576	 H	1	UNK0	0.000	
42	   H	4.024	-1.532	0.086	 H	1	UNK0	0.000	
43	   H	2.207	-0.557	-1.303	 H	1	UNK0	0.000	
44	   H	2.709	1.117	-0.762	 H	1	UNK0	0.000	
45	   H	4.559	1.112	-2.062	 H	1	UNK0	0.000	
46	   H	4.934	-0.628	-1.773	 H	1	UNK0	0.000	
47	   H	3.681	-0.121	-3.001	 H	1	UNK0	0.000	
@<TRIPOS>BOND
1 1 2 1
2 2 3 2
3 2 16 1
4 3 4 1
5 4 5 1
6 4 13 1
7 5 6 2
8 5 15 1
9 6 7 1
10 7 8 2
11 7 12 1
12 8 9 1
13 8 13 1
14 9 10 2
15 10 11 1
16 11 12 2
17 13 14 2
18 15 16 2
19 16 17 1
20 17 18 1
21 18 19 2
22 18 23 1
23 19 20 1
24 19 24 1
25 20 21 2
26 21 22 1
27 22 23 2
28 24 25 2
29 24 26 1
30 26 27 1
31 27 28 1
32 28 29 1
33 3 30 1
34 9 31 1
35 10 32 1
36 11 33 1
37 12 34 1
38 15 35 1
39 17 36 1
40 20 37 1
41 21 38 1
42 22 39 1
43 23 40 1
44 27 41 1
45 27 42 1
46 28 43 1
47 28 44 1
48 29 45 1
49 29 46 1
50 29 47 1
@<TRIPOS>SUBSTRUCTURE
1	UNK0	1	GROUP	1 ****	UNK
# created with PyMOL 2.3.2
@<TRIPOS>MOLECULE
814
56 59 1                 
SMALL
USER_CHARGES
@<TRIPOS>ATOM
1	  Br	6.869	-0.636	5.033	Br	1	UNK0	0.000	
2	   C	5.342	-0.689	3.863	C.2	1	UNK0	0.000	
3	   C	4.513	0.415	3.762	C.2	1	UNK0	0.000	
4	   C	3.407	0.383	2.918	C.2	1	UNK0	0.000	
5	   C	3.110	-0.732	2.169	C.2	1	UNK0	0.000	
6	   C	3.955	-1.812	2.294	C.2	1	UNK0	0.000	
7	   C	5.053	-1.808	3.119	C.2	1	UNK0	0.000	
8	   C	1.964	-0.780	1.287	C.2	1	UNK0	0.000	
9	   O	1.738	-1.827	0.624	O.2	1	UNK0	0.000	
10	   C	1.022	0.358	1.117	C.3	1	UNK0	0.000	
11	   N	-0.024	0.050	0.188	N.pl3	1	UNK0	0.000	
12	   N	-0.009	0.251	-1.110	N.2	1	UNK0	0.000	
13	   C	-1.160	-0.158	-1.664	C.2	1	UNK0	0.000	
14	   N	-1.924	-0.634	-0.670	N.pl3	1	UNK0	0.000	
15	   C	-1.206	-0.501	0.484	C.2	1	UNK0	0.000	
16	   C	-1.648	-0.890	1.822	C.3	1	UNK0	0.000	
17	   C	-2.001	-2.355	1.925	C.3	1	UNK0	0.000	
18	   C	-3.299	-2.675	1.217	C.3	1	UNK0	0.000	
19	   C	-3.188	-2.613	-0.275	C.3	1	UNK0	0.000	
20	   C	-3.258	-1.186	-0.800	C.3	1	UNK0	0.000	
21	   C	-1.546	-0.110	-3.081	C.3	1	UNK0	0.000	
22	   N	-0.577	0.560	-3.893	N.pl3	1	UNK0	0.000	
23	   C	-0.233	1.931	-3.718	C.2	1	UNK0	0.000	
24	   C	0.748	2.544	-4.464	C.2	1	UNK0	0.000	
25	   C	1.067	3.866	-4.290	C.2	1	UNK0	0.000	
26	   C	0.403	4.600	-3.358	C.2	1	UNK0	0.000	
27	   C	-0.579	3.990	-2.609	C.2	1	UNK0	0.000	
28	   C	-0.909	2.661	-2.776	C.2	1	UNK0	0.000	
29	   O	0.702	5.927	-3.161	O.3	1	UNK0	0.000	
30	   C	1.692	6.605	-3.894	C.3	1	UNK0	0.000	
31	   H	4.752	1.281	4.349	 H	1	UNK0	0.000	
32	   H	2.778	1.253	2.856	 H	1	UNK0	0.000	
33	   H	3.734	-2.712	1.704	 H	1	UNK0	0.000	
34	   H	5.674	-2.680	3.174	 H	1	UNK0	0.000	
35	   H	0.647	0.727	2.091	 H	1	UNK0	0.000	
36	   H	1.638	1.189	0.664	 H	1	UNK0	0.000	
37	   H	-0.868	-0.692	2.578	 H	1	UNK0	0.000	
38	   H	-2.559	-0.324	2.171	 H	1	UNK0	0.000	
39	   H	-1.206	-3.025	1.596	 H	1	UNK0	0.000	
40	   H	-2.175	-2.562	3.010	 H	1	UNK0	0.000	
41	   H	-4.135	-2.088	1.602	 H	1	UNK0	0.000	
42	   H	-3.529	-3.748	1.477	 H	1	UNK0	0.000	
43	   H	-2.261	-3.056	-0.636	 H	1	UNK0	0.000	
44	   H	-4.050	-3.196	-0.700	 H	1	UNK0	0.000	
45	   H	-4.021	-0.592	-0.274	 H	1	UNK0	0.000	
46	   H	-3.529	-1.221	-1.866	 H	1	UNK0	0.000	
47	   H	-2.528	0.426	-3.152	 H	1	UNK0	0.000	
48	   H	-1.719	-1.121	-3.485	 H	1	UNK0	0.000	
49	   H	-0.091	0.050	-4.645	 H	1	UNK0	0.000	
50	   H	1.252	1.906	-5.202	 H	1	UNK0	0.000	
51	   H	1.839	4.301	-4.896	 H	1	UNK0	0.000	
52	   H	-1.131	4.553	-1.852	 H	1	UNK0	0.000	
53	   H	-1.698	2.193	-2.170	 H	1	UNK0	0.000	
54	   H	1.946	7.560	-3.417	 H	1	UNK0	0.000	
55	   H	2.597	5.966	-3.936	 H	1	UNK0	0.000	
56	   H	1.370	6.794	-4.943	 H	1	UNK0	0.000	
@<TRIPOS>BOND
1 1 2 1
2 2 3 2
3 2 7 1
4 3 4 1
5 4 5 2
6 5 6 1
7 5 8 1
8 6 7 2
9 8 9 2
10 8 10 1
11 10 11 1
12 11 12 1
13 11 15 2
14 12 13 2
15 13 14 1
16 13 21 1
17 14 15 1
18 14 20 1
19 15 16 1
20 16 17 1
21 17 18 1
22 18 19 1
23 19 20 1
24 21 22 1
25 22 23 1
26 23 24 2
27 23 28 1
28 24 25 1
29 25 26 2
30 26 27 1
31 26 29 1
32 27 28 2
33 29 30 1
34 3 31 1
35 4 32 1
36 6 33 1
37 7 34 1
38 10 35 1
39 10 36 1
40 16 37 1
41 16 38 1
42 17 39 1
43 17 40 1
44 18 41 1
45 18 42 1
46 19 43 1
47 19 44 1
48 20 45 1
49 20 46 1
50 21 47 1
51 21 48 1
52 22 49 1
53 24 50 1
54 25 51 1
55 27 52 1
56 28 53 1
57 30 54 1
58 30 55 1
59 30 56 1
@<TRIPOS>SUBSTRUCTURE
1	UNK0	1	GROUP	1 ****	UNK
# created with PyMOL 2.3.2
@<TRIPOS>MOLECULE
827
53 56 1                 
SMALL
USER_CHARGES
@<TRIPOS>ATOM
1	  Br	5.500	0.502	1.202	Br	1	UNK0	0.000	
2	   C	3.770	1.123	0.747	C.2	1	UNK0	0.000	
3	   C	3.300	2.296	1.307	C.2	1	UNK0	0.000	
4	   C	2.046	2.769	0.983	C.2	1	UNK0	0.000	
5	   C	1.244	2.084	0.100	C.2	1	UNK0	0.000	
6	   C	1.710	0.928	-0.450	C.2	1	UNK0	0.000	
7	   C	2.981	0.429	-0.135	C.2	1	UNK0	0.000	
8	   C	-0.121	2.551	-0.275	C.3	1	UNK0	0.000	
9	   N	-1.008	1.415	-0.515	N.4	1	UNK0	0.000	
10	   C	-1.106	1.181	-1.865	C.2	1	UNK0	0.000	
11	   C	-2.002	0.501	-2.536	C.2	1	UNK0	0.000	
12	   C	-2.201	0.180	-3.979	C.3	1	UNK0	0.000	
13	   C	-1.273	0.905	-4.902	C.3	1	UNK0	0.000	
14	   C	0.174	0.635	-4.563	C.3	1	UNK0	0.000	
15	   C	0.716	1.748	-3.688	C.3	1	UNK0	0.000	
16	   N	-0.063	1.949	-2.509	N.pl3	1	UNK0	0.000	
17	   C	0.114	3.159	-1.695	C.3	1	UNK0	0.000	
18	   C	-1.023	0.445	0.452	C.2	1	UNK0	0.000	
19	   C	-1.500	-0.822	0.300	C.2	1	UNK0	0.000	
20	   C	-1.650	-1.717	1.373	C.2	1	UNK0	0.000	
21	   C	-1.314	-1.345	2.648	C.2	1	UNK0	0.000	
22	   C	-0.825	-0.057	2.811	C.2	1	UNK0	0.000	
23	   C	-0.681	0.818	1.756	C.2	1	UNK0	0.000	
24	   O	-1.465	-2.209	3.720	O.3	1	UNK0	0.000	
25	   C	-1.928	-3.533	3.636	C.3	1	UNK0	0.000	
26	   C	-0.876	-4.287	2.800	C.3	1	UNK0	0.000	
27	   O	-0.668	3.510	0.486	O.3	1	UNK0	0.000	
28	   H	3.883	2.879	2.001	 H	1	UNK0	0.000	
29	   H	1.728	3.705	1.452	 H	1	UNK0	0.000	
30	   H	1.093	0.384	-1.137	 H	1	UNK0	0.000	
31	   H	3.364	-0.485	-0.570	 H	1	UNK0	0.000	
32	   H	-1.999	1.942	-0.317	 H	1	UNK0	0.000	
33	   H	-2.826	0.097	-1.952	 H	1	UNK0	0.000	
34	   H	-3.238	0.428	-4.263	 H	1	UNK0	0.000	
35	   H	-1.985	-0.915	-4.107	 H	1	UNK0	0.000	
36	   H	-1.508	1.955	-5.028	 H	1	UNK0	0.000	
37	   H	-1.432	0.432	-5.917	 H	1	UNK0	0.000	
38	   H	0.289	-0.348	-4.123	 H	1	UNK0	0.000	
39	   H	0.784	0.670	-5.517	 H	1	UNK0	0.000	
40	   H	1.803	1.654	-3.547	 H	1	UNK0	0.000	
41	   H	0.580	2.683	-4.314	 H	1	UNK0	0.000	
42	   H	-0.644	3.895	-1.949	 H	1	UNK0	0.000	
43	   H	1.137	3.503	-1.798	 H	1	UNK0	0.000	
44	   H	-1.760	-1.224	-0.659	 H	1	UNK0	0.000	
45	   H	-2.042	-2.697	1.175	 H	1	UNK0	0.000	
46	   H	-0.526	0.315	3.801	 H	1	UNK0	0.000	
47	   H	-0.307	1.829	1.980	 H	1	UNK0	0.000	
48	   H	-2.917	-3.573	3.070	 H	1	UNK0	0.000	
49	   H	-2.107	-3.984	4.616	 H	1	UNK0	0.000	
50	   H	-0.365	-4.929	3.540	 H	1	UNK0	0.000	
51	   H	-0.132	-3.588	2.380	 H	1	UNK0	0.000	
52	   H	-1.324	-4.835	1.958	 H	1	UNK0	0.000	
53	   H	-0.118	4.194	0.895	 H	1	UNK0	0.000	
@<TRIPOS>BOND
1 1 2 1
2 2 3 2
3 2 7 1
4 3 4 1
5 4 5 2
6 5 6 1
7 5 8 1
8 6 7 2
9 8 9 1
10 8 17 1
11 8 27 1
12 9 10 1
13 9 18 1
14 10 11 2
15 10 16 1
16 11 12 1
17 12 13 1
18 13 14 1
19 14 15 1
20 15 16 1
21 16 17 1
22 18 19 2
23 18 23 1
24 19 20 1
25 20 21 2
26 21 22 1
27 21 24 1
28 22 23 2
29 24 25 1
30 25 26 1
31 3 28 1
32 4 29 1
33 6 30 1
34 7 31 1
35 9 32 1
36 11 33 1
37 12 34 1
38 12 35 1
39 13 36 1
40 13 37 1
41 14 38 1
42 14 39 1
43 15 40 1
44 15 41 1
45 17 42 1
46 17 43 1
47 19 44 1
48 20 45 1
49 22 46 1
50 23 47 1
51 25 48 1
52 25 49 1
53 26 50 1
54 26 51 1
55 26 52 1
56 27 53 1
@<TRIPOS>SUBSTRUCTURE
1	UNK0	1	GROUP	1 ****	UNK
# created with PyMOL 2.3.2
@<TRIPOS>MOLECULE
833
50 53 1                 
SMALL
USER_CHARGES
@<TRIPOS>ATOM
1	  Br	4.589	0.036	6.084	Br	1	UNK0	0.000	
2	   C	3.326	0.503	4.723	C.2	1	UNK0	0.000	
3	   C	2.758	1.756	4.731	C.2	1	UNK0	0.000	
4	   C	1.834	2.126	3.753	C.2	1	UNK0	0.000	
5	   C	1.520	1.170	2.783	C.2	1	UNK0	0.000	
6	   C	2.074	-0.071	2.767	C.2	1	UNK0	0.000	
7	   C	2.989	-0.419	3.746	C.2	1	UNK0	0.000	
8	   C	0.575	1.545	1.712	C.3	1	UNK0	0.000	
9	   N	1.187	1.363	0.403	N.pl3	1	UNK0	0.000	
10	   C	2.617	1.535	0.173	C.3	1	UNK0	0.000	
11	   C	2.975	1.604	-1.266	C.3	1	UNK0	0.000	
12	   C	2.172	2.607	-2.053	C.3	1	UNK0	0.000	
13	   C	1.049	1.823	-2.706	C.3	1	UNK0	0.000	
14	   C	0.103	1.224	-1.811	C.2	1	UNK0	0.000	
15	   C	0.159	1.025	-0.474	C.2	1	UNK0	0.000	
16	   N	-0.900	0.391	0.205	N.4	1	UNK0	0.000	
17	   C	-0.587	0.623	1.585	C.3	1	UNK0	0.000	
18	   C	-0.825	-0.991	-0.146	C.2	1	UNK0	0.000	
19	   C	-1.909	-1.831	0.046	C.2	1	UNK0	0.000	
20	   C	-1.709	-3.172	-0.255	C.2	1	UNK0	0.000	
21	   C	-0.517	-3.694	-0.722	C.2	1	UNK0	0.000	
22	   C	0.559	-2.799	-0.902	C.2	1	UNK0	0.000	
23	   C	0.351	-1.500	-0.608	C.2	1	UNK0	0.000	
24	   O	-3.089	-1.329	0.503	O.3	1	UNK0	0.000	
25	   C	-4.217	-2.145	0.682	C.3	1	UNK0	0.000	
26	   O	0.235	2.868	1.825	O.3	1	UNK0	0.000	
27	   H	3.009	2.502	5.488	 H	1	UNK0	0.000	
28	   H	1.437	3.122	3.793	 H	1	UNK0	0.000	
29	   H	1.816	-0.816	1.994	 H	1	UNK0	0.000	
30	   H	3.430	-1.426	3.729	 H	1	UNK0	0.000	
31	   H	2.905	2.500	0.647	 H	1	UNK0	0.000	
32	   H	3.191	0.659	0.584	 H	1	UNK0	0.000	
33	   H	4.045	1.944	-1.342	 H	1	UNK0	0.000	
34	   H	2.921	0.577	-1.684	 H	1	UNK0	0.000	
35	   H	2.792	3.020	-2.917	 H	1	UNK0	0.000	
36	   H	1.761	3.420	-1.422	 H	1	UNK0	0.000	
37	   H	1.554	1.031	-3.346	 H	1	UNK0	0.000	
38	   H	0.532	2.519	-3.423	 H	1	UNK0	0.000	
39	   H	-0.812	0.877	-2.265	 H	1	UNK0	0.000	
40	   H	-1.845	0.792	0.004	 H	1	UNK0	0.000	
41	   H	-0.452	-0.322	2.158	 H	1	UNK0	0.000	
42	   H	-1.460	1.100	2.061	 H	1	UNK0	0.000	
43	   H	-2.574	-3.811	-0.089	 H	1	UNK0	0.000	
44	   H	-0.375	-4.734	-0.953	 H	1	UNK0	0.000	
45	   H	1.486	-3.192	-1.253	 H	1	UNK0	0.000	
46	   H	1.241	-0.851	-0.754	 H	1	UNK0	0.000	
47	   H	-4.379	-2.752	-0.236	 H	1	UNK0	0.000	
48	   H	-4.030	-2.805	1.540	 H	1	UNK0	0.000	
49	   H	-5.112	-1.474	0.859	 H	1	UNK0	0.000	
50	   H	0.998	3.483	1.806	 H	1	UNK0	0.000	
@<TRIPOS>BOND
1 1 2 1
2 2 3 2
3 2 7 1
4 3 4 1
5 4 5 2
6 5 6 1
7 5 8 1
8 6 7 2
9 8 9 1
10 8 17 1
11 8 26 1
12 9 10 1
13 9 15 1
14 10 11 1
15 11 12 1
16 12 13 1
17 13 14 1
18 14 15 2
19 15 16 1
20 16 17 1
21 16 18 1
22 18 19 2
23 18 23 1
24 19 20 1
25 19 24 1
26 20 21 2
27 21 22 1
28 22 23 2
29 24 25 1
30 3 27 1
31 4 28 1
32 6 29 1
33 7 30 1
34 10 31 1
35 10 32 1
36 11 33 1
37 11 34 1
38 12 35 1
39 12 36 1
40 13 37 1
41 13 38 1
42 14 39 1
43 16 40 1
44 17 41 1
45 17 42 1
46 20 43 1
47 21 44 1
48 22 45 1
49 23 46 1
50 25 47 1
51 25 48 1
52 25 49 1
53 26 50 1
@<TRIPOS>SUBSTRUCTURE
1	UNK0	1	GROUP	1 ****	UNK
# created with PyMOL 2.3.2
@<TRIPOS>MOLECULE
834
50 53 1                 
SMALL
USER_CHARGES
@<TRIPOS>ATOM
1	  Br	-6.431	-0.907	-3.255	Br	1	UNK0	0.000	
2	   C	-4.706	-0.718	-2.450	C.2	1	UNK0	0.000	
3	   C	-4.061	-1.798	-1.886	C.2	1	UNK0	0.000	
4	   C	-2.810	-1.639	-1.303	C.2	1	UNK0	0.000	
5	   C	-2.178	-0.441	-1.263	C.2	1	UNK0	0.000	
6	   C	-2.834	0.668	-1.838	C.2	1	UNK0	0.000	
7	   C	-4.068	0.499	-2.411	C.2	1	UNK0	0.000	
8	   C	-0.873	-0.128	-0.685	C.3	1	UNK0	0.000	
9	   N	-0.137	-1.191	-0.080	N.pl3	1	UNK0	0.000	
10	   C	0.325	-2.400	-0.689	C.3	1	UNK0	0.000	
11	   C	0.106	-3.663	0.050	C.3	1	UNK0	0.000	
12	   C	-0.533	-3.567	1.388	C.3	1	UNK0	0.000	
13	   C	0.413	-2.987	2.440	C.3	1	UNK0	0.000	
14	   C	0.287	-1.499	2.352	C.2	1	UNK0	0.000	
15	   C	0.055	-0.746	1.290	C.2	1	UNK0	0.000	
16	   N	-0.063	0.671	1.328	N.4	1	UNK0	0.000	
17	   C	-1.175	0.862	0.445	C.3	1	UNK0	0.000	
18	   C	1.131	1.245	0.863	C.2	1	UNK0	0.000	
19	   C	1.271	2.642	0.772	C.2	1	UNK0	0.000	
20	   C	2.420	3.232	0.319	C.2	1	UNK0	0.000	
21	   C	3.501	2.470	-0.070	C.2	1	UNK0	0.000	
22	   C	3.389	1.106	0.010	C.2	1	UNK0	0.000	
23	   C	2.230	0.512	0.466	C.2	1	UNK0	0.000	
24	   O	4.679	3.086	-0.534	O.3	1	UNK0	0.000	
25	   C	5.773	2.301	-0.928	C.3	1	UNK0	0.000	
26	   O	-0.145	0.515	-1.705	O.3	1	UNK0	0.000	
27	   H	-4.501	-2.774	-1.879	 H	1	UNK0	0.000	
28	   H	-2.310	-2.483	-0.856	 H	1	UNK0	0.000	
29	   H	-2.379	1.659	-1.839	 H	1	UNK0	0.000	
30	   H	-4.586	1.338	-2.857	 H	1	UNK0	0.000	
31	   H	-0.101	-2.430	-1.735	 H	1	UNK0	0.000	
32	   H	1.443	-2.362	-0.906	 H	1	UNK0	0.000	
33	   H	1.018	-4.301	0.160	 H	1	UNK0	0.000	
34	   H	-0.585	-4.308	-0.575	 H	1	UNK0	0.000	
35	   H	-1.495	-3.008	1.377	 H	1	UNK0	0.000	
36	   H	-0.773	-4.596	1.734	 H	1	UNK0	0.000	
37	   H	-0.028	-3.295	3.432	 H	1	UNK0	0.000	
38	   H	1.425	-3.346	2.279	 H	1	UNK0	0.000	
39	   H	0.403	-0.972	3.292	 H	1	UNK0	0.000	
40	   H	-0.282	0.948	2.318	 H	1	UNK0	0.000	
41	   H	-1.361	1.872	0.111	 H	1	UNK0	0.000	
42	   H	-2.089	0.493	0.975	 H	1	UNK0	0.000	
43	   H	0.414	3.199	1.081	 H	1	UNK0	0.000	
44	   H	2.514	4.308	0.255	 H	1	UNK0	0.000	
45	   H	4.252	0.495	-0.298	 H	1	UNK0	0.000	
46	   H	2.194	-0.583	0.514	 H	1	UNK0	0.000	
47	   H	5.492	1.465	-1.600	 H	1	UNK0	0.000	
48	   H	6.280	1.918	-0.014	 H	1	UNK0	0.000	
49	   H	6.505	2.916	-1.479	 H	1	UNK0	0.000	
50	   H	-0.316	1.482	-1.570	 H	1	UNK0	0.000	
@<TRIPOS>BOND
1 1 2 1
2 2 3 2
3 2 7 1
4 3 4 1
5 4 5 2
6 5 6 1
7 5 8 1
8 6 7 2
9 8 9 1
10 8 17 1
11 8 26 1
12 9 10 1
13 9 15 1
14 10 11 1
15 11 12 1
16 12 13 1
17 13 14 1
18 14 15 2
19 15 16 1
20 16 17 1
21 16 18 1
22 18 19 2
23 18 23 1
24 19 20 1
25 20 21 2
26 21 22 1
27 21 24 1
28 22 23 2
29 24 25 1
30 3 27 1
31 4 28 1
32 6 29 1
33 7 30 1
34 10 31 1
35 10 32 1
36 11 33 1
37 11 34 1
38 12 35 1
39 12 36 1
40 13 37 1
41 13 38 1
42 14 39 1
43 16 40 1
44 17 41 1
45 17 42 1
46 19 43 1
47 20 44 1
48 22 45 1
49 23 46 1
50 25 47 1
51 25 48 1
52 25 49 1
53 26 50 1
@<TRIPOS>SUBSTRUCTURE
1	UNK0	1	GROUP	1 ****	UNK
# created with PyMOL 2.3.2
@<TRIPOS>MOLECULE
835
47 50 1                 
SMALL
USER_CHARGES
@<TRIPOS>ATOM
1	  Br	0.624	-1.337	-6.504	Br	1	UNK0	0.000	
2	   C	0.149	-0.936	-4.687	C.2	1	UNK0	0.000	
3	   C	0.376	-1.878	-3.709	C.2	1	UNK0	0.000	
4	   C	0.033	-1.574	-2.392	C.2	1	UNK0	0.000	
5	   C	-0.525	-0.367	-2.029	C.2	1	UNK0	0.000	
6	   C	-0.742	0.562	-3.029	C.2	1	UNK0	0.000	
7	   C	-0.407	0.276	-4.339	C.2	1	UNK0	0.000	
8	   C	-0.876	-0.111	-0.611	C.3	1	UNK0	0.000	
9	   N	0.175	-0.482	0.312	N.pl3	1	UNK0	0.000	
10	   C	1.619	-0.585	0.306	C.3	1	UNK0	0.000	
11	   C	2.225	-0.214	1.644	C.3	1	UNK0	0.000	
12	   C	1.646	-1.112	2.685	C.3	1	UNK0	0.000	
13	   C	0.169	-1.133	2.627	C.2	1	UNK0	0.000	
14	   C	-0.507	-0.837	1.513	C.2	1	UNK0	0.000	
15	   N	-1.904	-0.845	1.322	N.4	1	UNK0	0.000	
16	   C	-2.021	-0.964	-0.146	C.3	1	UNK0	0.000	
17	   C	-2.617	0.251	1.796	C.2	1	UNK0	0.000	
18	   C	-2.033	1.332	2.408	C.2	1	UNK0	0.000	
19	   C	-2.813	2.391	2.878	C.2	1	UNK0	0.000	
20	   C	-4.177	2.376	2.739	C.2	1	UNK0	0.000	
21	   C	-4.772	1.296	2.124	C.2	1	UNK0	0.000	
22	   C	-4.000	0.259	1.664	C.2	1	UNK0	0.000	
23	   O	-0.668	1.431	2.588	O.3	1	UNK0	0.000	
24	   C	-0.100	2.537	3.207	C.3	1	UNK0	0.000	
25	   O	-1.254	1.222	-0.488	O.3	1	UNK0	0.000	
26	   H	0.823	-2.862	-3.917	 H	1	UNK0	0.000	
27	   H	0.201	-2.305	-1.588	 H	1	UNK0	0.000	
28	   H	-1.189	1.523	-2.738	 H	1	UNK0	0.000	
29	   H	-0.580	1.011	-5.116	 H	1	UNK0	0.000	
30	   H	1.876	-1.673	0.153	 H	1	UNK0	0.000	
31	   H	2.063	0.012	-0.519	 H	1	UNK0	0.000	
32	   H	2.162	0.865	1.853	 H	1	UNK0	0.000	
33	   H	3.318	-0.457	1.565	 H	1	UNK0	0.000	
34	   H	2.029	-0.896	3.704	 H	1	UNK0	0.000	
35	   H	1.970	-2.158	2.412	 H	1	UNK0	0.000	
36	   H	-0.350	-1.403	3.549	 H	1	UNK0	0.000	
37	   H	-2.331	-1.771	1.655	 H	1	UNK0	0.000	
38	   H	-1.855	-1.996	-0.451	 H	1	UNK0	0.000	
39	   H	-3.004	-0.564	-0.452	 H	1	UNK0	0.000	
40	   H	-2.398	3.260	3.368	 H	1	UNK0	0.000	
41	   H	-4.832	3.190	3.090	 H	1	UNK0	0.000	
42	   H	-5.848	1.301	2.017	 H	1	UNK0	0.000	
43	   H	-4.466	-0.576	1.191	 H	1	UNK0	0.000	
44	   H	-0.480	3.529	2.861	 H	1	UNK0	0.000	
45	   H	1.024	2.603	3.033	 H	1	UNK0	0.000	
46	   H	-0.237	2.481	4.317	 H	1	UNK0	0.000	
47	   H	-2.160	1.296	-0.874	 H	1	UNK0	0.000	
@<TRIPOS>BOND
1 1 2 1
2 2 3 2
3 2 7 1
4 3 4 1
5 4 5 2
6 5 6 1
7 5 8 1
8 6 7 2
9 8 9 1
10 8 16 1
11 8 25 1
12 9 10 1
13 9 14 1
14 10 11 1
15 11 12 1
16 12 13 1
17 13 14 2
18 14 15 1
19 15 16 1
20 15 17 1
21 17 18 2
22 17 22 1
23 18 19 1
24 18 23 1
25 19 20 2
26 20 21 1
27 21 22 2
28 23 24 1
29 3 26 1
30 4 27 1
31 6 28 1
32 7 29 1
33 10 30 1
34 10 31 1
35 11 32 1
36 11 33 1
37 12 34 1
38 12 35 1
39 13 36 1
40 15 37 1
41 16 38 1
42 16 39 1
43 19 40 1
44 20 41 1
45 21 42 1
46 22 43 1
47 24 44 1
48 24 45 1
49 24 46 1
50 25 47 1
@<TRIPOS>SUBSTRUCTURE
1	UNK0	1	GROUP	1 ****	UNK
# created with PyMOL 2.3.2
@<TRIPOS>MOLECULE
836
47 50 1                 
SMALL
USER_CHARGES
@<TRIPOS>ATOM
1	  Br	4.752	4.130	1.952	Br	1	UNK0	0.000	
2	   C	3.054	3.262	2.019	C.2	1	UNK0	0.000	
3	   C	2.246	3.332	3.138	C.2	1	UNK0	0.000	
4	   C	1.020	2.700	3.168	C.2	1	UNK0	0.000	
5	   C	0.528	1.971	2.106	C.2	1	UNK0	0.000	
6	   C	1.348	1.906	0.986	C.2	1	UNK0	0.000	
7	   C	2.578	2.537	0.948	C.2	1	UNK0	0.000	
8	   C	-0.779	1.324	2.197	C.3	1	UNK0	0.000	
9	   N	-0.779	-0.087	1.900	N.pl3	1	UNK0	0.000	
10	   C	0.172	-1.182	2.036	C.3	1	UNK0	0.000	
11	   C	-0.436	-2.513	2.251	C.3	1	UNK0	0.000	
12	   C	-1.935	-2.530	2.417	C.3	1	UNK0	0.000	
13	   C	-2.618	-1.537	1.593	C.2	1	UNK0	0.000	
14	   C	-2.057	-0.367	1.349	C.2	1	UNK0	0.000	
15	   N	-2.470	0.771	0.599	N.4	1	UNK0	0.000	
16	   C	-1.781	1.868	1.205	C.3	1	UNK0	0.000	
17	   C	-2.192	0.555	-0.744	C.2	1	UNK0	0.000	
18	   C	-1.599	-0.614	-1.160	C.2	1	UNK0	0.000	
19	   C	-1.318	-0.830	-2.519	C.2	1	UNK0	0.000	
20	   C	-1.620	0.103	-3.471	C.2	1	UNK0	0.000	
21	   C	-2.227	1.298	-3.042	C.2	1	UNK0	0.000	
22	   C	-2.490	1.480	-1.700	C.2	1	UNK0	0.000	
23	   O	-1.370	-0.045	-4.834	O.3	1	UNK0	0.000	
24	   C	-0.779	-1.142	-5.451	C.3	1	UNK0	0.000	
25	   O	-1.251	1.467	3.518	O.3	1	UNK0	0.000	
26	   H	2.627	3.904	3.976	 H	1	UNK0	0.000	
27	   H	0.398	2.770	4.065	 H	1	UNK0	0.000	
28	   H	0.996	1.344	0.140	 H	1	UNK0	0.000	
29	   H	3.223	2.490	0.072	 H	1	UNK0	0.000	
30	   H	0.883	-0.971	2.883	 H	1	UNK0	0.000	
31	   H	0.852	-1.225	1.137	 H	1	UNK0	0.000	
32	   H	0.064	-3.056	3.097	 H	1	UNK0	0.000	
33	   H	-0.233	-3.172	1.356	 H	1	UNK0	0.000	
34	   H	-2.359	-3.534	2.210	 H	1	UNK0	0.000	
35	   H	-2.136	-2.334	3.506	 H	1	UNK0	0.000	
36	   H	-3.582	-1.762	1.183	 H	1	UNK0	0.000	
37	   H	-3.512	0.864	0.742	 H	1	UNK0	0.000	
38	   H	-2.507	2.475	1.791	 H	1	UNK0	0.000	
39	   H	-1.323	2.566	0.481	 H	1	UNK0	0.000	
40	   H	-1.327	-1.406	-0.482	 H	1	UNK0	0.000	
41	   H	-0.851	-1.758	-2.834	 H	1	UNK0	0.000	
42	   H	-2.468	2.037	-3.798	 H	1	UNK0	0.000	
43	   H	-2.951	2.395	-1.400	 H	1	UNK0	0.000	
44	   H	-0.516	-1.958	-4.789	 H	1	UNK0	0.000	
45	   H	0.063	-0.808	-6.104	 H	1	UNK0	0.000	
46	   H	-1.531	-1.574	-6.176	 H	1	UNK0	0.000	
47	   H	-0.909	0.682	4.012	 H	1	UNK0	0.000	
@<TRIPOS>BOND
1 1 2 1
2 2 3 2
3 2 7 1
4 3 4 1
5 4 5 2
6 5 6 1
7 5 8 1
8 6 7 2
9 8 9 1
10 8 16 1
11 8 25 1
12 9 10 1
13 9 14 1
14 10 11 1
15 11 12 1
16 12 13 1
17 13 14 2
18 14 15 1
19 15 16 1
20 15 17 1
21 17 18 2
22 17 22 1
23 18 19 1
24 19 20 2
25 20 21 1
26 20 23 1
27 21 22 2
28 23 24 1
29 3 26 1
30 4 27 1
31 6 28 1
32 7 29 1
33 10 30 1
34 10 31 1
35 11 32 1
36 11 33 1
37 12 34 1
38 12 35 1
39 13 36 1
40 15 37 1
41 16 38 1
42 16 39 1
43 18 40 1
44 19 41 1
45 21 42 1
46 22 43 1
47 24 44 1
48 24 45 1
49 24 46 1
50 25 47 1
@<TRIPOS>SUBSTRUCTURE
1	UNK0	1	GROUP	1 ****	UNK
# created with PyMOL 2.3.2
@<TRIPOS>MOLECULE
847
56 59 1                 
SMALL
USER_CHARGES
@<TRIPOS>ATOM
1	  Br	5.543	-2.422	-4.774	Br	1	UNK0	0.000	
2	   C	4.709	-2.239	-3.076	C.2	1	UNK0	0.000	
3	   C	3.375	-2.597	-2.909	C.2	1	UNK0	0.000	
4	   C	2.774	-2.464	-1.686	C.2	1	UNK0	0.000	
5	   C	3.486	-1.974	-0.613	C.2	1	UNK0	0.000	
6	   C	4.807	-1.624	-0.796	C.2	1	UNK0	0.000	
7	   C	5.441	-1.745	-2.011	C.2	1	UNK0	0.000	
8	   N	2.860	-1.829	0.668	N.pl3	1	UNK0	0.000	
9	   C	1.464	-2.142	0.897	C.3	1	UNK0	0.000	
10	   C	0.541	-1.290	0.080	C.2	1	UNK0	0.000	
11	   N	-0.585	-1.623	-0.572	N.pl3	1	UNK0	0.000	
12	   C	-1.067	-0.514	-1.163	C.2	1	UNK0	0.000	
13	   N	-0.221	0.529	-0.871	N.pl3	1	UNK0	0.000	
14	   N	0.738	0.019	-0.118	N.2	1	UNK0	0.000	
15	   C	-0.285	1.868	-1.304	C.3	1	UNK0	0.000	
16	   C	-1.025	2.813	-0.510	C.2	1	UNK0	0.000	
17	   O	-1.041	4.032	-1.051	O.2	1	UNK0	0.000	
18	   C	-1.748	2.740	0.728	C.2	1	UNK0	0.000	
19	   C	-2.412	3.877	1.238	C.2	1	UNK0	0.000	
20	   C	-3.111	3.865	2.416	C.2	1	UNK0	0.000	
21	   C	-3.199	2.722	3.170	C.2	1	UNK0	0.000	
22	   C	-2.570	1.597	2.712	C.2	1	UNK0	0.000	
23	   C	-1.855	1.624	1.500	C.2	1	UNK0	0.000	
24	   O	-3.911	2.711	4.368	O.3	1	UNK0	0.000	
25	   C	-4.026	1.560	5.168	C.3	1	UNK0	0.000	
26	   C	-2.245	-0.267	-2.000	C.3	1	UNK0	0.000	
27	   C	-3.448	-1.109	-1.669	C.3	1	UNK0	0.000	
28	   C	-3.218	-2.576	-1.832	C.3	1	UNK0	0.000	
29	   C	-2.593	-3.073	-0.549	C.3	1	UNK0	0.000	
30	   C	-1.089	-2.957	-0.574	C.3	1	UNK0	0.000	
31	   H	2.849	-2.980	-3.788	 H	1	UNK0	0.000	
32	   H	1.750	-2.743	-1.565	 H	1	UNK0	0.000	
33	   H	5.364	-1.243	0.037	 H	1	UNK0	0.000	
34	   H	6.476	-1.479	-2.181	 H	1	UNK0	0.000	
35	   H	3.467	-1.480	1.442	 H	1	UNK0	0.000	
36	   H	1.255	-3.231	0.710	 H	1	UNK0	0.000	
37	   H	1.249	-1.995	1.977	 H	1	UNK0	0.000	
38	   H	-0.596	1.924	-2.410	 H	1	UNK0	0.000	
39	   H	0.778	2.318	-1.399	 H	1	UNK0	0.000	
40	   H	-2.346	4.781	0.648	 H	1	UNK0	0.000	
41	   H	-3.601	4.776	2.751	 H	1	UNK0	0.000	
42	   H	-2.630	0.685	3.298	 H	1	UNK0	0.000	
43	   H	-1.406	0.711	1.242	 H	1	UNK0	0.000	
44	   H	-4.361	0.705	4.535	 H	1	UNK0	0.000	
45	   H	-4.823	1.741	5.918	 H	1	UNK0	0.000	
46	   H	-3.082	1.316	5.693	 H	1	UNK0	0.000	
47	   H	-2.017	-0.424	-3.074	 H	1	UNK0	0.000	
48	   H	-2.562	0.787	-1.860	 H	1	UNK0	0.000	
49	   H	-4.246	-0.814	-2.388	 H	1	UNK0	0.000	
50	   H	-3.852	-0.896	-0.660	 H	1	UNK0	0.000	
51	   H	-4.207	-3.090	-1.944	 H	1	UNK0	0.000	
52	   H	-2.547	-2.818	-2.660	 H	1	UNK0	0.000	
53	   H	-2.829	-4.154	-0.470	 H	1	UNK0	0.000	
54	   H	-3.035	-2.590	0.355	 H	1	UNK0	0.000	
55	   H	-0.749	-3.471	-1.497	 H	1	UNK0	0.000	
56	   H	-0.734	-3.467	0.346	 H	1	UNK0	0.000	
@<TRIPOS>BOND
1 1 2 1
2 2 3 2
3 2 7 1
4 3 4 1
5 4 5 2
6 5 6 1
7 5 8 1
8 6 7 2
9 8 9 1
10 9 10 1
11 10 11 1
12 10 14 2
13 11 12 1
14 11 30 1
15 12 13 2
16 12 26 1
17 13 14 1
18 13 15 1
19 15 16 1
20 16 17 2
21 16 18 1
22 18 19 2
23 18 23 1
24 19 20 1
25 20 21 2
26 21 22 1
27 21 24 1
28 22 23 2
29 24 25 1
30 26 27 1
31 27 28 1
32 28 29 1
33 29 30 1
34 3 31 1
35 4 32 1
36 6 33 1
37 7 34 1
38 8 35 1
39 9 36 1
40 9 37 1
41 15 38 1
42 15 39 1
43 19 40 1
44 20 41 1
45 22 42 1
46 23 43 1
47 25 44 1
48 25 45 1
49 25 46 1
50 26 47 1
51 26 48 1
52 27 49 1
53 27 50 1
54 28 51 1
55 28 52 1
56 29 53 1
57 29 54 1
58 30 55 1
59 30 56 1
@<TRIPOS>SUBSTRUCTURE
1	UNK0	1	GROUP	1 ****	UNK
# created with PyMOL 2.3.2
@<TRIPOS>MOLECULE
850
53 56 1                 
SMALL
USER_CHARGES
@<TRIPOS>ATOM
1	  Br	-6.085	-2.702	5.303	Br	1	UNK0	0.000	
2	   C	-4.693	-2.090	4.136	C.2	1	UNK0	0.000	
3	   C	-4.511	-2.640	2.887	C.2	1	UNK0	0.000	
4	   C	-3.490	-2.197	2.059	C.2	1	UNK0	0.000	
5	   C	-2.608	-1.188	2.441	C.2	1	UNK0	0.000	
6	   C	-2.832	-0.677	3.685	C.2	1	UNK0	0.000	
7	   C	-3.848	-1.102	4.537	C.2	1	UNK0	0.000	
8	   N	-1.598	-0.812	1.581	N.4	1	UNK0	0.000	
9	   C	-0.732	0.255	1.986	C.3	1	UNK0	0.000	
10	   C	-1.638	1.451	1.696	C.3	1	UNK0	0.000	
11	   N	-2.294	1.068	0.436	N.pl3	1	UNK0	0.000	
12	   C	-2.908	2.044	-0.393	C.3	1	UNK0	0.000	
13	   C	-3.483	1.516	-1.673	C.3	1	UNK0	0.000	
14	   C	-2.455	0.666	-2.368	C.3	1	UNK0	0.000	
15	   C	-2.845	-0.782	-2.037	C.3	1	UNK0	0.000	
16	   C	-2.319	-1.115	-0.698	C.2	1	UNK0	0.000	
17	   C	-2.111	-0.344	0.345	C.2	1	UNK0	0.000	
18	   O	-0.214	0.205	3.241	O.3	1	UNK0	0.000	
19	   C	0.426	0.414	1.060	C.2	1	UNK0	0.000	
20	   C	0.854	-0.526	0.171	C.2	1	UNK0	0.000	
21	   C	1.955	-0.309	-0.684	C.2	1	UNK0	0.000	
22	   C	2.648	0.877	-0.652	C.2	1	UNK0	0.000	
23	   C	2.226	1.832	0.241	C.2	1	UNK0	0.000	
24	   C	1.152	1.616	1.074	C.2	1	UNK0	0.000	
25	   O	3.743	1.105	-1.502	O.3	1	UNK0	0.000	
26	   C	4.457	2.318	-1.475	C.3	1	UNK0	0.000	
27	   C	5.583	2.344	-2.460	C.3	1	UNK0	0.000	
28	   H	-5.205	-3.420	2.606	 H	1	UNK0	0.000	
29	   H	-3.420	-2.683	1.100	 H	1	UNK0	0.000	
30	   H	-2.214	0.089	4.075	 H	1	UNK0	0.000	
31	   H	-3.949	-0.626	5.529	 H	1	UNK0	0.000	
32	   H	-0.986	-1.680	1.471	 H	1	UNK0	0.000	
33	   H	-2.338	1.705	2.469	 H	1	UNK0	0.000	
34	   H	-1.085	2.368	1.444	 H	1	UNK0	0.000	
35	   H	-3.732	2.531	0.170	 H	1	UNK0	0.000	
36	   H	-2.118	2.809	-0.685	 H	1	UNK0	0.000	
37	   H	-4.408	0.960	-1.423	 H	1	UNK0	0.000	
38	   H	-3.679	2.387	-2.326	 H	1	UNK0	0.000	
39	   H	-2.409	0.806	-3.459	 H	1	UNK0	0.000	
40	   H	-1.427	0.788	-1.969	 H	1	UNK0	0.000	
41	   H	-3.945	-0.914	-2.030	 H	1	UNK0	0.000	
42	   H	-2.439	-1.432	-2.842	 H	1	UNK0	0.000	
43	   H	-2.045	-2.148	-0.601	 H	1	UNK0	0.000	
44	   H	0.197	1.041	3.528	 H	1	UNK0	0.000	
45	   H	0.353	-1.472	0.122	 H	1	UNK0	0.000	
46	   H	2.242	-1.099	-1.365	 H	1	UNK0	0.000	
47	   H	2.796	2.774	0.241	 H	1	UNK0	0.000	
48	   H	0.838	2.381	1.781	 H	1	UNK0	0.000	
49	   H	4.916	2.386	-0.442	 H	1	UNK0	0.000	
50	   H	3.804	3.221	-1.527	 H	1	UNK0	0.000	
51	   H	5.793	1.330	-2.879	 H	1	UNK0	0.000	
52	   H	6.533	2.750	-2.059	 H	1	UNK0	0.000	
53	   H	5.297	3.071	-3.275	 H	1	UNK0	0.000	
@<TRIPOS>BOND
1 1 2 1
2 2 3 2
3 2 7 1
4 3 4 1
5 4 5 2
6 5 6 1
7 5 8 1
8 6 7 2
9 8 9 1
10 8 17 1
11 9 10 1
12 9 18 1
13 9 19 1
14 10 11 1
15 11 12 1
16 11 17 1
17 12 13 1
18 13 14 1
19 14 15 1
20 15 16 1
21 16 17 2
22 19 20 2
23 19 24 1
24 20 21 1
25 21 22 2
26 22 23 1
27 22 25 1
28 23 24 2
29 25 26 1
30 26 27 1
31 3 28 1
32 4 29 1
33 6 30 1
34 7 31 1
35 8 32 1
36 10 33 1
37 10 34 1
38 12 35 1
39 12 36 1
40 13 37 1
41 13 38 1
42 14 39 1
43 14 40 1
44 15 41 1
45 15 42 1
46 16 43 1
47 18 44 1
48 20 45 1
49 21 46 1
50 23 47 1
51 24 48 1
52 26 49 1
53 26 50 1
54 27 51 1
55 27 52 1
56 27 53 1
@<TRIPOS>SUBSTRUCTURE
1	UNK0	1	GROUP	1 ****	UNK
# created with PyMOL 2.3.2
@<TRIPOS>MOLECULE
860
55 58 1                 
SMALL
USER_CHARGES
@<TRIPOS>ATOM
1	  Br	2.870	-4.781	1.764	Br	1	UNK0	0.000	
2	   C	2.378	-3.117	0.953	C.2	1	UNK0	0.000	
3	   C	1.117	-2.913	0.428	C.2	1	UNK0	0.000	
4	   C	0.768	-1.715	-0.154	C.2	1	UNK0	0.000	
5	   C	1.737	-0.734	-0.188	C.2	1	UNK0	0.000	
6	   C	2.999	-0.932	0.335	C.2	1	UNK0	0.000	
7	   C	3.344	-2.133	0.917	C.2	1	UNK0	0.000	
8	   C	4.710	-2.336	1.479	C.3	1	UNK0	0.000	
9	   O	1.360	0.469	-0.782	O.3	1	UNK0	0.000	
10	   C	0.237	0.624	-1.583	C.3	1	UNK0	0.000	
11	   C	-0.929	-0.237	-1.232	C.3	1	UNK0	0.000	
12	   C	-0.591	-1.580	-0.688	C.3	1	UNK0	0.000	
13	   O	-1.476	-1.938	0.358	O.3	1	UNK0	0.000	
14	   N	-1.642	-0.462	-2.494	N.4	1	UNK0	0.000	
15	   C	-1.915	0.737	-3.209	C.3	1	UNK0	0.000	
16	   C	-2.305	0.308	-4.632	C.3	1	UNK0	0.000	
17	   O	-3.480	-0.414	-4.511	O.3	1	UNK0	0.000	
18	   C	-3.346	-1.556	-3.730	C.3	1	UNK0	0.000	
19	   C	-2.856	-1.199	-2.319	C.3	1	UNK0	0.000	
20	   C	-1.909	0.454	-0.306	C.3	1	UNK0	0.000	
21	   N	-1.341	0.853	0.945	N.4	1	UNK0	0.000	
22	   C	-0.894	2.234	0.944	C.3	1	UNK0	0.000	
23	   C	-1.309	2.963	2.213	C.3	1	UNK0	0.000	
24	   O	-2.685	3.053	2.343	O.3	1	UNK0	0.000	
25	   C	-3.317	1.923	1.833	C.3	1	UNK0	0.000	
26	   C	-2.355	0.766	2.009	C.3	1	UNK0	0.000	
27	   H	0.383	-3.724	0.479	 H	1	UNK0	0.000	
28	   H	3.741	-0.147	0.297	 H	1	UNK0	0.000	
29	   H	5.427	-2.617	0.676	 H	1	UNK0	0.000	
30	   H	5.096	-1.424	1.962	 H	1	UNK0	0.000	
31	   H	4.670	-3.193	2.184	 H	1	UNK0	0.000	
32	   H	-0.052	1.699	-1.568	 H	1	UNK0	0.000	
33	   H	0.567	0.439	-2.649	 H	1	UNK0	0.000	
34	   H	-0.734	-2.403	-1.449	 H	1	UNK0	0.000	
35	   H	-1.009	-2.074	1.208	 H	1	UNK0	0.000	
36	   H	-0.998	-1.048	-3.072	 H	1	UNK0	0.000	
37	   H	-1.086	1.433	-3.315	 H	1	UNK0	0.000	
38	   H	-2.845	1.232	-2.807	 H	1	UNK0	0.000	
39	   H	-2.499	1.211	-5.207	 H	1	UNK0	0.000	
40	   H	-1.459	-0.298	-5.001	 H	1	UNK0	0.000	
41	   H	-4.322	-2.060	-3.706	 H	1	UNK0	0.000	
42	   H	-2.535	-2.162	-4.185	 H	1	UNK0	0.000	
43	   H	-3.681	-0.609	-1.872	 H	1	UNK0	0.000	
44	   H	-2.731	-2.158	-1.782	 H	1	UNK0	0.000	
45	   H	-2.400	1.325	-0.767	 H	1	UNK0	0.000	
46	   H	-2.732	-0.289	-0.097	 H	1	UNK0	0.000	
47	   H	-0.549	0.281	1.275	 H	1	UNK0	0.000	
48	   H	-1.401	2.765	0.108	 H	1	UNK0	0.000	
49	   H	0.210	2.327	0.887	 H	1	UNK0	0.000	
50	   H	-0.797	2.584	3.109	 H	1	UNK0	0.000	
51	   H	-0.941	4.017	2.077	 H	1	UNK0	0.000	
52	   H	-3.519	2.125	0.759	 H	1	UNK0	0.000	
53	   H	-4.246	1.772	2.407	 H	1	UNK0	0.000	
54	   H	-1.841	0.836	2.990	 H	1	UNK0	0.000	
55	   H	-2.869	-0.218	1.989	 H	1	UNK0	0.000	
@<TRIPOS>BOND
1 1 2 1
2 2 3 2
3 2 7 1
4 3 4 1
5 4 5 2
6 4 12 1
7 5 6 1
8 5 9 1
9 6 7 2
10 7 8 1
11 9 10 1
12 10 11 1
13 11 12 1
14 11 14 1
15 11 20 1
16 12 13 1
17 14 15 1
18 14 19 1
19 15 16 1
20 16 17 1
21 17 18 1
22 18 19 1
23 20 21 1
24 21 22 1
25 21 26 1
26 22 23 1
27 23 24 1
28 24 25 1
29 25 26 1
30 3 27 1
31 6 28 1
32 8 29 1
33 8 30 1
34 8 31 1
35 10 32 1
36 10 33 1
37 12 34 1
38 13 35 1
39 14 36 1
40 15 37 1
41 15 38 1
42 16 39 1
43 16 40 1
44 18 41 1
45 18 42 1
46 19 43 1
47 19 44 1
48 20 45 1
49 20 46 1
50 21 47 1
51 22 48 1
52 22 49 1
53 23 50 1
54 23 51 1
55 25 52 1
56 25 53 1
57 26 54 1
58 26 55 1
@<TRIPOS>SUBSTRUCTURE
1	UNK0	1	GROUP	1 ****	UNK
# created with PyMOL 2.3.2
@<TRIPOS>MOLECULE
861
66 69 1                 
SMALL
USER_CHARGES
@<TRIPOS>ATOM
1	  Br	4.923	3.801	0.412	Br	1	UNK0	0.000	
2	   C	4.681	2.129	-0.493	C.2	1	UNK0	0.000	
3	   C	3.423	1.586	-0.602	C.2	1	UNK0	0.000	
4	   C	3.202	0.363	-1.257	C.2	1	UNK0	0.000	
5	   C	4.312	-0.261	-1.783	C.2	1	UNK0	0.000	
6	   C	5.584	0.261	-1.687	C.2	1	UNK0	0.000	
7	   C	5.775	1.461	-1.041	C.2	1	UNK0	0.000	
8	   C	7.105	2.105	-0.886	C.3	1	UNK0	0.000	
9	  Br	7.103	-0.626	-2.426	Br	1	UNK0	0.000	
10	   C	1.860	-0.174	-1.346	C.2	1	UNK0	0.000	
11	   O	1.641	-1.194	-2.008	O.2	1	UNK0	0.000	
12	   C	0.759	0.506	-0.641	C.3	1	UNK0	0.000	
13	   C	1.068	1.987	-0.653	C.3	1	UNK0	0.000	
14	   O	2.326	2.247	-0.058	O.3	1	UNK0	0.000	
15	   C	-0.594	0.219	-1.218	C.3	1	UNK0	0.000	
16	   N	-0.785	0.590	-2.567	N.4	1	UNK0	0.000	
17	   C	-1.444	-0.466	-3.277	C.3	1	UNK0	0.000	
18	   C	-2.875	-0.668	-2.928	C.3	1	UNK0	0.000	
19	   C	-3.503	0.360	-2.069	C.3	1	UNK0	0.000	
20	   C	-2.871	1.697	-2.061	C.3	1	UNK0	0.000	
21	   C	-1.559	1.781	-2.784	C.3	1	UNK0	0.000	
22	   C	-2.989	-2.013	-2.201	C.3	1	UNK0	0.000	
23	   C	0.823	0.025	0.794	C.3	1	UNK0	0.000	
24	   N	-0.164	0.569	1.663	N.4	1	UNK0	0.000	
25	   C	0.463	1.102	2.871	C.3	1	UNK0	0.000	
26	   C	0.339	0.173	4.043	C.3	1	UNK0	0.000	
27	   C	0.581	-1.249	3.590	C.3	1	UNK0	0.000	
28	   C	-0.547	-1.639	2.686	C.3	1	UNK0	0.000	
29	   C	-1.156	-0.386	2.107	C.3	1	UNK0	0.000	
30	   C	1.480	0.517	5.010	C.3	1	UNK0	0.000	
31	   H	4.199	-1.210	-2.301	 H	1	UNK0	0.000	
32	   H	7.077	3.076	-1.429	 H	1	UNK0	0.000	
33	   H	7.932	1.459	-1.184	 H	1	UNK0	0.000	
34	   H	7.183	2.386	0.203	 H	1	UNK0	0.000	
35	   H	1.115	2.378	-1.680	 H	1	UNK0	0.000	
36	   H	0.253	2.575	-0.146	 H	1	UNK0	0.000	
37	   H	-0.738	-0.879	-1.138	 H	1	UNK0	0.000	
38	   H	-1.353	0.668	-0.545	 H	1	UNK0	0.000	
39	   H	0.145	0.743	-3.033	 H	1	UNK0	0.000	
40	   H	-1.330	-0.226	-4.376	 H	1	UNK0	0.000	
41	   H	-0.849	-1.392	-3.136	 H	1	UNK0	0.000	
42	   H	-3.448	-0.806	-3.874	 H	1	UNK0	0.000	
43	   H	-4.573	0.482	-2.406	 H	1	UNK0	0.000	
44	   H	-3.611	0.000	-1.002	 H	1	UNK0	0.000	
45	   H	-2.738	2.088	-1.009	 H	1	UNK0	0.000	
46	   H	-3.537	2.477	-2.538	 H	1	UNK0	0.000	
47	   H	-1.067	2.724	-2.583	 H	1	UNK0	0.000	
48	   H	-1.812	1.789	-3.887	 H	1	UNK0	0.000	
49	   H	-3.969	-2.501	-2.429	 H	1	UNK0	0.000	
50	   H	-2.124	-2.642	-2.450	 H	1	UNK0	0.000	
51	   H	-2.954	-1.805	-1.115	 H	1	UNK0	0.000	
52	   H	1.844	0.326	1.166	 H	1	UNK0	0.000	
53	   H	0.857	-1.101	0.808	 H	1	UNK0	0.000	
54	   H	-0.646	1.354	1.217	 H	1	UNK0	0.000	
55	   H	0.043	2.082	3.152	 H	1	UNK0	0.000	
56	   H	1.562	1.260	2.706	 H	1	UNK0	0.000	
57	   H	-0.589	0.294	4.616	 H	1	UNK0	0.000	
58	   H	0.611	-1.880	4.501	 H	1	UNK0	0.000	
59	   H	1.566	-1.291	3.114	 H	1	UNK0	0.000	
60	   H	-0.299	-2.365	1.916	 H	1	UNK0	0.000	
61	   H	-1.353	-2.109	3.319	 H	1	UNK0	0.000	
62	   H	-1.749	0.143	2.909	 H	1	UNK0	0.000	
63	   H	-1.883	-0.688	1.352	 H	1	UNK0	0.000	
64	   H	1.741	1.597	4.917	 H	1	UNK0	0.000	
65	   H	2.361	-0.137	4.839	 H	1	UNK0	0.000	
66	   H	1.170	0.348	6.062	 H	1	UNK0	0.000	
@<TRIPOS>BOND
1 1 2 1
2 2 3 2
3 2 7 1
4 3 4 1
5 3 14 1
6 4 5 2
7 4 10 1
8 5 6 1
9 6 7 2
10 6 9 1
11 7 8 1
12 10 11 2
13 10 12 1
14 12 13 1
15 12 15 1
16 12 23 1
17 13 14 1
18 15 16 1
19 16 17 1
20 16 21 1
21 17 18 1
22 18 19 1
23 18 22 1
24 19 20 1
25 20 21 1
26 23 24 1
27 24 25 1
28 24 29 1
29 25 26 1
30 26 27 1
31 26 30 1
32 27 28 1
33 28 29 1
34 5 31 1
35 8 32 1
36 8 33 1
37 8 34 1
38 13 35 1
39 13 36 1
40 15 37 1
41 15 38 1
42 16 39 1
43 17 40 1
44 17 41 1
45 18 42 1
46 19 43 1
47 19 44 1
48 20 45 1
49 20 46 1
50 21 47 1
51 21 48 1
52 22 49 1
53 22 50 1
54 22 51 1
55 23 52 1
56 23 53 1
57 24 54 1
58 25 55 1
59 25 56 1
60 26 57 1
61 27 58 1
62 27 59 1
63 28 60 1
64 28 61 1
65 29 62 1
66 29 63 1
67 30 64 1
68 30 65 1
69 30 66 1
@<TRIPOS>SUBSTRUCTURE
1	UNK0	1	GROUP	1 ****	UNK
# created with PyMOL 2.3.2
@<TRIPOS>MOLECULE
862
60 63 1                 
SMALL
USER_CHARGES
@<TRIPOS>ATOM
1	  Br	2.696	-1.719	-5.216	Br	1	UNK0	0.000	
2	   C	1.551	-2.555	-3.970	C.2	1	UNK0	0.000	
3	   C	1.580	-2.110	-2.671	C.2	1	UNK0	0.000	
4	   C	0.774	-2.653	-1.656	C.2	1	UNK0	0.000	
5	   C	-0.099	-3.698	-1.983	C.2	1	UNK0	0.000	
6	   C	-0.117	-4.134	-3.289	C.2	1	UNK0	0.000	
7	   C	0.685	-3.585	-4.273	C.2	1	UNK0	0.000	
8	   C	0.643	-4.084	-5.690	C.3	1	UNK0	0.000	
9	  Br	-1.307	-5.555	-3.733	Br	1	UNK0	0.000	
10	   C	0.853	-2.147	-0.299	C.2	1	UNK0	0.000	
11	   O	0.637	-2.977	0.619	O.2	1	UNK0	0.000	
12	   C	1.177	-0.718	-0.128	C.3	1	UNK0	0.000	
13	   C	2.555	-0.660	-0.929	C.3	1	UNK0	0.000	
14	   O	2.402	-1.087	-2.235	O.3	1	UNK0	0.000	
15	   C	1.490	-0.266	1.213	C.3	1	UNK0	0.000	
16	   N	0.720	-0.352	2.362	N.4	1	UNK0	0.000	
17	   C	-0.687	-0.447	2.340	C.3	1	UNK0	0.000	
18	   C	-1.360	0.127	3.580	C.3	1	UNK0	0.000	
19	   C	-1.165	1.606	3.685	C.3	1	UNK0	0.000	
20	   C	0.187	1.942	3.135	C.3	1	UNK0	0.000	
21	   C	1.086	0.757	3.271	C.3	1	UNK0	0.000	
22	   C	0.205	0.114	-0.874	C.3	1	UNK0	0.000	
23	   N	0.289	1.514	-0.856	N.4	1	UNK0	0.000	
24	   C	0.696	1.967	-2.193	C.3	1	UNK0	0.000	
25	   C	1.099	3.427	-2.202	C.3	1	UNK0	0.000	
26	   C	-0.181	4.210	-1.869	C.3	1	UNK0	0.000	
27	   C	-0.563	3.729	-0.488	C.3	1	UNK0	0.000	
28	   C	-0.943	2.243	-0.604	C.3	1	UNK0	0.000	
29	   H	-0.710	-4.110	-1.205	 H	1	UNK0	0.000	
30	   H	-0.340	-3.735	-6.099	 H	1	UNK0	0.000	
31	   H	1.496	-3.694	-6.245	 H	1	UNK0	0.000	
32	   H	0.598	-5.190	-5.637	 H	1	UNK0	0.000	
33	   H	3.181	-1.392	-0.380	 H	1	UNK0	0.000	
34	   H	2.979	0.328	-0.807	 H	1	UNK0	0.000	
35	   H	1.850	0.825	1.159	 H	1	UNK0	0.000	
36	   H	2.507	-0.760	1.477	 H	1	UNK0	0.000	
37	   H	1.047	-1.197	2.994	 H	1	UNK0	0.000	
38	   H	-0.990	-1.522	2.266	 H	1	UNK0	0.000	
39	   H	-1.192	0.057	1.512	 H	1	UNK0	0.000	
40	   H	-0.904	-0.357	4.457	 H	1	UNK0	0.000	
41	   H	-2.433	-0.084	3.589	 H	1	UNK0	0.000	
42	   H	-1.281	2.009	4.699	 H	1	UNK0	0.000	
43	   H	-1.957	2.064	3.020	 H	1	UNK0	0.000	
44	   H	0.621	2.740	3.775	 H	1	UNK0	0.000	
45	   H	0.164	2.369	2.115	 H	1	UNK0	0.000	
46	   H	2.177	0.999	3.149	 H	1	UNK0	0.000	
47	   H	0.967	0.380	4.300	 H	1	UNK0	0.000	
48	   H	-0.848	-0.199	-0.646	 H	1	UNK0	0.000	
49	   H	0.241	-0.177	-2.004	 H	1	UNK0	0.000	
50	   H	0.987	1.961	-0.227	 H	1	UNK0	0.000	
51	   H	-0.235	1.914	-2.830	 H	1	UNK0	0.000	
52	   H	1.436	1.349	-2.674	 H	1	UNK0	0.000	
53	   H	1.879	3.610	-1.444	 H	1	UNK0	0.000	
54	   H	1.395	3.680	-3.217	 H	1	UNK0	0.000	
55	   H	-0.012	5.285	-1.920	 H	1	UNK0	0.000	
56	   H	-0.965	3.836	-2.562	 H	1	UNK0	0.000	
57	   H	0.360	3.732	0.159	 H	1	UNK0	0.000	
58	   H	-1.346	4.308	0.001	 H	1	UNK0	0.000	
59	   H	-1.416	2.036	0.366	 H	1	UNK0	0.000	
60	   H	-1.637	2.173	-1.457	 H	1	UNK0	0.000	
@<TRIPOS>BOND
1 1 2 1
2 2 3 2
3 2 7 1
4 3 4 1
5 3 14 1
6 4 5 2
7 4 10 1
8 5 6 1
9 6 7 2
10 6 9 1
11 7 8 1
12 10 11 2
13 10 12 1
14 12 13 1
15 12 15 1
16 12 22 1
17 13 14 1
18 15 16 1
19 16 17 1
20 16 21 1
21 17 18 1
22 18 19 1
23 19 20 1
24 20 21 1
25 22 23 1
26 23 24 1
27 23 28 1
28 24 25 1
29 25 26 1
30 26 27 1
31 27 28 1
32 5 29 1
33 8 30 1
34 8 31 1
35 8 32 1
36 13 33 1
37 13 34 1
38 15 35 1
39 15 36 1
40 16 37 1
41 17 38 1
42 17 39 1
43 18 40 1
44 18 41 1
45 19 42 1
46 19 43 1
47 20 44 1
48 20 45 1
49 21 46 1
50 21 47 1
51 22 48 1
52 22 49 1
53 23 50 1
54 24 51 1
55 24 52 1
56 25 53 1
57 25 54 1
58 26 55 1
59 26 56 1
60 27 57 1
61 27 58 1
62 28 59 1
63 28 60 1
@<TRIPOS>SUBSTRUCTURE
1	UNK0	1	GROUP	1 ****	UNK
# created with PyMOL 2.3.2
@<TRIPOS>MOLECULE
865
50 53 1                 
SMALL
USER_CHARGES
@<TRIPOS>ATOM
1	   F	-6.565	2.272	-5.916	 F	1	UNK0	0.000	
2	   C	-6.082	1.830	-4.722	C.2	1	UNK0	0.000	
3	   C	-5.027	2.454	-4.089	C.2	1	UNK0	0.000	
4	   C	-4.553	1.989	-2.880	C.2	1	UNK0	0.000	
5	   C	-5.106	0.886	-2.251	C.2	1	UNK0	0.000	
6	   C	-6.160	0.269	-2.891	C.2	1	UNK0	0.000	
7	   C	-6.640	0.733	-4.108	C.2	1	UNK0	0.000	
8	   C	-4.609	0.391	-0.974	C.2	1	UNK0	0.000	
9	   N	-3.627	0.971	-0.382	N.2	1	UNK0	0.000	
10	   N	-3.103	0.555	0.834	N.pl3	1	UNK0	0.000	
11	   C	-1.742	0.189	0.947	C.2	1	UNK0	0.000	
12	   N	-0.940	0.243	-0.139	N.2	1	UNK0	0.000	
13	   C	0.373	-0.094	-0.100	C.2	1	UNK0	0.000	
14	   N	0.851	-0.488	1.082	N.2	1	UNK0	0.000	
15	   C	0.113	-0.566	2.203	C.2	1	UNK0	0.000	
16	   N	-1.182	-0.219	2.099	N.2	1	UNK0	0.000	
17	   N	0.692	-0.995	3.428	N.pl3	1	UNK0	0.000	
18	   C	2.098	-1.350	3.453	C.3	1	UNK0	0.000	
19	   C	2.476	-1.813	4.842	C.3	1	UNK0	0.000	
20	   O	2.071	-0.979	5.845	O.3	1	UNK0	0.000	
21	   C	0.815	-0.446	5.735	C.3	1	UNK0	0.000	
22	   C	-0.033	-1.103	4.659	C.3	1	UNK0	0.000	
23	   N	1.172	-0.019	-1.275	N.pl3	1	UNK0	0.000	
24	   C	0.678	0.400	-2.566	C.3	1	UNK0	0.000	
25	   C	1.064	-0.748	-3.497	C.3	1	UNK0	0.000	
26	   O	2.404	-0.785	-3.616	O.3	1	UNK0	0.000	
27	   C	3.182	-0.695	-2.530	C.3	1	UNK0	0.000	
28	   C	2.571	-0.374	-1.224	C.3	1	UNK0	0.000	
29	  Br	-4.245	3.978	-4.934	Br	1	UNK0	0.000	
30	   H	-3.716	2.478	-2.369	 H	1	UNK0	0.000	
31	   H	-6.602	-0.604	-2.399	 H	1	UNK0	0.000	
32	   H	-7.474	0.231	-4.599	 H	1	UNK0	0.000	
33	   H	-5.077	-0.467	-0.534	 H	1	UNK0	0.000	
34	   H	-3.710	0.509	1.669	 H	1	UNK0	0.000	
35	   H	2.297	-2.230	2.776	 H	1	UNK0	0.000	
36	   H	2.668	-0.459	3.174	 H	1	UNK0	0.000	
37	   H	3.604	-1.822	4.860	 H	1	UNK0	0.000	
38	   H	2.176	-2.862	5.001	 H	1	UNK0	0.000	
39	   H	0.916	0.625	5.427	 H	1	UNK0	0.000	
40	   H	0.317	-0.505	6.730	 H	1	UNK0	0.000	
41	   H	-0.092	-2.179	4.931	 H	1	UNK0	0.000	
42	   H	-1.005	-0.608	4.621	 H	1	UNK0	0.000	
43	   H	1.299	1.263	-2.883	 H	1	UNK0	0.000	
44	   H	-0.401	0.600	-2.586	 H	1	UNK0	0.000	
45	   H	0.632	-1.671	-3.068	 H	1	UNK0	0.000	
46	   H	0.618	-0.568	-4.516	 H	1	UNK0	0.000	
47	   H	3.990	0.070	-2.737	 H	1	UNK0	0.000	
48	   H	3.772	-1.657	-2.435	 H	1	UNK0	0.000	
49	   H	3.080	0.505	-0.725	 H	1	UNK0	0.000	
50	   H	2.738	-1.214	-0.486	 H	1	UNK0	0.000	
@<TRIPOS>BOND
1 1 2 1
2 2 3 2
3 2 7 1
4 3 4 1
5 3 29 1
6 4 5 2
7 5 6 1
8 5 8 1
9 6 7 2
10 8 9 2
11 9 10 1
12 10 11 1
13 11 12 2
14 11 16 1
15 12 13 1
16 13 14 2
17 13 23 1
18 14 15 1
19 15 16 2
20 15 17 1
21 17 18 1
22 17 22 1
23 18 19 1
24 19 20 1
25 20 21 1
26 21 22 1
27 23 24 1
28 23 28 1
29 24 25 1
30 25 26 1
31 26 27 1
32 27 28 1
33 4 30 1
34 6 31 1
35 7 32 1
36 8 33 1
37 10 34 1
38 18 35 1
39 18 36 1
40 19 37 1
41 19 38 1
42 21 39 1
43 21 40 1
44 22 41 1
45 22 42 1
46 24 43 1
47 24 44 1
48 25 45 1
49 25 46 1
50 27 47 1
51 27 48 1
52 28 49 1
53 28 50 1
@<TRIPOS>SUBSTRUCTURE
1	UNK0	1	GROUP	1 ****	UNK
# created with PyMOL 2.3.2
@<TRIPOS>MOLECULE
872
41 44 1                 
SMALL
USER_CHARGES
@<TRIPOS>ATOM
1	   F	0.258	2.434	-2.889	 F	1	UNK0	0.000	
2	   C	0.068	1.472	-3.834	C.2	1	UNK0	0.000	
3	   C	0.477	0.165	-3.522	C.2	1	UNK0	0.000	
4	   C	0.290	-0.799	-4.463	C.2	1	UNK0	0.000	
5	   C	-0.291	-0.541	-5.723	C.2	1	UNK0	0.000	
6	   C	-0.678	0.752	-5.990	C.2	1	UNK0	0.000	
7	   C	-0.498	1.747	-5.052	C.2	1	UNK0	0.000	
8	   F	-1.241	1.065	-7.180	 F	1	UNK0	0.000	
9	   N	1.052	-0.073	-2.264	N.pl3	1	UNK0	0.000	
10	   C	1.504	-1.309	-1.810	C.2	1	UNK0	0.000	
11	   O	1.450	-2.351	-2.471	O.2	1	UNK0	0.000	
12	   C	2.103	-1.415	-0.422	C.3	1	UNK0	0.000	
13	   N	1.057	-1.754	0.518	N.pl3	1	UNK0	0.000	
14	   N	0.717	-2.997	0.808	N.pl3	1	UNK0	0.000	
15	   N	-0.265	-2.908	1.688	N.pl3	1	UNK0	0.000	
16	   C	-0.555	-1.620	1.964	C.2	1	UNK0	0.000	
17	   C	0.292	-0.896	1.214	C.2	1	UNK0	0.000	
18	   C	-0.016	0.412	1.507	C.2	1	UNK0	0.000	
19	   O	0.561	1.413	1.004	O.2	1	UNK0	0.000	
20	   N	-1.017	0.502	2.406	N.pl3	1	UNK0	0.000	
21	   C	-1.359	-0.764	2.696	C.2	1	UNK0	0.000	
22	   O	-2.264	-1.105	3.502	O.2	1	UNK0	0.000	
23	   C	-1.574	1.724	2.921	C.2	1	UNK0	0.000	
24	   C	-1.782	2.809	2.092	C.2	1	UNK0	0.000	
25	   C	-2.313	4.000	2.542	C.2	1	UNK0	0.000	
26	   C	-2.639	4.078	3.882	C.2	1	UNK0	0.000	
27	   C	-2.453	3.023	4.760	C.2	1	UNK0	0.000	
28	   C	-1.917	1.860	4.245	C.2	1	UNK0	0.000	
29	  Br	-3.377	5.746	4.486	Br	1	UNK0	0.000	
30	   H	0.570	-1.815	-4.310	 H	1	UNK0	0.000	
31	   H	-0.422	-1.333	-6.443	 H	1	UNK0	0.000	
32	   H	-0.810	2.775	-5.275	 H	1	UNK0	0.000	
33	   H	1.166	0.748	-1.576	 H	1	UNK0	0.000	
34	   H	2.544	-0.430	-0.143	 H	1	UNK0	0.000	
35	   H	2.914	-2.143	-0.473	 H	1	UNK0	0.000	
36	   H	1.135	-3.892	0.422	 H	1	UNK0	0.000	
37	   H	-0.735	-3.757	2.099	 H	1	UNK0	0.000	
38	   H	-1.508	2.689	1.054	 H	1	UNK0	0.000	
39	   H	-2.471	4.852	1.865	 H	1	UNK0	0.000	
40	   H	-2.729	3.153	5.793	 H	1	UNK0	0.000	
41	   H	-1.769	1.031	4.928	 H	1	UNK0	0.000	
@<TRIPOS>BOND
1 1 2 1
2 2 3 2
3 2 7 1
4 3 4 1
5 3 9 1
6 4 5 2
7 5 6 1
8 6 7 2
9 6 8 1
10 9 10 1
11 10 11 2
12 10 12 1
13 12 13 1
14 13 14 1
15 13 17 1
16 14 15 1
17 15 16 1
18 16 17 2
19 16 21 1
20 17 18 1
21 18 19 2
22 18 20 1
23 20 21 1
24 20 23 1
25 21 22 2
26 23 24 2
27 23 28 1
28 24 25 1
29 25 26 2
30 26 27 1
31 26 29 1
32 27 28 2
33 4 30 1
34 5 31 1
35 7 32 1
36 9 33 1
37 12 34 1
38 12 35 1
39 14 36 1
40 15 37 1
41 24 38 1
42 25 39 1
43 27 40 1
44 28 41 1
@<TRIPOS>SUBSTRUCTURE
1	UNK0	1	GROUP	1 ****	UNK
# created with PyMOL 2.3.2
@<TRIPOS>MOLECULE
873
53 56 1                 
SMALL
USER_CHARGES
@<TRIPOS>ATOM
1	   F	1.577	2.387	1.569	 F	1	UNK0	0.000	
2	   C	0.573	1.639	2.000	C.2	1	UNK0	0.000	
3	   C	-0.192	0.878	1.140	C.2	1	UNK0	0.000	
4	   C	-1.196	0.156	1.736	C.2	1	UNK0	0.000	
5	   C	-1.464	0.158	3.096	C.2	1	UNK0	0.000	
6	   C	-0.685	0.924	3.915	C.2	1	UNK0	0.000	
7	   C	0.322	1.655	3.375	C.2	1	UNK0	0.000	
8	   C	0.058	0.809	-0.309	C.3	1	UNK0	0.000	
9	   N	-0.515	-0.353	-0.970	N.pl3	1	UNK0	0.000	
10	   C	0.251	-1.425	-0.381	C.2	1	UNK0	0.000	
11	   O	-0.106	-2.610	-0.148	O.2	1	UNK0	0.000	
12	   C	1.614	-0.915	-0.060	C.2	1	UNK0	0.000	
13	   O	2.601	-1.449	0.443	O.2	1	UNK0	0.000	
14	   C	1.526	0.503	-0.517	C.2	1	UNK0	0.000	
15	   C	2.505	1.249	-0.967	C.2	1	UNK0	0.000	
16	   O	2.237	2.580	-1.346	O.2	1	UNK0	0.000	
17	   C	3.864	0.743	-1.091	C.2	1	UNK0	0.000	
18	   C	4.907	1.505	-0.612	C.2	1	UNK0	0.000	
19	   C	6.226	1.097	-0.722	C.2	1	UNK0	0.000	
20	   C	6.523	-0.106	-1.325	C.2	1	UNK0	0.000	
21	   C	5.508	-0.875	-1.806	C.2	1	UNK0	0.000	
22	   C	4.173	-0.450	-1.689	C.2	1	UNK0	0.000	
23	  Br	8.350	-0.700	-1.492	Br	1	UNK0	0.000	
24	   C	-1.521	-0.545	-1.924	C.3	1	UNK0	0.000	
25	   C	-2.941	-0.685	-1.507	C.3	1	UNK0	0.000	
26	   N	-3.478	0.470	-0.845	N.4	1	UNK0	0.000	
27	   C	-4.461	0.038	0.127	C.3	1	UNK0	0.000	
28	   C	-4.971	1.217	0.936	C.3	1	UNK0	0.000	
29	   O	-5.541	2.139	0.079	O.3	1	UNK0	0.000	
30	   C	-4.625	2.538	-0.890	C.3	1	UNK0	0.000	
31	   C	-4.234	1.341	-1.768	C.3	1	UNK0	0.000	
32	   H	-1.817	-0.460	1.141	 H	1	UNK0	0.000	
33	   H	-2.261	-0.421	3.538	 H	1	UNK0	0.000	
34	   H	-0.878	0.940	4.982	 H	1	UNK0	0.000	
35	   H	0.930	2.259	4.040	 H	1	UNK0	0.000	
36	   H	-0.154	1.762	-0.769	 H	1	UNK0	0.000	
37	   H	4.749	2.466	-0.124	 H	1	UNK0	0.000	
38	   H	7.063	1.673	-0.357	 H	1	UNK0	0.000	
39	   H	5.736	-1.821	-2.280	 H	1	UNK0	0.000	
40	   H	3.390	-1.056	-2.083	 H	1	UNK0	0.000	
41	   H	-1.295	-1.462	-2.540	 H	1	UNK0	0.000	
42	   H	-1.552	0.261	-2.730	 H	1	UNK0	0.000	
43	   H	-3.530	-0.784	-2.464	 H	1	UNK0	0.000	
44	   H	-3.159	-1.644	-0.980	 H	1	UNK0	0.000	
45	   H	-2.758	1.111	-0.453	 H	1	UNK0	0.000	
46	   H	-5.346	-0.320	-0.477	 H	1	UNK0	0.000	
47	   H	-4.152	-0.814	0.730	 H	1	UNK0	0.000	
48	   H	-4.115	1.617	1.519	 H	1	UNK0	0.000	
49	   H	-5.756	0.830	1.610	 H	1	UNK0	0.000	
50	   H	-3.697	2.845	-0.335	 H	1	UNK0	0.000	
51	   H	-4.979	3.372	-1.504	 H	1	UNK0	0.000	
52	   H	-5.115	0.807	-2.128	 H	1	UNK0	0.000	
53	   H	-3.534	1.696	-2.538	 H	1	UNK0	0.000	
@<TRIPOS>BOND
1 1 2 1
2 2 3 2
3 2 7 1
4 3 4 1
5 3 8 1
6 4 5 2
7 5 6 1
8 6 7 2
9 8 9 1
10 8 14 1
11 9 10 1
12 9 24 1
13 10 11 2
14 10 12 1
15 12 13 2
16 12 14 1
17 14 15 2
18 15 16 1
19 15 17 1
20 17 18 2
21 17 22 1
22 18 19 1
23 19 20 2
24 20 21 1
25 20 23 1
26 21 22 2
27 24 25 1
28 25 26 1
29 26 27 1
30 26 31 1
31 27 28 1
32 28 29 1
33 29 30 1
34 30 31 1
35 4 32 1
36 5 33 1
37 6 34 1
38 7 35 1
39 8 36 1
40 18 37 1
41 19 38 1
42 21 39 1
43 22 40 1
44 24 41 1
45 24 42 1
46 25 43 1
47 25 44 1
48 26 45 1
49 27 46 1
50 27 47 1
51 28 48 1
52 28 49 1
53 30 50 1
54 30 51 1
55 31 52 1
56 31 53 1
@<TRIPOS>SUBSTRUCTURE
1	UNK0	1	GROUP	1 ****	UNK
# created with PyMOL 2.3.2
@<TRIPOS>MOLECULE
874
41 44 1                 
SMALL
USER_CHARGES
@<TRIPOS>ATOM
1	   F	3.422	0.219	1.136	 F	1	UNK0	0.000	
2	   C	3.386	1.542	0.804	C.2	1	UNK0	0.000	
3	   C	2.168	2.227	0.939	C.2	1	UNK0	0.000	
4	   C	2.182	3.554	0.593	C.2	1	UNK0	0.000	
5	   C	3.343	4.159	0.140	C.2	1	UNK0	0.000	
6	   C	4.524	3.489	0.010	C.2	1	UNK0	0.000	
7	   C	4.526	2.157	0.353	C.2	1	UNK0	0.000	
8	   N	1.022	1.528	1.414	N.pl3	1	UNK0	0.000	
9	   C	-0.262	2.025	1.615	C.2	1	UNK0	0.000	
10	   O	-0.563	3.208	1.387	O.2	1	UNK0	0.000	
11	   C	-1.360	1.154	2.121	C.3	1	UNK0	0.000	
12	   N	-0.855	-0.189	2.338	N.pl3	1	UNK0	0.000	
13	   N	-0.322	-0.703	3.425	N.pl3	1	UNK0	0.000	
14	   N	0.014	-1.968	3.219	N.pl3	1	UNK0	0.000	
15	   C	-0.315	-2.287	1.948	C.2	1	UNK0	0.000	
16	   C	-0.841	-1.198	1.426	C.2	1	UNK0	0.000	
17	   C	-1.180	-1.523	0.122	C.2	1	UNK0	0.000	
18	   O	-1.708	-0.729	-0.686	O.2	1	UNK0	0.000	
19	   N	-0.863	-2.801	-0.153	N.pl3	1	UNK0	0.000	
20	   C	-0.324	-3.278	0.984	C.2	1	UNK0	0.000	
21	   O	0.107	-4.439	1.157	O.2	1	UNK0	0.000	
22	   C	-1.064	-3.483	-1.391	C.2	1	UNK0	0.000	
23	   C	-2.016	-4.476	-1.514	C.2	1	UNK0	0.000	
24	   C	-2.224	-5.145	-2.704	C.2	1	UNK0	0.000	
25	   C	-1.481	-4.846	-3.827	C.2	1	UNK0	0.000	
26	   C	-0.524	-3.858	-3.727	C.2	1	UNK0	0.000	
27	   C	-0.332	-3.201	-2.528	C.2	1	UNK0	0.000	
28	  Br	-1.747	-5.756	-5.488	Br	1	UNK0	0.000	
29	   H	1.297	4.147	0.668	 H	1	UNK0	0.000	
30	   H	3.339	5.219	-0.133	 H	1	UNK0	0.000	
31	   H	5.402	4.007	-0.349	 H	1	UNK0	0.000	
32	   H	5.473	1.627	0.247	 H	1	UNK0	0.000	
33	   H	1.157	0.489	1.647	 H	1	UNK0	0.000	
34	   H	-2.147	1.111	1.321	 H	1	UNK0	0.000	
35	   H	-1.816	1.575	3.037	 H	1	UNK0	0.000	
36	   H	-0.193	-0.159	4.317	 H	1	UNK0	0.000	
37	   H	0.458	-2.612	3.918	 H	1	UNK0	0.000	
38	   H	-2.600	-4.705	-0.617	 H	1	UNK0	0.000	
39	   H	-2.970	-5.916	-2.785	 H	1	UNK0	0.000	
40	   H	0.064	-3.624	-4.623	 H	1	UNK0	0.000	
41	   H	0.415	-2.427	-2.442	 H	1	UNK0	0.000	
@<TRIPOS>BOND
1 1 2 1
2 2 3 2
3 2 7 1
4 3 4 1
5 3 8 1
6 4 5 2
7 5 6 1
8 6 7 2
9 8 9 1
10 9 10 2
11 9 11 1
12 11 12 1
13 12 13 1
14 12 16 1
15 13 14 1
16 14 15 1
17 15 16 2
18 15 20 1
19 16 17 1
20 17 18 2
21 17 19 1
22 19 20 1
23 19 22 1
24 20 21 2
25 22 23 2
26 22 27 1
27 23 24 1
28 24 25 2
29 25 26 1
30 25 28 1
31 26 27 2
32 4 29 1
33 5 30 1
34 6 31 1
35 7 32 1
36 8 33 1
37 11 34 1
38 11 35 1
39 13 36 1
40 14 37 1
41 23 38 1
42 24 39 1
43 26 40 1
44 27 41 1
@<TRIPOS>SUBSTRUCTURE
1	UNK0	1	GROUP	1 ****	UNK
# created with PyMOL 2.3.2
@<TRIPOS>MOLECULE
886
41 44 1                 
SMALL
USER_CHARGES
@<TRIPOS>ATOM
1	   F	-1.047	0.316	-7.491	 F	1	UNK0	0.000	
2	   C	-1.376	0.225	-6.168	C.2	1	UNK0	0.000	
3	   C	-1.554	1.362	-5.432	C.2	1	UNK0	0.000	
4	   C	-1.892	1.280	-4.079	C.2	1	UNK0	0.000	
5	   C	-2.055	0.069	-3.445	C.2	1	UNK0	0.000	
6	   C	-1.867	-1.065	-4.220	C.2	1	UNK0	0.000	
7	   C	-1.534	-0.996	-5.554	C.2	1	UNK0	0.000	
8	   N	-2.406	-0.075	-2.070	N.pl3	1	UNK0	0.000	
9	   C	-1.750	-0.737	-1.102	C.2	1	UNK0	0.000	
10	   O	-0.667	-1.340	-1.334	O.2	1	UNK0	0.000	
11	   C	-2.401	-0.663	0.115	C.2	1	UNK0	0.000	
12	   C	-3.487	0.067	-0.124	C.2	1	UNK0	0.000	
13	   N	-4.152	0.162	1.031	N.pl3	1	UNK0	0.000	
14	   N	-3.481	-0.500	1.955	N.pl3	1	UNK0	0.000	
15	   N	-2.384	-1.028	1.421	N.pl3	1	UNK0	0.000	
16	   C	-1.362	-1.819	2.043	C.3	1	UNK0	0.000	
17	   C	-0.251	-1.067	2.636	C.2	1	UNK0	0.000	
18	   O	-0.389	-0.667	3.802	O.2	1	UNK0	0.000	
19	   N	0.914	-0.820	1.904	N.pl3	1	UNK0	0.000	
20	   C	2.082	-0.123	2.292	C.2	1	UNK0	0.000	
21	   C	2.227	0.416	3.548	C.2	1	UNK0	0.000	
22	   C	3.365	1.112	3.967	C.2	1	UNK0	0.000	
23	   C	4.374	1.245	3.047	C.2	1	UNK0	0.000	
24	   C	4.255	0.716	1.786	C.2	1	UNK0	0.000	
25	   C	3.128	0.038	1.400	C.2	1	UNK0	0.000	
26	  Br	5.974	2.192	3.557	Br	1	UNK0	0.000	
27	   C	-3.503	0.433	-1.453	C.2	1	UNK0	0.000	
28	   O	-4.357	1.125	-2.077	O.2	1	UNK0	0.000	
29	   H	-1.428	2.314	-5.926	 H	1	UNK0	0.000	
30	   H	-2.028	2.179	-3.519	 H	1	UNK0	0.000	
31	   H	-1.997	-2.029	-3.710	 H	1	UNK0	0.000	
32	   H	-1.392	-1.889	-6.142	 H	1	UNK0	0.000	
33	   H	-5.061	0.690	1.143	 H	1	UNK0	0.000	
34	   H	-3.748	-0.604	2.944	 H	1	UNK0	0.000	
35	   H	-0.919	-2.482	1.241	 H	1	UNK0	0.000	
36	   H	-1.799	-2.560	2.773	 H	1	UNK0	0.000	
37	   H	0.965	-1.202	0.891	 H	1	UNK0	0.000	
38	   H	1.469	0.346	4.323	 H	1	UNK0	0.000	
39	   H	3.453	1.527	4.963	 H	1	UNK0	0.000	
40	   H	5.065	0.829	1.065	 H	1	UNK0	0.000	
41	   H	3.056	-0.381	0.375	 H	1	UNK0	0.000	
@<TRIPOS>BOND
1 1 2 1
2 2 3 2
3 2 7 1
4 3 4 1
5 4 5 2
6 5 6 1
7 5 8 1
8 6 7 2
9 8 9 1
10 8 27 1
11 9 10 2
12 9 11 1
13 11 12 2
14 11 15 1
15 12 13 1
16 12 27 1
17 13 14 1
18 14 15 1
19 15 16 1
20 16 17 1
21 17 18 2
22 17 19 1
23 19 20 1
24 20 21 2
25 20 25 1
26 21 22 1
27 22 23 2
28 23 24 1
29 23 26 1
30 24 25 2
31 27 28 2
32 3 29 1
33 4 30 1
34 6 31 1
35 7 32 1
36 13 33 1
37 14 34 1
38 16 35 1
39 16 36 1
40 19 37 1
41 21 38 1
42 22 39 1
43 24 40 1
44 25 41 1
@<TRIPOS>SUBSTRUCTURE
1	UNK0	1	GROUP	1 ****	UNK
# created with PyMOL 2.3.2
@<TRIPOS>MOLECULE
892
39 42 1                 
SMALL
USER_CHARGES
@<TRIPOS>ATOM
1	   I	-0.196	6.109	-0.630	 I	1	UNK0	0.000	
2	   C	-0.179	4.507	0.733	C.2	1	UNK0	0.000	
3	   C	-1.203	3.559	0.707	C.2	1	UNK0	0.000	
4	   C	-1.230	2.497	1.579	C.2	1	UNK0	0.000	
5	   C	-0.169	2.426	2.493	C.2	1	UNK0	0.000	
6	   C	0.832	3.362	2.512	C.2	1	UNK0	0.000	
7	   C	0.840	4.417	1.630	C.2	1	UNK0	0.000	
8	  Br	2.256	3.232	3.769	Br	1	UNK0	0.000	
9	   C	-2.288	1.453	1.587	C.3	1	UNK0	0.000	
10	   N	-1.613	0.184	1.740	N.pl3	1	UNK0	0.000	
11	   C	-0.885	-0.366	0.637	C.2	1	UNK0	0.000	
12	   S	0.447	-1.478	0.526	S.3	1	UNK0	0.000	
13	   C	0.621	-1.535	-1.164	C.2	1	UNK0	0.000	
14	   C	-0.348	-0.697	-1.595	C.2	1	UNK0	0.000	
15	   C	-1.124	-0.094	-0.679	C.2	1	UNK0	0.000	
16	   C	-2.256	0.863	-0.837	C.2	1	UNK0	0.000	
17	   O	-2.635	1.237	-1.972	O.2	1	UNK0	0.000	
18	   N	-2.937	1.376	0.289	N.pl3	1	UNK0	0.000	
19	   C	-0.428	-0.552	-3.110	C.3	1	UNK0	0.000	
20	   C	0.200	-1.758	-3.729	C.3	1	UNK0	0.000	
21	   N	1.610	-1.729	-3.309	N.4	1	UNK0	0.000	
22	   C	1.587	-2.305	-1.981	C.3	1	UNK0	0.000	
23	   C	2.445	-2.474	-4.221	C.3	1	UNK0	0.000	
24	   O	-2.212	3.698	-0.220	O.2	1	UNK0	0.000	
25	   H	-0.188	1.592	3.182	 H	1	UNK0	0.000	
26	   H	1.639	5.170	1.638	 H	1	UNK0	0.000	
27	   H	-3.030	1.628	2.394	 H	1	UNK0	0.000	
28	   H	-1.627	-0.368	2.626	 H	1	UNK0	0.000	
29	   H	-3.930	1.714	0.211	 H	1	UNK0	0.000	
30	   H	0.162	0.337	-3.364	 H	1	UNK0	0.000	
31	   H	-1.464	-0.407	-3.433	 H	1	UNK0	0.000	
32	   H	-0.268	-2.687	-3.363	 H	1	UNK0	0.000	
33	   H	0.140	-1.677	-4.813	 H	1	UNK0	0.000	
34	   H	1.910	-0.736	-3.213	 H	1	UNK0	0.000	
35	   H	1.318	-3.380	-2.001	 H	1	UNK0	0.000	
36	   H	2.623	-2.252	-1.593	 H	1	UNK0	0.000	
37	   H	2.892	-3.365	-3.749	 H	1	UNK0	0.000	
38	   H	3.299	-1.798	-4.498	 H	1	UNK0	0.000	
39	   H	1.940	-2.709	-5.181	 H	1	UNK0	0.000	
@<TRIPOS>BOND
1 1 2 1
2 2 3 2
3 2 7 1
4 3 4 1
5 3 24 1
6 4 5 2
7 4 9 1
8 5 6 1
9 6 7 2
10 6 8 1
11 9 10 1
12 9 18 1
13 10 11 1
14 11 12 1
15 11 15 2
16 12 13 1
17 13 14 2
18 13 22 1
19 14 15 1
20 14 19 1
21 15 16 1
22 16 17 2
23 16 18 1
24 19 20 1
25 20 21 1
26 21 22 1
27 21 23 1
28 5 25 1
29 7 26 1
30 9 27 1
31 10 28 1
32 18 29 1
33 19 30 1
34 19 31 1
35 20 32 1
36 20 33 1
37 21 34 1
38 22 35 1
39 22 36 1
40 23 37 1
41 23 38 1
42 23 39 1
@<TRIPOS>SUBSTRUCTURE
1	UNK0	1	GROUP	1 ****	UNK
# created with PyMOL 2.3.2
@<TRIPOS>MOLECULE
895
43 46 1                 
SMALL
USER_CHARGES
@<TRIPOS>ATOM
1	   I	7.212	1.041	1.663	 I	1	UNK0	0.000	
2	   C	5.126	0.750	1.776	C.2	1	UNK0	0.000	
3	   C	4.568	0.245	2.933	C.2	1	UNK0	0.000	
4	   C	3.191	0.047	3.022	C.2	1	UNK0	0.000	
5	   C	2.436	0.370	1.935	C.2	1	UNK0	0.000	
6	   C	2.971	0.880	0.759	C.2	1	UNK0	0.000	
7	   C	4.324	1.067	0.691	C.2	1	UNK0	0.000	
8	   C	2.038	1.193	-0.358	C.3	1	UNK0	0.000	
9	   N	0.910	1.899	0.250	N.pl3	1	UNK0	0.000	
10	   C	-0.449	1.651	-0.189	C.2	1	UNK0	0.000	
11	   S	-1.929	2.487	0.066	S.3	1	UNK0	0.000	
12	   C	-2.964	1.473	-0.815	C.2	1	UNK0	0.000	
13	   C	-2.128	0.499	-1.291	C.2	1	UNK0	0.000	
14	   C	-0.822	0.598	-0.961	C.2	1	UNK0	0.000	
15	   C	0.282	-0.326	-1.350	C.2	1	UNK0	0.000	
16	   O	0.069	-1.348	-2.070	O.2	1	UNK0	0.000	
17	   N	1.592	-0.058	-0.907	N.pl3	1	UNK0	0.000	
18	   C	-2.878	-0.533	-2.126	C.3	1	UNK0	0.000	
19	   C	-4.083	-1.011	-1.360	C.3	1	UNK0	0.000	
20	   N	-4.825	0.031	-0.733	N.4	1	UNK0	0.000	
21	   C	-4.422	1.358	-1.186	C.3	1	UNK0	0.000	
22	   C	-4.498	-0.006	0.701	C.3	1	UNK0	0.000	
23	   O	2.686	-0.464	4.210	O.3	1	UNK0	0.000	
24	   C	1.290	-0.671	4.317	C.3	1	UNK0	0.000	
25	   O	5.368	-0.071	4.015	O.2	1	UNK0	0.000	
26	   H	1.361	0.220	1.993	 H	1	UNK0	0.000	
27	   H	4.743	1.467	-0.234	 H	1	UNK0	0.000	
28	   H	2.511	1.848	-1.114	 H	1	UNK0	0.000	
29	   H	1.044	2.593	1.008	 H	1	UNK0	0.000	
30	   H	2.315	-0.821	-0.976	 H	1	UNK0	0.000	
31	   H	-3.146	-0.075	-3.077	 H	1	UNK0	0.000	
32	   H	-2.234	-1.415	-2.293	 H	1	UNK0	0.000	
33	   H	-3.841	-1.826	-0.648	 H	1	UNK0	0.000	
34	   H	-4.765	-1.488	-2.124	 H	1	UNK0	0.000	
35	   H	-5.869	-0.072	-0.831	 H	1	UNK0	0.000	
36	   H	-5.015	2.086	-0.617	 H	1	UNK0	0.000	
37	   H	-4.569	1.386	-2.276	 H	1	UNK0	0.000	
38	   H	-3.402	-0.161	0.776	 H	1	UNK0	0.000	
39	   H	-4.760	0.972	1.162	 H	1	UNK0	0.000	
40	   H	-5.076	-0.788	1.217	 H	1	UNK0	0.000	
41	   H	1.005	-1.565	3.691	 H	1	UNK0	0.000	
42	   H	0.699	0.178	3.924	 H	1	UNK0	0.000	
43	   H	0.972	-0.817	5.370	 H	1	UNK0	0.000	
@<TRIPOS>BOND
1 1 2 1
2 2 3 2
3 2 7 1
4 3 4 1
5 3 25 1
6 4 5 2
7 4 23 1
8 5 6 1
9 6 7 2
10 6 8 1
11 8 9 1
12 8 17 1
13 9 10 1
14 10 11 1
15 10 14 2
16 11 12 1
17 12 13 2
18 12 21 1
19 13 14 1
20 13 18 1
21 14 15 1
22 15 16 2
23 15 17 1
24 18 19 1
25 19 20 1
26 20 21 1
27 20 22 1
28 23 24 1
29 5 26 1
30 7 27 1
31 8 28 1
32 9 29 1
33 17 30 1
34 18 31 1
35 18 32 1
36 19 33 1
37 19 34 1
38 20 35 1
39 21 36 1
40 21 37 1
41 22 38 1
42 22 39 1
43 22 40 1
44 24 41 1
45 24 42 1
46 24 43 1
@<TRIPOS>SUBSTRUCTURE
1	UNK0	1	GROUP	1 ****	UNK
# created with PyMOL 2.3.2
@<TRIPOS>MOLECULE
906
38 41 1                 
SMALL
USER_CHARGES
@<TRIPOS>ATOM
1	   I	-3.452	5.826	-1.500	 I	1	UNK0	0.000	
2	   C	-4.670	4.304	-0.688	C.2	1	UNK0	0.000	
3	   C	-4.070	3.129	-0.183	C.2	1	UNK0	0.000	
4	   C	-4.841	2.132	0.343	C.2	1	UNK0	0.000	
5	   C	-6.225	2.323	0.362	C.2	1	UNK0	0.000	
6	   C	-6.833	3.448	-0.120	C.2	1	UNK0	0.000	
7	   C	-6.034	4.456	-0.655	C.2	1	UNK0	0.000	
8	   N	-2.666	3.012	-0.227	N.pl3	1	UNK0	0.000	
9	   C	-1.867	1.939	0.218	C.2	1	UNK0	0.000	
10	   N	-2.302	0.810	0.765	N.2	1	UNK0	0.000	
11	   C	-1.531	-0.207	1.185	C.2	1	UNK0	0.000	
12	   N	-1.686	-1.412	1.747	N.2	1	UNK0	0.000	
13	   O	-0.529	-1.978	1.935	O.3	1	UNK0	0.000	
14	   N	0.416	-1.187	1.513	N.2	1	UNK0	0.000	
15	   C	-0.147	-0.067	1.035	C.2	1	UNK0	0.000	
16	   N	0.342	1.035	0.496	N.pl3	1	UNK0	0.000	
17	   C	-0.466	2.019	0.093	C.2	1	UNK0	0.000	
18	   N	0.314	2.971	-0.393	N.2	1	UNK0	0.000	
19	   N	1.599	2.588	-0.295	N.2	1	UNK0	0.000	
20	   C	1.643	1.369	0.262	C.2	1	UNK0	0.000	
21	   C	2.821	0.521	0.586	C.3	1	UNK0	0.000	
22	   C	3.199	-0.398	-0.514	C.2	1	UNK0	0.000	
23	   O	3.645	-0.002	-1.611	O.co2	1	UNK0	0.000	
24	   O	3.051	-1.744	-0.324	O.3	1	UNK0	0.000	
25	   C	3.364	-2.722	-1.250	C.3	1	UNK0	0.000	
26	   C	4.784	-2.809	-1.661	C.3	1	UNK0	0.000	
27	   H	-4.465	1.211	0.747	 H	1	UNK0	0.000	
28	   H	-6.855	1.533	0.780	 H	1	UNK0	0.000	
29	   H	-7.903	3.567	-0.094	 H	1	UNK0	0.000	
30	   H	-6.525	5.341	-1.034	 H	1	UNK0	0.000	
31	   H	-2.158	3.862	-0.660	 H	1	UNK0	0.000	
32	   H	2.709	-0.003	1.552	 H	1	UNK0	0.000	
33	   H	3.722	1.196	0.721	 H	1	UNK0	0.000	
34	   H	3.007	-3.699	-0.818	 H	1	UNK0	0.000	
35	   H	2.730	-2.600	-2.175	 H	1	UNK0	0.000	
36	   H	5.172	-3.826	-1.356	 H	1	UNK0	0.000	
37	   H	5.435	-2.090	-1.113	 H	1	UNK0	0.000	
38	   H	4.873	-2.710	-2.750	 H	1	UNK0	0.000	
@<TRIPOS>BOND
1 1 2 1
2 2 3 2
3 2 7 1
4 3 4 1
5 3 8 1
6 4 5 2
7 5 6 1
8 6 7 2
9 8 9 1
10 9 10 2
11 9 17 1
12 10 11 1
13 11 12 2
14 11 15 1
15 12 13 1
16 13 14 1
17 14 15 2
18 15 16 1
19 16 17 1
20 16 20 1
21 17 18 2
22 18 19 1
23 19 20 2
24 20 21 1
25 21 22 1
26 22 23 2
27 22 24 1
28 24 25 1
29 25 26 1
30 4 27 1
31 5 28 1
32 6 29 1
33 7 30 1
34 8 31 1
35 21 32 1
36 21 33 1
37 25 34 1
38 25 35 1
39 26 36 1
40 26 37 1
41 26 38 1
@<TRIPOS>SUBSTRUCTURE
1	UNK0	1	GROUP	1 ****	UNK
# created with PyMOL 2.3.2
@<TRIPOS>MOLECULE
908
34 37 1                 
SMALL
USER_CHARGES
@<TRIPOS>ATOM
1	   I	0.591	-2.886	1.444	 I	1	UNK0	0.000	
2	   C	0.953	-3.204	-0.617	C.2	1	UNK0	0.000	
3	   C	0.904	-2.102	-1.446	C.2	1	UNK0	0.000	
4	   C	1.142	-2.330	-2.786	C.2	1	UNK0	0.000	
5	   C	1.416	-3.600	-3.264	C.2	1	UNK0	0.000	
6	   C	1.462	-4.694	-2.426	C.2	1	UNK0	0.000	
7	   C	1.225	-4.474	-1.085	C.2	1	UNK0	0.000	
8	   N	0.621	-0.797	-0.939	N.pl3	1	UNK0	0.000	
9	   C	-0.566	-0.266	-0.596	C.2	1	UNK0	0.000	
10	   O	-1.682	-0.863	-0.669	O.2	1	UNK0	0.000	
11	   C	-0.427	1.031	-0.146	C.2	1	UNK0	0.000	
12	   C	0.868	1.293	-0.216	C.2	1	UNK0	0.000	
13	   N	0.989	2.566	0.229	N.pl3	1	UNK0	0.000	
14	   N	-0.192	3.057	0.557	N.pl3	1	UNK0	0.000	
15	   N	-1.082	2.125	0.333	N.pl3	1	UNK0	0.000	
16	   C	-2.488	2.182	0.533	C.2	1	UNK0	0.000	
17	   C	-3.042	2.446	1.766	C.2	1	UNK0	0.000	
18	   C	-4.417	2.495	1.928	C.2	1	UNK0	0.000	
19	   C	-5.283	2.284	0.875	C.2	1	UNK0	0.000	
20	   C	-4.730	2.020	-0.360	C.2	1	UNK0	0.000	
21	   C	-3.368	1.969	-0.530	C.2	1	UNK0	0.000	
22	   C	1.523	0.173	-0.703	C.2	1	UNK0	0.000	
23	   O	2.781	0.099	-0.890	O.2	1	UNK0	0.000	
24	   H	1.105	-1.471	-3.441	 H	1	UNK0	0.000	
25	   H	1.599	-3.756	-4.317	 H	1	UNK0	0.000	
26	   H	1.679	-5.674	-2.831	 H	1	UNK0	0.000	
27	   H	1.263	-5.344	-0.426	 H	1	UNK0	0.000	
28	   H	1.878	3.103	0.310	 H	1	UNK0	0.000	
29	   H	-0.383	4.011	0.925	 H	1	UNK0	0.000	
30	   H	-2.385	2.616	2.610	 H	1	UNK0	0.000	
31	   H	-4.815	2.705	2.910	 H	1	UNK0	0.000	
32	   H	-6.357	2.330	1.038	 H	1	UNK0	0.000	
33	   H	-5.415	1.854	-1.188	 H	1	UNK0	0.000	
34	   H	-2.915	1.765	-1.480	 H	1	UNK0	0.000	
@<TRIPOS>BOND
1 1 2 1
2 2 3 2
3 2 7 1
4 3 4 1
5 3 8 1
6 4 5 2
7 5 6 1
8 6 7 2
9 8 9 1
10 8 22 1
11 9 10 2
12 9 11 1
13 11 12 2
14 11 15 1
15 12 13 1
16 12 22 1
17 13 14 1
18 14 15 1
19 15 16 1
20 16 17 2
21 16 21 1
22 17 18 1
23 18 19 2
24 19 20 1
25 20 21 2
26 22 23 2
27 4 24 1
28 5 25 1
29 6 26 1
30 7 27 1
31 13 28 1
32 14 29 1
33 17 30 1
34 18 31 1
35 19 32 1
36 20 33 1
37 21 34 1
@<TRIPOS>SUBSTRUCTURE
1	UNK0	1	GROUP	1 ****	UNK
# created with PyMOL 2.3.2
@<TRIPOS>MOLECULE
910
40 43 1                 
SMALL
USER_CHARGES
@<TRIPOS>ATOM
1	   I	1.604	-4.472	-5.092	 I	1	UNK0	0.000	
2	   C	2.391	-4.195	-3.134	C.2	1	UNK0	0.000	
3	   C	2.383	-3.025	-2.406	C.2	1	UNK0	0.000	
4	   N	2.978	-3.280	-1.238	N.pl3	1	UNK0	0.000	
5	   N	3.344	-4.556	-1.227	N.2	1	UNK0	0.000	
6	   C	3.005	-5.154	-2.367	C.2	1	UNK0	0.000	
7	   C	3.265	-2.350	-0.130	C.3	1	UNK0	0.000	
8	   C	1.854	-1.721	-2.891	C.2	1	UNK0	0.000	
9	   O	1.989	-1.641	-4.180	O.2	1	UNK0	0.000	
10	   N	1.315	-0.764	-2.137	N.pl3	1	UNK0	0.000	
11	   C	0.757	0.227	-1.356	C.2	1	UNK0	0.000	
12	   C	0.330	-0.193	-0.075	C.2	1	UNK0	0.000	
13	   N	0.303	-1.394	0.491	N.2	1	UNK0	0.000	
14	   O	-0.184	-1.270	1.688	O.3	1	UNK0	0.000	
15	   N	-0.477	-0.043	1.928	N.2	1	UNK0	0.000	
16	   C	-0.169	0.675	0.840	C.2	1	UNK0	0.000	
17	   C	-0.270	2.013	0.530	C.2	1	UNK0	0.000	
18	   C	0.134	2.453	-0.704	C.2	1	UNK0	0.000	
19	   C	0.644	1.580	-1.645	C.2	1	UNK0	0.000	
20	   N	-0.798	2.877	1.501	N.pl3	1	UNK0	0.000	
21	   C	-0.706	4.334	1.398	C.3	1	UNK0	0.000	
22	   C	0.125	4.749	2.595	C.3	1	UNK0	0.000	
23	   O	0.496	3.691	3.409	O.3	1	UNK0	0.000	
24	   C	-0.539	2.889	3.841	C.3	1	UNK0	0.000	
25	   C	-1.486	2.507	2.717	C.3	1	UNK0	0.000	
26	   H	3.166	-6.192	-2.661	 H	1	UNK0	0.000	
27	   H	2.773	-2.699	0.788	 H	1	UNK0	0.000	
28	   H	2.966	-1.326	-0.370	 H	1	UNK0	0.000	
29	   H	4.384	-2.371	0.034	 H	1	UNK0	0.000	
30	   H	0.930	-0.081	-3.250	 H	1	UNK0	0.000	
31	   H	0.053	3.487	-0.961	 H	1	UNK0	0.000	
32	   H	0.951	2.002	-2.587	 H	1	UNK0	0.000	
33	   H	-0.369	4.728	0.466	 H	1	UNK0	0.000	
34	   H	-1.739	4.762	1.571	 H	1	UNK0	0.000	
35	   H	-0.337	5.599	3.137	 H	1	UNK0	0.000	
36	   H	1.096	5.151	2.179	 H	1	UNK0	0.000	
37	   H	-0.064	1.931	4.183	 H	1	UNK0	0.000	
38	   H	-1.090	3.302	4.700	 H	1	UNK0	0.000	
39	   H	-2.393	3.192	2.815	 H	1	UNK0	0.000	
40	   H	-1.893	1.513	2.775	 H	1	UNK0	0.000	
@<TRIPOS>BOND
1 1 2 1
2 2 3 2
3 2 6 1
4 3 4 1
5 3 8 1
6 4 5 1
7 4 7 1
8 5 6 2
9 8 9 2
10 8 10 1
11 10 11 1
12 11 12 1
13 11 19 2
14 12 13 2
15 12 16 1
16 13 14 1
17 14 15 1
18 15 16 2
19 16 17 1
20 17 18 2
21 17 20 1
22 18 19 1
23 20 21 1
24 20 25 1
25 21 22 1
26 22 23 1
27 23 24 1
28 24 25 1
29 6 26 1
30 7 27 1
31 7 28 1
32 7 29 1
33 10 30 1
34 18 31 1
35 19 32 1
36 21 33 1
37 21 34 1
38 22 35 1
39 22 36 1
40 24 37 1
41 24 38 1
42 25 39 1
43 25 40 1
@<TRIPOS>SUBSTRUCTURE
1	UNK0	1	GROUP	1 ****	UNK
# created with PyMOL 2.3.2
@<TRIPOS>MOLECULE
920
40 43 1                 
SMALL
USER_CHARGES
@<TRIPOS>ATOM
1	   I	4.199	4.267	3.466	 I	1	UNK0	0.000	
2	   C	3.459	3.911	1.553	C.2	1	UNK0	0.000	
3	   C	2.517	2.947	1.250	C.2	1	UNK0	0.000	
4	   C	2.050	2.739	-0.020	C.2	1	UNK0	0.000	
5	   C	2.498	3.484	-1.068	C.2	1	UNK0	0.000	
6	   C	3.449	4.462	-0.782	C.2	1	UNK0	0.000	
7	   C	3.913	4.670	0.474	C.2	1	UNK0	0.000	
8	   C	2.017	3.305	-2.411	C.2	1	UNK0	0.000	
9	   O	2.628	4.047	-3.296	O.2	1	UNK0	0.000	
10	   C	0.996	2.474	-2.992	C.3	1	UNK0	0.000	
11	   N	-0.002	1.855	-2.203	N.pl3	1	UNK0	0.000	
12	   C	-0.138	0.578	-2.024	C.2	1	UNK0	0.000	
13	   S	0.614	-0.986	-2.501	S.3	1	UNK0	0.000	
14	   C	-0.541	-1.964	-1.568	C.2	1	UNK0	0.000	
15	   C	-1.391	-1.160	-0.969	C.2	1	UNK0	0.000	
16	   N	-1.203	0.226	-1.192	N.pl3	1	UNK0	0.000	
17	   C	-1.839	1.502	-0.775	C.3	1	UNK0	0.000	
18	   C	-1.058	2.537	-1.507	C.3	1	UNK0	0.000	
19	   C	-2.461	-1.776	-0.130	C.2	1	UNK0	0.000	
20	   C	-3.379	-1.023	0.554	C.2	1	UNK0	0.000	
21	   C	-4.393	-1.609	1.337	C.2	1	UNK0	0.000	
22	   C	-4.487	-2.978	1.435	C.2	1	UNK0	0.000	
23	   C	-3.570	-3.737	0.752	C.2	1	UNK0	0.000	
24	   C	-2.574	-3.150	-0.018	C.2	1	UNK0	0.000	
25	   H	2.153	2.344	2.090	 H	1	UNK0	0.000	
26	   H	1.336	1.966	-0.147	 H	1	UNK0	0.000	
27	   H	3.815	5.060	-1.590	 H	1	UNK0	0.000	
28	   H	4.665	5.440	0.714	 H	1	UNK0	0.000	
29	   H	0.436	3.022	-3.836	 H	1	UNK0	0.000	
30	   H	1.543	1.678	-3.604	 H	1	UNK0	0.000	
31	   H	-0.454	-3.049	-1.571	 H	1	UNK0	0.000	
32	   H	-1.743	1.676	0.306	 H	1	UNK0	0.000	
33	   H	-2.886	1.570	-1.138	 H	1	UNK0	0.000	
34	   H	-0.666	3.281	-0.782	 H	1	UNK0	0.000	
35	   H	-1.693	3.096	-2.257	 H	1	UNK0	0.000	
36	   H	-3.325	0.046	0.495	 H	1	UNK0	0.000	
37	   H	-5.074	-0.975	1.842	 H	1	UNK0	0.000	
38	   H	-5.240	-3.485	2.017	 H	1	UNK0	0.000	
39	   H	-3.632	-4.809	0.820	 H	1	UNK0	0.000	
40	   H	-1.882	-3.812	-0.532	 H	1	UNK0	0.000	
@<TRIPOS>BOND
1 1 2 1
2 2 3 2
3 2 7 1
4 3 4 1
5 4 5 2
6 5 6 1
7 5 8 1
8 6 7 2
9 8 9 2
10 8 10 1
11 10 11 1
12 11 12 2
13 11 18 1
14 12 13 1
15 12 16 1
16 13 14 1
17 14 15 2
18 15 16 1
19 15 19 1
20 16 17 1
21 17 18 1
22 19 20 2
23 19 24 1
24 20 21 1
25 21 22 2
26 22 23 1
27 23 24 2
28 3 25 1
29 4 26 1
30 6 27 1
31 7 28 1
32 10 29 1
33 10 30 1
34 14 31 1
35 17 32 1
36 17 33 1
37 18 34 1
38 18 35 1
39 20 36 1
40 21 37 1
41 22 38 1
42 23 39 1
43 24 40 1
@<TRIPOS>SUBSTRUCTURE
1	UNK0	1	GROUP	1 ****	UNK
# created with PyMOL 2.3.2
@<TRIPOS>MOLECULE
924
50 53 1                 
SMALL
USER_CHARGES
@<TRIPOS>ATOM
1	   I	1.199	-7.299	-2.735	 I	1	UNK0	0.000	
2	   C	0.749	-5.319	-3.239	C.2	1	UNK0	0.000	
3	   C	1.553	-4.273	-2.906	C.2	1	UNK0	0.000	
4	   C	1.193	-2.968	-3.274	C.2	1	UNK0	0.000	
5	   C	0.054	-2.676	-3.965	C.2	1	UNK0	0.000	
6	   C	-0.756	-3.773	-4.295	C.2	1	UNK0	0.000	
7	   C	-0.408	-5.053	-3.937	C.2	1	UNK0	0.000	
8	   C	-0.406	-1.382	-4.388	C.2	1	UNK0	0.000	
9	   N	0.140	-0.262	-4.205	N.2	1	UNK0	0.000	
10	   N	1.311	-0.081	-3.547	N.pl3	1	UNK0	0.000	
11	   C	1.289	0.374	-2.173	C.2	1	UNK0	0.000	
12	   N	0.118	0.614	-1.559	N.2	1	UNK0	0.000	
13	   C	0.074	1.036	-0.289	C.2	1	UNK0	0.000	
14	   N	1.252	1.204	0.334	N.2	1	UNK0	0.000	
15	   C	2.446	0.973	-0.248	C.2	1	UNK0	0.000	
16	   N	2.447	0.551	-1.526	N.2	1	UNK0	0.000	
17	   N	3.647	1.175	0.484	N.pl3	1	UNK0	0.000	
18	   C	4.921	0.932	-0.152	C.3	1	UNK0	0.000	
19	   C	5.826	0.369	0.953	C.3	1	UNK0	0.000	
20	   O	6.020	1.366	1.873	O.3	1	UNK0	0.000	
21	   C	4.905	1.827	2.515	C.3	1	UNK0	0.000	
22	   C	3.601	1.613	1.836	C.3	1	UNK0	0.000	
23	   N	-1.158	1.297	0.384	N.pl3	1	UNK0	0.000	
24	   C	-2.440	1.127	-0.230	C.3	1	UNK0	0.000	
25	   C	-3.492	1.676	0.736	C.3	1	UNK0	0.000	
26	   O	-3.154	2.939	1.193	O.3	1	UNK0	0.000	
27	   C	-2.016	2.957	1.961	C.3	1	UNK0	0.000	
28	   C	-1.123	1.759	1.762	C.3	1	UNK0	0.000	
29	   H	2.461	-4.472	-2.359	 H	1	UNK0	0.000	
30	   H	1.881	-2.228	-2.971	 H	1	UNK0	0.000	
31	   H	-1.673	-3.624	-4.840	 H	1	UNK0	0.000	
32	   H	-1.091	-5.846	-4.231	 H	1	UNK0	0.000	
33	   H	-1.372	-1.317	-4.957	 H	1	UNK0	0.000	
34	   H	2.224	-0.245	-4.025	 H	1	UNK0	0.000	
35	   H	5.334	1.877	-0.530	 H	1	UNK0	0.000	
36	   H	4.852	0.151	-0.938	 H	1	UNK0	0.000	
37	   H	5.354	-0.534	1.343	 H	1	UNK0	0.000	
38	   H	6.790	0.143	0.475	 H	1	UNK0	0.000	
39	   H	4.887	1.491	3.595	 H	1	UNK0	0.000	
40	   H	5.037	2.947	2.610	 H	1	UNK0	0.000	
41	   H	2.940	2.528	1.866	 H	1	UNK0	0.000	
42	   H	3.026	0.869	2.465	 H	1	UNK0	0.000	
43	   H	-2.539	1.575	-1.224	 H	1	UNK0	0.000	
44	   H	-2.629	0.026	-0.304	 H	1	UNK0	0.000	
45	   H	-3.602	0.930	1.566	 H	1	UNK0	0.000	
46	   H	-4.473	1.754	0.227	 H	1	UNK0	0.000	
47	   H	-2.239	3.003	3.062	 H	1	UNK0	0.000	
48	   H	-1.425	3.866	1.667	 H	1	UNK0	0.000	
49	   H	-1.461	0.948	2.442	 H	1	UNK0	0.000	
50	   H	-0.089	2.088	2.046	 H	1	UNK0	0.000	
@<TRIPOS>BOND
1 1 2 1
2 2 3 2
3 2 7 1
4 3 4 1
5 4 5 2
6 5 6 1
7 5 8 1
8 6 7 2
9 8 9 2
10 9 10 1
11 10 11 1
12 11 12 2
13 11 16 1
14 12 13 1
15 13 14 2
16 13 23 1
17 14 15 1
18 15 16 2
19 15 17 1
20 17 18 1
21 17 22 1
22 18 19 1
23 19 20 1
24 20 21 1
25 21 22 1
26 23 24 1
27 23 28 1
28 24 25 1
29 25 26 1
30 26 27 1
31 27 28 1
32 3 29 1
33 4 30 1
34 6 31 1
35 7 32 1
36 8 33 1
37 10 34 1
38 18 35 1
39 18 36 1
40 19 37 1
41 19 38 1
42 21 39 1
43 21 40 1
44 22 41 1
45 22 42 1
46 24 43 1
47 24 44 1
48 25 45 1
49 25 46 1
50 27 47 1
51 27 48 1
52 28 49 1
53 28 50 1
@<TRIPOS>SUBSTRUCTURE
1	UNK0	1	GROUP	1 ****	UNK
# created with PyMOL 2.3.2
@<TRIPOS>MOLECULE
935
52 56 1                 
SMALL
USER_CHARGES
@<TRIPOS>ATOM
1	   I	-4.812	-6.336	1.301	 I	1	UNK0	0.000	
2	   C	-3.541	-4.829	0.581	C.2	1	UNK0	0.000	
3	   C	-3.952	-4.016	-0.470	C.2	1	UNK0	0.000	
4	   C	-3.132	-3.034	-0.944	C.2	1	UNK0	0.000	
5	   C	-1.872	-2.795	-0.419	C.2	1	UNK0	0.000	
6	   C	-1.455	-3.605	0.632	C.2	1	UNK0	0.000	
7	   C	-2.291	-4.595	1.104	C.2	1	UNK0	0.000	
8	   N	-1.021	-1.773	-0.914	N.pl3	1	UNK0	0.000	
9	   C	-0.844	-0.621	-0.244	C.2	1	UNK0	0.000	
10	   C	-0.022	0.384	-0.705	C.2	1	UNK0	0.000	
11	   C	0.615	0.140	-1.906	C.2	1	UNK0	0.000	
12	   O	1.403	0.962	-2.464	O.2	1	UNK0	0.000	
13	   N	0.443	-1.029	-2.598	N.pl3	1	UNK0	0.000	
14	   C	-0.376	-1.959	-2.077	C.2	1	UNK0	0.000	
15	   O	-0.565	-3.048	-2.676	O.2	1	UNK0	0.000	
16	   C	0.232	1.645	-0.033	C.3	1	UNK0	0.000	
17	   N	0.137	1.663	1.392	N.4	1	UNK0	0.000	
18	   C	1.109	0.848	2.068	C.3	1	UNK0	0.000	
19	   C	2.194	0.324	1.151	C.3	1	UNK0	0.000	
20	   C	2.650	1.454	0.259	C.2	1	UNK0	0.000	
21	   C	1.622	2.144	-0.332	C.2	1	UNK0	0.000	
22	   C	1.882	3.221	-1.145	C.2	1	UNK0	0.000	
23	   C	3.212	3.568	-1.335	C.2	1	UNK0	0.000	
24	   C	4.257	2.884	-0.749	C.2	1	UNK0	0.000	
25	   C	3.948	1.798	0.069	C.2	1	UNK0	0.000	
26	   O	5.446	3.480	-1.139	O.3	1	UNK0	0.000	
27	   C	5.194	4.323	-2.275	C.3	1	UNK0	0.000	
28	   O	3.817	4.589	-2.084	O.3	1	UNK0	0.000	
29	   O	0.852	3.903	-1.728	O.3	1	UNK0	0.000	
30	   C	0.167	4.998	-1.209	C.3	1	UNK0	0.000	
31	   C	0.471	3.058	1.782	C.3	1	UNK0	0.000	
32	   O	-1.497	-0.416	0.944	O.2	1	UNK0	0.000	
33	   H	-4.930	-4.194	-0.885	 H	1	UNK0	0.000	
34	   H	-3.459	-2.406	-1.762	 H	1	UNK0	0.000	
35	   H	-0.465	-3.414	1.041	 H	1	UNK0	0.000	
36	   H	-1.970	-5.218	1.914	 H	1	UNK0	0.000	
37	   H	0.924	-1.208	-3.499	 H	1	UNK0	0.000	
38	   H	-0.452	2.403	-0.452	 H	1	UNK0	0.000	
39	   H	-0.810	1.565	1.794	 H	1	UNK0	0.000	
40	   H	0.640	-0.020	2.557	 H	1	UNK0	0.000	
41	   H	1.650	1.393	2.891	 H	1	UNK0	0.000	
42	   H	1.922	-0.576	0.588	 H	1	UNK0	0.000	
43	   H	3.082	0.063	1.763	 H	1	UNK0	0.000	
44	   H	4.720	1.233	0.548	 H	1	UNK0	0.000	
45	   H	5.271	3.700	-3.196	 H	1	UNK0	0.000	
46	   H	5.822	5.212	-2.282	 H	1	UNK0	0.000	
47	   H	-0.911	4.694	-1.086	 H	1	UNK0	0.000	
48	   H	0.565	5.384	-0.256	 H	1	UNK0	0.000	
49	   H	0.126	5.867	-1.919	 H	1	UNK0	0.000	
50	   H	-0.264	3.747	1.371	 H	1	UNK0	0.000	
51	   H	1.515	3.242	1.495	 H	1	UNK0	0.000	
52	   H	0.450	3.108	2.904	 H	1	UNK0	0.000	
@<TRIPOS>BOND
1 1 2 1
2 2 3 2
3 2 7 1
4 3 4 1
5 4 5 2
6 5 6 1
7 5 8 1
8 6 7 2
9 8 9 1
10 8 14 1
11 9 10 2
12 9 32 1
13 10 11 1
14 10 16 1
15 11 12 2
16 11 13 1
17 13 14 1
18 14 15 2
19 16 17 1
20 16 21 1
21 17 18 1
22 17 31 1
23 18 19 1
24 19 20 1
25 20 21 2
26 20 25 1
27 21 22 1
28 22 23 2
29 22 29 1
30 23 24 1
31 23 28 1
32 24 25 2
33 24 26 1
34 26 27 1
35 27 28 1
36 29 30 1
37 3 33 1
38 4 34 1
39 6 35 1
40 7 36 1
41 13 37 1
42 16 38 1
43 17 39 1
44 18 40 1
45 18 41 1
46 19 42 1
47 19 43 1
48 25 44 1
49 27 45 1
50 27 46 1
51 30 47 1
52 30 48 1
53 30 49 1
54 31 50 1
55 31 51 1
56 31 52 1
@<TRIPOS>SUBSTRUCTURE
1	UNK0	1	GROUP	1 ****	UNK
# created with PyMOL 2.3.2
@<TRIPOS>MOLECULE
937
44 47 1                 
SMALL
USER_CHARGES
@<TRIPOS>ATOM
1	   I	1.509	5.424	2.744	 I	1	UNK0	0.000	
2	   C	0.376	3.910	1.802	C.2	1	UNK0	0.000	
3	   C	-0.963	3.721	2.072	C.2	1	UNK0	0.000	
4	   C	-1.679	2.723	1.442	C.2	1	UNK0	0.000	
5	   C	-1.090	1.879	0.524	C.2	1	UNK0	0.000	
6	   C	0.245	2.084	0.269	C.2	1	UNK0	0.000	
7	   C	0.981	3.076	0.887	C.2	1	UNK0	0.000	
8	   N	-1.880	0.854	-0.108	N.pl3	1	UNK0	0.000	
9	   C	-1.571	-0.521	-0.264	C.2	1	UNK0	0.000	
10	   O	-0.744	-1.137	0.457	O.2	1	UNK0	0.000	
11	   C	-2.369	-1.089	-1.386	C.3	1	UNK0	0.000	
12	   C	-3.609	-0.212	-1.349	C.3	1	UNK0	0.000	
13	   C	-3.158	1.041	-0.712	C.2	1	UNK0	0.000	
14	   O	-3.787	2.139	-0.685	O.2	1	UNK0	0.000	
15	   N	-1.622	-0.964	-2.569	N.3	1	UNK0	0.000	
16	   C	-1.281	0.287	-3.082	C.3	1	UNK0	0.000	
17	   C	0.007	0.095	-3.925	C.3	1	UNK0	0.000	
18	   N	0.962	-0.652	-3.120	N.pl3	1	UNK0	0.000	
19	   C	0.552	-1.967	-2.694	C.3	1	UNK0	0.000	
20	   C	-0.933	-2.105	-3.019	C.3	1	UNK0	0.000	
21	   C	2.215	-0.105	-2.776	C.2	1	UNK0	0.000	
22	   N	2.605	1.102	-3.269	N.2	1	UNK0	0.000	
23	   C	3.770	1.674	-2.973	C.2	1	UNK0	0.000	
24	   C	4.663	1.038	-2.121	C.2	1	UNK0	0.000	
25	   C	4.261	-0.189	-1.623	C.2	1	UNK0	0.000	
26	   N	3.078	-0.728	-1.947	N.2	1	UNK0	0.000	
27	   H	-1.437	4.369	2.783	 H	1	UNK0	0.000	
28	   H	-2.741	2.569	1.655	 H	1	UNK0	0.000	
29	   H	0.728	1.433	-0.447	 H	1	UNK0	0.000	
30	   H	2.041	3.224	0.672	 H	1	UNK0	0.000	
31	   H	-2.703	-2.115	-1.153	 H	1	UNK0	0.000	
32	   H	-4.001	0.025	-2.354	 H	1	UNK0	0.000	
33	   H	-4.385	-0.664	-0.697	 H	1	UNK0	0.000	
34	   H	-2.005	0.818	-3.702	 H	1	UNK0	0.000	
35	   H	-0.908	0.934	-2.233	 H	1	UNK0	0.000	
36	   H	0.463	1.069	-4.184	 H	1	UNK0	0.000	
37	   H	-0.230	-0.417	-4.883	 H	1	UNK0	0.000	
38	   H	1.050	-2.770	-3.286	 H	1	UNK0	0.000	
39	   H	0.705	-2.152	-1.617	 H	1	UNK0	0.000	
40	   H	-1.342	-3.043	-2.575	 H	1	UNK0	0.000	
41	   H	-1.014	-2.271	-4.129	 H	1	UNK0	0.000	
42	   H	4.055	2.633	-3.378	 H	1	UNK0	0.000	
43	   H	5.610	1.498	-1.879	 H	1	UNK0	0.000	
44	   H	4.961	-0.688	-0.956	 H	1	UNK0	0.000	
@<TRIPOS>BOND
1 1 2 1
2 2 3 2
3 2 7 1
4 3 4 1
5 4 5 2
6 5 6 1
7 5 8 1
8 6 7 2
9 8 9 1
10 8 13 1
11 9 10 2
12 9 11 1
13 11 12 1
14 11 15 1
15 12 13 1
16 13 14 2
17 15 16 1
18 15 20 1
19 16 17 1
20 17 18 1
21 18 19 1
22 18 21 1
23 19 20 1
24 21 22 2
25 21 26 1
26 22 23 1
27 23 24 2
28 24 25 1
29 25 26 2
30 3 27 1
31 4 28 1
32 6 29 1
33 7 30 1
34 11 31 1
35 12 32 1
36 12 33 1
37 16 34 1
38 16 35 1
39 17 36 1
40 17 37 1
41 19 38 1
42 19 39 1
43 20 40 1
44 20 41 1
45 23 42 1
46 24 43 1
47 25 44 1
@<TRIPOS>SUBSTRUCTURE
1	UNK0	1	GROUP	1 ****	UNK
# created with PyMOL 2.3.2
@<TRIPOS>MOLECULE
950
40 43 1                 
SMALL
USER_CHARGES
@<TRIPOS>ATOM
1	   I	-1.953	-6.017	1.017	 I	1	UNK0	0.000	
2	   C	-0.235	-6.223	-0.145	C.2	1	UNK0	0.000	
3	   C	0.269	-7.446	-0.588	C.2	1	UNK0	0.000	
4	   N	1.382	-7.215	-1.286	N.pl3	1	UNK0	0.000	
5	   N	1.581	-5.926	-1.291	N.2	1	UNK0	0.000	
6	   C	0.600	-5.259	-0.594	C.2	1	UNK0	0.000	
7	   C	0.578	-3.790	-0.469	C.2	1	UNK0	0.000	
8	   O	1.633	-3.191	-0.876	O.2	1	UNK0	0.000	
9	   N	-0.481	-3.053	0.043	N.pl3	1	UNK0	0.000	
10	   C	-0.554	-1.648	0.188	C.2	1	UNK0	0.000	
11	   C	-1.729	-1.121	0.733	C.2	1	UNK0	0.000	
12	   N	-2.855	-1.715	1.165	N.2	1	UNK0	0.000	
13	   O	-3.670	-0.794	1.588	O.3	1	UNK0	0.000	
14	   N	-3.133	0.379	1.454	N.2	1	UNK0	0.000	
15	   C	-1.907	0.225	0.918	C.2	1	UNK0	0.000	
16	   C	-0.907	1.104	0.562	C.2	1	UNK0	0.000	
17	   C	0.242	0.576	0.029	C.2	1	UNK0	0.000	
18	   C	0.433	-0.798	-0.165	C.2	1	UNK0	0.000	
19	   N	-1.110	2.493	0.761	N.pl3	1	UNK0	0.000	
20	   C	-1.359	3.020	2.087	C.3	1	UNK0	0.000	
21	   C	-1.451	4.504	2.010	C.3	1	UNK0	0.000	
22	   O	-0.420	5.102	1.312	O.3	1	UNK0	0.000	
23	   C	-0.257	4.667	0.035	C.3	1	UNK0	0.000	
24	   C	-1.082	3.456	-0.322	C.3	1	UNK0	0.000	
25	   C	2.206	-8.254	-1.919	C.3	1	UNK0	0.000	
26	   H	-0.150	-8.434	-0.412	 H	1	UNK0	0.000	
27	   H	-1.328	-3.631	0.344	 H	1	UNK0	0.000	
28	   H	1.023	1.267	-0.249	 H	1	UNK0	0.000	
29	   H	1.383	-1.095	-0.594	 H	1	UNK0	0.000	
30	   H	-0.508	2.695	2.720	 H	1	UNK0	0.000	
31	   H	-2.333	2.643	2.491	 H	1	UNK0	0.000	
32	   H	-1.529	4.900	3.042	 H	1	UNK0	0.000	
33	   H	-2.403	4.756	1.469	 H	1	UNK0	0.000	
34	   H	-0.551	5.481	-0.660	 H	1	UNK0	0.000	
35	   H	0.825	4.458	-0.182	 H	1	UNK0	0.000	
36	   H	-0.583	2.961	-1.181	 H	1	UNK0	0.000	
37	   H	-2.105	3.723	-0.644	 H	1	UNK0	0.000	
38	   H	1.542	-9.086	-2.177	 H	1	UNK0	0.000	
39	   H	2.591	-7.810	-2.866	 H	1	UNK0	0.000	
40	   H	3.007	-8.549	-1.223	 H	1	UNK0	0.000	
@<TRIPOS>BOND
1 1 2 1
2 2 3 2
3 2 6 1
4 3 4 1
5 4 5 1
6 4 25 1
7 5 6 2
8 6 7 1
9 7 8 2
10 7 9 1
11 9 10 1
12 10 11 1
13 10 18 2
14 11 12 2
15 11 15 1
16 12 13 1
17 13 14 1
18 14 15 2
19 15 16 1
20 16 17 2
21 16 19 1
22 17 18 1
23 19 20 1
24 19 24 1
25 20 21 1
26 21 22 1
27 22 23 1
28 23 24 1
29 3 26 1
30 9 27 1
31 17 28 1
32 18 29 1
33 20 30 1
34 20 31 1
35 21 32 1
36 21 33 1
37 23 34 1
38 23 35 1
39 24 36 1
40 24 37 1
41 25 38 1
42 25 39 1
43 25 40 1
@<TRIPOS>SUBSTRUCTURE
1	UNK0	1	GROUP	1 ****	UNK
# created with PyMOL 2.3.2
@<TRIPOS>MOLECULE
956
44 47 1                 
SMALL
USER_CHARGES
@<TRIPOS>ATOM
1	   I	2.809	2.293	1.152	 I	1	UNK0	0.000	
2	   C	1.235	0.905	0.952	C.2	1	UNK0	0.000	
3	   C	0.205	0.973	0.061	C.2	1	UNK0	0.000	
4	   C	-0.560	-0.164	0.324	C.2	1	UNK0	0.000	
5	   N	-0.040	-0.892	1.313	N.pl3	1	UNK0	0.000	
6	   C	1.058	-0.245	1.703	C.2	1	UNK0	0.000	
7	   C	-0.522	-2.118	1.875	C.3	1	UNK0	0.000	
8	   O	-0.869	-3.070	0.924	O.3	1	UNK0	0.000	
9	   C	-1.421	-4.083	1.703	C.3	1	UNK0	0.000	
10	   C	-2.246	-3.413	2.777	C.3	1	UNK0	0.000	
11	   C	-1.858	-1.940	2.601	C.3	1	UNK0	0.000	
12	   O	-1.822	-3.776	4.056	O.3	1	UNK0	0.000	
13	   C	-2.402	-4.912	0.862	C.3	1	UNK0	0.000	
14	   O	-1.707	-5.474	-0.217	O.3	1	UNK0	0.000	
15	   N	-1.661	-0.359	-0.421	N.2	1	UNK0	0.000	
16	   C	-2.011	0.510	-1.382	C.2	1	UNK0	0.000	
17	   N	-1.276	1.598	-1.631	N.2	1	UNK0	0.000	
18	   C	-0.139	1.874	-0.920	C.2	1	UNK0	0.000	
19	   N	0.605	3.048	-1.229	N.pl3	1	UNK0	0.000	
20	   C	0.137	3.897	-2.273	C.2	1	UNK0	0.000	
21	   O	-0.918	3.554	-2.865	O.2	1	UNK0	0.000	
22	   C	0.789	5.109	-2.687	C.2	1	UNK0	0.000	
23	   C	1.884	5.589	-2.023	C.2	1	UNK0	0.000	
24	   C	2.531	6.763	-2.415	C.2	1	UNK0	0.000	
25	   C	2.063	7.458	-3.491	C.2	1	UNK0	0.000	
26	   C	0.967	7.001	-4.176	C.2	1	UNK0	0.000	
27	   C	0.334	5.822	-3.766	C.2	1	UNK0	0.000	
28	   H	1.760	-0.528	2.494	 H	1	UNK0	0.000	
29	   H	0.174	-2.525	2.619	 H	1	UNK0	0.000	
30	   H	-0.631	-4.742	2.120	 H	1	UNK0	0.000	
31	   H	-3.326	-3.567	2.665	 H	1	UNK0	0.000	
32	   H	-2.581	-1.488	1.899	 H	1	UNK0	0.000	
33	   H	-1.750	-1.419	3.554	 H	1	UNK0	0.000	
34	   H	-2.169	-4.711	4.195	 H	1	UNK0	0.000	
35	   H	-2.826	-5.736	1.449	 H	1	UNK0	0.000	
36	   H	-3.178	-4.249	0.463	 H	1	UNK0	0.000	
37	   H	-1.406	-6.412	0.002	 H	1	UNK0	0.000	
38	   H	-2.920	0.319	-1.973	 H	1	UNK0	0.000	
39	   H	1.465	3.350	-0.763	 H	1	UNK0	0.000	
40	   H	2.329	5.102	-1.151	 H	1	UNK0	0.000	
41	   H	3.389	7.127	-1.885	 H	1	UNK0	0.000	
42	   H	2.538	8.391	-3.841	 H	1	UNK0	0.000	
43	   H	0.614	7.559	-5.018	 H	1	UNK0	0.000	
44	   H	-0.511	5.519	-4.337	 H	1	UNK0	0.000	
@<TRIPOS>BOND
1 1 2 1
2 2 3 1
3 2 6 2
4 3 4 2
5 3 18 1
6 4 5 1
7 4 15 1
8 5 6 1
9 5 7 1
10 7 8 1
11 7 11 1
12 8 9 1
13 9 10 1
14 9 13 1
15 10 11 1
16 10 12 1
17 13 14 1
18 15 16 2
19 16 17 1
20 17 18 2
21 18 19 1
22 19 20 1
23 20 21 2
24 20 22 1
25 22 23 2
26 22 27 1
27 23 24 1
28 24 25 2
29 25 26 1
30 26 27 2
31 6 28 1
32 7 29 1
33 9 30 1
34 10 31 1
35 11 32 1
36 11 33 1
37 12 34 1
38 13 35 1
39 13 36 1
40 14 37 1
41 16 38 1
42 19 39 1
43 23 40 1
44 24 41 1
45 25 42 1
46 26 43 1
47 27 44 1
@<TRIPOS>SUBSTRUCTURE
1	UNK0	1	GROUP	1 ****	UNK
# created with PyMOL 2.3.2
@<TRIPOS>MOLECULE
961
48 52 1                 
SMALL
USER_CHARGES
@<TRIPOS>ATOM
1	  Br	3.589	0.083	0.171	Br	1	UNK0	0.000	
2	   C	3.949	-1.641	-0.557	C.2	1	UNK0	0.000	
3	   C	5.298	-2.076	-0.563	C.2	1	UNK0	0.000	
4	   C	5.640	-3.282	-1.112	C.2	1	UNK0	0.000	
5	   C	4.645	-4.062	-1.659	C.2	1	UNK0	0.000	
6	   C	3.338	-3.630	-1.648	C.2	1	UNK0	0.000	
7	   C	2.949	-2.388	-1.086	C.2	1	UNK0	0.000	
8	   C	1.538	-2.076	-1.080	C.2	1	UNK0	0.000	
9	   C	0.856	-1.159	-0.490	C.2	1	UNK0	0.000	
10	   C	-0.560	-0.841	-0.493	C.2	1	UNK0	0.000	
11	   N	-1.464	-1.281	-1.335	N.pl3	1	UNK0	0.000	
12	   C	-2.782	-0.971	-1.145	C.2	1	UNK0	0.000	
13	   C	-3.240	-0.211	-0.113	C.2	1	UNK0	0.000	
14	   C	-2.319	0.272	0.791	C.2	1	UNK0	0.000	
15	   N	-2.400	1.049	1.926	N.pl3	1	UNK0	0.000	
16	   C	-1.189	1.219	2.429	C.2	1	UNK0	0.000	
17	   N	-0.343	0.545	1.603	N.2	1	UNK0	0.000	
18	   C	-1.005	-0.041	0.598	C.2	1	UNK0	0.000	
19	   C	-0.771	1.982	3.611	C.2	1	UNK0	0.000	
20	   C	-1.609	2.555	4.509	C.2	1	UNK0	0.000	
21	   C	-1.091	3.290	5.592	C.2	1	UNK0	0.000	
22	   C	0.269	3.432	5.747	C.2	1	UNK0	0.000	
23	   C	1.149	2.854	4.842	C.2	1	UNK0	0.000	
24	   C	0.608	2.155	3.814	C.2	1	UNK0	0.000	
25	   C	-3.670	1.551	2.368	C.3	1	UNK0	0.000	
26	   C	-1.120	-2.026	-2.510	C.3	1	UNK0	0.000	
27	   O	5.257	-5.228	-2.148	O.3	1	UNK0	0.000	
28	   C	6.474	-5.356	-1.442	C.3	1	UNK0	0.000	
29	   O	6.837	-3.986	-1.276	O.3	1	UNK0	0.000	
30	   H	6.031	-1.423	-0.120	 H	1	UNK0	0.000	
31	   H	2.566	-4.261	-2.084	 H	1	UNK0	0.000	
32	   H	0.927	-2.786	-1.669	 H	1	UNK0	0.000	
33	   H	1.477	-0.496	0.148	 H	1	UNK0	0.000	
34	   H	-3.496	-1.362	-1.866	 H	1	UNK0	0.000	
35	   H	-4.279	0.040	0.048	 H	1	UNK0	0.000	
36	   H	-2.684	2.456	4.432	 H	1	UNK0	0.000	
37	   H	-1.779	3.736	6.290	 H	1	UNK0	0.000	
38	   H	0.674	3.998	6.581	 H	1	UNK0	0.000	
39	   H	2.219	2.951	4.942	 H	1	UNK0	0.000	
40	   H	1.294	1.697	3.096	 H	1	UNK0	0.000	
41	   H	-4.072	1.095	3.279	 H	1	UNK0	0.000	
42	   H	-4.467	1.369	1.562	 H	1	UNK0	0.000	
43	   H	-3.720	2.659	2.469	 H	1	UNK0	0.000	
44	   H	-1.157	-3.118	-2.408	 H	1	UNK0	0.000	
45	   H	-1.984	-1.835	-3.259	 H	1	UNK0	0.000	
46	   H	-0.268	-1.606	-3.079	 H	1	UNK0	0.000	
47	   H	6.265	-5.827	-0.459	 H	1	UNK0	0.000	
48	   H	7.243	-5.901	-2.030	 H	1	UNK0	0.000	
@<TRIPOS>BOND
1 1 2 1
2 2 3 2
3 2 7 1
4 3 4 1
5 4 5 2
6 4 29 1
7 5 6 1
8 5 27 1
9 6 7 2
10 7 8 1
11 8 9 2
12 9 10 1
13 10 11 2
14 10 18 1
15 11 12 1
16 11 26 1
17 12 13 2
18 13 14 1
19 14 15 1
20 14 18 2
21 15 16 1
22 15 25 1
23 16 17 2
24 16 19 1
25 17 18 1
26 19 20 2
27 19 24 1
28 20 21 1
29 21 22 2
30 22 23 1
31 23 24 2
32 27 28 1
33 28 29 1
34 3 30 1
35 6 31 1
36 8 32 1
37 9 33 1
38 12 34 1
39 13 35 1
40 20 36 1
41 21 37 1
42 22 38 1
43 23 39 1
44 24 40 1
45 25 41 1
46 25 42 1
47 25 43 1
48 26 44 1
49 26 45 1
50 26 46 1
51 28 47 1
52 28 48 1
@<TRIPOS>SUBSTRUCTURE
1	UNK0	1	GROUP	1 ****	UNK
# created with PyMOL 2.3.2
@<TRIPOS>MOLECULE
969
35 38 1                 
SMALL
USER_CHARGES
@<TRIPOS>ATOM
1	  Br	0.759	4.813	-2.734	Br	1	UNK0	0.000	
2	   C	0.992	3.374	-1.514	C.2	1	UNK0	0.000	
3	   C	-0.036	2.511	-1.145	C.2	1	UNK0	0.000	
4	   C	0.185	1.477	-0.250	C.2	1	UNK0	0.000	
5	   C	1.440	1.288	0.292	C.2	1	UNK0	0.000	
6	   C	2.455	2.131	-0.065	C.2	1	UNK0	0.000	
7	   C	2.229	3.153	-0.952	C.2	1	UNK0	0.000	
8	   O	3.323	3.978	-1.272	O.2	1	UNK0	0.000	
9	  Br	4.176	1.811	0.724	Br	1	UNK0	0.000	
10	   C	-0.815	0.609	0.132	C.2	1	UNK0	0.000	
11	   C	-2.066	0.804	-0.415	C.2	1	UNK0	0.000	
12	   C	-2.209	1.924	-1.353	C.2	1	UNK0	0.000	
13	   C	-3.481	2.109	-1.897	C.2	1	UNK0	0.000	
14	   C	-4.519	1.274	-1.554	C.2	1	UNK0	0.000	
15	   O	-5.647	1.479	-2.070	O.2	1	UNK0	0.000	
16	   C	-4.351	0.221	-0.661	C.2	1	UNK0	0.000	
17	   C	-3.134	-0.018	-0.092	C.2	1	UNK0	0.000	
18	  Br	-5.848	-0.891	-0.241	Br	1	UNK0	0.000	
19	  Br	-3.742	3.558	-3.132	Br	1	UNK0	0.000	
20	   O	-1.214	2.716	-1.676	O.3	1	UNK0	0.000	
21	   C	-0.581	-0.478	1.084	C.2	1	UNK0	0.000	
22	   C	-0.776	-0.282	2.439	C.2	1	UNK0	0.000	
23	   C	-0.557	-1.288	3.356	C.2	1	UNK0	0.000	
24	   C	-0.133	-2.518	2.897	C.2	1	UNK0	0.000	
25	   C	0.071	-2.754	1.572	C.2	1	UNK0	0.000	
26	   C	-0.152	-1.737	0.670	C.2	1	UNK0	0.000	
27	   C	0.067	-1.977	-0.736	C.2	1	UNK0	0.000	
28	   O	1.153	-1.687	-1.309	O.co2	1	UNK0	0.000	
29	   O	-0.935	-2.547	-1.518	O.co2	1	UNK0	0.000	
30	  Cl	0.610	-4.350	1.075	Cl	1	UNK0	0.000	
31	  Cl	-1.321	1.302	3.002	Cl	1	UNK0	0.000	
32	   H	1.595	0.461	1.002	 H	1	UNK0	0.000	
33	   H	-2.948	-0.819	0.604	 H	1	UNK0	0.000	
34	   H	-0.720	-1.101	4.424	 H	1	UNK0	0.000	
35	   H	0.041	-3.314	3.612	 H	1	UNK0	0.000	
@<TRIPOS>BOND
1 1 2 1
2 2 3 2
3 2 7 1
4 3 4 1
5 3 20 1
6 4 5 2
7 4 10 1
8 5 6 1
9 6 7 2
10 6 9 1
11 7 8 1
12 10 11 2
13 10 21 1
14 11 12 1
15 11 17 1
16 12 13 2
17 12 20 1
18 13 14 1
19 13 19 1
20 14 15 2
21 14 16 1
22 16 17 2
23 16 18 1
24 21 22 2
25 21 26 1
26 22 23 1
27 22 31 1
28 23 24 2
29 24 25 1
30 25 26 2
31 25 30 1
32 26 27 1
33 27 28 2
34 27 29 1
35 5 32 1
36 17 33 1
37 23 34 1
38 24 35 1
@<TRIPOS>SUBSTRUCTURE
1	UNK0	1	GROUP	1 ****	UNK
# created with PyMOL 2.3.2
@<TRIPOS>MOLECULE
971
35 39 1                 
SMALL
USER_CHARGES
@<TRIPOS>ATOM
1	  Br	-3.335	-3.791	1.954	Br	1	UNK0	0.000	
2	   C	-1.555	-3.569	1.306	C.2	1	UNK0	0.000	
3	   C	-1.005	-2.291	1.094	C.2	1	UNK0	0.000	
4	   C	0.262	-2.090	0.632	C.2	1	UNK0	0.000	
5	   C	1.037	-3.220	0.362	C.2	1	UNK0	0.000	
6	   C	0.504	-4.458	0.567	C.2	1	UNK0	0.000	
7	   C	-0.777	-4.668	1.035	C.2	1	UNK0	0.000	
8	   O	-1.260	-5.974	1.223	O.2	1	UNK0	0.000	
9	  Br	1.556	-6.007	0.201	Br	1	UNK0	0.000	
10	   C	0.804	-0.754	0.423	C.3	1	UNK0	0.000	
11	   O	1.906	-0.617	1.318	O.3	1	UNK0	0.000	
12	   C	3.082	-0.393	0.656	C.2	1	UNK0	0.000	
13	   O	4.202	-0.235	1.193	O.co2	1	UNK0	0.000	
14	   C	2.748	-0.379	-0.755	C.2	1	UNK0	0.000	
15	   C	1.400	-0.591	-0.934	C.2	1	UNK0	0.000	
16	   C	0.917	-0.608	-2.201	C.2	1	UNK0	0.000	
17	   C	1.771	-0.417	-3.267	C.2	1	UNK0	0.000	
18	   C	3.122	-0.205	-3.092	C.2	1	UNK0	0.000	
19	   C	3.625	-0.184	-1.818	C.2	1	UNK0	0.000	
20	   C	-0.130	0.318	0.751	C.2	1	UNK0	0.000	
21	   C	-1.390	0.053	1.211	C.2	1	UNK0	0.000	
22	   C	-2.279	1.102	1.523	C.2	1	UNK0	0.000	
23	   C	-1.856	2.400	1.357	C.2	1	UNK0	0.000	
24	   C	-0.579	2.677	0.891	C.2	1	UNK0	0.000	
25	   C	0.277	1.655	0.590	C.2	1	UNK0	0.000	
26	  Br	0.021	4.470	0.656	Br	1	UNK0	0.000	
27	   O	-2.740	3.422	1.668	O.2	1	UNK0	0.000	
28	  Br	-4.034	0.691	2.164	Br	1	UNK0	0.000	
29	   O	-1.869	-1.236	1.398	O.3	1	UNK0	0.000	
30	   H	2.041	-3.034	-0.004	 H	1	UNK0	0.000	
31	   H	-0.132	-0.771	-2.379	 H	1	UNK0	0.000	
32	   H	1.417	-0.425	-4.300	 H	1	UNK0	0.000	
33	   H	3.807	-0.052	-3.930	 H	1	UNK0	0.000	
34	   H	4.677	-0.020	-1.655	 H	1	UNK0	0.000	
35	   H	1.283	1.804	0.223	 H	1	UNK0	0.000	
@<TRIPOS>BOND
1 1 2 1
2 2 3 2
3 2 7 1
4 3 4 1
5 3 29 1
6 4 5 2
7 4 10 1
8 5 6 1
9 6 7 2
10 6 9 1
11 7 8 1
12 10 11 1
13 10 15 1
14 10 20 1
15 11 12 1
16 12 13 2
17 12 14 1
18 14 15 2
19 14 19 1
20 15 16 1
21 16 17 2
22 17 18 1
23 18 19 2
24 20 21 2
25 20 25 1
26 21 22 1
27 21 29 1
28 22 23 2
29 22 28 1
30 23 24 1
31 23 27 1
32 24 25 2
33 24 26 1
34 5 30 1
35 16 31 1
36 17 32 1
37 18 33 1
38 19 34 1
39 25 35 1
@<TRIPOS>SUBSTRUCTURE
1	UNK0	1	GROUP	1 ****	UNK
# created with PyMOL 2.3.2
@<TRIPOS>MOLECULE
978
35 39 1                 
SMALL
USER_CHARGES
@<TRIPOS>ATOM
1	   I	1.962	3.625	2.500	 I	1	UNK0	0.000	
2	   C	1.775	3.018	0.486	C.2	1	UNK0	0.000	
3	   C	1.296	1.733	0.252	C.2	1	UNK0	0.000	
4	   C	1.165	1.315	-1.032	C.2	1	UNK0	0.000	
5	   C	1.514	2.184	-2.069	C.2	1	UNK0	0.000	
6	   C	1.989	3.458	-1.847	C.2	1	UNK0	0.000	
7	   C	2.119	3.876	-0.538	C.2	1	UNK0	0.000	
8	   O	2.596	5.155	-0.291	O.2	1	UNK0	0.000	
9	   I	2.505	4.738	-3.456	 I	1	UNK0	0.000	
10	   C	0.676	-0.004	-1.388	C.3	1	UNK0	0.000	
11	   O	1.648	-0.734	-2.151	O.3	1	UNK0	0.000	
12	   C	1.163	-1.119	-3.373	C.2	1	UNK0	0.000	
13	   O	1.730	-1.769	-4.298	O.co2	1	UNK0	0.000	
14	   C	-0.205	-0.626	-3.442	C.2	1	UNK0	0.000	
15	   C	-0.493	0.027	-2.282	C.2	1	UNK0	0.000	
16	   C	-1.750	0.600	-2.089	C.2	1	UNK0	0.000	
17	   C	-2.725	0.520	-3.060	C.2	1	UNK0	0.000	
18	   C	-2.428	-0.148	-4.245	C.2	1	UNK0	0.000	
19	   C	-1.193	-0.713	-4.438	C.2	1	UNK0	0.000	
20	  Cl	-0.841	-1.536	-5.910	Cl	1	UNK0	0.000	
21	  Cl	-3.616	-0.285	-5.511	Cl	1	UNK0	0.000	
22	  Cl	-4.290	1.249	-2.784	Cl	1	UNK0	0.000	
23	  Cl	-2.049	1.415	-0.590	Cl	1	UNK0	0.000	
24	   C	0.344	-0.819	-0.188	C.2	1	UNK0	0.000	
25	   C	0.487	-0.370	1.080	C.2	1	UNK0	0.000	
26	   C	0.139	-1.238	2.113	C.2	1	UNK0	0.000	
27	   C	-0.336	-2.511	1.892	C.2	1	UNK0	0.000	
28	   C	-0.469	-2.935	0.585	C.2	1	UNK0	0.000	
29	   C	-0.135	-2.108	-0.456	C.2	1	UNK0	0.000	
30	   I	-1.193	-4.878	0.214	 I	1	UNK0	0.000	
31	   O	-0.679	-3.365	2.908	O.2	1	UNK0	0.000	
32	   I	0.356	-0.553	4.085	 I	1	UNK0	0.000	
33	   O	0.961	0.903	1.340	O.3	1	UNK0	0.000	
34	   H	1.423	1.884	-3.111	 H	1	UNK0	0.000	
35	   H	-0.250	-2.467	-1.453	 H	1	UNK0	0.000	
@<TRIPOS>BOND
1 1 2 1
2 2 3 2
3 2 7 1
4 3 4 1
5 3 33 1
6 4 5 2
7 4 10 1
8 5 6 1
9 6 7 2
10 6 9 1
11 7 8 1
12 10 11 1
13 10 15 1
14 10 24 1
15 11 12 1
16 12 13 2
17 12 14 1
18 14 15 2
19 14 19 1
20 15 16 1
21 16 17 2
22 16 23 1
23 17 18 1
24 17 22 1
25 18 19 2
26 18 21 1
27 19 20 1
28 24 25 2
29 24 29 1
30 25 26 1
31 25 33 1
32 26 27 2
33 26 32 1
34 27 28 1
35 27 31 1
36 28 29 2
37 28 30 1
38 5 34 1
39 29 35 1
@<TRIPOS>SUBSTRUCTURE
1	UNK0	1	GROUP	1 ****	UNK
# created with PyMOL 2.3.2
@<TRIPOS>MOLECULE
979
35 39 1                 
SMALL
USER_CHARGES
@<TRIPOS>ATOM
1	   I	2.836	2.243	3.863	 I	1	UNK0	0.000	
2	   C	1.405	2.418	2.310	C.2	1	UNK0	0.000	
3	   C	1.159	1.256	1.559	C.2	1	UNK0	0.000	
4	   C	0.245	1.342	0.557	C.2	1	UNK0	0.000	
5	   C	-0.402	2.568	0.320	C.2	1	UNK0	0.000	
6	   C	-0.161	3.700	1.054	C.2	1	UNK0	0.000	
7	   C	0.765	3.612	2.070	C.2	1	UNK0	0.000	
8	   O	1.034	4.739	2.833	O.2	1	UNK0	0.000	
9	   I	-1.174	5.516	0.643	 I	1	UNK0	0.000	
10	   C	-0.081	0.184	-0.284	C.3	1	UNK0	0.000	
11	   O	0.047	0.482	-1.661	O.3	1	UNK0	0.000	
12	   C	-1.134	0.336	-2.340	C.2	1	UNK0	0.000	
13	   O	-1.370	0.518	-3.564	O.co2	1	UNK0	0.000	
14	   C	-2.135	-0.088	-1.371	C.2	1	UNK0	0.000	
15	   C	-1.527	-0.179	-0.161	C.2	1	UNK0	0.000	
16	   C	-2.296	-0.574	0.940	C.2	1	UNK0	0.000	
17	   C	-3.633	-0.859	0.785	C.2	1	UNK0	0.000	
18	   C	-4.253	-0.766	-0.443	C.2	1	UNK0	0.000	
19	   C	-3.508	-0.380	-1.531	C.2	1	UNK0	0.000	
20	   C	0.672	-1.029	0.078	C.2	1	UNK0	0.000	
21	   C	1.570	-1.051	1.089	C.2	1	UNK0	0.000	
22	   C	2.246	-2.233	1.374	C.2	1	UNK0	0.000	
23	   C	2.010	-3.365	0.646	C.2	1	UNK0	0.000	
24	   C	1.103	-3.379	-0.388	C.2	1	UNK0	0.000	
25	   C	0.452	-2.205	-0.650	C.2	1	UNK0	0.000	
26	   I	0.742	-5.134	-1.511	 I	1	UNK0	0.000	
27	   O	2.698	-4.532	0.953	O.2	1	UNK0	0.000	
28	   I	3.656	-2.258	2.965	 I	1	UNK0	0.000	
29	   O	1.852	0.083	1.868	O.3	1	UNK0	0.000	
30	   H	-1.138	2.615	-0.496	 H	1	UNK0	0.000	
31	   H	-1.775	-0.634	1.878	 H	1	UNK0	0.000	
32	   H	-4.186	-1.158	1.654	 H	1	UNK0	0.000	
33	   H	-5.318	-0.989	-0.585	 H	1	UNK0	0.000	
34	   H	-3.945	-0.290	-2.522	 H	1	UNK0	0.000	
35	   H	-0.266	-2.188	-1.457	 H	1	UNK0	0.000	
@<TRIPOS>BOND
1 1 2 1
2 2 3 2
3 2 7 1
4 3 4 1
5 3 29 1
6 4 5 2
7 4 10 1
8 5 6 1
9 6 7 2
10 6 9 1
11 7 8 1
12 10 11 1
13 10 15 1
14 10 20 1
15 11 12 1
16 12 13 2
17 12 14 1
18 14 15 2
19 14 19 1
20 15 16 1
21 16 17 2
22 17 18 1
23 18 19 2
24 20 21 2
25 20 25 1
26 21 22 1
27 21 29 1
28 22 23 2
29 22 28 1
30 23 24 1
31 23 27 1
32 24 25 2
33 24 26 1
34 5 30 1
35 16 31 1
36 17 32 1
37 18 33 1
38 19 34 1
39 25 35 1
@<TRIPOS>SUBSTRUCTURE
1	UNK0	1	GROUP	1 ****	UNK
# created with PyMOL 2.3.2
@<TRIPOS>MOLECULE
980
35 38 1                 
SMALL
USER_CHARGES
@<TRIPOS>ATOM
1	   I	-3.450	4.021	-1.606	 I	1	UNK0	0.000	
2	   C	-3.009	2.060	-0.974	C.2	1	UNK0	0.000	
3	   C	-1.719	1.628	-0.738	C.2	1	UNK0	0.000	
4	   C	-1.426	0.346	-0.325	C.2	1	UNK0	0.000	
5	   C	-2.485	-0.525	-0.147	C.2	1	UNK0	0.000	
6	   C	-3.784	-0.100	-0.382	C.2	1	UNK0	0.000	
7	   C	-4.070	1.194	-0.799	C.2	1	UNK0	0.000	
8	   O	-5.393	1.568	-1.020	O.2	1	UNK0	0.000	
9	   C	-0.144	-0.104	-0.083	C.2	1	UNK0	0.000	
10	   C	0.871	0.827	-0.283	C.2	1	UNK0	0.000	
11	   C	0.520	2.175	-0.721	C.2	1	UNK0	0.000	
12	   C	1.569	3.052	-0.901	C.2	1	UNK0	0.000	
13	   C	2.885	2.702	-0.687	C.2	1	UNK0	0.000	
14	   O	3.835	3.522	-0.858	O.2	1	UNK0	0.000	
15	   C	3.218	1.427	-0.273	C.2	1	UNK0	0.000	
16	   C	2.190	0.525	-0.083	C.2	1	UNK0	0.000	
17	   I	1.163	5.016	-1.530	 I	1	UNK0	0.000	
18	   O	-0.740	2.478	-0.916	O.3	1	UNK0	0.000	
19	   C	0.170	-1.460	0.354	C.2	1	UNK0	0.000	
20	   C	0.217	-1.721	1.720	C.2	1	UNK0	0.000	
21	   C	0.507	-2.979	2.178	C.2	1	UNK0	0.000	
22	   C	0.755	-3.991	1.277	C.2	1	UNK0	0.000	
23	   C	0.714	-3.759	-0.080	C.2	1	UNK0	0.000	
24	   C	0.420	-2.487	-0.518	C.2	1	UNK0	0.000	
25	   C	-0.044	-0.656	2.684	C.2	1	UNK0	0.000	
26	   O	-0.315	0.517	2.344	O.co2	1	UNK0	0.000	
27	   O	0.002	-0.912	4.047	O.co2	1	UNK0	0.000	
28	   H	-2.252	-1.529	0.177	 H	1	UNK0	0.000	
29	   H	-4.569	-0.831	-0.225	 H	1	UNK0	0.000	
30	   H	4.259	1.180	-0.112	 H	1	UNK0	0.000	
31	   H	2.434	-0.476	0.241	 H	1	UNK0	0.000	
32	   H	0.552	-3.218	3.251	 H	1	UNK0	0.000	
33	   H	0.983	-4.980	1.658	 H	1	UNK0	0.000	
34	   H	0.917	-4.589	-0.766	 H	1	UNK0	0.000	
35	   H	0.380	-2.268	-1.579	 H	1	UNK0	0.000	
@<TRIPOS>BOND
1 1 2 1
2 2 3 2
3 2 7 1
4 3 4 1
5 3 18 1
6 4 5 2
7 4 9 1
8 5 6 1
9 6 7 2
10 7 8 1
11 9 10 2
12 9 19 1
13 10 11 1
14 10 16 1
15 11 12 2
16 11 18 1
17 12 13 1
18 12 17 1
19 13 14 2
20 13 15 1
21 15 16 2
22 19 20 2
23 19 24 1
24 20 21 1
25 20 25 1
26 21 22 2
27 22 23 1
28 23 24 2
29 25 26 2
30 25 27 1
31 5 28 1
32 6 29 1
33 15 30 1
34 16 31 1
35 21 32 1
36 22 33 1
37 23 34 1
38 24 35 1
@<TRIPOS>SUBSTRUCTURE
1	UNK0	1	GROUP	1 ****	UNK
# created with PyMOL 2.3.2
@<TRIPOS>MOLECULE
983
38 41 1                 
SMALL
USER_CHARGES
@<TRIPOS>ATOM
1	   S	2.651	-2.648	1.578	S.3	1	UNK0	0.000	
2	   O	3.941	-1.912	1.814	O.2	1	UNK0	0.000	
3	   O	1.792	-2.543	2.814	O.2	1	UNK0	0.000	
4	   O	3.026	-4.251	1.237	 O	1	UNK0	0.000	
5	   O	1.894	-1.892	0.241	O.3	1	UNK0	0.000	
6	   C	0.529	-2.028	0.014	C.2	1	UNK0	0.000	
7	   C	-0.010	-3.069	-0.754	C.2	1	UNK0	0.000	
8	   C	-1.370	-2.852	-0.734	C.2	1	UNK0	0.000	
9	   N	-1.617	-1.756	-0.003	N.pl3	1	UNK0	0.000	
10	   C	-0.462	-1.207	0.483	C.2	1	UNK0	0.000	
11	   C	-0.379	0.012	1.279	C.2	1	UNK0	0.000	
12	   N	-1.475	0.625	1.804	N.pl3	1	UNK0	0.000	
13	   C	-1.124	1.732	2.477	C.2	1	UNK0	0.000	
14	   C	0.244	1.880	2.410	C.2	1	UNK0	0.000	
15	   C	0.675	0.786	1.651	C.2	1	UNK0	0.000	
16	   O	2.008	0.576	1.348	O.3	1	UNK0	0.000	
17	   S	2.746	1.245	-0.036	S.3	1	UNK0	0.000	
18	   O	1.752	1.407	-1.149	O.2	1	UNK0	0.000	
19	   O	3.857	0.374	-0.550	O.2	1	UNK0	0.000	
20	   O	3.458	2.732	0.368	 O	1	UNK0	0.000	
21	   C	0.901	2.933	3.013	C.2	1	UNK0	0.000	
22	   C	0.191	3.893	3.717	C.2	1	UNK0	0.000	
23	   C	-1.186	3.758	3.794	C.2	1	UNK0	0.000	
24	   C	-1.825	2.698	3.185	C.2	1	UNK0	0.000	
25	  Br	-3.722	2.573	3.330	Br	1	UNK0	0.000	
26	  Br	1.082	5.365	4.562	Br	1	UNK0	0.000	
27	   C	-2.195	-3.738	-1.422	C.2	1	UNK0	0.000	
28	   C	-1.639	-4.791	-2.095	C.2	1	UNK0	0.000	
29	   C	-0.259	-5.016	-2.118	C.2	1	UNK0	0.000	
30	   C	0.566	-4.124	-1.426	C.2	1	UNK0	0.000	
31	  Br	0.451	-6.497	-3.071	Br	1	UNK0	0.000	
32	  Br	-4.069	-3.465	-1.412	Br	1	UNK0	0.000	
33	   H	-2.577	-1.350	0.186	 H	1	UNK0	0.000	
34	   H	-2.465	0.306	1.716	 H	1	UNK0	0.000	
35	   H	1.962	3.000	2.929	 H	1	UNK0	0.000	
36	   H	-1.747	4.519	4.352	 H	1	UNK0	0.000	
37	   H	-2.246	-5.501	-2.641	 H	1	UNK0	0.000	
38	   H	1.641	-4.267	-1.423	 H	1	UNK0	0.000	
@<TRIPOS>BOND
1 1 2 2
2 1 3 2
3 1 4 1
4 1 5 1
5 5 6 1
6 6 7 1
7 6 10 2
8 7 8 2
9 7 30 1
10 8 9 1
11 8 27 1
12 9 10 1
13 10 11 1
14 11 12 1
15 11 15 2
16 12 13 1
17 13 14 2
18 13 24 1
19 14 15 1
20 14 21 1
21 15 16 1
22 16 17 1
23 17 18 2
24 17 19 2
25 17 20 1
26 21 22 2
27 22 23 1
28 22 26 1
29 23 24 2
30 24 25 1
31 27 28 2
32 27 32 1
33 28 29 1
34 29 30 2
35 29 31 1
36 9 33 1
37 12 34 1
38 21 35 1
39 23 36 1
40 28 37 1
41 30 38 1
@<TRIPOS>SUBSTRUCTURE
1	UNK0	1	GROUP	1 ****	UNK
# created with PyMOL 2.3.2
@<TRIPOS>MOLECULE
985
34 37 1                 
SMALL
USER_CHARGES
@<TRIPOS>ATOM
1	   P	4.003	-1.446	-0.915	P.3	1	UNK0	0.000	
2	   O	3.516	-2.517	-1.866	O.co2	1	UNK0	0.000	
3	   O	3.144	0.011	-1.143	O.3	1	UNK0	0.000	
4	   C	2.345	0.174	-0.014	C.3	1	UNK0	0.000	
5	   C	1.812	-1.223	0.327	C.3	1	UNK0	0.000	
6	   O	0.567	-0.931	0.827	O.3	1	UNK0	0.000	
7	   C	0.029	-0.164	-0.206	C.3	1	UNK0	0.000	
8	   C	1.076	0.943	-0.315	C.3	1	UNK0	0.000	
9	   O	1.083	1.545	-1.548	O.3	1	UNK0	0.000	
10	   N	-1.272	0.361	0.128	N.pl3	1	UNK0	0.000	
11	   C	-1.935	1.232	-0.642	C.2	1	UNK0	0.000	
12	   N	-1.620	1.815	-1.831	N.2	1	UNK0	0.000	
13	   C	-2.421	2.672	-2.458	C.2	1	UNK0	0.000	
14	   N	-3.601	2.980	-1.890	N.2	1	UNK0	0.000	
15	   C	-3.976	2.438	-0.713	C.2	1	UNK0	0.000	
16	   C	-3.147	1.549	-0.061	C.2	1	UNK0	0.000	
17	   N	-3.202	0.848	1.081	N.2	1	UNK0	0.000	
18	   C	-2.061	0.128	1.192	C.2	1	UNK0	0.000	
19	  Br	-1.609	-1.052	2.632	Br	1	UNK0	0.000	
20	   O	-5.196	2.753	-0.122	O.3	1	UNK0	0.000	
21	   N	-2.046	3.257	-3.702	N.pl3	1	UNK0	0.000	
22	   C	2.751	-1.855	1.284	C.3	1	UNK0	0.000	
23	   O	4.010	-1.934	0.679	O.3	1	UNK0	0.000	
24	   O	5.616	-1.106	-1.375	O.co2	1	UNK0	0.000	
25	   H	2.911	0.601	0.831	 H	1	UNK0	0.000	
26	   H	1.683	-1.825	-0.591	 H	1	UNK0	0.000	
27	   H	0.048	-0.695	-1.184	 H	1	UNK0	0.000	
28	   H	0.871	1.681	0.513	 H	1	UNK0	0.000	
29	   H	1.140	2.547	-1.440	 H	1	UNK0	0.000	
30	   H	-6.013	2.754	-0.751	 H	1	UNK0	0.000	
31	   H	-1.648	4.220	-3.663	 H	1	UNK0	0.000	
32	   H	-2.160	2.755	-4.618	 H	1	UNK0	0.000	
33	   H	2.885	-1.175	2.164	 H	1	UNK0	0.000	
34	   H	2.381	-2.844	1.612	 H	1	UNK0	0.000	
@<TRIPOS>BOND
1 1 2 2
2 1 3 1
3 1 23 1
4 1 24 1
5 3 4 1
6 4 5 1
7 4 8 1
8 5 6 1
9 5 22 1
10 6 7 1
11 7 8 1
12 7 10 1
13 8 9 1
14 10 11 1
15 10 18 1
16 11 12 2
17 11 16 1
18 12 13 1
19 13 14 2
20 13 21 1
21 14 15 1
22 15 16 2
23 15 20 1
24 16 17 1
25 17 18 2
26 18 19 1
27 22 23 1
28 4 25 1
29 5 26 1
30 7 27 1
31 8 28 1
32 9 29 1
33 20 30 1
34 21 31 1
35 21 32 1
36 22 33 1
37 22 34 1
@<TRIPOS>SUBSTRUCTURE
1	UNK0	1	GROUP	1 ****	UNK
# created with PyMOL 2.3.2
@<TRIPOS>MOLECULE
991
46 51 1                 
SMALL
USER_CHARGES
@<TRIPOS>ATOM
1	   P	1.144	4.652	4.859	P.3	1	UNK0	0.000	
2	   S	2.570	5.391	5.520	S.2	1	UNK0	0.000	
3	   O	1.135	3.020	5.331	O.3	1	UNK0	0.000	
4	   C	0.852	2.278	4.188	C.3	1	UNK0	0.000	
5	   C	-0.281	3.019	3.474	C.3	1	UNK0	0.000	
6	   O	-1.001	2.025	2.871	O.3	1	UNK0	0.000	
7	   C	-1.002	0.918	3.717	C.3	1	UNK0	0.000	
8	   C	0.273	0.928	4.487	C.3	1	UNK0	0.000	
9	   O	0.038	0.788	5.861	O.3	1	UNK0	0.000	
10	   N	-1.202	-0.317	2.963	N.pl3	1	UNK0	0.000	
11	   C	-0.788	-0.598	1.702	C.2	1	UNK0	0.000	
12	   C	-1.169	-1.872	1.338	C.2	1	UNK0	0.000	
13	   N	-1.827	-2.363	2.409	N.2	1	UNK0	0.000	
14	   C	-1.841	-1.425	3.378	C.2	1	UNK0	0.000	
15	  Br	-2.633	-1.569	5.113	Br	1	UNK0	0.000	
16	   C	-0.840	-2.349	0.085	C.2	1	UNK0	0.000	
17	   O	-1.181	-3.503	-0.256	O.2	1	UNK0	0.000	
18	   N	-0.151	-1.606	-0.811	N.pl3	1	UNK0	0.000	
19	   C	0.211	-0.366	-0.435	C.2	1	UNK0	0.000	
20	   N	0.872	0.155	-1.484	N.2	1	UNK0	0.000	
21	   C	0.941	-0.711	-2.511	C.2	1	UNK0	0.000	
22	   C	0.284	-1.844	-2.079	C.2	1	UNK0	0.000	
23	   C	1.580	-0.502	-3.817	C.2	1	UNK0	0.000	
24	   C	1.562	-1.499	-4.766	C.2	1	UNK0	0.000	
25	   C	2.157	-1.331	-6.010	C.2	1	UNK0	0.000	
26	   C	2.777	-0.135	-6.291	C.2	1	UNK0	0.000	
27	   C	2.818	0.894	-5.363	C.2	1	UNK0	0.000	
28	   C	2.211	0.672	-4.146	C.2	1	UNK0	0.000	
29	   N	-0.104	0.123	0.798	N.pl3	1	UNK0	0.000	
30	   C	0.380	3.972	2.507	C.3	1	UNK0	0.000	
31	   O	1.241	4.809	3.180	O.3	1	UNK0	0.000	
32	   O	-0.255	5.452	5.367	 O	1	UNK0	0.000	
33	   H	1.752	2.199	3.563	 H	1	UNK0	0.000	
34	   H	-0.928	3.555	4.177	 H	1	UNK0	0.000	
35	   H	-1.906	1.053	4.381	 H	1	UNK0	0.000	
36	   H	0.951	0.149	4.135	 H	1	UNK0	0.000	
37	   H	-0.409	1.572	6.240	 H	1	UNK0	0.000	
38	   H	0.130	-2.768	-2.633	 H	1	UNK0	0.000	
39	   H	1.076	-2.436	-4.546	 H	1	UNK0	0.000	
40	   H	2.146	-2.113	-6.761	 H	1	UNK0	0.000	
41	   H	3.247	0.021	-7.251	 H	1	UNK0	0.000	
42	   H	3.314	1.831	-5.609	 H	1	UNK0	0.000	
43	   H	2.233	1.461	-3.414	 H	1	UNK0	0.000	
44	   H	0.179	1.087	1.085	 H	1	UNK0	0.000	
45	   H	-0.347	4.501	1.860	 H	1	UNK0	0.000	
46	   H	1.001	3.345	1.804	 H	1	UNK0	0.000	
@<TRIPOS>BOND
1 1 2 2
2 1 3 1
3 1 31 1
4 1 32 1
5 3 4 1
6 4 5 1
7 4 8 1
8 5 6 1
9 5 30 1
10 6 7 1
11 7 8 1
12 7 10 1
13 8 9 1
14 10 11 1
15 10 14 1
16 11 12 2
17 11 29 1
18 12 13 1
19 12 16 1
20 13 14 2
21 14 15 1
22 16 17 2
23 16 18 1
24 18 19 1
25 18 22 1
26 19 20 2
27 19 29 1
28 20 21 1
29 21 22 2
30 21 23 1
31 23 24 2
32 23 28 1
33 24 25 1
34 25 26 2
35 26 27 1
36 27 28 2
37 30 31 1
38 4 33 1
39 5 34 1
40 7 35 1
41 8 36 1
42 9 37 1
43 22 38 1
44 24 39 1
45 25 40 1
46 26 41 1
47 27 42 1
48 28 43 1
49 29 44 1
50 30 45 1
51 30 46 1
@<TRIPOS>SUBSTRUCTURE
1	UNK0	1	GROUP	1 ****	UNK
# created with PyMOL 2.3.2
@<TRIPOS>MOLECULE
993
33 36 1                 
SMALL
USER_CHARGES
@<TRIPOS>ATOM
1	   P	3.441	-0.863	-3.236	P.3	1	UNK0	0.000	
2	   S	3.531	0.780	-3.818	S.2	1	UNK0	0.000	
3	   O	1.832	-1.230	-2.798	O.3	1	UNK0	0.000	
4	   C	1.572	-0.548	-1.635	C.3	1	UNK0	0.000	
5	   C	2.517	-1.065	-0.542	C.3	1	UNK0	0.000	
6	   O	1.890	-0.545	0.589	O.3	1	UNK0	0.000	
7	   C	0.559	-0.862	0.457	C.3	1	UNK0	0.000	
8	   C	0.237	-0.916	-1.015	C.3	1	UNK0	0.000	
9	   O	0.007	-2.261	-1.335	O.3	1	UNK0	0.000	
10	   N	-0.319	0.124	1.058	N.pl3	1	UNK0	0.000	
11	   C	-1.570	-0.146	1.509	C.2	1	UNK0	0.000	
12	   N	-2.301	-1.290	1.533	N.2	1	UNK0	0.000	
13	   C	-3.548	-1.309	2.043	C.2	1	UNK0	0.000	
14	   N	-4.088	-0.170	2.542	N.2	1	UNK0	0.000	
15	   C	-3.396	0.983	2.536	C.2	1	UNK0	0.000	
16	   C	-2.115	1.016	2.016	C.2	1	UNK0	0.000	
17	   N	-1.195	1.987	1.872	N.2	1	UNK0	0.000	
18	   C	-0.110	1.431	1.289	C.2	1	UNK0	0.000	
19	  Br	1.533	2.309	0.824	Br	1	UNK0	0.000	
20	   N	-3.980	2.177	3.067	N.pl3	1	UNK0	0.000	
21	   C	3.907	-0.544	-0.734	C.3	1	UNK0	0.000	
22	   O	4.419	-1.084	-1.900	O.3	1	UNK0	0.000	
23	   O	3.884	-1.880	-4.484	 O	1	UNK0	0.000	
24	   H	1.727	0.528	-1.707	 H	1	UNK0	0.000	
25	   H	2.449	-2.161	-0.549	 H	1	UNK0	0.000	
26	   H	0.366	-1.829	0.977	 H	1	UNK0	0.000	
27	   H	-0.576	-0.254	-1.314	 H	1	UNK0	0.000	
28	   H	-0.838	-2.406	-1.799	 H	1	UNK0	0.000	
29	   H	-4.100	-2.254	2.041	 H	1	UNK0	0.000	
30	   H	-4.774	2.083	3.758	 H	1	UNK0	0.000	
31	   H	-3.653	3.126	2.799	 H	1	UNK0	0.000	
32	   H	4.524	-0.877	0.100	 H	1	UNK0	0.000	
33	   H	3.863	0.562	-0.743	 H	1	UNK0	0.000	
@<TRIPOS>BOND
1 1 2 2
2 1 3 1
3 1 22 1
4 1 23 1
5 3 4 1
6 4 5 1
7 4 8 1
8 5 6 1
9 5 21 1
10 6 7 1
11 7 8 1
12 7 10 1
13 8 9 1
14 10 11 1
15 10 18 1
16 11 12 2
17 11 16 1
18 12 13 1
19 13 14 2
20 14 15 1
21 15 16 2
22 15 20 1
23 16 17 1
24 17 18 2
25 18 19 1
26 21 22 1
27 4 24 1
28 5 25 1
29 7 26 1
30 8 27 1
31 9 28 1
32 13 29 1
33 20 30 1
34 20 31 1
35 21 32 1
36 21 33 1
@<TRIPOS>SUBSTRUCTURE
1	UNK0	1	GROUP	1 ****	UNK
# created with PyMOL 2.3.2
@<TRIPOS>MOLECULE
999
52 55 1                 
SMALL
USER_CHARGES
@<TRIPOS>ATOM
1	   S	-1.109	4.163	-0.045	S.3	1	UNK0	0.000	
2	   C	-0.120	4.048	1.444	C.3	1	UNK0	0.000	
3	   N	-0.507	2.868	2.150	N.pl3	1	UNK0	0.000	
4	   C	-1.700	2.088	2.030	C.2	1	UNK0	0.000	
5	   C	-2.722	2.569	1.395	C.2	1	UNK0	0.000	
6	   C	-2.749	3.958	0.741	C.3	1	UNK0	0.000	
7	   C	-3.982	1.902	1.188	C.3	1	UNK0	0.000	
8	   O	-4.253	0.657	1.648	O.3	1	UNK0	0.000	
9	   C	-5.478	0.010	1.446	C.2	1	UNK0	0.000	
10	   O	-6.349	0.632	0.810	O.co2	1	UNK0	0.000	
11	   C	-5.642	-1.354	2.002	C.3	1	UNK0	0.000	
12	   C	-1.663	0.743	2.675	C.2	1	UNK0	0.000	
13	   O	-2.559	-0.073	2.701	O.co2	1	UNK0	0.000	
14	   O	-0.483	0.345	3.331	O.co2	1	UNK0	0.000	
15	   C	0.750	3.007	2.789	C.2	1	UNK0	0.000	
16	   O	1.354	2.878	3.860	O.2	1	UNK0	0.000	
17	   C	1.233	3.472	1.425	C.3	1	UNK0	0.000	
18	   N	1.470	2.308	0.634	N.pl3	1	UNK0	0.000	
19	   C	2.730	2.138	0.009	C.2	1	UNK0	0.000	
20	   O	3.604	3.030	0.176	O.2	1	UNK0	0.000	
21	   C	3.039	0.966	-0.816	C.2	1	UNK0	0.000	
22	   O	4.129	0.670	-1.452	O.3	1	UNK0	0.000	
23	   C	4.043	-0.456	-2.083	C.2	1	UNK0	0.000	
24	   C	2.762	-0.968	-1.847	C.2	1	UNK0	0.000	
25	   C	2.140	-0.052	-1.042	C.2	1	UNK0	0.000	
26	   C	5.091	-1.137	-2.928	C.3	1	UNK0	0.000	
27	   O	4.726	-2.465	-3.202	O.3	1	UNK0	0.000	
28	   C	4.520	-3.450	-2.279	C.2	1	UNK0	0.000	
29	   C	4.648	-3.282	-0.903	C.2	1	UNK0	0.000	
30	   C	4.414	-4.346	-0.061	C.2	1	UNK0	0.000	
31	   C	4.053	-5.597	-0.504	C.2	1	UNK0	0.000	
32	   C	3.923	-5.773	-1.871	C.2	1	UNK0	0.000	
33	   C	4.157	-4.704	-2.726	C.2	1	UNK0	0.000	
34	  Br	3.741	-7.034	0.711	Br	1	UNK0	0.000	
35	   H	-0.152	4.948	2.097	 H	1	UNK0	0.000	
36	   H	-3.542	4.055	0.009	 H	1	UNK0	0.000	
37	   H	-2.863	4.669	1.577	 H	1	UNK0	0.000	
38	   H	-4.833	2.590	1.604	 H	1	UNK0	0.000	
39	   H	-4.229	1.926	0.049	 H	1	UNK0	0.000	
40	   H	-4.933	-1.510	2.841	 H	1	UNK0	0.000	
41	   H	-5.401	-2.130	1.215	 H	1	UNK0	0.000	
42	   H	-6.667	-1.555	2.349	 H	1	UNK0	0.000	
43	   H	2.093	4.160	1.481	 H	1	UNK0	0.000	
44	   H	0.757	1.551	0.480	 H	1	UNK0	0.000	
45	   H	2.402	-1.909	-2.252	 H	1	UNK0	0.000	
46	   H	1.128	-0.144	-0.670	 H	1	UNK0	0.000	
47	   H	6.087	-1.059	-2.441	 H	1	UNK0	0.000	
48	   H	5.176	-0.606	-3.899	 H	1	UNK0	0.000	
49	   H	4.931	-2.322	-0.527	 H	1	UNK0	0.000	
50	   H	4.521	-4.188	0.997	 H	1	UNK0	0.000	
51	   H	3.639	-6.753	-2.226	 H	1	UNK0	0.000	
52	   H	4.031	-4.932	-3.789	 H	1	UNK0	0.000	
@<TRIPOS>BOND
1 1 2 1
2 1 6 1
3 2 3 1
4 2 17 1
5 3 4 1
6 3 15 1
7 4 5 2
8 4 12 1
9 5 6 1
10 5 7 1
11 7 8 1
12 8 9 1
13 9 10 2
14 9 11 1
15 12 13 2
16 12 14 1
17 15 16 2
18 15 17 1
19 17 18 1
20 18 19 1
21 19 20 2
22 19 21 1
23 21 22 1
24 21 25 2
25 22 23 1
26 23 24 2
27 23 26 1
28 24 25 1
29 26 27 1
30 27 28 1
31 28 29 2
32 28 33 1
33 29 30 1
34 30 31 2
35 31 32 1
36 31 34 1
37 32 33 2
38 2 35 1
39 6 36 1
40 6 37 1
41 7 38 1
42 7 39 1
43 11 40 1
44 11 41 1
45 11 42 1
46 17 43 1
47 18 44 1
48 24 45 1
49 25 46 1
50 26 47 1
51 26 48 1
52 29 49 1
53 30 50 1
54 32 51 1
55 33 52 1
@<TRIPOS>SUBSTRUCTURE
1	UNK0	1	GROUP	1 ****	UNK
# created with PyMOL 2.3.2
@<TRIPOS>MOLECULE
1001
33 36 1                 
SMALL
USER_CHARGES
@<TRIPOS>ATOM
1	   P	1.377	3.719	0.196	P.3	1	UNK0	0.000	
2	   O	2.211	4.335	1.321	O.co2	1	UNK0	0.000	
3	   O	0.651	2.334	0.806	O.3	1	UNK0	0.000	
4	   C	0.783	1.269	-0.047	C.3	1	UNK0	0.000	
5	   C	0.740	1.840	-1.471	C.3	1	UNK0	0.000	
6	   O	0.245	0.849	-2.265	O.3	1	UNK0	0.000	
7	   C	-0.522	-0.006	-1.523	C.3	1	UNK0	0.000	
8	   C	-0.412	0.354	-0.082	C.3	1	UNK0	0.000	
9	   O	-1.526	0.998	0.419	O.3	1	UNK0	0.000	
10	   N	-0.070	-1.363	-1.801	N.pl3	1	UNK0	0.000	
11	   C	-0.442	-2.476	-1.126	C.2	1	UNK0	0.000	
12	   N	-1.274	-2.637	-0.083	N.2	1	UNK0	0.000	
13	   C	-1.479	-3.868	0.413	C.2	1	UNK0	0.000	
14	   N	-0.852	-4.924	-0.137	N.2	1	UNK0	0.000	
15	   C	-0.010	-4.839	-1.178	C.2	1	UNK0	0.000	
16	   C	0.199	-3.560	-1.688	C.2	1	UNK0	0.000	
17	   N	0.951	-3.115	-2.691	N.2	1	UNK0	0.000	
18	   C	0.781	-1.782	-2.751	C.2	1	UNK0	0.000	
19	  Br	1.609	-0.569	-4.001	Br	1	UNK0	0.000	
20	   N	0.657	-5.946	-1.767	N.pl3	1	UNK0	0.000	
21	   C	2.135	2.276	-1.785	C.3	1	UNK0	0.000	
22	   O	2.405	3.428	-1.086	O.3	1	UNK0	0.000	
23	   O	0.187	4.886	-0.189	O.co2	1	UNK0	0.000	
24	   H	1.690	0.675	0.097	 H	1	UNK0	0.000	
25	   H	0.056	2.715	-1.520	 H	1	UNK0	0.000	
26	   H	-1.607	0.108	-1.809	 H	1	UNK0	0.000	
27	   H	-0.242	-0.555	0.532	 H	1	UNK0	0.000	
28	   H	-1.641	0.899	1.378	 H	1	UNK0	0.000	
29	   H	-2.158	-4.024	1.270	 H	1	UNK0	0.000	
30	   H	1.589	-6.242	-1.350	 H	1	UNK0	0.000	
31	   H	0.302	-6.481	-2.565	 H	1	UNK0	0.000	
32	   H	2.831	1.484	-1.380	 H	1	UNK0	0.000	
33	   H	2.357	2.334	-2.861	 H	1	UNK0	0.000	
@<TRIPOS>BOND
1 1 2 2
2 1 3 1
3 1 22 1
4 1 23 1
5 3 4 1
6 4 5 1
7 4 8 1
8 5 6 1
9 5 21 1
10 6 7 1
11 7 8 1
12 7 10 1
13 8 9 1
14 10 11 1
15 10 18 1
16 11 12 2
17 11 16 1
18 12 13 1
19 13 14 2
20 14 15 1
21 15 16 2
22 15 20 1
23 16 17 1
24 17 18 2
25 18 19 1
26 21 22 1
27 4 24 1
28 5 25 1
29 7 26 1
30 8 27 1
31 9 28 1
32 13 29 1
33 20 30 1
34 20 31 1
35 21 32 1
36 21 33 1
@<TRIPOS>SUBSTRUCTURE
1	UNK0	1	GROUP	1 ****	UNK
# created with PyMOL 2.3.2
@<TRIPOS>MOLECULE
1008
47 50 1                 
SMALL
USER_CHARGES
@<TRIPOS>ATOM
1	   S	3.959	4.660	2.333	S.O2	1	UNK0	0.000	
2	   O	4.130	5.005	0.868	O.2	1	UNK0	0.000	
3	   O	5.301	4.789	3.011	O.2	1	UNK0	0.000	
4	   N	2.822	5.767	2.983	N.3	1	UNK0	0.000	
5	   C	3.359	3.033	2.459	C.2	1	UNK0	0.000	
6	   C	2.614	2.501	1.432	C.2	1	UNK0	0.000	
7	   C	2.111	1.205	1.483	C.2	1	UNK0	0.000	
8	   C	2.384	0.457	2.607	C.2	1	UNK0	0.000	
9	   C	3.139	0.989	3.652	C.2	1	UNK0	0.000	
10	   C	3.629	2.274	3.584	C.2	1	UNK0	0.000	
11	  Br	1.735	-1.317	2.751	Br	1	UNK0	0.000	
12	   C	1.326	0.659	0.394	C.2	1	UNK0	0.000	
13	   O	1.909	0.051	-0.537	O.2	1	UNK0	0.000	
14	   N	-0.093	0.803	0.372	N.pl3	1	UNK0	0.000	
15	   C	-0.872	0.256	-0.718	C.3	1	UNK0	0.000	
16	   C	-2.155	-0.371	-0.269	C.3	1	UNK0	0.000	
17	   C	-2.040	-0.582	1.243	C.3	1	UNK0	0.000	
18	   C	-2.050	0.805	1.848	C.3	1	UNK0	0.000	
19	   C	-0.778	1.497	1.431	C.3	1	UNK0	0.000	
20	   C	-2.455	-1.663	-0.965	C.2	1	UNK0	0.000	
21	   N	-1.620	-2.728	-1.087	N.pl3	1	UNK0	0.000	
22	   C	-2.218	-3.709	-1.769	C.2	1	UNK0	0.000	
23	   N	-3.459	-3.222	-2.071	N.2	1	UNK0	0.000	
24	   N	-3.594	-2.002	-1.589	N.2	1	UNK0	0.000	
25	   C	-1.339	-4.904	-1.931	C.3	1	UNK0	0.000	
26	   C	-0.247	-4.619	-0.947	C.3	1	UNK0	0.000	
27	   C	-0.277	-3.125	-0.704	C.3	1	UNK0	0.000	
28	   H	3.146	6.166	3.897	 H	1	UNK0	0.000	
29	   H	1.889	5.300	3.105	 H	1	UNK0	0.000	
30	   H	2.426	3.143	0.558	 H	1	UNK0	0.000	
31	   H	3.323	0.358	4.510	 H	1	UNK0	0.000	
32	   H	4.213	2.702	4.379	 H	1	UNK0	0.000	
33	   H	-0.278	-0.401	-1.381	 H	1	UNK0	0.000	
34	   H	-1.155	1.138	-1.362	 H	1	UNK0	0.000	
35	   H	-3.039	0.287	-0.391	 H	1	UNK0	0.000	
36	   H	-2.875	-1.204	1.605	 H	1	UNK0	0.000	
37	   H	-1.079	-1.069	1.479	 H	1	UNK0	0.000	
38	   H	-2.957	1.340	1.461	 H	1	UNK0	0.000	
39	   H	-2.144	0.704	2.947	 H	1	UNK0	0.000	
40	   H	-0.106	1.482	2.335	 H	1	UNK0	0.000	
41	   H	-0.985	2.564	1.179	 H	1	UNK0	0.000	
42	   H	-1.863	-5.841	-1.619	 H	1	UNK0	0.000	
43	   H	-0.987	-4.951	-2.981	 H	1	UNK0	0.000	
44	   H	-0.379	-5.170	0.024	 H	1	UNK0	0.000	
45	   H	0.726	-4.938	-1.390	 H	1	UNK0	0.000	
46	   H	0.495	-2.678	-1.363	 H	1	UNK0	0.000	
47	   H	-0.026	-2.880	0.327	 H	1	UNK0	0.000	
@<TRIPOS>BOND
1 1 2 2
2 1 3 2
3 1 4 1
4 1 5 1
5 5 6 2
6 5 10 1
7 6 7 1
8 7 8 2
9 7 12 1
10 8 9 1
11 8 11 1
12 9 10 2
13 12 13 2
14 12 14 1
15 14 15 1
16 14 19 1
17 15 16 1
18 16 17 1
19 16 20 1
20 17 18 1
21 18 19 1
22 20 21 1
23 20 24 2
24 21 22 1
25 21 27 1
26 22 23 2
27 22 25 1
28 23 24 1
29 25 26 1
30 26 27 1
31 4 28 1
32 4 29 1
33 6 30 1
34 9 31 1
35 10 32 1
36 15 33 1
37 15 34 1
38 16 35 1
39 17 36 1
40 17 37 1
41 18 38 1
42 18 39 1
43 19 40 1
44 19 41 1
45 25 42 1
46 25 43 1
47 26 44 1
48 26 45 1
49 27 46 1
50 27 47 1
@<TRIPOS>SUBSTRUCTURE
1	UNK0	1	GROUP	1 ****	UNK
# created with PyMOL 2.3.2
@<TRIPOS>MOLECULE
1011
54 57 1                 
SMALL
USER_CHARGES
@<TRIPOS>ATOM
1	   S	-2.068	0.991	-2.323	S.O2	1	UNK0	0.000	
2	   O	-3.311	1.451	-3.076	O.2	1	UNK0	0.000	
3	   O	-0.946	1.057	-3.303	O.2	1	UNK0	0.000	
4	   N	-2.399	-0.622	-1.818	N.3	1	UNK0	0.000	
5	   C	-1.297	-1.218	-1.090	C.3	1	UNK0	0.000	
6	   C	-1.742	-2.625	-0.720	C.3	1	UNK0	0.000	
7	   C	-0.662	-3.349	0.039	C.3	1	UNK0	0.000	
8	   N	-1.120	-4.648	0.362	N.3	1	UNK0	0.000	
9	   C	-2.171	-4.733	1.312	C.3	1	UNK0	0.000	
10	   C	-2.174	-6.134	1.900	C.3	1	UNK0	0.000	
11	   O	-1.975	-7.093	0.927	O.3	1	UNK0	0.000	
12	   C	-2.222	-6.636	-0.362	C.3	1	UNK0	0.000	
13	   C	-1.137	-5.604	-0.683	C.3	1	UNK0	0.000	
14	   C	-1.795	2.023	-0.945	C.2	1	UNK0	0.000	
15	   C	-0.550	2.638	-0.780	C.2	1	UNK0	0.000	
16	   C	-0.311	3.454	0.304	C.2	1	UNK0	0.000	
17	   C	-1.270	3.705	1.269	C.2	1	UNK0	0.000	
18	   C	-2.490	3.108	1.117	C.2	1	UNK0	0.000	
19	   C	-2.740	2.278	0.019	C.2	1	UNK0	0.000	
20	  Br	-4.458	1.453	-0.192	Br	1	UNK0	0.000	
21	   C	-0.707	4.629	2.293	C.3	1	UNK0	0.000	
22	   C	0.477	5.258	1.528	C.3	1	UNK0	0.000	
23	   N	0.888	4.167	0.659	N.pl3	1	UNK0	0.000	
24	   C	2.180	3.805	0.212	C.2	1	UNK0	0.000	
25	   O	2.392	2.816	-0.527	O.2	1	UNK0	0.000	
26	   C	3.336	4.630	0.636	C.3	1	UNK0	0.000	
27	   C	4.392	4.789	-0.380	C.3	1	UNK0	0.000	
28	   C	4.658	3.999	0.878	C.3	1	UNK0	0.000	
29	   H	-3.262	-0.607	-1.240	 H	1	UNK0	0.000	
30	   H	-0.979	-0.635	-0.216	 H	1	UNK0	0.000	
31	   H	-0.469	-1.353	-1.844	 H	1	UNK0	0.000	
32	   H	-2.676	-2.611	-0.112	 H	1	UNK0	0.000	
33	   H	-1.880	-3.162	-1.690	 H	1	UNK0	0.000	
34	   H	-0.425	-2.819	1.002	 H	1	UNK0	0.000	
35	   H	0.268	-3.377	-0.544	 H	1	UNK0	0.000	
36	   H	-3.138	-4.590	0.794	 H	1	UNK0	0.000	
37	   H	-2.005	-3.974	2.094	 H	1	UNK0	0.000	
38	   H	-1.357	-6.220	2.650	 H	1	UNK0	0.000	
39	   H	-3.118	-6.288	2.466	 H	1	UNK0	0.000	
40	   H	-2.171	-7.504	-1.045	 H	1	UNK0	0.000	
41	   H	-3.231	-6.182	-0.473	 H	1	UNK0	0.000	
42	   H	-0.194	-6.131	-0.851	 H	1	UNK0	0.000	
43	   H	-1.448	-5.159	-1.658	 H	1	UNK0	0.000	
44	   H	0.219	2.449	-1.536	 H	1	UNK0	0.000	
45	   H	-3.297	3.251	1.829	 H	1	UNK0	0.000	
46	   H	-0.349	4.121	3.190	 H	1	UNK0	0.000	
47	   H	-1.393	5.438	2.572	 H	1	UNK0	0.000	
48	   H	0.102	6.063	0.863	 H	1	UNK0	0.000	
49	   H	1.245	5.600	2.218	 H	1	UNK0	0.000	
50	   H	3.091	5.519	1.276	 H	1	UNK0	0.000	
51	   H	4.416	4.130	-1.290	 H	1	UNK0	0.000	
52	   H	4.891	5.744	-0.546	 H	1	UNK0	0.000	
53	   H	4.792	2.908	0.852	 H	1	UNK0	0.000	
54	   H	5.337	4.522	1.581	 H	1	UNK0	0.000	
@<TRIPOS>BOND
1 1 2 2
2 1 3 2
3 1 4 1
4 1 14 1
5 4 5 1
6 5 6 1
7 6 7 1
8 7 8 1
9 8 9 1
10 8 13 1
11 9 10 1
12 10 11 1
13 11 12 1
14 12 13 1
15 14 15 2
16 14 19 1
17 15 16 1
18 16 17 2
19 16 23 1
20 17 18 1
21 17 21 1
22 18 19 2
23 19 20 1
24 21 22 1
25 22 23 1
26 23 24 1
27 24 25 2
28 24 26 1
29 26 27 1
30 26 28 1
31 27 28 1
32 4 29 1
33 5 30 1
34 5 31 1
35 6 32 1
36 6 33 1
37 7 34 1
38 7 35 1
39 9 36 1
40 9 37 1
41 10 38 1
42 10 39 1
43 12 40 1
44 12 41 1
45 13 42 1
46 13 43 1
47 15 44 1
48 18 45 1
49 21 46 1
50 21 47 1
51 22 48 1
52 22 49 1
53 26 50 1
54 27 51 1
55 27 52 1
56 28 53 1
57 28 54 1
@<TRIPOS>SUBSTRUCTURE
1	UNK0	1	GROUP	1 ****	UNK
# created with PyMOL 2.3.2
@<TRIPOS>MOLECULE
1027
54 57 1                 
SMALL
USER_CHARGES
@<TRIPOS>ATOM
1	   S	2.167	0.540	-2.378	S.O2	1	UNK0	0.000	
2	   O	2.647	1.837	-3.030	O.2	1	UNK0	0.000	
3	   O	2.877	-0.547	-3.151	O.2	1	UNK0	0.000	
4	   N	0.510	0.441	-2.610	N.3	1	UNK0	0.000	
5	   C	-0.349	1.442	-2.165	C.3	1	UNK0	0.000	
6	   C	-0.803	1.317	-0.762	C.2	1	UNK0	0.000	
7	   O	-1.134	2.328	-0.097	O.2	1	UNK0	0.000	
8	   N	-0.840	-0.001	-0.226	N.pl3	1	UNK0	0.000	
9	   C	-0.717	-1.067	-1.153	C.2	1	UNK0	0.000	
10	   O	-1.230	-2.181	-0.851	O.2	1	UNK0	0.000	
11	   C	-0.014	-0.907	-2.443	C.3	1	UNK0	0.000	
12	   C	-1.002	-0.210	1.197	C.3	1	UNK0	0.000	
13	   C	-2.415	-0.338	1.651	C.3	1	UNK0	0.000	
14	   C	-3.280	0.809	1.382	C.2	1	UNK0	0.000	
15	   C	-3.415	1.844	2.265	C.2	1	UNK0	0.000	
16	   C	-4.244	2.885	1.954	C.2	1	UNK0	0.000	
17	   C	-4.959	2.926	0.762	C.2	1	UNK0	0.000	
18	   C	-4.807	1.879	-0.105	C.2	1	UNK0	0.000	
19	   C	-3.982	0.817	0.176	C.2	1	UNK0	0.000	
20	   C	2.734	0.584	-0.731	C.2	1	UNK0	0.000	
21	   C	3.241	-0.596	-0.172	C.2	1	UNK0	0.000	
22	   C	3.658	-0.708	1.135	C.2	1	UNK0	0.000	
23	   C	3.588	0.383	1.974	C.2	1	UNK0	0.000	
24	   C	3.095	1.549	1.443	C.2	1	UNK0	0.000	
25	   C	2.672	1.658	0.108	C.2	1	UNK0	0.000	
26	  Br	2.098	3.367	-0.546	Br	1	UNK0	0.000	
27	   C	4.092	0.035	3.325	C.3	1	UNK0	0.000	
28	   C	4.879	-1.245	3.040	C.3	1	UNK0	0.000	
29	   N	4.193	-1.804	1.880	N.pl3	1	UNK0	0.000	
30	   C	4.092	-3.177	1.595	C.2	1	UNK0	0.000	
31	   O	4.668	-4.008	2.380	O.2	1	UNK0	0.000	
32	   C	3.365	-3.774	0.449	C.3	1	UNK0	0.000	
33	   H	-1.299	1.382	-2.824	 H	1	UNK0	0.000	
34	   H	0.018	2.445	-2.388	 H	1	UNK0	0.000	
35	   H	0.756	-1.693	-2.516	 H	1	UNK0	0.000	
36	   H	-0.743	-1.073	-3.257	 H	1	UNK0	0.000	
37	   H	-0.484	0.611	1.758	 H	1	UNK0	0.000	
38	   H	-0.477	-1.150	1.505	 H	1	UNK0	0.000	
39	   H	-2.388	-0.488	2.755	 H	1	UNK0	0.000	
40	   H	-2.830	-1.287	1.239	 H	1	UNK0	0.000	
41	   H	-2.881	1.840	3.184	 H	1	UNK0	0.000	
42	   H	-4.385	3.734	2.627	 H	1	UNK0	0.000	
43	   H	-5.617	3.760	0.524	 H	1	UNK0	0.000	
44	   H	-5.348	1.869	-1.051	 H	1	UNK0	0.000	
45	   H	-3.904	0.019	-0.549	 H	1	UNK0	0.000	
46	   H	3.295	-1.450	-0.851	 H	1	UNK0	0.000	
47	   H	3.015	2.445	2.054	 H	1	UNK0	0.000	
48	   H	3.298	-0.183	4.048	 H	1	UNK0	0.000	
49	   H	4.774	0.814	3.734	 H	1	UNK0	0.000	
50	   H	4.804	-1.934	3.893	 H	1	UNK0	0.000	
51	   H	5.905	-0.989	2.750	 H	1	UNK0	0.000	
52	   H	3.230	-4.883	0.608	 H	1	UNK0	0.000	
53	   H	3.932	-3.710	-0.502	 H	1	UNK0	0.000	
54	   H	2.369	-3.293	0.308	 H	1	UNK0	0.000	
@<TRIPOS>BOND
1 1 2 2
2 1 3 2
3 1 4 1
4 1 20 1
5 4 5 1
6 4 11 1
7 5 6 1
8 6 7 2
9 6 8 1
10 8 9 1
11 8 12 1
12 9 10 2
13 9 11 1
14 12 13 1
15 13 14 1
16 14 15 2
17 14 19 1
18 15 16 1
19 16 17 2
20 17 18 1
21 18 19 2
22 20 21 2
23 20 25 1
24 21 22 1
25 22 23 2
26 22 29 1
27 23 24 1
28 23 27 1
29 24 25 2
30 25 26 1
31 27 28 1
32 28 29 1
33 29 30 1
34 30 31 2
35 30 32 1
36 5 33 1
37 5 34 1
38 11 35 1
39 11 36 1
40 12 37 1
41 12 38 1
42 13 39 1
43 13 40 1
44 15 41 1
45 16 42 1
46 17 43 1
47 18 44 1
48 19 45 1
49 21 46 1
50 24 47 1
51 27 48 1
52 27 49 1
53 28 50 1
54 28 51 1
55 32 52 1
56 32 53 1
57 32 54 1
@<TRIPOS>SUBSTRUCTURE
1	UNK0	1	GROUP	1 ****	UNK
# created with PyMOL 2.3.2
@<TRIPOS>MOLECULE
1028
41 44 1                 
SMALL
USER_CHARGES
@<TRIPOS>ATOM
1	   S	-0.318	1.449	-3.410	S.O2	1	UNK0	0.000	
2	   O	-0.612	2.873	-3.034	O.2	1	UNK0	0.000	
3	   O	-0.837	1.263	-4.816	O.2	1	UNK0	0.000	
4	   N	-1.083	0.423	-2.309	N.3	1	UNK0	0.000	
5	   C	-0.961	-0.983	-2.459	C.3	1	UNK0	0.000	
6	   C	-0.153	-1.078	-1.224	C.3	1	UNK0	0.000	
7	   C	-0.489	0.358	-1.021	C.3	1	UNK0	0.000	
8	   N	-0.675	-1.930	-0.173	N.pl3	1	UNK0	0.000	
9	   N	-1.551	-2.896	-0.269	N.2	1	UNK0	0.000	
10	   N	-1.773	-3.445	0.933	N.2	1	UNK0	0.000	
11	   C	-1.012	-2.811	1.842	C.2	1	UNK0	0.000	
12	   C	-0.320	-1.849	1.120	C.2	1	UNK0	0.000	
13	   C	-0.923	-3.077	3.317	C.3	1	UNK0	0.000	
14	   N	0.029	-2.137	3.880	N.pl3	1	UNK0	0.000	
15	   C	1.438	-2.355	4.014	C.3	1	UNK0	0.000	
16	   C	2.004	-1.080	4.571	C.3	1	UNK0	0.000	
17	   C	0.943	-0.029	4.518	C.3	1	UNK0	0.000	
18	   C	-0.311	-0.849	4.384	C.2	1	UNK0	0.000	
19	   O	-1.442	-0.423	4.680	O.2	1	UNK0	0.000	
20	   C	1.436	1.281	-3.432	C.2	1	UNK0	0.000	
21	   S	2.355	-0.119	-3.799	S.3	1	UNK0	0.000	
22	   C	3.925	0.524	-3.603	C.2	1	UNK0	0.000	
23	   C	3.677	1.826	-3.253	C.2	1	UNK0	0.000	
24	   C	2.401	2.207	-3.168	C.2	1	UNK0	0.000	
25	  Br	5.636	-0.336	-3.813	Br	1	UNK0	0.000	
26	   H	-0.435	-1.232	-3.420	 H	1	UNK0	0.000	
27	   H	-1.951	-1.504	-2.433	 H	1	UNK0	0.000	
28	   H	0.904	-1.310	-1.464	 H	1	UNK0	0.000	
29	   H	0.356	1.040	-0.808	 H	1	UNK0	0.000	
30	   H	-1.257	0.494	-0.226	 H	1	UNK0	0.000	
31	   H	0.392	-1.157	1.572	 H	1	UNK0	0.000	
32	   H	-1.920	-2.960	3.801	 H	1	UNK0	0.000	
33	   H	-0.533	-4.093	3.454	 H	1	UNK0	0.000	
34	   H	1.633	-3.200	4.710	 H	1	UNK0	0.000	
35	   H	1.947	-2.541	3.030	 H	1	UNK0	0.000	
36	   H	2.413	-1.237	5.593	 H	1	UNK0	0.000	
37	   H	2.870	-0.706	3.961	 H	1	UNK0	0.000	
38	   H	0.911	0.544	5.480	 H	1	UNK0	0.000	
39	   H	1.052	0.687	3.681	 H	1	UNK0	0.000	
40	   H	4.535	2.500	-3.059	 H	1	UNK0	0.000	
41	   H	2.092	3.235	-2.893	 H	1	UNK0	0.000	
@<TRIPOS>BOND
1 1 2 2
2 1 3 2
3 1 4 1
4 1 20 1
5 4 5 1
6 4 7 1
7 5 6 1
8 6 7 1
9 6 8 1
10 8 9 1
11 8 12 1
12 9 10 2
13 10 11 1
14 11 12 2
15 11 13 1
16 13 14 1
17 14 15 1
18 14 18 1
19 15 16 1
20 16 17 1
21 17 18 1
22 18 19 2
23 20 21 1
24 20 24 2
25 21 22 1
26 22 23 2
27 22 25 1
28 23 24 1
29 5 26 1
30 5 27 1
31 6 28 1
32 7 29 1
33 7 30 1
34 12 31 1
35 13 32 1
36 13 33 1
37 15 34 1
38 15 35 1
39 16 36 1
40 16 37 1
41 17 38 1
42 17 39 1
43 23 40 1
44 24 41 1
@<TRIPOS>SUBSTRUCTURE
1	UNK0	1	GROUP	1 ****	UNK
# created with PyMOL 2.3.2
@<TRIPOS>MOLECULE
1037
50 53 1                 
SMALL
USER_CHARGES
@<TRIPOS>ATOM
1	   S	-1.108	1.958	-3.212	S.O2	1	UNK0	0.000	
2	   O	-1.415	1.290	-4.524	O.2	1	UNK0	0.000	
3	   O	-1.571	3.398	-3.353	O.2	1	UNK0	0.000	
4	   N	0.562	1.898	-2.932	N.3	1	UNK0	0.000	
5	   C	1.201	3.141	-2.664	C.3	1	UNK0	0.000	
6	   C	1.610	3.438	-1.297	C.3	1	UNK0	0.000	
7	   N	1.645	2.352	-0.337	N.pl3	1	UNK0	0.000	
8	   C	1.037	1.092	-0.636	C.3	1	UNK0	0.000	
9	   C	1.008	0.814	-2.134	C.3	1	UNK0	0.000	
10	   C	2.310	2.569	0.871	C.2	1	UNK0	0.000	
11	   O	2.919	3.774	0.867	O.2	1	UNK0	0.000	
12	   C	2.475	1.806	2.074	C.3	1	UNK0	0.000	
13	   C	2.399	0.347	2.070	C.2	1	UNK0	0.000	
14	   C	3.455	-0.424	1.650	C.2	1	UNK0	0.000	
15	   C	3.372	-1.816	1.657	C.2	1	UNK0	0.000	
16	   C	2.227	-2.418	2.089	C.2	1	UNK0	0.000	
17	   C	1.151	-1.640	2.520	C.2	1	UNK0	0.000	
18	   C	1.235	-0.284	2.511	C.2	1	UNK0	0.000	
19	  Br	5.072	0.400	1.032	Br	1	UNK0	0.000	
20	   C	-2.072	1.130	-2.007	C.2	1	UNK0	0.000	
21	   C	-2.295	-0.242	-2.115	C.2	1	UNK0	0.000	
22	   C	-3.055	-0.947	-1.207	C.2	1	UNK0	0.000	
23	   C	-3.638	-0.313	-0.133	C.2	1	UNK0	0.000	
24	   C	-3.422	1.043	-0.020	C.2	1	UNK0	0.000	
25	   C	-2.657	1.761	-0.932	C.2	1	UNK0	0.000	
26	   O	-4.419	-1.025	0.799	O.3	1	UNK0	0.000	
27	   C	-4.190	-2.433	0.985	C.3	1	UNK0	0.000	
28	   C	-4.089	-3.011	-0.380	C.2	1	UNK0	0.000	
29	   O	-4.693	-4.056	-0.713	O.2	1	UNK0	0.000	
30	   N	-3.282	-2.360	-1.345	N.pl3	1	UNK0	0.000	
31	   H	0.484	3.948	-3.001	 H	1	UNK0	0.000	
32	   H	2.060	3.226	-3.395	 H	1	UNK0	0.000	
33	   H	2.643	3.898	-1.296	 H	1	UNK0	0.000	
34	   H	0.966	4.243	-0.816	 H	1	UNK0	0.000	
35	   H	0.023	1.088	-0.214	 H	1	UNK0	0.000	
36	   H	1.550	0.212	-0.202	 H	1	UNK0	0.000	
37	   H	0.373	-0.066	-2.290	 H	1	UNK0	0.000	
38	   H	2.078	0.618	-2.421	 H	1	UNK0	0.000	
39	   H	3.484	2.099	2.558	 H	1	UNK0	0.000	
40	   H	1.730	2.185	2.841	 H	1	UNK0	0.000	
41	   H	4.237	-2.362	1.311	 H	1	UNK0	0.000	
42	   H	2.170	-3.486	2.094	 H	1	UNK0	0.000	
43	   H	0.252	-2.173	2.860	 H	1	UNK0	0.000	
44	   H	0.418	0.355	2.838	 H	1	UNK0	0.000	
45	   H	-1.841	-0.753	-2.958	 H	1	UNK0	0.000	
46	   H	-3.885	1.555	0.837	 H	1	UNK0	0.000	
47	   H	-2.505	2.833	-0.811	 H	1	UNK0	0.000	
48	   H	-3.165	-2.584	1.444	 H	1	UNK0	0.000	
49	   H	-5.005	-2.804	1.588	 H	1	UNK0	0.000	
50	   H	-2.841	-2.826	-2.151	 H	1	UNK0	0.000	
@<TRIPOS>BOND
1 1 2 2
2 1 3 2
3 1 4 1
4 1 20 1
5 4 5 1
6 4 9 1
7 5 6 1
8 6 7 1
9 7 8 1
10 7 10 1
11 8 9 1
12 10 11 2
13 10 12 1
14 12 13 1
15 13 14 2
16 13 18 1
17 14 15 1
18 14 19 1
19 15 16 2
20 16 17 1
21 17 18 2
22 20 21 2
23 20 25 1
24 21 22 1
25 22 23 2
26 22 30 1
27 23 24 1
28 23 26 1
29 24 25 2
30 26 27 1
31 27 28 1
32 28 29 2
33 28 30 1
34 5 31 1
35 5 32 1
36 6 33 1
37 6 34 1
38 8 35 1
39 8 36 1
40 9 37 1
41 9 38 1
42 12 39 1
43 12 40 1
44 15 41 1
45 16 42 1
46 17 43 1
47 18 44 1
48 21 45 1
49 24 46 1
50 25 47 1
51 27 48 1
52 27 49 1
53 30 50 1
@<TRIPOS>SUBSTRUCTURE
1	UNK0	1	GROUP	1 ****	UNK
# created with PyMOL 2.3.2
@<TRIPOS>MOLECULE
1040
60 64 1                 
SMALL
USER_CHARGES
@<TRIPOS>ATOM
1	   S	0.282	-1.000	0.491	S.O2	1	UNK0	0.000	
2	   O	1.136	-2.081	1.032	O.2	1	UNK0	0.000	
3	   O	-0.723	-1.713	-0.421	O.2	1	UNK0	0.000	
4	   N	1.115	0.085	-0.553	N.3	1	UNK0	0.000	
5	   C	0.263	0.923	-1.324	C.3	1	UNK0	0.000	
6	   C	-0.180	0.314	-2.648	C.3	1	UNK0	0.000	
7	   N	0.971	-0.141	-3.353	N.pl3	1	UNK0	0.000	
8	   C	1.727	-1.180	-2.582	C.3	1	UNK0	0.000	
9	   C	2.152	-0.532	-1.308	C.3	1	UNK0	0.000	
10	   C	1.490	0.203	-4.585	C.2	1	UNK0	0.000	
11	   O	2.595	-0.434	-4.918	O.2	1	UNK0	0.000	
12	   C	1.041	1.136	-5.577	C.3	1	UNK0	0.000	
13	   N	-0.150	1.875	-5.365	N.pl3	1	UNK0	0.000	
14	   N	-0.280	3.062	-4.775	N.2	1	UNK0	0.000	
15	   C	-1.556	3.467	-4.792	C.2	1	UNK0	0.000	
16	   C	-2.259	2.474	-5.429	C.2	1	UNK0	0.000	
17	   C	-1.385	1.490	-5.782	C.2	1	UNK0	0.000	
18	  Br	-4.153	2.468	-5.767	Br	1	UNK0	0.000	
19	   C	-0.680	-0.166	1.671	C.2	1	UNK0	0.000	
20	   C	-2.031	0.137	1.452	C.2	1	UNK0	0.000	
21	   C	-2.789	0.803	2.394	C.2	1	UNK0	0.000	
22	   C	-2.243	1.199	3.598	C.2	1	UNK0	0.000	
23	   C	-0.925	0.908	3.818	C.2	1	UNK0	0.000	
24	   C	-0.173	0.236	2.860	C.2	1	UNK0	0.000	
25	   C	1.232	0.004	3.235	C.3	1	UNK0	0.000	
26	   C	1.330	-0.581	4.627	C.3	1	UNK0	0.000	
27	   N	0.452	0.076	5.519	N.3	1	UNK0	0.000	
28	   C	-0.197	1.262	5.058	C.3	1	UNK0	0.000	
29	   C	-0.313	-0.745	6.390	C.3	1	UNK0	0.000	
30	   O	-3.011	1.880	4.565	O.3	1	UNK0	0.000	
31	   C	-3.714	1.108	5.549	C.3	1	UNK0	0.000	
32	   O	-4.059	0.944	1.879	O.3	1	UNK0	0.000	
33	   C	-4.066	0.487	0.556	C.3	1	UNK0	0.000	
34	   O	-2.815	-0.147	0.338	O.3	1	UNK0	0.000	
35	   H	-0.655	1.152	-0.748	 H	1	UNK0	0.000	
36	   H	0.787	1.868	-1.569	 H	1	UNK0	0.000	
37	   H	-0.820	1.042	-3.122	 H	1	UNK0	0.000	
38	   H	-0.817	-0.590	-2.466	 H	1	UNK0	0.000	
39	   H	2.630	-1.479	-3.143	 H	1	UNK0	0.000	
40	   H	1.104	-2.054	-2.399	 H	1	UNK0	0.000	
41	   H	2.713	-1.262	-0.695	 H	1	UNK0	0.000	
42	   H	2.897	0.266	-1.572	 H	1	UNK0	0.000	
43	   H	0.911	0.621	-6.602	 H	1	UNK0	0.000	
44	   H	1.907	1.855	-5.825	 H	1	UNK0	0.000	
45	   H	-1.948	4.403	-4.378	 H	1	UNK0	0.000	
46	   H	-1.638	0.584	-6.294	 H	1	UNK0	0.000	
47	   H	1.863	-0.475	2.499	 H	1	UNK0	0.000	
48	   H	1.670	1.048	3.349	 H	1	UNK0	0.000	
49	   H	0.979	-1.647	4.527	 H	1	UNK0	0.000	
50	   H	2.384	-0.633	4.972	 H	1	UNK0	0.000	
51	   H	-0.882	1.622	5.845	 H	1	UNK0	0.000	
52	   H	0.509	2.086	4.819	 H	1	UNK0	0.000	
53	   H	-0.273	-0.445	7.457	 H	1	UNK0	0.000	
54	   H	0.014	-1.805	6.251	 H	1	UNK0	0.000	
55	   H	-1.382	-0.729	6.073	 H	1	UNK0	0.000	
56	   H	-3.597	0.023	5.352	 H	1	UNK0	0.000	
57	   H	-4.796	1.335	5.510	 H	1	UNK0	0.000	
58	   H	-3.383	1.394	6.579	 H	1	UNK0	0.000	
59	   H	-4.253	1.270	-0.192	 H	1	UNK0	0.000	
60	   H	-4.834	-0.333	0.505	 H	1	UNK0	0.000	
@<TRIPOS>BOND
1 1 2 2
2 1 3 2
3 1 4 1
4 1 19 1
5 4 5 1
6 4 9 1
7 5 6 1
8 6 7 1
9 7 8 1
10 7 10 1
11 8 9 1
12 10 11 2
13 10 12 1
14 12 13 1
15 13 14 1
16 13 17 1
17 14 15 2
18 15 16 1
19 16 17 2
20 16 18 1
21 19 20 2
22 19 24 1
23 20 21 1
24 20 34 1
25 21 22 2
26 21 32 1
27 22 23 1
28 22 30 1
29 23 24 2
30 23 28 1
31 24 25 1
32 25 26 1
33 26 27 1
34 27 28 1
35 27 29 1
36 30 31 1
37 32 33 1
38 33 34 1
39 5 35 1
40 5 36 1
41 6 37 1
42 6 38 1
43 8 39 1
44 8 40 1
45 9 41 1
46 9 42 1
47 12 43 1
48 12 44 1
49 15 45 1
50 17 46 1
51 25 47 1
52 25 48 1
53 26 49 1
54 26 50 1
55 28 51 1
56 28 52 1
57 29 53 1
58 29 54 1
59 29 55 1
60 31 56 1
61 31 57 1
62 31 58 1
63 33 59 1
64 33 60 1
@<TRIPOS>SUBSTRUCTURE
1	UNK0	1	GROUP	1 ****	UNK
# created with PyMOL 2.3.2
@<TRIPOS>MOLECULE
1042
53 56 1                 
SMALL
USER_CHARGES
@<TRIPOS>ATOM
1	   S	0.527	4.723	-1.776	S.O2	1	UNK0	0.000	
2	   O	1.140	5.273	-3.071	O.2	1	UNK0	0.000	
3	   O	-0.652	5.669	-1.528	O.2	1	UNK0	0.000	
4	   N	0.028	3.169	-2.059	N.3	1	UNK0	0.000	
5	   C	0.864	2.154	-2.495	C.3	1	UNK0	0.000	
6	   C	-0.021	0.955	-2.933	C.3	1	UNK0	0.000	
7	   N	-0.942	0.626	-1.881	N.pl3	1	UNK0	0.000	
8	   C	-1.845	1.671	-1.456	C.3	1	UNK0	0.000	
9	   C	-1.390	2.947	-2.130	C.3	1	UNK0	0.000	
10	   C	-1.003	-0.637	-1.262	C.2	1	UNK0	0.000	
11	   O	-0.218	-1.538	-1.635	O.2	1	UNK0	0.000	
12	   C	-1.966	-0.910	-0.194	C.3	1	UNK0	0.000	
13	   N	-1.830	-2.284	0.282	N.pl3	1	UNK0	0.000	
14	   C	-1.020	-2.806	1.315	C.2	1	UNK0	0.000	
15	   O	-0.230	-2.120	2.043	O.2	1	UNK0	0.000	
16	   N	-1.257	-4.207	1.377	N.pl3	1	UNK0	0.000	
17	   C	-2.523	-4.449	0.736	C.3	1	UNK0	0.000	
18	   C	-3.689	-4.410	1.669	C.3	1	UNK0	0.000	
19	   C	-4.783	-5.076	0.825	C.3	1	UNK0	0.000	
20	   C	-4.052	-6.154	0.073	C.3	1	UNK0	0.000	
21	   C	-2.596	-5.826	0.118	C.3	1	UNK0	0.000	
22	   C	-2.568	-3.382	-0.292	C.2	1	UNK0	0.000	
23	   O	-3.128	-3.435	-1.410	O.2	1	UNK0	0.000	
24	   C	1.727	4.991	-0.550	C.2	1	UNK0	0.000	
25	   C	3.048	4.637	-0.615	C.2	1	UNK0	0.000	
26	   C	3.925	4.853	0.454	C.2	1	UNK0	0.000	
27	   C	3.510	5.427	1.614	C.2	1	UNK0	0.000	
28	   C	2.195	5.795	1.710	C.2	1	UNK0	0.000	
29	   C	1.330	5.584	0.663	C.2	1	UNK0	0.000	
30	  Br	3.730	3.894	-2.222	Br	1	UNK0	0.000	
31	   H	1.627	1.786	-1.780	 H	1	UNK0	0.000	
32	   H	1.383	2.428	-3.434	 H	1	UNK0	0.000	
33	   H	-0.545	1.272	-3.841	 H	1	UNK0	0.000	
34	   H	0.683	0.161	-3.193	 H	1	UNK0	0.000	
35	   H	-2.862	1.453	-1.882	 H	1	UNK0	0.000	
36	   H	-1.946	1.778	-0.378	 H	1	UNK0	0.000	
37	   H	-1.915	3.839	-1.745	 H	1	UNK0	0.000	
38	   H	-1.661	2.856	-3.203	 H	1	UNK0	0.000	
39	   H	-3.016	-0.676	-0.497	 H	1	UNK0	0.000	
40	   H	-1.794	-0.266	0.716	 H	1	UNK0	0.000	
41	   H	-0.579	-4.871	1.827	 H	1	UNK0	0.000	
42	   H	-3.480	-5.075	2.522	 H	1	UNK0	0.000	
43	   H	-3.991	-3.384	1.958	 H	1	UNK0	0.000	
44	   H	-5.171	-4.335	0.093	 H	1	UNK0	0.000	
45	   H	-5.584	-5.466	1.471	 H	1	UNK0	0.000	
46	   H	-4.367	-6.207	-0.982	 H	1	UNK0	0.000	
47	   H	-4.203	-7.103	0.618	 H	1	UNK0	0.000	
48	   H	-1.998	-6.528	0.717	 H	1	UNK0	0.000	
49	   H	-2.138	-5.802	-0.909	 H	1	UNK0	0.000	
50	   H	4.940	4.546	0.322	 H	1	UNK0	0.000	
51	   H	4.234	5.565	2.397	 H	1	UNK0	0.000	
52	   H	1.867	6.253	2.633	 H	1	UNK0	0.000	
53	   H	0.292	5.876	0.742	 H	1	UNK0	0.000	
@<TRIPOS>BOND
1 1 2 2
2 1 3 2
3 1 4 1
4 1 24 1
5 4 5 1
6 4 9 1
7 5 6 1
8 6 7 1
9 7 8 1
10 7 10 1
11 8 9 1
12 10 11 2
13 10 12 1
14 12 13 1
15 13 14 1
16 13 22 1
17 14 15 2
18 14 16 1
19 16 17 1
20 17 18 1
21 17 21 1
22 17 22 1
23 18 19 1
24 19 20 1
25 20 21 1
26 22 23 2
27 24 25 2
28 24 29 1
29 25 26 1
30 25 30 1
31 26 27 2
32 27 28 1
33 28 29 2
34 5 31 1
35 5 32 1
36 6 33 1
37 6 34 1
38 8 35 1
39 8 36 1
40 9 37 1
41 9 38 1
42 12 39 1
43 12 40 1
44 16 41 1
45 18 42 1
46 18 43 1
47 19 44 1
48 19 45 1
49 20 46 1
50 20 47 1
51 21 48 1
52 21 49 1
53 26 50 1
54 27 51 1
55 28 52 1
56 29 53 1
@<TRIPOS>SUBSTRUCTURE
1	UNK0	1	GROUP	1 ****	UNK
# created with PyMOL 2.3.2
@<TRIPOS>MOLECULE
1043
53 56 1                 
SMALL
USER_CHARGES
@<TRIPOS>ATOM
1	   S	1.052	3.567	-1.419	S.O2	1	UNK0	0.000	
2	   O	0.292	4.264	-0.305	O.2	1	UNK0	0.000	
3	   O	0.426	4.048	-2.704	O.2	1	UNK0	0.000	
4	   N	0.767	1.893	-1.246	N.3	1	UNK0	0.000	
5	   C	1.357	1.102	-2.305	C.3	1	UNK0	0.000	
6	   C	1.992	-0.153	-1.760	C.3	1	UNK0	0.000	
7	   N	0.971	-0.823	-0.928	N.pl3	1	UNK0	0.000	
8	   C	0.422	-0.028	0.126	C.3	1	UNK0	0.000	
9	   C	1.082	1.368	0.036	C.3	1	UNK0	0.000	
10	   C	0.592	-2.147	-1.192	C.2	1	UNK0	0.000	
11	   O	1.209	-2.698	-2.218	O.2	1	UNK0	0.000	
12	   C	-0.347	-3.040	-0.562	C.3	1	UNK0	0.000	
13	   N	-1.102	-2.614	0.574	N.pl3	1	UNK0	0.000	
14	   C	-0.740	-2.740	1.973	C.2	1	UNK0	0.000	
15	   O	0.350	-3.253	2.351	O.2	1	UNK0	0.000	
16	   N	-1.800	-2.200	2.745	N.pl3	1	UNK0	0.000	
17	   C	-2.952	-2.152	1.910	C.3	1	UNK0	0.000	
18	   C	-3.840	-3.366	2.042	C.3	1	UNK0	0.000	
19	   C	-5.095	-2.900	1.329	C.3	1	UNK0	0.000	
20	   C	-5.136	-1.400	1.494	C.3	1	UNK0	0.000	
21	   C	-3.905	-1.031	2.287	C.3	1	UNK0	0.000	
22	   C	-2.401	-1.986	0.566	C.2	1	UNK0	0.000	
23	   O	-2.922	-1.417	-0.427	O.2	1	UNK0	0.000	
24	   C	2.748	3.984	-1.378	C.2	1	UNK0	0.000	
25	   C	3.405	4.277	-0.200	C.2	1	UNK0	0.000	
26	   C	4.755	4.608	-0.178	C.2	1	UNK0	0.000	
27	   C	5.484	4.654	-1.338	C.2	1	UNK0	0.000	
28	   C	4.840	4.363	-2.522	C.2	1	UNK0	0.000	
29	   C	3.493	4.033	-2.537	C.2	1	UNK0	0.000	
30	  Br	7.355	5.111	-1.316	Br	1	UNK0	0.000	
31	   H	0.492	0.756	-2.942	 H	1	UNK0	0.000	
32	   H	2.075	1.692	-2.904	 H	1	UNK0	0.000	
33	   H	2.891	0.106	-1.208	 H	1	UNK0	0.000	
34	   H	2.261	-0.802	-2.621	 H	1	UNK0	0.000	
35	   H	0.563	-0.420	1.139	 H	1	UNK0	0.000	
36	   H	-0.676	0.132	-0.090	 H	1	UNK0	0.000	
37	   H	2.133	1.220	0.275	 H	1	UNK0	0.000	
38	   H	0.648	2.022	0.827	 H	1	UNK0	0.000	
39	   H	0.197	-4.004	-0.241	 H	1	UNK0	0.000	
40	   H	-1.105	-3.450	-1.314	 H	1	UNK0	0.000	
41	   H	-1.676	-1.910	3.754	 H	1	UNK0	0.000	
42	   H	-4.092	-3.480	3.113	 H	1	UNK0	0.000	
43	   H	-3.408	-4.266	1.599	 H	1	UNK0	0.000	
44	   H	-6.014	-3.343	1.758	 H	1	UNK0	0.000	
45	   H	-4.971	-3.196	0.264	 H	1	UNK0	0.000	
46	   H	-6.069	-1.062	1.987	 H	1	UNK0	0.000	
47	   H	-5.021	-0.949	0.482	 H	1	UNK0	0.000	
48	   H	-4.078	-1.146	3.391	 H	1	UNK0	0.000	
49	   H	-3.508	-0.042	2.035	 H	1	UNK0	0.000	
50	   H	2.836	4.242	0.713	 H	1	UNK0	0.000	
51	   H	5.281	4.841	0.739	 H	1	UNK0	0.000	
52	   H	5.441	4.405	-3.429	 H	1	UNK0	0.000	
53	   H	3.021	3.809	-3.505	 H	1	UNK0	0.000	
@<TRIPOS>BOND
1 1 2 2
2 1 3 2
3 1 4 1
4 1 24 1
5 4 5 1
6 4 9 1
7 5 6 1
8 6 7 1
9 7 8 1
10 7 10 1
11 8 9 1
12 10 11 2
13 10 12 1
14 12 13 1
15 13 14 1
16 13 22 1
17 14 15 2
18 14 16 1
19 16 17 1
20 17 18 1
21 17 21 1
22 17 22 1
23 18 19 1
24 19 20 1
25 20 21 1
26 22 23 2
27 24 25 2
28 24 29 1
29 25 26 1
30 26 27 2
31 27 28 1
32 27 30 1
33 28 29 2
34 5 31 1
35 5 32 1
36 6 33 1
37 6 34 1
38 8 35 1
39 8 36 1
40 9 37 1
41 9 38 1
42 12 39 1
43 12 40 1
44 16 41 1
45 18 42 1
46 18 43 1
47 19 44 1
48 19 45 1
49 20 46 1
50 20 47 1
51 21 48 1
52 21 49 1
53 25 50 1
54 26 51 1
55 28 52 1
56 29 53 1
@<TRIPOS>SUBSTRUCTURE
1	UNK0	1	GROUP	1 ****	UNK
# created with PyMOL 2.3.2
@<TRIPOS>MOLECULE
1044
47 50 1                 
SMALL
USER_CHARGES
@<TRIPOS>ATOM
1	   S	-1.694	-2.666	-2.530	S.O2	1	UNK0	0.000	
2	   O	-1.158	-4.006	-2.852	O.2	1	UNK0	0.000	
3	   O	-2.894	-2.438	-3.441	O.2	1	UNK0	0.000	
4	   N	-2.223	-2.486	-0.934	N.3	1	UNK0	0.000	
5	   C	-2.902	-1.312	-0.604	C.3	1	UNK0	0.000	
6	   C	-2.861	-0.887	0.821	C.3	1	UNK0	0.000	
7	   N	-1.718	-1.341	1.548	N.pl3	1	UNK0	0.000	
8	   C	-0.723	-2.139	0.865	C.3	1	UNK0	0.000	
9	   C	-1.507	-3.174	0.061	C.3	1	UNK0	0.000	
10	   C	-1.520	-1.040	2.917	C.2	1	UNK0	0.000	
11	   O	-2.368	-0.341	3.559	O.2	1	UNK0	0.000	
12	   C	-0.361	-1.495	3.674	C.2	1	UNK0	0.000	
13	   C	0.803	-0.754	3.761	C.2	1	UNK0	0.000	
14	   C	1.903	-1.173	4.473	C.2	1	UNK0	0.000	
15	   C	1.828	-2.393	5.127	C.2	1	UNK0	0.000	
16	   C	0.696	-3.172	5.076	C.2	1	UNK0	0.000	
17	   C	-0.378	-2.708	4.349	C.2	1	UNK0	0.000	
18	  Br	0.834	0.916	2.835	Br	1	UNK0	0.000	
19	   C	-0.546	-1.396	-2.938	C.2	1	UNK0	0.000	
20	   C	0.809	-1.558	-2.735	C.2	1	UNK0	0.000	
21	   C	1.734	-0.582	-3.045	C.2	1	UNK0	0.000	
22	   C	1.324	0.621	-3.582	C.2	1	UNK0	0.000	
23	   C	-0.037	0.787	-3.788	C.2	1	UNK0	0.000	
24	   C	-0.956	-0.193	-3.476	C.2	1	UNK0	0.000	
25	   O	2.234	1.626	-3.905	O.3	1	UNK0	0.000	
26	   C	3.589	1.631	-3.498	C.3	1	UNK0	0.000	
27	   C	4.076	0.270	-3.159	C.2	1	UNK0	0.000	
28	   O	5.319	0.083	-3.175	O.2	1	UNK0	0.000	
29	   N	3.131	-0.744	-2.836	N.pl3	1	UNK0	0.000	
30	   H	-3.985	-1.421	-0.904	 H	1	UNK0	0.000	
31	   H	-2.516	-0.476	-1.259	 H	1	UNK0	0.000	
32	   H	-3.823	-1.148	1.327	 H	1	UNK0	0.000	
33	   H	-2.835	0.242	0.853	 H	1	UNK0	0.000	
34	   H	-0.025	-2.628	1.572	 H	1	UNK0	0.000	
35	   H	-0.150	-1.522	0.163	 H	1	UNK0	0.000	
36	   H	-0.767	-3.870	-0.348	 H	1	UNK0	0.000	
37	   H	-2.225	-3.671	0.762	 H	1	UNK0	0.000	
38	   H	2.823	-0.574	4.534	 H	1	UNK0	0.000	
39	   H	2.709	-2.714	5.689	 H	1	UNK0	0.000	
40	   H	0.667	-4.130	5.602	 H	1	UNK0	0.000	
41	   H	-1.270	-3.314	4.304	 H	1	UNK0	0.000	
42	   H	1.144	-2.493	-2.315	 H	1	UNK0	0.000	
43	   H	-0.363	1.732	-4.210	 H	1	UNK0	0.000	
44	   H	-2.012	-0.062	-3.636	 H	1	UNK0	0.000	
45	   H	3.724	2.272	-2.584	 H	1	UNK0	0.000	
46	   H	4.193	2.106	-4.296	 H	1	UNK0	0.000	
47	   H	3.457	-1.647	-2.431	 H	1	UNK0	0.000	
@<TRIPOS>BOND
1 1 2 2
2 1 3 2
3 1 4 1
4 1 19 1
5 4 5 1
6 4 9 1
7 5 6 1
8 6 7 1
9 7 8 1
10 7 10 1
11 8 9 1
12 10 11 2
13 10 12 1
14 12 13 2
15 12 17 1
16 13 14 1
17 13 18 1
18 14 15 2
19 15 16 1
20 16 17 2
21 19 20 2
22 19 24 1
23 20 21 1
24 21 22 2
25 21 29 1
26 22 23 1
27 22 25 1
28 23 24 2
29 25 26 1
30 26 27 1
31 27 28 2
32 27 29 1
33 5 30 1
34 5 31 1
35 6 32 1
36 6 33 1
37 8 34 1
38 8 35 1
39 9 36 1
40 9 37 1
41 14 38 1
42 15 39 1
43 16 40 1
44 17 41 1
45 20 42 1
46 23 43 1
47 24 44 1
48 26 45 1
49 26 46 1
50 29 47 1
@<TRIPOS>SUBSTRUCTURE
1	UNK0	1	GROUP	1 ****	UNK
# created with PyMOL 2.3.2
@<TRIPOS>MOLECULE
1051
43 46 1                 
SMALL
USER_CHARGES
@<TRIPOS>ATOM
1	   S	1.487	2.349	-2.276	S.O2	1	UNK0	0.000	
2	   O	1.599	1.811	-3.666	O.2	1	UNK0	0.000	
3	   O	2.037	3.769	-2.267	O.2	1	UNK0	0.000	
4	   N	2.478	1.436	-1.204	N.3	1	UNK0	0.000	
5	   C	2.141	0.062	-1.136	C.3	1	UNK0	0.000	
6	   C	1.620	-0.435	0.169	C.3	1	UNK0	0.000	
7	   N	2.201	0.210	1.316	N.pl3	1	UNK0	0.000	
8	   C	3.208	1.213	1.051	C.3	1	UNK0	0.000	
9	   C	2.575	2.137	0.031	C.3	1	UNK0	0.000	
10	   C	1.855	-0.075	2.650	C.2	1	UNK0	0.000	
11	   O	2.416	0.539	3.584	O.2	1	UNK0	0.000	
12	   C	0.845	-1.083	2.955	C.2	1	UNK0	0.000	
13	   N	0.174	-1.807	2.065	N.2	1	UNK0	0.000	
14	   N	-0.673	-2.634	2.682	N.pl3	1	UNK0	0.000	
15	   C	-0.571	-2.464	4.020	C.2	1	UNK0	0.000	
16	   C	0.400	-1.471	4.193	C.2	1	UNK0	0.000	
17	   N	-1.322	-3.180	4.894	N.2	1	UNK0	0.000	
18	   C	-2.208	-4.101	4.416	C.2	1	UNK0	0.000	
19	   C	-2.334	-4.298	3.058	C.2	1	UNK0	0.000	
20	   C	-1.550	-3.546	2.212	C.2	1	UNK0	0.000	
21	  Br	-3.584	-5.597	2.387	Br	1	UNK0	0.000	
22	   C	-0.190	2.332	-1.791	C.2	1	UNK0	0.000	
23	   C	-1.159	1.430	-2.167	C.2	1	UNK0	0.000	
24	   N	-2.318	1.748	-1.589	N.pl3	1	UNK0	0.000	
25	   N	-2.135	2.825	-0.850	N.2	1	UNK0	0.000	
26	   C	-0.841	3.225	-0.940	C.2	1	UNK0	0.000	
27	   C	-3.576	1.062	-1.720	C.3	1	UNK0	0.000	
28	   H	1.400	-0.173	-1.928	 H	1	UNK0	0.000	
29	   H	3.052	-0.529	-1.385	 H	1	UNK0	0.000	
30	   H	0.499	-0.315	0.244	 H	1	UNK0	0.000	
31	   H	1.798	-1.525	0.288	 H	1	UNK0	0.000	
32	   H	3.491	1.782	1.956	 H	1	UNK0	0.000	
33	   H	4.073	0.682	0.594	 H	1	UNK0	0.000	
34	   H	3.242	3.013	-0.118	 H	1	UNK0	0.000	
35	   H	1.609	2.490	0.423	 H	1	UNK0	0.000	
36	   H	0.740	-1.081	5.129	 H	1	UNK0	0.000	
37	   H	-2.827	-4.695	5.075	 H	1	UNK0	0.000	
38	   H	-1.638	-3.688	1.140	 H	1	UNK0	0.000	
39	   H	-1.052	0.569	-2.832	 H	1	UNK0	0.000	
40	   H	-0.382	4.075	-0.451	 H	1	UNK0	0.000	
41	   H	-4.249	1.686	-2.344	 H	1	UNK0	0.000	
42	   H	-4.067	0.978	-0.730	 H	1	UNK0	0.000	
43	   H	-3.453	0.069	-2.196	 H	1	UNK0	0.000	
@<TRIPOS>BOND
1 1 2 2
2 1 3 2
3 1 4 1
4 1 22 1
5 4 5 1
6 4 9 1
7 5 6 1
8 6 7 1
9 7 8 1
10 7 10 1
11 8 9 1
12 10 11 2
13 10 12 1
14 12 13 2
15 12 16 1
16 13 14 1
17 14 15 1
18 14 20 1
19 15 16 2
20 15 17 1
21 17 18 2
22 18 19 1
23 19 20 2
24 19 21 1
25 22 23 2
26 22 26 1
27 23 24 1
28 24 25 1
29 24 27 1
30 25 26 2
31 5 28 1
32 5 29 1
33 6 30 1
34 6 31 1
35 8 32 1
36 8 33 1
37 9 34 1
38 9 35 1
39 16 36 1
40 18 37 1
41 20 38 1
42 23 39 1
43 26 40 1
44 27 41 1
45 27 42 1
46 27 43 1
@<TRIPOS>SUBSTRUCTURE
1	UNK0	1	GROUP	1 ****	UNK
# created with PyMOL 2.3.2
@<TRIPOS>MOLECULE
1056
49 52 1                 
SMALL
USER_CHARGES
@<TRIPOS>ATOM
1	   S	1.276	-3.505	-2.795	S.O2	1	UNK0	0.000	
2	   O	2.098	-2.651	-3.696	O.2	1	UNK0	0.000	
3	   O	1.450	-4.945	-3.211	O.2	1	UNK0	0.000	
4	   N	1.792	-3.344	-1.192	N.3	1	UNK0	0.000	
5	   C	1.161	-4.176	-0.240	C.3	1	UNK0	0.000	
6	   C	0.133	-3.563	0.618	C.3	1	UNK0	0.000	
7	   N	0.488	-2.235	1.021	N.pl3	1	UNK0	0.000	
8	   C	1.760	-1.698	0.631	C.3	1	UNK0	0.000	
9	   C	2.149	-2.037	-0.774	C.3	1	UNK0	0.000	
10	   C	-0.396	-1.455	1.793	C.2	1	UNK0	0.000	
11	   O	-1.502	-1.940	2.123	O.2	1	UNK0	0.000	
12	   C	-0.101	-0.099	2.238	C.2	1	UNK0	0.000	
13	   C	0.531	0.105	3.451	C.2	1	UNK0	0.000	
14	   N	0.804	1.353	3.862	N.2	1	UNK0	0.000	
15	   C	0.485	2.443	3.131	C.2	1	UNK0	0.000	
16	   N	-0.130	2.280	1.947	N.pl3	1	UNK0	0.000	
17	   C	-0.454	3.377	1.206	C.2	1	UNK0	0.000	
18	   C	-0.170	4.657	1.636	C.2	1	UNK0	0.000	
19	   C	0.463	4.849	2.853	C.2	1	UNK0	0.000	
20	   C	0.780	3.725	3.582	C.2	1	UNK0	0.000	
21	   C	-0.507	5.875	0.858	C.3	1	UNK0	0.000	
22	   C	-0.419	1.027	1.506	C.2	1	UNK0	0.000	
23	   O	-0.986	0.878	0.413	O.2	1	UNK0	0.000	
24	   C	-0.415	-3.102	-2.924	C.2	1	UNK0	0.000	
25	   C	-1.375	-4.080	-2.769	C.2	1	UNK0	0.000	
26	   C	-2.705	-3.689	-2.884	C.2	1	UNK0	0.000	
27	   C	-3.066	-2.392	-3.140	C.2	1	UNK0	0.000	
28	   C	-2.092	-1.416	-3.294	C.2	1	UNK0	0.000	
29	   C	-0.748	-1.788	-3.182	C.2	1	UNK0	0.000	
30	  Br	-4.076	-4.991	-2.681	Br	1	UNK0	0.000	
31	   H	0.712	-5.049	-0.781	 H	1	UNK0	0.000	
32	   H	1.952	-4.621	0.417	 H	1	UNK0	0.000	
33	   H	-0.832	-3.550	0.029	 H	1	UNK0	0.000	
34	   H	-0.063	-4.140	1.564	 H	1	UNK0	0.000	
35	   H	1.774	-0.601	0.793	 H	1	UNK0	0.000	
36	   H	2.515	-2.104	1.368	 H	1	UNK0	0.000	
37	   H	3.246	-1.908	-0.876	 H	1	UNK0	0.000	
38	   H	1.676	-1.300	-1.454	 H	1	UNK0	0.000	
39	   H	0.797	-0.769	4.056	 H	1	UNK0	0.000	
40	   H	-0.949	3.238	0.255	 H	1	UNK0	0.000	
41	   H	0.712	5.826	3.242	 H	1	UNK0	0.000	
42	   H	1.274	3.858	4.534	 H	1	UNK0	0.000	
43	   H	0.329	6.130	0.153	 H	1	UNK0	0.000	
44	   H	-0.675	6.747	1.536	 H	1	UNK0	0.000	
45	   H	-1.392	5.708	0.206	 H	1	UNK0	0.000	
46	   H	-1.095	-5.100	-2.568	 H	1	UNK0	0.000	
47	   H	-4.113	-2.135	-3.221	 H	1	UNK0	0.000	
48	   H	-2.389	-0.400	-3.495	 H	1	UNK0	0.000	
49	   H	0.020	-1.045	-3.298	 H	1	UNK0	0.000	
@<TRIPOS>BOND
1 1 2 2
2 1 3 2
3 1 4 1
4 1 24 1
5 4 5 1
6 4 9 1
7 5 6 1
8 6 7 1
9 7 8 1
10 7 10 1
11 8 9 1
12 10 11 2
13 10 12 1
14 12 13 2
15 12 22 1
16 13 14 1
17 14 15 2
18 15 16 1
19 15 20 1
20 16 17 1
21 16 22 1
22 17 18 2
23 18 19 1
24 18 21 1
25 19 20 2
26 22 23 2
27 24 25 2
28 24 29 1
29 25 26 1
30 26 27 2
31 26 30 1
32 27 28 1
33 28 29 2
34 5 31 1
35 5 32 1
36 6 33 1
37 6 34 1
38 8 35 1
39 8 36 1
40 9 37 1
41 9 38 1
42 13 39 1
43 17 40 1
44 19 41 1
45 20 42 1
46 21 43 1
47 21 44 1
48 21 45 1
49 25 46 1
50 27 47 1
51 28 48 1
52 29 49 1
@<TRIPOS>SUBSTRUCTURE
1	UNK0	1	GROUP	1 ****	UNK
# created with PyMOL 2.3.2
@<TRIPOS>MOLECULE
1061
54 58 1                 
SMALL
USER_CHARGES
@<TRIPOS>ATOM
1	   S	-1.859	-2.186	-2.244	S.O2	1	UNK0	0.000	
2	   O	-3.112	-2.835	-2.818	O.2	1	UNK0	0.000	
3	   O	-0.724	-3.079	-2.747	O.2	1	UNK0	0.000	
4	   N	-1.680	-0.681	-2.967	N.3	1	UNK0	0.000	
5	   C	-2.688	0.303	-2.672	C.3	1	UNK0	0.000	
6	   C	-2.077	1.644	-2.336	C.3	1	UNK0	0.000	
7	   N	-1.094	1.492	-1.234	N.3	1	UNK0	0.000	
8	   C	-0.010	0.655	-1.728	C.3	1	UNK0	0.000	
9	   C	-0.371	-0.104	-2.993	C.3	1	UNK0	0.000	
10	   C	-0.607	2.838	-1.021	C.3	1	UNK0	0.000	
11	   C	0.226	3.089	0.163	C.3	1	UNK0	0.000	
12	   N	1.444	2.373	0.337	N.pl3	1	UNK0	0.000	
13	   C	2.761	2.654	-0.123	C.2	1	UNK0	0.000	
14	   O	3.042	3.335	-1.120	O.2	1	UNK0	0.000	
15	   C	3.734	1.999	0.784	C.3	1	UNK0	0.000	
16	   C	2.903	0.782	1.251	C.3	1	UNK0	0.000	
17	   C	3.352	-0.353	0.410	C.3	1	UNK0	0.000	
18	   C	3.910	0.364	-0.831	C.3	1	UNK0	0.000	
19	   C	4.793	1.315	-0.004	C.3	1	UNK0	0.000	
20	   C	5.429	0.308	0.910	C.2	1	UNK0	0.000	
21	   C	4.686	-0.797	0.973	C.2	1	UNK0	0.000	
22	   C	1.504	1.166	1.129	C.2	1	UNK0	0.000	
23	   O	0.543	0.535	1.636	O.2	1	UNK0	0.000	
24	   C	-1.834	-2.248	-0.528	C.2	1	UNK0	0.000	
25	   C	-0.682	-2.569	0.148	C.2	1	UNK0	0.000	
26	   C	-0.697	-2.599	1.531	C.2	1	UNK0	0.000	
27	   C	-1.833	-2.318	2.268	C.2	1	UNK0	0.000	
28	   C	-2.987	-1.996	1.585	C.2	1	UNK0	0.000	
29	   C	-2.971	-1.966	0.195	C.2	1	UNK0	0.000	
30	  Br	-1.856	-2.361	4.174	Br	1	UNK0	0.000	
31	   H	-3.280	0.459	-3.604	 H	1	UNK0	0.000	
32	   H	-3.369	-0.048	-1.898	 H	1	UNK0	0.000	
33	   H	-2.871	2.305	-1.946	 H	1	UNK0	0.000	
34	   H	-1.597	2.144	-3.197	 H	1	UNK0	0.000	
35	   H	0.190	-0.130	-0.980	 H	1	UNK0	0.000	
36	   H	0.870	1.304	-1.882	 H	1	UNK0	0.000	
37	   H	0.368	-0.863	-3.243	 H	1	UNK0	0.000	
38	   H	-0.366	0.642	-3.820	 H	1	UNK0	0.000	
39	   H	-1.500	3.537	-0.934	 H	1	UNK0	0.000	
40	   H	-0.129	3.207	-1.984	 H	1	UNK0	0.000	
41	   H	0.497	4.196	0.129	 H	1	UNK0	0.000	
42	   H	-0.440	3.010	1.068	 H	1	UNK0	0.000	
43	   H	4.064	2.623	1.609	 H	1	UNK0	0.000	
44	   H	3.185	0.540	2.316	 H	1	UNK0	0.000	
45	   H	2.666	-1.136	0.191	 H	1	UNK0	0.000	
46	   H	4.521	-0.297	-1.456	 H	1	UNK0	0.000	
47	   H	3.166	0.950	-1.362	 H	1	UNK0	0.000	
48	   H	5.471	1.904	-0.573	 H	1	UNK0	0.000	
49	   H	6.356	0.413	1.463	 H	1	UNK0	0.000	
50	   H	4.967	-1.768	1.335	 H	1	UNK0	0.000	
51	   H	0.254	-2.801	-0.385	 H	1	UNK0	0.000	
52	   H	0.218	-2.854	2.065	 H	1	UNK0	0.000	
53	   H	-3.866	-1.780	2.172	 H	1	UNK0	0.000	
54	   H	-3.916	-1.702	-0.258	 H	1	UNK0	0.000	
@<TRIPOS>BOND
1 1 2 2
2 1 3 2
3 1 4 1
4 1 24 1
5 4 5 1
6 4 9 1
7 5 6 1
8 6 7 1
9 7 8 1
10 7 10 1
11 8 9 1
12 10 11 1
13 11 12 1
14 12 13 1
15 12 22 1
16 13 14 2
17 13 15 1
18 15 16 1
19 15 19 1
20 16 17 1
21 16 22 1
22 17 18 1
23 17 21 1
24 18 19 1
25 19 20 1
26 20 21 2
27 22 23 2
28 24 25 2
29 24 29 1
30 25 26 1
31 26 27 2
32 27 28 1
33 27 30 1
34 28 29 2
35 5 31 1
36 5 32 1
37 6 33 1
38 6 34 1
39 8 35 1
40 8 36 1
41 9 37 1
42 9 38 1
43 10 39 1
44 10 40 1
45 11 41 1
46 11 42 1
47 15 43 1
48 16 44 1
49 17 45 1
50 18 46 1
51 18 47 1
52 19 48 1
53 20 49 1
54 21 50 1
55 25 51 1
56 26 52 1
57 28 53 1
58 29 54 1
@<TRIPOS>SUBSTRUCTURE
1	UNK0	1	GROUP	1 ****	UNK
# created with PyMOL 2.3.2
@<TRIPOS>MOLECULE
1073
45 48 1                 
SMALL
USER_CHARGES
@<TRIPOS>ATOM
1	   S	1.485	-3.175	2.472	S.O2	1	UNK0	0.000	
2	   O	1.387	-4.658	2.598	O.2	1	UNK0	0.000	
3	   O	2.899	-2.763	2.728	O.2	1	UNK0	0.000	
4	   N	0.972	-2.619	0.993	N.3	1	UNK0	0.000	
5	   C	-0.336	-2.916	0.570	C.3	1	UNK0	0.000	
6	   C	-0.686	-2.310	-0.761	C.3	1	UNK0	0.000	
7	   N	0.130	-1.212	-1.138	N.3	1	UNK0	0.000	
8	   C	1.503	-1.571	-1.156	C.3	1	UNK0	0.000	
9	   C	1.954	-2.374	0.007	C.3	1	UNK0	0.000	
10	   C	-0.237	-0.019	-0.471	C.3	1	UNK0	0.000	
11	   N	0.521	1.149	-0.767	N.pl3	1	UNK0	0.000	
12	   N	0.180	1.938	-1.765	N.2	1	UNK0	0.000	
13	   C	0.842	3.052	-2.114	C.2	1	UNK0	0.000	
14	   C	1.949	3.374	-1.365	C.2	1	UNK0	0.000	
15	   C	2.358	2.589	-0.308	C.2	1	UNK0	0.000	
16	   C	1.601	1.458	-0.032	C.2	1	UNK0	0.000	
17	   O	1.983	0.732	0.951	O.2	1	UNK0	0.000	
18	   N	0.446	3.890	-3.206	N.pl3	1	UNK0	0.000	
19	   C	1.215	4.627	-4.014	C.2	1	UNK0	0.000	
20	   N	0.424	5.257	-4.902	N.2	1	UNK0	0.000	
21	   C	-0.858	4.926	-4.666	C.2	1	UNK0	0.000	
22	   C	-0.828	4.062	-3.592	C.2	1	UNK0	0.000	
23	   C	0.464	-2.472	3.744	C.2	1	UNK0	0.000	
24	   S	-1.220	-2.610	3.970	S.3	1	UNK0	0.000	
25	   C	-1.384	-1.664	5.377	C.2	1	UNK0	0.000	
26	   C	-0.098	-1.258	5.636	C.2	1	UNK0	0.000	
27	   C	0.852	-1.680	4.787	C.2	1	UNK0	0.000	
28	  Br	-2.965	-1.249	6.376	Br	1	UNK0	0.000	
29	   H	-0.478	-4.018	0.552	 H	1	UNK0	0.000	
30	   H	-1.069	-2.530	1.319	 H	1	UNK0	0.000	
31	   H	-1.748	-1.999	-0.781	 H	1	UNK0	0.000	
32	   H	-0.583	-3.102	-1.538	 H	1	UNK0	0.000	
33	   H	2.180	-0.694	-1.374	 H	1	UNK0	0.000	
34	   H	1.645	-2.214	-2.078	 H	1	UNK0	0.000	
35	   H	2.819	-1.841	0.484	 H	1	UNK0	0.000	
36	   H	2.385	-3.364	-0.301	 H	1	UNK0	0.000	
37	   H	-1.303	0.208	-0.775	 H	1	UNK0	0.000	
38	   H	-0.317	-0.162	0.644	 H	1	UNK0	0.000	
39	   H	2.512	4.265	-1.613	 H	1	UNK0	0.000	
40	   H	3.224	2.831	0.287	 H	1	UNK0	0.000	
41	   H	2.301	4.696	-3.951	 H	1	UNK0	0.000	
42	   H	-1.738	5.279	-5.224	 H	1	UNK0	0.000	
43	   H	-1.702	3.614	-3.156	 H	1	UNK0	0.000	
44	   H	0.098	-0.608	6.525	 H	1	UNK0	0.000	
45	   H	1.919	-1.392	4.933	 H	1	UNK0	0.000	
@<TRIPOS>BOND
1 1 2 2
2 1 3 2
3 1 4 1
4 1 23 1
5 4 5 1
6 4 9 1
7 5 6 1
8 6 7 1
9 7 8 1
10 7 10 1
11 8 9 1
12 10 11 1
13 11 12 1
14 11 16 1
15 12 13 2
16 13 14 1
17 13 18 1
18 14 15 2
19 15 16 1
20 16 17 2
21 18 19 1
22 18 22 1
23 19 20 2
24 20 21 1
25 21 22 2
26 23 24 1
27 23 27 2
28 24 25 1
29 25 26 2
30 25 28 1
31 26 27 1
32 5 29 1
33 5 30 1
34 6 31 1
35 6 32 1
36 8 33 1
37 8 34 1
38 9 35 1
39 9 36 1
40 10 37 1
41 10 38 1
42 14 39 1
43 15 40 1
44 19 41 1
45 21 42 1
46 22 43 1
47 26 44 1
48 27 45 1
@<TRIPOS>SUBSTRUCTURE
1	UNK0	1	GROUP	1 ****	UNK
# created with PyMOL 2.3.2
@<TRIPOS>MOLECULE
1076
52 55 1                 
SMALL
USER_CHARGES
@<TRIPOS>ATOM
1	   S	1.479	1.854	-0.303	S.O2	1	UNK0	0.000	
2	   O	2.403	2.724	-1.114	O.2	1	UNK0	0.000	
3	   O	2.323	0.719	0.229	O.2	1	UNK0	0.000	
4	   N	0.243	1.160	-1.262	N.3	1	UNK0	0.000	
5	   C	-0.637	2.115	-1.858	C.3	1	UNK0	0.000	
6	   C	-1.841	1.310	-2.377	C.3	1	UNK0	0.000	
7	   N	-1.471	0.019	-2.766	N.3	1	UNK0	0.000	
8	   C	-0.139	-0.132	-3.285	C.3	1	UNK0	0.000	
9	   C	0.911	0.491	-2.393	C.3	1	UNK0	0.000	
10	   C	-2.006	-1.113	-2.134	C.3	1	UNK0	0.000	
11	   N	-1.772	-1.289	-0.737	N.pl3	1	UNK0	0.000	
12	   N	-0.615	-1.962	-0.268	N.pl3	1	UNK0	0.000	
13	   C	-0.705	-1.938	1.154	C.2	1	UNK0	0.000	
14	   C	0.213	-2.480	1.945	C.2	1	UNK0	0.000	
15	   C	0.372	-2.599	3.412	C.3	1	UNK0	0.000	
16	   C	-0.970	-2.584	4.104	C.3	1	UNK0	0.000	
17	   C	-1.477	-1.156	4.009	C.3	1	UNK0	0.000	
18	   C	-2.434	-0.980	2.870	C.3	1	UNK0	0.000	
19	   N	-1.882	-1.271	1.582	N.pl3	1	UNK0	0.000	
20	   C	-2.539	-0.872	0.383	C.2	1	UNK0	0.000	
21	   O	-3.629	-0.248	0.366	O.2	1	UNK0	0.000	
22	   C	0.895	2.756	1.042	C.2	1	UNK0	0.000	
23	   C	0.651	2.269	2.292	C.2	1	UNK0	0.000	
24	   C	0.179	3.085	3.310	C.2	1	UNK0	0.000	
25	   C	-0.061	4.411	3.104	C.2	1	UNK0	0.000	
26	   C	0.178	4.935	1.843	C.2	1	UNK0	0.000	
27	   C	0.644	4.118	0.844	C.2	1	UNK0	0.000	
28	  Br	-0.158	2.376	5.064	Br	1	UNK0	0.000	
29	   H	-0.955	2.930	-1.189	 H	1	UNK0	0.000	
30	   H	-0.176	2.590	-2.766	 H	1	UNK0	0.000	
31	   H	-2.549	1.288	-1.533	 H	1	UNK0	0.000	
32	   H	-2.352	1.887	-3.186	 H	1	UNK0	0.000	
33	   H	0.082	-1.218	-3.336	 H	1	UNK0	0.000	
34	   H	-0.117	0.253	-4.319	 H	1	UNK0	0.000	
35	   H	1.389	1.306	-2.976	 H	1	UNK0	0.000	
36	   H	1.688	-0.197	-2.069	 H	1	UNK0	0.000	
37	   H	-1.696	-2.022	-2.706	 H	1	UNK0	0.000	
38	   H	-3.128	-1.084	-2.282	 H	1	UNK0	0.000	
39	   H	0.147	-2.389	-0.846	 H	1	UNK0	0.000	
40	   H	1.026	-2.936	1.359	 H	1	UNK0	0.000	
41	   H	1.058	-1.824	3.812	 H	1	UNK0	0.000	
42	   H	0.828	-3.613	3.600	 H	1	UNK0	0.000	
43	   H	-0.867	-2.921	5.148	 H	1	UNK0	0.000	
44	   H	-1.662	-3.211	3.503	 H	1	UNK0	0.000	
45	   H	-1.970	-0.925	4.973	 H	1	UNK0	0.000	
46	   H	-0.636	-0.451	3.887	 H	1	UNK0	0.000	
47	   H	-3.295	-1.666	3.058	 H	1	UNK0	0.000	
48	   H	-2.825	0.063	2.912	 H	1	UNK0	0.000	
49	   H	0.838	1.219	2.467	 H	1	UNK0	0.000	
50	   H	-0.432	5.047	3.907	 H	1	UNK0	0.000	
51	   H	-0.009	5.985	1.668	 H	1	UNK0	0.000	
52	   H	0.820	4.562	-0.130	 H	1	UNK0	0.000	
@<TRIPOS>BOND
1 1 2 2
2 1 3 2
3 1 4 1
4 1 22 1
5 4 5 1
6 4 9 1
7 5 6 1
8 6 7 1
9 7 8 1
10 7 10 1
11 8 9 1
12 10 11 1
13 11 12 1
14 11 20 1
15 12 13 1
16 13 14 2
17 13 19 1
18 14 15 1
19 15 16 1
20 16 17 1
21 17 18 1
22 18 19 1
23 19 20 1
24 20 21 2
25 22 23 2
26 22 27 1
27 23 24 1
28 24 25 2
29 24 28 1
30 25 26 1
31 26 27 2
32 5 29 1
33 5 30 1
34 6 31 1
35 6 32 1
36 8 33 1
37 8 34 1
38 9 35 1
39 9 36 1
40 10 37 1
41 10 38 1
42 12 39 1
43 14 40 1
44 15 41 1
45 15 42 1
46 16 43 1
47 16 44 1
48 17 45 1
49 17 46 1
50 18 47 1
51 18 48 1
52 23 49 1
53 25 50 1
54 26 51 1
55 27 52 1
@<TRIPOS>SUBSTRUCTURE
1	UNK0	1	GROUP	1 ****	UNK
# created with PyMOL 2.3.2
@<TRIPOS>MOLECULE
1081
44 47 1                 
SMALL
USER_CHARGES
@<TRIPOS>ATOM
1	   S	-3.744	-0.287	-1.793	S.O2	1	UNK0	0.000	
2	   O	-4.069	-1.556	-2.475	O.2	1	UNK0	0.000	
3	   O	-4.928	0.643	-2.029	O.2	1	UNK0	0.000	
4	   N	-2.348	0.499	-2.364	N.3	1	UNK0	0.000	
5	   C	-1.496	-0.242	-3.213	C.3	1	UNK0	0.000	
6	   C	-0.167	-0.638	-2.662	C.3	1	UNK0	0.000	
7	   N	0.072	-0.207	-1.307	N.pl3	1	UNK0	0.000	
8	   C	-0.457	1.043	-0.866	C.3	1	UNK0	0.000	
9	   C	-1.765	1.423	-1.467	C.3	1	UNK0	0.000	
10	   C	0.851	-1.072	-0.468	C.2	1	UNK0	0.000	
11	   N	2.154	-0.920	-0.176	N.pl3	1	UNK0	0.000	
12	   N	2.461	-1.954	0.616	N.2	1	UNK0	0.000	
13	   N	1.397	-2.704	0.801	N.2	1	UNK0	0.000	
14	   N	0.378	-2.190	0.145	N.2	1	UNK0	0.000	
15	   C	3.011	0.126	-0.611	C.2	1	UNK0	0.000	
16	   C	3.002	1.359	0.000	C.2	1	UNK0	0.000	
17	   C	3.856	2.365	-0.450	C.2	1	UNK0	0.000	
18	   C	4.719	2.154	-1.503	C.2	1	UNK0	0.000	
19	   C	4.728	0.899	-2.125	C.2	1	UNK0	0.000	
20	   C	3.866	-0.096	-1.661	C.2	1	UNK0	0.000	
21	   C	-3.625	-0.529	-0.072	C.2	1	UNK0	0.000	
22	   C	-3.035	-1.634	0.488	C.2	1	UNK0	0.000	
23	   C	-2.944	-1.814	1.868	C.2	1	UNK0	0.000	
24	   C	-3.478	-0.823	2.698	C.2	1	UNK0	0.000	
25	   C	-4.073	0.290	2.147	C.2	1	UNK0	0.000	
26	   C	-4.142	0.429	0.789	C.2	1	UNK0	0.000	
27	  Br	-3.386	-1.003	4.601	Br	1	UNK0	0.000	
28	   H	-2.084	-1.117	-3.594	 H	1	UNK0	0.000	
29	   H	-1.323	0.400	-4.130	 H	1	UNK0	0.000	
30	   H	-0.102	-1.757	-2.757	 H	1	UNK0	0.000	
31	   H	0.640	-0.273	-3.345	 H	1	UNK0	0.000	
32	   H	-0.585	1.042	0.256	 H	1	UNK0	0.000	
33	   H	0.339	1.815	-1.082	 H	1	UNK0	0.000	
34	   H	-1.616	2.396	-2.020	 H	1	UNK0	0.000	
35	   H	-2.519	1.695	-0.673	 H	1	UNK0	0.000	
36	   H	2.342	1.597	0.842	 H	1	UNK0	0.000	
37	   H	3.875	3.357	0.014	 H	1	UNK0	0.000	
38	   H	5.391	2.909	-1.874	 H	1	UNK0	0.000	
39	   H	5.404	0.740	-2.946	 H	1	UNK0	0.000	
40	   H	3.928	-1.046	-2.193	 H	1	UNK0	0.000	
41	   H	-2.612	-2.420	-0.154	 H	1	UNK0	0.000	
42	   H	-2.489	-2.668	2.327	 H	1	UNK0	0.000	
43	   H	-4.475	1.034	2.844	 H	1	UNK0	0.000	
44	   H	-4.627	1.334	0.385	 H	1	UNK0	0.000	
@<TRIPOS>BOND
1 1 2 2
2 1 3 2
3 1 4 1
4 1 21 1
5 4 5 1
6 4 9 1
7 5 6 1
8 6 7 1
9 7 8 1
10 7 10 1
11 8 9 1
12 10 11 1
13 10 14 2
14 11 12 1
15 11 15 1
16 12 13 2
17 13 14 1
18 15 16 2
19 15 20 1
20 16 17 1
21 17 18 2
22 18 19 1
23 19 20 2
24 21 22 2
25 21 26 1
26 22 23 1
27 23 24 2
28 24 25 1
29 24 27 1
30 25 26 2
31 5 28 1
32 5 29 1
33 6 30 1
34 6 31 1
35 8 32 1
36 8 33 1
37 9 34 1
38 9 35 1
39 16 36 1
40 17 37 1
41 18 38 1
42 19 39 1
43 20 40 1
44 22 41 1
45 23 42 1
46 25 43 1
47 26 44 1
@<TRIPOS>SUBSTRUCTURE
1	UNK0	1	GROUP	1 ****	UNK
# created with PyMOL 2.3.2
@<TRIPOS>MOLECULE
1084
53 56 1                 
SMALL
USER_CHARGES
@<TRIPOS>ATOM
1	   S	-3.270	2.453	1.691	S.O2	1	UNK0	0.000	
2	   O	-3.726	2.401	3.140	O.2	1	UNK0	0.000	
3	   O	-2.757	3.837	1.417	O.2	1	UNK0	0.000	
4	   N	-1.974	1.323	1.505	N.3	1	UNK0	0.000	
5	   C	-2.448	0.037	1.893	C.3	1	UNK0	0.000	
6	   C	-1.374	-0.846	2.491	C.3	1	UNK0	0.000	
7	   N	-0.115	-0.420	1.953	N.pl3	1	UNK0	0.000	
8	   C	0.338	0.910	2.236	C.3	1	UNK0	0.000	
9	   C	-0.869	1.812	2.295	C.3	1	UNK0	0.000	
10	   C	0.650	-1.298	1.167	C.2	1	UNK0	0.000	
11	   N	1.836	-0.953	0.639	N.2	1	UNK0	0.000	
12	   C	2.600	-1.731	-0.107	C.2	1	UNK0	0.000	
13	   C	2.147	-3.013	-0.369	C.2	1	UNK0	0.000	
14	   C	0.937	-3.414	0.151	C.2	1	UNK0	0.000	
15	   N	0.222	-2.556	0.901	N.2	1	UNK0	0.000	
16	   C	0.415	-4.783	-0.108	C.3	1	UNK0	0.000	
17	   N	3.833	-1.246	-0.606	N.pl3	1	UNK0	0.000	
18	   C	4.729	-2.032	-1.429	C.3	1	UNK0	0.000	
19	   C	5.581	-1.031	-2.208	C.3	1	UNK0	0.000	
20	   O	4.725	-0.014	-2.636	O.3	1	UNK0	0.000	
21	   C	4.349	0.842	-1.626	C.3	1	UNK0	0.000	
22	   C	4.234	0.105	-0.287	C.3	1	UNK0	0.000	
23	   C	-4.620	2.051	0.669	C.2	1	UNK0	0.000	
24	   C	-4.667	2.584	-0.612	C.2	1	UNK0	0.000	
25	   C	-5.704	2.310	-1.476	C.2	1	UNK0	0.000	
26	   C	-6.728	1.489	-1.071	C.2	1	UNK0	0.000	
27	   C	-6.718	0.939	0.197	C.2	1	UNK0	0.000	
28	   C	-5.655	1.235	1.046	C.2	1	UNK0	0.000	
29	  Br	-8.155	1.120	-2.279	Br	1	UNK0	0.000	
30	   H	-3.324	0.044	2.563	 H	1	UNK0	0.000	
31	   H	-2.793	-0.495	0.961	 H	1	UNK0	0.000	
32	   H	-1.576	-1.916	2.347	 H	1	UNK0	0.000	
33	   H	-1.411	-0.670	3.604	 H	1	UNK0	0.000	
34	   H	1.076	1.258	1.480	 H	1	UNK0	0.000	
35	   H	0.851	0.996	3.225	 H	1	UNK0	0.000	
36	   H	-0.570	2.793	1.869	 H	1	UNK0	0.000	
37	   H	-1.208	2.011	3.336	 H	1	UNK0	0.000	
38	   H	2.761	-3.654	-0.974	 H	1	UNK0	0.000	
39	   H	0.468	-5.409	0.820	 H	1	UNK0	0.000	
40	   H	-0.657	-4.701	-0.367	 H	1	UNK0	0.000	
41	   H	0.922	-5.254	-0.969	 H	1	UNK0	0.000	
42	   H	5.405	-2.677	-0.837	 H	1	UNK0	0.000	
43	   H	4.156	-2.630	-2.185	 H	1	UNK0	0.000	
44	   H	6.050	-1.503	-3.072	 H	1	UNK0	0.000	
45	   H	6.360	-0.614	-1.547	 H	1	UNK0	0.000	
46	   H	3.321	1.263	-1.832	 H	1	UNK0	0.000	
47	   H	5.035	1.693	-1.531	 H	1	UNK0	0.000	
48	   H	5.225	0.118	0.227	 H	1	UNK0	0.000	
49	   H	3.499	0.601	0.371	 H	1	UNK0	0.000	
50	   H	-3.855	3.232	-0.927	 H	1	UNK0	0.000	
51	   H	-5.734	2.728	-2.474	 H	1	UNK0	0.000	
52	   H	-7.523	0.289	0.524	 H	1	UNK0	0.000	
53	   H	-5.634	0.810	2.048	 H	1	UNK0	0.000	
@<TRIPOS>BOND
1 1 2 2
2 1 3 2
3 1 4 1
4 1 23 1
5 4 5 1
6 4 9 1
7 5 6 1
8 6 7 1
9 7 8 1
10 7 10 1
11 8 9 1
12 10 11 2
13 10 15 1
14 11 12 1
15 12 13 2
16 12 17 1
17 13 14 1
18 14 15 2
19 14 16 1
20 17 18 1
21 17 22 1
22 18 19 1
23 19 20 1
24 20 21 1
25 21 22 1
26 23 24 2
27 23 28 1
28 24 25 1
29 25 26 2
30 26 27 1
31 26 29 1
32 27 28 2
33 5 30 1
34 5 31 1
35 6 32 1
36 6 33 1
37 8 34 1
38 8 35 1
39 9 36 1
40 9 37 1
41 13 38 1
42 16 39 1
43 16 40 1
44 16 41 1
45 18 42 1
46 18 43 1
47 19 44 1
48 19 45 1
49 21 46 1
50 21 47 1
51 22 48 1
52 22 49 1
53 24 50 1
54 25 51 1
55 27 52 1
56 28 53 1
@<TRIPOS>SUBSTRUCTURE
1	UNK0	1	GROUP	1 ****	UNK
# created with PyMOL 2.3.2
@<TRIPOS>MOLECULE
1089
37 40 1                 
SMALL
USER_CHARGES
@<TRIPOS>ATOM
1	   S	-3.503	1.731	0.354	S.O2	1	UNK0	0.000	
2	   O	-4.802	2.127	-0.339	O.2	1	UNK0	0.000	
3	   O	-3.621	2.195	1.760	O.2	1	UNK0	0.000	
4	   N	-2.226	2.421	-0.474	N.3	1	UNK0	0.000	
5	   C	-2.077	2.165	-1.854	C.3	1	UNK0	0.000	
6	   C	-1.056	1.119	-2.227	C.3	1	UNK0	0.000	
7	   N	-0.337	0.614	-1.100	N.pl3	1	UNK0	0.000	
8	   C	-0.096	1.388	0.105	C.3	1	UNK0	0.000	
9	   C	-0.992	2.589	0.188	C.3	1	UNK0	0.000	
10	   C	0.179	-0.710	-1.123	C.2	1	UNK0	0.000	
11	   N	-0.307	-1.637	-0.245	N.2	1	UNK0	0.000	
12	   C	0.157	-2.887	-0.255	C.2	1	UNK0	0.000	
13	   N	1.100	-3.286	-1.107	N.2	1	UNK0	0.000	
14	   C	1.587	-2.398	-1.971	C.2	1	UNK0	0.000	
15	   N	2.521	-2.508	-2.920	N.2	1	UNK0	0.000	
16	   C	2.659	-1.298	-3.531	C.2	1	UNK0	0.000	
17	   N	1.820	-0.421	-2.979	N.pl3	1	UNK0	0.000	
18	   C	1.150	-1.073	-2.018	C.2	1	UNK0	0.000	
19	   C	-3.510	-0.035	0.369	C.2	1	UNK0	0.000	
20	   S	-3.588	-1.127	-0.937	S.3	1	UNK0	0.000	
21	   C	-3.546	-2.596	-0.078	C.2	1	UNK0	0.000	
22	   C	-3.470	-2.185	1.231	C.2	1	UNK0	0.000	
23	   C	-3.452	-0.866	1.453	C.2	1	UNK0	0.000	
24	  Br	-3.591	-4.385	-0.744	Br	1	UNK0	0.000	
25	   H	-3.035	1.959	-2.389	 H	1	UNK0	0.000	
26	   H	-1.729	3.137	-2.319	 H	1	UNK0	0.000	
27	   H	-0.425	1.510	-3.050	 H	1	UNK0	0.000	
28	   H	-1.606	0.260	-2.706	 H	1	UNK0	0.000	
29	   H	-0.263	0.763	1.002	 H	1	UNK0	0.000	
30	   H	0.973	1.692	0.106	 H	1	UNK0	0.000	
31	   H	-1.177	2.874	1.242	 H	1	UNK0	0.000	
32	   H	-0.446	3.444	-0.302	 H	1	UNK0	0.000	
33	   H	-0.225	-3.629	0.440	 H	1	UNK0	0.000	
34	   H	3.353	-1.123	-4.336	 H	1	UNK0	0.000	
35	   H	1.726	0.573	-3.258	 H	1	UNK0	0.000	
36	   H	-3.427	-2.954	2.041	 H	1	UNK0	0.000	
37	   H	-3.392	-0.442	2.479	 H	1	UNK0	0.000	
@<TRIPOS>BOND
1 1 2 2
2 1 3 2
3 1 4 1
4 1 19 1
5 4 5 1
6 4 9 1
7 5 6 1
8 6 7 1
9 7 8 1
10 7 10 1
11 8 9 1
12 10 11 2
13 10 18 1
14 11 12 1
15 12 13 2
16 13 14 1
17 14 15 1
18 14 18 2
19 15 16 2
20 16 17 1
21 17 18 1
22 19 20 1
23 19 23 2
24 20 21 1
25 21 22 2
26 21 24 1
27 22 23 1
28 5 25 1
29 5 26 1
30 6 27 1
31 6 28 1
32 8 29 1
33 8 30 1
34 9 31 1
35 9 32 1
36 12 33 1
37 16 34 1
38 17 35 1
39 22 36 1
40 23 37 1
@<TRIPOS>SUBSTRUCTURE
1	UNK0	1	GROUP	1 ****	UNK
# created with PyMOL 2.3.2
@<TRIPOS>MOLECULE
1100
40 43 1                 
SMALL
USER_CHARGES
@<TRIPOS>ATOM
1	   S	-1.871	2.101	1.103	S.O2	1	UNK0	0.000	
2	   O	-3.335	1.769	1.233	O.2	1	UNK0	0.000	
3	   O	-1.743	2.949	-0.154	O.2	1	UNK0	0.000	
4	   N	-0.898	0.724	0.900	N.3	1	UNK0	0.000	
5	   C	0.441	1.104	0.597	C.3	1	UNK0	0.000	
6	   C	1.465	0.106	1.095	C.3	1	UNK0	0.000	
7	   N	0.877	-1.204	0.979	N.pl3	1	UNK0	0.000	
8	   C	-0.248	-1.467	1.840	C.3	1	UNK0	0.000	
9	   C	-1.074	-0.235	1.938	C.3	1	UNK0	0.000	
10	   C	1.350	-2.193	0.086	C.2	1	UNK0	0.000	
11	   C	0.525	-2.981	-0.604	C.2	1	UNK0	0.000	
12	   C	0.971	-4.006	-1.530	C.2	1	UNK0	0.000	
13	   C	0.106	-4.760	-2.188	C.2	1	UNK0	0.000	
14	   N	2.358	-4.189	-1.720	N.pl3	1	UNK0	0.000	
15	   C	3.216	-3.323	-0.962	C.2	1	UNK0	0.000	
16	   N	2.753	-2.389	-0.117	N.pl3	1	UNK0	0.000	
17	   N	3.787	-1.749	0.435	N.2	1	UNK0	0.000	
18	   C	4.932	-2.263	-0.047	C.2	1	UNK0	0.000	
19	   N	4.568	-3.231	-0.905	N.2	1	UNK0	0.000	
20	   C	-1.334	3.119	2.438	C.2	1	UNK0	0.000	
21	   S	-2.045	4.572	2.955	S.3	1	UNK0	0.000	
22	   C	-1.000	4.950	4.244	C.2	1	UNK0	0.000	
23	   C	-0.106	3.913	4.238	C.2	1	UNK0	0.000	
24	   C	-0.283	2.958	3.294	C.2	1	UNK0	0.000	
25	  Br	-1.030	6.460	5.447	Br	1	UNK0	0.000	
26	   H	0.691	2.151	0.866	 H	1	UNK0	0.000	
27	   H	0.535	1.079	-0.530	 H	1	UNK0	0.000	
28	   H	2.432	0.201	0.587	 H	1	UNK0	0.000	
29	   H	1.612	0.301	2.177	 H	1	UNK0	0.000	
30	   H	-0.815	-2.371	1.545	 H	1	UNK0	0.000	
31	   H	0.155	-1.728	2.864	 H	1	UNK0	0.000	
32	   H	-2.151	-0.575	1.867	 H	1	UNK0	0.000	
33	   H	-0.997	0.183	2.958	 H	1	UNK0	0.000	
34	   H	-0.533	-2.835	-0.453	 H	1	UNK0	0.000	
35	   H	-0.965	-4.618	-2.040	 H	1	UNK0	0.000	
36	   H	0.412	-5.528	-2.881	 H	1	UNK0	0.000	
37	   H	2.775	-4.886	-2.352	 H	1	UNK0	0.000	
38	   H	5.955	-1.964	0.201	 H	1	UNK0	0.000	
39	   H	0.716	3.901	5.001	 H	1	UNK0	0.000	
40	   H	0.420	2.088	3.244	 H	1	UNK0	0.000	
@<TRIPOS>BOND
1 1 2 2
2 1 3 2
3 1 4 1
4 1 20 1
5 4 5 1
6 4 9 1
7 5 6 1
8 6 7 1
9 7 8 1
10 7 10 1
11 8 9 1
12 10 11 2
13 10 16 1
14 11 12 1
15 12 13 2
16 12 14 1
17 14 15 1
18 15 16 1
19 15 19 2
20 16 17 1
21 17 18 2
22 18 19 1
23 20 21 1
24 20 24 2
25 21 22 1
26 22 23 2
27 22 25 1
28 23 24 1
29 5 26 1
30 5 27 1
31 6 28 1
32 6 29 1
33 8 30 1
34 8 31 1
35 9 32 1
36 9 33 1
37 11 34 1
38 13 35 1
39 13 36 1
40 14 37 1
41 18 38 1
42 23 39 1
43 24 40 1
@<TRIPOS>SUBSTRUCTURE
1	UNK0	1	GROUP	1 ****	UNK
# created with PyMOL 2.3.2
@<TRIPOS>MOLECULE
1101
43 46 1                 
SMALL
USER_CHARGES
@<TRIPOS>ATOM
1	   S	0.014	-3.157	2.624	S.O2	1	UNK0	0.000	
2	   O	1.338	-3.891	2.798	O.2	1	UNK0	0.000	
3	   O	-0.821	-3.519	3.816	O.2	1	UNK0	0.000	
4	   N	-0.699	-3.730	1.189	N.3	1	UNK0	0.000	
5	   C	-1.936	-3.140	0.841	C.3	1	UNK0	0.000	
6	   C	-1.875	-2.004	-0.118	C.3	1	UNK0	0.000	
7	   N	-0.916	-2.266	-1.203	N.pl3	1	UNK0	0.000	
8	   C	-0.406	-3.620	-1.242	C.3	1	UNK0	0.000	
9	   C	0.236	-3.877	0.108	C.3	1	UNK0	0.000	
10	   C	-0.552	-1.246	-2.112	C.2	1	UNK0	0.000	
11	   C	-1.113	0.016	-1.959	C.2	1	UNK0	0.000	
12	   C	-0.747	1.013	-2.861	C.2	1	UNK0	0.000	
13	   N	0.113	0.781	-3.844	N.pl3	1	UNK0	0.000	
14	   C	0.259	1.925	-4.532	C.2	1	UNK0	0.000	
15	   N	-0.527	2.850	-3.948	N.2	1	UNK0	0.000	
16	   N	-1.147	2.295	-2.921	N.2	1	UNK0	0.000	
17	   C	1.133	2.141	-5.730	C.3	1	UNK0	0.000	
18	   N	0.647	-0.398	-3.999	N.2	1	UNK0	0.000	
19	   C	0.324	-1.406	-3.147	C.2	1	UNK0	0.000	
20	   C	0.396	-1.457	2.577	C.2	1	UNK0	0.000	
21	   C	-0.513	-0.492	2.989	C.2	1	UNK0	0.000	
22	   C	-0.210	0.851	2.951	C.2	1	UNK0	0.000	
23	   C	1.037	1.239	2.488	C.2	1	UNK0	0.000	
24	   C	1.976	0.317	2.068	C.2	1	UNK0	0.000	
25	   C	1.633	-1.014	2.122	C.2	1	UNK0	0.000	
26	  Br	1.442	3.111	2.442	Br	1	UNK0	0.000	
27	   H	-2.600	-3.944	0.407	 H	1	UNK0	0.000	
28	   H	-2.451	-2.816	1.765	 H	1	UNK0	0.000	
29	   H	-2.867	-1.898	-0.611	 H	1	UNK0	0.000	
30	   H	-1.660	-1.045	0.383	 H	1	UNK0	0.000	
31	   H	0.345	-3.810	-2.005	 H	1	UNK0	0.000	
32	   H	-1.275	-4.338	-1.311	 H	1	UNK0	0.000	
33	   H	0.728	-4.869	0.151	 H	1	UNK0	0.000	
34	   H	1.033	-3.116	0.237	 H	1	UNK0	0.000	
35	   H	-1.817	0.258	-1.178	 H	1	UNK0	0.000	
36	   H	1.370	1.160	-6.208	 H	1	UNK0	0.000	
37	   H	0.600	2.742	-6.468	 H	1	UNK0	0.000	
38	   H	2.082	2.638	-5.448	 H	1	UNK0	0.000	
39	   H	0.788	-2.343	-3.320	 H	1	UNK0	0.000	
40	   H	-1.482	-0.842	3.345	 H	1	UNK0	0.000	
41	   H	-0.961	1.544	3.285	 H	1	UNK0	0.000	
42	   H	2.931	0.685	1.718	 H	1	UNK0	0.000	
43	   H	2.352	-1.732	1.798	 H	1	UNK0	0.000	
@<TRIPOS>BOND
1 1 2 2
2 1 3 2
3 1 4 1
4 1 20 1
5 4 5 1
6 4 9 1
7 5 6 1
8 6 7 1
9 7 8 1
10 7 10 1
11 8 9 1
12 10 11 2
13 10 19 1
14 11 12 1
15 12 13 1
16 12 16 2
17 13 14 1
18 13 18 1
19 14 15 2
20 14 17 1
21 15 16 1
22 18 19 2
23 20 21 2
24 20 25 1
25 21 22 1
26 22 23 2
27 23 24 1
28 23 26 1
29 24 25 2
30 5 27 1
31 5 28 1
32 6 29 1
33 6 30 1
34 8 31 1
35 8 32 1
36 9 33 1
37 9 34 1
38 11 35 1
39 17 36 1
40 17 37 1
41 17 38 1
42 19 39 1
43 21 40 1
44 22 41 1
45 24 42 1
46 25 43 1
@<TRIPOS>SUBSTRUCTURE
1	UNK0	1	GROUP	1 ****	UNK
# created with PyMOL 2.3.2
@<TRIPOS>MOLECULE
1105
57 60 1                 
SMALL
USER_CHARGES
@<TRIPOS>ATOM
1	   S	-3.308	0.649	-1.188	S.O2	1	UNK0	0.000	
2	   O	-2.050	0.947	-1.940	O.2	1	UNK0	0.000	
3	   O	-4.283	1.767	-1.537	O.2	1	UNK0	0.000	
4	   N	-3.104	0.534	0.495	N.3	1	UNK0	0.000	
5	   C	-4.367	0.357	1.129	C.3	1	UNK0	0.000	
6	   C	-4.721	1.421	2.143	C.3	1	UNK0	0.000	
7	   N	-4.432	2.757	1.616	N.pl3	1	UNK0	0.000	
8	   C	-3.126	2.853	1.003	C.2	1	UNK0	0.000	
9	   O	-2.720	3.886	0.465	O.2	1	UNK0	0.000	
10	   C	-2.354	1.570	1.104	C.3	1	UNK0	0.000	
11	   C	-0.938	1.718	0.710	C.3	1	UNK0	0.000	
12	   C	-0.202	0.470	1.024	C.2	1	UNK0	0.000	
13	   O	-0.869	-0.461	1.549	O.2	1	UNK0	0.000	
14	   N	1.192	0.325	0.748	N.pl3	1	UNK0	0.000	
15	   C	1.942	1.395	0.149	C.3	1	UNK0	0.000	
16	   C	3.387	1.424	0.539	C.3	1	UNK0	0.000	
17	   N	3.952	0.113	0.808	N.pl3	1	UNK0	0.000	
18	   C	3.183	-0.692	1.745	C.3	1	UNK0	0.000	
19	   C	1.842	-0.916	1.079	C.3	1	UNK0	0.000	
20	   C	5.140	-0.389	0.260	C.2	1	UNK0	0.000	
21	   C	6.048	0.482	-0.300	C.2	1	UNK0	0.000	
22	   C	7.216	-0.019	-0.854	C.2	1	UNK0	0.000	
23	   C	7.514	-1.359	-0.872	C.2	1	UNK0	0.000	
24	   C	6.604	-2.225	-0.311	C.2	1	UNK0	0.000	
25	   C	5.433	-1.731	0.245	C.2	1	UNK0	0.000	
26	   C	-4.011	-0.813	-1.857	C.2	1	UNK0	0.000	
27	   C	-5.380	-0.967	-2.038	C.2	1	UNK0	0.000	
28	   C	-5.950	-2.097	-2.553	C.2	1	UNK0	0.000	
29	   C	-5.163	-3.156	-2.924	C.2	1	UNK0	0.000	
30	   C	-3.778	-3.037	-2.757	C.2	1	UNK0	0.000	
31	   C	-3.239	-1.886	-2.235	C.2	1	UNK0	0.000	
32	  Br	-5.897	-4.755	-3.648	Br	1	UNK0	0.000	
33	   H	-4.365	-0.614	1.691	 H	1	UNK0	0.000	
34	   H	-5.230	0.294	0.435	 H	1	UNK0	0.000	
35	   H	-4.196	1.224	3.090	 H	1	UNK0	0.000	
36	   H	-5.805	1.371	2.339	 H	1	UNK0	0.000	
37	   H	-5.060	3.559	1.659	 H	1	UNK0	0.000	
38	   H	-2.356	1.349	2.213	 H	1	UNK0	0.000	
39	   H	-0.534	2.585	1.315	 H	1	UNK0	0.000	
40	   H	-0.762	2.028	-0.338	 H	1	UNK0	0.000	
41	   H	1.878	1.380	-0.969	 H	1	UNK0	0.000	
42	   H	1.525	2.403	0.424	 H	1	UNK0	0.000	
43	   H	3.952	1.893	-0.275	 H	1	UNK0	0.000	
44	   H	3.556	2.042	1.454	 H	1	UNK0	0.000	
45	   H	2.968	-0.072	2.649	 H	1	UNK0	0.000	
46	   H	3.608	-1.647	2.006	 H	1	UNK0	0.000	
47	   H	1.944	-1.491	0.135	 H	1	UNK0	0.000	
48	   H	1.181	-1.516	1.734	 H	1	UNK0	0.000	
49	   H	5.909	1.568	-0.333	 H	1	UNK0	0.000	
50	   H	7.938	0.659	-1.298	 H	1	UNK0	0.000	
51	   H	8.439	-1.741	-1.312	 H	1	UNK0	0.000	
52	   H	6.817	-3.292	-0.312	 H	1	UNK0	0.000	
53	   H	4.778	-2.487	0.657	 H	1	UNK0	0.000	
54	   H	-6.036	-0.162	-1.764	 H	1	UNK0	0.000	
55	   H	-7.032	-2.208	-2.691	 H	1	UNK0	0.000	
56	   H	-3.193	-3.891	-3.060	 H	1	UNK0	0.000	
57	   H	-2.173	-1.824	-2.119	 H	1	UNK0	0.000	
@<TRIPOS>BOND
1 1 2 2
2 1 3 2
3 1 4 1
4 1 26 1
5 4 5 1
6 4 10 1
7 5 6 1
8 6 7 1
9 7 8 1
10 8 9 2
11 8 10 1
12 10 11 1
13 11 12 1
14 12 13 2
15 12 14 1
16 14 15 1
17 14 19 1
18 15 16 1
19 16 17 1
20 17 18 1
21 17 20 1
22 18 19 1
23 20 21 2
24 20 25 1
25 21 22 1
26 22 23 2
27 23 24 1
28 24 25 2
29 26 27 2
30 26 31 1
31 27 28 1
32 28 29 2
33 29 30 1
34 29 32 1
35 30 31 2
36 5 33 1
37 5 34 1
38 6 35 1
39 6 36 1
40 7 37 1
41 10 38 1
42 11 39 1
43 11 40 1
44 15 41 1
45 15 42 1
46 16 43 1
47 16 44 1
48 18 45 1
49 18 46 1
50 19 47 1
51 19 48 1
52 21 49 1
53 22 50 1
54 23 51 1
55 24 52 1
56 25 53 1
57 27 54 1
58 28 55 1
59 30 56 1
60 31 57 1
@<TRIPOS>SUBSTRUCTURE
1	UNK0	1	GROUP	1 ****	UNK
# created with PyMOL 2.3.2
@<TRIPOS>MOLECULE
1112
51 54 1                 
SMALL
USER_CHARGES
@<TRIPOS>ATOM
1	   S	0.052	-3.647	3.487	S.O2	1	UNK0	0.000	
2	   O	-0.914	-4.601	4.101	O.2	1	UNK0	0.000	
3	   O	1.281	-4.443	3.097	O.2	1	UNK0	0.000	
4	   N	0.550	-2.449	4.598	N.3	1	UNK0	0.000	
5	   C	-0.521	-1.585	5.020	C.3	1	UNK0	0.000	
6	   C	0.135	-0.324	5.590	C.3	1	UNK0	0.000	
7	   O	0.634	0.462	4.574	O.3	1	UNK0	0.000	
8	   C	0.910	-0.352	3.461	C.3	1	UNK0	0.000	
9	   C	1.572	-1.613	3.996	C.3	1	UNK0	0.000	
10	   C	-0.580	-2.958	1.999	C.2	1	UNK0	0.000	
11	   C	-1.899	-2.651	1.829	C.2	1	UNK0	0.000	
12	   C	-2.372	-2.106	0.639	C.2	1	UNK0	0.000	
13	   C	-1.536	-1.856	-0.408	C.2	1	UNK0	0.000	
14	   C	-0.197	-2.165	-0.244	C.2	1	UNK0	0.000	
15	   C	0.271	-2.707	0.939	C.2	1	UNK0	0.000	
16	   C	-1.957	-1.275	-1.706	C.3	1	UNK0	0.000	
17	   O	-1.657	0.100	-1.797	O.3	1	UNK0	0.000	
18	   C	-2.140	1.070	-0.953	C.2	1	UNK0	0.000	
19	   O	-2.906	0.744	-0.025	O.co2	1	UNK0	0.000	
20	   C	-1.770	2.472	-1.129	C.3	1	UNK0	0.000	
21	   N	-0.885	2.701	-2.233	N.pl3	1	UNK0	0.000	
22	   C	-1.347	2.984	-3.560	C.2	1	UNK0	0.000	
23	   O	-2.556	3.067	-3.920	O.2	1	UNK0	0.000	
24	   C	-0.196	3.164	-4.437	C.2	1	UNK0	0.000	
25	   C	0.947	3.001	-3.699	C.2	1	UNK0	0.000	
26	   C	2.189	3.120	-4.293	C.2	1	UNK0	0.000	
27	   C	2.308	3.405	-5.640	C.2	1	UNK0	0.000	
28	   C	1.166	3.571	-6.395	C.2	1	UNK0	0.000	
29	   C	-0.061	3.446	-5.777	C.2	1	UNK0	0.000	
30	  Br	1.279	3.964	-8.257	Br	1	UNK0	0.000	
31	   C	0.530	2.711	-2.316	C.2	1	UNK0	0.000	
32	   O	1.285	2.501	-1.341	O.2	1	UNK0	0.000	
33	   H	-1.038	-2.091	5.862	 H	1	UNK0	0.000	
34	   H	-1.254	-1.358	4.247	 H	1	UNK0	0.000	
35	   H	0.930	-0.669	6.295	 H	1	UNK0	0.000	
36	   H	-0.573	0.270	6.192	 H	1	UNK0	0.000	
37	   H	0.017	-0.556	2.868	 H	1	UNK0	0.000	
38	   H	1.603	0.232	2.825	 H	1	UNK0	0.000	
39	   H	2.056	-2.205	3.206	 H	1	UNK0	0.000	
40	   H	2.326	-1.268	4.738	 H	1	UNK0	0.000	
41	   H	-2.579	-2.845	2.656	 H	1	UNK0	0.000	
42	   H	-3.421	-1.880	0.544	 H	1	UNK0	0.000	
43	   H	0.483	-1.975	-1.062	 H	1	UNK0	0.000	
44	   H	1.331	-2.940	1.040	 H	1	UNK0	0.000	
45	   H	-1.448	-1.786	-2.549	 H	1	UNK0	0.000	
46	   H	-3.062	-1.439	-1.809	 H	1	UNK0	0.000	
47	   H	-2.682	3.125	-1.265	 H	1	UNK0	0.000	
48	   H	-1.263	2.901	-0.215	 H	1	UNK0	0.000	
49	   H	3.076	2.986	-3.682	 H	1	UNK0	0.000	
50	   H	3.303	3.497	-6.104	 H	1	UNK0	0.000	
51	   H	-0.983	3.571	-6.345	 H	1	UNK0	0.000	
@<TRIPOS>BOND
1 1 2 2
2 1 3 2
3 1 4 1
4 1 10 1
5 4 5 1
6 4 9 1
7 5 6 1
8 6 7 1
9 7 8 1
10 8 9 1
11 10 11 2
12 10 15 1
13 11 12 1
14 12 13 2
15 13 14 1
16 13 16 1
17 14 15 2
18 16 17 1
19 17 18 1
20 18 19 2
21 18 20 1
22 20 21 1
23 21 22 1
24 21 31 1
25 22 23 2
26 22 24 1
27 24 25 2
28 24 29 1
29 25 26 1
30 25 31 1
31 26 27 2
32 27 28 1
33 28 29 2
34 28 30 1
35 31 32 2
36 5 33 1
37 5 34 1
38 6 35 1
39 6 36 1
40 8 37 1
41 8 38 1
42 9 39 1
43 9 40 1
44 11 41 1
45 12 42 1
46 14 43 1
47 15 44 1
48 16 45 1
49 16 46 1
50 20 47 1
51 20 48 1
52 26 49 1
53 27 50 1
54 29 51 1
@<TRIPOS>SUBSTRUCTURE
1	UNK0	1	GROUP	1 ****	UNK
# created with PyMOL 2.3.2
@<TRIPOS>MOLECULE
1113
46 49 1                 
SMALL
USER_CHARGES
@<TRIPOS>ATOM
1	   S	2.017	-3.277	2.691	S.O2	1	UNK0	0.000	
2	   O	1.923	-4.113	3.961	O.2	1	UNK0	0.000	
3	   O	1.982	-4.281	1.556	O.2	1	UNK0	0.000	
4	   N	3.467	-2.438	2.718	N.3	1	UNK0	0.000	
5	   C	3.791	-1.624	1.622	C.3	1	UNK0	0.000	
6	   C	4.320	-0.295	2.074	C.3	1	UNK0	0.000	
7	   O	5.415	-0.534	2.886	O.3	1	UNK0	0.000	
8	   C	5.069	-1.154	4.080	C.3	1	UNK0	0.000	
9	   C	4.162	-2.313	3.925	C.3	1	UNK0	0.000	
10	   C	0.594	-2.264	2.614	C.2	1	UNK0	0.000	
11	   N	0.196	-1.329	3.493	N.2	1	UNK0	0.000	
12	   C	-0.963	-0.777	3.052	C.2	1	UNK0	0.000	
13	   N	-1.314	-1.354	1.890	N.pl3	1	UNK0	0.000	
14	   C	-0.383	-2.255	1.613	C.2	1	UNK0	0.000	
15	   C	-2.498	-1.020	1.125	C.3	1	UNK0	0.000	
16	   C	-2.230	0.061	0.147	C.2	1	UNK0	0.000	
17	   N	-2.374	1.390	0.392	N.2	1	UNK0	0.000	
18	   O	-2.051	2.036	-0.687	O.3	1	UNK0	0.000	
19	   C	-1.698	1.218	-1.646	C.2	1	UNK0	0.000	
20	   N	-1.812	-0.027	-1.117	N.2	1	UNK0	0.000	
21	   C	-1.259	1.551	-3.035	C.3	1	UNK0	0.000	
22	   C	-2.486	1.577	-3.879	C.2	1	UNK0	0.000	
23	   C	-2.889	0.401	-4.492	C.2	1	UNK0	0.000	
24	   C	-4.004	0.332	-5.285	C.2	1	UNK0	0.000	
25	   C	-4.738	1.472	-5.470	C.2	1	UNK0	0.000	
26	   C	-4.384	2.651	-4.891	C.2	1	UNK0	0.000	
27	   C	-3.246	2.692	-4.090	C.2	1	UNK0	0.000	
28	  Br	-6.297	1.415	-6.568	Br	1	UNK0	0.000	
29	   H	2.911	-1.532	0.951	 H	1	UNK0	0.000	
30	   H	4.627	-2.116	1.044	 H	1	UNK0	0.000	
31	   H	4.682	0.324	1.224	 H	1	UNK0	0.000	
32	   H	3.540	0.208	2.671	 H	1	UNK0	0.000	
33	   H	6.032	-1.446	4.571	 H	1	UNK0	0.000	
34	   H	4.611	-0.407	4.768	 H	1	UNK0	0.000	
35	   H	3.422	-2.338	4.780	 H	1	UNK0	0.000	
36	   H	4.772	-3.251	4.086	 H	1	UNK0	0.000	
37	   H	-1.507	0.008	3.572	 H	1	UNK0	0.000	
38	   H	-0.340	-2.909	0.754	 H	1	UNK0	0.000	
39	   H	-3.323	-0.696	1.791	 H	1	UNK0	0.000	
40	   H	-2.865	-1.926	0.600	 H	1	UNK0	0.000	
41	   H	-0.583	0.742	-3.365	 H	1	UNK0	0.000	
42	   H	-0.740	2.533	-3.053	 H	1	UNK0	0.000	
43	   H	-2.287	-0.493	-4.328	 H	1	UNK0	0.000	
44	   H	-4.323	-0.595	-5.769	 H	1	UNK0	0.000	
45	   H	-4.963	3.563	-5.033	 H	1	UNK0	0.000	
46	   H	-2.954	3.624	-3.623	 H	1	UNK0	0.000	
@<TRIPOS>BOND
1 1 2 2
2 1 3 2
3 1 4 1
4 1 10 1
5 4 5 1
6 4 9 1
7 5 6 1
8 6 7 1
9 7 8 1
10 8 9 1
11 10 11 1
12 10 14 2
13 11 12 2
14 12 13 1
15 13 14 1
16 13 15 1
17 15 16 1
18 16 17 2
19 16 20 1
20 17 18 1
21 18 19 1
22 19 20 2
23 19 21 1
24 21 22 1
25 22 23 2
26 22 27 1
27 23 24 1
28 24 25 2
29 25 26 1
30 25 28 1
31 26 27 2
32 5 29 1
33 5 30 1
34 6 31 1
35 6 32 1
36 8 33 1
37 8 34 1
38 9 35 1
39 9 36 1
40 12 37 1
41 14 38 1
42 15 39 1
43 15 40 1
44 21 41 1
45 21 42 1
46 23 43 1
47 24 44 1
48 26 45 1
49 27 46 1
@<TRIPOS>SUBSTRUCTURE
1	UNK0	1	GROUP	1 ****	UNK
# created with PyMOL 2.3.2
@<TRIPOS>MOLECULE
1114
43 46 1                 
SMALL
USER_CHARGES
@<TRIPOS>ATOM
1	   S	-2.912	-1.165	-3.037	S.O2	1	UNK0	0.000	
2	   O	-3.915	-0.058	-2.851	O.2	1	UNK0	0.000	
3	   O	-3.064	-1.677	-4.433	O.2	1	UNK0	0.000	
4	   N	-3.231	-2.386	-1.883	N.3	1	UNK0	0.000	
5	   C	-3.236	-1.939	-0.540	C.3	1	UNK0	0.000	
6	   C	-2.694	-2.882	0.483	C.3	1	UNK0	0.000	
7	   O	-3.044	-4.189	0.072	O.3	1	UNK0	0.000	
8	   C	-2.190	-4.453	-1.003	C.3	1	UNK0	0.000	
9	   C	-2.616	-3.631	-2.167	C.3	1	UNK0	0.000	
10	   C	-1.308	-0.462	-2.794	C.2	1	UNK0	0.000	
11	   N	-0.732	0.521	-3.508	N.2	1	UNK0	0.000	
12	   C	0.491	0.759	-2.999	C.2	1	UNK0	0.000	
13	   N	0.730	-0.052	-1.958	N.pl3	1	UNK0	0.000	
14	   C	-0.375	-0.804	-1.830	C.2	1	UNK0	0.000	
15	   C	1.932	-0.098	-1.151	C.3	1	UNK0	0.000	
16	   C	1.873	0.813	0.015	C.2	1	UNK0	0.000	
17	   N	1.403	0.473	1.230	N.2	1	UNK0	0.000	
18	   O	1.495	1.505	2.013	O.3	1	UNK0	0.000	
19	   C	2.006	2.526	1.381	C.2	1	UNK0	0.000	
20	   N	2.244	2.097	0.131	N.2	1	UNK0	0.000	
21	   C	2.251	3.847	1.962	C.2	1	UNK0	0.000	
22	   C	2.796	4.879	1.227	C.2	1	UNK0	0.000	
23	   C	3.023	6.131	1.794	C.2	1	UNK0	0.000	
24	   C	2.709	6.381	3.111	C.2	1	UNK0	0.000	
25	   C	2.164	5.352	3.848	C.2	1	UNK0	0.000	
26	   C	1.938	4.097	3.277	C.2	1	UNK0	0.000	
27	  Br	3.780	7.548	0.757	Br	1	UNK0	0.000	
28	   H	-2.741	-0.937	-0.453	 H	1	UNK0	0.000	
29	   H	-4.316	-1.755	-0.257	 H	1	UNK0	0.000	
30	   H	-3.226	-2.737	1.452	 H	1	UNK0	0.000	
31	   H	-1.610	-2.823	0.645	 H	1	UNK0	0.000	
32	   H	-1.167	-4.226	-0.645	 H	1	UNK0	0.000	
33	   H	-2.197	-5.518	-1.291	 H	1	UNK0	0.000	
34	   H	-3.349	-4.247	-2.758	 H	1	UNK0	0.000	
35	   H	-1.766	-3.463	-2.879	 H	1	UNK0	0.000	
36	   H	1.198	1.496	-3.361	 H	1	UNK0	0.000	
37	   H	-0.519	-1.569	-1.084	 H	1	UNK0	0.000	
38	   H	2.781	0.189	-1.791	 H	1	UNK0	0.000	
39	   H	2.145	-1.113	-0.757	 H	1	UNK0	0.000	
40	   H	3.044	4.688	0.193	 H	1	UNK0	0.000	
41	   H	2.892	7.366	3.543	 H	1	UNK0	0.000	
42	   H	1.904	5.507	4.885	 H	1	UNK0	0.000	
43	   H	1.511	3.275	3.838	 H	1	UNK0	0.000	
@<TRIPOS>BOND
1 1 2 2
2 1 3 2
3 1 4 1
4 1 10 1
5 4 5 1
6 4 9 1
7 5 6 1
8 6 7 1
9 7 8 1
10 8 9 1
11 10 11 1
12 10 14 2
13 11 12 2
14 12 13 1
15 13 14 1
16 13 15 1
17 15 16 1
18 16 17 2
19 16 20 1
20 17 18 1
21 18 19 1
22 19 20 2
23 19 21 1
24 21 22 2
25 21 26 1
26 22 23 1
27 23 24 2
28 23 27 1
29 24 25 1
30 25 26 2
31 5 28 1
32 5 29 1
33 6 30 1
34 6 31 1
35 8 32 1
36 8 33 1
37 9 34 1
38 9 35 1
39 12 36 1
40 14 37 1
41 15 38 1
42 15 39 1
43 22 40 1
44 24 41 1
45 25 42 1
46 26 43 1
@<TRIPOS>SUBSTRUCTURE
1	UNK0	1	GROUP	1 ****	UNK
# created with PyMOL 2.3.2
@<TRIPOS>MOLECULE
1130
37 40 1                 
SMALL
USER_CHARGES
@<TRIPOS>ATOM
1	   S	0.141	3.171	3.078	S.3	1	UNK0	0.000	
2	   C	-0.842	2.869	4.571	C.3	1	UNK0	0.000	
3	   C	-0.525	1.502	5.076	C.2	1	UNK0	0.000	
4	   O	-1.100	1.039	6.112	O.2	1	UNK0	0.000	
5	   N	0.418	0.676	4.430	N.pl3	1	UNK0	0.000	
6	   C	0.717	-0.622	4.910	C.2	1	UNK0	0.000	
7	   N	0.200	-1.250	5.979	N.2	1	UNK0	0.000	
8	   O	0.722	-2.439	6.105	O.3	1	UNK0	0.000	
9	   N	1.566	-2.598	5.143	N.2	1	UNK0	0.000	
10	   C	1.625	-1.517	4.355	C.2	1	UNK0	0.000	
11	   N	2.441	-1.352	3.215	N.pl3	1	UNK0	0.000	
12	   C	-0.440	2.049	1.789	C.2	1	UNK0	0.000	
13	   N	-1.441	1.182	2.019	N.2	1	UNK0	0.000	
14	   N	-1.906	0.338	1.112	N.2	1	UNK0	0.000	
15	   C	-1.385	0.301	-0.133	C.2	1	UNK0	0.000	
16	   C	-0.356	1.183	-0.393	C.2	1	UNK0	0.000	
17	   N	-0.005	0.964	-1.676	N.pl3	1	UNK0	0.000	
18	   C	-0.757	-0.003	-2.226	C.2	1	UNK0	0.000	
19	   C	-1.646	-0.445	-1.270	C.2	1	UNK0	0.000	
20	   C	-2.572	-1.448	-1.514	C.2	1	UNK0	0.000	
21	   C	-2.574	-2.002	-2.782	C.2	1	UNK0	0.000	
22	   C	-1.696	-1.577	-3.758	C.2	1	UNK0	0.000	
23	   C	-0.786	-0.582	-3.494	C.2	1	UNK0	0.000	
24	  Br	-3.852	-3.385	-3.119	Br	1	UNK0	0.000	
25	   C	1.053	1.698	-2.342	C.3	1	UNK0	0.000	
26	   N	0.106	2.045	0.561	N.2	1	UNK0	0.000	
27	   H	-0.694	3.646	5.333	 H	1	UNK0	0.000	
28	   H	-1.916	2.813	4.227	 H	1	UNK0	0.000	
29	   H	0.898	1.042	3.580	 H	1	UNK0	0.000	
30	   H	2.101	-0.771	2.426	 H	1	UNK0	0.000	
31	   H	3.380	-1.791	3.128	 H	1	UNK0	0.000	
32	   H	-3.260	-1.776	-0.737	 H	1	UNK0	0.000	
33	   H	-1.713	-2.026	-4.752	 H	1	UNK0	0.000	
34	   H	-0.081	-0.224	-4.237	 H	1	UNK0	0.000	
35	   H	1.059	2.745	-2.020	 H	1	UNK0	0.000	
36	   H	2.034	1.193	-2.222	 H	1	UNK0	0.000	
37	   H	0.827	1.687	-3.432	 H	1	UNK0	0.000	
@<TRIPOS>BOND
1 1 2 1
2 1 12 1
3 2 3 1
4 3 4 2
5 3 5 1
6 5 6 1
7 6 7 2
8 6 10 1
9 7 8 1
10 8 9 1
11 9 10 2
12 10 11 1
13 12 13 2
14 12 26 1
15 13 14 1
16 14 15 2
17 15 16 1
18 15 19 1
19 16 17 1
20 16 26 2
21 17 18 1
22 17 25 1
23 18 19 2
24 18 23 1
25 19 20 1
26 20 21 2
27 21 22 1
28 21 24 1
29 22 23 2
30 2 27 1
31 2 28 1
32 5 29 1
33 11 30 1
34 11 31 1
35 20 32 1
36 22 33 1
37 23 34 1
38 25 35 1
39 25 36 1
40 25 37 1
@<TRIPOS>SUBSTRUCTURE
1	UNK0	1	GROUP	1 ****	UNK
# created with PyMOL 2.3.2
@<TRIPOS>MOLECULE
1133
47 50 1                 
SMALL
USER_CHARGES
@<TRIPOS>ATOM
1	   S	0.022	1.600	-1.526	S.3	1	UNK0	0.000	
2	   C	-0.117	2.491	0.085	C.3	1	UNK0	0.000	
3	   C	-1.267	1.956	0.849	C.2	1	UNK0	0.000	
4	   C	-2.580	2.097	0.472	C.2	1	UNK0	0.000	
5	   C	-3.605	1.713	1.265	C.2	1	UNK0	0.000	
6	   C	-3.384	1.142	2.513	C.2	1	UNK0	0.000	
7	   C	-2.055	0.986	2.931	C.2	1	UNK0	0.000	
8	   C	-1.017	1.386	2.112	C.2	1	UNK0	0.000	
9	  Br	-2.870	2.745	-1.304	Br	1	UNK0	0.000	
10	   C	-0.036	-0.178	-1.265	C.2	1	UNK0	0.000	
11	   N	1.003	-0.964	-0.983	N.pl3	1	UNK0	0.000	
12	   C	0.505	-2.212	-0.777	C.2	1	UNK0	0.000	
13	   N	0.971	-3.413	-0.401	N.2	1	UNK0	0.000	
14	   C	0.235	-4.511	-0.199	C.2	1	UNK0	0.000	
15	   N	-1.135	-4.416	-0.403	N.2	1	UNK0	0.000	
16	   C	-1.680	-3.283	-0.770	C.2	1	UNK0	0.000	
17	   C	-0.903	-2.159	-0.965	C.2	1	UNK0	0.000	
18	   N	-1.171	-0.892	-1.256	N.2	1	UNK0	0.000	
19	   O	-3.026	-3.137	-0.994	O.3	1	UNK0	0.000	
20	   N	0.746	-5.775	0.251	N.pl3	1	UNK0	0.000	
21	   C	2.400	-0.677	-0.926	C.3	1	UNK0	0.000	
22	   O	2.872	-0.373	0.370	O.3	1	UNK0	0.000	
23	   C	4.188	0.024	0.039	C.3	1	UNK0	0.000	
24	   C	3.818	1.188	-0.917	C.3	1	UNK0	0.000	
25	   C	2.905	0.383	-1.851	C.3	1	UNK0	0.000	
26	   O	3.741	-0.166	-2.857	O.3	1	UNK0	0.000	
27	   O	4.910	1.712	-1.554	O.3	1	UNK0	0.000	
28	   C	4.953	0.487	1.220	C.3	1	UNK0	0.000	
29	   O	6.243	0.886	0.849	O.3	1	UNK0	0.000	
30	   H	-0.181	3.530	-0.094	 H	1	UNK0	0.000	
31	   H	0.862	2.192	0.627	 H	1	UNK0	0.000	
32	   H	-4.616	1.845	0.924	 H	1	UNK0	0.000	
33	   H	-4.207	0.812	3.124	 H	1	UNK0	0.000	
34	   H	-1.824	0.554	3.907	 H	1	UNK0	0.000	
35	   H	-0.021	1.299	2.453	 H	1	UNK0	0.000	
36	   H	-3.430	-2.967	-1.908	 H	1	UNK0	0.000	
37	   H	0.830	-6.631	-0.293	 H	1	UNK0	0.000	
38	   H	1.038	-5.836	1.288	 H	1	UNK0	0.000	
39	   H	2.967	-1.617	-1.178	 H	1	UNK0	0.000	
40	   H	4.686	-0.741	-0.559	 H	1	UNK0	0.000	
41	   H	3.246	1.961	-0.373	 H	1	UNK0	0.000	
42	   H	2.193	0.987	-2.362	 H	1	UNK0	0.000	
43	   H	3.867	0.573	-3.493	 H	1	UNK0	0.000	
44	   H	4.842	2.696	-1.594	 H	1	UNK0	0.000	
45	   H	5.145	-0.438	1.852	 H	1	UNK0	0.000	
46	   H	4.422	1.186	1.849	 H	1	UNK0	0.000	
47	   H	6.368	0.619	-0.113	 H	1	UNK0	0.000	
@<TRIPOS>BOND
1 1 2 1
2 1 10 1
3 2 3 1
4 3 4 2
5 3 8 1
6 4 5 1
7 4 9 1
8 5 6 2
9 6 7 1
10 7 8 2
11 10 11 1
12 10 18 2
13 11 12 1
14 11 21 1
15 12 13 2
16 12 17 1
17 13 14 1
18 14 15 2
19 14 20 1
20 15 16 1
21 16 17 2
22 16 19 1
23 17 18 1
24 21 22 1
25 21 25 1
26 22 23 1
27 23 24 1
28 23 28 1
29 24 25 1
30 24 27 1
31 25 26 1
32 28 29 1
33 2 30 1
34 2 31 1
35 5 32 1
36 6 33 1
37 7 34 1
38 8 35 1
39 19 36 1
40 20 37 1
41 20 38 1
42 21 39 1
43 23 40 1
44 24 41 1
45 25 42 1
46 26 43 1
47 27 44 1
48 28 45 1
49 28 46 1
50 29 47 1
@<TRIPOS>SUBSTRUCTURE
1	UNK0	1	GROUP	1 ****	UNK
# created with PyMOL 2.3.2
@<TRIPOS>MOLECULE
1143
52 56 1                 
SMALL
USER_CHARGES
@<TRIPOS>ATOM
1	   S	1.048	-1.245	4.240	S.3	1	UNK0	0.000	
2	   C	1.500	-0.189	2.872	C.2	1	UNK0	0.000	
3	   N	1.381	1.088	2.918	N.2	1	UNK0	0.000	
4	   C	1.719	1.987	1.875	C.2	1	UNK0	0.000	
5	   O	2.137	3.134	2.054	O.2	1	UNK0	0.000	
6	   C	1.519	1.404	0.459	C.3	1	UNK0	0.000	
7	   C	2.355	0.170	0.568	C.2	1	UNK0	0.000	
8	   O	3.294	-0.141	-0.167	O.2	1	UNK0	0.000	
9	   N	2.019	-0.713	1.628	N.pl3	1	UNK0	0.000	
10	   C	2.199	-2.089	1.458	C.2	1	UNK0	0.000	
11	   C	1.134	-2.819	0.916	C.2	1	UNK0	0.000	
12	   C	1.237	-4.179	0.718	C.2	1	UNK0	0.000	
13	   C	2.417	-4.830	1.064	C.2	1	UNK0	0.000	
14	   C	3.477	-4.091	1.605	C.2	1	UNK0	0.000	
15	   C	3.356	-2.735	1.795	C.2	1	UNK0	0.000	
16	  Br	2.599	-6.691	0.809	Br	1	UNK0	0.000	
17	   C	0.084	1.177	0.350	C.3	1	UNK0	0.000	
18	   N	-0.706	2.375	0.599	N.4	1	UNK0	0.000	
19	   C	-2.042	2.009	1.037	C.3	1	UNK0	0.000	
20	   C	-2.385	0.558	0.822	C.3	1	UNK0	0.000	
21	   C	-1.873	0.154	-0.536	C.2	1	UNK0	0.000	
22	   C	-0.529	0.518	-0.790	C.2	1	UNK0	0.000	
23	   C	0.027	0.220	-2.003	C.2	1	UNK0	0.000	
24	   C	-0.768	-0.439	-2.938	C.2	1	UNK0	0.000	
25	   C	-2.071	-0.784	-2.667	C.2	1	UNK0	0.000	
26	   C	-2.648	-0.488	-1.446	C.2	1	UNK0	0.000	
27	   O	-2.593	-1.419	-3.775	O.3	1	UNK0	0.000	
28	   C	-1.718	-1.226	-4.859	C.3	1	UNK0	0.000	
29	   O	-0.499	-0.863	-4.211	O.3	1	UNK0	0.000	
30	   O	1.337	0.561	-2.309	O.3	1	UNK0	0.000	
31	   C	1.590	1.806	-2.951	C.3	1	UNK0	0.000	
32	   C	-0.821	3.257	-0.511	C.3	1	UNK0	0.000	
33	   H	2.014	2.120	-0.177	 H	1	UNK0	0.000	
34	   H	0.202	-2.334	0.638	 H	1	UNK0	0.000	
35	   H	0.405	-4.720	0.300	 H	1	UNK0	0.000	
36	   H	4.409	-4.554	1.887	 H	1	UNK0	0.000	
37	   H	4.162	-2.171	2.207	 H	1	UNK0	0.000	
38	   H	-0.191	0.532	1.259	 H	1	UNK0	0.000	
39	   H	-0.246	2.877	1.387	 H	1	UNK0	0.000	
40	   H	-2.808	2.618	0.515	 H	1	UNK0	0.000	
41	   H	-2.188	2.214	2.132	 H	1	UNK0	0.000	
42	   H	-2.056	-0.119	1.617	 H	1	UNK0	0.000	
43	   H	-3.505	0.498	0.754	 H	1	UNK0	0.000	
44	   H	-3.680	-0.754	-1.215	 H	1	UNK0	0.000	
45	   H	-1.587	-2.155	-5.451	 H	1	UNK0	0.000	
46	   H	-2.099	-0.382	-5.470	 H	1	UNK0	0.000	
47	   H	1.674	1.603	-4.051	 H	1	UNK0	0.000	
48	   H	2.485	2.311	-2.586	 H	1	UNK0	0.000	
49	   H	0.723	2.468	-2.825	 H	1	UNK0	0.000	
50	   H	-1.607	4.002	-0.267	 H	1	UNK0	0.000	
51	   H	0.092	3.835	-0.739	 H	1	UNK0	0.000	
52	   H	-1.208	2.723	-1.425	 H	1	UNK0	0.000	
@<TRIPOS>BOND
1 1 2 1
2 2 3 2
3 2 9 1
4 3 4 1
5 4 5 2
6 4 6 1
7 6 7 1
8 6 17 1
9 7 8 2
10 7 9 1
11 9 10 1
12 10 11 2
13 10 15 1
14 11 12 1
15 12 13 2
16 13 14 1
17 13 16 1
18 14 15 2
19 17 18 1
20 17 22 1
21 18 19 1
22 18 32 1
23 19 20 1
24 20 21 1
25 21 22 2
26 21 26 1
27 22 23 1
28 23 24 2
29 23 30 1
30 24 25 1
31 24 29 1
32 25 26 2
33 25 27 1
34 27 28 1
35 28 29 1
36 30 31 1
37 6 33 1
38 11 34 1
39 12 35 1
40 14 36 1
41 15 37 1
42 17 38 1
43 18 39 1
44 19 40 1
45 19 41 1
46 20 42 1
47 20 43 1
48 26 44 1
49 28 45 1
50 28 46 1
51 31 47 1
52 31 48 1
53 31 49 1
54 32 50 1
55 32 51 1
56 32 52 1
@<TRIPOS>SUBSTRUCTURE
1	UNK0	1	GROUP	1 ****	UNK
# created with PyMOL 2.3.2
@<TRIPOS>MOLECULE
1151
39 42 1                 
SMALL
USER_CHARGES
@<TRIPOS>ATOM
1	   S	-1.416	-4.787	-0.294	S.O2	1	UNK0	0.000	
2	   O	-0.711	-6.072	-0.618	O.2	1	UNK0	0.000	
3	   O	-2.735	-5.030	0.385	O.2	1	UNK0	0.000	
4	   C	-0.401	-3.726	0.712	C.3	1	UNK0	0.000	
5	   C	-0.874	-2.314	0.434	C.3	1	UNK0	0.000	
6	   N	-0.484	-1.949	-0.913	N.pl3	1	UNK0	0.000	
7	   C	-0.521	-2.926	-1.981	C.3	1	UNK0	0.000	
8	   C	-1.728	-3.848	-1.796	C.3	1	UNK0	0.000	
9	   C	-0.123	-0.576	-0.836	C.2	1	UNK0	0.000	
10	   O	0.044	0.213	-1.827	O.2	1	UNK0	0.000	
11	   N	0.032	-0.172	0.518	N.pl3	1	UNK0	0.000	
12	   C	-0.237	-1.322	1.306	C.2	1	UNK0	0.000	
13	   O	0.018	-1.482	2.536	O.2	1	UNK0	0.000	
14	   C	0.393	1.143	1.026	C.3	1	UNK0	0.000	
15	   C	1.755	1.576	0.512	C.3	1	UNK0	0.000	
16	   C	2.053	2.914	1.192	C.3	1	UNK0	0.000	
17	   O	1.112	3.836	0.672	O.3	1	UNK0	0.000	
18	   C	-0.199	3.447	0.421	C.2	1	UNK0	0.000	
19	   C	-0.590	2.148	0.580	C.2	1	UNK0	0.000	
20	   C	-1.879	1.765	0.333	C.2	1	UNK0	0.000	
21	   C	-2.781	2.715	-0.082	C.2	1	UNK0	0.000	
22	   C	-2.374	4.016	-0.237	C.2	1	UNK0	0.000	
23	   C	-1.078	4.435	0.004	C.2	1	UNK0	0.000	
24	  Br	-0.527	6.241	-0.215	Br	1	UNK0	0.000	
25	   H	0.634	-3.790	0.288	 H	1	UNK0	0.000	
26	   H	-0.442	-3.994	1.778	 H	1	UNK0	0.000	
27	   H	-1.971	-2.207	0.499	 H	1	UNK0	0.000	
28	   H	0.383	-3.560	-2.008	 H	1	UNK0	0.000	
29	   H	-0.664	-2.453	-2.984	 H	1	UNK0	0.000	
30	   H	-2.667	-3.301	-1.746	 H	1	UNK0	0.000	
31	   H	-1.679	-4.582	-2.629	 H	1	UNK0	0.000	
32	   H	0.441	1.169	2.120	 H	1	UNK0	0.000	
33	   H	2.547	0.852	0.739	 H	1	UNK0	0.000	
34	   H	1.719	1.793	-0.575	 H	1	UNK0	0.000	
35	   H	1.789	2.773	2.270	 H	1	UNK0	0.000	
36	   H	3.082	3.237	1.049	 H	1	UNK0	0.000	
37	   H	-2.174	0.714	0.467	 H	1	UNK0	0.000	
38	   H	-3.806	2.424	-0.281	 H	1	UNK0	0.000	
39	   H	-3.101	4.746	-0.564	 H	1	UNK0	0.000	
@<TRIPOS>BOND
1 1 2 2
2 1 3 2
3 1 4 1
4 1 8 1
5 4 5 1
6 5 6 1
7 5 12 1
8 6 7 1
9 6 9 1
10 7 8 1
11 9 10 2
12 9 11 1
13 11 12 1
14 11 14 1
15 12 13 2
16 14 15 1
17 14 19 1
18 15 16 1
19 16 17 1
20 17 18 1
21 18 19 2
22 18 23 1
23 19 20 1
24 20 21 2
25 21 22 1
26 22 23 2
27 23 24 1
28 4 25 1
29 4 26 1
30 5 27 1
31 7 28 1
32 7 29 1
33 8 30 1
34 8 31 1
35 14 32 1
36 15 33 1
37 15 34 1
38 16 35 1
39 16 36 1
40 20 37 1
41 21 38 1
42 22 39 1
@<TRIPOS>SUBSTRUCTURE
1	UNK0	1	GROUP	1 ****	UNK
# created with PyMOL 2.3.2
@<TRIPOS>MOLECULE
1157
36 39 1                 
SMALL
USER_CHARGES
@<TRIPOS>ATOM
1	   S	4.744	-0.407	-2.835	S.3	1	UNK0	0.000	
2	   C	3.321	-0.267	-1.905	C.2	1	UNK0	0.000	
3	   C	3.611	0.775	-1.063	C.2	1	UNK0	0.000	
4	   C	4.810	1.350	-1.178	C.2	1	UNK0	0.000	
5	   C	5.657	0.849	-2.133	C.2	1	UNK0	0.000	
6	  Br	5.404	2.834	-0.079	Br	1	UNK0	0.000	
7	   C	2.071	-1.058	-1.970	C.2	1	UNK0	0.000	
8	   O	2.046	-1.969	-2.834	O.2	1	UNK0	0.000	
9	   N	0.988	-0.786	-1.104	N.pl3	1	UNK0	0.000	
10	   C	-0.248	-1.553	-1.153	C.3	1	UNK0	0.000	
11	   C	-1.449	-0.667	-1.365	C.3	1	UNK0	0.000	
12	   N	-1.557	-0.004	-0.074	N.pl3	1	UNK0	0.000	
13	   C	-1.421	-1.056	0.905	C.3	1	UNK0	0.000	
14	   C	-0.508	-2.072	0.245	C.3	1	UNK0	0.000	
15	   C	-1.757	1.405	0.122	C.2	1	UNK0	0.000	
16	   N	-1.852	2.246	-0.925	N.2	1	UNK0	0.000	
17	   C	-2.038	3.560	-0.710	C.2	1	UNK0	0.000	
18	   C	-2.136	4.085	0.553	C.2	1	UNK0	0.000	
19	   N	-2.044	3.259	1.609	N.pl3	1	UNK0	0.000	
20	   C	-1.857	1.944	1.382	C.2	1	UNK0	0.000	
21	   N	-1.805	1.386	2.607	N.2	1	UNK0	0.000	
22	   N	-1.951	2.299	3.552	N.2	1	UNK0	0.000	
23	   C	-2.103	3.487	2.943	C.2	1	UNK0	0.000	
24	   H	2.840	1.092	-0.327	 H	1	UNK0	0.000	
25	   H	6.676	1.155	-2.408	 H	1	UNK0	0.000	
26	   H	1.096	-0.009	-0.415	 H	1	UNK0	0.000	
27	   H	-0.228	-2.331	-1.914	 H	1	UNK0	0.000	
28	   H	-1.352	0.029	-2.198	 H	1	UNK0	0.000	
29	   H	-2.327	-1.332	-1.476	 H	1	UNK0	0.000	
30	   H	-1.048	-0.736	1.881	 H	1	UNK0	0.000	
31	   H	-2.420	-1.528	1.009	 H	1	UNK0	0.000	
32	   H	0.425	-2.123	0.850	 H	1	UNK0	0.000	
33	   H	-0.999	-3.066	0.172	 H	1	UNK0	0.000	
34	   H	-2.114	4.232	-1.569	 H	1	UNK0	0.000	
35	   H	-2.287	5.144	0.731	 H	1	UNK0	0.000	
36	   H	-2.244	4.443	3.402	 H	1	UNK0	0.000	
@<TRIPOS>BOND
1 1 2 1
2 1 5 1
3 2 3 2
4 2 7 1
5 3 4 1
6 4 5 2
7 4 6 1
8 7 8 2
9 7 9 1
10 9 10 1
11 10 11 1
12 10 14 1
13 11 12 1
14 12 13 1
15 12 15 1
16 13 14 1
17 15 16 2
18 15 20 1
19 16 17 1
20 17 18 2
21 18 19 1
22 19 20 1
23 19 23 1
24 20 21 2
25 21 22 1
26 22 23 2
27 3 24 1
28 5 25 1
29 9 26 1
30 10 27 1
31 11 28 1
32 11 29 1
33 13 30 1
34 13 31 1
35 14 32 1
36 14 33 1
37 17 34 1
38 18 35 1
39 23 36 1
@<TRIPOS>SUBSTRUCTURE
1	UNK0	1	GROUP	1 ****	UNK
# created with PyMOL 2.3.2
@<TRIPOS>MOLECULE
1160
34 37 1                 
SMALL
USER_CHARGES
@<TRIPOS>ATOM
1	   S	4.203	-0.017	4.561	S.3	1	UNK0	0.000	
2	   C	3.217	1.249	5.119	C.2	1	UNK0	0.000	
3	   C	1.955	0.852	4.762	C.2	1	UNK0	0.000	
4	   C	1.850	-0.334	4.120	C.2	1	UNK0	0.000	
5	   C	3.007	-1.023	3.889	C.2	1	UNK0	0.000	
6	   C	0.507	-0.886	3.678	C.3	1	UNK0	0.000	
7	   C	0.580	-1.594	2.318	C.3	1	UNK0	0.000	
8	   C	0.373	-2.341	3.580	C.3	1	UNK0	0.000	
9	   C	-0.601	-1.303	1.431	C.2	1	UNK0	0.000	
10	   N	-0.598	-1.100	0.101	N.2	1	UNK0	0.000	
11	   C	-1.848	-0.869	-0.336	C.2	1	UNK0	0.000	
12	   N	-2.618	-0.936	0.763	N.2	1	UNK0	0.000	
13	   O	-1.855	-1.195	1.801	O.3	1	UNK0	0.000	
14	   C	-2.301	-0.601	-1.701	C.2	1	UNK0	0.000	
15	   N	-1.525	-0.535	-2.796	N.2	1	UNK0	0.000	
16	   N	-2.273	-0.272	-3.873	N.pl3	1	UNK0	0.000	
17	   C	-3.560	-0.165	-3.473	C.2	1	UNK0	0.000	
18	   N	-3.551	-0.370	-2.135	N.2	1	UNK0	0.000	
19	   C	-1.796	-0.126	-5.238	C.3	1	UNK0	0.000	
20	   C	-1.461	1.295	-5.471	C.2	1	UNK0	0.000	
21	   O	-2.352	2.058	-5.904	O.2	1	UNK0	0.000	
22	   N	-0.155	1.768	-5.204	N.pl3	1	UNK0	0.000	
23	  Br	3.711	2.873	6.039	Br	1	UNK0	0.000	
24	   H	1.083	1.515	5.013	 H	1	UNK0	0.000	
25	   H	3.096	-2.004	3.378	 H	1	UNK0	0.000	
26	   H	-0.392	-0.314	3.910	 H	1	UNK0	0.000	
27	   H	1.540	-1.642	1.806	 H	1	UNK0	0.000	
28	   H	-0.647	-2.793	3.691	 H	1	UNK0	0.000	
29	   H	1.217	-2.997	3.888	 H	1	UNK0	0.000	
30	   H	-4.397	0.045	-4.122	 H	1	UNK0	0.000	
31	   H	-2.569	-0.513	-5.928	 H	1	UNK0	0.000	
32	   H	-0.856	-0.705	-5.394	 H	1	UNK0	0.000	
33	   H	0.013	2.688	-4.711	 H	1	UNK0	0.000	
34	   H	0.719	1.252	-5.468	 H	1	UNK0	0.000	
@<TRIPOS>BOND
1 1 2 1
2 1 5 1
3 2 3 2
4 2 23 1
5 3 4 1
6 4 5 2
7 4 6 1
8 6 7 1
9 6 8 1
10 7 8 1
11 7 9 1
12 9 10 2
13 9 13 1
14 10 11 1
15 11 12 2
16 11 14 1
17 12 13 1
18 14 15 2
19 14 18 1
20 15 16 1
21 16 17 1
22 16 19 1
23 17 18 2
24 19 20 1
25 20 21 2
26 20 22 1
27 3 24 1
28 5 25 1
29 6 26 1
30 7 27 1
31 8 28 1
32 8 29 1
33 17 30 1
34 19 31 1
35 19 32 1
36 22 33 1
37 22 34 1
@<TRIPOS>SUBSTRUCTURE
1	UNK0	1	GROUP	1 ****	UNK
# created with PyMOL 2.3.2
@<TRIPOS>MOLECULE
1161
51 54 1                 
SMALL
USER_CHARGES
@<TRIPOS>ATOM
1	   S	0.409	-6.052	-0.269	S.3	1	UNK0	0.000	
2	   C	-0.030	-7.112	0.985	C.2	1	UNK0	0.000	
3	   C	0.892	-6.831	1.955	C.2	1	UNK0	0.000	
4	   C	1.804	-5.893	1.691	C.2	1	UNK0	0.000	
5	   C	1.749	-5.279	0.465	C.2	1	UNK0	0.000	
6	   C	2.626	-4.222	-0.051	C.2	1	UNK0	0.000	
7	   O	3.569	-3.850	0.690	O.2	1	UNK0	0.000	
8	   C	2.418	-3.614	-1.388	C.3	1	UNK0	0.000	
9	   N	1.858	-2.289	-1.296	N.pl3	1	UNK0	0.000	
10	   C	2.589	-1.157	-1.160	C.2	1	UNK0	0.000	
11	   C	1.760	-0.078	-1.101	C.2	1	UNK0	0.000	
12	   C	2.277	1.197	-0.960	C.2	1	UNK0	0.000	
13	   C	3.641	1.360	-0.880	C.2	1	UNK0	0.000	
14	   C	4.497	0.290	-0.936	C.2	1	UNK0	0.000	
15	   C	3.950	-0.966	-1.077	C.2	1	UNK0	0.000	
16	   N	0.513	-0.548	-1.204	N.pl3	1	UNK0	0.000	
17	   C	0.579	-1.905	-1.324	C.2	1	UNK0	0.000	
18	   N	-0.493	-2.595	-1.450	N.2	1	UNK0	0.000	
19	   C	-0.688	0.275	-1.173	C.3	1	UNK0	0.000	
20	   C	-1.166	0.369	0.284	C.3	1	UNK0	0.000	
21	   N	-2.350	1.169	0.410	N.4	1	UNK0	0.000	
22	   C	-3.493	0.650	-0.314	C.3	1	UNK0	0.000	
23	   C	-3.757	-0.793	0.011	C.3	1	UNK0	0.000	
24	   C	-3.760	-1.079	1.475	C.3	1	UNK0	0.000	
25	   C	-2.934	-0.174	2.317	C.3	1	UNK0	0.000	
26	   C	-2.731	1.206	1.801	C.3	1	UNK0	0.000	
27	  Br	-1.461	-8.373	1.002	Br	1	UNK0	0.000	
28	   H	0.841	-7.394	2.920	 H	1	UNK0	0.000	
29	   H	2.589	-5.602	2.427	 H	1	UNK0	0.000	
30	   H	1.799	-4.285	-2.041	 H	1	UNK0	0.000	
31	   H	3.402	-3.557	-1.916	 H	1	UNK0	0.000	
32	   H	1.584	2.030	-0.916	 H	1	UNK0	0.000	
33	   H	4.086	2.339	-0.767	 H	1	UNK0	0.000	
34	   H	5.577	0.384	-0.875	 H	1	UNK0	0.000	
35	   H	4.587	-1.828	-1.125	 H	1	UNK0	0.000	
36	   H	-0.598	-3.602	-1.559	 H	1	UNK0	0.000	
37	   H	-1.510	-0.130	-1.796	 H	1	UNK0	0.000	
38	   H	-0.455	1.329	-1.464	 H	1	UNK0	0.000	
39	   H	-0.345	0.883	0.831	 H	1	UNK0	0.000	
40	   H	-1.321	-0.681	0.601	 H	1	UNK0	0.000	
41	   H	-2.185	2.127	0.032	 H	1	UNK0	0.000	
42	   H	-4.360	1.269	-0.028	 H	1	UNK0	0.000	
43	   H	-3.305	0.739	-1.401	 H	1	UNK0	0.000	
44	   H	-3.047	-1.467	-0.550	 H	1	UNK0	0.000	
45	   H	-4.761	-1.035	-0.400	 H	1	UNK0	0.000	
46	   H	-4.814	-1.069	1.842	 H	1	UNK0	0.000	
47	   H	-3.367	-2.128	1.618	 H	1	UNK0	0.000	
48	   H	-3.429	-0.135	3.335	 H	1	UNK0	0.000	
49	   H	-1.945	-0.645	2.528	 H	1	UNK0	0.000	
50	   H	-3.646	1.818	1.961	 H	1	UNK0	0.000	
51	   H	-1.859	1.641	2.344	 H	1	UNK0	0.000	
@<TRIPOS>BOND
1 1 2 1
2 1 5 1
3 2 3 2
4 2 27 1
5 3 4 1
6 4 5 2
7 5 6 1
8 6 7 2
9 6 8 1
10 8 9 1
11 9 10 1
12 9 17 1
13 10 11 1
14 10 15 2
15 11 12 2
16 11 16 1
17 12 13 1
18 13 14 2
19 14 15 1
20 16 17 1
21 16 19 1
22 17 18 2
23 19 20 1
24 20 21 1
25 21 22 1
26 21 26 1
27 22 23 1
28 23 24 1
29 24 25 1
30 25 26 1
31 3 28 1
32 4 29 1
33 8 30 1
34 8 31 1
35 12 32 1
36 13 33 1
37 14 34 1
38 15 35 1
39 18 36 1
40 19 37 1
41 19 38 1
42 20 39 1
43 20 40 1
44 21 41 1
45 22 42 1
46 22 43 1
47 23 44 1
48 23 45 1
49 24 46 1
50 24 47 1
51 25 48 1
52 25 49 1
53 26 50 1
54 26 51 1
@<TRIPOS>SUBSTRUCTURE
1	UNK0	1	GROUP	1 ****	UNK
# created with PyMOL 2.3.2
@<TRIPOS>MOLECULE
1177
58 61 1                 
SMALL
USER_CHARGES
@<TRIPOS>ATOM
1	   S	-4.585	0.288	2.392	S.3	1	UNK0	0.000	
2	   C	-4.919	-1.200	3.156	C.2	1	UNK0	0.000	
3	   N	-3.844	-1.909	2.868	N.2	1	UNK0	0.000	
4	   C	-2.889	-1.386	2.157	C.2	1	UNK0	0.000	
5	   C	-3.053	-0.094	1.731	C.2	1	UNK0	0.000	
6	   C	-2.183	0.800	0.970	C.2	1	UNK0	0.000	
7	   C	-1.745	0.467	-0.229	C.2	1	UNK0	0.000	
8	   C	-0.848	1.248	-1.144	C.3	1	UNK0	0.000	
9	   N	-0.110	0.240	-1.839	N.pl3	1	UNK0	0.000	
10	   C	-1.054	-0.857	-1.988	C.2	1	UNK0	0.000	
11	   O	-0.933	-1.748	-2.872	O.2	1	UNK0	0.000	
12	   C	-2.094	-0.730	-0.983	C.2	1	UNK0	0.000	
13	   O	-3.097	-1.497	-0.800	O.2	1	UNK0	0.000	
14	   C	1.219	0.231	-2.375	C.3	1	UNK0	0.000	
15	   C	2.277	-0.379	-1.514	C.3	1	UNK0	0.000	
16	   C	3.642	-0.338	-2.218	C.3	1	UNK0	0.000	
17	   N	4.608	-0.928	-1.354	N.4	1	UNK0	0.000	
18	   C	4.128	-1.931	-0.458	C.3	1	UNK0	0.000	
19	   C	3.854	-3.256	-1.129	C.3	1	UNK0	0.000	
20	   O	4.109	-3.075	-2.507	O.3	1	UNK0	0.000	
21	   C	5.500	-2.864	-2.589	C.3	1	UNK0	0.000	
22	   C	5.747	-1.459	-2.080	C.3	1	UNK0	0.000	
23	   C	-0.087	2.262	-0.426	C.2	1	UNK0	0.000	
24	   C	-0.267	3.603	-0.800	C.2	1	UNK0	0.000	
25	   C	0.373	4.648	-0.184	C.2	1	UNK0	0.000	
26	   C	1.237	4.396	0.853	C.2	1	UNK0	0.000	
27	   C	1.440	3.084	1.252	C.2	1	UNK0	0.000	
28	   C	0.779	2.059	0.609	C.2	1	UNK0	0.000	
29	  Br	0.109	6.464	-0.714	Br	1	UNK0	0.000	
30	   O	-1.798	2.046	1.516	O.2	1	UNK0	0.000	
31	   C	-1.632	-2.195	1.864	C.3	1	UNK0	0.000	
32	   C	-6.133	-1.606	3.959	C.3	1	UNK0	0.000	
33	   H	-1.565	1.761	-1.854	 H	1	UNK0	0.000	
34	   H	1.497	1.312	-2.522	 H	1	UNK0	0.000	
35	   H	1.229	-0.291	-3.362	 H	1	UNK0	0.000	
36	   H	2.432	0.053	-0.536	 H	1	UNK0	0.000	
37	   H	2.032	-1.483	-1.464	 H	1	UNK0	0.000	
38	   H	3.937	0.708	-2.434	 H	1	UNK0	0.000	
39	   H	3.498	-0.886	-3.173	 H	1	UNK0	0.000	
40	   H	5.001	-0.145	-0.749	 H	1	UNK0	0.000	
41	   H	3.261	-1.671	0.147	 H	1	UNK0	0.000	
42	   H	4.964	-2.117	0.280	 H	1	UNK0	0.000	
43	   H	2.862	-3.668	-0.931	 H	1	UNK0	0.000	
44	   H	4.590	-4.045	-0.816	 H	1	UNK0	0.000	
45	   H	5.966	-3.560	-1.842	 H	1	UNK0	0.000	
46	   H	5.907	-3.058	-3.579	 H	1	UNK0	0.000	
47	   H	6.631	-1.419	-1.422	 H	1	UNK0	0.000	
48	   H	5.922	-0.792	-2.955	 H	1	UNK0	0.000	
49	   H	-0.943	3.848	-1.618	 H	1	UNK0	0.000	
50	   H	1.732	5.228	1.327	 H	1	UNK0	0.000	
51	   H	2.106	2.854	2.055	 H	1	UNK0	0.000	
52	   H	0.935	1.042	0.940	 H	1	UNK0	0.000	
53	   H	-0.835	-1.526	1.555	 H	1	UNK0	0.000	
54	   H	-1.869	-3.002	1.142	 H	1	UNK0	0.000	
55	   H	-1.293	-2.713	2.790	 H	1	UNK0	0.000	
56	   H	-6.617	-2.489	3.530	 H	1	UNK0	0.000	
57	   H	-5.746	-1.800	4.984	 H	1	UNK0	0.000	
58	   H	-6.787	-0.712	4.018	 H	1	UNK0	0.000	
@<TRIPOS>BOND
1 1 2 1
2 1 5 1
3 2 3 2
4 2 32 1
5 3 4 1
6 4 5 2
7 4 31 1
8 5 6 1
9 6 7 2
10 6 30 1
11 7 8 1
12 7 12 1
13 8 9 1
14 8 23 1
15 9 10 1
16 9 14 1
17 10 11 2
18 10 12 1
19 12 13 2
20 14 15 1
21 15 16 1
22 16 17 1
23 17 18 1
24 17 22 1
25 18 19 1
26 19 20 1
27 20 21 1
28 21 22 1
29 23 24 2
30 23 28 1
31 24 25 1
32 25 26 2
33 25 29 1
34 26 27 1
35 27 28 2
36 8 33 1
37 14 34 1
38 14 35 1
39 15 36 1
40 15 37 1
41 16 38 1
42 16 39 1
43 17 40 1
44 18 41 1
45 18 42 1
46 19 43 1
47 19 44 1
48 21 45 1
49 21 46 1
50 22 47 1
51 22 48 1
52 24 49 1
53 26 50 1
54 27 51 1
55 28 52 1
56 31 53 1
57 31 54 1
58 31 55 1
59 32 56 1
60 32 57 1
61 32 58 1
@<TRIPOS>SUBSTRUCTURE
1	UNK0	1	GROUP	1 ****	UNK
# created with PyMOL 2.3.2
@<TRIPOS>MOLECULE
1178
58 61 1                 
SMALL
USER_CHARGES
@<TRIPOS>ATOM
1	   S	2.829	-1.383	-4.798	S.3	1	UNK0	0.000	
2	   C	3.719	-2.813	-4.543	C.2	1	UNK0	0.000	
3	   N	3.614	-2.985	-3.241	N.2	1	UNK0	0.000	
4	   C	2.940	-2.136	-2.527	C.2	1	UNK0	0.000	
5	   C	2.357	-1.077	-3.180	C.2	1	UNK0	0.000	
6	   C	1.582	0.056	-2.628	C.2	1	UNK0	0.000	
7	   C	0.500	-0.153	-1.938	C.2	1	UNK0	0.000	
8	   C	-0.355	0.913	-1.328	C.3	1	UNK0	0.000	
9	   N	-0.840	0.279	-0.131	N.pl3	1	UNK0	0.000	
10	   C	-1.018	-1.101	-0.478	C.2	1	UNK0	0.000	
11	   O	-1.765	-1.911	0.100	O.2	1	UNK0	0.000	
12	   C	-0.178	-1.405	-1.628	C.2	1	UNK0	0.000	
13	   O	-0.016	-2.476	-2.274	O.2	1	UNK0	0.000	
14	   C	-1.097	0.941	1.113	C.3	1	UNK0	0.000	
15	   C	-2.451	1.496	1.270	C.3	1	UNK0	0.000	
16	   C	-3.576	0.602	1.176	C.3	1	UNK0	0.000	
17	   N	-3.934	-0.460	1.990	N.4	1	UNK0	0.000	
18	   C	-5.273	-0.205	2.640	C.3	1	UNK0	0.000	
19	   C	-5.084	0.708	3.806	C.3	1	UNK0	0.000	
20	   O	-4.381	0.001	4.775	O.3	1	UNK0	0.000	
21	   C	-3.071	-0.132	4.262	C.3	1	UNK0	0.000	
22	   C	-3.072	-0.957	3.005	C.3	1	UNK0	0.000	
23	   C	0.410	2.153	-1.130	C.2	1	UNK0	0.000	
24	   C	1.491	2.322	-0.309	C.2	1	UNK0	0.000	
25	   C	2.178	3.504	-0.149	C.2	1	UNK0	0.000	
26	   C	1.763	4.604	-0.856	C.2	1	UNK0	0.000	
27	   C	0.685	4.499	-1.695	C.2	1	UNK0	0.000	
28	   C	0.021	3.302	-1.832	C.2	1	UNK0	0.000	
29	  Br	2.723	6.248	-0.632	Br	1	UNK0	0.000	
30	   O	2.014	1.375	-2.848	O.2	1	UNK0	0.000	
31	   C	2.834	-2.279	-1.011	C.3	1	UNK0	0.000	
32	   C	4.453	-3.687	-5.524	C.3	1	UNK0	0.000	
33	   H	-1.236	1.107	-1.971	 H	1	UNK0	0.000	
34	   H	-0.775	0.339	1.944	 H	1	UNK0	0.000	
35	   H	-0.354	1.834	1.121	 H	1	UNK0	0.000	
36	   H	-2.425	2.160	2.181	 H	1	UNK0	0.000	
37	   H	-2.529	2.307	0.456	 H	1	UNK0	0.000	
38	   H	-4.502	1.311	1.004	 H	1	UNK0	0.000	
39	   H	-3.545	0.167	0.098	 H	1	UNK0	0.000	
40	   H	-4.177	-1.293	1.401	 H	1	UNK0	0.000	
41	   H	-5.963	0.093	1.870	 H	1	UNK0	0.000	
42	   H	-5.597	-1.180	3.044	 H	1	UNK0	0.000	
43	   H	-6.088	1.019	4.155	 H	1	UNK0	0.000	
44	   H	-4.478	1.607	3.583	 H	1	UNK0	0.000	
45	   H	-2.496	-0.673	5.040	 H	1	UNK0	0.000	
46	   H	-2.659	0.870	4.174	 H	1	UNK0	0.000	
47	   H	-3.469	-1.982	3.382	 H	1	UNK0	0.000	
48	   H	-2.076	-1.190	2.689	 H	1	UNK0	0.000	
49	   H	1.835	1.466	0.254	 H	1	UNK0	0.000	
50	   H	3.028	3.533	0.531	 H	1	UNK0	0.000	
51	   H	0.382	5.399	-2.244	 H	1	UNK0	0.000	
52	   H	-0.825	3.239	-2.496	 H	1	UNK0	0.000	
53	   H	2.527	-1.347	-0.558	 H	1	UNK0	0.000	
54	   H	2.163	-3.114	-0.738	 H	1	UNK0	0.000	
55	   H	3.841	-2.546	-0.599	 H	1	UNK0	0.000	
56	   H	4.818	-3.036	-6.361	 H	1	UNK0	0.000	
57	   H	5.387	-4.091	-5.052	 H	1	UNK0	0.000	
58	   H	3.819	-4.493	-5.903	 H	1	UNK0	0.000	
@<TRIPOS>BOND
1 1 2 1
2 1 5 1
3 2 3 2
4 2 32 1
5 3 4 1
6 4 5 2
7 4 31 1
8 5 6 1
9 6 7 2
10 6 30 1
11 7 8 1
12 7 12 1
13 8 9 1
14 8 23 1
15 9 10 1
16 9 14 1
17 10 11 2
18 10 12 1
19 12 13 2
20 14 15 1
21 15 16 1
22 16 17 1
23 17 18 1
24 17 22 1
25 18 19 1
26 19 20 1
27 20 21 1
28 21 22 1
29 23 24 2
30 23 28 1
31 24 25 1
32 25 26 2
33 26 27 1
34 26 29 1
35 27 28 2
36 8 33 1
37 14 34 1
38 14 35 1
39 15 36 1
40 15 37 1
41 16 38 1
42 16 39 1
43 17 40 1
44 18 41 1
45 18 42 1
46 19 43 1
47 19 44 1
48 21 45 1
49 21 46 1
50 22 47 1
51 22 48 1
52 24 49 1
53 25 50 1
54 27 51 1
55 28 52 1
56 31 53 1
57 31 54 1
58 31 55 1
59 32 56 1
60 32 57 1
61 32 58 1
@<TRIPOS>SUBSTRUCTURE
1	UNK0	1	GROUP	1 ****	UNK
# created with PyMOL 2.3.2
@<TRIPOS>MOLECULE
1180
55 58 1                 
SMALL
USER_CHARGES
@<TRIPOS>ATOM
1	   S	-2.203	3.916	1.649	S.3	1	UNK0	0.000	
2	   C	-2.308	5.218	0.559	C.2	1	UNK0	0.000	
3	   N	-1.967	4.657	-0.584	N.2	1	UNK0	0.000	
4	   C	-1.664	3.397	-0.628	C.2	1	UNK0	0.000	
5	   C	-1.714	2.685	0.547	C.2	1	UNK0	0.000	
6	   C	-1.393	1.276	0.821	C.2	1	UNK0	0.000	
7	   C	-2.058	0.369	0.137	C.2	1	UNK0	0.000	
8	   C	-1.951	-1.121	0.188	C.3	1	UNK0	0.000	
9	   N	-1.931	-1.435	-1.188	N.pl3	1	UNK0	0.000	
10	   C	-3.061	-0.628	-1.704	C.2	1	UNK0	0.000	
11	   O	-3.800	-0.899	-2.688	O.2	1	UNK0	0.000	
12	   C	-3.135	0.543	-0.837	C.2	1	UNK0	0.000	
13	   O	-3.931	1.532	-0.861	O.2	1	UNK0	0.000	
14	   C	-1.263	-2.276	-2.122	C.3	1	UNK0	0.000	
15	   C	-0.251	-1.719	-3.028	C.3	1	UNK0	0.000	
16	   N	0.915	-1.090	-2.557	N.4	1	UNK0	0.000	
17	   C	1.989	-1.993	-2.201	C.3	1	UNK0	0.000	
18	   C	3.088	-1.129	-1.591	C.3	1	UNK0	0.000	
19	   O	2.894	0.217	-1.901	O.3	1	UNK0	0.000	
20	   C	2.756	0.265	-3.303	C.3	1	UNK0	0.000	
21	   C	1.471	-0.371	-3.750	C.3	1	UNK0	0.000	
22	   C	-1.106	-1.688	1.181	C.2	1	UNK0	0.000	
23	   C	-1.684	-2.248	2.324	C.2	1	UNK0	0.000	
24	   C	-0.942	-2.799	3.336	C.2	1	UNK0	0.000	
25	   C	0.431	-2.795	3.208	C.2	1	UNK0	0.000	
26	   C	1.021	-2.247	2.088	C.2	1	UNK0	0.000	
27	   C	0.255	-1.699	1.085	C.2	1	UNK0	0.000	
28	  Br	1.541	-3.544	4.574	Br	1	UNK0	0.000	
29	   O	-0.442	0.886	1.747	O.2	1	UNK0	0.000	
30	   C	-1.225	2.741	-1.929	C.3	1	UNK0	0.000	
31	   C	-2.694	6.648	0.825	C.3	1	UNK0	0.000	
32	   H	-3.028	-1.410	0.509	 H	1	UNK0	0.000	
33	   H	-2.054	-2.758	-2.783	 H	1	UNK0	0.000	
34	   H	-0.790	-3.170	-1.638	 H	1	UNK0	0.000	
35	   H	-0.781	-0.947	-3.679	 H	1	UNK0	0.000	
36	   H	0.011	-2.551	-3.767	 H	1	UNK0	0.000	
37	   H	0.710	-0.361	-1.866	 H	1	UNK0	0.000	
38	   H	1.714	-2.734	-1.448	 H	1	UNK0	0.000	
39	   H	2.351	-2.479	-3.143	 H	1	UNK0	0.000	
40	   H	4.052	-1.519	-2.015	 H	1	UNK0	0.000	
41	   H	3.081	-1.198	-0.483	 H	1	UNK0	0.000	
42	   H	2.830	1.305	-3.660	 H	1	UNK0	0.000	
43	   H	3.608	-0.367	-3.686	 H	1	UNK0	0.000	
44	   H	0.718	0.328	-4.110	 H	1	UNK0	0.000	
45	   H	1.657	-1.180	-4.486	 H	1	UNK0	0.000	
46	   H	-2.779	-2.263	2.455	 H	1	UNK0	0.000	
47	   H	-1.416	-3.234	4.226	 H	1	UNK0	0.000	
48	   H	2.108	-2.259	2.013	 H	1	UNK0	0.000	
49	   H	0.785	-1.256	0.211	 H	1	UNK0	0.000	
50	   H	-0.551	3.458	-2.453	 H	1	UNK0	0.000	
51	   H	-2.059	2.550	-2.600	 H	1	UNK0	0.000	
52	   H	-0.688	1.806	-1.723	 H	1	UNK0	0.000	
53	   H	-2.059	7.355	0.263	 H	1	UNK0	0.000	
54	   H	-2.603	6.805	1.939	 H	1	UNK0	0.000	
55	   H	-3.772	6.744	0.590	 H	1	UNK0	0.000	
@<TRIPOS>BOND
1 1 2 1
2 1 5 1
3 2 3 2
4 2 31 1
5 3 4 1
6 4 5 2
7 4 30 1
8 5 6 1
9 6 7 2
10 6 29 1
11 7 8 1
12 7 12 1
13 8 9 1
14 8 22 1
15 9 10 1
16 9 14 1
17 10 11 2
18 10 12 1
19 12 13 2
20 14 15 1
21 15 16 1
22 16 17 1
23 16 21 1
24 17 18 1
25 18 19 1
26 19 20 1
27 20 21 1
28 22 23 2
29 22 27 1
30 23 24 1
31 24 25 2
32 25 26 1
33 25 28 1
34 26 27 2
35 8 32 1
36 14 33 1
37 14 34 1
38 15 35 1
39 15 36 1
40 16 37 1
41 17 38 1
42 17 39 1
43 18 40 1
44 18 41 1
45 20 42 1
46 20 43 1
47 21 44 1
48 21 45 1
49 23 46 1
50 24 47 1
51 26 48 1
52 27 49 1
53 30 50 1
54 30 51 1
55 30 52 1
56 31 53 1
57 31 54 1
58 31 55 1
@<TRIPOS>SUBSTRUCTURE
1	UNK0	1	GROUP	1 ****	UNK
# created with PyMOL 2.3.2
@<TRIPOS>MOLECULE
1192
39 42 1                 
SMALL
USER_CHARGES
@<TRIPOS>ATOM
1	   S	-0.662	-1.744	-1.817	S.3	1	UNK0	0.000	
2	   C	0.994	-1.288	-1.794	C.2	1	UNK0	0.000	
3	   C	0.925	0.079	-1.803	C.2	1	UNK0	0.000	
4	   C	-0.295	0.638	-1.825	C.2	1	UNK0	0.000	
5	   C	-1.375	-0.203	-1.836	C.2	1	UNK0	0.000	
6	   C	-2.730	0.442	-1.860	C.3	1	UNK0	0.000	
7	   N	-2.803	1.373	-0.736	N.4	1	UNK0	0.000	
8	   C	-1.729	2.317	-0.712	C.3	1	UNK0	0.000	
9	   C	-0.726	2.097	-1.839	C.3	1	UNK0	0.000	
10	   C	-2.691	0.548	0.467	C.3	1	UNK0	0.000	
11	   C	2.250	0.759	-1.790	C.2	1	UNK0	0.000	
12	   O	2.328	2.023	-1.796	O.2	1	UNK0	0.000	
13	   N	3.425	-0.036	-1.770	N.pl3	1	UNK0	0.000	
14	   C	3.480	-1.397	-1.323	C.3	1	UNK0	0.000	
15	   N	2.244	-2.019	-1.771	N.pl3	1	UNK0	0.000	
16	   C	3.585	-1.513	0.152	C.2	1	UNK0	0.000	
17	   C	4.453	-0.730	0.885	C.2	1	UNK0	0.000	
18	   C	4.563	-0.823	2.254	C.2	1	UNK0	0.000	
19	   C	3.785	-1.730	2.944	C.2	1	UNK0	0.000	
20	   C	2.913	-2.521	2.235	C.2	1	UNK0	0.000	
21	   C	2.808	-2.421	0.861	C.2	1	UNK0	0.000	
22	  Br	1.849	-3.769	3.236	Br	1	UNK0	0.000	
23	   O	3.891	-1.829	4.324	O.2	1	UNK0	0.000	
24	  Br	5.759	0.259	3.250	Br	1	UNK0	0.000	
25	   H	-2.944	0.926	-2.820	 H	1	UNK0	0.000	
26	   H	-3.503	-0.331	-1.653	 H	1	UNK0	0.000	
27	   H	-3.747	1.807	-0.692	 H	1	UNK0	0.000	
28	   H	-1.116	2.246	0.234	 H	1	UNK0	0.000	
29	   H	-2.059	3.367	-0.762	 H	1	UNK0	0.000	
30	   H	0.119	2.772	-1.735	 H	1	UNK0	0.000	
31	   H	-1.288	2.219	-2.787	 H	1	UNK0	0.000	
32	   H	-3.027	-0.497	0.280	 H	1	UNK0	0.000	
33	   H	-1.598	0.451	0.734	 H	1	UNK0	0.000	
34	   H	-3.174	1.008	1.334	 H	1	UNK0	0.000	
35	   H	4.315	0.425	-2.114	 H	1	UNK0	0.000	
36	   H	4.340	-1.906	-1.783	 H	1	UNK0	0.000	
37	   H	2.204	-3.008	-2.091	 H	1	UNK0	0.000	
38	   H	5.067	-0.017	0.357	 H	1	UNK0	0.000	
39	   H	2.123	-3.045	0.320	 H	1	UNK0	0.000	
@<TRIPOS>BOND
1 1 2 1
2 1 5 1
3 2 3 2
4 2 15 1
5 3 4 1
6 3 11 1
7 4 5 2
8 4 9 1
9 5 6 1
10 6 7 1
11 7 8 1
12 7 10 1
13 8 9 1
14 11 12 2
15 11 13 1
16 13 14 1
17 14 15 1
18 14 16 1
19 16 17 2
20 16 21 1
21 17 18 1
22 18 19 2
23 18 24 1
24 19 20 1
25 19 23 1
26 20 21 2
27 20 22 1
28 6 25 1
29 6 26 1
30 7 27 1
31 8 28 1
32 8 29 1
33 9 30 1
34 9 31 1
35 10 32 1
36 10 33 1
37 10 34 1
38 13 35 1
39 14 36 1
40 15 37 1
41 17 38 1
42 21 39 1
@<TRIPOS>SUBSTRUCTURE
1	UNK0	1	GROUP	1 ****	UNK
# created with PyMOL 2.3.2
@<TRIPOS>MOLECULE
1193
46 49 1                 
SMALL
USER_CHARGES
@<TRIPOS>ATOM
1	   S	-0.962	3.215	-1.610	S.3	1	UNK0	0.000	
2	   C	-1.161	2.429	-0.108	C.2	1	UNK0	0.000	
3	   C	0.045	1.813	0.079	C.2	1	UNK0	0.000	
4	   C	0.980	1.981	-0.890	C.2	1	UNK0	0.000	
5	   C	0.628	2.753	-1.969	C.2	1	UNK0	0.000	
6	   C	1.566	3.011	-3.101	C.3	1	UNK0	0.000	
7	   N	2.937	3.052	-2.724	N.4	1	UNK0	0.000	
8	   C	3.257	2.543	-1.434	C.3	1	UNK0	0.000	
9	   C	2.404	1.415	-0.945	C.3	1	UNK0	0.000	
10	   C	3.783	2.470	-3.759	C.3	1	UNK0	0.000	
11	   C	0.133	1.045	1.359	C.2	1	UNK0	0.000	
12	   O	1.208	0.425	1.647	O.2	1	UNK0	0.000	
13	   N	-0.975	1.012	2.237	N.pl3	1	UNK0	0.000	
14	   C	-2.322	1.168	1.734	C.3	1	UNK0	0.000	
15	   N	-2.250	2.330	0.849	N.pl3	1	UNK0	0.000	
16	   C	-2.643	-0.050	0.945	C.2	1	UNK0	0.000	
17	   C	-3.259	0.049	-0.284	C.2	1	UNK0	0.000	
18	   C	-3.565	-1.068	-1.031	C.2	1	UNK0	0.000	
19	   C	-3.248	-2.327	-0.538	C.2	1	UNK0	0.000	
20	   C	-2.632	-2.456	0.688	C.2	1	UNK0	0.000	
21	   C	-2.343	-1.335	1.401	C.2	1	UNK0	0.000	
22	   O	-2.337	-3.731	1.134	O.3	1	UNK0	0.000	
23	   C	-1.718	-4.054	2.339	C.3	1	UNK0	0.000	
24	   C	-0.338	-3.441	2.436	C.3	1	UNK0	0.000	
25	   O	-3.548	-3.470	-1.275	O.2	1	UNK0	0.000	
26	  Br	-4.416	-0.946	-2.732	Br	1	UNK0	0.000	
27	   H	1.426	2.164	-3.818	 H	1	UNK0	0.000	
28	   H	1.228	3.921	-3.632	 H	1	UNK0	0.000	
29	   H	3.214	4.083	-2.714	 H	1	UNK0	0.000	
30	   H	3.270	3.340	-0.663	 H	1	UNK0	0.000	
31	   H	4.313	2.156	-1.477	 H	1	UNK0	0.000	
32	   H	2.434	0.536	-1.609	 H	1	UNK0	0.000	
33	   H	2.738	1.185	0.080	 H	1	UNK0	0.000	
34	   H	4.716	3.044	-3.908	 H	1	UNK0	0.000	
35	   H	3.206	2.467	-4.719	 H	1	UNK0	0.000	
36	   H	4.077	1.432	-3.511	 H	1	UNK0	0.000	
37	   H	-0.824	0.874	3.261	 H	1	UNK0	0.000	
38	   H	-3.045	1.355	2.534	 H	1	UNK0	0.000	
39	   H	-2.929	3.109	0.847	 H	1	UNK0	0.000	
40	   H	-3.514	1.009	-0.686	 H	1	UNK0	0.000	
41	   H	-1.867	-1.403	2.354	 H	1	UNK0	0.000	
42	   H	-2.371	-3.710	3.169	 H	1	UNK0	0.000	
43	   H	-1.609	-5.153	2.447	 H	1	UNK0	0.000	
44	   H	-0.162	-2.858	1.509	 H	1	UNK0	0.000	
45	   H	-0.232	-2.835	3.363	 H	1	UNK0	0.000	
46	   H	0.451	-4.242	2.422	 H	1	UNK0	0.000	
@<TRIPOS>BOND
1 1 2 1
2 1 5 1
3 2 3 2
4 2 15 1
5 3 4 1
6 3 11 1
7 4 5 2
8 4 9 1
9 5 6 1
10 6 7 1
11 7 8 1
12 7 10 1
13 8 9 1
14 11 12 2
15 11 13 1
16 13 14 1
17 14 15 1
18 14 16 1
19 16 17 2
20 16 21 1
21 17 18 1
22 18 19 2
23 18 26 1
24 19 20 1
25 19 25 1
26 20 21 2
27 20 22 1
28 22 23 1
29 23 24 1
30 6 27 1
31 6 28 1
32 7 29 1
33 8 30 1
34 8 31 1
35 9 32 1
36 9 33 1
37 10 34 1
38 10 35 1
39 10 36 1
40 13 37 1
41 14 38 1
42 15 39 1
43 17 40 1
44 21 41 1
45 23 42 1
46 23 43 1
47 24 44 1
48 24 45 1
49 24 46 1
@<TRIPOS>SUBSTRUCTURE
1	UNK0	1	GROUP	1 ****	UNK
# created with PyMOL 2.3.2
@<TRIPOS>MOLECULE
1206
40 43 1                 
SMALL
USER_CHARGES
@<TRIPOS>ATOM
1	   S	-0.793	3.812	-1.143	S.3	1	UNK0	0.000	
2	   C	-1.069	4.162	0.613	C.3	1	UNK0	0.000	
3	   C	-0.140	3.142	1.213	C.3	1	UNK0	0.000	
4	   N	-0.064	1.950	0.424	N.pl3	1	UNK0	0.000	
5	   C	-0.400	2.088	-0.869	C.2	1	UNK0	0.000	
6	   N	-0.310	0.900	-1.478	N.pl3	1	UNK0	0.000	
7	   C	0.090	-0.019	-0.571	C.2	1	UNK0	0.000	
8	   C	0.251	0.626	0.632	C.2	1	UNK0	0.000	
9	   C	0.663	-0.021	1.855	C.2	1	UNK0	0.000	
10	   C	0.732	-1.425	1.863	C.2	1	UNK0	0.000	
11	   C	1.154	-2.102	2.978	C.2	1	UNK0	0.000	
12	   C	1.530	-1.471	4.137	C.2	1	UNK0	0.000	
13	   C	1.472	-0.097	4.155	C.2	1	UNK0	0.000	
14	   C	1.042	0.596	3.017	C.2	1	UNK0	0.000	
15	   N	1.953	-2.242	5.245	N.pl3	1	UNK0	0.000	
16	   O	1.988	-3.476	5.181	O.2	1	UNK0	0.000	
17	   O	2.325	-1.612	6.393	O.2	1	UNK0	0.000	
18	   C	-0.583	0.625	-2.847	C.2	1	UNK0	0.000	
19	   C	0.318	-0.031	-3.653	C.2	1	UNK0	0.000	
20	   C	0.078	-0.310	-4.982	C.2	1	UNK0	0.000	
21	   C	-1.114	0.079	-5.552	C.2	1	UNK0	0.000	
22	   C	-2.045	0.742	-4.772	C.2	1	UNK0	0.000	
23	   C	-1.780	1.008	-3.444	C.2	1	UNK0	0.000	
24	  Br	-1.482	-0.290	-7.393	Br	1	UNK0	0.000	
25	   C	-2.476	3.808	1.030	C.3	1	UNK0	0.000	
26	   H	-0.784	5.187	0.890	 H	1	UNK0	0.000	
27	   H	0.861	3.626	1.294	 H	1	UNK0	0.000	
28	   H	-0.522	2.892	2.241	 H	1	UNK0	0.000	
29	   H	0.254	-1.092	-0.783	 H	1	UNK0	0.000	
30	   H	0.442	-1.977	0.973	 H	1	UNK0	0.000	
31	   H	1.189	-3.191	2.932	 H	1	UNK0	0.000	
32	   H	1.758	0.449	5.046	 H	1	UNK0	0.000	
33	   H	1.048	1.657	3.094	 H	1	UNK0	0.000	
34	   H	1.269	-0.342	-3.200	 H	1	UNK0	0.000	
35	   H	0.842	-0.830	-5.540	 H	1	UNK0	0.000	
36	   H	-2.995	1.056	-5.209	 H	1	UNK0	0.000	
37	   H	-2.479	1.525	-2.792	 H	1	UNK0	0.000	
38	   H	-3.214	4.532	0.676	 H	1	UNK0	0.000	
39	   H	-2.691	2.803	0.600	 H	1	UNK0	0.000	
40	   H	-2.510	3.757	2.134	 H	1	UNK0	0.000	
@<TRIPOS>BOND
1 1 2 1
2 1 5 1
3 2 3 1
4 2 25 1
5 3 4 1
6 4 5 1
7 4 8 1
8 5 6 2
9 6 7 1
10 6 18 1
11 7 8 2
12 8 9 1
13 9 10 2
14 9 14 1
15 10 11 1
16 11 12 2
17 12 13 1
18 12 15 1
19 13 14 2
20 15 16 2
21 15 17 1
22 18 19 2
23 18 23 1
24 19 20 1
25 20 21 2
26 21 22 1
27 21 24 1
28 22 23 2
29 2 26 1
30 3 27 1
31 3 28 1
32 7 29 1
33 10 30 1
34 11 31 1
35 13 32 1
36 14 33 1
37 19 34 1
38 20 35 1
39 22 36 1
40 23 37 1
41 25 38 1
42 25 39 1
43 25 40 1
@<TRIPOS>SUBSTRUCTURE
1	UNK0	1	GROUP	1 ****	UNK
# created with PyMOL 2.3.2
@<TRIPOS>MOLECULE
1209
42 45 1                 
SMALL
USER_CHARGES
@<TRIPOS>ATOM
1	   S	-3.382	-1.946	-0.594	S.3	1	UNK0	0.000	
2	   C	-4.447	-1.712	-2.045	C.3	1	UNK0	0.000	
3	   C	-3.589	-1.099	-3.137	C.3	1	UNK0	0.000	
4	   C	-2.255	-1.812	-3.215	C.3	1	UNK0	0.000	
5	   N	-1.389	-1.185	-2.230	N.pl3	1	UNK0	0.000	
6	   C	-1.811	-1.185	-0.963	C.2	1	UNK0	0.000	
7	   N	-0.866	-0.552	-0.183	N.pl3	1	UNK0	0.000	
8	   C	0.134	-0.162	-0.956	C.2	1	UNK0	0.000	
9	   C	-0.213	-0.569	-2.242	C.2	1	UNK0	0.000	
10	   C	1.367	0.541	-0.639	C.2	1	UNK0	0.000	
11	   C	2.272	0.836	-1.669	C.2	1	UNK0	0.000	
12	   C	3.447	1.494	-1.432	C.2	1	UNK0	0.000	
13	   C	3.828	1.914	-0.178	C.2	1	UNK0	0.000	
14	   C	2.950	1.630	0.836	C.2	1	UNK0	0.000	
15	   C	1.740	0.956	0.616	C.2	1	UNK0	0.000	
16	   O	5.029	2.580	0.023	O.3	1	UNK0	0.000	
17	   C	5.892	2.842	-1.068	C.3	1	UNK0	0.000	
18	   C	-1.034	-0.395	1.224	C.2	1	UNK0	0.000	
19	   C	-1.678	0.715	1.742	C.2	1	UNK0	0.000	
20	   C	-1.883	0.882	3.097	C.2	1	UNK0	0.000	
21	   C	-1.422	-0.102	3.949	C.2	1	UNK0	0.000	
22	   C	-0.781	-1.204	3.424	C.2	1	UNK0	0.000	
23	   C	-0.566	-1.391	2.076	C.2	1	UNK0	0.000	
24	  Br	-1.660	0.043	5.850	Br	1	UNK0	0.000	
25	   H	-4.825	-2.687	-2.403	 H	1	UNK0	0.000	
26	   H	-5.260	-1.030	-1.737	 H	1	UNK0	0.000	
27	   H	-4.119	-1.113	-4.112	 H	1	UNK0	0.000	
28	   H	-3.435	-0.029	-2.871	 H	1	UNK0	0.000	
29	   H	-2.432	-2.861	-2.839	 H	1	UNK0	0.000	
30	   H	-1.827	-1.802	-4.221	 H	1	UNK0	0.000	
31	   H	0.349	-0.435	-3.162	 H	1	UNK0	0.000	
32	   H	2.018	0.527	-2.670	 H	1	UNK0	0.000	
33	   H	4.153	1.722	-2.248	 H	1	UNK0	0.000	
34	   H	3.185	1.929	1.843	 H	1	UNK0	0.000	
35	   H	1.096	0.763	1.447	 H	1	UNK0	0.000	
36	   H	6.774	3.413	-0.784	 H	1	UNK0	0.000	
37	   H	5.299	3.367	-1.874	 H	1	UNK0	0.000	
38	   H	6.206	1.885	-1.512	 H	1	UNK0	0.000	
39	   H	-2.056	1.511	1.105	 H	1	UNK0	0.000	
40	   H	-2.383	1.740	3.521	 H	1	UNK0	0.000	
41	   H	-0.404	-2.003	4.078	 H	1	UNK0	0.000	
42	   H	-0.061	-2.263	1.680	 H	1	UNK0	0.000	
@<TRIPOS>BOND
1 1 2 1
2 1 6 1
3 2 3 1
4 3 4 1
5 4 5 1
6 5 6 2
7 5 9 1
8 6 7 1
9 7 8 1
10 7 18 1
11 8 9 2
12 8 10 1
13 10 11 2
14 10 15 1
15 11 12 1
16 12 13 2
17 13 14 1
18 13 16 1
19 14 15 2
20 16 17 1
21 18 19 2
22 18 23 1
23 19 20 1
24 20 21 2
25 21 22 1
26 21 24 1
27 22 23 2
28 2 25 1
29 2 26 1
30 3 27 1
31 3 28 1
32 4 29 1
33 4 30 1
34 9 31 1
35 11 32 1
36 12 33 1
37 14 34 1
38 15 35 1
39 17 36 1
40 17 37 1
41 17 38 1
42 19 39 1
43 20 40 1
44 22 41 1
45 23 42 1
@<TRIPOS>SUBSTRUCTURE
1	UNK0	1	GROUP	1 ****	UNK
# created with PyMOL 2.3.2
@<TRIPOS>MOLECULE
1211
45 48 1                 
SMALL
USER_CHARGES
@<TRIPOS>ATOM
1	   S	0.607	-1.865	0.983	S.3	1	UNK0	0.000	
2	   C	0.378	-3.512	0.206	C.3	1	UNK0	0.000	
3	   C	1.013	-3.369	-1.179	C.3	1	UNK0	0.000	
4	   C	0.162	-2.388	-1.979	C.3	1	UNK0	0.000	
5	   N	0.601	-1.059	-1.632	N.pl3	1	UNK0	0.000	
6	   C	0.822	-0.733	-0.385	C.2	1	UNK0	0.000	
7	   N	1.265	0.650	-0.374	N.pl3	1	UNK0	0.000	
8	   C	0.461	1.215	-1.436	C.3	1	UNK0	0.000	
9	   C	0.896	0.109	-2.468	C.3	1	UNK0	0.000	
10	   O	0.815	2.458	-1.855	O.3	1	UNK0	0.000	
11	   C	-0.962	1.021	-1.135	C.2	1	UNK0	0.000	
12	   C	-1.478	1.085	0.148	C.2	1	UNK0	0.000	
13	   C	-2.846	0.855	0.360	C.2	1	UNK0	0.000	
14	   C	-3.693	0.569	-0.643	C.2	1	UNK0	0.000	
15	   C	-3.201	0.499	-1.963	C.2	1	UNK0	0.000	
16	   C	-1.847	0.732	-2.130	C.2	1	UNK0	0.000	
17	   O	-5.081	0.328	-0.470	O.3	1	UNK0	0.000	
18	   C	-5.659	0.382	0.817	C.3	1	UNK0	0.000	
19	   C	2.278	1.211	0.430	C.2	1	UNK0	0.000	
20	   C	3.599	1.210	-0.081	C.2	1	UNK0	0.000	
21	   C	4.667	1.690	0.657	C.2	1	UNK0	0.000	
22	   C	4.487	2.186	1.919	C.2	1	UNK0	0.000	
23	   C	3.212	2.200	2.445	C.2	1	UNK0	0.000	
24	   C	2.130	1.712	1.687	C.2	1	UNK0	0.000	
25	  Br	5.932	2.840	2.983	Br	1	UNK0	0.000	
26	   H	0.969	-4.221	0.812	 H	1	UNK0	0.000	
27	   H	-0.688	-3.764	0.128	 H	1	UNK0	0.000	
28	   H	1.143	-4.335	-1.668	 H	1	UNK0	0.000	
29	   H	2.030	-2.916	-0.991	 H	1	UNK0	0.000	
30	   H	0.330	-2.575	-3.064	 H	1	UNK0	0.000	
31	   H	-0.915	-2.517	-1.817	 H	1	UNK0	0.000	
32	   H	0.358	0.167	-3.386	 H	1	UNK0	0.000	
33	   H	1.998	0.228	-2.518	 H	1	UNK0	0.000	
34	   H	0.048	2.848	-2.377	 H	1	UNK0	0.000	
35	   H	-0.835	1.306	0.971	 H	1	UNK0	0.000	
36	   H	-3.202	0.916	1.382	 H	1	UNK0	0.000	
37	   H	-3.859	0.268	-2.769	 H	1	UNK0	0.000	
38	   H	-1.508	0.676	-3.157	 H	1	UNK0	0.000	
39	   H	-6.749	0.502	0.695	 H	1	UNK0	0.000	
40	   H	-5.315	1.239	1.428	 H	1	UNK0	0.000	
41	   H	-5.447	-0.557	1.406	 H	1	UNK0	0.000	
42	   H	3.778	0.828	-1.062	 H	1	UNK0	0.000	
43	   H	5.678	1.681	0.250	 H	1	UNK0	0.000	
44	   H	3.052	2.579	3.437	 H	1	UNK0	0.000	
45	   H	1.135	1.729	2.130	 H	1	UNK0	0.000	
@<TRIPOS>BOND
1 1 2 1
2 1 6 1
3 2 3 1
4 3 4 1
5 4 5 1
6 5 6 2
7 5 9 1
8 6 7 1
9 7 8 1
10 7 19 1
11 8 9 1
12 8 10 1
13 8 11 1
14 11 12 2
15 11 16 1
16 12 13 1
17 13 14 2
18 14 15 1
19 14 17 1
20 15 16 2
21 17 18 1
22 19 20 2
23 19 24 1
24 20 21 1
25 21 22 2
26 22 23 1
27 22 25 1
28 23 24 2
29 2 26 1
30 2 27 1
31 3 28 1
32 3 29 1
33 4 30 1
34 4 31 1
35 9 32 1
36 9 33 1
37 10 34 1
38 12 35 1
39 13 36 1
40 15 37 1
41 16 38 1
42 18 39 1
43 18 40 1
44 18 41 1
45 20 42 1
46 21 43 1
47 23 44 1
48 24 45 1
@<TRIPOS>SUBSTRUCTURE
1	UNK0	1	GROUP	1 ****	UNK
# created with PyMOL 2.3.2
@<TRIPOS>MOLECULE
1217
49 52 1                 
SMALL
USER_CHARGES
@<TRIPOS>ATOM
1	   S	0.715	-0.159	1.999	S.3	1	UNK0	0.000	
2	   C	0.565	0.765	3.508	C.3	1	UNK0	0.000	
3	   C	-0.289	1.994	3.269	C.3	1	UNK0	0.000	
4	   C	0.372	2.867	2.217	C.3	1	UNK0	0.000	
5	   N	0.196	2.280	0.908	N.pl3	1	UNK0	0.000	
6	   C	-0.366	2.793	-0.299	C.3	1	UNK0	0.000	
7	   C	0.514	2.079	-1.313	C.3	1	UNK0	0.000	
8	   N	0.734	0.788	-0.701	N.pl3	1	UNK0	0.000	
9	   C	0.596	0.940	0.570	C.2	1	UNK0	0.000	
10	   C	1.010	-0.442	-1.355	C.2	1	UNK0	0.000	
11	   C	1.280	-0.387	-2.716	C.2	1	UNK0	0.000	
12	   C	1.536	-1.559	-3.435	C.2	1	UNK0	0.000	
13	   C	1.517	-2.780	-2.784	C.2	1	UNK0	0.000	
14	   C	1.254	-2.871	-1.438	C.2	1	UNK0	0.000	
15	   C	1.005	-1.655	-0.772	C.2	1	UNK0	0.000	
16	   O	1.221	-4.060	-0.730	O.3	1	UNK0	0.000	
17	   C	1.442	-5.337	-1.257	C.3	1	UNK0	0.000	
18	   O	1.295	0.831	-3.361	O.3	1	UNK0	0.000	
19	   C	1.550	1.020	-4.733	C.3	1	UNK0	0.000	
20	   O	-0.189	4.171	-0.367	O.3	1	UNK0	0.000	
21	   C	-1.763	2.402	-0.571	C.2	1	UNK0	0.000	
22	   C	-2.333	1.201	-0.288	C.2	1	UNK0	0.000	
23	   C	-3.660	0.925	-0.624	C.2	1	UNK0	0.000	
24	   C	-4.446	1.863	-1.260	C.2	1	UNK0	0.000	
25	   C	-3.885	3.069	-1.548	C.2	1	UNK0	0.000	
26	   C	-2.586	3.339	-1.219	C.2	1	UNK0	0.000	
27	  Br	-6.265	1.467	-1.721	Br	1	UNK0	0.000	
28	   H	0.092	0.159	4.326	 H	1	UNK0	0.000	
29	   H	1.577	1.133	3.841	 H	1	UNK0	0.000	
30	   H	-1.297	1.679	2.913	 H	1	UNK0	0.000	
31	   H	-0.369	2.595	4.187	 H	1	UNK0	0.000	
32	   H	-0.163	3.854	2.253	 H	1	UNK0	0.000	
33	   H	1.444	2.956	2.472	 H	1	UNK0	0.000	
34	   H	-0.077	2.081	-2.228	 H	1	UNK0	0.000	
35	   H	1.460	2.639	-1.425	 H	1	UNK0	0.000	
36	   H	1.748	-1.497	-4.504	 H	1	UNK0	0.000	
37	   H	1.709	-3.708	-3.317	 H	1	UNK0	0.000	
38	   H	0.803	-1.767	0.265	 H	1	UNK0	0.000	
39	   H	1.727	-6.060	-0.430	 H	1	UNK0	0.000	
40	   H	0.441	-5.653	-1.672	 H	1	UNK0	0.000	
41	   H	2.244	-5.375	-2.021	 H	1	UNK0	0.000	
42	   H	2.375	0.377	-5.057	 H	1	UNK0	0.000	
43	   H	0.671	0.703	-5.351	 H	1	UNK0	0.000	
44	   H	1.837	2.079	-4.948	 H	1	UNK0	0.000	
45	   H	0.481	4.461	0.293	 H	1	UNK0	0.000	
46	   H	-1.757	0.452	0.204	 H	1	UNK0	0.000	
47	   H	-4.102	-0.061	-0.380	 H	1	UNK0	0.000	
48	   H	-4.527	3.786	-2.047	 H	1	UNK0	0.000	
49	   H	-2.180	4.305	-1.467	 H	1	UNK0	0.000	
@<TRIPOS>BOND
1 1 2 1
2 1 9 1
3 2 3 1
4 3 4 1
5 4 5 1
6 5 6 1
7 5 9 1
8 6 7 1
9 6 20 1
10 6 21 1
11 7 8 1
12 8 9 2
13 8 10 1
14 10 11 2
15 10 15 1
16 11 12 1
17 11 18 1
18 12 13 2
19 13 14 1
20 14 15 2
21 14 16 1
22 16 17 1
23 18 19 1
24 21 22 2
25 21 26 1
26 22 23 1
27 23 24 2
28 24 25 1
29 24 27 1
30 25 26 2
31 2 28 1
32 2 29 1
33 3 30 1
34 3 31 1
35 4 32 1
36 4 33 1
37 7 34 1
38 7 35 1
39 12 36 1
40 13 37 1
41 15 38 1
42 17 39 1
43 17 40 1
44 17 41 1
45 19 42 1
46 19 43 1
47 19 44 1
48 20 45 1
49 22 46 1
50 23 47 1
51 25 48 1
52 26 49 1
@<TRIPOS>SUBSTRUCTURE
1	UNK0	1	GROUP	1 ****	UNK
# created with PyMOL 2.3.2
@<TRIPOS>MOLECULE
1219
43 46 1                 
SMALL
USER_CHARGES
@<TRIPOS>ATOM
1	   S	-1.860	-1.335	0.273	S.3	1	UNK0	0.000	
2	   C	-2.606	-1.412	1.954	C.3	1	UNK0	0.000	
3	   C	-1.982	-0.333	2.822	C.3	1	UNK0	0.000	
4	   C	-0.484	-0.307	2.662	C.3	1	UNK0	0.000	
5	   N	-0.134	0.416	1.481	N.pl3	1	UNK0	0.000	
6	   C	0.861	1.401	1.099	C.3	1	UNK0	0.000	
7	   C	0.172	2.169	-0.015	C.3	1	UNK0	0.000	
8	   N	-0.742	1.142	-0.554	N.pl3	1	UNK0	0.000	
9	   C	-0.899	0.197	0.285	C.2	1	UNK0	0.000	
10	   C	-1.369	1.222	-1.831	C.2	1	UNK0	0.000	
11	   C	-1.902	0.182	-2.534	C.2	1	UNK0	0.000	
12	   C	-2.517	0.335	-3.769	C.2	1	UNK0	0.000	
13	   C	-2.606	1.590	-4.336	C.2	1	UNK0	0.000	
14	   C	-2.073	2.674	-3.648	C.2	1	UNK0	0.000	
15	   C	-1.462	2.496	-2.413	C.2	1	UNK0	0.000	
16	  Br	-3.429	1.902	-6.035	Br	1	UNK0	0.000	
17	   O	1.225	2.218	2.151	O.3	1	UNK0	0.000	
18	   C	2.072	0.764	0.529	C.2	1	UNK0	0.000	
19	   C	2.042	-0.570	0.173	C.2	1	UNK0	0.000	
20	   C	3.204	-1.128	-0.360	C.2	1	UNK0	0.000	
21	   C	4.333	-0.384	-0.525	C.2	1	UNK0	0.000	
22	   C	4.377	0.953	-0.174	C.2	1	UNK0	0.000	
23	   C	3.207	1.506	0.360	C.2	1	UNK0	0.000	
24	   N	3.183	-2.497	-0.729	N.pl3	1	UNK0	0.000	
25	   O	2.164	-3.200	-0.588	O.2	1	UNK0	0.000	
26	   O	4.286	-3.105	-1.258	O.2	1	UNK0	0.000	
27	   H	-2.492	-2.410	2.378	 H	1	UNK0	0.000	
28	   H	-3.680	-1.173	1.868	 H	1	UNK0	0.000	
29	   H	-2.206	-0.572	3.887	 H	1	UNK0	0.000	
30	   H	-2.382	0.661	2.604	 H	1	UNK0	0.000	
31	   H	-0.013	0.075	3.582	 H	1	UNK0	0.000	
32	   H	-0.133	-1.372	2.514	 H	1	UNK0	0.000	
33	   H	-0.386	3.035	0.354	 H	1	UNK0	0.000	
34	   H	0.871	2.471	-0.827	 H	1	UNK0	0.000	
35	   H	-1.850	-0.816	-2.135	 H	1	UNK0	0.000	
36	   H	-2.938	-0.500	-4.316	 H	1	UNK0	0.000	
37	   H	-2.157	3.652	-4.109	 H	1	UNK0	0.000	
38	   H	-1.053	3.360	-1.895	 H	1	UNK0	0.000	
39	   H	0.892	3.126	2.120	 H	1	UNK0	0.000	
40	   H	1.150	-1.156	0.305	 H	1	UNK0	0.000	
41	   H	5.234	-0.816	-0.938	 H	1	UNK0	0.000	
42	   H	5.267	1.517	-0.316	 H	1	UNK0	0.000	
43	   H	3.263	2.549	0.628	 H	1	UNK0	0.000	
@<TRIPOS>BOND
1 1 2 1
2 1 9 1
3 2 3 1
4 3 4 1
5 4 5 1
6 5 6 1
7 5 9 1
8 6 7 1
9 6 17 1
10 6 18 1
11 7 8 1
12 8 9 2
13 8 10 1
14 10 11 2
15 10 15 1
16 11 12 1
17 12 13 2
18 13 14 1
19 13 16 1
20 14 15 2
21 18 19 2
22 18 23 1
23 19 20 1
24 20 21 2
25 20 24 1
26 21 22 1
27 22 23 2
28 24 25 2
29 24 26 1
30 2 27 1
31 2 28 1
32 3 29 1
33 3 30 1
34 4 31 1
35 4 32 1
36 7 33 1
37 7 34 1
38 11 35 1
39 12 36 1
40 14 37 1
41 15 38 1
42 17 39 1
43 19 40 1
44 21 41 1
45 22 42 1
46 23 43 1
@<TRIPOS>SUBSTRUCTURE
1	UNK0	1	GROUP	1 ****	UNK
# created with PyMOL 2.3.2
@<TRIPOS>MOLECULE
1220
43 46 1                 
SMALL
USER_CHARGES
@<TRIPOS>ATOM
1	   S	-0.709	2.483	2.445	S.3	1	UNK0	0.000	
2	   C	0.867	2.855	3.315	C.3	1	UNK0	0.000	
3	   C	1.779	1.704	3.395	C.3	1	UNK0	0.000	
4	   C	1.291	0.362	3.031	C.3	1	UNK0	0.000	
5	   N	0.600	0.208	1.817	N.pl3	1	UNK0	0.000	
6	   C	0.436	-0.871	0.891	C.3	1	UNK0	0.000	
7	   C	0.354	-0.110	-0.414	C.3	1	UNK0	0.000	
8	   N	-0.338	1.095	-0.009	N.pl3	1	UNK0	0.000	
9	   C	-0.190	1.268	1.219	C.2	1	UNK0	0.000	
10	   C	-1.090	1.943	-0.885	C.2	1	UNK0	0.000	
11	   C	-1.466	1.446	-2.125	C.2	1	UNK0	0.000	
12	   C	-2.180	2.220	-3.037	C.2	1	UNK0	0.000	
13	   C	-2.535	3.515	-2.731	C.2	1	UNK0	0.000	
14	   C	-2.170	4.021	-1.507	C.2	1	UNK0	0.000	
15	   C	-1.451	3.220	-0.611	C.2	1	UNK0	0.000	
16	  Br	-3.506	4.584	-4.002	Br	1	UNK0	0.000	
17	   O	-0.818	-1.456	1.085	O.3	1	UNK0	0.000	
18	   C	1.510	-1.882	0.870	C.2	1	UNK0	0.000	
19	   C	1.126	-3.217	0.787	C.2	1	UNK0	0.000	
20	   C	2.055	-4.233	0.758	C.2	1	UNK0	0.000	
21	   C	3.414	-3.978	0.809	C.2	1	UNK0	0.000	
22	   C	3.801	-2.654	0.889	C.2	1	UNK0	0.000	
23	   C	2.855	-1.624	0.919	C.2	1	UNK0	0.000	
24	   N	4.349	-5.040	0.775	N.pl3	1	UNK0	0.000	
25	   O	4.028	-6.231	0.693	O.2	1	UNK0	0.000	
26	   O	5.688	-4.748	0.830	O.2	1	UNK0	0.000	
27	   H	1.344	3.715	2.759	 H	1	UNK0	0.000	
28	   H	0.586	3.267	4.283	 H	1	UNK0	0.000	
29	   H	2.710	1.931	2.830	 H	1	UNK0	0.000	
30	   H	2.134	1.640	4.475	 H	1	UNK0	0.000	
31	   H	0.605	-0.009	3.855	 H	1	UNK0	0.000	
32	   H	2.152	-0.340	3.098	 H	1	UNK0	0.000	
33	   H	1.432	0.128	-0.666	 H	1	UNK0	0.000	
34	   H	-0.139	-0.689	-1.203	 H	1	UNK0	0.000	
35	   H	-1.199	0.437	-2.404	 H	1	UNK0	0.000	
36	   H	-2.459	1.802	-4.006	 H	1	UNK0	0.000	
37	   H	-2.425	5.029	-1.256	 H	1	UNK0	0.000	
38	   H	-1.166	3.651	0.348	 H	1	UNK0	0.000	
39	   H	-1.204	-1.670	0.220	 H	1	UNK0	0.000	
40	   H	0.059	-3.448	0.748	 H	1	UNK0	0.000	
41	   H	1.786	-5.292	0.695	 H	1	UNK0	0.000	
42	   H	4.866	-2.427	0.932	 H	1	UNK0	0.000	
43	   H	3.185	-0.591	0.985	 H	1	UNK0	0.000	
@<TRIPOS>BOND
1 1 2 1
2 1 9 1
3 2 3 1
4 3 4 1
5 4 5 1
6 5 6 1
7 5 9 1
8 6 7 1
9 6 17 1
10 6 18 1
11 7 8 1
12 8 9 2
13 8 10 1
14 10 11 2
15 10 15 1
16 11 12 1
17 12 13 2
18 13 14 1
19 13 16 1
20 14 15 2
21 18 19 2
22 18 23 1
23 19 20 1
24 20 21 2
25 21 22 1
26 21 24 1
27 22 23 2
28 24 25 2
29 24 26 1
30 2 27 1
31 2 28 1
32 3 29 1
33 3 30 1
34 4 31 1
35 4 32 1
36 7 33 1
37 7 34 1
38 11 35 1
39 12 36 1
40 14 37 1
41 15 38 1
42 17 39 1
43 19 40 1
44 20 41 1
45 22 42 1
46 23 43 1
@<TRIPOS>SUBSTRUCTURE
1	UNK0	1	GROUP	1 ****	UNK
# created with PyMOL 2.3.2
@<TRIPOS>MOLECULE
1222
41 44 1                 
SMALL
USER_CHARGES
@<TRIPOS>ATOM
1	   S	2.164	-0.541	-1.434	S.3	1	UNK0	0.000	
2	   C	2.424	-1.084	-3.182	C.3	1	UNK0	0.000	
3	   C	1.176	-1.737	-3.717	C.3	1	UNK0	0.000	
4	   C	0.329	-2.401	-2.653	C.3	1	UNK0	0.000	
5	   N	-0.347	-1.500	-1.804	N.pl3	1	UNK0	0.000	
6	   C	-1.633	-1.340	-1.103	C.3	1	UNK0	0.000	
7	   C	-1.774	0.154	-1.272	C.3	1	UNK0	0.000	
8	   N	-0.416	0.603	-1.003	N.pl3	1	UNK0	0.000	
9	   C	0.358	-0.299	-1.384	C.2	1	UNK0	0.000	
10	   C	-0.058	1.840	-0.350	C.2	1	UNK0	0.000	
11	   C	1.191	2.172	0.071	C.2	1	UNK0	0.000	
12	   C	1.484	3.355	0.738	C.2	1	UNK0	0.000	
13	   C	0.480	4.250	0.998	C.2	1	UNK0	0.000	
14	   C	-0.791	3.917	0.571	C.2	1	UNK0	0.000	
15	   C	-1.077	2.752	-0.085	C.2	1	UNK0	0.000	
16	  Br	0.789	5.907	1.917	Br	1	UNK0	0.000	
17	   O	-2.661	-1.992	-1.712	O.3	1	UNK0	0.000	
18	   C	-1.485	-1.667	0.354	C.2	1	UNK0	0.000	
19	   C	-0.568	-2.586	0.827	C.2	1	UNK0	0.000	
20	   C	-0.491	-2.825	2.193	C.2	1	UNK0	0.000	
21	   C	-1.300	-2.175	3.116	C.2	1	UNK0	0.000	
22	   C	-2.210	-1.263	2.655	C.2	1	UNK0	0.000	
23	   C	-2.292	-1.023	1.284	C.2	1	UNK0	0.000	
24	   H	2.507	-0.119	-3.760	 H	1	UNK0	0.000	
25	   H	3.340	-1.681	-3.256	 H	1	UNK0	0.000	
26	   H	1.514	-2.550	-4.427	 H	1	UNK0	0.000	
27	   H	0.518	-1.017	-4.248	 H	1	UNK0	0.000	
28	   H	-0.300	-3.204	-3.089	 H	1	UNK0	0.000	
29	   H	1.098	-2.947	-2.007	 H	1	UNK0	0.000	
30	   H	-2.550	0.623	-0.709	 H	1	UNK0	0.000	
31	   H	-1.940	0.315	-2.385	 H	1	UNK0	0.000	
32	   H	2.035	1.490	-0.111	 H	1	UNK0	0.000	
33	   H	2.498	3.572	1.053	 H	1	UNK0	0.000	
34	   H	-1.588	4.635	0.785	 H	1	UNK0	0.000	
35	   H	-2.096	2.514	-0.418	 H	1	UNK0	0.000	
36	   H	-2.503	-2.943	-1.935	 H	1	UNK0	0.000	
37	   H	0.067	-3.106	0.118	 H	1	UNK0	0.000	
38	   H	0.232	-3.547	2.526	 H	1	UNK0	0.000	
39	   H	-1.215	-2.382	4.176	 H	1	UNK0	0.000	
40	   H	-2.853	-0.725	3.332	 H	1	UNK0	0.000	
41	   H	-3.012	-0.308	0.914	 H	1	UNK0	0.000	
@<TRIPOS>BOND
1 1 2 1
2 1 9 1
3 2 3 1
4 3 4 1
5 4 5 1
6 5 6 1
7 5 9 1
8 6 7 1
9 6 17 1
10 6 18 1
11 7 8 1
12 8 9 2
13 8 10 1
14 10 11 2
15 10 15 1
16 11 12 1
17 12 13 2
18 13 14 1
19 13 16 1
20 14 15 2
21 18 19 2
22 18 23 1
23 19 20 1
24 20 21 2
25 21 22 1
26 22 23 2
27 2 24 1
28 2 25 1
29 3 26 1
30 3 27 1
31 4 28 1
32 4 29 1
33 7 30 1
34 7 31 1
35 11 32 1
36 12 33 1
37 14 34 1
38 15 35 1
39 17 36 1
40 19 37 1
41 20 38 1
42 21 39 1
43 22 40 1
44 23 41 1
@<TRIPOS>SUBSTRUCTURE
1	UNK0	1	GROUP	1 ****	UNK
# created with PyMOL 2.3.2
@<TRIPOS>MOLECULE
1224
45 48 1                 
SMALL
USER_CHARGES
@<TRIPOS>ATOM
1	   S	-1.098	1.163	-1.656	S.3	1	UNK0	0.000	
2	   C	-1.987	2.769	-1.776	C.3	1	UNK0	0.000	
3	   C	-2.830	2.854	-0.512	C.3	1	UNK0	0.000	
4	   C	-1.989	3.044	0.711	C.3	1	UNK0	0.000	
5	   N	-1.110	1.956	1.011	N.pl3	1	UNK0	0.000	
6	   C	-0.682	1.258	2.227	C.3	1	UNK0	0.000	
7	   C	0.807	1.133	1.853	C.3	1	UNK0	0.000	
8	   N	0.721	0.756	0.454	N.pl3	1	UNK0	0.000	
9	   C	-0.361	1.238	-0.007	C.2	1	UNK0	0.000	
10	   C	1.739	-0.031	-0.205	C.2	1	UNK0	0.000	
11	   C	2.752	-0.620	0.546	C.2	1	UNK0	0.000	
12	   C	3.738	-1.373	-0.053	C.2	1	UNK0	0.000	
13	   C	3.783	-1.587	-1.414	C.2	1	UNK0	0.000	
14	   C	2.787	-1.008	-2.163	C.2	1	UNK0	0.000	
15	   C	1.784	-0.241	-1.549	C.2	1	UNK0	0.000	
16	   O	4.793	-2.355	-1.983	O.3	1	UNK0	0.000	
17	   C	4.932	-2.634	-3.347	C.3	1	UNK0	0.000	
18	   O	-0.855	2.074	3.320	O.3	1	UNK0	0.000	
19	   C	-1.279	-0.083	2.357	C.2	1	UNK0	0.000	
20	   C	-2.256	-0.609	1.541	C.2	1	UNK0	0.000	
21	   C	-2.745	-1.889	1.743	C.2	1	UNK0	0.000	
22	   C	-2.262	-2.657	2.763	C.2	1	UNK0	0.000	
23	   C	-1.285	-2.146	3.589	C.2	1	UNK0	0.000	
24	   C	-0.809	-0.877	3.378	C.2	1	UNK0	0.000	
25	  Br	-2.899	-4.439	3.098	Br	1	UNK0	0.000	
26	   H	-2.608	2.746	-2.667	 H	1	UNK0	0.000	
27	   H	-1.210	3.569	-1.789	 H	1	UNK0	0.000	
28	   H	-3.426	1.917	-0.442	 H	1	UNK0	0.000	
29	   H	-3.559	3.680	-0.568	 H	1	UNK0	0.000	
30	   H	-1.403	3.977	0.567	 H	1	UNK0	0.000	
31	   H	-2.692	3.170	1.571	 H	1	UNK0	0.000	
32	   H	1.186	2.181	1.880	 H	1	UNK0	0.000	
33	   H	1.326	0.456	2.509	 H	1	UNK0	0.000	
34	   H	2.770	-0.487	1.612	 H	1	UNK0	0.000	
35	   H	4.541	-1.842	0.526	 H	1	UNK0	0.000	
36	   H	2.760	-1.129	-3.230	 H	1	UNK0	0.000	
37	   H	1.021	0.204	-2.178	 H	1	UNK0	0.000	
38	   H	5.271	-3.699	-3.498	 H	1	UNK0	0.000	
39	   H	4.026	-2.519	-3.950	 H	1	UNK0	0.000	
40	   H	5.786	-2.019	-3.745	 H	1	UNK0	0.000	
41	   H	-0.047	2.593	3.546	 H	1	UNK0	0.000	
42	   H	-2.620	0.008	0.750	 H	1	UNK0	0.000	
43	   H	-3.511	-2.289	1.090	 H	1	UNK0	0.000	
44	   H	-0.895	-2.750	4.403	 H	1	UNK0	0.000	
45	   H	-0.033	-0.512	4.055	 H	1	UNK0	0.000	
@<TRIPOS>BOND
1 1 2 1
2 1 9 1
3 2 3 1
4 3 4 1
5 4 5 1
6 5 6 1
7 5 9 1
8 6 7 1
9 6 18 1
10 6 19 1
11 7 8 1
12 8 9 2
13 8 10 1
14 10 11 2
15 10 15 1
16 11 12 1
17 12 13 2
18 13 14 1
19 13 16 1
20 14 15 2
21 16 17 1
22 19 20 2
23 19 24 1
24 20 21 1
25 21 22 2
26 22 23 1
27 22 25 1
28 23 24 2
29 2 26 1
30 2 27 1
31 3 28 1
32 3 29 1
33 4 30 1
34 4 31 1
35 7 32 1
36 7 33 1
37 11 34 1
38 12 35 1
39 14 36 1
40 15 37 1
41 17 38 1
42 17 39 1
43 17 40 1
44 18 41 1
45 20 42 1
46 21 43 1
47 23 44 1
48 24 45 1
@<TRIPOS>SUBSTRUCTURE
1	UNK0	1	GROUP	1 ****	UNK
# created with PyMOL 2.3.2
@<TRIPOS>MOLECULE
1226
41 44 1                 
SMALL
USER_CHARGES
@<TRIPOS>ATOM
1	   S	1.316	-1.823	1.952	S.3	1	UNK0	0.000	
2	   C	2.154	-0.463	2.813	C.3	1	UNK0	0.000	
3	   C	2.243	0.688	1.806	C.3	1	UNK0	0.000	
4	   C	0.812	1.160	1.503	C.3	1	UNK0	0.000	
5	   N	0.264	0.282	0.462	N.pl3	1	UNK0	0.000	
6	   C	-0.501	0.517	-0.694	C.3	1	UNK0	0.000	
7	   C	-0.409	-0.780	-1.491	C.3	1	UNK0	0.000	
8	   N	0.195	-1.708	-0.585	N.pl3	1	UNK0	0.000	
9	   C	0.526	-1.114	0.488	C.2	1	UNK0	0.000	
10	   C	0.409	-3.086	-0.931	C.2	1	UNK0	0.000	
11	   C	-0.626	-3.959	-0.836	C.2	1	UNK0	0.000	
12	   C	-0.400	-5.281	-1.206	C.2	1	UNK0	0.000	
13	   C	0.819	-5.732	-1.660	C.2	1	UNK0	0.000	
14	   C	1.841	-4.808	-1.737	C.2	1	UNK0	0.000	
15	   C	1.653	-3.495	-1.380	C.2	1	UNK0	0.000	
16	   O	0.142	1.492	-1.489	O.3	1	UNK0	0.000	
17	   C	-1.908	0.887	-0.555	C.2	1	UNK0	0.000	
18	   C	-2.520	1.423	-1.687	C.2	1	UNK0	0.000	
19	   C	-3.851	1.794	-1.736	C.2	1	UNK0	0.000	
20	   C	-4.640	1.643	-0.629	C.2	1	UNK0	0.000	
21	   C	-4.051	1.113	0.505	C.2	1	UNK0	0.000	
22	   C	-2.710	0.742	0.540	C.2	1	UNK0	0.000	
23	  Br	-6.507	2.129	-0.634	Br	1	UNK0	0.000	
24	   H	1.535	-0.165	3.675	 H	1	UNK0	0.000	
25	   H	3.187	-0.759	3.098	 H	1	UNK0	0.000	
26	   H	2.815	1.507	2.233	 H	1	UNK0	0.000	
27	   H	2.718	0.295	0.889	 H	1	UNK0	0.000	
28	   H	0.213	1.181	2.407	 H	1	UNK0	0.000	
29	   H	0.922	2.191	1.131	 H	1	UNK0	0.000	
30	   H	0.230	-0.635	-2.381	 H	1	UNK0	0.000	
31	   H	-1.430	-1.159	-1.743	 H	1	UNK0	0.000	
32	   H	-1.636	-3.684	-0.480	 H	1	UNK0	0.000	
33	   H	-1.225	-5.964	-1.122	 H	1	UNK0	0.000	
34	   H	0.978	-6.780	-1.955	 H	1	UNK0	0.000	
35	   H	2.819	-5.132	-2.092	 H	1	UNK0	0.000	
36	   H	2.453	-2.743	-1.435	 H	1	UNK0	0.000	
37	   H	0.071	2.346	-0.988	 H	1	UNK0	0.000	
38	   H	-1.881	1.543	-2.561	 H	1	UNK0	0.000	
39	   H	-4.284	2.213	-2.653	 H	1	UNK0	0.000	
40	   H	-4.685	0.992	1.375	 H	1	UNK0	0.000	
41	   H	-2.273	0.336	1.449	 H	1	UNK0	0.000	
@<TRIPOS>BOND
1 1 2 1
2 1 9 1
3 2 3 1
4 3 4 1
5 4 5 1
6 5 6 1
7 5 9 1
8 6 7 1
9 6 16 1
10 6 17 1
11 7 8 1
12 8 9 2
13 8 10 1
14 10 11 2
15 10 15 1
16 11 12 1
17 12 13 2
18 13 14 1
19 14 15 2
20 17 18 2
21 17 22 1
22 18 19 1
23 19 20 2
24 20 21 1
25 20 23 1
26 21 22 2
27 2 24 1
28 2 25 1
29 3 26 1
30 3 27 1
31 4 28 1
32 4 29 1
33 7 30 1
34 7 31 1
35 11 32 1
36 12 33 1
37 13 34 1
38 14 35 1
39 15 36 1
40 16 37 1
41 18 38 1
42 19 39 1
43 21 40 1
44 22 41 1
@<TRIPOS>SUBSTRUCTURE
1	UNK0	1	GROUP	1 ****	UNK
# created with PyMOL 2.3.2
@<TRIPOS>MOLECULE
1231
49 52 1                 
SMALL
USER_CHARGES
@<TRIPOS>ATOM
1	   S	1.117	0.482	-3.905	S.3	1	UNK0	0.000	
2	   C	1.820	0.957	-5.514	C.3	1	UNK0	0.000	
3	   C	0.694	1.783	-6.048	C.3	1	UNK0	0.000	
4	   N	-0.248	2.115	-5.105	N.2	1	UNK0	0.000	
5	   C	-0.266	1.621	-3.970	C.2	1	UNK0	0.000	
6	   S	-1.363	1.876	-2.581	S.3	1	UNK0	0.000	
7	   C	-0.925	0.887	-1.167	C.3	1	UNK0	0.000	
8	   C	-1.202	-0.556	-1.243	C.2	1	UNK0	0.000	
9	   N	-1.823	-1.208	-2.234	N.pl3	1	UNK0	0.000	
10	   N	-1.867	-2.495	-1.846	N.2	1	UNK0	0.000	
11	   N	-1.318	-2.654	-0.696	N.2	1	UNK0	0.000	
12	   C	-0.853	-1.443	-0.219	C.2	1	UNK0	0.000	
13	   C	-0.199	-1.278	1.053	C.2	1	UNK0	0.000	
14	   O	0.014	-2.355	1.738	O.2	1	UNK0	0.000	
15	   N	0.242	-0.104	1.656	N.pl3	1	UNK0	0.000	
16	   N	0.882	-0.159	2.943	N.2	1	UNK0	0.000	
17	   C	0.222	-0.058	4.028	C.2	1	UNK0	0.000	
18	   C	0.831	-0.109	5.350	C.2	1	UNK0	0.000	
19	   C	0.080	0.005	6.498	C.2	1	UNK0	0.000	
20	   C	0.641	-0.048	7.757	C.2	1	UNK0	0.000	
21	   C	1.992	-0.218	7.918	C.2	1	UNK0	0.000	
22	   C	2.789	-0.338	6.769	C.2	1	UNK0	0.000	
23	   C	2.198	-0.281	5.525	C.2	1	UNK0	0.000	
24	   O	4.134	-0.506	7.002	O.3	1	UNK0	0.000	
25	   C	5.127	-0.650	6.017	C.3	1	UNK0	0.000	
26	   O	2.535	-0.268	9.193	O.2	1	UNK0	0.000	
27	  Br	-0.444	0.115	9.322	Br	1	UNK0	0.000	
28	   C	-2.395	-0.765	-3.462	C.2	1	UNK0	0.000	
29	   N	-1.926	-0.937	-4.715	N.2	1	UNK0	0.000	
30	   O	-2.705	-0.431	-5.596	O.3	1	UNK0	0.000	
31	   N	-3.717	0.095	-4.981	N.2	1	UNK0	0.000	
32	   C	-3.581	-0.083	-3.633	C.2	1	UNK0	0.000	
33	   N	-4.490	0.333	-2.634	N.4	1	UNK0	0.000	
34	   H	2.769	1.501	-5.411	 H	1	UNK0	0.000	
35	   H	1.889	0.035	-6.124	 H	1	UNK0	0.000	
36	   H	0.292	1.360	-7.003	 H	1	UNK0	0.000	
37	   H	1.176	2.755	-6.400	 H	1	UNK0	0.000	
38	   H	-1.425	1.325	-0.287	 H	1	UNK0	0.000	
39	   H	0.191	0.954	-0.952	 H	1	UNK0	0.000	
40	   H	0.175	0.867	1.307	 H	1	UNK0	0.000	
41	   H	-0.841	0.070	3.964	 H	1	UNK0	0.000	
42	   H	-0.996	0.141	6.386	 H	1	UNK0	0.000	
43	   H	2.825	-0.373	4.649	 H	1	UNK0	0.000	
44	   H	5.938	-1.355	6.355	 H	1	UNK0	0.000	
45	   H	4.695	-0.964	5.059	 H	1	UNK0	0.000	
46	   H	5.655	0.339	5.920	 H	1	UNK0	0.000	
47	   H	-5.372	0.656	-3.112	 H	1	UNK0	0.000	
48	   H	-4.132	1.073	-2.005	 H	1	UNK0	0.000	
49	   H	-4.765	-0.506	-2.054	 H	1	UNK0	0.000	
@<TRIPOS>BOND
1 1 2 1
2 1 5 1
3 2 3 1
4 3 4 1
5 4 5 2
6 5 6 1
7 6 7 1
8 7 8 1
9 8 9 1
10 8 12 2
11 9 10 1
12 9 28 1
13 10 11 2
14 11 12 1
15 12 13 1
16 13 14 2
17 13 15 1
18 15 16 1
19 16 17 2
20 17 18 1
21 18 19 2
22 18 23 1
23 19 20 1
24 20 21 2
25 20 27 1
26 21 22 1
27 21 26 1
28 22 23 2
29 22 24 1
30 24 25 1
31 28 29 2
32 28 32 1
33 29 30 1
34 30 31 1
35 31 32 2
36 32 33 1
37 2 34 1
38 2 35 1
39 3 36 1
40 3 37 1
41 7 38 1
42 7 39 1
43 15 40 1
44 17 41 1
45 19 42 1
46 23 43 1
47 25 44 1
48 25 45 1
49 25 46 1
50 33 47 1
51 33 48 1
52 33 49 1
@<TRIPOS>SUBSTRUCTURE
1	UNK0	1	GROUP	1 ****	UNK
# created with PyMOL 2.3.2
@<TRIPOS>MOLECULE
1236
45 49 1                 
SMALL
USER_CHARGES
@<TRIPOS>ATOM
1	   S	5.602	0.680	0.329	S.3	1	UNK0	0.000	
2	   C	5.787	-0.103	2.002	C.3	1	UNK0	0.000	
3	   C	4.319	-0.184	2.334	C.3	1	UNK0	0.000	
4	   N	3.570	-0.605	1.184	N.pl3	1	UNK0	0.000	
5	   C	4.099	-0.194	-0.057	C.2	1	UNK0	0.000	
6	   N	3.520	-0.482	-1.144	N.2	1	UNK0	0.000	
7	   C	2.281	-1.216	-1.196	C.2	1	UNK0	0.000	
8	   O	1.904	-1.852	-2.211	O.2	1	UNK0	0.000	
9	   C	1.431	-1.201	0.026	C.3	1	UNK0	0.000	
10	   C	2.339	-1.374	1.183	C.2	1	UNK0	0.000	
11	   O	2.124	-2.134	2.158	O.2	1	UNK0	0.000	
12	   C	0.701	0.096	0.045	C.3	1	UNK0	0.000	
13	   C	-0.212	0.266	1.234	C.3	1	UNK0	0.000	
14	   C	-1.270	-0.752	1.337	C.2	1	UNK0	0.000	
15	   O	-0.985	-1.928	1.757	O.2	1	UNK0	0.000	
16	   N	-2.633	-0.430	0.963	N.pl3	1	UNK0	0.000	
17	   C	-3.714	-1.359	0.783	C.3	1	UNK0	0.000	
18	   C	-4.685	-0.854	-0.255	C.3	1	UNK0	0.000	
19	   S	-4.702	0.916	0.296	S.3	1	UNK0	0.000	
20	   C	-2.975	0.927	0.772	C.2	1	UNK0	0.000	
21	   N	-2.138	1.880	0.917	N.2	1	UNK0	0.000	
22	   C	-0.771	1.640	1.287	C.2	1	UNK0	0.000	
23	   O	-0.080	2.624	1.652	O.2	1	UNK0	0.000	
24	   C	-0.015	0.266	-1.239	C.2	1	UNK0	0.000	
25	   C	0.213	1.378	-2.040	C.2	1	UNK0	0.000	
26	   C	-0.446	1.545	-3.240	C.2	1	UNK0	0.000	
27	   C	-1.352	0.603	-3.674	C.2	1	UNK0	0.000	
28	   C	-1.574	-0.486	-2.887	C.2	1	UNK0	0.000	
29	   C	-0.923	-0.667	-1.684	C.2	1	UNK0	0.000	
30	  Br	-0.139	3.069	-4.347	Br	1	UNK0	0.000	
31	   H	6.215	-1.101	1.902	 H	1	UNK0	0.000	
32	   H	6.293	0.577	2.680	 H	1	UNK0	0.000	
33	   H	4.206	-0.920	3.154	 H	1	UNK0	0.000	
34	   H	4.005	0.839	2.652	 H	1	UNK0	0.000	
35	   H	0.689	-2.040	-0.005	 H	1	UNK0	0.000	
36	   H	1.462	0.922	0.132	 H	1	UNK0	0.000	
37	   H	0.405	0.187	2.182	 H	1	UNK0	0.000	
38	   H	-4.313	-1.499	1.712	 H	1	UNK0	0.000	
39	   H	-3.335	-2.326	0.392	 H	1	UNK0	0.000	
40	   H	-4.301	-0.922	-1.284	 H	1	UNK0	0.000	
41	   H	-5.662	-1.305	-0.098	 H	1	UNK0	0.000	
42	   H	0.918	2.125	-1.716	 H	1	UNK0	0.000	
43	   H	-1.884	0.723	-4.628	 H	1	UNK0	0.000	
44	   H	-2.291	-1.254	-3.206	 H	1	UNK0	0.000	
45	   H	-1.149	-1.574	-1.098	 H	1	UNK0	0.000	
@<TRIPOS>BOND
1 1 2 1
2 1 5 1
3 2 3 1
4 3 4 1
5 4 5 1
6 4 10 1
7 5 6 2
8 6 7 1
9 7 8 2
10 7 9 1
11 9 10 1
12 9 12 1
13 10 11 2
14 12 13 1
15 12 24 1
16 13 14 1
17 13 22 1
18 14 15 2
19 14 16 1
20 16 17 1
21 16 20 1
22 17 18 1
23 18 19 1
24 19 20 1
25 20 21 2
26 21 22 1
27 22 23 2
28 24 25 2
29 24 29 1
30 25 26 1
31 26 27 2
32 26 30 1
33 27 28 1
34 28 29 2
35 2 31 1
36 2 32 1
37 3 33 1
38 3 34 1
39 9 35 1
40 12 36 1
41 13 37 1
42 17 38 1
43 17 39 1
44 18 40 1
45 18 41 1
46 25 42 1
47 27 43 1
48 28 44 1
49 29 45 1
@<TRIPOS>SUBSTRUCTURE
1	UNK0	1	GROUP	1 ****	UNK
# created with PyMOL 2.3.2
@<TRIPOS>MOLECULE
1237
45 49 1                 
SMALL
USER_CHARGES
@<TRIPOS>ATOM
1	   S	-4.114	-2.332	1.158	S.3	1	UNK0	0.000	
2	   C	-3.064	-2.704	2.630	C.3	1	UNK0	0.000	
3	   C	-3.058	-1.346	3.258	C.3	1	UNK0	0.000	
4	   N	-3.008	-0.319	2.287	N.pl3	1	UNK0	0.000	
5	   C	-3.575	-0.607	1.028	C.2	1	UNK0	0.000	
6	   N	-3.623	0.231	0.042	N.2	1	UNK0	0.000	
7	   C	-3.115	1.585	0.197	C.2	1	UNK0	0.000	
8	   O	-3.658	2.405	-0.583	O.2	1	UNK0	0.000	
9	   C	-2.100	1.793	1.191	C.3	1	UNK0	0.000	
10	   C	-2.457	1.010	2.433	C.2	1	UNK0	0.000	
11	   O	-2.285	1.490	3.568	O.2	1	UNK0	0.000	
12	   C	-0.661	1.706	0.901	C.3	1	UNK0	0.000	
13	   C	-0.004	2.610	-0.052	C.3	1	UNK0	0.000	
14	   C	1.478	2.237	-0.085	C.2	1	UNK0	0.000	
15	   O	2.237	2.618	0.835	O.2	1	UNK0	0.000	
16	   N	2.002	1.445	-1.176	N.pl3	1	UNK0	0.000	
17	   C	3.234	0.736	-1.216	C.3	1	UNK0	0.000	
18	   C	3.143	-0.475	-2.111	C.3	1	UNK0	0.000	
19	   S	2.130	0.307	-3.454	S.3	1	UNK0	0.000	
20	   C	1.218	1.374	-2.353	C.2	1	UNK0	0.000	
21	   N	0.098	1.963	-2.502	N.2	1	UNK0	0.000	
22	   C	-0.441	2.771	-1.413	C.2	1	UNK0	0.000	
23	   O	-1.297	3.607	-1.754	O.2	1	UNK0	0.000	
24	   C	-0.177	0.275	0.806	C.2	1	UNK0	0.000	
25	   C	-0.504	-0.512	-0.272	C.2	1	UNK0	0.000	
26	   C	-0.051	-1.806	-0.320	C.2	1	UNK0	0.000	
27	   C	0.716	-2.358	0.657	C.2	1	UNK0	0.000	
28	   C	1.059	-1.597	1.747	C.2	1	UNK0	0.000	
29	   C	0.598	-0.281	1.796	C.2	1	UNK0	0.000	
30	  Br	1.345	-4.169	0.581	Br	1	UNK0	0.000	
31	   H	-3.643	-3.416	3.250	 H	1	UNK0	0.000	
32	   H	-2.082	-3.071	2.328	 H	1	UNK0	0.000	
33	   H	-3.944	-1.248	3.939	 H	1	UNK0	0.000	
34	   H	-2.139	-1.309	3.895	 H	1	UNK0	0.000	
35	   H	-2.260	2.879	1.559	 H	1	UNK0	0.000	
36	   H	-0.187	2.018	1.927	 H	1	UNK0	0.000	
37	   H	0.065	3.659	0.430	 H	1	UNK0	0.000	
38	   H	4.073	1.381	-1.584	 H	1	UNK0	0.000	
39	   H	3.475	0.343	-0.205	 H	1	UNK0	0.000	
40	   H	2.554	-1.281	-1.675	 H	1	UNK0	0.000	
41	   H	4.121	-0.755	-2.491	 H	1	UNK0	0.000	
42	   H	-1.121	-0.098	-1.085	 H	1	UNK0	0.000	
43	   H	-0.316	-2.417	-1.175	 H	1	UNK0	0.000	
44	   H	1.674	-2.012	2.547	 H	1	UNK0	0.000	
45	   H	0.891	0.290	2.675	 H	1	UNK0	0.000	
@<TRIPOS>BOND
1 1 2 1
2 1 5 1
3 2 3 1
4 3 4 1
5 4 5 1
6 4 10 1
7 5 6 2
8 6 7 1
9 7 8 2
10 7 9 1
11 9 10 1
12 9 12 1
13 10 11 2
14 12 13 1
15 12 24 1
16 13 14 1
17 13 22 1
18 14 15 2
19 14 16 1
20 16 17 1
21 16 20 1
22 17 18 1
23 18 19 1
24 19 20 1
25 20 21 2
26 21 22 1
27 22 23 2
28 24 25 2
29 24 29 1
30 25 26 1
31 26 27 2
32 27 28 1
33 27 30 1
34 28 29 2
35 2 31 1
36 2 32 1
37 3 33 1
38 3 34 1
39 9 35 1
40 12 36 1
41 13 37 1
42 17 38 1
43 17 39 1
44 18 40 1
45 18 41 1
46 25 42 1
47 26 43 1
48 28 44 1
49 29 45 1
@<TRIPOS>SUBSTRUCTURE
1	UNK0	1	GROUP	1 ****	UNK
# created with PyMOL 2.3.2
@<TRIPOS>MOLECULE
1248
25 28 1                 
SMALL
USER_CHARGES
@<TRIPOS>ATOM
1	   S	-0.152	-2.824	-0.513	S.3	1	UNK0	0.000	
2	   C	-0.542	-1.514	0.527	C.2	1	UNK0	0.000	
3	   N	0.009	-0.492	-0.126	N.pl3	1	UNK0	0.000	
4	   C	-0.272	0.599	0.664	C.2	1	UNK0	0.000	
5	   N	-0.962	0.207	1.734	N.2	1	UNK0	0.000	
6	   N	-1.149	-1.096	1.684	N.2	1	UNK0	0.000	
7	   C	0.121	1.996	0.388	C.2	1	UNK0	0.000	
8	   N	0.819	2.317	-0.717	N.2	1	UNK0	0.000	
9	   C	1.173	3.599	-0.958	C.2	1	UNK0	0.000	
10	   C	0.825	4.589	-0.081	C.2	1	UNK0	0.000	
11	   N	0.132	4.256	1.009	N.2	1	UNK0	0.000	
12	   C	-0.234	2.983	1.275	C.2	1	UNK0	0.000	
13	   N	0.613	-0.712	-1.223	N.2	1	UNK0	0.000	
14	   C	0.700	-1.931	-1.718	C.2	1	UNK0	0.000	
15	   C	1.339	-2.410	-2.948	C.2	1	UNK0	0.000	
16	   N	1.385	-3.674	-3.386	N.2	1	UNK0	0.000	
17	   N	2.057	-3.714	-4.548	N.pl3	1	UNK0	0.000	
18	   C	2.449	-2.464	-4.865	C.2	1	UNK0	0.000	
19	   C	1.989	-1.632	-3.841	C.2	1	UNK0	0.000	
20	  Br	2.272	0.232	-3.796	Br	1	UNK0	0.000	
21	   H	1.725	3.809	-1.844	 H	1	UNK0	0.000	
22	   H	1.103	5.598	-0.272	 H	1	UNK0	0.000	
23	   H	-0.800	2.721	2.170	 H	1	UNK0	0.000	
24	   H	2.236	-4.583	-5.101	 H	1	UNK0	0.000	
25	   H	3.009	-2.217	-5.753	 H	1	UNK0	0.000	
@<TRIPOS>BOND
1 1 2 1
2 1 14 1
3 2 3 1
4 2 6 2
5 3 4 1
6 3 13 1
7 4 5 2
8 4 7 1
9 5 6 1
10 7 8 2
11 7 12 1
12 8 9 1
13 9 10 2
14 10 11 1
15 11 12 2
16 13 14 2
17 14 15 1
18 15 16 2
19 15 19 1
20 16 17 1
21 17 18 1
22 18 19 2
23 19 20 1
24 9 21 1
25 10 22 1
26 12 23 1
27 17 24 1
28 18 25 1
@<TRIPOS>SUBSTRUCTURE
1	UNK0	1	GROUP	1 ****	UNK
# created with PyMOL 2.3.2
@<TRIPOS>MOLECULE
1255
45 49 1                 
SMALL
USER_CHARGES
@<TRIPOS>ATOM
1	   S	-1.724	0.195	-3.086	S.3	1	UNK0	0.000	
2	   C	-1.741	-0.377	-1.395	C.2	1	UNK0	0.000	
3	   N	-1.600	-1.563	-0.899	N.2	1	UNK0	0.000	
4	   C	-1.656	-1.750	0.534	C.2	1	UNK0	0.000	
5	   O	-2.039	-2.767	1.110	O.2	1	UNK0	0.000	
6	   C	-1.194	-0.569	1.386	C.3	1	UNK0	0.000	
7	   C	-2.029	0.544	0.834	C.2	1	UNK0	0.000	
8	   O	-2.772	1.274	1.551	O.2	1	UNK0	0.000	
9	   N	-1.964	0.771	-0.604	N.pl3	1	UNK0	0.000	
10	   N	-2.103	1.953	-1.280	N.pl3	1	UNK0	0.000	
11	   C	-2.010	1.913	-2.688	C.2	1	UNK0	0.000	
12	   C	-2.108	2.913	-3.559	C.2	1	UNK0	0.000	
13	   C	0.274	-0.361	1.143	C.3	1	UNK0	0.000	
14	   C	0.944	0.717	1.897	C.3	1	UNK0	0.000	
15	   C	0.472	2.080	1.705	C.2	1	UNK0	0.000	
16	   O	-0.282	2.625	2.581	O.2	1	UNK0	0.000	
17	   N	0.838	2.854	0.533	N.pl3	1	UNK0	0.000	
18	   N	0.177	3.906	-0.015	N.pl3	1	UNK0	0.000	
19	   C	0.747	4.505	-1.166	C.2	1	UNK0	0.000	
20	   C	0.322	5.525	-1.879	C.2	1	UNK0	0.000	
21	   S	2.234	3.558	-1.481	S.3	1	UNK0	0.000	
22	   C	2.034	2.453	-0.096	C.2	1	UNK0	0.000	
23	   N	2.769	1.480	0.311	N.2	1	UNK0	0.000	
24	   C	2.402	0.715	1.471	C.2	1	UNK0	0.000	
25	   O	3.196	0.050	2.152	O.2	1	UNK0	0.000	
26	   C	1.035	-1.635	1.286	C.2	1	UNK0	0.000	
27	   C	1.661	-2.217	0.208	C.2	1	UNK0	0.000	
28	   C	2.364	-3.393	0.334	C.2	1	UNK0	0.000	
29	   C	2.446	-4.006	1.564	C.2	1	UNK0	0.000	
30	   C	1.825	-3.449	2.684	C.2	1	UNK0	0.000	
31	   C	1.130	-2.269	2.516	C.2	1	UNK0	0.000	
32	  Br	3.416	-5.641	1.772	Br	1	UNK0	0.000	
33	   H	-1.456	-0.789	2.415	 H	1	UNK0	0.000	
34	   H	-2.287	2.903	-0.798	 H	1	UNK0	0.000	
35	   H	-2.009	2.688	-4.609	 H	1	UNK0	0.000	
36	   H	-2.279	3.917	-3.261	 H	1	UNK0	0.000	
37	   H	0.366	-0.076	0.044	 H	1	UNK0	0.000	
38	   H	0.957	0.539	3.007	 H	1	UNK0	0.000	
39	   H	-0.745	4.322	0.359	 H	1	UNK0	0.000	
40	   H	0.890	5.842	-2.727	 H	1	UNK0	0.000	
41	   H	-0.581	6.045	-1.630	 H	1	UNK0	0.000	
42	   H	1.630	-1.780	-0.782	 H	1	UNK0	0.000	
43	   H	2.856	-3.853	-0.505	 H	1	UNK0	0.000	
44	   H	1.887	-3.928	3.657	 H	1	UNK0	0.000	
45	   H	0.619	-1.775	3.345	 H	1	UNK0	0.000	
@<TRIPOS>BOND
1 1 2 1
2 1 11 1
3 2 3 2
4 2 9 1
5 3 4 1
6 4 5 2
7 4 6 1
8 6 7 1
9 6 13 1
10 7 8 2
11 7 9 1
12 9 10 1
13 10 11 1
14 11 12 2
15 13 14 1
16 13 26 1
17 14 15 1
18 14 24 1
19 15 16 2
20 15 17 1
21 17 18 1
22 17 22 1
23 18 19 1
24 19 20 2
25 19 21 1
26 21 22 1
27 22 23 2
28 23 24 1
29 24 25 2
30 26 27 2
31 26 31 1
32 27 28 1
33 28 29 2
34 29 30 1
35 29 32 1
36 30 31 2
37 6 33 1
38 10 34 1
39 12 35 1
40 12 36 1
41 13 37 1
42 14 38 1
43 18 39 1
44 20 40 1
45 20 41 1
46 27 42 1
47 28 43 1
48 30 44 1
49 31 45 1
@<TRIPOS>SUBSTRUCTURE
1	UNK0	1	GROUP	1 ****	UNK
# created with PyMOL 2.3.2
@<TRIPOS>MOLECULE
1256
47 50 1                 
SMALL
USER_CHARGES
@<TRIPOS>ATOM
1	   S	2.906	-3.354	-1.091	S.3	1	UNK0	0.000	
2	   C	1.747	-2.813	-2.230	C.2	1	UNK0	0.000	
3	   N	1.246	-3.321	-3.399	N.2	1	UNK0	0.000	
4	   C	0.291	-2.672	-4.085	C.2	1	UNK0	0.000	
5	   O	-0.223	-3.057	-5.152	O.2	1	UNK0	0.000	
6	   C	-0.126	-1.487	-3.526	C.2	1	UNK0	0.000	
7	   C	0.368	-0.974	-2.363	C.2	1	UNK0	0.000	
8	   N	1.343	-1.662	-1.684	N.pl3	1	UNK0	0.000	
9	   N	1.871	-1.311	-0.576	N.2	1	UNK0	0.000	
10	   C	2.776	-2.036	0.018	C.2	1	UNK0	0.000	
11	   N	3.470	-1.824	1.270	N.pl3	1	UNK0	0.000	
12	   C	4.478	-0.840	1.375	C.3	1	UNK0	0.000	
13	   C	5.109	-0.880	2.747	C.3	1	UNK0	0.000	
14	   O	5.259	-2.208	3.155	O.3	1	UNK0	0.000	
15	   C	4.013	-2.756	3.483	C.3	1	UNK0	0.000	
16	   C	3.054	-2.671	2.336	C.3	1	UNK0	0.000	
17	   C	-0.185	0.293	-1.888	C.2	1	UNK0	0.000	
18	   O	-1.326	0.686	-2.331	O.2	1	UNK0	0.000	
19	   N	0.447	1.149	-0.963	N.pl3	1	UNK0	0.000	
20	   C	-0.211	2.384	-0.553	C.3	1	UNK0	0.000	
21	   C	-1.421	2.091	0.254	C.2	1	UNK0	0.000	
22	   C	-2.204	3.143	0.703	C.2	1	UNK0	0.000	
23	   C	-3.302	2.885	1.485	C.2	1	UNK0	0.000	
24	   C	-3.659	1.612	1.845	C.2	1	UNK0	0.000	
25	   C	-2.884	0.557	1.401	C.2	1	UNK0	0.000	
26	   C	-1.777	0.821	0.611	C.2	1	UNK0	0.000	
27	  Br	-3.315	-1.247	1.852	Br	1	UNK0	0.000	
28	   O	-1.835	4.418	0.336	O.3	1	UNK0	0.000	
29	   C	-2.634	5.510	0.791	C.3	1	UNK0	0.000	
30	   H	-0.907	-0.941	-4.070	 H	1	UNK0	0.000	
31	   H	4.061	0.184	1.166	 H	1	UNK0	0.000	
32	   H	5.320	-0.978	0.653	 H	1	UNK0	0.000	
33	   H	4.389	-0.384	3.445	 H	1	UNK0	0.000	
34	   H	6.100	-0.417	2.734	 H	1	UNK0	0.000	
35	   H	4.172	-3.821	3.824	 H	1	UNK0	0.000	
36	   H	3.645	-2.217	4.395	 H	1	UNK0	0.000	
37	   H	2.804	-3.710	1.962	 H	1	UNK0	0.000	
38	   H	2.092	-2.240	2.754	 H	1	UNK0	0.000	
39	   H	1.380	0.925	-0.568	 H	1	UNK0	0.000	
40	   H	-0.575	2.940	-1.470	 H	1	UNK0	0.000	
41	   H	0.461	3.080	-0.035	 H	1	UNK0	0.000	
42	   H	-3.910	3.725	1.835	 H	1	UNK0	0.000	
43	   H	-4.529	1.397	2.467	 H	1	UNK0	0.000	
44	   H	-1.208	-0.056	0.297	 H	1	UNK0	0.000	
45	   H	-2.204	6.462	0.432	 H	1	UNK0	0.000	
46	   H	-3.666	5.452	0.401	 H	1	UNK0	0.000	
47	   H	-2.697	5.455	1.888	 H	1	UNK0	0.000	
@<TRIPOS>BOND
1 1 2 1
2 1 10 1
3 2 3 2
4 2 8 1
5 3 4 1
6 4 5 2
7 4 6 1
8 6 7 2
9 7 8 1
10 7 17 1
11 8 9 1
12 9 10 2
13 10 11 1
14 11 12 1
15 11 16 1
16 12 13 1
17 13 14 1
18 14 15 1
19 15 16 1
20 17 18 2
21 17 19 1
22 19 20 1
23 20 21 1
24 21 22 2
25 21 26 1
26 22 23 1
27 22 28 1
28 23 24 2
29 24 25 1
30 25 26 2
31 25 27 1
32 28 29 1
33 6 30 1
34 12 31 1
35 12 32 1
36 13 33 1
37 13 34 1
38 15 35 1
39 15 36 1
40 16 37 1
41 16 38 1
42 19 39 1
43 20 40 1
44 20 41 1
45 23 42 1
46 24 43 1
47 26 44 1
48 29 45 1
49 29 46 1
50 29 47 1
@<TRIPOS>SUBSTRUCTURE
1	UNK0	1	GROUP	1 ****	UNK
# created with PyMOL 2.3.2
@<TRIPOS>MOLECULE
1265
40 43 1                 
SMALL
USER_CHARGES
@<TRIPOS>ATOM
1	   S	0.542	-1.264	1.955	S.3	1	UNK0	0.000	
2	   C	0.582	-0.343	0.423	C.2	1	UNK0	0.000	
3	   N	-0.124	-0.068	-0.625	N.pl3	1	UNK0	0.000	
4	   C	0.569	0.789	-1.512	C.3	1	UNK0	0.000	
5	   C	1.883	1.038	-0.847	C.3	1	UNK0	0.000	
6	   N	1.844	0.278	0.425	N.pl3	1	UNK0	0.000	
7	   C	2.658	0.028	1.536	C.2	1	UNK0	0.000	
8	   C	2.177	-0.760	2.471	C.2	1	UNK0	0.000	
9	   C	4.027	0.608	1.732	C.2	1	UNK0	0.000	
10	   C	4.770	0.333	2.858	C.2	1	UNK0	0.000	
11	   C	6.030	0.842	3.090	C.2	1	UNK0	0.000	
12	   C	6.615	1.678	2.167	C.2	1	UNK0	0.000	
13	   C	5.897	1.967	1.041	C.2	1	UNK0	0.000	
14	   C	4.611	1.442	0.814	C.2	1	UNK0	0.000	
15	   C	-1.484	-0.609	-0.798	C.3	1	UNK0	0.000	
16	   C	-2.418	0.528	-0.674	C.2	1	UNK0	0.000	
17	   O	-2.004	1.695	-0.522	O.2	1	UNK0	0.000	
18	   C	-3.855	0.301	-0.727	C.2	1	UNK0	0.000	
19	   C	-4.755	1.363	-0.620	C.2	1	UNK0	0.000	
20	   C	-6.124	1.175	-0.659	C.2	1	UNK0	0.000	
21	   C	-6.585	-0.106	-0.809	C.2	1	UNK0	0.000	
22	   C	-5.735	-1.191	-0.920	C.2	1	UNK0	0.000	
23	   C	-4.356	-0.975	-0.878	C.2	1	UNK0	0.000	
24	  Br	-8.486	-0.356	-0.863	Br	1	UNK0	0.000	
25	   H	0.007	1.740	-1.728	 H	1	UNK0	0.000	
26	   H	0.661	0.304	-2.520	 H	1	UNK0	0.000	
27	   H	1.934	2.128	-0.638	 H	1	UNK0	0.000	
28	   H	2.660	0.657	-1.528	 H	1	UNK0	0.000	
29	   H	2.650	-1.084	3.417	 H	1	UNK0	0.000	
30	   H	4.372	-0.321	3.632	 H	1	UNK0	0.000	
31	   H	6.568	0.592	3.991	 H	1	UNK0	0.000	
32	   H	7.599	2.075	2.351	 H	1	UNK0	0.000	
33	   H	6.306	2.623	0.273	 H	1	UNK0	0.000	
34	   H	4.095	1.701	-0.088	 H	1	UNK0	0.000	
35	   H	-1.492	-0.965	-1.868	 H	1	UNK0	0.000	
36	   H	-1.676	-1.434	-0.116	 H	1	UNK0	0.000	
37	   H	-4.366	2.354	-0.505	 H	1	UNK0	0.000	
38	   H	-6.809	1.987	-0.576	 H	1	UNK0	0.000	
39	   H	-6.093	-2.195	-1.037	 H	1	UNK0	0.000	
40	   H	-3.718	-1.842	-0.968	 H	1	UNK0	0.000	
@<TRIPOS>BOND
1 1 2 1
2 1 8 1
3 2 3 2
4 2 6 1
5 3 4 1
6 3 15 1
7 4 5 1
8 5 6 1
9 6 7 1
10 7 8 2
11 7 9 1
12 9 10 2
13 9 14 1
14 10 11 1
15 11 12 2
16 12 13 1
17 13 14 2
18 15 16 1
19 16 17 2
20 16 18 1
21 18 19 2
22 18 23 1
23 19 20 1
24 20 21 2
25 21 22 1
26 21 24 1
27 22 23 2
28 4 25 1
29 4 26 1
30 5 27 1
31 5 28 1
32 8 29 1
33 10 30 1
34 11 31 1
35 12 32 1
36 13 33 1
37 14 34 1
38 15 35 1
39 15 36 1
40 19 37 1
41 20 38 1
42 22 39 1
43 23 40 1
@<TRIPOS>SUBSTRUCTURE
1	UNK0	1	GROUP	1 ****	UNK
# created with PyMOL 2.3.2
@<TRIPOS>MOLECULE
1266
43 46 1                 
SMALL
USER_CHARGES
@<TRIPOS>ATOM
1	  Cl	-1.411	-5.149	-2.079	Cl	1	UNK0	0.000	
2	   C	-0.092	-3.989	-1.818	C.2	1	UNK0	0.000	
3	   C	-0.353	-2.904	-0.966	C.2	1	UNK0	0.000	
4	   C	0.663	-2.016	-0.765	C.2	1	UNK0	0.000	
5	   C	1.887	-2.199	-1.384	C.2	1	UNK0	0.000	
6	   C	2.147	-3.268	-2.224	C.2	1	UNK0	0.000	
7	   C	1.122	-4.183	-2.441	C.2	1	UNK0	0.000	
8	   C	-1.760	-2.741	-0.456	C.3	1	UNK0	0.000	
9	   N	-2.420	-1.924	-1.467	N.3	1	UNK0	0.000	
10	   C	-2.851	-0.648	-1.136	C.3	1	UNK0	0.000	
11	   C	-2.166	0.099	-0.011	C.3	1	UNK0	0.000	
12	   N	-1.597	-0.737	0.954	N.pl3	1	UNK0	0.000	
13	   C	-1.849	-2.144	0.872	C.3	1	UNK0	0.000	
14	   C	-0.771	-0.332	2.034	C.2	1	UNK0	0.000	
15	   O	-0.518	-1.325	2.855	O.2	1	UNK0	0.000	
16	   C	-0.171	0.902	2.392	C.2	1	UNK0	0.000	
17	   C	0.246	1.053	3.737	C.2	1	UNK0	0.000	
18	   N	0.937	2.123	4.129	N.2	1	UNK0	0.000	
19	   C	1.267	3.098	3.280	C.2	1	UNK0	0.000	
20	   C	0.892	3.008	1.967	C.2	1	UNK0	0.000	
21	   C	0.168	1.906	1.517	C.2	1	UNK0	0.000	
22	   N	1.270	4.030	1.040	N.pl3	1	UNK0	0.000	
23	   C	2.041	5.133	1.519	C.2	1	UNK0	0.000	
24	   O	2.783	5.837	0.804	O.2	1	UNK0	0.000	
25	   C	1.941	5.450	2.977	C.3	1	UNK0	0.000	
26	   O	1.990	4.216	3.711	O.3	1	UNK0	0.000	
27	   H	0.513	-1.125	-0.128	 H	1	UNK0	0.000	
28	   H	2.689	-1.458	-1.206	 H	1	UNK0	0.000	
29	   H	3.138	-3.372	-2.687	 H	1	UNK0	0.000	
30	   H	1.269	-5.037	-3.080	 H	1	UNK0	0.000	
31	   H	-2.241	-3.751	-0.522	 H	1	UNK0	0.000	
32	   H	-1.897	-1.966	-2.365	 H	1	UNK0	0.000	
33	   H	-2.724	0.011	-2.064	 H	1	UNK0	0.000	
34	   H	-3.971	-0.636	-0.949	 H	1	UNK0	0.000	
35	   H	-3.086	0.586	0.605	 H	1	UNK0	0.000	
36	   H	-1.651	0.986	-0.369	 H	1	UNK0	0.000	
37	   H	-1.207	-2.680	1.633	 H	1	UNK0	0.000	
38	   H	-2.908	-2.353	1.290	 H	1	UNK0	0.000	
39	   H	-0.015	0.269	4.445	 H	1	UNK0	0.000	
40	   H	-0.049	1.894	0.496	 H	1	UNK0	0.000	
41	   H	1.007	3.985	0.044	 H	1	UNK0	0.000	
42	   H	1.007	5.949	3.242	 H	1	UNK0	0.000	
43	   H	2.791	6.059	3.333	 H	1	UNK0	0.000	
@<TRIPOS>BOND
1 1 2 1
2 2 3 2
3 2 7 1
4 3 4 1
5 3 8 1
6 4 5 2
7 5 6 1
8 6 7 2
9 8 9 1
10 8 13 1
11 9 10 1
12 10 11 1
13 11 12 1
14 12 13 1
15 12 14 1
16 14 15 2
17 14 16 1
18 16 17 2
19 16 21 1
20 17 18 1
21 18 19 2
22 19 20 1
23 19 26 1
24 20 21 2
25 20 22 1
26 22 23 1
27 23 24 2
28 23 25 1
29 25 26 1
30 4 27 1
31 5 28 1
32 6 29 1
33 7 30 1
34 8 31 1
35 9 32 1
36 10 33 1
37 10 34 1
38 11 35 1
39 11 36 1
40 13 37 1
41 13 38 1
42 17 39 1
43 21 40 1
44 22 41 1
45 25 42 1
46 25 43 1
@<TRIPOS>SUBSTRUCTURE
1	UNK0	1	GROUP	1 ****	UNK
# created with PyMOL 2.3.2
@<TRIPOS>MOLECULE
1271
53 56 1                 
SMALL
USER_CHARGES
@<TRIPOS>ATOM
1	  Br	6.537	-3.638	1.300	Br	1	UNK0	0.000	
2	   C	5.847	-2.603	-0.139	C.2	1	UNK0	0.000	
3	   C	5.219	-1.403	0.088	C.2	1	UNK0	0.000	
4	   C	4.718	-0.650	-0.973	C.2	1	UNK0	0.000	
5	   C	4.883	-1.164	-2.226	C.2	1	UNK0	0.000	
6	   C	5.521	-2.382	-2.462	C.2	1	UNK0	0.000	
7	   C	6.006	-3.108	-1.418	C.2	1	UNK0	0.000	
8	   C	4.043	0.607	-0.717	C.2	1	UNK0	0.000	
9	   C	3.669	1.422	-1.671	C.2	1	UNK0	0.000	
10	   N	3.757	0.969	0.651	N.pl3	1	UNK0	0.000	
11	   N	2.701	0.322	1.293	N.pl3	1	UNK0	0.000	
12	   C	1.349	0.640	1.024	C.2	1	UNK0	0.000	
13	   O	1.091	1.534	0.186	O.2	1	UNK0	0.000	
14	   C	0.242	-0.031	1.680	C.2	1	UNK0	0.000	
15	   N	0.385	-0.996	2.598	N.2	1	UNK0	0.000	
16	   N	-0.822	-1.362	2.946	N.2	1	UNK0	0.000	
17	   N	-1.733	-0.659	2.278	N.pl3	1	UNK0	0.000	
18	   C	-1.127	0.194	1.467	C.2	1	UNK0	0.000	
19	   C	-1.614	1.208	0.560	C.3	1	UNK0	0.000	
20	   N	-3.052	1.281	0.389	N.3	1	UNK0	0.000	
21	   C	-3.427	2.499	-0.323	C.3	1	UNK0	0.000	
22	   C	-2.578	2.716	-1.556	C.3	1	UNK0	0.000	
23	   C	-2.685	1.513	-2.476	C.3	1	UNK0	0.000	
24	   C	-3.619	0.483	-1.907	C.3	1	UNK0	0.000	
25	   C	-3.494	0.184	-0.467	C.3	1	UNK0	0.000	
26	   C	-3.128	-0.812	2.459	C.2	1	UNK0	0.000	
27	   N	-3.954	0.227	2.766	N.2	1	UNK0	0.000	
28	   O	-5.156	-0.246	2.866	O.3	1	UNK0	0.000	
29	   N	-5.183	-1.512	2.652	N.2	1	UNK0	0.000	
30	   C	-3.931	-1.912	2.392	C.2	1	UNK0	0.000	
31	   N	-3.494	-3.213	2.101	N.pl3	1	UNK0	0.000	
32	   H	5.113	-1.036	1.104	 H	1	UNK0	0.000	
33	   H	4.507	-0.612	-3.088	 H	1	UNK0	0.000	
34	   H	5.632	-2.759	-3.480	 H	1	UNK0	0.000	
35	   H	6.492	-4.038	-1.598	 H	1	UNK0	0.000	
36	   H	3.827	1.236	-2.712	 H	1	UNK0	0.000	
37	   H	3.162	2.364	-1.444	 H	1	UNK0	0.000	
38	   H	4.362	1.693	1.074	 H	1	UNK0	0.000	
39	   H	2.978	-0.418	1.992	 H	1	UNK0	0.000	
40	   H	-1.299	2.253	0.838	 H	1	UNK0	0.000	
41	   H	-1.191	1.054	-0.464	 H	1	UNK0	0.000	
42	   H	-3.314	3.360	0.354	 H	1	UNK0	0.000	
43	   H	-4.483	2.398	-0.601	 H	1	UNK0	0.000	
44	   H	-1.511	2.859	-1.321	 H	1	UNK0	0.000	
45	   H	-2.971	3.618	-2.052	 H	1	UNK0	0.000	
46	   H	-3.157	1.873	-3.418	 H	1	UNK0	0.000	
47	   H	-1.695	1.129	-2.781	 H	1	UNK0	0.000	
48	   H	-4.662	0.893	-2.062	 H	1	UNK0	0.000	
49	   H	-3.571	-0.398	-2.562	 H	1	UNK0	0.000	
50	   H	-2.721	-0.627	-0.358	 H	1	UNK0	0.000	
51	   H	-4.430	-0.227	-0.026	 H	1	UNK0	0.000	
52	   H	-3.627	-4.055	2.703	 H	1	UNK0	0.000	
53	   H	-2.985	-3.380	1.206	 H	1	UNK0	0.000	
@<TRIPOS>BOND
1 1 2 1
2 2 3 2
3 2 7 1
4 3 4 1
5 4 5 2
6 4 8 1
7 5 6 1
8 6 7 2
9 8 9 2
10 8 10 1
11 10 11 1
12 11 12 1
13 12 13 2
14 12 14 1
15 14 15 1
16 14 18 2
17 15 16 2
18 16 17 1
19 17 18 1
20 17 26 1
21 18 19 1
22 19 20 1
23 20 21 1
24 20 25 1
25 21 22 1
26 22 23 1
27 23 24 1
28 24 25 1
29 26 27 2
30 26 30 1
31 27 28 1
32 28 29 1
33 29 30 2
34 30 31 1
35 3 32 1
36 5 33 1
37 6 34 1
38 7 35 1
39 9 36 1
40 9 37 1
41 10 38 1
42 11 39 1
43 19 40 1
44 19 41 1
45 21 42 1
46 21 43 1
47 22 44 1
48 22 45 1
49 23 46 1
50 23 47 1
51 24 48 1
52 24 49 1
53 25 50 1
54 25 51 1
55 31 52 1
56 31 53 1
@<TRIPOS>SUBSTRUCTURE
1	UNK0	1	GROUP	1 ****	UNK
# created with PyMOL 2.3.2
@<TRIPOS>MOLECULE
1280
63 66 1                 
SMALL
USER_CHARGES
@<TRIPOS>ATOM
1	  Br	-0.709	-4.275	-6.182	Br	1	UNK0	0.000	
2	   C	-1.429	-3.043	-4.895	C.2	1	UNK0	0.000	
3	   C	-0.763	-2.816	-3.685	C.2	1	UNK0	0.000	
4	   C	-1.262	-1.932	-2.739	C.2	1	UNK0	0.000	
5	   C	-2.433	-1.296	-3.047	C.2	1	UNK0	0.000	
6	   C	-3.108	-1.509	-4.242	C.2	1	UNK0	0.000	
7	   C	-2.601	-2.387	-5.170	C.2	1	UNK0	0.000	
8	   C	-0.552	-1.733	-1.467	C.3	1	UNK0	0.000	
9	   N	0.871	-1.943	-1.644	N.pl3	1	UNK0	0.000	
10	   C	1.396	-0.755	-2.211	C.2	1	UNK0	0.000	
11	   O	2.414	-0.683	-2.907	O.2	1	UNK0	0.000	
12	   C	0.494	0.336	-1.803	C.2	1	UNK0	0.000	
13	   O	0.592	1.556	-2.080	O.2	1	UNK0	0.000	
14	   C	-0.540	-0.306	-1.001	C.2	1	UNK0	0.000	
15	   C	-1.255	0.283	-0.053	C.2	1	UNK0	0.000	
16	   O	-2.170	-0.555	0.627	O.2	1	UNK0	0.000	
17	   C	-1.141	1.694	0.299	C.2	1	UNK0	0.000	
18	   C	-1.623	2.720	-0.458	C.2	1	UNK0	0.000	
19	   C	-1.425	4.057	-0.068	C.2	1	UNK0	0.000	
20	   C	-0.751	4.399	1.073	C.2	1	UNK0	0.000	
21	   C	-0.264	3.363	1.841	C.2	1	UNK0	0.000	
22	   C	-0.451	2.057	1.471	C.2	1	UNK0	0.000	
23	   O	-0.553	5.723	1.465	O.3	1	UNK0	0.000	
24	   C	0.145	6.023	2.646	C.3	1	UNK0	0.000	
25	   C	-2.408	2.444	-1.684	C.3	1	UNK0	0.000	
26	   C	1.566	-3.164	-1.294	C.3	1	UNK0	0.000	
27	   C	2.137	-3.155	0.089	C.3	1	UNK0	0.000	
28	   C	1.162	-2.992	1.192	C.3	1	UNK0	0.000	
29	   N	1.711	-2.976	2.501	N.4	1	UNK0	0.000	
30	   C	0.960	-2.133	3.446	C.3	1	UNK0	0.000	
31	   C	1.957	-1.784	4.553	C.3	1	UNK0	0.000	
32	   O	3.102	-2.557	4.484	O.3	1	UNK0	0.000	
33	   C	2.785	-3.913	4.399	C.3	1	UNK0	0.000	
34	   C	1.937	-4.216	3.150	C.3	1	UNK0	0.000	
35	   H	0.141	-3.360	-3.539	 H	1	UNK0	0.000	
36	   H	-2.861	-0.621	-2.345	 H	1	UNK0	0.000	
37	   H	-4.029	-1.001	-4.473	 H	1	UNK0	0.000	
38	   H	-3.087	-2.594	-6.127	 H	1	UNK0	0.000	
39	   H	-1.009	-2.417	-0.722	 H	1	UNK0	0.000	
40	   H	-1.819	4.866	-0.694	 H	1	UNK0	0.000	
41	   H	0.274	3.642	2.754	 H	1	UNK0	0.000	
42	   H	-0.063	1.263	2.087	 H	1	UNK0	0.000	
43	   H	-0.367	5.596	3.551	 H	1	UNK0	0.000	
44	   H	0.205	7.100	2.830	 H	1	UNK0	0.000	
45	   H	1.175	5.607	2.681	 H	1	UNK0	0.000	
46	   H	-2.086	1.563	-2.251	 H	1	UNK0	0.000	
47	   H	-2.299	3.310	-2.406	 H	1	UNK0	0.000	
48	   H	-3.513	2.436	-1.457	 H	1	UNK0	0.000	
49	   H	0.813	-3.988	-1.334	 H	1	UNK0	0.000	
50	   H	2.347	-3.446	-2.024	 H	1	UNK0	0.000	
51	   H	2.744	-4.101	0.170	 H	1	UNK0	0.000	
52	   H	2.918	-2.336	0.142	 H	1	UNK0	0.000	
53	   H	0.456	-3.859	1.141	 H	1	UNK0	0.000	
54	   H	0.552	-2.084	0.995	 H	1	UNK0	0.000	
55	   H	2.660	-2.497	2.428	 H	1	UNK0	0.000	
56	   H	0.549	-1.236	2.978	 H	1	UNK0	0.000	
57	   H	0.128	-2.765	3.839	 H	1	UNK0	0.000	
58	   H	2.297	-0.717	4.410	 H	1	UNK0	0.000	
59	   H	1.456	-1.793	5.526	 H	1	UNK0	0.000	
60	   H	2.249	-4.173	5.336	 H	1	UNK0	0.000	
61	   H	3.721	-4.514	4.411	 H	1	UNK0	0.000	
62	   H	1.021	-4.710	3.526	 H	1	UNK0	0.000	
63	   H	2.554	-4.887	2.526	 H	1	UNK0	0.000	
@<TRIPOS>BOND
1 1 2 1
2 2 3 2
3 2 7 1
4 3 4 1
5 4 5 2
6 4 8 1
7 5 6 1
8 6 7 2
9 8 9 1
10 8 14 1
11 9 10 1
12 9 26 1
13 10 11 2
14 10 12 1
15 12 13 2
16 12 14 1
17 14 15 2
18 15 16 1
19 15 17 1
20 17 18 2
21 17 22 1
22 18 19 1
23 18 25 1
24 19 20 2
25 20 21 1
26 20 23 1
27 21 22 2
28 23 24 1
29 26 27 1
30 27 28 1
31 28 29 1
32 29 30 1
33 29 34 1
34 30 31 1
35 31 32 1
36 32 33 1
37 33 34 1
38 3 35 1
39 5 36 1
40 6 37 1
41 7 38 1
42 8 39 1
43 19 40 1
44 21 41 1
45 22 42 1
46 24 43 1
47 24 44 1
48 24 45 1
49 25 46 1
50 25 47 1
51 25 48 1
52 26 49 1
53 26 50 1
54 27 51 1
55 27 52 1
56 28 53 1
57 28 54 1
58 29 55 1
59 30 56 1
60 30 57 1
61 31 58 1
62 31 59 1
63 33 60 1
64 33 61 1
65 34 62 1
66 34 63 1
@<TRIPOS>SUBSTRUCTURE
1	UNK0	1	GROUP	1 ****	UNK
# created with PyMOL 2.3.2
@<TRIPOS>MOLECULE
1282
48 51 1                 
SMALL
USER_CHARGES
@<TRIPOS>ATOM
1	  Br	-7.447	1.135	3.763	Br	1	UNK0	0.000	
2	   C	-5.731	0.326	4.013	C.2	1	UNK0	0.000	
3	   C	-4.773	0.431	3.043	C.2	1	UNK0	0.000	
4	   C	-3.524	-0.153	3.216	C.2	1	UNK0	0.000	
5	   C	-3.288	-0.829	4.372	C.2	1	UNK0	0.000	
6	   C	-4.266	-0.930	5.349	C.2	1	UNK0	0.000	
7	   C	-5.499	-0.351	5.176	C.2	1	UNK0	0.000	
8	   C	-2.511	-0.043	2.180	C.2	1	UNK0	0.000	
9	   O	-2.864	0.401	1.026	O.2	1	UNK0	0.000	
10	   N	-1.167	-0.405	2.402	N.pl3	1	UNK0	0.000	
11	   C	-0.241	-0.254	1.294	C.3	1	UNK0	0.000	
12	   C	0.412	-1.574	0.932	C.3	1	UNK0	0.000	
13	   N	1.648	-1.160	0.297	N.pl3	1	UNK0	0.000	
14	   C	1.856	0.266	0.446	C.3	1	UNK0	0.000	
15	   C	0.952	0.590	1.643	C.3	1	UNK0	0.000	
16	   C	3.266	0.502	0.752	C.2	1	UNK0	0.000	
17	   O	3.613	1.170	1.737	O.2	1	UNK0	0.000	
18	   N	4.236	-0.059	-0.118	N.pl3	1	UNK0	0.000	
19	   C	3.914	-1.252	-0.868	C.3	1	UNK0	0.000	
20	   C	2.654	-1.888	-0.422	C.2	1	UNK0	0.000	
21	   O	2.446	-3.104	-0.674	O.2	1	UNK0	0.000	
22	   C	3.936	-1.021	-2.364	C.3	1	UNK0	0.000	
23	   C	2.976	0.003	-2.808	C.2	1	UNK0	0.000	
24	   C	1.690	-0.366	-3.159	C.2	1	UNK0	0.000	
25	   C	0.787	0.585	-3.575	C.2	1	UNK0	0.000	
26	   C	1.105	1.927	-3.664	C.2	1	UNK0	0.000	
27	   C	2.386	2.298	-3.315	C.2	1	UNK0	0.000	
28	   C	3.306	1.357	-2.895	C.2	1	UNK0	0.000	
29	   H	-4.934	0.967	2.104	 H	1	UNK0	0.000	
30	   H	-2.317	-1.302	4.536	 H	1	UNK0	0.000	
31	   H	-4.080	-1.465	6.266	 H	1	UNK0	0.000	
32	   H	-6.288	-0.414	5.926	 H	1	UNK0	0.000	
33	   H	-0.877	-0.756	3.325	 H	1	UNK0	0.000	
34	   H	-0.714	0.133	0.394	 H	1	UNK0	0.000	
35	   H	0.652	-2.187	1.828	 H	1	UNK0	0.000	
36	   H	-0.221	-2.170	0.239	 H	1	UNK0	0.000	
37	   H	1.529	0.845	-0.443	 H	1	UNK0	0.000	
38	   H	0.763	1.673	1.589	 H	1	UNK0	0.000	
39	   H	1.480	0.261	2.545	 H	1	UNK0	0.000	
40	   H	5.187	0.356	-0.242	 H	1	UNK0	0.000	
41	   H	4.773	-1.962	-0.672	 H	1	UNK0	0.000	
42	   H	4.969	-0.756	-2.658	 H	1	UNK0	0.000	
43	   H	3.659	-1.974	-2.842	 H	1	UNK0	0.000	
44	   H	1.342	-1.392	-3.124	 H	1	UNK0	0.000	
45	   H	-0.220	0.303	-3.851	 H	1	UNK0	0.000	
46	   H	0.359	2.652	-3.999	 H	1	UNK0	0.000	
47	   H	2.637	3.358	-3.385	 H	1	UNK0	0.000	
48	   H	4.304	1.683	-2.629	 H	1	UNK0	0.000	
@<TRIPOS>BOND
1 1 2 1
2 2 3 2
3 2 7 1
4 3 4 1
5 4 5 2
6 4 8 1
7 5 6 1
8 6 7 2
9 8 9 2
10 8 10 1
11 10 11 1
12 11 12 1
13 11 15 1
14 12 13 1
15 13 14 1
16 13 20 1
17 14 15 1
18 14 16 1
19 16 17 2
20 16 18 1
21 18 19 1
22 19 20 1
23 19 22 1
24 20 21 2
25 22 23 1
26 23 24 2
27 23 28 1
28 24 25 1
29 25 26 2
30 26 27 1
31 27 28 2
32 3 29 1
33 5 30 1
34 6 31 1
35 7 32 1
36 10 33 1
37 11 34 1
38 12 35 1
39 12 36 1
40 14 37 1
41 15 38 1
42 15 39 1
43 18 40 1
44 19 41 1
45 22 42 1
46 22 43 1
47 24 44 1
48 25 45 1
49 26 46 1
50 27 47 1
51 28 48 1
@<TRIPOS>SUBSTRUCTURE
1	UNK0	1	GROUP	1 ****	UNK
# created with PyMOL 2.3.2
@<TRIPOS>MOLECULE
1284
61 64 1                 
SMALL
USER_CHARGES
@<TRIPOS>ATOM
1	  Br	2.367	1.346	-5.455	Br	1	UNK0	0.000	
2	   C	1.096	1.021	-4.068	C.2	1	UNK0	0.000	
3	   C	1.338	1.250	-2.748	C.2	1	UNK0	0.000	
4	   C	0.445	1.027	-1.714	C.2	1	UNK0	0.000	
5	   C	-0.809	0.526	-2.053	C.2	1	UNK0	0.000	
6	   C	-1.089	0.283	-3.384	C.2	1	UNK0	0.000	
7	   C	-0.173	0.516	-4.395	C.2	1	UNK0	0.000	
8	   C	0.882	1.310	-0.343	C.3	1	UNK0	0.000	
9	   N	0.020	2.242	0.282	N.pl3	1	UNK0	0.000	
10	   C	-0.664	1.616	1.355	C.2	1	UNK0	0.000	
11	   O	-1.576	2.159	2.053	O.2	1	UNK0	0.000	
12	   C	-0.142	0.276	1.514	C.2	1	UNK0	0.000	
13	   O	-0.581	-0.505	2.401	O.2	1	UNK0	0.000	
14	   C	0.884	0.090	0.506	C.2	1	UNK0	0.000	
15	   C	1.613	-0.995	0.375	C.2	1	UNK0	0.000	
16	   O	2.510	-1.078	-0.665	O.2	1	UNK0	0.000	
17	   C	1.495	-2.092	1.303	C.2	1	UNK0	0.000	
18	   C	1.267	-3.425	0.918	C.2	1	UNK0	0.000	
19	   N	1.247	-4.199	2.010	N.pl3	1	UNK0	0.000	
20	   N	1.451	-3.409	3.048	N.2	1	UNK0	0.000	
21	   C	1.607	-2.133	2.665	C.2	1	UNK0	0.000	
22	   C	1.059	-5.606	2.064	C.2	1	UNK0	0.000	
23	   C	2.177	-6.429	2.089	C.2	1	UNK0	0.000	
24	   C	2.069	-7.804	2.152	C.2	1	UNK0	0.000	
25	   C	0.820	-8.425	2.194	C.2	1	UNK0	0.000	
26	   C	-0.294	-7.605	2.169	C.2	1	UNK0	0.000	
27	   C	-0.160	-6.242	2.106	C.2	1	UNK0	0.000	
28	   C	1.085	-3.861	-0.497	C.3	1	UNK0	0.000	
29	   C	-0.157	3.677	-0.078	C.3	1	UNK0	0.000	
30	   C	-1.305	3.818	-1.044	C.3	1	UNK0	0.000	
31	   C	-1.582	5.234	-1.439	C.3	1	UNK0	0.000	
32	   N	-1.908	6.132	-0.381	N.4	1	UNK0	0.000	
33	   C	-2.448	5.549	0.803	C.3	1	UNK0	0.000	
34	   C	-0.720	6.909	0.008	C.3	1	UNK0	0.000	
35	   H	2.346	1.645	-2.514	 H	1	UNK0	0.000	
36	   H	-1.528	0.337	-1.277	 H	1	UNK0	0.000	
37	   H	-2.076	-0.110	-3.645	 H	1	UNK0	0.000	
38	   H	-0.390	0.324	-5.440	 H	1	UNK0	0.000	
39	   H	1.910	1.754	-0.381	 H	1	UNK0	0.000	
40	   H	1.804	-1.279	3.316	 H	1	UNK0	0.000	
41	   H	3.153	-5.915	2.056	 H	1	UNK0	0.000	
42	   H	2.961	-8.418	2.174	 H	1	UNK0	0.000	
43	   H	0.763	-9.515	2.241	 H	1	UNK0	0.000	
44	   H	-1.264	-8.105	2.201	 H	1	UNK0	0.000	
45	   H	-1.057	-5.640	2.092	 H	1	UNK0	0.000	
46	   H	1.768	-3.292	-1.173	 H	1	UNK0	0.000	
47	   H	0.028	-3.802	-0.815	 H	1	UNK0	0.000	
48	   H	1.392	-4.930	-0.603	 H	1	UNK0	0.000	
49	   H	-0.262	4.286	0.838	 H	1	UNK0	0.000	
50	   H	0.766	3.983	-0.650	 H	1	UNK0	0.000	
51	   H	-0.927	3.324	-1.991	 H	1	UNK0	0.000	
52	   H	-2.179	3.227	-0.765	 H	1	UNK0	0.000	
53	   H	-2.435	5.283	-2.187	 H	1	UNK0	0.000	
54	   H	-0.697	5.645	-2.009	 H	1	UNK0	0.000	
55	   H	-2.593	6.866	-0.736	 H	1	UNK0	0.000	
56	   H	-1.863	5.832	1.720	 H	1	UNK0	0.000	
57	   H	-2.646	4.460	0.770	 H	1	UNK0	0.000	
58	   H	-3.463	6.010	0.986	 H	1	UNK0	0.000	
59	   H	-0.885	7.992	-0.116	 H	1	UNK0	0.000	
60	   H	0.109	6.590	-0.663	 H	1	UNK0	0.000	
61	   H	-0.408	6.638	1.042	 H	1	UNK0	0.000	
@<TRIPOS>BOND
1 1 2 1
2 2 3 2
3 2 7 1
4 3 4 1
5 4 5 2
6 4 8 1
7 5 6 1
8 6 7 2
9 8 9 1
10 8 14 1
11 9 10 1
12 9 29 1
13 10 11 2
14 10 12 1
15 12 13 2
16 12 14 1
17 14 15 2
18 15 16 1
19 15 17 1
20 17 18 2
21 17 21 1
22 18 19 1
23 18 28 1
24 19 20 1
25 19 22 1
26 20 21 2
27 22 23 2
28 22 27 1
29 23 24 1
30 24 25 2
31 25 26 1
32 26 27 2
33 29 30 1
34 30 31 1
35 31 32 1
36 32 33 1
37 32 34 1
38 3 35 1
39 5 36 1
40 6 37 1
41 7 38 1
42 8 39 1
43 21 40 1
44 23 41 1
45 24 42 1
46 25 43 1
47 26 44 1
48 27 45 1
49 28 46 1
50 28 47 1
51 28 48 1
52 29 49 1
53 29 50 1
54 30 51 1
55 30 52 1
56 31 53 1
57 31 54 1
58 32 55 1
59 33 56 1
60 33 57 1
61 33 58 1
62 34 59 1
63 34 60 1
64 34 61 1
@<TRIPOS>SUBSTRUCTURE
1	UNK0	1	GROUP	1 ****	UNK
# created with PyMOL 2.3.2
@<TRIPOS>MOLECULE
1285
60 63 1                 
SMALL
USER_CHARGES
@<TRIPOS>ATOM
1	  Br	-5.870	-1.941	1.783	Br	1	UNK0	0.000	
2	   C	-4.161	-1.310	2.358	C.2	1	UNK0	0.000	
3	   C	-3.322	-0.715	1.468	C.2	1	UNK0	0.000	
4	   C	-2.068	-0.248	1.873	C.2	1	UNK0	0.000	
5	   C	-1.715	-0.412	3.195	C.2	1	UNK0	0.000	
6	   C	-2.572	-1.020	4.104	C.2	1	UNK0	0.000	
7	   C	-3.799	-1.468	3.674	C.2	1	UNK0	0.000	
8	   C	-1.212	0.382	0.859	C.3	1	UNK0	0.000	
9	   N	-0.595	1.626	1.276	N.pl3	1	UNK0	0.000	
10	   C	0.571	1.301	2.064	C.2	1	UNK0	0.000	
11	   O	1.127	1.999	2.920	O.2	1	UNK0	0.000	
12	   C	0.950	-0.039	1.626	C.2	1	UNK0	0.000	
13	   O	1.912	-0.758	2.030	O.2	1	UNK0	0.000	
14	   C	0.010	-0.462	0.601	C.2	1	UNK0	0.000	
15	   C	0.160	-1.401	-0.319	C.2	1	UNK0	0.000	
16	   O	-0.947	-1.668	-1.174	O.2	1	UNK0	0.000	
17	   C	1.396	-2.128	-0.469	C.2	1	UNK0	0.000	
18	   N	2.639	-1.638	-0.661	N.pl3	1	UNK0	0.000	
19	   C	3.507	-2.678	-0.712	C.2	1	UNK0	0.000	
20	   N	2.822	-3.844	-0.552	N.2	1	UNK0	0.000	
21	   C	1.523	-3.492	-0.404	C.2	1	UNK0	0.000	
22	   C	0.414	-4.465	-0.202	C.3	1	UNK0	0.000	
23	   C	4.858	-2.555	-0.909	C.2	1	UNK0	0.000	
24	   C	5.367	-1.285	-1.068	C.2	1	UNK0	0.000	
25	   C	4.487	-0.223	-1.019	C.2	1	UNK0	0.000	
26	   C	3.145	-0.403	-0.818	C.2	1	UNK0	0.000	
27	   C	5.768	-3.736	-0.954	C.3	1	UNK0	0.000	
28	   C	-1.056	2.970	0.972	C.3	1	UNK0	0.000	
29	   C	-0.478	3.550	-0.273	C.3	1	UNK0	0.000	
30	   C	-0.771	2.770	-1.530	C.3	1	UNK0	0.000	
31	   N	-0.170	3.430	-2.665	N.4	1	UNK0	0.000	
32	   C	1.018	2.717	-3.097	C.3	1	UNK0	0.000	
33	   C	-1.106	3.382	-3.771	C.3	1	UNK0	0.000	
34	   H	-3.661	-0.616	0.437	 H	1	UNK0	0.000	
35	   H	-0.740	-0.062	3.550	 H	1	UNK0	0.000	
36	   H	-2.281	-1.144	5.149	 H	1	UNK0	0.000	
37	   H	-4.479	-1.946	4.376	 H	1	UNK0	0.000	
38	   H	-1.794	0.509	-0.079	 H	1	UNK0	0.000	
39	   H	-0.277	-4.455	-1.059	 H	1	UNK0	0.000	
40	   H	-0.148	-4.240	0.726	 H	1	UNK0	0.000	
41	   H	0.799	-5.490	-0.105	 H	1	UNK0	0.000	
42	   H	6.441	-1.136	-1.228	 H	1	UNK0	0.000	
43	   H	4.903	0.796	-1.148	 H	1	UNK0	0.000	
44	   H	2.460	0.439	-0.784	 H	1	UNK0	0.000	
45	   H	5.180	-4.662	-0.893	 H	1	UNK0	0.000	
46	   H	6.536	-3.668	-0.145	 H	1	UNK0	0.000	
47	   H	6.247	-3.706	-1.968	 H	1	UNK0	0.000	
48	   H	-0.756	3.614	1.822	 H	1	UNK0	0.000	
49	   H	-2.163	3.012	0.930	 H	1	UNK0	0.000	
50	   H	0.626	3.705	-0.195	 H	1	UNK0	0.000	
51	   H	-0.896	4.568	-0.435	 H	1	UNK0	0.000	
52	   H	-0.345	1.746	-1.498	 H	1	UNK0	0.000	
53	   H	-1.847	2.688	-1.700	 H	1	UNK0	0.000	
54	   H	0.020	4.440	-2.487	 H	1	UNK0	0.000	
55	   H	1.205	2.893	-4.194	 H	1	UNK0	0.000	
56	   H	0.746	1.622	-3.049	 H	1	UNK0	0.000	
57	   H	1.900	2.913	-2.484	 H	1	UNK0	0.000	
58	   H	-0.692	3.915	-4.666	 H	1	UNK0	0.000	
59	   H	-2.103	3.781	-3.490	 H	1	UNK0	0.000	
60	   H	-1.231	2.315	-4.046	 H	1	UNK0	0.000	
@<TRIPOS>BOND
1 1 2 1
2 2 3 2
3 2 7 1
4 3 4 1
5 4 5 2
6 4 8 1
7 5 6 1
8 6 7 2
9 8 9 1
10 8 14 1
11 9 10 1
12 9 28 1
13 10 11 2
14 10 12 1
15 12 13 2
16 12 14 1
17 14 15 2
18 15 16 1
19 15 17 1
20 17 18 1
21 17 21 2
22 18 19 1
23 18 26 1
24 19 20 2
25 19 23 1
26 20 21 1
27 21 22 1
28 23 24 2
29 23 27 1
30 24 25 1
31 25 26 2
32 28 29 1
33 29 30 1
34 30 31 1
35 31 32 1
36 31 33 1
37 3 34 1
38 5 35 1
39 6 36 1
40 7 37 1
41 8 38 1
42 22 39 1
43 22 40 1
44 22 41 1
45 24 42 1
46 25 43 1
47 26 44 1
48 27 45 1
49 27 46 1
50 27 47 1
51 28 48 1
52 28 49 1
53 29 50 1
54 29 51 1
55 30 52 1
56 30 53 1
57 31 54 1
58 32 55 1
59 32 56 1
60 32 57 1
61 33 58 1
62 33 59 1
63 33 60 1
@<TRIPOS>SUBSTRUCTURE
1	UNK0	1	GROUP	1 ****	UNK
# created with PyMOL 2.3.2
@<TRIPOS>MOLECULE
1295
39 42 1                 
SMALL
USER_CHARGES
@<TRIPOS>ATOM
1	  Br	3.681	-1.057	-4.910	Br	1	UNK0	0.000	
2	   C	2.877	-0.509	-3.251	C.2	1	UNK0	0.000	
3	   C	3.269	0.645	-2.623	C.2	1	UNK0	0.000	
4	   C	2.660	1.015	-1.411	C.2	1	UNK0	0.000	
5	   C	1.685	0.246	-0.850	C.2	1	UNK0	0.000	
6	   C	1.300	-0.907	-1.487	C.2	1	UNK0	0.000	
7	   C	1.902	-1.288	-2.699	C.2	1	UNK0	0.000	
8	   C	1.030	0.606	0.404	C.3	1	UNK0	0.000	
9	   C	-0.303	1.154	0.283	C.2	1	UNK0	0.000	
10	   C	-1.331	0.694	1.057	C.2	1	UNK0	0.000	
11	   N	-1.145	-0.331	2.041	N.pl3	1	UNK0	0.000	
12	   C	0.177	-0.840	2.164	C.2	1	UNK0	0.000	
13	   C	1.175	-0.416	1.440	C.2	1	UNK0	0.000	
14	   C	2.414	-1.141	1.859	C.2	1	UNK0	0.000	
15	   O	3.546	-0.935	1.327	O.co2	1	UNK0	0.000	
16	   O	2.036	-1.984	2.852	O.3	1	UNK0	0.000	
17	   C	0.674	-1.921	3.107	C.3	1	UNK0	0.000	
18	   N	-2.584	1.232	0.904	N.pl3	1	UNK0	0.000	
19	   C	-2.805	2.199	0.007	C.2	1	UNK0	0.000	
20	   O	-3.967	2.680	-0.117	O.2	1	UNK0	0.000	
21	   N	-1.788	2.645	-0.749	N.pl3	1	UNK0	0.000	
22	   C	-0.545	2.177	-0.663	C.2	1	UNK0	0.000	
23	   O	0.412	2.588	-1.365	O.2	1	UNK0	0.000	
24	   C	-2.078	3.704	-1.717	C.3	1	UNK0	0.000	
25	   C	-3.636	0.699	1.757	C.3	1	UNK0	0.000	
26	   H	4.039	1.239	-3.079	 H	1	UNK0	0.000	
27	   H	3.032	1.938	-0.980	 H	1	UNK0	0.000	
28	   H	0.540	-1.592	-1.135	 H	1	UNK0	0.000	
29	   H	1.610	-2.194	-3.214	 H	1	UNK0	0.000	
30	   H	1.663	1.485	0.808	 H	1	UNK0	0.000	
31	   H	-1.951	-0.653	2.606	 H	1	UNK0	0.000	
32	   H	0.421	-1.655	4.152	 H	1	UNK0	0.000	
33	   H	0.222	-2.901	2.845	 H	1	UNK0	0.000	
34	   H	-1.154	4.256	-1.982	 H	1	UNK0	0.000	
35	   H	-2.791	4.416	-1.293	 H	1	UNK0	0.000	
36	   H	-2.552	3.205	-2.585	 H	1	UNK0	0.000	
37	   H	-4.561	1.282	1.653	 H	1	UNK0	0.000	
38	   H	-3.753	-0.370	1.557	 H	1	UNK0	0.000	
39	   H	-3.292	0.869	2.819	 H	1	UNK0	0.000	
@<TRIPOS>BOND
1 1 2 1
2 2 3 2
3 2 7 1
4 3 4 1
5 4 5 2
6 5 6 1
7 5 8 1
8 6 7 2
9 8 9 1
10 8 13 1
11 9 10 2
12 9 22 1
13 10 11 1
14 10 18 1
15 11 12 1
16 12 13 2
17 12 17 1
18 13 14 1
19 14 15 2
20 14 16 1
21 16 17 1
22 18 19 1
23 18 25 1
24 19 20 2
25 19 21 1
26 21 22 1
27 21 24 1
28 22 23 2
29 3 26 1
30 4 27 1
31 6 28 1
32 7 29 1
33 8 30 1
34 11 31 1
35 17 32 1
36 17 33 1
37 24 34 1
38 24 35 1
39 24 36 1
40 25 37 1
41 25 38 1
42 25 39 1
@<TRIPOS>SUBSTRUCTURE
1	UNK0	1	GROUP	1 ****	UNK
# created with PyMOL 2.3.2
@<TRIPOS>MOLECULE
1299
51 53 1                 
SMALL
USER_CHARGES
@<TRIPOS>ATOM
1	  Br	0.652	-1.299	-7.159	Br	1	UNK0	0.000	
2	   C	1.263	-0.081	-5.822	C.2	1	UNK0	0.000	
3	   C	2.035	0.992	-6.219	C.2	1	UNK0	0.000	
4	   C	2.470	1.863	-5.252	C.2	1	UNK0	0.000	
5	   C	2.146	1.673	-3.921	C.2	1	UNK0	0.000	
6	   C	1.386	0.617	-3.526	C.2	1	UNK0	0.000	
7	   C	0.945	-0.262	-4.491	C.2	1	UNK0	0.000	
8	   C	1.041	0.414	-2.111	C.2	1	UNK0	0.000	
9	   N	0.328	-0.574	-1.732	N.2	1	UNK0	0.000	
10	   N	-0.009	-0.773	-0.351	N.pl3	1	UNK0	0.000	
11	   C	-1.361	-0.566	0.003	C.2	1	UNK0	0.000	
12	   O	-2.111	-0.221	-0.988	O.2	1	UNK0	0.000	
13	   C	-1.948	-0.703	1.330	C.2	1	UNK0	0.000	
14	   N	-3.287	-0.479	1.525	N.pl3	1	UNK0	0.000	
15	   N	-3.496	-0.682	2.809	N.2	1	UNK0	0.000	
16	   N	-2.410	-1.010	3.428	N.2	1	UNK0	0.000	
17	   C	-1.384	-1.040	2.531	C.2	1	UNK0	0.000	
18	   C	0.020	-1.370	2.772	C.3	1	UNK0	0.000	
19	   N	0.328	-1.679	4.160	N.3	1	UNK0	0.000	
20	   C	1.724	-2.078	4.288	C.3	1	UNK0	0.000	
21	   C	2.615	-0.906	4.588	C.3	1	UNK0	0.000	
22	   O	2.090	0.315	4.207	O.3	1	UNK0	0.000	
23	   C	0.870	0.624	4.789	C.3	1	UNK0	0.000	
24	   C	0.032	-0.595	5.064	C.3	1	UNK0	0.000	
25	   C	-4.240	-0.109	0.550	C.2	1	UNK0	0.000	
26	   N	-4.934	-0.884	-0.320	N.2	1	UNK0	0.000	
27	   O	-5.697	-0.134	-1.031	O.3	1	UNK0	0.000	
28	   N	-5.587	1.118	-0.719	N.2	1	UNK0	0.000	
29	   C	-4.669	1.178	0.283	C.2	1	UNK0	0.000	
30	   N	-4.255	2.377	0.916	N.pl3	1	UNK0	0.000	
31	  Br	3.546	3.360	-5.798	Br	1	UNK0	0.000	
32	   O	2.381	1.215	-7.544	O.3	1	UNK0	0.000	
33	  Cl	-1.235	3.420	2.230	Cl	1	UNK0	0.000	
34	   H	2.502	2.375	-3.174	 H	1	UNK0	0.000	
35	   H	0.343	-1.097	-4.174	 H	1	UNK0	0.000	
36	   H	1.392	1.105	-1.386	 H	1	UNK0	0.000	
37	   H	0.759	-1.056	0.297	 H	1	UNK0	0.000	
38	   H	0.369	-2.260	2.209	 H	1	UNK0	0.000	
39	   H	0.710	-0.535	2.523	 H	1	UNK0	0.000	
40	   H	1.787	-2.792	5.128	 H	1	UNK0	0.000	
41	   H	1.985	-2.625	3.363	 H	1	UNK0	0.000	
42	   H	3.547	-1.048	4.003	 H	1	UNK0	0.000	
43	   H	2.940	-0.889	5.659	 H	1	UNK0	0.000	
44	   H	0.306	1.249	4.055	 H	1	UNK0	0.000	
45	   H	1.043	1.254	5.673	 H	1	UNK0	0.000	
46	   H	-1.035	-0.422	5.180	 H	1	UNK0	0.000	
47	   H	0.379	-0.968	6.076	 H	1	UNK0	0.000	
48	   H	-3.974	2.330	1.913	 H	1	UNK0	0.000	
49	   H	-4.215	3.298	0.442	 H	1	UNK0	0.000	
50	   H	2.095	0.616	-8.298	 H	1	UNK0	0.000	
51	   H	-1.842	4.445	1.540	 H	1	UNK0	0.000	
@<TRIPOS>BOND
1 1 2 1
2 2 3 2
3 2 7 1
4 3 4 1
5 3 32 1
6 4 5 2
7 4 31 1
8 5 6 1
9 6 7 2
10 6 8 1
11 8 9 2
12 9 10 1
13 10 11 1
14 11 12 2
15 11 13 1
16 13 14 1
17 13 17 2
18 14 15 1
19 14 25 1
20 15 16 2
21 16 17 1
22 17 18 1
23 18 19 1
24 19 20 1
25 19 24 1
26 20 21 1
27 21 22 1
28 22 23 1
29 23 24 1
30 25 26 2
31 25 29 1
32 26 27 1
33 27 28 1
34 28 29 2
35 29 30 1
36 5 34 1
37 7 35 1
38 8 36 1
39 10 37 1
40 18 38 1
41 18 39 1
42 20 40 1
43 20 41 1
44 21 42 1
45 21 43 1
46 23 44 1
47 23 45 1
48 24 46 1
49 24 47 1
50 30 48 1
51 30 49 1
52 32 50 1
53 33 51 1
@<TRIPOS>SUBSTRUCTURE
1	UNK0	1	GROUP	1 ****	UNK
# created with PyMOL 2.3.2
@<TRIPOS>MOLECULE
1300
31 34 1                 
SMALL
USER_CHARGES
@<TRIPOS>ATOM
1	  Br	1.702	-2.059	-1.234	Br	1	UNK0	0.000	
2	   C	0.716	-2.087	0.408	C.2	1	UNK0	0.000	
3	   C	0.026	-0.942	0.734	C.2	1	UNK0	0.000	
4	   C	-0.688	-0.969	1.933	C.2	1	UNK0	0.000	
5	   C	-0.687	-2.091	2.728	C.2	1	UNK0	0.000	
6	   C	0.008	-3.243	2.399	C.2	1	UNK0	0.000	
7	   C	0.717	-3.223	1.214	C.2	1	UNK0	0.000	
8	   N	-0.012	-4.389	3.241	N.pl3	1	UNK0	0.000	
9	   O	-0.676	-4.336	4.291	O.2	1	UNK0	0.000	
10	   O	0.653	-5.554	2.973	O.2	1	UNK0	0.000	
11	   N	0.037	0.200	-0.109	N.pl3	1	UNK0	0.000	
12	   C	1.104	1.028	-0.533	C.2	1	UNK0	0.000	
13	   O	2.319	0.742	-0.518	O.2	1	UNK0	0.000	
14	   C	0.589	2.327	-1.016	C.3	1	UNK0	0.000	
15	   C	0.678	3.290	0.148	C.3	1	UNK0	0.000	
16	   O	-0.402	2.815	0.939	O.3	1	UNK0	0.000	
17	   C	-1.414	3.040	-0.032	C.3	1	UNK0	0.000	
18	   C	-0.921	2.141	-1.134	C.3	1	UNK0	0.000	
19	   C	-1.140	0.738	-0.717	C.2	1	UNK0	0.000	
20	   O	-2.226	0.091	-0.873	O.2	1	UNK0	0.000	
21	   C	-1.170	4.469	-0.320	C.2	1	UNK0	0.000	
22	   C	0.149	4.622	-0.237	C.2	1	UNK0	0.000	
23	   H	-1.242	-0.079	2.219	 H	1	UNK0	0.000	
24	   H	-1.246	-2.118	3.669	 H	1	UNK0	0.000	
25	   H	1.275	-4.081	0.903	 H	1	UNK0	0.000	
26	   H	1.051	2.685	-1.930	 H	1	UNK0	0.000	
27	   H	1.625	3.286	0.666	 H	1	UNK0	0.000	
28	   H	-2.405	2.806	0.344	 H	1	UNK0	0.000	
29	   H	-1.293	2.369	-2.128	 H	1	UNK0	0.000	
30	   H	-1.918	5.214	-0.548	 H	1	UNK0	0.000	
31	   H	0.737	5.524	-0.410	 H	1	UNK0	0.000	
@<TRIPOS>BOND
1 1 2 1
2 2 3 2
3 2 7 1
4 3 4 1
5 3 11 1
6 4 5 2
7 5 6 1
8 6 7 2
9 6 8 1
10 8 9 2
11 8 10 1
12 11 12 1
13 11 19 1
14 12 13 2
15 12 14 1
16 14 15 1
17 14 18 1
18 15 16 1
19 15 22 1
20 16 17 1
21 17 18 1
22 17 21 1
23 18 19 1
24 19 20 2
25 21 22 2
26 4 23 1
27 5 24 1
28 7 25 1
29 14 26 1
30 15 27 1
31 17 28 1
32 18 29 1
33 21 30 1
34 22 31 1
@<TRIPOS>SUBSTRUCTURE
1	UNK0	1	GROUP	1 ****	UNK
# created with PyMOL 2.3.2
@<TRIPOS>MOLECULE
1301
39 42 1                 
SMALL
USER_CHARGES
@<TRIPOS>ATOM
1	  Br	1.475	4.940	0.658	Br	1	UNK0	0.000	
2	   C	1.555	3.201	1.426	C.2	1	UNK0	0.000	
3	   C	1.604	3.089	2.796	C.2	1	UNK0	0.000	
4	   C	1.661	1.820	3.324	C.2	1	UNK0	0.000	
5	   C	1.667	0.698	2.488	C.2	1	UNK0	0.000	
6	   C	1.618	0.794	1.112	C.2	1	UNK0	0.000	
7	   C	1.562	2.077	0.596	C.2	1	UNK0	0.000	
8	   N	1.625	-0.344	0.261	N.pl3	1	UNK0	0.000	
9	   C	1.701	-1.696	0.698	C.2	1	UNK0	0.000	
10	   O	2.235	-2.129	1.742	O.2	1	UNK0	0.000	
11	   C	1.026	-2.579	-0.301	C.3	1	UNK0	0.000	
12	   C	-0.438	-2.705	-0.041	C.3	1	UNK0	0.000	
13	   O	-0.959	-1.490	-0.552	O.3	1	UNK0	0.000	
14	   C	-0.440	-1.640	-1.863	C.3	1	UNK0	0.000	
15	   C	1.022	-1.733	-1.572	C.3	1	UNK0	0.000	
16	   C	1.553	-0.413	-1.157	C.2	1	UNK0	0.000	
17	   O	1.886	0.501	-1.940	O.2	1	UNK0	0.000	
18	   C	-1.001	-2.986	-2.188	C.2	1	UNK0	0.000	
19	   C	-1.012	-3.661	-1.025	C.2	1	UNK0	0.000	
20	   C	-0.851	-0.565	-2.776	C.3	1	UNK0	0.000	
21	   C	-0.823	-2.962	1.358	C.3	1	UNK0	0.000	
22	   O	-2.205	-3.037	1.515	O.3	1	UNK0	0.000	
23	   C	1.595	4.283	3.691	C.3	1	UNK0	0.000	
24	   H	1.702	1.683	4.401	 H	1	UNK0	0.000	
25	   H	1.710	-0.283	2.944	 H	1	UNK0	0.000	
26	   H	1.519	2.198	-0.486	 H	1	UNK0	0.000	
27	   H	1.558	-3.523	-0.428	 H	1	UNK0	0.000	
28	   H	1.626	-2.196	-2.375	 H	1	UNK0	0.000	
29	   H	-1.312	-3.296	-3.157	 H	1	UNK0	0.000	
30	   H	-1.369	-4.673	-0.882	 H	1	UNK0	0.000	
31	   H	-0.063	-0.144	-3.424	 H	1	UNK0	0.000	
32	   H	-1.662	-0.926	-3.447	 H	1	UNK0	0.000	
33	   H	-1.301	0.294	-2.200	 H	1	UNK0	0.000	
34	   H	-0.465	-2.145	2.007	 H	1	UNK0	0.000	
35	   H	-0.431	-3.940	1.702	 H	1	UNK0	0.000	
36	   H	-2.612	-2.173	1.804	 H	1	UNK0	0.000	
37	   H	1.996	5.122	3.091	 H	1	UNK0	0.000	
38	   H	0.550	4.583	3.957	 H	1	UNK0	0.000	
39	   H	2.130	4.113	4.625	 H	1	UNK0	0.000	
@<TRIPOS>BOND
1 1 2 1
2 2 3 2
3 2 7 1
4 3 4 1
5 3 23 1
6 4 5 2
7 5 6 1
8 6 7 2
9 6 8 1
10 8 9 1
11 8 16 1
12 9 10 2
13 9 11 1
14 11 12 1
15 11 15 1
16 12 13 1
17 12 19 1
18 12 21 1
19 13 14 1
20 14 15 1
21 14 18 1
22 14 20 1
23 15 16 1
24 16 17 2
25 18 19 2
26 21 22 1
27 4 24 1
28 5 25 1
29 7 26 1
30 11 27 1
31 15 28 1
32 18 29 1
33 19 30 1
34 20 31 1
35 20 32 1
36 20 33 1
37 21 34 1
38 21 35 1
39 22 36 1
40 23 37 1
41 23 38 1
42 23 39 1
@<TRIPOS>SUBSTRUCTURE
1	UNK0	1	GROUP	1 ****	UNK
# created with PyMOL 2.3.2
@<TRIPOS>MOLECULE
1310
54 57 1                 
SMALL
USER_CHARGES
@<TRIPOS>ATOM
1	  Br	-5.823	0.106	1.301	Br	1	UNK0	0.000	
2	   C	-4.266	0.826	2.172	C.2	1	UNK0	0.000	
3	   C	-2.989	0.530	1.691	C.2	1	UNK0	0.000	
4	   C	-1.845	1.016	2.271	C.2	1	UNK0	0.000	
5	   C	-2.027	1.842	3.393	C.2	1	UNK0	0.000	
6	   C	-3.279	2.141	3.878	C.2	1	UNK0	0.000	
7	   C	-4.411	1.639	3.275	C.2	1	UNK0	0.000	
8	   C	-0.481	0.734	1.814	C.3	1	UNK0	0.000	
9	   N	-0.203	-0.669	1.596	N.pl3	1	UNK0	0.000	
10	   C	-0.744	-1.003	0.330	C.2	1	UNK0	0.000	
11	   O	-1.145	-2.125	-0.068	O.2	1	UNK0	0.000	
12	   C	-0.748	0.237	-0.447	C.2	1	UNK0	0.000	
13	   O	-1.138	0.431	-1.621	O.2	1	UNK0	0.000	
14	   C	-0.185	1.263	0.445	C.2	1	UNK0	0.000	
15	   C	0.397	2.374	0.055	C.2	1	UNK0	0.000	
16	   O	0.829	3.251	1.058	O.2	1	UNK0	0.000	
17	   C	0.606	2.704	-1.369	C.2	1	UNK0	0.000	
18	   O	0.361	3.817	-1.994	O.3	1	UNK0	0.000	
19	   C	0.681	3.739	-3.266	C.2	1	UNK0	0.000	
20	   C	1.183	2.474	-3.525	C.2	1	UNK0	0.000	
21	   C	1.128	1.830	-2.304	C.2	1	UNK0	0.000	
22	   C	1.595	2.133	-4.795	C.2	1	UNK0	0.000	
23	   C	1.529	3.017	-5.848	C.2	1	UNK0	0.000	
24	   C	1.032	4.279	-5.607	C.2	1	UNK0	0.000	
25	   C	0.614	4.628	-4.324	C.2	1	UNK0	0.000	
26	   C	0.509	-1.628	2.438	C.3	1	UNK0	0.000	
27	   C	1.996	-1.594	2.140	C.3	1	UNK0	0.000	
28	   C	2.309	-1.918	0.703	C.3	1	UNK0	0.000	
29	   N	3.720	-1.860	0.493	N.4	1	UNK0	0.000	
30	   C	4.338	-0.686	1.072	C.3	1	UNK0	0.000	
31	   C	4.454	-3.005	0.940	C.3	1	UNK0	0.000	
32	   H	-2.909	-0.105	0.825	 H	1	UNK0	0.000	
33	   H	-1.139	2.243	3.873	 H	1	UNK0	0.000	
34	   H	-3.418	2.780	4.745	 H	1	UNK0	0.000	
35	   H	-5.420	1.866	3.646	 H	1	UNK0	0.000	
36	   H	0.239	1.154	2.558	 H	1	UNK0	0.000	
37	   H	1.451	0.827	-2.120	 H	1	UNK0	0.000	
38	   H	1.986	1.149	-4.991	 H	1	UNK0	0.000	
39	   H	1.839	2.796	-6.859	 H	1	UNK0	0.000	
40	   H	0.971	4.995	-6.429	 H	1	UNK0	0.000	
41	   H	0.230	5.632	-4.184	 H	1	UNK0	0.000	
42	   H	0.395	-1.411	3.518	 H	1	UNK0	0.000	
43	   H	0.130	-2.647	2.259	 H	1	UNK0	0.000	
44	   H	2.433	-2.424	2.743	 H	1	UNK0	0.000	
45	   H	2.459	-0.659	2.460	 H	1	UNK0	0.000	
46	   H	1.829	-1.202	-0.001	 H	1	UNK0	0.000	
47	   H	1.966	-2.949	0.460	 H	1	UNK0	0.000	
48	   H	3.878	-1.782	-0.556	 H	1	UNK0	0.000	
49	   H	5.274	-0.458	0.490	 H	1	UNK0	0.000	
50	   H	4.667	-0.909	2.103	 H	1	UNK0	0.000	
51	   H	3.634	0.155	1.009	 H	1	UNK0	0.000	
52	   H	4.739	-2.966	2.008	 H	1	UNK0	0.000	
53	   H	5.408	-3.048	0.378	 H	1	UNK0	0.000	
54	   H	3.927	-3.971	0.681	 H	1	UNK0	0.000	
@<TRIPOS>BOND
1 1 2 1
2 2 3 2
3 2 7 1
4 3 4 1
5 4 5 2
6 4 8 1
7 5 6 1
8 6 7 2
9 8 9 1
10 8 14 1
11 9 10 1
12 9 26 1
13 10 11 2
14 10 12 1
15 12 13 2
16 12 14 1
17 14 15 2
18 15 16 1
19 15 17 1
20 17 18 1
21 17 21 2
22 18 19 1
23 19 20 2
24 19 25 1
25 20 21 1
26 20 22 1
27 22 23 2
28 23 24 1
29 24 25 2
30 26 27 1
31 27 28 1
32 28 29 1
33 29 30 1
34 29 31 1
35 3 32 1
36 5 33 1
37 6 34 1
38 7 35 1
39 8 36 1
40 21 37 1
41 22 38 1
42 23 39 1
43 24 40 1
44 25 41 1
45 26 42 1
46 26 43 1
47 27 44 1
48 27 45 1
49 28 46 1
50 28 47 1
51 29 48 1
52 30 49 1
53 30 50 1
54 30 51 1
55 31 52 1
56 31 53 1
57 31 54 1
@<TRIPOS>SUBSTRUCTURE
1	UNK0	1	GROUP	1 ****	UNK
# created with PyMOL 2.3.2
@<TRIPOS>MOLECULE
1314
47 50 1                 
SMALL
USER_CHARGES
@<TRIPOS>ATOM
1	  Br	4.091	0.900	-3.774	Br	1	UNK0	0.000	
2	   C	2.523	1.897	-4.107	C.2	1	UNK0	0.000	
3	   C	1.375	1.254	-4.503	C.2	1	UNK0	0.000	
4	   C	0.231	1.904	-4.720	C.2	1	UNK0	0.000	
5	   C	0.161	3.320	-4.537	C.2	1	UNK0	0.000	
6	   C	1.269	3.978	-4.121	C.2	1	UNK0	0.000	
7	   C	2.460	3.279	-3.902	C.2	1	UNK0	0.000	
8	   C	1.371	-0.289	-4.367	C.2	1	UNK0	0.000	
9	   N	0.369	-0.638	-3.719	N.2	1	UNK0	0.000	
10	   N	-0.451	-1.449	-3.138	N.pl3	1	UNK0	0.000	
11	   C	-0.740	-0.774	-1.778	C.2	1	UNK0	0.000	
12	   O	-0.206	0.324	-1.669	O.2	1	UNK0	0.000	
13	   C	-1.526	-1.396	-0.792	C.2	1	UNK0	0.000	
14	   N	-2.322	-2.420	-0.846	N.2	1	UNK0	0.000	
15	   N	-2.613	-2.804	0.349	N.2	1	UNK0	0.000	
16	   N	-1.998	-2.020	1.316	N.pl3	1	UNK0	0.000	
17	   C	-1.313	-1.126	0.638	C.2	1	UNK0	0.000	
18	   C	-0.576	0.100	0.931	C.3	1	UNK0	0.000	
19	   N	0.562	0.308	1.602	N.3	1	UNK0	0.000	
20	   C	0.980	1.696	1.465	C.3	1	UNK0	0.000	
21	   C	1.354	2.177	2.835	C.3	1	UNK0	0.000	
22	   C	1.074	1.008	3.774	C.3	1	UNK0	0.000	
23	   C	1.082	-0.172	2.771	C.3	1	UNK0	0.000	
24	   C	-2.195	-2.381	2.648	C.2	1	UNK0	0.000	
25	   N	-1.368	-3.308	3.282	N.2	1	UNK0	0.000	
26	   O	-1.837	-3.535	4.444	O.3	1	UNK0	0.000	
27	   N	-2.891	-2.858	4.670	N.2	1	UNK0	0.000	
28	   C	-3.141	-2.121	3.551	C.2	1	UNK0	0.000	
29	   N	-4.286	-1.262	3.490	N.pl3	1	UNK0	0.000	
30	   H	-0.629	1.380	-5.094	 H	1	UNK0	0.000	
31	   H	-0.715	3.855	-4.744	 H	1	UNK0	0.000	
32	   H	1.267	5.081	-3.919	 H	1	UNK0	0.000	
33	   H	3.313	3.838	-3.514	 H	1	UNK0	0.000	
34	   H	2.105	-0.854	-4.737	 H	1	UNK0	0.000	
35	   H	-0.910	-2.347	-3.265	 H	1	UNK0	0.000	
36	   H	-0.869	1.000	0.282	 H	1	UNK0	0.000	
37	   H	-1.363	0.564	1.869	 H	1	UNK0	0.000	
38	   H	0.217	2.282	0.954	 H	1	UNK0	0.000	
39	   H	1.886	1.785	0.782	 H	1	UNK0	0.000	
40	   H	2.397	2.526	2.891	 H	1	UNK0	0.000	
41	   H	0.726	3.079	3.102	 H	1	UNK0	0.000	
42	   H	1.868	0.923	4.497	 H	1	UNK0	0.000	
43	   H	0.047	1.057	4.122	 H	1	UNK0	0.000	
44	   H	2.205	-0.353	2.630	 H	1	UNK0	0.000	
45	   H	0.624	-1.052	3.241	 H	1	UNK0	0.000	
46	   H	-4.229	-0.368	3.998	 H	1	UNK0	0.000	
47	   H	-5.137	-1.559	3.017	 H	1	UNK0	0.000	
@<TRIPOS>BOND
1 1 2 1
2 2 3 2
3 2 7 1
4 3 4 1
5 3 8 1
6 4 5 2
7 5 6 1
8 6 7 2
9 8 9 2
10 9 10 1
11 10 11 1
12 11 12 2
13 11 13 1
14 13 14 1
15 13 17 2
16 14 15 2
17 15 16 1
18 16 17 1
19 16 24 1
20 17 18 1
21 18 19 1
22 19 20 1
23 19 23 1
24 20 21 1
25 21 22 1
26 22 23 1
27 24 25 2
28 24 28 1
29 25 26 1
30 26 27 1
31 27 28 2
32 28 29 1
33 4 30 1
34 5 31 1
35 6 32 1
36 7 33 1
37 8 34 1
38 10 35 1
39 18 36 1
40 18 37 1
41 20 38 1
42 20 39 1
43 21 40 1
44 21 41 1
45 22 42 1
46 22 43 1
47 23 44 1
48 23 45 1
49 29 46 1
50 29 47 1
@<TRIPOS>SUBSTRUCTURE
1	UNK0	1	GROUP	1 ****	UNK
# created with PyMOL 2.3.2
@<TRIPOS>MOLECULE
1315
52 55 1                 
SMALL
USER_CHARGES
@<TRIPOS>ATOM
1	  Br	1.356	1.607	-5.024	Br	1	UNK0	0.000	
2	   C	-0.359	2.151	-4.310	C.2	1	UNK0	0.000	
3	   C	-0.537	2.328	-2.968	C.2	1	UNK0	0.000	
4	   C	-1.734	2.705	-2.430	C.2	1	UNK0	0.000	
5	   C	-2.785	2.903	-3.339	C.2	1	UNK0	0.000	
6	   C	-2.645	2.736	-4.689	C.2	1	UNK0	0.000	
7	   C	-1.414	2.356	-5.170	C.2	1	UNK0	0.000	
8	   C	-2.006	2.897	-1.029	C.2	1	UNK0	0.000	
9	   O	-3.245	3.254	-0.777	O.2	1	UNK0	0.000	
10	   C	-1.132	2.761	0.143	C.3	1	UNK0	0.000	
11	   N	-0.931	1.393	0.570	N.pl3	1	UNK0	0.000	
12	   C	-1.859	0.659	1.266	C.2	1	UNK0	0.000	
13	   C	-1.276	-0.545	1.536	C.2	1	UNK0	0.000	
14	   C	-1.997	-1.514	2.240	C.2	1	UNK0	0.000	
15	   C	-3.284	-1.238	2.650	C.2	1	UNK0	0.000	
16	   C	-3.875	-0.023	2.380	C.2	1	UNK0	0.000	
17	   C	-3.145	0.938	1.676	C.2	1	UNK0	0.000	
18	   N	-0.029	-0.526	1.016	N.pl3	1	UNK0	0.000	
19	   C	0.198	0.649	0.425	C.cat	1	UNK0	0.000	
20	   N	1.337	1.039	-0.102	N.pl3	1	UNK0	0.000	
21	   C	0.880	-1.649	1.167	C.3	1	UNK0	0.000	
22	   C	0.746	-2.727	0.172	C.3	1	UNK0	0.000	
23	   N	0.984	-2.446	-1.198	N.3	1	UNK0	0.000	
24	   C	0.560	-3.591	-2.044	C.3	1	UNK0	0.000	
25	   C	1.227	-4.865	-1.641	C.3	1	UNK0	0.000	
26	   O	2.582	-4.730	-1.948	O.3	1	UNK0	0.000	
27	   C	3.145	-3.653	-1.310	C.3	1	UNK0	0.000	
28	   C	2.421	-2.348	-1.504	C.3	1	UNK0	0.000	
29	   H	0.306	2.170	-2.342	 H	1	UNK0	0.000	
30	   H	-3.776	3.207	-3.008	 H	1	UNK0	0.000	
31	   H	-3.490	2.898	-5.377	 H	1	UNK0	0.000	
32	   H	-1.285	2.219	-6.246	 H	1	UNK0	0.000	
33	   H	-0.116	3.231	-0.048	 H	1	UNK0	0.000	
34	   H	-1.594	3.322	1.011	 H	1	UNK0	0.000	
35	   H	-1.524	-2.469	2.444	 H	1	UNK0	0.000	
36	   H	-3.818	-2.004	3.189	 H	1	UNK0	0.000	
37	   H	-4.885	0.169	2.711	 H	1	UNK0	0.000	
38	   H	-3.606	1.886	1.477	 H	1	UNK0	0.000	
39	   H	2.150	0.435	-0.186	 H	1	UNK0	0.000	
40	   H	1.420	2.015	-0.419	 H	1	UNK0	0.000	
41	   H	1.920	-1.258	1.211	 H	1	UNK0	0.000	
42	   H	0.703	-2.091	2.175	 H	1	UNK0	0.000	
43	   H	-0.250	-3.253	0.325	 H	1	UNK0	0.000	
44	   H	1.477	-3.538	0.477	 H	1	UNK0	0.000	
45	   H	-0.540	-3.655	-2.094	 H	1	UNK0	0.000	
46	   H	0.927	-3.325	-3.052	 H	1	UNK0	0.000	
47	   H	0.831	-5.664	-2.301	 H	1	UNK0	0.000	
48	   H	1.062	-5.190	-0.613	 H	1	UNK0	0.000	
49	   H	4.160	-3.510	-1.785	 H	1	UNK0	0.000	
50	   H	3.312	-3.908	-0.242	 H	1	UNK0	0.000	
51	   H	2.941	-1.578	-0.946	 H	1	UNK0	0.000	
52	   H	2.437	-2.157	-2.621	 H	1	UNK0	0.000	
@<TRIPOS>BOND
1 1 2 1
2 2 3 2
3 2 7 1
4 3 4 1
5 4 5 2
6 4 8 1
7 5 6 1
8 6 7 2
9 8 9 2
10 8 10 1
11 10 11 1
12 11 12 1
13 11 19 1
14 12 13 1
15 12 17 2
16 13 14 2
17 13 18 1
18 14 15 1
19 15 16 2
20 16 17 1
21 18 19 1
22 18 21 1
23 19 20 2
24 21 22 1
25 22 23 1
26 23 24 1
27 23 28 1
28 24 25 1
29 25 26 1
30 26 27 1
31 27 28 1
32 3 29 1
33 5 30 1
34 6 31 1
35 7 32 1
36 10 33 1
37 10 34 1
38 14 35 1
39 15 36 1
40 16 37 1
41 17 38 1
42 20 39 1
43 20 40 1
44 21 41 1
45 21 42 1
46 22 43 1
47 22 44 1
48 24 45 1
49 24 46 1
50 25 47 1
51 25 48 1
52 27 49 1
53 27 50 1
54 28 51 1
55 28 52 1
@<TRIPOS>SUBSTRUCTURE
1	UNK0	1	GROUP	1 ****	UNK
# created with PyMOL 2.3.2
@<TRIPOS>MOLECULE
1325
51 54 1                 
SMALL
USER_CHARGES
@<TRIPOS>ATOM
1	  Br	6.677	1.663	2.637	Br	1	UNK0	0.000	
2	   C	5.005	1.495	1.717	C.2	1	UNK0	0.000	
3	   C	4.660	2.333	0.686	C.2	1	UNK0	0.000	
4	   C	3.457	2.191	0.043	C.2	1	UNK0	0.000	
5	   C	2.516	1.203	0.386	C.2	1	UNK0	0.000	
6	   C	2.878	0.384	1.410	C.2	1	UNK0	0.000	
7	   C	4.090	0.526	2.058	C.2	1	UNK0	0.000	
8	   C	1.278	1.168	-0.351	C.3	1	UNK0	0.000	
9	   N	0.942	-0.015	-1.087	N.pl3	1	UNK0	0.000	
10	   C	-0.452	0.200	-1.459	C.2	1	UNK0	0.000	
11	   O	-1.039	-0.303	-2.442	O.2	1	UNK0	0.000	
12	   C	-1.031	1.101	-0.480	C.2	1	UNK0	0.000	
13	   O	-2.211	1.558	-0.415	O.2	1	UNK0	0.000	
14	   C	0.051	1.402	0.463	C.2	1	UNK0	0.000	
15	   C	-0.095	1.814	1.692	C.2	1	UNK0	0.000	
16	   O	1.054	2.109	2.436	O.2	1	UNK0	0.000	
17	   C	-1.429	1.966	2.306	C.2	1	UNK0	0.000	
18	   O	-1.836	3.015	3.012	O.3	1	UNK0	0.000	
19	   C	-3.066	2.864	3.430	C.2	1	UNK0	0.000	
20	   C	-3.556	1.648	3.002	C.2	1	UNK0	0.000	
21	   C	-2.498	1.103	2.294	C.2	1	UNK0	0.000	
22	   C	-4.838	1.257	3.317	C.2	1	UNK0	0.000	
23	   C	-5.695	2.035	4.064	C.2	1	UNK0	0.000	
24	   C	-5.208	3.255	4.497	C.2	1	UNK0	0.000	
25	   C	-3.928	3.661	4.190	C.2	1	UNK0	0.000	
26	   C	1.701	-1.173	-1.504	C.3	1	UNK0	0.000	
27	   C	1.645	-2.380	-0.666	C.3	1	UNK0	0.000	
28	   N	0.356	-2.991	-0.472	N.4	1	UNK0	0.000	
29	   C	-0.451	-2.286	0.483	C.3	1	UNK0	0.000	
30	   C	-0.325	-3.364	-1.679	C.3	1	UNK0	0.000	
31	   H	5.368	3.101	0.404	 H	1	UNK0	0.000	
32	   H	3.250	2.890	-0.763	 H	1	UNK0	0.000	
33	   H	2.209	-0.379	1.745	 H	1	UNK0	0.000	
34	   H	4.351	-0.147	2.877	 H	1	UNK0	0.000	
35	   H	1.252	2.005	-1.116	 H	1	UNK0	0.000	
36	   H	-2.504	0.137	1.814	 H	1	UNK0	0.000	
37	   H	-5.202	0.303	2.973	 H	1	UNK0	0.000	
38	   H	-6.706	1.749	4.325	 H	1	UNK0	0.000	
39	   H	-5.834	3.910	5.086	 H	1	UNK0	0.000	
40	   H	-3.546	4.615	4.527	 H	1	UNK0	0.000	
41	   H	2.769	-0.902	-1.708	 H	1	UNK0	0.000	
42	   H	1.307	-1.458	-2.530	 H	1	UNK0	0.000	
43	   H	2.042	-2.170	0.345	 H	1	UNK0	0.000	
44	   H	2.294	-3.176	-1.141	 H	1	UNK0	0.000	
45	   H	0.590	-3.923	0.016	 H	1	UNK0	0.000	
46	   H	0.157	-1.441	0.858	 H	1	UNK0	0.000	
47	   H	-1.454	-1.996	0.105	 H	1	UNK0	0.000	
48	   H	-0.677	-2.890	1.409	 H	1	UNK0	0.000	
49	   H	0.229	-3.160	-2.609	 H	1	UNK0	0.000	
50	   H	-0.539	-4.474	-1.722	 H	1	UNK0	0.000	
51	   H	-1.366	-2.920	-1.699	 H	1	UNK0	0.000	
@<TRIPOS>BOND
1 1 2 1
2 2 3 2
3 2 7 1
4 3 4 1
5 4 5 2
6 5 6 1
7 5 8 1
8 6 7 2
9 8 9 1
10 8 14 1
11 9 10 1
12 9 26 1
13 10 11 2
14 10 12 1
15 12 13 2
16 12 14 1
17 14 15 2
18 15 16 1
19 15 17 1
20 17 18 1
21 17 21 2
22 18 19 1
23 19 20 2
24 19 25 1
25 20 21 1
26 20 22 1
27 22 23 2
28 23 24 1
29 24 25 2
30 26 27 1
31 27 28 1
32 28 29 1
33 28 30 1
34 3 31 1
35 4 32 1
36 6 33 1
37 7 34 1
38 8 35 1
39 21 36 1
40 22 37 1
41 23 38 1
42 24 39 1
43 25 40 1
44 26 41 1
45 26 42 1
46 27 43 1
47 27 44 1
48 28 45 1
49 29 46 1
50 29 47 1
51 29 48 1
52 30 49 1
53 30 50 1
54 30 51 1
@<TRIPOS>SUBSTRUCTURE
1	UNK0	1	GROUP	1 ****	UNK
# created with PyMOL 2.3.2
@<TRIPOS>MOLECULE
1329
48 51 1                 
SMALL
USER_CHARGES
@<TRIPOS>ATOM
1	  Br	-3.452	4.924	-3.046	Br	1	UNK0	0.000	
2	   C	-2.018	3.852	-2.379	C.2	1	UNK0	0.000	
3	   C	-1.432	4.143	-1.150	C.2	1	UNK0	0.000	
4	   C	-0.403	3.366	-0.666	C.2	1	UNK0	0.000	
5	   C	0.057	2.294	-1.391	C.2	1	UNK0	0.000	
6	   C	-0.534	2.020	-2.602	C.2	1	UNK0	0.000	
7	   C	-1.563	2.773	-3.121	C.2	1	UNK0	0.000	
8	   C	0.207	3.649	0.618	C.2	1	UNK0	0.000	
9	   C	0.582	2.663	1.435	C.2	1	UNK0	0.000	
10	   O	0.459	1.293	1.212	O.3	1	UNK0	0.000	
11	   C	0.960	0.584	2.269	C.2	1	UNK0	0.000	
12	   C	1.439	1.450	3.246	C.2	1	UNK0	0.000	
13	   C	1.992	0.903	4.393	C.2	1	UNK0	0.000	
14	   C	2.060	-0.463	4.546	C.2	1	UNK0	0.000	
15	   C	1.568	-1.302	3.543	C.2	1	UNK0	0.000	
16	   C	1.015	-0.788	2.400	C.2	1	UNK0	0.000	
17	   C	0.442	-1.708	1.416	C.3	1	UNK0	0.000	
18	   N	0.776	-1.470	0.059	N.4	1	UNK0	0.000	
19	   C	-0.458	-1.356	-0.701	C.3	1	UNK0	0.000	
20	   C	-0.427	-1.972	-2.057	C.3	1	UNK0	0.000	
21	   N	0.072	-3.301	-2.112	N.3	1	UNK0	0.000	
22	   C	0.752	-3.666	-0.913	C.3	1	UNK0	0.000	
23	   C	1.607	-2.535	-0.450	C.3	1	UNK0	0.000	
24	   C	0.903	-3.466	-3.286	C.3	1	UNK0	0.000	
25	   O	1.682	-2.661	3.792	O.2	1	UNK0	0.000	
26	   C	1.212	2.816	2.744	C.2	1	UNK0	0.000	
27	   O	1.515	3.868	3.364	O.2	1	UNK0	0.000	
28	   H	-1.822	5.004	-0.606	 H	1	UNK0	0.000	
29	   H	0.870	1.690	-1.010	 H	1	UNK0	0.000	
30	   H	-0.156	1.150	-3.157	 H	1	UNK0	0.000	
31	   H	-2.011	2.513	-4.085	 H	1	UNK0	0.000	
32	   H	0.360	4.665	0.927	 H	1	UNK0	0.000	
33	   H	2.356	1.606	5.128	 H	1	UNK0	0.000	
34	   H	2.500	-0.828	5.457	 H	1	UNK0	0.000	
35	   H	0.813	-2.754	1.695	 H	1	UNK0	0.000	
36	   H	-0.647	-1.770	1.560	 H	1	UNK0	0.000	
37	   H	1.355	-0.587	-0.075	 H	1	UNK0	0.000	
38	   H	-0.787	-0.312	-0.829	 H	1	UNK0	0.000	
39	   H	-1.315	-1.828	-0.135	 H	1	UNK0	0.000	
40	   H	-1.508	-2.004	-2.412	 H	1	UNK0	0.000	
41	   H	0.056	-1.307	-2.843	 H	1	UNK0	0.000	
42	   H	-0.027	-3.850	-0.113	 H	1	UNK0	0.000	
43	   H	1.343	-4.613	-1.008	 H	1	UNK0	0.000	
44	   H	2.276	-2.158	-1.283	 H	1	UNK0	0.000	
45	   H	2.289	-2.924	0.347	 H	1	UNK0	0.000	
46	   H	1.460	-2.536	-3.564	 H	1	UNK0	0.000	
47	   H	1.629	-4.303	-3.216	 H	1	UNK0	0.000	
48	   H	0.207	-3.627	-4.160	 H	1	UNK0	0.000	
@<TRIPOS>BOND
1 1 2 1
2 2 3 2
3 2 7 1
4 3 4 1
5 4 5 2
6 4 8 1
7 5 6 1
8 6 7 2
9 8 9 2
10 9 10 1
11 9 26 1
12 10 11 1
13 11 12 2
14 11 16 1
15 12 13 1
16 12 26 1
17 13 14 2
18 14 15 1
19 15 16 2
20 15 25 1
21 16 17 1
22 17 18 1
23 18 19 1
24 18 23 1
25 19 20 1
26 20 21 1
27 21 22 1
28 21 24 1
29 22 23 1
30 26 27 2
31 3 28 1
32 5 29 1
33 6 30 1
34 7 31 1
35 8 32 1
36 13 33 1
37 14 34 1
38 17 35 1
39 17 36 1
40 18 37 1
41 19 38 1
42 19 39 1
43 20 40 1
44 20 41 1
45 22 42 1
46 22 43 1
47 23 44 1
48 23 45 1
49 24 46 1
50 24 47 1
51 24 48 1
@<TRIPOS>SUBSTRUCTURE
1	UNK0	1	GROUP	1 ****	UNK
# created with PyMOL 2.3.2
@<TRIPOS>MOLECULE
1337
55 58 1                 
SMALL
USER_CHARGES
@<TRIPOS>ATOM
1	  Br	5.264	5.539	-5.541	Br	1	UNK0	0.000	
2	   C	4.689	4.183	-4.316	C.2	1	UNK0	0.000	
3	   C	5.581	3.721	-3.374	C.2	1	UNK0	0.000	
4	   C	5.187	2.747	-2.486	C.2	1	UNK0	0.000	
5	   C	3.919	2.183	-2.472	C.2	1	UNK0	0.000	
6	   C	3.051	2.666	-3.425	C.2	1	UNK0	0.000	
7	   C	3.436	3.659	-4.339	C.2	1	UNK0	0.000	
8	   N	3.618	1.203	-1.532	N.pl3	1	UNK0	0.000	
9	   C	2.414	0.501	-1.344	C.2	1	UNK0	0.000	
10	   O	1.425	0.718	-2.072	O.2	1	UNK0	0.000	
11	   C	2.243	-0.528	-0.286	C.3	1	UNK0	0.000	
12	   N	0.923	-1.084	-0.317	N.pl3	1	UNK0	0.000	
13	   C	0.473	-2.088	0.576	C.2	1	UNK0	0.000	
14	   O	1.285	-2.510	1.443	O.2	1	UNK0	0.000	
15	   C	-0.916	-2.608	0.470	C.3	1	UNK0	0.000	
16	   O	-1.540	-1.976	-0.539	O.3	1	UNK0	0.000	
17	   C	-2.893	-1.854	-0.494	C.3	1	UNK0	0.000	
18	   O	-3.265	-0.881	-1.433	O.3	1	UNK0	0.000	
19	   C	-3.237	0.337	-0.799	C.3	1	UNK0	0.000	
20	   O	-3.065	0.129	0.555	O.3	1	UNK0	0.000	
21	   C	-3.406	-1.225	0.780	C.3	1	UNK0	0.000	
22	   C	-2.754	-1.776	1.989	C.3	1	UNK0	0.000	
23	   O	-3.649	-2.572	2.740	O.3	1	UNK0	0.000	
24	   C	-2.965	-3.690	3.145	C.3	1	UNK0	0.000	
25	   O	-2.044	-3.905	2.153	O.3	1	UNK0	0.000	
26	   C	-1.577	-2.631	1.797	C.3	1	UNK0	0.000	
27	   C	-3.986	-4.832	3.219	C.3	1	UNK0	0.000	
28	   C	-2.372	-3.566	4.524	C.3	1	UNK0	0.000	
29	   C	-4.556	1.094	-0.960	C.3	1	UNK0	0.000	
30	   C	-2.152	1.252	-1.343	C.3	1	UNK0	0.000	
31	   H	6.606	4.129	-3.332	 H	1	UNK0	0.000	
32	   H	5.930	2.424	-1.770	 H	1	UNK0	0.000	
33	   H	2.060	2.295	-3.492	 H	1	UNK0	0.000	
34	   H	2.716	3.992	-5.055	 H	1	UNK0	0.000	
35	   H	4.405	0.941	-0.853	 H	1	UNK0	0.000	
36	   H	2.949	-1.371	-0.546	 H	1	UNK0	0.000	
37	   H	2.558	-0.178	0.713	 H	1	UNK0	0.000	
38	   H	0.256	-0.732	-1.036	 H	1	UNK0	0.000	
39	   H	-0.787	-3.691	0.162	 H	1	UNK0	0.000	
40	   H	-3.463	-2.767	-0.761	 H	1	UNK0	0.000	
41	   H	-4.509	-1.344	0.779	 H	1	UNK0	0.000	
42	   H	-2.525	-0.908	2.675	 H	1	UNK0	0.000	
43	   H	-0.816	-2.376	2.579	 H	1	UNK0	0.000	
44	   H	-3.498	-5.665	3.740	 H	1	UNK0	0.000	
45	   H	-4.370	-5.082	2.219	 H	1	UNK0	0.000	
46	   H	-4.832	-4.440	3.820	 H	1	UNK0	0.000	
47	   H	-1.439	-4.116	4.655	 H	1	UNK0	0.000	
48	   H	-2.217	-2.502	4.800	 H	1	UNK0	0.000	
49	   H	-3.080	-3.964	5.309	 H	1	UNK0	0.000	
50	   H	-4.887	0.993	-2.000	 H	1	UNK0	0.000	
51	   H	-5.298	0.771	-0.207	 H	1	UNK0	0.000	
52	   H	-4.321	2.163	-0.772	 H	1	UNK0	0.000	
53	   H	-2.570	2.139	-1.862	 H	1	UNK0	0.000	
54	   H	-1.502	0.714	-2.074	 H	1	UNK0	0.000	
55	   H	-1.507	1.651	-0.521	 H	1	UNK0	0.000	
@<TRIPOS>BOND
1 1 2 1
2 2 3 2
3 2 7 1
4 3 4 1
5 4 5 2
6 5 6 1
7 5 8 1
8 6 7 2
9 8 9 1
10 9 10 2
11 9 11 1
12 11 12 1
13 12 13 1
14 13 14 2
15 13 15 1
16 15 16 1
17 15 26 1
18 16 17 1
19 17 18 1
20 17 21 1
21 18 19 1
22 19 20 1
23 19 29 1
24 19 30 1
25 20 21 1
26 21 22 1
27 22 23 1
28 22 26 1
29 23 24 1
30 24 25 1
31 24 27 1
32 24 28 1
33 25 26 1
34 3 31 1
35 4 32 1
36 6 33 1
37 7 34 1
38 8 35 1
39 11 36 1
40 11 37 1
41 12 38 1
42 15 39 1
43 17 40 1
44 21 41 1
45 22 42 1
46 26 43 1
47 27 44 1
48 27 45 1
49 27 46 1
50 28 47 1
51 28 48 1
52 28 49 1
53 29 50 1
54 29 51 1
55 29 52 1
56 30 53 1
57 30 54 1
58 30 55 1
@<TRIPOS>SUBSTRUCTURE
1	UNK0	1	GROUP	1 ****	UNK
# created with PyMOL 2.3.2
@<TRIPOS>MOLECULE
1341
50 53 1                 
SMALL
USER_CHARGES
@<TRIPOS>ATOM
1	  Cl	8.010	-0.854	-2.829	Cl	1	UNK0	0.000	
2	   C	6.291	-1.064	-2.522	C.2	1	UNK0	0.000	
3	   C	5.428	0.010	-2.499	C.2	1	UNK0	0.000	
4	   C	4.077	-0.161	-2.256	C.2	1	UNK0	0.000	
5	   C	3.525	-1.406	-2.027	C.2	1	UNK0	0.000	
6	   C	4.386	-2.483	-2.051	C.2	1	UNK0	0.000	
7	   C	5.754	-2.314	-2.296	C.2	1	UNK0	0.000	
8	   C	2.093	-1.558	-1.775	C.2	1	UNK0	0.000	
9	   N	1.370	-2.674	-1.522	N.pl3	1	UNK0	0.000	
10	   C	0.079	-2.321	-1.353	C.2	1	UNK0	0.000	
11	   N	-0.063	-0.985	-1.490	N.pl3	1	UNK0	0.000	
12	   C	1.182	-0.525	-1.750	C.2	1	UNK0	0.000	
13	   C	-1.271	-0.192	-1.388	C.3	1	UNK0	0.000	
14	   C	-1.468	0.253	0.021	C.2	1	UNK0	0.000	
15	   O	-0.633	-0.095	0.858	O.2	1	UNK0	0.000	
16	   N	-2.587	1.037	0.308	N.pl3	1	UNK0	0.000	
17	   C	-2.911	1.545	1.593	C.2	1	UNK0	0.000	
18	   C	-4.212	2.009	1.827	C.2	1	UNK0	0.000	
19	   C	-4.551	2.519	3.039	C.2	1	UNK0	0.000	
20	   C	-3.630	2.594	4.071	C.2	1	UNK0	0.000	
21	   C	-2.364	2.140	3.833	C.2	1	UNK0	0.000	
22	   C	-1.984	1.609	2.594	C.2	1	UNK0	0.000	
23	   C	-4.024	3.155	5.388	C.3	1	UNK0	0.000	
24	   C	-3.756	4.663	5.362	C.3	1	UNK0	0.000	
25	   C	-0.739	-3.529	-1.075	C.3	1	UNK0	0.000	
26	   C	0.216	-4.670	-1.001	C.3	1	UNK0	0.000	
27	   C	1.535	-4.103	-1.375	C.3	1	UNK0	0.000	
28	   H	5.853	0.987	-2.677	 H	1	UNK0	0.000	
29	   H	3.417	0.702	-2.243	 H	1	UNK0	0.000	
30	   H	4.005	-3.479	-1.879	 H	1	UNK0	0.000	
31	   H	6.426	-3.152	-2.314	 H	1	UNK0	0.000	
32	   H	1.424	0.537	-1.918	 H	1	UNK0	0.000	
33	   H	-2.142	-0.767	-1.762	 H	1	UNK0	0.000	
34	   H	-1.143	0.668	-2.083	 H	1	UNK0	0.000	
35	   H	-3.284	1.310	-0.463	 H	1	UNK0	0.000	
36	   H	-4.954	1.954	1.016	 H	1	UNK0	0.000	
37	   H	-5.576	2.885	3.224	 H	1	UNK0	0.000	
38	   H	-1.596	2.174	4.609	 H	1	UNK0	0.000	
39	   H	-0.938	1.276	2.483	 H	1	UNK0	0.000	
40	   H	-3.447	2.666	6.191	 H	1	UNK0	0.000	
41	   H	-5.103	3.001	5.564	 H	1	UNK0	0.000	
42	   H	-4.486	5.155	4.708	 H	1	UNK0	0.000	
43	   H	-2.707	4.827	5.086	 H	1	UNK0	0.000	
44	   H	-3.895	5.070	6.391	 H	1	UNK0	0.000	
45	   H	-1.526	-3.664	-1.847	 H	1	UNK0	0.000	
46	   H	-1.236	-3.422	-0.071	 H	1	UNK0	0.000	
47	   H	0.225	-5.118	0.037	 H	1	UNK0	0.000	
48	   H	-0.107	-5.496	-1.707	 H	1	UNK0	0.000	
49	   H	1.914	-4.564	-2.319	 H	1	UNK0	0.000	
50	   H	2.234	-4.295	-0.512	 H	1	UNK0	0.000	
@<TRIPOS>BOND
1 1 2 1
2 2 3 2
3 2 7 1
4 3 4 1
5 4 5 2
6 5 6 1
7 5 8 1
8 6 7 2
9 8 9 1
10 8 12 2
11 9 10 1
12 9 27 1
13 10 11 2
14 10 25 1
15 11 12 1
16 11 13 1
17 13 14 1
18 14 15 2
19 14 16 1
20 16 17 1
21 17 18 2
22 17 22 1
23 18 19 1
24 19 20 2
25 20 21 1
26 20 23 1
27 21 22 2
28 23 24 1
29 25 26 1
30 26 27 1
31 3 28 1
32 4 29 1
33 6 30 1
34 7 31 1
35 12 32 1
36 13 33 1
37 13 34 1
38 16 35 1
39 18 36 1
40 19 37 1
41 21 38 1
42 22 39 1
43 23 40 1
44 23 41 1
45 24 42 1
46 24 43 1
47 24 44 1
48 25 45 1
49 25 46 1
50 26 47 1
51 26 48 1
52 27 49 1
53 27 50 1
@<TRIPOS>SUBSTRUCTURE
1	UNK0	1	GROUP	1 ****	UNK
# created with PyMOL 2.3.2
@<TRIPOS>MOLECULE
1343
56 59 1                 
SMALL
USER_CHARGES
@<TRIPOS>ATOM
1	  Br	-2.468	4.713	-2.953	Br	1	UNK0	0.000	
2	   C	-0.850	3.874	-3.494	C.2	1	UNK0	0.000	
3	   C	-0.383	2.805	-2.760	C.2	1	UNK0	0.000	
4	   C	0.793	2.228	-3.189	C.2	1	UNK0	0.000	
5	   C	1.482	2.682	-4.294	C.2	1	UNK0	0.000	
6	   C	1.015	3.752	-5.028	C.2	1	UNK0	0.000	
7	   C	-0.160	4.343	-4.615	C.2	1	UNK0	0.000	
8	   O	1.717	4.207	-6.145	O.3	1	UNK0	0.000	
9	   C	1.298	5.283	-6.929	C.3	1	UNK0	0.000	
10	   O	2.669	2.094	-4.720	O.3	1	UNK0	0.000	
11	   C	3.282	1.009	-4.099	C.3	1	UNK0	0.000	
12	   C	-1.109	2.321	-1.591	C.2	1	UNK0	0.000	
13	   N	-0.748	1.346	-0.863	N.2	1	UNK0	0.000	
14	   N	-1.470	0.900	0.261	N.pl3	1	UNK0	0.000	
15	   C	-0.760	0.161	1.247	C.2	1	UNK0	0.000	
16	   N	-1.277	-0.350	2.394	N.pl3	1	UNK0	0.000	
17	   C	-0.287	-0.987	3.071	C.2	1	UNK0	0.000	
18	   N	-0.229	-1.653	4.230	N.2	1	UNK0	0.000	
19	   C	0.912	-2.203	4.684	C.2	1	UNK0	0.000	
20	   N	2.036	-2.079	3.945	N.2	1	UNK0	0.000	
21	   C	2.053	-1.432	2.785	C.2	1	UNK0	0.000	
22	   C	0.879	-0.869	2.325	C.2	1	UNK0	0.000	
23	   N	0.547	-0.178	1.248	N.2	1	UNK0	0.000	
24	   O	3.200	-1.286	1.998	O.3	1	UNK0	0.000	
25	   N	0.956	-2.914	5.930	N.pl3	1	UNK0	0.000	
26	   C	-2.639	-0.234	2.815	C.3	1	UNK0	0.000	
27	   O	-2.836	0.674	3.846	O.3	1	UNK0	0.000	
28	   C	-3.998	0.357	4.489	C.3	1	UNK0	0.000	
29	   C	-4.462	-0.993	4.061	C.3	1	UNK0	0.000	
30	   C	-3.235	-1.531	3.322	C.3	1	UNK0	0.000	
31	   O	-3.620	-2.370	2.277	O.3	1	UNK0	0.000	
32	   O	-5.465	-0.876	3.077	O.3	1	UNK0	0.000	
33	   C	-3.713	0.297	5.991	C.3	1	UNK0	0.000	
34	   O	-3.246	1.538	6.438	O.3	1	UNK0	0.000	
35	   H	1.167	1.379	-2.609	 H	1	UNK0	0.000	
36	   H	-0.549	5.185	-5.174	 H	1	UNK0	0.000	
37	   H	2.128	5.757	-7.498	 H	1	UNK0	0.000	
38	   H	0.883	6.112	-6.288	 H	1	UNK0	0.000	
39	   H	0.514	5.031	-7.663	 H	1	UNK0	0.000	
40	   H	3.939	0.517	-4.850	 H	1	UNK0	0.000	
41	   H	2.606	0.317	-3.588	 H	1	UNK0	0.000	
42	   H	3.987	1.399	-3.310	 H	1	UNK0	0.000	
43	   H	-2.027	2.823	-1.312	 H	1	UNK0	0.000	
44	   H	-2.476	1.087	0.394	 H	1	UNK0	0.000	
45	   H	3.784	-0.485	2.207	 H	1	UNK0	0.000	
46	   H	1.241	-3.894	6.028	 H	1	UNK0	0.000	
47	   H	0.675	-2.378	6.778	 H	1	UNK0	0.000	
48	   H	-3.289	0.094	1.976	 H	1	UNK0	0.000	
49	   H	-4.742	1.155	4.269	 H	1	UNK0	0.000	
50	   H	-4.763	-1.656	4.885	 H	1	UNK0	0.000	
51	   H	-2.561	-2.062	4.008	 H	1	UNK0	0.000	
52	   H	-3.072	-3.197	2.287	 H	1	UNK0	0.000	
53	   H	-6.051	-1.663	3.066	 H	1	UNK0	0.000	
54	   H	-2.932	-0.470	6.130	 H	1	UNK0	0.000	
55	   H	-4.648	0.002	6.488	 H	1	UNK0	0.000	
56	   H	-3.014	2.131	5.678	 H	1	UNK0	0.000	
@<TRIPOS>BOND
1 1 2 1
2 2 3 2
3 2 7 1
4 3 4 1
5 3 12 1
6 4 5 2
7 5 6 1
8 5 10 1
9 6 7 2
10 6 8 1
11 8 9 1
12 10 11 1
13 12 13 2
14 13 14 1
15 14 15 1
16 15 16 1
17 15 23 2
18 16 17 1
19 16 26 1
20 17 18 2
21 17 22 1
22 18 19 1
23 19 20 2
24 19 25 1
25 20 21 1
26 21 22 2
27 21 24 1
28 22 23 1
29 26 27 1
30 26 30 1
31 27 28 1
32 28 29 1
33 28 33 1
34 29 30 1
35 29 32 1
36 30 31 1
37 33 34 1
38 4 35 1
39 7 36 1
40 9 37 1
41 9 38 1
42 9 39 1
43 11 40 1
44 11 41 1
45 11 42 1
46 12 43 1
47 14 44 1
48 24 45 1
49 25 46 1
50 25 47 1
51 26 48 1
52 28 49 1
53 29 50 1
54 30 51 1
55 31 52 1
56 32 53 1
57 33 54 1
58 33 55 1
59 34 56 1
@<TRIPOS>SUBSTRUCTURE
1	UNK0	1	GROUP	1 ****	UNK
# created with PyMOL 2.3.2
@<TRIPOS>MOLECULE
1355
42 45 1                 
SMALL
USER_CHARGES
@<TRIPOS>ATOM
1	  Cl	0.612	1.694	-6.213	Cl	1	UNK0	0.000	
2	   C	-1.107	1.628	-5.910	C.2	1	UNK0	0.000	
3	   C	-1.535	0.961	-4.782	C.2	1	UNK0	0.000	
4	   C	-2.893	0.927	-4.573	C.2	1	UNK0	0.000	
5	   C	-3.793	1.520	-5.429	C.2	1	UNK0	0.000	
6	   C	-3.338	2.194	-6.569	C.2	1	UNK0	0.000	
7	   C	-1.986	2.240	-6.798	C.2	1	UNK0	0.000	
8	   C	-0.609	0.321	-3.854	C.2	1	UNK0	0.000	
9	   N	0.731	0.277	-3.935	N.2	1	UNK0	0.000	
10	   O	1.209	-0.392	-2.907	O.3	1	UNK0	0.000	
11	   C	0.226	-0.796	-2.143	C.2	1	UNK0	0.000	
12	   N	-0.908	-0.354	-2.730	N.2	1	UNK0	0.000	
13	   C	0.314	-1.592	-0.866	C.3	1	UNK0	0.000	
14	   N	0.407	-0.701	0.276	N.pl3	1	UNK0	0.000	
15	   C	-0.607	0.230	0.562	C.2	1	UNK0	0.000	
16	   O	-1.611	0.294	-0.181	O.2	1	UNK0	0.000	
17	   C	-0.491	1.124	1.724	C.3	1	UNK0	0.000	
18	   C	-0.590	0.370	3.037	C.3	1	UNK0	0.000	
19	   C	-0.282	1.255	4.198	C.3	1	UNK0	0.000	
20	   C	1.150	1.265	4.623	C.3	1	UNK0	0.000	
21	   C	2.099	0.976	3.464	C.3	1	UNK0	0.000	
22	   N	1.807	1.931	2.420	N.pl3	1	UNK0	0.000	
23	   N	2.624	2.886	2.064	N.2	1	UNK0	0.000	
24	   N	2.069	3.575	1.098	N.2	1	UNK0	0.000	
25	   N	0.890	3.037	0.853	N.2	1	UNK0	0.000	
26	   C	0.695	1.992	1.676	C.2	1	UNK0	0.000	
27	   H	-3.276	0.419	-3.707	 H	1	UNK0	0.000	
28	   H	-4.860	1.500	-5.273	 H	1	UNK0	0.000	
29	   H	-4.028	2.669	-7.257	 H	1	UNK0	0.000	
30	   H	-1.635	2.762	-7.682	 H	1	UNK0	0.000	
31	   H	1.185	-2.264	-0.910	 H	1	UNK0	0.000	
32	   H	-0.596	-2.222	-0.814	 H	1	UNK0	0.000	
33	   H	1.239	-0.750	0.897	 H	1	UNK0	0.000	
34	   H	-1.378	1.809	1.719	 H	1	UNK0	0.000	
35	   H	-1.667	0.041	3.141	 H	1	UNK0	0.000	
36	   H	-0.013	-0.561	2.989	 H	1	UNK0	0.000	
37	   H	-0.945	0.954	5.058	 H	1	UNK0	0.000	
38	   H	-0.605	2.290	3.943	 H	1	UNK0	0.000	
39	   H	1.363	2.259	5.068	 H	1	UNK0	0.000	
40	   H	1.374	0.492	5.394	 H	1	UNK0	0.000	
41	   H	3.131	1.135	3.832	 H	1	UNK0	0.000	
42	   H	1.949	-0.029	3.071	 H	1	UNK0	0.000	
@<TRIPOS>BOND
1 1 2 1
2 2 3 2
3 2 7 1
4 3 4 1
5 3 8 1
6 4 5 2
7 5 6 1
8 6 7 2
9 8 9 2
10 8 12 1
11 9 10 1
12 10 11 1
13 11 12 2
14 11 13 1
15 13 14 1
16 14 15 1
17 15 16 2
18 15 17 1
19 17 18 1
20 17 26 1
21 18 19 1
22 19 20 1
23 20 21 1
24 21 22 1
25 22 23 1
26 22 26 1
27 23 24 2
28 24 25 1
29 25 26 2
30 4 27 1
31 5 28 1
32 6 29 1
33 7 30 1
34 13 31 1
35 13 32 1
36 14 33 1
37 17 34 1
38 18 35 1
39 18 36 1
40 19 37 1
41 19 38 1
42 20 39 1
43 20 40 1
44 21 41 1
45 21 42 1
@<TRIPOS>SUBSTRUCTURE
1	UNK0	1	GROUP	1 ****	UNK
# created with PyMOL 2.3.2
@<TRIPOS>MOLECULE
1357
33 36 1                 
SMALL
USER_CHARGES
@<TRIPOS>ATOM
1	  Br	2.590	2.303	-1.902	Br	1	UNK0	0.000	
2	   C	2.321	0.508	-1.311	C.2	1	UNK0	0.000	
3	   C	1.069	-0.048	-1.236	C.2	1	UNK0	0.000	
4	   C	0.913	-1.342	-0.799	C.2	1	UNK0	0.000	
5	   C	2.002	-2.118	-0.426	C.2	1	UNK0	0.000	
6	   C	3.265	-1.581	-0.493	C.2	1	UNK0	0.000	
7	   C	3.414	-0.263	-0.939	C.2	1	UNK0	0.000	
8	   C	-0.154	0.703	-1.621	C.3	1	UNK0	0.000	
9	   C	-1.383	0.132	-1.286	C.3	1	UNK0	0.000	
10	   C	-2.166	-0.141	-0.050	C.3	1	UNK0	0.000	
11	   N	-2.973	1.101	-0.151	N.2	1	UNK0	0.000	
12	   C	-2.187	2.053	-0.546	C.2	1	UNK0	0.000	
13	   C	-0.883	1.489	-0.702	C.3	1	UNK0	0.000	
14	   C	-0.244	1.459	0.648	C.1	1	UNK0	0.000	
15	   N	0.284	1.447	1.707	N.1	1	UNK0	0.000	
16	   N	-2.576	3.425	-0.780	N.pl3	1	UNK0	0.000	
17	   O	-2.993	-1.243	-0.294	O.3	1	UNK0	0.000	
18	   C	-2.806	-2.128	0.750	C.3	1	UNK0	0.000	
19	   C	-2.336	-1.214	1.869	C.3	1	UNK0	0.000	
20	   O	-1.532	-0.326	1.112	O.3	1	UNK0	0.000	
21	   C	-2.393	0.257	-2.397	C.1	1	UNK0	0.000	
22	   N	-3.171	0.368	-3.279	N.1	1	UNK0	0.000	
23	   H	-0.066	-1.839	-0.719	 H	1	UNK0	0.000	
24	   H	1.898	-3.131	-0.083	 H	1	UNK0	0.000	
25	   H	4.109	-2.161	-0.214	 H	1	UNK0	0.000	
26	   H	4.394	0.203	-1.010	 H	1	UNK0	0.000	
27	   H	0.016	1.169	-2.633	 H	1	UNK0	0.000	
28	   H	-3.287	3.890	-0.184	 H	1	UNK0	0.000	
29	   H	-2.150	3.972	-1.551	 H	1	UNK0	0.000	
30	   H	-1.987	-2.828	0.479	 H	1	UNK0	0.000	
31	   H	-3.737	-2.672	1.017	 H	1	UNK0	0.000	
32	   H	-3.201	-0.670	2.306	 H	1	UNK0	0.000	
33	   H	-1.751	-1.737	2.637	 H	1	UNK0	0.000	
@<TRIPOS>BOND
1 1 2 1
2 2 3 2
3 2 7 1
4 3 4 1
5 3 8 1
6 4 5 2
7 5 6 1
8 6 7 2
9 8 9 1
10 8 13 1
11 9 10 1
12 9 13 1
13 9 21 1
14 10 11 1
15 10 17 1
16 10 20 1
17 11 12 2
18 12 13 1
19 12 16 1
20 13 14 1
21 14 15 3
22 17 18 1
23 18 19 1
24 19 20 1
25 21 22 3
26 4 23 1
27 5 24 1
28 6 25 1
29 7 26 1
30 8 27 1
31 16 28 1
32 16 29 1
33 18 30 1
34 18 31 1
35 19 32 1
36 19 33 1
@<TRIPOS>SUBSTRUCTURE
1	UNK0	1	GROUP	1 ****	UNK
# created with PyMOL 2.3.2
@<TRIPOS>MOLECULE
1360
57 60 1                 
SMALL
USER_CHARGES
@<TRIPOS>ATOM
1	  Br	1.175	6.705	1.208	Br	1	UNK0	0.000	
2	   C	0.941	4.836	1.496	C.2	1	UNK0	0.000	
3	   C	-0.132	4.160	0.935	C.2	1	UNK0	0.000	
4	   C	-0.319	2.814	1.130	C.2	1	UNK0	0.000	
5	   C	0.577	2.111	1.900	C.2	1	UNK0	0.000	
6	   C	1.664	2.776	2.473	C.2	1	UNK0	0.000	
7	   C	1.839	4.123	2.270	C.2	1	UNK0	0.000	
8	   C	0.472	0.687	2.129	C.2	1	UNK0	0.000	
9	   O	1.306	0.201	3.004	O.2	1	UNK0	0.000	
10	   C	-0.407	-0.304	1.552	C.3	1	UNK0	0.000	
11	   N	-0.660	-0.058	0.156	N.pl3	1	UNK0	0.000	
12	   C	0.708	-0.134	-0.406	C.3	1	UNK0	0.000	
13	   N	0.573	-0.077	-1.810	N.pl3	1	UNK0	0.000	
14	   C	-0.806	0.163	-2.106	C.2	1	UNK0	0.000	
15	   C	-1.525	0.171	-0.909	C.2	1	UNK0	0.000	
16	   C	-2.886	0.389	-0.955	C.2	1	UNK0	0.000	
17	   O	-3.512	0.392	0.136	O.2	1	UNK0	0.000	
18	   N	-3.485	0.587	-2.135	N.pl3	1	UNK0	0.000	
19	   C	-2.779	0.574	-3.253	C.2	1	UNK0	0.000	
20	   O	-3.382	0.765	-4.344	O.2	1	UNK0	0.000	
21	   N	-1.427	0.363	-3.272	N.pl3	1	UNK0	0.000	
22	   C	-0.773	0.376	-4.561	C.3	1	UNK0	0.000	
23	   C	-4.934	0.815	-2.138	C.3	1	UNK0	0.000	
24	   C	1.602	-0.194	-2.811	C.3	1	UNK0	0.000	
25	   C	1.317	-1.295	0.260	C.3	1	UNK0	0.000	
26	   C	0.353	-1.632	1.406	C.3	1	UNK0	0.000	
27	   C	1.064	-2.023	2.619	C.2	1	UNK0	0.000	
28	   O	2.329	-2.186	2.591	O.co2	1	UNK0	0.000	
29	   O	0.417	-2.226	3.808	O.3	1	UNK0	0.000	
30	   C	1.093	-2.609	5.008	C.3	1	UNK0	0.000	
31	   C	1.630	-2.479	-0.529	C.2	1	UNK0	0.000	
32	   O	0.881	-3.489	-0.469	O.co2	1	UNK0	0.000	
33	   O	2.733	-2.534	-1.353	O.3	1	UNK0	0.000	
34	   C	3.027	-3.685	-2.114	C.3	1	UNK0	0.000	
35	   H	-0.849	4.689	0.326	 H	1	UNK0	0.000	
36	   H	-1.162	2.341	0.699	 H	1	UNK0	0.000	
37	   H	2.404	2.243	3.098	 H	1	UNK0	0.000	
38	   H	2.701	4.628	2.731	 H	1	UNK0	0.000	
39	   H	-1.350	-0.468	2.125	 H	1	UNK0	0.000	
40	   H	1.276	0.785	-0.102	 H	1	UNK0	0.000	
41	   H	-0.122	-0.499	-4.749	 H	1	UNK0	0.000	
42	   H	-1.566	0.274	-5.374	 H	1	UNK0	0.000	
43	   H	-0.307	1.356	-4.806	 H	1	UNK0	0.000	
44	   H	-5.468	-0.045	-1.682	 H	1	UNK0	0.000	
45	   H	-5.281	1.032	-3.167	 H	1	UNK0	0.000	
46	   H	-5.145	1.704	-1.504	 H	1	UNK0	0.000	
47	   H	2.619	-0.037	-2.335	 H	1	UNK0	0.000	
48	   H	1.651	-1.133	-3.349	 H	1	UNK0	0.000	
49	   H	1.562	0.681	-3.535	 H	1	UNK0	0.000	
50	   H	2.256	-0.967	0.821	 H	1	UNK0	0.000	
51	   H	-0.375	-2.402	1.041	 H	1	UNK0	0.000	
52	   H	1.560	-1.711	5.485	 H	1	UNK0	0.000	
53	   H	0.337	-3.074	5.670	 H	1	UNK0	0.000	
54	   H	1.869	-3.348	4.681	 H	1	UNK0	0.000	
55	   H	3.865	-3.421	-2.807	 H	1	UNK0	0.000	
56	   H	3.452	-4.438	-1.404	 H	1	UNK0	0.000	
57	   H	2.142	-4.075	-2.657	 H	1	UNK0	0.000	
@<TRIPOS>BOND
1 1 2 1
2 2 3 2
3 2 7 1
4 3 4 1
5 4 5 2
6 5 6 1
7 5 8 1
8 6 7 2
9 8 9 2
10 8 10 1
11 10 11 1
12 10 26 1
13 11 12 1
14 11 15 1
15 12 13 1
16 12 25 1
17 13 14 1
18 13 24 1
19 14 15 2
20 14 21 1
21 15 16 1
22 16 17 2
23 16 18 1
24 18 19 1
25 18 23 1
26 19 20 2
27 19 21 1
28 21 22 1
29 25 26 1
30 25 31 1
31 26 27 1
32 27 28 2
33 27 29 1
34 29 30 1
35 31 32 2
36 31 33 1
37 33 34 1
38 3 35 1
39 4 36 1
40 6 37 1
41 7 38 1
42 10 39 1
43 12 40 1
44 22 41 1
45 22 42 1
46 22 43 1
47 23 44 1
48 23 45 1
49 23 46 1
50 24 47 1
51 24 48 1
52 24 49 1
53 25 50 1
54 26 51 1
55 30 52 1
56 30 53 1
57 30 54 1
58 34 55 1
59 34 56 1
60 34 57 1
@<TRIPOS>SUBSTRUCTURE
1	UNK0	1	GROUP	1 ****	UNK
# created with PyMOL 2.3.2
@<TRIPOS>MOLECULE
1372
52 55 1                 
SMALL
USER_CHARGES
@<TRIPOS>ATOM
1	  Br	-3.776	-2.478	-3.660	Br	1	UNK0	0.000	
2	   C	-3.862	-2.813	-1.761	C.2	1	UNK0	0.000	
3	   C	-2.972	-2.201	-0.914	C.2	1	UNK0	0.000	
4	   C	-2.972	-2.404	0.476	C.2	1	UNK0	0.000	
5	   C	-3.909	-3.246	0.993	C.2	1	UNK0	0.000	
6	   C	-4.816	-3.873	0.145	C.2	1	UNK0	0.000	
7	   C	-4.799	-3.664	-1.224	C.2	1	UNK0	0.000	
8	   C	-1.974	-1.673	1.275	C.2	1	UNK0	0.000	
9	   O	-0.911	-2.188	1.643	O.2	1	UNK0	0.000	
10	   N	-2.306	-0.296	1.598	N.pl3	1	UNK0	0.000	
11	   C	-1.347	0.504	2.320	C.3	1	UNK0	0.000	
12	   C	-2.025	0.721	3.698	C.3	1	UNK0	0.000	
13	   C	-1.132	1.864	1.737	C.2	1	UNK0	0.000	
14	   O	-1.496	2.849	2.412	O.2	1	UNK0	0.000	
15	   N	-0.534	2.052	0.486	N.pl3	1	UNK0	0.000	
16	   C	0.070	3.206	-0.089	C.3	1	UNK0	0.000	
17	   C	1.158	2.642	-1.016	C.3	1	UNK0	0.000	
18	   C	1.704	1.328	-0.514	C.3	1	UNK0	0.000	
19	   N	2.714	0.810	-1.396	N.3	1	UNK0	0.000	
20	   C	3.118	-0.507	-0.884	C.3	1	UNK0	0.000	
21	   C	3.827	-0.400	0.430	C.3	1	UNK0	0.000	
22	   C	3.328	0.719	1.261	C.2	1	UNK0	0.000	
23	   N	3.696	1.122	2.481	N.pl3	1	UNK0	0.000	
24	   C	2.947	2.189	2.824	C.2	1	UNK0	0.000	
25	   N	2.115	2.436	1.803	N.2	1	UNK0	0.000	
26	   C	2.304	1.560	0.805	C.2	1	UNK0	0.000	
27	   C	0.633	0.226	-0.469	C.3	1	UNK0	0.000	
28	   C	-0.646	0.946	-0.523	C.3	1	UNK0	0.000	
29	   H	-2.215	-1.540	-1.311	 H	1	UNK0	0.000	
30	   H	-3.935	-3.424	2.067	 H	1	UNK0	0.000	
31	   H	-5.560	-4.522	0.522	 H	1	UNK0	0.000	
32	   H	-5.486	-4.141	-1.923	 H	1	UNK0	0.000	
33	   H	-3.205	0.095	1.323	 H	1	UNK0	0.000	
34	   H	-0.412	-0.033	2.553	 H	1	UNK0	0.000	
35	   H	-3.004	1.226	3.390	 H	1	UNK0	0.000	
36	   H	-2.265	-0.215	4.166	 H	1	UNK0	0.000	
37	   H	-1.445	1.414	4.312	 H	1	UNK0	0.000	
38	   H	-0.706	3.680	-0.745	 H	1	UNK0	0.000	
39	   H	0.455	3.940	0.609	 H	1	UNK0	0.000	
40	   H	1.983	3.362	-0.945	 H	1	UNK0	0.000	
41	   H	0.849	2.639	-2.067	 H	1	UNK0	0.000	
42	   H	2.291	0.627	-2.337	 H	1	UNK0	0.000	
43	   H	2.302	-1.216	-0.761	 H	1	UNK0	0.000	
44	   H	3.845	-0.964	-1.617	 H	1	UNK0	0.000	
45	   H	4.948	-0.388	0.322	 H	1	UNK0	0.000	
46	   H	3.635	-1.340	1.034	 H	1	UNK0	0.000	
47	   H	4.424	0.738	3.123	 H	1	UNK0	0.000	
48	   H	2.964	2.773	3.723	 H	1	UNK0	0.000	
49	   H	0.831	-0.364	0.426	 H	1	UNK0	0.000	
50	   H	0.668	-0.406	-1.403	 H	1	UNK0	0.000	
51	   H	-1.591	0.449	-0.435	 H	1	UNK0	0.000	
52	   H	-0.685	1.439	-1.554	 H	1	UNK0	0.000	
@<TRIPOS>BOND
1 1 2 1
2 2 3 2
3 2 7 1
4 3 4 1
5 4 5 2
6 4 8 1
7 5 6 1
8 6 7 2
9 8 9 2
10 8 10 1
11 10 11 1
12 11 12 1
13 11 13 1
14 13 14 2
15 13 15 1
16 15 16 1
17 15 28 1
18 16 17 1
19 17 18 1
20 18 19 1
21 18 26 1
22 18 27 1
23 19 20 1
24 20 21 1
25 21 22 1
26 22 23 1
27 22 26 2
28 23 24 1
29 24 25 2
30 25 26 1
31 27 28 1
32 3 29 1
33 5 30 1
34 6 31 1
35 7 32 1
36 10 33 1
37 11 34 1
38 12 35 1
39 12 36 1
40 12 37 1
41 16 38 1
42 16 39 1
43 17 40 1
44 17 41 1
45 19 42 1
46 20 43 1
47 20 44 1
48 21 45 1
49 21 46 1
50 23 47 1
51 24 48 1
52 27 49 1
53 27 50 1
54 28 51 1
55 28 52 1
@<TRIPOS>SUBSTRUCTURE
1	UNK0	1	GROUP	1 ****	UNK
# created with PyMOL 2.3.2
@<TRIPOS>MOLECULE
1381
45 48 1                 
SMALL
USER_CHARGES
@<TRIPOS>ATOM
1	  Br	-0.757	8.850	1.734	Br	1	UNK0	0.000	
2	   C	-0.111	7.039	1.657	C.2	1	UNK0	0.000	
3	   C	-0.012	6.378	0.446	C.2	1	UNK0	0.000	
4	   N	0.441	5.102	0.375	N.pl3	1	UNK0	0.000	
5	   C	0.808	4.444	1.480	C.2	1	UNK0	0.000	
6	   N	1.256	3.180	1.404	N.2	1	UNK0	0.000	
7	   C	1.359	2.521	0.238	C.2	1	UNK0	0.000	
8	   C	0.983	3.195	-0.897	C.2	1	UNK0	0.000	
9	   C	0.513	4.515	-0.837	C.2	1	UNK0	0.000	
10	   O	0.177	5.103	-1.895	O.2	1	UNK0	0.000	
11	   C	1.859	1.132	0.220	C.3	1	UNK0	0.000	
12	   O	0.751	0.285	0.361	O.3	1	UNK0	0.000	
13	   C	0.987	-1.117	0.371	C.2	1	UNK0	0.000	
14	   O	2.179	-1.368	0.250	O.co2	1	UNK0	0.000	
15	   C	-0.144	-2.013	0.515	C.2	1	UNK0	0.000	
16	   N	-1.411	-1.516	0.638	N.2	1	UNK0	0.000	
17	   N	-2.458	-2.311	0.770	N.pl3	1	UNK0	0.000	
18	   C	-2.325	-3.648	0.790	C.2	1	UNK0	0.000	
19	   O	-3.344	-4.406	0.919	O.2	1	UNK0	0.000	
20	   C	-1.084	-4.228	0.673	C.2	1	UNK0	0.000	
21	   C	0.006	-3.365	0.534	C.2	1	UNK0	0.000	
22	   C	1.225	-3.987	0.419	C.2	1	UNK0	0.000	
23	   C	1.352	-5.372	0.441	C.2	1	UNK0	0.000	
24	   C	0.257	-6.192	0.580	C.2	1	UNK0	0.000	
25	   C	-0.972	-5.593	0.696	C.2	1	UNK0	0.000	
26	   C	-3.796	-1.772	0.900	C.3	1	UNK0	0.000	
27	   C	-4.179	-1.522	2.335	C.3	1	UNK0	0.000	
28	   O	-3.338	-0.622	2.963	O.3	1	UNK0	0.000	
29	   C	0.717	5.082	2.688	C.2	1	UNK0	0.000	
30	   C	0.261	6.379	2.802	C.2	1	UNK0	0.000	
31	   H	-0.317	6.934	-0.443	 H	1	UNK0	0.000	
32	   H	1.044	2.717	-1.864	 H	1	UNK0	0.000	
33	   H	2.474	0.909	-0.674	 H	1	UNK0	0.000	
34	   H	2.577	1.030	1.080	 H	1	UNK0	0.000	
35	   H	2.112	-3.426	0.310	 H	1	UNK0	0.000	
36	   H	2.336	-5.815	0.347	 H	1	UNK0	0.000	
37	   H	0.353	-7.281	0.597	 H	1	UNK0	0.000	
38	   H	-1.839	-6.212	0.804	 H	1	UNK0	0.000	
39	   H	-4.529	-2.488	0.480	 H	1	UNK0	0.000	
40	   H	-3.882	-0.833	0.333	 H	1	UNK0	0.000	
41	   H	-4.239	-2.462	2.914	 H	1	UNK0	0.000	
42	   H	-5.194	-1.077	2.326	 H	1	UNK0	0.000	
43	   H	-2.743	-0.241	2.275	 H	1	UNK0	0.000	
44	   H	1.014	4.556	3.607	 H	1	UNK0	0.000	
45	   H	0.192	6.876	3.756	 H	1	UNK0	0.000	
@<TRIPOS>BOND
1 1 2 1
2 2 3 2
3 2 30 1
4 3 4 1
5 4 5 1
6 4 9 1
7 5 6 2
8 5 29 1
9 6 7 1
10 7 8 2
11 7 11 1
12 8 9 1
13 9 10 2
14 11 12 1
15 12 13 1
16 13 14 2
17 13 15 1
18 15 16 2
19 15 21 1
20 16 17 1
21 17 18 1
22 17 26 1
23 18 19 2
24 18 20 1
25 20 21 2
26 20 25 1
27 21 22 1
28 22 23 2
29 23 24 1
30 24 25 2
31 26 27 1
32 27 28 1
33 29 30 2
34 3 31 1
35 8 32 1
36 11 33 1
37 11 34 1
38 22 35 1
39 23 36 1
40 24 37 1
41 25 38 1
42 26 39 1
43 26 40 1
44 27 41 1
45 27 42 1
46 28 43 1
47 29 44 1
48 30 45 1
@<TRIPOS>SUBSTRUCTURE
1	UNK0	1	GROUP	1 ****	UNK
# created with PyMOL 2.3.2
@<TRIPOS>MOLECULE
1386
55 58 1                 
SMALL
USER_CHARGES
@<TRIPOS>ATOM
1	  Cl	4.626	-2.131	7.472	Cl	1	UNK0	0.000	
2	   C	4.414	-2.012	5.718	C.2	1	UNK0	0.000	
3	   C	4.118	-0.791	5.159	C.2	1	UNK0	0.000	
4	   C	3.944	-0.656	3.791	C.2	1	UNK0	0.000	
5	   N	3.657	0.383	2.993	N.2	1	UNK0	0.000	
6	   C	3.599	-0.050	1.685	C.2	1	UNK0	0.000	
7	   N	3.858	-1.352	1.734	N.pl3	1	UNK0	0.000	
8	   C	4.078	-1.781	3.011	C.2	1	UNK0	0.000	
9	   C	4.374	-3.010	3.562	C.2	1	UNK0	0.000	
10	   C	4.544	-3.132	4.920	C.2	1	UNK0	0.000	
11	   C	3.964	-2.275	0.618	C.3	1	UNK0	0.000	
12	   C	3.362	0.839	0.519	C.3	1	UNK0	0.000	
13	   C	1.975	1.247	0.257	C.3	1	UNK0	0.000	
14	   C	0.990	0.198	-0.029	C.2	1	UNK0	0.000	
15	   O	1.311	-1.002	-0.185	O.2	1	UNK0	0.000	
16	   N	-0.402	0.566	-0.136	N.pl3	1	UNK0	0.000	
17	   C	-1.372	-0.457	-0.417	C.3	1	UNK0	0.000	
18	   C	-1.918	-0.188	-1.804	C.3	1	UNK0	0.000	
19	   C	-1.968	1.255	-2.155	C.3	1	UNK0	0.000	
20	   C	-1.935	2.197	-1.008	C.3	1	UNK0	0.000	
21	   C	-0.893	1.907	0.022	C.3	1	UNK0	0.000	
22	   O	-0.957	1.632	-3.053	O.3	1	UNK0	0.000	
23	   C	-3.284	1.495	-2.907	C.3	1	UNK0	0.000	
24	   N	-3.192	-0.856	-1.914	N.pl3	1	UNK0	0.000	
25	   C	-4.187	-0.566	-1.053	C.2	1	UNK0	0.000	
26	   C	-5.418	-1.179	-1.121	C.2	1	UNK0	0.000	
27	   C	-5.629	-2.117	-2.105	C.2	1	UNK0	0.000	
28	   O	-6.747	-2.720	-2.221	O.2	1	UNK0	0.000	
29	   N	-4.620	-2.386	-2.948	N.pl3	1	UNK0	0.000	
30	   C	-3.436	-1.778	-2.861	C.2	1	UNK0	0.000	
31	   O	-2.518	-2.068	-3.681	O.2	1	UNK0	0.000	
32	   H	4.005	0.116	5.745	 H	1	UNK0	0.000	
33	   H	4.468	-3.856	2.913	 H	1	UNK0	0.000	
34	   H	4.778	-4.081	5.387	 H	1	UNK0	0.000	
35	   H	3.947	-1.775	-0.356	 H	1	UNK0	0.000	
36	   H	4.859	-2.925	0.690	 H	1	UNK0	0.000	
37	   H	3.087	-2.969	0.702	 H	1	UNK0	0.000	
38	   H	3.849	0.363	-0.372	 H	1	UNK0	0.000	
39	   H	4.024	1.739	0.718	 H	1	UNK0	0.000	
40	   H	1.585	1.980	1.019	 H	1	UNK0	0.000	
41	   H	2.005	1.881	-0.693	 H	1	UNK0	0.000	
42	   H	-2.184	-0.496	0.341	 H	1	UNK0	0.000	
43	   H	-0.891	-1.457	-0.388	 H	1	UNK0	0.000	
44	   H	-1.215	-0.691	-2.520	 H	1	UNK0	0.000	
45	   H	-1.703	3.221	-1.423	 H	1	UNK0	0.000	
46	   H	-2.965	2.315	-0.572	 H	1	UNK0	0.000	
47	   H	-1.411	1.945	1.025	 H	1	UNK0	0.000	
48	   H	-0.091	2.665	0.072	 H	1	UNK0	0.000	
49	   H	-0.200	0.974	-2.957	 H	1	UNK0	0.000	
50	   H	-3.138	2.447	-3.473	 H	1	UNK0	0.000	
51	   H	-3.427	0.709	-3.684	 H	1	UNK0	0.000	
52	   H	-4.132	1.614	-2.230	 H	1	UNK0	0.000	
53	   H	-4.021	0.181	-0.269	 H	1	UNK0	0.000	
54	   H	-6.214	-0.945	-0.430	 H	1	UNK0	0.000	
55	   H	-4.740	-3.105	-3.723	 H	1	UNK0	0.000	
@<TRIPOS>BOND
1 1 2 1
2 2 3 2
3 2 10 1
4 3 4 1
5 4 5 1
6 4 8 2
7 5 6 2
8 6 7 1
9 6 12 1
10 7 8 1
11 7 11 1
12 8 9 1
13 9 10 2
14 12 13 1
15 13 14 1
16 14 15 2
17 14 16 1
18 16 17 1
19 16 21 1
20 17 18 1
21 18 19 1
22 18 24 1
23 19 20 1
24 19 22 1
25 19 23 1
26 20 21 1
27 24 25 1
28 24 30 1
29 25 26 2
30 26 27 1
31 27 28 2
32 27 29 1
33 29 30 1
34 30 31 2
35 3 32 1
36 9 33 1
37 10 34 1
38 11 35 1
39 11 36 1
40 11 37 1
41 12 38 1
42 12 39 1
43 13 40 1
44 13 41 1
45 17 42 1
46 17 43 1
47 18 44 1
48 20 45 1
49 20 46 1
50 21 47 1
51 21 48 1
52 22 49 1
53 23 50 1
54 23 51 1
55 23 52 1
56 25 53 1
57 26 54 1
58 29 55 1
@<TRIPOS>SUBSTRUCTURE
1	UNK0	1	GROUP	1 ****	UNK
# created with PyMOL 2.3.2
@<TRIPOS>MOLECULE
1388
49 52 1                 
SMALL
USER_CHARGES
@<TRIPOS>ATOM
1	  Br	4.844	-6.740	-2.680	Br	1	UNK0	0.000	
2	   C	3.482	-6.257	-1.456	C.2	1	UNK0	0.000	
3	   C	3.251	-4.918	-1.197	C.2	1	UNK0	0.000	
4	   C	2.273	-4.500	-0.314	C.2	1	UNK0	0.000	
5	   C	1.512	-5.473	0.318	C.2	1	UNK0	0.000	
6	   C	1.747	-6.802	0.056	C.2	1	UNK0	0.000	
7	   C	2.717	-7.236	-0.820	C.2	1	UNK0	0.000	
8	   C	2.007	-3.099	-0.021	C.2	1	UNK0	0.000	
9	   O	1.099	-2.799	0.796	O.2	1	UNK0	0.000	
10	   N	2.726	-2.037	-0.615	N.pl3	1	UNK0	0.000	
11	   C	2.442	-0.652	-0.306	C.3	1	UNK0	0.000	
12	   C	1.042	-0.289	-0.651	C.2	1	UNK0	0.000	
13	   O	0.324	-1.194	-1.143	O.2	1	UNK0	0.000	
14	   N	0.498	0.990	-0.456	N.pl3	1	UNK0	0.000	
15	   C	1.260	2.079	0.103	C.3	1	UNK0	0.000	
16	   C	0.608	2.440	1.420	C.3	1	UNK0	0.000	
17	   C	-0.875	2.639	1.216	C.3	1	UNK0	0.000	
18	   N	-1.572	1.640	1.998	N.3	1	UNK0	0.000	
19	   C	-2.987	1.771	2.013	C.3	1	UNK0	0.000	
20	   C	-3.539	3.147	2.092	C.3	1	UNK0	0.000	
21	   C	-2.525	4.211	2.247	C.2	1	UNK0	0.000	
22	   N	-2.588	5.480	2.755	N.pl3	1	UNK0	0.000	
23	   C	-1.360	6.000	2.640	C.2	1	UNK0	0.000	
24	   N	-0.546	5.091	2.079	N.2	1	UNK0	0.000	
25	   C	-1.242	3.956	1.818	C.2	1	UNK0	0.000	
26	   C	-1.314	2.593	-0.212	C.3	1	UNK0	0.000	
27	   C	-0.870	1.258	-0.818	C.3	1	UNK0	0.000	
28	   H	3.854	-4.204	-1.700	 H	1	UNK0	0.000	
29	   H	0.723	-5.231	1.026	 H	1	UNK0	0.000	
30	   H	1.162	-7.578	0.541	 H	1	UNK0	0.000	
31	   H	2.925	-8.256	-1.046	 H	1	UNK0	0.000	
32	   H	3.481	-2.260	-1.293	 H	1	UNK0	0.000	
33	   H	3.094	0.026	-0.894	 H	1	UNK0	0.000	
34	   H	2.664	-0.514	0.770	 H	1	UNK0	0.000	
35	   H	1.223	2.972	-0.571	 H	1	UNK0	0.000	
36	   H	2.332	1.842	0.219	 H	1	UNK0	0.000	
37	   H	1.079	3.335	1.880	 H	1	UNK0	0.000	
38	   H	0.806	1.567	2.100	 H	1	UNK0	0.000	
39	   H	-1.336	0.691	1.605	 H	1	UNK0	0.000	
40	   H	-3.352	1.217	2.928	 H	1	UNK0	0.000	
41	   H	-3.481	1.217	1.169	 H	1	UNK0	0.000	
42	   H	-4.275	3.269	2.942	 H	1	UNK0	0.000	
43	   H	-4.164	3.398	1.187	 H	1	UNK0	0.000	
44	   H	-3.468	5.922	3.152	 H	1	UNK0	0.000	
45	   H	-1.068	6.990	2.949	 H	1	UNK0	0.000	
46	   H	-0.984	3.448	-0.802	 H	1	UNK0	0.000	
47	   H	-2.418	2.576	-0.228	 H	1	UNK0	0.000	
48	   H	-0.944	1.292	-1.925	 H	1	UNK0	0.000	
49	   H	-1.574	0.502	-0.461	 H	1	UNK0	0.000	
@<TRIPOS>BOND
1 1 2 1
2 2 3 2
3 2 7 1
4 3 4 1
5 4 5 2
6 4 8 1
7 5 6 1
8 6 7 2
9 8 9 2
10 8 10 1
11 10 11 1
12 11 12 1
13 12 13 2
14 12 14 1
15 14 15 1
16 14 27 1
17 15 16 1
18 16 17 1
19 17 18 1
20 17 25 1
21 17 26 1
22 18 19 1
23 19 20 1
24 20 21 1
25 21 22 1
26 21 25 2
27 22 23 1
28 23 24 2
29 24 25 1
30 26 27 1
31 3 28 1
32 5 29 1
33 6 30 1
34 7 31 1
35 10 32 1
36 11 33 1
37 11 34 1
38 15 35 1
39 15 36 1
40 16 37 1
41 16 38 1
42 18 39 1
43 19 40 1
44 19 41 1
45 20 42 1
46 20 43 1
47 22 44 1
48 23 45 1
49 26 46 1
50 26 47 1
51 27 48 1
52 27 49 1
@<TRIPOS>SUBSTRUCTURE
1	UNK0	1	GROUP	1 ****	UNK
# created with PyMOL 2.3.2
@<TRIPOS>MOLECULE
1404
51 54 1                 
SMALL
USER_CHARGES
@<TRIPOS>ATOM
1	  Br	1.669	-5.104	1.747	Br	1	UNK0	0.000	
2	   C	1.209	-3.742	0.493	C.2	1	UNK0	0.000	
3	   C	0.248	-2.793	0.786	C.2	1	UNK0	0.000	
4	   C	-0.119	-1.790	-0.086	C.2	1	UNK0	0.000	
5	   C	0.547	-1.778	-1.315	C.2	1	UNK0	0.000	
6	   C	1.502	-2.721	-1.606	C.2	1	UNK0	0.000	
7	   C	1.859	-3.719	-0.723	C.2	1	UNK0	0.000	
8	   C	2.903	-4.717	-1.092	C.3	1	UNK0	0.000	
9	   O	0.153	-0.754	-2.165	O.3	1	UNK0	0.000	
10	   C	-0.970	0.079	-1.947	C.3	1	UNK0	0.000	
11	   C	-1.039	0.520	-0.447	C.3	1	UNK0	0.000	
12	   C	-1.145	-0.802	0.217	C.2	1	UNK0	0.000	
13	   O	-2.024	-1.174	1.014	O.2	1	UNK0	0.000	
14	   N	-2.021	1.425	-0.188	N.3	1	UNK0	0.000	
15	   C	-3.389	1.169	-0.341	C.3	1	UNK0	0.000	
16	   C	-3.890	1.778	-1.633	C.3	1	UNK0	0.000	
17	   O	-3.782	3.178	-1.457	O.3	1	UNK0	0.000	
18	   C	-2.400	3.427	-1.523	C.3	1	UNK0	0.000	
19	   C	-1.749	2.790	-0.293	C.3	1	UNK0	0.000	
20	   C	0.310	1.098	-0.208	C.3	1	UNK0	0.000	
21	   N	0.599	1.642	1.082	N.3	1	UNK0	0.000	
22	   C	0.718	0.757	2.178	C.3	1	UNK0	0.000	
23	   C	2.066	0.022	2.135	C.3	1	UNK0	0.000	
24	   O	3.036	1.009	2.339	O.3	1	UNK0	0.000	
25	   C	3.052	1.804	1.187	C.3	1	UNK0	0.000	
26	   C	1.759	2.528	0.969	C.3	1	UNK0	0.000	
27	   H	-0.276	-2.803	1.757	 H	1	UNK0	0.000	
28	   H	1.997	-2.682	-2.568	 H	1	UNK0	0.000	
29	   H	2.696	-5.711	-0.650	 H	1	UNK0	0.000	
30	   H	2.934	-4.744	-2.205	 H	1	UNK0	0.000	
31	   H	3.900	-4.358	-0.764	 H	1	UNK0	0.000	
32	   H	-0.849	0.956	-2.602	 H	1	UNK0	0.000	
33	   H	-1.910	-0.457	-2.212	 H	1	UNK0	0.000	
34	   H	-3.732	0.141	-0.271	 H	1	UNK0	0.000	
35	   H	-3.935	1.724	0.472	 H	1	UNK0	0.000	
36	   H	-3.325	1.439	-2.497	 H	1	UNK0	0.000	
37	   H	-4.977	1.573	-1.696	 H	1	UNK0	0.000	
38	   H	-2.249	4.515	-1.421	 H	1	UNK0	0.000	
39	   H	-2.053	3.017	-2.468	 H	1	UNK0	0.000	
40	   H	-2.304	3.301	0.568	 H	1	UNK0	0.000	
41	   H	-0.737	3.162	-0.203	 H	1	UNK0	0.000	
42	   H	0.565	1.913	-0.946	 H	1	UNK0	0.000	
43	   H	1.132	0.336	-0.383	 H	1	UNK0	0.000	
44	   H	-0.036	-0.004	2.241	 H	1	UNK0	0.000	
45	   H	0.774	1.369	3.114	 H	1	UNK0	0.000	
46	   H	2.034	-0.689	3.001	 H	1	UNK0	0.000	
47	   H	2.211	-0.528	1.194	 H	1	UNK0	0.000	
48	   H	3.839	2.584	1.385	 H	1	UNK0	0.000	
49	   H	3.390	1.233	0.302	 H	1	UNK0	0.000	
50	   H	1.672	3.392	1.643	 H	1	UNK0	0.000	
51	   H	1.746	2.921	-0.068	 H	1	UNK0	0.000	
@<TRIPOS>BOND
1 1 2 1
2 2 3 2
3 2 7 1
4 3 4 1
5 4 5 2
6 4 12 1
7 5 6 1
8 5 9 1
9 6 7 2
10 7 8 1
11 9 10 1
12 10 11 1
13 11 12 1
14 11 14 1
15 11 20 1
16 12 13 2
17 14 15 1
18 14 19 1
19 15 16 1
20 16 17 1
21 17 18 1
22 18 19 1
23 20 21 1
24 21 22 1
25 21 26 1
26 22 23 1
27 23 24 1
28 24 25 1
29 25 26 1
30 3 27 1
31 6 28 1
32 8 29 1
33 8 30 1
34 8 31 1
35 10 32 1
36 10 33 1
37 15 34 1
38 15 35 1
39 16 36 1
40 16 37 1
41 18 38 1
42 18 39 1
43 19 40 1
44 19 41 1
45 20 42 1
46 20 43 1
47 22 44 1
48 22 45 1
49 23 46 1
50 23 47 1
51 25 48 1
52 25 49 1
53 26 50 1
54 26 51 1
@<TRIPOS>SUBSTRUCTURE
1	UNK0	1	GROUP	1 ****	UNK
# created with PyMOL 2.3.2
@<TRIPOS>MOLECULE
1405
36 39 1                 
SMALL
USER_CHARGES
@<TRIPOS>ATOM
1	  Br	-3.116	4.734	0.099	Br	1	UNK0	0.000	
2	   C	-1.934	3.212	0.072	C.2	1	UNK0	0.000	
3	   C	-2.402	1.959	-0.224	C.2	1	UNK0	0.000	
4	   C	-1.537	0.885	-0.238	C.2	1	UNK0	0.000	
5	   C	-0.221	1.125	0.051	C.2	1	UNK0	0.000	
6	   C	0.259	2.415	0.355	C.2	1	UNK0	0.000	
7	   C	-0.614	3.470	0.364	C.2	1	UNK0	0.000	
8	   N	0.543	-0.076	-0.003	N.pl3	1	UNK0	0.000	
9	   C	-0.324	-1.123	-0.340	C.2	1	UNK0	0.000	
10	   O	0.016	-2.338	-0.476	O.2	1	UNK0	0.000	
11	   C	-1.711	-0.563	-0.510	C.3	1	UNK0	0.000	
12	   C	-2.089	-0.845	-1.890	C.2	1	UNK0	0.000	
13	   C	-3.135	-1.664	-2.182	C.2	1	UNK0	0.000	
14	   N	-3.221	-1.716	-3.544	N.2	1	UNK0	0.000	
15	   N	-2.281	-0.972	-4.088	N.pl3	1	UNK0	0.000	
16	   C	-1.563	-0.419	-3.113	C.2	1	UNK0	0.000	
17	   C	-0.389	0.504	-3.209	C.3	1	UNK0	0.000	
18	   O	-3.911	-2.283	-1.196	O.3	1	UNK0	0.000	
19	   C	-3.547	-2.012	0.119	C.2	1	UNK0	0.000	
20	   C	-2.553	-1.235	0.462	C.2	1	UNK0	0.000	
21	   C	-2.312	-1.061	1.905	C.1	1	UNK0	0.000	
22	   N	-2.103	-0.909	3.044	N.1	1	UNK0	0.000	
23	   N	-4.318	-2.628	1.189	N.pl3	1	UNK0	0.000	
24	   C	1.986	-0.208	0.249	C.3	1	UNK0	0.000	
25	   H	-3.442	1.788	-0.450	 H	1	UNK0	0.000	
26	   H	1.300	2.601	0.583	 H	1	UNK0	0.000	
27	   H	-0.267	4.488	0.598	 H	1	UNK0	0.000	
28	   H	-2.085	-0.807	-5.109	 H	1	UNK0	0.000	
29	   H	-0.207	0.659	-4.304	 H	1	UNK0	0.000	
30	   H	-0.635	1.520	-2.814	 H	1	UNK0	0.000	
31	   H	0.525	0.076	-2.799	 H	1	UNK0	0.000	
32	   H	-3.977	-3.564	1.486	 H	1	UNK0	0.000	
33	   H	-5.129	-2.190	1.621	 H	1	UNK0	0.000	
34	   H	2.109	-0.900	1.105	 H	1	UNK0	0.000	
35	   H	2.385	-0.735	-0.649	 H	1	UNK0	0.000	
36	   H	2.461	0.763	0.386	 H	1	UNK0	0.000	
@<TRIPOS>BOND
1 1 2 1
2 2 3 2
3 2 7 1
4 3 4 1
5 4 5 2
6 4 11 1
7 5 6 1
8 5 8 1
9 6 7 2
10 8 9 1
11 8 24 1
12 9 10 2
13 9 11 1
14 11 12 1
15 11 20 1
16 12 13 1
17 12 16 2
18 13 14 2
19 13 18 1
20 14 15 1
21 15 16 1
22 16 17 1
23 18 19 1
24 19 20 2
25 19 23 1
26 20 21 1
27 21 22 3
28 3 25 1
29 6 26 1
30 7 27 1
31 15 28 1
32 17 29 1
33 17 30 1
34 17 31 1
35 23 32 1
36 23 33 1
37 24 34 1
38 24 35 1
39 24 36 1
@<TRIPOS>SUBSTRUCTURE
1	UNK0	1	GROUP	1 ****	UNK
# created with PyMOL 2.3.2
@<TRIPOS>MOLECULE
1413
38 41 1                 
SMALL
USER_CHARGES
@<TRIPOS>ATOM
1	  Br	-1.349	3.324	-4.193	Br	1	UNK0	0.000	
2	   C	-1.001	2.654	-2.456	C.2	1	UNK0	0.000	
3	   C	-0.259	3.400	-1.605	C.2	1	UNK0	0.000	
4	   N	0.325	4.606	-1.748	N.pl3	1	UNK0	0.000	
5	   N	0.918	4.829	-0.579	N.2	1	UNK0	0.000	
6	   N	0.737	3.850	0.263	N.2	1	UNK0	0.000	
7	   C	-0.017	2.898	-0.346	C.2	1	UNK0	0.000	
8	   C	-0.520	1.660	0.040	C.2	1	UNK0	0.000	
9	   N	-1.257	0.915	-0.801	N.pl3	1	UNK0	0.000	
10	   C	-1.488	1.418	-2.033	C.2	1	UNK0	0.000	
11	   C	-1.804	-0.383	-0.442	C.3	1	UNK0	0.000	
12	   C	-0.925	-1.509	-0.743	C.2	1	UNK0	0.000	
13	   O	-0.987	-1.971	-1.923	O.2	1	UNK0	0.000	
14	   C	0.010	-2.148	0.178	C.2	1	UNK0	0.000	
15	   C	0.779	-3.184	-0.272	C.2	1	UNK0	0.000	
16	   C	1.661	-3.807	0.572	C.2	1	UNK0	0.000	
17	   C	1.809	-3.422	1.892	C.2	1	UNK0	0.000	
18	   C	1.010	-2.364	2.319	C.2	1	UNK0	0.000	
19	   C	0.129	-1.739	1.480	C.2	1	UNK0	0.000	
20	   C	2.690	-4.033	2.760	C.2	1	UNK0	0.000	
21	   C	3.449	-5.074	2.270	C.2	1	UNK0	0.000	
22	   C	3.310	-5.467	0.955	C.2	1	UNK0	0.000	
23	   C	2.430	-4.853	0.094	C.2	1	UNK0	0.000	
24	   C	0.364	5.508	-2.836	C.3	1	UNK0	0.000	
25	   H	-0.304	1.318	1.024	 H	1	UNK0	0.000	
26	   H	-2.078	0.837	-2.725	 H	1	UNK0	0.000	
27	   H	-2.051	-0.415	0.653	 H	1	UNK0	0.000	
28	   H	-2.760	-0.518	-0.981	 H	1	UNK0	0.000	
29	   H	0.725	-3.552	-1.304	 H	1	UNK0	0.000	
30	   H	1.131	-2.062	3.370	 H	1	UNK0	0.000	
31	   H	-0.485	-0.912	1.851	 H	1	UNK0	0.000	
32	   H	2.759	-3.686	3.782	 H	1	UNK0	0.000	
33	   H	4.154	-5.572	2.941	 H	1	UNK0	0.000	
34	   H	3.915	-6.287	0.587	 H	1	UNK0	0.000	
35	   H	2.327	-5.172	-0.948	 H	1	UNK0	0.000	
36	   H	1.155	6.265	-2.655	 H	1	UNK0	0.000	
37	   H	-0.596	6.106	-2.879	 H	1	UNK0	0.000	
38	   H	0.528	5.121	-3.829	 H	1	UNK0	0.000	
@<TRIPOS>BOND
1 1 2 1
2 2 3 2
3 2 10 1
4 3 4 1
5 3 7 1
6 4 5 1
7 4 24 1
8 5 6 2
9 6 7 1
10 7 8 2
11 8 9 1
12 9 10 2
13 9 11 1
14 11 12 1
15 12 13 2
16 12 14 1
17 14 15 2
18 14 19 1
19 15 16 1
20 16 17 2
21 16 23 1
22 17 18 1
23 17 20 1
24 18 19 2
25 20 21 2
26 21 22 1
27 22 23 2
28 8 25 1
29 10 26 1
30 11 27 1
31 11 28 1
32 15 29 1
33 18 30 1
34 19 31 1
35 20 32 1
36 21 33 1
37 22 34 1
38 23 35 1
39 24 36 1
40 24 37 1
41 24 38 1
@<TRIPOS>SUBSTRUCTURE
1	UNK0	1	GROUP	1 ****	UNK
# created with PyMOL 2.3.2
@<TRIPOS>MOLECULE
1415
66 69 1                 
SMALL
USER_CHARGES
@<TRIPOS>ATOM
1	  Br	4.923	3.801	0.412	Br	1	UNK0	0.000	
2	   C	4.681	2.129	-0.493	C.2	1	UNK0	0.000	
3	   C	3.423	1.586	-0.602	C.2	1	UNK0	0.000	
4	   C	3.202	0.363	-1.257	C.2	1	UNK0	0.000	
5	   C	4.312	-0.261	-1.783	C.2	1	UNK0	0.000	
6	   C	5.584	0.261	-1.687	C.2	1	UNK0	0.000	
7	   C	5.775	1.461	-1.041	C.2	1	UNK0	0.000	
8	   C	7.105	2.105	-0.886	C.3	1	UNK0	0.000	
9	  Br	7.103	-0.626	-2.426	Br	1	UNK0	0.000	
10	   C	1.860	-0.174	-1.346	C.2	1	UNK0	0.000	
11	   O	1.641	-1.194	-2.008	O.2	1	UNK0	0.000	
12	   C	0.759	0.506	-0.641	C.3	1	UNK0	0.000	
13	   C	1.068	1.987	-0.653	C.3	1	UNK0	0.000	
14	   O	2.326	2.247	-0.058	O.3	1	UNK0	0.000	
15	   C	-0.594	0.219	-1.218	C.3	1	UNK0	0.000	
16	   N	-0.785	0.590	-2.567	N.4	1	UNK0	0.000	
17	   C	-1.444	-0.466	-3.277	C.3	1	UNK0	0.000	
18	   C	-2.875	-0.668	-2.928	C.3	1	UNK0	0.000	
19	   C	-3.503	0.360	-2.069	C.3	1	UNK0	0.000	
20	   C	-2.871	1.697	-2.061	C.3	1	UNK0	0.000	
21	   C	-1.559	1.781	-2.784	C.3	1	UNK0	0.000	
22	   C	-2.989	-2.013	-2.201	C.3	1	UNK0	0.000	
23	   C	0.823	0.025	0.794	C.3	1	UNK0	0.000	
24	   N	-0.164	0.569	1.663	N.4	1	UNK0	0.000	
25	   C	0.463	1.102	2.871	C.3	1	UNK0	0.000	
26	   C	0.339	0.173	4.043	C.3	1	UNK0	0.000	
27	   C	0.581	-1.249	3.590	C.3	1	UNK0	0.000	
28	   C	-0.547	-1.639	2.686	C.3	1	UNK0	0.000	
29	   C	-1.156	-0.386	2.107	C.3	1	UNK0	0.000	
30	   C	1.480	0.517	5.010	C.3	1	UNK0	0.000	
31	   H	4.199	-1.210	-2.301	 H	1	UNK0	0.000	
32	   H	7.077	3.076	-1.429	 H	1	UNK0	0.000	
33	   H	7.932	1.459	-1.184	 H	1	UNK0	0.000	
34	   H	7.183	2.386	0.203	 H	1	UNK0	0.000	
35	   H	1.115	2.378	-1.680	 H	1	UNK0	0.000	
36	   H	0.253	2.575	-0.146	 H	1	UNK0	0.000	
37	   H	-0.738	-0.879	-1.138	 H	1	UNK0	0.000	
38	   H	-1.353	0.668	-0.545	 H	1	UNK0	0.000	
39	   H	0.145	0.743	-3.033	 H	1	UNK0	0.000	
40	   H	-1.330	-0.226	-4.376	 H	1	UNK0	0.000	
41	   H	-0.849	-1.392	-3.136	 H	1	UNK0	0.000	
42	   H	-3.448	-0.806	-3.874	 H	1	UNK0	0.000	
43	   H	-4.573	0.482	-2.406	 H	1	UNK0	0.000	
44	   H	-3.611	0.000	-1.002	 H	1	UNK0	0.000	
45	   H	-2.738	2.088	-1.009	 H	1	UNK0	0.000	
46	   H	-3.537	2.477	-2.538	 H	1	UNK0	0.000	
47	   H	-1.067	2.724	-2.583	 H	1	UNK0	0.000	
48	   H	-1.812	1.789	-3.887	 H	1	UNK0	0.000	
49	   H	-3.969	-2.501	-2.429	 H	1	UNK0	0.000	
50	   H	-2.124	-2.642	-2.450	 H	1	UNK0	0.000	
51	   H	-2.954	-1.805	-1.115	 H	1	UNK0	0.000	
52	   H	1.844	0.326	1.166	 H	1	UNK0	0.000	
53	   H	0.857	-1.101	0.808	 H	1	UNK0	0.000	
54	   H	-0.646	1.354	1.217	 H	1	UNK0	0.000	
55	   H	0.043	2.082	3.152	 H	1	UNK0	0.000	
56	   H	1.562	1.260	2.706	 H	1	UNK0	0.000	
57	   H	-0.589	0.294	4.616	 H	1	UNK0	0.000	
58	   H	0.611	-1.880	4.501	 H	1	UNK0	0.000	
59	   H	1.566	-1.291	3.114	 H	1	UNK0	0.000	
60	   H	-0.299	-2.365	1.916	 H	1	UNK0	0.000	
61	   H	-1.353	-2.109	3.319	 H	1	UNK0	0.000	
62	   H	-1.749	0.143	2.909	 H	1	UNK0	0.000	
63	   H	-1.883	-0.688	1.352	 H	1	UNK0	0.000	
64	   H	1.741	1.597	4.917	 H	1	UNK0	0.000	
65	   H	2.361	-0.137	4.839	 H	1	UNK0	0.000	
66	   H	1.170	0.348	6.062	 H	1	UNK0	0.000	
@<TRIPOS>BOND
1 1 2 1
2 2 3 2
3 2 7 1
4 3 4 1
5 3 14 1
6 4 5 2
7 4 10 1
8 5 6 1
9 6 7 2
10 6 9 1
11 7 8 1
12 10 11 2
13 10 12 1
14 12 13 1
15 12 15 1
16 12 23 1
17 13 14 1
18 15 16 1
19 16 17 1
20 16 21 1
21 17 18 1
22 18 19 1
23 18 22 1
24 19 20 1
25 20 21 1
26 23 24 1
27 24 25 1
28 24 29 1
29 25 26 1
30 26 27 1
31 26 30 1
32 27 28 1
33 28 29 1
34 5 31 1
35 8 32 1
36 8 33 1
37 8 34 1
38 13 35 1
39 13 36 1
40 15 37 1
41 15 38 1
42 16 39 1
43 17 40 1
44 17 41 1
45 18 42 1
46 19 43 1
47 19 44 1
48 20 45 1
49 20 46 1
50 21 47 1
51 21 48 1
52 22 49 1
53 22 50 1
54 22 51 1
55 23 52 1
56 23 53 1
57 24 54 1
58 25 55 1
59 25 56 1
60 26 57 1
61 27 58 1
62 27 59 1
63 28 60 1
64 28 61 1
65 29 62 1
66 29 63 1
67 30 64 1
68 30 65 1
69 30 66 1
@<TRIPOS>SUBSTRUCTURE
1	UNK0	1	GROUP	1 ****	UNK
# created with PyMOL 2.3.2
@<TRIPOS>MOLECULE
1428
55 58 1                 
SMALL
USER_CHARGES
@<TRIPOS>ATOM
1	  Cl	-2.522	3.565	-0.747	Cl	1	UNK0	0.000	
2	   C	-1.073	3.209	0.188	C.2	1	UNK0	0.000	
3	   C	-0.238	2.172	-0.132	C.2	1	UNK0	0.000	
4	   C	0.882	1.937	0.633	C.2	1	UNK0	0.000	
5	   C	1.123	2.761	1.701	C.2	1	UNK0	0.000	
6	   C	0.269	3.819	2.025	C.2	1	UNK0	0.000	
7	   C	-0.838	4.042	1.260	C.2	1	UNK0	0.000	
8	   N	2.317	2.414	2.393	N.pl3	1	UNK0	0.000	
9	   C	2.852	1.310	1.717	C.2	1	UNK0	0.000	
10	   O	3.943	0.761	2.083	O.2	1	UNK0	0.000	
11	   C	1.978	0.940	0.595	C.3	1	UNK0	0.000	
12	   N	2.751	1.027	-0.612	N.3	1	UNK0	0.000	
13	   C	2.942	-0.289	-1.137	C.3	1	UNK0	0.000	
14	   C	2.540	-1.257	-0.071	C.3	1	UNK0	0.000	
15	   C	1.550	-0.457	0.729	C.3	1	UNK0	0.000	
16	   C	0.141	-0.754	0.364	C.2	1	UNK0	0.000	
17	   O	-0.025	-1.451	-0.666	O.2	1	UNK0	0.000	
18	   N	-0.964	-0.303	1.095	N.pl3	1	UNK0	0.000	
19	   C	-2.322	-0.512	0.850	C.2	1	UNK0	0.000	
20	   C	-3.259	0.030	1.718	C.2	1	UNK0	0.000	
21	   C	-4.617	-0.135	1.536	C.2	1	UNK0	0.000	
22	   C	-5.109	-0.853	0.475	C.2	1	UNK0	0.000	
23	   C	-4.211	-1.399	-0.396	C.2	1	UNK0	0.000	
24	   C	-2.843	-1.224	-0.201	C.2	1	UNK0	0.000	
25	   O	-4.666	-2.129	-1.479	O.3	1	UNK0	0.000	
26	   C	-3.793	-2.724	-2.422	C.3	1	UNK0	0.000	
27	   O	-2.841	0.767	2.812	O.3	1	UNK0	0.000	
28	   C	-3.704	1.351	3.739	C.3	1	UNK0	0.000	
29	   C	4.373	-0.510	-1.599	C.3	1	UNK0	0.000	
30	   C	4.575	-1.862	-2.139	C.2	1	UNK0	0.000	
31	   O	3.633	-2.669	-2.178	O.2	1	UNK0	0.000	
32	   N	5.844	-2.242	-2.614	N.pl3	1	UNK0	0.000	
33	   H	-0.460	1.556	-0.967	 H	1	UNK0	0.000	
34	   H	0.478	4.467	2.882	 H	1	UNK0	0.000	
35	   H	-1.501	4.868	1.517	 H	1	UNK0	0.000	
36	   H	2.723	2.888	3.243	 H	1	UNK0	0.000	
37	   H	2.324	1.697	-1.286	 H	1	UNK0	0.000	
38	   H	2.291	-0.469	-2.028	 H	1	UNK0	0.000	
39	   H	3.390	-1.509	0.614	 H	1	UNK0	0.000	
40	   H	2.086	-2.188	-0.477	 H	1	UNK0	0.000	
41	   H	1.667	-0.740	1.825	 H	1	UNK0	0.000	
42	   H	-0.714	0.271	1.958	 H	1	UNK0	0.000	
43	   H	-5.335	0.303	2.237	 H	1	UNK0	0.000	
44	   H	-6.168	-0.983	0.332	 H	1	UNK0	0.000	
45	   H	-2.217	-1.680	-0.922	 H	1	UNK0	0.000	
46	   H	-2.992	-3.312	-1.935	 H	1	UNK0	0.000	
47	   H	-3.366	-1.895	-3.023	 H	1	UNK0	0.000	
48	   H	-4.329	-3.393	-3.114	 H	1	UNK0	0.000	
49	   H	-4.161	0.511	4.331	 H	1	UNK0	0.000	
50	   H	-3.111	1.976	4.438	 H	1	UNK0	0.000	
51	   H	-4.545	1.903	3.294	 H	1	UNK0	0.000	
52	   H	5.078	-0.283	-0.770	 H	1	UNK0	0.000	
53	   H	4.620	0.208	-2.409	 H	1	UNK0	0.000	
54	   H	5.902	-2.713	-3.542	 H	1	UNK0	0.000	
55	   H	6.743	-2.084	-2.097	 H	1	UNK0	0.000	
@<TRIPOS>BOND
1 1 2 1
2 2 3 2
3 2 7 1
4 3 4 1
5 4 5 2
6 4 11 1
7 5 6 1
8 5 8 1
9 6 7 2
10 8 9 1
11 9 10 2
12 9 11 1
13 11 12 1
14 11 15 1
15 12 13 1
16 13 14 1
17 13 29 1
18 14 15 1
19 15 16 1
20 16 17 2
21 16 18 1
22 18 19 1
23 19 20 2
24 19 24 1
25 20 21 1
26 20 27 1
27 21 22 2
28 22 23 1
29 23 24 2
30 23 25 1
31 25 26 1
32 27 28 1
33 29 30 1
34 30 31 2
35 30 32 1
36 3 33 1
37 6 34 1
38 7 35 1
39 8 36 1
40 12 37 1
41 13 38 1
42 14 39 1
43 14 40 1
44 15 41 1
45 18 42 1
46 21 43 1
47 22 44 1
48 24 45 1
49 26 46 1
50 26 47 1
51 26 48 1
52 28 49 1
53 28 50 1
54 28 51 1
55 29 52 1
56 29 53 1
57 32 54 1
58 32 55 1
@<TRIPOS>SUBSTRUCTURE
1	UNK0	1	GROUP	1 ****	UNK
# created with PyMOL 2.3.2
@<TRIPOS>MOLECULE
1432
32 35 1                 
SMALL
USER_CHARGES
@<TRIPOS>ATOM
1	  Br	4.054	0.146	-4.718	Br	1	UNK0	0.000	
2	   C	2.500	0.937	-3.949	C.2	1	UNK0	0.000	
3	   C	2.322	1.390	-2.644	C.2	1	UNK0	0.000	
4	   N	1.070	1.877	-2.531	N.pl3	1	UNK0	0.000	
5	   N	0.468	1.742	-3.713	N.2	1	UNK0	0.000	
6	   C	1.308	1.174	-4.600	C.2	1	UNK0	0.000	
7	   C	1.069	0.836	-6.023	C.3	1	UNK0	0.000	
8	   C	0.463	2.451	-1.341	C.3	1	UNK0	0.000	
9	   C	-0.220	1.416	-0.517	C.2	1	UNK0	0.000	
10	   N	-1.494	0.996	-0.585	N.2	1	UNK0	0.000	
11	   N	-1.727	0.043	0.333	N.pl3	1	UNK0	0.000	
12	   C	-0.576	-0.148	1.002	C.2	1	UNK0	0.000	
13	   N	0.336	0.692	0.478	N.2	1	UNK0	0.000	
14	   C	-0.568	-1.093	2.010	C.2	1	UNK0	0.000	
15	   C	-1.691	-1.829	2.338	C.2	1	UNK0	0.000	
16	   N	-1.414	-2.678	3.351	N.pl3	1	UNK0	0.000	
17	   N	-0.145	-2.478	3.653	N.2	1	UNK0	0.000	
18	   C	0.409	-1.533	2.872	C.2	1	UNK0	0.000	
19	   C	-2.352	-3.614	3.967	C.3	1	UNK0	0.000	
20	   N	-2.806	-1.585	1.628	N.2	1	UNK0	0.000	
21	   C	-2.826	-0.669	0.646	C.2	1	UNK0	0.000	
22	   H	3.094	1.339	-1.884	 H	1	UNK0	0.000	
23	   H	0.612	-0.167	-6.159	 H	1	UNK0	0.000	
24	   H	1.991	0.868	-6.625	 H	1	UNK0	0.000	
25	   H	0.321	1.588	-6.397	 H	1	UNK0	0.000	
26	   H	-0.246	3.281	-1.610	 H	1	UNK0	0.000	
27	   H	1.270	2.970	-0.746	 H	1	UNK0	0.000	
28	   H	1.412	-1.146	2.867	 H	1	UNK0	0.000	
29	   H	-1.814	-4.464	4.439	 H	1	UNK0	0.000	
30	   H	-2.994	-4.093	3.172	 H	1	UNK0	0.000	
31	   H	-2.977	-3.145	4.734	 H	1	UNK0	0.000	
32	   H	-3.717	-0.457	0.061	 H	1	UNK0	0.000	
@<TRIPOS>BOND
1 1 2 1
2 2 3 2
3 2 6 1
4 3 4 1
5 4 5 1
6 4 8 1
7 5 6 2
8 6 7 1
9 8 9 1
10 9 10 2
11 9 13 1
12 10 11 1
13 11 12 1
14 11 21 1
15 12 13 2
16 12 14 1
17 14 15 2
18 14 18 1
19 15 16 1
20 15 20 1
21 16 17 1
22 16 19 1
23 17 18 2
24 20 21 2
25 3 22 1
26 7 23 1
27 7 24 1
28 7 25 1
29 8 26 1
30 8 27 1
31 18 28 1
32 19 29 1
33 19 30 1
34 19 31 1
35 21 32 1
@<TRIPOS>SUBSTRUCTURE
1	UNK0	1	GROUP	1 ****	UNK
# created with PyMOL 2.3.2
@<TRIPOS>MOLECULE
1433
56 59 1                 
SMALL
USER_CHARGES
@<TRIPOS>ATOM
1	  Br	1.609	3.694	3.408	Br	1	UNK0	0.000	
2	   C	0.378	2.269	3.184	C.2	1	UNK0	0.000	
3	   C	0.493	1.422	2.077	C.2	1	UNK0	0.000	
4	   C	-0.373	0.373	1.889	C.2	1	UNK0	0.000	
5	   C	-1.359	0.186	2.828	C.2	1	UNK0	0.000	
6	   C	-1.497	1.015	3.940	C.2	1	UNK0	0.000	
7	   C	-0.606	2.077	4.120	C.2	1	UNK0	0.000	
8	   C	-0.740	2.966	5.307	C.3	1	UNK0	0.000	
9	   C	-2.594	0.784	4.917	C.3	1	UNK0	0.000	
10	   C	-0.301	-0.601	0.762	C.3	1	UNK0	0.000	
11	   C	0.672	-0.234	-0.316	C.3	1	UNK0	0.000	
12	   C	0.958	1.254	-0.230	C.3	1	UNK0	0.000	
13	   O	1.462	1.569	1.094	O.3	1	UNK0	0.000	
14	   N	-0.001	-0.482	-1.573	N.3	1	UNK0	0.000	
15	   C	0.834	-1.076	-2.563	C.3	1	UNK0	0.000	
16	   C	0.326	-0.993	-3.974	C.3	1	UNK0	0.000	
17	   O	-0.322	0.169	-4.295	O.3	1	UNK0	0.000	
18	   C	-1.392	0.325	-3.404	C.3	1	UNK0	0.000	
19	   C	-0.699	0.671	-2.060	C.3	1	UNK0	0.000	
20	   C	2.005	-0.875	-0.236	C.3	1	UNK0	0.000	
21	   N	2.215	-2.247	-0.314	N.3	1	UNK0	0.000	
22	   C	3.621	-2.512	-0.775	C.3	1	UNK0	0.000	
23	   C	4.610	-1.843	0.106	C.3	1	UNK0	0.000	
24	   O	4.231	-1.723	1.416	O.3	1	UNK0	0.000	
25	   C	3.316	-2.632	1.861	C.3	1	UNK0	0.000	
26	   C	2.234	-3.028	0.909	C.3	1	UNK0	0.000	
27	   O	-1.619	-0.704	0.218	O.3	1	UNK0	0.000	
28	   H	-2.105	-0.623	2.769	 H	1	UNK0	0.000	
29	   H	-1.676	3.529	5.352	 H	1	UNK0	0.000	
30	   H	0.087	3.715	5.280	 H	1	UNK0	0.000	
31	   H	-0.617	2.283	6.197	 H	1	UNK0	0.000	
32	   H	-3.553	1.099	4.415	 H	1	UNK0	0.000	
33	   H	-2.707	-0.263	5.224	 H	1	UNK0	0.000	
34	   H	-2.439	1.471	5.780	 H	1	UNK0	0.000	
35	   H	-0.141	-1.567	1.240	 H	1	UNK0	0.000	
36	   H	0.118	1.907	-0.417	 H	1	UNK0	0.000	
37	   H	1.836	1.443	-0.897	 H	1	UNK0	0.000	
38	   H	0.931	-2.156	-2.344	 H	1	UNK0	0.000	
39	   H	1.789	-0.516	-2.557	 H	1	UNK0	0.000	
40	   H	-0.265	-1.882	-4.275	 H	1	UNK0	0.000	
41	   H	1.226	-1.036	-4.648	 H	1	UNK0	0.000	
42	   H	-1.957	1.212	-3.698	 H	1	UNK0	0.000	
43	   H	-1.974	-0.607	-3.296	 H	1	UNK0	0.000	
44	   H	0.022	1.469	-2.367	 H	1	UNK0	0.000	
45	   H	-1.509	1.009	-1.416	 H	1	UNK0	0.000	
46	   H	2.366	-0.560	0.822	 H	1	UNK0	0.000	
47	   H	2.740	-0.315	-0.871	 H	1	UNK0	0.000	
48	   H	3.707	-2.240	-1.843	 H	1	UNK0	0.000	
49	   H	3.756	-3.608	-0.726	 H	1	UNK0	0.000	
50	   H	5.623	-2.339	0.043	 H	1	UNK0	0.000	
51	   H	4.766	-0.810	-0.295	 H	1	UNK0	0.000	
52	   H	2.833	-2.207	2.761	 H	1	UNK0	0.000	
53	   H	3.911	-3.520	2.221	 H	1	UNK0	0.000	
54	   H	2.580	-4.063	0.525	 H	1	UNK0	0.000	
55	   H	1.285	-3.267	1.358	 H	1	UNK0	0.000	
56	   H	-2.142	-1.263	0.844	 H	1	UNK0	0.000	
@<TRIPOS>BOND
1 1 2 1
2 2 3 2
3 2 7 1
4 3 4 1
5 3 13 1
6 4 5 2
7 4 10 1
8 5 6 1
9 6 7 2
10 6 9 1
11 7 8 1
12 10 11 1
13 10 27 1
14 11 12 1
15 11 14 1
16 11 20 1
17 12 13 1
18 14 15 1
19 14 19 1
20 15 16 1
21 16 17 1
22 17 18 1
23 18 19 1
24 20 21 1
25 21 22 1
26 21 26 1
27 22 23 1
28 23 24 1
29 24 25 1
30 25 26 1
31 5 28 1
32 8 29 1
33 8 30 1
34 8 31 1
35 9 32 1
36 9 33 1
37 9 34 1
38 10 35 1
39 12 36 1
40 12 37 1
41 15 38 1
42 15 39 1
43 16 40 1
44 16 41 1
45 18 42 1
46 18 43 1
47 19 44 1
48 19 45 1
49 20 46 1
50 20 47 1
51 22 48 1
52 22 49 1
53 23 50 1
54 23 51 1
55 25 52 1
56 25 53 1
57 26 54 1
58 26 55 1
59 27 56 1
@<TRIPOS>SUBSTRUCTURE
1	UNK0	1	GROUP	1 ****	UNK
# created with PyMOL 2.3.2
@<TRIPOS>MOLECULE
1434
45 48 1                 
SMALL
USER_CHARGES
@<TRIPOS>ATOM
1	  Br	0.524	3.068	3.429	Br	1	UNK0	0.000	
2	   C	-0.252	2.596	1.747	C.2	1	UNK0	0.000	
3	   C	-0.035	3.310	0.595	C.2	1	UNK0	0.000	
4	   C	-0.744	2.685	-0.398	C.2	1	UNK0	0.000	
5	   N	-1.390	1.602	0.128	N.pl3	1	UNK0	0.000	
6	   C	-1.084	1.554	1.446	C.2	1	UNK0	0.000	
7	   C	-1.579	0.533	2.397	C.3	1	UNK0	0.000	
8	   C	-2.230	0.750	-0.639	C.3	1	UNK0	0.000	
9	   C	-1.676	-0.426	-1.280	C.2	1	UNK0	0.000	
10	   O	-2.584	-1.061	-2.013	O.2	1	UNK0	0.000	
11	   N	-0.422	-1.016	-1.285	N.pl3	1	UNK0	0.000	
12	   C	0.750	-0.590	-0.607	C.3	1	UNK0	0.000	
13	   C	1.056	-1.542	0.550	C.3	1	UNK0	0.000	
14	   C	0.612	-2.948	0.183	C.3	1	UNK0	0.000	
15	   N	1.577	-3.838	0.806	N.pl3	1	UNK0	0.000	
16	   C	1.072	-4.123	2.127	C.2	1	UNK0	0.000	
17	   O	1.738	-4.580	3.089	O.2	1	UNK0	0.000	
18	   N	-0.328	-3.785	2.129	N.pl3	1	UNK0	0.000	
19	   C	-0.666	-3.304	0.834	C.2	1	UNK0	0.000	
20	   O	-1.829	-3.216	0.376	O.2	1	UNK0	0.000	
21	   C	0.627	-3.192	-1.293	C.3	1	UNK0	0.000	
22	   C	-0.234	-2.256	-2.077	C.3	1	UNK0	0.000	
23	   C	-0.706	3.200	-1.694	C.2	1	UNK0	0.000	
24	   C	0.041	4.335	-1.982	C.2	1	UNK0	0.000	
25	   C	0.741	4.944	-0.978	C.2	1	UNK0	0.000	
26	   C	0.709	4.443	0.303	C.2	1	UNK0	0.000	
27	   H	-0.795	0.236	3.130	 H	1	UNK0	0.000	
28	   H	-2.414	0.986	2.983	 H	1	UNK0	0.000	
29	   H	-1.944	-0.382	1.870	 H	1	UNK0	0.000	
30	   H	-2.746	1.398	-1.426	 H	1	UNK0	0.000	
31	   H	-3.114	0.472	0.022	 H	1	UNK0	0.000	
32	   H	0.847	0.438	-0.309	 H	1	UNK0	0.000	
33	   H	1.615	-0.745	-1.342	 H	1	UNK0	0.000	
34	   H	2.151	-1.481	0.718	 H	1	UNK0	0.000	
35	   H	0.558	-1.172	1.446	 H	1	UNK0	0.000	
36	   H	2.460	-4.205	0.394	 H	1	UNK0	0.000	
37	   H	-0.967	-3.878	2.931	 H	1	UNK0	0.000	
38	   H	1.695	-3.193	-1.617	 H	1	UNK0	0.000	
39	   H	0.262	-4.240	-1.450	 H	1	UNK0	0.000	
40	   H	-1.176	-2.659	-2.440	 H	1	UNK0	0.000	
41	   H	0.374	-1.918	-2.967	 H	1	UNK0	0.000	
42	   H	-1.275	2.689	-2.461	 H	1	UNK0	0.000	
43	   H	0.044	4.706	-3.006	 H	1	UNK0	0.000	
44	   H	1.316	5.819	-1.201	 H	1	UNK0	0.000	
45	   H	1.251	4.901	1.113	 H	1	UNK0	0.000	
@<TRIPOS>BOND
1 1 2 1
2 2 3 1
3 2 6 2
4 3 4 2
5 3 26 1
6 4 5 1
7 4 23 1
8 5 6 1
9 5 8 1
10 6 7 1
11 8 9 1
12 9 10 2
13 9 11 1
14 11 12 1
15 11 22 1
16 12 13 1
17 13 14 1
18 14 15 1
19 14 19 1
20 14 21 1
21 15 16 1
22 16 17 2
23 16 18 1
24 18 19 1
25 19 20 2
26 21 22 1
27 23 24 2
28 24 25 1
29 25 26 2
30 7 27 1
31 7 28 1
32 7 29 1
33 8 30 1
34 8 31 1
35 12 32 1
36 12 33 1
37 13 34 1
38 13 35 1
39 15 36 1
40 18 37 1
41 21 38 1
42 21 39 1
43 22 40 1
44 22 41 1
45 23 42 1
46 24 43 1
47 25 44 1
48 26 45 1
@<TRIPOS>SUBSTRUCTURE
1	UNK0	1	GROUP	1 ****	UNK
# created with PyMOL 2.3.2
@<TRIPOS>MOLECULE
1435
46 49 1                 
SMALL
USER_CHARGES
@<TRIPOS>ATOM
1	  Br	-1.520	3.015	0.786	Br	1	UNK0	0.000	
2	   C	-2.079	1.971	-0.712	C.2	1	UNK0	0.000	
3	   N	-2.383	0.653	-0.625	N.pl3	1	UNK0	0.000	
4	   C	-2.727	0.294	-1.882	C.2	1	UNK0	0.000	
5	   C	-2.640	1.368	-2.743	C.2	1	UNK0	0.000	
6	   N	-2.231	2.406	-1.976	N.2	1	UNK0	0.000	
7	   N	-2.932	1.272	-4.060	N.pl3	1	UNK0	0.000	
8	   C	-3.320	0.073	-4.530	C.2	1	UNK0	0.000	
9	   O	-3.608	-0.093	-5.745	O.2	1	UNK0	0.000	
10	   N	-3.417	-1.010	-3.711	N.pl3	1	UNK0	0.000	
11	   C	-3.129	-0.924	-2.404	C.2	1	UNK0	0.000	
12	   O	-3.203	-1.889	-1.611	O.2	1	UNK0	0.000	
13	   C	-2.836	2.413	-4.951	C.3	1	UNK0	0.000	
14	   C	-2.357	-0.208	0.533	C.3	1	UNK0	0.000	
15	   C	-0.996	-0.869	0.704	C.3	1	UNK0	0.000	
16	   C	-0.978	-1.765	1.914	C.3	1	UNK0	0.000	
17	   C	0.335	-2.440	2.177	C.3	1	UNK0	0.000	
18	   N	1.358	-1.473	2.398	N.pl3	1	UNK0	0.000	
19	   C	2.235	-0.925	1.559	C.2	1	UNK0	0.000	
20	   C	3.003	0.001	2.256	C.2	1	UNK0	0.000	
21	   N	2.553	-0.026	3.507	N.2	1	UNK0	0.000	
22	   C	1.560	-0.910	3.616	C.2	1	UNK0	0.000	
23	  Br	0.623	-1.274	5.236	Br	1	UNK0	0.000	
24	   N	3.967	0.692	1.641	N.pl3	1	UNK0	0.000	
25	   C	4.222	0.510	0.331	C.2	1	UNK0	0.000	
26	   O	5.130	1.164	-0.240	O.2	1	UNK0	0.000	
27	   N	3.492	-0.378	-0.351	N.pl3	1	UNK0	0.000	
28	   C	2.515	-1.092	0.228	C.2	1	UNK0	0.000	
29	   O	1.846	-1.918	-0.424	O.2	1	UNK0	0.000	
30	   C	4.787	1.670	2.348	C.3	1	UNK0	0.000	
31	   H	-3.722	-1.927	-4.114	 H	1	UNK0	0.000	
32	   H	-2.875	3.372	-4.394	 H	1	UNK0	0.000	
33	   H	-1.834	2.405	-5.468	 H	1	UNK0	0.000	
34	   H	-3.663	2.450	-5.690	 H	1	UNK0	0.000	
35	   H	-3.170	-0.931	0.526	 H	1	UNK0	0.000	
36	   H	-2.482	0.458	1.424	 H	1	UNK0	0.000	
37	   H	-0.801	-1.559	-0.170	 H	1	UNK0	0.000	
38	   H	-0.179	-0.139	0.742	 H	1	UNK0	0.000	
39	   H	-1.352	-1.202	2.797	 H	1	UNK0	0.000	
40	   H	-1.726	-2.606	1.804	 H	1	UNK0	0.000	
41	   H	0.180	-3.096	3.070	 H	1	UNK0	0.000	
42	   H	0.545	-3.133	1.340	 H	1	UNK0	0.000	
43	   H	3.660	-0.552	-1.383	 H	1	UNK0	0.000	
44	   H	4.335	1.817	3.354	 H	1	UNK0	0.000	
45	   H	4.710	2.614	1.763	 H	1	UNK0	0.000	
46	   H	5.838	1.344	2.424	 H	1	UNK0	0.000	
@<TRIPOS>BOND
1 1 2 1
2 2 3 1
3 2 6 2
4 3 4 1
5 3 14 1
6 4 5 2
7 4 11 1
8 5 6 1
9 5 7 1
10 7 8 1
11 7 13 1
12 8 9 2
13 8 10 1
14 10 11 1
15 11 12 2
16 14 15 1
17 15 16 1
18 16 17 1
19 17 18 1
20 18 19 1
21 18 22 1
22 19 20 2
23 19 28 1
24 20 21 1
25 20 24 1
26 21 22 2
27 22 23 1
28 24 25 1
29 24 30 1
30 25 26 2
31 25 27 1
32 27 28 1
33 28 29 2
34 10 31 1
35 13 32 1
36 13 33 1
37 13 34 1
38 14 35 1
39 14 36 1
40 15 37 1
41 15 38 1
42 16 39 1
43 16 40 1
44 17 41 1
45 17 42 1
46 27 43 1
47 30 44 1
48 30 45 1
49 30 46 1
@<TRIPOS>SUBSTRUCTURE
1	UNK0	1	GROUP	1 ****	UNK
# created with PyMOL 2.3.2
@<TRIPOS>MOLECULE
1436
47 50 1                 
SMALL
USER_CHARGES
@<TRIPOS>ATOM
1	  Br	-2.552	-0.133	0.496	Br	1	UNK0	0.000	
2	   C	-0.973	-1.161	0.169	C.2	1	UNK0	0.000	
3	   N	0.279	-0.843	0.491	N.pl3	1	UNK0	0.000	
4	   C	1.043	-1.902	0.104	C.2	1	UNK0	0.000	
5	   C	0.203	-2.841	-0.454	C.2	1	UNK0	0.000	
6	   N	-1.040	-2.381	-0.413	N.2	1	UNK0	0.000	
7	   N	0.732	-4.007	-0.919	N.pl3	1	UNK0	0.000	
8	   C	2.045	-4.205	-0.819	C.2	1	UNK0	0.000	
9	   O	2.507	-5.297	-1.260	O.2	1	UNK0	0.000	
10	   N	2.872	-3.297	-0.277	N.pl3	1	UNK0	0.000	
11	   C	2.404	-2.111	0.206	C.2	1	UNK0	0.000	
12	   O	3.186	-1.269	0.714	O.2	1	UNK0	0.000	
13	   C	-0.117	-5.019	-1.513	C.3	1	UNK0	0.000	
14	   C	0.830	0.328	1.085	C.3	1	UNK0	0.000	
15	   C	1.348	1.386	0.202	C.3	1	UNK0	0.000	
16	   O	0.549	2.086	-0.640	O.3	1	UNK0	0.000	
17	   C	-0.317	2.915	0.054	C.3	1	UNK0	0.000	
18	   C	-1.083	3.755	-0.924	C.3	1	UNK0	0.000	
19	   N	-1.859	2.961	-1.823	N.pl3	1	UNK0	0.000	
20	   C	-3.142	2.614	-1.655	C.2	1	UNK0	0.000	
21	   C	-3.510	1.855	-2.722	C.2	1	UNK0	0.000	
22	   N	-2.444	1.758	-3.512	N.2	1	UNK0	0.000	
23	   C	-1.404	2.429	-2.990	C.2	1	UNK0	0.000	
24	  Br	0.358	2.642	-3.666	Br	1	UNK0	0.000	
25	   N	-4.762	1.373	-2.806	N.pl3	1	UNK0	0.000	
26	   C	-5.629	1.650	-1.835	C.2	1	UNK0	0.000	
27	   O	-6.799	1.192	-1.927	O.2	1	UNK0	0.000	
28	   N	-5.290	2.389	-0.786	N.pl3	1	UNK0	0.000	
29	   C	-4.058	2.889	-0.659	C.2	1	UNK0	0.000	
30	   O	-3.773	3.593	0.362	O.2	1	UNK0	0.000	
31	   C	-5.172	0.563	-3.934	C.3	1	UNK0	0.000	
32	   H	3.898	-3.466	-0.205	 H	1	UNK0	0.000	
33	   H	-1.093	-5.062	-0.978	 H	1	UNK0	0.000	
34	   H	0.339	-6.013	-1.454	 H	1	UNK0	0.000	
35	   H	-0.291	-4.799	-2.597	 H	1	UNK0	0.000	
36	   H	-0.018	0.786	1.686	 H	1	UNK0	0.000	
37	   H	1.566	0.068	1.914	 H	1	UNK0	0.000	
38	   H	1.883	2.195	0.830	 H	1	UNK0	0.000	
39	   H	2.267	0.986	-0.372	 H	1	UNK0	0.000	
40	   H	0.324	3.617	0.686	 H	1	UNK0	0.000	
41	   H	-0.897	2.335	0.753	 H	1	UNK0	0.000	
42	   H	-1.720	4.456	-0.316	 H	1	UNK0	0.000	
43	   H	-0.325	4.375	-1.461	 H	1	UNK0	0.000	
44	   H	-5.984	2.595	-0.035	 H	1	UNK0	0.000	
45	   H	-5.614	1.226	-4.693	 H	1	UNK0	0.000	
46	   H	-4.303	0.020	-4.346	 H	1	UNK0	0.000	
47	   H	-5.912	-0.179	-3.527	 H	1	UNK0	0.000	
@<TRIPOS>BOND
1 1 2 1
2 2 3 1
3 2 6 2
4 3 4 1
5 3 14 1
6 4 5 2
7 4 11 1
8 5 6 1
9 5 7 1
10 7 8 1
11 7 13 1
12 8 9 2
13 8 10 1
14 10 11 1
15 11 12 2
16 14 15 1
17 15 16 1
18 16 17 1
19 17 18 1
20 18 19 1
21 19 20 1
22 19 23 1
23 20 21 2
24 20 29 1
25 21 22 1
26 21 25 1
27 22 23 2
28 23 24 1
29 25 26 1
30 25 31 1
31 26 27 2
32 26 28 1
33 28 29 1
34 29 30 2
35 10 32 1
36 13 33 1
37 13 34 1
38 13 35 1
39 14 36 1
40 14 37 1
41 15 38 1
42 15 39 1
43 17 40 1
44 17 41 1
45 18 42 1
46 18 43 1
47 28 44 1
48 31 45 1
49 31 46 1
50 31 47 1
@<TRIPOS>SUBSTRUCTURE
1	UNK0	1	GROUP	1 ****	UNK
# created with PyMOL 2.3.2
@<TRIPOS>MOLECULE
1444
51 54 1                 
SMALL
USER_CHARGES
@<TRIPOS>ATOM
1	  Cl	-1.018	-5.949	3.182	Cl	1	UNK0	0.000	
2	   C	-0.390	-4.544	4.012	C.2	1	UNK0	0.000	
3	   C	-1.029	-3.345	3.894	C.2	1	UNK0	0.000	
4	   C	-0.491	-2.272	4.569	C.2	1	UNK0	0.000	
5	   C	0.641	-2.382	5.335	C.2	1	UNK0	0.000	
6	   C	1.279	-3.599	5.447	C.2	1	UNK0	0.000	
7	   C	0.747	-4.676	4.775	C.2	1	UNK0	0.000	
8	   C	-2.250	-3.140	3.093	C.3	1	UNK0	0.000	
9	   N	-2.030	-3.084	1.690	N.pl3	1	UNK0	0.000	
10	   N	-2.038	-4.108	0.846	N.2	1	UNK0	0.000	
11	   C	-1.793	-3.714	-0.392	C.2	1	UNK0	0.000	
12	   C	-1.615	-2.324	-0.329	C.2	1	UNK0	0.000	
13	   C	-1.766	-1.943	0.985	C.2	1	UNK0	0.000	
14	   N	-1.724	-0.647	1.485	N.pl3	1	UNK0	0.000	
15	   C	-1.383	0.596	1.056	C.2	1	UNK0	0.000	
16	   O	-1.727	1.487	2.045	O.2	1	UNK0	0.000	
17	   C	-0.787	1.306	-0.064	C.3	1	UNK0	0.000	
18	   N	-0.245	0.731	-1.219	N.pl3	1	UNK0	0.000	
19	   C	0.983	-0.108	-1.203	C.3	1	UNK0	0.000	
20	   C	1.395	-0.206	-2.657	C.3	1	UNK0	0.000	
21	   C	0.324	-0.948	-3.412	C.3	1	UNK0	0.000	
22	   C	-0.925	-0.095	-3.479	C.3	1	UNK0	0.000	
23	   C	-0.830	1.023	-2.496	C.2	1	UNK0	0.000	
24	   C	-1.188	2.260	-2.848	C.2	1	UNK0	0.000	
25	   N	-1.784	2.530	-4.128	N.pl3	1	UNK0	0.000	
26	   N	-1.999	3.914	-4.259	N.pl3	1	UNK0	0.000	
27	   C	-1.549	4.539	-3.078	C.2	1	UNK0	0.000	
28	   O	-1.551	5.752	-2.768	O.2	1	UNK0	0.000	
29	   N	-1.051	3.495	-2.222	N.pl3	1	UNK0	0.000	
30	   H	-0.965	-1.306	4.502	 H	1	UNK0	0.000	
31	   H	1.042	-1.525	5.853	 H	1	UNK0	0.000	
32	   H	2.173	-3.681	6.053	 H	1	UNK0	0.000	
33	   H	1.246	-5.625	4.864	 H	1	UNK0	0.000	
34	   H	-2.832	-2.278	3.508	 H	1	UNK0	0.000	
35	   H	-2.911	-4.031	3.318	 H	1	UNK0	0.000	
36	   H	-1.727	-4.284	-1.316	 H	1	UNK0	0.000	
37	   H	-1.412	-1.713	-1.184	 H	1	UNK0	0.000	
38	   H	-2.172	-0.627	2.516	 H	1	UNK0	0.000	
39	   H	-1.688	1.984	-0.382	 H	1	UNK0	0.000	
40	   H	-0.013	2.077	0.346	 H	1	UNK0	0.000	
41	   H	1.804	0.478	-0.724	 H	1	UNK0	0.000	
42	   H	0.849	-1.093	-0.813	 H	1	UNK0	0.000	
43	   H	2.362	-0.785	-2.729	 H	1	UNK0	0.000	
44	   H	1.565	0.792	-3.109	 H	1	UNK0	0.000	
45	   H	0.676	-1.183	-4.448	 H	1	UNK0	0.000	
46	   H	0.135	-1.903	-2.898	 H	1	UNK0	0.000	
47	   H	-1.100	0.266	-4.519	 H	1	UNK0	0.000	
48	   H	-1.794	-0.710	-3.229	 H	1	UNK0	0.000	
49	   H	-2.060	1.899	-4.905	 H	1	UNK0	0.000	
50	   H	-2.418	4.427	-5.074	 H	1	UNK0	0.000	
51	   H	-0.633	3.662	-1.292	 H	1	UNK0	0.000	
@<TRIPOS>BOND
1 1 2 1
2 2 3 2
3 2 7 1
4 3 4 1
5 3 8 1
6 4 5 2
7 5 6 1
8 6 7 2
9 8 9 1
10 9 10 1
11 9 13 1
12 10 11 2
13 11 12 1
14 12 13 2
15 13 14 1
16 14 15 1
17 15 16 2
18 15 17 1
19 17 18 1
20 18 19 1
21 18 23 1
22 19 20 1
23 20 21 1
24 21 22 1
25 22 23 1
26 23 24 2
27 24 25 1
28 24 29 1
29 25 26 1
30 26 27 1
31 27 28 2
32 27 29 1
33 4 30 1
34 5 31 1
35 6 32 1
36 7 33 1
37 8 34 1
38 8 35 1
39 11 36 1
40 12 37 1
41 14 38 1
42 17 39 1
43 17 40 1
44 19 41 1
45 19 42 1
46 20 43 1
47 20 44 1
48 21 45 1
49 21 46 1
50 22 47 1
51 22 48 1
52 25 49 1
53 26 50 1
54 29 51 1
@<TRIPOS>SUBSTRUCTURE
1	UNK0	1	GROUP	1 ****	UNK
# created with PyMOL 2.3.2
@<TRIPOS>MOLECULE
1447
50 53 1                 
SMALL
USER_CHARGES
@<TRIPOS>ATOM
1	  Br	6.306	4.298	0.806	Br	1	UNK0	0.000	
2	   C	4.690	4.421	-0.175	C.2	1	UNK0	0.000	
3	   C	4.471	5.486	-0.999	C.2	1	UNK0	0.000	
4	   C	3.273	5.549	-1.706	C.2	1	UNK0	0.000	
5	   C	2.333	4.534	-1.558	C.2	1	UNK0	0.000	
6	   C	2.545	3.462	-0.733	C.2	1	UNK0	0.000	
7	   C	3.734	3.413	-0.040	C.2	1	UNK0	0.000	
8	   O	3.938	2.323	0.792	O.3	1	UNK0	0.000	
9	   C	1.549	2.411	-0.592	C.2	1	UNK0	0.000	
10	   N	1.699	1.386	0.169	N.2	1	UNK0	0.000	
11	   N	0.652	0.405	0.237	N.pl3	1	UNK0	0.000	
12	   C	-0.027	0.286	1.442	C.2	1	UNK0	0.000	
13	   O	0.348	1.069	2.394	O.2	1	UNK0	0.000	
14	   C	-1.115	-0.607	1.793	C.2	1	UNK0	0.000	
15	   N	-1.691	-0.703	3.035	N.2	1	UNK0	0.000	
16	   N	-2.641	-1.596	3.004	N.2	1	UNK0	0.000	
17	   N	-2.760	-2.133	1.802	N.pl3	1	UNK0	0.000	
18	   C	-1.831	-1.539	1.034	C.2	1	UNK0	0.000	
19	   C	-1.544	-1.819	-0.376	C.3	1	UNK0	0.000	
20	   N	-2.463	-2.774	-1.001	N.3	1	UNK0	0.000	
21	   C	-1.913	-3.161	-2.315	C.3	1	UNK0	0.000	
22	   C	-1.479	-1.946	-3.058	C.3	1	UNK0	0.000	
23	   O	-2.519	-1.052	-3.129	O.3	1	UNK0	0.000	
24	   C	-3.723	-1.549	-2.704	C.3	1	UNK0	0.000	
25	   C	-3.733	-2.066	-1.289	C.3	1	UNK0	0.000	
26	   C	-3.687	-3.154	1.478	C.2	1	UNK0	0.000	
27	   N	-3.463	-4.390	0.983	N.2	1	UNK0	0.000	
28	   O	-4.598	-5.021	0.838	O.3	1	UNK0	0.000	
29	   N	-5.594	-4.261	1.216	N.2	1	UNK0	0.000	
30	   C	-5.065	-3.094	1.620	C.2	1	UNK0	0.000	
31	   N	-5.821	-2.005	2.105	N.pl3	1	UNK0	0.000	
32	  Br	2.938	7.015	-2.860	Br	1	UNK0	0.000	
33	   O	5.395	6.508	-1.161	O.3	1	UNK0	0.000	
34	   H	1.412	4.583	-2.102	 H	1	UNK0	0.000	
35	   H	4.796	2.241	1.323	 H	1	UNK0	0.000	
36	   H	0.620	2.477	-1.153	 H	1	UNK0	0.000	
37	   H	0.491	-0.145	-0.640	 H	1	UNK0	0.000	
38	   H	-0.539	-2.224	-0.515	 H	1	UNK0	0.000	
39	   H	-1.656	-0.898	-0.964	 H	1	UNK0	0.000	
40	   H	-1.112	-3.908	-2.201	 H	1	UNK0	0.000	
41	   H	-2.746	-3.642	-2.860	 H	1	UNK0	0.000	
42	   H	-0.599	-1.448	-2.617	 H	1	UNK0	0.000	
43	   H	-1.254	-2.251	-4.122	 H	1	UNK0	0.000	
44	   H	-4.440	-0.673	-2.714	 H	1	UNK0	0.000	
45	   H	-4.131	-2.281	-3.432	 H	1	UNK0	0.000	
46	   H	-4.536	-2.812	-1.232	 H	1	UNK0	0.000	
47	   H	-3.913	-1.242	-0.606	 H	1	UNK0	0.000	
48	   H	-6.273	-2.084	3.034	 H	1	UNK0	0.000	
49	   H	-5.943	-1.127	1.569	 H	1	UNK0	0.000	
50	   H	5.209	7.284	-1.775	 H	1	UNK0	0.000	
@<TRIPOS>BOND
1 1 2 1
2 2 3 2
3 2 7 1
4 3 4 1
5 3 33 1
6 4 5 2
7 4 32 1
8 5 6 1
9 6 7 2
10 6 9 1
11 7 8 1
12 9 10 2
13 10 11 1
14 11 12 1
15 12 13 2
16 12 14 1
17 14 15 1
18 14 18 2
19 15 16 2
20 16 17 1
21 17 18 1
22 17 26 1
23 18 19 1
24 19 20 1
25 20 21 1
26 20 25 1
27 21 22 1
28 22 23 1
29 23 24 1
30 24 25 1
31 26 27 2
32 26 30 1
33 27 28 1
34 28 29 1
35 29 30 2
36 30 31 1
37 5 34 1
38 8 35 1
39 9 36 1
40 11 37 1
41 19 38 1
42 19 39 1
43 21 40 1
44 21 41 1
45 22 42 1
46 22 43 1
47 24 44 1
48 24 45 1
49 25 46 1
50 25 47 1
51 31 48 1
52 31 49 1
53 33 50 1
@<TRIPOS>SUBSTRUCTURE
1	UNK0	1	GROUP	1 ****	UNK
# created with PyMOL 2.3.2
@<TRIPOS>MOLECULE
1466
41 44 1                 
SMALL
USER_CHARGES
@<TRIPOS>ATOM
1	  Br	0.879	-3.140	-5.483	Br	1	UNK0	0.000	
2	   C	-0.858	-2.456	-5.080	C.2	1	UNK0	0.000	
3	   C	-1.668	-2.061	-6.121	C.2	1	UNK0	0.000	
4	   N	-2.904	-1.571	-5.868	N.2	1	UNK0	0.000	
5	   C	-3.311	-1.484	-4.588	C.2	1	UNK0	0.000	
6	   C	-2.559	-1.857	-3.511	C.2	1	UNK0	0.000	
7	   C	-1.296	-2.358	-3.759	C.2	1	UNK0	0.000	
8	   C	-3.098	-1.720	-2.166	C.2	1	UNK0	0.000	
9	   O	-4.276	-1.246	-2.046	O.2	1	UNK0	0.000	
10	   N	-2.367	-2.090	-1.006	N.pl3	1	UNK0	0.000	
11	   C	-3.003	-1.910	0.290	C.3	1	UNK0	0.000	
12	   C	-2.083	-2.354	1.405	C.3	1	UNK0	0.000	
13	   N	-0.883	-1.516	1.299	N.pl3	1	UNK0	0.000	
14	   N	0.218	-1.748	0.604	N.2	1	UNK0	0.000	
15	   N	1.083	-0.755	0.759	N.2	1	UNK0	0.000	
16	   C	0.555	0.169	1.577	C.2	1	UNK0	0.000	
17	   C	-0.686	-0.319	1.913	C.2	1	UNK0	0.000	
18	   C	1.158	1.415	2.015	C.2	1	UNK0	0.000	
19	   N	2.372	1.891	1.685	N.2	1	UNK0	0.000	
20	   C	2.566	3.073	2.292	C.2	1	UNK0	0.000	
21	   N	1.448	3.308	2.997	N.2	1	UNK0	0.000	
22	   O	0.638	2.311	2.812	O.3	1	UNK0	0.000	
23	   C	3.763	3.937	2.203	C.2	1	UNK0	0.000	
24	   C	4.832	3.547	1.430	C.2	1	UNK0	0.000	
25	   N	5.927	4.326	1.341	N.2	1	UNK0	0.000	
26	   C	6.044	5.505	1.985	C.2	1	UNK0	0.000	
27	   C	4.965	5.888	2.758	C.2	1	UNK0	0.000	
28	   C	3.832	5.126	2.876	C.2	1	UNK0	0.000	
29	   H	-1.342	-2.129	-7.169	 H	1	UNK0	0.000	
30	   H	-4.318	-1.082	-4.439	 H	1	UNK0	0.000	
31	   H	-0.651	-2.671	-2.952	 H	1	UNK0	0.000	
32	   H	-1.406	-2.477	-1.088	 H	1	UNK0	0.000	
33	   H	-3.155	-0.806	0.425	 H	1	UNK0	0.000	
34	   H	-3.978	-2.432	0.307	 H	1	UNK0	0.000	
35	   H	-2.600	-2.177	2.362	 H	1	UNK0	0.000	
36	   H	-1.749	-3.396	1.291	 H	1	UNK0	0.000	
37	   H	-1.400	0.159	2.558	 H	1	UNK0	0.000	
38	   H	4.769	2.589	0.890	 H	1	UNK0	0.000	
39	   H	6.938	6.122	1.901	 H	1	UNK0	0.000	
40	   H	5.026	6.834	3.291	 H	1	UNK0	0.000	
41	   H	2.978	5.424	3.485	 H	1	UNK0	0.000	
@<TRIPOS>BOND
1 1 2 1
2 2 3 2
3 2 7 1
4 3 4 1
5 4 5 2
6 5 6 1
7 6 7 2
8 6 8 1
9 8 9 2
10 8 10 1
11 10 11 1
12 11 12 1
13 12 13 1
14 13 14 1
15 13 17 1
16 14 15 2
17 15 16 1
18 16 17 2
19 16 18 1
20 18 19 2
21 18 22 1
22 19 20 1
23 20 21 2
24 20 23 1
25 21 22 1
26 23 24 2
27 23 28 1
28 24 25 1
29 25 26 2
30 26 27 1
31 27 28 2
32 3 29 1
33 5 30 1
34 7 31 1
35 10 32 1
36 11 33 1
37 11 34 1
38 12 35 1
39 12 36 1
40 17 37 1
41 24 38 1
42 26 39 1
43 27 40 1
44 28 41 1
@<TRIPOS>SUBSTRUCTURE
1	UNK0	1	GROUP	1 ****	UNK
# created with PyMOL 2.3.2
@<TRIPOS>MOLECULE
1471
54 57 1                 
SMALL
USER_CHARGES
@<TRIPOS>ATOM
1	  Cl	-1.849	-4.513	-4.502	Cl	1	UNK0	0.000	
2	   C	-2.853	-4.025	-3.133	C.2	1	UNK0	0.000	
3	   C	-2.316	-3.218	-2.154	C.2	1	UNK0	0.000	
4	   C	-3.116	-2.855	-1.105	C.2	1	UNK0	0.000	
5	   C	-4.436	-3.264	-0.992	C.2	1	UNK0	0.000	
6	   C	-4.944	-4.082	-2.007	C.2	1	UNK0	0.000	
7	   C	-4.160	-4.459	-3.069	C.2	1	UNK0	0.000	
8	   N	-0.983	-2.767	-2.208	N.pl3	1	UNK0	0.000	
9	   C	0.122	-3.689	-2.228	C.3	1	UNK0	0.000	
10	   C	1.214	-3.332	-1.251	C.3	1	UNK0	0.000	
11	   N	1.010	-1.973	-0.827	N.pl3	1	UNK0	0.000	
12	   C	0.667	-1.004	-1.836	C.3	1	UNK0	0.000	
13	   C	-0.781	-1.311	-2.243	C.3	1	UNK0	0.000	
14	   C	1.130	-1.547	0.514	C.2	1	UNK0	0.000	
15	   O	1.430	-2.360	1.437	O.2	1	UNK0	0.000	
16	   C	0.918	-0.164	0.910	C.2	1	UNK0	0.000	
17	   C	1.958	0.724	0.928	C.2	1	UNK0	0.000	
18	   N	1.841	2.039	1.288	N.pl3	1	UNK0	0.000	
19	   C	0.634	2.469	1.641	C.2	1	UNK0	0.000	
20	   C	-0.468	1.655	1.655	C.2	1	UNK0	0.000	
21	   C	-0.326	0.263	1.271	C.2	1	UNK0	0.000	
22	   N	-1.553	-0.280	1.380	N.2	1	UNK0	0.000	
23	   N	-2.417	0.634	1.788	N.pl3	1	UNK0	0.000	
24	   C	-1.807	1.813	1.966	C.2	1	UNK0	0.000	
25	   O	-2.293	2.921	2.348	O.2	1	UNK0	0.000	
26	   C	3.008	2.906	1.235	C.3	1	UNK0	0.000	
27	   C	3.872	2.897	2.416	C.3	1	UNK0	0.000	
28	   C	3.450	3.322	3.752	C.3	1	UNK0	0.000	
29	   O	3.112	4.593	4.024	O.3	1	UNK0	0.000	
30	   C	2.055	5.210	3.492	C.3	1	UNK0	0.000	
31	   H	-2.711	-2.227	-0.334	 H	1	UNK0	0.000	
32	   H	-5.036	-2.964	-0.160	 H	1	UNK0	0.000	
33	   H	-5.974	-4.387	-1.895	 H	1	UNK0	0.000	
34	   H	-4.570	-5.082	-3.829	 H	1	UNK0	0.000	
35	   H	0.558	-3.814	-3.241	 H	1	UNK0	0.000	
36	   H	-0.259	-4.689	-1.930	 H	1	UNK0	0.000	
37	   H	1.272	-4.042	-0.404	 H	1	UNK0	0.000	
38	   H	2.211	-3.371	-1.771	 H	1	UNK0	0.000	
39	   H	1.259	-1.165	-2.783	 H	1	UNK0	0.000	
40	   H	0.770	0.033	-1.491	 H	1	UNK0	0.000	
41	   H	-1.025	-0.896	-3.229	 H	1	UNK0	0.000	
42	   H	-1.432	-0.886	-1.451	 H	1	UNK0	0.000	
43	   H	2.982	0.427	0.645	 H	1	UNK0	0.000	
44	   H	0.451	3.503	1.916	 H	1	UNK0	0.000	
45	   H	-3.453	0.513	1.967	 H	1	UNK0	0.000	
46	   H	2.776	3.911	0.815	 H	1	UNK0	0.000	
47	   H	3.632	2.444	0.387	 H	1	UNK0	0.000	
48	   H	4.404	1.881	2.483	 H	1	UNK0	0.000	
49	   H	4.777	3.561	2.150	 H	1	UNK0	0.000	
50	   H	2.694	2.589	4.208	 H	1	UNK0	0.000	
51	   H	4.353	3.095	4.440	 H	1	UNK0	0.000	
52	   H	1.089	4.706	3.762	 H	1	UNK0	0.000	
53	   H	2.034	5.385	2.413	 H	1	UNK0	0.000	
54	   H	1.929	6.224	4.021	 H	1	UNK0	0.000	
@<TRIPOS>BOND
1 1 2 1
2 2 3 2
3 2 7 1
4 3 4 1
5 3 8 1
6 4 5 2
7 5 6 1
8 6 7 2
9 8 9 1
10 8 13 1
11 9 10 1
12 10 11 1
13 11 12 1
14 11 14 1
15 12 13 1
16 14 15 2
17 14 16 1
18 16 17 2
19 16 21 1
20 17 18 1
21 18 19 1
22 18 26 1
23 19 20 2
24 20 21 1
25 20 24 1
26 21 22 2
27 22 23 1
28 23 24 1
29 24 25 2
30 26 27 1
31 27 28 1
32 28 29 1
33 29 30 1
34 4 31 1
35 5 32 1
36 6 33 1
37 7 34 1
38 9 35 1
39 9 36 1
40 10 37 1
41 10 38 1
42 12 39 1
43 12 40 1
44 13 41 1
45 13 42 1
46 17 43 1
47 19 44 1
48 23 45 1
49 26 46 1
50 26 47 1
51 27 48 1
52 27 49 1
53 28 50 1
54 28 51 1
55 30 52 1
56 30 53 1
57 30 54 1
@<TRIPOS>SUBSTRUCTURE
1	UNK0	1	GROUP	1 ****	UNK
# created with PyMOL 2.3.2
@<TRIPOS>MOLECULE
1477
59 63 1                 
SMALL
USER_CHARGES
@<TRIPOS>ATOM
1	  Br	-2.312	3.080	2.612	Br	1	UNK0	0.000	
2	   C	-2.479	1.547	1.506	C.2	1	UNK0	0.000	
3	   C	-1.371	0.985	0.911	C.2	1	UNK0	0.000	
4	   C	-1.490	-0.145	0.091	C.2	1	UNK0	0.000	
5	   C	-2.773	-0.624	-0.058	C.2	1	UNK0	0.000	
6	   C	-3.896	-0.100	0.513	C.2	1	UNK0	0.000	
7	   C	-3.739	1.016	1.315	C.2	1	UNK0	0.000	
8	   C	-0.326	-0.695	-0.575	C.3	1	UNK0	0.000	
9	   N	0.333	-1.847	-0.140	N.pl3	1	UNK0	0.000	
10	   C	1.713	-1.467	0.147	C.2	1	UNK0	0.000	
11	   O	2.605	-2.167	0.689	O.2	1	UNK0	0.000	
12	   C	1.947	-0.102	-0.298	C.2	1	UNK0	0.000	
13	   O	3.039	0.551	-0.197	O.2	1	UNK0	0.000	
14	   C	0.705	0.354	-0.863	C.2	1	UNK0	0.000	
15	   C	0.520	1.507	-1.472	C.2	1	UNK0	0.000	
16	   O	-0.809	1.763	-1.884	O.2	1	UNK0	0.000	
17	   C	1.536	2.504	-1.753	C.2	1	UNK0	0.000	
18	   N	2.687	2.462	-2.442	N.pl3	1	UNK0	0.000	
19	   C	3.353	3.626	-2.407	C.2	1	UNK0	0.000	
20	   N	2.597	4.461	-1.660	N.2	1	UNK0	0.000	
21	   C	1.498	3.823	-1.250	C.2	1	UNK0	0.000	
22	   C	0.417	4.371	-0.419	C.3	1	UNK0	0.000	
23	   C	4.555	3.811	-3.063	C.2	1	UNK0	0.000	
24	   C	5.088	2.769	-3.773	C.2	1	UNK0	0.000	
25	   C	4.402	1.570	-3.810	C.2	1	UNK0	0.000	
26	   C	3.207	1.420	-3.146	C.2	1	UNK0	0.000	
27	   C	-0.137	-3.182	-0.067	C.3	1	UNK0	0.000	
28	   C	-0.522	-3.789	1.205	C.3	1	UNK0	0.000	
29	   N	-1.590	-3.239	1.987	N.4	1	UNK0	0.000	
30	   C	-2.190	-4.354	2.720	C.3	1	UNK0	0.000	
31	   C	-1.539	-4.595	4.044	C.3	1	UNK0	0.000	
32	   O	-0.335	-3.882	4.150	O.3	1	UNK0	0.000	
33	   C	-0.695	-2.553	4.143	C.3	1	UNK0	0.000	
34	   C	-1.197	-2.144	2.808	C.3	1	UNK0	0.000	
35	   H	-0.378	1.372	1.038	 H	1	UNK0	0.000	
36	   H	-2.898	-1.505	-0.692	 H	1	UNK0	0.000	
37	   H	-4.892	-0.510	0.367	 H	1	UNK0	0.000	
38	   H	-4.636	1.431	1.766	 H	1	UNK0	0.000	
39	   H	-0.736	-1.008	-1.635	 H	1	UNK0	0.000	
40	   H	-0.598	4.013	-0.702	 H	1	UNK0	0.000	
41	   H	0.653	4.146	0.648	 H	1	UNK0	0.000	
42	   H	0.410	5.478	-0.519	 H	1	UNK0	0.000	
43	   H	5.089	4.742	-3.033	 H	1	UNK0	0.000	
44	   H	6.027	2.830	-4.317	 H	1	UNK0	0.000	
45	   H	4.790	0.712	-4.364	 H	1	UNK0	0.000	
46	   H	2.651	0.471	-3.172	 H	1	UNK0	0.000	
47	   H	0.674	-3.832	-0.527	 H	1	UNK0	0.000	
48	   H	-0.987	-3.313	-0.793	 H	1	UNK0	0.000	
49	   H	-0.841	-4.852	0.951	 H	1	UNK0	0.000	
50	   H	0.363	-3.994	1.882	 H	1	UNK0	0.000	
51	   H	-2.394	-2.908	1.375	 H	1	UNK0	0.000	
52	   H	-3.252	-4.118	2.889	 H	1	UNK0	0.000	
53	   H	-2.160	-5.286	2.102	 H	1	UNK0	0.000	
54	   H	-2.207	-4.263	4.882	 H	1	UNK0	0.000	
55	   H	-1.288	-5.672	4.130	 H	1	UNK0	0.000	
56	   H	0.262	-1.991	4.390	 H	1	UNK0	0.000	
57	   H	-1.443	-2.350	4.965	 H	1	UNK0	0.000	
58	   H	-0.412	-1.507	2.326	 H	1	UNK0	0.000	
59	   H	-2.115	-1.506	2.991	 H	1	UNK0	0.000	
@<TRIPOS>BOND
1 1 2 1
2 2 3 2
3 2 7 1
4 3 4 1
5 4 5 2
6 4 8 1
7 5 6 1
8 6 7 2
9 8 9 1
10 8 14 1
11 9 10 1
12 9 27 1
13 10 11 2
14 10 12 1
15 12 13 2
16 12 14 1
17 14 15 2
18 15 16 1
19 15 17 1
20 17 18 1
21 17 21 2
22 18 19 1
23 18 26 1
24 19 20 2
25 19 23 1
26 20 21 1
27 21 22 1
28 23 24 2
29 24 25 1
30 25 26 2
31 27 28 1
32 28 29 1
33 29 30 1
34 29 34 1
35 30 31 1
36 31 32 1
37 32 33 1
38 33 34 1
39 3 35 1
40 5 36 1
41 6 37 1
42 7 38 1
43 8 39 1
44 22 40 1
45 22 41 1
46 22 42 1
47 23 43 1
48 24 44 1
49 25 45 1
50 26 46 1
51 27 47 1
52 27 48 1
53 28 49 1
54 28 50 1
55 29 51 1
56 30 52 1
57 30 53 1
58 31 54 1
59 31 55 1
60 33 56 1
61 33 57 1
62 34 58 1
63 34 59 1
@<TRIPOS>SUBSTRUCTURE
1	UNK0	1	GROUP	1 ****	UNK
# created with PyMOL 2.3.2
@<TRIPOS>MOLECULE
1486
56 59 1                 
SMALL
USER_CHARGES
@<TRIPOS>ATOM
1	  Br	6.869	-0.636	5.033	Br	1	UNK0	0.000	
2	   C	5.342	-0.689	3.863	C.2	1	UNK0	0.000	
3	   C	4.513	0.415	3.762	C.2	1	UNK0	0.000	
4	   C	3.407	0.383	2.918	C.2	1	UNK0	0.000	
5	   C	3.110	-0.732	2.169	C.2	1	UNK0	0.000	
6	   C	3.955	-1.812	2.294	C.2	1	UNK0	0.000	
7	   C	5.053	-1.808	3.119	C.2	1	UNK0	0.000	
8	   C	1.964	-0.780	1.287	C.2	1	UNK0	0.000	
9	   O	1.738	-1.827	0.624	O.2	1	UNK0	0.000	
10	   C	1.022	0.358	1.117	C.3	1	UNK0	0.000	
11	   N	-0.024	0.050	0.188	N.pl3	1	UNK0	0.000	
12	   N	-0.009	0.251	-1.110	N.2	1	UNK0	0.000	
13	   C	-1.160	-0.158	-1.664	C.2	1	UNK0	0.000	
14	   N	-1.924	-0.634	-0.670	N.pl3	1	UNK0	0.000	
15	   C	-1.206	-0.501	0.484	C.2	1	UNK0	0.000	
16	   C	-1.648	-0.890	1.822	C.3	1	UNK0	0.000	
17	   C	-2.001	-2.355	1.925	C.3	1	UNK0	0.000	
18	   C	-3.299	-2.675	1.217	C.3	1	UNK0	0.000	
19	   C	-3.188	-2.613	-0.275	C.3	1	UNK0	0.000	
20	   C	-3.258	-1.186	-0.800	C.3	1	UNK0	0.000	
21	   C	-1.546	-0.110	-3.081	C.3	1	UNK0	0.000	
22	   N	-0.577	0.560	-3.893	N.pl3	1	UNK0	0.000	
23	   C	-0.233	1.931	-3.718	C.2	1	UNK0	0.000	
24	   C	0.748	2.544	-4.464	C.2	1	UNK0	0.000	
25	   C	1.067	3.866	-4.290	C.2	1	UNK0	0.000	
26	   C	0.403	4.600	-3.358	C.2	1	UNK0	0.000	
27	   C	-0.579	3.990	-2.609	C.2	1	UNK0	0.000	
28	   C	-0.909	2.661	-2.776	C.2	1	UNK0	0.000	
29	   O	0.702	5.927	-3.161	O.3	1	UNK0	0.000	
30	   C	1.692	6.605	-3.894	C.3	1	UNK0	0.000	
31	   H	4.752	1.281	4.349	 H	1	UNK0	0.000	
32	   H	2.778	1.253	2.856	 H	1	UNK0	0.000	
33	   H	3.734	-2.712	1.704	 H	1	UNK0	0.000	
34	   H	5.674	-2.680	3.174	 H	1	UNK0	0.000	
35	   H	0.647	0.727	2.091	 H	1	UNK0	0.000	
36	   H	1.638	1.189	0.664	 H	1	UNK0	0.000	
37	   H	-0.868	-0.692	2.578	 H	1	UNK0	0.000	
38	   H	-2.559	-0.324	2.171	 H	1	UNK0	0.000	
39	   H	-1.206	-3.025	1.596	 H	1	UNK0	0.000	
40	   H	-2.175	-2.562	3.010	 H	1	UNK0	0.000	
41	   H	-4.135	-2.088	1.602	 H	1	UNK0	0.000	
42	   H	-3.529	-3.748	1.477	 H	1	UNK0	0.000	
43	   H	-2.261	-3.056	-0.636	 H	1	UNK0	0.000	
44	   H	-4.050	-3.196	-0.700	 H	1	UNK0	0.000	
45	   H	-4.021	-0.592	-0.274	 H	1	UNK0	0.000	
46	   H	-3.529	-1.221	-1.866	 H	1	UNK0	0.000	
47	   H	-2.528	0.426	-3.152	 H	1	UNK0	0.000	
48	   H	-1.719	-1.121	-3.485	 H	1	UNK0	0.000	
49	   H	-0.091	0.050	-4.645	 H	1	UNK0	0.000	
50	   H	1.252	1.906	-5.202	 H	1	UNK0	0.000	
51	   H	1.839	4.301	-4.896	 H	1	UNK0	0.000	
52	   H	-1.131	4.553	-1.852	 H	1	UNK0	0.000	
53	   H	-1.698	2.193	-2.170	 H	1	UNK0	0.000	
54	   H	1.946	7.560	-3.417	 H	1	UNK0	0.000	
55	   H	2.597	5.966	-3.936	 H	1	UNK0	0.000	
56	   H	1.370	6.794	-4.943	 H	1	UNK0	0.000	
@<TRIPOS>BOND
1 1 2 1
2 2 3 2
3 2 7 1
4 3 4 1
5 4 5 2
6 5 6 1
7 5 8 1
8 6 7 2
9 8 9 2
10 8 10 1
11 10 11 1
12 11 12 1
13 11 15 2
14 12 13 2
15 13 14 1
16 13 21 1
17 14 15 1
18 14 20 1
19 15 16 1
20 16 17 1
21 17 18 1
22 18 19 1
23 19 20 1
24 21 22 1
25 22 23 1
26 23 24 2
27 23 28 1
28 24 25 1
29 25 26 2
30 26 27 1
31 26 29 1
32 27 28 2
33 29 30 1
34 3 31 1
35 4 32 1
36 6 33 1
37 7 34 1
38 10 35 1
39 10 36 1
40 16 37 1
41 16 38 1
42 17 39 1
43 17 40 1
44 18 41 1
45 18 42 1
46 19 43 1
47 19 44 1
48 20 45 1
49 20 46 1
50 21 47 1
51 21 48 1
52 22 49 1
53 24 50 1
54 25 51 1
55 27 52 1
56 28 53 1
57 30 54 1
58 30 55 1
59 30 56 1
@<TRIPOS>SUBSTRUCTURE
1	UNK0	1	GROUP	1 ****	UNK
# created with PyMOL 2.3.2
@<TRIPOS>MOLECULE
1487
48 51 1                 
SMALL
USER_CHARGES
@<TRIPOS>ATOM
1	  Cl	0.065	-4.893	-1.724	Cl	1	UNK0	0.000	
2	   C	1.010	-3.498	-2.223	C.2	1	UNK0	0.000	
3	   C	1.116	-2.382	-1.397	C.2	1	UNK0	0.000	
4	   C	1.822	-1.261	-1.758	C.2	1	UNK0	0.000	
5	   C	2.439	-1.303	-3.014	C.2	1	UNK0	0.000	
6	   C	2.345	-2.407	-3.854	C.2	1	UNK0	0.000	
7	   C	1.628	-3.504	-3.457	C.2	1	UNK0	0.000	
8	   N	2.029	-0.165	-0.879	N.4	1	UNK0	0.000	
9	   C	1.804	-0.440	0.518	C.3	1	UNK0	0.000	
10	   C	0.923	0.565	1.132	C.3	1	UNK0	0.000	
11	   N	0.659	1.480	0.058	N.pl3	1	UNK0	0.000	
12	   C	0.241	2.862	0.038	C.3	1	UNK0	0.000	
13	   C	-1.058	3.121	-0.655	C.3	1	UNK0	0.000	
14	   C	-1.608	1.971	-1.424	C.3	1	UNK0	0.000	
15	   C	-0.783	1.828	-2.723	C.3	1	UNK0	0.000	
16	   C	0.348	0.892	-2.336	C.2	1	UNK0	0.000	
17	   C	0.944	0.761	-1.173	C.2	1	UNK0	0.000	
18	   O	1.651	1.297	2.111	O.3	1	UNK0	0.000	
19	   C	-0.255	0.088	1.815	C.2	1	UNK0	0.000	
20	   C	-0.466	-1.253	2.136	C.2	1	UNK0	0.000	
21	   C	-1.590	-1.703	2.815	C.2	1	UNK0	0.000	
22	   C	-2.556	-0.772	3.197	C.2	1	UNK0	0.000	
23	   C	-2.389	0.550	2.901	C.2	1	UNK0	0.000	
24	   C	-1.238	0.966	2.213	C.2	1	UNK0	0.000	
25	   N	-1.738	-3.078	3.107	N.pl3	1	UNK0	0.000	
26	   O	-0.837	-3.897	2.744	O.2	1	UNK0	0.000	
27	   O	-2.799	-3.589	3.756	O.2	1	UNK0	0.000	
28	   H	0.556	-2.460	-0.450	 H	1	UNK0	0.000	
29	   H	3.007	-0.444	-3.328	 H	1	UNK0	0.000	
30	   H	2.838	-2.417	-4.843	 H	1	UNK0	0.000	
31	   H	1.539	-4.363	-4.089	 H	1	UNK0	0.000	
32	   H	2.888	0.311	-1.132	 H	1	UNK0	0.000	
33	   H	1.659	-1.493	0.653	 H	1	UNK0	0.000	
34	   H	2.847	-0.259	0.975	 H	1	UNK0	0.000	
35	   H	0.241	3.362	1.023	 H	1	UNK0	0.000	
36	   H	0.984	3.510	-0.558	 H	1	UNK0	0.000	
37	   H	-1.014	4.019	-1.313	 H	1	UNK0	0.000	
38	   H	-1.867	3.389	0.109	 H	1	UNK0	0.000	
39	   H	-1.622	0.996	-0.896	 H	1	UNK0	0.000	
40	   H	-2.655	2.159	-1.794	 H	1	UNK0	0.000	
41	   H	-0.409	2.799	-3.025	 H	1	UNK0	0.000	
42	   H	-1.385	1.299	-3.491	 H	1	UNK0	0.000	
43	   H	0.665	0.271	-3.155	 H	1	UNK0	0.000	
44	   H	2.428	0.699	2.368	 H	1	UNK0	0.000	
45	   H	0.275	-1.941	1.842	 H	1	UNK0	0.000	
46	   H	-3.416	-1.168	3.727	 H	1	UNK0	0.000	
47	   H	-3.161	1.282	3.207	 H	1	UNK0	0.000	
48	   H	-1.216	2.037	2.035	 H	1	UNK0	0.000	
@<TRIPOS>BOND
1 1 2 1
2 2 3 2
3 2 7 1
4 3 4 1
5 4 5 2
6 4 8 1
7 5 6 1
8 6 7 2
9 8 9 1
10 8 17 1
11 9 10 1
12 10 11 1
13 10 18 1
14 10 19 1
15 11 12 1
16 11 17 1
17 12 13 1
18 13 14 1
19 14 15 1
20 15 16 1
21 16 17 2
22 19 20 2
23 19 24 1
24 20 21 1
25 21 22 2
26 21 25 1
27 22 23 1
28 23 24 2
29 25 26 2
30 25 27 1
31 3 28 1
32 5 29 1
33 6 30 1
34 7 31 1
35 8 32 1
36 9 33 1
37 9 34 1
38 12 35 1
39 12 36 1
40 13 37 1
41 13 38 1
42 14 39 1
43 14 40 1
44 15 41 1
45 15 42 1
46 16 43 1
47 18 44 1
48 20 45 1
49 22 46 1
50 23 47 1
51 24 48 1
@<TRIPOS>SUBSTRUCTURE
1	UNK0	1	GROUP	1 ****	UNK
# created with PyMOL 2.3.2
@<TRIPOS>MOLECULE
1491
54 58 1                 
SMALL
USER_CHARGES
@<TRIPOS>ATOM
1	   F	-2.032	1.532	1.500	 F	1	UNK0	0.000	
2	   C	-1.891	0.351	0.872	C.2	1	UNK0	0.000	
3	   C	-3.080	-0.173	0.373	C.2	1	UNK0	0.000	
4	   C	-3.086	-1.374	-0.301	C.2	1	UNK0	0.000	
5	   C	-1.889	-2.030	-0.464	C.2	1	UNK0	0.000	
6	   C	-0.711	-1.489	0.041	C.2	1	UNK0	0.000	
7	   C	-0.692	-0.297	0.714	C.2	1	UNK0	0.000	
8	   N	0.508	0.208	1.214	N.4	1	UNK0	0.000	
9	   C	0.408	1.446	1.944	C.3	1	UNK0	0.000	
10	   C	1.781	1.803	2.561	C.3	1	UNK0	0.000	
11	   N	2.645	2.007	1.466	N.pl3	1	UNK0	0.000	
12	   C	2.904	0.695	0.755	C.3	1	UNK0	0.000	
13	   C	1.546	0.324	0.243	C.3	1	UNK0	0.000	
14	   C	3.218	3.107	0.923	C.2	1	UNK0	0.000	
15	   O	4.041	2.878	-0.072	O.2	1	UNK0	0.000	
16	   C	3.088	4.501	1.244	C.2	1	UNK0	0.000	
17	   C	2.129	5.014	2.056	C.2	1	UNK0	0.000	
18	   C	2.075	6.363	2.383	C.2	1	UNK0	0.000	
19	   C	3.019	7.214	1.869	C.2	1	UNK0	0.000	
20	   C	4.005	6.750	1.045	C.2	1	UNK0	0.000	
21	   C	4.032	5.422	0.744	C.2	1	UNK0	0.000	
22	  Cl	0.810	6.984	3.446	Cl	1	UNK0	0.000	
23	   N	-1.919	-3.203	-1.128	N.pl3	1	UNK0	0.000	
24	   C	-3.055	-3.730	-1.619	C.2	1	UNK0	0.000	
25	   C	-4.270	-3.098	-1.472	C.2	1	UNK0	0.000	
26	   C	-4.286	-1.898	-0.801	C.2	1	UNK0	0.000	
27	   O	-5.358	-1.270	-0.633	O.2	1	UNK0	0.000	
28	   C	-5.507	-3.690	-2.016	C.2	1	UNK0	0.000	
29	   O	-6.615	-3.143	-1.900	O.co2	1	UNK0	0.000	
30	   O	-5.411	-4.894	-2.676	O.co2	1	UNK0	0.000	
31	   C	-0.632	-3.889	-1.292	C.3	1	UNK0	0.000	
32	   C	0.379	-3.386	-2.227	C.3	1	UNK0	0.000	
33	   C	-0.430	-4.503	-2.717	C.3	1	UNK0	0.000	
34	   H	-4.033	0.322	0.488	 H	1	UNK0	0.000	
35	   H	0.182	-2.088	-0.141	 H	1	UNK0	0.000	
36	   H	0.856	-0.506	1.926	 H	1	UNK0	0.000	
37	   H	0.206	2.261	1.234	 H	1	UNK0	0.000	
38	   H	-0.245	1.405	2.832	 H	1	UNK0	0.000	
39	   H	1.635	2.561	3.303	 H	1	UNK0	0.000	
40	   H	2.110	0.884	3.171	 H	1	UNK0	0.000	
41	   H	3.181	0.002	1.565	 H	1	UNK0	0.000	
42	   H	3.658	0.815	-0.013	 H	1	UNK0	0.000	
43	   H	1.663	-0.695	-0.232	 H	1	UNK0	0.000	
44	   H	1.316	0.997	-0.601	 H	1	UNK0	0.000	
45	   H	1.329	4.424	2.469	 H	1	UNK0	0.000	
46	   H	2.960	8.262	2.135	 H	1	UNK0	0.000	
47	   H	4.718	7.474	0.673	 H	1	UNK0	0.000	
48	   H	4.824	5.052	0.084	 H	1	UNK0	0.000	
49	   H	-3.027	-4.673	-2.143	 H	1	UNK0	0.000	
50	   H	-0.332	-4.568	-0.474	 H	1	UNK0	0.000	
51	   H	0.297	-2.395	-2.720	 H	1	UNK0	0.000	
52	   H	1.452	-3.606	-1.950	 H	1	UNK0	0.000	
53	   H	-1.243	-4.308	-3.444	 H	1	UNK0	0.000	
54	   H	-0.074	-5.550	-2.744	 H	1	UNK0	0.000	
@<TRIPOS>BOND
1 1 2 1
2 2 3 2
3 2 7 1
4 3 4 1
5 4 5 2
6 4 26 1
7 5 6 1
8 5 23 1
9 6 7 2
10 7 8 1
11 8 9 1
12 8 13 1
13 9 10 1
14 10 11 1
15 11 12 1
16 11 14 1
17 12 13 1
18 14 15 2
19 14 16 1
20 16 17 2
21 16 21 1
22 17 18 1
23 18 19 2
24 18 22 1
25 19 20 1
26 20 21 2
27 23 24 1
28 23 31 1
29 24 25 2
30 25 26 1
31 25 28 1
32 26 27 2
33 28 29 2
34 28 30 1
35 31 32 1
36 31 33 1
37 32 33 1
38 3 34 1
39 6 35 1
40 8 36 1
41 9 37 1
42 9 38 1
43 10 39 1
44 10 40 1
45 12 41 1
46 12 42 1
47 13 43 1
48 13 44 1
49 17 45 1
50 19 46 1
51 20 47 1
52 21 48 1
53 24 49 1
54 31 50 1
55 32 51 1
56 32 52 1
57 33 53 1
58 33 54 1
@<TRIPOS>SUBSTRUCTURE
1	UNK0	1	GROUP	1 ****	UNK
# created with PyMOL 2.3.2
@<TRIPOS>MOLECULE
1506
51 54 1                 
SMALL
USER_CHARGES
@<TRIPOS>ATOM
1	  Cl	4.336	6.074	1.932	Cl	1	UNK0	0.000	
2	   C	3.457	4.556	2.017	C.2	1	UNK0	0.000	
3	   C	2.131	4.507	1.620	C.2	1	UNK0	0.000	
4	   C	1.451	3.314	1.689	C.2	1	UNK0	0.000	
5	   C	2.053	2.161	2.144	C.2	1	UNK0	0.000	
6	   C	3.365	2.234	2.532	C.2	1	UNK0	0.000	
7	   C	4.086	3.429	2.475	C.2	1	UNK0	0.000	
8	   C	1.274	0.902	2.208	C.2	1	UNK0	0.000	
9	   O	0.032	1.035	2.179	O.2	1	UNK0	0.000	
10	   N	1.877	-0.344	2.294	N.pl3	1	UNK0	0.000	
11	   C	1.331	-1.646	2.350	C.3	1	UNK0	0.000	
12	   C	0.580	-2.148	1.188	C.3	1	UNK0	0.000	
13	   N	-0.649	-1.584	0.790	N.pl3	1	UNK0	0.000	
14	   C	-1.264	-2.117	-0.400	C.2	1	UNK0	0.000	
15	   O	-0.696	-3.033	-1.015	O.2	1	UNK0	0.000	
16	   C	-2.557	-1.597	-0.904	C.3	1	UNK0	0.000	
17	   C	-2.863	-2.292	-2.212	C.3	1	UNK0	0.000	
18	   C	-1.899	-1.749	-3.243	C.3	1	UNK0	0.000	
19	   N	-2.319	-0.372	-3.486	N.pl3	1	UNK0	0.000	
20	   C	-2.838	0.413	-2.418	C.3	1	UNK0	0.000	
21	   C	-2.591	-0.121	-1.054	C.3	1	UNK0	0.000	
22	   C	-2.186	0.128	-4.802	C.2	1	UNK0	0.000	
23	   N	-1.716	-0.614	-5.823	N.2	1	UNK0	0.000	
24	   N	-1.584	-0.162	-7.056	N.pl3	1	UNK0	0.000	
25	   N	-1.147	-0.738	-8.171	N.2	1	UNK0	0.000	
26	   N	-1.193	0.102	-9.170	N.2	1	UNK0	0.000	
27	   N	-1.665	1.244	-8.717	N.2	1	UNK0	0.000	
28	   C	-1.911	1.089	-7.399	C.2	1	UNK0	0.000	
29	   C	-2.400	1.903	-6.393	C.2	1	UNK0	0.000	
30	   C	-2.539	1.432	-5.103	C.2	1	UNK0	0.000	
31	   H	1.651	5.418	1.259	 H	1	UNK0	0.000	
32	   H	0.407	3.252	1.381	 H	1	UNK0	0.000	
33	   H	3.902	1.390	2.898	 H	1	UNK0	0.000	
34	   H	5.118	3.489	2.780	 H	1	UNK0	0.000	
35	   H	2.986	-0.265	2.313	 H	1	UNK0	0.000	
36	   H	2.157	-2.382	2.607	 H	1	UNK0	0.000	
37	   H	0.637	-1.659	3.253	 H	1	UNK0	0.000	
38	   H	0.507	-3.293	1.250	 H	1	UNK0	0.000	
39	   H	1.268	-2.053	0.272	 H	1	UNK0	0.000	
40	   H	-1.184	-0.857	1.258	 H	1	UNK0	0.000	
41	   H	-3.382	-1.913	-0.213	 H	1	UNK0	0.000	
42	   H	-3.888	-1.977	-2.512	 H	1	UNK0	0.000	
43	   H	-2.810	-3.392	-2.122	 H	1	UNK0	0.000	
44	   H	-1.960	-2.325	-4.196	 H	1	UNK0	0.000	
45	   H	-0.857	-1.689	-2.898	 H	1	UNK0	0.000	
46	   H	-3.954	0.499	-2.552	 H	1	UNK0	0.000	
47	   H	-2.447	1.462	-2.448	 H	1	UNK0	0.000	
48	   H	-3.317	0.299	-0.297	 H	1	UNK0	0.000	
49	   H	-1.594	0.264	-0.682	 H	1	UNK0	0.000	
50	   H	-2.668	2.924	-6.661	 H	1	UNK0	0.000	
51	   H	-2.928	2.084	-4.321	 H	1	UNK0	0.000	
@<TRIPOS>BOND
1 1 2 1
2 2 3 2
3 2 7 1
4 3 4 1
5 4 5 2
6 5 6 1
7 5 8 1
8 6 7 2
9 8 9 2
10 8 10 1
11 10 11 1
12 11 12 1
13 12 13 1
14 13 14 1
15 14 15 2
16 14 16 1
17 16 17 1
18 16 21 1
19 17 18 1
20 18 19 1
21 19 20 1
22 19 22 1
23 20 21 1
24 22 23 2
25 22 30 1
26 23 24 1
27 24 25 1
28 24 28 1
29 25 26 2
30 26 27 1
31 27 28 2
32 28 29 1
33 29 30 2
34 3 31 1
35 4 32 1
36 6 33 1
37 7 34 1
38 10 35 1
39 11 36 1
40 11 37 1
41 12 38 1
42 12 39 1
43 13 40 1
44 16 41 1
45 17 42 1
46 17 43 1
47 18 44 1
48 18 45 1
49 20 46 1
50 20 47 1
51 21 48 1
52 21 49 1
53 29 50 1
54 30 51 1
@<TRIPOS>SUBSTRUCTURE
1	UNK0	1	GROUP	1 ****	UNK
# created with PyMOL 2.3.2
@<TRIPOS>MOLECULE
1507
53 56 1                 
SMALL
USER_CHARGES
@<TRIPOS>ATOM
1	  Br	-4.889	4.731	-2.545	Br	1	UNK0	0.000	
2	   C	-3.499	3.407	-2.434	C.2	1	UNK0	0.000	
3	   C	-2.896	2.900	-3.562	C.2	1	UNK0	0.000	
4	   C	-1.905	1.959	-3.542	C.2	1	UNK0	0.000	
5	   C	-1.477	1.482	-2.317	C.2	1	UNK0	0.000	
6	   C	-2.063	1.973	-1.173	C.2	1	UNK0	0.000	
7	   C	-3.076	2.936	-1.208	C.2	1	UNK0	0.000	
8	   C	-0.405	0.500	-2.206	C.2	1	UNK0	0.000	
9	   C	-0.533	-0.567	-1.444	C.2	1	UNK0	0.000	
10	   C	0.436	-1.682	-1.190	C.3	1	UNK0	0.000	
11	   N	0.285	-1.892	0.204	N.pl3	1	UNK0	0.000	
12	   C	-1.161	-1.849	0.403	C.2	1	UNK0	0.000	
13	   O	-1.831	-2.425	1.299	O.2	1	UNK0	0.000	
14	   C	-1.688	-0.996	-0.656	C.2	1	UNK0	0.000	
15	   O	-2.889	-0.648	-0.910	O.2	1	UNK0	0.000	
16	   C	1.199	-2.166	1.296	C.3	1	UNK0	0.000	
17	   C	1.662	-1.017	2.104	C.3	1	UNK0	0.000	
18	   N	0.585	-0.291	2.786	N.4	1	UNK0	0.000	
19	   C	0.117	0.778	1.972	C.3	1	UNK0	0.000	
20	   C	0.336	2.157	2.488	C.3	1	UNK0	0.000	
21	   O	0.402	2.277	3.863	O.3	1	UNK0	0.000	
22	   C	1.509	1.485	4.245	C.3	1	UNK0	0.000	
23	   C	1.074	0.071	4.084	C.3	1	UNK0	0.000	
24	   C	1.703	-1.520	-1.821	C.2	1	UNK0	0.000	
25	   C	2.037	-2.337	-2.874	C.2	1	UNK0	0.000	
26	   C	3.232	-2.231	-3.544	C.2	1	UNK0	0.000	
27	   C	4.164	-1.273	-3.172	C.2	1	UNK0	0.000	
28	   C	3.810	-0.462	-2.112	C.2	1	UNK0	0.000	
29	   C	2.610	-0.575	-1.446	C.2	1	UNK0	0.000	
30	  Cl	5.686	-1.127	-4.015	Cl	1	UNK0	0.000	
31	   O	0.742	0.746	-2.940	O.2	1	UNK0	0.000	
32	   H	-3.243	3.282	-4.510	 H	1	UNK0	0.000	
33	   H	-1.422	1.550	-4.417	 H	1	UNK0	0.000	
34	   H	-1.755	1.649	-0.176	 H	1	UNK0	0.000	
35	   H	-3.516	3.299	-0.276	 H	1	UNK0	0.000	
36	   H	-0.092	-2.574	-1.668	 H	1	UNK0	0.000	
37	   H	0.703	-2.875	2.037	 H	1	UNK0	0.000	
38	   H	2.056	-2.814	0.936	 H	1	UNK0	0.000	
39	   H	2.253	-0.251	1.607	 H	1	UNK0	0.000	
40	   H	2.257	-1.487	2.962	 H	1	UNK0	0.000	
41	   H	-0.182	-1.020	2.917	 H	1	UNK0	0.000	
42	   H	0.535	0.679	0.926	 H	1	UNK0	0.000	
43	   H	-1.002	0.661	1.856	 H	1	UNK0	0.000	
44	   H	1.332	2.524	2.102	 H	1	UNK0	0.000	
45	   H	-0.412	2.891	2.136	 H	1	UNK0	0.000	
46	   H	2.413	1.737	3.673	 H	1	UNK0	0.000	
47	   H	1.722	1.696	5.303	 H	1	UNK0	0.000	
48	   H	1.912	-0.593	4.421	 H	1	UNK0	0.000	
49	   H	0.253	-0.103	4.835	 H	1	UNK0	0.000	
50	   H	1.337	-3.128	-3.226	 H	1	UNK0	0.000	
51	   H	3.489	-2.875	-4.371	 H	1	UNK0	0.000	
52	   H	4.558	0.285	-1.835	 H	1	UNK0	0.000	
53	   H	2.449	0.134	-0.640	 H	1	UNK0	0.000	
@<TRIPOS>BOND
1 1 2 1
2 2 3 2
3 2 7 1
4 3 4 1
5 4 5 2
6 5 6 1
7 5 8 1
8 6 7 2
9 8 9 2
10 8 31 1
11 9 10 1
12 9 14 1
13 10 11 1
14 10 24 1
15 11 12 1
16 11 16 1
17 12 13 2
18 12 14 1
19 14 15 2
20 16 17 1
21 17 18 1
22 18 19 1
23 18 23 1
24 19 20 1
25 20 21 1
26 21 22 1
27 22 23 1
28 24 25 2
29 24 29 1
30 25 26 1
31 26 27 2
32 27 28 1
33 27 30 1
34 28 29 2
35 3 32 1
36 4 33 1
37 6 34 1
38 7 35 1
39 10 36 1
40 16 37 1
41 16 38 1
42 17 39 1
43 17 40 1
44 18 41 1
45 19 42 1
46 19 43 1
47 20 44 1
48 20 45 1
49 22 46 1
50 22 47 1
51 23 48 1
52 23 49 1
53 25 50 1
54 26 51 1
55 28 52 1
56 29 53 1
@<TRIPOS>SUBSTRUCTURE
1	UNK0	1	GROUP	1 ****	UNK
# created with PyMOL 2.3.2
@<TRIPOS>MOLECULE
1511
49 52 1                 
SMALL
USER_CHARGES
@<TRIPOS>ATOM
1	  Br	-0.255	-7.235	-5.605	Br	1	UNK0	0.000	
2	   C	-0.332	-5.472	-4.861	C.2	1	UNK0	0.000	
3	   C	-0.675	-4.381	-5.635	C.2	1	UNK0	0.000	
4	   C	-0.730	-3.102	-5.089	C.2	1	UNK0	0.000	
5	   C	-0.443	-2.875	-3.759	C.2	1	UNK0	0.000	
6	   C	-0.101	-3.967	-2.992	C.2	1	UNK0	0.000	
7	   C	-0.047	-5.236	-3.531	C.2	1	UNK0	0.000	
8	   N	-0.489	-1.582	-3.167	N.pl3	1	UNK0	0.000	
9	   C	0.336	-1.010	-2.275	C.2	1	UNK0	0.000	
10	   O	1.344	-1.602	-1.811	O.2	1	UNK0	0.000	
11	   C	-0.078	0.274	-1.962	C.2	1	UNK0	0.000	
12	   C	-1.175	0.485	-2.678	C.2	1	UNK0	0.000	
13	   N	-1.576	1.729	-2.374	N.pl3	1	UNK0	0.000	
14	   N	-0.746	2.263	-1.496	N.pl3	1	UNK0	0.000	
15	   N	0.183	1.384	-1.230	N.pl3	1	UNK0	0.000	
16	   C	1.300	1.527	-0.327	C.3	1	UNK0	0.000	
17	   C	0.887	1.059	1.049	C.2	1	UNK0	0.000	
18	   O	1.062	-0.139	1.364	O.2	1	UNK0	0.000	
19	   N	0.315	1.962	1.957	N.pl3	1	UNK0	0.000	
20	   C	-0.107	1.660	3.267	C.2	1	UNK0	0.000	
21	   C	0.170	0.507	3.957	C.2	1	UNK0	0.000	
22	   C	-0.289	0.264	5.235	C.2	1	UNK0	0.000	
23	   C	-1.062	1.232	5.841	C.2	1	UNK0	0.000	
24	   C	-1.364	2.411	5.179	C.2	1	UNK0	0.000	
25	   C	-0.899	2.630	3.911	C.2	1	UNK0	0.000	
26	   O	-1.535	1.007	7.131	O.3	1	UNK0	0.000	
27	   C	-2.328	1.996	7.757	C.3	1	UNK0	0.000	
28	   O	0.009	-0.917	5.911	O.3	1	UNK0	0.000	
29	   C	0.817	-1.885	5.229	C.3	1	UNK0	0.000	
30	   C	-1.434	-0.649	-3.419	C.2	1	UNK0	0.000	
31	   O	-2.414	-0.798	-4.222	O.2	1	UNK0	0.000	
32	   H	-0.900	-4.569	-6.684	 H	1	UNK0	0.000	
33	   H	-0.998	-2.258	-5.700	 H	1	UNK0	0.000	
34	   H	0.123	-3.780	-1.944	 H	1	UNK0	0.000	
35	   H	0.228	-6.083	-2.897	 H	1	UNK0	0.000	
36	   H	-2.406	2.229	-2.750	 H	1	UNK0	0.000	
37	   H	-0.800	3.234	-1.066	 H	1	UNK0	0.000	
38	   H	1.640	2.584	-0.225	 H	1	UNK0	0.000	
39	   H	2.145	0.888	-0.627	 H	1	UNK0	0.000	
40	   H	0.196	2.972	1.619	 H	1	UNK0	0.000	
41	   H	0.781	-0.264	3.508	 H	1	UNK0	0.000	
42	   H	-1.979	3.155	5.688	 H	1	UNK0	0.000	
43	   H	-1.148	3.574	3.395	 H	1	UNK0	0.000	
44	   H	-3.169	2.212	7.056	 H	1	UNK0	0.000	
45	   H	-1.735	2.909	7.895	 H	1	UNK0	0.000	
46	   H	-2.729	1.586	8.713	 H	1	UNK0	0.000	
47	   H	1.847	-1.467	5.055	 H	1	UNK0	0.000	
48	   H	0.892	-2.818	5.822	 H	1	UNK0	0.000	
49	   H	0.375	-2.130	4.241	 H	1	UNK0	0.000	
@<TRIPOS>BOND
1 1 2 1
2 2 3 2
3 2 7 1
4 3 4 1
5 4 5 2
6 5 6 1
7 5 8 1
8 6 7 2
9 8 9 1
10 8 30 1
11 9 10 2
12 9 11 1
13 11 12 2
14 11 15 1
15 12 13 1
16 12 30 1
17 13 14 1
18 14 15 1
19 15 16 1
20 16 17 1
21 17 18 2
22 17 19 1
23 19 20 1
24 20 21 2
25 20 25 1
26 21 22 1
27 22 23 2
28 22 28 1
29 23 24 1
30 23 26 1
31 24 25 2
32 26 27 1
33 28 29 1
34 30 31 2
35 3 32 1
36 4 33 1
37 6 34 1
38 7 35 1
39 13 36 1
40 14 37 1
41 16 38 1
42 16 39 1
43 19 40 1
44 21 41 1
45 24 42 1
46 25 43 1
47 27 44 1
48 27 45 1
49 27 46 1
50 29 47 1
51 29 48 1
52 29 49 1
@<TRIPOS>SUBSTRUCTURE
1	UNK0	1	GROUP	1 ****	UNK
# created with PyMOL 2.3.2
@<TRIPOS>MOLECULE
1516
49 52 1                 
SMALL
USER_CHARGES
@<TRIPOS>ATOM
1	  Cl	1.949	6.638	3.570	Cl	1	UNK0	0.000	
2	   C	1.956	5.335	2.390	C.2	1	UNK0	0.000	
3	   C	0.917	5.248	1.506	C.2	1	UNK0	0.000	
4	   C	0.922	4.215	0.563	C.2	1	UNK0	0.000	
5	   C	1.955	3.325	0.549	C.2	1	UNK0	0.000	
6	   C	2.986	3.407	1.422	C.2	1	UNK0	0.000	
7	   C	2.990	4.445	2.375	C.2	1	UNK0	0.000	
8	   C	1.946	2.223	-0.468	C.2	1	UNK0	0.000	
9	   O	1.130	2.382	-1.413	O.2	1	UNK0	0.000	
10	   N	2.795	1.184	-0.281	N.pl3	1	UNK0	0.000	
11	   C	3.653	0.133	-0.093	C.3	1	UNK0	0.000	
12	   C	3.079	-1.200	0.082	C.2	1	UNK0	0.000	
13	   O	3.972	-2.155	0.207	O.2	1	UNK0	0.000	
14	   N	1.765	-1.642	0.143	N.pl3	1	UNK0	0.000	
15	   C	0.622	-0.793	0.066	C.3	1	UNK0	0.000	
16	   C	-0.612	-1.615	0.504	C.3	1	UNK0	0.000	
17	   C	-0.841	-2.651	-0.580	C.3	1	UNK0	0.000	
18	   N	-1.092	-1.999	-1.799	N.3	1	UNK0	0.000	
19	   C	-2.383	-1.573	-2.132	C.3	1	UNK0	0.000	
20	   C	-3.519	-2.433	-1.723	C.3	1	UNK0	0.000	
21	   C	-3.172	-3.422	-0.681	C.2	1	UNK0	0.000	
22	   N	-3.974	-4.341	-0.109	N.2	1	UNK0	0.000	
23	   C	-3.251	-5.025	0.783	C.2	1	UNK0	0.000	
24	   N	-1.991	-4.534	0.771	N.pl3	1	UNK0	0.000	
25	   C	-1.925	-3.538	-0.132	C.2	1	UNK0	0.000	
26	   C	0.466	-3.446	-0.742	C.3	1	UNK0	0.000	
27	   C	1.484	-3.078	0.301	C.3	1	UNK0	0.000	
28	   H	0.101	5.949	1.516	 H	1	UNK0	0.000	
29	   H	0.124	4.105	-0.150	 H	1	UNK0	0.000	
30	   H	3.826	2.722	1.443	 H	1	UNK0	0.000	
31	   H	3.805	4.521	3.079	 H	1	UNK0	0.000	
32	   H	2.395	0.613	-1.468	 H	1	UNK0	0.000	
33	   H	4.321	0.328	0.834	 H	1	UNK0	0.000	
34	   H	4.481	0.056	-0.894	 H	1	UNK0	0.000	
35	   H	0.422	-0.435	-0.940	 H	1	UNK0	0.000	
36	   H	0.760	0.036	0.817	 H	1	UNK0	0.000	
37	   H	-1.474	-0.921	0.565	 H	1	UNK0	0.000	
38	   H	-0.388	-2.046	1.475	 H	1	UNK0	0.000	
39	   H	-0.312	-1.685	-2.364	 H	1	UNK0	0.000	
40	   H	-2.427	-1.492	-3.262	 H	1	UNK0	0.000	
41	   H	-2.523	-0.503	-1.795	 H	1	UNK0	0.000	
42	   H	-3.932	-3.020	-2.596	 H	1	UNK0	0.000	
43	   H	-4.381	-1.784	-1.416	 H	1	UNK0	0.000	
44	   H	-3.602	-5.836	1.410	 H	1	UNK0	0.000	
45	   H	-1.212	-4.873	1.364	 H	1	UNK0	0.000	
46	   H	0.271	-4.542	-0.713	 H	1	UNK0	0.000	
47	   H	0.932	-3.245	-1.745	 H	1	UNK0	0.000	
48	   H	2.402	-3.678	0.061	 H	1	UNK0	0.000	
49	   H	1.179	-3.309	1.324	 H	1	UNK0	0.000	
@<TRIPOS>BOND
1 1 2 1
2 2 3 2
3 2 7 1
4 3 4 1
5 4 5 2
6 5 6 1
7 5 8 1
8 6 7 2
9 8 9 2
10 8 10 1
11 10 11 1
12 11 12 1
13 12 13 2
14 12 14 1
15 14 15 1
16 14 27 1
17 15 16 1
18 16 17 1
19 17 18 1
20 17 25 1
21 17 26 1
22 18 19 1
23 19 20 1
24 20 21 1
25 21 22 1
26 21 25 2
27 22 23 2
28 23 24 1
29 24 25 1
30 26 27 1
31 3 28 1
32 4 29 1
33 6 30 1
34 7 31 1
35 10 32 1
36 11 33 1
37 11 34 1
38 15 35 1
39 15 36 1
40 16 37 1
41 16 38 1
42 18 39 1
43 19 40 1
44 19 41 1
45 20 42 1
46 20 43 1
47 23 44 1
48 24 45 1
49 26 46 1
50 26 47 1
51 27 48 1
52 27 49 1
@<TRIPOS>SUBSTRUCTURE
1	UNK0	1	GROUP	1 ****	UNK
# created with PyMOL 2.3.2
@<TRIPOS>MOLECULE
1518
52 55 1                 
SMALL
USER_CHARGES
@<TRIPOS>ATOM
1	  Cl	-5.153	-1.555	7.020	Cl	1	UNK0	0.000	
2	   C	-4.240	-2.137	5.642	C.2	1	UNK0	0.000	
3	   C	-2.904	-2.467	5.821	C.2	1	UNK0	0.000	
4	   C	-2.124	-2.934	4.774	C.2	1	UNK0	0.000	
5	   C	-2.680	-3.076	3.522	C.2	1	UNK0	0.000	
6	   C	-4.024	-2.737	3.371	C.2	1	UNK0	0.000	
7	   C	-4.808	-2.276	4.393	C.2	1	UNK0	0.000	
8	   C	-1.912	-3.563	2.379	C.2	1	UNK0	0.000	
9	   O	-2.501	-3.624	1.270	O.2	1	UNK0	0.000	
10	   N	-0.576	-3.951	2.484	N.pl3	1	UNK0	0.000	
11	   C	0.216	-4.437	1.371	C.3	1	UNK0	0.000	
12	   C	0.303	-3.379	0.317	C.3	1	UNK0	0.000	
13	   C	0.927	-2.130	0.808	C.2	1	UNK0	0.000	
14	   O	1.299	-2.084	2.006	O.2	1	UNK0	0.000	
15	   N	1.104	-1.011	-0.039	N.pl3	1	UNK0	0.000	
16	   C	0.695	-1.001	-1.429	C.3	1	UNK0	0.000	
17	   C	1.673	-0.120	-2.192	C.3	1	UNK0	0.000	
18	   C	1.586	1.323	-1.696	C.3	1	UNK0	0.000	
19	   N	2.909	1.870	-1.782	N.3	1	UNK0	0.000	
20	   C	2.898	3.317	-1.809	C.3	1	UNK0	0.000	
21	   C	2.349	3.773	-3.159	C.3	1	UNK0	0.000	
22	   C	0.965	3.225	-3.252	C.2	1	UNK0	0.000	
23	   N	-0.138	3.653	-3.936	N.pl3	1	UNK0	0.000	
24	   C	-1.141	2.795	-3.679	C.2	1	UNK0	0.000	
25	   N	-0.672	1.847	-2.848	N.2	1	UNK0	0.000	
26	   C	0.642	2.081	-2.558	C.2	1	UNK0	0.000	
27	   C	1.124	1.367	-0.255	C.3	1	UNK0	0.000	
28	   C	1.719	0.198	0.473	C.3	1	UNK0	0.000	
29	   H	-2.473	-2.353	6.806	 H	1	UNK0	0.000	
30	   H	-1.064	-3.186	4.955	 H	1	UNK0	0.000	
31	   H	-4.449	-2.853	2.385	 H	1	UNK0	0.000	
32	   H	-5.845	-2.012	4.284	 H	1	UNK0	0.000	
33	   H	-0.072	-3.908	3.402	 H	1	UNK0	0.000	
34	   H	-0.346	-5.292	0.934	 H	1	UNK0	0.000	
35	   H	1.194	-4.808	1.706	 H	1	UNK0	0.000	
36	   H	0.904	-3.777	-0.554	 H	1	UNK0	0.000	
37	   H	-0.692	-3.188	-0.090	 H	1	UNK0	0.000	
38	   H	0.848	-2.034	-1.842	 H	1	UNK0	0.000	
39	   H	-0.336	-0.684	-1.572	 H	1	UNK0	0.000	
40	   H	2.691	-0.502	-2.131	 H	1	UNK0	0.000	
41	   H	1.348	-0.110	-3.252	 H	1	UNK0	0.000	
42	   H	3.518	1.530	-1.012	 H	1	UNK0	0.000	
43	   H	2.160	3.659	-1.056	 H	1	UNK0	0.000	
44	   H	3.864	3.762	-1.582	 H	1	UNK0	0.000	
45	   H	2.362	4.876	-3.160	 H	1	UNK0	0.000	
46	   H	2.955	3.363	-3.993	 H	1	UNK0	0.000	
47	   H	-0.117	4.510	-4.533	 H	1	UNK0	0.000	
48	   H	-2.131	2.906	-4.100	 H	1	UNK0	0.000	
49	   H	1.428	2.284	0.260	 H	1	UNK0	0.000	
50	   H	0.013	1.276	-0.199	 H	1	UNK0	0.000	
51	   H	1.514	0.343	1.553	 H	1	UNK0	0.000	
52	   H	2.828	0.161	0.332	 H	1	UNK0	0.000	
@<TRIPOS>BOND
1 1 2 1
2 2 3 2
3 2 7 1
4 3 4 1
5 4 5 2
6 5 6 1
7 5 8 1
8 6 7 2
9 8 9 2
10 8 10 1
11 10 11 1
12 11 12 1
13 12 13 1
14 13 14 2
15 13 15 1
16 15 16 1
17 15 28 1
18 16 17 1
19 17 18 1
20 18 19 1
21 18 26 1
22 18 27 1
23 19 20 1
24 20 21 1
25 21 22 1
26 22 23 1
27 22 26 2
28 23 24 1
29 24 25 2
30 25 26 1
31 27 28 1
32 3 29 1
33 4 30 1
34 6 31 1
35 7 32 1
36 10 33 1
37 11 34 1
38 11 35 1
39 12 36 1
40 12 37 1
41 16 38 1
42 16 39 1
43 17 40 1
44 17 41 1
45 19 42 1
46 20 43 1
47 20 44 1
48 21 45 1
49 21 46 1
50 23 47 1
51 24 48 1
52 27 49 1
53 27 50 1
54 28 51 1
55 28 52 1
@<TRIPOS>SUBSTRUCTURE
1	UNK0	1	GROUP	1 ****	UNK
# created with PyMOL 2.3.2
@<TRIPOS>MOLECULE
1521
41 44 1                 
SMALL
USER_CHARGES
@<TRIPOS>ATOM
1	  Cl	4.494	4.137	-0.277	Cl	1	UNK0	0.000	
2	   C	2.760	3.989	-0.081	C.2	1	UNK0	0.000	
3	   C	2.098	2.949	-0.687	C.2	1	UNK0	0.000	
4	   N	2.471	1.919	-1.465	N.pl3	1	UNK0	0.000	
5	   C	1.418	1.155	-1.812	C.2	1	UNK0	0.000	
6	   C	0.323	1.744	-1.216	C.2	1	UNK0	0.000	
7	   C	0.727	2.859	-0.514	C.2	1	UNK0	0.000	
8	   C	0.078	3.805	0.253	C.2	1	UNK0	0.000	
9	   C	0.716	4.853	0.869	C.2	1	UNK0	0.000	
10	   C	2.093	4.940	0.692	C.2	1	UNK0	0.000	
11	   C	-0.978	1.071	-1.454	C.3	1	UNK0	0.000	
12	   N	-0.743	-0.315	-1.118	N.3	1	UNK0	0.000	
13	   C	0.140	-0.994	-1.984	C.3	1	UNK0	0.000	
14	   C	1.149	-0.059	-2.611	C.3	1	UNK0	0.000	
15	   C	-1.856	-0.998	-0.611	C.3	1	UNK0	0.000	
16	   C	-1.561	-2.422	-0.250	C.3	1	UNK0	0.000	
17	   C	-0.636	-2.563	0.909	C.3	1	UNK0	0.000	
18	   N	-1.235	-3.353	1.929	N.3	1	UNK0	0.000	
19	   C	-2.560	-3.705	1.534	C.3	1	UNK0	0.000	
20	   C	-2.837	-3.073	0.212	C.3	1	UNK0	0.000	
21	   O	-1.122	-3.144	-1.367	O.3	1	UNK0	0.000	
22	   H	3.454	1.696	-1.789	 H	1	UNK0	0.000	
23	   H	-0.988	3.711	0.372	 H	1	UNK0	0.000	
24	   H	0.200	5.593	1.471	 H	1	UNK0	0.000	
25	   H	2.614	5.759	1.170	 H	1	UNK0	0.000	
26	   H	-1.187	1.195	-2.555	 H	1	UNK0	0.000	
27	   H	-1.787	1.441	-0.827	 H	1	UNK0	0.000	
28	   H	0.749	-1.760	-1.426	 H	1	UNK0	0.000	
29	   H	-0.376	-1.507	-2.837	 H	1	UNK0	0.000	
30	   H	2.111	-0.592	-2.770	 H	1	UNK0	0.000	
31	   H	0.818	0.247	-3.636	 H	1	UNK0	0.000	
32	   H	-2.761	-0.986	-1.250	 H	1	UNK0	0.000	
33	   H	-2.178	-0.491	0.347	 H	1	UNK0	0.000	
34	   H	0.388	-2.910	0.636	 H	1	UNK0	0.000	
35	   H	-0.480	-1.532	1.341	 H	1	UNK0	0.000	
36	   H	-0.665	-4.185	2.212	 H	1	UNK0	0.000	
37	   H	-2.700	-4.804	1.539	 H	1	UNK0	0.000	
38	   H	-3.317	-3.301	2.257	 H	1	UNK0	0.000	
39	   H	-3.152	-3.904	-0.479	 H	1	UNK0	0.000	
40	   H	-3.674	-2.337	0.246	 H	1	UNK0	0.000	
41	   H	-0.585	-3.899	-1.008	 H	1	UNK0	0.000	
@<TRIPOS>BOND
1 1 2 1
2 2 3 2
3 2 10 1
4 3 4 1
5 3 7 1
6 4 5 1
7 5 6 2
8 5 14 1
9 6 7 1
10 6 11 1
11 7 8 2
12 8 9 1
13 9 10 2
14 11 12 1
15 12 13 1
16 12 15 1
17 13 14 1
18 15 16 1
19 16 17 1
20 16 20 1
21 16 21 1
22 17 18 1
23 18 19 1
24 19 20 1
25 4 22 1
26 8 23 1
27 9 24 1
28 10 25 1
29 11 26 1
30 11 27 1
31 13 28 1
32 13 29 1
33 14 30 1
34 14 31 1
35 15 32 1
36 15 33 1
37 17 34 1
38 17 35 1
39 18 36 1
40 19 37 1
41 19 38 1
42 20 39 1
43 20 40 1
44 21 41 1
@<TRIPOS>SUBSTRUCTURE
1	UNK0	1	GROUP	1 ****	UNK
# created with PyMOL 2.3.2
@<TRIPOS>MOLECULE
1523
43 46 1                 
SMALL
USER_CHARGES
@<TRIPOS>ATOM
1	  Br	-0.883	-0.880	-8.014	Br	1	UNK0	0.000	
2	   C	-1.397	0.312	-6.618	C.2	1	UNK0	0.000	
3	   C	-1.400	-0.121	-5.284	C.2	1	UNK0	0.000	
4	   C	-1.772	0.748	-4.287	C.2	1	UNK0	0.000	
5	   C	-2.135	2.026	-4.622	C.2	1	UNK0	0.000	
6	   C	-2.135	2.468	-5.951	C.2	1	UNK0	0.000	
7	   C	-1.761	1.592	-6.941	C.2	1	UNK0	0.000	
8	   N	-1.782	0.329	-2.933	N.pl3	1	UNK0	0.000	
9	   N	-2.496	0.877	-1.944	N.2	1	UNK0	0.000	
10	   N	-2.272	0.248	-0.812	N.2	1	UNK0	0.000	
11	   C	-1.394	-0.743	-1.023	C.2	1	UNK0	0.000	
12	   C	-1.097	-0.677	-2.364	C.2	1	UNK0	0.000	
13	   C	-0.859	-1.703	-0.030	C.2	1	UNK0	0.000	
14	   O	-0.028	-2.559	-0.496	O.2	1	UNK0	0.000	
15	   N	-1.204	-1.713	1.322	N.pl3	1	UNK0	0.000	
16	   C	-0.627	-2.696	2.197	C.3	1	UNK0	0.000	
17	   C	0.264	-1.991	3.182	C.3	1	UNK0	0.000	
18	   N	-0.408	-0.828	3.687	N.pl3	1	UNK0	0.000	
19	   C	-1.865	-0.785	3.455	C.3	1	UNK0	0.000	
20	   C	-2.125	-0.795	1.955	C.3	1	UNK0	0.000	
21	   C	0.151	0.259	4.359	C.2	1	UNK0	0.000	
22	   O	-0.699	1.163	4.740	O.2	1	UNK0	0.000	
23	   C	1.538	0.546	4.705	C.3	1	UNK0	0.000	
24	   C	2.563	-0.474	4.927	C.3	1	UNK0	0.000	
25	   C	2.670	0.489	3.748	C.3	1	UNK0	0.000	
26	   H	-1.100	-1.144	-5.109	 H	1	UNK0	0.000	
27	   H	-2.437	2.758	-3.891	 H	1	UNK0	0.000	
28	   H	-2.419	3.471	-6.221	 H	1	UNK0	0.000	
29	   H	-1.759	1.931	-7.981	 H	1	UNK0	0.000	
30	   H	-0.414	-1.336	-2.877	 H	1	UNK0	0.000	
31	   H	-0.114	-3.513	1.657	 H	1	UNK0	0.000	
32	   H	-1.482	-3.185	2.718	 H	1	UNK0	0.000	
33	   H	0.566	-2.688	4.010	 H	1	UNK0	0.000	
34	   H	1.192	-1.650	2.681	 H	1	UNK0	0.000	
35	   H	-2.290	-1.643	3.987	 H	1	UNK0	0.000	
36	   H	-2.227	0.169	3.843	 H	1	UNK0	0.000	
37	   H	-2.028	0.199	1.518	 H	1	UNK0	0.000	
38	   H	-3.143	-1.172	1.799	 H	1	UNK0	0.000	
39	   H	1.660	1.474	5.384	 H	1	UNK0	0.000	
40	   H	3.341	-0.315	5.744	 H	1	UNK0	0.000	
41	   H	2.468	-1.543	4.686	 H	1	UNK0	0.000	
42	   H	2.631	0.115	2.739	 H	1	UNK0	0.000	
43	   H	3.497	1.260	3.853	 H	1	UNK0	0.000	
@<TRIPOS>BOND
1 1 2 1
2 2 3 2
3 2 7 1
4 3 4 1
5 4 5 2
6 4 8 1
7 5 6 1
8 6 7 2
9 8 9 1
10 8 12 1
11 9 10 2
12 10 11 1
13 11 12 2
14 11 13 1
15 13 14 2
16 13 15 1
17 15 16 1
18 15 20 1
19 16 17 1
20 17 18 1
21 18 19 1
22 18 21 1
23 19 20 1
24 21 22 2
25 21 23 1
26 23 24 1
27 23 25 1
28 24 25 1
29 3 26 1
30 5 27 1
31 6 28 1
32 7 29 1
33 12 30 1
34 16 31 1
35 16 32 1
36 17 33 1
37 17 34 1
38 19 35 1
39 19 36 1
40 20 37 1
41 20 38 1
42 23 39 1
43 24 40 1
44 24 41 1
45 25 42 1
46 25 43 1
@<TRIPOS>SUBSTRUCTURE
1	UNK0	1	GROUP	1 ****	UNK
# created with PyMOL 2.3.2
@<TRIPOS>MOLECULE
1525
44 47 1                 
SMALL
USER_CHARGES
@<TRIPOS>ATOM
1	  Br	0.913	-3.143	-4.410	Br	1	UNK0	0.000	
2	   C	-0.213	-2.511	-3.012	C.2	1	UNK0	0.000	
3	   C	0.290	-2.233	-1.744	C.2	1	UNK0	0.000	
4	   C	-0.532	-1.775	-0.736	C.2	1	UNK0	0.000	
5	   C	-1.874	-1.612	-1.061	C.2	1	UNK0	0.000	
6	   C	-2.387	-1.879	-2.301	C.2	1	UNK0	0.000	
7	   C	-1.551	-2.335	-3.291	C.2	1	UNK0	0.000	
8	   N	-0.066	-1.478	0.581	N.pl3	1	UNK0	0.000	
9	   C	1.077	-0.680	0.863	C.2	1	UNK0	0.000	
10	   O	2.012	-0.499	0.046	O.2	1	UNK0	0.000	
11	   C	0.911	-0.168	2.218	C.3	1	UNK0	0.000	
12	   C	0.097	-1.250	2.896	C.3	1	UNK0	0.000	
13	   C	-0.655	-1.912	1.813	C.2	1	UNK0	0.000	
14	   O	-1.626	-2.706	1.926	O.2	1	UNK0	0.000	
15	   N	0.339	1.112	2.344	N.3	1	UNK0	0.000	
16	   C	-0.979	1.297	1.888	C.3	1	UNK0	0.000	
17	   C	-0.929	1.885	0.471	C.3	1	UNK0	0.000	
18	   N	0.393	2.433	0.213	N.pl3	1	UNK0	0.000	
19	   C	1.172	3.080	1.250	C.3	1	UNK0	0.000	
20	   C	1.139	2.243	2.507	C.3	1	UNK0	0.000	
21	   C	0.991	2.335	-1.087	C.2	1	UNK0	0.000	
22	   N	2.038	3.114	-1.431	N.2	1	UNK0	0.000	
23	   C	2.606	3.005	-2.648	C.2	1	UNK0	0.000	
24	   C	2.140	2.093	-3.588	C.2	1	UNK0	0.000	
25	   C	1.067	1.297	-3.228	C.2	1	UNK0	0.000	
26	   N	0.544	1.453	-1.999	N.2	1	UNK0	0.000	
27	   H	1.340	-2.378	-1.550	 H	1	UNK0	0.000	
28	   H	-2.530	-1.252	-0.269	 H	1	UNK0	0.000	
29	   H	-3.447	-1.748	-2.546	 H	1	UNK0	0.000	
30	   H	-1.963	-2.545	-4.268	 H	1	UNK0	0.000	
31	   H	1.915	-0.160	2.730	 H	1	UNK0	0.000	
32	   H	0.794	-1.997	3.310	 H	1	UNK0	0.000	
33	   H	-0.573	-0.824	3.674	 H	1	UNK0	0.000	
34	   H	-1.484	2.060	2.516	 H	1	UNK0	0.000	
35	   H	-1.602	0.416	1.895	 H	1	UNK0	0.000	
36	   H	-1.114	1.074	-0.280	 H	1	UNK0	0.000	
37	   H	-1.640	2.702	0.326	 H	1	UNK0	0.000	
38	   H	0.793	4.128	1.423	 H	1	UNK0	0.000	
39	   H	2.256	3.128	0.948	 H	1	UNK0	0.000	
40	   H	2.155	2.005	2.883	 H	1	UNK0	0.000	
41	   H	0.670	2.901	3.299	 H	1	UNK0	0.000	
42	   H	3.453	3.625	-2.941	 H	1	UNK0	0.000	
43	   H	2.623	2.028	-4.569	 H	1	UNK0	0.000	
44	   H	0.677	0.561	-3.943	 H	1	UNK0	0.000	
@<TRIPOS>BOND
1 1 2 1
2 2 3 2
3 2 7 1
4 3 4 1
5 4 5 2
6 4 8 1
7 5 6 1
8 6 7 2
9 8 9 1
10 8 13 1
11 9 10 2
12 9 11 1
13 11 12 1
14 11 15 1
15 12 13 1
16 13 14 2
17 15 16 1
18 15 20 1
19 16 17 1
20 17 18 1
21 18 19 1
22 18 21 1
23 19 20 1
24 21 22 2
25 21 26 1
26 22 23 1
27 23 24 2
28 24 25 1
29 25 26 2
30 3 27 1
31 5 28 1
32 6 29 1
33 7 30 1
34 11 31 1
35 12 32 1
36 12 33 1
37 16 34 1
38 16 35 1
39 17 36 1
40 17 37 1
41 19 38 1
42 19 39 1
43 20 40 1
44 20 41 1
45 23 42 1
46 24 43 1
47 25 44 1
@<TRIPOS>SUBSTRUCTURE
1	UNK0	1	GROUP	1 ****	UNK
# created with PyMOL 2.3.2
@<TRIPOS>MOLECULE
1531
46 49 1                 
SMALL
USER_CHARGES
@<TRIPOS>ATOM
1	  Cl	-1.440	-4.735	-6.083	Cl	1	UNK0	0.000	
2	   C	-1.221	-3.758	-4.656	C.2	1	UNK0	0.000	
3	   C	-0.064	-3.907	-3.926	C.2	1	UNK0	0.000	
4	   C	0.094	-3.131	-2.804	C.2	1	UNK0	0.000	
5	   C	-0.912	-2.223	-2.442	C.2	1	UNK0	0.000	
6	   C	-2.070	-2.045	-3.136	C.2	1	UNK0	0.000	
7	   C	-2.177	-2.872	-4.282	C.2	1	UNK0	0.000	
8	   C	-3.136	-1.135	-2.814	C.2	1	UNK0	0.000	
9	   O	-4.139	-1.162	-3.670	O.2	1	UNK0	0.000	
10	   C	-3.308	-0.200	-1.727	C.3	1	UNK0	0.000	
11	   N	-2.326	-0.054	-0.707	N.pl3	1	UNK0	0.000	
12	   C	-2.269	-0.758	0.467	C.2	1	UNK0	0.000	
13	   N	-1.226	-0.273	1.145	N.pl3	1	UNK0	0.000	
14	   C	-0.598	0.709	0.477	C.2	1	UNK0	0.000	
15	   C	-1.304	0.845	-0.705	C.2	1	UNK0	0.000	
16	   C	0.574	1.493	0.864	C.2	1	UNK0	0.000	
17	   C	1.256	1.348	2.045	C.2	1	UNK0	0.000	
18	   C	2.375	2.138	2.345	C.2	1	UNK0	0.000	
19	   C	2.844	3.096	1.474	C.2	1	UNK0	0.000	
20	   C	2.165	3.250	0.285	C.2	1	UNK0	0.000	
21	   C	1.065	2.471	-0.008	C.2	1	UNK0	0.000	
22	   O	3.950	3.885	1.758	O.3	1	UNK0	0.000	
23	   C	4.649	3.729	2.980	C.3	1	UNK0	0.000	
24	   C	-1.083	-0.968	2.420	C.3	1	UNK0	0.000	
25	   C	-2.129	-2.044	2.403	C.3	1	UNK0	0.000	
26	   C	-2.972	-1.842	1.195	C.3	1	UNK0	0.000	
27	  Cl	1.187	-5.040	-4.382	Cl	1	UNK0	0.000	
28	   H	0.990	-3.242	-2.233	 H	1	UNK0	0.000	
29	   H	-0.690	-1.674	-1.565	 H	1	UNK0	0.000	
30	   H	-3.063	-2.795	-4.889	 H	1	UNK0	0.000	
31	   H	-3.526	0.862	-2.140	 H	1	UNK0	0.000	
32	   H	-4.329	-0.387	-1.207	 H	1	UNK0	0.000	
33	   H	-1.098	1.544	-1.513	 H	1	UNK0	0.000	
34	   H	0.925	0.617	2.751	 H	1	UNK0	0.000	
35	   H	2.905	2.015	3.280	 H	1	UNK0	0.000	
36	   H	2.522	4.004	-0.417	 H	1	UNK0	0.000	
37	   H	0.531	2.597	-0.951	 H	1	UNK0	0.000	
38	   H	5.193	2.751	2.915	 H	1	UNK0	0.000	
39	   H	5.383	4.552	3.091	 H	1	UNK0	0.000	
40	   H	3.944	3.678	3.838	 H	1	UNK0	0.000	
41	   H	-0.099	-1.488	2.514	 H	1	UNK0	0.000	
42	   H	-1.213	-0.259	3.261	 H	1	UNK0	0.000	
43	   H	-1.693	-3.073	2.371	 H	1	UNK0	0.000	
44	   H	-2.714	-1.953	3.363	 H	1	UNK0	0.000	
45	   H	-3.075	-2.739	0.554	 H	1	UNK0	0.000	
46	   H	-4.008	-1.536	1.490	 H	1	UNK0	0.000	
@<TRIPOS>BOND
1 1 2 1
2 2 3 2
3 2 7 1
4 3 4 1
5 3 27 1
6 4 5 2
7 5 6 1
8 6 7 2
9 6 8 1
10 8 9 2
11 8 10 1
12 10 11 1
13 11 12 1
14 11 15 1
15 12 13 2
16 12 26 1
17 13 14 1
18 13 24 1
19 14 15 2
20 14 16 1
21 16 17 2
22 16 21 1
23 17 18 1
24 18 19 2
25 19 20 1
26 19 22 1
27 20 21 2
28 22 23 1
29 24 25 1
30 25 26 1
31 4 28 1
32 5 29 1
33 7 30 1
34 10 31 1
35 10 32 1
36 15 33 1
37 17 34 1
38 18 35 1
39 20 36 1
40 21 37 1
41 23 38 1
42 23 39 1
43 23 40 1
44 24 41 1
45 24 42 1
46 25 43 1
47 25 44 1
48 26 45 1
49 26 46 1
@<TRIPOS>SUBSTRUCTURE
1	UNK0	1	GROUP	1 ****	UNK
# created with PyMOL 2.3.2
@<TRIPOS>MOLECULE
1533
44 47 1                 
SMALL
USER_CHARGES
@<TRIPOS>ATOM
1	  Cl	-5.095	-4.605	1.683	Cl	1	UNK0	0.000	
2	   C	-4.053	-3.287	2.174	C.2	1	UNK0	0.000	
3	   C	-3.817	-3.105	3.505	C.2	1	UNK0	0.000	
4	   C	-3.002	-2.077	3.919	C.2	1	UNK0	0.000	
5	   C	-2.430	-1.236	2.961	C.2	1	UNK0	0.000	
6	   C	-2.664	-1.414	1.616	C.2	1	UNK0	0.000	
7	   C	-3.476	-2.441	1.232	C.2	1	UNK0	0.000	
8	   C	-2.046	-0.485	0.670	C.2	1	UNK0	0.000	
9	   N	-2.063	-0.473	-0.688	N.pl3	1	UNK0	0.000	
10	   C	-1.356	0.572	-1.131	C.2	1	UNK0	0.000	
11	   N	-0.851	1.276	-0.072	N.pl3	1	UNK0	0.000	
12	   C	-1.281	0.619	1.018	C.2	1	UNK0	0.000	
13	   C	-0.079	2.483	-0.131	C.3	1	UNK0	0.000	
14	   C	1.356	2.481	-0.213	C.2	1	UNK0	0.000	
15	   O	1.877	3.703	-0.270	O.2	1	UNK0	0.000	
16	   C	2.358	1.446	-0.247	C.2	1	UNK0	0.000	
17	   C	3.724	1.796	-0.342	C.2	1	UNK0	0.000	
18	   C	4.747	0.885	-0.379	C.2	1	UNK0	0.000	
19	   C	4.391	-0.447	-0.318	C.2	1	UNK0	0.000	
20	   C	3.067	-0.814	-0.225	C.2	1	UNK0	0.000	
21	   C	2.029	0.119	-0.188	C.2	1	UNK0	0.000	
22	   N	6.109	1.257	-0.475	N.pl3	1	UNK0	0.000	
23	   O	6.976	0.377	-0.503	O.2	1	UNK0	0.000	
24	   O	6.496	2.564	-0.538	O.2	1	UNK0	0.000	
25	   C	-1.360	0.627	-2.610	C.3	1	UNK0	0.000	
26	   C	-1.687	-0.797	-2.965	C.3	1	UNK0	0.000	
27	   C	-2.587	-1.225	-1.829	C.3	1	UNK0	0.000	
28	  Cl	-4.530	-4.155	4.731	Cl	1	UNK0	0.000	
29	   H	-2.829	-1.950	4.969	 H	1	UNK0	0.000	
30	   H	-1.800	-0.448	3.350	 H	1	UNK0	0.000	
31	   H	-3.731	-2.660	0.210	 H	1	UNK0	0.000	
32	   H	-1.049	0.925	2.044	 H	1	UNK0	0.000	
33	   H	-0.544	3.099	-0.975	 H	1	UNK0	0.000	
34	   H	-0.417	3.076	0.785	 H	1	UNK0	0.000	
35	   H	4.009	2.848	-0.391	 H	1	UNK0	0.000	
36	   H	5.193	-1.179	-0.347	 H	1	UNK0	0.000	
37	   H	2.795	-1.874	-0.177	 H	1	UNK0	0.000	
38	   H	1.033	-0.264	-0.113	 H	1	UNK0	0.000	
39	   H	-0.368	0.862	-3.033	 H	1	UNK0	0.000	
40	   H	-2.149	1.323	-3.005	 H	1	UNK0	0.000	
41	   H	-0.732	-1.366	-2.933	 H	1	UNK0	0.000	
42	   H	-2.200	-0.899	-3.944	 H	1	UNK0	0.000	
43	   H	-3.618	-0.906	-2.089	 H	1	UNK0	0.000	
44	   H	-2.510	-2.330	-1.678	 H	1	UNK0	0.000	
@<TRIPOS>BOND
1 1 2 1
2 2 3 2
3 2 7 1
4 3 4 1
5 3 28 1
6 4 5 2
7 5 6 1
8 6 7 2
9 6 8 1
10 8 9 1
11 8 12 2
12 9 10 2
13 9 27 1
14 10 11 1
15 10 25 1
16 11 12 1
17 11 13 1
18 13 14 1
19 14 15 2
20 14 16 1
21 16 17 2
22 16 21 1
23 17 18 1
24 18 19 2
25 18 22 1
26 19 20 1
27 20 21 2
28 22 23 2
29 22 24 1
30 25 26 1
31 26 27 1
32 4 29 1
33 5 30 1
34 7 31 1
35 12 32 1
36 13 33 1
37 13 34 1
38 17 35 1
39 19 36 1
40 20 37 1
41 21 38 1
42 25 39 1
43 25 40 1
44 26 41 1
45 26 42 1
46 27 43 1
47 27 44 1
@<TRIPOS>SUBSTRUCTURE
1	UNK0	1	GROUP	1 ****	UNK
# created with PyMOL 2.3.2
@<TRIPOS>MOLECULE
1535
44 47 1                 
SMALL
USER_CHARGES
@<TRIPOS>ATOM
1	  Cl	-1.760	-1.015	6.248	Cl	1	UNK0	0.000	
2	   C	-2.233	-0.031	4.899	C.2	1	UNK0	0.000	
3	   C	-3.090	1.023	5.068	C.2	1	UNK0	0.000	
4	   C	-3.430	1.766	3.963	C.2	1	UNK0	0.000	
5	   C	-2.921	1.456	2.730	C.2	1	UNK0	0.000	
6	   C	-2.043	0.388	2.521	C.2	1	UNK0	0.000	
7	   C	-1.721	-0.334	3.622	C.2	1	UNK0	0.000	
8	   C	-1.547	0.092	1.176	C.2	1	UNK0	0.000	
9	   N	-0.660	-0.823	0.753	N.pl3	1	UNK0	0.000	
10	   C	-0.515	-0.725	-0.585	C.2	1	UNK0	0.000	
11	   N	-1.317	0.264	-1.018	N.pl3	1	UNK0	0.000	
12	   C	-1.979	0.802	0.045	C.2	1	UNK0	0.000	
13	   C	-1.492	0.666	-2.365	C.3	1	UNK0	0.000	
14	   C	-0.691	1.672	-3.001	C.2	1	UNK0	0.000	
15	   O	-1.040	1.853	-4.259	O.2	1	UNK0	0.000	
16	   C	0.397	2.500	-2.537	C.2	1	UNK0	0.000	
17	   C	0.914	2.483	-1.270	C.2	1	UNK0	0.000	
18	   C	1.972	3.315	-0.892	C.2	1	UNK0	0.000	
19	   C	2.519	4.174	-1.790	C.2	1	UNK0	0.000	
20	   C	2.018	4.212	-3.073	C.2	1	UNK0	0.000	
21	   C	0.983	3.402	-3.454	C.2	1	UNK0	0.000	
22	   N	2.466	3.248	0.447	N.pl3	1	UNK0	0.000	
23	   O	3.407	3.985	0.789	O.2	1	UNK0	0.000	
24	   O	1.938	2.399	1.366	O.2	1	UNK0	0.000	
25	   C	0.453	-1.738	-1.066	C.3	1	UNK0	0.000	
26	   C	1.323	-1.858	0.159	C.3	1	UNK0	0.000	
27	   C	0.224	-1.891	1.235	C.3	1	UNK0	0.000	
28	  Cl	-3.746	1.428	6.639	Cl	1	UNK0	0.000	
29	   H	-4.113	2.618	4.056	 H	1	UNK0	0.000	
30	   H	-3.205	2.057	1.888	 H	1	UNK0	0.000	
31	   H	-1.066	-1.175	3.550	 H	1	UNK0	0.000	
32	   H	-2.681	1.601	0.006	 H	1	UNK0	0.000	
33	   H	-2.586	0.980	-2.527	 H	1	UNK0	0.000	
34	   H	-1.403	-0.272	-3.022	 H	1	UNK0	0.000	
35	   H	0.517	1.822	-0.516	 H	1	UNK0	0.000	
36	   H	3.351	4.819	-1.470	 H	1	UNK0	0.000	
37	   H	2.463	4.908	-3.799	 H	1	UNK0	0.000	
38	   H	0.621	3.469	-4.481	 H	1	UNK0	0.000	
39	   H	-0.098	-2.688	-1.257	 H	1	UNK0	0.000	
40	   H	1.030	-1.404	-1.948	 H	1	UNK0	0.000	
41	   H	1.836	-0.891	0.298	 H	1	UNK0	0.000	
42	   H	1.956	-2.730	0.187	 H	1	UNK0	0.000	
43	   H	-0.300	-2.835	1.133	 H	1	UNK0	0.000	
44	   H	0.676	-1.674	2.218	 H	1	UNK0	0.000	
@<TRIPOS>BOND
1 1 2 1
2 2 3 2
3 2 7 1
4 3 4 1
5 3 28 1
6 4 5 2
7 5 6 1
8 6 7 2
9 6 8 1
10 8 9 1
11 8 12 2
12 9 10 1
13 9 27 1
14 10 11 2
15 10 25 1
16 11 12 1
17 11 13 1
18 13 14 1
19 14 15 2
20 14 16 1
21 16 17 2
22 16 21 1
23 17 18 1
24 18 19 2
25 18 22 1
26 19 20 1
27 20 21 2
28 22 23 2
29 22 24 1
30 25 26 1
31 26 27 1
32 4 29 1
33 5 30 1
34 7 31 1
35 12 32 1
36 13 33 1
37 13 34 1
38 17 35 1
39 19 36 1
40 20 37 1
41 21 38 1
42 25 39 1
43 25 40 1
44 26 41 1
45 26 42 1
46 27 43 1
47 27 44 1
@<TRIPOS>SUBSTRUCTURE
1	UNK0	1	GROUP	1 ****	UNK
# created with PyMOL 2.3.2
@<TRIPOS>MOLECULE
1536
55 58 1                 
SMALL
USER_CHARGES
@<TRIPOS>ATOM
1	   S	-2.826	0.825	-1.452	S.O2	1	UNK0	0.000	
2	   O	-4.346	0.950	-1.599	O.2	1	UNK0	0.000	
3	   O	-2.298	1.959	-2.334	O.2	1	UNK0	0.000	
4	   N	-2.361	-0.632	-2.079	N.3	1	UNK0	0.000	
5	   C	-2.832	-1.864	-1.640	C.3	1	UNK0	0.000	
6	   C	-2.033	-2.550	-0.579	C.3	1	UNK0	0.000	
7	   C	-0.602	-2.018	-0.612	C.3	1	UNK0	0.000	
8	   C	-0.287	-1.927	-2.114	C.3	1	UNK0	0.000	
9	   C	-0.996	-0.669	-2.590	C.3	1	UNK0	0.000	
10	   C	0.327	-2.890	0.086	C.2	1	UNK0	0.000	
11	   O	-0.023	-4.063	0.380	O.2	1	UNK0	0.000	
12	   N	1.610	-2.461	0.441	N.pl3	1	UNK0	0.000	
13	   C	2.586	-3.328	1.111	C.3	1	UNK0	0.000	
14	   C	3.748	-2.439	1.501	C.3	1	UNK0	0.000	
15	   N	4.369	-1.873	0.319	N.3	1	UNK0	0.000	
16	   C	3.424	-1.079	-0.446	C.3	1	UNK0	0.000	
17	   C	2.043	-1.116	0.185	C.3	1	UNK0	0.000	
18	   C	5.533	-1.088	0.669	C.3	1	UNK0	0.000	
19	   C	-2.491	1.164	0.221	C.2	1	UNK0	0.000	
20	   C	-1.451	2.052	0.545	C.2	1	UNK0	0.000	
21	   C	-1.095	2.330	1.839	C.2	1	UNK0	0.000	
22	   C	-1.763	1.734	2.864	C.2	1	UNK0	0.000	
23	   C	-2.788	0.859	2.609	C.2	1	UNK0	0.000	
24	   C	-3.132	0.594	1.282	C.2	1	UNK0	0.000	
25	  Cl	-4.501	-0.472	1.015	Cl	1	UNK0	0.000	
26	   N	-1.372	2.034	4.215	N.pl3	1	UNK0	0.000	
27	   C	-0.306	2.938	4.449	C.2	1	UNK0	0.000	
28	   O	-0.168	3.520	5.545	O.2	1	UNK0	0.000	
29	   C	0.651	3.172	3.336	C.3	1	UNK0	0.000	
30	   O	-0.052	3.221	2.123	O.3	1	UNK0	0.000	
31	   H	-3.889	-1.854	-1.372	 H	1	UNK0	0.000	
32	   H	-2.827	-2.549	-2.575	 H	1	UNK0	0.000	
33	   H	-1.953	-3.637	-0.831	 H	1	UNK0	0.000	
34	   H	-2.436	-2.505	0.436	 H	1	UNK0	0.000	
35	   H	-0.617	-0.995	-0.203	 H	1	UNK0	0.000	
36	   H	0.774	-1.910	-2.336	 H	1	UNK0	0.000	
37	   H	-0.804	-2.818	-2.574	 H	1	UNK0	0.000	
38	   H	-0.942	-0.572	-3.687	 H	1	UNK0	0.000	
39	   H	-0.460	0.191	-2.148	 H	1	UNK0	0.000	
40	   H	2.942	-4.058	0.324	 H	1	UNK0	0.000	
41	   H	2.144	-3.831	1.972	 H	1	UNK0	0.000	
42	   H	3.340	-1.650	2.192	 H	1	UNK0	0.000	
43	   H	4.486	-3.043	2.061	 H	1	UNK0	0.000	
44	   H	3.351	-1.445	-1.478	 H	1	UNK0	0.000	
45	   H	3.759	-0.023	-0.395	 H	1	UNK0	0.000	
46	   H	2.025	-0.532	1.138	 H	1	UNK0	0.000	
47	   H	1.341	-0.619	-0.484	 H	1	UNK0	0.000	
48	   H	6.087	-0.876	-0.264	 H	1	UNK0	0.000	
49	   H	6.189	-1.673	1.330	 H	1	UNK0	0.000	
50	   H	5.256	-0.095	1.105	 H	1	UNK0	0.000	
51	   H	-0.923	2.523	-0.286	 H	1	UNK0	0.000	
52	   H	-3.314	0.389	3.410	 H	1	UNK0	0.000	
53	   H	-1.877	1.584	5.004	 H	1	UNK0	0.000	
54	   H	1.207	4.124	3.483	 H	1	UNK0	0.000	
55	   H	1.387	2.358	3.266	 H	1	UNK0	0.000	
@<TRIPOS>BOND
1 1 2 2
2 1 3 2
3 1 4 1
4 1 19 1
5 4 5 1
6 4 9 1
7 5 6 1
8 6 7 1
9 7 8 1
10 7 10 1
11 8 9 1
12 10 11 2
13 10 12 1
14 12 13 1
15 12 17 1
16 13 14 1
17 14 15 1
18 15 16 1
19 15 18 1
20 16 17 1
21 19 20 2
22 19 24 1
23 20 21 1
24 21 22 2
25 21 30 1
26 22 23 1
27 22 26 1
28 23 24 2
29 24 25 1
30 26 27 1
31 27 28 2
32 27 29 1
33 29 30 1
34 5 31 1
35 5 32 1
36 6 33 1
37 6 34 1
38 7 35 1
39 8 36 1
40 8 37 1
41 9 38 1
42 9 39 1
43 13 40 1
44 13 41 1
45 14 42 1
46 14 43 1
47 16 44 1
48 16 45 1
49 17 46 1
50 17 47 1
51 18 48 1
52 18 49 1
53 18 50 1
54 20 51 1
55 23 52 1
56 26 53 1
57 29 54 1
58 29 55 1
@<TRIPOS>SUBSTRUCTURE
1	UNK0	1	GROUP	1 ****	UNK
# created with PyMOL 2.3.2
@<TRIPOS>MOLECULE
1539
60 63 1                 
SMALL
USER_CHARGES
@<TRIPOS>ATOM
1	  Cl	6.965	0.567	-3.035	Cl	1	UNK0	0.000	
2	   C	5.403	0.642	-2.222	C.2	1	UNK0	0.000	
3	   C	4.232	0.331	-2.889	C.2	1	UNK0	0.000	
4	   C	3.018	0.395	-2.239	C.2	1	UNK0	0.000	
5	   C	2.898	0.763	-0.916	C.2	1	UNK0	0.000	
6	   C	4.094	1.074	-0.257	C.2	1	UNK0	0.000	
7	   C	5.307	1.011	-0.903	C.2	1	UNK0	0.000	
8	   C	1.578	0.823	-0.242	C.3	1	UNK0	0.000	
9	   N	1.768	0.189	1.069	N.pl3	1	UNK0	0.000	
10	   C	1.913	-1.196	0.789	C.2	1	UNK0	0.000	
11	   O	2.536	-2.031	1.465	O.2	1	UNK0	0.000	
12	   C	1.183	-1.440	-0.451	C.2	1	UNK0	0.000	
13	   O	1.017	-2.509	-1.110	O.2	1	UNK0	0.000	
14	   C	0.622	-0.143	-0.857	C.2	1	UNK0	0.000	
15	   C	-0.446	0.054	-1.605	C.2	1	UNK0	0.000	
16	   O	-0.802	1.368	-1.921	O.2	1	UNK0	0.000	
17	   C	-1.271	-1.033	-2.111	C.2	1	UNK0	0.000	
18	   C	-1.676	-1.099	-3.434	C.2	1	UNK0	0.000	
19	   C	-2.480	-2.117	-3.903	C.2	1	UNK0	0.000	
20	   C	-2.917	-3.124	-3.054	C.2	1	UNK0	0.000	
21	   C	-2.522	-3.070	-1.737	C.2	1	UNK0	0.000	
22	   C	-1.707	-2.033	-1.273	C.2	1	UNK0	0.000	
23	   O	-3.728	-4.159	-3.512	O.3	1	UNK0	0.000	
24	   C	-4.141	-5.149	-2.612	C.3	1	UNK0	0.000	
25	   C	-2.888	-2.146	-5.325	C.3	1	UNK0	0.000	
26	   C	1.803	0.852	2.373	C.3	1	UNK0	0.000	
27	   C	0.380	0.877	2.881	C.3	1	UNK0	0.000	
28	   N	0.264	1.508	4.168	N.4	1	UNK0	0.000	
29	   C	0.323	0.544	5.218	C.3	1	UNK0	0.000	
30	   C	-0.989	0.073	5.751	C.3	1	UNK0	0.000	
31	   O	-1.995	1.001	5.732	O.3	1	UNK0	0.000	
32	   C	-2.179	1.586	4.486	C.3	1	UNK0	0.000	
33	   C	-0.911	2.334	4.167	C.3	1	UNK0	0.000	
34	   H	4.286	0.039	-3.925	 H	1	UNK0	0.000	
35	   H	2.071	0.154	-2.743	 H	1	UNK0	0.000	
36	   H	3.990	1.361	0.780	 H	1	UNK0	0.000	
37	   H	6.210	1.254	-0.375	 H	1	UNK0	0.000	
38	   H	1.175	1.836	-0.157	 H	1	UNK0	0.000	
39	   H	-1.316	-0.289	-4.085	 H	1	UNK0	0.000	
40	   H	-2.862	-3.862	-1.054	 H	1	UNK0	0.000	
41	   H	-1.446	-2.035	-0.228	 H	1	UNK0	0.000	
42	   H	-3.249	-5.720	-2.225	 H	1	UNK0	0.000	
43	   H	-4.762	-5.919	-3.120	 H	1	UNK0	0.000	
44	   H	-4.742	-4.750	-1.768	 H	1	UNK0	0.000	
45	   H	-3.907	-1.679	-5.458	 H	1	UNK0	0.000	
46	   H	-2.974	-3.178	-5.716	 H	1	UNK0	0.000	
47	   H	-2.180	-1.559	-5.956	 H	1	UNK0	0.000	
48	   H	2.149	1.896	2.291	 H	1	UNK0	0.000	
49	   H	2.485	0.310	3.024	 H	1	UNK0	0.000	
50	   H	-0.274	1.412	2.168	 H	1	UNK0	0.000	
51	   H	-0.049	-0.146	2.985	 H	1	UNK0	0.000	
52	   H	1.120	2.126	4.258	 H	1	UNK0	0.000	
53	   H	0.877	1.007	6.089	 H	1	UNK0	0.000	
54	   H	0.988	-0.308	4.907	 H	1	UNK0	0.000	
55	   H	-0.883	-0.303	6.798	 H	1	UNK0	0.000	
56	   H	-1.304	-0.827	5.146	 H	1	UNK0	0.000	
57	   H	-2.975	2.368	4.634	 H	1	UNK0	0.000	
58	   H	-2.472	0.866	3.709	 H	1	UNK0	0.000	
59	   H	-1.084	2.823	3.175	 H	1	UNK0	0.000	
60	   H	-0.842	3.177	4.896	 H	1	UNK0	0.000	
@<TRIPOS>BOND
1 1 2 1
2 2 3 2
3 2 7 1
4 3 4 1
5 4 5 2
6 5 6 1
7 5 8 1
8 6 7 2
9 8 9 1
10 8 14 1
11 9 10 1
12 9 26 1
13 10 11 2
14 10 12 1
15 12 13 2
16 12 14 1
17 14 15 2
18 15 16 1
19 15 17 1
20 17 18 2
21 17 22 1
22 18 19 1
23 19 20 2
24 19 25 1
25 20 21 1
26 20 23 1
27 21 22 2
28 23 24 1
29 26 27 1
30 27 28 1
31 28 29 1
32 28 33 1
33 29 30 1
34 30 31 1
35 31 32 1
36 32 33 1
37 3 34 1
38 4 35 1
39 6 36 1
40 7 37 1
41 8 38 1
42 18 39 1
43 21 40 1
44 22 41 1
45 24 42 1
46 24 43 1
47 24 44 1
48 25 45 1
49 25 46 1
50 25 47 1
51 26 48 1
52 26 49 1
53 27 50 1
54 27 51 1
55 28 52 1
56 29 53 1
57 29 54 1
58 30 55 1
59 30 56 1
60 32 57 1
61 32 58 1
62 33 59 1
63 33 60 1
@<TRIPOS>SUBSTRUCTURE
1	UNK0	1	GROUP	1 ****	UNK
# created with PyMOL 2.3.2
@<TRIPOS>MOLECULE
1548
36 39 1                 
SMALL
USER_CHARGES
@<TRIPOS>ATOM
1	  Cl	1.558	6.144	2.404	Cl	1	UNK0	0.000	
2	   C	0.796	4.857	1.481	C.2	1	UNK0	0.000	
3	   C	1.396	3.630	1.300	C.2	1	UNK0	0.000	
4	   N	0.802	2.632	0.582	N.pl3	1	UNK0	0.000	
5	   C	-0.406	2.800	0.014	C.2	1	UNK0	0.000	
6	   N	-0.998	1.810	-0.700	N.2	1	UNK0	0.000	
7	   C	-0.404	0.610	-0.873	C.2	1	UNK0	0.000	
8	   C	0.822	0.405	-0.310	C.2	1	UNK0	0.000	
9	   C	1.526	-0.908	-0.470	C.3	1	UNK0	0.000	
10	   N	0.447	-1.895	-0.649	N.pl3	1	UNK0	0.000	
11	   C	-0.357	-1.673	-1.817	C.3	1	UNK0	0.000	
12	   C	-1.157	-0.390	-1.675	C.3	1	UNK0	0.000	
13	   C	0.326	-2.903	0.303	C.2	1	UNK0	0.000	
14	   O	1.156	-2.928	1.277	O.2	1	UNK0	0.000	
15	   C	-0.684	-3.968	0.302	C.2	1	UNK0	0.000	
16	   N	-1.617	-4.069	-0.649	N.2	1	UNK0	0.000	
17	   C	-2.533	-5.042	-0.642	C.2	1	UNK0	0.000	
18	   C	-2.568	-6.000	0.350	C.2	1	UNK0	0.000	
19	   N	-1.622	-5.883	1.298	N.2	1	UNK0	0.000	
20	   C	-0.698	-4.922	1.314	C.2	1	UNK0	0.000	
21	   C	1.400	1.439	0.414	C.2	1	UNK0	0.000	
22	   O	2.520	1.261	0.932	O.2	1	UNK0	0.000	
23	   C	-1.017	4.032	0.191	C.2	1	UNK0	0.000	
24	   C	-0.442	5.058	0.910	C.2	1	UNK0	0.000	
25	   H	2.362	3.427	1.727	 H	1	UNK0	0.000	
26	   H	2.152	-1.141	0.401	 H	1	UNK0	0.000	
27	   H	2.125	-0.811	-1.410	 H	1	UNK0	0.000	
28	   H	-0.940	-2.506	-2.181	 H	1	UNK0	0.000	
29	   H	0.378	-1.443	-2.653	 H	1	UNK0	0.000	
30	   H	-2.127	-0.637	-1.226	 H	1	UNK0	0.000	
31	   H	-1.354	0.015	-2.692	 H	1	UNK0	0.000	
32	   H	-3.288	-5.114	-1.421	 H	1	UNK0	0.000	
33	   H	-3.311	-6.793	0.359	 H	1	UNK0	0.000	
34	   H	0.028	-4.874	2.087	 H	1	UNK0	0.000	
35	   H	-1.988	4.184	-0.260	 H	1	UNK0	0.000	
36	   H	-0.922	6.023	1.048	 H	1	UNK0	0.000	
@<TRIPOS>BOND
1 1 2 1
2 2 3 2
3 2 24 1
4 3 4 1
5 4 5 1
6 4 21 1
7 5 6 2
8 5 23 1
9 6 7 1
10 7 8 2
11 7 12 1
12 8 9 1
13 8 21 1
14 9 10 1
15 10 11 1
16 10 13 1
17 11 12 1
18 13 14 2
19 13 15 1
20 15 16 2
21 15 20 1
22 16 17 1
23 17 18 2
24 18 19 1
25 19 20 2
26 21 22 2
27 23 24 2
28 3 25 1
29 9 26 1
30 9 27 1
31 11 28 1
32 11 29 1
33 12 30 1
34 12 31 1
35 17 32 1
36 18 33 1
37 20 34 1
38 23 35 1
39 24 36 1
@<TRIPOS>SUBSTRUCTURE
1	UNK0	1	GROUP	1 ****	UNK
# created with PyMOL 2.3.2
@<TRIPOS>MOLECULE
1553
39 42 1                 
SMALL
USER_CHARGES
@<TRIPOS>ATOM
1	  Br	2.655	4.603	0.981	Br	1	UNK0	0.000	
2	   C	1.791	3.087	0.197	C.2	1	UNK0	0.000	
3	   C	0.637	2.556	0.782	C.2	1	UNK0	0.000	
4	   C	0.001	1.462	0.223	C.2	1	UNK0	0.000	
5	   C	0.544	0.920	-0.924	C.2	1	UNK0	0.000	
6	   C	1.690	1.454	-1.499	C.2	1	UNK0	0.000	
7	   C	2.320	2.542	-0.941	C.2	1	UNK0	0.000	
8	  Br	2.402	0.659	-3.102	Br	1	UNK0	0.000	
9	   C	-1.240	0.863	0.837	C.3	1	UNK0	0.000	
10	   N	-2.380	1.410	0.204	N.4	1	UNK0	0.000	
11	   C	-3.389	0.487	-0.227	C.3	1	UNK0	0.000	
12	   C	-2.740	-0.579	-1.126	C.3	1	UNK0	0.000	
13	   C	-1.817	-1.289	-0.220	C.2	1	UNK0	0.000	
14	   C	-1.497	-2.632	-0.102	C.2	1	UNK0	0.000	
15	   C	-0.581	-2.726	0.922	C.2	1	UNK0	0.000	
16	   N	-0.339	-1.504	1.421	N.pl3	1	UNK0	0.000	
17	   C	-1.104	-0.607	0.716	C.2	1	UNK0	0.000	
18	   C	-0.099	-3.982	1.243	C.2	1	UNK0	0.000	
19	   C	-0.549	-5.068	0.534	C.2	1	UNK0	0.000	
20	   C	-1.465	-4.971	-0.489	C.2	1	UNK0	0.000	
21	   C	-1.959	-3.712	-0.823	C.2	1	UNK0	0.000	
22	   C	-4.452	1.210	-0.954	C.2	1	UNK0	0.000	
23	   O	-5.554	0.636	-1.152	O.co2	1	UNK0	0.000	
24	   O	-4.217	2.499	-1.403	O.co2	1	UNK0	0.000	
25	   O	0.193	3.180	1.918	O.3	1	UNK0	0.000	
26	   H	0.088	0.055	-1.409	 H	1	UNK0	0.000	
27	   H	3.219	2.969	-1.385	 H	1	UNK0	0.000	
28	   H	-1.176	1.138	1.928	 H	1	UNK0	0.000	
29	   H	-2.847	2.074	0.901	 H	1	UNK0	0.000	
30	   H	-2.164	2.020	-0.624	 H	1	UNK0	0.000	
31	   H	-3.794	-0.025	0.675	 H	1	UNK0	0.000	
32	   H	-3.533	-1.238	-1.534	 H	1	UNK0	0.000	
33	   H	-2.230	-0.003	-1.920	 H	1	UNK0	0.000	
34	   H	0.306	-1.223	2.204	 H	1	UNK0	0.000	
35	   H	0.626	-4.062	2.051	 H	1	UNK0	0.000	
36	   H	-0.161	-6.059	0.796	 H	1	UNK0	0.000	
37	   H	-1.823	-5.845	-1.054	 H	1	UNK0	0.000	
38	   H	-2.680	-3.567	-1.615	 H	1	UNK0	0.000	
39	   H	-0.599	2.943	2.450	 H	1	UNK0	0.000	
@<TRIPOS>BOND
1 1 2 1
2 2 3 2
3 2 7 1
4 3 4 1
5 3 25 1
6 4 5 2
7 4 9 1
8 5 6 1
9 6 7 2
10 6 8 1
11 9 10 1
12 9 17 1
13 10 11 1
14 11 12 1
15 11 22 1
16 12 13 1
17 13 14 1
18 13 17 2
19 14 15 2
20 14 21 1
21 15 16 1
22 15 18 1
23 16 17 1
24 18 19 2
25 19 20 1
26 20 21 2
27 22 23 2
28 22 24 1
29 5 26 1
30 7 27 1
31 9 28 1
32 10 29 1
33 10 30 1
34 11 31 1
35 12 32 1
36 12 33 1
37 16 34 1
38 18 35 1
39 19 36 1
40 20 37 1
41 21 38 1
42 25 39 1
@<TRIPOS>SUBSTRUCTURE
1	UNK0	1	GROUP	1 ****	UNK
# created with PyMOL 2.3.2
@<TRIPOS>MOLECULE
1571
46 49 1                 
SMALL
USER_CHARGES
@<TRIPOS>ATOM
1	  Br	5.004	2.524	-3.888	Br	1	UNK0	0.000	
2	   C	3.470	1.430	-3.483	C.2	1	UNK0	0.000	
3	   C	2.396	1.372	-4.339	C.2	1	UNK0	0.000	
4	   N	1.315	0.621	-4.086	N.pl3	1	UNK0	0.000	
5	   C	1.236	-0.127	-2.956	C.2	1	UNK0	0.000	
6	   N	0.183	-0.892	-2.659	N.2	1	UNK0	0.000	
7	   C	-0.889	-0.975	-3.471	C.2	1	UNK0	0.000	
8	   C	-0.845	-0.228	-4.630	C.2	1	UNK0	0.000	
9	   C	0.250	0.559	-4.926	C.2	1	UNK0	0.000	
10	   O	0.331	1.257	-5.975	O.2	1	UNK0	0.000	
11	   C	-2.072	-1.815	-3.168	C.3	1	UNK0	0.000	
12	   O	-3.065	-1.122	-2.465	O.3	1	UNK0	0.000	
13	   C	-2.909	-0.534	-1.231	C.2	1	UNK0	0.000	
14	   O	-1.763	-0.642	-0.709	O.co2	1	UNK0	0.000	
15	   C	-4.009	0.189	-0.538	C.3	1	UNK0	0.000	
16	   N	-3.570	0.724	0.752	N.pl3	1	UNK0	0.000	
17	   C	-3.624	0.076	2.020	C.2	1	UNK0	0.000	
18	   O	-3.892	-1.134	2.226	O.2	1	UNK0	0.000	
19	   C	-3.306	1.084	3.058	C.3	1	UNK0	0.000	
20	   C	-2.359	1.977	2.291	C.3	1	UNK0	0.000	
21	   C	-0.976	1.375	2.136	C.3	1	UNK0	0.000	
22	   C	-0.791	0.109	2.930	C.3	1	UNK0	0.000	
23	   C	-1.301	0.270	4.334	C.3	1	UNK0	0.000	
24	   C	-2.765	0.532	4.313	C.3	1	UNK0	0.000	
25	   C	-3.014	2.010	0.963	C.2	1	UNK0	0.000	
26	   O	-3.079	2.987	0.153	O.2	1	UNK0	0.000	
27	   C	2.306	-0.095	-2.064	C.2	1	UNK0	0.000	
28	   C	3.412	0.682	-2.335	C.2	1	UNK0	0.000	
29	   H	2.436	1.957	-5.241	 H	1	UNK0	0.000	
30	   H	-1.664	-0.229	-5.352	 H	1	UNK0	0.000	
31	   H	-2.493	-2.143	-4.139	 H	1	UNK0	0.000	
32	   H	-1.702	-2.675	-2.554	 H	1	UNK0	0.000	
33	   H	-4.407	1.028	-1.128	 H	1	UNK0	0.000	
34	   H	-4.832	-0.533	-0.384	 H	1	UNK0	0.000	
35	   H	-4.221	1.675	3.242	 H	1	UNK0	0.000	
36	   H	-2.301	2.993	2.747	 H	1	UNK0	0.000	
37	   H	-0.185	2.102	2.463	 H	1	UNK0	0.000	
38	   H	-0.734	1.149	1.086	 H	1	UNK0	0.000	
39	   H	0.319	-0.056	3.026	 H	1	UNK0	0.000	
40	   H	-1.176	-0.791	2.435	 H	1	UNK0	0.000	
41	   H	-0.713	1.094	4.804	 H	1	UNK0	0.000	
42	   H	-1.031	-0.659	4.894	 H	1	UNK0	0.000	
43	   H	-2.986	1.269	5.140	 H	1	UNK0	0.000	
44	   H	-3.353	-0.373	4.587	 H	1	UNK0	0.000	
45	   H	2.252	-0.683	-1.170	 H	1	UNK0	0.000	
46	   H	4.247	0.716	-1.655	 H	1	UNK0	0.000	
@<TRIPOS>BOND
1 1 2 1
2 2 3 2
3 2 28 1
4 3 4 1
5 4 5 1
6 4 9 1
7 5 6 2
8 5 27 1
9 6 7 1
10 7 8 2
11 7 11 1
12 8 9 1
13 9 10 2
14 11 12 1
15 12 13 1
16 13 14 2
17 13 15 1
18 15 16 1
19 16 17 1
20 16 25 1
21 17 18 2
22 17 19 1
23 19 20 1
24 19 24 1
25 20 21 1
26 20 25 1
27 21 22 1
28 22 23 1
29 23 24 1
30 25 26 2
31 27 28 2
32 3 29 1
33 8 30 1
34 11 31 1
35 11 32 1
36 15 33 1
37 15 34 1
38 19 35 1
39 20 36 1
40 21 37 1
41 21 38 1
42 22 39 1
43 22 40 1
44 23 41 1
45 23 42 1
46 24 43 1
47 24 44 1
48 27 45 1
49 28 46 1
@<TRIPOS>SUBSTRUCTURE
1	UNK0	1	GROUP	1 ****	UNK
# created with PyMOL 2.3.2
@<TRIPOS>MOLECULE
1576
56 59 1                 
SMALL
USER_CHARGES
@<TRIPOS>ATOM
1	  Cl	-0.552	-0.183	-1.923	Cl	1	UNK0	0.000	
2	   C	-1.814	0.978	-1.719	C.2	1	UNK0	0.000	
3	   C	-2.912	0.639	-0.958	C.2	1	UNK0	0.000	
4	   C	-3.892	1.621	-0.832	C.2	1	UNK0	0.000	
5	   C	-3.761	2.855	-1.438	C.2	1	UNK0	0.000	
6	   C	-2.651	3.147	-2.186	C.2	1	UNK0	0.000	
7	   C	-1.676	2.210	-2.328	C.2	1	UNK0	0.000	
8	   N	-3.091	-0.594	-0.328	N.pl3	1	UNK0	0.000	
9	   C	-3.167	-1.880	-0.987	C.3	1	UNK0	0.000	
10	   C	-2.903	-2.970	0.049	C.3	1	UNK0	0.000	
11	   N	-1.827	-2.547	0.931	N.pl3	1	UNK0	0.000	
12	   C	-1.979	-1.308	1.657	C.3	1	UNK0	0.000	
13	   C	-3.214	-0.611	1.138	C.3	1	UNK0	0.000	
14	   C	-0.644	-3.321	1.091	C.2	1	UNK0	0.000	
15	   O	-0.546	-4.408	0.441	O.2	1	UNK0	0.000	
16	   C	0.474	-2.943	1.963	C.3	1	UNK0	0.000	
17	   N	1.515	-2.180	1.277	N.pl3	1	UNK0	0.000	
18	   N	1.635	-0.876	1.128	N.2	1	UNK0	0.000	
19	   C	2.724	-0.530	0.438	C.2	1	UNK0	0.000	
20	   C	3.366	-1.711	0.112	C.2	1	UNK0	0.000	
21	   C	2.594	-2.719	0.645	C.2	1	UNK0	0.000	
22	   C	2.900	-4.161	0.540	C.3	1	UNK0	0.000	
23	   C	3.157	0.837	0.095	C.2	1	UNK0	0.000	
24	   O	4.203	1.017	-0.560	O.2	1	UNK0	0.000	
25	   N	2.368	1.929	0.518	N.pl3	1	UNK0	0.000	
26	   C	1.154	1.797	1.273	C.3	1	UNK0	0.000	
27	   C	0.717	3.221	1.639	C.3	1	UNK0	0.000	
28	   O	1.737	3.911	2.256	O.3	1	UNK0	0.000	
29	   C	2.855	4.080	1.474	C.3	1	UNK0	0.000	
30	   C	2.787	3.293	0.182	C.3	1	UNK0	0.000	
31	   H	-4.779	1.443	-0.259	 H	1	UNK0	0.000	
32	   H	-4.531	3.608	-1.332	 H	1	UNK0	0.000	
33	   H	-2.557	4.134	-2.665	 H	1	UNK0	0.000	
34	   H	-0.781	2.429	-2.923	 H	1	UNK0	0.000	
35	   H	-4.158	-2.089	-1.416	 H	1	UNK0	0.000	
36	   H	-2.345	-1.976	-1.726	 H	1	UNK0	0.000	
37	   H	-2.536	-3.853	-0.512	 H	1	UNK0	0.000	
38	   H	-3.821	-3.220	0.616	 H	1	UNK0	0.000	
39	   H	-2.013	-1.459	2.753	 H	1	UNK0	0.000	
40	   H	-1.127	-0.627	1.381	 H	1	UNK0	0.000	
41	   H	-4.103	-1.246	1.381	 H	1	UNK0	0.000	
42	   H	-3.320	0.416	1.543	 H	1	UNK0	0.000	
43	   H	0.936	-3.820	2.459	 H	1	UNK0	0.000	
44	   H	0.080	-2.279	2.757	 H	1	UNK0	0.000	
45	   H	4.283	-1.805	-0.446	 H	1	UNK0	0.000	
46	   H	3.916	-4.359	0.933	 H	1	UNK0	0.000	
47	   H	2.176	-4.753	1.131	 H	1	UNK0	0.000	
48	   H	2.801	-4.499	-0.522	 H	1	UNK0	0.000	
49	   H	1.321	1.220	2.206	 H	1	UNK0	0.000	
50	   H	0.324	1.336	0.727	 H	1	UNK0	0.000	
51	   H	0.283	3.730	0.764	 H	1	UNK0	0.000	
52	   H	-0.095	3.091	2.387	 H	1	UNK0	0.000	
53	   H	2.975	5.161	1.198	 H	1	UNK0	0.000	
54	   H	3.767	3.753	2.008	 H	1	UNK0	0.000	
55	   H	3.786	3.270	-0.292	 H	1	UNK0	0.000	
56	   H	2.035	3.770	-0.470	 H	1	UNK0	0.000	
@<TRIPOS>BOND
1 1 2 1
2 2 3 2
3 2 7 1
4 3 4 1
5 3 8 1
6 4 5 2
7 5 6 1
8 6 7 2
9 8 9 1
10 8 13 1
11 9 10 1
12 10 11 1
13 11 12 1
14 11 14 1
15 12 13 1
16 14 15 2
17 14 16 1
18 16 17 1
19 17 18 1
20 17 21 1
21 18 19 2
22 19 20 1
23 19 23 1
24 20 21 2
25 21 22 1
26 23 24 2
27 23 25 1
28 25 26 1
29 25 30 1
30 26 27 1
31 27 28 1
32 28 29 1
33 29 30 1
34 4 31 1
35 5 32 1
36 6 33 1
37 7 34 1
38 9 35 1
39 9 36 1
40 10 37 1
41 10 38 1
42 12 39 1
43 12 40 1
44 13 41 1
45 13 42 1
46 16 43 1
47 16 44 1
48 20 45 1
49 22 46 1
50 22 47 1
51 22 48 1
52 26 49 1
53 26 50 1
54 27 51 1
55 27 52 1
56 29 53 1
57 29 54 1
58 30 55 1
59 30 56 1
@<TRIPOS>SUBSTRUCTURE
1	UNK0	1	GROUP	1 ****	UNK
# created with PyMOL 2.3.2
@<TRIPOS>MOLECULE
1581
46 49 1                 
SMALL
USER_CHARGES
@<TRIPOS>ATOM
1	  Cl	4.812	3.800	2.207	Cl	1	UNK0	0.000	
2	   C	3.676	2.503	1.865	C.2	1	UNK0	0.000	
3	   C	2.393	2.633	2.346	C.2	1	UNK0	0.000	
4	   N	1.519	1.630	2.080	N.pl3	1	UNK0	0.000	
5	   C	1.871	0.543	1.375	C.2	1	UNK0	0.000	
6	   N	1.010	-0.456	1.106	N.2	1	UNK0	0.000	
7	   C	-0.269	-0.442	1.523	C.2	1	UNK0	0.000	
8	   C	-0.633	0.678	2.250	C.2	1	UNK0	0.000	
9	   C	0.248	1.699	2.525	C.2	1	UNK0	0.000	
10	   O	-0.130	2.709	3.196	O.2	1	UNK0	0.000	
11	   C	-1.239	-1.512	1.252	C.3	1	UNK0	0.000	
12	   N	-1.970	-1.406	0.059	N.3	1	UNK0	0.000	
13	   C	-2.782	-0.278	-0.134	C.3	1	UNK0	0.000	
14	   C	-2.189	0.820	-0.953	C.3	1	UNK0	0.000	
15	   N	-1.216	0.323	-1.915	N.pl3	1	UNK0	0.000	
16	   N	-0.568	1.050	-2.824	N.2	1	UNK0	0.000	
17	   C	0.242	0.254	-3.528	C.2	1	UNK0	0.000	
18	   C	0.087	-1.016	-3.032	C.2	1	UNK0	0.000	
19	   C	-0.851	-0.966	-1.996	C.2	1	UNK0	0.000	
20	   C	-1.415	-2.007	-1.101	C.3	1	UNK0	0.000	
21	   C	1.144	0.678	-4.644	C.3	1	UNK0	0.000	
22	   O	1.803	1.850	-4.238	O.3	1	UNK0	0.000	
23	   C	2.241	-0.363	-4.852	C.3	1	UNK0	0.000	
24	   C	3.039	-0.481	-3.562	C.3	1	UNK0	0.000	
25	   C	3.173	0.406	0.883	C.2	1	UNK0	0.000	
26	   C	4.081	1.404	1.136	C.2	1	UNK0	0.000	
27	   H	2.093	3.486	2.907	 H	1	UNK0	0.000	
28	   H	-1.664	0.743	2.616	 H	1	UNK0	0.000	
29	   H	-0.694	-2.490	1.252	 H	1	UNK0	0.000	
30	   H	-1.965	-1.605	2.112	 H	1	UNK0	0.000	
31	   H	-3.719	-0.609	-0.674	 H	1	UNK0	0.000	
32	   H	-3.148	0.079	0.853	 H	1	UNK0	0.000	
33	   H	-1.736	1.569	-0.279	 H	1	UNK0	0.000	
34	   H	-2.978	1.385	-1.529	 H	1	UNK0	0.000	
35	   H	0.582	-1.916	-3.357	 H	1	UNK0	0.000	
36	   H	-2.245	-2.560	-1.632	 H	1	UNK0	0.000	
37	   H	-0.649	-2.745	-0.789	 H	1	UNK0	0.000	
38	   H	0.605	0.849	-5.583	 H	1	UNK0	0.000	
39	   H	1.622	2.039	-3.272	 H	1	UNK0	0.000	
40	   H	2.907	0.022	-5.626	 H	1	UNK0	0.000	
41	   H	1.846	-1.334	-5.155	 H	1	UNK0	0.000	
42	   H	2.570	0.124	-2.768	 H	1	UNK0	0.000	
43	   H	3.163	-1.545	-3.252	 H	1	UNK0	0.000	
44	   H	4.086	-0.089	-3.697	 H	1	UNK0	0.000	
45	   H	3.427	-0.484	0.317	 H	1	UNK0	0.000	
46	   H	5.089	1.301	0.758	 H	1	UNK0	0.000	
@<TRIPOS>BOND
1 1 2 1
2 2 3 2
3 2 26 1
4 3 4 1
5 4 5 1
6 4 9 1
7 5 6 2
8 5 25 1
9 6 7 1
10 7 8 2
11 7 11 1
12 8 9 1
13 9 10 2
14 11 12 1
15 12 13 1
16 12 20 1
17 13 14 1
18 14 15 1
19 15 16 1
20 15 19 1
21 16 17 2
22 17 18 1
23 17 21 1
24 18 19 2
25 19 20 1
26 21 22 1
27 21 23 1
28 23 24 1
29 25 26 2
30 3 27 1
31 8 28 1
32 11 29 1
33 11 30 1
34 13 31 1
35 13 32 1
36 14 33 1
37 14 34 1
38 18 35 1
39 20 36 1
40 20 37 1
41 21 38 1
42 22 39 1
43 23 40 1
44 23 41 1
45 24 42 1
46 24 43 1
47 24 44 1
48 25 45 1
49 26 46 1
@<TRIPOS>SUBSTRUCTURE
1	UNK0	1	GROUP	1 ****	UNK
# created with PyMOL 2.3.2
@<TRIPOS>MOLECULE
1586
45 48 1                 
SMALL
USER_CHARGES
@<TRIPOS>ATOM
1	  Cl	-1.107	-3.405	7.582	Cl	1	UNK0	0.000	
2	   C	-1.349	-3.233	5.837	C.2	1	UNK0	0.000	
3	   C	-0.447	-2.571	5.069	C.2	1	UNK0	0.000	
4	   C	-0.667	-2.453	3.696	C.2	1	UNK0	0.000	
5	   C	-1.757	-2.972	3.042	C.2	1	UNK0	0.000	
6	   C	-2.657	-3.645	3.887	C.2	1	UNK0	0.000	
7	   C	-2.461	-3.774	5.246	C.2	1	UNK0	0.000	
8	   C	-2.038	-2.924	1.634	C.2	1	UNK0	0.000	
9	   O	-3.238	-3.400	1.342	O.2	1	UNK0	0.000	
10	   N	-1.281	-2.473	0.540	N.pl3	1	UNK0	0.000	
11	   C	0.037	-1.953	0.626	C.3	1	UNK0	0.000	
12	   C	0.599	-1.785	-0.796	C.3	1	UNK0	0.000	
13	   N	-0.313	-0.896	-1.468	N.pl3	1	UNK0	0.000	
14	   C	-1.666	-1.321	-1.602	C.3	1	UNK0	0.000	
15	   C	-1.941	-2.552	-0.763	C.3	1	UNK0	0.000	
16	   C	0.122	0.343	-1.969	C.2	1	UNK0	0.000	
17	   O	-0.549	0.903	-2.854	O.2	1	UNK0	0.000	
18	   C	1.361	0.937	-1.426	C.3	1	UNK0	0.000	
19	   N	2.346	-0.104	-1.405	N.pl3	1	UNK0	0.000	
20	   C	1.990	-1.336	-0.803	C.2	1	UNK0	0.000	
21	   O	2.859	-2.085	-0.256	O.2	1	UNK0	0.000	
22	   C	1.779	2.187	-2.101	C.3	1	UNK0	0.000	
23	   C	0.736	3.215	-1.953	C.2	1	UNK0	0.000	
24	   N	-0.287	3.489	-2.766	N.2	1	UNK0	0.000	
25	   C	-1.011	4.523	-2.245	C.2	1	UNK0	0.000	
26	   N	-0.444	4.906	-1.099	N.pl3	1	UNK0	0.000	
27	   C	0.622	4.124	-0.900	C.2	1	UNK0	0.000	
28	   H	0.420	-2.150	5.537	 H	1	UNK0	0.000	
29	   H	0.069	-1.904	3.148	 H	1	UNK0	0.000	
30	   H	-3.548	-4.085	3.434	 H	1	UNK0	0.000	
31	   H	-3.221	-4.317	5.813	 H	1	UNK0	0.000	
32	   H	0.728	-2.607	1.199	 H	1	UNK0	0.000	
33	   H	-0.002	-0.969	1.124	 H	1	UNK0	0.000	
34	   H	0.508	-2.790	-1.260	 H	1	UNK0	0.000	
35	   H	-1.850	-1.569	-2.668	 H	1	UNK0	0.000	
36	   H	-2.420	-0.559	-1.317	 H	1	UNK0	0.000	
37	   H	-3.020	-2.663	-0.589	 H	1	UNK0	0.000	
38	   H	-1.564	-3.436	-1.305	 H	1	UNK0	0.000	
39	   H	1.219	1.222	-0.332	 H	1	UNK0	0.000	
40	   H	3.306	0.017	-1.813	 H	1	UNK0	0.000	
41	   H	2.765	2.524	-1.711	 H	1	UNK0	0.000	
42	   H	1.974	1.962	-3.185	 H	1	UNK0	0.000	
43	   H	-1.898	4.921	-2.740	 H	1	UNK0	0.000	
44	   H	-0.762	5.659	-0.483	 H	1	UNK0	0.000	
45	   H	1.331	4.130	-0.083	 H	1	UNK0	0.000	
@<TRIPOS>BOND
1 1 2 1
2 2 3 2
3 2 7 1
4 3 4 1
5 4 5 2
6 5 6 1
7 5 8 1
8 6 7 2
9 8 9 2
10 8 10 1
11 10 11 1
12 10 15 1
13 11 12 1
14 12 13 1
15 12 20 1
16 13 14 1
17 13 16 1
18 14 15 1
19 16 17 2
20 16 18 1
21 18 19 1
22 18 22 1
23 19 20 1
24 20 21 2
25 22 23 1
26 23 24 1
27 23 27 2
28 24 25 2
29 25 26 1
30 26 27 1
31 3 28 1
32 4 29 1
33 6 30 1
34 7 31 1
35 11 32 1
36 11 33 1
37 12 34 1
38 14 35 1
39 14 36 1
40 15 37 1
41 15 38 1
42 18 39 1
43 19 40 1
44 22 41 1
45 22 42 1
46 25 43 1
47 26 44 1
48 27 45 1
@<TRIPOS>SUBSTRUCTURE
1	UNK0	1	GROUP	1 ****	UNK
# created with PyMOL 2.3.2
@<TRIPOS>MOLECULE
1591
43 46 1                 
SMALL
USER_CHARGES
@<TRIPOS>ATOM
1	  Cl	-2.158	-2.176	-1.234	Cl	1	UNK0	0.000	
2	   C	-1.818	-1.056	0.066	C.2	1	UNK0	0.000	
3	   C	-0.641	-1.137	0.755	C.2	1	UNK0	0.000	
4	   C	-0.485	-0.201	1.781	C.2	1	UNK0	0.000	
5	   N	-1.445	0.700	2.042	N.2	1	UNK0	0.000	
6	   N	-2.583	0.795	1.392	N.pl3	1	UNK0	0.000	
7	   C	-2.776	-0.083	0.399	C.2	1	UNK0	0.000	
8	   O	-3.833	-0.072	-0.282	O.2	1	UNK0	0.000	
9	   C	-3.550	1.783	1.734	C.2	1	UNK0	0.000	
10	   C	-3.387	3.121	1.435	C.2	1	UNK0	0.000	
11	   C	-4.330	4.069	1.770	C.2	1	UNK0	0.000	
12	   C	-5.488	3.706	2.428	C.2	1	UNK0	0.000	
13	   C	-5.657	2.371	2.729	C.2	1	UNK0	0.000	
14	   C	-4.709	1.424	2.391	C.2	1	UNK0	0.000	
15	   N	0.375	-2.076	0.458	N.pl3	1	UNK0	0.000	
16	   C	1.496	-2.332	1.347	C.3	1	UNK0	0.000	
17	   C	2.809	-1.960	0.708	C.3	1	UNK0	0.000	
18	   N	2.738	-2.387	-0.668	N.pl3	1	UNK0	0.000	
19	   C	1.810	-3.436	-1.002	C.3	1	UNK0	0.000	
20	   C	0.399	-2.849	-0.779	C.3	1	UNK0	0.000	
21	   C	3.554	-1.797	-1.663	C.2	1	UNK0	0.000	
22	   N	3.590	-2.102	-2.992	N.2	1	UNK0	0.000	
23	   N	4.478	-1.334	-3.591	N.2	1	UNK0	0.000	
24	   C	5.014	-0.541	-2.672	C.2	1	UNK0	0.000	
25	   O	4.448	-0.835	-1.531	O.3	1	UNK0	0.000	
26	   C	6.069	0.511	-2.836	C.3	1	UNK0	0.000	
27	   H	0.422	-0.222	2.345	 H	1	UNK0	0.000	
28	   H	-2.474	3.412	0.916	 H	1	UNK0	0.000	
29	   H	-4.170	5.122	1.519	 H	1	UNK0	0.000	
30	   H	-6.225	4.455	2.688	 H	1	UNK0	0.000	
31	   H	-6.551	2.078	3.239	 H	1	UNK0	0.000	
32	   H	-4.841	0.370	2.628	 H	1	UNK0	0.000	
33	   H	1.537	-3.449	1.499	 H	1	UNK0	0.000	
34	   H	1.438	-1.900	2.330	 H	1	UNK0	0.000	
35	   H	2.972	-0.848	0.707	 H	1	UNK0	0.000	
36	   H	3.673	-2.386	1.245	 H	1	UNK0	0.000	
37	   H	1.963	-4.284	-0.312	 H	1	UNK0	0.000	
38	   H	1.918	-3.768	-2.048	 H	1	UNK0	0.000	
39	   H	-0.259	-3.729	-0.764	 H	1	UNK0	0.000	
40	   H	0.270	-2.186	-1.672	 H	1	UNK0	0.000	
41	   H	5.889	1.102	-3.755	 H	1	UNK0	0.000	
42	   H	6.035	1.233	-1.994	 H	1	UNK0	0.000	
43	   H	7.040	0.008	-2.807	 H	1	UNK0	0.000	
@<TRIPOS>BOND
1 1 2 1
2 2 3 2
3 2 7 1
4 3 4 1
5 3 15 1
6 4 5 2
7 5 6 1
8 6 7 1
9 6 9 1
10 7 8 2
11 9 10 2
12 9 14 1
13 10 11 1
14 11 12 2
15 12 13 1
16 13 14 2
17 15 16 1
18 15 20 1
19 16 17 1
20 17 18 1
21 18 19 1
22 18 21 1
23 19 20 1
24 21 22 2
25 21 25 1
26 22 23 1
27 23 24 2
28 24 25 1
29 24 26 1
30 4 27 1
31 10 28 1
32 11 29 1
33 12 30 1
34 13 31 1
35 14 32 1
36 16 33 1
37 16 34 1
38 17 35 1
39 17 36 1
40 19 37 1
41 19 38 1
42 20 39 1
43 20 40 1
44 26 41 1
45 26 42 1
46 26 43 1
@<TRIPOS>SUBSTRUCTURE
1	UNK0	1	GROUP	1 ****	UNK
# created with PyMOL 2.3.2
@<TRIPOS>MOLECULE
1594
41 44 1                 
SMALL
USER_CHARGES
@<TRIPOS>ATOM
1	  Cl	-6.350	0.654	6.305	Cl	1	UNK0	0.000	
2	   C	-5.070	0.842	5.121	C.2	1	UNK0	0.000	
3	   C	-4.973	-0.012	4.046	C.2	1	UNK0	0.000	
4	   N	-3.966	0.164	3.146	N.pl3	1	UNK0	0.000	
5	   C	-3.092	1.161	3.322	C.2	1	UNK0	0.000	
6	   N	-2.200	1.135	2.319	N.2	1	UNK0	0.000	
7	   C	-2.493	0.128	1.496	C.2	1	UNK0	0.000	
8	   C	-3.631	-0.497	2.030	C.2	1	UNK0	0.000	
9	   C	-1.809	-0.283	0.282	C.2	1	UNK0	0.000	
10	   O	-2.290	-1.300	-0.341	O.2	1	UNK0	0.000	
11	   N	-0.690	0.308	-0.272	N.pl3	1	UNK0	0.000	
12	   C	-0.026	1.460	0.289	C.3	1	UNK0	0.000	
13	   C	1.336	1.087	0.835	C.3	1	UNK0	0.000	
14	   C	1.967	0.059	-0.060	C.2	1	UNK0	0.000	
15	   C	1.347	-0.535	-1.125	C.2	1	UNK0	0.000	
16	   N	2.265	-1.388	-1.649	N.pl3	1	UNK0	0.000	
17	   N	3.388	-1.343	-0.969	N.pl3	1	UNK0	0.000	
18	   C	3.267	-0.462	0.032	C.2	1	UNK0	0.000	
19	   O	4.133	-0.138	0.907	O.2	1	UNK0	0.000	
20	   C	4.619	-2.109	-1.212	C.3	1	UNK0	0.000	
21	   C	5.540	-1.361	-2.148	C.3	1	UNK0	0.000	
22	   O	5.915	-0.123	-1.640	O.3	1	UNK0	0.000	
23	   C	-0.056	-0.207	-1.510	C.3	1	UNK0	0.000	
24	   C	-3.167	2.048	4.410	C.2	1	UNK0	0.000	
25	   C	-4.171	1.877	5.312	C.2	1	UNK0	0.000	
26	   H	-5.673	-0.818	3.896	 H	1	UNK0	0.000	
27	   H	-4.135	-1.363	1.599	 H	1	UNK0	0.000	
28	   H	-0.577	2.033	1.016	 H	1	UNK0	0.000	
29	   H	0.119	2.158	-0.602	 H	1	UNK0	0.000	
30	   H	1.304	0.725	1.862	 H	1	UNK0	0.000	
31	   H	1.944	2.033	0.837	 H	1	UNK0	0.000	
32	   H	2.054	-1.982	-2.487	 H	1	UNK0	0.000	
33	   H	4.307	-3.034	-1.740	 H	1	UNK0	0.000	
34	   H	5.123	-2.392	-0.291	 H	1	UNK0	0.000	
35	   H	6.465	-1.967	-2.230	 H	1	UNK0	0.000	
36	   H	5.079	-1.215	-3.131	 H	1	UNK0	0.000	
37	   H	5.979	0.575	-2.358	 H	1	UNK0	0.000	
38	   H	-0.109	0.570	-2.291	 H	1	UNK0	0.000	
39	   H	-0.604	-1.134	-1.771	 H	1	UNK0	0.000	
40	   H	-2.428	2.846	4.508	 H	1	UNK0	0.000	
41	   H	-4.244	2.557	6.164	 H	1	UNK0	0.000	
@<TRIPOS>BOND
1 1 2 1
2 2 3 2
3 2 25 1
4 3 4 1
5 4 5 1
6 4 8 1
7 5 6 2
8 5 24 1
9 6 7 1
10 7 8 2
11 7 9 1
12 9 10 2
13 9 11 1
14 11 12 1
15 11 23 1
16 12 13 1
17 13 14 1
18 14 15 2
19 14 18 1
20 15 16 1
21 15 23 1
22 16 17 1
23 17 18 1
24 17 20 1
25 18 19 2
26 20 21 1
27 21 22 1
28 24 25 2
29 3 26 1
30 8 27 1
31 12 28 1
32 12 29 1
33 13 30 1
34 13 31 1
35 16 32 1
36 20 33 1
37 20 34 1
38 21 35 1
39 21 36 1
40 22 37 1
41 23 38 1
42 23 39 1
43 24 40 1
44 25 41 1
@<TRIPOS>SUBSTRUCTURE
1	UNK0	1	GROUP	1 ****	UNK
# created with PyMOL 2.3.2
@<TRIPOS>MOLECULE
1599
49 52 1                 
SMALL
USER_CHARGES
@<TRIPOS>ATOM
1	  Br	2.665	-6.620	2.871	Br	1	UNK0	0.000	
2	   C	2.069	-6.308	1.108	C.2	1	UNK0	0.000	
3	   C	0.937	-5.536	0.896	C.2	1	UNK0	0.000	
4	   C	0.476	-5.295	-0.371	C.2	1	UNK0	0.000	
5	   C	1.095	-5.793	-1.478	C.2	1	UNK0	0.000	
6	   C	2.238	-6.572	-1.273	C.2	1	UNK0	0.000	
7	   C	2.707	-6.817	0.004	C.2	1	UNK0	0.000	
8	   C	-0.731	-4.429	-0.617	C.2	1	UNK0	0.000	
9	   O	-1.623	-4.999	-1.339	O.2	1	UNK0	0.000	
10	   N	-0.750	-3.218	-0.085	N.pl3	1	UNK0	0.000	
11	   C	-0.770	-1.949	0.472	C.3	1	UNK0	0.000	
12	   C	-0.870	-0.881	-0.587	C.2	1	UNK0	0.000	
13	   O	-0.944	-1.327	-1.786	O.2	1	UNK0	0.000	
14	   N	-0.883	0.494	-0.317	N.pl3	1	UNK0	0.000	
15	   C	-0.798	1.027	1.005	C.3	1	UNK0	0.000	
16	   C	-0.012	2.306	1.066	C.3	1	UNK0	0.000	
17	   C	0.944	2.520	-0.087	C.3	1	UNK0	0.000	
18	   N	1.341	3.915	0.047	N.3	1	UNK0	0.000	
19	   C	2.402	4.343	-0.782	C.3	1	UNK0	0.000	
20	   C	3.270	3.305	-1.393	C.3	1	UNK0	0.000	
21	   C	3.314	2.061	-0.563	C.2	1	UNK0	0.000	
22	   N	4.296	1.198	-0.306	N.2	1	UNK0	0.000	
23	   C	3.761	0.264	0.508	C.2	1	UNK0	0.000	
24	   N	2.462	0.544	0.752	N.pl3	1	UNK0	0.000	
25	   C	2.158	1.689	0.075	C.2	1	UNK0	0.000	
26	   C	0.331	2.276	-1.442	C.3	1	UNK0	0.000	
27	   C	-0.962	1.483	-1.386	C.3	1	UNK0	0.000	
28	   H	0.417	-5.123	1.729	 H	1	UNK0	0.000	
29	   H	0.713	-5.587	-2.457	 H	1	UNK0	0.000	
30	   H	2.755	-6.985	-2.120	 H	1	UNK0	0.000	
31	   H	3.591	-7.417	0.161	 H	1	UNK0	0.000	
32	   H	-2.004	-2.987	-0.622	 H	1	UNK0	0.000	
33	   H	0.188	-1.747	1.065	 H	1	UNK0	0.000	
34	   H	-1.564	-1.827	1.249	 H	1	UNK0	0.000	
35	   H	-1.860	1.298	1.291	 H	1	UNK0	0.000	
36	   H	-0.501	0.287	1.771	 H	1	UNK0	0.000	
37	   H	-0.692	3.164	1.120	 H	1	UNK0	0.000	
38	   H	0.617	2.244	1.980	 H	1	UNK0	0.000	
39	   H	0.448	4.452	-0.150	 H	1	UNK0	0.000	
40	   H	3.073	5.000	-0.150	 H	1	UNK0	0.000	
41	   H	1.992	5.041	-1.571	 H	1	UNK0	0.000	
42	   H	2.917	3.079	-2.426	 H	1	UNK0	0.000	
43	   H	4.305	3.725	-1.541	 H	1	UNK0	0.000	
44	   H	4.324	-0.568	0.885	 H	1	UNK0	0.000	
45	   H	1.825	-0.015	1.344	 H	1	UNK0	0.000	
46	   H	1.045	1.646	-2.054	 H	1	UNK0	0.000	
47	   H	0.120	3.198	-2.007	 H	1	UNK0	0.000	
48	   H	-1.847	2.148	-1.257	 H	1	UNK0	0.000	
49	   H	-1.051	0.938	-2.344	 H	1	UNK0	0.000	
@<TRIPOS>BOND
1 1 2 1
2 2 3 2
3 2 7 1
4 3 4 1
5 4 5 2
6 4 8 1
7 5 6 1
8 6 7 2
9 8 9 2
10 8 10 1
11 10 11 1
12 11 12 1
13 12 13 2
14 12 14 1
15 14 15 1
16 14 27 1
17 15 16 1
18 16 17 1
19 17 18 1
20 17 25 1
21 17 26 1
22 18 19 1
23 19 20 1
24 20 21 1
25 21 22 1
26 21 25 2
27 22 23 2
28 23 24 1
29 24 25 1
30 26 27 1
31 3 28 1
32 5 29 1
33 6 30 1
34 7 31 1
35 10 32 1
36 11 33 1
37 11 34 1
38 15 35 1
39 15 36 1
40 16 37 1
41 16 38 1
42 18 39 1
43 19 40 1
44 19 41 1
45 20 42 1
46 20 43 1
47 23 44 1
48 24 45 1
49 26 46 1
50 26 47 1
51 27 48 1
52 27 49 1
@<TRIPOS>SUBSTRUCTURE
1	UNK0	1	GROUP	1 ****	UNK
# created with PyMOL 2.3.2
@<TRIPOS>MOLECULE
1609
45 48 1                 
SMALL
USER_CHARGES
@<TRIPOS>ATOM
1	  Cl	2.493	6.222	2.205	Cl	1	UNK0	0.000	
2	   C	2.230	5.174	0.808	C.2	1	UNK0	0.000	
3	   C	2.991	4.040	0.654	C.2	1	UNK0	0.000	
4	   C	2.812	3.188	-0.436	C.2	1	UNK0	0.000	
5	   C	1.835	3.546	-1.343	C.2	1	UNK0	0.000	
6	   C	1.074	4.689	-1.179	C.2	1	UNK0	0.000	
7	   C	1.255	5.528	-0.100	C.2	1	UNK0	0.000	
8	   C	3.641	1.970	-0.590	C.3	1	UNK0	0.000	
9	   C	3.026	0.774	0.084	C.3	1	UNK0	0.000	
10	   N	1.721	0.426	-0.429	N.pl3	1	UNK0	0.000	
11	   C	1.324	-0.456	-1.494	C.3	1	UNK0	0.000	
12	   C	0.019	0.175	-1.937	C.3	1	UNK0	0.000	
13	   O	-0.574	0.465	-0.678	O.3	1	UNK0	0.000	
14	   C	0.504	0.949	0.091	C.2	1	UNK0	0.000	
15	   O	0.354	1.729	1.084	O.co2	1	UNK0	0.000	
16	   C	-0.585	-0.980	-2.649	C.3	1	UNK0	0.000	
17	   N	-0.449	-2.043	-1.627	N.pl3	1	UNK0	0.000	
18	   C	0.774	-1.780	-0.934	C.3	1	UNK0	0.000	
19	   C	-1.423	-3.037	-1.497	C.2	1	UNK0	0.000	
20	   O	-2.463	-3.027	-2.275	O.2	1	UNK0	0.000	
21	   C	-1.410	-4.134	-0.547	C.2	1	UNK0	0.000	
22	   N	-2.354	-5.103	-0.403	N.pl3	1	UNK0	0.000	
23	   C	-1.973	-5.926	0.571	C.2	1	UNK0	0.000	
24	   N	-0.803	-5.508	1.058	N.2	1	UNK0	0.000	
25	   C	-0.441	-4.399	0.375	C.2	1	UNK0	0.000	
26	   C	-3.558	-5.201	-1.186	C.3	1	UNK0	0.000	
27	   H	3.767	3.750	1.369	 H	1	UNK0	0.000	
28	   H	1.690	2.884	-2.200	 H	1	UNK0	0.000	
29	   H	0.311	4.942	-1.913	 H	1	UNK0	0.000	
30	   H	0.668	6.424	0.042	 H	1	UNK0	0.000	
31	   H	4.609	2.161	-0.083	 H	1	UNK0	0.000	
32	   H	3.898	1.765	-1.660	 H	1	UNK0	0.000	
33	   H	2.978	1.031	1.181	 H	1	UNK0	0.000	
34	   H	3.701	-0.105	0.037	 H	1	UNK0	0.000	
35	   H	2.048	-0.599	-2.285	 H	1	UNK0	0.000	
36	   H	0.161	1.076	-2.551	 H	1	UNK0	0.000	
37	   H	-1.604	-0.851	-2.988	 H	1	UNK0	0.000	
38	   H	0.112	-1.286	-3.457	 H	1	UNK0	0.000	
39	   H	1.542	-2.558	-1.004	 H	1	UNK0	0.000	
40	   H	0.579	-1.608	0.167	 H	1	UNK0	0.000	
41	   H	-2.479	-6.818	0.966	 H	1	UNK0	0.000	
42	   H	0.498	-3.868	0.598	 H	1	UNK0	0.000	
43	   H	-3.364	-5.470	-2.244	 H	1	UNK0	0.000	
44	   H	-4.141	-4.249	-1.164	 H	1	UNK0	0.000	
45	   H	-4.226	-5.977	-0.759	 H	1	UNK0	0.000	
@<TRIPOS>BOND
1 1 2 1
2 2 3 2
3 2 7 1
4 3 4 1
5 4 5 2
6 4 8 1
7 5 6 1
8 6 7 2
9 8 9 1
10 9 10 1
11 10 11 1
12 10 14 1
13 11 12 1
14 11 18 1
15 12 13 1
16 12 16 1
17 13 14 1
18 14 15 2
19 16 17 1
20 17 18 1
21 17 19 1
22 19 20 2
23 19 21 1
24 21 22 1
25 21 25 2
26 22 23 1
27 22 26 1
28 23 24 2
29 24 25 1
30 3 27 1
31 5 28 1
32 6 29 1
33 7 30 1
34 8 31 1
35 8 32 1
36 9 33 1
37 9 34 1
38 11 35 1
39 12 36 1
40 16 37 1
41 16 38 1
42 18 39 1
43 18 40 1
44 23 41 1
45 25 42 1
46 26 43 1
47 26 44 1
48 26 45 1
@<TRIPOS>SUBSTRUCTURE
1	UNK0	1	GROUP	1 ****	UNK
# created with PyMOL 2.3.2
@<TRIPOS>MOLECULE
1612
53 56 1                 
SMALL
USER_CHARGES
@<TRIPOS>ATOM
1	  Cl	-0.502	-4.833	0.022	Cl	1	UNK0	0.000	
2	   C	-0.289	-4.072	-1.554	C.2	1	UNK0	0.000	
3	   C	-0.265	-2.684	-1.599	C.2	1	UNK0	0.000	
4	   C	-0.104	-2.071	-2.809	C.2	1	UNK0	0.000	
5	   C	0.031	-2.866	-3.964	C.2	1	UNK0	0.000	
6	   C	0.004	-4.229	-3.890	C.2	1	UNK0	0.000	
7	   C	-0.159	-4.866	-2.672	C.2	1	UNK0	0.000	
8	   C	-0.021	-0.597	-2.941	C.3	1	UNK0	0.000	
9	   N	-1.043	0.149	-2.279	N.pl3	1	UNK0	0.000	
10	   C	-2.273	0.329	-2.803	C.2	1	UNK0	0.000	
11	   C	-2.967	1.133	-1.930	C.2	1	UNK0	0.000	
12	   N	-2.159	1.411	-0.926	N.2	1	UNK0	0.000	
13	   C	-0.958	0.812	-1.122	C.2	1	UNK0	0.000	
14	   N	0.174	0.964	-0.252	N.pl3	1	UNK0	0.000	
15	   C	0.984	2.192	-0.386	C.3	1	UNK0	0.000	
16	   C	1.085	2.935	0.907	C.3	1	UNK0	0.000	
17	   N	0.866	2.058	2.034	N.pl3	1	UNK0	0.000	
18	   C	1.300	0.683	1.901	C.3	1	UNK0	0.000	
19	   C	0.574	0.030	0.738	C.3	1	UNK0	0.000	
20	   C	0.256	2.538	3.224	C.2	1	UNK0	0.000	
21	   O	-0.089	3.736	3.319	O.2	1	UNK0	0.000	
22	   C	0.011	1.642	4.379	C.3	1	UNK0	0.000	
23	   C	1.267	1.670	5.246	C.3	1	UNK0	0.000	
24	   N	-4.251	1.460	-2.249	N.pl3	1	UNK0	0.000	
25	   C	-4.831	1.021	-3.372	C.2	1	UNK0	0.000	
26	   O	-6.023	1.353	-3.623	O.2	1	UNK0	0.000	
27	   N	-4.191	0.237	-4.249	N.pl3	1	UNK0	0.000	
28	   C	-2.913	-0.105	-3.959	C.2	1	UNK0	0.000	
29	   O	-2.310	-0.836	-4.775	O.2	1	UNK0	0.000	
30	   C	-5.004	2.318	-1.337	C.3	1	UNK0	0.000	
31	   H	-0.393	-2.130	-0.667	 H	1	UNK0	0.000	
32	   H	0.160	-2.366	-4.933	 H	1	UNK0	0.000	
33	   H	0.103	-4.873	-4.753	 H	1	UNK0	0.000	
34	   H	-0.182	-5.947	-2.589	 H	1	UNK0	0.000	
35	   H	-0.037	-0.344	-4.045	 H	1	UNK0	0.000	
36	   H	1.005	-0.316	-2.626	 H	1	UNK0	0.000	
37	   H	1.972	1.870	-0.768	 H	1	UNK0	0.000	
38	   H	0.475	2.872	-1.112	 H	1	UNK0	0.000	
39	   H	2.135	3.329	1.003	 H	1	UNK0	0.000	
40	   H	0.382	3.793	0.965	 H	1	UNK0	0.000	
41	   H	2.400	0.717	1.643	 H	1	UNK0	0.000	
42	   H	1.222	0.090	2.816	 H	1	UNK0	0.000	
43	   H	-0.312	-0.503	1.126	 H	1	UNK0	0.000	
44	   H	1.264	-0.765	0.311	 H	1	UNK0	0.000	
45	   H	-0.848	2.025	4.996	 H	1	UNK0	0.000	
46	   H	-0.279	0.629	4.077	 H	1	UNK0	0.000	
47	   H	1.176	2.367	6.104	 H	1	UNK0	0.000	
48	   H	2.162	1.985	4.670	 H	1	UNK0	0.000	
49	   H	1.484	0.640	5.618	 H	1	UNK0	0.000	
50	   H	-4.681	-0.083	-5.114	 H	1	UNK0	0.000	
51	   H	-6.077	2.023	-1.341	 H	1	UNK0	0.000	
52	   H	-4.908	3.364	-1.747	 H	1	UNK0	0.000	
53	   H	-4.559	2.314	-0.334	 H	1	UNK0	0.000	
@<TRIPOS>BOND
1 1 2 1
2 2 3 2
3 2 7 1
4 3 4 1
5 4 5 2
6 4 8 1
7 5 6 1
8 6 7 2
9 8 9 1
10 9 10 1
11 9 13 1
12 10 11 2
13 10 28 1
14 11 12 1
15 11 24 1
16 12 13 2
17 13 14 1
18 14 15 1
19 14 19 1
20 15 16 1
21 16 17 1
22 17 18 1
23 17 20 1
24 18 19 1
25 20 21 2
26 20 22 1
27 22 23 1
28 24 25 1
29 24 30 1
30 25 26 2
31 25 27 1
32 27 28 1
33 28 29 2
34 3 31 1
35 5 32 1
36 6 33 1
37 7 34 1
38 8 35 1
39 8 36 1
40 15 37 1
41 15 38 1
42 16 39 1
43 16 40 1
44 18 41 1
45 18 42 1
46 19 43 1
47 19 44 1
48 22 45 1
49 22 46 1
50 23 47 1
51 23 48 1
52 23 49 1
53 27 50 1
54 30 51 1
55 30 52 1
56 30 53 1
@<TRIPOS>SUBSTRUCTURE
1	UNK0	1	GROUP	1 ****	UNK
# created with PyMOL 2.3.2
@<TRIPOS>MOLECULE
1622
45 48 1                 
SMALL
USER_CHARGES
@<TRIPOS>ATOM
1	  Cl	-1.992	-3.411	-1.620	Cl	1	UNK0	0.000	
2	   C	-1.354	-1.909	-2.303	C.2	1	UNK0	0.000	
3	   C	-0.406	-1.209	-1.589	C.2	1	UNK0	0.000	
4	   C	0.099	-0.038	-2.110	C.2	1	UNK0	0.000	
5	   C	-0.329	0.441	-3.330	C.2	1	UNK0	0.000	
6	   C	-1.283	-0.296	-4.013	C.2	1	UNK0	0.000	
7	   C	-1.812	-1.469	-3.528	C.2	1	UNK0	0.000	
8	   N	0.179	1.651	-3.890	N.pl3	1	UNK0	0.000	
9	   N	1.348	2.212	-3.701	N.2	1	UNK0	0.000	
10	   C	1.427	3.364	-4.429	C.2	1	UNK0	0.000	
11	   C	0.238	3.522	-5.106	C.2	1	UNK0	0.000	
12	   C	-0.531	2.414	-4.739	C.2	1	UNK0	0.000	
13	   C	0.061	-1.703	-0.290	C.2	1	UNK0	0.000	
14	   O	1.056	-2.472	-0.317	O.2	1	UNK0	0.000	
15	   N	-0.579	-1.331	0.923	N.pl3	1	UNK0	0.000	
16	   C	-0.065	-1.856	2.169	C.3	1	UNK0	0.000	
17	   C	-0.431	-0.858	3.252	C.3	1	UNK0	0.000	
18	   C	-0.378	0.568	2.749	C.3	1	UNK0	0.000	
19	   N	-0.521	1.431	3.899	N.pl3	1	UNK0	0.000	
20	   C	0.765	1.639	4.463	C.2	1	UNK0	0.000	
21	   O	1.051	2.028	5.639	O.2	1	UNK0	0.000	
22	   N	1.702	1.320	3.430	N.pl3	1	UNK0	0.000	
23	   C	0.979	0.926	2.263	C.2	1	UNK0	0.000	
24	   O	1.436	0.902	1.088	O.2	1	UNK0	0.000	
25	   C	3.164	1.372	3.504	C.3	1	UNK0	0.000	
26	   C	-1.410	0.837	1.694	C.3	1	UNK0	0.000	
27	   C	-1.723	-0.451	0.996	C.3	1	UNK0	0.000	
28	   H	0.845	0.559	-1.599	 H	1	UNK0	0.000	
29	   H	-1.625	0.075	-4.975	 H	1	UNK0	0.000	
30	   H	-2.570	-2.024	-4.103	 H	1	UNK0	0.000	
31	   H	2.246	4.065	-4.502	 H	1	UNK0	0.000	
32	   H	-0.041	4.332	-5.779	 H	1	UNK0	0.000	
33	   H	-1.535	2.222	-5.094	 H	1	UNK0	0.000	
34	   H	-0.542	-2.836	2.375	 H	1	UNK0	0.000	
35	   H	1.042	-1.918	2.147	 H	1	UNK0	0.000	
36	   H	-1.444	-1.082	3.641	 H	1	UNK0	0.000	
37	   H	0.257	-0.951	4.116	 H	1	UNK0	0.000	
38	   H	-1.422	1.819	4.236	 H	1	UNK0	0.000	
39	   H	3.628	0.560	2.893	 H	1	UNK0	0.000	
40	   H	3.485	1.285	4.557	 H	1	UNK0	0.000	
41	   H	3.535	2.322	3.077	 H	1	UNK0	0.000	
42	   H	-0.978	1.583	0.992	 H	1	UNK0	0.000	
43	   H	-2.321	1.224	2.199	 H	1	UNK0	0.000	
44	   H	-2.497	-0.986	1.614	 H	1	UNK0	0.000	
45	   H	-2.195	-0.298	-0.002	 H	1	UNK0	0.000	
@<TRIPOS>BOND
1 1 2 1
2 2 3 2
3 2 7 1
4 3 4 1
5 3 13 1
6 4 5 2
7 5 6 1
8 5 8 1
9 6 7 2
10 8 9 1
11 8 12 1
12 9 10 2
13 10 11 1
14 11 12 2
15 13 14 2
16 13 15 1
17 15 16 1
18 15 27 1
19 16 17 1
20 17 18 1
21 18 19 1
22 18 23 1
23 18 26 1
24 19 20 1
25 20 21 2
26 20 22 1
27 22 23 1
28 22 25 1
29 23 24 2
30 26 27 1
31 4 28 1
32 6 29 1
33 7 30 1
34 10 31 1
35 11 32 1
36 12 33 1
37 16 34 1
38 16 35 1
39 17 36 1
40 17 37 1
41 19 38 1
42 25 39 1
43 25 40 1
44 25 41 1
45 26 42 1
46 26 43 1
47 27 44 1
48 27 45 1
@<TRIPOS>SUBSTRUCTURE
1	UNK0	1	GROUP	1 ****	UNK
# created with PyMOL 2.3.2
@<TRIPOS>MOLECULE
1624
53 56 1                 
SMALL
USER_CHARGES
@<TRIPOS>ATOM
1	  Cl	2.121	-1.543	5.040	Cl	1	UNK0	0.000	
2	   C	1.849	-0.874	3.455	C.2	1	UNK0	0.000	
3	   C	0.645	-0.340	3.102	C.2	1	UNK0	0.000	
4	   C	0.481	0.179	1.826	C.2	1	UNK0	0.000	
5	   C	1.466	0.185	0.891	C.2	1	UNK0	0.000	
6	   C	2.696	-0.362	1.256	C.2	1	UNK0	0.000	
7	   C	2.883	-0.883	2.516	C.2	1	UNK0	0.000	
8	   C	1.286	0.724	-0.451	C.3	1	UNK0	0.000	
9	   N	0.092	0.123	-1.073	N.pl3	1	UNK0	0.000	
10	   C	-1.040	0.898	-0.701	C.2	1	UNK0	0.000	
11	   O	-2.222	0.548	-0.709	O.2	1	UNK0	0.000	
12	   C	-0.545	2.228	-0.295	C.2	1	UNK0	0.000	
13	   O	-1.224	3.224	0.114	O.2	1	UNK0	0.000	
14	   C	0.899	2.173	-0.454	C.2	1	UNK0	0.000	
15	   C	1.670	3.228	-0.545	C.2	1	UNK0	0.000	
16	   O	3.043	3.026	-0.649	O.2	1	UNK0	0.000	
17	   C	1.223	4.617	-0.552	C.2	1	UNK0	0.000	
18	   C	1.890	5.480	0.310	C.2	1	UNK0	0.000	
19	   C	1.542	6.801	0.338	C.2	1	UNK0	0.000	
20	   C	0.539	7.296	-0.473	C.2	1	UNK0	0.000	
21	   C	-0.119	6.436	-1.326	C.2	1	UNK0	0.000	
22	   C	0.242	5.104	-1.346	C.2	1	UNK0	0.000	
23	  Cl	0.132	8.979	-0.402	Cl	1	UNK0	0.000	
24	   C	0.188	-1.047	-1.908	C.3	1	UNK0	0.000	
25	   C	0.095	-2.350	-1.210	C.3	1	UNK0	0.000	
26	   N	-1.095	-2.670	-0.513	N.4	1	UNK0	0.000	
27	   C	-0.936	-2.743	0.924	C.3	1	UNK0	0.000	
28	   C	-1.376	-4.060	1.517	C.3	1	UNK0	0.000	
29	   O	-2.610	-4.493	1.106	O.3	1	UNK0	0.000	
30	   C	-2.799	-4.413	-0.261	C.3	1	UNK0	0.000	
31	   C	-1.508	-4.030	-0.919	C.3	1	UNK0	0.000	
32	   H	-0.153	-0.336	3.833	 H	1	UNK0	0.000	
33	   H	-0.482	0.590	1.601	 H	1	UNK0	0.000	
34	   H	3.489	-0.364	0.523	 H	1	UNK0	0.000	
35	   H	3.816	-1.313	2.835	 H	1	UNK0	0.000	
36	   H	2.164	0.552	-1.114	 H	1	UNK0	0.000	
37	   H	2.692	5.099	0.963	 H	1	UNK0	0.000	
38	   H	2.091	7.442	1.029	 H	1	UNK0	0.000	
39	   H	-0.899	6.852	-1.949	 H	1	UNK0	0.000	
40	   H	-0.280	4.441	-2.044	 H	1	UNK0	0.000	
41	   H	1.209	-1.013	-2.401	 H	1	UNK0	0.000	
42	   H	-0.502	-0.976	-2.787	 H	1	UNK0	0.000	
43	   H	0.336	-3.193	-1.933	 H	1	UNK0	0.000	
44	   H	0.938	-2.471	-0.451	 H	1	UNK0	0.000	
45	   H	-1.901	-2.080	-0.777	 H	1	UNK0	0.000	
46	   H	-1.505	-1.909	1.377	 H	1	UNK0	0.000	
47	   H	0.123	-2.618	1.233	 H	1	UNK0	0.000	
48	   H	-1.413	-3.887	2.626	 H	1	UNK0	0.000	
49	   H	-0.577	-4.823	1.378	 H	1	UNK0	0.000	
50	   H	-3.138	-5.362	-0.701	 H	1	UNK0	0.000	
51	   H	-3.545	-3.625	-0.500	 H	1	UNK0	0.000	
52	   H	-0.680	-4.706	-0.651	 H	1	UNK0	0.000	
53	   H	-1.620	-4.077	-2.028	 H	1	UNK0	0.000	
@<TRIPOS>BOND
1 1 2 1
2 2 3 2
3 2 7 1
4 3 4 1
5 4 5 2
6 5 6 1
7 5 8 1
8 6 7 2
9 8 9 1
10 8 14 1
11 9 10 1
12 9 24 1
13 10 11 2
14 10 12 1
15 12 13 2
16 12 14 1
17 14 15 2
18 15 16 1
19 15 17 1
20 17 18 2
21 17 22 1
22 18 19 1
23 19 20 2
24 20 21 1
25 20 23 1
26 21 22 2
27 24 25 1
28 25 26 1
29 26 27 1
30 26 31 1
31 27 28 1
32 28 29 1
33 29 30 1
34 30 31 1
35 3 32 1
36 4 33 1
37 6 34 1
38 7 35 1
39 8 36 1
40 18 37 1
41 19 38 1
42 21 39 1
43 22 40 1
44 24 41 1
45 24 42 1
46 25 43 1
47 25 44 1
48 26 45 1
49 27 46 1
50 27 47 1
51 28 48 1
52 28 49 1
53 30 50 1
54 30 51 1
55 31 52 1
56 31 53 1
@<TRIPOS>SUBSTRUCTURE
1	UNK0	1	GROUP	1 ****	UNK
# created with PyMOL 2.3.2
@<TRIPOS>MOLECULE
1630
60 64 1                 
SMALL
USER_CHARGES
@<TRIPOS>ATOM
1	  Cl	3.751	-1.041	-5.440	Cl	1	UNK0	0.000	
2	   C	2.480	-0.457	-4.355	C.2	1	UNK0	0.000	
3	   C	1.775	0.679	-4.670	C.2	1	UNK0	0.000	
4	   C	0.777	1.139	-3.821	C.2	1	UNK0	0.000	
5	   C	0.439	0.513	-2.652	C.2	1	UNK0	0.000	
6	   C	1.175	-0.645	-2.356	C.2	1	UNK0	0.000	
7	   C	2.167	-1.110	-3.191	C.2	1	UNK0	0.000	
8	   C	-0.635	1.246	-2.002	C.3	1	UNK0	0.000	
9	   N	-1.799	0.367	-1.933	N.3	1	UNK0	0.000	
10	   C	-1.815	-0.045	-0.556	C.3	1	UNK0	0.000	
11	   C	-1.535	1.255	0.163	C.3	1	UNK0	0.000	
12	   C	-0.348	1.754	-0.632	C.3	1	UNK0	0.000	
13	   C	0.806	1.209	0.054	C.2	1	UNK0	0.000	
14	   O	1.972	1.126	-0.391	O.2	1	UNK0	0.000	
15	   N	0.413	0.767	1.346	N.pl3	1	UNK0	0.000	
16	   C	-0.982	1.021	1.521	C.2	1	UNK0	0.000	
17	   O	-1.665	1.055	2.572	O.2	1	UNK0	0.000	
18	   C	1.222	0.153	2.382	C.3	1	UNK0	0.000	
19	   C	1.818	1.151	3.288	C.2	1	UNK0	0.000	
20	   C	2.612	0.694	4.318	C.2	1	UNK0	0.000	
21	   C	3.170	1.639	5.168	C.2	1	UNK0	0.000	
22	   C	2.946	2.976	4.997	C.2	1	UNK0	0.000	
23	   C	2.149	3.392	3.957	C.2	1	UNK0	0.000	
24	   C	1.566	2.504	3.080	C.2	1	UNK0	0.000	
25	   O	2.824	-0.660	4.471	O.3	1	UNK0	0.000	
26	   C	3.604	-1.238	5.470	C.3	1	UNK0	0.000	
27	   C	-3.154	-0.632	-0.169	C.3	1	UNK0	0.000	
28	   C	-3.381	-1.830	-1.067	C.3	1	UNK0	0.000	
29	   C	-4.674	-2.498	-0.777	C.2	1	UNK0	0.000	
30	   O	-5.420	-2.037	0.133	O.2	1	UNK0	0.000	
31	   N	-5.007	-3.640	-1.554	N.pl3	1	UNK0	0.000	
32	   C	-0.925	2.385	-2.905	C.2	1	UNK0	0.000	
33	   O	-1.794	3.294	-2.754	O.2	1	UNK0	0.000	
34	   N	-0.042	2.288	-4.000	N.pl3	1	UNK0	0.000	
35	   C	2.106	1.397	-5.932	C.3	1	UNK0	0.000	
36	   H	0.962	-1.190	-1.451	 H	1	UNK0	0.000	
37	   H	2.716	-2.009	-2.930	 H	1	UNK0	0.000	
38	   H	-1.692	-0.411	-2.618	 H	1	UNK0	0.000	
39	   H	-1.053	-0.768	-0.265	 H	1	UNK0	0.000	
40	   H	-2.387	1.944	0.154	 H	1	UNK0	0.000	
41	   H	-0.302	2.865	-0.571	 H	1	UNK0	0.000	
42	   H	0.619	-0.559	2.977	 H	1	UNK0	0.000	
43	   H	1.993	-0.464	1.858	 H	1	UNK0	0.000	
44	   H	3.793	1.290	5.976	 H	1	UNK0	0.000	
45	   H	3.409	3.686	5.694	 H	1	UNK0	0.000	
46	   H	1.966	4.447	3.814	 H	1	UNK0	0.000	
47	   H	0.930	2.842	2.251	 H	1	UNK0	0.000	
48	   H	3.628	-2.336	5.287	 H	1	UNK0	0.000	
49	   H	3.079	-1.107	6.441	 H	1	UNK0	0.000	
50	   H	4.624	-0.829	5.463	 H	1	UNK0	0.000	
51	   H	-3.973	0.102	-0.236	 H	1	UNK0	0.000	
52	   H	-3.031	-1.039	0.864	 H	1	UNK0	0.000	
53	   H	-3.289	-1.572	-2.151	 H	1	UNK0	0.000	
54	   H	-2.569	-2.553	-0.853	 H	1	UNK0	0.000	
55	   H	-4.745	-3.644	-2.554	 H	1	UNK0	0.000	
56	   H	-5.507	-4.423	-1.062	 H	1	UNK0	0.000	
57	   H	-0.010	2.965	-4.809	 H	1	UNK0	0.000	
58	   H	2.682	2.310	-5.726	 H	1	UNK0	0.000	
59	   H	2.668	0.755	-6.610	 H	1	UNK0	0.000	
60	   H	1.170	1.733	-6.460	 H	1	UNK0	0.000	
@<TRIPOS>BOND
1 1 2 1
2 2 3 2
3 2 7 1
4 3 4 1
5 3 35 1
6 4 5 2
7 4 34 1
8 5 6 1
9 5 8 1
10 6 7 2
11 8 9 1
12 8 12 1
13 8 32 1
14 9 10 1
15 10 11 1
16 10 27 1
17 11 12 1
18 11 16 1
19 12 13 1
20 13 14 2
21 13 15 1
22 15 16 1
23 15 18 1
24 16 17 2
25 18 19 1
26 19 20 2
27 19 24 1
28 20 21 1
29 20 25 1
30 21 22 2
31 22 23 1
32 23 24 2
33 25 26 1
34 27 28 1
35 28 29 1
36 29 30 2
37 29 31 1
38 32 33 2
39 32 34 1
40 6 36 1
41 7 37 1
42 9 38 1
43 10 39 1
44 11 40 1
45 12 41 1
46 18 42 1
47 18 43 1
48 21 44 1
49 22 45 1
50 23 46 1
51 24 47 1
52 26 48 1
53 26 49 1
54 26 50 1
55 27 51 1
56 27 52 1
57 28 53 1
58 28 54 1
59 31 55 1
60 31 56 1
61 34 57 1
62 35 58 1
63 35 59 1
64 35 60 1
@<TRIPOS>SUBSTRUCTURE
1	UNK0	1	GROUP	1 ****	UNK
# created with PyMOL 2.3.2
@<TRIPOS>MOLECULE
1631
42 45 1                 
SMALL
USER_CHARGES
@<TRIPOS>ATOM
1	  Cl	3.351	4.897	0.028	Cl	1	UNK0	0.000	
2	   C	2.968	3.259	-0.454	C.2	1	UNK0	0.000	
3	   C	1.690	2.756	-0.394	C.2	1	UNK0	0.000	
4	   C	1.357	1.460	-0.767	C.2	1	UNK0	0.000	
5	   C	2.395	0.653	-1.222	C.2	1	UNK0	0.000	
6	   C	3.684	1.131	-1.292	C.2	1	UNK0	0.000	
7	   C	3.966	2.426	-0.910	C.2	1	UNK0	0.000	
8	   C	-0.038	0.959	-0.685	C.3	1	UNK0	0.000	
9	   N	-0.461	0.229	-1.846	N.pl3	1	UNK0	0.000	
10	   C	-0.311	-1.172	-1.640	C.2	1	UNK0	0.000	
11	   O	-0.319	-2.083	-2.518	O.2	1	UNK0	0.000	
12	   C	-0.139	-1.394	-0.189	C.2	1	UNK0	0.000	
13	   O	0.024	-2.510	0.354	O.2	1	UNK0	0.000	
14	   C	-0.200	-0.065	0.405	C.2	1	UNK0	0.000	
15	   C	-0.338	0.156	1.695	C.2	1	UNK0	0.000	
16	   O	-0.328	1.501	2.118	O.2	1	UNK0	0.000	
17	   C	-0.503	-0.888	2.697	C.2	1	UNK0	0.000	
18	   C	0.312	-0.886	3.838	C.2	1	UNK0	0.000	
19	   C	0.159	-1.844	4.816	C.2	1	UNK0	0.000	
20	   C	-0.790	-2.841	4.729	C.2	1	UNK0	0.000	
21	   C	-1.601	-2.860	3.617	C.2	1	UNK0	0.000	
22	   C	-1.444	-1.889	2.627	C.2	1	UNK0	0.000	
23	   C	-0.956	0.803	-3.037	C.cat	1	UNK0	0.000	
24	   N	-2.258	1.193	-3.013	N.pl3	1	UNK0	0.000	
25	   C	-2.843	1.749	-4.073	C.2	1	UNK0	0.000	
26	   C	-2.090	1.926	-5.211	C.2	1	UNK0	0.000	
27	   C	-0.771	1.524	-5.212	C.2	1	UNK0	0.000	
28	   N	-0.189	0.962	-4.138	N.2	1	UNK0	0.000	
29	   H	0.926	3.428	-0.030	 H	1	UNK0	0.000	
30	   H	2.151	-0.364	-1.515	 H	1	UNK0	0.000	
31	   H	4.503	0.490	-1.652	 H	1	UNK0	0.000	
32	   H	4.981	2.792	-0.970	 H	1	UNK0	0.000	
33	   H	-0.686	1.843	-0.503	 H	1	UNK0	0.000	
34	   H	1.057	-0.097	3.901	 H	1	UNK0	0.000	
35	   H	0.811	-1.803	5.678	 H	1	UNK0	0.000	
36	   H	-0.929	-3.601	5.485	 H	1	UNK0	0.000	
37	   H	-2.362	-3.644	3.524	 H	1	UNK0	0.000	
38	   H	-2.123	-1.927	1.770	 H	1	UNK0	0.000	
39	   H	-2.843	1.064	-2.142	 H	1	UNK0	0.000	
40	   H	-3.883	2.043	-4.013	 H	1	UNK0	0.000	
41	   H	-2.555	2.377	-6.078	 H	1	UNK0	0.000	
42	   H	-0.222	1.686	-6.129	 H	1	UNK0	0.000	
@<TRIPOS>BOND
1 1 2 1
2 2 3 2
3 2 7 1
4 3 4 1
5 4 5 2
6 4 8 1
7 5 6 1
8 6 7 2
9 8 9 1
10 8 14 1
11 9 10 1
12 9 23 1
13 10 11 2
14 10 12 1
15 12 13 2
16 12 14 1
17 14 15 2
18 15 16 1
19 15 17 1
20 17 18 2
21 17 22 1
22 18 19 1
23 19 20 2
24 20 21 1
25 21 22 2
26 23 24 2
27 23 28 1
28 24 25 1
29 25 26 2
30 26 27 1
31 27 28 2
32 3 29 1
33 5 30 1
34 6 31 1
35 7 32 1
36 8 33 1
37 18 34 1
38 19 35 1
39 20 36 1
40 21 37 1
41 22 38 1
42 24 39 1
43 25 40 1
44 26 41 1
45 27 42 1
@<TRIPOS>SUBSTRUCTURE
1	UNK0	1	GROUP	1 ****	UNK
# created with PyMOL 2.3.2
@<TRIPOS>MOLECULE
1637
44 47 1                 
SMALL
USER_CHARGES
@<TRIPOS>ATOM
1	   S	-4.553	0.930	2.616	S.O2	1	UNK0	0.000	
2	   O	-5.179	1.381	3.839	O.2	1	UNK0	0.000	
3	   O	-5.217	-0.295	2.063	O.2	1	UNK0	0.000	
4	   C	-4.570	2.184	1.311	C.3	1	UNK0	0.000	
5	   C	-2.844	0.515	2.844	C.2	1	UNK0	0.000	
6	   N	-2.292	-0.380	2.017	N.2	1	UNK0	0.000	
7	   C	-1.008	-0.725	2.033	C.2	1	UNK0	0.000	
8	   C	-0.188	-0.092	2.981	C.2	1	UNK0	0.000	
9	   C	-0.750	0.810	3.813	C.2	1	UNK0	0.000	
10	   N	-2.078	1.107	3.742	N.2	1	UNK0	0.000	
11	   O	0.055	1.427	4.759	O.3	1	UNK0	0.000	
12	   C	1.240	-0.399	2.866	C.3	1	UNK0	0.000	
13	   N	1.568	-0.193	1.489	N.3	1	UNK0	0.000	
14	   C	1.071	-1.482	0.832	C.3	1	UNK0	0.000	
15	   C	-0.374	-1.703	1.110	C.3	1	UNK0	0.000	
16	   C	0.741	0.815	0.732	C.3	1	UNK0	0.000	
17	   C	1.874	1.617	0.086	C.2	1	UNK0	0.000	
18	   C	2.079	1.766	-1.230	C.2	1	UNK0	0.000	
19	   C	3.145	2.524	-1.786	C.2	1	UNK0	0.000	
20	   C	3.982	3.123	-0.840	C.2	1	UNK0	0.000	
21	   C	5.024	3.864	-1.315	C.2	1	UNK0	0.000	
22	   C	5.303	4.058	-2.686	C.2	1	UNK0	0.000	
23	   C	4.429	3.440	-3.599	C.2	1	UNK0	0.000	
24	   C	3.392	2.700	-3.105	C.2	1	UNK0	0.000	
25	   O	3.786	2.995	0.427	O.3	1	UNK0	0.000	
26	   C	2.773	2.270	0.926	C.2	1	UNK0	0.000	
27	   O	2.597	2.142	2.198	O.co2	1	UNK0	0.000	
28	  Cl	0.947	1.043	-2.322	Cl	1	UNK0	0.000	
29	   H	-3.760	1.880	0.556	 H	1	UNK0	0.000	
30	   H	-4.210	3.153	1.764	 H	1	UNK0	0.000	
31	   H	-5.554	2.293	0.850	 H	1	UNK0	0.000	
32	   H	0.810	0.952	5.264	 H	1	UNK0	0.000	
33	   H	1.902	0.087	3.619	 H	1	UNK0	0.000	
34	   H	1.340	-1.549	3.036	 H	1	UNK0	0.000	
35	   H	1.308	-1.339	-0.269	 H	1	UNK0	0.000	
36	   H	1.717	-2.246	1.253	 H	1	UNK0	0.000	
37	   H	-0.882	-1.627	0.091	 H	1	UNK0	0.000	
38	   H	-0.532	-2.732	1.439	 H	1	UNK0	0.000	
39	   H	0.138	0.364	-0.031	 H	1	UNK0	0.000	
40	   H	0.249	1.422	1.498	 H	1	UNK0	0.000	
41	   H	5.710	4.402	-0.663	 H	1	UNK0	0.000	
42	   H	6.170	4.655	-3.033	 H	1	UNK0	0.000	
43	   H	4.630	3.618	-4.610	 H	1	UNK0	0.000	
44	   H	2.740	2.137	-3.792	 H	1	UNK0	0.000	
@<TRIPOS>BOND
1 1 2 2
2 1 3 2
3 1 4 1
4 1 5 1
5 5 6 2
6 5 10 1
7 6 7 1
8 7 8 2
9 7 15 1
10 8 9 1
11 8 12 1
12 9 10 2
13 9 11 1
14 12 13 1
15 13 14 1
16 13 16 1
17 14 15 1
18 16 17 1
19 17 18 2
20 17 26 1
21 18 19 1
22 18 28 1
23 19 20 2
24 19 24 1
25 20 21 1
26 20 25 1
27 21 22 2
28 22 23 1
29 23 24 2
30 25 26 1
31 26 27 2
32 4 29 1
33 4 30 1
34 4 31 1
35 11 32 1
36 12 33 1
37 12 34 1
38 14 35 1
39 14 36 1
40 15 37 1
41 15 38 1
42 16 39 1
43 16 40 1
44 21 41 1
45 22 42 1
46 23 43 1
47 24 44 1
@<TRIPOS>SUBSTRUCTURE
1	UNK0	1	GROUP	1 ****	UNK
# created with PyMOL 2.3.2
@<TRIPOS>MOLECULE
1638
63 66 1                 
SMALL
USER_CHARGES
@<TRIPOS>ATOM
1	   S	-0.122	-3.594	2.683	S.O2	1	UNK0	0.000	
2	   O	0.697	-4.825	2.897	O.2	1	UNK0	0.000	
3	   O	-0.506	-2.940	3.986	O.2	1	UNK0	0.000	
4	   C	0.736	-2.401	1.730	C.2	1	UNK0	0.000	
5	   C	1.145	-2.672	0.431	C.2	1	UNK0	0.000	
6	   N	1.811	-1.721	-0.278	N.2	1	UNK0	0.000	
7	   C	2.098	-0.512	0.223	C.2	1	UNK0	0.000	
8	   N	1.704	-0.243	1.480	N.2	1	UNK0	0.000	
9	   C	1.044	-1.150	2.220	C.2	1	UNK0	0.000	
10	   N	2.800	0.482	-0.520	N.pl3	1	UNK0	0.000	
11	   C	3.272	0.248	-1.863	C.3	1	UNK0	0.000	
12	   C	2.807	1.264	-2.869	C.3	1	UNK0	0.000	
13	   C	2.469	2.598	-2.224	C.3	1	UNK0	0.000	
14	   C	3.473	2.700	-1.063	C.3	1	UNK0	0.000	
15	   C	3.078	1.788	0.050	C.3	1	UNK0	0.000	
16	   N	1.184	2.701	-1.720	N.3	1	UNK0	0.000	
17	   C	0.045	2.595	-2.546	C.3	1	UNK0	0.000	
18	   C	-1.072	1.958	-1.702	C.3	1	UNK0	0.000	
19	   C	-0.766	2.224	-0.253	C.3	1	UNK0	0.000	
20	   C	-0.217	3.609	-0.023	C.3	1	UNK0	0.000	
21	   C	0.998	3.866	-0.899	C.3	1	UNK0	0.000	
22	   C	2.847	3.668	-3.175	C.2	1	UNK0	0.000	
23	   O	4.015	3.699	-3.691	O.2	1	UNK0	0.000	
24	   N	1.979	4.693	-3.567	N.pl3	1	UNK0	0.000	
25	   N	0.842	-3.943	-0.090	N.pl3	1	UNK0	0.000	
26	   C	-1.617	-3.994	1.824	C.2	1	UNK0	0.000	
27	   C	-2.547	-3.009	1.561	C.2	1	UNK0	0.000	
28	   C	-3.697	-3.366	0.889	C.2	1	UNK0	0.000	
29	   C	-3.928	-4.676	0.482	C.2	1	UNK0	0.000	
30	   C	-2.975	-5.631	0.763	C.2	1	UNK0	0.000	
31	   C	-1.814	-5.305	1.434	C.2	1	UNK0	0.000	
32	  Cl	-3.252	-7.302	0.253	Cl	1	UNK0	0.000	
33	   O	-2.286	-1.733	1.977	O.3	1	UNK0	0.000	
34	   C	-3.126	-0.629	1.787	C.3	1	UNK0	0.000	
35	   H	0.721	-0.931	3.249	 H	1	UNK0	0.000	
36	   H	4.401	0.240	-1.779	 H	1	UNK0	0.000	
37	   H	3.033	-0.787	-2.210	 H	1	UNK0	0.000	
38	   H	3.680	1.461	-3.530	 H	1	UNK0	0.000	
39	   H	2.003	0.902	-3.531	 H	1	UNK0	0.000	
40	   H	3.720	3.725	-0.793	 H	1	UNK0	0.000	
41	   H	4.449	2.274	-1.464	 H	1	UNK0	0.000	
42	   H	2.237	2.120	0.672	 H	1	UNK0	0.000	
43	   H	3.968	1.606	0.732	 H	1	UNK0	0.000	
44	   H	-0.380	3.618	-2.781	 H	1	UNK0	0.000	
45	   H	0.122	2.000	-3.444	 H	1	UNK0	0.000	
46	   H	-2.070	2.358	-1.994	 H	1	UNK0	0.000	
47	   H	-1.048	0.844	-1.891	 H	1	UNK0	0.000	
48	   H	0.013	1.495	0.100	 H	1	UNK0	0.000	
49	   H	-1.676	2.139	0.388	 H	1	UNK0	0.000	
50	   H	0.054	3.674	1.062	 H	1	UNK0	0.000	
51	   H	-1.026	4.344	-0.170	 H	1	UNK0	0.000	
52	   H	1.853	4.227	-0.347	 H	1	UNK0	0.000	
53	   H	0.655	4.690	-1.599	 H	1	UNK0	0.000	
54	   H	2.133	5.658	-3.165	 H	1	UNK0	0.000	
55	   H	1.183	4.615	-4.231	 H	1	UNK0	0.000	
56	   H	0.274	-4.094	-0.949	 H	1	UNK0	0.000	
57	   H	1.199	-4.789	0.400	 H	1	UNK0	0.000	
58	   H	-4.456	-2.621	0.662	 H	1	UNK0	0.000	
59	   H	-4.837	-4.906	-0.038	 H	1	UNK0	0.000	
60	   H	-1.063	-6.081	1.649	 H	1	UNK0	0.000	
61	   H	-3.949	-0.669	2.520	 H	1	UNK0	0.000	
62	   H	-2.541	0.298	2.027	 H	1	UNK0	0.000	
63	   H	-3.478	-0.503	0.750	 H	1	UNK0	0.000	
@<TRIPOS>BOND
1 1 2 2
2 1 3 2
3 1 4 1
4 1 26 1
5 4 5 2
6 4 9 1
7 5 6 1
8 5 25 1
9 6 7 2
10 7 8 1
11 7 10 1
12 8 9 2
13 10 11 1
14 10 15 1
15 11 12 1
16 12 13 1
17 13 14 1
18 13 16 1
19 13 22 1
20 14 15 1
21 16 17 1
22 16 21 1
23 17 18 1
24 18 19 1
25 19 20 1
26 20 21 1
27 22 23 2
28 22 24 1
29 26 27 2
30 26 31 1
31 27 28 1
32 27 33 1
33 28 29 2
34 29 30 1
35 30 31 2
36 30 32 1
37 33 34 1
38 9 35 1
39 11 36 1
40 11 37 1
41 12 38 1
42 12 39 1
43 14 40 1
44 14 41 1
45 15 42 1
46 15 43 1
47 17 44 1
48 17 45 1
49 18 46 1
50 18 47 1
51 19 48 1
52 19 49 1
53 20 50 1
54 20 51 1
55 21 52 1
56 21 53 1
57 24 54 1
58 24 55 1
59 25 56 1
60 25 57 1
61 28 58 1
62 29 59 1
63 31 60 1
64 34 61 1
65 34 62 1
66 34 63 1
@<TRIPOS>SUBSTRUCTURE
1	UNK0	1	GROUP	1 ****	UNK
# created with PyMOL 2.3.2
@<TRIPOS>MOLECULE
1651
32 35 1                 
SMALL
USER_CHARGES
@<TRIPOS>ATOM
1	  Cl	0.196	-0.187	-4.552	Cl	1	UNK0	0.000	
2	   C	-0.391	-0.949	-3.071	C.2	1	UNK0	0.000	
3	   C	0.195	-0.706	-1.853	C.2	1	UNK0	0.000	
4	   C	-0.290	-1.324	-0.690	C.2	1	UNK0	0.000	
5	   C	-1.353	-2.181	-0.729	C.2	1	UNK0	0.000	
6	   C	-1.959	-2.435	-1.973	C.2	1	UNK0	0.000	
7	   C	-1.459	-1.814	-3.091	C.2	1	UNK0	0.000	
8	   N	-1.678	-2.691	0.554	N.pl3	1	UNK0	0.000	
9	   C	-0.754	-2.114	1.460	C.2	1	UNK0	0.000	
10	   O	-0.748	-2.348	2.704	O.2	1	UNK0	0.000	
11	   C	0.165	-1.223	0.718	C.3	1	UNK0	0.000	
12	   C	1.558	-1.790	0.893	C.3	1	UNK0	0.000	
13	   C	1.914	-1.516	2.326	C.2	1	UNK0	0.000	
14	   O	2.293	-2.400	3.116	O.2	1	UNK0	0.000	
15	   N	1.794	-0.155	2.757	N.pl3	1	UNK0	0.000	
16	   C	0.834	0.692	2.139	C.2	1	UNK0	0.000	
17	   N	0.498	1.998	2.320	N.pl3	1	UNK0	0.000	
18	   N	-0.460	2.295	1.476	N.2	1	UNK0	0.000	
19	   C	-0.788	1.232	0.725	C.2	1	UNK0	0.000	
20	   C	0.041	0.183	1.142	C.2	1	UNK0	0.000	
21	   C	-2.761	-3.631	0.860	C.3	1	UNK0	0.000	
22	   H	1.022	-0.048	-1.776	 H	1	UNK0	0.000	
23	   H	-2.801	-3.115	-2.000	 H	1	UNK0	0.000	
24	   H	-1.937	-2.019	-4.051	 H	1	UNK0	0.000	
25	   H	2.296	-1.367	0.210	 H	1	UNK0	0.000	
26	   H	1.463	-2.891	0.812	 H	1	UNK0	0.000	
27	   H	2.400	0.225	3.517	 H	1	UNK0	0.000	
28	   H	0.962	2.612	3.029	 H	1	UNK0	0.000	
29	   H	-1.523	1.132	-0.053	 H	1	UNK0	0.000	
30	   H	-2.645	-3.921	1.924	 H	1	UNK0	0.000	
31	   H	-3.748	-3.216	0.630	 H	1	UNK0	0.000	
32	   H	-2.659	-4.565	0.239	 H	1	UNK0	0.000	
@<TRIPOS>BOND
1 1 2 1
2 2 3 2
3 2 7 1
4 3 4 1
5 4 5 2
6 4 11 1
7 5 6 1
8 5 8 1
9 6 7 2
10 8 9 1
11 8 21 1
12 9 10 2
13 9 11 1
14 11 12 1
15 11 20 1
16 12 13 1
17 13 14 2
18 13 15 1
19 15 16 1
20 16 17 1
21 16 20 2
22 17 18 1
23 18 19 2
24 19 20 1
25 3 22 1
26 6 23 1
27 7 24 1
28 12 25 1
29 12 26 1
30 15 27 1
31 17 28 1
32 19 29 1
33 21 30 1
34 21 31 1
35 21 32 1
@<TRIPOS>SUBSTRUCTURE
1	UNK0	1	GROUP	1 ****	UNK
# created with PyMOL 2.3.2
@<TRIPOS>MOLECULE
1657
61 64 1                 
SMALL
USER_CHARGES
@<TRIPOS>ATOM
1	  Cl	2.394	8.181	-3.627	Cl	1	UNK0	0.000	
2	   C	1.930	6.840	-2.572	C.2	1	UNK0	0.000	
3	   C	0.745	6.888	-1.870	C.2	1	UNK0	0.000	
4	   C	0.391	5.856	-1.063	C.2	1	UNK0	0.000	
5	   C	1.225	4.737	-0.935	C.2	1	UNK0	0.000	
6	   C	2.402	4.711	-1.644	C.2	1	UNK0	0.000	
7	   C	2.779	5.758	-2.475	C.2	1	UNK0	0.000	
8	   N	0.860	3.650	-0.091	N.pl3	1	UNK0	0.000	
9	   C	-0.550	3.409	0.176	C.3	1	UNK0	0.000	
10	   N	-1.120	4.686	0.537	N.pl3	1	UNK0	0.000	
11	   C	-0.841	5.812	-0.279	C.2	1	UNK0	0.000	
12	   O	-1.612	6.802	-0.371	O.2	1	UNK0	0.000	
13	   C	-0.659	2.454	1.317	C.3	1	UNK0	0.000	
14	   C	-0.612	1.004	0.893	C.3	1	UNK0	0.000	
15	   N	0.476	0.742	-0.026	N.pl3	1	UNK0	0.000	
16	   C	0.586	1.381	-1.322	C.2	1	UNK0	0.000	
17	   O	1.654	1.158	-1.937	O.2	1	UNK0	0.000	
18	   C	-0.363	2.255	-2.031	C.3	1	UNK0	0.000	
19	   C	-1.278	2.960	-1.075	C.3	1	UNK0	0.000	
20	   C	1.513	-0.146	0.310	C.3	1	UNK0	0.000	
21	   C	1.439	-1.562	0.030	C.2	1	UNK0	0.000	
22	   O	2.555	-2.185	0.411	O.2	1	UNK0	0.000	
23	   N	0.441	-2.322	-0.537	N.pl3	1	UNK0	0.000	
24	   C	0.666	-3.782	-0.697	C.3	1	UNK0	0.000	
25	   C	-0.647	-4.416	-0.211	C.3	1	UNK0	0.000	
26	   N	-1.367	-3.532	0.643	N.3	1	UNK0	0.000	
27	   C	-1.910	-2.363	0.018	C.3	1	UNK0	0.000	
28	   C	-0.822	-1.883	-0.984	C.3	1	UNK0	0.000	
29	   C	-2.218	-4.144	1.606	C.3	1	UNK0	0.000	
30	   C	-3.341	-4.959	0.998	C.3	1	UNK0	0.000	
31	   C	-1.482	-4.990	2.609	C.3	1	UNK0	0.000	
32	   H	0.070	7.731	-1.937	 H	1	UNK0	0.000	
33	   H	3.047	3.828	-1.535	 H	1	UNK0	0.000	
34	   H	3.706	5.725	-3.026	 H	1	UNK0	0.000	
35	   H	1.634	3.073	0.299	 H	1	UNK0	0.000	
36	   H	-1.728	4.824	1.368	 H	1	UNK0	0.000	
37	   H	-1.680	2.605	1.773	 H	1	UNK0	0.000	
38	   H	0.091	2.719	2.068	 H	1	UNK0	0.000	
39	   H	-0.597	0.364	1.773	 H	1	UNK0	0.000	
40	   H	-1.561	0.807	0.358	 H	1	UNK0	0.000	
41	   H	0.207	3.019	-2.617	 H	1	UNK0	0.000	
42	   H	-1.006	1.662	-2.746	 H	1	UNK0	0.000	
43	   H	-2.169	2.354	-0.814	 H	1	UNK0	0.000	
44	   H	-1.701	3.851	-1.629	 H	1	UNK0	0.000	
45	   H	1.774	-0.077	1.432	 H	1	UNK0	0.000	
46	   H	2.468	0.264	-0.140	 H	1	UNK0	0.000	
47	   H	0.820	-4.008	-1.771	 H	1	UNK0	0.000	
48	   H	1.533	-4.102	-0.123	 H	1	UNK0	0.000	
49	   H	-1.225	-4.772	-1.095	 H	1	UNK0	0.000	
50	   H	-0.348	-5.300	0.387	 H	1	UNK0	0.000	
51	   H	-1.975	-1.552	0.771	 H	1	UNK0	0.000	
52	   H	-2.866	-2.501	-0.491	 H	1	UNK0	0.000	
53	   H	-0.974	-0.847	-1.241	 H	1	UNK0	0.000	
54	   H	-1.027	-2.438	-1.971	 H	1	UNK0	0.000	
55	   H	-2.711	-3.326	2.184	 H	1	UNK0	0.000	
56	   H	-3.966	-4.272	0.382	 H	1	UNK0	0.000	
57	   H	-2.962	-5.815	0.442	 H	1	UNK0	0.000	
58	   H	-3.992	-5.284	1.845	 H	1	UNK0	0.000	
59	   H	-1.153	-5.958	2.198	 H	1	UNK0	0.000	
60	   H	-0.611	-4.379	2.989	 H	1	UNK0	0.000	
61	   H	-2.182	-5.165	3.456	 H	1	UNK0	0.000	
@<TRIPOS>BOND
1 1 2 1
2 2 3 2
3 2 7 1
4 3 4 1
5 4 5 2
6 4 11 1
7 5 6 1
8 5 8 1
9 6 7 2
10 8 9 1
11 9 10 1
12 9 13 1
13 9 19 1
14 10 11 1
15 11 12 2
16 13 14 1
17 14 15 1
18 15 16 1
19 15 20 1
20 16 17 2
21 16 18 1
22 18 19 1
23 20 21 1
24 21 22 2
25 21 23 1
26 23 24 1
27 23 28 1
28 24 25 1
29 25 26 1
30 26 27 1
31 26 29 1
32 27 28 1
33 29 30 1
34 29 31 1
35 3 32 1
36 6 33 1
37 7 34 1
38 8 35 1
39 10 36 1
40 13 37 1
41 13 38 1
42 14 39 1
43 14 40 1
44 18 41 1
45 18 42 1
46 19 43 1
47 19 44 1
48 20 45 1
49 20 46 1
50 24 47 1
51 24 48 1
52 25 49 1
53 25 50 1
54 27 51 1
55 27 52 1
56 28 53 1
57 28 54 1
58 29 55 1
59 30 56 1
60 30 57 1
61 30 58 1
62 31 59 1
63 31 60 1
64 31 61 1
@<TRIPOS>SUBSTRUCTURE
1	UNK0	1	GROUP	1 ****	UNK
# created with PyMOL 2.3.2
@<TRIPOS>MOLECULE
1660
52 55 1                 
SMALL
USER_CHARGES
@<TRIPOS>ATOM
1	  Cl	-0.551	7.863	-6.667	Cl	1	UNK0	0.000	
2	   C	-0.969	6.372	-5.886	C.2	1	UNK0	0.000	
3	   C	-0.117	5.297	-5.773	C.2	1	UNK0	0.000	
4	   C	-0.468	4.119	-5.143	C.2	1	UNK0	0.000	
5	   C	-1.714	3.972	-4.591	C.2	1	UNK0	0.000	
6	   C	-2.562	5.060	-4.712	C.2	1	UNK0	0.000	
7	   C	-2.231	6.243	-5.336	C.2	1	UNK0	0.000	
8	   N	-2.170	2.823	-3.895	N.pl3	1	UNK0	0.000	
9	   N	-3.397	2.386	-3.805	N.2	1	UNK0	0.000	
10	   C	-3.497	1.282	-3.057	C.2	1	UNK0	0.000	
11	   C	-2.214	0.977	-2.623	C.2	1	UNK0	0.000	
12	   C	-1.409	1.970	-3.172	C.2	1	UNK0	0.000	
13	   N	-0.104	1.892	-2.898	N.2	1	UNK0	0.000	
14	   C	0.402	0.903	-2.129	C.2	1	UNK0	0.000	
15	   N	-0.349	-0.068	-1.586	N.pl3	1	UNK0	0.000	
16	   C	-1.682	-0.023	-1.843	C.2	1	UNK0	0.000	
17	   O	-2.425	-0.912	-1.357	O.2	1	UNK0	0.000	
18	   C	0.193	-1.135	-0.739	C.3	1	UNK0	0.000	
19	   C	0.291	-0.725	0.673	C.2	1	UNK0	0.000	
20	   O	0.706	0.474	0.853	O.2	1	UNK0	0.000	
21	   N	-0.017	-1.492	1.794	N.pl3	1	UNK0	0.000	
22	   C	0.191	-0.968	3.153	C.3	1	UNK0	0.000	
23	   C	1.284	-1.871	3.740	C.3	1	UNK0	0.000	
24	   N	0.921	-3.256	3.594	N.pl3	1	UNK0	0.000	
25	   C	-0.377	-3.550	3.016	C.3	1	UNK0	0.000	
26	   C	-0.581	-2.821	1.713	C.3	1	UNK0	0.000	
27	   C	1.802	-4.292	3.974	C.2	1	UNK0	0.000	
28	   O	2.958	-3.951	4.425	O.co2	1	UNK0	0.000	
29	   O	1.545	-5.643	3.912	O.3	1	UNK0	0.000	
30	   C	2.541	-6.603	4.314	C.3	1	UNK0	0.000	
31	   C	3.700	-6.440	3.347	C.3	1	UNK0	0.000	
32	   H	0.880	5.447	-6.222	 H	1	UNK0	0.000	
33	   H	0.228	3.303	-5.079	 H	1	UNK0	0.000	
34	   H	-3.572	4.964	-4.278	 H	1	UNK0	0.000	
35	   H	-2.977	7.032	-5.371	 H	1	UNK0	0.000	
36	   H	-4.341	0.675	-2.780	 H	1	UNK0	0.000	
37	   H	1.478	0.860	-1.916	 H	1	UNK0	0.000	
38	   H	1.247	-1.379	-1.079	 H	1	UNK0	0.000	
39	   H	-0.441	-2.023	-0.892	 H	1	UNK0	0.000	
40	   H	-0.734	-1.010	3.744	 H	1	UNK0	0.000	
41	   H	0.612	0.031	3.060	 H	1	UNK0	0.000	
42	   H	1.461	-1.540	4.774	 H	1	UNK0	0.000	
43	   H	2.238	-1.659	3.170	 H	1	UNK0	0.000	
44	   H	-1.132	-3.292	3.770	 H	1	UNK0	0.000	
45	   H	-0.407	-4.652	2.795	 H	1	UNK0	0.000	
46	   H	-1.702	-2.663	1.642	 H	1	UNK0	0.000	
47	   H	-0.231	-3.371	0.825	 H	1	UNK0	0.000	
48	   H	2.910	-6.321	5.351	 H	1	UNK0	0.000	
49	   H	2.199	-7.623	4.319	 H	1	UNK0	0.000	
50	   H	4.684	-6.410	3.821	 H	1	UNK0	0.000	
51	   H	3.589	-7.271	2.587	 H	1	UNK0	0.000	
52	   H	3.555	-5.509	2.786	 H	1	UNK0	0.000	
@<TRIPOS>BOND
1 1 2 1
2 2 3 2
3 2 7 1
4 3 4 1
5 4 5 2
6 5 6 1
7 5 8 1
8 6 7 2
9 8 9 1
10 8 12 1
11 9 10 2
12 10 11 1
13 11 12 2
14 11 16 1
15 12 13 1
16 13 14 2
17 14 15 1
18 15 16 1
19 15 18 1
20 16 17 2
21 18 19 1
22 19 20 2
23 19 21 1
24 21 22 1
25 21 26 1
26 22 23 1
27 23 24 1
28 24 25 1
29 24 27 1
30 25 26 1
31 27 28 2
32 27 29 1
33 29 30 1
34 30 31 1
35 3 32 1
36 4 33 1
37 6 34 1
38 7 35 1
39 10 36 1
40 14 37 1
41 18 38 1
42 18 39 1
43 22 40 1
44 22 41 1
45 23 42 1
46 23 43 1
47 25 44 1
48 25 45 1
49 26 46 1
50 26 47 1
51 30 48 1
52 30 49 1
53 31 50 1
54 31 51 1
55 31 52 1
@<TRIPOS>SUBSTRUCTURE
1	UNK0	1	GROUP	1 ****	UNK
# created with PyMOL 2.3.2
@<TRIPOS>MOLECULE
1666
54 58 1                 
SMALL
USER_CHARGES
@<TRIPOS>ATOM
1	   S	-1.859	-2.186	-2.244	S.O2	1	UNK0	0.000	
2	   O	-3.112	-2.835	-2.818	O.2	1	UNK0	0.000	
3	   O	-0.724	-3.079	-2.747	O.2	1	UNK0	0.000	
4	   N	-1.680	-0.681	-2.967	N.3	1	UNK0	0.000	
5	   C	-2.688	0.303	-2.672	C.3	1	UNK0	0.000	
6	   C	-2.077	1.644	-2.336	C.3	1	UNK0	0.000	
7	   N	-1.094	1.492	-1.234	N.3	1	UNK0	0.000	
8	   C	-0.010	0.655	-1.728	C.3	1	UNK0	0.000	
9	   C	-0.371	-0.104	-2.993	C.3	1	UNK0	0.000	
10	   C	-0.607	2.838	-1.021	C.3	1	UNK0	0.000	
11	   C	0.226	3.089	0.163	C.3	1	UNK0	0.000	
12	   N	1.444	2.373	0.337	N.pl3	1	UNK0	0.000	
13	   C	2.761	2.654	-0.123	C.2	1	UNK0	0.000	
14	   O	3.042	3.335	-1.120	O.2	1	UNK0	0.000	
15	   C	3.734	1.999	0.784	C.3	1	UNK0	0.000	
16	   C	2.903	0.782	1.251	C.3	1	UNK0	0.000	
17	   C	3.352	-0.353	0.410	C.3	1	UNK0	0.000	
18	   C	3.910	0.364	-0.831	C.3	1	UNK0	0.000	
19	   C	4.793	1.315	-0.004	C.3	1	UNK0	0.000	
20	   C	5.429	0.308	0.910	C.2	1	UNK0	0.000	
21	   C	4.686	-0.797	0.973	C.2	1	UNK0	0.000	
22	   C	1.504	1.166	1.129	C.2	1	UNK0	0.000	
23	   O	0.543	0.535	1.636	O.2	1	UNK0	0.000	
24	   C	-1.834	-2.248	-0.528	C.2	1	UNK0	0.000	
25	   C	-0.682	-2.569	0.148	C.2	1	UNK0	0.000	
26	   C	-0.697	-2.599	1.531	C.2	1	UNK0	0.000	
27	   C	-1.833	-2.318	2.268	C.2	1	UNK0	0.000	
28	   C	-2.987	-1.996	1.585	C.2	1	UNK0	0.000	
29	   C	-2.971	-1.966	0.195	C.2	1	UNK0	0.000	
30	  Br	-1.856	-2.361	4.174	Br	1	UNK0	0.000	
31	   H	-3.280	0.459	-3.604	 H	1	UNK0	0.000	
32	   H	-3.369	-0.048	-1.898	 H	1	UNK0	0.000	
33	   H	-2.871	2.305	-1.946	 H	1	UNK0	0.000	
34	   H	-1.597	2.144	-3.197	 H	1	UNK0	0.000	
35	   H	0.190	-0.130	-0.980	 H	1	UNK0	0.000	
36	   H	0.870	1.304	-1.882	 H	1	UNK0	0.000	
37	   H	0.368	-0.863	-3.243	 H	1	UNK0	0.000	
38	   H	-0.366	0.642	-3.820	 H	1	UNK0	0.000	
39	   H	-1.500	3.537	-0.934	 H	1	UNK0	0.000	
40	   H	-0.129	3.207	-1.984	 H	1	UNK0	0.000	
41	   H	0.497	4.196	0.129	 H	1	UNK0	0.000	
42	   H	-0.440	3.010	1.068	 H	1	UNK0	0.000	
43	   H	4.064	2.623	1.609	 H	1	UNK0	0.000	
44	   H	3.185	0.540	2.316	 H	1	UNK0	0.000	
45	   H	2.666	-1.136	0.191	 H	1	UNK0	0.000	
46	   H	4.521	-0.297	-1.456	 H	1	UNK0	0.000	
47	   H	3.166	0.950	-1.362	 H	1	UNK0	0.000	
48	   H	5.471	1.904	-0.573	 H	1	UNK0	0.000	
49	   H	6.356	0.413	1.463	 H	1	UNK0	0.000	
50	   H	4.967	-1.768	1.335	 H	1	UNK0	0.000	
51	   H	0.254	-2.801	-0.385	 H	1	UNK0	0.000	
52	   H	0.218	-2.854	2.065	 H	1	UNK0	0.000	
53	   H	-3.866	-1.780	2.172	 H	1	UNK0	0.000	
54	   H	-3.916	-1.702	-0.258	 H	1	UNK0	0.000	
@<TRIPOS>BOND
1 1 2 2
2 1 3 2
3 1 4 1
4 1 24 1
5 4 5 1
6 4 9 1
7 5 6 1
8 6 7 1
9 7 8 1
10 7 10 1
11 8 9 1
12 10 11 1
13 11 12 1
14 12 13 1
15 12 22 1
16 13 14 2
17 13 15 1
18 15 16 1
19 15 19 1
20 16 17 1
21 16 22 1
22 17 18 1
23 17 21 1
24 18 19 1
25 19 20 1
26 20 21 2
27 22 23 2
28 24 25 2
29 24 29 1
30 25 26 1
31 26 27 2
32 27 28 1
33 27 30 1
34 28 29 2
35 5 31 1
36 5 32 1
37 6 33 1
38 6 34 1
39 8 35 1
40 8 36 1
41 9 37 1
42 9 38 1
43 10 39 1
44 10 40 1
45 11 41 1
46 11 42 1
47 15 43 1
48 16 44 1
49 17 45 1
50 18 46 1
51 18 47 1
52 19 48 1
53 20 49 1
54 21 50 1
55 25 51 1
56 26 52 1
57 28 53 1
58 29 54 1
@<TRIPOS>SUBSTRUCTURE
1	UNK0	1	GROUP	1 ****	UNK
# created with PyMOL 2.3.2
@<TRIPOS>MOLECULE
1673
61 64 1                 
SMALL
USER_CHARGES
@<TRIPOS>ATOM
1	  Br	1.212	4.207	-6.095	Br	1	UNK0	0.000	
2	   C	0.931	2.874	-4.731	C.2	1	UNK0	0.000	
3	   C	0.808	1.546	-5.048	C.2	1	UNK0	0.000	
4	   C	0.604	0.545	-4.104	C.2	1	UNK0	0.000	
5	   C	0.522	0.905	-2.778	C.2	1	UNK0	0.000	
6	   C	0.648	2.251	-2.470	C.2	1	UNK0	0.000	
7	   C	0.849	3.240	-3.404	C.2	1	UNK0	0.000	
8	   C	0.342	-0.080	-1.721	C.2	1	UNK0	0.000	
9	   O	0.144	0.416	-0.558	O.2	1	UNK0	0.000	
10	   C	0.373	-1.533	-1.888	C.3	1	UNK0	0.000	
11	   C	0.035	-2.321	-0.651	C.3	1	UNK0	0.000	
12	   N	1.227	-2.524	0.044	N.pl3	1	UNK0	0.000	
13	   C	2.178	-2.800	-1.060	C.2	1	UNK0	0.000	
14	   O	3.177	-3.568	-1.028	O.2	1	UNK0	0.000	
15	   C	1.740	-2.008	-2.198	C.2	1	UNK0	0.000	
16	   O	2.416	-1.784	-3.242	O.2	1	UNK0	0.000	
17	   C	1.747	-2.666	1.368	C.3	1	UNK0	0.000	
18	   C	2.655	-1.603	1.859	C.3	1	UNK0	0.000	
19	   N	2.261	-0.262	1.953	N.4	1	UNK0	0.000	
20	   C	2.498	0.312	3.284	C.3	1	UNK0	0.000	
21	   C	3.945	0.358	3.644	C.3	1	UNK0	0.000	
22	   O	4.708	0.019	2.550	O.3	1	UNK0	0.000	
23	   C	4.356	0.882	1.499	C.3	1	UNK0	0.000	
24	   C	2.986	0.541	0.952	C.3	1	UNK0	0.000	
25	   C	-1.263	-2.068	-0.078	C.2	1	UNK0	0.000	
26	   C	-1.503	-1.381	1.070	C.2	1	UNK0	0.000	
27	   C	-2.795	-1.175	1.528	C.2	1	UNK0	0.000	
28	   C	-3.872	-1.689	0.790	C.2	1	UNK0	0.000	
29	   C	-3.629	-2.379	-0.363	C.2	1	UNK0	0.000	
30	   C	-2.361	-2.579	-0.812	C.2	1	UNK0	0.000	
31	   O	-5.178	-1.513	1.202	O.2	1	UNK0	0.000	
32	   O	-3.067	-0.491	2.669	O.3	1	UNK0	0.000	
33	   C	-2.102	0.102	3.476	C.3	1	UNK0	0.000	
34	   C	-1.327	1.211	2.787	C.3	1	UNK0	0.000	
35	   H	0.871	1.240	-6.095	 H	1	UNK0	0.000	
36	   H	0.498	-0.475	-4.449	 H	1	UNK0	0.000	
37	   H	0.590	2.595	-1.425	 H	1	UNK0	0.000	
38	   H	0.944	4.288	-3.143	 H	1	UNK0	0.000	
39	   H	-0.317	-1.845	-2.738	 H	1	UNK0	0.000	
40	   H	-0.096	-3.428	-1.161	 H	1	UNK0	0.000	
41	   H	0.916	-2.747	2.129	 H	1	UNK0	0.000	
42	   H	2.339	-3.630	1.392	 H	1	UNK0	0.000	
43	   H	3.638	-1.611	1.260	 H	1	UNK0	0.000	
44	   H	3.076	-1.900	2.891	 H	1	UNK0	0.000	
45	   H	1.273	-0.126	1.754	 H	1	UNK0	0.000	
46	   H	1.855	-0.215	3.997	 H	1	UNK0	0.000	
47	   H	2.123	1.362	3.212	 H	1	UNK0	0.000	
48	   H	4.245	1.378	3.972	 H	1	UNK0	0.000	
49	   H	4.113	-0.396	4.450	 H	1	UNK0	0.000	
50	   H	4.361	1.933	1.793	 H	1	UNK0	0.000	
51	   H	5.088	0.681	0.684	 H	1	UNK0	0.000	
52	   H	2.388	1.434	0.693	 H	1	UNK0	0.000	
53	   H	3.031	-0.095	0.044	 H	1	UNK0	0.000	
54	   H	-0.702	-0.980	1.700	 H	1	UNK0	0.000	
55	   H	-4.477	-2.781	-0.941	 H	1	UNK0	0.000	
56	   H	-2.204	-3.132	-1.732	 H	1	UNK0	0.000	
57	   H	-2.546	0.525	4.408	 H	1	UNK0	0.000	
58	   H	-1.345	-0.642	3.829	 H	1	UNK0	0.000	
59	   H	-1.688	2.194	3.191	 H	1	UNK0	0.000	
60	   H	-0.258	1.125	3.030	 H	1	UNK0	0.000	
61	   H	-1.490	1.223	1.710	 H	1	UNK0	0.000	
@<TRIPOS>BOND
1 1 2 1
2 2 3 2
3 2 7 1
4 3 4 1
5 4 5 2
6 5 6 1
7 5 8 1
8 6 7 2
9 8 9 2
10 8 10 1
11 10 11 1
12 10 15 1
13 11 12 1
14 11 25 1
15 12 13 1
16 12 17 1
17 13 14 2
18 13 15 1
19 15 16 2
20 17 18 1
21 18 19 1
22 19 20 1
23 19 24 1
24 20 21 1
25 21 22 1
26 22 23 1
27 23 24 1
28 25 26 2
29 25 30 1
30 26 27 1
31 27 28 2
32 27 32 1
33 28 29 1
34 28 31 1
35 29 30 2
36 32 33 1
37 33 34 1
38 3 35 1
39 4 36 1
40 6 37 1
41 7 38 1
42 10 39 1
43 11 40 1
44 17 41 1
45 17 42 1
46 18 43 1
47 18 44 1
48 19 45 1
49 20 46 1
50 20 47 1
51 21 48 1
52 21 49 1
53 23 50 1
54 23 51 1
55 24 52 1
56 24 53 1
57 26 54 1
58 29 55 1
59 30 56 1
60 33 57 1
61 33 58 1
62 34 59 1
63 34 60 1
64 34 61 1
@<TRIPOS>SUBSTRUCTURE
1	UNK0	1	GROUP	1 ****	UNK
# created with PyMOL 2.3.2
@<TRIPOS>MOLECULE
1676
37 40 1                 
SMALL
USER_CHARGES
@<TRIPOS>ATOM
1	  Br	1.866	-5.079	-4.981	Br	1	UNK0	0.000	
2	   C	0.564	-3.823	-4.363	C.2	1	UNK0	0.000	
3	   C	-0.732	-3.870	-4.830	C.2	1	UNK0	0.000	
4	   C	-1.684	-2.976	-4.398	C.2	1	UNK0	0.000	
5	   N	-2.997	-2.788	-4.674	N.2	1	UNK0	0.000	
6	   N	-3.410	-1.761	-3.954	N.2	1	UNK0	0.000	
7	   N	-2.447	-1.268	-3.226	N.pl3	1	UNK0	0.000	
8	   C	-1.338	-2.013	-3.482	C.2	1	UNK0	0.000	
9	   C	-0.038	-1.960	-3.010	C.2	1	UNK0	0.000	
10	   C	0.917	-2.865	-3.449	C.2	1	UNK0	0.000	
11	   C	0.303	-0.928	-2.037	C.2	1	UNK0	0.000	
12	   O	-0.220	0.197	-2.152	O.2	1	UNK0	0.000	
13	   N	1.206	-1.156	-0.968	N.pl3	1	UNK0	0.000	
14	   C	1.525	-0.116	-0.021	C.3	1	UNK0	0.000	
15	   C	0.261	0.318	0.670	C.2	1	UNK0	0.000	
16	   N	0.140	1.261	1.618	N.pl3	1	UNK0	0.000	
17	   C	-1.147	1.383	2.008	C.2	1	UNK0	0.000	
18	   N	-1.837	0.494	1.283	N.2	1	UNK0	0.000	
19	   N	-0.986	-0.153	0.472	N.2	1	UNK0	0.000	
20	   C	-1.425	2.399	3.060	C.3	1	UNK0	0.000	
21	   C	-0.827	3.702	2.510	C.3	1	UNK0	0.000	
22	   C	0.610	3.558	2.129	C.3	1	UNK0	0.000	
23	   C	1.094	2.131	2.269	C.3	1	UNK0	0.000	
24	   H	-1.010	-4.625	-5.550	 H	1	UNK0	0.000	
25	   H	-2.423	-0.473	-2.555	 H	1	UNK0	0.000	
26	   H	1.922	-2.781	-3.048	 H	1	UNK0	0.000	
27	   H	1.647	-2.084	-0.861	 H	1	UNK0	0.000	
28	   H	2.308	-0.405	0.679	 H	1	UNK0	0.000	
29	   H	1.880	0.766	-0.621	 H	1	UNK0	0.000	
30	   H	-0.959	2.114	4.011	 H	1	UNK0	0.000	
31	   H	-2.521	2.605	3.149	 H	1	UNK0	0.000	
32	   H	-1.413	3.921	1.596	 H	1	UNK0	0.000	
33	   H	-0.992	4.537	3.217	 H	1	UNK0	0.000	
34	   H	1.278	4.254	2.692	 H	1	UNK0	0.000	
35	   H	0.745	3.830	1.063	 H	1	UNK0	0.000	
36	   H	1.080	1.876	3.353	 H	1	UNK0	0.000	
37	   H	2.097	1.987	1.852	 H	1	UNK0	0.000	
@<TRIPOS>BOND
1 1 2 1
2 2 3 2
3 2 10 1
4 3 4 1
5 4 5 1
6 4 8 2
7 5 6 2
8 6 7 1
9 7 8 1
10 8 9 1
11 9 10 2
12 9 11 1
13 11 12 2
14 11 13 1
15 13 14 1
16 14 15 1
17 15 16 1
18 15 19 2
19 16 17 1
20 16 23 1
21 17 18 2
22 17 20 1
23 18 19 1
24 20 21 1
25 21 22 1
26 22 23 1
27 3 24 1
28 7 25 1
29 10 26 1
30 13 27 1
31 14 28 1
32 14 29 1
33 20 30 1
34 20 31 1
35 21 32 1
36 21 33 1
37 22 34 1
38 22 35 1
39 23 36 1
40 23 37 1
@<TRIPOS>SUBSTRUCTURE
1	UNK0	1	GROUP	1 ****	UNK
# created with PyMOL 2.3.2
@<TRIPOS>MOLECULE
1687
40 43 1                 
SMALL
USER_CHARGES
@<TRIPOS>ATOM
1	  Cl	7.976	0.527	-1.509	Cl	1	UNK0	0.000	
2	   C	6.352	0.763	-0.864	C.2	1	UNK0	0.000	
3	   C	6.060	1.767	0.035	C.2	1	UNK0	0.000	
4	   C	4.770	1.905	0.507	C.2	1	UNK0	0.000	
5	   N	4.184	2.772	1.377	N.2	1	UNK0	0.000	
6	   C	2.880	2.464	1.489	C.2	1	UNK0	0.000	
7	   N	2.585	1.404	0.707	N.pl3	1	UNK0	0.000	
8	   C	3.744	1.070	0.112	C.2	1	UNK0	0.000	
9	   C	4.025	0.066	-0.785	C.2	1	UNK0	0.000	
10	   C	5.317	-0.066	-1.252	C.2	1	UNK0	0.000	
11	   C	1.281	0.791	0.571	C.3	1	UNK0	0.000	
12	   C	0.478	1.421	-0.546	C.3	1	UNK0	0.000	
13	   N	-0.812	0.743	-0.609	N.pl3	1	UNK0	0.000	
14	   C	-1.864	1.192	0.112	C.2	1	UNK0	0.000	
15	   C	-3.095	0.575	0.075	C.2	1	UNK0	0.000	
16	   C	-3.284	-0.602	-0.764	C.2	1	UNK0	0.000	
17	   N	-4.560	-0.979	-0.600	N.2	1	UNK0	0.000	
18	   N	-5.183	-0.155	0.257	N.pl3	1	UNK0	0.000	
19	   C	-4.319	0.784	0.673	C.2	1	UNK0	0.000	
20	   O	-4.609	1.697	1.479	O.2	1	UNK0	0.000	
21	   C	-2.186	-1.034	-1.489	C.2	1	UNK0	0.000	
22	   C	-1.013	-0.341	-1.372	C.2	1	UNK0	0.000	
23	   C	-2.337	-2.209	-2.340	C.2	1	UNK0	0.000	
24	   O	-1.349	-2.613	-3.004	O.co2	1	UNK0	0.000	
25	   O	-3.526	-2.882	-2.435	O.3	1	UNK0	0.000	
26	   C	-3.670	-4.024	-3.264	C.3	1	UNK0	0.000	
27	   H	6.857	2.425	0.350	 H	1	UNK0	0.000	
28	   H	2.205	3.005	2.118	 H	1	UNK0	0.000	
29	   H	3.211	-0.592	-1.094	 H	1	UNK0	0.000	
30	   H	5.548	-0.852	-1.957	 H	1	UNK0	0.000	
31	   H	1.350	-0.299	0.374	 H	1	UNK0	0.000	
32	   H	0.721	0.916	1.515	 H	1	UNK0	0.000	
33	   H	0.954	1.307	-1.525	 H	1	UNK0	0.000	
34	   H	0.352	2.494	-0.331	 H	1	UNK0	0.000	
35	   H	-1.741	2.061	0.738	 H	1	UNK0	0.000	
36	   H	-6.193	-0.278	0.522	 H	1	UNK0	0.000	
37	   H	-0.145	-0.688	-1.949	 H	1	UNK0	0.000	
38	   H	-2.669	-4.270	-3.691	 H	1	UNK0	0.000	
39	   H	-4.394	-3.817	-4.091	 H	1	UNK0	0.000	
40	   H	-3.978	-4.910	-2.664	 H	1	UNK0	0.000	
@<TRIPOS>BOND
1 1 2 1
2 2 3 2
3 2 10 1
4 3 4 1
5 4 5 1
6 4 8 2
7 5 6 2
8 6 7 1
9 7 8 1
10 7 11 1
11 8 9 1
12 9 10 2
13 11 12 1
14 12 13 1
15 13 14 1
16 13 22 1
17 14 15 2
18 15 16 1
19 15 19 1
20 16 17 2
21 16 21 1
22 17 18 1
23 18 19 1
24 19 20 2
25 21 22 2
26 21 23 1
27 23 24 2
28 23 25 1
29 25 26 1
30 3 27 1
31 6 28 1
32 9 29 1
33 10 30 1
34 11 31 1
35 11 32 1
36 12 33 1
37 12 34 1
38 14 35 1
39 18 36 1
40 22 37 1
41 26 38 1
42 26 39 1
43 26 40 1
@<TRIPOS>SUBSTRUCTURE
1	UNK0	1	GROUP	1 ****	UNK
# created with PyMOL 2.3.2
@<TRIPOS>MOLECULE
1689
49 52 1                 
SMALL
USER_CHARGES
@<TRIPOS>ATOM
1	  Cl	-8.819	0.760	2.174	Cl	1	UNK0	0.000	
2	   C	-7.111	0.457	2.383	C.2	1	UNK0	0.000	
3	   C	-6.187	1.446	2.073	C.2	1	UNK0	0.000	
4	   C	-4.830	1.223	2.235	C.2	1	UNK0	0.000	
5	   N	-3.722	1.952	2.030	N.pl3	1	UNK0	0.000	
6	   C	-2.602	1.249	2.354	C.2	1	UNK0	0.000	
7	   N	-3.068	0.042	2.772	N.2	1	UNK0	0.000	
8	   C	-4.405	0.005	2.708	C.2	1	UNK0	0.000	
9	   C	-5.327	-0.973	3.014	C.2	1	UNK0	0.000	
10	   C	-6.690	-0.766	2.858	C.2	1	UNK0	0.000	
11	   C	-1.218	1.751	2.261	C.3	1	UNK0	0.000	
12	   C	-0.633	1.497	0.905	C.3	1	UNK0	0.000	
13	   C	-0.594	0.047	0.623	C.2	1	UNK0	0.000	
14	   O	-0.909	-0.747	1.543	O.2	1	UNK0	0.000	
15	   N	-0.219	-0.489	-0.627	N.pl3	1	UNK0	0.000	
16	   C	0.197	0.166	-1.850	C.3	1	UNK0	0.000	
17	   C	1.274	-0.691	-2.346	C.3	1	UNK0	0.000	
18	   C	1.240	-1.982	-1.525	C.3	1	UNK0	0.000	
19	   C	-0.185	-1.894	-0.939	C.3	1	UNK0	0.000	
20	   O	1.386	-3.112	-2.290	O.3	1	UNK0	0.000	
21	   N	2.592	-0.211	-2.499	N.pl3	1	UNK0	0.000	
22	   C	3.609	-1.080	-2.251	C.2	1	UNK0	0.000	
23	   C	4.929	-0.709	-2.375	C.2	1	UNK0	0.000	
24	   C	5.256	0.570	-2.760	C.2	1	UNK0	0.000	
25	   O	6.463	0.938	-2.882	O.2	1	UNK0	0.000	
26	   N	4.253	1.427	-3.005	N.pl3	1	UNK0	0.000	
27	   C	2.992	1.010	-2.868	C.2	1	UNK0	0.000	
28	   O	2.100	1.848	-3.111	O.2	1	UNK0	0.000	
29	   C	6.039	-1.679	-2.099	C.3	1	UNK0	0.000	
30	   H	-6.503	2.414	1.698	 H	1	UNK0	0.000	
31	   H	-3.773	2.935	1.664	 H	1	UNK0	0.000	
32	   H	-5.031	-1.940	3.387	 H	1	UNK0	0.000	
33	   H	-7.383	-1.550	3.106	 H	1	UNK0	0.000	
34	   H	-0.601	1.205	3.013	 H	1	UNK0	0.000	
35	   H	-1.195	2.858	2.488	 H	1	UNK0	0.000	
36	   H	-1.337	1.927	0.131	 H	1	UNK0	0.000	
37	   H	0.323	2.016	0.743	 H	1	UNK0	0.000	
38	   H	0.360	1.241	-1.732	 H	1	UNK0	0.000	
39	   H	-0.719	0.102	-2.516	 H	1	UNK0	0.000	
40	   H	0.978	-1.056	-3.384	 H	1	UNK0	0.000	
41	   H	1.916	-1.952	-0.654	 H	1	UNK0	0.000	
42	   H	-0.286	-2.548	-0.048	 H	1	UNK0	0.000	
43	   H	-0.880	-2.176	-1.757	 H	1	UNK0	0.000	
44	   H	0.486	-3.413	-2.572	 H	1	UNK0	0.000	
45	   H	3.443	-2.102	-1.949	 H	1	UNK0	0.000	
46	   H	4.479	2.426	-3.303	 H	1	UNK0	0.000	
47	   H	5.618	-2.629	-1.677	 H	1	UNK0	0.000	
48	   H	6.651	-1.854	-2.978	 H	1	UNK0	0.000	
49	   H	6.694	-1.247	-1.294	 H	1	UNK0	0.000	
@<TRIPOS>BOND
1 1 2 1
2 2 3 2
3 2 10 1
4 3 4 1
5 4 5 1
6 4 8 2
7 5 6 1
8 6 7 2
9 6 11 1
10 7 8 1
11 8 9 1
12 9 10 2
13 11 12 1
14 12 13 1
15 13 14 2
16 13 15 1
17 15 16 1
18 15 19 1
19 16 17 1
20 17 18 1
21 17 21 1
22 18 19 1
23 18 20 1
24 21 22 1
25 21 27 1
26 22 23 2
27 23 24 1
28 23 29 1
29 24 25 2
30 24 26 1
31 26 27 1
32 27 28 2
33 3 30 1
34 5 31 1
35 9 32 1
36 10 33 1
37 11 34 1
38 11 35 1
39 12 36 1
40 12 37 1
41 16 38 1
42 16 39 1
43 17 40 1
44 18 41 1
45 19 42 1
46 19 43 1
47 20 44 1
48 22 45 1
49 26 46 1
50 29 47 1
51 29 48 1
52 29 49 1
@<TRIPOS>SUBSTRUCTURE
1	UNK0	1	GROUP	1 ****	UNK
# created with PyMOL 2.3.2
@<TRIPOS>MOLECULE
1690
55 58 1                 
SMALL
USER_CHARGES
@<TRIPOS>ATOM
1	  Cl	1.848	6.114	2.705	Cl	1	UNK0	0.000	
2	   C	2.150	4.401	2.526	C.2	1	UNK0	0.000	
3	   C	2.574	3.844	1.332	C.2	1	UNK0	0.000	
4	   C	2.809	2.496	1.201	C.2	1	UNK0	0.000	
5	   N	3.214	1.727	0.182	N.pl3	1	UNK0	0.000	
6	   C	3.293	0.424	0.568	C.2	1	UNK0	0.000	
7	   N	2.927	0.424	1.841	N.2	1	UNK0	0.000	
8	   C	2.624	1.653	2.269	C.2	1	UNK0	0.000	
9	   C	2.202	2.183	3.468	C.2	1	UNK0	0.000	
10	   C	1.966	3.546	3.598	C.2	1	UNK0	0.000	
11	   C	3.721	-0.692	-0.309	C.3	1	UNK0	0.000	
12	   C	2.518	-1.240	-1.021	C.3	1	UNK0	0.000	
13	   C	1.561	-1.769	-0.034	C.2	1	UNK0	0.000	
14	   O	1.876	-1.862	1.180	O.2	1	UNK0	0.000	
15	   N	0.271	-2.175	-0.489	N.pl3	1	UNK0	0.000	
16	   C	-0.160	-2.098	-1.867	C.3	1	UNK0	0.000	
17	   C	-1.646	-1.707	-1.942	C.3	1	UNK0	0.000	
18	   C	-1.942	-0.940	-0.699	C.3	1	UNK0	0.000	
19	   C	-1.956	-1.887	0.479	C.3	1	UNK0	0.000	
20	   C	-0.676	-2.697	0.473	C.3	1	UNK0	0.000	
21	   N	-3.072	-0.081	-0.748	N.pl3	1	UNK0	0.000	
22	   C	-4.090	-0.238	-1.607	C.2	1	UNK0	0.000	
23	   C	-5.180	0.623	-1.626	C.2	1	UNK0	0.000	
24	   C	-5.219	1.671	-0.736	C.2	1	UNK0	0.000	
25	   O	-6.214	2.461	-0.749	O.2	1	UNK0	0.000	
26	   N	-4.200	1.826	0.121	N.pl3	1	UNK0	0.000	
27	   C	-3.168	0.965	0.100	C.2	1	UNK0	0.000	
28	   O	-2.196	1.117	0.921	O.2	1	UNK0	0.000	
29	   C	-6.292	0.395	-2.612	C.3	1	UNK0	0.000	
30	   O	-1.759	-0.919	-3.097	O.3	1	UNK0	0.000	
31	   C	-2.421	-2.975	-2.114	C.3	1	UNK0	0.000	
32	   H	2.710	4.534	0.510	 H	1	UNK0	0.000	
33	   H	3.448	2.052	-0.796	 H	1	UNK0	0.000	
34	   H	2.063	1.508	4.293	 H	1	UNK0	0.000	
35	   H	1.636	3.922	4.554	 H	1	UNK0	0.000	
36	   H	4.124	-1.528	0.319	 H	1	UNK0	0.000	
37	   H	4.463	-0.363	-1.066	 H	1	UNK0	0.000	
38	   H	2.044	-0.435	-1.639	 H	1	UNK0	0.000	
39	   H	2.819	-2.010	-1.773	 H	1	UNK0	0.000	
40	   H	0.461	-1.424	-2.454	 H	1	UNK0	0.000	
41	   H	-0.011	-3.133	-2.296	 H	1	UNK0	0.000	
42	   H	-1.045	-0.272	-0.524	 H	1	UNK0	0.000	
43	   H	-1.946	-1.321	1.451	 H	1	UNK0	0.000	
44	   H	-2.851	-2.526	0.524	 H	1	UNK0	0.000	
45	   H	-0.215	-2.763	1.478	 H	1	UNK0	0.000	
46	   H	-0.938	-3.738	0.121	 H	1	UNK0	0.000	
47	   H	-4.038	-1.062	-2.291	 H	1	UNK0	0.000	
48	   H	-4.218	2.615	0.800	 H	1	UNK0	0.000	
49	   H	-6.714	1.412	-2.852	 H	1	UNK0	0.000	
50	   H	-5.817	0.034	-3.537	 H	1	UNK0	0.000	
51	   H	-7.068	-0.256	-2.203	 H	1	UNK0	0.000	
52	   H	-1.967	-1.520	-3.882	 H	1	UNK0	0.000	
53	   H	-1.763	-3.893	-2.125	 H	1	UNK0	0.000	
54	   H	-2.925	-3.014	-3.124	 H	1	UNK0	0.000	
55	   H	-3.204	-3.156	-1.381	 H	1	UNK0	0.000	
@<TRIPOS>BOND
1 1 2 1
2 2 3 2
3 2 10 1
4 3 4 1
5 4 5 1
6 4 8 2
7 5 6 1
8 6 7 2
9 6 11 1
10 7 8 1
11 8 9 1
12 9 10 2
13 11 12 1
14 12 13 1
15 13 14 2
16 13 15 1
17 15 16 1
18 15 20 1
19 16 17 1
20 17 18 1
21 17 30 1
22 17 31 1
23 18 19 1
24 18 21 1
25 19 20 1
26 21 22 1
27 21 27 1
28 22 23 2
29 23 24 1
30 23 29 1
31 24 25 2
32 24 26 1
33 26 27 1
34 27 28 2
35 3 32 1
36 5 33 1
37 9 34 1
38 10 35 1
39 11 36 1
40 11 37 1
41 12 38 1
42 12 39 1
43 16 40 1
44 16 41 1
45 18 42 1
46 19 43 1
47 19 44 1
48 20 45 1
49 20 46 1
50 22 47 1
51 26 48 1
52 29 49 1
53 29 50 1
54 29 51 1
55 30 52 1
56 31 53 1
57 31 54 1
58 31 55 1
@<TRIPOS>SUBSTRUCTURE
1	UNK0	1	GROUP	1 ****	UNK
# created with PyMOL 2.3.2
@<TRIPOS>MOLECULE
1691
55 59 1                 
SMALL
USER_CHARGES
@<TRIPOS>ATOM
1	  Cl	7.077	6.885	-2.654	Cl	1	UNK0	0.000	
2	   C	5.980	5.520	-2.482	C.2	1	UNK0	0.000	
3	   C	4.668	5.592	-2.888	C.2	1	UNK0	0.000	
4	   C	3.830	4.487	-2.734	C.2	1	UNK0	0.000	
5	   N	2.539	4.260	-3.028	N.pl3	1	UNK0	0.000	
6	   C	2.180	3.011	-2.683	C.2	1	UNK0	0.000	
7	   N	3.271	2.448	-2.163	N.2	1	UNK0	0.000	
8	   C	4.302	3.318	-2.177	C.2	1	UNK0	0.000	
9	   C	5.617	3.247	-1.769	C.2	1	UNK0	0.000	
10	   C	6.444	4.359	-1.929	C.2	1	UNK0	0.000	
11	   C	0.808	2.436	-2.874	C.3	1	UNK0	0.000	
12	   C	0.797	1.012	-2.365	C.3	1	UNK0	0.000	
13	   C	-0.536	0.414	-2.537	C.2	1	UNK0	0.000	
14	   O	-1.449	1.092	-3.046	O.2	1	UNK0	0.000	
15	   N	-0.781	-0.908	-2.132	N.pl3	1	UNK0	0.000	
16	   C	-1.961	-1.712	-2.174	C.3	1	UNK0	0.000	
17	   C	-1.962	-2.467	-0.823	C.3	1	UNK0	0.000	
18	   C	-0.498	-2.660	-0.642	C.3	1	UNK0	0.000	
19	   C	0.248	-1.760	-1.568	C.3	1	UNK0	0.000	
20	   O	-0.075	-3.961	-0.912	O.3	1	UNK0	0.000	
21	   N	-2.579	-1.632	0.168	N.pl3	1	UNK0	0.000	
22	   C	-2.849	-1.929	1.450	C.2	1	UNK0	0.000	
23	   C	-3.457	-0.809	2.053	C.2	1	UNK0	0.000	
24	   N	-3.532	0.131	1.097	N.2	1	UNK0	0.000	
25	   C	-3.013	-0.343	-0.033	C.2	1	UNK0	0.000	
26	   C	-3.844	-0.831	3.374	C.2	1	UNK0	0.000	
27	   O	-4.385	0.186	3.885	O.2	1	UNK0	0.000	
28	   N	-3.621	-1.953	4.068	N.pl3	1	UNK0	0.000	
29	   C	-3.045	-3.008	3.490	C.2	1	UNK0	0.000	
30	   O	-2.843	-4.057	4.157	O.2	1	UNK0	0.000	
31	   N	-2.642	-3.041	2.183	N.pl3	1	UNK0	0.000	
32	   C	-2.032	-4.208	1.629	C.3	1	UNK0	0.000	
33	   C	-4.021	-2.007	5.476	C.3	1	UNK0	0.000	
34	   H	4.281	6.496	-3.326	 H	1	UNK0	0.000	
35	   H	1.917	4.989	-3.470	 H	1	UNK0	0.000	
36	   H	6.013	2.345	-1.330	 H	1	UNK0	0.000	
37	   H	7.484	4.309	-1.609	 H	1	UNK0	0.000	
38	   H	0.573	2.477	-3.953	 H	1	UNK0	0.000	
39	   H	0.052	3.039	-2.330	 H	1	UNK0	0.000	
40	   H	1.170	0.969	-1.332	 H	1	UNK0	0.000	
41	   H	1.571	0.468	-2.982	 H	1	UNK0	0.000	
42	   H	-1.773	-2.474	-2.992	 H	1	UNK0	0.000	
43	   H	-2.896	-1.233	-2.404	 H	1	UNK0	0.000	
44	   H	-2.539	-3.372	-1.101	 H	1	UNK0	0.000	
45	   H	-0.208	-2.330	0.399	 H	1	UNK0	0.000	
46	   H	1.044	-1.171	-1.067	 H	1	UNK0	0.000	
47	   H	0.730	-2.364	-2.392	 H	1	UNK0	0.000	
48	   H	-0.808	-4.511	-1.308	 H	1	UNK0	0.000	
49	   H	-2.930	0.164	-0.971	 H	1	UNK0	0.000	
50	   H	-0.924	-4.220	1.669	 H	1	UNK0	0.000	
51	   H	-2.270	-5.042	2.391	 H	1	UNK0	0.000	
52	   H	-2.487	-4.628	0.728	 H	1	UNK0	0.000	
53	   H	-3.120	-2.036	6.129	 H	1	UNK0	0.000	
54	   H	-4.640	-1.126	5.725	 H	1	UNK0	0.000	
55	   H	-4.570	-2.952	5.652	 H	1	UNK0	0.000	
@<TRIPOS>BOND
1 1 2 1
2 2 3 2
3 2 10 1
4 3 4 1
5 4 5 1
6 4 8 2
7 5 6 1
8 6 7 2
9 6 11 1
10 7 8 1
11 8 9 1
12 9 10 2
13 11 12 1
14 12 13 1
15 13 14 2
16 13 15 1
17 15 16 1
18 15 19 1
19 16 17 1
20 17 18 1
21 17 21 1
22 18 19 1
23 18 20 1
24 21 22 1
25 21 25 1
26 22 23 2
27 22 31 1
28 23 24 1
29 23 26 1
30 24 25 2
31 26 27 2
32 26 28 1
33 28 29 1
34 28 33 1
35 29 30 2
36 29 31 1
37 31 32 1
38 3 34 1
39 5 35 1
40 9 36 1
41 10 37 1
42 11 38 1
43 11 39 1
44 12 40 1
45 12 41 1
46 16 42 1
47 16 43 1
48 17 44 1
49 18 45 1
50 19 46 1
51 19 47 1
52 20 48 1
53 25 49 1
54 32 50 1
55 32 51 1
56 32 52 1
57 33 53 1
58 33 54 1
59 33 55 1
@<TRIPOS>SUBSTRUCTURE
1	UNK0	1	GROUP	1 ****	UNK
# created with PyMOL 2.3.2
@<TRIPOS>MOLECULE
1699
50 53 1                 
SMALL
USER_CHARGES
@<TRIPOS>ATOM
1	  Cl	-0.348	0.664	5.119	Cl	1	UNK0	0.000	
2	   C	-0.817	0.721	3.451	C.2	1	UNK0	0.000	
3	   C	-0.519	-0.326	2.591	C.2	1	UNK0	0.000	
4	   C	-0.886	-0.295	1.261	C.2	1	UNK0	0.000	
5	   C	-1.558	0.805	0.806	C.2	1	UNK0	0.000	
6	   C	-1.878	1.880	1.641	C.2	1	UNK0	0.000	
7	   C	-1.497	1.816	2.963	C.2	1	UNK0	0.000	
8	   N	-1.829	0.662	-0.582	N.pl3	1	UNK0	0.000	
9	   C	-1.298	-0.583	-1.009	C.2	1	UNK0	0.000	
10	   O	-1.372	-0.951	-2.226	O.2	1	UNK0	0.000	
11	   C	-0.724	-1.240	0.158	C.3	1	UNK0	0.000	
12	   N	-1.371	-2.524	0.441	N.3	1	UNK0	0.000	
13	   C	-0.789	-3.361	-0.584	C.3	1	UNK0	0.000	
14	   C	0.647	-2.961	-0.688	C.3	1	UNK0	0.000	
15	   C	0.701	-1.654	0.044	C.3	1	UNK0	0.000	
16	   C	1.555	-0.729	-0.741	C.2	1	UNK0	0.000	
17	   O	1.876	0.403	-0.294	O.2	1	UNK0	0.000	
18	   N	1.873	-1.371	-1.965	N.pl3	1	UNK0	0.000	
19	   C	1.035	-2.528	-2.069	C.2	1	UNK0	0.000	
20	   O	0.667	-3.109	-3.095	O.2	1	UNK0	0.000	
21	   C	2.840	-0.958	-2.910	C.3	1	UNK0	0.000	
22	   C	2.431	-0.077	-4.024	C.3	1	UNK0	0.000	
23	   C	1.864	1.248	-3.687	C.3	1	UNK0	0.000	
24	   O	0.694	1.240	-2.943	O.3	1	UNK0	0.000	
25	   C	0.321	2.589	-2.729	C.3	1	UNK0	0.000	
26	   C	-0.975	-4.830	-0.303	C.3	1	UNK0	0.000	
27	   O	-0.384	-5.538	-1.342	O.3	1	UNK0	0.000	
28	   C	-0.378	-5.248	1.016	C.3	1	UNK0	0.000	
29	   H	0.022	-1.206	2.965	 H	1	UNK0	0.000	
30	   H	-2.414	2.751	1.270	 H	1	UNK0	0.000	
31	   H	-1.760	2.668	3.590	 H	1	UNK0	0.000	
32	   H	-2.342	1.360	-1.198	 H	1	UNK0	0.000	
33	   H	-0.981	-2.832	1.360	 H	1	UNK0	0.000	
34	   H	-1.289	-3.172	-1.554	 H	1	UNK0	0.000	
35	   H	1.358	-3.711	-0.337	 H	1	UNK0	0.000	
36	   H	1.105	-1.779	1.080	 H	1	UNK0	0.000	
37	   H	3.448	-1.827	-3.314	 H	1	UNK0	0.000	
38	   H	3.636	-0.381	-2.335	 H	1	UNK0	0.000	
39	   H	1.790	-0.593	-4.787	 H	1	UNK0	0.000	
40	   H	3.378	0.132	-4.618	 H	1	UNK0	0.000	
41	   H	2.585	1.893	-3.099	 H	1	UNK0	0.000	
42	   H	1.702	1.839	-4.623	 H	1	UNK0	0.000	
43	   H	1.178	3.033	-2.180	 H	1	UNK0	0.000	
44	   H	-0.548	2.671	-2.052	 H	1	UNK0	0.000	
45	   H	0.174	3.123	-3.671	 H	1	UNK0	0.000	
46	   H	-2.042	-5.050	-0.294	 H	1	UNK0	0.000	
47	   H	0.491	-5.929	-1.089	 H	1	UNK0	0.000	
48	   H	-0.945	-4.827	1.860	 H	1	UNK0	0.000	
49	   H	0.709	-5.040	1.076	 H	1	UNK0	0.000	
50	   H	-0.484	-6.353	1.083	 H	1	UNK0	0.000	
@<TRIPOS>BOND
1 1 2 1
2 2 3 2
3 2 7 1
4 3 4 1
5 4 5 2
6 4 11 1
7 5 6 1
8 5 8 1
9 6 7 2
10 8 9 1
11 9 10 2
12 9 11 1
13 11 12 1
14 11 15 1
15 12 13 1
16 13 14 1
17 13 26 1
18 14 15 1
19 14 19 1
20 15 16 1
21 16 17 2
22 16 18 1
23 18 19 1
24 18 21 1
25 19 20 2
26 21 22 1
27 22 23 1
28 23 24 1
29 24 25 1
30 26 27 1
31 26 28 1
32 3 29 1
33 6 30 1
34 7 31 1
35 8 32 1
36 12 33 1
37 13 34 1
38 14 35 1
39 15 36 1
40 21 37 1
41 21 38 1
42 22 39 1
43 22 40 1
44 23 41 1
45 23 42 1
46 25 43 1
47 25 44 1
48 25 45 1
49 26 46 1
50 27 47 1
51 28 48 1
52 28 49 1
53 28 50 1
@<TRIPOS>SUBSTRUCTURE
1	UNK0	1	GROUP	1 ****	UNK
# created with PyMOL 2.3.2
@<TRIPOS>MOLECULE
1706
30 33 1                 
SMALL
USER_CHARGES
@<TRIPOS>ATOM
1	   F	-1.203	-0.035	-5.519	 F	1	UNK0	0.000	
2	   C	-1.490	-0.033	-4.174	C.2	1	UNK0	0.000	
3	   C	-0.490	0.361	-3.276	C.2	1	UNK0	0.000	
4	   C	-0.754	0.370	-1.940	C.2	1	UNK0	0.000	
5	   C	-2.017	-0.012	-1.467	C.2	1	UNK0	0.000	
6	   C	-2.975	-0.392	-2.366	C.2	1	UNK0	0.000	
7	   C	-2.730	-0.409	-3.718	C.2	1	UNK0	0.000	
8	  Cl	-3.973	-0.901	-4.876	Cl	1	UNK0	0.000	
9	   C	0.464	0.824	-1.219	C.3	1	UNK0	0.000	
10	   N	0.879	-0.193	-0.305	N.pl3	1	UNK0	0.000	
11	   C	0.352	-0.257	1.002	C.2	1	UNK0	0.000	
12	   N	0.462	-1.372	1.770	N.2	1	UNK0	0.000	
13	   C	-0.019	-1.485	3.012	C.2	1	UNK0	0.000	
14	   C	-0.680	-0.403	3.583	C.2	1	UNK0	0.000	
15	   C	-0.834	0.757	2.877	C.2	1	UNK0	0.000	
16	   C	-0.313	0.803	1.602	C.2	1	UNK0	0.000	
17	   C	-0.425	2.000	0.763	C.2	1	UNK0	0.000	
18	   O	-1.031	3.002	1.275	O.2	1	UNK0	0.000	
19	   N	0.104	2.056	-0.539	N.pl3	1	UNK0	0.000	
20	   C	1.448	1.070	-2.279	C.2	1	UNK0	0.000	
21	   O	2.659	1.478	-2.135	O.2	1	UNK0	0.000	
22	   N	0.857	0.787	-3.521	N.pl3	1	UNK0	0.000	
23	   H	-2.203	0.005	-0.389	 H	1	UNK0	0.000	
24	   H	-3.954	-0.689	-2.014	 H	1	UNK0	0.000	
25	   H	1.586	-0.918	-0.580	 H	1	UNK0	0.000	
26	   H	0.078	-2.381	3.607	 H	1	UNK0	0.000	
27	   H	-1.077	-0.465	4.580	 H	1	UNK0	0.000	
28	   H	-1.336	1.642	3.253	 H	1	UNK0	0.000	
29	   H	0.217	3.001	-0.973	 H	1	UNK0	0.000	
30	   H	1.272	0.854	-4.488	 H	1	UNK0	0.000	
@<TRIPOS>BOND
1 1 2 1
2 2 3 2
3 2 7 1
4 3 4 1
5 3 22 1
6 4 5 2
7 4 9 1
8 5 6 1
9 6 7 2
10 7 8 1
11 9 10 1
12 9 19 1
13 9 20 1
14 10 11 1
15 11 12 2
16 11 16 1
17 12 13 1
18 13 14 2
19 14 15 1
20 15 16 2
21 16 17 1
22 17 18 2
23 17 19 1
24 20 21 2
25 20 22 1
26 5 23 1
27 6 24 1
28 10 25 1
29 13 26 1
30 14 27 1
31 15 28 1
32 19 29 1
33 22 30 1
@<TRIPOS>SUBSTRUCTURE
1	UNK0	1	GROUP	1 ****	UNK
# created with PyMOL 2.3.2
@<TRIPOS>MOLECULE
1711
48 51 1                 
SMALL
USER_CHARGES
@<TRIPOS>ATOM
1	   S	-3.124	1.685	-2.453	S.O2	1	UNK0	0.000	
2	   O	-4.126	2.826	-2.342	O.2	1	UNK0	0.000	
3	   O	-3.344	1.102	-3.836	O.2	1	UNK0	0.000	
4	   N	-1.574	2.326	-2.386	N.3	1	UNK0	0.000	
5	   C	-1.200	2.972	-1.177	C.3	1	UNK0	0.000	
6	   C	0.079	2.437	-0.584	C.3	1	UNK0	0.000	
7	   N	0.263	1.033	-0.844	N.pl3	1	UNK0	0.000	
8	   C	0.116	0.539	-2.192	C.3	1	UNK0	0.000	
9	   C	-0.536	1.601	-3.022	C.3	1	UNK0	0.000	
10	   C	0.586	0.110	0.181	C.2	1	UNK0	0.000	
11	   O	0.715	0.528	1.348	O.2	1	UNK0	0.000	
12	   C	0.774	-1.332	-0.094	C.3	1	UNK0	0.000	
13	   N	1.094	-2.052	1.104	N.pl3	1	UNK0	0.000	
14	   C	0.233	-2.682	2.043	C.2	1	UNK0	0.000	
15	   O	-1.014	-2.700	1.951	O.2	1	UNK0	0.000	
16	   C	1.050	-3.278	3.087	C.2	1	UNK0	0.000	
17	   C	2.375	-3.032	2.815	C.2	1	UNK0	0.000	
18	   C	3.349	-3.509	3.682	C.2	1	UNK0	0.000	
19	   C	3.024	-4.220	4.804	C.2	1	UNK0	0.000	
20	   C	1.684	-4.477	5.092	C.2	1	UNK0	0.000	
21	   C	0.727	-3.992	4.213	C.2	1	UNK0	0.000	
22	   C	2.429	-2.265	1.577	C.2	1	UNK0	0.000	
23	   O	3.514	-1.885	1.064	O.2	1	UNK0	0.000	
24	   C	-3.476	0.450	-1.305	C.2	1	UNK0	0.000	
25	   C	-3.989	0.789	-0.064	C.2	1	UNK0	0.000	
26	   C	-4.289	-0.160	0.892	C.2	1	UNK0	0.000	
27	   C	-4.063	-1.488	0.579	C.2	1	UNK0	0.000	
28	   C	-3.551	-1.811	-0.661	C.2	1	UNK0	0.000	
29	   C	-3.247	-0.873	-1.626	C.2	1	UNK0	0.000	
30	  Br	-4.460	-2.864	1.867	Br	1	UNK0	0.000	
31	   H	-1.003	4.056	-1.427	 H	1	UNK0	0.000	
32	   H	-2.037	2.981	-0.448	 H	1	UNK0	0.000	
33	   H	0.071	2.630	0.505	 H	1	UNK0	0.000	
34	   H	0.950	3.019	-0.984	 H	1	UNK0	0.000	
35	   H	1.137	0.362	-2.642	 H	1	UNK0	0.000	
36	   H	-0.437	-0.413	-2.168	 H	1	UNK0	0.000	
37	   H	-0.874	1.203	-3.996	 H	1	UNK0	0.000	
38	   H	0.276	2.343	-3.283	 H	1	UNK0	0.000	
39	   H	1.636	-1.413	-0.813	 H	1	UNK0	0.000	
40	   H	-0.130	-1.770	-0.575	 H	1	UNK0	0.000	
41	   H	4.375	-3.303	3.448	 H	1	UNK0	0.000	
42	   H	3.770	-4.587	5.470	 H	1	UNK0	0.000	
43	   H	1.374	-5.026	5.952	 H	1	UNK0	0.000	
44	   H	-0.312	-4.195	4.443	 H	1	UNK0	0.000	
45	   H	-4.183	1.829	0.222	 H	1	UNK0	0.000	
46	   H	-4.691	0.076	1.869	 H	1	UNK0	0.000	
47	   H	-3.365	-2.862	-0.927	 H	1	UNK0	0.000	
48	   H	-2.842	-1.181	-2.595	 H	1	UNK0	0.000	
@<TRIPOS>BOND
1 1 2 2
2 1 3 2
3 1 4 1
4 1 24 1
5 4 5 1
6 4 9 1
7 5 6 1
8 6 7 1
9 7 8 1
10 7 10 1
11 8 9 1
12 10 11 2
13 10 12 1
14 12 13 1
15 13 14 1
16 13 22 1
17 14 15 2
18 14 16 1
19 16 17 2
20 16 21 1
21 17 18 1
22 17 22 1
23 18 19 2
24 19 20 1
25 20 21 2
26 22 23 2
27 24 25 2
28 24 29 1
29 25 26 1
30 26 27 2
31 27 28 1
32 27 30 1
33 28 29 2
34 5 31 1
35 5 32 1
36 6 33 1
37 6 34 1
38 8 35 1
39 8 36 1
40 9 37 1
41 9 38 1
42 12 39 1
43 12 40 1
44 18 41 1
45 19 42 1
46 20 43 1
47 21 44 1
48 25 45 1
49 26 46 1
50 28 47 1
51 29 48 1
@<TRIPOS>SUBSTRUCTURE
1	UNK0	1	GROUP	1 ****	UNK
# created with PyMOL 2.3.2
@<TRIPOS>MOLECULE
1718
51 55 1                 
SMALL
USER_CHARGES
@<TRIPOS>ATOM
1	  Cl	-5.673	0.150	1.367	Cl	1	UNK0	0.000	
2	   C	-4.265	-0.534	2.147	C.2	1	UNK0	0.000	
3	   C	-3.019	-0.213	1.607	C.2	1	UNK0	0.000	
4	   C	-1.886	-0.732	2.193	C.2	1	UNK0	0.000	
5	   C	-2.044	-1.560	3.306	C.2	1	UNK0	0.000	
6	   C	-3.279	-1.872	3.832	C.2	1	UNK0	0.000	
7	   C	-4.413	-1.351	3.245	C.2	1	UNK0	0.000	
8	   C	-0.685	-0.286	1.487	C.3	1	UNK0	0.000	
9	   N	0.255	0.403	2.351	N.3	1	UNK0	0.000	
10	   C	1.540	0.304	1.672	C.3	1	UNK0	0.000	
11	   C	1.537	-1.018	0.955	C.3	1	UNK0	0.000	
12	   C	0.087	-1.423	0.856	C.3	1	UNK0	0.000	
13	   C	-0.203	-1.543	-0.595	C.2	1	UNK0	0.000	
14	   O	-1.375	-1.740	-1.021	O.2	1	UNK0	0.000	
15	   N	1.000	-1.404	-1.332	N.pl3	1	UNK0	0.000	
16	   C	1.949	-0.790	-0.473	C.2	1	UNK0	0.000	
17	   O	2.989	-0.144	-0.785	O.2	1	UNK0	0.000	
18	   C	1.216	-1.807	-2.674	C.3	1	UNK0	0.000	
19	   C	0.933	-0.818	-3.734	C.3	1	UNK0	0.000	
20	   O	1.672	0.353	-3.664	O.3	1	UNK0	0.000	
21	   C	1.261	0.998	-4.831	C.3	1	UNK0	0.000	
22	   C	-0.264	0.834	-4.851	C.3	1	UNK0	0.000	
23	   C	-0.461	-0.324	-3.858	C.3	1	UNK0	0.000	
24	   C	2.638	0.400	2.690	C.3	1	UNK0	0.000	
25	   C	2.493	1.727	3.369	C.2	1	UNK0	0.000	
26	   O	3.333	1.995	4.266	O.2	1	UNK0	0.000	
27	   N	1.469	2.649	3.034	N.pl3	1	UNK0	0.000	
28	   C	-1.188	0.574	0.404	C.2	1	UNK0	0.000	
29	   O	-0.497	1.202	-0.479	O.2	1	UNK0	0.000	
30	   N	-2.601	0.589	0.510	N.pl3	1	UNK0	0.000	
31	   H	-1.186	-1.997	3.808	 H	1	UNK0	0.000	
32	   H	-3.398	-2.514	4.695	 H	1	UNK0	0.000	
33	   H	-5.375	-1.607	3.672	 H	1	UNK0	0.000	
34	   H	0.293	-0.021	3.305	 H	1	UNK0	0.000	
35	   H	1.579	1.139	0.953	 H	1	UNK0	0.000	
36	   H	2.169	-1.755	1.454	 H	1	UNK0	0.000	
37	   H	-0.083	-2.362	1.380	 H	1	UNK0	0.000	
38	   H	2.291	-2.128	-2.820	 H	1	UNK0	0.000	
39	   H	0.645	-2.743	-2.949	 H	1	UNK0	0.000	
40	   H	1.203	-1.291	-4.710	 H	1	UNK0	0.000	
41	   H	1.653	0.514	-5.739	 H	1	UNK0	0.000	
42	   H	1.557	2.059	-4.854	 H	1	UNK0	0.000	
43	   H	-0.713	1.762	-4.508	 H	1	UNK0	0.000	
44	   H	-0.615	0.501	-5.856	 H	1	UNK0	0.000	
45	   H	-0.901	0.127	-2.970	 H	1	UNK0	0.000	
46	   H	-1.151	-1.070	-4.317	 H	1	UNK0	0.000	
47	   H	3.602	0.356	2.137	 H	1	UNK0	0.000	
48	   H	2.565	-0.427	3.405	 H	1	UNK0	0.000	
49	   H	1.555	3.171	2.140	 H	1	UNK0	0.000	
50	   H	0.636	2.836	3.626	 H	1	UNK0	0.000	
51	   H	-3.259	1.115	-0.127	 H	1	UNK0	0.000	
@<TRIPOS>BOND
1 1 2 1
2 2 3 2
3 2 7 1
4 3 4 1
5 3 30 1
6 4 5 2
7 4 8 1
8 5 6 1
9 6 7 2
10 8 9 1
11 8 12 1
12 8 28 1
13 9 10 1
14 10 11 1
15 10 24 1
16 11 12 1
17 11 16 1
18 12 13 1
19 13 14 2
20 13 15 1
21 15 16 1
22 15 18 1
23 16 17 2
24 18 19 1
25 19 20 1
26 19 23 1
27 20 21 1
28 21 22 1
29 22 23 1
30 24 25 1
31 25 26 2
32 25 27 1
33 28 29 2
34 28 30 1
35 5 31 1
36 6 32 1
37 7 33 1
38 9 34 1
39 10 35 1
40 11 36 1
41 12 37 1
42 18 38 1
43 18 39 1
44 19 40 1
45 21 41 1
46 21 42 1
47 22 43 1
48 22 44 1
49 23 45 1
50 23 46 1
51 24 47 1
52 24 48 1
53 27 49 1
54 27 50 1
55 30 51 1
@<TRIPOS>SUBSTRUCTURE
1	UNK0	1	GROUP	1 ****	UNK
# created with PyMOL 2.3.2
@<TRIPOS>MOLECULE
1721
43 46 1                 
SMALL
USER_CHARGES
@<TRIPOS>ATOM
1	  Cl	4.140	-0.409	0.571	Cl	1	UNK0	0.000	
2	   C	2.899	0.693	0.035	C.2	1	UNK0	0.000	
3	   N	2.751	1.894	0.578	N.2	1	UNK0	0.000	
4	   C	1.830	2.798	0.228	C.2	1	UNK0	0.000	
5	   N	1.503	4.038	0.626	N.2	1	UNK0	0.000	
6	   C	0.462	4.476	-0.102	C.2	1	UNK0	0.000	
7	   N	0.149	3.486	-0.959	N.pl3	1	UNK0	0.000	
8	   C	0.961	2.431	-0.796	C.2	1	UNK0	0.000	
9	   C	1.106	1.189	-1.366	C.2	1	UNK0	0.000	
10	   N	2.056	0.336	-0.960	N.2	1	UNK0	0.000	
11	   N	0.184	0.849	-2.428	N.pl3	1	UNK0	0.000	
12	   C	0.282	-0.416	-3.053	C.3	1	UNK0	0.000	
13	   C	-0.306	-1.536	-2.335	C.2	1	UNK0	0.000	
14	   O	-0.063	-2.718	-2.942	O.2	1	UNK0	0.000	
15	   N	-1.044	-1.604	-1.186	N.pl3	1	UNK0	0.000	
16	   C	-1.549	-0.535	-0.394	C.3	1	UNK0	0.000	
17	   C	-0.928	-0.520	1.001	C.3	1	UNK0	0.000	
18	   N	-0.649	-1.893	1.310	N.pl3	1	UNK0	0.000	
19	   C	-1.567	-2.886	0.833	C.3	1	UNK0	0.000	
20	   C	-1.344	-2.997	-0.679	C.3	1	UNK0	0.000	
21	   C	0.475	-2.290	2.056	C.2	1	UNK0	0.000	
22	   N	0.734	-3.603	2.324	N.2	1	UNK0	0.000	
23	   C	1.769	-4.042	3.018	C.2	1	UNK0	0.000	
24	   C	2.695	-3.185	3.543	C.2	1	UNK0	0.000	
25	   C	2.492	-1.833	3.308	C.2	1	UNK0	0.000	
26	   C	1.399	-1.396	2.576	C.2	1	UNK0	0.000	
27	   H	-0.056	5.436	-0.043	 H	1	UNK0	0.000	
28	   H	-0.620	3.484	-1.681	 H	1	UNK0	0.000	
29	   H	-0.522	1.530	-2.721	 H	1	UNK0	0.000	
30	   H	-0.081	-0.378	-4.130	 H	1	UNK0	0.000	
31	   H	1.406	-0.648	-3.111	 H	1	UNK0	0.000	
32	   H	-1.417	0.426	-0.849	 H	1	UNK0	0.000	
33	   H	-2.671	-0.738	-0.233	 H	1	UNK0	0.000	
34	   H	-1.684	-0.144	1.732	 H	1	UNK0	0.000	
35	   H	-0.080	0.148	1.006	 H	1	UNK0	0.000	
36	   H	-2.628	-2.586	0.967	 H	1	UNK0	0.000	
37	   H	-1.349	-3.874	1.270	 H	1	UNK0	0.000	
38	   H	-2.240	-3.363	-1.162	 H	1	UNK0	0.000	
39	   H	-0.449	-3.576	-0.924	 H	1	UNK0	0.000	
40	   H	1.899	-5.120	3.186	 H	1	UNK0	0.000	
41	   H	3.527	-3.548	4.102	 H	1	UNK0	0.000	
42	   H	3.225	-1.126	3.720	 H	1	UNK0	0.000	
43	   H	1.287	-0.354	2.424	 H	1	UNK0	0.000	
@<TRIPOS>BOND
1 1 2 1
2 2 3 2
3 2 10 1
4 3 4 1
5 4 5 1
6 4 8 2
7 5 6 2
8 6 7 1
9 7 8 1
10 8 9 1
11 9 10 2
12 9 11 1
13 11 12 1
14 12 13 1
15 13 14 2
16 13 15 1
17 15 16 1
18 15 20 1
19 16 17 1
20 17 18 1
21 18 19 1
22 18 21 1
23 19 20 1
24 21 22 2
25 21 26 1
26 22 23 1
27 23 24 2
28 24 25 1
29 25 26 2
30 6 27 1
31 7 28 1
32 11 29 1
33 12 30 1
34 12 31 1
35 16 32 1
36 16 33 1
37 17 34 1
38 17 35 1
39 19 36 1
40 19 37 1
41 20 38 1
42 20 39 1
43 23 40 1
44 24 41 1
45 25 42 1
46 26 43 1
@<TRIPOS>SUBSTRUCTURE
1	UNK0	1	GROUP	1 ****	UNK
# created with PyMOL 2.3.2
@<TRIPOS>MOLECULE
1726
53 56 1                 
SMALL
USER_CHARGES
@<TRIPOS>ATOM
1	  Br	2.716	2.993	-0.360	Br	1	UNK0	0.000	
2	   C	2.394	2.645	-2.205	C.2	1	UNK0	0.000	
3	   C	2.210	1.340	-2.603	C.2	1	UNK0	0.000	
4	   C	1.978	1.105	-3.940	C.2	1	UNK0	0.000	
5	   C	1.932	2.158	-4.859	C.2	1	UNK0	0.000	
6	   C	2.121	3.457	-4.428	C.2	1	UNK0	0.000	
7	   C	2.352	3.706	-3.107	C.2	1	UNK0	0.000	
8	   C	2.077	4.601	-5.391	C.3	1	UNK0	0.000	
9	  Br	1.719	-0.688	-4.523	Br	1	UNK0	0.000	
10	   O	2.257	0.335	-1.696	O.3	1	UNK0	0.000	
11	   C	3.372	-0.405	-1.291	C.3	1	UNK0	0.000	
12	   C	2.876	-1.410	-0.252	C.3	1	UNK0	0.000	
13	   O	3.918	-2.205	0.222	O.3	1	UNK0	0.000	
14	   C	2.294	-0.613	0.871	C.3	1	UNK0	0.000	
15	   N	1.754	-1.421	1.947	N.4	1	UNK0	0.000	
16	   C	1.607	-0.570	3.080	C.3	1	UNK0	0.000	
17	   C	0.265	-0.609	3.740	C.3	1	UNK0	0.000	
18	   C	-0.820	0.061	2.974	C.3	1	UNK0	0.000	
19	   N	-1.840	-0.817	2.473	N.pl3	1	UNK0	0.000	
20	   C	-1.676	-2.136	2.259	C.2	1	UNK0	0.000	
21	   C	-2.645	-2.971	1.782	C.2	1	UNK0	0.000	
22	   C	-3.888	-2.445	1.494	C.2	1	UNK0	0.000	
23	   C	-4.064	-1.099	1.710	C.2	1	UNK0	0.000	
24	   C	-3.065	-0.287	2.191	C.2	1	UNK0	0.000	
25	   O	-3.263	0.942	2.376	O.2	1	UNK0	0.000	
26	   C	-0.293	-2.648	2.593	C.3	1	UNK0	0.000	
27	   C	0.617	-2.153	1.540	C.3	1	UNK0	0.000	
28	   C	-0.024	-2.097	3.972	C.3	1	UNK0	0.000	
29	   H	1.752	1.984	-5.909	 H	1	UNK0	0.000	
30	   H	2.497	4.737	-2.799	 H	1	UNK0	0.000	
31	   H	2.890	5.306	-5.137	 H	1	UNK0	0.000	
32	   H	1.114	5.169	-5.249	 H	1	UNK0	0.000	
33	   H	2.137	4.250	-6.446	 H	1	UNK0	0.000	
34	   H	3.921	-0.896	-2.104	 H	1	UNK0	0.000	
35	   H	4.075	0.268	-0.760	 H	1	UNK0	0.000	
36	   H	2.171	-2.065	-0.765	 H	1	UNK0	0.000	
37	   H	4.704	-1.596	0.320	 H	1	UNK0	0.000	
38	   H	3.096	0.022	1.299	 H	1	UNK0	0.000	
39	   H	1.494	0.077	0.535	 H	1	UNK0	0.000	
40	   H	2.523	-2.122	2.176	 H	1	UNK0	0.000	
41	   H	2.365	-0.801	3.887	 H	1	UNK0	0.000	
42	   H	1.810	0.517	2.845	 H	1	UNK0	0.000	
43	   H	0.389	-0.175	4.774	 H	1	UNK0	0.000	
44	   H	-1.340	0.787	3.666	 H	1	UNK0	0.000	
45	   H	-0.432	0.714	2.146	 H	1	UNK0	0.000	
46	   H	-2.406	-4.015	1.647	 H	1	UNK0	0.000	
47	   H	-4.658	-3.099	1.117	 H	1	UNK0	0.000	
48	   H	-5.031	-0.652	1.493	 H	1	UNK0	0.000	
49	   H	-0.333	-3.754	2.691	 H	1	UNK0	0.000	
50	   H	0.981	-3.065	0.977	 H	1	UNK0	0.000	
51	   H	0.094	-1.552	0.738	 H	1	UNK0	0.000	
52	   H	0.822	-2.560	4.478	 H	1	UNK0	0.000	
53	   H	-0.958	-2.111	4.595	 H	1	UNK0	0.000	
@<TRIPOS>BOND
1 1 2 1
2 2 3 2
3 2 7 1
4 3 4 1
5 3 10 1
6 4 5 2
7 4 9 1
8 5 6 1
9 6 7 2
10 6 8 1
11 10 11 1
12 11 12 1
13 12 13 1
14 12 14 1
15 14 15 1
16 15 16 1
17 15 27 1
18 16 17 1
19 17 18 1
20 17 28 1
21 18 19 1
22 19 20 1
23 19 24 1
24 20 21 2
25 20 26 1
26 21 22 1
27 22 23 2
28 23 24 1
29 24 25 2
30 26 27 1
31 26 28 1
32 5 29 1
33 7 30 1
34 8 31 1
35 8 32 1
36 8 33 1
37 11 34 1
38 11 35 1
39 12 36 1
40 13 37 1
41 14 38 1
42 14 39 1
43 15 40 1
44 16 41 1
45 16 42 1
46 17 43 1
47 18 44 1
48 18 45 1
49 21 46 1
50 22 47 1
51 23 48 1
52 26 49 1
53 27 50 1
54 27 51 1
55 28 52 1
56 28 53 1
@<TRIPOS>SUBSTRUCTURE
1	UNK0	1	GROUP	1 ****	UNK
# created with PyMOL 2.3.2
@<TRIPOS>MOLECULE
1732
39 42 1                 
SMALL
USER_CHARGES
@<TRIPOS>ATOM
1	  Br	3.093	0.720	0.171	Br	1	UNK0	0.000	
2	   C	3.808	-1.031	0.087	C.2	1	UNK0	0.000	
3	   C	3.189	-1.954	-0.757	C.2	1	UNK0	0.000	
4	   C	3.764	-3.211	-0.767	C.2	1	UNK0	0.000	
5	   C	4.881	-3.537	0.006	C.2	1	UNK0	0.000	
6	   C	5.446	-2.585	0.817	C.2	1	UNK0	0.000	
7	   C	4.906	-1.319	0.860	C.2	1	UNK0	0.000	
8	   N	2.062	-1.584	-1.521	N.pl3	1	UNK0	0.000	
9	   C	1.316	-2.358	-2.410	C.2	1	UNK0	0.000	
10	   O	1.596	-3.550	-2.634	O.2	1	UNK0	0.000	
11	   C	0.147	-1.798	-3.138	C.3	1	UNK0	0.000	
12	   N	-0.063	-0.387	-2.776	N.pl3	1	UNK0	0.000	
13	   N	0.456	0.676	-3.368	N.2	1	UNK0	0.000	
14	   N	0.039	1.781	-2.760	N.2	1	UNK0	0.000	
15	   C	-0.774	1.420	-1.745	C.2	1	UNK0	0.000	
16	   N	-0.810	0.078	-1.789	N.2	1	UNK0	0.000	
17	   C	-1.457	2.304	-0.812	C.2	1	UNK0	0.000	
18	   C	-2.247	1.734	0.159	C.2	1	UNK0	0.000	
19	   C	-2.897	2.576	1.046	C.2	1	UNK0	0.000	
20	   C	-2.775	3.941	0.981	C.2	1	UNK0	0.000	
21	   C	-1.983	4.515	0.007	C.2	1	UNK0	0.000	
22	   C	-1.334	3.672	-0.878	C.2	1	UNK0	0.000	
23	   N	-2.423	0.324	0.290	N.pl3	1	UNK0	0.000	
24	   N	-3.171	-0.410	-0.524	N.2	1	UNK0	0.000	
25	   N	-3.121	-1.663	-0.130	N.2	1	UNK0	0.000	
26	   N	-2.336	-1.726	0.943	N.2	1	UNK0	0.000	
27	   C	-1.898	-0.477	1.206	C.2	1	UNK0	0.000	
28	   H	3.377	-3.995	-1.372	 H	1	UNK0	0.000	
29	   H	5.308	-4.521	-0.021	 H	1	UNK0	0.000	
30	   H	6.307	-2.787	1.431	 H	1	UNK0	0.000	
31	   H	5.375	-0.595	1.508	 H	1	UNK0	0.000	
32	   H	1.737	-0.578	-1.404	 H	1	UNK0	0.000	
33	   H	-0.776	-2.369	-2.978	 H	1	UNK0	0.000	
34	   H	0.326	-1.778	-4.245	 H	1	UNK0	0.000	
35	   H	-3.522	2.138	1.816	 H	1	UNK0	0.000	
36	   H	-3.281	4.614	1.674	 H	1	UNK0	0.000	
37	   H	-1.874	5.596	-0.059	 H	1	UNK0	0.000	
38	   H	-0.719	4.145	-1.632	 H	1	UNK0	0.000	
39	   H	-1.243	-0.162	2.005	 H	1	UNK0	0.000	
@<TRIPOS>BOND
1 1 2 1
2 2 3 2
3 2 7 1
4 3 4 1
5 3 8 1
6 4 5 2
7 5 6 1
8 6 7 2
9 8 9 1
10 9 10 2
11 9 11 1
12 11 12 1
13 12 13 1
14 12 16 1
15 13 14 2
16 14 15 1
17 15 16 2
18 15 17 1
19 17 18 1
20 17 22 2
21 18 19 2
22 18 23 1
23 19 20 1
24 20 21 2
25 21 22 1
26 23 24 1
27 23 27 1
28 24 25 2
29 25 26 1
30 26 27 2
31 4 28 1
32 5 29 1
33 6 30 1
34 7 31 1
35 8 32 1
36 11 33 1
37 11 34 1
38 19 35 1
39 20 36 1
40 21 37 1
41 22 38 1
42 27 39 1
@<TRIPOS>SUBSTRUCTURE
1	UNK0	1	GROUP	1 ****	UNK
# created with PyMOL 2.3.2
@<TRIPOS>MOLECULE
1736
54 58 1                 
SMALL
USER_CHARGES
@<TRIPOS>ATOM
1	  Cl	-3.082	1.603	2.490	Cl	1	UNK0	0.000	
2	   C	-1.385	1.386	2.948	C.2	1	UNK0	0.000	
3	   C	-0.556	0.572	2.217	C.2	1	UNK0	0.000	
4	   C	0.755	0.410	2.578	C.2	1	UNK0	0.000	
5	   C	1.235	1.070	3.681	C.2	1	UNK0	0.000	
6	   C	0.417	1.904	4.443	C.2	1	UNK0	0.000	
7	   C	-0.896	2.046	4.054	C.2	1	UNK0	0.000	
8	   N	2.603	0.778	3.897	N.pl3	1	UNK0	0.000	
9	   C	2.993	-0.117	2.866	C.2	1	UNK0	0.000	
10	   O	4.133	-0.608	2.721	O.2	1	UNK0	0.000	
11	   C	1.847	-0.390	1.978	C.3	1	UNK0	0.000	
12	   N	1.524	-1.794	1.907	N.3	1	UNK0	0.000	
13	   C	1.110	-2.079	0.569	C.3	1	UNK0	0.000	
14	   C	1.890	-1.156	-0.338	C.3	1	UNK0	0.000	
15	   C	2.179	0.001	0.584	C.3	1	UNK0	0.000	
16	   C	1.401	1.154	0.068	C.2	1	UNK0	0.000	
17	   O	1.046	2.201	0.666	O.2	1	UNK0	0.000	
18	   N	1.111	0.846	-1.311	N.pl3	1	UNK0	0.000	
19	   C	1.072	-0.590	-1.441	C.2	1	UNK0	0.000	
20	   O	0.466	-1.260	-2.317	O.2	1	UNK0	0.000	
21	   C	0.895	1.791	-2.386	C.3	1	UNK0	0.000	
22	   C	-0.555	2.137	-2.480	C.2	1	UNK0	0.000	
23	   C	-1.009	3.024	-3.433	C.2	1	UNK0	0.000	
24	   C	-2.358	3.328	-3.500	C.2	1	UNK0	0.000	
25	   C	-3.278	2.767	-2.636	C.2	1	UNK0	0.000	
26	   C	-2.835	1.880	-1.680	C.2	1	UNK0	0.000	
27	   C	-1.492	1.586	-1.624	C.2	1	UNK0	0.000	
28	   O	-0.076	3.591	-4.307	O.3	1	UNK0	0.000	
29	   C	-0.546	4.512	-5.297	C.3	1	UNK0	0.000	
30	   C	1.328	-3.533	0.209	C.3	1	UNK0	0.000	
31	   O	0.898	-3.710	-1.103	O.3	1	UNK0	0.000	
32	   C	0.378	-4.343	1.085	C.3	1	UNK0	0.000	
33	   H	-1.007	0.086	1.362	 H	1	UNK0	0.000	
34	   H	0.789	2.427	5.313	 H	1	UNK0	0.000	
35	   H	-1.588	2.685	4.610	 H	1	UNK0	0.000	
36	   H	3.249	1.132	4.662	 H	1	UNK0	0.000	
37	   H	0.808	-2.031	2.601	 H	1	UNK0	0.000	
38	   H	0.049	-1.864	0.452	 H	1	UNK0	0.000	
39	   H	2.802	-1.639	-0.736	 H	1	UNK0	0.000	
40	   H	3.279	0.183	0.515	 H	1	UNK0	0.000	
41	   H	1.460	2.738	-2.248	 H	1	UNK0	0.000	
42	   H	1.224	1.385	-3.367	 H	1	UNK0	0.000	
43	   H	-2.721	4.018	-4.239	 H	1	UNK0	0.000	
44	   H	-4.335	2.991	-2.673	 H	1	UNK0	0.000	
45	   H	-3.508	1.407	-0.974	 H	1	UNK0	0.000	
46	   H	-1.162	0.901	-0.885	 H	1	UNK0	0.000	
47	   H	-1.278	3.978	-5.925	 H	1	UNK0	0.000	
48	   H	0.328	4.862	-5.887	 H	1	UNK0	0.000	
49	   H	-1.033	5.383	-4.854	 H	1	UNK0	0.000	
50	   H	2.371	-3.846	0.315	 H	1	UNK0	0.000	
51	   H	-0.085	-3.744	-1.126	 H	1	UNK0	0.000	
52	   H	-0.122	-5.148	0.491	 H	1	UNK0	0.000	
53	   H	0.895	-4.745	1.978	 H	1	UNK0	0.000	
54	   H	-0.454	-3.703	1.463	 H	1	UNK0	0.000	
@<TRIPOS>BOND
1 1 2 1
2 2 3 2
3 2 7 1
4 3 4 1
5 4 5 2
6 4 11 1
7 5 6 1
8 5 8 1
9 6 7 2
10 8 9 1
11 9 10 2
12 9 11 1
13 11 12 1
14 11 15 1
15 12 13 1
16 13 14 1
17 13 30 1
18 14 15 1
19 14 19 1
20 15 16 1
21 16 17 2
22 16 18 1
23 18 19 1
24 18 21 1
25 19 20 2
26 21 22 1
27 22 23 2
28 22 27 1
29 23 24 1
30 23 28 1
31 24 25 2
32 25 26 1
33 26 27 2
34 28 29 1
35 30 31 1
36 30 32 1
37 3 33 1
38 6 34 1
39 7 35 1
40 8 36 1
41 12 37 1
42 13 38 1
43 14 39 1
44 15 40 1
45 21 41 1
46 21 42 1
47 24 43 1
48 25 44 1
49 26 45 1
50 27 46 1
51 29 47 1
52 29 48 1
53 29 49 1
54 30 50 1
55 31 51 1
56 32 52 1
57 32 53 1
58 32 54 1
@<TRIPOS>SUBSTRUCTURE
1	UNK0	1	GROUP	1 ****	UNK
# created with PyMOL 2.3.2
@<TRIPOS>MOLECULE
1741
53 56 1                 
SMALL
USER_CHARGES
@<TRIPOS>ATOM
1	  Br	-0.976	3.658	5.763	Br	1	UNK0	0.000	
2	   C	-1.033	2.056	4.710	C.2	1	UNK0	0.000	
3	   C	-1.812	0.976	5.131	C.2	1	UNK0	0.000	
4	   C	-1.838	-0.175	4.350	C.2	1	UNK0	0.000	
5	   C	-1.121	-0.278	3.181	C.2	1	UNK0	0.000	
6	   N	-1.319	-1.501	2.610	N.pl3	1	UNK0	0.000	
7	   C	-2.157	-2.148	3.429	C.2	1	UNK0	0.000	
8	   C	-2.504	-1.370	4.515	C.2	1	UNK0	0.000	
9	   C	-0.717	-1.954	1.374	C.3	1	UNK0	0.000	
10	   C	-1.564	-1.608	0.182	C.2	1	UNK0	0.000	
11	   O	-2.641	-1.008	0.368	O.2	1	UNK0	0.000	
12	   N	-1.158	-1.950	-1.116	N.pl3	1	UNK0	0.000	
13	   C	-1.929	-1.637	-2.299	C.3	1	UNK0	0.000	
14	   C	-0.993	-0.923	-3.260	C.3	1	UNK0	0.000	
15	   N	0.247	-0.642	-2.666	N.3	1	UNK0	0.000	
16	   C	1.015	-1.680	-2.112	C.3	1	UNK0	0.000	
17	   C	0.103	-2.659	-1.381	C.3	1	UNK0	0.000	
18	   C	0.639	0.692	-2.472	C.3	1	UNK0	0.000	
19	   C	0.927	1.437	-3.726	C.2	1	UNK0	0.000	
20	   O	0.789	0.801	-4.801	O.2	1	UNK0	0.000	
21	   N	1.335	2.779	-3.762	N.pl3	1	UNK0	0.000	
22	   C	1.605	3.429	-5.029	C.3	1	UNK0	0.000	
23	   C	0.766	4.689	-5.071	C.3	1	UNK0	0.000	
24	   O	1.278	5.513	-4.058	O.3	1	UNK0	0.000	
25	   C	1.036	4.993	-2.809	C.3	1	UNK0	0.000	
26	   C	1.517	3.602	-2.583	C.3	1	UNK0	0.000	
27	   C	-0.352	0.782	2.760	C.2	1	UNK0	0.000	
28	   C	-0.321	1.936	3.536	C.2	1	UNK0	0.000	
29	   H	-2.361	1.077	6.044	 H	1	UNK0	0.000	
30	   H	-2.517	-3.158	3.259	 H	1	UNK0	0.000	
31	   H	-3.151	-1.593	5.346	 H	1	UNK0	0.000	
32	   H	0.282	-1.495	1.205	 H	1	UNK0	0.000	
33	   H	-0.619	-3.061	1.348	 H	1	UNK0	0.000	
34	   H	-2.845	-1.084	-2.078	 H	1	UNK0	0.000	
35	   H	-2.261	-2.582	-2.814	 H	1	UNK0	0.000	
36	   H	-1.495	0.064	-3.482	 H	1	UNK0	0.000	
37	   H	-0.956	-1.440	-4.245	 H	1	UNK0	0.000	
38	   H	1.696	-2.201	-2.791	 H	1	UNK0	0.000	
39	   H	1.672	-1.245	-1.301	 H	1	UNK0	0.000	
40	   H	-0.150	-3.460	-2.104	 H	1	UNK0	0.000	
41	   H	0.526	-3.017	-0.445	 H	1	UNK0	0.000	
42	   H	-0.141	1.212	-1.848	 H	1	UNK0	0.000	
43	   H	1.557	0.694	-1.821	 H	1	UNK0	0.000	
44	   H	2.678	3.781	-5.011	 H	1	UNK0	0.000	
45	   H	1.443	2.763	-5.889	 H	1	UNK0	0.000	
46	   H	0.956	5.212	-6.039	 H	1	UNK0	0.000	
47	   H	-0.291	4.435	-4.927	 H	1	UNK0	0.000	
48	   H	1.547	5.654	-2.069	 H	1	UNK0	0.000	
49	   H	-0.050	5.122	-2.616	 H	1	UNK0	0.000	
50	   H	2.592	3.625	-2.313	 H	1	UNK0	0.000	
51	   H	0.990	3.194	-1.699	 H	1	UNK0	0.000	
52	   H	0.229	0.740	1.842	 H	1	UNK0	0.000	
53	   H	0.290	2.758	3.186	 H	1	UNK0	0.000	
@<TRIPOS>BOND
1 1 2 1
2 2 3 2
3 2 28 1
4 3 4 1
5 4 5 2
6 4 8 1
7 5 6 1
8 5 27 1
9 6 7 1
10 6 9 1
11 7 8 2
12 9 10 1
13 10 11 2
14 10 12 1
15 12 13 1
16 12 17 1
17 13 14 1
18 14 15 1
19 15 16 1
20 15 18 1
21 16 17 1
22 18 19 1
23 19 20 2
24 19 21 1
25 21 22 1
26 21 26 1
27 22 23 1
28 23 24 1
29 24 25 1
30 25 26 1
31 27 28 2
32 3 29 1
33 7 30 1
34 8 31 1
35 9 32 1
36 9 33 1
37 13 34 1
38 13 35 1
39 14 36 1
40 14 37 1
41 16 38 1
42 16 39 1
43 17 40 1
44 17 41 1
45 18 42 1
46 18 43 1
47 22 44 1
48 22 45 1
49 23 46 1
50 23 47 1
51 25 48 1
52 25 49 1
53 26 50 1
54 26 51 1
55 27 52 1
56 28 53 1
@<TRIPOS>SUBSTRUCTURE
1	UNK0	1	GROUP	1 ****	UNK
# created with PyMOL 2.3.2
@<TRIPOS>MOLECULE
1744
47 50 1                 
SMALL
USER_CHARGES
@<TRIPOS>ATOM
1	  Cl	-0.071	5.377	0.392	Cl	1	UNK0	0.000	
2	   C	0.231	4.337	1.758	C.2	1	UNK0	0.000	
3	   C	0.767	3.084	1.593	C.2	1	UNK0	0.000	
4	   C	1.025	2.232	2.653	C.2	1	UNK0	0.000	
5	   C	0.732	2.666	3.910	C.2	1	UNK0	0.000	
6	   C	0.187	3.927	4.132	C.2	1	UNK0	0.000	
7	   C	-0.056	4.746	3.048	C.2	1	UNK0	0.000	
8	   N	1.567	0.933	2.444	N.pl3	1	UNK0	0.000	
9	   C	2.795	0.846	1.723	C.2	1	UNK0	0.000	
10	   O	3.417	1.845	1.286	O.2	1	UNK0	0.000	
11	   N	3.348	-0.447	1.487	N.pl3	1	UNK0	0.000	
12	   C	2.659	-1.608	1.976	C.2	1	UNK0	0.000	
13	   O	3.319	-2.700	1.942	O.2	1	UNK0	0.000	
14	   C	1.277	-1.556	2.487	C.3	1	UNK0	0.000	
15	   C	0.872	-0.203	2.941	C.2	1	UNK0	0.000	
16	   O	-0.080	-0.108	3.754	O.2	1	UNK0	0.000	
17	   C	0.307	-2.061	1.445	C.2	1	UNK0	0.000	
18	   C	0.643	-2.358	0.203	C.2	1	UNK0	0.000	
19	   C	-0.612	-2.801	-0.444	C.3	1	UNK0	0.000	
20	   N	-1.357	-3.335	0.682	N.pl3	1	UNK0	0.000	
21	   N	-1.084	-2.320	1.632	N.pl3	1	UNK0	0.000	
22	   C	-1.330	-1.645	-1.050	C.2	1	UNK0	0.000	
23	   C	-2.572	-1.702	-1.615	C.2	1	UNK0	0.000	
24	   C	-3.211	-0.591	-2.129	C.2	1	UNK0	0.000	
25	   C	-2.598	0.648	-2.088	C.2	1	UNK0	0.000	
26	   C	-1.321	0.700	-1.506	C.2	1	UNK0	0.000	
27	   C	-0.699	-0.417	-1.000	C.2	1	UNK0	0.000	
28	   O	-3.205	1.776	-2.585	O.3	1	UNK0	0.000	
29	   C	-2.588	3.045	-2.521	C.3	1	UNK0	0.000	
30	   O	-4.490	-0.704	-2.702	O.3	1	UNK0	0.000	
31	   H	1.015	2.711	0.593	 H	1	UNK0	0.000	
32	   H	0.922	2.021	4.769	 H	1	UNK0	0.000	
33	   H	-0.021	4.201	5.144	 H	1	UNK0	0.000	
34	   H	-0.477	5.713	3.237	 H	1	UNK0	0.000	
35	   H	4.250	-0.584	0.962	 H	1	UNK0	0.000	
36	   H	1.257	-2.202	3.396	 H	1	UNK0	0.000	
37	   H	1.632	-2.283	-0.215	 H	1	UNK0	0.000	
38	   H	-0.456	-3.586	-1.211	 H	1	UNK0	0.000	
39	   H	-2.354	-3.491	0.513	 H	1	UNK0	0.000	
40	   H	-1.672	-1.841	2.314	 H	1	UNK0	0.000	
41	   H	-3.078	-2.633	-1.666	 H	1	UNK0	0.000	
42	   H	-0.871	1.685	-1.493	 H	1	UNK0	0.000	
43	   H	0.297	-0.283	-0.564	 H	1	UNK0	0.000	
44	   H	-2.237	3.259	-1.475	 H	1	UNK0	0.000	
45	   H	-3.332	3.865	-2.730	 H	1	UNK0	0.000	
46	   H	-1.718	3.147	-3.188	 H	1	UNK0	0.000	
47	   H	-4.924	-1.621	-2.722	 H	1	UNK0	0.000	
@<TRIPOS>BOND
1 1 2 1
2 2 3 2
3 2 7 1
4 3 4 1
5 4 5 2
6 4 8 1
7 5 6 1
8 6 7 2
9 8 9 1
10 8 15 1
11 9 10 2
12 9 11 1
13 11 12 1
14 12 13 2
15 12 14 1
16 14 15 1
17 14 17 1
18 15 16 2
19 17 18 2
20 17 21 1
21 18 19 1
22 19 20 1
23 19 22 1
24 20 21 1
25 22 23 2
26 22 27 1
27 23 24 1
28 24 25 2
29 24 30 1
30 25 26 1
31 25 28 1
32 26 27 2
33 28 29 1
34 3 31 1
35 5 32 1
36 6 33 1
37 7 34 1
38 11 35 1
39 14 36 1
40 18 37 1
41 19 38 1
42 20 39 1
43 21 40 1
44 23 41 1
45 26 42 1
46 27 43 1
47 29 44 1
48 29 45 1
49 29 46 1
50 30 47 1
@<TRIPOS>SUBSTRUCTURE
1	UNK0	1	GROUP	1 ****	UNK
# created with PyMOL 2.3.2
@<TRIPOS>MOLECULE
1745
47 50 1                 
SMALL
USER_CHARGES
@<TRIPOS>ATOM
1	  Cl	-5.995	3.661	3.140	Cl	1	UNK0	0.000	
2	   C	-4.760	2.433	3.074	C.2	1	UNK0	0.000	
3	   C	-4.335	1.982	1.844	C.2	1	UNK0	0.000	
4	   C	-3.345	1.001	1.712	C.2	1	UNK0	0.000	
5	   C	-2.820	0.512	2.879	C.2	1	UNK0	0.000	
6	   C	-3.240	0.957	4.114	C.2	1	UNK0	0.000	
7	   C	-4.228	1.938	4.235	C.2	1	UNK0	0.000	
8	   N	-2.968	0.617	0.397	N.pl3	1	UNK0	0.000	
9	   C	-3.319	-0.613	-0.216	C.2	1	UNK0	0.000	
10	   O	-3.972	-1.474	0.389	O.2	1	UNK0	0.000	
11	   N	-2.914	-0.882	-1.566	N.pl3	1	UNK0	0.000	
12	   C	-2.162	0.074	-2.311	C.2	1	UNK0	0.000	
13	   O	-2.154	0.091	-3.554	O.2	1	UNK0	0.000	
14	   C	-1.353	1.092	-1.551	C.3	1	UNK0	0.000	
15	   C	-2.201	1.527	-0.421	C.2	1	UNK0	0.000	
16	   O	-2.296	2.768	-0.107	O.2	1	UNK0	0.000	
17	   C	-0.067	0.470	-1.115	C.2	1	UNK0	0.000	
18	   C	0.366	0.227	0.105	C.2	1	UNK0	0.000	
19	   C	1.710	-0.407	0.015	C.3	1	UNK0	0.000	
20	   N	2.153	0.081	-1.316	N.pl3	1	UNK0	0.000	
21	   N	0.950	0.047	-2.033	N.pl3	1	UNK0	0.000	
22	   C	1.543	-1.878	-0.136	C.2	1	UNK0	0.000	
23	   C	1.943	-2.548	-1.312	C.2	1	UNK0	0.000	
24	   C	1.842	-3.894	-1.482	C.2	1	UNK0	0.000	
25	   C	1.324	-4.671	-0.463	C.2	1	UNK0	0.000	
26	   C	0.923	-4.051	0.698	C.2	1	UNK0	0.000	
27	   C	1.031	-2.687	0.856	C.2	1	UNK0	0.000	
28	   O	1.215	-6.049	-0.619	O.3	1	UNK0	0.000	
29	   O	2.251	-4.509	-2.674	O.3	1	UNK0	0.000	
30	   C	2.770	-3.717	-3.720	C.3	1	UNK0	0.000	
31	   H	-4.757	2.377	0.906	 H	1	UNK0	0.000	
32	   H	-2.064	-0.242	2.828	 H	1	UNK0	0.000	
33	   H	-2.826	0.568	5.040	 H	1	UNK0	0.000	
34	   H	-4.552	2.286	5.205	 H	1	UNK0	0.000	
35	   H	-3.178	-1.780	-1.991	 H	1	UNK0	0.000	
36	   H	-1.163	1.990	-2.171	 H	1	UNK0	0.000	
37	   H	-0.125	0.432	1.040	 H	1	UNK0	0.000	
38	   H	2.389	-0.117	0.811	 H	1	UNK0	0.000	
39	   H	2.541	1.041	-1.227	 H	1	UNK0	0.000	
40	   H	0.801	-0.217	-3.001	 H	1	UNK0	0.000	
41	   H	2.343	-1.916	-2.088	 H	1	UNK0	0.000	
42	   H	0.518	-4.690	1.467	 H	1	UNK0	0.000	
43	   H	0.707	-2.229	1.786	 H	1	UNK0	0.000	
44	   H	1.522	-6.470	-1.486	 H	1	UNK0	0.000	
45	   H	3.749	-3.298	-3.459	 H	1	UNK0	0.000	
46	   H	2.893	-4.404	-4.595	 H	1	UNK0	0.000	
47	   H	2.004	-2.952	-3.992	 H	1	UNK0	0.000	
@<TRIPOS>BOND
1 1 2 1
2 2 3 2
3 2 7 1
4 3 4 1
5 4 5 2
6 4 8 1
7 5 6 1
8 6 7 2
9 8 9 1
10 8 15 1
11 9 10 2
12 9 11 1
13 11 12 1
14 12 13 2
15 12 14 1
16 14 15 1
17 14 17 1
18 15 16 2
19 17 18 2
20 17 21 1
21 18 19 1
22 19 20 1
23 19 22 1
24 20 21 1
25 22 23 2
26 22 27 1
27 23 24 1
28 24 25 2
29 24 29 1
30 25 26 1
31 25 28 1
32 26 27 2
33 29 30 1
34 3 31 1
35 5 32 1
36 6 33 1
37 7 34 1
38 11 35 1
39 14 36 1
40 18 37 1
41 19 38 1
42 20 39 1
43 21 40 1
44 23 41 1
45 26 42 1
46 27 43 1
47 28 44 1
48 30 45 1
49 30 46 1
50 30 47 1
@<TRIPOS>SUBSTRUCTURE
1	UNK0	1	GROUP	1 ****	UNK
# created with PyMOL 2.3.2
@<TRIPOS>MOLECULE
1750
47 50 1                 
SMALL
USER_CHARGES
@<TRIPOS>ATOM
1	   S	1.359	2.455	0.317	S.O2	1	UNK0	0.000	
2	   O	1.538	0.987	0.104	O.2	1	UNK0	0.000	
3	   O	2.474	3.176	-0.387	O.2	1	UNK0	0.000	
4	   N	-0.112	2.960	-0.344	N.3	1	UNK0	0.000	
5	   C	-1.281	2.344	0.205	C.3	1	UNK0	0.000	
6	   C	-1.626	1.035	-0.479	C.3	1	UNK0	0.000	
7	   N	-1.592	1.229	-1.904	N.pl3	1	UNK0	0.000	
8	   C	-1.384	2.573	-2.405	C.3	1	UNK0	0.000	
9	   C	-0.122	3.103	-1.760	C.3	1	UNK0	0.000	
10	   C	-1.753	0.162	-2.834	C.2	1	UNK0	0.000	
11	   O	-1.718	0.357	-4.071	O.2	1	UNK0	0.000	
12	   C	-1.967	-1.209	-2.365	C.2	1	UNK0	0.000	
13	   N	-2.035	-1.617	-1.068	N.2	1	UNK0	0.000	
14	   C	-2.240	-2.943	-1.038	C.2	1	UNK0	0.000	
15	   N	-2.299	-3.361	-2.302	N.pl3	1	UNK0	0.000	
16	   C	-2.135	-2.322	-3.132	C.2	1	UNK0	0.000	
17	   C	-2.500	-4.671	-2.543	C.2	1	UNK0	0.000	
18	   C	-2.650	-5.615	-1.565	C.2	1	UNK0	0.000	
19	   C	-2.591	-5.198	-0.240	C.2	1	UNK0	0.000	
20	   C	-2.385	-3.857	-0.006	C.2	1	UNK0	0.000	
21	  Cl	-2.911	-7.320	-1.917	Cl	1	UNK0	0.000	
22	   N	1.517	2.783	1.996	N.3	1	UNK0	0.000	
23	   C	1.458	4.203	2.289	C.3	1	UNK0	0.000	
24	   C	2.160	4.416	3.609	C.3	1	UNK0	0.000	
25	   O	1.982	3.336	4.467	O.3	1	UNK0	0.000	
26	   C	2.626	2.184	4.021	C.3	1	UNK0	0.000	
27	   C	2.785	2.309	2.519	C.3	1	UNK0	0.000	
28	   H	-2.144	3.029	0.014	 H	1	UNK0	0.000	
29	   H	-1.176	2.253	1.288	 H	1	UNK0	0.000	
30	   H	-0.900	0.250	-0.132	 H	1	UNK0	0.000	
31	   H	-2.627	0.677	-0.163	 H	1	UNK0	0.000	
32	   H	-2.268	3.171	-2.053	 H	1	UNK0	0.000	
33	   H	-1.310	2.593	-3.494	 H	1	UNK0	0.000	
34	   H	-0.056	4.204	-1.992	 H	1	UNK0	0.000	
35	   H	0.733	2.599	-2.220	 H	1	UNK0	0.000	
36	   H	-2.144	-2.411	-4.220	 H	1	UNK0	0.000	
37	   H	-2.553	-5.035	-3.578	 H	1	UNK0	0.000	
38	   H	-2.701	-5.886	0.591	 H	1	UNK0	0.000	
39	   H	-2.332	-3.484	1.018	 H	1	UNK0	0.000	
40	   H	0.415	4.577	2.322	 H	1	UNK0	0.000	
41	   H	2.028	4.724	1.490	 H	1	UNK0	0.000	
42	   H	1.715	5.297	4.118	 H	1	UNK0	0.000	
43	   H	3.244	4.582	3.509	 H	1	UNK0	0.000	
44	   H	1.925	1.317	4.178	 H	1	UNK0	0.000	
45	   H	3.589	2.006	4.530	 H	1	UNK0	0.000	
46	   H	3.621	2.999	2.280	 H	1	UNK0	0.000	
47	   H	3.038	1.342	2.045	 H	1	UNK0	0.000	
@<TRIPOS>BOND
1 1 2 2
2 1 3 2
3 1 4 1
4 1 22 1
5 4 5 1
6 4 9 1
7 5 6 1
8 6 7 1
9 7 8 1
10 7 10 1
11 8 9 1
12 10 11 2
13 10 12 1
14 12 13 1
15 12 16 2
16 13 14 2
17 14 15 1
18 14 20 1
19 15 16 1
20 15 17 1
21 17 18 2
22 18 19 1
23 18 21 1
24 19 20 2
25 22 23 1
26 22 27 1
27 23 24 1
28 24 25 1
29 25 26 1
30 26 27 1
31 5 28 1
32 5 29 1
33 6 30 1
34 6 31 1
35 8 32 1
36 8 33 1
37 9 34 1
38 9 35 1
39 16 36 1
40 17 37 1
41 19 38 1
42 20 39 1
43 23 40 1
44 23 41 1
45 24 42 1
46 24 43 1
47 26 44 1
48 26 45 1
49 27 46 1
50 27 47 1
@<TRIPOS>SUBSTRUCTURE
1	UNK0	1	GROUP	1 ****	UNK
# created with PyMOL 2.3.2
@<TRIPOS>MOLECULE
1758
47 51 1                 
SMALL
USER_CHARGES
@<TRIPOS>ATOM
1	   I	0.785	-0.306	-8.172	 I	1	UNK0	0.000	
2	   C	1.048	-0.296	-6.083	C.2	1	UNK0	0.000	
3	   C	0.436	-1.229	-5.271	C.2	1	UNK0	0.000	
4	   C	0.608	-1.225	-3.886	C.2	1	UNK0	0.000	
5	   C	1.400	-0.277	-3.321	C.2	1	UNK0	0.000	
6	   C	2.008	0.653	-4.145	C.2	1	UNK0	0.000	
7	   C	1.851	0.666	-5.514	C.2	1	UNK0	0.000	
8	   N	1.642	-0.187	-1.903	N.pl3	1	UNK0	0.000	
9	   N	2.727	-0.580	-1.261	N.pl3	1	UNK0	0.000	
10	   C	2.633	-0.354	0.065	C.2	1	UNK0	0.000	
11	   C	3.503	-0.609	1.013	C.2	1	UNK0	0.000	
12	   C	1.397	0.225	0.275	C.2	1	UNK0	0.000	
13	   C	0.894	0.612	1.457	C.2	1	UNK0	0.000	
14	   N	-0.406	1.187	1.433	N.pl3	1	UNK0	0.000	
15	   C	-1.406	0.688	2.363	C.3	1	UNK0	0.000	
16	   C	-1.644	-0.795	2.122	C.3	1	UNK0	0.000	
17	   N	-2.589	-1.283	3.088	N.3	1	UNK0	0.000	
18	   C	-3.831	-0.542	2.895	C.3	1	UNK0	0.000	
19	   N	-3.656	0.859	3.157	N.3	1	UNK0	0.000	
20	   C	-3.125	1.066	4.486	C.3	1	UNK0	0.000	
21	   N	-1.888	0.361	4.691	N.3	1	UNK0	0.000	
22	   C	-2.051	-1.062	4.411	C.3	1	UNK0	0.000	
23	   C	-0.895	0.873	3.775	C.3	1	UNK0	0.000	
24	   C	-2.720	1.391	2.199	C.3	1	UNK0	0.000	
25	   C	0.813	0.311	-0.970	C.2	1	UNK0	0.000	
26	   O	-0.327	0.785	-1.207	O.2	1	UNK0	0.000	
27	   H	-0.187	-1.967	-5.766	 H	1	UNK0	0.000	
28	   H	0.123	-1.962	-3.265	 H	1	UNK0	0.000	
29	   H	2.640	1.408	-3.681	 H	1	UNK0	0.000	
30	   H	2.347	1.417	-6.142	 H	1	UNK0	0.000	
31	   H	3.569	-1.016	-1.706	 H	1	UNK0	0.000	
32	   H	3.280	-0.367	2.036	 H	1	UNK0	0.000	
33	   H	4.455	-1.062	0.793	 H	1	UNK0	0.000	
34	   H	1.459	0.489	2.373	 H	1	UNK0	0.000	
35	   H	-0.694	1.949	0.788	 H	1	UNK0	0.000	
36	   H	-2.021	-0.880	1.077	 H	1	UNK0	0.000	
37	   H	-0.670	-1.304	2.142	 H	1	UNK0	0.000	
38	   H	-4.676	-0.994	3.450	 H	1	UNK0	0.000	
39	   H	-4.078	-0.653	1.800	 H	1	UNK0	0.000	
40	   H	-3.855	0.690	5.249	 H	1	UNK0	0.000	
41	   H	-2.941	2.146	4.644	 H	1	UNK0	0.000	
42	   H	-1.025	-1.504	4.426	 H	1	UNK0	0.000	
43	   H	-2.644	-1.576	5.196	 H	1	UNK0	0.000	
44	   H	-0.788	1.963	3.974	 H	1	UNK0	0.000	
45	   H	0.070	0.341	3.860	 H	1	UNK0	0.000	
46	   H	-3.064	1.253	1.155	 H	1	UNK0	0.000	
47	   H	-2.624	2.491	2.368	 H	1	UNK0	0.000	
@<TRIPOS>BOND
1 1 2 1
2 2 3 2
3 2 7 1
4 3 4 1
5 4 5 2
6 5 6 1
7 5 8 1
8 6 7 2
9 8 9 1
10 8 25 1
11 9 10 1
12 10 11 2
13 10 12 1
14 12 13 2
15 12 25 1
16 13 14 1
17 14 15 1
18 15 16 1
19 15 23 1
20 15 24 1
21 16 17 1
22 17 18 1
23 17 22 1
24 18 19 1
25 19 20 1
26 19 24 1
27 20 21 1
28 21 22 1
29 21 23 1
30 25 26 2
31 3 27 1
32 4 28 1
33 6 29 1
34 7 30 1
35 9 31 1
36 11 32 1
37 11 33 1
38 13 34 1
39 14 35 1
40 16 36 1
41 16 37 1
42 18 38 1
43 18 39 1
44 20 40 1
45 20 41 1
46 22 42 1
47 22 43 1
48 23 44 1
49 23 45 1
50 24 46 1
51 24 47 1
@<TRIPOS>SUBSTRUCTURE
1	UNK0	1	GROUP	1 ****	UNK
# created with PyMOL 2.3.2
@<TRIPOS>MOLECULE
1764
61 64 1                 
SMALL
USER_CHARGES
@<TRIPOS>ATOM
1	   S	-0.377	-1.072	3.132	S.O2	1	UNK0	0.000	
2	   O	-0.587	-2.289	4.031	O.2	1	UNK0	0.000	
3	   O	-0.285	0.091	4.122	O.2	1	UNK0	0.000	
4	   N	-1.662	-0.795	2.118	N.3	1	UNK0	0.000	
5	   C	-2.088	-1.637	1.109	C.3	1	UNK0	0.000	
6	   C	-3.448	-2.178	1.572	C.3	1	UNK0	0.000	
7	   C	-4.033	-0.970	2.270	C.3	1	UNK0	0.000	
8	   C	-2.828	-0.216	2.779	C.3	1	UNK0	0.000	
9	   C	-2.308	-0.811	-0.147	C.2	1	UNK0	0.000	
10	   O	-2.859	-1.399	-1.087	O.2	1	UNK0	0.000	
11	   N	-1.891	0.531	-0.176	N.pl3	1	UNK0	0.000	
12	   C	-2.102	1.332	-1.357	C.3	1	UNK0	0.000	
13	   C	-1.459	0.836	-2.595	C.3	1	UNK0	0.000	
14	   N	-0.044	0.720	-2.573	N.3	1	UNK0	0.000	
15	   C	0.678	1.949	-2.512	C.3	1	UNK0	0.000	
16	   C	1.862	1.746	-1.588	C.3	1	UNK0	0.000	
17	   C	2.625	0.516	-2.035	C.3	1	UNK0	0.000	
18	   C	2.809	0.589	-3.527	C.3	1	UNK0	0.000	
19	   C	1.623	0.178	-4.317	C.3	1	UNK0	0.000	
20	   C	0.425	-0.218	-3.539	C.3	1	UNK0	0.000	
21	   C	1.172	-1.202	2.353	C.2	1	UNK0	0.000	
22	   C	2.012	-0.076	2.328	C.2	1	UNK0	0.000	
23	   C	3.221	-0.044	1.694	C.2	1	UNK0	0.000	
24	   C	3.624	-1.197	1.045	C.2	1	UNK0	0.000	
25	   C	2.860	-2.325	1.030	C.2	1	UNK0	0.000	
26	   C	1.638	-2.303	1.692	C.2	1	UNK0	0.000	
27	  Cl	0.765	-3.819	1.716	Cl	1	UNK0	0.000	
28	   N	4.896	-1.179	0.379	N.pl3	1	UNK0	0.000	
29	   C	5.688	0.006	0.409	C.2	1	UNK0	0.000	
30	   O	6.530	0.216	-0.482	O.2	1	UNK0	0.000	
31	   C	5.459	0.949	1.532	C.3	1	UNK0	0.000	
32	   O	4.046	1.070	1.673	O.3	1	UNK0	0.000	
33	   H	-1.514	-2.530	0.856	 H	1	UNK0	0.000	
34	   H	-4.049	-2.576	0.762	 H	1	UNK0	0.000	
35	   H	-3.245	-2.981	2.303	 H	1	UNK0	0.000	
36	   H	-4.593	-0.400	1.490	 H	1	UNK0	0.000	
37	   H	-4.672	-1.236	3.121	 H	1	UNK0	0.000	
38	   H	-2.731	-0.292	3.886	 H	1	UNK0	0.000	
39	   H	-2.893	0.839	2.462	 H	1	UNK0	0.000	
40	   H	-1.418	0.991	0.628	 H	1	UNK0	0.000	
41	   H	-3.216	1.337	-1.544	 H	1	UNK0	0.000	
42	   H	-1.829	2.387	-1.197	 H	1	UNK0	0.000	
43	   H	-1.747	1.483	-3.434	 H	1	UNK0	0.000	
44	   H	-1.873	-0.185	-2.823	 H	1	UNK0	0.000	
45	   H	0.060	2.813	-2.213	 H	1	UNK0	0.000	
46	   H	1.081	2.180	-3.519	 H	1	UNK0	0.000	
47	   H	2.589	2.604	-1.668	 H	1	UNK0	0.000	
48	   H	1.573	1.704	-0.522	 H	1	UNK0	0.000	
49	   H	3.574	0.379	-1.531	 H	1	UNK0	0.000	
50	   H	1.990	-0.369	-1.823	 H	1	UNK0	0.000	
51	   H	3.744	0.002	-3.765	 H	1	UNK0	0.000	
52	   H	3.064	1.642	-3.804	 H	1	UNK0	0.000	
53	   H	1.364	0.938	-5.111	 H	1	UNK0	0.000	
54	   H	1.925	-0.726	-4.925	 H	1	UNK0	0.000	
55	   H	0.583	-1.194	-3.036	 H	1	UNK0	0.000	
56	   H	-0.398	-0.408	-4.278	 H	1	UNK0	0.000	
57	   H	1.676	0.825	2.846	 H	1	UNK0	0.000	
58	   H	3.211	-3.211	0.509	 H	1	UNK0	0.000	
59	   H	5.215	-2.047	-0.118	 H	1	UNK0	0.000	
60	   H	5.909	1.932	1.388	 H	1	UNK0	0.000	
61	   H	5.818	0.466	2.482	 H	1	UNK0	0.000	
@<TRIPOS>BOND
1 1 2 2
2 1 3 2
3 1 4 1
4 1 21 1
5 4 5 1
6 4 8 1
7 5 6 1
8 5 9 1
9 6 7 1
10 7 8 1
11 9 10 2
12 9 11 1
13 11 12 1
14 12 13 1
15 13 14 1
16 14 15 1
17 14 20 1
18 15 16 1
19 16 17 1
20 17 18 1
21 18 19 1
22 19 20 1
23 21 22 2
24 21 26 1
25 22 23 1
26 23 24 2
27 23 32 1
28 24 25 1
29 24 28 1
30 25 26 2
31 26 27 1
32 28 29 1
33 29 30 2
34 29 31 1
35 31 32 1
36 5 33 1
37 6 34 1
38 6 35 1
39 7 36 1
40 7 37 1
41 8 38 1
42 8 39 1
43 11 40 1
44 12 41 1
45 12 42 1
46 13 43 1
47 13 44 1
48 15 45 1
49 15 46 1
50 16 47 1
51 16 48 1
52 17 49 1
53 17 50 1
54 18 51 1
55 18 52 1
56 19 53 1
57 19 54 1
58 20 55 1
59 20 56 1
60 22 57 1
61 25 58 1
62 28 59 1
63 31 60 1
64 31 61 1
@<TRIPOS>SUBSTRUCTURE
1	UNK0	1	GROUP	1 ****	UNK
# created with PyMOL 2.3.2
@<TRIPOS>MOLECULE
1781
39 42 1                 
SMALL
USER_CHARGES
@<TRIPOS>ATOM
1	  Cl	-6.272	1.611	-2.223	Cl	1	UNK0	0.000	
2	   C	-4.965	1.227	-1.094	C.2	1	UNK0	0.000	
3	   C	-5.086	0.193	-0.199	C.2	1	UNK0	0.000	
4	   C	-4.068	-0.102	0.678	C.2	1	UNK0	0.000	
5	   C	-2.862	0.607	0.727	C.2	1	UNK0	0.000	
6	   C	-2.768	1.637	-0.181	C.2	1	UNK0	0.000	
7	   C	-3.801	1.950	-1.083	C.2	1	UNK0	0.000	
8	   C	-1.837	0.201	1.646	C.2	1	UNK0	0.000	
9	   O	-2.081	-0.944	2.233	O.2	1	UNK0	0.000	
10	   N	-0.644	0.802	2.018	N.pl3	1	UNK0	0.000	
11	   C	-0.065	2.052	1.654	C.3	1	UNK0	0.000	
12	   C	0.994	1.705	0.588	C.3	1	UNK0	0.000	
13	   N	1.674	0.477	1.040	N.pl3	1	UNK0	0.000	
14	   C	1.685	0.197	2.447	C.3	1	UNK0	0.000	
15	   C	0.256	0.009	2.921	C.3	1	UNK0	0.000	
16	   C	2.292	-0.375	0.079	C.2	1	UNK0	0.000	
17	   N	2.879	-1.535	0.448	N.2	1	UNK0	0.000	
18	   N	3.463	-2.348	-0.414	N.pl3	1	UNK0	0.000	
19	   C	3.518	-2.084	-1.727	C.2	1	UNK0	0.000	
20	   N	4.170	-3.078	-2.379	N.2	1	UNK0	0.000	
21	   N	4.523	-3.967	-1.469	N.2	1	UNK0	0.000	
22	   C	4.103	-3.542	-0.264	C.2	1	UNK0	0.000	
23	   C	2.938	-0.913	-2.184	C.2	1	UNK0	0.000	
24	   C	2.337	-0.084	-1.266	C.2	1	UNK0	0.000	
25	   H	-6.007	-0.374	-0.212	 H	1	UNK0	0.000	
26	   H	-4.200	-0.918	1.366	 H	1	UNK0	0.000	
27	   H	-1.866	2.215	-0.230	 H	1	UNK0	0.000	
28	   H	-3.691	2.772	-1.786	 H	1	UNK0	0.000	
29	   H	-0.688	2.888	1.427	 H	1	UNK0	0.000	
30	   H	0.611	2.387	2.532	 H	1	UNK0	0.000	
31	   H	1.723	2.527	0.467	 H	1	UNK0	0.000	
32	   H	0.424	1.524	-0.332	 H	1	UNK0	0.000	
33	   H	2.100	1.036	3.050	 H	1	UNK0	0.000	
34	   H	2.209	-0.759	2.652	 H	1	UNK0	0.000	
35	   H	0.097	0.371	3.952	 H	1	UNK0	0.000	
36	   H	-0.058	-1.046	2.875	 H	1	UNK0	0.000	
37	   H	4.243	-4.057	0.684	 H	1	UNK0	0.000	
38	   H	2.959	-0.659	-3.241	 H	1	UNK0	0.000	
39	   H	1.865	0.858	-1.583	 H	1	UNK0	0.000	
@<TRIPOS>BOND
1 1 2 1
2 2 3 2
3 2 7 1
4 3 4 1
5 4 5 2
6 5 6 1
7 5 8 1
8 6 7 2
9 8 9 2
10 8 10 1
11 10 11 1
12 10 15 1
13 11 12 1
14 12 13 1
15 13 14 1
16 13 16 1
17 14 15 1
18 16 17 2
19 16 24 1
20 17 18 1
21 18 19 1
22 18 22 1
23 19 20 2
24 19 23 1
25 20 21 1
26 21 22 2
27 23 24 2
28 3 25 1
29 4 26 1
30 6 27 1
31 7 28 1
32 11 29 1
33 11 30 1
34 12 31 1
35 12 32 1
36 14 33 1
37 14 34 1
38 15 35 1
39 15 36 1
40 22 37 1
41 23 38 1
42 24 39 1
@<TRIPOS>SUBSTRUCTURE
1	UNK0	1	GROUP	1 ****	UNK
# created with PyMOL 2.3.2
@<TRIPOS>MOLECULE
1788
47 50 1                 
SMALL
USER_CHARGES
@<TRIPOS>ATOM
1	  Cl	-2.657	-0.061	-7.243	Cl	1	UNK0	0.000	
2	   C	-2.204	0.091	-5.556	C.2	1	UNK0	0.000	
3	   C	-1.130	-0.584	-5.007	C.2	1	UNK0	0.000	
4	   C	-0.779	-0.456	-3.674	C.2	1	UNK0	0.000	
5	   C	-1.498	0.363	-2.826	C.2	1	UNK0	0.000	
6	   C	-2.572	1.042	-3.362	C.2	1	UNK0	0.000	
7	   C	-2.924	0.913	-4.703	C.2	1	UNK0	0.000	
8	   N	-1.121	0.482	-1.458	N.pl3	1	UNK0	0.000	
9	   N	-1.014	-0.489	-0.622	N.2	1	UNK0	0.000	
10	   C	-0.627	-0.041	0.631	C.2	1	UNK0	0.000	
11	   N	-0.497	1.268	0.525	N.pl3	1	UNK0	0.000	
12	   C	-0.809	1.587	-0.777	C.2	1	UNK0	0.000	
13	   O	-0.789	2.756	-1.218	O.2	1	UNK0	0.000	
14	   C	-0.024	2.215	1.485	C.3	1	UNK0	0.000	
15	   C	1.394	2.599	1.350	C.2	1	UNK0	0.000	
16	   O	1.555	3.817	0.922	O.2	1	UNK0	0.000	
17	   N	2.554	1.899	1.596	N.pl3	1	UNK0	0.000	
18	   C	2.630	0.530	2.031	C.3	1	UNK0	0.000	
19	   C	4.083	0.039	2.159	C.3	1	UNK0	0.000	
20	   N	4.826	0.967	3.017	N.pl3	1	UNK0	0.000	
21	   C	4.607	2.354	2.679	C.2	1	UNK0	0.000	
22	   O	5.041	3.262	3.424	O.2	1	UNK0	0.000	
23	   C	3.851	2.576	1.423	C.3	1	UNK0	0.000	
24	   C	-0.423	-0.994	1.720	C.2	1	UNK0	0.000	
25	   C	-0.183	-2.333	1.386	C.2	1	UNK0	0.000	
26	   C	-0.036	-3.335	2.305	C.2	1	UNK0	0.000	
27	   C	-0.121	-3.063	3.664	C.2	1	UNK0	0.000	
28	   C	-0.357	-1.760	4.002	C.2	1	UNK0	0.000	
29	   C	-0.507	-0.740	3.058	C.2	1	UNK0	0.000	
30	   H	-0.564	-1.226	-5.668	 H	1	UNK0	0.000	
31	   H	0.057	-0.980	-3.246	 H	1	UNK0	0.000	
32	   H	-3.131	1.678	-2.701	 H	1	UNK0	0.000	
33	   H	-3.766	1.447	-5.116	 H	1	UNK0	0.000	
34	   H	-0.220	1.984	2.508	 H	1	UNK0	0.000	
35	   H	-0.634	3.184	1.294	 H	1	UNK0	0.000	
36	   H	2.196	-0.081	1.195	 H	1	UNK0	0.000	
37	   H	2.109	0.329	2.960	 H	1	UNK0	0.000	
38	   H	4.571	0.025	1.172	 H	1	UNK0	0.000	
39	   H	4.087	-0.985	2.561	 H	1	UNK0	0.000	
40	   H	5.439	0.668	3.780	 H	1	UNK0	0.000	
41	   H	3.667	3.664	1.259	 H	1	UNK0	0.000	
42	   H	4.352	2.110	0.544	 H	1	UNK0	0.000	
43	   H	-0.108	-2.560	0.316	 H	1	UNK0	0.000	
44	   H	0.147	-4.360	2.023	 H	1	UNK0	0.000	
45	   H	-0.007	-3.836	4.405	 H	1	UNK0	0.000	
46	   H	-0.434	-1.509	5.067	 H	1	UNK0	0.000	
47	   H	-0.714	0.229	3.421	 H	1	UNK0	0.000	
@<TRIPOS>BOND
1 1 2 1
2 2 3 2
3 2 7 1
4 3 4 1
5 4 5 2
6 5 6 1
7 5 8 1
8 6 7 2
9 8 9 1
10 8 12 1
11 9 10 2
12 10 11 1
13 10 24 1
14 11 12 1
15 11 14 1
16 12 13 2
17 14 15 1
18 15 16 2
19 15 17 1
20 17 18 1
21 17 23 1
22 18 19 1
23 19 20 1
24 20 21 1
25 21 22 2
26 21 23 1
27 24 25 2
28 24 29 1
29 25 26 1
30 26 27 2
31 27 28 1
32 28 29 2
33 3 30 1
34 4 31 1
35 6 32 1
36 7 33 1
37 14 34 1
38 14 35 1
39 18 36 1
40 18 37 1
41 19 38 1
42 19 39 1
43 20 40 1
44 23 41 1
45 23 42 1
46 25 43 1
47 26 44 1
48 27 45 1
49 28 46 1
50 29 47 1
@<TRIPOS>SUBSTRUCTURE
1	UNK0	1	GROUP	1 ****	UNK
# created with PyMOL 2.3.2
@<TRIPOS>MOLECULE
1789
42 45 1                 
SMALL
USER_CHARGES
@<TRIPOS>ATOM
1	  Cl	4.807	-5.783	2.371	Cl	1	UNK0	0.000	
2	   C	3.824	-4.336	2.606	C.2	1	UNK0	0.000	
3	   C	2.783	-4.287	3.489	C.2	1	UNK0	0.000	
4	   C	1.993	-3.176	3.700	C.2	1	UNK0	0.000	
5	   C	2.290	-2.039	2.955	C.2	1	UNK0	0.000	
6	   C	3.356	-2.082	2.047	C.2	1	UNK0	0.000	
7	   C	4.109	-3.209	1.875	C.2	1	UNK0	0.000	
8	   N	1.525	-0.864	3.117	N.pl3	1	UNK0	0.000	
9	   N	1.198	-0.322	4.266	N.pl3	1	UNK0	0.000	
10	   N	0.481	0.762	3.986	N.pl3	1	UNK0	0.000	
11	   C	0.346	0.917	2.655	C.2	1	UNK0	0.000	
12	   C	1.009	-0.116	2.125	C.2	1	UNK0	0.000	
13	   C	0.873	0.041	0.753	C.2	1	UNK0	0.000	
14	   O	1.364	-0.742	-0.091	O.2	1	UNK0	0.000	
15	   N	0.152	1.129	0.443	N.pl3	1	UNK0	0.000	
16	   C	-0.177	1.676	1.628	C.2	1	UNK0	0.000	
17	   O	-0.864	2.730	1.779	O.2	1	UNK0	0.000	
18	   C	-0.211	1.633	-0.839	C.2	1	UNK0	0.000	
19	   C	-0.061	2.959	-1.195	C.2	1	UNK0	0.000	
20	   C	-0.414	3.439	-2.439	C.2	1	UNK0	0.000	
21	   C	-0.944	2.601	-3.398	C.2	1	UNK0	0.000	
22	   C	-1.100	1.274	-3.057	C.2	1	UNK0	0.000	
23	   C	-0.742	0.802	-1.807	C.2	1	UNK0	0.000	
24	   O	-1.298	3.095	-4.651	O.3	1	UNK0	0.000	
25	   C	-1.837	2.309	-5.669	C.3	1	UNK0	0.000	
26	   O	-0.263	4.775	-2.797	O.3	1	UNK0	0.000	
27	   C	0.279	5.651	-1.826	C.3	1	UNK0	0.000	
28	   H	2.556	-5.182	4.069	 H	1	UNK0	0.000	
29	   H	1.174	-3.171	4.409	 H	1	UNK0	0.000	
30	   H	3.597	-1.192	1.457	 H	1	UNK0	0.000	
31	   H	4.947	-3.257	1.168	 H	1	UNK0	0.000	
32	   H	1.453	-0.674	5.236	 H	1	UNK0	0.000	
33	   H	0.087	1.391	4.726	 H	1	UNK0	0.000	
34	   H	0.353	3.621	-0.450	 H	1	UNK0	0.000	
35	   H	-1.515	0.615	-3.808	 H	1	UNK0	0.000	
36	   H	-0.869	-0.244	-1.550	 H	1	UNK0	0.000	
37	   H	-1.714	2.751	-6.679	 H	1	UNK0	0.000	
38	   H	-1.362	1.294	-5.721	 H	1	UNK0	0.000	
39	   H	-2.915	2.157	-5.465	 H	1	UNK0	0.000	
40	   H	1.199	5.222	-1.394	 H	1	UNK0	0.000	
41	   H	0.482	6.656	-2.238	 H	1	UNK0	0.000	
42	   H	-0.482	5.785	-1.030	 H	1	UNK0	0.000	
@<TRIPOS>BOND
1 1 2 1
2 2 3 2
3 2 7 1
4 3 4 1
5 4 5 2
6 5 6 1
7 5 8 1
8 6 7 2
9 8 9 1
10 8 12 1
11 9 10 1
12 10 11 1
13 11 12 2
14 11 16 1
15 12 13 1
16 13 14 2
17 13 15 1
18 15 16 1
19 15 18 1
20 16 17 2
21 18 19 2
22 18 23 1
23 19 20 1
24 20 21 2
25 20 26 1
26 21 22 1
27 21 24 1
28 22 23 2
29 24 25 1
30 26 27 1
31 3 28 1
32 4 29 1
33 6 30 1
34 7 31 1
35 9 32 1
36 10 33 1
37 19 34 1
38 22 35 1
39 23 36 1
40 25 37 1
41 25 38 1
42 25 39 1
43 27 40 1
44 27 41 1
45 27 42 1
@<TRIPOS>SUBSTRUCTURE
1	UNK0	1	GROUP	1 ****	UNK
# created with PyMOL 2.3.2
@<TRIPOS>MOLECULE
1790
42 45 1                 
SMALL
USER_CHARGES
@<TRIPOS>ATOM
1	  Cl	2.799	3.731	-5.948	Cl	1	UNK0	0.000	
2	   C	2.678	2.472	-4.712	C.2	1	UNK0	0.000	
3	   C	3.056	2.743	-3.413	C.2	1	UNK0	0.000	
4	   C	2.978	1.798	-2.424	C.2	1	UNK0	0.000	
5	   C	2.512	0.521	-2.697	C.2	1	UNK0	0.000	
6	   C	2.137	0.267	-4.006	C.2	1	UNK0	0.000	
7	   C	2.214	1.216	-5.004	C.2	1	UNK0	0.000	
8	   N	2.418	-0.482	-1.700	N.pl3	1	UNK0	0.000	
9	   N	3.209	-1.530	-1.584	N.pl3	1	UNK0	0.000	
10	   N	2.773	-2.202	-0.526	N.pl3	1	UNK0	0.000	
11	   C	1.713	-1.598	0.038	C.2	1	UNK0	0.000	
12	   C	1.497	-0.507	-0.716	C.2	1	UNK0	0.000	
13	   C	0.407	0.112	-0.134	C.2	1	UNK0	0.000	
14	   O	-0.084	1.188	-0.588	O.2	1	UNK0	0.000	
15	   N	-0.040	-0.563	0.938	N.pl3	1	UNK0	0.000	
16	   C	0.772	-1.628	1.046	C.2	1	UNK0	0.000	
17	   O	0.669	-2.512	1.948	O.2	1	UNK0	0.000	
18	   C	-1.148	-0.183	1.751	C.2	1	UNK0	0.000	
19	   C	-2.455	-0.357	1.343	C.2	1	UNK0	0.000	
20	   C	-3.543	0.002	2.112	C.2	1	UNK0	0.000	
21	   C	-3.312	0.564	3.350	C.2	1	UNK0	0.000	
22	   C	-2.026	0.762	3.809	C.2	1	UNK0	0.000	
23	   C	-0.961	0.384	2.997	C.2	1	UNK0	0.000	
24	   O	-1.833	1.331	5.061	O.3	1	UNK0	0.000	
25	   C	-0.553	1.558	5.584	C.3	1	UNK0	0.000	
26	   O	-4.858	-0.197	1.649	O.3	1	UNK0	0.000	
27	   C	-5.055	-0.774	0.379	C.3	1	UNK0	0.000	
28	   H	3.425	3.755	-3.199	 H	1	UNK0	0.000	
29	   H	3.277	2.018	-1.408	 H	1	UNK0	0.000	
30	   H	1.767	-0.747	-4.222	 H	1	UNK0	0.000	
31	   H	1.915	0.982	-5.999	 H	1	UNK0	0.000	
32	   H	4.014	-1.764	-2.213	 H	1	UNK0	0.000	
33	   H	3.197	-3.087	-0.173	 H	1	UNK0	0.000	
34	   H	-2.591	-0.806	0.354	 H	1	UNK0	0.000	
35	   H	-4.170	0.849	3.959	 H	1	UNK0	0.000	
36	   H	0.065	0.542	3.364	 H	1	UNK0	0.000	
37	   H	-0.138	0.563	5.883	 H	1	UNK0	0.000	
38	   H	0.114	2.098	4.893	 H	1	UNK0	0.000	
39	   H	-0.681	2.214	6.494	 H	1	UNK0	0.000	
40	   H	-4.435	-1.668	0.211	 H	1	UNK0	0.000	
41	   H	-6.116	-1.060	0.254	 H	1	UNK0	0.000	
42	   H	-4.812	-0.058	-0.445	 H	1	UNK0	0.000	
@<TRIPOS>BOND
1 1 2 1
2 2 3 2
3 2 7 1
4 3 4 1
5 4 5 2
6 5 6 1
7 5 8 1
8 6 7 2
9 8 9 1
10 8 12 1
11 9 10 1
12 10 11 1
13 11 12 2
14 11 16 1
15 12 13 1
16 13 14 2
17 13 15 1
18 15 16 1
19 15 18 1
20 16 17 2
21 18 19 2
22 18 23 1
23 19 20 1
24 20 21 2
25 20 26 1
26 21 22 1
27 22 23 2
28 22 24 1
29 24 25 1
30 26 27 1
31 3 28 1
32 4 29 1
33 6 30 1
34 7 31 1
35 9 32 1
36 10 33 1
37 19 34 1
38 21 35 1
39 23 36 1
40 25 37 1
41 25 38 1
42 25 39 1
43 27 40 1
44 27 41 1
45 27 42 1
@<TRIPOS>SUBSTRUCTURE
1	UNK0	1	GROUP	1 ****	UNK
# created with PyMOL 2.3.2
@<TRIPOS>MOLECULE
1801
42 45 1                 
SMALL
USER_CHARGES
@<TRIPOS>ATOM
1	  Cl	-4.984	-3.055	-0.530	Cl	1	UNK0	0.000	
2	   C	-4.254	-1.479	-0.225	C.2	1	UNK0	0.000	
3	   C	-2.955	-1.389	0.243	C.2	1	UNK0	0.000	
4	   C	-2.377	-0.173	0.483	C.2	1	UNK0	0.000	
5	   C	-3.144	0.941	0.239	C.2	1	UNK0	0.000	
6	   C	-4.432	0.880	-0.225	C.2	1	UNK0	0.000	
7	   C	-5.005	-0.358	-0.464	C.2	1	UNK0	0.000	
8	   C	-2.553	2.271	0.487	C.2	1	UNK0	0.000	
9	   N	-3.004	3.469	0.358	N.2	1	UNK0	0.000	
10	   C	-2.034	4.457	0.733	C.3	1	UNK0	0.000	
11	   C	-0.830	3.674	1.143	C.3	1	UNK0	0.000	
12	   N	-1.219	2.295	0.966	N.pl3	1	UNK0	0.000	
13	   C	-0.463	1.099	1.204	C.2	1	UNK0	0.000	
14	   N	0.785	0.885	1.646	N.2	1	UNK0	0.000	
15	   N	1.032	-0.412	1.699	N.pl3	1	UNK0	0.000	
16	   C	-0.095	-1.012	1.279	C.2	1	UNK0	0.000	
17	   O	-0.236	-2.256	1.194	O.2	1	UNK0	0.000	
18	   N	-1.044	-0.090	0.964	N.pl3	1	UNK0	0.000	
19	   C	2.259	-1.080	2.121	C.3	1	UNK0	0.000	
20	   C	3.135	-1.264	0.940	C.2	1	UNK0	0.000	
21	   O	4.254	-1.829	1.096	O.2	1	UNK0	0.000	
22	   N	2.770	-0.832	-0.362	N.pl3	1	UNK0	0.000	
23	   C	3.659	-1.033	-1.484	C.3	1	UNK0	0.000	
24	   C	2.940	-1.778	-2.612	C.3	1	UNK0	0.000	
25	   C	3.980	0.348	-2.039	C.3	1	UNK0	0.000	
26	   H	-2.400	-2.284	0.418	 H	1	UNK0	0.000	
27	   H	-5.046	1.750	-0.421	 H	1	UNK0	0.000	
28	   H	-6.040	-0.412	-0.837	 H	1	UNK0	0.000	
29	   H	-1.806	5.061	-0.183	 H	1	UNK0	0.000	
30	   H	-2.412	5.123	1.542	 H	1	UNK0	0.000	
31	   H	0.078	3.930	0.560	 H	1	UNK0	0.000	
32	   H	-0.655	3.801	2.243	 H	1	UNK0	0.000	
33	   H	2.780	-0.384	2.803	 H	1	UNK0	0.000	
34	   H	2.066	-2.010	2.675	 H	1	UNK0	0.000	
35	   H	1.845	-0.369	-0.472	 H	1	UNK0	0.000	
36	   H	4.593	-1.536	-1.193	 H	1	UNK0	0.000	
37	   H	1.875	-1.457	-2.551	 H	1	UNK0	0.000	
38	   H	3.419	-1.464	-3.550	 H	1	UNK0	0.000	
39	   H	3.028	-2.880	-2.452	 H	1	UNK0	0.000	
40	   H	3.124	0.636	-2.683	 H	1	UNK0	0.000	
41	   H	4.883	0.339	-2.673	 H	1	UNK0	0.000	
42	   H	4.037	1.055	-1.200	 H	1	UNK0	0.000	
@<TRIPOS>BOND
1 1 2 1
2 2 3 2
3 2 7 1
4 3 4 1
5 4 5 2
6 4 18 1
7 5 6 1
8 5 8 1
9 6 7 2
10 8 9 2
11 8 12 1
12 9 10 1
13 10 11 1
14 11 12 1
15 12 13 1
16 13 14 2
17 13 18 1
18 14 15 1
19 15 16 1
20 15 19 1
21 16 17 2
22 16 18 1
23 19 20 1
24 20 21 2
25 20 22 1
26 22 23 1
27 23 24 1
28 23 25 1
29 3 26 1
30 6 27 1
31 7 28 1
32 10 29 1
33 10 30 1
34 11 31 1
35 11 32 1
36 19 33 1
37 19 34 1
38 22 35 1
39 23 36 1
40 24 37 1
41 24 38 1
42 24 39 1
43 25 40 1
44 25 41 1
45 25 42 1
@<TRIPOS>SUBSTRUCTURE
1	UNK0	1	GROUP	1 ****	UNK
# created with PyMOL 2.3.2
@<TRIPOS>MOLECULE
1802
43 46 1                 
SMALL
USER_CHARGES
@<TRIPOS>ATOM
1	  Cl	-3.205	3.885	-2.266	Cl	1	UNK0	0.000	
2	   C	-1.599	3.630	-1.578	C.2	1	UNK0	0.000	
3	   C	-1.453	2.659	-0.584	C.2	1	UNK0	0.000	
4	   C	-0.225	2.402	-0.009	C.2	1	UNK0	0.000	
5	   C	0.841	3.152	-0.465	C.2	1	UNK0	0.000	
6	   C	0.743	4.103	-1.426	C.2	1	UNK0	0.000	
7	   C	-0.510	4.356	-2.005	C.2	1	UNK0	0.000	
8	   C	2.155	2.859	0.162	C.2	1	UNK0	0.000	
9	   N	3.332	3.372	-0.032	N.2	1	UNK0	0.000	
10	   C	4.307	2.746	0.831	C.3	1	UNK0	0.000	
11	   C	3.572	1.703	1.636	C.3	1	UNK0	0.000	
12	   N	2.211	1.864	1.151	N.pl3	1	UNK0	0.000	
13	   C	1.060	1.132	1.568	C.2	1	UNK0	0.000	
14	   N	0.898	0.148	2.477	N.2	1	UNK0	0.000	
15	   N	-0.381	-0.221	2.495	N.pl3	1	UNK0	0.000	
16	   C	-0.982	0.548	1.590	C.2	1	UNK0	0.000	
17	   O	-2.211	0.503	1.304	O.2	1	UNK0	0.000	
18	   N	-0.108	1.406	0.994	N.pl3	1	UNK0	0.000	
19	   C	-0.975	-1.268	3.331	C.3	1	UNK0	0.000	
20	   C	-0.891	-2.526	2.412	C.2	1	UNK0	0.000	
21	   O	0.347	-2.820	2.262	O.2	1	UNK0	0.000	
22	   N	-2.002	-3.096	1.926	N.pl3	1	UNK0	0.000	
23	   C	-3.144	-3.682	1.426	C.3	1	UNK0	0.000	
24	   C	-3.173	-3.698	-0.107	C.3	1	UNK0	0.000	
25	   O	-2.116	-4.409	-0.623	O.3	1	UNK0	0.000	
26	   C	-2.114	-5.745	-0.344	C.3	1	UNK0	0.000	
27	   H	-2.340	2.125	-0.293	 H	1	UNK0	0.000	
28	   H	1.587	4.675	-1.750	 H	1	UNK0	0.000	
29	   H	-0.636	5.098	-2.772	 H	1	UNK0	0.000	
30	   H	4.744	3.534	1.483	 H	1	UNK0	0.000	
31	   H	5.112	2.253	0.226	 H	1	UNK0	0.000	
32	   H	3.604	1.912	2.710	 H	1	UNK0	0.000	
33	   H	3.978	0.682	1.411	 H	1	UNK0	0.000	
34	   H	-0.393	-1.456	4.213	 H	1	UNK0	0.000	
35	   H	-2.013	-1.022	3.498	 H	1	UNK0	0.000	
36	   H	-1.255	-4.085	1.372	 H	1	UNK0	0.000	
37	   H	-3.403	-4.683	1.831	 H	1	UNK0	0.000	
38	   H	-4.088	-3.072	1.715	 H	1	UNK0	0.000	
39	   H	-4.145	-4.025	-0.511	 H	1	UNK0	0.000	
40	   H	-3.032	-2.628	-0.396	 H	1	UNK0	0.000	
41	   H	-3.015	-6.258	-0.805	 H	1	UNK0	0.000	
42	   H	-2.283	-5.943	0.748	 H	1	UNK0	0.000	
43	   H	-1.203	-6.248	-0.707	 H	1	UNK0	0.000	
@<TRIPOS>BOND
1 1 2 1
2 2 3 2
3 2 7 1
4 3 4 1
5 4 5 2
6 4 18 1
7 5 6 1
8 5 8 1
9 6 7 2
10 8 9 2
11 8 12 1
12 9 10 1
13 10 11 1
14 11 12 1
15 12 13 1
16 13 14 2
17 13 18 1
18 14 15 1
19 15 16 1
20 15 19 1
21 16 17 2
22 16 18 1
23 19 20 1
24 20 21 2
25 20 22 1
26 22 23 1
27 23 24 1
28 24 25 1
29 25 26 1
30 3 27 1
31 6 28 1
32 7 29 1
33 10 30 1
34 10 31 1
35 11 32 1
36 11 33 1
37 19 34 1
38 19 35 1
39 22 36 1
40 23 37 1
41 23 38 1
42 24 39 1
43 24 40 1
44 26 41 1
45 26 42 1
46 26 43 1
@<TRIPOS>SUBSTRUCTURE
1	UNK0	1	GROUP	1 ****	UNK
# created with PyMOL 2.3.2
@<TRIPOS>MOLECULE
1804
43 47 1                 
SMALL
USER_CHARGES
@<TRIPOS>ATOM
1	  Cl	5.168	-0.353	3.580	Cl	1	UNK0	0.000	
2	   C	4.456	0.051	2.033	C.2	1	UNK0	0.000	
3	   C	3.094	0.226	1.853	C.2	1	UNK0	0.000	
4	   C	2.547	0.544	0.632	C.2	1	UNK0	0.000	
5	   C	3.422	0.683	-0.418	C.2	1	UNK0	0.000	
6	   C	4.782	0.521	-0.297	C.2	1	UNK0	0.000	
7	   C	5.306	0.198	0.957	C.2	1	UNK0	0.000	
8	   C	2.871	1.023	-1.744	C.2	1	UNK0	0.000	
9	   N	3.439	1.211	-2.879	N.2	1	UNK0	0.000	
10	   C	2.491	1.529	-3.913	C.3	1	UNK0	0.000	
11	   C	1.166	1.512	-3.220	C.3	1	UNK0	0.000	
12	   N	1.472	1.186	-1.852	N.pl3	1	UNK0	0.000	
13	   C	0.601	1.028	-0.713	C.2	1	UNK0	0.000	
14	   N	-0.735	1.131	-0.575	N.2	1	UNK0	0.000	
15	   N	-1.065	0.893	0.683	N.pl3	1	UNK0	0.000	
16	   C	0.092	0.641	1.317	C.2	1	UNK0	0.000	
17	   O	0.151	0.369	2.550	O.2	1	UNK0	0.000	
18	   N	1.145	0.717	0.475	N.pl3	1	UNK0	0.000	
19	   C	-2.411	0.899	1.275	C.3	1	UNK0	0.000	
20	   C	-2.970	-0.474	1.164	C.2	1	UNK0	0.000	
21	   O	-2.732	-1.258	2.117	O.2	1	UNK0	0.000	
22	   N	-3.734	-0.888	0.040	N.pl3	1	UNK0	0.000	
23	   C	-4.303	-2.212	-0.125	C.3	1	UNK0	0.000	
24	   C	-4.853	-2.266	-1.525	C.3	1	UNK0	0.000	
25	   C	-4.075	-1.162	-2.211	C.3	1	UNK0	0.000	
26	   C	-4.080	-0.092	-1.114	C.3	1	UNK0	0.000	
27	   H	2.457	0.108	2.695	 H	1	UNK0	0.000	
28	   H	5.438	0.635	-1.131	 H	1	UNK0	0.000	
29	   H	6.373	0.077	1.026	 H	1	UNK0	0.000	
30	   H	2.477	0.746	-4.715	 H	1	UNK0	0.000	
31	   H	2.692	2.531	-4.362	 H	1	UNK0	0.000	
32	   H	0.461	0.786	-3.681	 H	1	UNK0	0.000	
33	   H	0.744	2.546	-3.222	 H	1	UNK0	0.000	
34	   H	-3.046	1.629	0.732	 H	1	UNK0	0.000	
35	   H	-2.291	1.177	2.332	 H	1	UNK0	0.000	
36	   H	-5.103	-2.309	0.635	 H	1	UNK0	0.000	
37	   H	-3.490	-2.957	0.022	 H	1	UNK0	0.000	
38	   H	-5.922	-1.951	-1.528	 H	1	UNK0	0.000	
39	   H	-4.707	-3.247	-2.019	 H	1	UNK0	0.000	
40	   H	-4.567	-0.824	-3.125	 H	1	UNK0	0.000	
41	   H	-3.021	-1.509	-2.387	 H	1	UNK0	0.000	
42	   H	-3.401	0.731	-1.324	 H	1	UNK0	0.000	
43	   H	-5.139	0.215	-0.984	 H	1	UNK0	0.000	
@<TRIPOS>BOND
1 1 2 1
2 2 3 2
3 2 7 1
4 3 4 1
5 4 5 2
6 4 18 1
7 5 6 1
8 5 8 1
9 6 7 2
10 8 9 2
11 8 12 1
12 9 10 1
13 10 11 1
14 11 12 1
15 12 13 1
16 13 14 2
17 13 18 1
18 14 15 1
19 15 16 1
20 15 19 1
21 16 17 2
22 16 18 1
23 19 20 1
24 20 21 2
25 20 22 1
26 22 23 1
27 22 26 1
28 23 24 1
29 24 25 1
30 25 26 1
31 3 27 1
32 6 28 1
33 7 29 1
34 10 30 1
35 10 31 1
36 11 32 1
37 11 33 1
38 19 34 1
39 19 35 1
40 23 36 1
41 23 37 1
42 24 38 1
43 24 39 1
44 25 40 1
45 25 41 1
46 26 42 1
47 26 43 1
@<TRIPOS>SUBSTRUCTURE
1	UNK0	1	GROUP	1 ****	UNK
# created with PyMOL 2.3.2
@<TRIPOS>MOLECULE
1806
47 50 1                 
SMALL
USER_CHARGES
@<TRIPOS>ATOM
1	  Cl	5.454	-3.554	-2.845	Cl	1	UNK0	0.000	
2	   C	3.926	-2.787	-2.416	C.2	1	UNK0	0.000	
3	   C	3.069	-2.288	-3.348	C.2	1	UNK0	0.000	
4	   C	1.882	-1.695	-2.965	C.2	1	UNK0	0.000	
5	   C	1.545	-1.599	-1.639	C.2	1	UNK0	0.000	
6	   C	2.410	-2.102	-0.702	C.2	1	UNK0	0.000	
7	   C	3.600	-2.697	-1.082	C.2	1	UNK0	0.000	
8	   N	0.312	-0.984	-1.201	N.pl3	1	UNK0	0.000	
9	   C	-0.609	-0.452	-2.133	C.2	1	UNK0	0.000	
10	   C	-1.738	0.113	-1.775	C.2	1	UNK0	0.000	
11	   N	-2.224	0.287	-0.451	N.pl3	1	UNK0	0.000	
12	   C	-2.482	-0.814	0.454	C.3	1	UNK0	0.000	
13	   C	-1.886	-0.430	1.818	C.3	1	UNK0	0.000	
14	   N	-1.128	0.772	1.751	N.pl3	1	UNK0	0.000	
15	   C	-1.900	1.952	1.365	C.3	1	UNK0	0.000	
16	   C	-2.511	1.627	0.023	C.3	1	UNK0	0.000	
17	   C	0.255	0.973	1.986	C.2	1	UNK0	0.000	
18	   N	1.043	1.383	0.924	N.2	1	UNK0	0.000	
19	   C	2.355	1.593	1.010	C.2	1	UNK0	0.000	
20	   C	2.963	1.393	2.218	C.2	1	UNK0	0.000	
21	   C	2.217	0.989	3.289	C.2	1	UNK0	0.000	
22	   C	0.828	0.766	3.205	C.2	1	UNK0	0.000	
23	   C	0.072	0.373	4.355	C.2	1	UNK0	0.000	
24	   O	-1.149	0.241	4.401	O.2	1	UNK0	0.000	
25	   N	0.770	0.106	5.565	N.pl3	1	UNK0	0.000	
26	   N	-0.274	-0.543	-3.536	N.pl3	1	UNK0	0.000	
27	   C	0.942	-1.150	-3.934	C.2	1	UNK0	0.000	
28	   O	1.260	-1.242	-5.169	O.2	1	UNK0	0.000	
29	   H	3.296	-2.343	-4.388	 H	1	UNK0	0.000	
30	   H	2.129	-2.018	0.341	 H	1	UNK0	0.000	
31	   H	4.270	-3.088	-0.347	 H	1	UNK0	0.000	
32	   H	0.110	-0.940	-0.187	 H	1	UNK0	0.000	
33	   H	-2.373	0.491	-2.593	 H	1	UNK0	0.000	
34	   H	-2.040	-1.762	0.151	 H	1	UNK0	0.000	
35	   H	-3.601	-0.939	0.537	 H	1	UNK0	0.000	
36	   H	-1.272	-1.267	2.127	 H	1	UNK0	0.000	
37	   H	-2.804	-0.275	2.439	 H	1	UNK0	0.000	
38	   H	-1.286	2.847	1.253	 H	1	UNK0	0.000	
39	   H	-2.715	2.151	2.090	 H	1	UNK0	0.000	
40	   H	-3.626	1.694	0.061	 H	1	UNK0	0.000	
41	   H	-2.185	2.372	-0.742	 H	1	UNK0	0.000	
42	   H	2.907	1.916	0.124	 H	1	UNK0	0.000	
43	   H	4.014	1.554	2.313	 H	1	UNK0	0.000	
44	   H	2.660	0.814	4.283	 H	1	UNK0	0.000	
45	   H	1.398	-0.725	5.647	 H	1	UNK0	0.000	
46	   H	0.699	0.705	6.417	 H	1	UNK0	0.000	
47	   H	-0.927	-0.162	-4.249	 H	1	UNK0	0.000	
@<TRIPOS>BOND
1 1 2 1
2 2 3 2
3 2 7 1
4 3 4 1
5 4 5 2
6 4 27 1
7 5 6 1
8 5 8 1
9 6 7 2
10 8 9 1
11 9 10 2
12 9 26 1
13 10 11 1
14 11 12 1
15 11 16 1
16 12 13 1
17 13 14 1
18 14 15 1
19 14 17 1
20 15 16 1
21 17 18 2
22 17 22 1
23 18 19 1
24 19 20 2
25 20 21 1
26 21 22 2
27 22 23 1
28 23 24 2
29 23 25 1
30 26 27 1
31 27 28 2
32 3 29 1
33 6 30 1
34 7 31 1
35 8 32 1
36 10 33 1
37 12 34 1
38 12 35 1
39 13 36 1
40 13 37 1
41 15 38 1
42 15 39 1
43 16 40 1
44 16 41 1
45 19 42 1
46 20 43 1
47 21 44 1
48 25 45 1
49 25 46 1
50 26 47 1
@<TRIPOS>SUBSTRUCTURE
1	UNK0	1	GROUP	1 ****	UNK
# created with PyMOL 2.3.2
@<TRIPOS>MOLECULE
1808
38 42 1                 
SMALL
USER_CHARGES
@<TRIPOS>ATOM
1	  Br	-7.367	-2.584	0.879	Br	1	UNK0	0.000	
2	   C	-5.496	-2.633	0.571	C.2	1	UNK0	0.000	
3	   C	-4.968	-1.952	-0.499	C.2	1	UNK0	0.000	
4	   C	-3.606	-2.004	-0.698	C.2	1	UNK0	0.000	
5	   C	-2.769	-2.713	0.135	C.2	1	UNK0	0.000	
6	   C	-3.301	-3.401	1.217	C.2	1	UNK0	0.000	
7	   C	-4.682	-3.345	1.416	C.2	1	UNK0	0.000	
8	   N	-1.353	-2.757	-0.082	N.pl3	1	UNK0	0.000	
9	   C	-0.414	-2.278	0.868	C.2	1	UNK0	0.000	
10	   O	-0.670	-2.099	2.083	O.2	1	UNK0	0.000	
11	   C	0.886	-2.035	0.187	C.3	1	UNK0	0.000	
12	   C	1.038	-0.611	-0.251	C.3	1	UNK0	0.000	
13	   O	1.830	-0.783	-1.408	O.3	1	UNK0	0.000	
14	   C	0.918	-1.604	-2.118	C.3	1	UNK0	0.000	
15	   C	0.751	-2.737	-1.165	C.3	1	UNK0	0.000	
16	   C	-0.643	-3.254	-1.216	C.2	1	UNK0	0.000	
17	   O	-1.089	-3.989	-2.101	O.2	1	UNK0	0.000	
18	   C	-0.291	-0.743	-2.043	C.2	1	UNK0	0.000	
19	   C	-0.237	-0.175	-0.842	C.2	1	UNK0	0.000	
20	   C	1.648	0.294	0.731	C.3	1	UNK0	0.000	
21	   O	0.899	0.477	1.861	O.3	1	UNK0	0.000	
22	   C	0.417	1.762	1.868	C.3	1	UNK0	0.000	
23	   C	0.934	2.414	0.628	C.3	1	UNK0	0.000	
24	   O	1.919	1.537	0.188	O.3	1	UNK0	0.000	
25	   H	-5.588	-1.375	-1.191	 H	1	UNK0	0.000	
26	   H	-3.151	-1.470	-1.546	 H	1	UNK0	0.000	
27	   H	-2.635	-3.950	1.860	 H	1	UNK0	0.000	
28	   H	-5.096	-3.881	2.258	 H	1	UNK0	0.000	
29	   H	1.713	-2.412	0.787	 H	1	UNK0	0.000	
30	   H	1.248	-1.850	-3.112	 H	1	UNK0	0.000	
31	   H	1.482	-3.539	-1.269	 H	1	UNK0	0.000	
32	   H	-1.014	-0.654	-2.843	 H	1	UNK0	0.000	
33	   H	-1.034	0.463	-0.474	 H	1	UNK0	0.000	
34	   H	2.637	-0.145	1.031	 H	1	UNK0	0.000	
35	   H	0.725	2.345	2.758	 H	1	UNK0	0.000	
36	   H	-0.700	1.707	1.793	 H	1	UNK0	0.000	
37	   H	1.376	3.426	0.864	 H	1	UNK0	0.000	
38	   H	0.159	2.520	-0.173	 H	1	UNK0	0.000	
@<TRIPOS>BOND
1 1 2 1
2 2 3 2
3 2 7 1
4 3 4 1
5 4 5 2
6 5 6 1
7 5 8 1
8 6 7 2
9 8 9 1
10 8 16 1
11 9 10 2
12 9 11 1
13 11 12 1
14 11 15 1
15 12 13 1
16 12 19 1
17 12 20 1
18 13 14 1
19 14 15 1
20 14 18 1
21 15 16 1
22 16 17 2
23 18 19 2
24 20 21 1
25 20 24 1
26 21 22 1
27 22 23 1
28 23 24 1
29 3 25 1
30 4 26 1
31 6 27 1
32 7 28 1
33 11 29 1
34 14 30 1
35 15 31 1
36 18 32 1
37 19 33 1
38 20 34 1
39 22 35 1
40 22 36 1
41 23 37 1
42 23 38 1
@<TRIPOS>SUBSTRUCTURE
1	UNK0	1	GROUP	1 ****	UNK
# created with PyMOL 2.3.2
@<TRIPOS>MOLECULE
1810
57 60 1                 
SMALL
USER_CHARGES
@<TRIPOS>ATOM
1	   S	-1.761	3.587	1.812	S.O2	1	UNK0	0.000	
2	   O	-0.824	4.395	2.664	O.2	1	UNK0	0.000	
3	   O	-3.154	3.912	2.308	O.2	1	UNK0	0.000	
4	   N	-1.535	1.899	2.046	N.3	1	UNK0	0.000	
5	   C	-2.547	1.134	1.362	C.3	1	UNK0	0.000	
6	   C	-2.086	-0.304	1.317	C.3	1	UNK0	0.000	
7	   N	-0.960	-0.473	2.199	N.pl3	1	UNK0	0.000	
8	   C	-0.919	0.152	3.516	C.3	1	UNK0	0.000	
9	   C	-1.577	1.532	3.447	C.3	1	UNK0	0.000	
10	   C	0.139	-1.249	1.789	C.2	1	UNK0	0.000	
11	   O	1.113	-1.422	2.601	O.2	1	UNK0	0.000	
12	   C	0.172	-1.857	0.431	C.3	1	UNK0	0.000	
13	   C	0.490	-0.859	-0.645	C.3	1	UNK0	0.000	
14	   N	1.884	-1.102	-1.003	N.pl3	1	UNK0	0.000	
15	   C	2.422	-2.112	-0.170	C.2	1	UNK0	0.000	
16	   O	3.645	-2.266	0.063	O.2	1	UNK0	0.000	
17	   C	1.262	-2.887	0.320	C.3	1	UNK0	0.000	
18	   C	2.596	-0.404	-2.049	C.3	1	UNK0	0.000	
19	   C	2.473	-1.094	-3.355	C.2	1	UNK0	0.000	
20	   C	3.102	-0.554	-4.467	C.2	1	UNK0	0.000	
21	   C	3.031	-1.141	-5.719	C.2	1	UNK0	0.000	
22	   C	2.298	-2.305	-5.829	C.2	1	UNK0	0.000	
23	   C	1.658	-2.871	-4.740	C.2	1	UNK0	0.000	
24	   C	1.747	-2.258	-3.491	C.2	1	UNK0	0.000	
25	  Cl	4.012	0.918	-4.263	Cl	1	UNK0	0.000	
26	   C	-1.648	4.023	0.134	C.2	1	UNK0	0.000	
27	   C	-2.620	4.140	-0.834	C.2	1	UNK0	0.000	
28	   N	-2.001	4.503	-1.999	N.2	1	UNK0	0.000	
29	   O	-0.748	4.600	-1.759	O.3	1	UNK0	0.000	
30	   C	-0.463	4.328	-0.508	C.2	1	UNK0	0.000	
31	   C	0.909	4.364	0.044	C.3	1	UNK0	0.000	
32	   C	-4.063	3.917	-0.623	C.3	1	UNK0	0.000	
33	   H	-3.522	1.144	1.923	 H	1	UNK0	0.000	
34	   H	-2.766	1.530	0.349	 H	1	UNK0	0.000	
35	   H	-2.920	-1.003	1.587	 H	1	UNK0	0.000	
36	   H	-1.757	-0.517	0.286	 H	1	UNK0	0.000	
37	   H	-1.391	-0.504	4.271	 H	1	UNK0	0.000	
38	   H	0.146	0.259	3.791	 H	1	UNK0	0.000	
39	   H	-1.031	2.206	4.104	 H	1	UNK0	0.000	
40	   H	-2.608	1.401	3.834	 H	1	UNK0	0.000	
41	   H	-0.834	-2.343	0.244	 H	1	UNK0	0.000	
42	   H	-0.185	-1.033	-1.521	 H	1	UNK0	0.000	
43	   H	0.384	0.213	-0.299	 H	1	UNK0	0.000	
44	   H	1.473	-3.377	1.295	 H	1	UNK0	0.000	
45	   H	0.967	-3.627	-0.457	 H	1	UNK0	0.000	
46	   H	3.672	-0.261	-1.818	 H	1	UNK0	0.000	
47	   H	2.123	0.604	-2.181	 H	1	UNK0	0.000	
48	   H	3.543	-0.671	-6.545	 H	1	UNK0	0.000	
49	   H	2.225	-2.790	-6.808	 H	1	UNK0	0.000	
50	   H	1.097	-3.780	-4.873	 H	1	UNK0	0.000	
51	   H	1.247	-2.698	-2.642	 H	1	UNK0	0.000	
52	   H	0.877	3.972	1.082	 H	1	UNK0	0.000	
53	   H	1.512	3.638	-0.576	 H	1	UNK0	0.000	
54	   H	1.334	5.365	-0.046	 H	1	UNK0	0.000	
55	   H	-4.584	4.507	-1.436	 H	1	UNK0	0.000	
56	   H	-4.387	2.882	-0.765	 H	1	UNK0	0.000	
57	   H	-4.403	4.304	0.379	 H	1	UNK0	0.000	
@<TRIPOS>BOND
1 1 2 2
2 1 3 2
3 1 4 1
4 1 26 1
5 4 5 1
6 4 9 1
7 5 6 1
8 6 7 1
9 7 8 1
10 7 10 1
11 8 9 1
12 10 11 2
13 10 12 1
14 12 13 1
15 12 17 1
16 13 14 1
17 14 15 1
18 14 18 1
19 15 16 2
20 15 17 1
21 18 19 1
22 19 20 2
23 19 24 1
24 20 21 1
25 20 25 1
26 21 22 2
27 22 23 1
28 23 24 2
29 26 27 1
30 26 30 2
31 27 28 2
32 27 32 1
33 28 29 1
34 29 30 1
35 30 31 1
36 5 33 1
37 5 34 1
38 6 35 1
39 6 36 1
40 8 37 1
41 8 38 1
42 9 39 1
43 9 40 1
44 12 41 1
45 13 42 1
46 13 43 1
47 17 44 1
48 17 45 1
49 18 46 1
50 18 47 1
51 21 48 1
52 22 49 1
53 23 50 1
54 24 51 1
55 31 52 1
56 31 53 1
57 31 54 1
58 32 55 1
59 32 56 1
60 32 57 1
@<TRIPOS>SUBSTRUCTURE
1	UNK0	1	GROUP	1 ****	UNK
# created with PyMOL 2.3.2
@<TRIPOS>MOLECULE
1816
58 61 1                 
SMALL
USER_CHARGES
@<TRIPOS>ATOM
1	  Cl	0.119	-0.226	-8.156	Cl	1	UNK0	0.000	
2	   C	0.016	0.975	-6.889	C.2	1	UNK0	0.000	
3	   C	-0.366	0.650	-5.591	C.2	1	UNK0	0.000	
4	   C	-0.448	1.596	-4.598	C.2	1	UNK0	0.000	
5	   C	-0.140	2.901	-4.905	C.2	1	UNK0	0.000	
6	   C	0.245	3.224	-6.213	C.2	1	UNK0	0.000	
7	   C	0.326	2.277	-7.208	C.2	1	UNK0	0.000	
8	   O	0.713	2.611	-8.519	O.3	1	UNK0	0.000	
9	   C	1.038	3.929	-8.886	C.3	1	UNK0	0.000	
10	   O	-0.213	3.814	-3.967	O.3	1	UNK0	0.000	
11	   C	-0.571	3.541	-2.736	C.2	1	UNK0	0.000	
12	   O	-0.630	4.458	-1.850	O.co2	1	UNK0	0.000	
13	   C	-0.904	2.254	-2.317	C.2	1	UNK0	0.000	
14	   C	-0.831	1.283	-3.290	C.2	1	UNK0	0.000	
15	   C	-1.152	-0.105	-2.973	C.3	1	UNK0	0.000	
16	   C	-1.299	2.011	-0.911	C.3	1	UNK0	0.000	
17	   C	-0.115	2.003	-0.008	C.2	1	UNK0	0.000	
18	   O	1.031	2.198	-0.542	O.2	1	UNK0	0.000	
19	   N	-0.160	1.801	1.360	N.pl3	1	UNK0	0.000	
20	   C	1.002	1.799	2.193	C.3	1	UNK0	0.000	
21	   C	1.087	0.433	2.877	C.3	1	UNK0	0.000	
22	   N	-0.127	0.176	3.575	N.pl3	1	UNK0	0.000	
23	   C	-1.179	1.210	3.474	C.3	1	UNK0	0.000	
24	   C	-1.422	1.577	2.027	C.3	1	UNK0	0.000	
25	   C	-0.408	-0.975	4.341	C.2	1	UNK0	0.000	
26	   O	-1.615	-0.957	4.897	O.2	1	UNK0	0.000	
27	   C	0.364	-2.147	4.625	C.2	1	UNK0	0.000	
28	   C	-0.182	-3.153	5.462	C.2	1	UNK0	0.000	
29	   C	0.526	-4.286	5.762	C.2	1	UNK0	0.000	
30	   O	0.018	-5.164	6.508	O.2	1	UNK0	0.000	
31	   N	1.760	-4.513	5.293	N.pl3	1	UNK0	0.000	
32	   C	2.274	-3.567	4.506	C.2	1	UNK0	0.000	
33	   O	3.446	-3.735	4.034	O.2	1	UNK0	0.000	
34	   N	1.588	-2.415	4.184	N.pl3	1	UNK0	0.000	
35	   C	2.492	-5.714	5.623	C.3	1	UNK0	0.000	
36	   H	-0.611	-0.370	-5.334	 H	1	UNK0	0.000	
37	   H	0.482	4.254	-6.434	 H	1	UNK0	0.000	
38	   H	1.631	4.465	-8.122	 H	1	UNK0	0.000	
39	   H	1.514	3.901	-9.881	 H	1	UNK0	0.000	
40	   H	0.058	4.489	-8.932	 H	1	UNK0	0.000	
41	   H	-1.972	-0.412	-3.690	 H	1	UNK0	0.000	
42	   H	-1.541	-0.277	-1.979	 H	1	UNK0	0.000	
43	   H	-0.313	-0.793	-3.221	 H	1	UNK0	0.000	
44	   H	-2.014	1.216	-0.744	 H	1	UNK0	0.000	
45	   H	-1.853	2.958	-0.612	 H	1	UNK0	0.000	
46	   H	0.946	2.548	3.013	 H	1	UNK0	0.000	
47	   H	1.939	2.026	1.646	 H	1	UNK0	0.000	
48	   H	1.213	-0.353	2.092	 H	1	UNK0	0.000	
49	   H	2.003	0.420	3.509	 H	1	UNK0	0.000	
50	   H	-2.061	0.837	4.000	 H	1	UNK0	0.000	
51	   H	-0.778	2.099	3.980	 H	1	UNK0	0.000	
52	   H	-1.921	0.721	1.543	 H	1	UNK0	0.000	
53	   H	-2.062	2.464	1.916	 H	1	UNK0	0.000	
54	   H	-1.178	-2.971	5.842	 H	1	UNK0	0.000	
55	   H	2.076	-1.743	3.560	 H	1	UNK0	0.000	
56	   H	3.548	-5.574	5.308	 H	1	UNK0	0.000	
57	   H	2.122	-6.588	5.016	 H	1	UNK0	0.000	
58	   H	2.448	-5.968	6.698	 H	1	UNK0	0.000	
@<TRIPOS>BOND
1 1 2 1
2 2 3 2
3 2 7 1
4 3 4 1
5 4 5 2
6 4 14 1
7 5 6 1
8 5 10 1
9 6 7 2
10 7 8 1
11 8 9 1
12 10 11 1
13 11 12 2
14 11 13 1
15 13 14 2
16 13 16 1
17 14 15 1
18 16 17 1
19 17 18 2
20 17 19 1
21 19 20 1
22 19 24 1
23 20 21 1
24 21 22 1
25 22 23 1
26 22 25 1
27 23 24 1
28 25 26 2
29 25 27 1
30 27 28 2
31 27 34 1
32 28 29 1
33 29 30 2
34 29 31 1
35 31 32 1
36 31 35 1
37 32 33 2
38 32 34 1
39 3 36 1
40 6 37 1
41 9 38 1
42 9 39 1
43 9 40 1
44 15 41 1
45 15 42 1
46 15 43 1
47 16 44 1
48 16 45 1
49 20 46 1
50 20 47 1
51 21 48 1
52 21 49 1
53 23 50 1
54 23 51 1
55 24 52 1
56 24 53 1
57 28 54 1
58 34 55 1
59 35 56 1
60 35 57 1
61 35 58 1
@<TRIPOS>SUBSTRUCTURE
1	UNK0	1	GROUP	1 ****	UNK
# created with PyMOL 2.3.2
@<TRIPOS>MOLECULE
1822
35 38 1                 
SMALL
USER_CHARGES
@<TRIPOS>ATOM
1	  Cl	-3.125	5.784	-2.392	Cl	1	UNK0	0.000	
2	   C	-2.878	4.069	-2.080	C.2	1	UNK0	0.000	
3	   C	-3.678	3.162	-2.738	C.2	1	UNK0	0.000	
4	   N	-3.481	1.857	-2.493	N.pl3	1	UNK0	0.000	
5	   C	-2.532	1.407	-1.631	C.2	1	UNK0	0.000	
6	   N	-1.745	2.283	-0.984	N.pl3	1	UNK0	0.000	
7	   N	-0.905	1.608	-0.205	N.2	1	UNK0	0.000	
8	   C	-1.123	0.283	-0.326	C.2	1	UNK0	0.000	
9	   N	-2.140	0.188	-1.219	N.2	1	UNK0	0.000	
10	   N	-0.442	-0.780	0.335	N.pl3	1	UNK0	0.000	
11	   C	0.937	-0.801	0.677	C.2	1	UNK0	0.000	
12	   O	1.727	0.172	0.788	O.2	1	UNK0	0.000	
13	   C	1.365	-2.223	0.906	C.3	1	UNK0	0.000	
14	   C	0.107	-3.012	0.983	C.3	1	UNK0	0.000	
15	   C	-0.149	-3.656	2.334	C.3	1	UNK0	0.000	
16	   C	0.036	-2.579	3.359	C.2	1	UNK0	0.000	
17	   C	1.175	-1.915	3.280	C.2	1	UNK0	0.000	
18	   C	2.128	-2.298	2.211	C.3	1	UNK0	0.000	
19	   C	-0.966	-2.019	0.787	C.2	1	UNK0	0.000	
20	   O	-2.206	-2.229	0.991	O.2	1	UNK0	0.000	
21	   C	-1.917	3.609	-1.207	C.2	1	UNK0	0.000	
22	   O	-1.173	4.440	-0.596	O.2	1	UNK0	0.000	
23	   C	-4.732	3.643	-3.694	C.3	1	UNK0	0.000	
24	   H	-4.087	1.162	-2.990	 H	1	UNK0	0.000	
25	   H	2.028	-2.535	0.068	 H	1	UNK0	0.000	
26	   H	0.127	-3.775	0.175	 H	1	UNK0	0.000	
27	   H	-1.193	-4.015	2.367	 H	1	UNK0	0.000	
28	   H	0.589	-4.459	2.500	 H	1	UNK0	0.000	
29	   H	-0.735	-2.392	4.092	 H	1	UNK0	0.000	
30	   H	1.405	-1.125	3.966	 H	1	UNK0	0.000	
31	   H	2.997	-1.599	2.206	 H	1	UNK0	0.000	
32	   H	2.472	-3.349	2.362	 H	1	UNK0	0.000	
33	   H	-5.471	4.275	-3.186	 H	1	UNK0	0.000	
34	   H	-4.256	4.202	-4.540	 H	1	UNK0	0.000	
35	   H	-5.283	2.787	-4.134	 H	1	UNK0	0.000	
@<TRIPOS>BOND
1 1 2 1
2 2 3 2
3 2 21 1
4 3 4 1
5 3 23 1
6 4 5 1
7 5 6 1
8 5 9 2
9 6 7 1
10 6 21 1
11 7 8 2
12 8 9 1
13 8 10 1
14 10 11 1
15 10 19 1
16 11 12 2
17 11 13 1
18 13 14 1
19 13 18 1
20 14 15 1
21 14 19 1
22 15 16 1
23 16 17 2
24 17 18 1
25 19 20 2
26 21 22 2
27 4 24 1
28 13 25 1
29 14 26 1
30 15 27 1
31 15 28 1
32 16 29 1
33 17 30 1
34 18 31 1
35 18 32 1
36 23 33 1
37 23 34 1
38 23 35 1
@<TRIPOS>SUBSTRUCTURE
1	UNK0	1	GROUP	1 ****	UNK
# created with PyMOL 2.3.2
@<TRIPOS>MOLECULE
1825
51 54 1                 
SMALL
USER_CHARGES
@<TRIPOS>ATOM
1	  Cl	-1.949	1.750	-4.884	Cl	1	UNK0	0.000	
2	   C	-2.155	2.414	-3.277	C.2	1	UNK0	0.000	
3	   C	-1.280	2.124	-2.255	C.2	1	UNK0	0.000	
4	   C	-1.459	2.662	-0.962	C.2	1	UNK0	0.000	
5	   C	-2.540	3.478	-0.798	C.2	1	UNK0	0.000	
6	   C	-3.438	3.778	-1.842	C.2	1	UNK0	0.000	
7	   C	-3.239	3.239	-3.087	C.2	1	UNK0	0.000	
8	   N	-0.521	2.326	0.034	N.pl3	1	UNK0	0.000	
9	   C	-0.540	2.750	1.353	C.2	1	UNK0	0.000	
10	   O	-1.415	3.489	1.817	O.2	1	UNK0	0.000	
11	   C	0.533	2.334	2.338	C.3	1	UNK0	0.000	
12	   N	0.775	0.893	2.176	N.pl3	1	UNK0	0.000	
13	   C	0.140	-0.089	2.883	C.2	1	UNK0	0.000	
14	   N	0.584	-1.287	2.468	N.pl3	1	UNK0	0.000	
15	   C	1.501	-1.136	1.504	C.2	1	UNK0	0.000	
16	   C	1.599	0.254	1.343	C.2	1	UNK0	0.000	
17	   C	2.273	-2.092	0.727	C.2	1	UNK0	0.000	
18	   C	2.201	-3.442	0.933	C.2	1	UNK0	0.000	
19	   C	2.914	-4.364	0.189	C.2	1	UNK0	0.000	
20	   C	3.761	-3.951	-0.828	C.2	1	UNK0	0.000	
21	   C	3.834	-2.595	-1.037	C.2	1	UNK0	0.000	
22	   C	3.122	-1.674	-0.294	C.2	1	UNK0	0.000	
23	   O	4.491	-4.845	-1.593	O.3	1	UNK0	0.000	
24	   C	5.356	-4.435	-2.636	C.3	1	UNK0	0.000	
25	   C	-0.109	-2.330	3.224	C.3	1	UNK0	0.000	
26	   C	-1.305	-1.638	3.850	C.3	1	UNK0	0.000	
27	   C	-0.866	-0.222	3.967	C.3	1	UNK0	0.000	
28	   C	-0.135	1.236	-2.522	C.3	1	UNK0	0.000	
29	   H	-2.745	3.927	0.159	 H	1	UNK0	0.000	
30	   H	-4.289	4.429	-1.692	 H	1	UNK0	0.000	
31	   H	-3.936	3.473	-3.905	 H	1	UNK0	0.000	
32	   H	0.284	1.687	-0.246	 H	1	UNK0	0.000	
33	   H	1.450	2.861	2.033	 H	1	UNK0	0.000	
34	   H	0.215	2.512	3.370	 H	1	UNK0	0.000	
35	   H	2.263	0.759	0.638	 H	1	UNK0	0.000	
36	   H	1.533	-3.772	1.746	 H	1	UNK0	0.000	
37	   H	2.807	-5.424	0.412	 H	1	UNK0	0.000	
38	   H	4.500	-2.255	-1.838	 H	1	UNK0	0.000	
39	   H	3.204	-0.602	-0.479	 H	1	UNK0	0.000	
40	   H	4.785	-4.198	-3.565	 H	1	UNK0	0.000	
41	   H	5.993	-3.578	-2.374	 H	1	UNK0	0.000	
42	   H	6.030	-5.283	-2.872	 H	1	UNK0	0.000	
43	   H	0.534	-2.830	3.949	 H	1	UNK0	0.000	
44	   H	-0.557	-3.101	2.556	 H	1	UNK0	0.000	
45	   H	-1.607	-2.115	4.791	 H	1	UNK0	0.000	
46	   H	-2.158	-1.639	3.105	 H	1	UNK0	0.000	
47	   H	-1.687	0.514	3.832	 H	1	UNK0	0.000	
48	   H	-0.364	-0.066	4.963	 H	1	UNK0	0.000	
49	   H	-0.199	0.852	-3.556	 H	1	UNK0	0.000	
50	   H	0.837	1.809	-2.476	 H	1	UNK0	0.000	
51	   H	-0.037	0.393	-1.815	 H	1	UNK0	0.000	
@<TRIPOS>BOND
1 1 2 1
2 2 3 2
3 2 7 1
4 3 4 1
5 3 28 1
6 4 5 2
7 4 8 1
8 5 6 1
9 6 7 2
10 8 9 1
11 9 10 2
12 9 11 1
13 11 12 1
14 12 13 1
15 12 16 1
16 13 14 2
17 13 27 1
18 14 15 1
19 14 25 1
20 15 16 2
21 15 17 1
22 17 18 2
23 17 22 1
24 18 19 1
25 19 20 2
26 20 21 1
27 20 23 1
28 21 22 2
29 23 24 1
30 25 26 1
31 26 27 1
32 5 29 1
33 6 30 1
34 7 31 1
35 8 32 1
36 11 33 1
37 11 34 1
38 16 35 1
39 18 36 1
40 19 37 1
41 21 38 1
42 22 39 1
43 24 40 1
44 24 41 1
45 24 42 1
46 25 43 1
47 25 44 1
48 26 45 1
49 26 46 1
50 27 47 1
51 27 48 1
52 28 49 1
53 28 50 1
54 28 51 1
@<TRIPOS>SUBSTRUCTURE
1	UNK0	1	GROUP	1 ****	UNK
# created with PyMOL 2.3.2
@<TRIPOS>MOLECULE
1835
47 50 1                 
SMALL
USER_CHARGES
@<TRIPOS>ATOM
1	  Cl	3.016	-0.509	2.324	Cl	1	UNK0	0.000	
2	   C	2.217	0.521	3.489	C.2	1	UNK0	0.000	
3	   C	1.169	1.303	3.054	C.2	1	UNK0	0.000	
4	   C	0.542	2.113	3.976	C.2	1	UNK0	0.000	
5	   C	0.944	2.151	5.304	C.2	1	UNK0	0.000	
6	   C	1.992	1.371	5.748	C.2	1	UNK0	0.000	
7	   C	2.619	0.561	4.826	C.2	1	UNK0	0.000	
8	  Cl	-0.797	3.114	3.426	Cl	1	UNK0	0.000	
9	   C	0.729	1.279	1.656	C.2	1	UNK0	0.000	
10	   N	-0.244	1.999	1.233	N.2	1	UNK0	0.000	
11	   N	-0.600	1.916	-0.115	N.pl3	1	UNK0	0.000	
12	   C	0.296	1.438	-1.108	C.2	1	UNK0	0.000	
13	   N	0.422	0.159	-1.495	N.pl3	1	UNK0	0.000	
14	   C	1.372	0.151	-2.446	C.2	1	UNK0	0.000	
15	   N	1.919	-0.837	-3.195	N.2	1	UNK0	0.000	
16	   C	2.881	-0.589	-4.105	C.2	1	UNK0	0.000	
17	   N	3.327	0.672	-4.292	N.2	1	UNK0	0.000	
18	   C	2.833	1.707	-3.587	C.2	1	UNK0	0.000	
19	   C	1.848	1.427	-2.660	C.2	1	UNK0	0.000	
20	   N	1.155	2.217	-1.807	N.2	1	UNK0	0.000	
21	   N	3.320	3.016	-3.806	N.pl3	1	UNK0	0.000	
22	   C	-0.267	-1.016	-1.047	C.3	1	UNK0	0.000	
23	   O	-1.397	-0.720	-0.289	O.3	1	UNK0	0.000	
24	   C	-2.046	-1.954	-0.270	C.3	1	UNK0	0.000	
25	   C	-2.145	-2.250	-1.759	C.3	1	UNK0	0.000	
26	   C	-0.760	-1.845	-2.220	C.3	1	UNK0	0.000	
27	   O	-0.017	-3.019	-2.362	O.3	1	UNK0	0.000	
28	   O	-2.401	-3.592	-2.003	O.3	1	UNK0	0.000	
29	   C	-3.402	-1.887	0.379	C.3	1	UNK0	0.000	
30	   O	-4.261	-1.023	-0.254	O.3	1	UNK0	0.000	
31	   H	0.457	2.784	6.033	 H	1	UNK0	0.000	
32	   H	2.340	1.367	6.772	 H	1	UNK0	0.000	
33	   H	3.453	-0.066	5.154	 H	1	UNK0	0.000	
34	   H	1.233	0.638	0.951	 H	1	UNK0	0.000	
35	   H	-1.569	2.228	-0.363	 H	1	UNK0	0.000	
36	   H	3.323	-1.372	-4.706	 H	1	UNK0	0.000	
37	   H	4.310	3.266	-3.639	 H	1	UNK0	0.000	
38	   H	2.667	3.746	-4.142	 H	1	UNK0	0.000	
39	   H	0.369	-1.679	-0.419	 H	1	UNK0	0.000	
40	   H	-1.378	-2.686	0.178	 H	1	UNK0	0.000	
41	   H	-2.921	-1.583	-2.223	 H	1	UNK0	0.000	
42	   H	-0.782	-1.256	-3.158	 H	1	UNK0	0.000	
43	   H	0.560	-3.186	-1.590	 H	1	UNK0	0.000	
44	   H	-2.296	-4.076	-1.140	 H	1	UNK0	0.000	
45	   H	-3.242	-1.551	1.426	 H	1	UNK0	0.000	
46	   H	-3.778	-2.929	0.450	 H	1	UNK0	0.000	
47	   H	-3.785	-0.377	-0.820	 H	1	UNK0	0.000	
@<TRIPOS>BOND
1 1 2 1
2 2 3 2
3 2 7 1
4 3 4 1
5 3 9 1
6 4 5 2
7 4 8 1
8 5 6 1
9 6 7 2
10 9 10 2
11 10 11 1
12 11 12 1
13 12 13 1
14 12 20 2
15 13 14 1
16 13 22 1
17 14 15 2
18 14 19 1
19 15 16 1
20 16 17 2
21 17 18 1
22 18 19 2
23 18 21 1
24 19 20 1
25 22 23 1
26 22 26 1
27 23 24 1
28 24 25 1
29 24 29 1
30 25 26 1
31 25 28 1
32 26 27 1
33 29 30 1
34 5 31 1
35 6 32 1
36 7 33 1
37 9 34 1
38 11 35 1
39 16 36 1
40 21 37 1
41 21 38 1
42 22 39 1
43 24 40 1
44 25 41 1
45 26 42 1
46 27 43 1
47 28 44 1
48 29 45 1
49 29 46 1
50 30 47 1
@<TRIPOS>SUBSTRUCTURE
1	UNK0	1	GROUP	1 ****	UNK
# created with PyMOL 2.3.2
@<TRIPOS>MOLECULE
1837
49 52 1                 
SMALL
USER_CHARGES
@<TRIPOS>ATOM
1	  Cl	-2.115	5.444	2.987	Cl	1	UNK0	0.000	
2	   C	-2.045	4.123	1.840	C.2	1	UNK0	0.000	
3	   C	-1.248	3.010	2.066	C.2	1	UNK0	0.000	
4	   C	-1.211	1.990	1.151	C.2	1	UNK0	0.000	
5	   C	-1.957	2.011	-0.037	C.2	1	UNK0	0.000	
6	   C	-2.733	3.118	-0.238	C.2	1	UNK0	0.000	
7	   C	-2.781	4.159	0.681	C.2	1	UNK0	0.000	
8	   N	-1.873	0.938	-0.949	N.pl3	1	UNK0	0.000	
9	   C	-2.698	0.665	-2.044	C.2	1	UNK0	0.000	
10	   O	-3.667	1.423	-2.303	O.2	1	UNK0	0.000	
11	   C	-2.467	-0.529	-2.941	C.3	1	UNK0	0.000	
12	   N	-1.239	-1.153	-2.483	N.3	1	UNK0	0.000	
13	   C	-1.128	-2.530	-3.008	C.3	1	UNK0	0.000	
14	   C	-0.194	-3.197	-1.977	C.3	1	UNK0	0.000	
15	   N	0.738	-2.114	-1.628	N.pl3	1	UNK0	0.000	
16	   C	1.137	-1.286	-2.722	C.3	1	UNK0	0.000	
17	   C	-0.089	-0.428	-3.074	C.3	1	UNK0	0.000	
18	   C	1.136	-1.972	-0.291	C.2	1	UNK0	0.000	
19	   N	0.651	-2.819	0.668	N.2	1	UNK0	0.000	
20	   C	0.971	-2.740	1.959	C.2	1	UNK0	0.000	
21	   N	1.813	-1.786	2.371	N.2	1	UNK0	0.000	
22	   C	2.351	-0.905	1.534	C.2	1	UNK0	0.000	
23	   N	3.201	0.131	1.680	N.pl3	1	UNK0	0.000	
24	   N	3.372	0.644	0.488	N.2	1	UNK0	0.000	
25	   N	2.665	-0.022	-0.412	N.2	1	UNK0	0.000	
26	   C	2.006	-0.999	0.182	C.2	1	UNK0	0.000	
27	   C	3.828	0.623	2.892	C.3	1	UNK0	0.000	
28	   C	2.972	1.671	3.569	C.3	1	UNK0	0.000	
29	   H	-0.675	2.991	2.980	 H	1	UNK0	0.000	
30	   H	-0.586	1.134	1.344	 H	1	UNK0	0.000	
31	   H	-3.340	3.248	-1.115	 H	1	UNK0	0.000	
32	   H	-3.421	5.017	0.464	 H	1	UNK0	0.000	
33	   H	-1.094	0.232	-0.761	 H	1	UNK0	0.000	
34	   H	-3.352	-1.164	-2.875	 H	1	UNK0	0.000	
35	   H	-2.378	-0.094	-3.957	 H	1	UNK0	0.000	
36	   H	-0.601	-2.572	-3.969	 H	1	UNK0	0.000	
37	   H	-2.091	-3.014	-3.090	 H	1	UNK0	0.000	
38	   H	-0.855	-3.468	-1.136	 H	1	UNK0	0.000	
39	   H	0.320	-4.057	-2.397	 H	1	UNK0	0.000	
40	   H	1.411	-1.909	-3.614	 H	1	UNK0	0.000	
41	   H	1.942	-0.584	-2.487	 H	1	UNK0	0.000	
42	   H	0.014	0.574	-2.685	 H	1	UNK0	0.000	
43	   H	-0.172	-0.380	-4.182	 H	1	UNK0	0.000	
44	   H	0.535	-3.463	2.665	 H	1	UNK0	0.000	
45	   H	3.980	-0.236	3.577	 H	1	UNK0	0.000	
46	   H	4.825	1.072	2.716	 H	1	UNK0	0.000	
47	   H	2.280	1.130	4.252	 H	1	UNK0	0.000	
48	   H	3.654	2.352	4.113	 H	1	UNK0	0.000	
49	   H	2.420	2.284	2.815	 H	1	UNK0	0.000	
@<TRIPOS>BOND
1 1 2 1
2 2 3 2
3 2 7 1
4 3 4 1
5 4 5 2
6 5 6 1
7 5 8 1
8 6 7 2
9 8 9 1
10 9 10 2
11 9 11 1
12 11 12 1
13 12 13 1
14 12 17 1
15 13 14 1
16 14 15 1
17 15 16 1
18 15 18 1
19 16 17 1
20 18 19 2
21 18 26 1
22 19 20 1
23 20 21 2
24 21 22 1
25 22 23 1
26 22 26 2
27 23 24 1
28 23 27 1
29 24 25 2
30 25 26 1
31 27 28 1
32 3 29 1
33 4 30 1
34 6 31 1
35 7 32 1
36 8 33 1
37 11 34 1
38 11 35 1
39 13 36 1
40 13 37 1
41 14 38 1
42 14 39 1
43 16 40 1
44 16 41 1
45 17 42 1
46 17 43 1
47 20 44 1
48 27 45 1
49 27 46 1
50 28 47 1
51 28 48 1
52 28 49 1
@<TRIPOS>SUBSTRUCTURE
1	UNK0	1	GROUP	1 ****	UNK
# created with PyMOL 2.3.2
@<TRIPOS>MOLECULE
1846
49 52 1                 
SMALL
USER_CHARGES
@<TRIPOS>ATOM
1	  Cl	2.390	-6.133	5.773	Cl	1	UNK0	0.000	
2	   C	1.729	-5.387	4.333	C.2	1	UNK0	0.000	
3	   C	0.472	-5.724	3.892	C.2	1	UNK0	0.000	
4	   C	0.030	-5.094	2.755	C.2	1	UNK0	0.000	
5	   C	0.788	-4.153	2.055	C.2	1	UNK0	0.000	
6	   C	2.043	-3.810	2.487	C.2	1	UNK0	0.000	
7	   C	2.483	-4.464	3.653	C.2	1	UNK0	0.000	
8	   N	2.896	-2.866	1.875	N.pl3	1	UNK0	0.000	
9	   C	2.478	-1.977	0.872	C.2	1	UNK0	0.000	
10	   O	1.314	-1.947	0.443	O.2	1	UNK0	0.000	
11	   C	3.435	-0.996	0.254	C.3	1	UNK0	0.000	
12	   N	2.815	-0.183	-0.744	N.pl3	1	UNK0	0.000	
13	   C	2.756	-0.509	-2.054	C.2	1	UNK0	0.000	
14	   N	2.151	0.313	-2.937	N.2	1	UNK0	0.000	
15	   C	1.587	1.473	-2.581	C.2	1	UNK0	0.000	
16	   N	0.983	2.298	-3.452	N.2	1	UNK0	0.000	
17	   C	0.409	3.467	-3.121	C.2	1	UNK0	0.000	
18	   N	0.458	3.814	-1.806	N.2	1	UNK0	0.000	
19	   C	1.052	3.019	-0.902	C.2	1	UNK0	0.000	
20	   C	1.638	1.821	-1.253	C.2	1	UNK0	0.000	
21	   C	2.253	0.990	-0.339	C.2	1	UNK0	0.000	
22	   O	2.267	1.363	0.860	O.2	1	UNK0	0.000	
23	   N	-0.219	4.308	-4.070	N.pl3	1	UNK0	0.000	
24	   C	-0.244	3.889	-5.452	C.3	1	UNK0	0.000	
25	   C	-1.605	4.242	-6.049	C.3	1	UNK0	0.000	
26	   O	-1.963	5.560	-5.774	O.3	1	UNK0	0.000	
27	   C	-2.206	5.629	-4.402	C.3	1	UNK0	0.000	
28	   C	-0.837	5.567	-3.724	C.3	1	UNK0	0.000	
29	   O	-0.318	-6.664	4.568	O.3	1	UNK0	0.000	
30	   C	-1.602	-6.981	4.082	C.3	1	UNK0	0.000	
31	   H	-0.972	-5.349	2.385	 H	1	UNK0	0.000	
32	   H	0.365	-3.727	1.183	 H	1	UNK0	0.000	
33	   H	3.487	-4.183	3.991	 H	1	UNK0	0.000	
34	   H	3.923	-2.828	2.191	 H	1	UNK0	0.000	
35	   H	3.892	-0.341	1.005	 H	1	UNK0	0.000	
36	   H	4.245	-1.578	-0.227	 H	1	UNK0	0.000	
37	   H	3.212	-1.447	-2.339	 H	1	UNK0	0.000	
38	   H	1.100	3.284	0.160	 H	1	UNK0	0.000	
39	   H	0.540	4.397	-6.055	 H	1	UNK0	0.000	
40	   H	-0.161	2.787	-5.478	 H	1	UNK0	0.000	
41	   H	-1.531	4.150	-7.150	 H	1	UNK0	0.000	
42	   H	-2.388	3.589	-5.611	 H	1	UNK0	0.000	
43	   H	-2.793	4.748	-4.106	 H	1	UNK0	0.000	
44	   H	-2.735	6.535	-4.096	 H	1	UNK0	0.000	
45	   H	-0.226	6.440	-4.033	 H	1	UNK0	0.000	
46	   H	-1.032	5.550	-2.631	 H	1	UNK0	0.000	
47	   H	-1.501	-7.220	2.999	 H	1	UNK0	0.000	
48	   H	-2.312	-6.148	4.167	 H	1	UNK0	0.000	
49	   H	-1.963	-7.914	4.561	 H	1	UNK0	0.000	
@<TRIPOS>BOND
1 1 2 1
2 2 3 2
3 2 7 1
4 3 4 1
5 3 29 1
6 4 5 2
7 5 6 1
8 6 7 2
9 6 8 1
10 8 9 1
11 9 10 2
12 9 11 1
13 11 12 1
14 12 13 1
15 12 21 1
16 13 14 2
17 14 15 1
18 15 16 2
19 15 20 1
20 16 17 1
21 17 18 2
22 17 23 1
23 18 19 1
24 19 20 2
25 20 21 1
26 21 22 2
27 23 24 1
28 23 28 1
29 24 25 1
30 25 26 1
31 26 27 1
32 27 28 1
33 29 30 1
34 4 31 1
35 5 32 1
36 7 33 1
37 8 34 1
38 11 35 1
39 11 36 1
40 13 37 1
41 19 38 1
42 24 39 1
43 24 40 1
44 25 41 1
45 25 42 1
46 27 43 1
47 27 44 1
48 28 45 1
49 28 46 1
50 30 47 1
51 30 48 1
52 30 49 1
@<TRIPOS>SUBSTRUCTURE
1	UNK0	1	GROUP	1 ****	UNK
# created with PyMOL 2.3.2
@<TRIPOS>MOLECULE
1850
38 41 1                 
SMALL
USER_CHARGES
@<TRIPOS>ATOM
1	  Cl	-2.837	2.271	2.594	Cl	1	UNK0	0.000	
2	   C	-3.094	0.719	1.809	C.2	1	UNK0	0.000	
3	   C	-2.485	0.435	0.603	C.2	1	UNK0	0.000	
4	   C	-2.684	-0.771	-0.008	C.2	1	UNK0	0.000	
5	   C	-3.504	-1.689	0.608	C.2	1	UNK0	0.000	
6	   C	-4.122	-1.426	1.811	C.2	1	UNK0	0.000	
7	   C	-3.914	-0.205	2.420	C.2	1	UNK0	0.000	
8	   C	-2.066	-1.150	-1.301	C.3	1	UNK0	0.000	
9	   N	-1.116	-0.118	-1.638	N.pl3	1	UNK0	0.000	
10	   C	-1.559	1.248	-1.486	C.3	1	UNK0	0.000	
11	   C	-1.618	1.502	0.025	C.3	1	UNK0	0.000	
12	   C	0.192	-0.401	-2.096	C.2	1	UNK0	0.000	
13	   O	0.973	0.547	-2.373	O.2	1	UNK0	0.000	
14	   C	0.712	-1.777	-2.275	C.3	1	UNK0	0.000	
15	   O	2.027	-1.788	-2.737	O.3	1	UNK0	0.000	
16	   C	3.096	-1.217	-2.059	C.2	1	UNK0	0.000	
17	   N	2.876	-0.608	-0.878	N.2	1	UNK0	0.000	
18	   N	3.857	-0.042	-0.180	N.pl3	1	UNK0	0.000	
19	   C	5.128	-0.040	-0.603	C.2	1	UNK0	0.000	
20	   N	5.894	0.600	0.302	N.2	1	UNK0	0.000	
21	   N	5.096	0.985	1.268	N.2	1	UNK0	0.000	
22	   C	3.836	0.604	1.000	C.2	1	UNK0	0.000	
23	   C	5.393	-0.660	-1.819	C.2	1	UNK0	0.000	
24	   C	4.381	-1.245	-2.541	C.2	1	UNK0	0.000	
25	   H	-3.697	-2.664	0.166	 H	1	UNK0	0.000	
26	   H	-4.772	-2.175	2.284	 H	1	UNK0	0.000	
27	   H	-4.371	0.057	3.363	 H	1	UNK0	0.000	
28	   H	-2.799	-1.199	-2.132	 H	1	UNK0	0.000	
29	   H	-1.545	-2.127	-1.256	 H	1	UNK0	0.000	
30	   H	-0.893	1.981	-1.977	 H	1	UNK0	0.000	
31	   H	-2.586	1.394	-1.875	 H	1	UNK0	0.000	
32	   H	-2.038	2.479	0.266	 H	1	UNK0	0.000	
33	   H	-0.616	1.377	0.465	 H	1	UNK0	0.000	
34	   H	0.099	-2.386	-2.969	 H	1	UNK0	0.000	
35	   H	0.657	-2.288	-1.282	 H	1	UNK0	0.000	
36	   H	2.933	0.768	1.601	 H	1	UNK0	0.000	
37	   H	6.401	-0.661	-2.159	 H	1	UNK0	0.000	
38	   H	4.549	-1.736	-3.489	 H	1	UNK0	0.000	
@<TRIPOS>BOND
1 1 2 1
2 2 3 2
3 2 7 1
4 3 4 1
5 3 11 1
6 4 5 2
7 4 8 1
8 5 6 1
9 6 7 2
10 8 9 1
11 9 10 1
12 9 12 1
13 10 11 1
14 12 13 2
15 12 14 1
16 14 15 1
17 15 16 1
18 16 17 2
19 16 24 1
20 17 18 1
21 18 19 1
22 18 22 1
23 19 20 2
24 19 23 1
25 20 21 1
26 21 22 2
27 23 24 2
28 5 25 1
29 6 26 1
30 7 27 1
31 8 28 1
32 8 29 1
33 10 30 1
34 10 31 1
35 11 32 1
36 11 33 1
37 14 34 1
38 14 35 1
39 22 36 1
40 23 37 1
41 24 38 1
@<TRIPOS>SUBSTRUCTURE
1	UNK0	1	GROUP	1 ****	UNK
# created with PyMOL 2.3.2
@<TRIPOS>MOLECULE
1852
42 45 1                 
SMALL
USER_CHARGES
@<TRIPOS>ATOM
1	   S	-1.219	-3.652	-1.257	S.O2	1	UNK0	0.000	
2	   O	-0.409	-4.725	-1.902	O.2	1	UNK0	0.000	
3	   O	-2.601	-4.185	-0.984	O.2	1	UNK0	0.000	
4	   N	-1.382	-2.311	-2.324	N.3	1	UNK0	0.000	
5	   C	-0.124	-1.730	-2.673	C.3	1	UNK0	0.000	
6	   C	-0.237	-0.230	-2.462	C.3	1	UNK0	0.000	
7	   C	-1.293	-0.150	-1.379	C.3	1	UNK0	0.000	
8	   C	-2.231	-1.284	-1.809	C.3	1	UNK0	0.000	
9	   O	0.992	0.221	-1.918	O.3	1	UNK0	0.000	
10	   C	1.737	1.224	-2.517	C.2	1	UNK0	0.000	
11	   N	2.900	1.559	-1.887	N.2	1	UNK0	0.000	
12	   C	3.644	2.528	-2.445	C.2	1	UNK0	0.000	
13	   C	3.271	3.175	-3.606	C.2	1	UNK0	0.000	
14	   C	2.083	2.794	-4.200	C.2	1	UNK0	0.000	
15	   N	1.336	1.819	-3.639	N.2	1	UNK0	0.000	
16	  Cl	4.251	4.438	-4.322	Cl	1	UNK0	0.000	
17	   C	-0.485	-3.187	0.260	C.2	1	UNK0	0.000	
18	   C	-1.269	-2.772	1.318	C.2	1	UNK0	0.000	
19	   C	-0.738	-2.393	2.539	C.2	1	UNK0	0.000	
20	   C	0.631	-2.424	2.732	C.2	1	UNK0	0.000	
21	   C	1.403	-2.838	1.677	C.2	1	UNK0	0.000	
22	   C	0.878	-3.216	0.460	C.2	1	UNK0	0.000	
23	   O	1.120	-2.038	3.970	O.3	1	UNK0	0.000	
24	   C	0.429	-1.163	4.844	C.3	1	UNK0	0.000	
25	   C	-1.068	-1.251	4.709	C.3	1	UNK0	0.000	
26	   O	-1.509	-1.978	3.600	O.3	1	UNK0	0.000	
27	   H	0.031	-1.877	-3.767	 H	1	UNK0	0.000	
28	   H	0.737	-2.162	-2.164	 H	1	UNK0	0.000	
29	   H	-0.522	0.290	-3.384	 H	1	UNK0	0.000	
30	   H	-0.869	-0.329	-0.394	 H	1	UNK0	0.000	
31	   H	-1.862	0.794	-1.482	 H	1	UNK0	0.000	
32	   H	-2.820	-1.607	-0.919	 H	1	UNK0	0.000	
33	   H	-2.894	-0.894	-2.586	 H	1	UNK0	0.000	
34	   H	4.575	2.842	-1.998	 H	1	UNK0	0.000	
35	   H	1.760	3.291	-5.126	 H	1	UNK0	0.000	
36	   H	-2.348	-2.744	1.174	 H	1	UNK0	0.000	
37	   H	2.486	-2.856	1.850	 H	1	UNK0	0.000	
38	   H	1.502	-3.536	-0.351	 H	1	UNK0	0.000	
39	   H	0.759	-1.380	5.875	 H	1	UNK0	0.000	
40	   H	0.796	-0.127	4.593	 H	1	UNK0	0.000	
41	   H	-1.460	-1.666	5.674	 H	1	UNK0	0.000	
42	   H	-1.455	-0.214	4.621	 H	1	UNK0	0.000	
@<TRIPOS>BOND
1 1 2 2
2 1 3 2
3 1 4 1
4 1 17 1
5 4 5 1
6 4 8 1
7 5 6 1
8 6 7 1
9 6 9 1
10 7 8 1
11 9 10 1
12 10 11 2
13 10 15 1
14 11 12 1
15 12 13 2
16 13 14 1
17 13 16 1
18 14 15 2
19 17 18 2
20 17 22 1
21 18 19 1
22 19 20 2
23 19 26 1
24 20 21 1
25 20 23 1
26 21 22 2
27 23 24 1
28 24 25 1
29 25 26 1
30 5 27 1
31 5 28 1
32 6 29 1
33 7 30 1
34 7 31 1
35 8 32 1
36 8 33 1
37 12 34 1
38 14 35 1
39 18 36 1
40 21 37 1
41 22 38 1
42 24 39 1
43 24 40 1
44 25 41 1
45 25 42 1
@<TRIPOS>SUBSTRUCTURE
1	UNK0	1	GROUP	1 ****	UNK
# created with PyMOL 2.3.2
@<TRIPOS>MOLECULE
1856
51 54 1                 
SMALL
USER_CHARGES
@<TRIPOS>ATOM
1	  Br	-1.307	-6.317	0.058	Br	1	UNK0	0.000	
2	   C	-1.896	-5.095	1.399	C.2	1	UNK0	0.000	
3	   C	-1.204	-3.945	1.636	C.2	1	UNK0	0.000	
4	   C	-1.641	-3.048	2.623	C.2	1	UNK0	0.000	
5	   C	-2.768	-3.355	3.336	C.2	1	UNK0	0.000	
6	   C	-3.476	-4.542	3.087	C.2	1	UNK0	0.000	
7	   C	-3.030	-5.403	2.117	C.2	1	UNK0	0.000	
8	   O	-3.244	-2.510	4.319	O.3	1	UNK0	0.000	
9	   C	-0.889	-1.826	2.861	C.2	1	UNK0	0.000	
10	   N	0.188	-1.580	2.147	N.2	1	UNK0	0.000	
11	   N	0.880	-0.397	2.407	N.pl3	1	UNK0	0.000	
12	   C	1.206	0.510	1.364	C.2	1	UNK0	0.000	
13	   N	1.871	1.651	1.602	N.2	1	UNK0	0.000	
14	   C	2.205	2.549	0.638	C.2	1	UNK0	0.000	
15	   N	1.814	2.213	-0.620	N.2	1	UNK0	0.000	
16	   C	1.148	1.087	-0.919	C.2	1	UNK0	0.000	
17	   N	0.858	0.261	0.078	N.2	1	UNK0	0.000	
18	   N	0.772	0.801	-2.252	N.pl3	1	UNK0	0.000	
19	   C	0.052	-0.397	-2.633	C.3	1	UNK0	0.000	
20	   C	-0.811	-0.112	-3.843	C.3	1	UNK0	0.000	
21	   O	-0.113	0.374	-4.916	O.3	1	UNK0	0.000	
22	   C	1.160	0.829	-4.597	C.3	1	UNK0	0.000	
23	   C	1.091	1.713	-3.355	C.3	1	UNK0	0.000	
24	   N	2.903	3.738	0.922	N.pl3	1	UNK0	0.000	
25	   C	3.235	4.656	-0.126	C.3	1	UNK0	0.000	
26	   C	2.707	6.019	0.289	C.3	1	UNK0	0.000	
27	   O	3.319	6.337	1.511	O.3	1	UNK0	0.000	
28	   C	2.842	5.500	2.520	C.3	1	UNK0	0.000	
29	   C	3.298	4.059	2.260	C.3	1	UNK0	0.000	
30	   H	-0.307	-3.678	1.085	 H	1	UNK0	0.000	
31	   H	-4.363	-4.754	3.668	 H	1	UNK0	0.000	
32	   H	-3.560	-6.335	1.900	 H	1	UNK0	0.000	
33	   H	-2.820	-1.643	4.578	 H	1	UNK0	0.000	
34	   H	-1.187	-1.112	3.606	 H	1	UNK0	0.000	
35	   H	1.148	-0.203	3.392	 H	1	UNK0	0.000	
36	   H	-0.613	-0.712	-1.808	 H	1	UNK0	0.000	
37	   H	0.789	-1.165	-2.918	 H	1	UNK0	0.000	
38	   H	-1.687	0.509	-3.560	 H	1	UNK0	0.000	
39	   H	-1.239	-1.112	-4.148	 H	1	UNK0	0.000	
40	   H	1.600	1.352	-5.450	 H	1	UNK0	0.000	
41	   H	1.767	-0.061	-4.327	 H	1	UNK0	0.000	
42	   H	2.010	2.266	-3.184	 H	1	UNK0	0.000	
43	   H	0.191	2.354	-3.483	 H	1	UNK0	0.000	
44	   H	4.338	4.752	-0.196	 H	1	UNK0	0.000	
45	   H	2.781	4.327	-1.084	 H	1	UNK0	0.000	
46	   H	1.610	6.012	0.441	 H	1	UNK0	0.000	
47	   H	2.976	6.799	-0.450	 H	1	UNK0	0.000	
48	   H	1.736	5.501	2.432	 H	1	UNK0	0.000	
49	   H	3.199	5.859	3.492	 H	1	UNK0	0.000	
50	   H	4.385	3.955	2.438	 H	1	UNK0	0.000	
51	   H	2.746	3.409	2.976	 H	1	UNK0	0.000	
@<TRIPOS>BOND
1 1 2 1
2 2 3 2
3 2 7 1
4 3 4 1
5 4 5 2
6 4 9 1
7 5 6 1
8 5 8 1
9 6 7 2
10 9 10 2
11 10 11 1
12 11 12 1
13 12 13 2
14 12 17 1
15 13 14 1
16 14 15 2
17 14 24 1
18 15 16 1
19 16 17 2
20 16 18 1
21 18 19 1
22 18 23 1
23 19 20 1
24 20 21 1
25 21 22 1
26 22 23 1
27 24 25 1
28 24 29 1
29 25 26 1
30 26 27 1
31 27 28 1
32 28 29 1
33 3 30 1
34 6 31 1
35 7 32 1
36 8 33 1
37 9 34 1
38 11 35 1
39 19 36 1
40 19 37 1
41 20 38 1
42 20 39 1
43 22 40 1
44 22 41 1
45 23 42 1
46 23 43 1
47 25 44 1
48 25 45 1
49 26 46 1
50 26 47 1
51 28 48 1
52 28 49 1
53 29 50 1
54 29 51 1
@<TRIPOS>SUBSTRUCTURE
1	UNK0	1	GROUP	1 ****	UNK
# created with PyMOL 2.3.2
@<TRIPOS>MOLECULE
1863
52 55 1                 
SMALL
USER_CHARGES
@<TRIPOS>ATOM
1	  Cl	0.863	4.657	-0.540	Cl	1	UNK0	0.000	
2	   C	1.518	3.026	-0.423	C.2	1	UNK0	0.000	
3	   C	0.891	2.009	0.240	C.2	1	UNK0	0.000	
4	   C	1.423	0.714	0.335	C.2	1	UNK0	0.000	
5	   C	2.620	0.484	-0.272	C.2	1	UNK0	0.000	
6	   C	3.260	1.513	-0.947	C.2	1	UNK0	0.000	
7	   C	2.729	2.784	-1.035	C.2	1	UNK0	0.000	
8	   C	0.641	-0.309	1.078	C.3	1	UNK0	0.000	
9	   N	0.334	-1.497	0.354	N.pl3	1	UNK0	0.000	
10	   C	1.113	-2.613	0.386	C.2	1	UNK0	0.000	
11	   C	0.540	-3.542	-0.442	C.2	1	UNK0	0.000	
12	   N	-0.553	-2.967	-0.942	N.2	1	UNK0	0.000	
13	   C	-0.702	-1.703	-0.463	C.2	1	UNK0	0.000	
14	   N	-1.810	-0.836	-0.783	N.pl3	1	UNK0	0.000	
15	   C	-3.067	-1.188	-0.164	C.3	1	UNK0	0.000	
16	   C	-4.179	-0.212	-0.452	C.3	1	UNK0	0.000	
17	   N	-3.673	1.097	-0.253	N.3	1	UNK0	0.000	
18	   C	-2.648	1.427	-1.186	C.3	1	UNK0	0.000	
19	   C	-1.765	0.301	-1.637	C.3	1	UNK0	0.000	
20	   C	-3.316	1.305	1.115	C.3	1	UNK0	0.000	
21	   C	-4.481	1.359	2.046	C.2	1	UNK0	0.000	
22	   O	-5.664	1.232	1.693	O.2	1	UNK0	0.000	
23	   N	-4.146	1.576	3.424	N.pl3	1	UNK0	0.000	
24	   N	1.130	-4.744	-0.561	N.pl3	1	UNK0	0.000	
25	   C	2.268	-5.051	0.118	C.2	1	UNK0	0.000	
26	   O	2.833	-6.185	0.012	O.2	1	UNK0	0.000	
27	   N	2.852	-4.161	0.938	N.pl3	1	UNK0	0.000	
28	   C	2.278	-2.957	1.068	C.2	1	UNK0	0.000	
29	   O	2.845	-2.152	1.840	O.2	1	UNK0	0.000	
30	   C	0.564	-5.755	-1.415	C.3	1	UNK0	0.000	
31	   H	-0.056	2.234	0.713	 H	1	UNK0	0.000	
32	   H	3.072	-0.496	-0.239	 H	1	UNK0	0.000	
33	   H	4.219	1.319	-1.432	 H	1	UNK0	0.000	
34	   H	3.271	3.567	-1.582	 H	1	UNK0	0.000	
35	   H	1.225	-0.527	1.995	 H	1	UNK0	0.000	
36	   H	-0.293	0.176	1.457	 H	1	UNK0	0.000	
37	   H	-3.405	-2.171	-0.628	 H	1	UNK0	0.000	
38	   H	-2.926	-1.424	0.902	 H	1	UNK0	0.000	
39	   H	-5.007	-0.433	0.236	 H	1	UNK0	0.000	
40	   H	-4.591	-0.361	-1.479	 H	1	UNK0	0.000	
41	   H	-2.041	2.250	-0.703	 H	1	UNK0	0.000	
42	   H	-3.158	1.899	-2.070	 H	1	UNK0	0.000	
43	   H	-0.742	0.724	-1.758	 H	1	UNK0	0.000	
44	   H	-2.056	0.037	-2.704	 H	1	UNK0	0.000	
45	   H	-2.662	0.487	1.526	 H	1	UNK0	0.000	
46	   H	-2.810	2.305	1.188	 H	1	UNK0	0.000	
47	   H	-3.962	2.533	3.801	 H	1	UNK0	0.000	
48	   H	-4.088	0.771	4.044	 H	1	UNK0	0.000	
49	   H	3.743	-4.405	1.467	 H	1	UNK0	0.000	
50	   H	-0.535	-5.580	-1.469	 H	1	UNK0	0.000	
51	   H	0.742	-6.766	-1.017	 H	1	UNK0	0.000	
52	   H	1.042	-5.705	-2.419	 H	1	UNK0	0.000	
@<TRIPOS>BOND
1 1 2 1
2 2 3 2
3 2 7 1
4 3 4 1
5 4 5 2
6 4 8 1
7 5 6 1
8 6 7 2
9 8 9 1
10 9 10 1
11 9 13 1
12 10 11 2
13 10 28 1
14 11 12 1
15 11 24 1
16 12 13 2
17 13 14 1
18 14 15 1
19 14 19 1
20 15 16 1
21 16 17 1
22 17 18 1
23 17 20 1
24 18 19 1
25 20 21 1
26 21 22 2
27 21 23 1
28 24 25 1
29 24 30 1
30 25 26 2
31 25 27 1
32 27 28 1
33 28 29 2
34 3 31 1
35 5 32 1
36 6 33 1
37 7 34 1
38 8 35 1
39 8 36 1
40 15 37 1
41 15 38 1
42 16 39 1
43 16 40 1
44 18 41 1
45 18 42 1
46 19 43 1
47 19 44 1
48 20 45 1
49 20 46 1
50 23 47 1
51 23 48 1
52 27 49 1
53 30 50 1
54 30 51 1
55 30 52 1
@<TRIPOS>SUBSTRUCTURE
1	UNK0	1	GROUP	1 ****	UNK
# created with PyMOL 2.3.2
@<TRIPOS>MOLECULE
1865
46 49 1                 
SMALL
USER_CHARGES
@<TRIPOS>ATOM
1	  Cl	-6.172	2.742	2.102	Cl	1	UNK0	0.000	
2	   C	-4.594	2.000	2.276	C.2	1	UNK0	0.000	
3	   C	-4.136	1.008	1.434	C.2	1	UNK0	0.000	
4	   C	-2.898	0.422	1.566	C.2	1	UNK0	0.000	
5	   C	-2.060	0.828	2.579	C.2	1	UNK0	0.000	
6	   C	-2.503	1.822	3.434	C.2	1	UNK0	0.000	
7	   C	-3.747	2.401	3.290	C.2	1	UNK0	0.000	
8	   C	-2.444	-0.638	0.641	C.3	1	UNK0	0.000	
9	   N	-1.749	-0.115	-0.512	N.pl3	1	UNK0	0.000	
10	   C	-2.300	0.275	-1.779	C.2	1	UNK0	0.000	
11	   O	-3.537	0.214	-2.083	O.2	1	UNK0	0.000	
12	   N	-1.247	0.735	-2.622	N.pl3	1	UNK0	0.000	
13	   C	-0.035	0.165	-2.077	C.3	1	UNK0	0.000	
14	   C	0.026	-1.276	-2.548	C.3	1	UNK0	0.000	
15	   C	1.028	-1.976	-1.637	C.3	1	UNK0	0.000	
16	   N	2.240	-1.186	-1.532	N.pl3	1	UNK0	0.000	
17	   C	2.397	-0.009	-2.345	C.3	1	UNK0	0.000	
18	   C	1.200	0.881	-2.421	C.3	1	UNK0	0.000	
19	   C	3.264	-1.582	-0.633	C.2	1	UNK0	0.000	
20	   O	4.323	-0.882	-0.542	O.2	1	UNK0	0.000	
21	   C	3.180	-2.763	0.209	C.2	1	UNK0	0.000	
22	   N	2.113	-3.586	0.203	N.2	1	UNK0	0.000	
23	   C	2.102	-4.662	1.009	C.2	1	UNK0	0.000	
24	   C	3.149	-4.965	1.853	C.2	1	UNK0	0.000	
25	   N	4.213	-4.148	1.862	N.2	1	UNK0	0.000	
26	   C	4.229	-3.058	1.048	C.2	1	UNK0	0.000	
27	   C	-0.349	0.125	-0.627	C.2	1	UNK0	0.000	
28	   O	0.412	0.265	0.368	O.2	1	UNK0	0.000	
29	   H	-4.811	0.704	0.643	 H	1	UNK0	0.000	
30	   H	-1.065	0.404	2.739	 H	1	UNK0	0.000	
31	   H	-1.831	2.138	4.236	 H	1	UNK0	0.000	
32	   H	-4.094	3.179	3.960	 H	1	UNK0	0.000	
33	   H	-1.848	-1.358	1.220	 H	1	UNK0	0.000	
34	   H	-3.329	-1.218	0.252	 H	1	UNK0	0.000	
35	   H	-1.328	1.349	-3.454	 H	1	UNK0	0.000	
36	   H	-0.990	-1.695	-2.395	 H	1	UNK0	0.000	
37	   H	0.338	-1.330	-3.609	 H	1	UNK0	0.000	
38	   H	1.281	-2.967	-2.003	 H	1	UNK0	0.000	
39	   H	0.524	-2.076	-0.656	 H	1	UNK0	0.000	
40	   H	2.741	-0.360	-3.343	 H	1	UNK0	0.000	
41	   H	3.241	0.632	-1.957	 H	1	UNK0	0.000	
42	   H	1.115	1.190	-3.507	 H	1	UNK0	0.000	
43	   H	1.343	1.847	-1.890	 H	1	UNK0	0.000	
44	   H	1.241	-5.336	1.012	 H	1	UNK0	0.000	
45	   H	3.082	-5.843	2.477	 H	1	UNK0	0.000	
46	   H	5.121	-2.414	1.086	 H	1	UNK0	0.000	
@<TRIPOS>BOND
1 1 2 1
2 2 3 2
3 2 7 1
4 3 4 1
5 4 5 2
6 4 8 1
7 5 6 1
8 6 7 2
9 8 9 1
10 9 10 1
11 9 27 1
12 10 11 2
13 10 12 1
14 12 13 1
15 13 14 1
16 13 18 1
17 13 27 1
18 14 15 1
19 15 16 1
20 16 17 1
21 16 19 1
22 17 18 1
23 19 20 2
24 19 21 1
25 21 22 2
26 21 26 1
27 22 23 1
28 23 24 2
29 24 25 1
30 25 26 2
31 27 28 2
32 3 29 1
33 5 30 1
34 6 31 1
35 7 32 1
36 8 33 1
37 8 34 1
38 12 35 1
39 14 36 1
40 14 37 1
41 15 38 1
42 15 39 1
43 17 40 1
44 17 41 1
45 18 42 1
46 18 43 1
47 23 44 1
48 24 45 1
49 26 46 1
@<TRIPOS>SUBSTRUCTURE
1	UNK0	1	GROUP	1 ****	UNK
# created with PyMOL 2.3.2
@<TRIPOS>MOLECULE
1871
50 53 1                 
SMALL
USER_CHARGES
@<TRIPOS>ATOM
1	  Cl	3.308	4.412	0.273	Cl	1	UNK0	0.000	
2	   C	2.557	2.955	-0.350	C.2	1	UNK0	0.000	
3	   C	2.959	2.379	-1.547	C.2	1	UNK0	0.000	
4	   C	2.313	1.220	-1.973	C.2	1	UNK0	0.000	
5	   C	1.303	0.643	-1.249	C.2	1	UNK0	0.000	
6	   C	0.898	1.214	-0.055	C.2	1	UNK0	0.000	
7	   C	1.537	2.362	0.368	C.2	1	UNK0	0.000	
8	   C	0.673	-0.584	-1.731	C.3	1	UNK0	0.000	
9	   N	-0.529	-1.013	-1.130	N.4	1	UNK0	0.000	
10	   C	-0.264	-1.865	-0.049	C.2	1	UNK0	0.000	
11	   C	-0.869	-2.637	0.820	C.2	1	UNK0	0.000	
12	   C	-0.122	-3.383	1.839	C.3	1	UNK0	0.000	
13	   C	1.258	-3.029	2.147	C.3	1	UNK0	0.000	
14	   C	1.866	-1.967	1.265	C.3	1	UNK0	0.000	
15	   N	1.190	-1.880	0.020	N.pl3	1	UNK0	0.000	
16	   C	1.566	-1.788	-1.385	C.3	1	UNK0	0.000	
17	   C	3.014	-1.574	-1.532	C.3	1	UNK0	0.000	
18	   C	-1.612	-0.140	-1.139	C.2	1	UNK0	0.000	
19	   C	-1.480	1.023	-1.880	C.2	1	UNK0	0.000	
20	   C	-2.470	1.972	-1.962	C.2	1	UNK0	0.000	
21	   C	-3.691	1.824	-1.296	C.2	1	UNK0	0.000	
22	   C	-3.794	0.664	-0.569	C.2	1	UNK0	0.000	
23	   C	-2.800	-0.280	-0.492	C.2	1	UNK0	0.000	
24	   O	-4.681	2.783	-1.389	O.3	1	UNK0	0.000	
25	   C	-5.893	2.598	-0.702	C.3	1	UNK0	0.000	
26	   O	0.547	-0.605	-3.101	O.3	1	UNK0	0.000	
27	   H	3.752	2.827	-2.118	 H	1	UNK0	0.000	
28	   H	2.704	0.846	-2.916	 H	1	UNK0	0.000	
29	   H	0.109	0.731	0.496	 H	1	UNK0	0.000	
30	   H	1.180	2.767	1.305	 H	1	UNK0	0.000	
31	   H	-0.888	-1.766	-1.875	 H	1	UNK0	0.000	
32	   H	-1.972	-2.766	0.785	 H	1	UNK0	0.000	
33	   H	-0.205	-4.475	1.576	 H	1	UNK0	0.000	
34	   H	-0.751	-3.293	2.784	 H	1	UNK0	0.000	
35	   H	1.902	-3.968	2.135	 H	1	UNK0	0.000	
36	   H	1.342	-2.663	3.200	 H	1	UNK0	0.000	
37	   H	2.919	-2.252	1.086	 H	1	UNK0	0.000	
38	   H	1.920	-0.993	1.792	 H	1	UNK0	0.000	
39	   H	1.244	-2.676	-1.913	 H	1	UNK0	0.000	
40	   H	3.284	-1.408	-2.589	 H	1	UNK0	0.000	
41	   H	3.508	-0.926	-0.802	 H	1	UNK0	0.000	
42	   H	3.463	-2.599	-1.334	 H	1	UNK0	0.000	
43	   H	-0.573	1.253	-2.468	 H	1	UNK0	0.000	
44	   H	-2.364	2.890	-2.544	 H	1	UNK0	0.000	
45	   H	-4.742	0.513	-0.028	 H	1	UNK0	0.000	
46	   H	-3.016	-1.124	0.109	 H	1	UNK0	0.000	
47	   H	-5.816	2.912	0.375	 H	1	UNK0	0.000	
48	   H	-6.276	1.571	-0.699	 H	1	UNK0	0.000	
49	   H	-6.708	3.254	-1.121	 H	1	UNK0	0.000	
50	   H	1.087	0.031	-3.605	 H	1	UNK0	0.000	
@<TRIPOS>BOND
1 1 2 1
2 2 3 2
3 2 7 1
4 3 4 1
5 4 5 2
6 5 6 1
7 5 8 1
8 6 7 2
9 8 9 1
10 8 16 1
11 8 26 1
12 9 10 1
13 9 18 1
14 10 11 2
15 10 15 1
16 11 12 1
17 12 13 1
18 13 14 1
19 14 15 1
20 15 16 1
21 16 17 1
22 18 19 2
23 18 23 1
24 19 20 1
25 20 21 2
26 21 22 1
27 21 24 1
28 22 23 2
29 24 25 1
30 3 27 1
31 4 28 1
32 6 29 1
33 7 30 1
34 9 31 1
35 11 32 1
36 12 33 1
37 12 34 1
38 13 35 1
39 13 36 1
40 14 37 1
41 14 38 1
42 16 39 1
43 17 40 1
44 17 41 1
45 17 42 1
46 19 43 1
47 20 44 1
48 22 45 1
49 23 46 1
50 25 47 1
51 25 48 1
52 25 49 1
53 26 50 1
@<TRIPOS>SUBSTRUCTURE
1	UNK0	1	GROUP	1 ****	UNK
# created with PyMOL 2.3.2
@<TRIPOS>MOLECULE
1893
41 44 1                 
SMALL
USER_CHARGES
@<TRIPOS>ATOM
1	  Cl	-2.592	-4.170	-7.363	Cl	1	UNK0	0.000	
2	   C	-2.432	-2.968	-6.077	C.2	1	UNK0	0.000	
3	   C	-3.296	-2.962	-5.002	C.2	1	UNK0	0.000	
4	   C	-3.121	-1.997	-4.027	C.2	1	UNK0	0.000	
5	   C	-2.123	-1.047	-4.087	C.2	1	UNK0	0.000	
6	   C	-1.278	-1.086	-5.178	C.2	1	UNK0	0.000	
7	   C	-1.417	-2.039	-6.183	C.2	1	UNK0	0.000	
8	   N	-1.965	-0.073	-3.078	N.pl3	1	UNK0	0.000	
9	   C	-1.900	-0.288	-1.743	C.2	1	UNK0	0.000	
10	   O	-1.975	-1.426	-1.210	O.2	1	UNK0	0.000	
11	   C	-1.742	0.904	-1.056	C.2	1	UNK0	0.000	
12	   C	-1.711	1.854	-1.977	C.2	1	UNK0	0.000	
13	   N	-1.557	3.014	-1.304	N.pl3	1	UNK0	0.000	
14	   N	-1.499	2.748	0.008	N.pl3	1	UNK0	0.000	
15	   N	-1.613	1.440	0.171	N.pl3	1	UNK0	0.000	
16	   C	-1.600	0.717	1.425	C.3	1	UNK0	0.000	
17	   C	-0.237	0.307	1.845	C.2	1	UNK0	0.000	
18	   C	0.345	-0.896	1.513	C.2	1	UNK0	0.000	
19	   C	1.614	-1.273	1.905	C.2	1	UNK0	0.000	
20	   C	2.353	-0.407	2.674	C.2	1	UNK0	0.000	
21	   C	1.811	0.806	3.029	C.2	1	UNK0	0.000	
22	   C	0.535	1.159	2.622	C.2	1	UNK0	0.000	
23	   O	2.111	-2.522	1.512	O.3	1	UNK0	0.000	
24	   C	3.403	-2.954	1.888	C.3	1	UNK0	0.000	
25	   C	-1.847	1.259	-3.214	C.2	1	UNK0	0.000	
26	   O	-1.855	1.895	-4.291	O.2	1	UNK0	0.000	
27	   H	-4.075	-3.706	-4.959	 H	1	UNK0	0.000	
28	   H	-3.786	-1.978	-3.181	 H	1	UNK0	0.000	
29	   H	-0.501	-0.331	-5.206	 H	1	UNK0	0.000	
30	   H	-0.722	-2.026	-7.026	 H	1	UNK0	0.000	
31	   H	-1.496	3.953	-1.739	 H	1	UNK0	0.000	
32	   H	-1.385	3.419	0.797	 H	1	UNK0	0.000	
33	   H	-2.057	1.331	2.225	 H	1	UNK0	0.000	
34	   H	-2.193	-0.230	1.260	 H	1	UNK0	0.000	
35	   H	-0.230	-1.608	0.897	 H	1	UNK0	0.000	
36	   H	3.366	-0.682	3.000	 H	1	UNK0	0.000	
37	   H	2.396	1.484	3.634	 H	1	UNK0	0.000	
38	   H	0.117	2.114	2.905	 H	1	UNK0	0.000	
39	   H	4.201	-2.441	1.303	 H	1	UNK0	0.000	
40	   H	3.504	-4.033	1.687	 H	1	UNK0	0.000	
41	   H	3.588	-2.709	2.963	 H	1	UNK0	0.000	
@<TRIPOS>BOND
1 1 2 1
2 2 3 2
3 2 7 1
4 3 4 1
5 4 5 2
6 5 6 1
7 5 8 1
8 6 7 2
9 8 9 1
10 8 25 1
11 9 10 2
12 9 11 1
13 11 12 2
14 11 15 1
15 12 13 1
16 12 25 1
17 13 14 1
18 14 15 1
19 15 16 1
20 16 17 1
21 17 18 2
22 17 22 1
23 18 19 1
24 19 20 2
25 19 23 1
26 20 21 1
27 21 22 2
28 23 24 1
29 25 26 2
30 3 27 1
31 4 28 1
32 6 29 1
33 7 30 1
34 13 31 1
35 14 32 1
36 16 33 1
37 16 34 1
38 18 35 1
39 20 36 1
40 21 37 1
41 22 38 1
42 24 39 1
43 24 40 1
44 24 41 1
@<TRIPOS>SUBSTRUCTURE
1	UNK0	1	GROUP	1 ****	UNK
# created with PyMOL 2.3.2
@<TRIPOS>MOLECULE
1894
37 40 1                 
SMALL
USER_CHARGES
@<TRIPOS>ATOM
1	  Cl	-6.726	-0.836	1.911	Cl	1	UNK0	0.000	
2	   C	-5.247	-0.484	1.021	C.2	1	UNK0	0.000	
3	   C	-4.304	-1.463	0.790	C.2	1	UNK0	0.000	
4	   C	-3.143	-1.189	0.092	C.2	1	UNK0	0.000	
5	   C	-2.874	0.069	-0.404	C.2	1	UNK0	0.000	
6	   C	-3.826	1.044	-0.168	C.2	1	UNK0	0.000	
7	   C	-4.989	0.779	0.529	C.2	1	UNK0	0.000	
8	   N	-1.673	0.343	-1.123	N.pl3	1	UNK0	0.000	
9	   C	-0.452	-0.203	-0.925	C.2	1	UNK0	0.000	
10	   O	-0.201	-1.057	-0.049	O.2	1	UNK0	0.000	
11	   C	0.472	0.311	-1.819	C.2	1	UNK0	0.000	
12	   C	-0.202	1.188	-2.577	C.2	1	UNK0	0.000	
13	   N	0.703	1.679	-3.442	N.pl3	1	UNK0	0.000	
14	   N	1.879	1.122	-3.217	N.pl3	1	UNK0	0.000	
15	   N	1.754	0.275	-2.218	N.pl3	1	UNK0	0.000	
16	   C	2.790	-0.547	-1.638	C.3	1	UNK0	0.000	
17	   C	3.530	0.113	-0.541	C.2	1	UNK0	0.000	
18	   C	4.627	0.887	-0.830	C.2	1	UNK0	0.000	
19	   C	5.303	1.489	0.206	C.2	1	UNK0	0.000	
20	   C	4.901	1.330	1.520	C.2	1	UNK0	0.000	
21	   C	3.802	0.554	1.811	C.2	1	UNK0	0.000	
22	   C	3.141	-0.037	0.770	C.2	1	UNK0	0.000	
23	   C	-1.510	1.197	-2.141	C.2	1	UNK0	0.000	
24	   O	-2.425	1.912	-2.634	O.2	1	UNK0	0.000	
25	   H	-4.525	-2.447	1.184	 H	1	UNK0	0.000	
26	   H	-2.404	-1.964	-0.087	 H	1	UNK0	0.000	
27	   H	-3.637	2.031	-0.545	 H	1	UNK0	0.000	
28	   H	-5.742	1.556	0.714	 H	1	UNK0	0.000	
29	   H	0.538	2.388	-4.186	 H	1	UNK0	0.000	
30	   H	2.779	1.318	-3.747	 H	1	UNK0	0.000	
31	   H	2.322	-1.485	-1.228	 H	1	UNK0	0.000	
32	   H	3.504	-0.914	-2.425	 H	1	UNK0	0.000	
33	   H	4.974	1.035	-1.864	 H	1	UNK0	0.000	
34	   H	6.178	2.106	-0.034	 H	1	UNK0	0.000	
35	   H	5.432	1.805	2.353	 H	1	UNK0	0.000	
36	   H	3.466	0.412	2.824	 H	1	UNK0	0.000	
37	   H	2.270	-0.650	1.036	 H	1	UNK0	0.000	
@<TRIPOS>BOND
1 1 2 1
2 2 3 2
3 2 7 1
4 3 4 1
5 4 5 2
6 5 6 1
7 5 8 1
8 6 7 2
9 8 9 1
10 8 23 1
11 9 10 2
12 9 11 1
13 11 12 2
14 11 15 1
15 12 13 1
16 12 23 1
17 13 14 1
18 14 15 1
19 15 16 1
20 16 17 1
21 17 18 2
22 17 22 1
23 18 19 1
24 19 20 2
25 20 21 1
26 21 22 2
27 23 24 2
28 3 25 1
29 4 26 1
30 6 27 1
31 7 28 1
32 13 29 1
33 14 30 1
34 16 31 1
35 16 32 1
36 18 33 1
37 19 34 1
38 20 35 1
39 21 36 1
40 22 37 1
@<TRIPOS>SUBSTRUCTURE
1	UNK0	1	GROUP	1 ****	UNK
# created with PyMOL 2.3.2
@<TRIPOS>MOLECULE
1895
56 59 1                 
SMALL
USER_CHARGES
@<TRIPOS>ATOM
1	   S	3.000	-0.455	-3.245	S.O2	1	UNK0	0.000	
2	   O	3.192	1.010	-3.246	O.2	1	UNK0	0.000	
3	   O	4.247	-1.106	-3.794	O.2	1	UNK0	0.000	
4	   N	2.686	-1.127	-1.707	N.3	1	UNK0	0.000	
5	   C	1.519	-0.645	-1.077	C.3	1	UNK0	0.000	
6	   C	1.271	-1.525	0.166	C.3	1	UNK0	0.000	
7	   N	2.349	-1.162	1.050	N.pl3	1	UNK0	0.000	
8	   C	3.668	-1.578	0.525	C.3	1	UNK0	0.000	
9	   C	3.819	-1.411	-0.931	C.3	1	UNK0	0.000	
10	   C	2.305	-0.501	2.276	C.2	1	UNK0	0.000	
11	   O	3.499	-0.327	2.809	O.2	1	UNK0	0.000	
12	   C	1.254	0.041	3.098	C.3	1	UNK0	0.000	
13	   N	-0.099	-0.093	2.651	N.pl3	1	UNK0	0.000	
14	   C	-0.978	-1.173	2.970	C.2	1	UNK0	0.000	
15	   O	-0.638	-2.171	3.692	O.2	1	UNK0	0.000	
16	   N	-2.225	-0.922	2.358	N.pl3	1	UNK0	0.000	
17	   C	-2.274	0.484	1.988	C.3	1	UNK0	0.000	
18	   C	-2.975	0.754	0.703	C.3	1	UNK0	0.000	
19	   C	-3.664	2.117	0.830	C.3	1	UNK0	0.000	
20	   C	-4.851	1.901	1.749	C.3	1	UNK0	0.000	
21	   C	-4.398	1.145	2.974	C.3	1	UNK0	0.000	
22	   C	-2.889	1.223	3.155	C.3	1	UNK0	0.000	
23	   C	-2.056	0.859	-0.492	C.3	1	UNK0	0.000	
24	   C	-0.828	0.824	1.832	C.2	1	UNK0	0.000	
25	   O	-0.345	1.731	1.127	O.2	1	UNK0	0.000	
26	   C	1.638	-0.885	-4.294	C.2	1	UNK0	0.000	
27	   S	1.053	-2.418	-4.750	S.3	1	UNK0	0.000	
28	   C	-0.241	-1.933	-5.744	C.2	1	UNK0	0.000	
29	   C	-0.180	-0.565	-5.692	C.2	1	UNK0	0.000	
30	   C	0.796	-0.028	-4.939	C.2	1	UNK0	0.000	
31	  Cl	-1.388	-2.949	-6.631	Cl	1	UNK0	0.000	
32	   H	1.610	0.416	-0.762	 H	1	UNK0	0.000	
33	   H	0.666	-0.700	-1.770	 H	1	UNK0	0.000	
34	   H	0.267	-1.436	0.524	 H	1	UNK0	0.000	
35	   H	1.490	-2.570	-0.235	 H	1	UNK0	0.000	
36	   H	3.749	-2.658	0.791	 H	1	UNK0	0.000	
37	   H	4.478	-1.071	1.086	 H	1	UNK0	0.000	
38	   H	4.581	-0.594	-1.113	 H	1	UNK0	0.000	
39	   H	4.322	-2.324	-1.369	 H	1	UNK0	0.000	
40	   H	1.322	-0.346	4.178	 H	1	UNK0	0.000	
41	   H	1.422	1.159	3.290	 H	1	UNK0	0.000	
42	   H	-2.985	-1.599	2.191	 H	1	UNK0	0.000	
43	   H	-3.757	-0.015	0.505	 H	1	UNK0	0.000	
44	   H	-2.953	2.794	1.316	 H	1	UNK0	0.000	
45	   H	-3.983	2.504	-0.156	 H	1	UNK0	0.000	
46	   H	-5.600	1.307	1.156	 H	1	UNK0	0.000	
47	   H	-5.331	2.842	2.050	 H	1	UNK0	0.000	
48	   H	-4.687	0.080	2.850	 H	1	UNK0	0.000	
49	   H	-4.933	1.521	3.880	 H	1	UNK0	0.000	
50	   H	-2.679	0.647	4.102	 H	1	UNK0	0.000	
51	   H	-2.556	2.262	3.245	 H	1	UNK0	0.000	
52	   H	-1.174	0.214	-0.439	 H	1	UNK0	0.000	
53	   H	-2.648	0.558	-1.406	 H	1	UNK0	0.000	
54	   H	-1.770	1.929	-0.709	 H	1	UNK0	0.000	
55	   H	-0.933	0.025	-6.269	 H	1	UNK0	0.000	
56	   H	0.926	1.069	-4.835	 H	1	UNK0	0.000	
@<TRIPOS>BOND
1 1 2 2
2 1 3 2
3 1 4 1
4 1 26 1
5 4 5 1
6 4 9 1
7 5 6 1
8 6 7 1
9 7 8 1
10 7 10 1
11 8 9 1
12 10 11 2
13 10 12 1
14 12 13 1
15 13 14 1
16 13 24 1
17 14 15 2
18 14 16 1
19 16 17 1
20 17 18 1
21 17 22 1
22 17 24 1
23 18 19 1
24 18 23 1
25 19 20 1
26 20 21 1
27 21 22 1
28 24 25 2
29 26 27 1
30 26 30 2
31 27 28 1
32 28 29 2
33 28 31 1
34 29 30 1
35 5 32 1
36 5 33 1
37 6 34 1
38 6 35 1
39 8 36 1
40 8 37 1
41 9 38 1
42 9 39 1
43 12 40 1
44 12 41 1
45 16 42 1
46 18 43 1
47 19 44 1
48 19 45 1
49 20 46 1
50 20 47 1
51 21 48 1
52 21 49 1
53 22 50 1
54 22 51 1
55 23 52 1
56 23 53 1
57 23 54 1
58 29 55 1
59 30 56 1
@<TRIPOS>SUBSTRUCTURE
1	UNK0	1	GROUP	1 ****	UNK
# created with PyMOL 2.3.2
@<TRIPOS>MOLECULE
1906
60 63 1                 
SMALL
USER_CHARGES
@<TRIPOS>ATOM
1	  Cl	-0.127	1.437	5.509	Cl	1	UNK0	0.000	
2	   C	-1.400	0.282	5.114	C.2	1	UNK0	0.000	
3	   C	-1.690	0.023	3.802	C.2	1	UNK0	0.000	
4	   C	-2.675	-0.870	3.466	C.2	1	UNK0	0.000	
5	   C	-3.368	-1.499	4.519	C.2	1	UNK0	0.000	
6	   C	-3.067	-1.230	5.813	C.2	1	UNK0	0.000	
7	   C	-2.081	-0.338	6.145	C.2	1	UNK0	0.000	
8	   O	-3.023	-1.185	2.253	O.3	1	UNK0	0.000	
9	   C	-2.894	-1.091	0.949	C.3	1	UNK0	0.000	
10	   C	-1.642	-1.546	0.255	C.3	1	UNK0	0.000	
11	   O	-1.485	-2.897	0.597	O.3	1	UNK0	0.000	
12	   C	-2.194	-3.768	-0.184	C.3	1	UNK0	0.000	
13	   C	-1.670	-3.897	-1.600	C.3	1	UNK0	0.000	
14	   N	-1.274	-2.511	-1.960	N.pl3	1	UNK0	0.000	
15	   C	-1.960	-1.501	-1.251	C.3	1	UNK0	0.000	
16	   C	-0.303	-2.342	-2.925	C.2	1	UNK0	0.000	
17	   O	0.240	-3.376	-3.496	O.2	1	UNK0	0.000	
18	   C	0.190	-1.079	-3.383	C.2	1	UNK0	0.000	
19	   N	-0.238	0.096	-2.921	N.2	1	UNK0	0.000	
20	   C	0.222	1.289	-3.347	C.2	1	UNK0	0.000	
21	   C	1.202	1.329	-4.326	C.2	1	UNK0	0.000	
22	   N	1.652	0.182	-4.808	N.2	1	UNK0	0.000	
23	   C	1.179	-0.996	-4.369	C.2	1	UNK0	0.000	
24	   C	1.671	2.669	-4.757	C.3	1	UNK0	0.000	
25	   C	-0.408	-0.840	0.587	C.3	1	UNK0	0.000	
26	   C	-0.330	0.598	0.323	C.2	1	UNK0	0.000	
27	   O	-1.293	1.212	-0.174	O.2	1	UNK0	0.000	
28	   N	0.845	1.345	0.623	N.pl3	1	UNK0	0.000	
29	   C	2.023	0.711	1.205	C.3	1	UNK0	0.000	
30	   C	2.468	1.579	2.363	C.3	1	UNK0	0.000	
31	   O	2.727	2.868	1.887	O.3	1	UNK0	0.000	
32	   C	1.515	3.467	1.546	C.3	1	UNK0	0.000	
33	   C	0.929	2.767	0.363	C.3	1	UNK0	0.000	
34	   H	-1.156	0.531	3.013	 H	1	UNK0	0.000	
35	   H	-4.162	-2.219	4.308	 H	1	UNK0	0.000	
36	   H	-3.590	-1.706	6.641	 H	1	UNK0	0.000	
37	   H	-1.806	-0.091	7.147	 H	1	UNK0	0.000	
38	   H	-3.796	-1.567	0.392	 H	1	UNK0	0.000	
39	   H	-3.040	0.013	0.628	 H	1	UNK0	0.000	
40	   H	-2.123	-4.769	0.272	 H	1	UNK0	0.000	
41	   H	-3.263	-3.489	-0.174	 H	1	UNK0	0.000	
42	   H	-2.487	-4.253	-2.230	 H	1	UNK0	0.000	
43	   H	-0.751	-4.483	-1.623	 H	1	UNK0	0.000	
44	   H	-3.066	-1.799	-1.294	 H	1	UNK0	0.000	
45	   H	-1.943	-0.490	-1.612	 H	1	UNK0	0.000	
46	   H	-0.189	2.190	-2.910	 H	1	UNK0	0.000	
47	   H	1.565	-1.915	-4.781	 H	1	UNK0	0.000	
48	   H	2.650	2.608	-5.287	 H	1	UNK0	0.000	
49	   H	0.882	3.085	-5.415	 H	1	UNK0	0.000	
50	   H	1.796	3.373	-3.912	 H	1	UNK0	0.000	
51	   H	0.479	-1.349	0.041	 H	1	UNK0	0.000	
52	   H	-0.116	-1.052	1.659	 H	1	UNK0	0.000	
53	   H	1.802	-0.316	1.552	 H	1	UNK0	0.000	
54	   H	2.865	0.710	0.466	 H	1	UNK0	0.000	
55	   H	1.680	1.571	3.128	 H	1	UNK0	0.000	
56	   H	3.429	1.219	2.799	 H	1	UNK0	0.000	
57	   H	0.779	3.435	2.370	 H	1	UNK0	0.000	
58	   H	1.744	4.514	1.234	 H	1	UNK0	0.000	
59	   H	-0.063	3.216	0.156	 H	1	UNK0	0.000	
60	   H	1.525	2.902	-0.565	 H	1	UNK0	0.000	
@<TRIPOS>BOND
1 1 2 1
2 2 3 2
3 2 7 1
4 3 4 1
5 4 5 2
6 4 8 1
7 5 6 1
8 6 7 2
9 8 9 1
10 9 10 1
11 10 11 1
12 10 15 1
13 10 25 1
14 11 12 1
15 12 13 1
16 13 14 1
17 14 15 1
18 14 16 1
19 16 17 2
20 16 18 1
21 18 19 2
22 18 23 1
23 19 20 1
24 20 21 2
25 21 22 1
26 21 24 1
27 22 23 2
28 25 26 1
29 26 27 2
30 26 28 1
31 28 29 1
32 28 33 1
33 29 30 1
34 30 31 1
35 31 32 1
36 32 33 1
37 3 34 1
38 5 35 1
39 6 36 1
40 7 37 1
41 9 38 1
42 9 39 1
43 12 40 1
44 12 41 1
45 13 42 1
46 13 43 1
47 15 44 1
48 15 45 1
49 20 46 1
50 23 47 1
51 24 48 1
52 24 49 1
53 24 50 1
54 25 51 1
55 25 52 1
56 29 53 1
57 29 54 1
58 30 55 1
59 30 56 1
60 32 57 1
61 32 58 1
62 33 59 1
63 33 60 1
@<TRIPOS>SUBSTRUCTURE
1	UNK0	1	GROUP	1 ****	UNK
# created with PyMOL 2.3.2
@<TRIPOS>MOLECULE
1913
51 54 1                 
SMALL
USER_CHARGES
@<TRIPOS>ATOM
1	  Cl	2.731	-1.291	-5.527	Cl	1	UNK0	0.000	
2	   C	2.400	-1.258	-3.826	C.2	1	UNK0	0.000	
3	   N	3.403	-1.343	-2.950	N.2	1	UNK0	0.000	
4	   C	3.204	-1.323	-1.629	C.2	1	UNK0	0.000	
5	   N	4.030	-1.385	-0.592	N.2	1	UNK0	0.000	
6	   C	3.247	-1.310	0.492	C.2	1	UNK0	0.000	
7	   N	1.952	-1.201	0.168	N.pl3	1	UNK0	0.000	
8	   C	1.883	-1.207	-1.173	C.2	1	UNK0	0.000	
9	   C	0.845	-1.119	-2.062	C.2	1	UNK0	0.000	
10	   N	1.140	-1.148	-3.395	N.2	1	UNK0	0.000	
11	   N	-0.486	-1.024	-1.606	N.pl3	1	UNK0	0.000	
12	   C	-1.063	-2.181	-0.961	C.3	1	UNK0	0.000	
13	   C	-2.521	-2.014	-0.627	C.3	1	UNK0	0.000	
14	   C	-2.740	-0.675	-0.013	C.3	1	UNK0	0.000	
15	   C	-2.425	0.393	-1.003	C.3	1	UNK0	0.000	
16	   C	-1.189	0.206	-1.804	C.3	1	UNK0	0.000	
17	   C	-2.077	-0.530	1.284	C.2	1	UNK0	0.000	
18	   O	-1.429	-1.505	1.737	O.2	1	UNK0	0.000	
19	   N	-2.131	0.652	2.051	N.pl3	1	UNK0	0.000	
20	   C	-1.482	0.809	3.332	C.3	1	UNK0	0.000	
21	   C	0.008	0.630	3.279	C.3	1	UNK0	0.000	
22	   N	0.619	1.600	2.388	N.3	1	UNK0	0.000	
23	   C	2.035	1.471	2.309	C.3	1	UNK0	0.000	
24	   C	2.713	2.634	3.005	C.3	1	UNK0	0.000	
25	   O	2.382	3.780	2.326	O.3	1	UNK0	0.000	
26	   C	1.044	4.014	2.151	C.3	1	UNK0	0.000	
27	   C	0.125	2.918	2.566	C.3	1	UNK0	0.000	
28	   H	3.610	-1.333	1.506	 H	1	UNK0	0.000	
29	   H	1.122	-1.119	0.801	 H	1	UNK0	0.000	
30	   H	-0.481	-2.566	-0.113	 H	1	UNK0	0.000	
31	   H	-1.037	-3.033	-1.714	 H	1	UNK0	0.000	
32	   H	-3.149	-2.118	-1.526	 H	1	UNK0	0.000	
33	   H	-2.784	-2.819	0.088	 H	1	UNK0	0.000	
34	   H	-3.848	-0.604	0.198	 H	1	UNK0	0.000	
35	   H	-3.289	0.426	-1.731	 H	1	UNK0	0.000	
36	   H	-2.467	1.373	-0.483	 H	1	UNK0	0.000	
37	   H	-0.512	1.079	-1.579	 H	1	UNK0	0.000	
38	   H	-1.372	0.298	-2.915	 H	1	UNK0	0.000	
39	   H	-2.678	1.477	1.668	 H	1	UNK0	0.000	
40	   H	-1.779	1.732	3.823	 H	1	UNK0	0.000	
41	   H	-1.875	-0.028	3.977	 H	1	UNK0	0.000	
42	   H	0.395	0.856	4.296	 H	1	UNK0	0.000	
43	   H	0.317	-0.387	3.005	 H	1	UNK0	0.000	
44	   H	2.419	1.412	1.264	 H	1	UNK0	0.000	
45	   H	2.335	0.523	2.801	 H	1	UNK0	0.000	
46	   H	2.411	2.658	4.070	 H	1	UNK0	0.000	
47	   H	3.807	2.485	2.916	 H	1	UNK0	0.000	
48	   H	0.739	5.002	2.599	 H	1	UNK0	0.000	
49	   H	0.885	4.170	1.043	 H	1	UNK0	0.000	
50	   H	-0.859	2.999	2.074	 H	1	UNK0	0.000	
51	   H	-0.078	3.059	3.668	 H	1	UNK0	0.000	
@<TRIPOS>BOND
1 1 2 1
2 2 3 2
3 2 10 1
4 3 4 1
5 4 5 1
6 4 8 2
7 5 6 2
8 6 7 1
9 7 8 1
10 8 9 1
11 9 10 2
12 9 11 1
13 11 12 1
14 11 16 1
15 12 13 1
16 13 14 1
17 14 15 1
18 14 17 1
19 15 16 1
20 17 18 2
21 17 19 1
22 19 20 1
23 20 21 1
24 21 22 1
25 22 23 1
26 22 27 1
27 23 24 1
28 24 25 1
29 25 26 1
30 26 27 1
31 6 28 1
32 7 29 1
33 12 30 1
34 12 31 1
35 13 32 1
36 13 33 1
37 14 34 1
38 15 35 1
39 15 36 1
40 16 37 1
41 16 38 1
42 19 39 1
43 20 40 1
44 20 41 1
45 21 42 1
46 21 43 1
47 23 44 1
48 23 45 1
49 24 46 1
50 24 47 1
51 26 48 1
52 26 49 1
53 27 50 1
54 27 51 1
@<TRIPOS>SUBSTRUCTURE
1	UNK0	1	GROUP	1 ****	UNK
# created with PyMOL 2.3.2
@<TRIPOS>MOLECULE
1927
55 58 1                 
SMALL
USER_CHARGES
@<TRIPOS>ATOM
1	  Cl	-0.700	-1.497	8.453	Cl	1	UNK0	0.000	
2	   C	-0.377	-0.592	6.951	C.2	1	UNK0	0.000	
3	   C	-1.274	0.334	6.476	C.2	1	UNK0	0.000	
4	   C	-1.015	1.046	5.305	C.2	1	UNK0	0.000	
5	   C	0.159	0.857	4.564	C.2	1	UNK0	0.000	
6	   C	1.032	-0.076	5.070	C.2	1	UNK0	0.000	
7	   C	0.788	-0.789	6.228	C.2	1	UNK0	0.000	
8	   C	0.344	1.678	3.381	C.3	1	UNK0	0.000	
9	   C	0.071	0.863	2.119	C.3	1	UNK0	0.000	
10	   C	-0.005	1.907	1.024	C.3	1	UNK0	0.000	
11	   N	1.272	2.491	0.810	N.pl3	1	UNK0	0.000	
12	   C	1.898	3.132	1.996	C.3	1	UNK0	0.000	
13	   C	1.620	2.427	3.280	C.3	1	UNK0	0.000	
14	   C	1.981	2.503	-0.384	C.2	1	UNK0	0.000	
15	   O	3.020	3.297	-0.424	O.2	1	UNK0	0.000	
16	   C	1.770	1.778	-1.646	C.3	1	UNK0	0.000	
17	   N	0.877	0.704	-1.643	N.pl3	1	UNK0	0.000	
18	   C	0.383	0.044	-2.810	C.2	1	UNK0	0.000	
19	   O	0.795	0.517	-3.902	O.2	1	UNK0	0.000	
20	   C	-0.512	-1.076	-2.710	C.2	1	UNK0	0.000	
21	   C	-1.101	-1.778	-3.621	C.2	1	UNK0	0.000	
22	   N	-0.955	-1.529	-5.021	N.pl3	1	UNK0	0.000	
23	   N	-1.592	-2.326	-5.995	N.pl3	1	UNK0	0.000	
24	   C	-2.407	-3.414	-5.623	C.2	1	UNK0	0.000	
25	   O	-2.958	-4.105	-6.529	O.2	1	UNK0	0.000	
26	   C	-2.582	-3.703	-4.213	C.2	1	UNK0	0.000	
27	   C	-1.964	-2.930	-3.257	C.2	1	UNK0	0.000	
28	   C	-2.156	-3.283	-1.952	C.2	1	UNK0	0.000	
29	   C	-2.939	-4.378	-1.568	C.2	1	UNK0	0.000	
30	   C	-3.532	-5.115	-2.556	C.2	1	UNK0	0.000	
31	   C	-3.367	-4.794	-3.901	C.2	1	UNK0	0.000	
32	   O	-0.705	2.652	3.372	O.3	1	UNK0	0.000	
33	   H	-2.191	0.493	7.044	 H	1	UNK0	0.000	
34	   H	-1.758	1.752	4.988	 H	1	UNK0	0.000	
35	   H	1.946	-0.229	4.506	 H	1	UNK0	0.000	
36	   H	1.512	-1.520	6.596	 H	1	UNK0	0.000	
37	   H	0.821	0.097	1.941	 H	1	UNK0	0.000	
38	   H	-0.896	0.366	2.231	 H	1	UNK0	0.000	
39	   H	-0.610	2.767	1.528	 H	1	UNK0	0.000	
40	   H	-0.618	1.586	0.213	 H	1	UNK0	0.000	
41	   H	2.995	3.282	1.817	 H	1	UNK0	0.000	
42	   H	1.458	4.150	2.034	 H	1	UNK0	0.000	
43	   H	2.529	1.831	3.540	 H	1	UNK0	0.000	
44	   H	1.633	3.236	4.085	 H	1	UNK0	0.000	
45	   H	1.475	2.590	-2.398	 H	1	UNK0	0.000	
46	   H	2.785	1.443	-2.075	 H	1	UNK0	0.000	
47	   H	0.560	0.256	-0.742	 H	1	UNK0	0.000	
48	   H	-0.722	-1.372	-1.653	 H	1	UNK0	0.000	
49	   H	-0.364	-0.736	-5.368	 H	1	UNK0	0.000	
50	   H	-1.461	-2.121	-7.013	 H	1	UNK0	0.000	
51	   H	-1.712	-2.739	-1.161	 H	1	UNK0	0.000	
52	   H	-3.055	-4.609	-0.513	 H	1	UNK0	0.000	
53	   H	-4.133	-5.972	-2.239	 H	1	UNK0	0.000	
54	   H	-3.861	-5.415	-4.637	 H	1	UNK0	0.000	
55	   H	-0.307	3.491	3.713	 H	1	UNK0	0.000	
@<TRIPOS>BOND
1 1 2 1
2 2 3 2
3 2 7 1
4 3 4 1
5 4 5 2
6 5 6 1
7 5 8 1
8 6 7 2
9 8 9 1
10 8 13 1
11 8 32 1
12 9 10 1
13 10 11 1
14 11 12 1
15 11 14 1
16 12 13 1
17 14 15 2
18 14 16 1
19 16 17 1
20 17 18 1
21 18 19 2
22 18 20 1
23 20 21 2
24 21 22 1
25 21 27 1
26 22 23 1
27 23 24 1
28 24 25 2
29 24 26 1
30 26 27 2
31 26 31 1
32 27 28 1
33 28 29 2
34 29 30 1
35 30 31 2
36 3 33 1
37 4 34 1
38 6 35 1
39 7 36 1
40 9 37 1
41 9 38 1
42 10 39 1
43 10 40 1
44 12 41 1
45 12 42 1
46 13 43 1
47 13 44 1
48 16 45 1
49 16 46 1
50 17 47 1
51 20 48 1
52 22 49 1
53 23 50 1
54 28 51 1
55 29 52 1
56 30 53 1
57 31 54 1
58 32 55 1
@<TRIPOS>SUBSTRUCTURE
1	UNK0	1	GROUP	1 ****	UNK
# created with PyMOL 2.3.2
@<TRIPOS>MOLECULE
1928
39 42 1                 
SMALL
USER_CHARGES
@<TRIPOS>ATOM
1	  Cl	6.169	-4.727	4.107	Cl	1	UNK0	0.000	
2	   C	4.976	-3.563	3.556	C.2	1	UNK0	0.000	
3	   C	3.902	-3.206	4.351	C.2	1	UNK0	0.000	
4	   C	2.973	-2.288	3.899	C.2	1	UNK0	0.000	
5	   C	3.069	-1.697	2.661	C.2	1	UNK0	0.000	
6	   C	4.138	-2.050	1.863	C.2	1	UNK0	0.000	
7	   C	5.076	-2.969	2.306	C.2	1	UNK0	0.000	
8	   C	2.084	-0.731	2.195	C.2	1	UNK0	0.000	
9	   N	1.010	-0.317	2.884	N.2	1	UNK0	0.000	
10	   O	0.335	0.547	2.187	O.3	1	UNK0	0.000	
11	   C	0.934	0.725	1.035	C.2	1	UNK0	0.000	
12	   N	2.035	-0.073	1.028	N.2	1	UNK0	0.000	
13	   C	0.457	1.637	-0.023	C.3	1	UNK0	0.000	
14	   N	-0.455	0.925	-0.920	N.pl3	1	UNK0	0.000	
15	   C	0.061	0.299	-1.998	C.2	1	UNK0	0.000	
16	   C	-0.749	-0.383	-2.870	C.2	1	UNK0	0.000	
17	   C	-2.194	-0.427	-2.620	C.2	1	UNK0	0.000	
18	   N	-2.734	-1.154	-3.622	N.2	1	UNK0	0.000	
19	   N	-1.779	-1.549	-4.439	N.pl3	1	UNK0	0.000	
20	   C	-0.573	-1.118	-4.041	C.2	1	UNK0	0.000	
21	   O	0.536	-1.318	-4.592	O.2	1	UNK0	0.000	
22	   C	-2.675	0.228	-1.506	C.2	1	UNK0	0.000	
23	   C	-1.769	0.873	-0.711	C.2	1	UNK0	0.000	
24	   C	-4.110	0.206	-1.224	C.2	1	UNK0	0.000	
25	   O	-4.894	-0.392	-1.974	O.co2	1	UNK0	0.000	
26	   O	-4.630	0.852	-0.115	O.3	1	UNK0	0.000	
27	   C	-6.000	0.867	0.209	C.3	1	UNK0	0.000	
28	   H	3.807	-3.663	5.336	 H	1	UNK0	0.000	
29	   H	2.135	-2.011	4.524	 H	1	UNK0	0.000	
30	   H	4.219	-1.586	0.885	 H	1	UNK0	0.000	
31	   H	5.913	-3.248	1.687	 H	1	UNK0	0.000	
32	   H	-0.124	2.445	0.451	 H	1	UNK0	0.000	
33	   H	1.302	2.031	-0.637	 H	1	UNK0	0.000	
34	   H	1.123	0.327	-2.186	 H	1	UNK0	0.000	
35	   H	-1.943	-2.122	-5.287	 H	1	UNK0	0.000	
36	   H	-2.166	1.386	0.166	 H	1	UNK0	0.000	
37	   H	-6.632	0.398	-0.557	 H	1	UNK0	0.000	
38	   H	-6.198	0.316	1.174	 H	1	UNK0	0.000	
39	   H	-6.269	1.921	0.428	 H	1	UNK0	0.000	
@<TRIPOS>BOND
1 1 2 1
2 2 3 2
3 2 7 1
4 3 4 1
5 4 5 2
6 5 6 1
7 5 8 1
8 6 7 2
9 8 9 2
10 8 12 1
11 9 10 1
12 10 11 1
13 11 12 2
14 11 13 1
15 13 14 1
16 14 15 1
17 14 23 1
18 15 16 2
19 16 17 1
20 16 20 1
21 17 18 2
22 17 22 1
23 18 19 1
24 19 20 1
25 20 21 2
26 22 23 2
27 22 24 1
28 24 25 2
29 24 26 1
30 26 27 1
31 3 28 1
32 4 29 1
33 6 30 1
34 7 31 1
35 13 32 1
36 13 33 1
37 15 34 1
38 19 35 1
39 23 36 1
40 27 37 1
41 27 38 1
42 27 39 1
@<TRIPOS>SUBSTRUCTURE
1	UNK0	1	GROUP	1 ****	UNK
# created with PyMOL 2.3.2
@<TRIPOS>MOLECULE
1930
58 61 1                 
SMALL
USER_CHARGES
@<TRIPOS>ATOM
1	  Cl	7.135	0.658	4.102	Cl	1	UNK0	0.000	
2	   C	5.399	0.814	4.324	C.2	1	UNK0	0.000	
3	   C	4.579	1.410	3.400	C.2	1	UNK0	0.000	
4	   C	3.210	1.529	3.583	C.2	1	UNK0	0.000	
5	   N	2.188	2.045	2.880	N.2	1	UNK0	0.000	
6	   C	1.025	1.892	3.536	C.2	1	UNK0	0.000	
7	   N	1.355	1.252	4.695	N.pl3	1	UNK0	0.000	
8	   C	2.672	1.021	4.747	C.2	1	UNK0	0.000	
9	   C	3.460	0.414	5.702	C.2	1	UNK0	0.000	
10	   C	4.829	0.317	5.477	C.2	1	UNK0	0.000	
11	   C	0.350	0.899	5.696	C.3	1	UNK0	0.000	
12	   C	-0.341	2.308	3.133	C.3	1	UNK0	0.000	
13	   C	-1.086	1.270	2.359	C.3	1	UNK0	0.000	
14	   C	-0.420	0.882	1.092	C.2	1	UNK0	0.000	
15	   O	0.660	1.444	0.776	O.2	1	UNK0	0.000	
16	   N	-0.970	-0.095	0.242	N.pl3	1	UNK0	0.000	
17	   C	-0.332	-0.494	-1.013	C.3	1	UNK0	0.000	
18	   C	-1.293	-0.068	-2.105	C.3	1	UNK0	0.000	
19	   C	-2.663	-0.664	-1.881	C.3	1	UNK0	0.000	
20	   C	-2.646	-1.599	-0.666	C.3	1	UNK0	0.000	
21	   C	-2.212	-0.786	0.542	C.3	1	UNK0	0.000	
22	   O	-3.623	0.322	-1.546	O.3	1	UNK0	0.000	
23	   C	-3.211	-1.387	-3.074	C.3	1	UNK0	0.000	
24	   N	-0.790	-0.216	-3.425	N.pl3	1	UNK0	0.000	
25	   C	-0.749	0.834	-4.297	C.2	1	UNK0	0.000	
26	   C	-0.262	0.692	-5.579	C.2	1	UNK0	0.000	
27	   C	0.197	-0.537	-5.998	C.2	1	UNK0	0.000	
28	   O	0.656	-0.710	-7.178	O.2	1	UNK0	0.000	
29	   N	0.153	-1.566	-5.134	N.pl3	1	UNK0	0.000	
30	   C	-0.338	-1.377	-3.875	C.2	1	UNK0	0.000	
31	   O	-0.354	-2.371	-3.115	O.2	1	UNK0	0.000	
32	   C	-0.203	1.812	-6.551	C.3	1	UNK0	0.000	
33	   H	5.016	1.804	2.490	 H	1	UNK0	0.000	
34	   H	3.036	0.017	6.613	 H	1	UNK0	0.000	
35	   H	5.452	-0.156	6.218	 H	1	UNK0	0.000	
36	   H	-0.306	0.061	5.326	 H	1	UNK0	0.000	
37	   H	-0.341	1.750	5.888	 H	1	UNK0	0.000	
38	   H	0.871	0.570	6.626	 H	1	UNK0	0.000	
39	   H	-0.327	3.291	2.596	 H	1	UNK0	0.000	
40	   H	-0.909	2.498	4.068	 H	1	UNK0	0.000	
41	   H	-1.181	0.356	3.012	 H	1	UNK0	0.000	
42	   H	-2.112	1.656	2.181	 H	1	UNK0	0.000	
43	   H	-0.215	-1.594	-0.929	 H	1	UNK0	0.000	
44	   H	0.629	0.027	-1.169	 H	1	UNK0	0.000	
45	   H	-1.418	1.044	-1.920	 H	1	UNK0	0.000	
46	   H	-3.691	-1.917	-0.479	 H	1	UNK0	0.000	
47	   H	-2.044	-2.491	-0.832	 H	1	UNK0	0.000	
48	   H	-2.003	-1.483	1.380	 H	1	UNK0	0.000	
49	   H	-3.020	-0.097	0.829	 H	1	UNK0	0.000	
50	   H	-4.501	-0.129	-1.600	 H	1	UNK0	0.000	
51	   H	-4.326	-1.239	-3.176	 H	1	UNK0	0.000	
52	   H	-3.095	-2.504	-2.996	 H	1	UNK0	0.000	
53	   H	-2.773	-1.045	-4.019	 H	1	UNK0	0.000	
54	   H	-1.116	1.815	-3.961	 H	1	UNK0	0.000	
55	   H	0.498	-2.493	-5.445	 H	1	UNK0	0.000	
56	   H	0.801	2.287	-6.416	 H	1	UNK0	0.000	
57	   H	-0.232	1.440	-7.596	 H	1	UNK0	0.000	
58	   H	-1.023	2.534	-6.357	 H	1	UNK0	0.000	
@<TRIPOS>BOND
1 1 2 1
2 2 3 2
3 2 10 1
4 3 4 1
5 4 5 1
6 4 8 2
7 5 6 2
8 6 7 1
9 6 12 1
10 7 8 1
11 7 11 1
12 8 9 1
13 9 10 2
14 12 13 1
15 13 14 1
16 14 15 2
17 14 16 1
18 16 17 1
19 16 21 1
20 17 18 1
21 18 19 1
22 18 24 1
23 19 20 1
24 19 22 1
25 19 23 1
26 20 21 1
27 24 25 1
28 24 30 1
29 25 26 2
30 26 27 1
31 26 32 1
32 27 28 2
33 27 29 1
34 29 30 1
35 30 31 2
36 3 33 1
37 9 34 1
38 10 35 1
39 11 36 1
40 11 37 1
41 11 38 1
42 12 39 1
43 12 40 1
44 13 41 1
45 13 42 1
46 17 43 1
47 17 44 1
48 18 45 1
49 20 46 1
50 20 47 1
51 21 48 1
52 21 49 1
53 22 50 1
54 23 51 1
55 23 52 1
56 23 53 1
57 25 54 1
58 29 55 1
59 32 56 1
60 32 57 1
61 32 58 1
@<TRIPOS>SUBSTRUCTURE
1	UNK0	1	GROUP	1 ****	UNK
# created with PyMOL 2.3.2
@<TRIPOS>MOLECULE
1936
42 45 1                 
SMALL
USER_CHARGES
@<TRIPOS>ATOM
1	  Cl	-5.917	-3.643	-1.527	Cl	1	UNK0	0.000	
2	   C	-4.201	-3.354	-1.805	C.2	1	UNK0	0.000	
3	   C	-3.642	-2.091	-1.706	C.2	1	UNK0	0.000	
4	   C	-2.307	-1.822	-1.916	C.2	1	UNK0	0.000	
5	   N	-1.527	-0.727	-1.887	N.2	1	UNK0	0.000	
6	   C	-0.252	-1.043	-2.182	C.2	1	UNK0	0.000	
7	   N	-0.249	-2.368	-2.399	N.pl3	1	UNK0	0.000	
8	   C	-1.479	-2.898	-2.249	C.2	1	UNK0	0.000	
9	   C	-2.021	-4.158	-2.351	C.2	1	UNK0	0.000	
10	   C	-3.353	-4.406	-2.138	C.2	1	UNK0	0.000	
11	   C	0.920	-0.104	-2.253	C.3	1	UNK0	0.000	
12	   N	0.566	1.173	-1.661	N.pl3	1	UNK0	0.000	
13	   C	0.186	1.308	-0.312	C.2	1	UNK0	0.000	
14	   O	0.160	0.280	0.386	O.2	1	UNK0	0.000	
15	   C	-0.176	2.602	0.292	C.3	1	UNK0	0.000	
16	   C	0.340	3.809	-0.389	C.3	1	UNK0	0.000	
17	   C	-1.089	3.503	-0.607	C.3	1	UNK0	0.000	
18	   N	-0.587	2.656	1.663	N.3	1	UNK0	0.000	
19	   C	-0.692	3.939	2.237	C.3	1	UNK0	0.000	
20	   C	0.596	4.210	3.005	C.3	1	UNK0	0.000	
21	   O	0.667	3.394	4.109	O.3	1	UNK0	0.000	
22	   C	0.051	2.175	3.971	C.3	1	UNK0	0.000	
23	   C	-0.013	1.711	2.530	C.3	1	UNK0	0.000	
24	   H	-4.296	-1.250	-1.446	 H	1	UNK0	0.000	
25	   H	0.604	-2.917	-2.651	 H	1	UNK0	0.000	
26	   H	-1.372	-4.975	-2.607	 H	1	UNK0	0.000	
27	   H	-3.811	-5.391	-2.210	 H	1	UNK0	0.000	
28	   H	1.255	0.043	-3.273	 H	1	UNK0	0.000	
29	   H	1.714	-0.541	-1.623	 H	1	UNK0	0.000	
30	   H	0.594	2.026	-2.267	 H	1	UNK0	0.000	
31	   H	0.993	3.735	-1.282	 H	1	UNK0	0.000	
32	   H	0.584	4.736	0.180	 H	1	UNK0	0.000	
33	   H	-1.438	3.021	-1.550	 H	1	UNK0	0.000	
34	   H	-1.826	4.137	-0.134	 H	1	UNK0	0.000	
35	   H	-0.976	4.768	1.593	 H	1	UNK0	0.000	
36	   H	-1.494	3.894	3.034	 H	1	UNK0	0.000	
37	   H	1.455	4.016	2.337	 H	1	UNK0	0.000	
38	   H	0.574	5.295	3.301	 H	1	UNK0	0.000	
39	   H	0.703	1.423	4.508	 H	1	UNK0	0.000	
40	   H	-0.935	2.109	4.477	 H	1	UNK0	0.000	
41	   H	1.005	1.363	2.272	 H	1	UNK0	0.000	
42	   H	-0.644	0.776	2.545	 H	1	UNK0	0.000	
@<TRIPOS>BOND
1 1 2 1
2 2 3 2
3 2 10 1
4 3 4 1
5 4 5 1
6 4 8 2
7 5 6 2
8 6 7 1
9 6 11 1
10 7 8 1
11 8 9 1
12 9 10 2
13 11 12 1
14 12 13 1
15 13 14 2
16 13 15 1
17 15 16 1
18 15 17 1
19 15 18 1
20 16 17 1
21 18 19 1
22 18 23 1
23 19 20 1
24 20 21 1
25 21 22 1
26 22 23 1
27 3 24 1
28 7 25 1
29 9 26 1
30 10 27 1
31 11 28 1
32 11 29 1
33 12 30 1
34 16 31 1
35 16 32 1
36 17 33 1
37 17 34 1
38 19 35 1
39 19 36 1
40 20 37 1
41 20 38 1
42 22 39 1
43 22 40 1
44 23 41 1
45 23 42 1
@<TRIPOS>SUBSTRUCTURE
1	UNK0	1	GROUP	1 ****	UNK
# created with PyMOL 2.3.2
@<TRIPOS>MOLECULE
1937
54 57 1                 
SMALL
USER_CHARGES
@<TRIPOS>ATOM
1	  Cl	2.660	-0.330	3.276	Cl	1	UNK0	0.000	
2	   C	1.945	1.191	2.798	C.2	1	UNK0	0.000	
3	   C	2.197	1.663	1.515	C.2	1	UNK0	0.000	
4	   C	1.575	2.831	1.161	C.2	1	UNK0	0.000	
5	   C	0.748	3.506	2.051	C.2	1	UNK0	0.000	
6	   C	0.490	3.030	3.353	C.2	1	UNK0	0.000	
7	   C	1.126	1.844	3.660	C.2	1	UNK0	0.000	
8	   C	3.240	0.976	0.709	C.3	1	UNK0	0.000	
9	   N	2.769	0.547	-0.558	N.pl3	1	UNK0	0.000	
10	   C	3.514	-0.022	-1.593	C.2	1	UNK0	0.000	
11	   O	4.716	-0.078	-1.579	O.2	1	UNK0	0.000	
12	   C	2.742	-0.610	-2.779	C.3	1	UNK0	0.000	
13	   N	1.375	-0.771	-2.345	N.3	1	UNK0	0.000	
14	   C	0.336	-1.089	-3.210	C.3	1	UNK0	0.000	
15	   C	-0.914	-1.483	-2.314	C.3	1	UNK0	0.000	
16	   N	-0.665	-0.682	-1.145	N.pl3	1	UNK0	0.000	
17	   C	0.314	-1.356	-0.243	C.3	1	UNK0	0.000	
18	   C	1.411	-1.742	-1.195	C.3	1	UNK0	0.000	
19	   C	-1.293	0.488	-0.839	C.2	1	UNK0	0.000	
20	   O	-0.681	1.305	-0.069	O.2	1	UNK0	0.000	
21	   C	-2.649	0.947	-1.276	C.3	1	UNK0	0.000	
22	   O	-3.526	-0.181	-0.951	O.3	1	UNK0	0.000	
23	   C	-3.103	-0.802	0.260	C.2	1	UNK0	0.000	
24	   C	-2.578	0.008	1.232	C.2	1	UNK0	0.000	
25	   C	-2.131	-0.507	2.444	C.2	1	UNK0	0.000	
26	   C	-2.249	-1.882	2.611	C.2	1	UNK0	0.000	
27	   C	-2.780	-2.723	1.658	C.2	1	UNK0	0.000	
28	   C	-3.215	-2.172	0.469	C.2	1	UNK0	0.000	
29	   O	-2.490	1.385	0.999	O.3	1	UNK0	0.000	
30	   C	-3.062	1.980	-0.193	C.3	1	UNK0	0.000	
31	   H	1.704	3.291	0.194	 H	1	UNK0	0.000	
32	   H	0.247	4.442	1.823	 H	1	UNK0	0.000	
33	   H	-0.158	3.574	4.021	 H	1	UNK0	0.000	
34	   H	0.917	1.445	4.633	 H	1	UNK0	0.000	
35	   H	4.012	1.812	0.529	 H	1	UNK0	0.000	
36	   H	3.666	0.158	1.296	 H	1	UNK0	0.000	
37	   H	1.735	0.744	-0.807	 H	1	UNK0	0.000	
38	   H	2.773	0.068	-3.641	 H	1	UNK0	0.000	
39	   H	3.186	-1.585	-3.009	 H	1	UNK0	0.000	
40	   H	0.433	-1.876	-3.932	 H	1	UNK0	0.000	
41	   H	-0.058	-0.125	-3.664	 H	1	UNK0	0.000	
42	   H	-0.818	-2.555	-2.095	 H	1	UNK0	0.000	
43	   H	-1.836	-1.207	-2.811	 H	1	UNK0	0.000	
44	   H	-0.188	-2.294	0.056	 H	1	UNK0	0.000	
45	   H	0.586	-0.763	0.604	 H	1	UNK0	0.000	
46	   H	1.199	-2.714	-1.673	 H	1	UNK0	0.000	
47	   H	2.423	-1.732	-0.813	 H	1	UNK0	0.000	
48	   H	-2.735	1.291	-2.275	 H	1	UNK0	0.000	
49	   H	-1.700	0.162	3.201	 H	1	UNK0	0.000	
50	   H	-1.885	-2.285	3.548	 H	1	UNK0	0.000	
51	   H	-2.841	-3.814	1.832	 H	1	UNK0	0.000	
52	   H	-3.640	-2.782	-0.317	 H	1	UNK0	0.000	
53	   H	-2.407	2.866	-0.407	 H	1	UNK0	0.000	
54	   H	-4.113	2.158	-0.149	 H	1	UNK0	0.000	
@<TRIPOS>BOND
1 1 2 1
2 2 3 2
3 2 7 1
4 3 4 1
5 3 8 1
6 4 5 2
7 5 6 1
8 6 7 2
9 8 9 1
10 9 10 1
11 10 11 2
12 10 12 1
13 12 13 1
14 13 14 1
15 13 18 1
16 14 15 1
17 15 16 1
18 16 17 1
19 16 19 1
20 17 18 1
21 19 20 2
22 19 21 1
23 21 22 1
24 21 30 1
25 22 23 1
26 23 24 2
27 23 28 1
28 24 25 1
29 24 29 1
30 25 26 2
31 26 27 1
32 27 28 2
33 29 30 1
34 4 31 1
35 5 32 1
36 6 33 1
37 7 34 1
38 8 35 1
39 8 36 1
40 9 37 1
41 12 38 1
42 12 39 1
43 14 40 1
44 14 41 1
45 15 42 1
46 15 43 1
47 17 44 1
48 17 45 1
49 18 46 1
50 18 47 1
51 21 48 1
52 25 49 1
53 26 50 1
54 27 51 1
55 28 52 1
56 30 53 1
57 30 54 1
@<TRIPOS>SUBSTRUCTURE
1	UNK0	1	GROUP	1 ****	UNK
# created with PyMOL 2.3.2
@<TRIPOS>MOLECULE
1939
45 48 1                 
SMALL
USER_CHARGES
@<TRIPOS>ATOM
1	  Cl	5.252	-2.729	-3.858	Cl	1	UNK0	0.000	
2	   C	3.928	-2.536	-2.730	C.2	1	UNK0	0.000	
3	   C	2.712	-2.150	-3.209	C.2	1	UNK0	0.000	
4	   C	1.629	-1.985	-2.340	C.2	1	UNK0	0.000	
5	   C	1.727	-2.195	-1.004	C.2	1	UNK0	0.000	
6	   C	2.992	-2.592	-0.544	C.2	1	UNK0	0.000	
7	   C	4.071	-2.760	-1.380	C.2	1	UNK0	0.000	
8	   C	0.615	-2.088	-0.063	C.3	1	UNK0	0.000	
9	   N	-0.231	-0.930	-0.182	N.pl3	1	UNK0	0.000	
10	   C	-1.350	-0.912	-0.968	C.2	1	UNK0	0.000	
11	   C	-1.957	0.311	-0.887	C.2	1	UNK0	0.000	
12	   N	-1.193	1.005	-0.054	N.2	1	UNK0	0.000	
13	   C	-0.126	0.268	0.395	C.2	1	UNK0	0.000	
14	   N	0.825	0.785	1.302	N.pl3	1	UNK0	0.000	
15	   C	0.624	2.141	1.795	C.3	1	UNK0	0.000	
16	   C	1.119	2.068	3.251	C.3	1	UNK0	0.000	
17	   N	0.862	0.771	3.836	N.3	1	UNK0	0.000	
18	   C	1.622	-0.305	3.237	C.3	1	UNK0	0.000	
19	   C	1.980	0.160	1.833	C.3	1	UNK0	0.000	
20	   N	-3.087	0.586	-1.564	N.pl3	1	UNK0	0.000	
21	   C	-3.650	-0.368	-2.351	C.2	1	UNK0	0.000	
22	   O	-4.700	-0.067	-2.962	O.2	1	UNK0	0.000	
23	   N	-3.091	-1.585	-2.463	N.pl3	1	UNK0	0.000	
24	   C	-1.965	-1.848	-1.783	C.2	1	UNK0	0.000	
25	   O	-1.485	-2.995	-1.919	O.2	1	UNK0	0.000	
26	   C	-3.664	1.911	-1.421	C.3	1	UNK0	0.000	
27	   H	2.548	-1.963	-4.258	 H	1	UNK0	0.000	
28	   H	0.698	-1.668	-2.784	 H	1	UNK0	0.000	
29	   H	3.097	-2.769	0.533	 H	1	UNK0	0.000	
30	   H	5.046	-3.066	-1.026	 H	1	UNK0	0.000	
31	   H	0.942	-2.252	1.010	 H	1	UNK0	0.000	
32	   H	-0.017	-3.007	-0.222	 H	1	UNK0	0.000	
33	   H	-0.420	2.461	1.749	 H	1	UNK0	0.000	
34	   H	1.271	2.876	1.293	 H	1	UNK0	0.000	
35	   H	2.172	2.396	3.329	 H	1	UNK0	0.000	
36	   H	0.495	2.791	3.832	 H	1	UNK0	0.000	
37	   H	1.139	0.833	4.830	 H	1	UNK0	0.000	
38	   H	1.069	-1.266	3.222	 H	1	UNK0	0.000	
39	   H	2.569	-0.497	3.794	 H	1	UNK0	0.000	
40	   H	2.793	0.950	2.043	 H	1	UNK0	0.000	
41	   H	2.520	-0.552	1.237	 H	1	UNK0	0.000	
42	   H	-3.562	-2.280	-3.079	 H	1	UNK0	0.000	
43	   H	-3.007	2.676	-1.901	 H	1	UNK0	0.000	
44	   H	-3.778	2.200	-0.340	 H	1	UNK0	0.000	
45	   H	-4.651	2.000	-1.887	 H	1	UNK0	0.000	
@<TRIPOS>BOND
1 1 2 1
2 2 3 2
3 2 7 1
4 3 4 1
5 4 5 2
6 5 6 1
7 5 8 1
8 6 7 2
9 8 9 1
10 9 10 1
11 9 13 1
12 10 11 2
13 10 24 1
14 11 12 1
15 11 20 1
16 12 13 2
17 13 14 1
18 14 15 1
19 14 19 1
20 15 16 1
21 16 17 1
22 17 18 1
23 18 19 1
24 20 21 1
25 20 26 1
26 21 22 2
27 21 23 1
28 23 24 1
29 24 25 2
30 3 27 1
31 4 28 1
32 6 29 1
33 7 30 1
34 8 31 1
35 8 32 1
36 15 33 1
37 15 34 1
38 16 35 1
39 16 36 1
40 17 37 1
41 18 38 1
42 18 39 1
43 19 40 1
44 19 41 1
45 23 42 1
46 26 43 1
47 26 44 1
48 26 45 1
@<TRIPOS>SUBSTRUCTURE
1	UNK0	1	GROUP	1 ****	UNK
# created with PyMOL 2.3.2
@<TRIPOS>MOLECULE
1940
50 53 1                 
SMALL
USER_CHARGES
@<TRIPOS>ATOM
1	  Cl	-4.315	-3.876	5.178	Cl	1	UNK0	0.000	
2	   C	-2.945	-3.128	4.396	C.2	1	UNK0	0.000	
3	   C	-1.927	-3.861	3.825	C.2	1	UNK0	0.000	
4	   C	-0.871	-3.204	3.224	C.2	1	UNK0	0.000	
5	   C	-0.784	-1.836	3.166	C.2	1	UNK0	0.000	
6	   C	-1.823	-1.110	3.749	C.2	1	UNK0	0.000	
7	   C	-2.879	-1.759	4.350	C.2	1	UNK0	0.000	
8	   C	0.361	-1.140	2.528	C.3	1	UNK0	0.000	
9	   N	0.737	-1.807	1.275	N.pl3	1	UNK0	0.000	
10	   C	-0.366	-1.625	0.406	C.2	1	UNK0	0.000	
11	   O	-0.719	-2.387	-0.525	O.2	1	UNK0	0.000	
12	   C	-1.023	-0.366	0.805	C.2	1	UNK0	0.000	
13	   O	-2.037	0.165	0.298	O.2	1	UNK0	0.000	
14	   C	-0.231	0.123	1.925	C.2	1	UNK0	0.000	
15	   C	-0.072	1.346	2.295	C.2	1	UNK0	0.000	
16	   O	0.733	1.669	3.386	O.2	1	UNK0	0.000	
17	   C	-0.734	2.434	1.582	C.2	1	UNK0	0.000	
18	   O	-1.924	2.558	1.112	O.3	1	UNK0	0.000	
19	   C	-2.083	3.718	0.542	C.2	1	UNK0	0.000	
20	   C	-0.915	4.431	0.634	C.2	1	UNK0	0.000	
21	   C	-0.040	3.618	1.299	C.2	1	UNK0	0.000	
22	   C	1.986	-2.509	1.016	C.3	1	UNK0	0.000	
23	   C	3.067	-1.649	0.438	C.3	1	UNK0	0.000	
24	   N	2.792	-1.059	-0.827	N.4	1	UNK0	0.000	
25	   C	2.401	0.314	-0.826	C.3	1	UNK0	0.000	
26	   C	3.474	1.252	-0.322	C.3	1	UNK0	0.000	
27	   O	4.641	1.115	-1.066	O.3	1	UNK0	0.000	
28	   C	5.046	-0.212	-1.166	C.3	1	UNK0	0.000	
29	   C	3.975	-1.121	-1.710	C.3	1	UNK0	0.000	
30	   H	-2.011	-4.935	3.879	 H	1	UNK0	0.000	
31	   H	-0.094	-3.814	2.784	 H	1	UNK0	0.000	
32	   H	-1.750	-0.014	3.703	 H	1	UNK0	0.000	
33	   H	-3.685	-1.187	4.801	 H	1	UNK0	0.000	
34	   H	1.201	-0.938	3.186	 H	1	UNK0	0.000	
35	   H	-2.976	4.121	0.050	 H	1	UNK0	0.000	
36	   H	-0.691	5.441	0.265	 H	1	UNK0	0.000	
37	   H	0.980	3.852	1.554	 H	1	UNK0	0.000	
38	   H	1.805	-3.397	0.363	 H	1	UNK0	0.000	
39	   H	2.319	-2.891	2.021	 H	1	UNK0	0.000	
40	   H	3.430	-0.923	1.199	 H	1	UNK0	0.000	
41	   H	3.949	-2.335	0.281	 H	1	UNK0	0.000	
42	   H	2.029	-1.605	-1.284	 H	1	UNK0	0.000	
43	   H	2.275	0.592	-1.918	 H	1	UNK0	0.000	
44	   H	1.447	0.544	-0.363	 H	1	UNK0	0.000	
45	   H	3.089	2.287	-0.565	 H	1	UNK0	0.000	
46	   H	3.622	1.224	0.762	 H	1	UNK0	0.000	
47	   H	5.392	-0.615	-0.188	 H	1	UNK0	0.000	
48	   H	5.902	-0.232	-1.872	 H	1	UNK0	0.000	
49	   H	3.665	-0.734	-2.695	 H	1	UNK0	0.000	
50	   H	4.405	-2.138	-1.742	 H	1	UNK0	0.000	
@<TRIPOS>BOND
1 1 2 1
2 2 3 2
3 2 7 1
4 3 4 1
5 4 5 2
6 5 6 1
7 5 8 1
8 6 7 2
9 8 9 1
10 8 14 1
11 9 10 1
12 9 22 1
13 10 11 2
14 10 12 1
15 12 13 2
16 12 14 1
17 14 15 2
18 15 16 1
19 15 17 1
20 17 18 1
21 17 21 2
22 18 19 1
23 19 20 2
24 20 21 1
25 22 23 1
26 23 24 1
27 24 25 1
28 24 29 1
29 25 26 1
30 26 27 1
31 27 28 1
32 28 29 1
33 3 30 1
34 4 31 1
35 6 32 1
36 7 33 1
37 8 34 1
38 19 35 1
39 20 36 1
40 21 37 1
41 22 38 1
42 22 39 1
43 23 40 1
44 23 41 1
45 24 42 1
46 25 43 1
47 25 44 1
48 26 45 1
49 26 46 1
50 28 47 1
51 28 48 1
52 29 49 1
53 29 50 1
@<TRIPOS>SUBSTRUCTURE
1	UNK0	1	GROUP	1 ****	UNK
# created with PyMOL 2.3.2
@<TRIPOS>MOLECULE
1941
34 37 1                 
SMALL
USER_CHARGES
@<TRIPOS>ATOM
1	  Cl	-3.483	6.239	1.022	Cl	1	UNK0	0.000	
2	   C	-2.772	4.634	0.899	C.2	1	UNK0	0.000	
3	   C	-3.417	3.527	1.393	C.2	1	UNK0	0.000	
4	   C	-2.854	2.275	1.293	C.2	1	UNK0	0.000	
5	   C	-1.624	2.065	0.698	C.2	1	UNK0	0.000	
6	   C	-0.993	3.187	0.208	C.2	1	UNK0	0.000	
7	   C	-1.538	4.447	0.298	C.2	1	UNK0	0.000	
8	   N	-1.084	0.751	0.621	N.pl3	1	UNK0	0.000	
9	   C	-0.779	-0.008	-0.558	C.2	1	UNK0	0.000	
10	   O	-1.372	0.208	-1.671	O.2	1	UNK0	0.000	
11	   C	0.265	-0.998	-0.248	C.3	1	UNK0	0.000	
12	   C	0.185	-1.115	1.255	C.3	1	UNK0	0.000	
13	   C	-0.232	-2.524	1.617	C.3	1	UNK0	0.000	
14	   C	0.948	-3.416	1.204	C.3	1	UNK0	0.000	
15	   C	1.033	-3.292	-0.290	C.2	1	UNK0	0.000	
16	   O	1.821	-3.951	-0.913	O.2	1	UNK0	0.000	
17	   C	0.090	-2.311	-0.931	C.3	1	UNK0	0.000	
18	   C	-1.315	-2.866	-0.671	C.3	1	UNK0	0.000	
19	   C	-1.427	-2.978	0.825	C.2	1	UNK0	0.000	
20	   O	-2.430	-3.412	1.321	O.2	1	UNK0	0.000	
21	   C	-0.733	-0.077	1.721	C.2	1	UNK0	0.000	
22	   O	-1.142	0.060	2.896	O.2	1	UNK0	0.000	
23	   H	-4.374	3.665	1.861	 H	1	UNK0	0.000	
24	   H	-3.363	1.385	1.685	 H	1	UNK0	0.000	
25	   H	-0.030	3.085	-0.267	 H	1	UNK0	0.000	
26	   H	-1.033	5.339	-0.093	 H	1	UNK0	0.000	
27	   H	1.262	-0.588	-0.570	 H	1	UNK0	0.000	
28	   H	1.209	-0.968	1.664	 H	1	UNK0	0.000	
29	   H	-0.455	-2.618	2.694	 H	1	UNK0	0.000	
30	   H	1.862	-2.894	1.597	 H	1	UNK0	0.000	
31	   H	0.834	-4.442	1.544	 H	1	UNK0	0.000	
32	   H	0.323	-2.229	-1.992	 H	1	UNK0	0.000	
33	   H	-1.328	-3.878	-1.157	 H	1	UNK0	0.000	
34	   H	-2.094	-2.222	-1.089	 H	1	UNK0	0.000	
@<TRIPOS>BOND
1 1 2 1
2 2 3 2
3 2 7 1
4 3 4 1
5 4 5 2
6 5 6 1
7 5 8 1
8 6 7 2
9 8 9 1
10 8 21 1
11 9 10 2
12 9 11 1
13 11 12 1
14 11 17 1
15 12 13 1
16 12 21 1
17 13 14 1
18 13 19 1
19 14 15 1
20 15 16 2
21 15 17 1
22 17 18 1
23 18 19 1
24 19 20 2
25 21 22 2
26 3 23 1
27 4 24 1
28 6 25 1
29 7 26 1
30 11 27 1
31 12 28 1
32 13 29 1
33 14 30 1
34 14 31 1
35 17 32 1
36 18 33 1
37 18 34 1
@<TRIPOS>SUBSTRUCTURE
1	UNK0	1	GROUP	1 ****	UNK
# created with PyMOL 2.3.2
@<TRIPOS>MOLECULE
1943
47 51 1                 
SMALL
USER_CHARGES
@<TRIPOS>ATOM
1	  Cl	-5.798	4.608	-3.382	Cl	1	UNK0	0.000	
2	   C	-4.613	3.547	-2.641	C.2	1	UNK0	0.000	
3	   C	-3.993	2.582	-3.397	C.2	1	UNK0	0.000	
4	   C	-3.062	1.742	-2.797	C.2	1	UNK0	0.000	
5	   C	-2.720	1.822	-1.475	C.2	1	UNK0	0.000	
6	   C	-3.355	2.797	-0.745	C.2	1	UNK0	0.000	
7	   C	-4.296	3.656	-1.322	C.2	1	UNK0	0.000	
8	   N	-1.786	0.975	-0.869	N.pl3	1	UNK0	0.000	
9	   C	-1.522	0.769	0.536	C.2	1	UNK0	0.000	
10	   O	-2.071	1.359	1.471	O.2	1	UNK0	0.000	
11	   C	-0.490	-0.264	0.695	C.3	1	UNK0	0.000	
12	   C	0.624	0.068	1.659	C.3	1	UNK0	0.000	
13	   N	1.692	0.679	0.905	N.3	1	UNK0	0.000	
14	   C	1.135	1.012	-0.391	C.3	1	UNK0	0.000	
15	   C	0.227	-0.177	-0.632	C.3	1	UNK0	0.000	
16	   C	-0.880	0.103	-1.565	C.2	1	UNK0	0.000	
17	   O	-0.952	-0.358	-2.707	O.2	1	UNK0	0.000	
18	   C	2.193	1.117	-1.458	C.3	1	UNK0	0.000	
19	   C	3.210	2.131	-1.197	C.2	1	UNK0	0.000	
20	   O	3.152	2.838	-0.173	O.2	1	UNK0	0.000	
21	   N	4.273	2.318	-2.111	N.pl3	1	UNK0	0.000	
22	   C	1.042	-1.257	2.235	C.2	1	UNK0	0.000	
23	   C	0.655	-1.278	3.545	C.2	1	UNK0	0.000	
24	   C	0.847	-2.409	4.354	C.2	1	UNK0	0.000	
25	   C	1.443	-3.539	3.834	C.2	1	UNK0	0.000	
26	   C	1.834	-3.518	2.522	C.2	1	UNK0	0.000	
27	   C	1.637	-2.399	1.740	C.2	1	UNK0	0.000	
28	   N	0.140	-0.018	3.944	N.pl3	1	UNK0	0.000	
29	   C	0.218	0.840	2.816	C.2	1	UNK0	0.000	
30	   O	-0.031	2.063	2.866	O.2	1	UNK0	0.000	
31	   H	-4.229	2.475	-4.457	 H	1	UNK0	0.000	
32	   H	-2.621	1.018	-3.431	 H	1	UNK0	0.000	
33	   H	-3.169	2.954	0.292	 H	1	UNK0	0.000	
34	   H	-4.790	4.424	-0.726	 H	1	UNK0	0.000	
35	   H	-0.919	-1.273	0.867	 H	1	UNK0	0.000	
36	   H	1.998	1.536	1.424	 H	1	UNK0	0.000	
37	   H	0.479	1.908	-0.334	 H	1	UNK0	0.000	
38	   H	0.791	-1.086	-0.897	 H	1	UNK0	0.000	
39	   H	1.649	1.403	-2.408	 H	1	UNK0	0.000	
40	   H	2.593	0.097	-1.639	 H	1	UNK0	0.000	
41	   H	4.366	1.809	-3.023	 H	1	UNK0	0.000	
42	   H	5.067	3.001	-1.937	 H	1	UNK0	0.000	
43	   H	0.535	-2.417	5.392	 H	1	UNK0	0.000	
44	   H	1.577	-4.405	4.485	 H	1	UNK0	0.000	
45	   H	2.303	-4.385	2.098	 H	1	UNK0	0.000	
46	   H	1.958	-2.399	0.703	 H	1	UNK0	0.000	
47	   H	-0.234	0.237	4.909	 H	1	UNK0	0.000	
@<TRIPOS>BOND
1 1 2 1
2 2 3 2
3 2 7 1
4 3 4 1
5 4 5 2
6 5 6 1
7 5 8 1
8 6 7 2
9 8 9 1
10 8 16 1
11 9 10 2
12 9 11 1
13 11 12 1
14 11 15 1
15 12 13 1
16 12 22 1
17 12 29 1
18 13 14 1
19 14 15 1
20 14 18 1
21 15 16 1
22 16 17 2
23 18 19 1
24 19 20 2
25 19 21 1
26 22 23 1
27 22 27 2
28 23 24 2
29 23 28 1
30 24 25 1
31 25 26 2
32 26 27 1
33 28 29 1
34 29 30 2
35 3 31 1
36 4 32 1
37 6 33 1
38 7 34 1
39 11 35 1
40 13 36 1
41 14 37 1
42 15 38 1
43 18 39 1
44 18 40 1
45 21 41 1
46 21 42 1
47 24 43 1
48 25 44 1
49 26 45 1
50 27 46 1
51 28 47 1
@<TRIPOS>SUBSTRUCTURE
1	UNK0	1	GROUP	1 ****	UNK
# created with PyMOL 2.3.2
@<TRIPOS>MOLECULE
1945
40 43 1                 
SMALL
USER_CHARGES
@<TRIPOS>ATOM
1	  Cl	-3.977	4.382	0.108	Cl	1	UNK0	0.000	
2	   C	-3.720	2.657	0.279	C.2	1	UNK0	0.000	
3	   C	-2.575	2.045	-0.177	C.2	1	UNK0	0.000	
4	   C	-2.383	0.668	-0.035	C.2	1	UNK0	0.000	
5	   C	-3.380	-0.073	0.582	C.2	1	UNK0	0.000	
6	   C	-4.529	0.524	1.043	C.2	1	UNK0	0.000	
7	   C	-4.706	1.876	0.896	C.2	1	UNK0	0.000	
8	   C	-3.221	-1.528	0.755	C.2	1	UNK0	0.000	
9	   N	-3.974	-2.433	1.281	N.2	1	UNK0	0.000	
10	   C	-3.386	-3.743	1.219	C.3	1	UNK0	0.000	
11	   C	-2.071	-3.524	0.537	C.3	1	UNK0	0.000	
12	   N	-2.027	-2.111	0.271	N.pl3	1	UNK0	0.000	
13	   C	-1.023	-1.324	-0.357	C.2	1	UNK0	0.000	
14	   O	0.051	-1.825	-0.795	O.2	1	UNK0	0.000	
15	   N	-1.176	0.097	-0.527	N.pl3	1	UNK0	0.000	
16	   C	-0.134	0.883	-1.173	C.3	1	UNK0	0.000	
17	   C	0.846	1.387	-0.184	C.2	1	UNK0	0.000	
18	   O	0.673	1.093	1.024	O.2	1	UNK0	0.000	
19	   N	1.964	2.180	-0.537	N.pl3	1	UNK0	0.000	
20	   C	2.905	2.658	0.447	C.3	1	UNK0	0.000	
21	   C	3.982	3.471	-0.221	C.3	1	UNK0	0.000	
22	   C	4.840	2.837	-1.258	C.3	1	UNK0	0.000	
23	   C	5.403	3.102	0.086	C.3	1	UNK0	0.000	
24	   H	-1.792	2.628	-0.660	 H	1	UNK0	0.000	
25	   H	-5.291	-0.057	1.516	 H	1	UNK0	0.000	
26	   H	-5.598	2.408	1.242	 H	1	UNK0	0.000	
27	   H	-4.024	-4.475	0.680	 H	1	UNK0	0.000	
28	   H	-3.168	-4.124	2.255	 H	1	UNK0	0.000	
29	   H	-1.206	-3.858	1.166	 H	1	UNK0	0.000	
30	   H	-2.095	-4.102	-0.417	 H	1	UNK0	0.000	
31	   H	-0.512	1.638	-1.867	 H	1	UNK0	0.000	
32	   H	0.436	0.143	-1.812	 H	1	UNK0	0.000	
33	   H	2.094	2.414	-1.542	 H	1	UNK0	0.000	
34	   H	3.342	1.782	1.003	 H	1	UNK0	0.000	
35	   H	2.362	3.273	1.183	 H	1	UNK0	0.000	
36	   H	3.791	4.564	-0.221	 H	1	UNK0	0.000	
37	   H	4.599	1.795	-1.569	 H	1	UNK0	0.000	
38	   H	5.129	3.477	-2.123	 H	1	UNK0	0.000	
39	   H	5.541	2.212	0.742	 H	1	UNK0	0.000	
40	   H	6.157	3.915	0.185	 H	1	UNK0	0.000	
@<TRIPOS>BOND
1 1 2 1
2 2 3 2
3 2 7 1
4 3 4 1
5 4 5 2
6 4 15 1
7 5 6 1
8 5 8 1
9 6 7 2
10 8 9 2
11 8 12 1
12 9 10 1
13 10 11 1
14 11 12 1
15 12 13 1
16 13 14 2
17 13 15 1
18 15 16 1
19 16 17 1
20 17 18 2
21 17 19 1
22 19 20 1
23 20 21 1
24 21 22 1
25 21 23 1
26 22 23 1
27 3 24 1
28 6 25 1
29 7 26 1
30 10 27 1
31 10 28 1
32 11 29 1
33 11 30 1
34 16 31 1
35 16 32 1
36 19 33 1
37 20 34 1
38 20 35 1
39 21 36 1
40 22 37 1
41 22 38 1
42 23 39 1
43 23 40 1
@<TRIPOS>SUBSTRUCTURE
1	UNK0	1	GROUP	1 ****	UNK
# created with PyMOL 2.3.2
@<TRIPOS>MOLECULE
1956
63 66 1                 
SMALL
USER_CHARGES
@<TRIPOS>ATOM
1	  Cl	-8.800	0.889	-3.456	Cl	1	UNK0	0.000	
2	   C	-7.406	0.432	-2.504	C.2	1	UNK0	0.000	
3	   C	-7.506	-0.175	-1.275	C.2	1	UNK0	0.000	
4	   C	-6.374	-0.515	-0.564	C.2	1	UNK0	0.000	
5	   C	-5.080	-0.266	-1.042	C.2	1	UNK0	0.000	
6	   C	-5.011	0.340	-2.274	C.2	1	UNK0	0.000	
7	   C	-6.159	0.687	-2.999	C.2	1	UNK0	0.000	
8	   C	-3.938	-0.690	-0.263	C.2	1	UNK0	0.000	
9	   C	-2.985	0.139	0.129	C.2	1	UNK0	0.000	
10	   C	-1.770	-0.246	0.935	C.3	1	UNK0	0.000	
11	   N	-1.204	0.991	1.390	N.pl3	1	UNK0	0.000	
12	   C	-1.798	2.092	0.718	C.2	1	UNK0	0.000	
13	   O	-1.449	3.280	0.778	O.2	1	UNK0	0.000	
14	   C	-2.925	1.551	-0.077	C.2	1	UNK0	0.000	
15	   O	-3.680	2.247	-0.796	O.2	1	UNK0	0.000	
16	   C	-0.171	1.117	2.413	C.3	1	UNK0	0.000	
17	   C	1.175	1.090	1.775	C.3	1	UNK0	0.000	
18	   N	2.248	1.224	2.774	N.4	1	UNK0	0.000	
19	   C	1.902	2.299	3.652	C.3	1	UNK0	0.000	
20	   C	3.102	2.779	4.465	C.3	1	UNK0	0.000	
21	   O	4.080	3.161	3.529	O.3	1	UNK0	0.000	
22	   C	4.549	2.008	2.935	C.3	1	UNK0	0.000	
23	   C	3.470	1.445	2.032	C.3	1	UNK0	0.000	
24	   C	-0.881	-1.010	0.018	C.2	1	UNK0	0.000	
25	   C	-0.670	-2.343	0.224	C.2	1	UNK0	0.000	
26	   C	0.137	-3.039	-0.630	C.2	1	UNK0	0.000	
27	   C	0.752	-2.433	-1.704	C.2	1	UNK0	0.000	
28	   C	0.540	-1.083	-1.914	C.2	1	UNK0	0.000	
29	   C	-0.281	-0.381	-1.044	C.2	1	UNK0	0.000	
30	   O	1.573	-3.149	-2.569	O.3	1	UNK0	0.000	
31	   C	1.766	-4.548	-2.315	C.3	1	UNK0	0.000	
32	   C	2.695	-5.116	-3.385	C.3	1	UNK0	0.000	
33	   C	4.008	-4.353	-3.282	C.3	1	UNK0	0.000	
34	   O	-3.782	-2.042	0.125	O.2	1	UNK0	0.000	
35	   H	-8.497	-0.372	-0.894	 H	1	UNK0	0.000	
36	   H	-6.471	-0.993	0.403	 H	1	UNK0	0.000	
37	   H	-4.040	0.532	-2.712	 H	1	UNK0	0.000	
38	   H	-6.051	1.168	-3.971	 H	1	UNK0	0.000	
39	   H	-2.084	-0.898	1.777	 H	1	UNK0	0.000	
40	   H	-0.269	0.251	3.106	 H	1	UNK0	0.000	
41	   H	-0.341	2.050	2.973	 H	1	UNK0	0.000	
42	   H	1.313	1.921	1.064	 H	1	UNK0	0.000	
43	   H	1.339	0.103	1.271	 H	1	UNK0	0.000	
44	   H	2.341	0.336	3.333	 H	1	UNK0	0.000	
45	   H	1.147	1.895	4.381	 H	1	UNK0	0.000	
46	   H	1.509	3.181	3.106	 H	1	UNK0	0.000	
47	   H	3.429	1.914	5.068	 H	1	UNK0	0.000	
48	   H	2.796	3.645	5.053	 H	1	UNK0	0.000	
49	   H	5.415	2.235	2.291	 H	1	UNK0	0.000	
50	   H	4.811	1.225	3.660	 H	1	UNK0	0.000	
51	   H	3.808	0.456	1.658	 H	1	UNK0	0.000	
52	   H	3.241	2.126	1.190	 H	1	UNK0	0.000	
53	   H	-1.130	-2.866	1.052	 H	1	UNK0	0.000	
54	   H	0.314	-4.099	-0.479	 H	1	UNK0	0.000	
55	   H	1.030	-0.626	-2.761	 H	1	UNK0	0.000	
56	   H	-0.409	0.682	-1.261	 H	1	UNK0	0.000	
57	   H	2.248	-4.689	-1.335	 H	1	UNK0	0.000	
58	   H	0.792	-5.069	-2.319	 H	1	UNK0	0.000	
59	   H	2.895	-6.176	-3.127	 H	1	UNK0	0.000	
60	   H	2.241	-5.016	-4.389	 H	1	UNK0	0.000	
61	   H	4.851	-5.011	-3.525	 H	1	UNK0	0.000	
62	   H	4.180	-3.972	-2.247	 H	1	UNK0	0.000	
63	   H	3.963	-3.511	-4.001	 H	1	UNK0	0.000	
@<TRIPOS>BOND
1 1 2 1
2 2 3 2
3 2 7 1
4 3 4 1
5 4 5 2
6 5 6 1
7 5 8 1
8 6 7 2
9 8 9 2
10 8 34 1
11 9 10 1
12 9 14 1
13 10 11 1
14 10 24 1
15 11 12 1
16 11 16 1
17 12 13 2
18 12 14 1
19 14 15 2
20 16 17 1
21 17 18 1
22 18 19 1
23 18 23 1
24 19 20 1
25 20 21 1
26 21 22 1
27 22 23 1
28 24 25 2
29 24 29 1
30 25 26 1
31 26 27 2
32 27 28 1
33 27 30 1
34 28 29 2
35 30 31 1
36 31 32 1
37 32 33 1
38 3 35 1
39 4 36 1
40 6 37 1
41 7 38 1
42 10 39 1
43 16 40 1
44 16 41 1
45 17 42 1
46 17 43 1
47 18 44 1
48 19 45 1
49 19 46 1
50 20 47 1
51 20 48 1
52 22 49 1
53 22 50 1
54 23 51 1
55 23 52 1
56 25 53 1
57 26 54 1
58 28 55 1
59 29 56 1
60 31 57 1
61 31 58 1
62 32 59 1
63 32 60 1
64 33 61 1
65 33 62 1
66 33 63 1
@<TRIPOS>SUBSTRUCTURE
1	UNK0	1	GROUP	1 ****	UNK
# created with PyMOL 2.3.2
@<TRIPOS>MOLECULE
1957
57 61 1                 
SMALL
USER_CHARGES
@<TRIPOS>ATOM
1	  Cl	-3.697	-5.476	3.402	Cl	1	UNK0	0.000	
2	   C	-3.334	-3.784	3.106	C.2	1	UNK0	0.000	
3	   C	-4.086	-3.012	2.242	C.2	1	UNK0	0.000	
4	   C	-3.794	-1.692	2.018	C.2	1	UNK0	0.000	
5	   C	-2.723	-1.065	2.653	C.2	1	UNK0	0.000	
6	   C	-1.968	-1.822	3.515	C.2	1	UNK0	0.000	
7	   C	-2.282	-3.144	3.722	C.2	1	UNK0	0.000	
8	   C	-2.441	0.378	2.408	C.3	1	UNK0	0.000	
9	   O	-2.003	0.952	3.573	O.3	1	UNK0	0.000	
10	   C	-1.532	0.610	1.231	C.3	1	UNK0	0.000	
11	   N	-2.151	-0.084	0.109	N.3	1	UNK0	0.000	
12	   C	-1.075	-0.682	-0.656	C.3	1	UNK0	0.000	
13	   C	-0.071	-1.026	0.406	C.3	1	UNK0	0.000	
14	   C	-0.156	0.086	1.403	C.3	1	UNK0	0.000	
15	   C	0.900	1.062	1.017	C.2	1	UNK0	0.000	
16	   O	1.009	2.244	1.421	O.2	1	UNK0	0.000	
17	   N	1.769	0.376	0.089	N.pl3	1	UNK0	0.000	
18	   C	1.332	-0.961	-0.039	C.2	1	UNK0	0.000	
19	   O	1.998	-1.940	-0.456	O.2	1	UNK0	0.000	
20	   C	2.881	0.970	-0.593	C.3	1	UNK0	0.000	
21	   C	4.183	0.914	0.114	C.3	1	UNK0	0.000	
22	   C	4.723	-0.439	0.419	C.3	1	UNK0	0.000	
23	   O	4.957	-1.207	-0.714	O.3	1	UNK0	0.000	
24	   C	5.468	-2.464	-0.328	C.3	1	UNK0	0.000	
25	   C	-1.522	-1.886	-1.398	C.2	1	UNK0	0.000	
26	   C	-1.344	-1.615	-2.734	C.2	1	UNK0	0.000	
27	   C	-1.684	-2.586	-3.666	C.2	1	UNK0	0.000	
28	   C	-2.187	-3.789	-3.230	C.2	1	UNK0	0.000	
29	   C	-2.369	-4.072	-1.887	C.2	1	UNK0	0.000	
30	   C	-2.028	-3.098	-0.972	C.2	1	UNK0	0.000	
31	   N	-0.811	-0.292	-2.926	N.pl3	1	UNK0	0.000	
32	   C	-0.648	0.291	-1.646	C.2	1	UNK0	0.000	
33	   O	-0.213	1.439	-1.459	O.2	1	UNK0	0.000	
34	   H	-4.934	-3.475	1.728	 H	1	UNK0	0.000	
35	   H	-4.399	-1.083	1.327	 H	1	UNK0	0.000	
36	   H	-1.127	-1.410	4.056	 H	1	UNK0	0.000	
37	   H	-1.691	-3.763	4.406	 H	1	UNK0	0.000	
38	   H	-3.468	0.819	2.125	 H	1	UNK0	0.000	
39	   H	-2.075	1.936	3.477	 H	1	UNK0	0.000	
40	   H	-1.548	1.707	0.964	 H	1	UNK0	0.000	
41	   H	-2.709	0.566	-0.455	 H	1	UNK0	0.000	
42	   H	-0.314	-2.011	0.849	 H	1	UNK0	0.000	
43	   H	0.071	-0.251	2.428	 H	1	UNK0	0.000	
44	   H	2.625	2.019	-0.835	 H	1	UNK0	0.000	
45	   H	3.039	0.484	-1.600	 H	1	UNK0	0.000	
46	   H	4.942	1.402	-0.570	 H	1	UNK0	0.000	
47	   H	4.220	1.563	1.028	 H	1	UNK0	0.000	
48	   H	4.087	-1.042	1.088	 H	1	UNK0	0.000	
49	   H	5.703	-0.293	0.937	 H	1	UNK0	0.000	
50	   H	6.416	-2.357	0.228	 H	1	UNK0	0.000	
51	   H	4.735	-2.924	0.370	 H	1	UNK0	0.000	
52	   H	5.565	-3.134	-1.204	 H	1	UNK0	0.000	
53	   H	-1.543	-2.374	-4.736	 H	1	UNK0	0.000	
54	   H	-2.447	-4.540	-3.973	 H	1	UNK0	0.000	
55	   H	-2.770	-5.039	-1.617	 H	1	UNK0	0.000	
56	   H	-2.169	-3.313	0.098	 H	1	UNK0	0.000	
57	   H	-0.602	0.108	-3.869	 H	1	UNK0	0.000	
@<TRIPOS>BOND
1 1 2 1
2 2 3 2
3 2 7 1
4 3 4 1
5 4 5 2
6 5 6 1
7 5 8 1
8 6 7 2
9 8 9 1
10 8 10 1
11 10 11 1
12 10 14 1
13 11 12 1
14 12 13 1
15 12 25 1
16 12 32 1
17 13 14 1
18 13 18 1
19 14 15 1
20 15 16 2
21 15 17 1
22 17 18 1
23 17 20 1
24 18 19 2
25 20 21 1
26 21 22 1
27 22 23 1
28 23 24 1
29 25 26 1
30 25 30 2
31 26 27 2
32 26 31 1
33 27 28 1
34 28 29 2
35 29 30 1
36 31 32 1
37 32 33 2
38 3 34 1
39 4 35 1
40 6 36 1
41 7 37 1
42 8 38 1
43 9 39 1
44 10 40 1
45 11 41 1
46 13 42 1
47 14 43 1
48 20 44 1
49 20 45 1
50 21 46 1
51 21 47 1
52 22 48 1
53 22 49 1
54 24 50 1
55 24 51 1
56 24 52 1
57 27 53 1
58 28 54 1
59 29 55 1
60 30 56 1
61 31 57 1
@<TRIPOS>SUBSTRUCTURE
1	UNK0	1	GROUP	1 ****	UNK
# created with PyMOL 2.3.2
@<TRIPOS>MOLECULE
1958
48 51 1                 
SMALL
USER_CHARGES
@<TRIPOS>ATOM
1	  Cl	1.421	2.216	-7.465	Cl	1	UNK0	0.000	
2	   C	0.689	1.184	-6.256	C.2	1	UNK0	0.000	
3	   C	0.991	-0.173	-6.205	C.2	1	UNK0	0.000	
4	   C	0.408	-0.975	-5.248	C.2	1	UNK0	0.000	
5	   C	-0.483	-0.482	-4.319	C.2	1	UNK0	0.000	
6	   C	-0.787	0.861	-4.363	C.2	1	UNK0	0.000	
7	   C	-0.205	1.664	-5.318	C.2	1	UNK0	0.000	
8	   C	-1.121	-1.311	-3.284	C.3	1	UNK0	0.000	
9	   C	-0.296	-1.349	-2.034	C.2	1	UNK0	0.000	
10	   O	0.799	-0.687	-2.052	O.2	1	UNK0	0.000	
11	   N	-0.705	-2.073	-0.905	N.pl3	1	UNK0	0.000	
12	   C	-1.926	-2.814	-0.878	C.3	1	UNK0	0.000	
13	   C	-2.517	-2.986	0.493	C.3	1	UNK0	0.000	
14	   C	-2.054	-1.899	1.389	C.2	1	UNK0	0.000	
15	   C	-0.757	-1.426	1.315	C.2	1	UNK0	0.000	
16	   N	-0.328	-0.450	2.123	N.2	1	UNK0	0.000	
17	   C	-1.119	0.131	3.050	C.2	1	UNK0	0.000	
18	   N	-2.391	-0.329	3.126	N.2	1	UNK0	0.000	
19	   C	-2.868	-1.307	2.337	C.2	1	UNK0	0.000	
20	   O	-4.177	-1.755	2.441	O.3	1	UNK0	0.000	
21	   N	-0.620	1.155	3.873	N.pl3	1	UNK0	0.000	
22	   C	-1.447	1.754	4.878	C.3	1	UNK0	0.000	
23	   C	-0.491	2.356	5.918	C.3	1	UNK0	0.000	
24	   O	0.289	3.340	5.364	O.3	1	UNK0	0.000	
25	   C	0.885	3.037	4.170	C.3	1	UNK0	0.000	
26	   C	0.728	1.613	3.713	C.3	1	UNK0	0.000	
27	   C	0.120	-2.076	0.271	C.3	1	UNK0	0.000	
28	   H	1.686	-0.566	-6.927	 H	1	UNK0	0.000	
29	   H	0.637	-2.037	-5.200	 H	1	UNK0	0.000	
30	   H	-1.491	1.315	-3.648	 H	1	UNK0	0.000	
31	   H	-0.442	2.738	-5.361	 H	1	UNK0	0.000	
32	   H	-1.258	-2.336	-3.711	 H	1	UNK0	0.000	
33	   H	-2.133	-0.891	-3.097	 H	1	UNK0	0.000	
34	   H	-2.672	-2.455	-1.622	 H	1	UNK0	0.000	
35	   H	-1.692	-3.871	-1.227	 H	1	UNK0	0.000	
36	   H	-2.230	-3.975	0.959	 H	1	UNK0	0.000	
37	   H	-3.632	-3.015	0.472	 H	1	UNK0	0.000	
38	   H	-4.976	-1.160	2.207	 H	1	UNK0	0.000	
39	   H	-2.057	1.008	5.439	 H	1	UNK0	0.000	
40	   H	-2.133	2.542	4.483	 H	1	UNK0	0.000	
41	   H	0.170	1.523	6.236	 H	1	UNK0	0.000	
42	   H	-1.032	2.730	6.787	 H	1	UNK0	0.000	
43	   H	0.524	3.712	3.362	 H	1	UNK0	0.000	
44	   H	1.989	3.217	4.281	 H	1	UNK0	0.000	
45	   H	1.467	0.958	4.253	 H	1	UNK0	0.000	
46	   H	0.984	1.599	2.630	 H	1	UNK0	0.000	
47	   H	1.039	-1.480	0.118	 H	1	UNK0	0.000	
48	   H	0.399	-3.101	0.599	 H	1	UNK0	0.000	
@<TRIPOS>BOND
1 1 2 1
2 2 3 2
3 2 7 1
4 3 4 1
5 4 5 2
6 5 6 1
7 5 8 1
8 6 7 2
9 8 9 1
10 9 10 2
11 9 11 1
12 11 12 1
13 11 27 1
14 12 13 1
15 13 14 1
16 14 15 2
17 14 19 1
18 15 16 1
19 15 27 1
20 16 17 2
21 17 18 1
22 17 21 1
23 18 19 2
24 19 20 1
25 21 22 1
26 21 26 1
27 22 23 1
28 23 24 1
29 24 25 1
30 25 26 1
31 3 28 1
32 4 29 1
33 6 30 1
34 7 31 1
35 8 32 1
36 8 33 1
37 12 34 1
38 12 35 1
39 13 36 1
40 13 37 1
41 20 38 1
42 22 39 1
43 22 40 1
44 23 41 1
45 23 42 1
46 25 43 1
47 25 44 1
48 26 45 1
49 26 46 1
50 27 47 1
51 27 48 1
@<TRIPOS>SUBSTRUCTURE
1	UNK0	1	GROUP	1 ****	UNK
# created with PyMOL 2.3.2
@<TRIPOS>MOLECULE
1960
52 55 1                 
SMALL
USER_CHARGES
@<TRIPOS>ATOM
1	  Cl	-1.741	-6.371	3.318	Cl	1	UNK0	0.000	
2	   C	-1.788	-4.654	3.059	C.2	1	UNK0	0.000	
3	   C	-2.124	-4.129	1.810	C.2	1	UNK0	0.000	
4	   C	-2.159	-2.761	1.611	C.2	1	UNK0	0.000	
5	   C	-1.862	-1.878	2.646	C.2	1	UNK0	0.000	
6	   C	-1.532	-2.388	3.871	C.2	1	UNK0	0.000	
7	   C	-1.498	-3.768	4.070	C.2	1	UNK0	0.000	
8	   C	-1.910	-0.414	2.388	C.3	1	UNK0	0.000	
9	   C	-0.600	0.100	1.945	C.2	1	UNK0	0.000	
10	   O	0.347	-0.725	1.854	O.2	1	UNK0	0.000	
11	   N	-0.355	1.444	1.622	N.pl3	1	UNK0	0.000	
12	   C	0.980	1.890	1.186	C.3	1	UNK0	0.000	
13	   C	0.796	2.939	0.100	C.3	1	UNK0	0.000	
14	   N	-0.471	2.654	-0.543	N.pl3	1	UNK0	0.000	
15	   C	-1.652	2.973	0.241	C.3	1	UNK0	0.000	
16	   C	-1.353	2.503	1.675	C.3	1	UNK0	0.000	
17	   C	-0.546	2.088	-1.842	C.2	1	UNK0	0.000	
18	   C	-1.752	2.062	-2.518	C.2	1	UNK0	0.000	
19	   N	-1.799	1.500	-3.761	N.2	1	UNK0	0.000	
20	   N	-0.743	0.976	-4.352	N.2	1	UNK0	0.000	
21	   C	0.482	0.968	-3.741	C.2	1	UNK0	0.000	
22	   C	0.524	1.530	-2.501	C.2	1	UNK0	0.000	
23	   N	1.570	0.388	-4.430	N.pl3	1	UNK0	0.000	
24	   C	1.403	-0.158	-5.764	C.3	1	UNK0	0.000	
25	   C	2.101	-1.514	-5.878	C.3	1	UNK0	0.000	
26	   O	3.379	-1.474	-5.357	O.3	1	UNK0	0.000	
27	   C	3.282	-1.187	-4.004	C.3	1	UNK0	0.000	
28	   C	2.891	0.295	-3.864	C.3	1	UNK0	0.000	
29	   H	-2.351	-4.809	1.017	 H	1	UNK0	0.000	
30	   H	-2.416	-2.318	0.650	 H	1	UNK0	0.000	
31	   H	-1.291	-1.738	4.717	 H	1	UNK0	0.000	
32	   H	-1.234	-4.139	5.045	 H	1	UNK0	0.000	
33	   H	-2.172	0.061	3.378	 H	1	UNK0	0.000	
34	   H	-2.712	-0.172	1.662	 H	1	UNK0	0.000	
35	   H	1.491	0.989	0.816	 H	1	UNK0	0.000	
36	   H	1.557	2.279	2.050	 H	1	UNK0	0.000	
37	   H	1.635	2.978	-0.609	 H	1	UNK0	0.000	
38	   H	0.711	3.943	0.572	 H	1	UNK0	0.000	
39	   H	-2.575	2.517	-0.117	 H	1	UNK0	0.000	
40	   H	-1.719	4.079	0.284	 H	1	UNK0	0.000	
41	   H	-2.259	2.232	2.214	 H	1	UNK0	0.000	
42	   H	-0.875	3.337	2.241	 H	1	UNK0	0.000	
43	   H	-2.658	2.458	-2.129	 H	1	UNK0	0.000	
44	   H	1.464	1.545	-1.978	 H	1	UNK0	0.000	
45	   H	0.338	-0.319	-6.029	 H	1	UNK0	0.000	
46	   H	1.915	0.507	-6.483	 H	1	UNK0	0.000	
47	   H	2.149	-1.776	-6.943	 H	1	UNK0	0.000	
48	   H	1.520	-2.307	-5.377	 H	1	UNK0	0.000	
49	   H	4.190	-1.413	-3.441	 H	1	UNK0	0.000	
50	   H	2.393	-1.749	-3.602	 H	1	UNK0	0.000	
51	   H	3.000	0.611	-2.834	 H	1	UNK0	0.000	
52	   H	3.581	0.863	-4.548	 H	1	UNK0	0.000	
@<TRIPOS>BOND
1 1 2 1
2 2 3 2
3 2 7 1
4 3 4 1
5 4 5 2
6 5 6 1
7 5 8 1
8 6 7 2
9 8 9 1
10 9 10 2
11 9 11 1
12 11 12 1
13 11 16 1
14 12 13 1
15 13 14 1
16 14 15 1
17 14 17 1
18 15 16 1
19 17 18 2
20 17 22 1
21 18 19 1
22 19 20 2
23 20 21 1
24 21 22 2
25 21 23 1
26 23 24 1
27 23 28 1
28 24 25 1
29 25 26 1
30 26 27 1
31 27 28 1
32 3 29 1
33 4 30 1
34 6 31 1
35 7 32 1
36 8 33 1
37 8 34 1
38 12 35 1
39 12 36 1
40 13 37 1
41 13 38 1
42 15 39 1
43 15 40 1
44 16 41 1
45 16 42 1
46 18 43 1
47 22 44 1
48 24 45 1
49 24 46 1
50 25 47 1
51 25 48 1
52 27 49 1
53 27 50 1
54 28 51 1
55 28 52 1
@<TRIPOS>SUBSTRUCTURE
1	UNK0	1	GROUP	1 ****	UNK
# created with PyMOL 2.3.2
@<TRIPOS>MOLECULE
1966
37 40 1                 
SMALL
USER_CHARGES
@<TRIPOS>ATOM
1	   F	1.688	0.071	-0.074	 F	1	UNK0	0.000	
2	   C	1.840	1.328	-0.558	C.2	1	UNK0	0.000	
3	   N	2.719	2.218	-0.004	N.pl3	1	UNK0	0.000	
4	   C	2.594	3.339	-0.732	C.2	1	UNK0	0.000	
5	   N	1.676	3.146	-1.693	N.2	1	UNK0	0.000	
6	   C	1.179	1.896	-1.618	C.2	1	UNK0	0.000	
7	   C	0.147	1.298	-2.507	C.2	1	UNK0	0.000	
8	   O	-0.234	2.157	-3.394	O.2	1	UNK0	0.000	
9	   N	-0.341	0.019	-2.414	N.pl3	1	UNK0	0.000	
10	   C	-0.827	-1.252	-2.321	C.3	1	UNK0	0.000	
11	   C	-0.251	-2.091	-1.208	C.2	1	UNK0	0.000	
12	   N	-0.859	-2.381	-0.055	N.pl3	1	UNK0	0.000	
13	   N	-0.039	-3.138	0.654	N.2	1	UNK0	0.000	
14	   N	1.076	-3.341	-0.014	N.2	1	UNK0	0.000	
15	   N	0.936	-2.688	-1.168	N.2	1	UNK0	0.000	
16	   C	-2.173	-1.920	0.265	C.2	1	UNK0	0.000	
17	   C	-3.127	-2.864	0.630	C.2	1	UNK0	0.000	
18	   C	-4.428	-2.484	0.936	C.2	1	UNK0	0.000	
19	   C	-4.815	-1.160	0.887	C.2	1	UNK0	0.000	
20	   C	-3.864	-0.230	0.525	C.2	1	UNK0	0.000	
21	   C	-2.568	-0.605	0.219	C.2	1	UNK0	0.000	
22	   C	3.379	4.409	-0.378	C.2	1	UNK0	0.000	
23	   C	4.278	4.359	0.689	C.2	1	UNK0	0.000	
24	   C	4.378	3.198	1.408	C.2	1	UNK0	0.000	
25	   C	3.572	2.130	1.030	C.2	1	UNK0	0.000	
26	  Cl	5.496	3.062	2.765	Cl	1	UNK0	0.000	
27	   H	-1.171	0.243	-3.477	 H	1	UNK0	0.000	
28	   H	-0.606	-1.879	-3.261	 H	1	UNK0	0.000	
29	   H	-1.957	-1.378	-2.252	 H	1	UNK0	0.000	
30	   H	-2.839	-3.902	0.674	 H	1	UNK0	0.000	
31	   H	-5.180	-3.207	1.219	 H	1	UNK0	0.000	
32	   H	-5.846	-0.857	1.125	 H	1	UNK0	0.000	
33	   H	-4.168	0.827	0.484	 H	1	UNK0	0.000	
34	   H	-1.852	0.157	-0.062	 H	1	UNK0	0.000	
35	   H	3.335	5.346	-0.916	 H	1	UNK0	0.000	
36	   H	4.899	5.221	0.965	 H	1	UNK0	0.000	
37	   H	3.667	1.225	1.607	 H	1	UNK0	0.000	
@<TRIPOS>BOND
1 1 2 1
2 2 3 1
3 2 6 2
4 3 4 1
5 3 25 1
6 4 5 2
7 4 22 1
8 5 6 1
9 6 7 1
10 7 8 2
11 7 9 1
12 9 10 1
13 10 11 1
14 11 12 1
15 11 15 2
16 12 13 1
17 12 16 1
18 13 14 2
19 14 15 1
20 16 17 2
21 16 21 1
22 17 18 1
23 18 19 2
24 19 20 1
25 20 21 2
26 22 23 2
27 23 24 1
28 24 25 2
29 24 26 1
30 9 27 1
31 10 28 1
32 10 29 1
33 17 30 1
34 18 31 1
35 19 32 1
36 20 33 1
37 21 34 1
38 22 35 1
39 23 36 1
40 25 37 1
@<TRIPOS>SUBSTRUCTURE
1	UNK0	1	GROUP	1 ****	UNK
# created with PyMOL 2.3.2
@<TRIPOS>MOLECULE
1969
42 45 1                 
SMALL
USER_CHARGES
@<TRIPOS>ATOM
1	  Cl	3.076	1.599	-4.626	Cl	1	UNK0	0.000	
2	   C	3.423	0.248	-3.593	C.2	1	UNK0	0.000	
3	   C	2.487	-0.361	-2.767	C.2	1	UNK0	0.000	
4	   C	2.815	-1.418	-1.991	C.2	1	UNK0	0.000	
5	   C	4.122	-1.856	-2.063	C.2	1	UNK0	0.000	
6	   C	5.077	-1.304	-2.848	C.2	1	UNK0	0.000	
7	   C	4.766	-0.249	-3.634	C.2	1	UNK0	0.000	
8	   N	1.906	-2.102	-1.098	N.pl3	1	UNK0	0.000	
9	   N	2.201	-3.289	-0.613	N.2	1	UNK0	0.000	
10	   N	1.281	-3.581	0.075	N.2	1	UNK0	0.000	
11	   C	0.225	-3.065	0.382	C.2	1	UNK0	0.000	
12	   C	0.731	-1.799	-0.614	C.2	1	UNK0	0.000	
13	   C	-1.037	-2.449	0.751	C.2	1	UNK0	0.000	
14	   O	-1.809	-3.552	1.102	O.2	1	UNK0	0.000	
15	   N	-1.739	-1.299	0.890	N.pl3	1	UNK0	0.000	
16	   C	-1.361	0.076	0.750	C.3	1	UNK0	0.000	
17	   C	-2.298	0.951	1.608	C.3	1	UNK0	0.000	
18	   N	-2.623	0.094	2.757	N.pl3	1	UNK0	0.000	
19	   C	-3.487	-1.022	2.558	C.3	1	UNK0	0.000	
20	   C	-3.199	-1.488	1.167	C.3	1	UNK0	0.000	
21	   C	-1.995	0.317	3.977	C.2	1	UNK0	0.000	
22	   N	-0.617	0.121	4.124	N.2	1	UNK0	0.000	
23	   C	0.065	0.322	5.196	C.2	1	UNK0	0.000	
24	   C	-0.531	0.791	6.377	C.2	1	UNK0	0.000	
25	   C	-1.900	0.982	6.243	C.2	1	UNK0	0.000	
26	   N	-2.524	0.759	5.148	N.2	1	UNK0	0.000	
27	   H	1.489	0.064	-2.718	 H	1	UNK0	0.000	
28	   H	4.351	-2.733	-1.388	 H	1	UNK0	0.000	
29	   H	6.085	-1.710	-2.854	 H	1	UNK0	0.000	
30	   H	5.426	0.244	-4.277	 H	1	UNK0	0.000	
31	   H	0.154	-0.985	-0.759	 H	1	UNK0	0.000	
32	   H	-1.586	0.437	-0.284	 H	1	UNK0	0.000	
33	   H	-0.365	0.319	1.093	 H	1	UNK0	0.000	
34	   H	-1.829	1.870	1.951	 H	1	UNK0	0.000	
35	   H	-3.214	1.166	1.011	 H	1	UNK0	0.000	
36	   H	-4.550	-0.730	2.609	 H	1	UNK0	0.000	
37	   H	-3.300	-1.809	3.363	 H	1	UNK0	0.000	
38	   H	-3.774	-1.018	0.345	 H	1	UNK0	0.000	
39	   H	-3.384	-2.572	1.144	 H	1	UNK0	0.000	
40	   H	1.143	0.114	5.299	 H	1	UNK0	0.000	
41	   H	-0.012	0.972	7.296	 H	1	UNK0	0.000	
42	   H	-2.454	1.328	7.151	 H	1	UNK0	0.000	
@<TRIPOS>BOND
1 1 2 1
2 2 3 2
3 2 7 1
4 3 4 1
5 4 5 2
6 4 8 1
7 5 6 1
8 6 7 2
9 8 9 1
10 8 12 1
11 9 10 2
12 10 11 1
13 11 12 2
14 11 13 1
15 13 14 2
16 13 15 1
17 15 16 1
18 15 20 1
19 16 17 1
20 17 18 1
21 18 19 1
22 18 21 1
23 19 20 1
24 21 22 2
25 21 26 1
26 22 23 1
27 23 24 2
28 24 25 1
29 25 26 2
30 3 27 1
31 5 28 1
32 6 29 1
33 7 30 1
34 12 31 1
35 16 32 1
36 16 33 1
37 17 34 1
38 17 35 1
39 19 36 1
40 19 37 1
41 20 38 1
42 20 39 1
43 23 40 1
44 24 41 1
45 25 42 1
@<TRIPOS>SUBSTRUCTURE
1	UNK0	1	GROUP	1 ****	UNK
# created with PyMOL 2.3.2
@<TRIPOS>MOLECULE
1971
33 36 1                 
SMALL
USER_CHARGES
@<TRIPOS>ATOM
1	  Cl	2.416	-0.673	-4.508	Cl	1	UNK0	0.000	
2	   C	1.398	0.429	-3.607	C.2	1	UNK0	0.000	
3	   C	0.662	0.008	-2.520	C.2	1	UNK0	0.000	
4	   C	-0.147	0.871	-1.798	C.2	1	UNK0	0.000	
5	   C	-0.188	2.186	-2.217	C.2	1	UNK0	0.000	
6	   C	0.553	2.611	-3.312	C.2	1	UNK0	0.000	
7	   C	1.357	1.744	-4.024	C.2	1	UNK0	0.000	
8	   N	-0.908	0.438	-0.677	N.pl3	1	UNK0	0.000	
9	   C	-0.872	0.940	0.672	C.2	1	UNK0	0.000	
10	   O	-0.065	1.804	1.089	O.2	1	UNK0	0.000	
11	   C	-1.911	0.291	1.467	C.3	1	UNK0	0.000	
12	   C	-1.422	-0.704	2.467	C.3	1	UNK0	0.000	
13	   O	-2.563	-1.540	2.565	O.3	1	UNK0	0.000	
14	   C	-2.579	-1.951	1.207	C.3	1	UNK0	0.000	
15	   C	-2.687	-0.621	0.503	C.3	1	UNK0	0.000	
16	   C	-1.868	-0.612	-0.711	C.2	1	UNK0	0.000	
17	   O	-1.981	-1.414	-1.670	O.2	1	UNK0	0.000	
18	   C	-1.190	-2.432	1.053	C.2	1	UNK0	0.000	
19	   C	-0.454	-1.660	1.885	C.2	1	UNK0	0.000	
20	   C	-1.031	-0.140	3.787	C.3	1	UNK0	0.000	
21	   O	-0.734	-1.177	4.662	O.3	1	UNK0	0.000	
22	   H	0.690	-1.028	-2.183	 H	1	UNK0	0.000	
23	   H	-0.818	2.880	-1.663	 H	1	UNK0	0.000	
24	   H	0.512	3.650	-3.629	 H	1	UNK0	0.000	
25	   H	1.928	2.096	-4.878	 H	1	UNK0	0.000	
26	   H	-2.597	0.989	1.976	 H	1	UNK0	0.000	
27	   H	-3.358	-2.658	0.984	 H	1	UNK0	0.000	
28	   H	-3.713	-0.279	0.354	 H	1	UNK0	0.000	
29	   H	-0.813	-3.216	0.432	 H	1	UNK0	0.000	
30	   H	0.608	-1.747	2.066	 H	1	UNK0	0.000	
31	   H	-1.928	0.398	4.190	 H	1	UNK0	0.000	
32	   H	-0.221	0.602	3.731	 H	1	UNK0	0.000	
33	   H	-0.878	-2.047	4.223	 H	1	UNK0	0.000	
@<TRIPOS>BOND
1 1 2 1
2 2 3 2
3 2 7 1
4 3 4 1
5 4 5 2
6 4 8 1
7 5 6 1
8 6 7 2
9 8 9 1
10 8 16 1
11 9 10 2
12 9 11 1
13 11 12 1
14 11 15 1
15 12 13 1
16 12 19 1
17 12 20 1
18 13 14 1
19 14 15 1
20 14 18 1
21 15 16 1
22 16 17 2
23 18 19 2
24 20 21 1
25 3 22 1
26 5 23 1
27 6 24 1
28 7 25 1
29 11 26 1
30 14 27 1
31 15 28 1
32 18 29 1
33 19 30 1
34 20 31 1
35 20 32 1
36 21 33 1
@<TRIPOS>SUBSTRUCTURE
1	UNK0	1	GROUP	1 ****	UNK
# created with PyMOL 2.3.2
@<TRIPOS>MOLECULE
1973
42 45 1                 
SMALL
USER_CHARGES
@<TRIPOS>ATOM
1	  Cl	4.827	5.287	-3.746	Cl	1	UNK0	0.000	
2	   C	3.616	4.736	-2.589	C.2	1	UNK0	0.000	
3	   C	3.747	3.545	-1.905	C.2	1	UNK0	0.000	
4	   N	2.828	3.105	-1.012	N.pl3	1	UNK0	0.000	
5	   C	1.717	3.813	-0.736	C.2	1	UNK0	0.000	
6	   N	0.784	3.388	0.156	N.2	1	UNK0	0.000	
7	   C	0.904	2.228	0.827	C.2	1	UNK0	0.000	
8	   C	2.047	1.484	0.553	C.2	1	UNK0	0.000	
9	   C	2.181	0.202	1.293	C.3	1	UNK0	0.000	
10	   N	0.861	-0.433	1.205	N.pl3	1	UNK0	0.000	
11	   C	-0.249	0.257	1.799	C.3	1	UNK0	0.000	
12	   C	-0.107	1.753	1.806	C.3	1	UNK0	0.000	
13	   C	0.702	-1.674	0.550	C.2	1	UNK0	0.000	
14	   O	1.750	-2.198	0.041	O.2	1	UNK0	0.000	
15	   C	-0.602	-2.365	0.441	C.3	1	UNK0	0.000	
16	   C	-1.139	-2.790	1.790	C.3	1	UNK0	0.000	
17	   C	0.057	-3.339	2.557	C.3	1	UNK0	0.000	
18	   O	0.890	-4.055	1.699	O.3	1	UNK0	0.000	
19	   C	0.161	-4.670	0.672	C.3	1	UNK0	0.000	
20	   C	-0.373	-3.670	-0.336	C.3	1	UNK0	0.000	
21	   C	2.976	1.940	-0.356	C.2	1	UNK0	0.000	
22	   O	4.014	1.240	-0.589	O.2	1	UNK0	0.000	
23	   C	1.566	5.012	-1.413	C.2	1	UNK0	0.000	
24	   C	2.487	5.482	-2.326	C.2	1	UNK0	0.000	
25	   H	4.630	2.940	-2.096	 H	1	UNK0	0.000	
26	   H	2.473	0.420	2.325	 H	1	UNK0	0.000	
27	   H	2.934	-0.465	0.850	 H	1	UNK0	0.000	
28	   H	-1.196	0.038	1.254	 H	1	UNK0	0.000	
29	   H	-0.335	-0.139	2.853	 H	1	UNK0	0.000	
30	   H	0.231	2.109	2.823	 H	1	UNK0	0.000	
31	   H	-1.060	2.274	1.576	 H	1	UNK0	0.000	
32	   H	-1.324	-1.717	-0.104	 H	1	UNK0	0.000	
33	   H	-1.797	-3.686	1.605	 H	1	UNK0	0.000	
34	   H	-1.691	-2.027	2.330	 H	1	UNK0	0.000	
35	   H	0.638	-2.475	2.920	 H	1	UNK0	0.000	
36	   H	-0.249	-3.929	3.439	 H	1	UNK0	0.000	
37	   H	0.872	-5.325	0.128	 H	1	UNK0	0.000	
38	   H	-0.635	-5.325	1.071	 H	1	UNK0	0.000	
39	   H	0.295	-3.517	-1.188	 H	1	UNK0	0.000	
40	   H	-1.391	-4.028	-0.615	 H	1	UNK0	0.000	
41	   H	0.667	5.591	-1.194	 H	1	UNK0	0.000	
42	   H	2.362	6.423	-2.852	 H	1	UNK0	0.000	
@<TRIPOS>BOND
1 1 2 1
2 2 3 2
3 2 24 1
4 3 4 1
5 4 5 1
6 4 21 1
7 5 6 2
8 5 23 1
9 6 7 1
10 7 8 2
11 7 12 1
12 8 9 1
13 8 21 1
14 9 10 1
15 10 11 1
16 10 13 1
17 11 12 1
18 13 14 2
19 13 15 1
20 15 16 1
21 15 20 1
22 16 17 1
23 17 18 1
24 18 19 1
25 19 20 1
26 21 22 2
27 23 24 2
28 3 25 1
29 9 26 1
30 9 27 1
31 11 28 1
32 11 29 1
33 12 30 1
34 12 31 1
35 15 32 1
36 16 33 1
37 16 34 1
38 17 35 1
39 17 36 1
40 19 37 1
41 19 38 1
42 20 39 1
43 20 40 1
44 23 41 1
45 24 42 1
@<TRIPOS>SUBSTRUCTURE
1	UNK0	1	GROUP	1 ****	UNK
# created with PyMOL 2.3.2
@<TRIPOS>MOLECULE
1974
41 44 1                 
SMALL
USER_CHARGES
@<TRIPOS>ATOM
1	   F	-0.140	0.282	4.345	 F	1	UNK0	0.000	
2	   C	-0.109	1.602	4.042	C.2	1	UNK0	0.000	
3	   C	-0.468	1.993	2.761	C.2	1	UNK0	0.000	
4	   C	-0.460	3.317	2.381	C.2	1	UNK0	0.000	
5	   C	-0.078	4.254	3.326	C.2	1	UNK0	0.000	
6	   C	0.278	3.868	4.597	C.2	1	UNK0	0.000	
7	   C	0.268	2.544	4.970	C.2	1	UNK0	0.000	
8	  Cl	-0.066	5.942	2.847	Cl	1	UNK0	0.000	
9	   C	-0.872	3.471	1.001	C.2	1	UNK0	0.000	
10	   O	-0.979	4.524	0.332	O.2	1	UNK0	0.000	
11	   C	-1.147	2.121	0.526	C.2	1	UNK0	0.000	
12	   O	-1.538	1.820	-0.645	O.2	1	UNK0	0.000	
13	   N	-0.896	1.238	1.608	N.pl3	1	UNK0	0.000	
14	   C	-1.032	-0.204	1.603	C.3	1	UNK0	0.000	
15	   N	0.181	-0.894	1.218	N.3	1	UNK0	0.000	
16	   C	-0.008	-2.304	1.226	C.3	1	UNK0	0.000	
17	   C	0.561	-3.036	0.062	C.3	1	UNK0	0.000	
18	   N	0.413	-2.339	-1.189	N.pl3	1	UNK0	0.000	
19	   C	0.115	-0.926	-1.160	C.3	1	UNK0	0.000	
20	   C	0.811	-0.359	0.059	C.3	1	UNK0	0.000	
21	   C	0.550	-2.986	-2.438	C.2	1	UNK0	0.000	
22	   N	0.407	-2.315	-3.593	N.2	1	UNK0	0.000	
23	   C	0.532	-2.909	-4.796	C.2	1	UNK0	0.000	
24	   C	0.818	-4.258	-4.883	C.2	1	UNK0	0.000	
25	   N	0.963	-4.934	-3.732	N.2	1	UNK0	0.000	
26	   C	0.838	-4.342	-2.529	C.2	1	UNK0	0.000	
27	   H	0.576	4.635	5.325	 H	1	UNK0	0.000	
28	   H	0.557	2.266	5.991	 H	1	UNK0	0.000	
29	   H	-1.395	-0.498	2.592	 H	1	UNK0	0.000	
30	   H	-1.819	-0.478	0.870	 H	1	UNK0	0.000	
31	   H	0.467	-2.709	2.157	 H	1	UNK0	0.000	
32	   H	-1.102	-2.541	1.348	 H	1	UNK0	0.000	
33	   H	1.611	-3.379	0.233	 H	1	UNK0	0.000	
34	   H	-0.030	-3.993	-0.045	 H	1	UNK0	0.000	
35	   H	-0.988	-0.852	-0.966	 H	1	UNK0	0.000	
36	   H	0.408	-0.409	-2.089	 H	1	UNK0	0.000	
37	   H	0.859	0.726	0.099	 H	1	UNK0	0.000	
38	   H	1.884	-0.709	0.066	 H	1	UNK0	0.000	
39	   H	0.414	-2.357	-5.723	 H	1	UNK0	0.000	
40	   H	0.914	-4.711	-5.865	 H	1	UNK0	0.000	
41	   H	0.953	-4.881	-1.596	 H	1	UNK0	0.000	
@<TRIPOS>BOND
1 1 2 1
2 2 3 2
3 2 7 1
4 3 4 1
5 3 13 1
6 4 5 2
7 4 9 1
8 5 6 1
9 5 8 1
10 6 7 2
11 9 10 2
12 9 11 1
13 11 12 2
14 11 13 1
15 13 14 1
16 14 15 1
17 15 16 1
18 15 20 1
19 16 17 1
20 17 18 1
21 18 19 1
22 18 21 1
23 19 20 1
24 21 22 2
25 21 26 1
26 22 23 1
27 23 24 2
28 24 25 1
29 25 26 2
30 6 27 1
31 7 28 1
32 14 29 1
33 14 30 1
34 16 31 1
35 16 32 1
36 17 33 1
37 17 34 1
38 19 35 1
39 19 36 1
40 20 37 1
41 20 38 1
42 23 39 1
43 24 40 1
44 26 41 1
@<TRIPOS>SUBSTRUCTURE
1	UNK0	1	GROUP	1 ****	UNK
# created with PyMOL 2.3.2
@<TRIPOS>MOLECULE
1976
41 44 1                 
SMALL
USER_CHARGES
@<TRIPOS>ATOM
1	  Cl	3.561	0.358	-1.499	Cl	1	UNK0	0.000	
2	   C	2.840	1.422	-0.321	C.2	1	UNK0	0.000	
3	   C	3.292	2.720	-0.143	C.2	1	UNK0	0.000	
4	   C	2.732	3.576	0.787	C.2	1	UNK0	0.000	
5	   C	1.685	3.096	1.551	C.2	1	UNK0	0.000	
6	   C	1.247	1.799	1.360	C.2	1	UNK0	0.000	
7	   C	1.795	0.928	0.435	C.2	1	UNK0	0.000	
8	   C	1.273	-0.463	0.273	C.3	1	UNK0	0.000	
9	   C	0.424	-0.559	-0.958	C.2	1	UNK0	0.000	
10	   O	0.287	0.504	-1.658	O.2	1	UNK0	0.000	
11	   N	-0.198	-1.781	-1.326	N.pl3	1	UNK0	0.000	
12	   C	-0.007	-2.930	-0.513	C.3	1	UNK0	0.000	
13	   C	0.373	-4.101	-1.428	C.3	1	UNK0	0.000	
14	   C	-0.869	-4.275	-2.276	C.2	1	UNK0	0.000	
15	   C	-1.516	-3.159	-2.765	C.2	1	UNK0	0.000	
16	   N	-2.640	-3.338	-3.516	N.2	1	UNK0	0.000	
17	   C	-3.139	-4.552	-3.797	C.2	1	UNK0	0.000	
18	   N	-2.496	-5.629	-3.312	N.2	1	UNK0	0.000	
19	   C	-1.365	-5.516	-2.554	C.2	1	UNK0	0.000	
20	   O	-0.702	-6.622	-2.054	O.3	1	UNK0	0.000	
21	   C	-1.005	-1.800	-2.499	C.3	1	UNK0	0.000	
22	   O	1.126	3.951	2.478	O.3	1	UNK0	0.000	
23	   C	1.257	5.358	2.464	C.3	1	UNK0	0.000	
24	   C	2.369	5.864	1.615	C.3	1	UNK0	0.000	
25	   O	3.142	4.868	1.002	O.3	1	UNK0	0.000	
26	   H	4.105	3.115	-0.726	 H	1	UNK0	0.000	
27	   H	0.422	1.430	1.967	 H	1	UNK0	0.000	
28	   H	0.667	-0.678	1.180	 H	1	UNK0	0.000	
29	   H	2.068	-1.209	0.240	 H	1	UNK0	0.000	
30	   H	-0.953	-3.235	0.022	 H	1	UNK0	0.000	
31	   H	0.744	-2.802	0.290	 H	1	UNK0	0.000	
32	   H	0.606	-5.007	-0.868	 H	1	UNK0	0.000	
33	   H	1.230	-3.760	-2.040	 H	1	UNK0	0.000	
34	   H	-4.039	-4.678	-4.399	 H	1	UNK0	0.000	
35	   H	0.223	-6.825	-2.414	 H	1	UNK0	0.000	
36	   H	-0.441	-1.399	-3.387	 H	1	UNK0	0.000	
37	   H	-1.903	-1.139	-2.420	 H	1	UNK0	0.000	
38	   H	0.295	5.751	2.020	 H	1	UNK0	0.000	
39	   H	1.265	5.752	3.499	 H	1	UNK0	0.000	
40	   H	2.017	6.544	0.799	 H	1	UNK0	0.000	
41	   H	3.027	6.510	2.262	 H	1	UNK0	0.000	
@<TRIPOS>BOND
1 1 2 1
2 2 3 2
3 2 7 1
4 3 4 1
5 4 5 2
6 4 25 1
7 5 6 1
8 5 22 1
9 6 7 2
10 7 8 1
11 8 9 1
12 9 10 2
13 9 11 1
14 11 12 1
15 11 21 1
16 12 13 1
17 13 14 1
18 14 15 2
19 14 19 1
20 15 16 1
21 15 21 1
22 16 17 2
23 17 18 1
24 18 19 2
25 19 20 1
26 22 23 1
27 23 24 1
28 24 25 1
29 3 26 1
30 6 27 1
31 8 28 1
32 8 29 1
33 12 30 1
34 12 31 1
35 13 32 1
36 13 33 1
37 17 34 1
38 20 35 1
39 21 36 1
40 21 37 1
41 23 38 1
42 23 39 1
43 24 40 1
44 24 41 1
@<TRIPOS>SUBSTRUCTURE
1	UNK0	1	GROUP	1 ****	UNK
# created with PyMOL 2.3.2
@<TRIPOS>MOLECULE
1982
36 39 1                 
SMALL
USER_CHARGES
@<TRIPOS>ATOM
1	  Cl	2.892	4.327	1.869	Cl	1	UNK0	0.000	
2	   C	1.442	3.346	1.863	C.2	1	UNK0	0.000	
3	   C	1.324	2.195	1.112	C.2	1	UNK0	0.000	
4	   C	0.187	1.413	1.097	C.2	1	UNK0	0.000	
5	   C	-0.877	1.818	1.880	C.2	1	UNK0	0.000	
6	   C	-0.771	2.967	2.636	C.2	1	UNK0	0.000	
7	   C	0.366	3.749	2.650	C.2	1	UNK0	0.000	
8	   C	-2.106	0.995	1.881	C.2	1	UNK0	0.000	
9	   N	-3.203	1.139	2.497	N.2	1	UNK0	0.000	
10	   C	-4.166	0.095	2.217	C.3	1	UNK0	0.000	
11	   C	-3.475	-0.815	1.255	C.3	1	UNK0	0.000	
12	   N	-2.180	-0.183	1.090	N.pl3	1	UNK0	0.000	
13	   C	-1.036	-0.531	0.310	C.2	1	UNK0	0.000	
14	   N	-0.821	-1.569	-0.518	N.2	1	UNK0	0.000	
15	   N	0.390	-1.510	-1.045	N.pl3	1	UNK0	0.000	
16	   C	0.947	-0.390	-0.522	C.2	1	UNK0	0.000	
17	   O	2.105	-0.009	-0.799	O.2	1	UNK0	0.000	
18	   N	0.092	0.226	0.311	N.pl3	1	UNK0	0.000	
19	   C	0.989	-2.443	-1.980	C.3	1	UNK0	0.000	
20	   C	1.718	-3.544	-1.197	C.3	1	UNK0	0.000	
21	   C	2.340	-4.511	-2.136	C.2	1	UNK0	0.000	
22	   O	2.272	-4.428	-3.388	O.2	1	UNK0	0.000	
23	   N	3.059	-5.602	-1.584	N.pl3	1	UNK0	0.000	
24	   H	2.176	1.909	0.512	 H	1	UNK0	0.000	
25	   H	-1.620	3.256	3.237	 H	1	UNK0	0.000	
26	   H	0.452	4.654	3.243	 H	1	UNK0	0.000	
27	   H	-5.108	0.506	1.802	 H	1	UNK0	0.000	
28	   H	-4.366	-0.411	3.195	 H	1	UNK0	0.000	
29	   H	-4.017	-0.942	0.299	 H	1	UNK0	0.000	
30	   H	-3.343	-1.831	1.727	 H	1	UNK0	0.000	
31	   H	0.173	-2.970	-2.526	 H	1	UNK0	0.000	
32	   H	1.685	-1.958	-2.664	 H	1	UNK0	0.000	
33	   H	1.016	-4.074	-0.527	 H	1	UNK0	0.000	
34	   H	2.546	-3.110	-0.584	 H	1	UNK0	0.000	
35	   H	2.767	-6.106	-0.727	 H	1	UNK0	0.000	
36	   H	3.927	-5.907	-2.071	 H	1	UNK0	0.000	
@<TRIPOS>BOND
1 1 2 1
2 2 3 2
3 2 7 1
4 3 4 1
5 4 5 2
6 4 18 1
7 5 6 1
8 5 8 1
9 6 7 2
10 8 9 2
11 8 12 1
12 9 10 1
13 10 11 1
14 11 12 1
15 12 13 1
16 13 14 2
17 13 18 1
18 14 15 1
19 15 16 1
20 15 19 1
21 16 17 2
22 16 18 1
23 19 20 1
24 20 21 1
25 21 22 2
26 21 23 1
27 3 24 1
28 6 25 1
29 7 26 1
30 10 27 1
31 10 28 1
32 11 29 1
33 11 30 1
34 19 31 1
35 19 32 1
36 20 33 1
37 20 34 1
38 23 35 1
39 23 36 1
@<TRIPOS>SUBSTRUCTURE
1	UNK0	1	GROUP	1 ****	UNK
# created with PyMOL 2.4.2
@<TRIPOS>MOLECULE
1986
46 49 1                 
SMALL
USER_CHARGES
@<TRIPOS>ATOM
1	  Cl	-2.367	4.508	-2.364	Cl	1	UNK0	0.000	
2	   C	-1.107	3.346	-1.987	C.2	1	UNK0	0.000	
3	   C	-1.000	2.799	-0.724	C.2	1	UNK0	0.000	
4	   C	0.006	1.872	-0.422	C.2	1	UNK0	0.000	
5	   C	0.866	1.543	-1.438	C.2	1	UNK0	0.000	
6	   C	0.754	2.101	-2.719	C.2	1	UNK0	0.000	
7	   C	-0.239	3.012	-3.006	C.2	1	UNK0	0.000	
8	   O	1.874	0.623	-1.164	O.3	1	UNK0	0.000	
9	   C	2.046	0.032	0.076	C.2	1	UNK0	0.000	
10	   C	1.176	0.366	1.102	C.2	1	UNK0	0.000	
11	   C	0.074	1.322	0.946	C.3	1	UNK0	0.000	
12	   C	-1.223	0.637	1.258	C.2	1	UNK0	0.000	
13	   C	-1.554	-0.557	0.656	C.2	1	UNK0	0.000	
14	   N	-2.735	-1.168	0.946	N.pl3	1	UNK0	0.000	
15	   C	-3.600	-0.609	1.829	C.2	1	UNK0	0.000	
16	   O	-4.687	-1.204	2.073	O.2	1	UNK0	0.000	
17	   N	-3.305	0.554	2.431	N.pl3	1	UNK0	0.000	
18	   C	-2.138	1.163	2.148	C.2	1	UNK0	0.000	
19	   O	-1.880	2.236	2.712	O.2	1	UNK0	0.000	
20	   C	-4.259	1.128	3.375	C.3	1	UNK0	0.000	
21	   C	-3.026	-2.432	0.277	C.3	1	UNK0	0.000	
22	   O	-0.685	-1.124	-0.234	O.2	1	UNK0	0.000	
23	   C	1.387	-0.251	2.319	C.2	1	UNK0	0.000	
24	   O	0.620	0.016	3.298	O.2	1	UNK0	0.000	
25	   N	2.367	-1.136	2.560	N.pl3	1	UNK0	0.000	
26	   C	3.193	-1.432	1.527	C.2	1	UNK0	0.000	
27	   O	4.106	-2.265	1.775	O.2	1	UNK0	0.000	
28	   N	3.025	-0.855	0.323	N.pl3	1	UNK0	0.000	
29	   C	3.950	-1.223	-0.730	C.3	1	UNK0	0.000	
30	   C	2.545	-1.763	3.870	C.3	1	UNK0	0.000	
31	   H	-1.695	3.074	0.069	 H	1	UNK0	0.000	
32	   H	1.472	1.791	-3.474	 H	1	UNK0	0.000	
33	   H	-0.309	3.431	-4.000	 H	1	UNK0	0.000	
34	   H	0.197	2.119	1.712	 H	1	UNK0	0.000	
35	   H	-4.098	2.191	3.550	 H	1	UNK0	0.000	
36	   H	-4.110	0.554	4.330	 H	1	UNK0	0.000	
37	   H	-5.286	0.874	3.030	 H	1	UNK0	0.000	
38	   H	-2.521	-2.418	-0.714	 H	1	UNK0	0.000	
39	   H	-2.567	-3.263	0.888	 H	1	UNK0	0.000	
40	   H	-4.116	-2.585	0.188	 H	1	UNK0	0.000	
41	   H	3.594	-2.178	-1.191	 H	1	UNK0	0.000	
42	   H	4.008	-0.458	-1.520	 H	1	UNK0	0.000	
43	   H	4.979	-1.360	-0.322	 H	1	UNK0	0.000	
44	   H	2.116	-2.798	3.748	 H	1	UNK0	0.000	
45	   H	3.583	-1.776	4.195	 H	1	UNK0	0.000	
46	   H	1.906	-1.256	4.596	 H	1	UNK0	0.000	
@<TRIPOS>BOND
1 1 2 1
2 2 3 2
3 2 7 1
4 3 4 1
5 3 31 1
6 4 5 2
7 4 11 1
8 5 6 1
9 5 8 1
10 6 7 2
11 6 32 1
12 7 33 1
13 8 9 1
14 9 10 2
15 9 28 1
16 10 11 1
17 10 23 1
18 11 12 1
19 11 34 1
20 12 13 2
21 12 18 1
22 13 14 1
23 13 22 1
24 14 15 1
25 14 21 1
26 15 16 2
27 15 17 1
28 17 18 1
29 17 20 1
30 18 19 2
31 20 35 1
32 20 36 1
33 20 37 1
34 21 38 1
35 21 39 1
36 21 40 1
37 23 24 2
38 23 25 1
39 25 26 1
40 25 30 1
41 26 27 2
42 26 28 1
43 28 29 1
44 29 41 1
45 29 42 1
46 29 43 1
47 30 44 1
48 30 45 1
49 30 46 1
@<TRIPOS>SUBSTRUCTURE
1	UNK0	1	GROUP	1 ****	UNK
# created with PyMOL 2.3.2
@<TRIPOS>MOLECULE
1991
57 60 1                 
SMALL
USER_CHARGES
@<TRIPOS>ATOM
1	  Cl	-2.015	-0.972	-6.797	Cl	1	UNK0	0.000	
2	   C	-0.985	-1.031	-5.387	C.2	1	UNK0	0.000	
3	   C	-1.515	-1.212	-4.129	C.2	1	UNK0	0.000	
4	   C	-0.692	-1.255	-3.034	C.2	1	UNK0	0.000	
5	   C	0.691	-1.115	-3.202	C.2	1	UNK0	0.000	
6	   C	1.233	-0.932	-4.464	C.2	1	UNK0	0.000	
7	   C	0.378	-0.894	-5.531	C.2	1	UNK0	0.000	
8	   O	1.652	-1.135	-2.203	O.3	1	UNK0	0.000	
9	   C	1.560	-1.727	-0.929	C.3	1	UNK0	0.000	
10	   C	0.525	-1.075	-0.071	C.3	1	UNK0	0.000	
11	   N	-0.692	-0.723	-0.738	N.pl3	1	UNK0	0.000	
12	   C	-1.409	-1.456	-1.749	C.3	1	UNK0	0.000	
13	   C	-1.313	0.523	-0.382	C.2	1	UNK0	0.000	
14	   O	-2.382	0.813	-0.974	O.2	1	UNK0	0.000	
15	   C	-0.731	1.413	0.621	C.3	1	UNK0	0.000	
16	   N	-1.423	2.613	0.919	N.3	1	UNK0	0.000	
17	   C	-0.670	3.462	1.846	C.3	1	UNK0	0.000	
18	   C	-0.480	2.714	3.112	C.3	1	UNK0	0.000	
19	   C	-1.683	2.031	3.671	C.3	1	UNK0	0.000	
20	   C	-2.860	1.902	2.787	C.3	1	UNK0	0.000	
21	   C	-2.767	2.468	1.421	C.3	1	UNK0	0.000	
22	   C	-1.334	0.726	4.284	C.2	1	UNK0	0.000	
23	   O	-1.856	-0.317	3.841	O.2	1	UNK0	0.000	
24	   N	-0.421	0.672	5.359	N.pl3	1	UNK0	0.000	
25	   C	1.339	-3.224	-1.079	C.3	1	UNK0	0.000	
26	   C	2.671	-3.953	-1.092	C.3	1	UNK0	0.000	
27	   O	3.327	-3.877	0.121	O.3	1	UNK0	0.000	
28	   C	2.981	-2.715	0.801	C.3	1	UNK0	0.000	
29	   C	2.898	-1.579	-0.200	C.3	1	UNK0	0.000	
30	   H	-2.580	-1.322	-3.987	 H	1	UNK0	0.000	
31	   H	2.304	-0.827	-4.547	 H	1	UNK0	0.000	
32	   H	0.764	-0.752	-6.537	 H	1	UNK0	0.000	
33	   H	0.285	-1.768	0.776	 H	1	UNK0	0.000	
34	   H	1.006	-0.177	0.398	 H	1	UNK0	0.000	
35	   H	-1.541	-2.529	-1.508	 H	1	UNK0	0.000	
36	   H	-2.439	-1.048	-1.888	 H	1	UNK0	0.000	
37	   H	0.282	1.719	0.221	 H	1	UNK0	0.000	
38	   H	-0.476	0.793	1.521	 H	1	UNK0	0.000	
39	   H	0.298	3.706	1.411	 H	1	UNK0	0.000	
40	   H	-1.310	4.351	2.047	 H	1	UNK0	0.000	
41	   H	0.321	1.930	2.994	 H	1	UNK0	0.000	
42	   H	-0.007	3.439	3.841	 H	1	UNK0	0.000	
43	   H	-1.997	2.671	4.556	 H	1	UNK0	0.000	
44	   H	-3.800	2.257	3.310	 H	1	UNK0	0.000	
45	   H	-3.074	0.797	2.654	 H	1	UNK0	0.000	
46	   H	-3.391	2.002	0.653	 H	1	UNK0	0.000	
47	   H	-3.163	3.528	1.490	 H	1	UNK0	0.000	
48	   H	0.546	0.301	5.122	 H	1	UNK0	0.000	
49	   H	-0.602	0.953	6.330	 H	1	UNK0	0.000	
50	   H	0.877	-3.424	-2.078	 H	1	UNK0	0.000	
51	   H	0.740	-3.639	-0.252	 H	1	UNK0	0.000	
52	   H	2.461	-5.026	-1.295	 H	1	UNK0	0.000	
53	   H	3.322	-3.551	-1.889	 H	1	UNK0	0.000	
54	   H	1.991	-2.907	1.277	 H	1	UNK0	0.000	
55	   H	3.694	-2.502	1.618	 H	1	UNK0	0.000	
56	   H	3.720	-1.743	-0.929	 H	1	UNK0	0.000	
57	   H	2.996	-0.590	0.267	 H	1	UNK0	0.000	
@<TRIPOS>BOND
1 1 2 1
2 2 3 2
3 2 7 1
4 3 4 1
5 4 5 2
6 4 12 1
7 5 6 1
8 5 8 1
9 6 7 2
10 8 9 1
11 9 10 1
12 9 25 1
13 9 29 1
14 10 11 1
15 11 12 1
16 11 13 1
17 13 14 2
18 13 15 1
19 15 16 1
20 16 17 1
21 16 21 1
22 17 18 1
23 18 19 1
24 19 20 1
25 19 22 1
26 20 21 1
27 22 23 2
28 22 24 1
29 25 26 1
30 26 27 1
31 27 28 1
32 28 29 1
33 3 30 1
34 6 31 1
35 7 32 1
36 10 33 1
37 10 34 1
38 12 35 1
39 12 36 1
40 15 37 1
41 15 38 1
42 17 39 1
43 17 40 1
44 18 41 1
45 18 42 1
46 19 43 1
47 20 44 1
48 20 45 1
49 21 46 1
50 21 47 1
51 24 48 1
52 24 49 1
53 25 50 1
54 25 51 1
55 26 52 1
56 26 53 1
57 28 54 1
58 28 55 1
59 29 56 1
60 29 57 1
@<TRIPOS>SUBSTRUCTURE
1	UNK0	1	GROUP	1 ****	UNK
# created with PyMOL 2.3.2
@<TRIPOS>MOLECULE
2003
43 46 1                 
SMALL
USER_CHARGES
@<TRIPOS>ATOM
1	   S	-2.205	-1.793	2.604	S.O2	1	UNK0	0.000	
2	   O	-2.461	-3.251	2.626	O.2	1	UNK0	0.000	
3	   O	-1.766	-1.330	3.975	O.2	1	UNK0	0.000	
4	   N	-0.997	-1.399	1.485	N.3	1	UNK0	0.000	
5	   C	-0.648	-0.012	1.447	C.3	1	UNK0	0.000	
6	   C	0.633	0.261	0.704	C.3	1	UNK0	0.000	
7	   N	0.804	-0.610	-0.436	N.pl3	1	UNK0	0.000	
8	   C	-0.162	-1.600	-0.832	C.3	1	UNK0	0.000	
9	   C	-1.102	-2.042	0.224	C.3	1	UNK0	0.000	
10	   C	1.990	-0.479	-1.208	C.2	1	UNK0	0.000	
11	   O	2.200	-1.218	-2.227	O.2	1	UNK0	0.000	
12	   C	3.010	0.509	-0.857	C.2	1	UNK0	0.000	
13	   C	4.063	0.239	-0.006	C.2	1	UNK0	0.000	
14	   N	4.966	1.198	0.271	N.2	1	UNK0	0.000	
15	   C	4.908	2.440	-0.243	C.2	1	UNK0	0.000	
16	   N	3.888	2.719	-1.075	N.pl3	1	UNK0	0.000	
17	   C	3.813	3.958	-1.601	C.2	1	UNK0	0.000	
18	   C	4.742	4.937	-1.312	C.2	1	UNK0	0.000	
19	   C	5.801	4.682	-0.462	C.2	1	UNK0	0.000	
20	   C	5.859	3.404	0.066	C.2	1	UNK0	0.000	
21	   C	2.964	1.787	-1.377	C.2	1	UNK0	0.000	
22	   O	2.012	2.047	-2.153	O.2	1	UNK0	0.000	
23	   C	-3.688	-0.927	2.168	C.2	1	UNK0	0.000	
24	   S	-3.966	0.750	2.042	S.3	1	UNK0	0.000	
25	   C	-5.609	0.718	1.587	C.2	1	UNK0	0.000	
26	   C	-5.893	-0.619	1.547	C.2	1	UNK0	0.000	
27	   C	-4.906	-1.469	1.846	C.2	1	UNK0	0.000	
28	  Cl	-6.716	2.062	1.240	Cl	1	UNK0	0.000	
29	   H	-1.458	0.539	0.926	 H	1	UNK0	0.000	
30	   H	-0.598	0.358	2.490	 H	1	UNK0	0.000	
31	   H	0.725	1.317	0.389	 H	1	UNK0	0.000	
32	   H	1.464	0.054	1.408	 H	1	UNK0	0.000	
33	   H	0.437	-2.500	-1.162	 H	1	UNK0	0.000	
34	   H	-0.690	-1.274	-1.765	 H	1	UNK0	0.000	
35	   H	-2.151	-1.863	-0.154	 H	1	UNK0	0.000	
36	   H	-1.053	-3.156	0.406	 H	1	UNK0	0.000	
37	   H	4.121	-0.757	0.415	 H	1	UNK0	0.000	
38	   H	2.986	4.177	-2.272	 H	1	UNK0	0.000	
39	   H	4.679	5.937	-1.738	 H	1	UNK0	0.000	
40	   H	6.548	5.425	-0.214	 H	1	UNK0	0.000	
41	   H	6.681	3.182	0.734	 H	1	UNK0	0.000	
42	   H	-6.915	-0.956	1.273	 H	1	UNK0	0.000	
43	   H	-5.013	-2.579	1.848	 H	1	UNK0	0.000	
@<TRIPOS>BOND
1 1 2 2
2 1 3 2
3 1 4 1
4 1 23 1
5 4 5 1
6 4 9 1
7 5 6 1
8 6 7 1
9 7 8 1
10 7 10 1
11 8 9 1
12 10 11 2
13 10 12 1
14 12 13 2
15 12 21 1
16 13 14 1
17 14 15 2
18 15 16 1
19 15 20 1
20 16 17 1
21 16 21 1
22 17 18 2
23 18 19 1
24 19 20 2
25 21 22 2
26 23 24 1
27 23 27 2
28 24 25 1
29 25 26 2
30 25 28 1
31 26 27 1
32 5 29 1
33 5 30 1
34 6 31 1
35 6 32 1
36 8 33 1
37 8 34 1
38 9 35 1
39 9 36 1
40 13 37 1
41 17 38 1
42 18 39 1
43 19 40 1
44 20 41 1
45 26 42 1
46 27 43 1
@<TRIPOS>SUBSTRUCTURE
1	UNK0	1	GROUP	1 ****	UNK
# created with PyMOL 2.3.2
@<TRIPOS>MOLECULE
2004
50 53 1                 
SMALL
USER_CHARGES
@<TRIPOS>ATOM
1	   S	-1.081	-2.143	1.584	S.O2	1	UNK0	0.000	
2	   O	-1.900	-2.524	2.808	O.2	1	UNK0	0.000	
3	   O	-0.157	-3.341	1.372	O.2	1	UNK0	0.000	
4	   N	-0.154	-0.778	1.865	N.3	1	UNK0	0.000	
5	   C	-0.811	0.424	2.138	C.3	1	UNK0	0.000	
6	   C	0.138	1.522	2.640	C.3	1	UNK0	0.000	
7	   N	1.396	1.484	1.956	N.pl3	1	UNK0	0.000	
8	   C	2.024	0.196	1.758	C.3	1	UNK0	0.000	
9	   C	1.016	-0.668	1.026	C.3	1	UNK0	0.000	
10	   C	1.991	2.665	1.497	C.2	1	UNK0	0.000	
11	   O	1.426	3.773	1.680	O.2	1	UNK0	0.000	
12	   C	3.304	2.675	0.778	C.3	1	UNK0	0.000	
13	   C	3.761	4.056	0.371	C.3	1	UNK0	0.000	
14	   C	3.038	3.832	-0.955	C.3	1	UNK0	0.000	
15	   C	3.145	2.329	-0.681	C.3	1	UNK0	0.000	
16	   C	-2.156	-2.092	0.204	C.2	1	UNK0	0.000	
17	   C	-1.791	-2.791	-0.964	C.2	1	UNK0	0.000	
18	   C	-2.565	-2.741	-2.101	C.2	1	UNK0	0.000	
19	   C	-3.731	-2.013	-2.171	C.2	1	UNK0	0.000	
20	   C	-4.092	-1.332	-1.035	C.2	1	UNK0	0.000	
21	   C	-3.318	-1.371	0.134	C.2	1	UNK0	0.000	
22	  Cl	-3.886	-0.538	1.561	Cl	1	UNK0	0.000	
23	   N	-4.480	-2.001	-3.372	N.pl3	1	UNK0	0.000	
24	   C	-4.073	-2.719	-4.530	C.2	1	UNK0	0.000	
25	   O	-4.799	-2.958	-5.514	O.2	1	UNK0	0.000	
26	   C	-2.669	-3.208	-4.536	C.3	1	UNK0	0.000	
27	   O	-2.181	-3.443	-3.244	O.3	1	UNK0	0.000	
28	   C	-1.757	-2.210	-5.213	C.3	1	UNK0	0.000	
29	   H	-1.508	0.284	2.988	 H	1	UNK0	0.000	
30	   H	-1.352	0.828	1.272	 H	1	UNK0	0.000	
31	   H	-0.354	2.491	2.468	 H	1	UNK0	0.000	
32	   H	0.339	1.342	3.714	 H	1	UNK0	0.000	
33	   H	2.985	0.263	1.227	 H	1	UNK0	0.000	
34	   H	2.179	-0.263	2.775	 H	1	UNK0	0.000	
35	   H	0.743	-0.178	0.068	 H	1	UNK0	0.000	
36	   H	1.421	-1.669	0.862	 H	1	UNK0	0.000	
37	   H	4.083	2.085	1.319	 H	1	UNK0	0.000	
38	   H	4.847	4.158	0.248	 H	1	UNK0	0.000	
39	   H	3.309	4.891	0.968	 H	1	UNK0	0.000	
40	   H	1.997	4.194	-0.945	 H	1	UNK0	0.000	
41	   H	3.586	4.182	-1.833	 H	1	UNK0	0.000	
42	   H	4.054	1.862	-1.118	 H	1	UNK0	0.000	
43	   H	2.240	1.766	-0.939	 H	1	UNK0	0.000	
44	   H	-0.882	-3.363	-0.923	 H	1	UNK0	0.000	
45	   H	-4.997	-0.748	-1.041	 H	1	UNK0	0.000	
46	   H	-5.366	-1.446	-3.419	 H	1	UNK0	0.000	
47	   H	-2.643	-4.150	-5.104	 H	1	UNK0	0.000	
48	   H	-2.398	-1.486	-5.793	 H	1	UNK0	0.000	
49	   H	-1.068	-2.742	-5.892	 H	1	UNK0	0.000	
50	   H	-1.207	-1.625	-4.452	 H	1	UNK0	0.000	
@<TRIPOS>BOND
1 1 2 2
2 1 3 2
3 1 4 1
4 1 16 1
5 4 5 1
6 4 9 1
7 5 6 1
8 6 7 1
9 7 8 1
10 7 10 1
11 8 9 1
12 10 11 2
13 10 12 1
14 12 13 1
15 12 15 1
16 13 14 1
17 14 15 1
18 16 17 2
19 16 21 1
20 17 18 1
21 18 19 2
22 18 27 1
23 19 20 1
24 19 23 1
25 20 21 2
26 21 22 1
27 23 24 1
28 24 25 2
29 24 26 1
30 26 27 1
31 26 28 1
32 5 29 1
33 5 30 1
34 6 31 1
35 6 32 1
36 8 33 1
37 8 34 1
38 9 35 1
39 9 36 1
40 12 37 1
41 13 38 1
42 13 39 1
43 14 40 1
44 14 41 1
45 15 42 1
46 15 43 1
47 17 44 1
48 20 45 1
49 23 46 1
50 26 47 1
51 28 48 1
52 28 49 1
53 28 50 1
@<TRIPOS>SUBSTRUCTURE
1	UNK0	1	GROUP	1 ****	UNK
# created with PyMOL 2.3.2
@<TRIPOS>MOLECULE
2012
37 40 1                 
SMALL
USER_CHARGES
@<TRIPOS>ATOM
1	  Cl	-4.841	5.088	-1.218	Cl	1	UNK0	0.000	
2	   C	-3.251	4.339	-1.332	C.2	1	UNK0	0.000	
3	   C	-3.132	2.961	-1.491	C.2	1	UNK0	0.000	
4	   C	-1.869	2.424	-1.579	C.2	1	UNK0	0.000	
5	   C	-0.731	3.243	-1.509	C.2	1	UNK0	0.000	
6	   C	-0.855	4.591	-1.353	C.2	1	UNK0	0.000	
7	   C	-2.126	5.134	-1.267	C.2	1	UNK0	0.000	
8	   N	-1.648	1.028	-1.739	N.pl3	1	UNK0	0.000	
9	   C	-2.240	0.080	-2.620	C.2	1	UNK0	0.000	
10	   O	-2.812	0.371	-3.684	O.2	1	UNK0	0.000	
11	   C	-2.064	-1.273	-2.066	C.3	1	UNK0	0.000	
12	   O	-1.847	-2.296	-2.932	O.3	1	UNK0	0.000	
13	   N	-0.969	-3.102	-2.231	N.pl3	1	UNK0	0.000	
14	   C	-0.057	-2.256	-1.526	C.2	1	UNK0	0.000	
15	   C	-0.720	-1.110	-1.419	C.2	1	UNK0	0.000	
16	   C	-0.677	0.273	-0.968	C.2	1	UNK0	0.000	
17	   O	0.089	0.687	-0.061	O.2	1	UNK0	0.000	
18	   C	1.255	-2.575	-0.999	C.2	1	UNK0	0.000	
19	   C	1.605	-2.290	0.324	C.2	1	UNK0	0.000	
20	   N	2.871	-2.672	0.547	N.pl3	1	UNK0	0.000	
21	   N	3.349	-3.192	-0.585	N.2	1	UNK0	0.000	
22	   C	2.380	-3.138	-1.528	C.2	1	UNK0	0.000	
23	   C	2.516	-3.601	-2.932	C.3	1	UNK0	0.000	
24	   C	3.660	-2.572	1.770	C.3	1	UNK0	0.000	
25	   H	-4.012	2.309	-1.549	 H	1	UNK0	0.000	
26	   H	0.253	2.775	-1.583	 H	1	UNK0	0.000	
27	   H	0.055	5.219	-1.298	 H	1	UNK0	0.000	
28	   H	-2.261	6.209	-1.139	 H	1	UNK0	0.000	
29	   H	-2.839	-1.482	-1.296	 H	1	UNK0	0.000	
30	   H	-1.007	-4.134	-2.236	 H	1	UNK0	0.000	
31	   H	0.974	-1.834	1.068	 H	1	UNK0	0.000	
32	   H	2.226	-4.654	-2.999	 H	1	UNK0	0.000	
33	   H	3.591	-3.557	-3.228	 H	1	UNK0	0.000	
34	   H	1.976	-2.950	-3.639	 H	1	UNK0	0.000	
35	   H	4.565	-1.948	1.605	 H	1	UNK0	0.000	
36	   H	3.089	-2.008	2.560	 H	1	UNK0	0.000	
37	   H	3.991	-3.562	2.136	 H	1	UNK0	0.000	
@<TRIPOS>BOND
1 1 2 1
2 2 3 2
3 2 7 1
4 3 4 1
5 4 5 2
6 4 8 1
7 5 6 1
8 6 7 2
9 8 9 1
10 8 16 1
11 9 10 2
12 9 11 1
13 11 12 1
14 11 15 1
15 12 13 1
16 13 14 1
17 14 15 2
18 14 18 1
19 15 16 1
20 16 17 2
21 18 19 2
22 18 22 1
23 19 20 1
24 20 21 1
25 20 24 1
26 21 22 2
27 22 23 1
28 3 25 1
29 5 26 1
30 6 27 1
31 7 28 1
32 11 29 1
33 13 30 1
34 19 31 1
35 23 32 1
36 23 33 1
37 23 34 1
38 24 35 1
39 24 36 1
40 24 37 1
@<TRIPOS>SUBSTRUCTURE
1	UNK0	1	GROUP	1 ****	UNK
# created with PyMOL 2.3.2
@<TRIPOS>MOLECULE
2014
41 44 1                 
SMALL
USER_CHARGES
@<TRIPOS>ATOM
1	  Br	0.241	5.619	-4.239	Br	1	UNK0	0.000	
2	   C	-0.661	4.185	-3.339	C.2	1	UNK0	0.000	
3	   C	0.019	3.056	-2.973	C.2	1	UNK0	0.000	
4	   C	-0.647	2.022	-2.320	C.2	1	UNK0	0.000	
5	   C	-1.992	2.204	-2.074	C.2	1	UNK0	0.000	
6	   C	-2.660	3.334	-2.443	C.2	1	UNK0	0.000	
7	   C	-2.010	4.370	-3.093	C.2	1	UNK0	0.000	
8	   O	-2.643	1.140	-1.411	O.3	1	UNK0	0.000	
9	   C	-4.023	1.212	-1.104	C.3	1	UNK0	0.000	
10	   C	0.045	0.779	-1.996	C.2	1	UNK0	0.000	
11	   N	0.530	0.277	-0.864	N.pl3	1	UNK0	0.000	
12	   C	1.103	-0.939	-1.102	C.2	1	UNK0	0.000	
13	   N	0.947	-1.149	-2.430	N.2	1	UNK0	0.000	
14	   N	0.322	-0.140	-2.973	N.2	1	UNK0	0.000	
15	   N	1.600	-1.458	0.031	N.pl3	1	UNK0	0.000	
16	   C	1.373	-0.611	1.028	C.2	1	UNK0	0.000	
17	   C	0.699	0.486	0.466	C.2	1	UNK0	0.000	
18	   N	0.349	1.516	1.247	N.pl3	1	UNK0	0.000	
19	   C	0.663	1.451	2.569	C.2	1	UNK0	0.000	
20	   O	0.317	2.441	3.286	O.2	1	UNK0	0.000	
21	   N	1.297	0.436	3.150	N.pl3	1	UNK0	0.000	
22	   C	1.650	-0.591	2.375	C.2	1	UNK0	0.000	
23	   O	2.252	-1.577	2.873	O.2	1	UNK0	0.000	
24	   C	1.599	0.443	4.592	C.3	1	UNK0	0.000	
25	   C	-0.307	2.683	0.733	C.3	1	UNK0	0.000	
26	   C	2.277	-2.731	0.172	C.3	1	UNK0	0.000	
27	   H	1.074	2.935	-3.177	 H	1	UNK0	0.000	
28	   H	-3.731	3.421	-2.220	 H	1	UNK0	0.000	
29	   H	-2.539	5.266	-3.385	 H	1	UNK0	0.000	
30	   H	-4.230	0.386	-0.384	 H	1	UNK0	0.000	
31	   H	-4.299	2.167	-0.631	 H	1	UNK0	0.000	
32	   H	-4.672	1.069	-1.971	 H	1	UNK0	0.000	
33	   H	2.445	1.089	4.832	 H	1	UNK0	0.000	
34	   H	0.670	0.826	5.098	 H	1	UNK0	0.000	
35	   H	1.703	-0.601	4.908	 H	1	UNK0	0.000	
36	   H	-0.274	3.463	1.583	 H	1	UNK0	0.000	
37	   H	-1.369	2.566	0.559	 H	1	UNK0	0.000	
38	   H	0.299	3.152	-0.031	 H	1	UNK0	0.000	
39	   H	3.123	-2.627	0.895	 H	1	UNK0	0.000	
40	   H	1.547	-3.460	0.579	 H	1	UNK0	0.000	
41	   H	2.740	-3.068	-0.780	 H	1	UNK0	0.000	
@<TRIPOS>BOND
1 1 2 1
2 2 3 2
3 2 7 1
4 3 4 1
5 4 5 2
6 4 10 1
7 5 6 1
8 5 8 1
9 6 7 2
10 8 9 1
11 10 11 1
12 10 14 2
13 11 12 1
14 11 17 1
15 12 13 2
16 12 15 1
17 13 14 1
18 15 16 1
19 15 26 1
20 16 17 2
21 16 22 1
22 17 18 1
23 18 19 1
24 18 25 1
25 19 20 2
26 19 21 1
27 21 22 1
28 21 24 1
29 22 23 2
30 3 27 1
31 6 28 1
32 7 29 1
33 9 30 1
34 9 31 1
35 9 32 1
36 24 33 1
37 24 34 1
38 24 35 1
39 25 36 1
40 25 37 1
41 25 38 1
42 26 39 1
43 26 40 1
44 26 41 1
@<TRIPOS>SUBSTRUCTURE
1	UNK0	1	GROUP	1 ****	UNK
# created with PyMOL 2.3.2
@<TRIPOS>MOLECULE
2017
40 43 1                 
SMALL
USER_CHARGES
@<TRIPOS>ATOM
1	  Cl	-4.247	2.742	-2.818	Cl	1	UNK0	0.000	
2	   C	-2.712	1.986	-2.425	C.2	1	UNK0	0.000	
3	   C	-2.064	2.208	-1.225	C.2	1	UNK0	0.000	
4	   N	-0.876	1.618	-0.931	N.pl3	1	UNK0	0.000	
5	   C	-0.254	0.783	-1.781	C.2	1	UNK0	0.000	
6	   N	0.923	0.194	-1.499	N.2	1	UNK0	0.000	
7	   C	1.561	0.405	-0.334	C.2	1	UNK0	0.000	
8	   C	0.922	1.270	0.556	C.2	1	UNK0	0.000	
9	   C	-0.283	1.868	0.256	C.2	1	UNK0	0.000	
10	   O	-0.861	2.657	1.071	O.2	1	UNK0	0.000	
11	   C	2.860	-0.222	0.023	C.3	1	UNK0	0.000	
12	   N	2.620	-1.407	0.760	N.3	1	UNK0	0.000	
13	   C	1.874	-2.434	0.136	C.3	1	UNK0	0.000	
14	   C	1.081	-3.306	1.097	C.3	1	UNK0	0.000	
15	   C	0.336	-2.368	1.978	C.2	1	UNK0	0.000	
16	   C	1.076	-1.338	2.520	C.2	1	UNK0	0.000	
17	   N	0.447	-0.465	3.321	N.2	1	UNK0	0.000	
18	   C	-0.889	-0.603	3.584	C.2	1	UNK0	0.000	
19	   N	-1.583	-1.627	3.033	N.2	1	UNK0	0.000	
20	   C	-1.008	-2.539	2.218	C.2	1	UNK0	0.000	
21	   C	-1.597	0.358	4.469	C.3	1	UNK0	0.000	
22	   C	2.517	-1.278	2.174	C.3	1	UNK0	0.000	
23	   C	-0.884	0.542	-2.995	C.2	1	UNK0	0.000	
24	   C	-2.091	1.132	-3.312	C.2	1	UNK0	0.000	
25	   H	-2.547	2.883	-0.515	 H	1	UNK0	0.000	
26	   H	1.405	1.462	1.499	 H	1	UNK0	0.000	
27	   H	3.374	-0.456	-0.938	 H	1	UNK0	0.000	
28	   H	3.444	0.518	0.592	 H	1	UNK0	0.000	
29	   H	2.476	-3.100	-0.518	 H	1	UNK0	0.000	
30	   H	1.087	-1.953	-0.515	 H	1	UNK0	0.000	
31	   H	1.848	-3.856	1.712	 H	1	UNK0	0.000	
32	   H	0.417	-3.971	0.550	 H	1	UNK0	0.000	
33	   H	-1.591	-3.345	1.795	 H	1	UNK0	0.000	
34	   H	-0.839	0.891	5.074	 H	1	UNK0	0.000	
35	   H	-2.111	1.089	3.794	 H	1	UNK0	0.000	
36	   H	-2.315	-0.160	5.133	 H	1	UNK0	0.000	
37	   H	3.094	-2.056	2.733	 H	1	UNK0	0.000	
38	   H	2.931	-0.289	2.463	 H	1	UNK0	0.000	
39	   H	-0.386	-0.135	-3.692	 H	1	UNK0	0.000	
40	   H	-2.580	0.936	-4.271	 H	1	UNK0	0.000	
@<TRIPOS>BOND
1 1 2 1
2 2 3 2
3 2 24 1
4 3 4 1
5 4 5 1
6 4 9 1
7 5 6 2
8 5 23 1
9 6 7 1
10 7 8 2
11 7 11 1
12 8 9 1
13 9 10 2
14 11 12 1
15 12 13 1
16 12 22 1
17 13 14 1
18 14 15 1
19 15 16 2
20 15 20 1
21 16 17 1
22 16 22 1
23 17 18 2
24 18 19 1
25 18 21 1
26 19 20 2
27 23 24 2
28 3 25 1
29 8 26 1
30 11 27 1
31 11 28 1
32 13 29 1
33 13 30 1
34 14 31 1
35 14 32 1
36 20 33 1
37 21 34 1
38 21 35 1
39 21 36 1
40 22 37 1
41 22 38 1
42 23 39 1
43 24 40 1
@<TRIPOS>SUBSTRUCTURE
1	UNK0	1	GROUP	1 ****	UNK
# created with PyMOL 2.3.2
@<TRIPOS>MOLECULE
2020
35 37 1                 
SMALL
USER_CHARGES
@<TRIPOS>ATOM
1	  Br	1.418	-3.047	-4.650	Br	1	UNK0	0.000	
2	   C	1.556	-1.505	-3.545	C.2	1	UNK0	0.000	
3	   C	1.241	-1.588	-2.187	C.2	1	UNK0	0.000	
4	   C	1.342	-0.470	-1.349	C.2	1	UNK0	0.000	
5	   C	1.766	0.701	-1.952	C.2	1	UNK0	0.000	
6	   C	2.074	0.762	-3.300	C.2	1	UNK0	0.000	
7	   C	1.969	-0.338	-4.104	C.2	1	UNK0	0.000	
8	   O	1.849	1.784	-1.124	O.3	1	UNK0	0.000	
9	   C	2.244	3.028	-1.636	C.3	1	UNK0	0.000	
10	   C	1.083	-0.686	0.070	C.3	1	UNK0	0.000	
11	   C	-0.158	-1.621	0.053	C.3	1	UNK0	0.000	
12	   C	-1.012	-0.808	-0.939	C.2	1	UNK0	0.000	
13	   O	-1.581	-1.293	-1.900	O.2	1	UNK0	0.000	
14	   N	-1.036	0.588	-0.563	N.pl3	1	UNK0	0.000	
15	   C	-0.667	0.836	0.843	C.3	1	UNK0	0.000	
16	   N	-1.447	-0.171	1.576	N.pl3	1	UNK0	0.000	
17	   C	-0.976	-1.505	1.299	C.2	1	UNK0	0.000	
18	   O	-1.222	-2.487	2.023	O.2	1	UNK0	0.000	
19	   C	0.810	0.380	0.990	C.3	1	UNK0	0.000	
20	   C	-0.868	2.206	1.321	C.3	1	UNK0	0.000	
21	   H	0.931	-2.562	-1.854	 H	1	UNK0	0.000	
22	   H	2.395	1.716	-3.670	 H	1	UNK0	0.000	
23	   H	2.229	-0.199	-5.169	 H	1	UNK0	0.000	
24	   H	3.145	2.932	-2.260	 H	1	UNK0	0.000	
25	   H	1.400	3.316	-2.349	 H	1	UNK0	0.000	
26	   H	2.311	3.818	-0.877	 H	1	UNK0	0.000	
27	   H	1.891	-1.370	0.439	 H	1	UNK0	0.000	
28	   H	0.011	-2.617	-0.248	 H	1	UNK0	0.000	
29	   H	-1.267	1.349	-1.207	 H	1	UNK0	0.000	
30	   H	-2.228	0.064	2.199	 H	1	UNK0	0.000	
31	   H	0.838	-0.065	2.037	 H	1	UNK0	0.000	
32	   H	1.504	1.209	1.091	 H	1	UNK0	0.000	
33	   H	-1.249	2.128	2.397	 H	1	UNK0	0.000	
34	   H	0.035	2.840	1.346	 H	1	UNK0	0.000	
35	   H	-1.633	2.733	0.757	 H	1	UNK0	0.000	
@<TRIPOS>BOND
1 1 2 1
2 2 3 2
3 2 7 1
4 3 4 1
5 4 5 2
6 4 10 1
7 5 6 1
8 5 8 1
9 6 7 2
10 8 9 1
11 10 11 1
12 10 19 1
13 11 12 1
14 11 17 1
15 12 13 2
16 12 14 1
17 14 15 1
18 15 16 1
19 15 19 1
20 15 20 1
21 16 17 1
22 17 18 2
23 3 21 1
24 6 22 1
25 7 23 1
26 9 24 1
27 9 25 1
28 9 26 1
29 10 27 1
30 11 28 1
31 14 29 1
32 16 30 1
33 19 31 1
34 19 32 1
35 20 33 1
36 20 34 1
37 20 35 1
@<TRIPOS>SUBSTRUCTURE
1	UNK0	1	GROUP	1 ****	UNK
# created with PyMOL 2.3.2
@<TRIPOS>MOLECULE
2028
50 53 1                 
SMALL
USER_CHARGES
@<TRIPOS>ATOM
1	  Cl	-3.911	-2.577	3.880	Cl	1	UNK0	0.000	
2	   C	-2.367	-1.879	3.398	C.2	1	UNK0	0.000	
3	   C	-1.998	-1.961	2.043	C.2	1	UNK0	0.000	
4	   C	-0.805	-1.415	1.673	C.2	1	UNK0	0.000	
5	   C	0.036	-0.800	2.590	C.2	1	UNK0	0.000	
6	   C	-0.351	-0.737	3.909	C.2	1	UNK0	0.000	
7	   C	-1.550	-1.271	4.325	C.2	1	UNK0	0.000	
8	   C	0.580	-0.065	4.882	C.3	1	UNK0	0.000	
9	   C	-0.716	-1.521	0.184	C.3	1	UNK0	0.000	
10	   N	0.569	-1.798	-0.321	N.3	1	UNK0	0.000	
11	   C	1.216	-0.533	-0.525	C.3	1	UNK0	0.000	
12	   C	0.226	0.549	-0.374	C.3	1	UNK0	0.000	
13	   C	-1.091	-0.226	-0.466	C.3	1	UNK0	0.000	
14	   C	-1.256	-0.318	-1.905	C.2	1	UNK0	0.000	
15	   O	-1.683	-1.213	-2.667	O.2	1	UNK0	0.000	
16	   N	-0.789	0.960	-2.412	N.pl3	1	UNK0	0.000	
17	   C	0.105	1.515	-1.459	C.2	1	UNK0	0.000	
18	   O	0.662	2.617	-1.559	O.2	1	UNK0	0.000	
19	   C	-1.144	1.606	-3.648	C.3	1	UNK0	0.000	
20	   C	-2.301	2.532	-3.582	C.3	1	UNK0	0.000	
21	   O	-3.509	2.017	-3.220	O.3	1	UNK0	0.000	
22	   C	-4.027	1.070	-4.079	C.3	1	UNK0	0.000	
23	   C	2.030	-0.505	-1.805	C.3	1	UNK0	0.000	
24	   O	1.318	-0.706	-2.950	O.3	1	UNK0	0.000	
25	   C	2.937	0.681	-1.787	C.3	1	UNK0	0.000	
26	   C	-1.739	-2.511	-0.145	C.2	1	UNK0	0.000	
27	   O	-1.924	-3.208	-1.192	O.2	1	UNK0	0.000	
28	   N	-2.612	-2.638	0.953	N.pl3	1	UNK0	0.000	
29	   H	1.002	-0.364	2.335	 H	1	UNK0	0.000	
30	   H	-1.832	-1.204	5.381	 H	1	UNK0	0.000	
31	   H	0.945	0.875	4.421	 H	1	UNK0	0.000	
32	   H	1.500	-0.699	5.039	 H	1	UNK0	0.000	
33	   H	0.084	0.165	5.828	 H	1	UNK0	0.000	
34	   H	1.132	-2.423	0.305	 H	1	UNK0	0.000	
35	   H	2.010	-0.387	0.275	 H	1	UNK0	0.000	
36	   H	0.196	1.026	0.636	 H	1	UNK0	0.000	
37	   H	-1.903	0.312	0.060	 H	1	UNK0	0.000	
38	   H	-0.269	2.190	-4.017	 H	1	UNK0	0.000	
39	   H	-1.313	0.819	-4.423	 H	1	UNK0	0.000	
40	   H	-2.426	2.970	-4.614	 H	1	UNK0	0.000	
41	   H	-2.058	3.421	-2.951	 H	1	UNK0	0.000	
42	   H	-3.378	0.201	-4.201	 H	1	UNK0	0.000	
43	   H	-4.997	0.730	-3.656	 H	1	UNK0	0.000	
44	   H	-4.187	1.578	-5.067	 H	1	UNK0	0.000	
45	   H	2.695	-1.427	-1.706	 H	1	UNK0	0.000	
46	   H	1.554	-0.098	-3.696	 H	1	UNK0	0.000	
47	   H	4.009	0.328	-1.891	 H	1	UNK0	0.000	
48	   H	2.803	1.347	-2.667	 H	1	UNK0	0.000	
49	   H	2.865	1.184	-0.815	 H	1	UNK0	0.000	
50	   H	-3.543	-3.122	1.019	 H	1	UNK0	0.000	
@<TRIPOS>BOND
1 1 2 1
2 2 3 2
3 2 7 1
4 3 4 1
5 3 28 1
6 4 5 2
7 4 9 1
8 5 6 1
9 6 7 2
10 6 8 1
11 9 10 1
12 9 13 1
13 9 26 1
14 10 11 1
15 11 12 1
16 11 23 1
17 12 13 1
18 12 17 1
19 13 14 1
20 14 15 2
21 14 16 1
22 16 17 1
23 16 19 1
24 17 18 2
25 19 20 1
26 20 21 1
27 21 22 1
28 23 24 1
29 23 25 1
30 26 27 2
31 26 28 1
32 5 29 1
33 7 30 1
34 8 31 1
35 8 32 1
36 8 33 1
37 10 34 1
38 11 35 1
39 12 36 1
40 13 37 1
41 19 38 1
42 19 39 1
43 20 40 1
44 20 41 1
45 22 42 1
46 22 43 1
47 22 44 1
48 23 45 1
49 24 46 1
50 25 47 1
51 25 48 1
52 25 49 1
53 28 50 1
@<TRIPOS>SUBSTRUCTURE
1	UNK0	1	GROUP	1 ****	UNK
# created with PyMOL 2.3.2
@<TRIPOS>MOLECULE
2032
55 58 1                 
SMALL
USER_CHARGES
@<TRIPOS>ATOM
1	  Br	2.005	-3.825	5.738	Br	1	UNK0	0.000	
2	   C	1.277	-2.205	5.069	C.2	1	UNK0	0.000	
3	   C	-0.073	-2.096	4.690	C.2	1	UNK0	0.000	
4	   C	-0.569	-0.914	4.205	C.2	1	UNK0	0.000	
5	   C	0.264	0.175	4.093	C.2	1	UNK0	0.000	
6	   C	1.610	0.064	4.473	C.2	1	UNK0	0.000	
7	   C	2.101	-1.108	4.950	C.2	1	UNK0	0.000	
8	   O	-0.283	1.314	3.612	O.3	1	UNK0	0.000	
9	   C	0.343	2.534	3.411	C.3	1	UNK0	0.000	
10	   C	-1.977	-0.798	3.853	C.2	1	UNK0	0.000	
11	   C	-2.472	-0.257	2.787	C.2	1	UNK0	0.000	
12	   O	-1.774	0.321	1.764	O.3	1	UNK0	0.000	
13	   C	-2.672	0.777	0.801	C.2	1	UNK0	0.000	
14	   C	-3.962	0.529	1.145	C.2	1	UNK0	0.000	
15	   C	-5.019	0.893	0.303	C.2	1	UNK0	0.000	
16	   C	-4.812	1.516	-0.900	C.2	1	UNK0	0.000	
17	   C	-3.461	1.756	-1.209	C.2	1	UNK0	0.000	
18	   C	-2.417	1.412	-0.420	C.2	1	UNK0	0.000	
19	   C	-1.003	1.708	-0.718	C.3	1	UNK0	0.000	
20	   N	-0.450	0.763	-1.659	N.4	1	UNK0	0.000	
21	   C	0.909	0.436	-1.266	C.3	1	UNK0	0.000	
22	   C	1.861	0.296	-2.377	C.3	1	UNK0	0.000	
23	   N	1.325	-0.178	-3.613	N.3	1	UNK0	0.000	
24	   C	-0.058	-0.280	-3.734	C.3	1	UNK0	0.000	
25	   C	-0.736	0.909	-3.003	C.3	1	UNK0	0.000	
26	   C	2.081	0.084	-4.778	C.3	1	UNK0	0.000	
27	   C	2.167	1.514	-5.181	C.3	1	UNK0	0.000	
28	   O	-3.303	2.414	-2.447	O.2	1	UNK0	0.000	
29	   C	-3.891	-0.149	2.444	C.2	1	UNK0	0.000	
30	   O	-4.872	-0.561	3.129	O.2	1	UNK0	0.000	
31	   H	-0.656	-2.995	4.806	 H	1	UNK0	0.000	
32	   H	2.270	0.927	4.391	 H	1	UNK0	0.000	
33	   H	3.151	-1.138	5.234	 H	1	UNK0	0.000	
34	   H	0.228	2.906	2.355	 H	1	UNK0	0.000	
35	   H	1.430	2.573	3.597	 H	1	UNK0	0.000	
36	   H	-0.103	3.324	4.106	 H	1	UNK0	0.000	
37	   H	-2.745	-1.214	4.553	 H	1	UNK0	0.000	
38	   H	-6.011	0.642	0.673	 H	1	UNK0	0.000	
39	   H	-5.596	1.803	-1.560	 H	1	UNK0	0.000	
40	   H	-0.408	1.834	0.198	 H	1	UNK0	0.000	
41	   H	-1.003	2.753	-1.177	 H	1	UNK0	0.000	
42	   H	-1.006	-0.164	-1.362	 H	1	UNK0	0.000	
43	   H	0.910	-0.463	-0.600	 H	1	UNK0	0.000	
44	   H	1.264	1.257	-0.601	 H	1	UNK0	0.000	
45	   H	2.473	1.223	-2.496	 H	1	UNK0	0.000	
46	   H	2.627	-0.483	-2.061	 H	1	UNK0	0.000	
47	   H	-0.411	-0.383	-4.751	 H	1	UNK0	0.000	
48	   H	-0.444	-1.160	-3.147	 H	1	UNK0	0.000	
49	   H	-1.829	0.648	-3.185	 H	1	UNK0	0.000	
50	   H	-0.564	1.862	-3.472	 H	1	UNK0	0.000	
51	   H	3.132	-0.285	-4.589	 H	1	UNK0	0.000	
52	   H	1.665	-0.569	-5.594	 H	1	UNK0	0.000	
53	   H	1.463	2.175	-4.671	 H	1	UNK0	0.000	
54	   H	3.210	1.913	-5.071	 H	1	UNK0	0.000	
55	   H	1.919	1.570	-6.256	 H	1	UNK0	0.000	
@<TRIPOS>BOND
1 1 2 1
2 2 3 2
3 2 7 1
4 3 4 1
5 4 5 2
6 4 10 1
7 5 6 1
8 5 8 1
9 6 7 2
10 8 9 1
11 10 11 2
12 11 12 1
13 11 29 1
14 12 13 1
15 13 14 2
16 13 18 1
17 14 15 1
18 14 29 1
19 15 16 2
20 16 17 1
21 17 18 2
22 17 28 1
23 18 19 1
24 19 20 1
25 20 21 1
26 20 25 1
27 21 22 1
28 22 23 1
29 23 24 1
30 23 26 1
31 24 25 1
32 26 27 1
33 29 30 2
34 3 31 1
35 6 32 1
36 7 33 1
37 9 34 1
38 9 35 1
39 9 36 1
40 10 37 1
41 15 38 1
42 16 39 1
43 19 40 1
44 19 41 1
45 20 42 1
46 21 43 1
47 21 44 1
48 22 45 1
49 22 46 1
50 24 47 1
51 24 48 1
52 25 49 1
53 25 50 1
54 26 51 1
55 26 52 1
56 27 53 1
57 27 54 1
58 27 55 1
@<TRIPOS>SUBSTRUCTURE
1	UNK0	1	GROUP	1 ****	UNK
# created with PyMOL 2.3.2
@<TRIPOS>MOLECULE
2033
48 51 1                 
SMALL
USER_CHARGES
@<TRIPOS>ATOM
1	  Br	-6.609	-2.307	4.179	Br	1	UNK0	0.000	
2	   C	-5.139	-2.342	2.968	C.2	1	UNK0	0.000	
3	   C	-3.907	-2.859	3.248	C.2	1	UNK0	0.000	
4	   C	-2.859	-2.873	2.354	C.2	1	UNK0	0.000	
5	   C	-3.097	-2.320	1.092	C.2	1	UNK0	0.000	
6	   C	-4.311	-1.787	0.756	C.2	1	UNK0	0.000	
7	   C	-5.331	-1.801	1.700	C.2	1	UNK0	0.000	
8	   O	-2.064	-2.326	0.175	O.3	1	UNK0	0.000	
9	   C	-2.250	-1.786	-1.107	C.3	1	UNK0	0.000	
10	   C	-1.560	-3.443	2.669	C.2	1	UNK0	0.000	
11	   C	-0.398	-2.905	2.421	C.2	1	UNK0	0.000	
12	   O	-0.217	-1.676	1.806	O.3	1	UNK0	0.000	
13	   C	1.122	-1.360	1.671	C.2	1	UNK0	0.000	
14	   C	1.910	-2.363	2.188	C.2	1	UNK0	0.000	
15	   C	3.284	-2.251	2.155	C.2	1	UNK0	0.000	
16	   C	3.859	-1.128	1.599	C.2	1	UNK0	0.000	
17	   C	3.030	-0.116	1.076	C.2	1	UNK0	0.000	
18	   C	1.672	-0.204	1.099	C.2	1	UNK0	0.000	
19	   C	0.778	0.804	0.599	C.3	1	UNK0	0.000	
20	   N	1.227	1.996	0.005	N.4	1	UNK0	0.000	
21	   C	1.540	1.919	-1.396	C.3	1	UNK0	0.000	
22	   C	0.340	2.036	-2.303	C.3	1	UNK0	0.000	
23	   O	-0.869	2.074	-1.622	O.3	1	UNK0	0.000	
24	   C	-0.807	3.176	-0.776	C.3	1	UNK0	0.000	
25	   C	0.298	3.119	0.227	C.3	1	UNK0	0.000	
26	   O	3.753	0.963	0.543	O.2	1	UNK0	0.000	
27	   C	0.967	-3.373	2.680	C.2	1	UNK0	0.000	
28	   O	1.262	-4.457	3.230	O.2	1	UNK0	0.000	
29	   H	-3.760	-3.284	4.245	 H	1	UNK0	0.000	
30	   H	-4.547	-1.340	-0.216	 H	1	UNK0	0.000	
31	   H	-6.312	-1.376	1.442	 H	1	UNK0	0.000	
32	   H	-1.501	-2.242	-1.826	 H	1	UNK0	0.000	
33	   H	-2.021	-0.690	-1.082	 H	1	UNK0	0.000	
34	   H	-3.241	-2.016	-1.550	 H	1	UNK0	0.000	
35	   H	-1.541	-4.427	3.165	 H	1	UNK0	0.000	
36	   H	3.898	-3.050	2.569	 H	1	UNK0	0.000	
37	   H	4.926	-0.984	1.545	 H	1	UNK0	0.000	
38	   H	0.014	0.368	-0.138	 H	1	UNK0	0.000	
39	   H	0.048	1.146	1.429	 H	1	UNK0	0.000	
40	   H	2.085	2.320	0.497	 H	1	UNK0	0.000	
41	   H	2.181	2.826	-1.612	 H	1	UNK0	0.000	
42	   H	2.156	1.051	-1.629	 H	1	UNK0	0.000	
43	   H	0.367	2.969	-2.937	 H	1	UNK0	0.000	
44	   H	0.346	1.204	-3.035	 H	1	UNK0	0.000	
45	   H	-1.771	3.166	-0.185	 H	1	UNK0	0.000	
46	   H	-0.810	4.124	-1.387	 H	1	UNK0	0.000	
47	   H	-0.061	3.078	1.276	 H	1	UNK0	0.000	
48	   H	0.869	4.068	0.151	 H	1	UNK0	0.000	
@<TRIPOS>BOND
1 1 2 1
2 2 3 2
3 2 7 1
4 3 4 1
5 4 5 2
6 4 10 1
7 5 6 1
8 5 8 1
9 6 7 2
10 8 9 1
11 10 11 2
12 11 12 1
13 11 27 1
14 12 13 1
15 13 14 2
16 13 18 1
17 14 15 1
18 14 27 1
19 15 16 2
20 16 17 1
21 17 18 2
22 17 26 1
23 18 19 1
24 19 20 1
25 20 21 1
26 20 25 1
27 21 22 1
28 22 23 1
29 23 24 1
30 24 25 1
31 27 28 2
32 3 29 1
33 6 30 1
34 7 31 1
35 9 32 1
36 9 33 1
37 9 34 1
38 10 35 1
39 15 36 1
40 16 37 1
41 19 38 1
42 19 39 1
43 20 40 1
44 21 41 1
45 21 42 1
46 22 43 1
47 22 44 1
48 24 45 1
49 24 46 1
50 25 47 1
51 25 48 1
@<TRIPOS>SUBSTRUCTURE
1	UNK0	1	GROUP	1 ****	UNK
# created with PyMOL 2.3.2
@<TRIPOS>MOLECULE
2041
49 52 1                 
SMALL
USER_CHARGES
@<TRIPOS>ATOM
1	   S	2.645	-2.309	-0.801	S.O2	1	UNK0	0.000	
2	   O	2.258	-3.471	0.084	O.2	1	UNK0	0.000	
3	   O	3.250	-2.883	-2.037	O.2	1	UNK0	0.000	
4	   N	1.203	-1.432	-1.130	N.3	1	UNK0	0.000	
5	   C	1.493	-0.307	-1.996	C.3	1	UNK0	0.000	
6	   C	0.280	0.609	-2.099	C.3	1	UNK0	0.000	
7	   N	-0.025	1.096	-0.754	N.pl3	1	UNK0	0.000	
8	   C	0.676	0.431	0.304	C.3	1	UNK0	0.000	
9	   C	0.544	-1.053	0.083	C.3	1	UNK0	0.000	
10	   C	-0.934	2.147	-0.597	C.2	1	UNK0	0.000	
11	   O	-1.477	2.665	-1.656	O.2	1	UNK0	0.000	
12	   C	-1.386	2.786	0.643	C.3	1	UNK0	0.000	
13	   S	-3.103	2.492	1.046	S.3	1	UNK0	0.000	
14	   C	-3.469	0.806	1.500	C.2	1	UNK0	0.000	
15	   N	-3.395	0.400	2.761	N.2	1	UNK0	0.000	
16	   C	-3.676	-0.845	3.155	C.2	1	UNK0	0.000	
17	   N	-4.060	-1.752	2.204	N.2	1	UNK0	0.000	
18	   C	-4.144	-1.375	0.924	C.2	1	UNK0	0.000	
19	   N	-4.504	-2.067	-0.196	N.pl3	1	UNK0	0.000	
20	   N	-4.437	-1.250	-1.227	N.2	1	UNK0	0.000	
21	   C	-4.045	-0.036	-0.834	C.2	1	UNK0	0.000	
22	   C	-3.852	-0.085	0.521	C.2	1	UNK0	0.000	
23	   C	-4.897	-3.445	-0.234	C.3	1	UNK0	0.000	
24	   C	3.783	-1.274	0.032	C.2	1	UNK0	0.000	
25	   C	4.670	-0.432	-0.599	C.2	1	UNK0	0.000	
26	   C	5.547	0.351	0.112	C.2	1	UNK0	0.000	
27	   C	5.552	0.306	1.506	C.2	1	UNK0	0.000	
28	   C	4.656	-0.546	2.161	C.2	1	UNK0	0.000	
29	   C	3.786	-1.321	1.426	C.2	1	UNK0	0.000	
30	  Cl	6.670	1.306	2.395	Cl	1	UNK0	0.000	
31	   H	1.691	-0.695	-3.004	 H	1	UNK0	0.000	
32	   H	2.358	0.271	-1.661	 H	1	UNK0	0.000	
33	   H	0.578	1.459	-2.747	 H	1	UNK0	0.000	
34	   H	-0.540	0.018	-2.516	 H	1	UNK0	0.000	
35	   H	0.369	0.742	1.320	 H	1	UNK0	0.000	
36	   H	1.754	0.741	0.238	 H	1	UNK0	0.000	
37	   H	0.830	-1.636	0.968	 H	1	UNK0	0.000	
38	   H	-0.569	-1.233	-0.033	 H	1	UNK0	0.000	
39	   H	-1.258	3.881	0.524	 H	1	UNK0	0.000	
40	   H	-0.788	2.521	1.541	 H	1	UNK0	0.000	
41	   H	-3.604	-1.129	4.190	 H	1	UNK0	0.000	
42	   H	-3.911	0.819	-1.458	 H	1	UNK0	0.000	
43	   H	-5.524	-3.742	0.652	 H	1	UNK0	0.000	
44	   H	-5.472	-3.630	-1.184	 H	1	UNK0	0.000	
45	   H	-3.980	-4.064	-0.239	 H	1	UNK0	0.000	
46	   H	4.664	-0.396	-1.673	 H	1	UNK0	0.000	
47	   H	6.250	1.023	-0.352	 H	1	UNK0	0.000	
48	   H	4.686	-0.562	3.250	 H	1	UNK0	0.000	
49	   H	3.102	-1.971	1.920	 H	1	UNK0	0.000	
@<TRIPOS>BOND
1 1 2 2
2 1 3 2
3 1 4 1
4 1 24 1
5 4 5 1
6 4 9 1
7 5 6 1
8 6 7 1
9 7 8 1
10 7 10 1
11 8 9 1
12 10 11 2
13 10 12 1
14 12 13 1
15 13 14 1
16 14 15 2
17 14 22 1
18 15 16 1
19 16 17 2
20 17 18 1
21 18 19 1
22 18 22 2
23 19 20 1
24 19 23 1
25 20 21 2
26 21 22 1
27 24 25 2
28 24 29 1
29 25 26 1
30 26 27 2
31 27 28 1
32 27 30 1
33 28 29 2
34 5 31 1
35 5 32 1
36 6 33 1
37 6 34 1
38 8 35 1
39 8 36 1
40 9 37 1
41 9 38 1
42 12 39 1
43 12 40 1
44 16 41 1
45 21 42 1
46 23 43 1
47 23 44 1
48 23 45 1
49 25 46 1
50 26 47 1
51 28 48 1
52 29 49 1
@<TRIPOS>SUBSTRUCTURE
1	UNK0	1	GROUP	1 ****	UNK
# created with PyMOL 2.3.2
@<TRIPOS>MOLECULE
2043
49 52 1                 
SMALL
USER_CHARGES
@<TRIPOS>ATOM
1	   S	-0.624	2.246	-4.276	S.O2	1	UNK0	0.000	
2	   O	-0.264	3.594	-4.887	O.2	1	UNK0	0.000	
3	   O	-1.760	1.722	-5.147	O.2	1	UNK0	0.000	
4	   N	0.697	1.227	-4.469	N.3	1	UNK0	0.000	
5	   C	0.477	-0.151	-4.105	C.3	1	UNK0	0.000	
6	   C	1.502	-0.521	-3.035	C.3	1	UNK0	0.000	
7	   N	1.632	0.545	-2.115	N.pl3	1	UNK0	0.000	
8	   C	2.428	1.690	-2.745	C.3	1	UNK0	0.000	
9	   C	1.976	1.750	-4.160	C.3	1	UNK0	0.000	
10	   C	1.150	0.737	-0.853	C.2	1	UNK0	0.000	
11	   O	1.708	1.875	-0.314	O.2	1	UNK0	0.000	
12	   C	0.273	0.161	0.089	C.2	1	UNK0	0.000	
13	   C	-0.574	-0.806	0.218	C.2	1	UNK0	0.000	
14	   N	-0.891	-1.711	-0.806	N.pl3	1	UNK0	0.000	
15	   N	-1.768	-2.810	-0.667	N.pl3	1	UNK0	0.000	
16	   C	-2.380	-3.035	0.570	C.2	1	UNK0	0.000	
17	   O	-3.164	-4.010	0.708	O.2	1	UNK0	0.000	
18	   C	-2.087	-2.116	1.684	C.2	1	UNK0	0.000	
19	   C	-1.227	-1.043	1.541	C.2	1	UNK0	0.000	
20	   C	-1.012	-0.246	2.619	C.2	1	UNK0	0.000	
21	   C	-1.653	-0.522	3.831	C.2	1	UNK0	0.000	
22	   C	-2.508	-1.585	3.979	C.2	1	UNK0	0.000	
23	   C	-2.723	-2.391	2.882	C.2	1	UNK0	0.000	
24	   C	-1.219	2.406	-2.671	C.2	1	UNK0	0.000	
25	   C	-2.187	1.567	-2.179	C.2	1	UNK0	0.000	
26	   C	-2.650	1.715	-0.884	C.2	1	UNK0	0.000	
27	   C	-2.169	2.696	-0.046	C.2	1	UNK0	0.000	
28	   C	-1.192	3.547	-0.537	C.2	1	UNK0	0.000	
29	   C	-0.734	3.386	-1.843	C.2	1	UNK0	0.000	
30	  Cl	-2.790	2.842	1.586	Cl	1	UNK0	0.000	
31	   H	-0.549	-0.382	-3.797	 H	1	UNK0	0.000	
32	   H	0.711	-0.774	-4.990	 H	1	UNK0	0.000	
33	   H	2.490	-0.560	-3.644	 H	1	UNK0	0.000	
34	   H	1.417	-1.514	-2.637	 H	1	UNK0	0.000	
35	   H	3.468	1.331	-2.656	 H	1	UNK0	0.000	
36	   H	2.274	2.598	-2.146	 H	1	UNK0	0.000	
37	   H	2.730	1.178	-4.778	 H	1	UNK0	0.000	
38	   H	2.022	2.786	-4.567	 H	1	UNK0	0.000	
39	   H	0.336	0.765	1.081	 H	1	UNK0	0.000	
40	   H	-0.516	-1.588	-1.749	 H	1	UNK0	0.000	
41	   H	-1.929	-3.428	-1.517	 H	1	UNK0	0.000	
42	   H	-0.356	0.607	2.579	 H	1	UNK0	0.000	
43	   H	-1.453	0.135	4.656	 H	1	UNK0	0.000	
44	   H	-3.013	-1.812	4.914	 H	1	UNK0	0.000	
45	   H	-3.395	-3.255	2.940	 H	1	UNK0	0.000	
46	   H	-2.629	0.765	-2.757	 H	1	UNK0	0.000	
47	   H	-3.423	1.054	-0.473	 H	1	UNK0	0.000	
48	   H	-0.803	4.326	0.115	 H	1	UNK0	0.000	
49	   H	0.040	4.103	-2.148	 H	1	UNK0	0.000	
@<TRIPOS>BOND
1 1 2 2
2 1 3 2
3 1 4 1
4 1 24 1
5 4 5 1
6 4 9 1
7 5 6 1
8 6 7 1
9 7 8 1
10 7 10 1
11 8 9 1
12 10 11 2
13 10 12 1
14 12 13 2
15 13 14 1
16 13 19 1
17 14 15 1
18 15 16 1
19 16 17 2
20 16 18 1
21 18 19 2
22 18 23 1
23 19 20 1
24 20 21 2
25 21 22 1
26 22 23 2
27 24 25 2
28 24 29 1
29 25 26 1
30 26 27 2
31 27 28 1
32 27 30 1
33 28 29 2
34 5 31 1
35 5 32 1
36 6 33 1
37 6 34 1
38 8 35 1
39 8 36 1
40 9 37 1
41 9 38 1
42 12 39 1
43 14 40 1
44 15 41 1
45 20 42 1
46 21 43 1
47 22 44 1
48 23 45 1
49 25 46 1
50 26 47 1
51 28 48 1
52 29 49 1
@<TRIPOS>SUBSTRUCTURE
1	UNK0	1	GROUP	1 ****	UNK
# created with PyMOL 2.3.2
@<TRIPOS>MOLECULE
2046
44 47 1                 
SMALL
USER_CHARGES
@<TRIPOS>ATOM
1	  Cl	-0.829	4.018	2.193	Cl	1	UNK0	0.000	
2	   C	0.229	2.648	2.058	C.2	1	UNK0	0.000	
3	   C	0.681	2.217	0.837	C.2	1	UNK0	0.000	
4	   C	1.517	1.124	0.796	C.2	1	UNK0	0.000	
5	   C	1.925	0.439	1.920	C.2	1	UNK0	0.000	
6	   C	1.462	0.885	3.137	C.2	1	UNK0	0.000	
7	   C	0.624	1.978	3.188	C.2	1	UNK0	0.000	
8	   N	2.807	-0.709	1.846	N.pl3	1	UNK0	0.000	
9	   C	3.216	-1.110	0.545	C.3	1	UNK0	0.000	
10	   C	2.263	-1.834	-0.291	C.2	1	UNK0	0.000	
11	   O	2.726	-2.060	-1.496	O.2	1	UNK0	0.000	
12	   N	0.999	-2.311	-0.049	N.pl3	1	UNK0	0.000	
13	   C	0.309	-2.286	1.201	C.3	1	UNK0	0.000	
14	   C	-0.987	-1.501	1.019	C.3	1	UNK0	0.000	
15	   O	-1.740	-2.262	0.098	O.3	1	UNK0	0.000	
16	   C	-1.142	-2.158	-1.139	C.3	1	UNK0	0.000	
17	   C	0.206	-2.887	-1.157	C.3	1	UNK0	0.000	
18	   N	0.315	2.842	-0.368	N.pl3	1	UNK0	0.000	
19	   N	-0.756	2.539	-1.073	N.2	1	UNK0	0.000	
20	   N	-0.828	3.308	-2.143	N.2	1	UNK0	0.000	
21	   N	0.222	4.103	-2.100	N.2	1	UNK0	0.000	
22	   C	0.959	3.825	-0.983	C.2	1	UNK0	0.000	
23	   C	2.195	4.536	-0.660	C.3	1	UNK0	0.000	
24	   C	2.987	4.359	0.551	C.3	1	UNK0	0.000	
25	   C	3.483	3.664	-0.728	C.3	1	UNK0	0.000	
26	   H	1.894	0.758	-0.176	 H	1	UNK0	0.000	
27	   H	1.786	0.342	4.021	 H	1	UNK0	0.000	
28	   H	0.285	2.290	4.186	 H	1	UNK0	0.000	
29	   H	3.114	-1.200	2.691	 H	1	UNK0	0.000	
30	   H	4.099	-1.808	0.689	 H	1	UNK0	0.000	
31	   H	3.682	-0.255	-0.024	 H	1	UNK0	0.000	
32	   H	-0.082	-3.369	1.320	 H	1	UNK0	0.000	
33	   H	0.867	-2.059	2.093	 H	1	UNK0	0.000	
34	   H	-1.489	-1.389	1.981	 H	1	UNK0	0.000	
35	   H	-0.846	-0.526	0.556	 H	1	UNK0	0.000	
36	   H	-1.002	-1.088	-1.392	 H	1	UNK0	0.000	
37	   H	-1.785	-2.594	-1.914	 H	1	UNK0	0.000	
38	   H	0.691	-2.766	-2.122	 H	1	UNK0	0.000	
39	   H	-0.003	-3.932	-0.854	 H	1	UNK0	0.000	
40	   H	2.383	5.507	-1.222	 H	1	UNK0	0.000	
41	   H	3.599	5.239	0.916	 H	1	UNK0	0.000	
42	   H	2.823	3.643	1.352	 H	1	UNK0	0.000	
43	   H	4.394	4.114	-1.143	 H	1	UNK0	0.000	
44	   H	3.362	2.590	-0.847	 H	1	UNK0	0.000	
@<TRIPOS>BOND
1 1 2 1
2 2 3 2
3 2 7 1
4 3 4 1
5 3 18 1
6 4 5 2
7 5 6 1
8 5 8 1
9 6 7 2
10 8 9 1
11 9 10 1
12 10 11 2
13 10 12 1
14 12 13 1
15 12 17 1
16 13 14 1
17 14 15 1
18 15 16 1
19 16 17 1
20 18 19 1
21 18 22 1
22 19 20 2
23 20 21 1
24 21 22 2
25 22 23 1
26 23 24 1
27 23 25 1
28 24 25 1
29 4 26 1
30 6 27 1
31 7 28 1
32 8 29 1
33 9 30 1
34 9 31 1
35 13 32 1
36 13 33 1
37 14 34 1
38 14 35 1
39 16 36 1
40 16 37 1
41 17 38 1
42 17 39 1
43 23 40 1
44 24 41 1
45 24 42 1
46 25 43 1
47 25 44 1
@<TRIPOS>SUBSTRUCTURE
1	UNK0	1	GROUP	1 ****	UNK
# created with PyMOL 2.3.2
@<TRIPOS>MOLECULE
2063
49 52 1                 
SMALL
USER_CHARGES
@<TRIPOS>ATOM
1	  Br	-10.400	-1.497	-1.890	Br	1	UNK0	0.000	
2	   C	-8.529	-1.272	-1.562	C.2	1	UNK0	0.000	
3	   C	-7.972	-0.028	-1.376	C.2	1	UNK0	0.000	
4	   C	-6.614	0.147	-1.137	C.2	1	UNK0	0.000	
5	   C	-5.772	-0.944	-1.079	C.2	1	UNK0	0.000	
6	   C	-6.335	-2.195	-1.266	C.2	1	UNK0	0.000	
7	   C	-7.683	-2.370	-1.503	C.2	1	UNK0	0.000	
8	   C	-4.349	-0.835	-0.834	C.2	1	UNK0	0.000	
9	   C	-3.697	-1.676	0.063	C.2	1	UNK0	0.000	
10	   O	-2.409	-1.594	0.299	O.3	1	UNK0	0.000	
11	   C	-1.632	-0.716	-0.290	C.2	1	UNK0	0.000	
12	   C	-2.187	0.159	-1.194	C.2	1	UNK0	0.000	
13	   C	-1.337	1.061	-1.786	C.2	1	UNK0	0.000	
14	   C	0.007	1.120	-1.518	C.2	1	UNK0	0.000	
15	   C	0.596	0.233	-0.594	C.2	1	UNK0	0.000	
16	   C	-0.261	-0.667	-0.006	C.2	1	UNK0	0.000	
17	   O	1.951	0.325	-0.352	O.3	1	UNK0	0.000	
18	   C	2.679	-0.448	0.504	C.3	1	UNK0	0.000	
19	   O	3.333	0.302	1.518	O.3	1	UNK0	0.000	
20	   C	3.555	-0.587	2.547	C.3	1	UNK0	0.000	
21	   C	4.488	-1.708	2.209	C.3	1	UNK0	0.000	
22	   C	4.216	-2.293	0.844	C.3	1	UNK0	0.000	
23	   C	3.801	-1.231	-0.153	C.3	1	UNK0	0.000	
24	   O	3.372	-1.872	-1.309	O.3	1	UNK0	0.000	
25	   O	5.323	-3.016	0.419	O.3	1	UNK0	0.000	
26	   O	4.255	-2.735	3.138	O.3	1	UNK0	0.000	
27	   C	4.004	0.085	3.820	C.3	1	UNK0	0.000	
28	   O	5.195	0.787	3.649	O.3	1	UNK0	0.000	
29	   C	-3.537	0.100	-1.465	C.2	1	UNK0	0.000	
30	   O	-4.047	0.901	-2.293	O.2	1	UNK0	0.000	
31	   H	-8.620	0.845	-1.419	 H	1	UNK0	0.000	
32	   H	-6.176	1.116	-0.992	 H	1	UNK0	0.000	
33	   H	-5.670	-3.060	-1.220	 H	1	UNK0	0.000	
34	   H	-8.124	-3.350	-1.650	 H	1	UNK0	0.000	
35	   H	-4.338	-2.411	0.558	 H	1	UNK0	0.000	
36	   H	-1.793	1.748	-2.502	 H	1	UNK0	0.000	
37	   H	0.670	1.834	-1.989	 H	1	UNK0	0.000	
38	   H	0.126	-1.370	0.707	 H	1	UNK0	0.000	
39	   H	2.050	-1.196	1.014	 H	1	UNK0	0.000	
40	   H	2.559	-1.057	2.782	 H	1	UNK0	0.000	
41	   H	5.565	-1.421	2.314	 H	1	UNK0	0.000	
42	   H	3.359	-2.992	0.934	 H	1	UNK0	0.000	
43	   H	4.616	-0.508	-0.369	 H	1	UNK0	0.000	
44	   H	4.070	-1.846	-2.005	 H	1	UNK0	0.000	
45	   H	5.988	-3.161	1.160	 H	1	UNK0	0.000	
46	   H	3.284	-2.884	3.258	 H	1	UNK0	0.000	
47	   H	4.070	-0.635	4.660	 H	1	UNK0	0.000	
48	   H	3.248	0.849	4.148	 H	1	UNK0	0.000	
49	   H	5.318	1.313	4.500	 H	1	UNK0	0.000	
@<TRIPOS>BOND
1 1 2 1
2 2 3 2
3 2 7 1
4 3 4 1
5 4 5 2
6 5 6 1
7 5 8 1
8 6 7 2
9 8 9 2
10 8 29 1
11 9 10 1
12 10 11 1
13 11 12 2
14 11 16 1
15 12 13 1
16 12 29 1
17 13 14 2
18 14 15 1
19 15 16 2
20 15 17 1
21 17 18 1
22 18 19 1
23 18 23 1
24 19 20 1
25 20 21 1
26 20 27 1
27 21 22 1
28 21 26 1
29 22 23 1
30 22 25 1
31 23 24 1
32 27 28 1
33 29 30 2
34 3 31 1
35 4 32 1
36 6 33 1
37 7 34 1
38 9 35 1
39 13 36 1
40 14 37 1
41 16 38 1
42 18 39 1
43 20 40 1
44 21 41 1
45 22 42 1
46 23 43 1
47 24 44 1
48 25 45 1
49 26 46 1
50 27 47 1
51 27 48 1
52 28 49 1
@<TRIPOS>SUBSTRUCTURE
1	UNK0	1	GROUP	1 ****	UNK
# created with PyMOL 2.3.2
@<TRIPOS>MOLECULE
2072
45 48 1                 
SMALL
USER_CHARGES
@<TRIPOS>ATOM
1	   S	-2.629	-2.264	-0.303	S.O2	1	UNK0	0.000	
2	   O	-1.735	-1.887	0.857	O.2	1	UNK0	0.000	
3	   O	-3.975	-1.700	-0.041	O.2	1	UNK0	0.000	
4	   N	-1.939	-1.633	-1.750	N.3	1	UNK0	0.000	
5	   C	-0.643	-2.179	-1.926	C.3	1	UNK0	0.000	
6	   C	0.483	-1.222	-2.196	C.3	1	UNK0	0.000	
7	   N	0.225	0.007	-1.521	N.3	1	UNK0	0.000	
8	   C	-0.955	0.582	-2.166	C.3	1	UNK0	0.000	
9	   C	-2.132	-0.245	-1.806	C.3	1	UNK0	0.000	
10	   C	1.307	0.931	-1.507	C.3	1	UNK0	0.000	
11	   C	2.426	0.468	-0.638	C.3	1	UNK0	0.000	
12	   N	2.027	0.323	0.746	N.pl3	1	UNK0	0.000	
13	   N	2.009	1.268	1.685	N.2	1	UNK0	0.000	
14	   C	1.567	0.765	2.846	C.2	1	UNK0	0.000	
15	   N	1.299	-0.530	2.639	N.pl3	1	UNK0	0.000	
16	   C	0.831	-1.319	3.636	C.2	1	UNK0	0.000	
17	   C	0.606	-0.838	4.906	C.2	1	UNK0	0.000	
18	   C	0.874	0.495	5.148	C.2	1	UNK0	0.000	
19	   C	1.349	1.272	4.114	C.2	1	UNK0	0.000	
20	   C	1.589	-0.793	1.331	C.2	1	UNK0	0.000	
21	   O	1.437	-1.939	0.845	O.2	1	UNK0	0.000	
22	   C	-2.788	-4.023	-0.419	C.2	1	UNK0	0.000	
23	   S	-1.581	-5.204	-0.652	S.3	1	UNK0	0.000	
24	   C	-2.555	-6.600	-0.642	C.2	1	UNK0	0.000	
25	   C	-3.815	-6.098	-0.454	C.2	1	UNK0	0.000	
26	   C	-3.935	-4.770	-0.339	C.2	1	UNK0	0.000	
27	  Br	-2.045	-8.448	-0.842	Br	1	UNK0	0.000	
28	   H	-0.368	-2.717	-0.965	 H	1	UNK0	0.000	
29	   H	-0.706	-2.954	-2.751	 H	1	UNK0	0.000	
30	   H	1.415	-1.740	-1.888	 H	1	UNK0	0.000	
31	   H	0.475	-1.072	-3.317	 H	1	UNK0	0.000	
32	   H	-1.125	1.622	-1.859	 H	1	UNK0	0.000	
33	   H	-0.774	0.470	-3.261	 H	1	UNK0	0.000	
34	   H	-2.526	0.152	-0.826	 H	1	UNK0	0.000	
35	   H	-2.925	-0.038	-2.580	 H	1	UNK0	0.000	
36	   H	1.735	1.101	-2.543	 H	1	UNK0	0.000	
37	   H	0.925	1.922	-1.127	 H	1	UNK0	0.000	
38	   H	2.747	-0.556	-0.981	 H	1	UNK0	0.000	
39	   H	3.306	1.165	-0.670	 H	1	UNK0	0.000	
40	   H	0.621	-2.367	3.441	 H	1	UNK0	0.000	
41	   H	0.232	-1.453	5.712	 H	1	UNK0	0.000	
42	   H	0.701	0.890	6.149	 H	1	UNK0	0.000	
43	   H	1.555	2.309	4.315	 H	1	UNK0	0.000	
44	   H	-4.679	-6.797	-0.404	 H	1	UNK0	0.000	
45	   H	-4.920	-4.265	-0.184	 H	1	UNK0	0.000	
@<TRIPOS>BOND
1 1 2 2
2 1 3 2
3 1 4 1
4 1 22 1
5 4 5 1
6 4 9 1
7 5 6 1
8 6 7 1
9 7 8 1
10 7 10 1
11 8 9 1
12 10 11 1
13 11 12 1
14 12 13 1
15 12 20 1
16 13 14 2
17 14 15 1
18 14 19 1
19 15 16 1
20 15 20 1
21 16 17 2
22 17 18 1
23 18 19 2
24 20 21 2
25 22 23 1
26 22 26 2
27 23 24 1
28 24 25 2
29 24 27 1
30 25 26 1
31 5 28 1
32 5 29 1
33 6 30 1
34 6 31 1
35 8 32 1
36 8 33 1
37 9 34 1
38 9 35 1
39 10 36 1
40 10 37 1
41 11 38 1
42 11 39 1
43 16 40 1
44 17 41 1
45 18 42 1
46 19 43 1
47 25 44 1
48 26 45 1
@<TRIPOS>SUBSTRUCTURE
1	UNK0	1	GROUP	1 ****	UNK
# created with PyMOL 2.3.2
@<TRIPOS>MOLECULE
2079
52 55 1                 
SMALL
USER_CHARGES
@<TRIPOS>ATOM
1	  Cl	-5.292	3.449	-5.678	Cl	1	UNK0	0.000	
2	   C	-3.859	2.879	-4.788	C.2	1	UNK0	0.000	
3	   C	-2.966	1.954	-5.316	C.2	1	UNK0	0.000	
4	   C	-1.897	1.466	-4.586	C.2	1	UNK0	0.000	
5	   C	-1.690	1.904	-3.264	C.2	1	UNK0	0.000	
6	   C	-2.568	2.807	-2.781	C.2	1	UNK0	0.000	
7	   C	-3.645	3.308	-3.490	C.2	1	UNK0	0.000	
8	   C	-0.562	1.294	-2.532	C.2	1	UNK0	0.000	
9	   C	0.493	0.706	-3.191	C.2	1	UNK0	0.000	
10	   C	1.473	0.044	-2.438	C.2	1	UNK0	0.000	
11	   C	1.400	-0.022	-1.064	C.2	1	UNK0	0.000	
12	   C	2.322	-0.658	-0.232	C.2	1	UNK0	0.000	
13	   C	3.387	-1.271	-0.939	C.2	1	UNK0	0.000	
14	   C	3.494	-1.231	-2.326	C.2	1	UNK0	0.000	
15	   C	2.526	-0.571	-3.066	C.2	1	UNK0	0.000	
16	   O	4.406	-1.958	-0.309	O.2	1	UNK0	0.000	
17	   C	2.230	-0.905	1.164	C.3	1	UNK0	0.000	
18	   N	2.212	0.116	2.180	N.4	1	UNK0	0.000	
19	   C	0.825	0.575	2.471	C.3	1	UNK0	0.000	
20	   C	-0.102	-0.588	2.477	C.3	1	UNK0	0.000	
21	   N	0.190	-1.606	3.460	N.3	1	UNK0	0.000	
22	   C	1.573	-1.684	3.788	C.3	1	UNK0	0.000	
23	   C	2.469	-0.578	3.483	C.3	1	UNK0	0.000	
24	   C	-0.299	-2.914	2.998	C.3	1	UNK0	0.000	
25	   C	-1.806	-2.953	2.891	C.3	1	UNK0	0.000	
26	   O	-2.304	-2.016	1.998	O.3	1	UNK0	0.000	
27	   O	0.408	0.536	-0.497	O.3	1	UNK0	0.000	
28	   C	-0.575	1.186	-1.126	C.2	1	UNK0	0.000	
29	   O	-1.508	1.712	-0.508	O.co2	1	UNK0	0.000	
30	   H	-3.152	1.622	-6.322	 H	1	UNK0	0.000	
31	   H	-1.216	0.740	-5.014	 H	1	UNK0	0.000	
32	   H	-2.473	3.201	-1.775	 H	1	UNK0	0.000	
33	   H	-4.319	4.034	-3.061	 H	1	UNK0	0.000	
34	   H	0.597	0.737	-4.261	 H	1	UNK0	0.000	
35	   H	4.315	-1.648	-2.858	 H	1	UNK0	0.000	
36	   H	2.580	-0.575	-4.172	 H	1	UNK0	0.000	
37	   H	3.373	-1.280	1.390	 H	1	UNK0	0.000	
38	   H	1.755	-1.822	1.421	 H	1	UNK0	0.000	
39	   H	2.865	0.865	2.156	 H	1	UNK0	0.000	
40	   H	0.503	1.421	1.894	 H	1	UNK0	0.000	
41	   H	0.878	0.965	3.553	 H	1	UNK0	0.000	
42	   H	-0.211	-1.028	1.479	 H	1	UNK0	0.000	
43	   H	-1.110	-0.167	2.756	 H	1	UNK0	0.000	
44	   H	1.967	-2.650	3.396	 H	1	UNK0	0.000	
45	   H	1.634	-1.831	4.930	 H	1	UNK0	0.000	
46	   H	3.538	-0.892	3.452	 H	1	UNK0	0.000	
47	   H	2.326	0.219	4.278	 H	1	UNK0	0.000	
48	   H	0.047	-3.652	3.725	 H	1	UNK0	0.000	
49	   H	0.094	-3.196	2.000	 H	1	UNK0	0.000	
50	   H	-2.334	-2.990	3.836	 H	1	UNK0	0.000	
51	   H	-2.007	-3.984	2.432	 H	1	UNK0	0.000	
52	   H	-2.355	-2.448	1.087	 H	1	UNK0	0.000	
@<TRIPOS>BOND
1 1 2 1
2 2 3 2
3 2 7 1
4 3 4 1
5 4 5 2
6 5 6 1
7 5 8 1
8 6 7 2
9 8 9 2
10 8 28 1
11 9 10 1
12 10 11 2
13 10 15 1
14 11 12 1
15 11 27 1
16 12 13 2
17 12 17 1
18 13 14 1
19 13 16 1
20 14 15 2
21 17 18 1
22 18 19 1
23 18 23 1
24 19 20 1
25 20 21 1
26 21 22 1
27 21 24 1
28 22 23 1
29 24 25 1
30 25 26 1
31 27 28 1
32 28 29 2
33 3 30 1
34 4 31 1
35 6 32 1
36 7 33 1
37 9 34 1
38 14 35 1
39 15 36 1
40 17 37 1
41 17 38 1
42 18 39 1
43 19 40 1
44 19 41 1
45 20 42 1
46 20 43 1
47 22 44 1
48 22 45 1
49 23 46 1
50 23 47 1
51 24 48 1
52 24 49 1
53 25 50 1
54 25 51 1
55 26 52 1
@<TRIPOS>SUBSTRUCTURE
1	UNK0	1	GROUP	1 ****	UNK
# created with PyMOL 2.3.2
@<TRIPOS>MOLECULE
2087
54 57 1                 
SMALL
USER_CHARGES
@<TRIPOS>ATOM
1	  Br	-3.167	-1.796	-6.545	Br	1	UNK0	0.000	
2	   C	-2.395	-0.821	-5.099	C.2	1	UNK0	0.000	
3	   C	-2.499	-1.272	-3.802	C.2	1	UNK0	0.000	
4	   C	-1.929	-0.545	-2.756	C.2	1	UNK0	0.000	
5	   C	-1.270	0.615	-3.039	C.2	1	UNK0	0.000	
6	   C	-1.158	1.076	-4.319	C.2	1	UNK0	0.000	
7	   C	-1.718	0.361	-5.349	C.2	1	UNK0	0.000	
8	   C	-0.700	1.390	-1.865	C.3	1	UNK0	0.000	
9	   N	0.314	0.629	-1.181	N.pl3	1	UNK0	0.000	
10	   C	1.636	0.607	-1.551	C.2	1	UNK0	0.000	
11	   C	2.335	-0.241	-0.715	C.2	1	UNK0	0.000	
12	   N	1.428	-0.714	0.145	N.2	1	UNK0	0.000	
13	   C	0.194	-0.185	-0.132	C.2	1	UNK0	0.000	
14	   N	-0.919	-0.443	0.684	N.pl3	1	UNK0	0.000	
15	   C	-2.084	0.335	0.911	C.3	1	UNK0	0.000	
16	   C	-2.691	0.080	2.295	C.3	1	UNK0	0.000	
17	   N	-1.802	-0.402	3.270	N.3	1	UNK0	0.000	
18	   C	-0.955	-1.469	2.907	C.3	1	UNK0	0.000	
19	   C	-0.911	-1.737	1.420	C.3	1	UNK0	0.000	
20	   C	-1.460	0.397	4.373	C.3	1	UNK0	0.000	
21	   C	-0.622	1.579	4.121	C.2	1	UNK0	0.000	
22	   O	-0.336	2.414	5.020	O.co2	1	UNK0	0.000	
23	   O	-0.118	1.804	2.858	O.3	1	UNK0	0.000	
24	   C	0.684	2.911	2.550	C.3	1	UNK0	0.000	
25	   N	3.660	-0.430	-0.868	N.pl3	1	UNK0	0.000	
26	   C	4.285	0.229	-1.854	C.2	1	UNK0	0.000	
27	   O	5.521	0.045	-1.987	O.2	1	UNK0	0.000	
28	   N	3.643	1.060	-2.682	N.pl3	1	UNK0	0.000	
29	   C	2.299	1.276	-2.558	C.2	1	UNK0	0.000	
30	   O	1.727	2.064	-3.349	O.2	1	UNK0	0.000	
31	   C	4.355	-1.335	0.029	C.3	1	UNK0	0.000	
32	   H	-3.024	-2.200	-3.556	 H	1	UNK0	0.000	
33	   H	-2.036	-0.951	-1.742	 H	1	UNK0	0.000	
34	   H	-0.649	1.997	-4.534	 H	1	UNK0	0.000	
35	   H	-1.625	0.732	-6.358	 H	1	UNK0	0.000	
36	   H	-1.587	1.630	-1.283	 H	1	UNK0	0.000	
37	   H	-0.245	2.319	-2.301	 H	1	UNK0	0.000	
38	   H	-1.902	1.442	0.911	 H	1	UNK0	0.000	
39	   H	-2.877	0.023	0.205	 H	1	UNK0	0.000	
40	   H	-3.193	1.003	2.688	 H	1	UNK0	0.000	
41	   H	-3.539	-0.669	2.231	 H	1	UNK0	0.000	
42	   H	-1.359	-2.402	3.378	 H	1	UNK0	0.000	
43	   H	0.052	-1.324	3.330	 H	1	UNK0	0.000	
44	   H	-1.814	-2.270	1.060	 H	1	UNK0	0.000	
45	   H	-0.003	-2.312	1.201	 H	1	UNK0	0.000	
46	   H	-1.072	-0.226	5.216	 H	1	UNK0	0.000	
47	   H	-2.431	0.809	4.792	 H	1	UNK0	0.000	
48	   H	0.090	3.709	2.044	 H	1	UNK0	0.000	
49	   H	1.431	2.552	1.785	 H	1	UNK0	0.000	
50	   H	1.184	3.375	3.421	 H	1	UNK0	0.000	
51	   H	4.150	1.571	-3.449	 H	1	UNK0	0.000	
52	   H	4.245	-0.925	1.055	 H	1	UNK0	0.000	
53	   H	3.866	-2.342	0.040	 H	1	UNK0	0.000	
54	   H	5.392	-1.455	-0.306	 H	1	UNK0	0.000	
@<TRIPOS>BOND
1 1 2 1
2 2 3 2
3 2 7 1
4 3 4 1
5 4 5 2
6 5 6 1
7 5 8 1
8 6 7 2
9 8 9 1
10 9 10 1
11 9 13 1
12 10 11 2
13 10 29 1
14 11 12 1
15 11 25 1
16 12 13 2
17 13 14 1
18 14 15 1
19 14 19 1
20 15 16 1
21 16 17 1
22 17 18 1
23 17 20 1
24 18 19 1
25 20 21 1
26 21 22 2
27 21 23 1
28 23 24 1
29 25 26 1
30 25 31 1
31 26 27 2
32 26 28 1
33 28 29 1
34 29 30 2
35 3 32 1
36 4 33 1
37 6 34 1
38 7 35 1
39 8 36 1
40 8 37 1
41 15 38 1
42 15 39 1
43 16 40 1
44 16 41 1
45 18 42 1
46 18 43 1
47 19 44 1
48 19 45 1
49 20 46 1
50 20 47 1
51 24 48 1
52 24 49 1
53 24 50 1
54 28 51 1
55 31 52 1
56 31 53 1
57 31 54 1
@<TRIPOS>SUBSTRUCTURE
1	UNK0	1	GROUP	1 ****	UNK
# created with PyMOL 2.3.2
@<TRIPOS>MOLECULE
2091
48 51 1                 
SMALL
USER_CHARGES
@<TRIPOS>ATOM
1	  Br	-5.698	3.386	-2.816	Br	1	UNK0	0.000	
2	   C	-3.890	3.235	-2.232	C.2	1	UNK0	0.000	
3	   C	-3.398	3.980	-1.165	C.2	1	UNK0	0.000	
4	   C	-2.063	3.832	-0.793	C.2	1	UNK0	0.000	
5	   C	-1.198	2.990	-1.420	C.2	1	UNK0	0.000	
6	   C	-1.741	2.257	-2.493	C.2	1	UNK0	0.000	
7	   C	-3.051	2.371	-2.896	C.2	1	UNK0	0.000	
8	   C	0.208	2.815	-1.116	C.3	1	UNK0	0.000	
9	   N	0.562	1.918	-0.043	N.pl3	1	UNK0	0.000	
10	   C	0.778	2.247	1.239	C.2	1	UNK0	0.000	
11	   C	1.081	1.106	1.948	C.2	1	UNK0	0.000	
12	   N	1.040	0.114	1.072	N.2	1	UNK0	0.000	
13	   C	0.728	0.576	-0.147	C.2	1	UNK0	0.000	
14	   N	0.588	-0.193	-1.349	N.pl3	1	UNK0	0.000	
15	   C	-0.523	-1.115	-1.433	C.3	1	UNK0	0.000	
16	   C	0.047	-2.524	-1.505	C.3	1	UNK0	0.000	
17	   N	1.383	-2.558	-1.999	N.3	1	UNK0	0.000	
18	   C	1.731	-1.543	-2.937	C.3	1	UNK0	0.000	
19	   C	1.479	-0.130	-2.477	C.3	1	UNK0	0.000	
20	   C	2.397	-2.996	-1.117	C.3	1	UNK0	0.000	
21	   N	1.363	1.099	3.275	N.pl3	1	UNK0	0.000	
22	   C	1.341	2.284	3.906	C.2	1	UNK0	0.000	
23	   O	1.603	2.259	5.135	O.2	1	UNK0	0.000	
24	   N	1.056	3.433	3.269	N.pl3	1	UNK0	0.000	
25	   C	0.774	3.451	1.953	C.2	1	UNK0	0.000	
26	   O	0.510	4.492	1.336	O.2	1	UNK0	0.000	
27	   C	1.667	-0.152	3.937	C.3	1	UNK0	0.000	
28	   H	-4.048	4.659	-0.630	 H	1	UNK0	0.000	
29	   H	-1.753	4.430	0.022	 H	1	UNK0	0.000	
30	   H	-1.128	1.562	-3.058	 H	1	UNK0	0.000	
31	   H	-3.411	1.772	-3.740	 H	1	UNK0	0.000	
32	   H	0.723	2.403	-2.037	 H	1	UNK0	0.000	
33	   H	0.642	3.814	-0.866	 H	1	UNK0	0.000	
34	   H	-1.053	-0.902	-2.409	 H	1	UNK0	0.000	
35	   H	-1.276	-0.998	-0.642	 H	1	UNK0	0.000	
36	   H	0.038	-2.920	-0.470	 H	1	UNK0	0.000	
37	   H	-0.609	-3.171	-2.116	 H	1	UNK0	0.000	
38	   H	1.163	-1.730	-3.894	 H	1	UNK0	0.000	
39	   H	2.803	-1.644	-3.198	 H	1	UNK0	0.000	
40	   H	0.958	0.416	-3.315	 H	1	UNK0	0.000	
41	   H	2.446	0.359	-2.251	 H	1	UNK0	0.000	
42	   H	2.129	-3.006	-0.043	 H	1	UNK0	0.000	
43	   H	3.267	-2.302	-1.217	 H	1	UNK0	0.000	
44	   H	2.801	-4.012	-1.374	 H	1	UNK0	0.000	
45	   H	1.044	4.349	3.767	 H	1	UNK0	0.000	
46	   H	2.353	-0.002	4.804	 H	1	UNK0	0.000	
47	   H	1.998	-0.893	3.213	 H	1	UNK0	0.000	
48	   H	0.718	-0.517	4.391	 H	1	UNK0	0.000	
@<TRIPOS>BOND
1 1 2 1
2 2 3 2
3 2 7 1
4 3 4 1
5 4 5 2
6 5 6 1
7 5 8 1
8 6 7 2
9 8 9 1
10 9 10 1
11 9 13 1
12 10 11 2
13 10 25 1
14 11 12 1
15 11 21 1
16 12 13 2
17 13 14 1
18 14 15 1
19 14 19 1
20 15 16 1
21 16 17 1
22 17 18 1
23 17 20 1
24 18 19 1
25 21 22 1
26 21 27 1
27 22 23 2
28 22 24 1
29 24 25 1
30 25 26 2
31 3 28 1
32 4 29 1
33 6 30 1
34 7 31 1
35 8 32 1
36 8 33 1
37 15 34 1
38 15 35 1
39 16 36 1
40 16 37 1
41 18 38 1
42 18 39 1
43 19 40 1
44 19 41 1
45 20 42 1
46 20 43 1
47 20 44 1
48 24 45 1
49 27 46 1
50 27 47 1
51 27 48 1
@<TRIPOS>SUBSTRUCTURE
1	UNK0	1	GROUP	1 ****	UNK
# created with PyMOL 2.3.2
@<TRIPOS>MOLECULE
2103
43 46 1                 
SMALL
USER_CHARGES
@<TRIPOS>ATOM
1	  Br	-4.873	3.737	2.419	Br	1	UNK0	0.000	
2	   C	-5.092	2.400	1.073	C.2	1	UNK0	0.000	
3	   C	-6.333	2.036	0.656	C.2	1	UNK0	0.000	
4	   N	-6.501	1.105	-0.282	N.2	1	UNK0	0.000	
5	   C	-5.430	0.512	-0.829	C.2	1	UNK0	0.000	
6	   C	-4.137	0.845	-0.441	C.2	1	UNK0	0.000	
7	   C	-3.955	1.806	0.527	C.2	1	UNK0	0.000	
8	   C	-3.042	0.161	-1.087	C.2	1	UNK0	0.000	
9	   O	-3.209	-0.430	-2.167	O.2	1	UNK0	0.000	
10	   N	-1.696	0.147	-0.478	N.pl3	1	UNK0	0.000	
11	   C	-0.717	-0.544	-1.196	C.3	1	UNK0	0.000	
12	   C	0.692	-0.596	-0.869	C.2	1	UNK0	0.000	
13	   C	1.402	-1.488	-1.749	C.2	1	UNK0	0.000	
14	   C	2.726	-1.675	-1.590	C.2	1	UNK0	0.000	
15	   C	3.437	-1.012	-0.573	C.2	1	UNK0	0.000	
16	   C	2.776	-0.156	0.274	C.2	1	UNK0	0.000	
17	   C	1.396	0.049	0.116	C.2	1	UNK0	0.000	
18	   C	0.684	1.042	0.961	C.3	1	UNK0	0.000	
19	   C	1.612	2.041	1.644	C.3	1	UNK0	0.000	
20	   N	2.748	1.387	2.250	N.pl3	1	UNK0	0.000	
21	   C	3.472	0.524	1.362	C.2	1	UNK0	0.000	
22	   O	4.695	0.401	1.580	O.2	1	UNK0	0.000	
23	   C	3.121	1.586	3.634	C.3	1	UNK0	0.000	
24	   O	4.757	-1.253	-0.479	O.3	1	UNK0	0.000	
25	   O	3.137	-2.583	-2.578	O.3	1	UNK0	0.000	
26	   C	2.008	-3.159	-3.200	C.3	1	UNK0	0.000	
27	   O	0.974	-2.270	-2.826	O.3	1	UNK0	0.000	
28	   H	-7.254	2.484	1.065	 H	1	UNK0	0.000	
29	   H	-5.528	-0.251	-1.597	 H	1	UNK0	0.000	
30	   H	-2.967	2.089	0.847	 H	1	UNK0	0.000	
31	   H	-1.692	0.634	0.430	 H	1	UNK0	0.000	
32	   H	-1.105	-1.646	-1.290	 H	1	UNK0	0.000	
33	   H	-0.839	-0.263	-2.326	 H	1	UNK0	0.000	
34	   H	0.084	0.595	1.760	 H	1	UNK0	0.000	
35	   H	0.042	1.705	0.332	 H	1	UNK0	0.000	
36	   H	0.977	2.555	2.408	 H	1	UNK0	0.000	
37	   H	1.941	2.753	0.855	 H	1	UNK0	0.000	
38	   H	2.401	0.986	4.244	 H	1	UNK0	0.000	
39	   H	2.994	2.647	3.914	 H	1	UNK0	0.000	
40	   H	4.127	1.184	3.809	 H	1	UNK0	0.000	
41	   H	5.427	-0.918	0.124	 H	1	UNK0	0.000	
42	   H	2.126	-3.220	-4.302	 H	1	UNK0	0.000	
43	   H	1.879	-4.168	-2.777	 H	1	UNK0	0.000	
@<TRIPOS>BOND
1 1 2 1
2 2 3 2
3 2 7 1
4 3 4 1
5 4 5 2
6 5 6 1
7 6 7 2
8 6 8 1
9 8 9 2
10 8 10 1
11 10 11 1
12 11 12 1
13 12 13 2
14 12 17 1
15 13 14 1
16 13 27 1
17 14 15 2
18 14 25 1
19 15 16 1
20 15 24 1
21 16 17 2
22 16 21 1
23 17 18 1
24 18 19 1
25 19 20 1
26 20 21 1
27 20 23 1
28 21 22 2
29 25 26 1
30 26 27 1
31 3 28 1
32 5 29 1
33 7 30 1
34 10 31 1
35 11 32 1
36 11 33 1
37 18 34 1
38 18 35 1
39 19 36 1
40 19 37 1
41 23 38 1
42 23 39 1
43 23 40 1
44 24 41 1
45 26 42 1
46 26 43 1
@<TRIPOS>SUBSTRUCTURE
1	UNK0	1	GROUP	1 ****	UNK
# created with PyMOL 2.3.2
@<TRIPOS>MOLECULE
2105
38 41 1                 
SMALL
USER_CHARGES
@<TRIPOS>ATOM
1	  Cl	4.944	2.614	-1.732	Cl	1	UNK0	0.000	
2	   C	3.759	1.975	-0.612	C.2	1	UNK0	0.000	
3	   C	2.814	1.040	-1.035	C.2	1	UNK0	0.000	
4	   C	1.875	0.519	-0.195	C.2	1	UNK0	0.000	
5	   C	1.903	0.966	1.119	C.2	1	UNK0	0.000	
6	   C	2.829	1.888	1.556	C.2	1	UNK0	0.000	
7	   C	3.769	2.403	0.692	C.2	1	UNK0	0.000	
8	   C	1.033	-0.434	-0.947	C.3	1	UNK0	0.000	
9	   C	-0.396	0.046	-0.980	C.2	1	UNK0	0.000	
10	   C	-1.404	-0.667	-0.561	C.2	1	UNK0	0.000	
11	   N	-1.227	-1.978	-0.029	N.pl3	1	UNK0	0.000	
12	   C	0.085	-2.507	0.039	C.2	1	UNK0	0.000	
13	   C	1.108	-1.798	-0.381	C.2	1	UNK0	0.000	
14	   C	2.440	-2.380	-0.293	C.1	1	UNK0	0.000	
15	   N	3.505	-2.827	-0.226	N.1	1	UNK0	0.000	
16	   N	0.342	-3.815	0.559	N.pl3	1	UNK0	0.000	
17	   C	-2.647	0.110	-0.742	C.3	1	UNK0	0.000	
18	   O	-2.263	1.309	-1.292	O.3	1	UNK0	0.000	
19	   C	-0.898	1.327	-1.461	C.2	1	UNK0	0.000	
20	   O	-0.177	2.269	-1.943	O.co2	1	UNK0	0.000	
21	   C	-3.349	0.234	0.592	C.3	1	UNK0	0.000	
22	   C	-3.606	-0.573	-1.700	C.3	1	UNK0	0.000	
23	   C	1.587	-0.410	-2.321	C.2	1	UNK0	0.000	
24	   O	1.167	-1.088	-3.326	O.2	1	UNK0	0.000	
25	   N	2.666	0.497	-2.336	N.pl3	1	UNK0	0.000	
26	   H	1.186	0.589	1.827	 H	1	UNK0	0.000	
27	   H	2.858	2.245	2.586	 H	1	UNK0	0.000	
28	   H	4.508	3.128	1.005	 H	1	UNK0	0.000	
29	   H	-2.028	-2.553	0.308	 H	1	UNK0	0.000	
30	   H	-0.033	-4.101	1.473	 H	1	UNK0	0.000	
31	   H	0.910	-4.461	-0.002	 H	1	UNK0	0.000	
32	   H	-4.203	0.933	0.542	 H	1	UNK0	0.000	
33	   H	-2.662	0.412	1.426	 H	1	UNK0	0.000	
34	   H	-3.810	-0.778	0.788	 H	1	UNK0	0.000	
35	   H	-2.974	-0.887	-2.578	 H	1	UNK0	0.000	
36	   H	-4.332	0.196	-2.029	 H	1	UNK0	0.000	
37	   H	-4.150	-1.403	-1.245	 H	1	UNK0	0.000	
38	   H	3.249	0.709	-3.202	 H	1	UNK0	0.000	
@<TRIPOS>BOND
1 1 2 1
2 2 3 2
3 2 7 1
4 3 4 1
5 3 25 1
6 4 5 2
7 4 8 1
8 5 6 1
9 6 7 2
10 8 9 1
11 8 13 1
12 8 23 1
13 9 10 2
14 9 19 1
15 10 11 1
16 10 17 1
17 11 12 1
18 12 13 2
19 12 16 1
20 13 14 1
21 14 15 3
22 17 18 1
23 17 21 1
24 17 22 1
25 18 19 1
26 19 20 2
27 23 24 2
28 23 25 1
29 5 26 1
30 6 27 1
31 7 28 1
32 11 29 1
33 16 30 1
34 16 31 1
35 21 32 1
36 21 33 1
37 21 34 1
38 22 35 1
39 22 36 1
40 22 37 1
41 25 38 1
@<TRIPOS>SUBSTRUCTURE
1	UNK0	1	GROUP	1 ****	UNK
# created with PyMOL 2.3.2
@<TRIPOS>MOLECULE
2109
36 39 1                 
SMALL
USER_CHARGES
@<TRIPOS>ATOM
1	  Cl	1.054	-6.364	2.910	Cl	1	UNK0	0.000	
2	   C	0.761	-4.999	1.847	C.2	1	UNK0	0.000	
3	   C	1.411	-3.799	2.048	C.2	1	UNK0	0.000	
4	   C	1.173	-2.727	1.204	C.2	1	UNK0	0.000	
5	   C	0.298	-2.792	0.141	C.2	1	UNK0	0.000	
6	   C	-0.351	-4.003	-0.053	C.2	1	UNK0	0.000	
7	   C	-0.117	-5.076	0.786	C.2	1	UNK0	0.000	
8	   N	0.046	-1.692	-0.735	N.pl3	1	UNK0	0.000	
9	   C	-1.178	-1.358	-1.406	C.2	1	UNK0	0.000	
10	   O	-2.249	-2.013	-1.365	O.2	1	UNK0	0.000	
11	   C	-1.005	-0.105	-2.176	C.3	1	UNK0	0.000	
12	   O	-1.998	0.830	-1.906	O.3	1	UNK0	0.000	
13	   N	-1.862	1.222	-0.650	N.3	1	UNK0	0.000	
14	   C	-0.553	1.039	-0.200	C.3	1	UNK0	0.000	
15	   C	0.176	0.519	-1.440	C.3	1	UNK0	0.000	
16	   C	0.980	-0.686	-1.125	C.2	1	UNK0	0.000	
17	   O	2.235	-0.856	-1.170	O.2	1	UNK0	0.000	
18	   C	0.150	2.153	0.451	C.3	1	UNK0	0.000	
19	   C	-0.591	3.414	0.664	C.3	1	UNK0	0.000	
20	   C	-2.043	3.086	0.934	C.3	1	UNK0	0.000	
21	   C	-2.559	2.389	-0.298	C.3	1	UNK0	0.000	
22	   H	2.119	-3.694	2.881	 H	1	UNK0	0.000	
23	   H	1.678	-1.786	1.356	 H	1	UNK0	0.000	
24	   H	-1.042	-4.062	-0.889	 H	1	UNK0	0.000	
25	   H	-0.620	-6.016	0.637	 H	1	UNK0	0.000	
26	   H	-0.817	-0.247	-3.236	 H	1	UNK0	0.000	
27	   H	-0.557	0.160	0.514	 H	1	UNK0	0.000	
28	   H	0.692	1.282	-2.003	 H	1	UNK0	0.000	
29	   H	1.061	2.403	-0.172	 H	1	UNK0	0.000	
30	   H	0.603	1.849	1.442	 H	1	UNK0	0.000	
31	   H	-0.212	3.942	1.572	 H	1	UNK0	0.000	
32	   H	-0.572	4.120	-0.190	 H	1	UNK0	0.000	
33	   H	-2.585	4.047	1.033	 H	1	UNK0	0.000	
34	   H	-2.187	2.510	1.852	 H	1	UNK0	0.000	
35	   H	-2.600	3.147	-1.120	 H	1	UNK0	0.000	
36	   H	-3.635	2.128	-0.090	 H	1	UNK0	0.000	
@<TRIPOS>BOND
1 1 2 1
2 2 3 2
3 2 7 1
4 3 4 1
5 4 5 2
6 5 6 1
7 5 8 1
8 6 7 2
9 8 9 1
10 8 16 1
11 9 10 2
12 9 11 1
13 11 12 1
14 11 15 1
15 12 13 1
16 13 14 1
17 13 21 1
18 14 15 1
19 14 18 1
20 15 16 1
21 16 17 2
22 18 19 1
23 19 20 1
24 20 21 1
25 3 22 1
26 4 23 1
27 6 24 1
28 7 25 1
29 11 26 1
30 14 27 1
31 15 28 1
32 18 29 1
33 18 30 1
34 19 31 1
35 19 32 1
36 20 33 1
37 20 34 1
38 21 35 1
39 21 36 1
@<TRIPOS>SUBSTRUCTURE
1	UNK0	1	GROUP	1 ****	UNK
# created with PyMOL 2.3.2
@<TRIPOS>MOLECULE
2116
52 55 1                 
SMALL
USER_CHARGES
@<TRIPOS>ATOM
1	  Br	-1.621	6.228	-4.470	Br	1	UNK0	0.000	
2	   C	-0.502	4.724	-4.153	C.2	1	UNK0	0.000	
3	   C	0.798	4.763	-4.632	C.2	1	UNK0	0.000	
4	   C	1.590	3.656	-4.394	C.2	1	UNK0	0.000	
5	   C	1.105	2.569	-3.714	C.2	1	UNK0	0.000	
6	   C	-0.198	2.508	-3.221	C.2	1	UNK0	0.000	
7	   C	-0.973	3.620	-3.468	C.2	1	UNK0	0.000	
8	   C	-0.641	1.338	-2.491	C.2	1	UNK0	0.000	
9	   N	-1.838	1.234	-2.025	N.2	1	UNK0	0.000	
10	   N	-2.305	0.138	-1.319	N.pl3	1	UNK0	0.000	
11	   C	-1.484	-0.499	-0.348	C.2	1	UNK0	0.000	
12	   N	-0.952	-1.685	-0.597	N.2	1	UNK0	0.000	
13	   C	-0.142	-2.345	0.249	C.2	1	UNK0	0.000	
14	   N	0.131	-1.737	1.424	N.2	1	UNK0	0.000	
15	   C	-0.386	-0.519	1.738	C.2	1	UNK0	0.000	
16	   N	-1.196	0.086	0.834	N.2	1	UNK0	0.000	
17	   N	-0.080	0.111	2.961	N.pl3	1	UNK0	0.000	
18	   C	0.801	-0.503	3.921	C.3	1	UNK0	0.000	
19	   C	1.868	0.558	4.228	C.3	1	UNK0	0.000	
20	   O	1.241	1.731	4.596	O.3	1	UNK0	0.000	
21	   C	0.600	2.307	3.500	C.3	1	UNK0	0.000	
22	   C	-0.632	1.407	3.264	C.3	1	UNK0	0.000	
23	   N	0.416	-3.631	-0.068	N.pl3	1	UNK0	0.000	
24	   C	1.357	-4.273	0.805	C.3	1	UNK0	0.000	
25	   C	1.672	-5.689	0.517	C.3	1	UNK0	0.000	
26	   O	1.311	-6.114	-0.754	O.3	1	UNK0	0.000	
27	   C	0.008	-5.758	-1.074	C.3	1	UNK0	0.000	
28	   C	0.006	-4.264	-1.287	C.3	1	UNK0	0.000	
29	   O	1.912	1.451	-3.478	O.3	1	UNK0	0.000	
30	   O	1.301	5.862	-5.325	O.3	1	UNK0	0.000	
31	   H	2.613	3.704	-4.781	 H	1	UNK0	0.000	
32	   H	-2.005	3.586	-3.087	 H	1	UNK0	0.000	
33	   H	0.044	0.522	-2.327	 H	1	UNK0	0.000	
34	   H	-3.250	-0.223	-1.495	 H	1	UNK0	0.000	
35	   H	0.242	-0.736	4.850	 H	1	UNK0	0.000	
36	   H	1.297	-1.414	3.500	 H	1	UNK0	0.000	
37	   H	2.525	0.155	5.019	 H	1	UNK0	0.000	
38	   H	2.449	0.687	3.281	 H	1	UNK0	0.000	
39	   H	1.260	2.142	2.597	 H	1	UNK0	0.000	
40	   H	0.337	3.350	3.656	 H	1	UNK0	0.000	
41	   H	-1.123	1.326	4.277	 H	1	UNK0	0.000	
42	   H	-1.299	1.812	2.497	 H	1	UNK0	0.000	
43	   H	2.286	-3.638	0.798	 H	1	UNK0	0.000	
44	   H	0.919	-4.214	1.849	 H	1	UNK0	0.000	
45	   H	1.218	-6.363	1.288	 H	1	UNK0	0.000	
46	   H	2.780	-5.831	0.602	 H	1	UNK0	0.000	
47	   H	-0.289	-6.327	-1.959	 H	1	UNK0	0.000	
48	   H	-0.707	-5.941	-0.228	 H	1	UNK0	0.000	
49	   H	-1.054	-4.009	-1.552	 H	1	UNK0	0.000	
50	   H	0.636	-3.961	-2.150	 H	1	UNK0	0.000	
51	   H	2.866	1.465	-3.826	 H	1	UNK0	0.000	
52	   H	0.766	6.695	-5.519	 H	1	UNK0	0.000	
@<TRIPOS>BOND
1 1 2 1
2 2 3 2
3 2 7 1
4 3 4 1
5 3 30 1
6 4 5 2
7 5 6 1
8 5 29 1
9 6 7 2
10 6 8 1
11 8 9 2
12 9 10 1
13 10 11 1
14 11 12 2
15 11 16 1
16 12 13 1
17 13 14 2
18 13 23 1
19 14 15 1
20 15 16 2
21 15 17 1
22 17 18 1
23 17 22 1
24 18 19 1
25 19 20 1
26 20 21 1
27 21 22 1
28 23 24 1
29 23 28 1
30 24 25 1
31 25 26 1
32 26 27 1
33 27 28 1
34 4 31 1
35 7 32 1
36 8 33 1
37 10 34 1
38 18 35 1
39 18 36 1
40 19 37 1
41 19 38 1
42 21 39 1
43 21 40 1
44 22 41 1
45 22 42 1
46 24 43 1
47 24 44 1
48 25 45 1
49 25 46 1
50 27 47 1
51 27 48 1
52 28 49 1
53 28 50 1
54 29 51 1
55 30 52 1
@<TRIPOS>SUBSTRUCTURE
1	UNK0	1	GROUP	1 ****	UNK
# created with PyMOL 2.3.2
@<TRIPOS>MOLECULE
2121
56 59 1                 
SMALL
USER_CHARGES
@<TRIPOS>ATOM
1	  Cl	0.518	8.079	2.238	Cl	1	UNK0	0.000	
2	   C	0.910	6.360	2.144	C.2	1	UNK0	0.000	
3	   C	-0.109	5.470	2.032	C.2	1	UNK0	0.000	
4	   C	0.233	4.115	1.962	C.2	1	UNK0	0.000	
5	   C	1.515	3.689	2.002	C.2	1	UNK0	0.000	
6	   N	1.488	2.324	1.918	N.pl3	1	UNK0	0.000	
7	   C	0.233	1.878	1.827	C.2	1	UNK0	0.000	
8	   C	-0.584	3.007	1.853	C.2	1	UNK0	0.000	
9	   C	-0.279	0.537	1.751	C.2	1	UNK0	0.000	
10	   O	-1.610	0.492	1.605	O.2	1	UNK0	0.000	
11	   N	0.305	-0.711	1.795	N.pl3	1	UNK0	0.000	
12	   C	-0.707	-1.791	1.623	C.3	1	UNK0	0.000	
13	   C	-0.847	-2.105	0.146	C.3	1	UNK0	0.000	
14	   C	0.387	-1.649	-0.534	C.3	1	UNK0	0.000	
15	   C	1.595	-2.332	0.020	C.3	1	UNK0	0.000	
16	   C	2.440	-1.229	0.681	C.3	1	UNK0	0.000	
17	   C	1.694	-0.939	1.997	C.3	1	UNK0	0.000	
18	   O	2.336	-3.032	-0.930	O.3	1	UNK0	0.000	
19	   N	0.416	-1.668	-1.962	N.3	1	UNK0	0.000	
20	   C	0.573	-0.378	-2.585	C.3	1	UNK0	0.000	
21	   C	-0.580	0.512	-2.314	C.3	1	UNK0	0.000	
22	   N	-1.777	-0.206	-2.766	N.pl3	1	UNK0	0.000	
23	   C	-1.547	-1.500	-3.354	C.3	1	UNK0	0.000	
24	   C	-0.665	-2.410	-2.552	C.3	1	UNK0	0.000	
25	   C	-3.065	0.395	-2.627	C.2	1	UNK0	0.000	
26	   O	-4.070	-0.225	-2.999	O.2	1	UNK0	0.000	
27	   C	-3.151	1.766	-2.032	C.3	1	UNK0	0.000	
28	   C	2.531	4.599	2.115	C.2	1	UNK0	0.000	
29	   C	2.227	5.950	2.187	C.2	1	UNK0	0.000	
30	   H	-1.134	5.776	1.999	 H	1	UNK0	0.000	
31	   H	2.362	1.783	1.914	 H	1	UNK0	0.000	
32	   H	-1.653	2.986	1.794	 H	1	UNK0	0.000	
33	   H	-1.682	-1.467	1.993	 H	1	UNK0	0.000	
34	   H	-0.376	-2.642	2.237	 H	1	UNK0	0.000	
35	   H	-1.785	-1.711	-0.273	 H	1	UNK0	0.000	
36	   H	-0.940	-3.238	0.129	 H	1	UNK0	0.000	
37	   H	0.431	-0.520	-0.293	 H	1	UNK0	0.000	
38	   H	1.381	-3.056	0.851	 H	1	UNK0	0.000	
39	   H	3.454	-1.543	0.887	 H	1	UNK0	0.000	
40	   H	2.337	-0.343	0.013	 H	1	UNK0	0.000	
41	   H	2.258	-0.226	2.559	 H	1	UNK0	0.000	
42	   H	1.831	-1.929	2.579	 H	1	UNK0	0.000	
43	   H	1.661	-3.371	-1.603	 H	1	UNK0	0.000	
44	   H	0.657	-0.567	-3.689	 H	1	UNK0	0.000	
45	   H	1.549	0.058	-2.249	 H	1	UNK0	0.000	
46	   H	-0.637	0.823	-1.270	 H	1	UNK0	0.000	
47	   H	-0.465	1.406	-2.981	 H	1	UNK0	0.000	
48	   H	-1.111	-1.307	-4.370	 H	1	UNK0	0.000	
49	   H	-2.539	-2.015	-3.557	 H	1	UNK0	0.000	
50	   H	-0.220	-3.149	-3.265	 H	1	UNK0	0.000	
51	   H	-1.242	-3.019	-1.832	 H	1	UNK0	0.000	
52	   H	-2.158	2.092	-1.689	 H	1	UNK0	0.000	
53	   H	-3.548	2.458	-2.823	 H	1	UNK0	0.000	
54	   H	-3.863	1.740	-1.207	 H	1	UNK0	0.000	
55	   H	3.569	4.293	2.146	 H	1	UNK0	0.000	
56	   H	2.982	6.710	2.277	 H	1	UNK0	0.000	
@<TRIPOS>BOND
1 1 2 1
2 2 3 2
3 2 29 1
4 3 4 1
5 4 5 2
6 4 8 1
7 5 6 1
8 5 28 1
9 6 7 1
10 7 8 2
11 7 9 1
12 9 10 2
13 9 11 1
14 11 12 1
15 11 17 1
16 12 13 1
17 13 14 1
18 14 15 1
19 14 19 1
20 15 16 1
21 15 18 1
22 16 17 1
23 19 20 1
24 19 24 1
25 20 21 1
26 21 22 1
27 22 23 1
28 22 25 1
29 23 24 1
30 25 26 2
31 25 27 1
32 28 29 2
33 3 30 1
34 6 31 1
35 8 32 1
36 12 33 1
37 12 34 1
38 13 35 1
39 13 36 1
40 14 37 1
41 15 38 1
42 16 39 1
43 16 40 1
44 17 41 1
45 17 42 1
46 18 43 1
47 20 44 1
48 20 45 1
49 21 46 1
50 21 47 1
51 23 48 1
52 23 49 1
53 24 50 1
54 24 51 1
55 27 52 1
56 27 53 1
57 27 54 1
58 28 55 1
59 29 56 1
@<TRIPOS>SUBSTRUCTURE
1	UNK0	1	GROUP	1 ****	UNK
# created with PyMOL 2.3.2
@<TRIPOS>MOLECULE
2122
46 49 1                 
SMALL
USER_CHARGES
@<TRIPOS>ATOM
1	  Cl	-2.346	2.741	-5.332	Cl	1	UNK0	0.000	
2	   C	-2.610	3.623	-3.836	C.2	1	UNK0	0.000	
3	   C	-1.577	3.679	-2.905	C.2	1	UNK0	0.000	
4	   C	-1.790	4.378	-1.725	C.2	1	UNK0	0.000	
5	   C	-3.031	4.990	-1.533	C.2	1	UNK0	0.000	
6	   C	-4.034	4.925	-2.456	C.2	1	UNK0	0.000	
7	   C	-3.828	4.240	-3.614	C.2	1	UNK0	0.000	
8	   O	-2.933	5.551	-0.367	O.3	1	UNK0	0.000	
9	   C	-1.761	5.346	0.178	C.2	1	UNK0	0.000	
10	   O	-1.428	5.791	1.309	O.co2	1	UNK0	0.000	
11	   N	-1.015	4.606	-0.661	N.pl3	1	UNK0	0.000	
12	   C	0.330	4.189	-0.388	C.3	1	UNK0	0.000	
13	   C	0.338	2.844	0.250	C.2	1	UNK0	0.000	
14	   N	0.603	1.686	-0.379	N.2	1	UNK0	0.000	
15	   O	0.499	0.684	0.447	O.3	1	UNK0	0.000	
16	   C	0.167	1.182	1.621	C.2	1	UNK0	0.000	
17	   N	0.064	2.510	1.518	N.2	1	UNK0	0.000	
18	   C	-0.041	0.297	2.816	C.2	1	UNK0	0.000	
19	   O	-0.178	0.999	3.877	O.2	1	UNK0	0.000	
20	   N	-0.066	-1.041	2.677	N.pl3	1	UNK0	0.000	
21	   C	-0.095	-2.417	2.552	C.3	1	UNK0	0.000	
22	   C	0.115	-2.903	1.113	C.3	1	UNK0	0.000	
23	   N	1.337	-2.517	0.527	N.3	1	UNK0	0.000	
24	   C	1.454	-3.011	-0.789	C.3	1	UNK0	0.000	
25	   C	2.868	-3.195	-1.227	C.3	1	UNK0	0.000	
26	   O	3.614	-2.132	-0.787	O.3	1	UNK0	0.000	
27	   C	3.747	-2.069	0.587	C.3	1	UNK0	0.000	
28	   C	2.487	-2.408	1.327	C.3	1	UNK0	0.000	
29	   H	-0.624	3.221	-3.040	 H	1	UNK0	0.000	
30	   H	-4.984	5.424	-2.260	 H	1	UNK0	0.000	
31	   H	-4.631	4.188	-4.351	 H	1	UNK0	0.000	
32	   H	0.812	4.952	0.249	 H	1	UNK0	0.000	
33	   H	0.955	4.134	-1.307	 H	1	UNK0	0.000	
34	   H	-0.342	-1.166	4.015	 H	1	UNK0	0.000	
35	   H	-1.119	-2.827	2.808	 H	1	UNK0	0.000	
36	   H	0.627	-2.987	3.160	 H	1	UNK0	0.000	
37	   H	-0.706	-2.579	0.438	 H	1	UNK0	0.000	
38	   H	0.066	-4.006	1.160	 H	1	UNK0	0.000	
39	   H	0.863	-3.942	-0.927	 H	1	UNK0	0.000	
40	   H	1.000	-2.273	-1.518	 H	1	UNK0	0.000	
41	   H	3.297	-4.160	-0.893	 H	1	UNK0	0.000	
42	   H	2.934	-3.164	-2.358	 H	1	UNK0	0.000	
43	   H	4.132	-1.051	0.844	 H	1	UNK0	0.000	
44	   H	4.532	-2.789	0.884	 H	1	UNK0	0.000	
45	   H	2.382	-1.610	2.124	 H	1	UNK0	0.000	
46	   H	2.613	-3.355	1.887	 H	1	UNK0	0.000	
@<TRIPOS>BOND
1 1 2 1
2 2 3 2
3 2 7 1
4 3 4 1
5 4 5 2
6 4 11 1
7 5 6 1
8 5 8 1
9 6 7 2
10 8 9 1
11 9 10 2
12 9 11 1
13 11 12 1
14 12 13 1
15 13 14 2
16 13 17 1
17 14 15 1
18 15 16 1
19 16 17 2
20 16 18 1
21 18 19 2
22 18 20 1
23 20 21 1
24 21 22 1
25 22 23 1
26 23 24 1
27 23 28 1
28 24 25 1
29 25 26 1
30 26 27 1
31 27 28 1
32 3 29 1
33 6 30 1
34 7 31 1
35 12 32 1
36 12 33 1
37 20 34 1
38 21 35 1
39 21 36 1
40 22 37 1
41 22 38 1
42 24 39 1
43 24 40 1
44 25 41 1
45 25 42 1
46 27 43 1
47 27 44 1
48 28 45 1
49 28 46 1
@<TRIPOS>SUBSTRUCTURE
1	UNK0	1	GROUP	1 ****	UNK
# created with PyMOL 2.3.2
@<TRIPOS>MOLECULE
2124
41 45 1                 
SMALL
USER_CHARGES
@<TRIPOS>ATOM
1	  Cl	5.896	-3.955	1.550	Cl	1	UNK0	0.000	
2	   C	4.549	-2.823	1.393	C.2	1	UNK0	0.000	
3	   C	3.282	-3.252	1.079	C.2	1	UNK0	0.000	
4	   C	2.249	-2.338	0.968	C.2	1	UNK0	0.000	
5	   C	2.427	-0.989	1.159	C.2	1	UNK0	0.000	
6	   C	3.701	-0.555	1.476	C.2	1	UNK0	0.000	
7	   C	4.742	-1.474	1.589	C.2	1	UNK0	0.000	
8	   N	1.367	-0.035	1.049	N.pl3	1	UNK0	0.000	
9	   C	0.982	0.768	-0.057	C.2	1	UNK0	0.000	
10	   O	1.466	0.688	-1.217	O.2	1	UNK0	0.000	
11	   C	-0.091	1.737	0.346	C.3	1	UNK0	0.000	
12	   C	-1.308	1.576	-0.502	C.3	1	UNK0	0.000	
13	   O	-2.375	1.459	0.423	O.3	1	UNK0	0.000	
14	   C	-1.809	0.402	1.181	C.3	1	UNK0	0.000	
15	   C	-0.565	1.133	1.676	C.3	1	UNK0	0.000	
16	   C	0.495	0.248	2.136	C.2	1	UNK0	0.000	
17	   O	0.599	-0.183	3.313	O.2	1	UNK0	0.000	
18	   C	-1.497	-0.565	0.102	C.2	1	UNK0	0.000	
19	   C	-1.299	0.168	-1.013	C.2	1	UNK0	0.000	
20	   C	-2.681	-0.110	2.250	C.3	1	UNK0	0.000	
21	   C	-1.545	2.593	-1.534	C.3	1	UNK0	0.000	
22	   O	-2.694	2.243	-2.246	O.3	1	UNK0	0.000	
23	   C	-3.779	2.780	-1.600	C.3	1	UNK0	0.000	
24	   C	-3.192	3.981	-0.907	C.3	1	UNK0	0.000	
25	   O	-1.825	3.818	-0.928	O.3	1	UNK0	0.000	
26	   H	3.109	-4.296	0.924	 H	1	UNK0	0.000	
27	   H	1.230	-2.655	0.720	 H	1	UNK0	0.000	
28	   H	3.887	0.501	1.634	 H	1	UNK0	0.000	
29	   H	5.739	-1.151	1.837	 H	1	UNK0	0.000	
30	   H	0.277	2.756	0.458	 H	1	UNK0	0.000	
31	   H	-0.880	1.899	2.381	 H	1	UNK0	0.000	
32	   H	-1.421	-1.644	0.106	 H	1	UNK0	0.000	
33	   H	-1.161	-0.150	-2.033	 H	1	UNK0	0.000	
34	   H	-2.474	0.310	3.262	 H	1	UNK0	0.000	
35	   H	-2.614	-1.229	2.359	 H	1	UNK0	0.000	
36	   H	-3.773	0.079	2.075	 H	1	UNK0	0.000	
37	   H	-0.674	2.725	-2.176	 H	1	UNK0	0.000	
38	   H	-4.523	3.074	-2.395	 H	1	UNK0	0.000	
39	   H	-4.313	2.095	-0.930	 H	1	UNK0	0.000	
40	   H	-3.618	3.990	0.129	 H	1	UNK0	0.000	
41	   H	-3.532	4.879	-1.486	 H	1	UNK0	0.000	
@<TRIPOS>BOND
1 1 2 1
2 2 3 2
3 2 7 1
4 3 4 1
5 4 5 2
6 5 6 1
7 5 8 1
8 6 7 2
9 8 9 1
10 8 16 1
11 9 10 2
12 9 11 1
13 11 12 1
14 11 15 1
15 12 13 1
16 12 19 1
17 12 21 1
18 13 14 1
19 14 15 1
20 14 18 1
21 14 20 1
22 15 16 1
23 16 17 2
24 18 19 2
25 21 22 1
26 21 25 1
27 22 23 1
28 23 24 1
29 24 25 1
30 3 26 1
31 4 27 1
32 6 28 1
33 7 29 1
34 11 30 1
35 15 31 1
36 18 32 1
37 19 33 1
38 20 34 1
39 20 35 1
40 20 36 1
41 21 37 1
42 23 38 1
43 23 39 1
44 24 40 1
45 24 41 1
@<TRIPOS>SUBSTRUCTURE
1	UNK0	1	GROUP	1 ****	UNK
# created with PyMOL 2.3.2
@<TRIPOS>MOLECULE
2134
49 52 1                 
SMALL
USER_CHARGES
@<TRIPOS>ATOM
1	  Cl	9.491	5.307	-0.253	Cl	1	UNK0	0.000	
2	   C	7.995	4.632	0.405	C.2	1	UNK0	0.000	
3	   C	6.798	5.272	0.213	C.2	1	UNK0	0.000	
4	   C	5.679	4.685	0.761	C.2	1	UNK0	0.000	
5	   C	5.747	3.494	1.480	C.2	1	UNK0	0.000	
6	   C	6.982	2.884	1.647	C.2	1	UNK0	0.000	
7	   C	8.108	3.461	1.105	C.2	1	UNK0	0.000	
8	   N	4.573	2.910	2.035	N.pl3	1	UNK0	0.000	
9	   C	3.540	2.299	1.303	C.2	1	UNK0	0.000	
10	   O	3.662	2.249	0.049	O.2	1	UNK0	0.000	
11	   N	2.383	1.747	1.886	N.pl3	1	UNK0	0.000	
12	   N	1.327	1.132	1.223	N.pl3	1	UNK0	0.000	
13	   C	0.007	1.407	1.653	C.2	1	UNK0	0.000	
14	   O	-0.177	2.218	2.616	O.2	1	UNK0	0.000	
15	   C	-1.107	0.754	0.994	C.2	1	UNK0	0.000	
16	   N	-0.992	-0.095	0.002	N.2	1	UNK0	0.000	
17	   N	-2.205	-0.564	-0.434	N.pl3	1	UNK0	0.000	
18	   C	-3.185	0.074	0.386	C.2	1	UNK0	0.000	
19	   N	-4.483	0.011	0.422	N.2	1	UNK0	0.000	
20	   N	-5.244	0.761	1.357	N.pl3	1	UNK0	0.000	
21	   C	-4.638	1.614	2.297	C.2	1	UNK0	0.000	
22	   C	-5.335	2.314	3.182	C.2	1	UNK0	0.000	
23	   C	-3.182	1.701	2.272	C.2	1	UNK0	0.000	
24	   O	-2.629	2.445	3.088	O.2	1	UNK0	0.000	
25	   N	-2.487	0.917	1.301	N.pl3	1	UNK0	0.000	
26	   C	-2.419	-1.530	-1.459	C.2	1	UNK0	0.000	
27	   C	-1.391	-2.302	-1.942	C.2	1	UNK0	0.000	
28	   C	-1.552	-3.285	-2.909	C.2	1	UNK0	0.000	
29	   C	-2.803	-3.529	-3.439	C.2	1	UNK0	0.000	
30	   C	-3.851	-2.764	-2.972	C.2	1	UNK0	0.000	
31	   C	-3.659	-1.783	-2.000	C.2	1	UNK0	0.000	
32	   C	-3.028	-4.603	-4.454	C.3	1	UNK0	0.000	
33	   H	6.732	6.206	-0.349	 H	1	UNK0	0.000	
34	   H	4.699	5.157	0.637	 H	1	UNK0	0.000	
35	   H	6.996	1.953	2.211	 H	1	UNK0	0.000	
36	   H	9.073	2.956	1.244	 H	1	UNK0	0.000	
37	   H	4.504	2.960	3.082	 H	1	UNK0	0.000	
38	   H	2.266	1.773	2.951	 H	1	UNK0	0.000	
39	   H	1.538	0.502	0.435	 H	1	UNK0	0.000	
40	   H	-6.280	0.637	1.300	 H	1	UNK0	0.000	
41	   H	-6.409	2.282	3.248	 H	1	UNK0	0.000	
42	   H	-4.830	2.955	3.896	 H	1	UNK0	0.000	
43	   H	-0.392	-2.115	-1.524	 H	1	UNK0	0.000	
44	   H	-0.723	-3.870	-3.265	 H	1	UNK0	0.000	
45	   H	-4.831	-2.963	-3.403	 H	1	UNK0	0.000	
46	   H	-4.506	-1.194	-1.654	 H	1	UNK0	0.000	
47	   H	-2.715	-4.331	-5.465	 H	1	UNK0	0.000	
48	   H	-4.072	-4.938	-4.482	 H	1	UNK0	0.000	
49	   H	-2.444	-5.528	-4.154	 H	1	UNK0	0.000	
@<TRIPOS>BOND
1 1 2 1
2 2 3 2
3 2 7 1
4 3 4 1
5 4 5 2
6 5 6 1
7 5 8 1
8 6 7 2
9 8 9 1
10 9 10 2
11 9 11 1
12 11 12 1
13 12 13 1
14 13 14 2
15 13 15 1
16 15 16 2
17 15 25 1
18 16 17 1
19 17 18 1
20 17 26 1
21 18 19 2
22 18 25 1
23 19 20 1
24 20 21 1
25 21 22 2
26 21 23 1
27 23 24 2
28 23 25 1
29 26 27 2
30 26 31 1
31 27 28 1
32 28 29 2
33 29 30 1
34 29 32 1
35 30 31 2
36 3 33 1
37 4 34 1
38 6 35 1
39 7 36 1
40 8 37 1
41 11 38 1
42 12 39 1
43 20 40 1
44 22 41 1
45 22 42 1
46 27 43 1
47 28 44 1
48 30 45 1
49 31 46 1
50 32 47 1
51 32 48 1
52 32 49 1
@<TRIPOS>SUBSTRUCTURE
1	UNK0	1	GROUP	1 ****	UNK
# created with PyMOL 2.3.2
@<TRIPOS>MOLECULE
2136
53 57 1                 
SMALL
USER_CHARGES
@<TRIPOS>ATOM
1	  Cl	-6.809	0.214	0.210	Cl	1	UNK0	0.000	
2	   C	-5.371	0.265	-0.788	C.2	1	UNK0	0.000	
3	   C	-4.137	0.642	-0.299	C.2	1	UNK0	0.000	
4	   C	-3.015	0.672	-1.120	C.2	1	UNK0	0.000	
5	   C	-3.200	0.310	-2.426	C.2	1	UNK0	0.000	
6	   C	-4.421	-0.069	-2.931	C.2	1	UNK0	0.000	
7	   C	-5.518	-0.097	-2.123	C.2	1	UNK0	0.000	
8	   C	-1.871	1.109	-0.311	C.3	1	UNK0	0.000	
9	   N	-1.248	2.312	-0.833	N.3	1	UNK0	0.000	
10	   C	0.034	2.321	-0.124	C.3	1	UNK0	0.000	
11	   C	0.457	0.908	0.013	C.3	1	UNK0	0.000	
12	   C	-0.745	0.112	-0.384	C.3	1	UNK0	0.000	
13	   C	-0.899	-1.001	0.557	C.2	1	UNK0	0.000	
14	   O	-1.643	-1.993	0.354	O.2	1	UNK0	0.000	
15	   N	-0.066	-0.713	1.673	N.pl3	1	UNK0	0.000	
16	   C	0.626	0.510	1.460	C.2	1	UNK0	0.000	
17	   O	1.287	1.199	2.284	O.2	1	UNK0	0.000	
18	   C	0.051	-1.559	2.858	C.3	1	UNK0	0.000	
19	   C	1.175	-2.555	2.612	C.3	1	UNK0	0.000	
20	   O	0.905	-3.341	1.503	O.3	1	UNK0	0.000	
21	   C	1.942	-4.232	1.307	C.3	1	UNK0	0.000	
22	   C	1.057	3.131	-0.862	C.3	1	UNK0	0.000	
23	   C	1.354	2.652	-2.222	C.2	1	UNK0	0.000	
24	   C	0.504	3.057	-3.249	C.2	1	UNK0	0.000	
25	   C	0.766	2.645	-4.530	C.2	1	UNK0	0.000	
26	   C	1.836	1.845	-4.853	C.2	1	UNK0	0.000	
27	   C	2.653	1.466	-3.810	C.2	1	UNK0	0.000	
28	   C	2.436	1.852	-2.504	C.2	1	UNK0	0.000	
29	   C	-2.382	1.344	1.049	C.2	1	UNK0	0.000	
30	   O	-1.766	1.724	2.055	O.2	1	UNK0	0.000	
31	   N	-3.770	1.045	1.012	N.pl3	1	UNK0	0.000	
32	   H	-2.311	0.332	-3.080	 H	1	UNK0	0.000	
33	   H	-4.503	-0.341	-3.959	 H	1	UNK0	0.000	
34	   H	-6.485	-0.391	-2.499	 H	1	UNK0	0.000	
35	   H	-1.811	3.177	-0.606	 H	1	UNK0	0.000	
36	   H	-0.104	2.834	0.866	 H	1	UNK0	0.000	
37	   H	1.359	0.608	-0.553	 H	1	UNK0	0.000	
38	   H	-0.706	-0.223	-1.447	 H	1	UNK0	0.000	
39	   H	-0.866	-2.134	3.013	 H	1	UNK0	0.000	
40	   H	0.254	-0.962	3.765	 H	1	UNK0	0.000	
41	   H	2.113	-1.970	2.502	 H	1	UNK0	0.000	
42	   H	1.272	-3.241	3.478	 H	1	UNK0	0.000	
43	   H	2.080	-4.895	2.179	 H	1	UNK0	0.000	
44	   H	2.917	-3.738	1.113	 H	1	UNK0	0.000	
45	   H	1.707	-4.830	0.398	 H	1	UNK0	0.000	
46	   H	0.782	4.207	-0.838	 H	1	UNK0	0.000	
47	   H	2.007	3.054	-0.255	 H	1	UNK0	0.000	
48	   H	-0.358	3.698	-3.010	 H	1	UNK0	0.000	
49	   H	0.105	2.961	-5.325	 H	1	UNK0	0.000	
50	   H	2.056	1.512	-5.857	 H	1	UNK0	0.000	
51	   H	3.511	0.837	-4.004	 H	1	UNK0	0.000	
52	   H	3.134	1.528	-1.714	 H	1	UNK0	0.000	
53	   H	-4.449	1.104	1.818	 H	1	UNK0	0.000	
@<TRIPOS>BOND
1 1 2 1
2 2 3 2
3 2 7 1
4 3 4 1
5 3 31 1
6 4 5 2
7 4 8 1
8 5 6 1
9 6 7 2
10 8 9 1
11 8 12 1
12 8 29 1
13 9 10 1
14 10 11 1
15 10 22 1
16 11 12 1
17 11 16 1
18 12 13 1
19 13 14 2
20 13 15 1
21 15 16 1
22 15 18 1
23 16 17 2
24 18 19 1
25 19 20 1
26 20 21 1
27 22 23 1
28 23 24 2
29 23 28 1
30 24 25 1
31 25 26 2
32 26 27 1
33 27 28 2
34 29 30 2
35 29 31 1
36 5 32 1
37 6 33 1
38 7 34 1
39 9 35 1
40 10 36 1
41 11 37 1
42 12 38 1
43 18 39 1
44 18 40 1
45 19 41 1
46 19 42 1
47 21 43 1
48 21 44 1
49 21 45 1
50 22 46 1
51 22 47 1
52 24 48 1
53 25 49 1
54 26 50 1
55 27 51 1
56 28 52 1
57 31 53 1
@<TRIPOS>SUBSTRUCTURE
1	UNK0	1	GROUP	1 ****	UNK
# created with PyMOL 2.3.2
@<TRIPOS>MOLECULE
2139
42 45 1                 
SMALL
USER_CHARGES
@<TRIPOS>ATOM
1	  Cl	4.145	1.117	-3.072	Cl	1	UNK0	0.000	
2	   C	3.480	0.041	-1.860	C.2	1	UNK0	0.000	
3	   C	2.270	-0.580	-2.087	C.2	1	UNK0	0.000	
4	   C	1.794	-1.423	-1.089	C.2	1	UNK0	0.000	
5	   C	2.460	-1.660	0.087	C.2	1	UNK0	0.000	
6	   C	3.663	-1.033	0.292	C.2	1	UNK0	0.000	
7	   C	4.151	-0.196	-0.682	C.2	1	UNK0	0.000	
8	   C	1.901	-2.560	1.094	C.3	1	UNK0	0.000	
9	   N	1.056	-1.973	2.061	N.3	1	UNK0	0.000	
10	   C	1.592	-0.961	2.881	C.3	1	UNK0	0.000	
11	   C	1.402	0.455	2.409	C.3	1	UNK0	0.000	
12	   N	0.234	0.426	1.490	N.pl3	1	UNK0	0.000	
13	   C	-0.804	-0.435	1.914	C.3	1	UNK0	0.000	
14	   C	-0.330	-1.857	1.705	C.3	1	UNK0	0.000	
15	   C	0.301	1.267	0.359	C.2	1	UNK0	0.000	
16	   N	1.148	2.340	0.376	N.2	1	UNK0	0.000	
17	   C	1.279	3.225	-0.604	C.2	1	UNK0	0.000	
18	   N	0.530	3.072	-1.709	N.2	1	UNK0	0.000	
19	   C	-0.326	2.028	-1.784	C.2	1	UNK0	0.000	
20	   N	-1.174	1.622	-2.747	N.2	1	UNK0	0.000	
21	   C	-1.797	0.514	-2.345	C.2	1	UNK0	0.000	
22	   N	-1.373	0.170	-1.116	N.pl3	1	UNK0	0.000	
23	   C	-0.468	1.094	-0.756	C.2	1	UNK0	0.000	
24	   N	2.195	4.337	-0.520	N.pl3	1	UNK0	0.000	
25	   H	1.715	-0.415	-3.006	 H	1	UNK0	0.000	
26	   H	0.833	-1.885	-1.324	 H	1	UNK0	0.000	
27	   H	4.241	-1.189	1.222	 H	1	UNK0	0.000	
28	   H	5.114	0.306	-0.516	 H	1	UNK0	0.000	
29	   H	1.367	-3.431	0.640	 H	1	UNK0	0.000	
30	   H	2.775	-3.029	1.635	 H	1	UNK0	0.000	
31	   H	2.655	-1.128	3.035	 H	1	UNK0	0.000	
32	   H	1.112	-1.048	3.899	 H	1	UNK0	0.000	
33	   H	2.273	0.907	1.939	 H	1	UNK0	0.000	
34	   H	1.077	1.109	3.245	 H	1	UNK0	0.000	
35	   H	-0.852	-0.324	3.059	 H	1	UNK0	0.000	
36	   H	-1.818	-0.233	1.605	 H	1	UNK0	0.000	
37	   H	-0.486	-2.240	0.683	 H	1	UNK0	0.000	
38	   H	-0.917	-2.500	2.401	 H	1	UNK0	0.000	
39	   H	-2.540	-0.015	-2.951	 H	1	UNK0	0.000	
40	   H	-1.709	-0.668	-0.595	 H	1	UNK0	0.000	
41	   H	1.873	5.314	-0.554	 H	1	UNK0	0.000	
42	   H	3.214	4.158	-0.421	 H	1	UNK0	0.000	
@<TRIPOS>BOND
1 1 2 1
2 2 3 2
3 2 7 1
4 3 4 1
5 4 5 2
6 5 6 1
7 5 8 1
8 6 7 2
9 8 9 1
10 9 10 1
11 9 14 1
12 10 11 1
13 11 12 1
14 12 13 1
15 12 15 1
16 13 14 1
17 15 16 2
18 15 23 1
19 16 17 1
20 17 18 2
21 17 24 1
22 18 19 1
23 19 20 1
24 19 23 2
25 20 21 2
26 21 22 1
27 22 23 1
28 3 25 1
29 4 26 1
30 6 27 1
31 7 28 1
32 8 29 1
33 8 30 1
34 10 31 1
35 10 32 1
36 11 33 1
37 11 34 1
38 13 35 1
39 13 36 1
40 14 37 1
41 14 38 1
42 21 39 1
43 22 40 1
44 24 41 1
45 24 42 1
@<TRIPOS>SUBSTRUCTURE
1	UNK0	1	GROUP	1 ****	UNK
# created with PyMOL 2.3.2
@<TRIPOS>MOLECULE
2149
42 45 1                 
SMALL
USER_CHARGES
@<TRIPOS>ATOM
1	  Cl	-3.389	-2.239	5.243	Cl	1	UNK0	0.000	
2	   C	-3.238	-1.181	3.844	C.2	1	UNK0	0.000	
3	   C	-3.580	-1.640	2.597	C.2	1	UNK0	0.000	
4	   C	-3.455	-0.794	1.507	C.2	1	UNK0	0.000	
5	   C	-2.999	0.488	1.646	C.2	1	UNK0	0.000	
6	   C	-2.656	0.951	2.894	C.2	1	UNK0	0.000	
7	   C	-2.779	0.114	3.974	C.2	1	UNK0	0.000	
8	   C	-2.898	1.322	0.421	C.3	1	UNK0	0.000	
9	   N	-1.562	1.127	-0.139	N.pl3	1	UNK0	0.000	
10	   N	-0.456	1.803	0.109	N.2	1	UNK0	0.000	
11	   N	0.559	1.331	-0.591	N.2	1	UNK0	0.000	
12	   C	0.126	0.310	-1.330	C.2	1	UNK0	0.000	
13	   C	-1.216	0.179	-1.046	C.2	1	UNK0	0.000	
14	   N	-1.896	-0.793	-1.671	N.2	1	UNK0	0.000	
15	   C	-1.286	-1.611	-2.546	C.2	1	UNK0	0.000	
16	   N	0.025	-1.464	-2.807	N.2	1	UNK0	0.000	
17	   C	0.800	-0.511	-2.226	C.2	1	UNK0	0.000	
18	   N	2.171	-0.353	-2.496	N.pl3	1	UNK0	0.000	
19	   C	2.814	0.817	-3.032	C.3	1	UNK0	0.000	
20	   C	3.828	1.282	-2.054	C.3	1	UNK0	0.000	
21	   N	4.250	0.388	-1.060	N.3	1	UNK0	0.000	
22	   C	4.060	-0.991	-1.215	C.3	1	UNK0	0.000	
23	   C	3.078	-1.442	-2.230	C.3	1	UNK0	0.000	
24	   C	3.713	0.808	0.222	C.3	1	UNK0	0.000	
25	   H	-3.943	-2.647	2.455	 H	1	UNK0	0.000	
26	   H	-3.730	-1.170	0.521	 H	1	UNK0	0.000	
27	   H	-2.301	1.949	3.001	 H	1	UNK0	0.000	
28	   H	-2.518	0.437	4.991	 H	1	UNK0	0.000	
29	   H	-3.640	1.009	-0.323	 H	1	UNK0	0.000	
30	   H	-3.072	2.385	0.688	 H	1	UNK0	0.000	
31	   H	-1.865	-2.384	-3.031	 H	1	UNK0	0.000	
32	   H	2.106	1.635	-3.263	 H	1	UNK0	0.000	
33	   H	3.287	0.553	-4.002	 H	1	UNK0	0.000	
34	   H	4.739	1.604	-2.642	 H	1	UNK0	0.000	
35	   H	3.477	2.245	-1.587	 H	1	UNK0	0.000	
36	   H	5.055	-1.457	-1.487	 H	1	UNK0	0.000	
37	   H	3.812	-1.479	-0.228	 H	1	UNK0	0.000	
38	   H	3.572	-1.756	-3.175	 H	1	UNK0	0.000	
39	   H	2.515	-2.334	-1.836	 H	1	UNK0	0.000	
40	   H	3.226	1.820	0.145	 H	1	UNK0	0.000	
41	   H	2.906	0.108	0.529	 H	1	UNK0	0.000	
42	   H	4.500	0.907	0.992	 H	1	UNK0	0.000	
@<TRIPOS>BOND
1 1 2 1
2 2 3 2
3 2 7 1
4 3 4 1
5 4 5 2
6 5 6 1
7 5 8 1
8 6 7 2
9 8 9 1
10 9 10 1
11 9 13 1
12 10 11 2
13 11 12 1
14 12 13 2
15 12 17 1
16 13 14 1
17 14 15 2
18 15 16 1
19 16 17 2
20 17 18 1
21 18 19 1
22 18 23 1
23 19 20 1
24 20 21 1
25 21 22 1
26 21 24 1
27 22 23 1
28 3 25 1
29 4 26 1
30 6 27 1
31 7 28 1
32 8 29 1
33 8 30 1
34 15 31 1
35 19 32 1
36 19 33 1
37 20 34 1
38 20 35 1
39 22 36 1
40 22 37 1
41 23 38 1
42 23 39 1
43 24 40 1
44 24 41 1
45 24 42 1
@<TRIPOS>SUBSTRUCTURE
1	UNK0	1	GROUP	1 ****	UNK
# created with PyMOL 2.3.2
@<TRIPOS>MOLECULE
2163
54 57 1                 
SMALL
USER_CHARGES
@<TRIPOS>ATOM
1	  Br	6.688	2.152	3.051	Br	1	UNK0	0.000	
2	   C	4.804	2.227	2.772	C.2	1	UNK0	0.000	
3	   C	4.207	1.510	1.759	C.2	1	UNK0	0.000	
4	   C	2.849	1.563	1.558	C.2	1	UNK0	0.000	
5	   C	2.099	2.355	2.400	C.2	1	UNK0	0.000	
6	   C	2.692	3.088	3.431	C.2	1	UNK0	0.000	
7	   C	4.062	3.030	3.629	C.2	1	UNK0	0.000	
8	   O	0.728	2.391	2.174	O.3	1	UNK0	0.000	
9	   C	-0.174	3.150	2.945	C.3	1	UNK0	0.000	
10	   C	2.205	0.808	0.489	C.2	1	UNK0	0.000	
11	   N	2.847	0.056	-0.323	N.2	1	UNK0	0.000	
12	   N	2.247	-0.673	-1.351	N.pl3	1	UNK0	0.000	
13	   C	0.862	-0.997	-1.357	C.2	1	UNK0	0.000	
14	   N	0.365	-2.122	-0.799	N.2	1	UNK0	0.000	
15	   C	-0.944	-2.398	-0.822	C.2	1	UNK0	0.000	
16	   N	-1.771	-1.525	-1.418	N.2	1	UNK0	0.000	
17	   C	-1.340	-0.374	-2.000	C.2	1	UNK0	0.000	
18	   N	0.003	-0.159	-1.938	N.2	1	UNK0	0.000	
19	   N	-2.212	0.537	-2.623	N.pl3	1	UNK0	0.000	
20	   C	-3.623	0.297	-2.683	C.3	1	UNK0	0.000	
21	   C	-4.034	0.417	-4.149	C.3	1	UNK0	0.000	
22	   O	-3.632	1.669	-4.581	O.3	1	UNK0	0.000	
23	   C	-2.265	1.807	-4.633	C.3	1	UNK0	0.000	
24	   C	-1.693	1.734	-3.217	C.3	1	UNK0	0.000	
25	   N	-1.467	-3.581	-0.234	N.pl3	1	UNK0	0.000	
26	   C	-0.626	-4.557	0.423	C.3	1	UNK0	0.000	
27	   C	-1.042	-5.975	0.062	C.3	1	UNK0	0.000	
28	   O	-2.433	-6.111	0.133	O.3	1	UNK0	0.000	
29	   C	-3.072	-5.275	-0.751	C.3	1	UNK0	0.000	
30	   C	-2.887	-3.850	-0.276	C.3	1	UNK0	0.000	
31	   H	4.789	0.875	1.080	 H	1	UNK0	0.000	
32	   H	2.079	3.710	4.088	 H	1	UNK0	0.000	
33	   H	4.497	3.602	4.431	 H	1	UNK0	0.000	
34	   H	-0.521	2.490	3.780	 H	1	UNK0	0.000	
35	   H	0.244	4.106	3.296	 H	1	UNK0	0.000	
36	   H	-1.074	3.366	2.326	 H	1	UNK0	0.000	
37	   H	1.134	0.873	0.361	 H	1	UNK0	0.000	
38	   H	2.880	-0.979	-2.139	 H	1	UNK0	0.000	
39	   H	-3.890	-0.713	-2.277	 H	1	UNK0	0.000	
40	   H	-4.158	1.102	-2.129	 H	1	UNK0	0.000	
41	   H	-5.142	0.386	-4.153	 H	1	UNK0	0.000	
42	   H	-3.630	-0.406	-4.743	 H	1	UNK0	0.000	
43	   H	-1.780	0.978	-5.202	 H	1	UNK0	0.000	
44	   H	-2.018	2.783	-5.063	 H	1	UNK0	0.000	
45	   H	-0.589	1.769	-3.233	 H	1	UNK0	0.000	
46	   H	-2.122	2.615	-2.683	 H	1	UNK0	0.000	
47	   H	-0.850	-4.459	1.524	 H	1	UNK0	0.000	
48	   H	0.438	-4.426	0.207	 H	1	UNK0	0.000	
49	   H	-0.644	-6.196	-0.937	 H	1	UNK0	0.000	
50	   H	-0.637	-6.650	0.858	 H	1	UNK0	0.000	
51	   H	-2.640	-5.434	-1.760	 H	1	UNK0	0.000	
52	   H	-4.127	-5.561	-0.800	 H	1	UNK0	0.000	
53	   H	-3.279	-3.791	0.744	 H	1	UNK0	0.000	
54	   H	-3.414	-3.126	-0.918	 H	1	UNK0	0.000	
@<TRIPOS>BOND
1 1 2 1
2 2 3 2
3 2 7 1
4 3 4 1
5 4 5 2
6 4 10 1
7 5 6 1
8 5 8 1
9 6 7 2
10 8 9 1
11 10 11 2
12 11 12 1
13 12 13 1
14 13 14 2
15 13 18 1
16 14 15 1
17 15 16 2
18 15 25 1
19 16 17 1
20 17 18 2
21 17 19 1
22 19 20 1
23 19 24 1
24 20 21 1
25 21 22 1
26 22 23 1
27 23 24 1
28 25 26 1
29 25 30 1
30 26 27 1
31 27 28 1
32 28 29 1
33 29 30 1
34 3 31 1
35 6 32 1
36 7 33 1
37 9 34 1
38 9 35 1
39 9 36 1
40 10 37 1
41 12 38 1
42 20 39 1
43 20 40 1
44 21 41 1
45 21 42 1
46 23 43 1
47 23 44 1
48 24 45 1
49 24 46 1
50 26 47 1
51 26 48 1
52 27 49 1
53 27 50 1
54 29 51 1
55 29 52 1
56 30 53 1
57 30 54 1
@<TRIPOS>SUBSTRUCTURE
1	UNK0	1	GROUP	1 ****	UNK
# created with PyMOL 2.3.2
@<TRIPOS>MOLECULE
2164
38 41 1                 
SMALL
USER_CHARGES
@<TRIPOS>ATOM
1	  Br	-3.542	6.011	-1.096	Br	1	UNK0	0.000	
2	   C	-3.530	4.433	-0.028	C.2	1	UNK0	0.000	
3	   C	-2.366	3.746	0.226	C.2	1	UNK0	0.000	
4	   C	-2.323	2.582	1.008	C.2	1	UNK0	0.000	
5	   C	-3.517	2.153	1.516	C.2	1	UNK0	0.000	
6	   C	-4.694	2.858	1.253	C.2	1	UNK0	0.000	
7	   C	-4.707	3.983	0.492	C.2	1	UNK0	0.000	
8	   N	-1.086	1.942	1.217	N.pl3	1	UNK0	0.000	
9	   C	-0.894	0.772	1.968	C.2	1	UNK0	0.000	
10	   O	-1.780	0.134	2.555	O.2	1	UNK0	0.000	
11	   C	0.494	0.207	2.101	C.3	1	UNK0	0.000	
12	   C	1.129	-0.167	0.787	C.3	1	UNK0	0.000	
13	   N	0.714	-1.568	0.952	N.pl3	1	UNK0	0.000	
14	   C	0.543	-1.270	2.362	C.3	1	UNK0	0.000	
15	   C	0.574	-2.664	0.057	C.2	1	UNK0	0.000	
16	   N	-0.614	-3.295	-0.132	N.2	1	UNK0	0.000	
17	   C	-0.722	-4.345	-0.998	C.2	1	UNK0	0.000	
18	   N	0.335	-4.786	-1.687	N.2	1	UNK0	0.000	
19	   C	1.532	-4.213	-1.550	C.2	1	UNK0	0.000	
20	   N	2.728	-4.466	-2.118	N.pl3	1	UNK0	0.000	
21	   N	3.570	-3.589	-1.616	N.2	1	UNK0	0.000	
22	   N	2.947	-2.786	-0.746	N.2	1	UNK0	0.000	
23	   C	1.639	-3.152	-0.674	C.2	1	UNK0	0.000	
24	   C	3.060	-5.497	-3.098	C.3	1	UNK0	0.000	
25	   H	-1.443	4.124	-0.198	 H	1	UNK0	0.000	
26	   H	-3.575	1.255	2.136	 H	1	UNK0	0.000	
27	   H	-5.624	2.467	1.687	 H	1	UNK0	0.000	
28	   H	-5.638	4.515	0.301	 H	1	UNK0	0.000	
29	   H	-0.223	2.407	0.751	 H	1	UNK0	0.000	
30	   H	1.169	0.841	2.701	 H	1	UNK0	0.000	
31	   H	0.627	0.226	-0.122	 H	1	UNK0	0.000	
32	   H	2.221	-0.117	0.750	 H	1	UNK0	0.000	
33	   H	-0.401	-1.653	2.804	 H	1	UNK0	0.000	
34	   H	1.422	-1.615	2.925	 H	1	UNK0	0.000	
35	   H	-1.697	-4.797	-1.097	 H	1	UNK0	0.000	
36	   H	3.893	-5.184	-3.748	 H	1	UNK0	0.000	
37	   H	2.188	-5.673	-3.794	 H	1	UNK0	0.000	
38	   H	3.275	-6.461	-2.634	 H	1	UNK0	0.000	
@<TRIPOS>BOND
1 1 2 1
2 2 3 2
3 2 7 1
4 3 4 1
5 4 5 2
6 4 8 1
7 5 6 1
8 6 7 2
9 8 9 1
10 9 10 2
11 9 11 1
12 11 12 1
13 11 14 1
14 12 13 1
15 13 14 1
16 13 15 1
17 15 16 2
18 15 23 1
19 16 17 1
20 17 18 2
21 18 19 1
22 19 20 1
23 19 23 2
24 20 21 1
25 20 24 1
26 21 22 2
27 22 23 1
28 3 25 1
29 5 26 1
30 6 27 1
31 7 28 1
32 8 29 1
33 11 30 1
34 12 31 1
35 12 32 1
36 14 33 1
37 14 34 1
38 17 35 1
39 24 36 1
40 24 37 1
41 24 38 1
@<TRIPOS>SUBSTRUCTURE
1	UNK0	1	GROUP	1 ****	UNK
# created with PyMOL 2.3.2
@<TRIPOS>MOLECULE
2170
52 56 1                 
SMALL
USER_CHARGES
@<TRIPOS>ATOM
1	  Cl	1.152	7.964	1.865	Cl	1	UNK0	0.000	
2	   C	1.062	6.279	1.381	C.2	1	UNK0	0.000	
3	   C	0.112	5.420	1.917	C.2	1	UNK0	0.000	
4	   C	0.058	4.098	1.523	C.2	1	UNK0	0.000	
5	   C	0.931	3.573	0.594	C.2	1	UNK0	0.000	
6	   C	1.883	4.451	0.062	C.2	1	UNK0	0.000	
7	   C	1.944	5.773	0.449	C.2	1	UNK0	0.000	
8	   C	0.879	2.178	0.176	C.2	1	UNK0	0.000	
9	   O	1.696	1.763	-0.676	O.2	1	UNK0	0.000	
10	   C	-0.145	1.311	0.785	C.3	1	UNK0	0.000	
11	   N	-0.112	-0.051	0.305	N.pl3	1	UNK0	0.000	
12	   N	-0.683	-0.596	-0.748	N.pl3	1	UNK0	0.000	
13	   C	-0.401	-1.903	-0.847	C.2	1	UNK0	0.000	
14	   N	-0.991	-2.439	-1.927	N.2	1	UNK0	0.000	
15	   C	-1.684	-1.475	-2.571	C.2	1	UNK0	0.000	
16	   C	-1.480	-0.316	-1.814	C.2	1	UNK0	0.000	
17	   C	-2.100	0.816	-2.299	C.2	1	UNK0	0.000	
18	   O	-1.941	1.892	-1.648	O.2	1	UNK0	0.000	
19	   N	-2.862	0.835	-3.425	N.pl3	1	UNK0	0.000	
20	   C	-3.010	-0.319	-4.093	C.2	1	UNK0	0.000	
21	   O	-3.728	-0.280	-5.146	O.2	1	UNK0	0.000	
22	   N	-2.436	-1.459	-3.684	N.pl3	1	UNK0	0.000	
23	   C	-2.633	-2.662	-4.447	C.3	1	UNK0	0.000	
24	   C	-3.480	2.065	-3.865	C.3	1	UNK0	0.000	
25	   N	0.398	-2.174	0.216	N.2	1	UNK0	0.000	
26	   C	0.583	-1.053	0.926	C.2	1	UNK0	0.000	
27	   N	1.349	-0.876	2.114	N.pl3	1	UNK0	0.000	
28	   C	0.757	-1.012	3.434	C.3	1	UNK0	0.000	
29	   C	1.358	0.053	4.318	C.3	1	UNK0	0.000	
30	   O	2.758	-0.054	4.315	O.3	1	UNK0	0.000	
31	   C	3.295	0.297	3.096	C.3	1	UNK0	0.000	
32	   C	2.749	-0.560	2.009	C.3	1	UNK0	0.000	
33	   H	-0.582	5.799	2.644	 H	1	UNK0	0.000	
34	   H	-0.682	3.426	1.940	 H	1	UNK0	0.000	
35	   H	2.591	4.101	-0.668	 H	1	UNK0	0.000	
36	   H	2.683	6.463	0.040	 H	1	UNK0	0.000	
37	   H	-1.146	1.718	0.780	 H	1	UNK0	0.000	
38	   H	0.137	1.280	1.884	 H	1	UNK0	0.000	
39	   H	-3.604	-2.575	-4.993	 H	1	UNK0	0.000	
40	   H	-2.653	-3.542	-3.756	 H	1	UNK0	0.000	
41	   H	-1.786	-2.838	-5.133	 H	1	UNK0	0.000	
42	   H	-2.701	2.736	-4.312	 H	1	UNK0	0.000	
43	   H	-3.853	2.618	-2.966	 H	1	UNK0	0.000	
44	   H	-4.339	1.908	-4.519	 H	1	UNK0	0.000	
45	   H	0.979	-2.006	3.878	 H	1	UNK0	0.000	
46	   H	-0.345	-0.846	3.409	 H	1	UNK0	0.000	
47	   H	1.020	1.066	4.097	 H	1	UNK0	0.000	
48	   H	1.051	-0.181	5.370	 H	1	UNK0	0.000	
49	   H	3.086	1.370	2.838	 H	1	UNK0	0.000	
50	   H	4.390	0.115	3.157	 H	1	UNK0	0.000	
51	   H	3.312	-1.510	1.869	 H	1	UNK0	0.000	
52	   H	2.901	-0.005	1.041	 H	1	UNK0	0.000	
@<TRIPOS>BOND
1 1 2 1
2 2 3 2
3 2 7 1
4 3 4 1
5 4 5 2
6 5 6 1
7 5 8 1
8 6 7 2
9 8 9 2
10 8 10 1
11 10 11 1
12 11 12 1
13 11 26 1
14 12 13 1
15 12 16 1
16 13 14 2
17 13 25 1
18 14 15 1
19 15 16 2
20 15 22 1
21 16 17 1
22 17 18 2
23 17 19 1
24 19 20 1
25 19 24 1
26 20 21 2
27 20 22 1
28 22 23 1
29 25 26 2
30 26 27 1
31 27 28 1
32 27 32 1
33 28 29 1
34 29 30 1
35 30 31 1
36 31 32 1
37 3 33 1
38 4 34 1
39 6 35 1
40 7 36 1
41 10 37 1
42 10 38 1
43 23 39 1
44 23 40 1
45 23 41 1
46 24 42 1
47 24 43 1
48 24 44 1
49 28 45 1
50 28 46 1
51 29 47 1
52 29 48 1
53 31 49 1
54 31 50 1
55 32 51 1
56 32 52 1
@<TRIPOS>SUBSTRUCTURE
1	UNK0	1	GROUP	1 ****	UNK
# created with PyMOL 2.3.2
@<TRIPOS>MOLECULE
2177
48 52 1                 
SMALL
USER_CHARGES
@<TRIPOS>ATOM
1	  Cl	-1.121	7.716	-2.698	Cl	1	UNK0	0.000	
2	   C	-0.484	6.288	-1.876	C.2	1	UNK0	0.000	
3	   C	0.473	6.438	-0.897	C.2	1	UNK0	0.000	
4	   C	0.989	5.348	-0.239	C.2	1	UNK0	0.000	
5	   C	0.566	4.068	-0.535	C.2	1	UNK0	0.000	
6	   C	-0.392	3.937	-1.518	C.2	1	UNK0	0.000	
7	   C	-0.918	5.019	-2.186	C.2	1	UNK0	0.000	
8	   N	1.136	2.982	0.179	N.pl3	1	UNK0	0.000	
9	   C	2.126	3.121	1.193	C.2	1	UNK0	0.000	
10	   C	2.633	2.095	1.836	C.2	1	UNK0	0.000	
11	   N	2.277	0.737	1.616	N.pl3	1	UNK0	0.000	
12	   C	1.159	0.203	2.357	C.3	1	UNK0	0.000	
13	   C	0.211	-0.441	1.379	C.3	1	UNK0	0.000	
14	   N	0.879	-1.265	0.391	N.pl3	1	UNK0	0.000	
15	   C	2.023	-0.721	-0.313	C.3	1	UNK0	0.000	
16	   C	2.973	-0.139	0.701	C.3	1	UNK0	0.000	
17	   C	0.405	-2.587	0.127	C.2	1	UNK0	0.000	
18	   N	1.236	-3.628	0.331	N.2	1	UNK0	0.000	
19	   C	0.825	-4.905	0.092	C.2	1	UNK0	0.000	
20	   N	-0.425	-5.155	-0.356	N.2	1	UNK0	0.000	
21	   C	-1.295	-4.164	-0.577	C.2	1	UNK0	0.000	
22	   N	-2.568	-4.130	-1.011	N.pl3	1	UNK0	0.000	
23	   N	-2.941	-2.863	-1.041	N.2	1	UNK0	0.000	
24	   C	-1.917	-2.064	-0.628	C.2	1	UNK0	0.000	
25	   C	-0.858	-2.862	-0.327	C.2	1	UNK0	0.000	
26	   C	-3.412	-5.268	-1.388	C.3	1	UNK0	0.000	
27	   N	2.566	4.434	1.505	N.pl3	1	UNK0	0.000	
28	   C	2.014	5.526	0.809	C.2	1	UNK0	0.000	
29	   O	2.361	6.731	1.035	O.2	1	UNK0	0.000	
30	   H	0.813	7.446	-0.655	 H	1	UNK0	0.000	
31	   H	-0.737	2.947	-1.767	 H	1	UNK0	0.000	
32	   H	-1.665	4.917	-2.952	 H	1	UNK0	0.000	
33	   H	0.823	2.012	-0.038	 H	1	UNK0	0.000	
34	   H	3.387	2.272	2.600	 H	1	UNK0	0.000	
35	   H	1.465	-0.583	3.078	 H	1	UNK0	0.000	
36	   H	0.594	1.002	2.879	 H	1	UNK0	0.000	
37	   H	-0.448	-1.113	2.008	 H	1	UNK0	0.000	
38	   H	-0.509	0.277	0.926	 H	1	UNK0	0.000	
39	   H	2.543	-1.587	-0.819	 H	1	UNK0	0.000	
40	   H	1.757	0.057	-1.049	 H	1	UNK0	0.000	
41	   H	3.849	0.347	0.234	 H	1	UNK0	0.000	
42	   H	3.344	-1.013	1.312	 H	1	UNK0	0.000	
43	   H	1.531	-5.713	0.271	 H	1	UNK0	0.000	
44	   H	-1.920	-0.987	-0.547	 H	1	UNK0	0.000	
45	   H	-4.468	-5.090	-1.087	 H	1	UNK0	0.000	
46	   H	-3.086	-6.174	-0.817	 H	1	UNK0	0.000	
47	   H	-3.397	-5.426	-2.482	 H	1	UNK0	0.000	
48	   H	3.289	4.618	2.237	 H	1	UNK0	0.000	
@<TRIPOS>BOND
1 1 2 1
2 2 3 2
3 2 7 1
4 3 4 1
5 4 5 2
6 4 28 1
7 5 6 1
8 5 8 1
9 6 7 2
10 8 9 1
11 9 10 2
12 9 27 1
13 10 11 1
14 11 12 1
15 11 16 1
16 12 13 1
17 13 14 1
18 14 15 1
19 14 17 1
20 15 16 1
21 17 18 2
22 17 25 1
23 18 19 1
24 19 20 2
25 20 21 1
26 21 22 1
27 21 25 2
28 22 23 1
29 22 26 1
30 23 24 2
31 24 25 1
32 27 28 1
33 28 29 2
34 3 30 1
35 6 31 1
36 7 32 1
37 8 33 1
38 10 34 1
39 12 35 1
40 12 36 1
41 13 37 1
42 13 38 1
43 15 39 1
44 15 40 1
45 16 41 1
46 16 42 1
47 19 43 1
48 24 44 1
49 26 45 1
50 26 46 1
51 26 47 1
52 27 48 1
@<TRIPOS>SUBSTRUCTURE
1	UNK0	1	GROUP	1 ****	UNK
# created with PyMOL 2.3.2
@<TRIPOS>MOLECULE
2184
49 52 1                 
SMALL
USER_CHARGES
@<TRIPOS>ATOM
1	  Cl	6.215	-0.929	1.256	Cl	1	UNK0	0.000	
2	   C	4.574	-0.955	1.911	C.2	1	UNK0	0.000	
3	   C	3.573	-0.123	1.486	C.2	1	UNK0	0.000	
4	   C	2.323	-0.222	1.989	C.2	1	UNK0	0.000	
5	   C	2.015	-1.157	2.938	C.2	1	UNK0	0.000	
6	   C	3.048	-2.017	3.382	C.2	1	UNK0	0.000	
7	   C	4.318	-1.925	2.886	C.2	1	UNK0	0.000	
8	   O	5.332	-2.783	3.368	O.2	1	UNK0	0.000	
9	   O	0.816	-1.299	3.427	O.3	1	UNK0	0.000	
10	   C	-0.172	-0.518	3.005	C.2	1	UNK0	0.000	
11	   O	-1.303	-0.671	3.483	O.co2	1	UNK0	0.000	
12	   C	0.061	0.470	2.027	C.2	1	UNK0	0.000	
13	   C	1.294	0.645	1.502	C.2	1	UNK0	0.000	
14	   C	1.801	1.659	0.563	C.3	1	UNK0	0.000	
15	   N	1.208	1.895	-0.680	N.4	1	UNK0	0.000	
16	   C	-0.150	1.903	-0.936	C.3	1	UNK0	0.000	
17	   C	-0.456	1.199	-2.303	C.3	1	UNK0	0.000	
18	   N	-0.157	-0.248	-1.866	N.pl3	1	UNK0	0.000	
19	   C	1.188	-0.442	-1.623	C.3	1	UNK0	0.000	
20	   C	1.843	0.957	-1.651	C.3	1	UNK0	0.000	
21	   C	-1.328	-1.027	-1.744	C.2	1	UNK0	0.000	
22	   C	-1.612	-1.906	-0.758	C.2	1	UNK0	0.000	
23	   C	-2.917	-2.452	-0.592	C.2	1	UNK0	0.000	
24	   C	-3.948	-2.111	-1.426	C.2	1	UNK0	0.000	
25	   C	-3.664	-1.213	-2.450	C.2	1	UNK0	0.000	
26	   C	-2.389	-0.690	-2.606	C.2	1	UNK0	0.000	
27	   O	-5.203	-2.672	-1.225	O.3	1	UNK0	0.000	
28	   C	-6.326	-2.275	-2.027	C.3	1	UNK0	0.000	
29	   H	3.833	0.585	0.747	 H	1	UNK0	0.000	
30	   H	2.823	-2.761	4.136	 H	1	UNK0	0.000	
31	   H	-0.769	1.102	1.768	 H	1	UNK0	0.000	
32	   H	2.799	2.077	0.731	 H	1	UNK0	0.000	
33	   H	1.252	2.625	1.139	 H	1	UNK0	0.000	
34	   H	1.601	2.833	-1.016	 H	1	UNK0	0.000	
35	   H	-0.825	1.300	-0.262	 H	1	UNK0	0.000	
36	   H	-0.678	2.884	-1.018	 H	1	UNK0	0.000	
37	   H	0.109	1.422	-3.118	 H	1	UNK0	0.000	
38	   H	-1.541	1.298	-2.380	 H	1	UNK0	0.000	
39	   H	1.328	-0.886	-0.602	 H	1	UNK0	0.000	
40	   H	1.787	-1.078	-2.325	 H	1	UNK0	0.000	
41	   H	1.757	1.374	-2.628	 H	1	UNK0	0.000	
42	   H	2.930	0.902	-1.428	 H	1	UNK0	0.000	
43	   H	-0.796	-2.200	-0.087	 H	1	UNK0	0.000	
44	   H	-3.068	-3.132	0.217	 H	1	UNK0	0.000	
45	   H	-4.452	-0.912	-3.133	 H	1	UNK0	0.000	
46	   H	-2.205	-0.037	-3.422	 H	1	UNK0	0.000	
47	   H	-7.031	-1.667	-1.358	 H	1	UNK0	0.000	
48	   H	-6.835	-3.091	-2.530	 H	1	UNK0	0.000	
49	   H	-6.060	-1.532	-2.807	 H	1	UNK0	0.000	
@<TRIPOS>BOND
1 1 2 1
2 2 3 2
3 2 7 1
4 3 4 1
5 4 5 2
6 4 13 1
7 5 6 1
8 5 9 1
9 6 7 2
10 7 8 1
11 9 10 1
12 10 11 2
13 10 12 1
14 12 13 2
15 13 14 1
16 14 15 1
17 15 16 1
18 15 20 1
19 16 17 1
20 17 18 1
21 18 19 1
22 18 21 1
23 19 20 1
24 21 22 2
25 21 26 1
26 22 23 1
27 23 24 2
28 24 25 1
29 24 27 1
30 25 26 2
31 27 28 1
32 3 29 1
33 6 30 1
34 12 31 1
35 14 32 1
36 14 33 1
37 15 34 1
38 16 35 1
39 16 36 1
40 17 37 1
41 17 38 1
42 19 39 1
43 19 40 1
44 20 41 1
45 20 42 1
46 22 43 1
47 23 44 1
48 25 45 1
49 26 46 1
50 28 47 1
51 28 48 1
52 28 49 1
@<TRIPOS>SUBSTRUCTURE
1	UNK0	1	GROUP	1 ****	UNK
# created with PyMOL 2.3.2
@<TRIPOS>MOLECULE
2195
47 50 1                 
SMALL
USER_CHARGES
@<TRIPOS>ATOM
1	   S	-1.391	4.143	-3.006	S.O2	1	UNK0	0.000	
2	   O	-1.416	5.630	-3.067	O.2	1	UNK0	0.000	
3	   O	-2.609	3.620	-2.272	O.2	1	UNK0	0.000	
4	   N	-0.011	3.526	-2.240	N.3	1	UNK0	0.000	
5	   C	0.002	2.141	-2.092	C.3	1	UNK0	0.000	
6	   C	0.925	1.489	-1.161	C.3	1	UNK0	0.000	
7	   C	2.031	2.424	-0.745	C.3	1	UNK0	0.000	
8	   C	1.423	3.686	-0.247	C.3	1	UNK0	0.000	
9	   C	0.663	4.356	-1.355	C.3	1	UNK0	0.000	
10	   C	0.296	0.926	0.065	C.2	1	UNK0	0.000	
11	   N	0.491	-0.324	0.480	N.2	1	UNK0	0.000	
12	   C	-0.098	-0.804	1.589	C.2	1	UNK0	0.000	
13	   N	-0.073	-2.009	2.222	N.pl3	1	UNK0	0.000	
14	   N	-0.854	-1.892	3.275	N.2	1	UNK0	0.000	
15	   N	-1.379	-0.684	3.355	N.2	1	UNK0	0.000	
16	   C	-0.932	0.033	2.318	C.2	1	UNK0	0.000	
17	   C	-1.144	1.335	1.898	C.2	1	UNK0	0.000	
18	   N	-0.510	1.716	0.781	N.2	1	UNK0	0.000	
19	   O	-1.974	2.187	2.613	O.3	1	UNK0	0.000	
20	   C	0.661	-3.166	1.814	C.3	1	UNK0	0.000	
21	   C	-0.095	-4.059	0.903	C.2	1	UNK0	0.000	
22	   C	0.516	-5.201	0.450	C.2	1	UNK0	0.000	
23	   C	-0.122	-6.094	-0.408	C.2	1	UNK0	0.000	
24	   C	-1.410	-5.842	-0.829	C.2	1	UNK0	0.000	
25	   C	-2.030	-4.698	-0.378	C.2	1	UNK0	0.000	
26	   C	-1.382	-3.812	0.480	C.2	1	UNK0	0.000	
27	  Cl	2.152	-5.581	0.946	Cl	1	UNK0	0.000	
28	   C	-1.538	3.503	-4.681	C.3	1	UNK0	0.000	
29	   H	0.109	1.681	-3.121	 H	1	UNK0	0.000	
30	   H	-1.047	1.825	-1.797	 H	1	UNK0	0.000	
31	   H	1.460	0.643	-1.706	 H	1	UNK0	0.000	
32	   H	2.692	1.928	-0.004	 H	1	UNK0	0.000	
33	   H	2.670	2.686	-1.623	 H	1	UNK0	0.000	
34	   H	2.294	4.366	0.017	 H	1	UNK0	0.000	
35	   H	0.841	3.622	0.673	 H	1	UNK0	0.000	
36	   H	-0.004	5.119	-0.875	 H	1	UNK0	0.000	
37	   H	1.408	4.970	-1.939	 H	1	UNK0	0.000	
38	   H	-2.949	1.959	2.735	 H	1	UNK0	0.000	
39	   H	0.994	-3.799	2.668	 H	1	UNK0	0.000	
40	   H	1.557	-2.820	1.224	 H	1	UNK0	0.000	
41	   H	0.347	-6.997	-0.773	 H	1	UNK0	0.000	
42	   H	-1.920	-6.541	-1.506	 H	1	UNK0	0.000	
43	   H	-3.057	-4.497	-0.714	 H	1	UNK0	0.000	
44	   H	-1.885	-2.919	0.823	 H	1	UNK0	0.000	
45	   H	-0.753	3.917	-5.328	 H	1	UNK0	0.000	
46	   H	-1.495	2.399	-4.589	 H	1	UNK0	0.000	
47	   H	-2.512	3.875	-5.058	 H	1	UNK0	0.000	
@<TRIPOS>BOND
1 1 2 2
2 1 3 2
3 1 4 1
4 1 28 1
5 4 5 1
6 4 9 1
7 5 6 1
8 6 7 1
9 6 10 1
10 7 8 1
11 8 9 1
12 10 11 2
13 10 18 1
14 11 12 1
15 12 13 1
16 12 16 2
17 13 14 1
18 13 20 1
19 14 15 2
20 15 16 1
21 16 17 1
22 17 18 2
23 17 19 1
24 20 21 1
25 21 22 2
26 21 26 1
27 22 23 1
28 22 27 1
29 23 24 2
30 24 25 1
31 25 26 2
32 5 29 1
33 5 30 1
34 6 31 1
35 7 32 1
36 7 33 1
37 8 34 1
38 8 35 1
39 9 36 1
40 9 37 1
41 19 38 1
42 20 39 1
43 20 40 1
44 23 41 1
45 24 42 1
46 25 43 1
47 26 44 1
48 28 45 1
49 28 46 1
50 28 47 1
@<TRIPOS>SUBSTRUCTURE
1	UNK0	1	GROUP	1 ****	UNK
# created with PyMOL 2.3.2
@<TRIPOS>MOLECULE
2197
54 57 1                 
SMALL
USER_CHARGES
@<TRIPOS>ATOM
1	   S	0.520	-3.102	-3.461	S.O2	1	UNK0	0.000	
2	   O	-0.030	-4.274	-4.285	O.2	1	UNK0	0.000	
3	   O	1.100	-2.169	-4.496	O.2	1	UNK0	0.000	
4	   N	-0.771	-2.440	-2.607	N.3	1	UNK0	0.000	
5	   C	-0.878	-0.983	-2.827	C.3	1	UNK0	0.000	
6	   C	0.324	-0.358	-2.222	C.3	1	UNK0	0.000	
7	   O	0.688	-0.719	-0.978	O.3	1	UNK0	0.000	
8	   C	0.202	-1.842	-0.429	C.3	1	UNK0	0.000	
9	   C	-0.827	-2.594	-1.200	C.3	1	UNK0	0.000	
10	   C	0.113	1.119	-2.258	C.2	1	UNK0	0.000	
11	   O	-0.240	1.622	-3.358	O.2	1	UNK0	0.000	
12	   N	0.279	1.982	-1.159	N.pl3	1	UNK0	0.000	
13	   C	0.681	1.549	0.166	C.3	1	UNK0	0.000	
14	   C	0.857	2.795	1.011	C.3	1	UNK0	0.000	
15	   N	-0.368	3.562	1.139	N.3	1	UNK0	0.000	
16	   C	-0.945	3.756	-0.153	C.3	1	UNK0	0.000	
17	   C	0.049	3.430	-1.275	C.3	1	UNK0	0.000	
18	   C	-1.208	2.910	2.091	C.3	1	UNK0	0.000	
19	   C	-2.522	3.605	2.321	C.3	1	UNK0	0.000	
20	   C	-3.407	2.893	3.343	C.3	1	UNK0	0.000	
21	   C	-3.803	3.030	1.906	C.3	1	UNK0	0.000	
22	   C	1.755	-3.783	-2.451	C.2	1	UNK0	0.000	
23	   C	1.579	-4.981	-1.794	C.2	1	UNK0	0.000	
24	   C	2.534	-5.502	-0.942	C.2	1	UNK0	0.000	
25	   C	3.704	-4.815	-0.736	C.2	1	UNK0	0.000	
26	   C	3.900	-3.608	-1.391	C.2	1	UNK0	0.000	
27	   C	2.951	-3.097	-2.231	C.2	1	UNK0	0.000	
28	  Cl	0.132	-5.966	-2.082	Cl	1	UNK0	0.000	
29	   H	-1.772	-0.650	-2.302	 H	1	UNK0	0.000	
30	   H	-0.932	-0.731	-3.885	 H	1	UNK0	0.000	
31	   H	1.231	-0.521	-2.886	 H	1	UNK0	0.000	
32	   H	-0.252	-1.572	0.573	 H	1	UNK0	0.000	
33	   H	1.029	-2.528	-0.172	 H	1	UNK0	0.000	
34	   H	-0.931	-3.638	-0.914	 H	1	UNK0	0.000	
35	   H	-1.847	-2.148	-0.905	 H	1	UNK0	0.000	
36	   H	-0.049	0.853	0.585	 H	1	UNK0	0.000	
37	   H	1.680	1.067	0.137	 H	1	UNK0	0.000	
38	   H	1.185	2.460	2.038	 H	1	UNK0	0.000	
39	   H	1.694	3.365	0.601	 H	1	UNK0	0.000	
40	   H	-1.213	4.811	-0.285	 H	1	UNK0	0.000	
41	   H	-1.800	3.065	-0.307	 H	1	UNK0	0.000	
42	   H	-0.508	3.584	-2.221	 H	1	UNK0	0.000	
43	   H	0.970	4.006	-1.195	 H	1	UNK0	0.000	
44	   H	-1.327	1.847	1.821	 H	1	UNK0	0.000	
45	   H	-0.661	2.914	3.069	 H	1	UNK0	0.000	
46	   H	-2.466	4.705	2.452	 H	1	UNK0	0.000	
47	   H	-3.098	1.902	3.716	 H	1	UNK0	0.000	
48	   H	-3.934	3.502	4.098	 H	1	UNK0	0.000	
49	   H	-4.649	3.711	1.720	 H	1	UNK0	0.000	
50	   H	-3.888	2.069	1.364	 H	1	UNK0	0.000	
51	   H	2.397	-6.443	-0.423	 H	1	UNK0	0.000	
52	   H	4.442	-5.231	-0.070	 H	1	UNK0	0.000	
53	   H	4.835	-3.105	-1.199	 H	1	UNK0	0.000	
54	   H	3.090	-2.155	-2.750	 H	1	UNK0	0.000	
@<TRIPOS>BOND
1 1 2 2
2 1 3 2
3 1 4 1
4 1 22 1
5 4 5 1
6 4 9 1
7 5 6 1
8 6 7 1
9 6 10 1
10 7 8 1
11 8 9 1
12 10 11 2
13 10 12 1
14 12 13 1
15 12 17 1
16 13 14 1
17 14 15 1
18 15 16 1
19 15 18 1
20 16 17 1
21 18 19 1
22 19 20 1
23 19 21 1
24 20 21 1
25 22 23 2
26 22 27 1
27 23 24 1
28 23 28 1
29 24 25 2
30 25 26 1
31 26 27 2
32 5 29 1
33 5 30 1
34 6 31 1
35 8 32 1
36 8 33 1
37 9 34 1
38 9 35 1
39 13 36 1
40 13 37 1
41 14 38 1
42 14 39 1
43 16 40 1
44 16 41 1
45 17 42 1
46 17 43 1
47 18 44 1
48 18 45 1
49 19 46 1
50 20 47 1
51 20 48 1
52 21 49 1
53 21 50 1
54 24 51 1
55 25 52 1
56 26 53 1
57 27 54 1
@<TRIPOS>SUBSTRUCTURE
1	UNK0	1	GROUP	1 ****	UNK
# created with PyMOL 2.3.2
@<TRIPOS>MOLECULE
2210
56 59 1                 
SMALL
USER_CHARGES
@<TRIPOS>ATOM
1	  Br	-2.411	4.524	0.515	Br	1	UNK0	0.000	
2	   C	-2.831	2.692	0.826	C.2	1	UNK0	0.000	
3	   C	-2.959	1.813	-0.263	C.2	1	UNK0	0.000	
4	   C	-3.258	0.520	-0.020	C.2	1	UNK0	0.000	
5	   C	-3.435	0.044	1.260	C.2	1	UNK0	0.000	
6	   C	-3.299	0.938	2.332	C.2	1	UNK0	0.000	
7	   C	-2.999	2.269	2.121	C.2	1	UNK0	0.000	
8	   O	-3.735	-1.294	1.470	O.3	1	UNK0	0.000	
9	   C	-3.927	-1.913	2.694	C.3	1	UNK0	0.000	
10	   C	-3.299	-0.435	-1.141	C.2	1	UNK0	0.000	
11	   C	-2.147	-0.573	-1.810	C.2	1	UNK0	0.000	
12	   O	-0.983	0.124	-1.507	O.3	1	UNK0	0.000	
13	   C	0.029	-0.288	-2.385	C.2	1	UNK0	0.000	
14	   C	-0.402	-1.228	-3.270	C.2	1	UNK0	0.000	
15	   C	0.437	-1.786	-4.206	C.2	1	UNK0	0.000	
16	   C	1.769	-1.390	-4.264	C.2	1	UNK0	0.000	
17	   C	2.204	-0.424	-3.355	C.2	1	UNK0	0.000	
18	   C	1.371	0.126	-2.435	C.2	1	UNK0	0.000	
19	   C	1.709	1.281	-1.576	C.3	1	UNK0	0.000	
20	   N	2.404	0.941	-0.425	N.4	1	UNK0	0.000	
21	   C	2.392	2.043	0.588	C.3	1	UNK0	0.000	
22	   C	1.985	1.336	1.905	C.3	1	UNK0	0.000	
23	   N	2.137	-0.076	1.749	N.3	1	UNK0	0.000	
24	   C	3.358	-0.500	1.185	C.3	1	UNK0	0.000	
25	   C	3.558	0.197	-0.231	C.3	1	UNK0	0.000	
26	   C	1.110	-0.910	2.131	C.3	1	UNK0	0.000	
27	   C	1.122	-2.355	1.746	C.3	1	UNK0	0.000	
28	   O	-0.021	-3.014	2.227	O.3	1	UNK0	0.000	
29	   O	3.550	-0.081	-3.479	O.2	1	UNK0	0.000	
30	   C	-1.839	-1.441	-2.927	C.2	1	UNK0	0.000	
31	   O	-2.626	-2.211	-3.493	O.2	1	UNK0	0.000	
32	   H	-2.794	2.250	-1.235	 H	1	UNK0	0.000	
33	   H	-3.432	0.608	3.351	 H	1	UNK0	0.000	
34	   H	-2.909	2.939	2.997	 H	1	UNK0	0.000	
35	   H	-4.720	-1.505	3.320	 H	1	UNK0	0.000	
36	   H	-4.183	-2.989	2.504	 H	1	UNK0	0.000	
37	   H	-2.971	-1.918	3.299	 H	1	UNK0	0.000	
38	   H	-4.171	-0.969	-1.423	 H	1	UNK0	0.000	
39	   H	0.044	-2.535	-4.893	 H	1	UNK0	0.000	
40	   H	2.410	-1.837	-5.011	 H	1	UNK0	0.000	
41	   H	2.305	2.012	-2.230	 H	1	UNK0	0.000	
42	   H	0.770	1.869	-1.395	 H	1	UNK0	0.000	
43	   H	1.583	0.305	0.062	 H	1	UNK0	0.000	
44	   H	1.648	2.798	0.296	 H	1	UNK0	0.000	
45	   H	3.421	2.425	0.667	 H	1	UNK0	0.000	
46	   H	2.624	1.737	2.705	 H	1	UNK0	0.000	
47	   H	0.947	1.597	2.083	 H	1	UNK0	0.000	
48	   H	4.178	-0.088	1.792	 H	1	UNK0	0.000	
49	   H	3.457	-1.561	1.101	 H	1	UNK0	0.000	
50	   H	4.436	0.911	-0.139	 H	1	UNK0	0.000	
51	   H	3.852	-0.591	-0.915	 H	1	UNK0	0.000	
52	   H	1.020	-0.925	3.287	 H	1	UNK0	0.000	
53	   H	0.103	-0.480	1.843	 H	1	UNK0	0.000	
54	   H	2.006	-2.927	2.019	 H	1	UNK0	0.000	
55	   H	1.055	-2.417	0.617	 H	1	UNK0	0.000	
56	   H	-0.369	-3.630	1.502	 H	1	UNK0	0.000	
@<TRIPOS>BOND
1 1 2 1
2 2 3 2
3 2 7 1
4 3 4 1
5 4 5 2
6 4 10 1
7 5 6 1
8 5 8 1
9 6 7 2
10 8 9 1
11 10 11 2
12 11 12 1
13 11 30 1
14 12 13 1
15 13 14 2
16 13 18 1
17 14 15 1
18 14 30 1
19 15 16 2
20 16 17 1
21 17 18 2
22 17 29 1
23 18 19 1
24 19 20 1
25 20 21 1
26 20 25 1
27 21 22 1
28 22 23 1
29 23 24 1
30 23 26 1
31 24 25 1
32 26 27 1
33 27 28 1
34 30 31 2
35 3 32 1
36 6 33 1
37 7 34 1
38 9 35 1
39 9 36 1
40 9 37 1
41 10 38 1
42 15 39 1
43 16 40 1
44 19 41 1
45 19 42 1
46 20 43 1
47 21 44 1
48 21 45 1
49 22 46 1
50 22 47 1
51 24 48 1
52 24 49 1
53 25 50 1
54 25 51 1
55 26 52 1
56 26 53 1
57 27 54 1
58 27 55 1
59 28 56 1
@<TRIPOS>SUBSTRUCTURE
1	UNK0	1	GROUP	1 ****	UNK
# created with PyMOL 2.3.2
@<TRIPOS>MOLECULE
2213
46 49 1                 
SMALL
USER_CHARGES
@<TRIPOS>ATOM
1	  Cl	-3.611	0.085	4.275	Cl	1	UNK0	0.000	
2	   C	-3.395	0.196	2.542	C.2	1	UNK0	0.000	
3	   C	-2.248	-0.384	1.980	C.2	1	UNK0	0.000	
4	   C	-2.050	-0.313	0.626	C.2	1	UNK0	0.000	
5	   C	-3.026	0.347	-0.129	C.2	1	UNK0	0.000	
6	   C	-4.148	0.913	0.434	C.2	1	UNK0	0.000	
7	   C	-4.352	0.844	1.800	C.2	1	UNK0	0.000	
8	  Cl	-5.361	1.738	-0.537	Cl	1	UNK0	0.000	
9	   C	-0.878	-0.892	-0.048	C.3	1	UNK0	0.000	
10	   C	0.023	-1.540	0.920	C.2	1	UNK0	0.000	
11	   C	-0.192	-1.599	2.261	C.2	1	UNK0	0.000	
12	   N	0.677	-2.213	3.116	N.pl3	1	UNK0	0.000	
13	   C	1.768	-2.766	2.592	C.2	1	UNK0	0.000	
14	   O	2.607	-3.349	3.349	O.2	1	UNK0	0.000	
15	   N	2.021	-2.731	1.268	N.pl3	1	UNK0	0.000	
16	   C	1.176	-2.133	0.421	C.2	1	UNK0	0.000	
17	   O	1.411	-2.100	-0.814	O.2	1	UNK0	0.000	
18	   C	3.232	-3.357	0.756	C.3	1	UNK0	0.000	
19	   C	0.418	-2.257	4.539	C.3	1	UNK0	0.000	
20	   O	-1.320	-1.024	2.780	O.3	1	UNK0	0.000	
21	   C	-0.156	0.136	-0.869	C.2	1	UNK0	0.000	
22	   C	0.595	1.131	-0.292	C.2	1	UNK0	0.000	
23	   N	1.243	2.070	-0.999	N.pl3	1	UNK0	0.000	
24	   C	1.148	2.031	-2.342	C.2	1	UNK0	0.000	
25	   O	1.762	2.922	-2.999	O.2	1	UNK0	0.000	
26	   N	0.423	1.075	-2.949	N.pl3	1	UNK0	0.000	
27	   C	-0.230	0.128	-2.261	C.2	1	UNK0	0.000	
28	   O	-0.913	-0.776	-2.799	O.2	1	UNK0	0.000	
29	   C	0.351	1.077	-4.392	C.3	1	UNK0	0.000	
30	   C	2.032	3.106	-0.360	C.3	1	UNK0	0.000	
31	   O	0.691	1.170	1.084	O.2	1	UNK0	0.000	
32	   H	-2.875	0.406	-1.201	 H	1	UNK0	0.000	
33	   H	-5.219	1.276	2.272	 H	1	UNK0	0.000	
34	   H	-1.195	-1.694	-0.775	 H	1	UNK0	0.000	
35	   H	3.849	-3.739	1.613	 H	1	UNK0	0.000	
36	   H	3.833	-2.685	0.125	 H	1	UNK0	0.000	
37	   H	3.013	-4.262	0.146	 H	1	UNK0	0.000	
38	   H	-0.464	-1.620	4.802	 H	1	UNK0	0.000	
39	   H	1.264	-1.850	5.131	 H	1	UNK0	0.000	
40	   H	0.170	-3.297	4.818	 H	1	UNK0	0.000	
41	   H	0.354	0.045	-4.771	 H	1	UNK0	0.000	
42	   H	1.208	1.612	-4.852	 H	1	UNK0	0.000	
43	   H	-0.558	1.645	-4.748	 H	1	UNK0	0.000	
44	   H	3.090	2.963	-0.731	 H	1	UNK0	0.000	
45	   H	1.750	4.128	-0.701	 H	1	UNK0	0.000	
46	   H	2.068	2.990	0.724	 H	1	UNK0	0.000	
@<TRIPOS>BOND
1 1 2 1
2 2 3 2
3 2 7 1
4 3 4 1
5 3 20 1
6 4 5 2
7 4 9 1
8 5 6 1
9 6 7 2
10 6 8 1
11 9 10 1
12 9 21 1
13 10 11 2
14 10 16 1
15 11 12 1
16 11 20 1
17 12 13 1
18 12 19 1
19 13 14 2
20 13 15 1
21 15 16 1
22 15 18 1
23 16 17 2
24 21 22 2
25 21 27 1
26 22 23 1
27 22 31 1
28 23 24 1
29 23 30 1
30 24 25 2
31 24 26 1
32 26 27 1
33 26 29 1
34 27 28 2
35 5 32 1
36 7 33 1
37 9 34 1
38 18 35 1
39 18 36 1
40 18 37 1
41 19 38 1
42 19 39 1
43 19 40 1
44 29 41 1
45 29 42 1
46 29 43 1
47 30 44 1
48 30 45 1
49 30 46 1
@<TRIPOS>SUBSTRUCTURE
1	UNK0	1	GROUP	1 ****	UNK
# created with PyMOL 2.3.2
@<TRIPOS>MOLECULE
2214
51 55 1                 
SMALL
USER_CHARGES
@<TRIPOS>ATOM
1	  Cl	4.912	-4.489	2.100	Cl	1	UNK0	0.000	
2	   C	3.991	-3.890	0.737	C.2	1	UNK0	0.000	
3	   C	2.778	-3.275	0.888	C.2	1	UNK0	0.000	
4	   C	2.076	-2.812	-0.228	C.2	1	UNK0	0.000	
5	   C	2.637	-2.993	-1.457	C.2	1	UNK0	0.000	
6	   C	3.882	-3.624	-1.615	C.2	1	UNK0	0.000	
7	   C	4.568	-4.077	-0.524	C.2	1	UNK0	0.000	
8	   N	1.761	-2.454	-2.442	N.pl3	1	UNK0	0.000	
9	   C	0.620	-1.920	-1.815	C.2	1	UNK0	0.000	
10	   O	-0.343	-1.371	-2.438	O.2	1	UNK0	0.000	
11	   C	0.781	-2.126	-0.372	C.3	1	UNK0	0.000	
12	   N	-0.222	-3.012	0.176	N.3	1	UNK0	0.000	
13	   C	-1.044	-2.305	1.106	C.3	1	UNK0	0.000	
14	   C	-0.675	-0.882	0.960	C.3	1	UNK0	0.000	
15	   C	0.724	-0.836	0.411	C.3	1	UNK0	0.000	
16	   C	0.690	0.360	-0.459	C.2	1	UNK0	0.000	
17	   O	1.655	1.037	-0.894	O.2	1	UNK0	0.000	
18	   N	-0.678	0.691	-0.780	N.pl3	1	UNK0	0.000	
19	   C	-1.493	-0.296	-0.159	C.2	1	UNK0	0.000	
20	   O	-2.661	-0.587	-0.508	O.2	1	UNK0	0.000	
21	   C	-1.112	1.814	-1.584	C.3	1	UNK0	0.000	
22	   C	-1.361	3.059	-0.777	C.3	1	UNK0	0.000	
23	   O	-1.773	4.087	-1.621	O.3	1	UNK0	0.000	
24	   C	-3.148	4.050	-1.667	C.3	1	UNK0	0.000	
25	   C	-3.646	3.464	-0.364	C.3	1	UNK0	0.000	
26	   C	-2.392	2.913	0.286	C.3	1	UNK0	0.000	
27	   C	-0.932	-2.839	2.509	C.3	1	UNK0	0.000	
28	   C	-1.754	-2.157	3.491	C.2	1	UNK0	0.000	
29	   O	-1.711	-2.498	4.692	O.2	1	UNK0	0.000	
30	   N	-2.614	-1.102	3.114	N.pl3	1	UNK0	0.000	
31	   H	2.344	-3.135	1.845	 H	1	UNK0	0.000	
32	   H	4.270	-3.737	-2.604	 H	1	UNK0	0.000	
33	   H	5.523	-4.559	-0.664	 H	1	UNK0	0.000	
34	   H	1.923	-2.444	-3.494	 H	1	UNK0	0.000	
35	   H	0.187	-3.834	0.673	 H	1	UNK0	0.000	
36	   H	-2.105	-2.430	0.738	 H	1	UNK0	0.000	
37	   H	-0.794	-0.258	1.869	 H	1	UNK0	0.000	
38	   H	1.502	-0.768	1.193	 H	1	UNK0	0.000	
39	   H	-0.353	2.030	-2.364	 H	1	UNK0	0.000	
40	   H	-2.046	1.530	-2.142	 H	1	UNK0	0.000	
41	   H	-0.407	3.382	-0.313	 H	1	UNK0	0.000	
42	   H	-3.505	5.101	-1.757	 H	1	UNK0	0.000	
43	   H	-3.547	3.507	-2.549	 H	1	UNK0	0.000	
44	   H	-4.047	4.269	0.275	 H	1	UNK0	0.000	
45	   H	-4.374	2.647	-0.538	 H	1	UNK0	0.000	
46	   H	-2.518	1.891	0.655	 H	1	UNK0	0.000	
47	   H	-2.132	3.526	1.199	 H	1	UNK0	0.000	
48	   H	-1.265	-3.915	2.463	 H	1	UNK0	0.000	
49	   H	0.146	-2.895	2.776	 H	1	UNK0	0.000	
50	   H	-2.557	-0.188	3.621	 H	1	UNK0	0.000	
51	   H	-3.317	-1.164	2.354	 H	1	UNK0	0.000	
@<TRIPOS>BOND
1 1 2 1
2 2 3 2
3 2 7 1
4 3 4 1
5 4 5 2
6 4 11 1
7 5 6 1
8 5 8 1
9 6 7 2
10 8 9 1
11 9 10 2
12 9 11 1
13 11 12 1
14 11 15 1
15 12 13 1
16 13 14 1
17 13 27 1
18 14 15 1
19 14 19 1
20 15 16 1
21 16 17 2
22 16 18 1
23 18 19 1
24 18 21 1
25 19 20 2
26 21 22 1
27 22 23 1
28 22 26 1
29 23 24 1
30 24 25 1
31 25 26 1
32 27 28 1
33 28 29 2
34 28 30 1
35 3 31 1
36 6 32 1
37 7 33 1
38 8 34 1
39 12 35 1
40 13 36 1
41 14 37 1
42 15 38 1
43 21 39 1
44 21 40 1
45 22 41 1
46 24 42 1
47 24 43 1
48 25 44 1
49 25 45 1
50 26 46 1
51 26 47 1
52 27 48 1
53 27 49 1
54 30 50 1
55 30 51 1
@<TRIPOS>SUBSTRUCTURE
1	UNK0	1	GROUP	1 ****	UNK
# created with PyMOL 2.3.2
@<TRIPOS>MOLECULE
2225
53 56 1                 
SMALL
USER_CHARGES
@<TRIPOS>ATOM
1	  Cl	0.581	-7.250	-3.964	Cl	1	UNK0	0.000	
2	   C	0.707	-5.509	-3.992	C.2	1	UNK0	0.000	
3	   C	0.947	-4.782	-2.849	C.2	1	UNK0	0.000	
4	   C	1.049	-3.424	-2.857	C.2	1	UNK0	0.000	
5	   C	0.911	-2.677	-4.047	C.2	1	UNK0	0.000	
6	   C	0.665	-3.440	-5.208	C.2	1	UNK0	0.000	
7	   C	0.570	-4.799	-5.163	C.2	1	UNK0	0.000	
8	   O	0.996	-1.388	-4.117	O.3	1	UNK0	0.000	
9	   C	1.086	-0.107	-4.147	C.3	1	UNK0	0.000	
10	   C	0.183	0.811	-3.426	C.2	1	UNK0	0.000	
11	   O	0.498	2.070	-3.556	O.2	1	UNK0	0.000	
12	   N	-0.931	0.545	-2.646	N.pl3	1	UNK0	0.000	
13	   C	-1.638	1.709	-2.029	C.3	1	UNK0	0.000	
14	   C	-2.001	1.276	-0.631	C.3	1	UNK0	0.000	
15	   N	-1.198	0.166	-0.151	N.pl3	1	UNK0	0.000	
16	   C	-1.288	-1.073	-0.876	C.3	1	UNK0	0.000	
17	   C	-1.547	-0.717	-2.331	C.3	1	UNK0	0.000	
18	   C	-0.370	0.327	0.980	C.2	1	UNK0	0.000	
19	   N	-0.181	1.550	1.549	N.2	1	UNK0	0.000	
20	   C	0.584	1.751	2.613	C.2	1	UNK0	0.000	
21	   N	1.204	0.668	3.149	N.2	1	UNK0	0.000	
22	   C	1.070	-0.549	2.654	C.2	1	UNK0	0.000	
23	   C	0.266	-0.753	1.537	C.2	1	UNK0	0.000	
24	   N	0.791	3.016	3.216	N.pl3	1	UNK0	0.000	
25	   C	0.133	4.198	2.670	C.3	1	UNK0	0.000	
26	   C	1.258	5.212	2.441	C.3	1	UNK0	0.000	
27	   O	1.878	5.502	3.627	O.3	1	UNK0	0.000	
28	   C	2.515	4.440	4.223	C.3	1	UNK0	0.000	
29	   C	1.636	3.218	4.367	C.3	1	UNK0	0.000	
30	   H	1.053	-5.365	-1.931	 H	1	UNK0	0.000	
31	   H	1.241	-2.881	-1.967	 H	1	UNK0	0.000	
32	   H	0.558	-2.878	-6.131	 H	1	UNK0	0.000	
33	   H	0.381	-5.360	-6.072	 H	1	UNK0	0.000	
34	   H	1.024	0.285	-5.245	 H	1	UNK0	0.000	
35	   H	2.144	0.315	-3.903	 H	1	UNK0	0.000	
36	   H	-2.545	1.838	-2.653	 H	1	UNK0	0.000	
37	   H	-0.969	2.597	-2.041	 H	1	UNK0	0.000	
38	   H	-3.058	0.875	-0.658	 H	1	UNK0	0.000	
39	   H	-1.939	2.119	0.107	 H	1	UNK0	0.000	
40	   H	-0.433	-1.743	-0.761	 H	1	UNK0	0.000	
41	   H	-2.172	-1.655	-0.479	 H	1	UNK0	0.000	
42	   H	-2.673	-0.533	-2.363	 H	1	UNK0	0.000	
43	   H	-1.390	-1.524	-3.034	 H	1	UNK0	0.000	
44	   H	1.579	-1.408	3.102	 H	1	UNK0	0.000	
45	   H	0.157	-1.760	1.137	 H	1	UNK0	0.000	
46	   H	-0.378	3.981	1.714	 H	1	UNK0	0.000	
47	   H	-0.523	4.594	3.444	 H	1	UNK0	0.000	
48	   H	1.944	4.774	1.678	 H	1	UNK0	0.000	
49	   H	0.802	6.113	2.029	 H	1	UNK0	0.000	
50	   H	3.448	4.137	3.699	 H	1	UNK0	0.000	
51	   H	2.812	4.749	5.247	 H	1	UNK0	0.000	
52	   H	2.315	2.352	4.514	 H	1	UNK0	0.000	
53	   H	1.024	3.315	5.279	 H	1	UNK0	0.000	
@<TRIPOS>BOND
1 1 2 1
2 2 3 2
3 2 7 1
4 3 4 1
5 4 5 2
6 5 6 1
7 5 8 1
8 6 7 2
9 8 9 1
10 9 10 1
11 10 11 2
12 10 12 1
13 12 13 1
14 12 17 1
15 13 14 1
16 14 15 1
17 15 16 1
18 15 18 1
19 16 17 1
20 18 19 2
21 18 23 1
22 19 20 1
23 20 21 2
24 20 24 1
25 21 22 1
26 22 23 2
27 24 25 1
28 24 29 1
29 25 26 1
30 26 27 1
31 27 28 1
32 28 29 1
33 3 30 1
34 4 31 1
35 6 32 1
36 7 33 1
37 9 34 1
38 9 35 1
39 13 36 1
40 13 37 1
41 14 38 1
42 14 39 1
43 16 40 1
44 16 41 1
45 17 42 1
46 17 43 1
47 22 44 1
48 23 45 1
49 25 46 1
50 25 47 1
51 26 48 1
52 26 49 1
53 28 50 1
54 28 51 1
55 29 52 1
56 29 53 1
@<TRIPOS>SUBSTRUCTURE
1	UNK0	1	GROUP	1 ****	UNK
# created with PyMOL 2.3.2
@<TRIPOS>MOLECULE
2231
45 49 1                 
SMALL
USER_CHARGES
@<TRIPOS>ATOM
1	  Cl	0.098	-5.017	-8.044	Cl	1	UNK0	0.000	
2	   C	0.117	-4.242	-6.490	C.2	1	UNK0	0.000	
3	   C	-1.059	-4.042	-5.812	C.2	1	UNK0	0.000	
4	   C	-1.049	-3.427	-4.580	C.2	1	UNK0	0.000	
5	   C	0.119	-2.999	-3.993	C.2	1	UNK0	0.000	
6	   C	1.283	-3.213	-4.697	C.2	1	UNK0	0.000	
7	   C	1.293	-3.828	-5.935	C.2	1	UNK0	0.000	
8	   N	0.192	-2.361	-2.727	N.pl3	1	UNK0	0.000	
9	   N	-0.377	-2.745	-1.598	N.2	1	UNK0	0.000	
10	   N	-0.103	-1.919	-0.607	N.2	1	UNK0	0.000	
11	   C	0.682	-0.928	-1.063	C.2	1	UNK0	0.000	
12	   C	0.857	-1.224	-2.400	C.2	1	UNK0	0.000	
13	   N	1.620	-0.384	-3.135	N.2	1	UNK0	0.000	
14	   C	2.172	0.693	-2.546	C.2	1	UNK0	0.000	
15	   N	1.997	0.978	-1.232	N.2	1	UNK0	0.000	
16	   C	1.247	0.175	-0.455	C.2	1	UNK0	0.000	
17	   N	1.051	0.460	0.930	N.pl3	1	UNK0	0.000	
18	   C	-0.319	0.664	1.361	C.3	1	UNK0	0.000	
19	   C	-0.471	0.367	2.851	C.3	1	UNK0	0.000	
20	   N	0.678	0.768	3.580	N.pl3	1	UNK0	0.000	
21	   C	1.912	0.025	3.178	C.3	1	UNK0	0.000	
22	   C	2.203	0.521	1.774	C.3	1	UNK0	0.000	
23	   C	0.736	1.739	4.565	C.2	1	UNK0	0.000	
24	   O	1.940	1.911	5.084	O.2	1	UNK0	0.000	
25	   C	-0.265	2.618	5.150	C.3	1	UNK0	0.000	
26	   C	-1.259	3.259	4.258	C.3	1	UNK0	0.000	
27	   C	-1.678	2.333	5.376	C.3	1	UNK0	0.000	
28	   H	-1.986	-4.386	-6.288	 H	1	UNK0	0.000	
29	   H	-1.991	-3.286	-4.076	 H	1	UNK0	0.000	
30	   H	2.225	-2.884	-4.255	 H	1	UNK0	0.000	
31	   H	2.265	-3.959	-6.426	 H	1	UNK0	0.000	
32	   H	2.790	1.369	-3.152	 H	1	UNK0	0.000	
33	   H	-0.652	1.682	1.095	 H	1	UNK0	0.000	
34	   H	-0.988	-0.043	0.832	 H	1	UNK0	0.000	
35	   H	-0.492	-0.777	2.938	 H	1	UNK0	0.000	
36	   H	-1.446	0.679	3.158	 H	1	UNK0	0.000	
37	   H	2.733	0.242	3.857	 H	1	UNK0	0.000	
38	   H	1.648	-1.031	3.117	 H	1	UNK0	0.000	
39	   H	2.616	1.554	1.897	 H	1	UNK0	0.000	
40	   H	3.029	-0.106	1.376	 H	1	UNK0	0.000	
41	   H	0.181	3.333	5.945	 H	1	UNK0	0.000	
42	   H	-1.344	2.975	3.199	 H	1	UNK0	0.000	
43	   H	-1.521	4.341	4.397	 H	1	UNK0	0.000	
44	   H	-2.162	2.838	6.280	 H	1	UNK0	0.000	
45	   H	-2.240	1.456	5.091	 H	1	UNK0	0.000	
@<TRIPOS>BOND
1 1 2 1
2 2 3 2
3 2 7 1
4 3 4 1
5 4 5 2
6 5 6 1
7 5 8 1
8 6 7 2
9 8 9 1
10 8 12 1
11 9 10 2
12 10 11 1
13 11 12 2
14 11 16 1
15 12 13 1
16 13 14 2
17 14 15 1
18 15 16 2
19 16 17 1
20 17 18 1
21 17 22 1
22 18 19 1
23 19 20 1
24 20 21 1
25 20 23 1
26 21 22 1
27 23 24 2
28 23 25 1
29 25 26 1
30 25 27 1
31 26 27 1
32 3 28 1
33 4 29 1
34 6 30 1
35 7 31 1
36 14 32 1
37 18 33 1
38 18 34 1
39 19 35 1
40 19 36 1
41 21 37 1
42 21 38 1
43 22 39 1
44 22 40 1
45 25 41 1
46 26 42 1
47 26 43 1
48 27 44 1
49 27 45 1
@<TRIPOS>SUBSTRUCTURE
1	UNK0	1	GROUP	1 ****	UNK
# created with PyMOL 2.3.2
@<TRIPOS>MOLECULE
2242
45 48 1                 
SMALL
USER_CHARGES
@<TRIPOS>ATOM
1	  Cl	-0.399	2.845	2.233	Cl	1	UNK0	0.000	
2	   C	0.835	2.015	3.156	C.2	1	UNK0	0.000	
3	   C	1.231	2.555	4.347	C.2	1	UNK0	0.000	
4	   C	2.189	1.964	5.122	C.2	1	UNK0	0.000	
5	   C	2.754	0.800	4.673	C.2	1	UNK0	0.000	
6	   C	2.343	0.249	3.447	C.2	1	UNK0	0.000	
7	   C	1.387	0.830	2.662	C.2	1	UNK0	0.000	
8	   N	0.911	0.349	1.436	N.pl3	1	UNK0	0.000	
9	   C	1.368	-0.805	0.795	C.2	1	UNK0	0.000	
10	   O	2.260	-1.529	1.260	O.2	1	UNK0	0.000	
11	   C	0.785	-1.226	-0.509	C.2	1	UNK0	0.000	
12	   N	-0.154	-0.501	-1.033	N.2	1	UNK0	0.000	
13	   N	-0.753	-0.824	-2.249	N.pl3	1	UNK0	0.000	
14	   C	-0.324	-1.978	-2.936	C.2	1	UNK0	0.000	
15	   O	-0.839	-2.185	-4.087	O.2	1	UNK0	0.000	
16	   C	0.669	-2.917	-2.376	C.3	1	UNK0	0.000	
17	   N	1.232	-2.391	-1.182	N.pl3	1	UNK0	0.000	
18	   C	-1.803	0.007	-2.801	C.2	1	UNK0	0.000	
19	   C	-1.518	1.124	-3.548	C.2	1	UNK0	0.000	
20	   C	-2.550	1.908	-4.074	C.2	1	UNK0	0.000	
21	   C	-3.872	1.579	-3.853	C.2	1	UNK0	0.000	
22	   C	-4.141	0.458	-3.102	C.2	1	UNK0	0.000	
23	   C	-3.130	-0.302	-2.593	C.2	1	UNK0	0.000	
24	   C	-5.010	2.380	-4.395	C.3	1	UNK0	0.000	
25	   O	3.737	0.134	5.400	O.3	1	UNK0	0.000	
26	   C	3.961	0.387	6.795	C.3	1	UNK0	0.000	
27	   C	3.613	1.803	7.115	C.2	1	UNK0	0.000	
28	   O	4.222	2.369	8.052	O.2	1	UNK0	0.000	
29	   N	2.615	2.503	6.379	N.pl3	1	UNK0	0.000	
30	   H	0.802	3.489	4.744	 H	1	UNK0	0.000	
31	   H	2.814	-0.672	3.129	 H	1	UNK0	0.000	
32	   H	0.139	0.911	0.956	 H	1	UNK0	0.000	
33	   H	0.131	-3.867	-2.087	 H	1	UNK0	0.000	
34	   H	1.429	-3.193	-3.137	 H	1	UNK0	0.000	
35	   H	2.047	-2.896	-0.746	 H	1	UNK0	0.000	
36	   H	-0.482	1.385	-3.724	 H	1	UNK0	0.000	
37	   H	-2.323	2.773	-4.654	 H	1	UNK0	0.000	
38	   H	-5.198	0.203	-2.931	 H	1	UNK0	0.000	
39	   H	-3.385	-1.181	-2.006	 H	1	UNK0	0.000	
40	   H	-5.781	2.575	-3.629	 H	1	UNK0	0.000	
41	   H	-4.686	3.335	-4.820	 H	1	UNK0	0.000	
42	   H	-5.491	1.796	-5.221	 H	1	UNK0	0.000	
43	   H	3.219	-0.259	7.335	 H	1	UNK0	0.000	
44	   H	4.990	0.131	7.074	 H	1	UNK0	0.000	
45	   H	2.205	3.385	6.744	 H	1	UNK0	0.000	
@<TRIPOS>BOND
1 1 2 1
2 2 3 2
3 2 7 1
4 3 4 1
5 4 5 2
6 4 29 1
7 5 6 1
8 5 25 1
9 6 7 2
10 7 8 1
11 8 9 1
12 9 10 2
13 9 11 1
14 11 12 2
15 11 17 1
16 12 13 1
17 13 14 1
18 13 18 1
19 14 15 2
20 14 16 1
21 16 17 1
22 18 19 2
23 18 23 1
24 19 20 1
25 20 21 2
26 21 22 1
27 21 24 1
28 22 23 2
29 25 26 1
30 26 27 1
31 27 28 2
32 27 29 1
33 3 30 1
34 6 31 1
35 8 32 1
36 16 33 1
37 16 34 1
38 17 35 1
39 19 36 1
40 20 37 1
41 22 38 1
42 23 39 1
43 24 40 1
44 24 41 1
45 24 42 1
46 26 43 1
47 26 44 1
48 29 45 1
@<TRIPOS>SUBSTRUCTURE
1	UNK0	1	GROUP	1 ****	UNK
# created with PyMOL 2.3.2
@<TRIPOS>MOLECULE
2266
41 44 1                 
SMALL
USER_CHARGES
@<TRIPOS>ATOM
1	   S	-2.392	1.941	0.750	S.O2	1	UNK0	0.000	
2	   O	-2.879	1.572	2.144	O.2	1	UNK0	0.000	
3	   O	-3.120	3.243	0.431	O.2	1	UNK0	0.000	
4	   N	-0.744	2.253	0.724	N.3	1	UNK0	0.000	
5	   C	-0.178	2.721	-0.477	C.3	1	UNK0	0.000	
6	   C	1.338	2.726	-0.481	C.3	1	UNK0	0.000	
7	   C	1.755	1.349	-0.080	C.2	1	UNK0	0.000	
8	   C	1.116	0.805	1.015	C.2	1	UNK0	0.000	
9	   N	1.443	-0.421	1.424	N.2	1	UNK0	0.000	
10	   C	2.396	-1.090	0.744	C.2	1	UNK0	0.000	
11	   N	3.033	-0.583	-0.326	N.pl3	1	UNK0	0.000	
12	   N	3.928	-1.472	-0.796	N.pl3	1	UNK0	0.000	
13	   C	3.904	-2.586	-0.050	C.2	1	UNK0	0.000	
14	   C	2.952	-2.365	0.917	C.2	1	UNK0	0.000	
15	   C	2.727	0.657	-0.768	C.2	1	UNK0	0.000	
16	   O	3.288	1.185	-1.762	O.2	1	UNK0	0.000	
17	   C	0.087	1.642	1.677	C.3	1	UNK0	0.000	
18	   C	-2.966	0.726	-0.326	C.2	1	UNK0	0.000	
19	   C	-2.508	-0.586	-0.230	C.2	1	UNK0	0.000	
20	   C	-2.986	-1.533	-1.109	C.2	1	UNK0	0.000	
21	   C	-3.894	-1.235	-2.072	C.2	1	UNK0	0.000	
22	   C	-4.363	0.043	-2.192	C.2	1	UNK0	0.000	
23	   C	-3.885	0.992	-1.313	C.2	1	UNK0	0.000	
24	  Cl	-5.546	0.459	-3.437	Cl	1	UNK0	0.000	
25	   O	-1.589	-0.972	0.717	O.3	1	UNK0	0.000	
26	   C	-1.169	-2.317	0.757	C.3	1	UNK0	0.000	
27	   H	-0.541	3.760	-0.677	 H	1	UNK0	0.000	
28	   H	-0.548	2.101	-1.336	 H	1	UNK0	0.000	
29	   H	1.689	3.494	0.243	 H	1	UNK0	0.000	
30	   H	1.655	2.970	-1.510	 H	1	UNK0	0.000	
31	   H	4.539	-1.292	-1.625	 H	1	UNK0	0.000	
32	   H	4.497	-3.494	-0.156	 H	1	UNK0	0.000	
33	   H	2.628	-3.036	1.727	 H	1	UNK0	0.000	
34	   H	0.660	2.452	2.218	 H	1	UNK0	0.000	
35	   H	-0.479	1.114	2.442	 H	1	UNK0	0.000	
36	   H	-2.644	-2.579	-1.061	 H	1	UNK0	0.000	
37	   H	-4.271	-1.995	-2.770	 H	1	UNK0	0.000	
38	   H	-4.299	2.003	-1.459	 H	1	UNK0	0.000	
39	   H	-2.034	-3.010	0.835	 H	1	UNK0	0.000	
40	   H	-0.613	-2.604	-0.171	 H	1	UNK0	0.000	
41	   H	-0.442	-2.481	1.590	 H	1	UNK0	0.000	
@<TRIPOS>BOND
1 1 2 2
2 1 3 2
3 1 4 1
4 1 18 1
5 4 5 1
6 4 17 1
7 5 6 1
8 6 7 1
9 7 8 2
10 7 15 1
11 8 9 1
12 8 17 1
13 9 10 2
14 10 11 1
15 10 14 1
16 11 12 1
17 11 15 1
18 12 13 1
19 13 14 2
20 15 16 2
21 18 19 2
22 18 23 1
23 19 20 1
24 19 25 1
25 20 21 2
26 21 22 1
27 22 23 2
28 22 24 1
29 25 26 1
30 5 27 1
31 5 28 1
32 6 29 1
33 6 30 1
34 12 31 1
35 13 32 1
36 14 33 1
37 17 34 1
38 17 35 1
39 20 36 1
40 21 37 1
41 23 38 1
42 26 39 1
43 26 40 1
44 26 41 1
@<TRIPOS>SUBSTRUCTURE
1	UNK0	1	GROUP	1 ****	UNK
# created with PyMOL 2.3.2
@<TRIPOS>MOLECULE
2267
41 44 1                 
SMALL
USER_CHARGES
@<TRIPOS>ATOM
1	   S	1.831	-2.126	1.068	S.O2	1	UNK0	0.000	
2	   O	2.320	-1.355	2.273	O.2	1	UNK0	0.000	
3	   O	2.763	-3.288	0.892	O.2	1	UNK0	0.000	
4	   N	0.265	-2.636	1.333	N.3	1	UNK0	0.000	
5	   C	-0.383	-3.392	0.358	C.3	1	UNK0	0.000	
6	   C	-1.857	-3.086	0.231	C.3	1	UNK0	0.000	
7	   C	-2.211	-1.703	0.627	C.2	1	UNK0	0.000	
8	   C	-1.520	-1.162	1.684	C.2	1	UNK0	0.000	
9	   N	-1.773	0.080	2.113	N.2	1	UNK0	0.000	
10	   C	-2.740	0.825	1.484	C.2	1	UNK0	0.000	
11	   N	-3.408	0.277	0.448	N.pl3	1	UNK0	0.000	
12	   N	-4.281	1.192	0.018	N.pl3	1	UNK0	0.000	
13	   C	-4.186	2.297	0.747	C.2	1	UNK0	0.000	
14	   C	-3.198	2.105	1.711	C.2	1	UNK0	0.000	
15	   C	-3.196	-0.959	-0.022	C.2	1	UNK0	0.000	
16	   O	-3.818	-1.467	-0.986	O.2	1	UNK0	0.000	
17	   C	-0.486	-1.981	2.338	C.3	1	UNK0	0.000	
18	   C	2.027	-1.071	-0.314	C.2	1	UNK0	0.000	
19	   C	2.297	-1.543	-1.587	C.2	1	UNK0	0.000	
20	   C	2.443	-0.660	-2.646	C.2	1	UNK0	0.000	
21	   C	2.328	0.702	-2.489	C.2	1	UNK0	0.000	
22	   C	2.059	1.173	-1.222	C.2	1	UNK0	0.000	
23	   C	1.914	0.296	-0.170	C.2	1	UNK0	0.000	
24	   O	2.479	1.578	-3.576	O.3	1	UNK0	0.000	
25	   C	2.354	2.973	-3.374	C.3	1	UNK0	0.000	
26	  Cl	2.785	-1.275	-4.251	Cl	1	UNK0	0.000	
27	   H	0.124	-3.340	-0.641	 H	1	UNK0	0.000	
28	   H	-0.329	-4.482	0.657	 H	1	UNK0	0.000	
29	   H	-2.247	-3.346	-0.775	 H	1	UNK0	0.000	
30	   H	-2.440	-3.752	0.934	 H	1	UNK0	0.000	
31	   H	-4.949	1.070	-0.777	 H	1	UNK0	0.000	
32	   H	-4.751	3.200	0.645	 H	1	UNK0	0.000	
33	   H	-2.896	2.817	2.443	 H	1	UNK0	0.000	
34	   H	0.189	-1.405	2.981	 H	1	UNK0	0.000	
35	   H	-1.037	-2.774	2.924	 H	1	UNK0	0.000	
36	   H	2.385	-2.617	-1.700	 H	1	UNK0	0.000	
37	   H	1.965	2.259	-1.083	 H	1	UNK0	0.000	
38	   H	1.702	0.690	0.823	 H	1	UNK0	0.000	
39	   H	3.045	3.225	-2.519	 H	1	UNK0	0.000	
40	   H	2.781	3.524	-4.244	 H	1	UNK0	0.000	
41	   H	1.318	3.274	-3.158	 H	1	UNK0	0.000	
@<TRIPOS>BOND
1 1 2 2
2 1 3 2
3 1 4 1
4 1 18 1
5 4 5 1
6 4 17 1
7 5 6 1
8 6 7 1
9 7 8 2
10 7 15 1
11 8 9 1
12 8 17 1
13 9 10 2
14 10 11 1
15 10 14 1
16 11 12 1
17 11 15 1
18 12 13 1
19 13 14 2
20 15 16 2
21 18 19 2
22 18 23 1
23 19 20 1
24 20 21 2
25 20 26 1
26 21 22 1
27 21 24 1
28 22 23 2
29 24 25 1
30 5 27 1
31 5 28 1
32 6 29 1
33 6 30 1
34 12 31 1
35 13 32 1
36 14 33 1
37 17 34 1
38 17 35 1
39 19 36 1
40 22 37 1
41 23 38 1
42 25 39 1
43 25 40 1
44 25 41 1
@<TRIPOS>SUBSTRUCTURE
1	UNK0	1	GROUP	1 ****	UNK
# created with PyMOL 2.3.2
@<TRIPOS>MOLECULE
2270
41 43 1                 
SMALL
USER_CHARGES
@<TRIPOS>ATOM
1	  Cl	0.597	-2.164	-6.058	Cl	1	UNK0	0.000	
2	   C	0.589	-1.765	-4.342	C.2	1	UNK0	0.000	
3	   C	1.350	-2.514	-3.470	C.2	1	UNK0	0.000	
4	   C	1.331	-2.187	-2.133	C.2	1	UNK0	0.000	
5	   C	0.576	-1.129	-1.616	C.2	1	UNK0	0.000	
6	   C	-0.174	-0.393	-2.487	C.2	1	UNK0	0.000	
7	   C	-0.167	-0.711	-3.850	C.2	1	UNK0	0.000	
8	   C	0.646	-0.889	-0.197	C.2	1	UNK0	0.000	
9	   O	1.475	-1.544	0.496	O.2	1	UNK0	0.000	
10	   N	-0.220	0.079	0.398	N.pl3	1	UNK0	0.000	
11	   C	-0.119	0.289	1.812	C.3	1	UNK0	0.000	
12	   C	-1.025	1.288	2.413	C.3	1	UNK0	0.000	
13	   N	-2.432	1.062	2.286	N.3	1	UNK0	0.000	
14	   C	-3.014	1.523	3.570	C.3	1	UNK0	0.000	
15	   C	-2.351	2.886	3.805	C.3	1	UNK0	0.000	
16	   N	-1.879	3.483	2.572	N.3	1	UNK0	0.000	
17	   C	-0.773	2.724	1.983	C.3	1	UNK0	0.000	
18	   C	-2.965	3.378	1.613	C.3	1	UNK0	0.000	
19	   C	-3.098	1.892	1.303	C.3	1	UNK0	0.000	
20	   O	2.110	-3.570	-3.954	O.3	1	UNK0	0.000	
21	   C	2.903	-4.363	-3.092	C.3	1	UNK0	0.000	
22	   H	1.946	-2.803	-1.476	 H	1	UNK0	0.000	
23	   H	-0.773	0.429	-2.166	 H	1	UNK0	0.000	
24	   H	-0.769	-0.114	-4.521	 H	1	UNK0	0.000	
25	   H	-0.872	0.582	-0.203	 H	1	UNK0	0.000	
26	   H	-0.235	-0.665	2.346	 H	1	UNK0	0.000	
27	   H	0.933	0.651	2.001	 H	1	UNK0	0.000	
28	   H	-0.759	1.302	3.524	 H	1	UNK0	0.000	
29	   H	-2.668	0.789	4.320	 H	1	UNK0	0.000	
30	   H	-4.099	1.602	3.477	 H	1	UNK0	0.000	
31	   H	-3.172	3.538	4.171	 H	1	UNK0	0.000	
32	   H	-1.591	2.817	4.590	 H	1	UNK0	0.000	
33	   H	-0.812	2.874	0.904	 H	1	UNK0	0.000	
34	   H	0.191	3.077	2.412	 H	1	UNK0	0.000	
35	   H	-2.639	3.922	0.705	 H	1	UNK0	0.000	
36	   H	-3.853	3.807	2.090	 H	1	UNK0	0.000	
37	   H	-2.892	1.659	0.266	 H	1	UNK0	0.000	
38	   H	-4.205	1.687	1.458	 H	1	UNK0	0.000	
39	   H	2.204	-4.860	-2.386	 H	1	UNK0	0.000	
40	   H	3.575	-3.719	-2.466	 H	1	UNK0	0.000	
41	   H	3.446	-5.103	-3.679	 H	1	UNK0	0.000	
@<TRIPOS>BOND
1 1 2 1
2 2 3 2
3 2 7 1
4 3 4 1
5 3 20 1
6 4 5 2
7 5 6 1
8 5 8 1
9 6 7 2
10 8 9 2
11 8 10 1
12 10 11 1
13 11 12 1
14 12 13 1
15 12 17 1
16 13 14 1
17 13 19 1
18 14 15 1
19 15 16 1
20 16 17 1
21 16 18 1
22 18 19 1
23 20 21 1
24 4 22 1
25 6 23 1
26 7 24 1
27 10 25 1
28 11 26 1
29 11 27 1
30 12 28 1
31 14 29 1
32 14 30 1
33 15 31 1
34 15 32 1
35 17 33 1
36 17 34 1
37 18 35 1
38 18 36 1
39 19 37 1
40 19 38 1
41 21 39 1
42 21 40 1
43 21 41 1
@<TRIPOS>SUBSTRUCTURE
1	UNK0	1	GROUP	1 ****	UNK
# created with PyMOL 2.3.2
@<TRIPOS>MOLECULE
2271
47 50 1                 
SMALL
USER_CHARGES
@<TRIPOS>ATOM
1	  Cl	3.151	4.548	1.395	Cl	1	UNK0	0.000	
2	   C	1.713	3.579	1.196	C.2	1	UNK0	0.000	
3	   C	0.702	3.522	2.147	C.2	1	UNK0	0.000	
4	   C	-0.414	2.758	1.972	C.2	1	UNK0	0.000	
5	   C	-0.578	2.004	0.826	C.2	1	UNK0	0.000	
6	   C	0.417	2.056	-0.118	C.2	1	UNK0	0.000	
7	   C	1.549	2.832	0.062	C.2	1	UNK0	0.000	
8	   C	-1.786	1.221	0.662	C.3	1	UNK0	0.000	
9	   N	-1.799	-0.126	0.376	N.4	1	UNK0	0.000	
10	   C	-1.400	-0.219	-1.013	C.2	1	UNK0	0.000	
11	   C	-0.613	-0.978	-1.704	C.2	1	UNK0	0.000	
12	   C	-0.395	-0.836	-3.155	C.3	1	UNK0	0.000	
13	   C	-1.133	0.275	-3.813	C.3	1	UNK0	0.000	
14	   C	-2.337	0.747	-3.070	C.3	1	UNK0	0.000	
15	   N	-2.116	0.829	-1.642	N.pl3	1	UNK0	0.000	
16	   C	-2.474	1.797	-0.609	C.3	1	UNK0	0.000	
17	   C	-1.224	-1.103	1.174	C.2	1	UNK0	0.000	
18	   C	-0.538	-0.918	2.326	C.2	1	UNK0	0.000	
19	   C	-0.027	-2.009	3.027	C.2	1	UNK0	0.000	
20	   C	-0.190	-3.314	2.594	C.2	1	UNK0	0.000	
21	   C	-0.893	-3.471	1.418	C.2	1	UNK0	0.000	
22	   C	-1.407	-2.420	0.706	C.2	1	UNK0	0.000	
23	   O	0.335	-4.370	3.321	O.3	1	UNK0	0.000	
24	   C	0.156	-5.683	2.856	C.3	1	UNK0	0.000	
25	   O	-2.714	1.554	1.689	O.3	1	UNK0	0.000	
26	   H	0.858	4.130	3.047	 H	1	UNK0	0.000	
27	   H	-1.159	2.774	2.774	 H	1	UNK0	0.000	
28	   H	0.387	1.520	-1.053	 H	1	UNK0	0.000	
29	   H	2.341	2.869	-0.699	 H	1	UNK0	0.000	
30	   H	-2.845	-0.407	0.305	 H	1	UNK0	0.000	
31	   H	-0.047	-1.773	-1.232	 H	1	UNK0	0.000	
32	   H	-0.516	-1.815	-3.683	 H	1	UNK0	0.000	
33	   H	0.712	-0.624	-3.264	 H	1	UNK0	0.000	
34	   H	-1.462	-0.100	-4.825	 H	1	UNK0	0.000	
35	   H	-0.481	1.177	-3.983	 H	1	UNK0	0.000	
36	   H	-3.201	0.058	-3.296	 H	1	UNK0	0.000	
37	   H	-2.654	1.748	-3.421	 H	1	UNK0	0.000	
38	   H	-3.574	1.737	-0.484	 H	1	UNK0	0.000	
39	   H	-2.116	2.804	-0.834	 H	1	UNK0	0.000	
40	   H	-0.400	0.086	2.692	 H	1	UNK0	0.000	
41	   H	0.515	-1.790	3.947	 H	1	UNK0	0.000	
42	   H	-1.012	-4.511	1.094	 H	1	UNK0	0.000	
43	   H	-1.969	-2.621	-0.216	 H	1	UNK0	0.000	
44	   H	-0.907	-5.987	2.932	 H	1	UNK0	0.000	
45	   H	0.838	-6.398	3.364	 H	1	UNK0	0.000	
46	   H	0.422	-5.782	1.764	 H	1	UNK0	0.000	
47	   H	-3.605	1.306	1.331	 H	1	UNK0	0.000	
@<TRIPOS>BOND
1 1 2 1
2 2 3 2
3 2 7 1
4 3 4 1
5 4 5 2
6 5 6 1
7 5 8 1
8 6 7 2
9 8 9 1
10 8 16 1
11 8 25 1
12 9 10 1
13 9 17 1
14 10 11 2
15 10 15 1
16 11 12 1
17 12 13 1
18 13 14 1
19 14 15 1
20 15 16 1
21 17 18 2
22 17 22 1
23 18 19 1
24 19 20 2
25 20 21 1
26 20 23 1
27 21 22 2
28 23 24 1
29 3 26 1
30 4 27 1
31 6 28 1
32 7 29 1
33 9 30 1
34 11 31 1
35 12 32 1
36 12 33 1
37 13 34 1
38 13 35 1
39 14 36 1
40 14 37 1
41 16 38 1
42 16 39 1
43 18 40 1
44 19 41 1
45 21 42 1
46 22 43 1
47 24 44 1
48 24 45 1
49 24 46 1
50 25 47 1
@<TRIPOS>SUBSTRUCTURE
1	UNK0	1	GROUP	1 ****	UNK
# created with PyMOL 2.3.2
@<TRIPOS>MOLECULE
2272
51 54 1                 
SMALL
USER_CHARGES
@<TRIPOS>ATOM
1	  Cl	1.975	6.278	4.418	Cl	1	UNK0	0.000	
2	   C	0.985	4.966	3.828	C.2	1	UNK0	0.000	
3	   C	0.613	4.913	2.513	C.2	1	UNK0	0.000	
4	   C	-0.171	3.842	2.065	C.2	1	UNK0	0.000	
5	   C	-0.584	2.835	2.905	C.2	1	UNK0	0.000	
6	   C	-0.207	2.876	4.259	C.2	1	UNK0	0.000	
7	   C	0.568	3.949	4.667	C.2	1	UNK0	0.000	
8	   N	-1.300	1.939	2.231	N.pl3	1	UNK0	0.000	
9	   C	-1.332	2.408	0.938	C.2	1	UNK0	0.000	
10	   O	-1.922	1.842	-0.027	O.co2	1	UNK0	0.000	
11	   O	-0.654	3.528	0.892	O.3	1	UNK0	0.000	
12	   C	-2.013	0.749	2.662	C.3	1	UNK0	0.000	
13	   C	-1.222	-0.450	2.924	C.3	1	UNK0	0.000	
14	   C	-0.263	-0.961	1.975	C.2	1	UNK0	0.000	
15	   O	0.564	-0.083	1.517	O.2	1	UNK0	0.000	
16	   N	-0.086	-2.262	1.500	N.pl3	1	UNK0	0.000	
17	   C	-1.037	-3.368	1.719	C.3	1	UNK0	0.000	
18	   C	-1.572	-3.506	0.259	C.3	1	UNK0	0.000	
19	   N	-0.474	-3.990	-0.566	N.3	1	UNK0	0.000	
20	   C	0.818	-3.769	-0.209	C.3	1	UNK0	0.000	
21	   C	1.089	-2.673	0.782	C.3	1	UNK0	0.000	
22	   C	-0.974	-4.248	-1.832	C.3	1	UNK0	0.000	
23	   C	-1.121	-2.970	-2.659	C.2	1	UNK0	0.000	
24	   O	-1.869	-3.116	-3.700	O.2	1	UNK0	0.000	
25	   N	-0.512	-1.844	-2.306	N.pl3	1	UNK0	0.000	
26	   C	0.137	-0.646	-1.930	C.3	1	UNK0	0.000	
27	   C	0.945	0.055	-3.088	C.3	1	UNK0	0.000	
28	   C	1.649	-0.602	-2.003	C.3	1	UNK0	0.000	
29	   H	0.917	5.692	1.820	 H	1	UNK0	0.000	
30	   H	-0.542	2.093	4.883	 H	1	UNK0	0.000	
31	   H	0.850	3.979	5.707	 H	1	UNK0	0.000	
32	   H	-2.783	0.537	1.859	 H	1	UNK0	0.000	
33	   H	-2.579	1.113	3.582	 H	1	UNK0	0.000	
34	   H	-1.925	-1.340	3.148	 H	1	UNK0	0.000	
35	   H	-0.635	-0.267	3.894	 H	1	UNK0	0.000	
36	   H	-1.812	-3.167	2.420	 H	1	UNK0	0.000	
37	   H	-0.514	-4.306	1.980	 H	1	UNK0	0.000	
38	   H	-2.399	-4.213	0.231	 H	1	UNK0	0.000	
39	   H	-1.915	-2.556	-0.150	 H	1	UNK0	0.000	
40	   H	1.474	-3.579	-1.116	 H	1	UNK0	0.000	
41	   H	1.279	-4.755	0.200	 H	1	UNK0	0.000	
42	   H	1.643	-1.851	0.340	 H	1	UNK0	0.000	
43	   H	1.826	-3.143	1.534	 H	1	UNK0	0.000	
44	   H	-1.986	-4.712	-1.753	 H	1	UNK0	0.000	
45	   H	-0.369	-4.983	-2.444	 H	1	UNK0	0.000	
46	   H	-1.176	-1.140	-3.259	 H	1	UNK0	0.000	
47	   H	-0.444	0.167	-1.438	 H	1	UNK0	0.000	
48	   H	0.678	-0.335	-4.055	 H	1	UNK0	0.000	
49	   H	0.943	1.186	-3.056	 H	1	UNK0	0.000	
50	   H	2.207	-1.569	-2.147	 H	1	UNK0	0.000	
51	   H	2.214	0.052	-1.281	 H	1	UNK0	0.000	
@<TRIPOS>BOND
1 1 2 1
2 2 3 2
3 2 7 1
4 3 4 1
5 4 5 2
6 4 11 1
7 5 6 1
8 5 8 1
9 6 7 2
10 8 9 1
11 8 12 1
12 9 10 2
13 9 11 1
14 12 13 1
15 13 14 1
16 14 15 2
17 14 16 1
18 16 17 1
19 16 21 1
20 17 18 1
21 18 19 1
22 19 20 1
23 19 22 1
24 20 21 1
25 22 23 1
26 23 24 2
27 23 25 1
28 25 26 1
29 26 27 1
30 26 28 1
31 27 28 1
32 3 29 1
33 6 30 1
34 7 31 1
35 12 32 1
36 12 33 1
37 13 34 1
38 13 35 1
39 17 36 1
40 17 37 1
41 18 38 1
42 18 39 1
43 20 40 1
44 20 41 1
45 21 42 1
46 21 43 1
47 22 44 1
48 22 45 1
49 25 46 1
50 26 47 1
51 27 48 1
52 27 49 1
53 28 50 1
54 28 51 1
@<TRIPOS>SUBSTRUCTURE
1	UNK0	1	GROUP	1 ****	UNK
# created with PyMOL 2.3.2
@<TRIPOS>MOLECULE
2275
38 40 1                 
SMALL
USER_CHARGES
@<TRIPOS>ATOM
1	  Cl	-0.354	-0.314	-4.275	Cl	1	UNK0	0.000	
2	   C	-0.043	-0.120	-2.564	C.2	1	UNK0	0.000	
3	   C	0.148	-1.229	-1.766	C.2	1	UNK0	0.000	
4	   C	0.393	-1.001	-0.430	C.2	1	UNK0	0.000	
5	   O	0.583	-1.949	0.392	O.2	1	UNK0	0.000	
6	   N	0.436	0.255	0.039	N.pl3	1	UNK0	0.000	
7	   N	0.260	1.342	-0.686	N.pl3	1	UNK0	0.000	
8	   C	0.316	2.686	-0.136	C.3	1	UNK0	0.000	
9	   C	-0.895	3.013	0.712	C.3	1	UNK0	0.000	
10	   C	-0.732	2.447	2.112	C.3	1	UNK0	0.000	
11	   C	-0.595	0.942	2.084	C.3	1	UNK0	0.000	
12	   C	0.698	0.474	1.470	C.3	1	UNK0	0.000	
13	   C	1.677	1.591	1.544	C.2	1	UNK0	0.000	
14	   C	1.492	2.684	0.812	C.2	1	UNK0	0.000	
15	   C	0.015	1.143	-2.015	C.2	1	UNK0	0.000	
16	   O	-0.160	2.178	-2.743	O.2	1	UNK0	0.000	
17	   N	0.098	-2.563	-2.263	N.pl3	1	UNK0	0.000	
18	   C	-1.087	-3.376	-2.301	C.3	1	UNK0	0.000	
19	   C	-1.668	-3.597	-0.915	C.3	1	UNK0	0.000	
20	   C	-2.173	-2.847	-3.177	C.3	1	UNK0	0.000	
21	   H	0.463	3.444	-0.905	 H	1	UNK0	0.000	
22	   H	-1.843	2.714	0.248	 H	1	UNK0	0.000	
23	   H	-0.923	4.119	0.821	 H	1	UNK0	0.000	
24	   H	-1.666	2.671	2.663	 H	1	UNK0	0.000	
25	   H	0.156	2.904	2.577	 H	1	UNK0	0.000	
26	   H	-1.477	0.568	1.487	 H	1	UNK0	0.000	
27	   H	-0.752	0.550	3.108	 H	1	UNK0	0.000	
28	   H	1.083	-0.451	1.942	 H	1	UNK0	0.000	
29	   H	2.551	1.524	2.195	 H	1	UNK0	0.000	
30	   H	2.144	3.546	0.877	 H	1	UNK0	0.000	
31	   H	1.033	-2.930	-2.616	 H	1	UNK0	0.000	
32	   H	-0.806	-4.379	-2.678	 H	1	UNK0	0.000	
33	   H	-1.979	-2.631	-0.457	 H	1	UNK0	0.000	
34	   H	-2.585	-4.198	-1.048	 H	1	UNK0	0.000	
35	   H	-0.979	-4.165	-0.257	 H	1	UNK0	0.000	
36	   H	-3.058	-3.511	-3.027	 H	1	UNK0	0.000	
37	   H	-1.917	-2.866	-4.265	 H	1	UNK0	0.000	
38	   H	-2.490	-1.848	-2.849	 H	1	UNK0	0.000	
@<TRIPOS>BOND
1 1 2 1
2 2 3 2
3 2 15 1
4 3 4 1
5 3 17 1
6 4 5 2
7 4 6 1
8 6 7 1
9 6 12 1
10 7 8 1
11 7 15 1
12 8 9 1
13 8 14 1
14 9 10 1
15 10 11 1
16 11 12 1
17 12 13 1
18 13 14 2
19 15 16 2
20 17 18 1
21 18 19 1
22 18 20 1
23 8 21 1
24 9 22 1
25 9 23 1
26 10 24 1
27 10 25 1
28 11 26 1
29 11 27 1
30 12 28 1
31 13 29 1
32 14 30 1
33 17 31 1
34 18 32 1
35 19 33 1
36 19 34 1
37 19 35 1
38 20 36 1
39 20 37 1
40 20 38 1
@<TRIPOS>SUBSTRUCTURE
1	UNK0	1	GROUP	1 ****	UNK
# created with PyMOL 2.3.2
@<TRIPOS>MOLECULE
2276
36 39 1                 
SMALL
USER_CHARGES
@<TRIPOS>ATOM
1	  Cl	2.230	-3.102	1.134	Cl	1	UNK0	0.000	
2	   C	1.442	-1.666	0.511	C.2	1	UNK0	0.000	
3	   C	0.486	-1.827	-0.470	C.2	1	UNK0	0.000	
4	   C	-0.098	-0.638	-0.925	C.2	1	UNK0	0.000	
5	   O	-0.969	-0.725	-1.812	O.2	1	UNK0	0.000	
6	   N	0.264	0.550	-0.426	N.pl3	1	UNK0	0.000	
7	   N	1.183	0.697	0.516	N.pl3	1	UNK0	0.000	
8	   C	1.453	2.060	0.951	C.3	1	UNK0	0.000	
9	   C	1.852	2.837	-0.290	C.3	1	UNK0	0.000	
10	   C	0.868	2.647	-1.362	C.3	1	UNK0	0.000	
11	   C	-0.327	1.807	-0.891	C.3	1	UNK0	0.000	
12	   C	-0.820	2.468	0.366	C.2	1	UNK0	0.000	
13	   C	0.090	2.601	1.316	C.2	1	UNK0	0.000	
14	   C	1.065	4.022	-0.709	C.3	1	UNK0	0.000	
15	   C	1.771	-0.399	0.984	C.2	1	UNK0	0.000	
16	   O	2.645	-0.270	1.879	O.2	1	UNK0	0.000	
17	   N	0.087	-3.085	-1.007	N.pl3	1	UNK0	0.000	
18	   C	-0.977	-3.886	-0.522	C.3	1	UNK0	0.000	
19	   C	-0.833	-4.322	0.913	C.3	1	UNK0	0.000	
20	   C	-2.336	-3.209	-0.633	C.3	1	UNK0	0.000	
21	   H	2.165	2.131	1.766	 H	1	UNK0	0.000	
22	   H	2.940	2.895	-0.461	 H	1	UNK0	0.000	
23	   H	1.146	2.562	-2.429	 H	1	UNK0	0.000	
24	   H	-1.087	1.681	-1.647	 H	1	UNK0	0.000	
25	   H	-1.847	2.779	0.411	 H	1	UNK0	0.000	
26	   H	-0.038	3.041	2.286	 H	1	UNK0	0.000	
27	   H	1.561	4.802	-1.290	 H	1	UNK0	0.000	
28	   H	0.210	4.305	-0.031	 H	1	UNK0	0.000	
29	   H	0.643	-3.415	-1.824	 H	1	UNK0	0.000	
30	   H	-1.059	-4.813	-1.124	 H	1	UNK0	0.000	
31	   H	-0.027	-5.067	1.070	 H	1	UNK0	0.000	
32	   H	-1.771	-4.856	1.250	 H	1	UNK0	0.000	
33	   H	-0.692	-3.513	1.624	 H	1	UNK0	0.000	
34	   H	-3.078	-3.992	-0.303	 H	1	UNK0	0.000	
35	   H	-2.587	-2.999	-1.687	 H	1	UNK0	0.000	
36	   H	-2.457	-2.370	0.050	 H	1	UNK0	0.000	
@<TRIPOS>BOND
1 1 2 1
2 2 3 2
3 2 15 1
4 3 4 1
5 3 17 1
6 4 5 2
7 4 6 1
8 6 7 1
9 6 11 1
10 7 8 1
11 7 15 1
12 8 9 1
13 8 13 1
14 9 10 1
15 9 14 1
16 10 11 1
17 10 14 1
18 11 12 1
19 12 13 2
20 15 16 2
21 17 18 1
22 18 19 1
23 18 20 1
24 8 21 1
25 9 22 1
26 10 23 1
27 11 24 1
28 12 25 1
29 13 26 1
30 14 27 1
31 14 28 1
32 17 29 1
33 18 30 1
34 19 31 1
35 19 32 1
36 19 33 1
37 20 34 1
38 20 35 1
39 20 36 1
@<TRIPOS>SUBSTRUCTURE
1	UNK0	1	GROUP	1 ****	UNK
# created with PyMOL 2.3.2
@<TRIPOS>MOLECULE
2281
59 62 1                 
SMALL
USER_CHARGES
@<TRIPOS>ATOM
1	  Cl	-3.981	-1.119	-2.075	Cl	1	UNK0	0.000	
2	   C	-3.290	0.081	-0.910	C.2	1	UNK0	0.000	
3	   C	-3.323	-0.235	0.377	C.2	1	UNK0	0.000	
4	   C	-2.790	0.807	1.288	C.2	1	UNK0	0.000	
5	   N	-2.332	1.880	0.762	N.2	1	UNK0	0.000	
6	   N	-2.301	2.157	-0.568	N.pl3	1	UNK0	0.000	
7	   C	-2.774	1.278	-1.408	C.2	1	UNK0	0.000	
8	   O	-2.781	1.435	-2.676	O.2	1	UNK0	0.000	
9	   C	-1.496	3.305	-0.982	C.2	1	UNK0	0.000	
10	   C	-1.778	4.577	-0.600	C.2	1	UNK0	0.000	
11	   C	-0.933	5.622	-0.905	C.2	1	UNK0	0.000	
12	   C	0.244	5.400	-1.618	C.2	1	UNK0	0.000	
13	   C	0.503	4.085	-2.004	C.2	1	UNK0	0.000	
14	   C	-0.333	3.083	-1.697	C.2	1	UNK0	0.000	
15	   N	-3.484	-1.498	0.925	N.pl3	1	UNK0	0.000	
16	   C	-4.106	-2.010	2.072	C.3	1	UNK0	0.000	
17	   C	-2.997	-2.755	2.902	C.3	1	UNK0	0.000	
18	   N	-1.687	-2.564	2.522	N.3	1	UNK0	0.000	
19	   C	-1.388	-2.239	1.154	C.3	1	UNK0	0.000	
20	   C	-2.623	-2.560	0.250	C.3	1	UNK0	0.000	
21	   C	-0.775	-3.730	2.772	C.3	1	UNK0	0.000	
22	   C	0.608	-3.323	2.573	C.2	1	UNK0	0.000	
23	   O	1.594	-3.845	2.516	O.2	1	UNK0	0.000	
24	   N	0.690	-1.628	2.377	N.pl3	1	UNK0	0.000	
25	   C	2.101	-1.637	1.852	C.2	1	UNK0	0.000	
26	   O	2.958	-2.418	2.162	O.2	1	UNK0	0.000	
27	   N	2.283	-0.570	0.895	N.pl3	1	UNK0	0.000	
28	   C	3.449	-0.263	0.156	C.3	1	UNK0	0.000	
29	   C	4.424	-1.326	-0.147	C.3	1	UNK0	0.000	
30	   C	4.045	-1.923	-1.506	C.3	1	UNK0	0.000	
31	   C	3.505	-0.706	-2.220	C.3	1	UNK0	0.000	
32	   C	2.933	0.201	-1.222	C.3	1	UNK0	0.000	
33	   H	-2.881	0.486	2.302	 H	1	UNK0	0.000	
34	   H	-2.703	4.783	-0.062	 H	1	UNK0	0.000	
35	   H	-1.118	6.601	-0.585	 H	1	UNK0	0.000	
36	   H	0.876	6.235	-1.820	 H	1	UNK0	0.000	
37	   H	1.444	3.944	-2.538	 H	1	UNK0	0.000	
38	   H	-0.096	2.074	-2.009	 H	1	UNK0	0.000	
39	   H	-4.686	-1.349	2.702	 H	1	UNK0	0.000	
40	   H	-4.843	-2.786	1.719	 H	1	UNK0	0.000	
41	   H	-3.335	-3.836	2.854	 H	1	UNK0	0.000	
42	   H	-3.245	-2.492	3.976	 H	1	UNK0	0.000	
43	   H	-1.234	-1.150	0.953	 H	1	UNK0	0.000	
44	   H	-0.623	-2.902	0.757	 H	1	UNK0	0.000	
45	   H	-2.454	-2.389	-0.770	 H	1	UNK0	0.000	
46	   H	-2.973	-3.564	0.596	 H	1	UNK0	0.000	
47	   H	-1.034	-4.026	3.780	 H	1	UNK0	0.000	
48	   H	-1.053	-4.510	2.057	 H	1	UNK0	0.000	
49	   H	-0.034	-1.629	2.649	 H	1	UNK0	0.000	
50	   H	1.429	0.066	0.754	 H	1	UNK0	0.000	
51	   H	4.037	0.581	0.683	 H	1	UNK0	0.000	
52	   H	5.419	-0.845	-0.306	 H	1	UNK0	0.000	
53	   H	4.521	-2.120	0.622	 H	1	UNK0	0.000	
54	   H	3.248	-2.689	-1.396	 H	1	UNK0	0.000	
55	   H	4.944	-2.339	-2.033	 H	1	UNK0	0.000	
56	   H	2.642	-1.102	-2.868	 H	1	UNK0	0.000	
57	   H	4.235	-0.221	-2.899	 H	1	UNK0	0.000	
58	   H	3.063	1.290	-1.385	 H	1	UNK0	0.000	
59	   H	1.790	-0.012	-1.214	 H	1	UNK0	0.000	
@<TRIPOS>BOND
1 1 2 1
2 2 3 2
3 2 7 1
4 3 4 1
5 3 15 1
6 4 5 2
7 5 6 1
8 6 7 1
9 6 9 1
10 7 8 2
11 9 10 2
12 9 14 1
13 10 11 1
14 11 12 2
15 12 13 1
16 13 14 2
17 15 16 1
18 15 20 1
19 16 17 1
20 17 18 1
21 18 19 1
22 18 21 1
23 19 20 1
24 21 22 1
25 22 23 2
26 22 24 1
27 24 25 1
28 25 26 2
29 25 27 1
30 27 28 1
31 28 29 1
32 28 32 1
33 29 30 1
34 30 31 1
35 31 32 1
36 4 33 1
37 10 34 1
38 11 35 1
39 12 36 1
40 13 37 1
41 14 38 1
42 16 39 1
43 16 40 1
44 17 41 1
45 17 42 1
46 19 43 1
47 19 44 1
48 20 45 1
49 20 46 1
50 21 47 1
51 21 48 1
52 24 49 1
53 27 50 1
54 28 51 1
55 29 52 1
56 29 53 1
57 30 54 1
58 30 55 1
59 31 56 1
60 31 57 1
61 32 58 1
62 32 59 1
@<TRIPOS>SUBSTRUCTURE
1	UNK0	1	GROUP	1 ****	UNK
# created with PyMOL 2.3.2
@<TRIPOS>MOLECULE
2282
56 59 1                 
SMALL
USER_CHARGES
@<TRIPOS>ATOM
1	  Cl	1.179	0.970	-4.238	Cl	1	UNK0	0.000	
2	   C	0.611	-0.200	-3.066	C.2	1	UNK0	0.000	
3	   C	-0.292	0.250	-2.107	C.2	1	UNK0	0.000	
4	   C	-0.719	-0.697	-1.201	C.2	1	UNK0	0.000	
5	   N	-0.269	-1.962	-1.272	N.2	1	UNK0	0.000	
6	   N	0.587	-2.409	-2.174	N.pl3	1	UNK0	0.000	
7	   C	1.030	-1.516	-3.079	C.2	1	UNK0	0.000	
8	   O	1.849	-1.919	-3.952	O.2	1	UNK0	0.000	
9	   C	1.025	-3.774	-2.186	C.2	1	UNK0	0.000	
10	   C	0.103	-4.795	-2.169	C.2	1	UNK0	0.000	
11	   C	0.519	-6.131	-2.181	C.2	1	UNK0	0.000	
12	   C	1.854	-6.464	-2.210	C.2	1	UNK0	0.000	
13	   C	2.784	-5.448	-2.228	C.2	1	UNK0	0.000	
14	   C	2.358	-4.124	-2.215	C.2	1	UNK0	0.000	
15	   N	-0.734	1.598	-2.066	N.pl3	1	UNK0	0.000	
16	   C	0.170	2.708	-1.882	C.3	1	UNK0	0.000	
17	   C	-0.394	3.665	-0.879	C.3	1	UNK0	0.000	
18	   N	-1.511	3.012	-0.243	N.3	1	UNK0	0.000	
19	   C	-2.571	2.902	-1.179	C.3	1	UNK0	0.000	
20	   C	-2.143	1.861	-2.218	C.3	1	UNK0	0.000	
21	   C	-1.809	3.418	1.072	C.3	1	UNK0	0.000	
22	   C	-0.832	2.998	2.082	C.2	1	UNK0	0.000	
23	   O	-1.062	3.384	3.278	O.2	1	UNK0	0.000	
24	   N	0.324	2.213	1.854	N.pl3	1	UNK0	0.000	
25	   C	1.256	1.824	2.882	C.3	1	UNK0	0.000	
26	   C	0.548	1.003	3.915	C.3	1	UNK0	0.000	
27	   O	0.014	-0.111	3.324	O.3	1	UNK0	0.000	
28	   C	0.482	-1.252	3.916	C.3	1	UNK0	0.000	
29	   C	0.790	-0.810	5.331	C.3	1	UNK0	0.000	
30	   C	1.499	0.514	4.998	C.3	1	UNK0	0.000	
31	   H	-1.426	-0.371	-0.440	 H	1	UNK0	0.000	
32	   H	-0.960	-4.535	-2.146	 H	1	UNK0	0.000	
33	   H	-0.198	-6.935	-2.168	 H	1	UNK0	0.000	
34	   H	2.218	-7.497	-2.221	 H	1	UNK0	0.000	
35	   H	3.835	-5.714	-2.250	 H	1	UNK0	0.000	
36	   H	3.082	-3.319	-2.229	 H	1	UNK0	0.000	
37	   H	0.458	3.193	-2.837	 H	1	UNK0	0.000	
38	   H	1.153	2.352	-1.450	 H	1	UNK0	0.000	
39	   H	-0.836	4.541	-1.443	 H	1	UNK0	0.000	
40	   H	0.311	4.000	-0.116	 H	1	UNK0	0.000	
41	   H	-3.555	2.685	-0.747	 H	1	UNK0	0.000	
42	   H	-2.650	3.872	-1.726	 H	1	UNK0	0.000	
43	   H	-2.402	2.188	-3.256	 H	1	UNK0	0.000	
44	   H	-2.747	0.952	-1.975	 H	1	UNK0	0.000	
45	   H	-2.839	3.099	1.398	 H	1	UNK0	0.000	
46	   H	-1.837	4.550	1.072	 H	1	UNK0	0.000	
47	   H	0.502	1.892	0.881	 H	1	UNK0	0.000	
48	   H	1.707	2.724	3.380	 H	1	UNK0	0.000	
49	   H	2.069	1.243	2.422	 H	1	UNK0	0.000	
50	   H	-0.238	1.577	4.429	 H	1	UNK0	0.000	
51	   H	1.448	-1.528	3.450	 H	1	UNK0	0.000	
52	   H	-0.260	-2.068	3.883	 H	1	UNK0	0.000	
53	   H	1.423	-1.498	5.885	 H	1	UNK0	0.000	
54	   H	-0.162	-0.542	5.833	 H	1	UNK0	0.000	
55	   H	2.477	0.212	4.557	 H	1	UNK0	0.000	
56	   H	1.571	1.167	5.862	 H	1	UNK0	0.000	
@<TRIPOS>BOND
1 1 2 1
2 2 3 2
3 2 7 1
4 3 4 1
5 3 15 1
6 4 5 2
7 5 6 1
8 6 7 1
9 6 9 1
10 7 8 2
11 9 10 2
12 9 14 1
13 10 11 1
14 11 12 2
15 12 13 1
16 13 14 2
17 15 16 1
18 15 20 1
19 16 17 1
20 17 18 1
21 18 19 1
22 18 21 1
23 19 20 1
24 21 22 1
25 22 23 2
26 22 24 1
27 24 25 1
28 25 26 1
29 26 27 1
30 26 30 1
31 27 28 1
32 28 29 1
33 29 30 1
34 4 31 1
35 10 32 1
36 11 33 1
37 12 34 1
38 13 35 1
39 14 36 1
40 16 37 1
41 16 38 1
42 17 39 1
43 17 40 1
44 19 41 1
45 19 42 1
46 20 43 1
47 20 44 1
48 21 45 1
49 21 46 1
50 24 47 1
51 25 48 1
52 25 49 1
53 26 50 1
54 28 51 1
55 28 52 1
56 29 53 1
57 29 54 1
58 30 55 1
59 30 56 1
@<TRIPOS>SUBSTRUCTURE
1	UNK0	1	GROUP	1 ****	UNK
# created with PyMOL 2.3.2
@<TRIPOS>MOLECULE
2284
50 54 1                 
SMALL
USER_CHARGES
@<TRIPOS>ATOM
1	   S	0.206	0.878	4.773	S.O2	1	UNK0	0.000	
2	   O	-0.281	1.210	6.180	O.2	1	UNK0	0.000	
3	   O	1.661	1.247	4.641	O.2	1	UNK0	0.000	
4	   N	-0.756	1.672	3.679	N.3	1	UNK0	0.000	
5	   C	-2.147	1.539	3.700	C.3	1	UNK0	0.000	
6	   C	-2.736	1.773	2.305	C.3	1	UNK0	0.000	
7	   N	-2.041	0.969	1.381	N.3	1	UNK0	0.000	
8	   C	-0.646	1.192	1.338	C.3	1	UNK0	0.000	
9	   C	-0.234	2.122	2.457	C.3	1	UNK0	0.000	
10	   C	-2.673	0.747	0.120	C.3	1	UNK0	0.000	
11	   C	-1.796	-0.115	-0.708	C.2	1	UNK0	0.000	
12	   C	-1.882	-1.493	-0.692	C.2	1	UNK0	0.000	
13	   C	-1.095	-2.332	-1.439	C.2	1	UNK0	0.000	
14	   O	-1.268	-3.591	-1.339	O.2	1	UNK0	0.000	
15	   N	-0.147	-1.804	-2.269	N.pl3	1	UNK0	0.000	
16	   N	0.645	-2.469	-3.012	N.2	1	UNK0	0.000	
17	   C	1.527	-1.901	-3.780	C.2	1	UNK0	0.000	
18	   S	1.204	-0.244	-3.415	S.3	1	UNK0	0.000	
19	   C	-0.066	-0.472	-2.282	C.2	1	UNK0	0.000	
20	   N	-0.844	0.351	-1.545	N.2	1	UNK0	0.000	
21	   C	2.525	-2.453	-4.704	C.2	1	UNK0	0.000	
22	   C	3.338	-1.582	-5.397	C.2	1	UNK0	0.000	
23	   C	4.301	-2.041	-6.285	C.2	1	UNK0	0.000	
24	   C	4.457	-3.397	-6.485	C.2	1	UNK0	0.000	
25	   C	3.652	-4.291	-5.800	C.2	1	UNK0	0.000	
26	   C	2.711	-3.788	-4.931	C.2	1	UNK0	0.000	
27	  Cl	5.656	-3.985	-7.591	Cl	1	UNK0	0.000	
28	   C	0.039	-0.857	4.622	C.2	1	UNK0	0.000	
29	   N	0.669	-1.805	5.370	N.2	1	UNK0	0.000	
30	   C	0.304	-3.025	4.972	C.2	1	UNK0	0.000	
31	   N	-0.570	-2.923	3.961	N.pl3	1	UNK0	0.000	
32	   C	-0.730	-1.588	3.749	C.2	1	UNK0	0.000	
33	   H	-2.553	2.340	4.397	 H	1	UNK0	0.000	
34	   H	-2.556	0.562	4.045	 H	1	UNK0	0.000	
35	   H	-2.561	2.845	2.076	 H	1	UNK0	0.000	
36	   H	-3.832	1.580	2.313	 H	1	UNK0	0.000	
37	   H	-0.126	0.227	1.536	 H	1	UNK0	0.000	
38	   H	-0.297	1.646	0.375	 H	1	UNK0	0.000	
39	   H	0.894	2.182	2.516	 H	1	UNK0	0.000	
40	   H	-0.573	3.161	2.253	 H	1	UNK0	0.000	
41	   H	-2.779	1.727	-0.388	 H	1	UNK0	0.000	
42	   H	-3.623	0.230	0.280	 H	1	UNK0	0.000	
43	   H	-2.657	-1.904	-0.013	 H	1	UNK0	0.000	
44	   H	3.260	-0.512	-5.279	 H	1	UNK0	0.000	
45	   H	4.953	-1.384	-6.843	 H	1	UNK0	0.000	
46	   H	3.774	-5.354	-5.957	 H	1	UNK0	0.000	
47	   H	2.092	-4.491	-4.404	 H	1	UNK0	0.000	
48	   H	0.660	-3.951	5.403	 H	1	UNK0	0.000	
49	   H	-1.024	-3.699	3.452	 H	1	UNK0	0.000	
50	   H	-1.381	-1.204	2.987	 H	1	UNK0	0.000	
@<TRIPOS>BOND
1 1 2 2
2 1 3 2
3 1 4 1
4 1 28 1
5 4 5 1
6 4 9 1
7 5 6 1
8 6 7 1
9 7 8 1
10 7 10 1
11 8 9 1
12 10 11 1
13 11 12 2
14 11 20 1
15 12 13 1
16 13 14 2
17 13 15 1
18 15 16 1
19 15 19 1
20 16 17 2
21 17 18 1
22 17 21 1
23 18 19 1
24 19 20 2
25 21 22 2
26 21 26 1
27 22 23 1
28 23 24 2
29 24 25 1
30 24 27 1
31 25 26 2
32 28 29 1
33 28 32 2
34 29 30 2
35 30 31 1
36 31 32 1
37 5 33 1
38 5 34 1
39 6 35 1
40 6 36 1
41 8 37 1
42 8 38 1
43 9 39 1
44 9 40 1
45 10 41 1
46 10 42 1
47 12 43 1
48 22 44 1
49 23 45 1
50 25 46 1
51 26 47 1
52 30 48 1
53 31 49 1
54 32 50 1
@<TRIPOS>SUBSTRUCTURE
1	UNK0	1	GROUP	1 ****	UNK
# created with PyMOL 2.3.2
@<TRIPOS>MOLECULE
2285
55 58 1                 
SMALL
USER_CHARGES
@<TRIPOS>ATOM
1	   S	-1.411	-2.570	-1.523	S.O2	1	UNK0	0.000	
2	   O	-0.282	-3.556	-1.756	O.2	1	UNK0	0.000	
3	   O	-2.532	-2.861	-2.456	O.2	1	UNK0	0.000	
4	   N	-1.983	-2.822	0.143	N.3	1	UNK0	0.000	
5	   C	-0.820	-2.696	0.970	C.3	1	UNK0	0.000	
6	   C	-1.126	-2.310	2.429	C.3	1	UNK0	0.000	
7	   N	-1.890	-1.103	2.378	N.3	1	UNK0	0.000	
8	   C	-3.171	-1.416	1.808	C.3	1	UNK0	0.000	
9	   C	-2.883	-1.633	0.348	C.3	1	UNK0	0.000	
10	   C	-1.714	-0.145	3.361	C.3	1	UNK0	0.000	
11	   C	-0.389	0.467	3.483	C.2	1	UNK0	0.000	
12	   O	-0.333	1.362	4.437	O.2	1	UNK0	0.000	
13	   N	0.778	0.271	2.802	N.pl3	1	UNK0	0.000	
14	   C	2.059	0.898	3.135	C.3	1	UNK0	0.000	
15	   C	3.047	0.556	2.092	C.2	1	UNK0	0.000	
16	   C	4.175	-0.242	2.392	C.2	1	UNK0	0.000	
17	   C	5.166	-0.463	1.514	C.2	1	UNK0	0.000	
18	   C	5.115	0.113	0.206	C.2	1	UNK0	0.000	
19	   C	4.060	0.878	-0.091	C.2	1	UNK0	0.000	
20	   C	3.015	1.128	0.807	C.2	1	UNK0	0.000	
21	  Cl	4.257	-0.995	4.004	Cl	1	UNK0	0.000	
22	   C	-0.816	-0.975	-1.767	C.2	1	UNK0	0.000	
23	   C	-1.797	-0.006	-2.017	C.2	1	UNK0	0.000	
24	   C	-1.517	1.357	-2.145	C.2	1	UNK0	0.000	
25	   C	-0.194	1.769	-2.016	C.2	1	UNK0	0.000	
26	   C	0.763	0.800	-1.776	C.2	1	UNK0	0.000	
27	   C	0.472	-0.552	-1.647	C.2	1	UNK0	0.000	
28	   O	0.010	3.130	-2.148	O.3	1	UNK0	0.000	
29	   C	-0.986	4.013	-1.565	C.3	1	UNK0	0.000	
30	   C	-2.386	3.558	-1.812	C.3	1	UNK0	0.000	
31	   O	-2.513	2.285	-2.397	O.3	1	UNK0	0.000	
32	   H	-0.392	-3.755	1.051	 H	1	UNK0	0.000	
33	   H	0.023	-2.092	0.608	 H	1	UNK0	0.000	
34	   H	-1.707	-3.112	2.885	 H	1	UNK0	0.000	
35	   H	-0.229	-2.131	3.005	 H	1	UNK0	0.000	
36	   H	-3.575	-2.336	2.218	 H	1	UNK0	0.000	
37	   H	-3.843	-0.518	1.855	 H	1	UNK0	0.000	
38	   H	-2.242	-0.760	-0.010	 H	1	UNK0	0.000	
39	   H	-3.783	-1.826	-0.200	 H	1	UNK0	0.000	
40	   H	-1.923	-0.731	4.357	 H	1	UNK0	0.000	
41	   H	-2.523	0.632	3.429	 H	1	UNK0	0.000	
42	   H	0.889	-0.396	1.968	 H	1	UNK0	0.000	
43	   H	1.827	2.013	2.970	 H	1	UNK0	0.000	
44	   H	2.344	0.673	4.138	 H	1	UNK0	0.000	
45	   H	5.993	-1.067	1.774	 H	1	UNK0	0.000	
46	   H	5.910	-0.077	-0.474	 H	1	UNK0	0.000	
47	   H	3.975	1.354	-1.073	 H	1	UNK0	0.000	
48	   H	2.220	1.771	0.517	 H	1	UNK0	0.000	
49	   H	-2.840	-0.362	-2.135	 H	1	UNK0	0.000	
50	   H	1.757	1.155	-1.705	 H	1	UNK0	0.000	
51	   H	1.254	-1.255	-1.444	 H	1	UNK0	0.000	
52	   H	-0.723	4.040	-0.456	 H	1	UNK0	0.000	
53	   H	-0.849	5.013	-1.977	 H	1	UNK0	0.000	
54	   H	-2.912	4.272	-2.455	 H	1	UNK0	0.000	
55	   H	-2.891	3.553	-0.805	 H	1	UNK0	0.000	
@<TRIPOS>BOND
1 1 2 2
2 1 3 2
3 1 4 1
4 1 22 1
5 4 5 1
6 4 9 1
7 5 6 1
8 6 7 1
9 7 8 1
10 7 10 1
11 8 9 1
12 10 11 1
13 11 12 2
14 11 13 1
15 13 14 1
16 14 15 1
17 15 16 2
18 15 20 1
19 16 17 1
20 16 21 1
21 17 18 2
22 18 19 1
23 19 20 2
24 22 23 2
25 22 27 1
26 23 24 1
27 24 25 2
28 24 31 1
29 25 26 1
30 25 28 1
31 26 27 2
32 28 29 1
33 29 30 1
34 30 31 1
35 5 32 1
36 5 33 1
37 6 34 1
38 6 35 1
39 8 36 1
40 8 37 1
41 9 38 1
42 9 39 1
43 10 40 1
44 10 41 1
45 13 42 1
46 14 43 1
47 14 44 1
48 17 45 1
49 18 46 1
50 19 47 1
51 20 48 1
52 23 49 1
53 26 50 1
54 27 51 1
55 29 52 1
56 29 53 1
57 30 54 1
58 30 55 1
@<TRIPOS>SUBSTRUCTURE
1	UNK0	1	GROUP	1 ****	UNK
# created with PyMOL 2.3.2
@<TRIPOS>MOLECULE
2286
56 59 1                 
SMALL
USER_CHARGES
@<TRIPOS>ATOM
1	   S	-5.539	0.076	1.360	S.O2	1	UNK0	0.000	
2	   O	-6.272	-1.230	1.387	O.2	1	UNK0	0.000	
3	   O	-6.355	1.084	2.114	O.2	1	UNK0	0.000	
4	   N	-5.301	0.556	-0.265	N.3	1	UNK0	0.000	
5	   C	-4.680	1.820	-0.429	C.3	1	UNK0	0.000	
6	   C	-3.175	1.773	-0.433	C.3	1	UNK0	0.000	
7	   N	-2.666	0.618	-1.142	N.pl3	1	UNK0	0.000	
8	   C	-3.631	-0.125	-1.930	C.3	1	UNK0	0.000	
9	   C	-4.853	-0.484	-1.121	C.3	1	UNK0	0.000	
10	   C	-1.311	0.280	-1.039	C.2	1	UNK0	0.000	
11	   O	-0.557	0.989	-0.331	O.2	1	UNK0	0.000	
12	   C	-0.727	-0.892	-1.741	C.3	1	UNK0	0.000	
13	   N	0.679	-1.033	-1.482	N.pl3	1	UNK0	0.000	
14	   C	1.227	-1.785	-0.410	C.2	1	UNK0	0.000	
15	   O	0.539	-2.426	0.454	O.2	1	UNK0	0.000	
16	   N	2.648	-1.739	-0.410	N.pl3	1	UNK0	0.000	
17	   C	3.034	-0.739	-1.388	C.3	1	UNK0	0.000	
18	   C	4.092	-1.240	-2.328	C.3	1	UNK0	0.000	
19	   C	5.489	-1.094	-1.801	C.3	1	UNK0	0.000	
20	   C	5.799	0.280	-1.284	C.3	1	UNK0	0.000	
21	   C	4.596	1.197	-1.320	C.3	1	UNK0	0.000	
22	   C	3.456	0.491	-0.620	C.3	1	UNK0	0.000	
23	   C	1.799	-0.500	-2.176	C.2	1	UNK0	0.000	
24	   O	1.715	0.079	-3.285	O.2	1	UNK0	0.000	
25	   C	3.528	-2.556	0.425	C.3	1	UNK0	0.000	
26	   C	-4.001	-0.077	2.226	C.2	1	UNK0	0.000	
27	   S	-2.684	-1.093	1.880	S.3	1	UNK0	0.000	
28	   C	-1.645	-0.641	3.148	C.2	1	UNK0	0.000	
29	   C	-2.364	0.309	3.823	C.2	1	UNK0	0.000	
30	   C	-3.593	0.603	3.341	C.2	1	UNK0	0.000	
31	  Cl	-0.016	-1.235	3.536	Cl	1	UNK0	0.000	
32	   H	-4.974	2.465	0.437	 H	1	UNK0	0.000	
33	   H	-5.032	2.299	-1.363	 H	1	UNK0	0.000	
34	   H	-2.745	1.846	0.587	 H	1	UNK0	0.000	
35	   H	-2.828	2.673	-1.004	 H	1	UNK0	0.000	
36	   H	-3.178	-1.077	-2.289	 H	1	UNK0	0.000	
37	   H	-3.944	0.440	-2.819	 H	1	UNK0	0.000	
38	   H	-4.723	-1.471	-0.595	 H	1	UNK0	0.000	
39	   H	-5.671	-0.684	-1.873	 H	1	UNK0	0.000	
40	   H	-0.869	-0.810	-2.825	 H	1	UNK0	0.000	
41	   H	-1.313	-1.777	-1.410	 H	1	UNK0	0.000	
42	   H	3.929	-2.310	-2.558	 H	1	UNK0	0.000	
43	   H	4.004	-0.658	-3.277	 H	1	UNK0	0.000	
44	   H	6.179	-1.322	-2.655	 H	1	UNK0	0.000	
45	   H	5.680	-1.871	-1.036	 H	1	UNK0	0.000	
46	   H	6.203	0.178	-0.255	 H	1	UNK0	0.000	
47	   H	6.593	0.775	-1.911	 H	1	UNK0	0.000	
48	   H	4.843	2.122	-0.783	 H	1	UNK0	0.000	
49	   H	4.316	1.370	-2.364	 H	1	UNK0	0.000	
50	   H	2.629	1.215	-0.484	 H	1	UNK0	0.000	
51	   H	3.801	0.202	0.395	 H	1	UNK0	0.000	
52	   H	4.299	-1.936	0.925	 H	1	UNK0	0.000	
53	   H	2.923	-3.068	1.179	 H	1	UNK0	0.000	
54	   H	3.955	-3.337	-0.237	 H	1	UNK0	0.000	
55	   H	-1.936	0.809	4.731	 H	1	UNK0	0.000	
56	   H	-4.237	1.374	3.847	 H	1	UNK0	0.000	
@<TRIPOS>BOND
1 1 2 2
2 1 3 2
3 1 4 1
4 1 26 1
5 4 5 1
6 4 9 1
7 5 6 1
8 6 7 1
9 7 8 1
10 7 10 1
11 8 9 1
12 10 11 2
13 10 12 1
14 12 13 1
15 13 14 1
16 13 23 1
17 14 15 2
18 14 16 1
19 16 17 1
20 16 25 1
21 17 18 1
22 17 22 1
23 17 23 1
24 18 19 1
25 19 20 1
26 20 21 1
27 21 22 1
28 23 24 2
29 26 27 1
30 26 30 2
31 27 28 1
32 28 29 2
33 28 31 1
34 29 30 1
35 5 32 1
36 5 33 1
37 6 34 1
38 6 35 1
39 8 36 1
40 8 37 1
41 9 38 1
42 9 39 1
43 12 40 1
44 12 41 1
45 18 42 1
46 18 43 1
47 19 44 1
48 19 45 1
49 20 46 1
50 20 47 1
51 21 48 1
52 21 49 1
53 22 50 1
54 22 51 1
55 25 52 1
56 25 53 1
57 25 54 1
58 29 55 1
59 30 56 1
@<TRIPOS>SUBSTRUCTURE
1	UNK0	1	GROUP	1 ****	UNK
# created with PyMOL 2.3.2
@<TRIPOS>MOLECULE
2298
68 71 1                 
SMALL
USER_CHARGES
@<TRIPOS>ATOM
1	   S	3.664	4.744	-0.434	S.O2	1	UNK0	0.000	
2	   O	4.813	4.354	0.463	O.2	1	UNK0	0.000	
3	   O	4.038	6.094	-1.004	O.2	1	UNK0	0.000	
4	   N	3.292	3.600	-1.581	N.3	1	UNK0	0.000	
5	   C	2.276	3.747	-2.502	C.3	1	UNK0	0.000	
6	   C	1.398	2.525	-2.527	C.3	1	UNK0	0.000	
7	   N	2.075	1.278	-2.510	N.3	1	UNK0	0.000	
8	   C	3.483	1.443	-2.679	C.3	1	UNK0	0.000	
9	   C	4.030	2.413	-1.636	C.3	1	UNK0	0.000	
10	   C	1.754	0.450	-1.384	C.3	1	UNK0	0.000	
11	   C	0.333	-0.031	-1.453	C.2	1	UNK0	0.000	
12	   O	-0.341	0.336	-2.440	O.2	1	UNK0	0.000	
13	   N	-0.214	-0.863	-0.444	N.pl3	1	UNK0	0.000	
14	   C	-1.580	-1.274	-0.591	C.3	1	UNK0	0.000	
15	   C	-2.134	-2.135	0.478	C.3	1	UNK0	0.000	
16	   C	-1.327	-3.407	0.568	C.3	1	UNK0	0.000	
17	   C	-1.903	-4.521	-0.312	C.3	1	UNK0	0.000	
18	   C	-3.243	-4.976	0.231	C.3	1	UNK0	0.000	
19	   C	-3.905	-3.769	0.870	C.3	1	UNK0	0.000	
20	   C	-3.532	-2.582	0.007	C.3	1	UNK0	0.000	
21	   N	-2.311	-1.572	1.761	N.3	1	UNK0	0.000	
22	   C	-1.163	-1.127	2.468	C.3	1	UNK0	0.000	
23	   C	-1.598	-0.994	3.939	C.3	1	UNK0	0.000	
24	   O	-2.575	-0.035	4.057	O.3	1	UNK0	0.000	
25	   C	-2.959	0.534	2.869	C.3	1	UNK0	0.000	
26	   C	-3.300	-0.517	1.812	C.3	1	UNK0	0.000	
27	   C	2.286	4.989	0.635	C.2	1	UNK0	0.000	
28	   C	2.153	4.279	1.796	C.2	1	UNK0	0.000	
29	   C	1.083	4.466	2.631	C.2	1	UNK0	0.000	
30	   C	0.122	5.391	2.286	C.2	1	UNK0	0.000	
31	   C	0.253	6.110	1.113	C.2	1	UNK0	0.000	
32	   C	1.329	5.915	0.285	C.2	1	UNK0	0.000	
33	  Cl	-1.236	5.607	3.376	Cl	1	UNK0	0.000	
34	   H	2.603	3.895	-3.572	 H	1	UNK0	0.000	
35	   H	1.604	4.625	-2.309	 H	1	UNK0	0.000	
36	   H	0.782	2.565	-3.464	 H	1	UNK0	0.000	
37	   H	0.665	2.641	-1.700	 H	1	UNK0	0.000	
38	   H	3.695	1.891	-3.691	 H	1	UNK0	0.000	
39	   H	3.989	0.483	-2.530	 H	1	UNK0	0.000	
40	   H	4.068	1.858	-0.654	 H	1	UNK0	0.000	
41	   H	5.107	2.614	-1.910	 H	1	UNK0	0.000	
42	   H	1.985	0.919	-0.406	 H	1	UNK0	0.000	
43	   H	2.374	-0.469	-1.443	 H	1	UNK0	0.000	
44	   H	0.410	-1.138	0.361	 H	1	UNK0	0.000	
45	   H	-2.181	-0.344	-0.707	 H	1	UNK0	0.000	
46	   H	-1.682	-1.867	-1.551	 H	1	UNK0	0.000	
47	   H	-1.330	-3.830	1.605	 H	1	UNK0	0.000	
48	   H	-0.287	-3.260	0.200	 H	1	UNK0	0.000	
49	   H	-1.201	-5.373	-0.242	 H	1	UNK0	0.000	
50	   H	-1.955	-4.222	-1.373	 H	1	UNK0	0.000	
51	   H	-3.864	-5.328	-0.619	 H	1	UNK0	0.000	
52	   H	-3.076	-5.789	0.941	 H	1	UNK0	0.000	
53	   H	-5.015	-3.882	0.920	 H	1	UNK0	0.000	
54	   H	-3.487	-3.601	1.883	 H	1	UNK0	0.000	
55	   H	-4.281	-1.807	0.146	 H	1	UNK0	0.000	
56	   H	-3.500	-2.832	-1.074	 H	1	UNK0	0.000	
57	   H	-0.334	-1.865	2.499	 H	1	UNK0	0.000	
58	   H	-0.780	-0.126	2.190	 H	1	UNK0	0.000	
59	   H	-2.076	-1.983	4.188	 H	1	UNK0	0.000	
60	   H	-0.729	-0.836	4.581	 H	1	UNK0	0.000	
61	   H	-2.226	1.280	2.462	 H	1	UNK0	0.000	
62	   H	-3.902	1.115	3.028	 H	1	UNK0	0.000	
63	   H	-4.274	-0.959	2.097	 H	1	UNK0	0.000	
64	   H	-3.418	0.038	0.865	 H	1	UNK0	0.000	
65	   H	2.911	3.536	2.087	 H	1	UNK0	0.000	
66	   H	0.988	3.892	3.554	 H	1	UNK0	0.000	
67	   H	-0.516	6.840	0.853	 H	1	UNK0	0.000	
68	   H	1.409	6.495	-0.637	 H	1	UNK0	0.000	
@<TRIPOS>BOND
1 1 2 2
2 1 3 2
3 1 4 1
4 1 27 1
5 4 5 1
6 4 9 1
7 5 6 1
8 6 7 1
9 7 8 1
10 7 10 1
11 8 9 1
12 10 11 1
13 11 12 2
14 11 13 1
15 13 14 1
16 14 15 1
17 15 16 1
18 15 20 1
19 15 21 1
20 16 17 1
21 17 18 1
22 18 19 1
23 19 20 1
24 21 22 1
25 21 26 1
26 22 23 1
27 23 24 1
28 24 25 1
29 25 26 1
30 27 28 2
31 27 32 1
32 28 29 1
33 29 30 2
34 30 31 1
35 30 33 1
36 31 32 2
37 5 34 1
38 5 35 1
39 6 36 1
40 6 37 1
41 8 38 1
42 8 39 1
43 9 40 1
44 9 41 1
45 10 42 1
46 10 43 1
47 13 44 1
48 14 45 1
49 14 46 1
50 16 47 1
51 16 48 1
52 17 49 1
53 17 50 1
54 18 51 1
55 18 52 1
56 19 53 1
57 19 54 1
58 20 55 1
59 20 56 1
60 22 57 1
61 22 58 1
62 23 59 1
63 23 60 1
64 25 61 1
65 25 62 1
66 26 63 1
67 26 64 1
68 28 65 1
69 29 66 1
70 31 67 1
71 32 68 1
@<TRIPOS>SUBSTRUCTURE
1	UNK0	1	GROUP	1 ****	UNK
# created with PyMOL 2.3.2
@<TRIPOS>MOLECULE
2301
38 41 1                 
SMALL
USER_CHARGES
@<TRIPOS>ATOM
1	  Cl	-1.327	-5.979	0.541	Cl	1	UNK0	0.000	
2	   C	-0.654	-4.397	0.206	C.2	1	UNK0	0.000	
3	   C	-1.240	-3.521	-0.698	C.2	1	UNK0	0.000	
4	   C	-0.739	-2.283	-0.991	C.2	1	UNK0	0.000	
5	   C	0.401	-1.855	-0.374	C.2	1	UNK0	0.000	
6	   C	1.012	-2.711	0.541	C.2	1	UNK0	0.000	
7	   C	0.491	-3.959	0.823	C.2	1	UNK0	0.000	
8	   C	1.057	-0.554	-0.584	C.3	1	UNK0	0.000	
9	   C	1.197	0.152	0.724	C.3	1	UNK0	0.000	
10	   C	-0.140	0.792	1.137	C.3	1	UNK0	0.000	
11	   N	-0.348	1.807	0.094	N.pl3	1	UNK0	0.000	
12	   C	-0.574	1.276	-1.213	C.3	1	UNK0	0.000	
13	   C	0.469	0.290	-1.652	C.3	1	UNK0	0.000	
14	   C	-0.307	3.175	0.456	C.2	1	UNK0	0.000	
15	   N	-0.201	3.515	1.752	N.2	1	UNK0	0.000	
16	   N	-0.142	4.749	2.213	N.pl3	1	UNK0	0.000	
17	   N	-0.034	5.302	3.424	N.2	1	UNK0	0.000	
18	   N	-0.016	6.613	3.334	N.2	1	UNK0	0.000	
19	   N	-0.109	6.919	2.069	N.2	1	UNK0	0.000	
20	   C	-0.189	5.768	1.357	C.2	1	UNK0	0.000	
21	   C	-0.298	5.496	0.004	C.2	1	UNK0	0.000	
22	   C	-0.359	4.199	-0.460	C.2	1	UNK0	0.000	
23	   O	2.378	-0.880	-0.985	O.3	1	UNK0	0.000	
24	   H	-2.137	-3.835	-1.203	 H	1	UNK0	0.000	
25	   H	-1.201	-1.599	-1.692	 H	1	UNK0	0.000	
26	   H	1.912	-2.457	1.072	 H	1	UNK0	0.000	
27	   H	0.991	-4.631	1.548	 H	1	UNK0	0.000	
28	   H	1.480	-0.544	1.540	 H	1	UNK0	0.000	
29	   H	1.940	0.967	0.710	 H	1	UNK0	0.000	
30	   H	-0.051	1.249	2.132	 H	1	UNK0	0.000	
31	   H	-0.981	0.089	1.058	 H	1	UNK0	0.000	
32	   H	-1.557	0.716	-1.168	 H	1	UNK0	0.000	
33	   H	-0.690	2.060	-1.985	 H	1	UNK0	0.000	
34	   H	1.308	0.922	-2.080	 H	1	UNK0	0.000	
35	   H	0.101	-0.289	-2.510	 H	1	UNK0	0.000	
36	   H	-0.333	6.345	-0.657	 H	1	UNK0	0.000	
37	   H	-0.444	3.987	-1.511	 H	1	UNK0	0.000	
38	   H	2.748	-0.064	-1.444	 H	1	UNK0	0.000	
@<TRIPOS>BOND
1 1 2 1
2 2 3 2
3 2 7 1
4 3 4 1
5 4 5 2
6 5 6 1
7 5 8 1
8 6 7 2
9 8 9 1
10 8 13 1
11 8 23 1
12 9 10 1
13 10 11 1
14 11 12 1
15 11 14 1
16 12 13 1
17 14 15 2
18 14 22 1
19 15 16 1
20 16 17 1
21 16 20 1
22 17 18 2
23 18 19 1
24 19 20 2
25 20 21 1
26 21 22 2
27 3 24 1
28 4 25 1
29 6 26 1
30 7 27 1
31 9 28 1
32 9 29 1
33 10 30 1
34 10 31 1
35 12 32 1
36 12 33 1
37 13 34 1
38 13 35 1
39 21 36 1
40 22 37 1
41 23 38 1
@<TRIPOS>SUBSTRUCTURE
1	UNK0	1	GROUP	1 ****	UNK
# created with PyMOL 2.3.2
@<TRIPOS>MOLECULE
2304
50 53 1                 
SMALL
USER_CHARGES
@<TRIPOS>ATOM
1	   S	2.492	1.093	3.736	S.O2	1	UNK0	0.000	
2	   O	3.869	1.570	3.396	O.2	1	UNK0	0.000	
3	   O	2.239	1.488	5.170	O.2	1	UNK0	0.000	
4	   N	1.328	1.849	2.760	N.3	1	UNK0	0.000	
5	   C	-0.020	1.588	3.096	C.3	1	UNK0	0.000	
6	   C	-0.999	1.742	1.962	C.3	1	UNK0	0.000	
7	   N	-0.523	1.187	0.726	N.pl3	1	UNK0	0.000	
8	   C	0.871	0.825	0.666	C.3	1	UNK0	0.000	
9	   C	1.643	1.933	1.377	C.3	1	UNK0	0.000	
10	   C	-1.401	1.023	-0.358	C.2	1	UNK0	0.000	
11	   O	-2.599	1.389	-0.192	O.2	1	UNK0	0.000	
12	   C	-1.009	0.450	-1.675	C.3	1	UNK0	0.000	
13	   N	-2.081	0.475	-2.601	N.pl3	1	UNK0	0.000	
14	   C	-2.932	-0.670	-2.622	C.3	1	UNK0	0.000	
15	   S	-1.810	-2.009	-2.169	S.3	1	UNK0	0.000	
16	   C	-0.452	-0.937	-1.553	C.3	1	UNK0	0.000	
17	   C	-3.243	-0.828	-4.098	C.3	1	UNK0	0.000	
18	   C	-3.591	0.630	-4.426	C.3	1	UNK0	0.000	
19	   C	-2.630	1.361	-3.604	C.2	1	UNK0	0.000	
20	   O	-2.348	2.585	-3.776	O.2	1	UNK0	0.000	
21	   C	-4.151	-0.597	-1.792	C.3	1	UNK0	0.000	
22	   C	2.403	-0.665	3.677	C.2	1	UNK0	0.000	
23	   C	1.607	-1.355	4.564	C.2	1	UNK0	0.000	
24	   C	1.516	-2.727	4.546	C.2	1	UNK0	0.000	
25	   C	2.225	-3.482	3.629	C.2	1	UNK0	0.000	
26	   C	3.016	-2.760	2.751	C.2	1	UNK0	0.000	
27	   C	3.116	-1.391	2.757	C.2	1	UNK0	0.000	
28	  Cl	2.133	-5.230	3.578	Cl	1	UNK0	0.000	
29	   H	-0.322	2.190	3.977	 H	1	UNK0	0.000	
30	   H	-0.090	0.514	3.425	 H	1	UNK0	0.000	
31	   H	-1.255	2.822	1.893	 H	1	UNK0	0.000	
32	   H	-1.969	1.246	2.260	 H	1	UNK0	0.000	
33	   H	1.239	0.686	-0.367	 H	1	UNK0	0.000	
34	   H	0.988	-0.113	1.258	 H	1	UNK0	0.000	
35	   H	1.433	2.907	0.931	 H	1	UNK0	0.000	
36	   H	2.744	1.758	1.261	 H	1	UNK0	0.000	
37	   H	-0.163	1.073	-2.037	 H	1	UNK0	0.000	
38	   H	0.422	-1.133	-2.195	 H	1	UNK0	0.000	
39	   H	-0.176	-1.227	-0.519	 H	1	UNK0	0.000	
40	   H	-2.290	-1.130	-4.587	 H	1	UNK0	0.000	
41	   H	-4.076	-1.502	-4.291	 H	1	UNK0	0.000	
42	   H	-3.418	0.784	-5.520	 H	1	UNK0	0.000	
43	   H	-4.624	0.809	-4.114	 H	1	UNK0	0.000	
44	   H	-4.930	-1.270	-2.260	 H	1	UNK0	0.000	
45	   H	-4.015	-1.027	-0.763	 H	1	UNK0	0.000	
46	   H	-4.620	0.404	-1.770	 H	1	UNK0	0.000	
47	   H	1.038	-0.772	5.298	 H	1	UNK0	0.000	
48	   H	0.881	-3.260	5.255	 H	1	UNK0	0.000	
49	   H	3.567	-3.381	2.036	 H	1	UNK0	0.000	
50	   H	3.750	-0.904	2.045	 H	1	UNK0	0.000	
@<TRIPOS>BOND
1 1 2 2
2 1 3 2
3 1 4 1
4 1 22 1
5 4 5 1
6 4 9 1
7 5 6 1
8 6 7 1
9 7 8 1
10 7 10 1
11 8 9 1
12 10 11 2
13 10 12 1
14 12 13 1
15 12 16 1
16 13 14 1
17 13 19 1
18 14 15 1
19 14 17 1
20 14 21 1
21 15 16 1
22 17 18 1
23 18 19 1
24 19 20 2
25 22 23 2
26 22 27 1
27 23 24 1
28 24 25 2
29 25 26 1
30 25 28 1
31 26 27 2
32 5 29 1
33 5 30 1
34 6 31 1
35 6 32 1
36 8 33 1
37 8 34 1
38 9 35 1
39 9 36 1
40 12 37 1
41 16 38 1
42 16 39 1
43 17 40 1
44 17 41 1
45 18 42 1
46 18 43 1
47 21 44 1
48 21 45 1
49 21 46 1
50 23 47 1
51 24 48 1
52 26 49 1
53 27 50 1
@<TRIPOS>SUBSTRUCTURE
1	UNK0	1	GROUP	1 ****	UNK
# created with PyMOL 2.3.2
@<TRIPOS>MOLECULE
2319
44 47 1                 
SMALL
USER_CHARGES
@<TRIPOS>ATOM
1	  Br	-7.122	4.115	-0.705	Br	1	UNK0	0.000	
2	   C	-5.851	3.346	-1.912	C.2	1	UNK0	0.000	
3	   C	-4.508	3.276	-1.603	C.2	1	UNK0	0.000	
4	   C	-3.580	2.720	-2.467	C.2	1	UNK0	0.000	
5	   C	-4.066	2.236	-3.662	C.2	1	UNK0	0.000	
6	   C	-5.398	2.289	-4.006	C.2	1	UNK0	0.000	
7	   C	-6.314	2.848	-3.130	C.2	1	UNK0	0.000	
8	  Br	-6.007	1.598	-5.681	Br	1	UNK0	0.000	
9	   C	-2.241	2.769	-1.899	C.2	1	UNK0	0.000	
10	   N	-1.125	2.363	-2.377	N.2	1	UNK0	0.000	
11	   N	0.085	2.489	-1.688	N.pl3	1	UNK0	0.000	
12	   C	0.407	1.505	-0.727	C.2	1	UNK0	0.000	
13	   O	-0.372	0.554	-0.509	O.2	1	UNK0	0.000	
14	   C	1.675	1.547	0.068	C.3	1	UNK0	0.000	
15	   N	1.772	0.444	0.984	N.pl3	1	UNK0	0.000	
16	   C	0.820	0.209	2.013	C.2	1	UNK0	0.000	
17	   O	-0.143	0.999	2.122	O.2	1	UNK0	0.000	
18	   C	0.909	-0.931	2.974	C.3	1	UNK0	0.000	
19	   O	2.033	-1.726	2.738	O.3	1	UNK0	0.000	
20	   C	1.999	-3.022	2.228	C.2	1	UNK0	0.000	
21	   C	0.805	-3.689	2.306	C.2	1	UNK0	0.000	
22	   C	0.742	-4.989	1.804	C.2	1	UNK0	0.000	
23	   C	1.829	-5.617	1.240	C.2	1	UNK0	0.000	
24	   C	3.016	-4.913	1.179	C.2	1	UNK0	0.000	
25	   C	3.084	-3.631	1.672	C.2	1	UNK0	0.000	
26	   O	-0.281	-3.074	2.865	O.3	1	UNK0	0.000	
27	   C	-0.366	-1.692	3.078	C.3	1	UNK0	0.000	
28	   C	-2.391	3.408	-0.587	C.2	1	UNK0	0.000	
29	   O	-1.433	3.623	0.203	O.2	1	UNK0	0.000	
30	   N	-3.770	3.692	-0.459	N.pl3	1	UNK0	0.000	
31	   H	-3.382	1.795	-4.367	 H	1	UNK0	0.000	
32	   H	-7.350	2.898	-3.375	 H	1	UNK0	0.000	
33	   H	0.686	3.308	-1.921	 H	1	UNK0	0.000	
34	   H	2.496	1.460	-0.677	 H	1	UNK0	0.000	
35	   H	1.800	2.531	0.572	 H	1	UNK0	0.000	
36	   H	2.561	-0.242	0.927	 H	1	UNK0	0.000	
37	   H	1.096	-0.433	3.971	 H	1	UNK0	0.000	
38	   H	-0.212	-5.496	1.877	 H	1	UNK0	0.000	
39	   H	1.737	-6.624	0.863	 H	1	UNK0	0.000	
40	   H	3.884	-5.422	0.725	 H	1	UNK0	0.000	
41	   H	4.026	-3.103	1.613	 H	1	UNK0	0.000	
42	   H	-0.844	-1.521	4.092	 H	1	UNK0	0.000	
43	   H	-1.096	-1.292	2.336	 H	1	UNK0	0.000	
44	   H	-4.195	4.148	0.366	 H	1	UNK0	0.000	
@<TRIPOS>BOND
1 1 2 1
2 2 3 2
3 2 7 1
4 3 4 1
5 3 30 1
6 4 5 2
7 4 9 1
8 5 6 1
9 6 7 2
10 6 8 1
11 9 10 2
12 9 28 1
13 10 11 1
14 11 12 1
15 12 13 2
16 12 14 1
17 14 15 1
18 15 16 1
19 16 17 2
20 16 18 1
21 18 19 1
22 18 27 1
23 19 20 1
24 20 21 2
25 20 25 1
26 21 22 1
27 21 26 1
28 22 23 2
29 23 24 1
30 24 25 2
31 26 27 1
32 28 29 2
33 28 30 1
34 5 31 1
35 7 32 1
36 11 33 1
37 14 34 1
38 14 35 1
39 15 36 1
40 18 37 1
41 22 38 1
42 23 39 1
43 24 40 1
44 25 41 1
45 27 42 1
46 27 43 1
47 30 44 1
@<TRIPOS>SUBSTRUCTURE
1	UNK0	1	GROUP	1 ****	UNK
# created with PyMOL 2.3.2
@<TRIPOS>MOLECULE
2330
39 42 1                 
SMALL
USER_CHARGES
@<TRIPOS>ATOM
1	  Cl	-3.536	-1.734	0.347	Cl	1	UNK0	0.000	
2	   C	-2.741	-0.698	1.523	C.2	1	UNK0	0.000	
3	   C	-1.588	-0.052	1.128	C.2	1	UNK0	0.000	
4	   C	-0.980	0.756	2.065	C.2	1	UNK0	0.000	
5	   C	-1.447	0.948	3.339	C.2	1	UNK0	0.000	
6	   C	-2.620	0.271	3.691	C.2	1	UNK0	0.000	
7	   C	-3.269	-0.546	2.803	C.2	1	UNK0	0.000	
8	   C	-0.789	1.807	4.313	C.2	1	UNK0	0.000	
9	   N	-1.133	2.080	5.575	N.2	1	UNK0	0.000	
10	   N	-0.231	2.925	6.100	N.pl3	1	UNK0	0.000	
11	   N	0.677	3.185	5.176	N.2	1	UNK0	0.000	
12	   N	0.337	2.500	4.082	N.2	1	UNK0	0.000	
13	   C	-1.029	-0.212	-0.227	C.2	1	UNK0	0.000	
14	   O	-0.206	-1.140	-0.400	O.2	1	UNK0	0.000	
15	   N	-1.371	0.609	-1.303	N.pl3	1	UNK0	0.000	
16	   C	-0.937	0.614	-2.640	C.3	1	UNK0	0.000	
17	   C	0.462	0.900	-2.983	C.3	1	UNK0	0.000	
18	   C	1.525	0.056	-2.444	C.2	1	UNK0	0.000	
19	   N	1.995	-1.090	-2.948	N.pl3	1	UNK0	0.000	
20	   C	2.985	-1.509	-2.176	C.2	1	UNK0	0.000	
21	   N	3.133	-0.620	-1.185	N.2	1	UNK0	0.000	
22	   N	2.248	0.325	-1.351	N.2	1	UNK0	0.000	
23	   C	3.682	-2.671	-2.430	C.2	1	UNK0	0.000	
24	   C	3.309	-3.405	-3.541	C.2	1	UNK0	0.000	
25	   C	2.284	-2.964	-4.333	C.2	1	UNK0	0.000	
26	   C	1.632	-1.805	-4.031	C.2	1	UNK0	0.000	
27	   H	-0.077	1.264	1.758	 H	1	UNK0	0.000	
28	   H	-2.979	0.434	4.709	 H	1	UNK0	0.000	
29	   H	-4.174	-1.060	3.096	 H	1	UNK0	0.000	
30	   H	-0.229	3.321	7.068	 H	1	UNK0	0.000	
31	   H	-2.097	1.370	-1.048	 H	1	UNK0	0.000	
32	   H	-1.204	-0.396	-3.115	 H	1	UNK0	0.000	
33	   H	-1.592	1.302	-3.266	 H	1	UNK0	0.000	
34	   H	0.687	2.001	-2.780	 H	1	UNK0	0.000	
35	   H	0.584	0.874	-4.117	 H	1	UNK0	0.000	
36	   H	4.474	-2.977	-1.785	 H	1	UNK0	0.000	
37	   H	3.812	-4.314	-3.789	 H	1	UNK0	0.000	
38	   H	1.970	-3.513	-5.205	 H	1	UNK0	0.000	
39	   H	0.814	-1.426	-4.638	 H	1	UNK0	0.000	
@<TRIPOS>BOND
1 1 2 1
2 2 3 2
3 2 7 1
4 3 4 1
5 3 13 1
6 4 5 2
7 5 6 1
8 5 8 1
9 6 7 2
10 8 9 2
11 8 12 1
12 9 10 1
13 10 11 1
14 11 12 2
15 13 14 2
16 13 15 1
17 15 16 1
18 16 17 1
19 17 18 1
20 18 19 1
21 18 22 2
22 19 20 1
23 19 26 1
24 20 21 2
25 20 23 1
26 21 22 1
27 23 24 2
28 24 25 1
29 25 26 2
30 4 27 1
31 6 28 1
32 7 29 1
33 10 30 1
34 15 31 1
35 16 32 1
36 16 33 1
37 17 34 1
38 17 35 1
39 23 36 1
40 24 37 1
41 25 38 1
42 26 39 1
@<TRIPOS>SUBSTRUCTURE
1	UNK0	1	GROUP	1 ****	UNK
# created with PyMOL 2.3.2
@<TRIPOS>MOLECULE
2334
53 56 1                 
SMALL
USER_CHARGES
@<TRIPOS>ATOM
1	   S	-0.674	1.993	-1.166	S.O2	1	UNK0	0.000	
2	   O	-1.894	2.757	-0.646	O.2	1	UNK0	0.000	
3	   O	-0.261	2.766	-2.424	O.2	1	UNK0	0.000	
4	   N	0.525	2.133	0.023	N.3	1	UNK0	0.000	
5	   C	1.797	1.583	-0.285	C.3	1	UNK0	0.000	
6	   C	2.815	1.780	0.814	C.3	1	UNK0	0.000	
7	   C	2.940	3.225	1.155	C.3	1	UNK0	0.000	
8	   C	1.584	3.865	1.398	C.3	1	UNK0	0.000	
9	   C	0.703	3.585	0.231	C.3	1	UNK0	0.000	
10	   C	2.639	0.878	1.970	C.2	1	UNK0	0.000	
11	   O	2.183	1.439	3.034	O.2	1	UNK0	0.000	
12	   N	2.904	-0.483	2.030	N.pl3	1	UNK0	0.000	
13	   C	2.651	-1.249	3.210	C.3	1	UNK0	0.000	
14	   C	2.167	-2.645	2.933	C.3	1	UNK0	0.000	
15	   O	2.510	-3.155	1.720	O.3	1	UNK0	0.000	
16	   C	2.426	-2.301	0.640	C.3	1	UNK0	0.000	
17	   C	3.465	-1.200	0.911	C.3	1	UNK0	0.000	
18	   C	-1.135	0.414	-1.644	C.2	1	UNK0	0.000	
19	   C	-0.360	-0.370	-2.463	C.2	1	UNK0	0.000	
20	   C	-0.757	-1.665	-2.761	C.2	1	UNK0	0.000	
21	   C	-1.941	-2.200	-2.246	C.2	1	UNK0	0.000	
22	   C	-2.729	-1.424	-1.426	C.2	1	UNK0	0.000	
23	   C	-2.318	-0.143	-1.142	C.2	1	UNK0	0.000	
24	   C	-3.969	-1.956	-0.877	C.2	1	UNK0	0.000	
25	   N	-4.822	-1.304	-0.069	N.2	1	UNK0	0.000	
26	   O	-5.828	-2.078	0.232	O.3	1	UNK0	0.000	
27	   C	-5.667	-3.233	-0.357	C.2	1	UNK0	0.000	
28	   N	-4.514	-3.171	-1.050	N.2	1	UNK0	0.000	
29	   C	-6.588	-4.420	-0.283	C.3	1	UNK0	0.000	
30	  Cl	1.100	0.200	-3.243	Cl	1	UNK0	0.000	
31	   H	1.735	0.482	-0.509	 H	1	UNK0	0.000	
32	   H	2.195	2.066	-1.194	 H	1	UNK0	0.000	
33	   H	3.802	1.492	0.337	 H	1	UNK0	0.000	
34	   H	3.373	3.748	0.273	 H	1	UNK0	0.000	
35	   H	3.587	3.385	2.033	 H	1	UNK0	0.000	
36	   H	1.143	3.407	2.300	 H	1	UNK0	0.000	
37	   H	1.751	4.945	1.469	 H	1	UNK0	0.000	
38	   H	1.181	3.981	-0.709	 H	1	UNK0	0.000	
39	   H	-0.276	4.068	0.392	 H	1	UNK0	0.000	
40	   H	1.920	-0.771	3.897	 H	1	UNK0	0.000	
41	   H	3.618	-1.293	3.786	 H	1	UNK0	0.000	
42	   H	1.047	-2.726	3.059	 H	1	UNK0	0.000	
43	   H	2.593	-3.303	3.723	 H	1	UNK0	0.000	
44	   H	1.410	-1.826	0.664	 H	1	UNK0	0.000	
45	   H	2.629	-2.847	-0.276	 H	1	UNK0	0.000	
46	   H	3.729	-0.620	0.041	 H	1	UNK0	0.000	
47	   H	4.366	-1.742	1.345	 H	1	UNK0	0.000	
48	   H	-0.137	-2.269	-3.403	 H	1	UNK0	0.000	
49	   H	-2.243	-3.210	-2.484	 H	1	UNK0	0.000	
50	   H	-2.954	0.443	-0.497	 H	1	UNK0	0.000	
51	   H	-7.482	-4.127	0.289	 H	1	UNK0	0.000	
52	   H	-6.800	-4.724	-1.324	 H	1	UNK0	0.000	
53	   H	-6.007	-5.228	0.218	 H	1	UNK0	0.000	
@<TRIPOS>BOND
1 1 2 2
2 1 3 2
3 1 4 1
4 1 18 1
5 4 5 1
6 4 9 1
7 5 6 1
8 6 7 1
9 6 10 1
10 7 8 1
11 8 9 1
12 10 11 2
13 10 12 1
14 12 13 1
15 12 17 1
16 13 14 1
17 14 15 1
18 15 16 1
19 16 17 1
20 18 19 2
21 18 23 1
22 19 20 1
23 19 30 1
24 20 21 2
25 21 22 1
26 22 23 2
27 22 24 1
28 24 25 2
29 24 28 1
30 25 26 1
31 26 27 1
32 27 28 2
33 27 29 1
34 5 31 1
35 5 32 1
36 6 33 1
37 7 34 1
38 7 35 1
39 8 36 1
40 8 37 1
41 9 38 1
42 9 39 1
43 13 40 1
44 13 41 1
45 14 42 1
46 14 43 1
47 16 44 1
48 16 45 1
49 17 46 1
50 17 47 1
51 20 48 1
52 21 49 1
53 23 50 1
54 29 51 1
55 29 52 1
56 29 53 1
@<TRIPOS>SUBSTRUCTURE
1	UNK0	1	GROUP	1 ****	UNK
# created with PyMOL 2.3.2
@<TRIPOS>MOLECULE
2335
67 70 1                 
SMALL
USER_CHARGES
@<TRIPOS>ATOM
1	   S	0.678	2.542	-2.462	S.O2	1	UNK0	0.000	
2	   O	0.537	1.611	-3.665	O.2	1	UNK0	0.000	
3	   O	0.728	3.929	-3.091	O.2	1	UNK0	0.000	
4	   N	2.139	2.244	-1.728	N.3	1	UNK0	0.000	
5	   C	2.390	0.988	-1.141	C.3	1	UNK0	0.000	
6	   C	2.733	1.064	0.331	C.3	1	UNK0	0.000	
7	   C	3.361	2.340	0.743	C.3	1	UNK0	0.000	
8	   C	3.914	3.200	-0.334	C.3	1	UNK0	0.000	
9	   C	3.123	3.228	-1.617	C.3	1	UNK0	0.000	
10	   C	3.588	-0.081	0.736	C.2	1	UNK0	0.000	
11	   O	4.691	0.171	1.280	O.2	1	UNK0	0.000	
12	   N	3.150	-1.439	0.506	N.pl3	1	UNK0	0.000	
13	   C	4.016	-2.482	0.920	C.3	1	UNK0	0.000	
14	   C	3.601	-3.888	0.706	C.3	1	UNK0	0.000	
15	   N	2.434	-4.370	1.346	N.3	1	UNK0	0.000	
16	   C	1.199	-3.914	0.901	C.3	1	UNK0	0.000	
17	   C	0.405	-3.076	1.861	C.3	1	UNK0	0.000	
18	   O	0.491	-3.535	3.167	O.3	1	UNK0	0.000	
19	   C	1.829	-3.413	3.541	C.3	1	UNK0	0.000	
20	   C	2.595	-4.469	2.778	C.3	1	UNK0	0.000	
21	   C	-0.728	2.450	-1.467	C.2	1	UNK0	0.000	
22	   C	-1.703	1.498	-1.723	C.2	1	UNK0	0.000	
23	   C	-2.834	1.374	-0.953	C.2	1	UNK0	0.000	
24	   C	-3.011	2.242	0.131	C.2	1	UNK0	0.000	
25	   C	-2.052	3.170	0.373	C.2	1	UNK0	0.000	
26	   C	-0.912	3.293	-0.404	C.2	1	UNK0	0.000	
27	  Br	0.382	4.656	0.035	Br	1	UNK0	0.000	
28	   C	-4.291	1.944	0.829	C.3	1	UNK0	0.000	
29	   C	-5.064	1.215	-0.251	C.3	1	UNK0	0.000	
30	   N	-3.973	0.525	-0.949	N.pl3	1	UNK0	0.000	
31	   C	-4.099	-0.752	-1.492	C.2	1	UNK0	0.000	
32	   O	-5.196	-1.395	-1.351	O.2	1	UNK0	0.000	
33	   C	-3.040	-1.435	-2.232	C.3	1	UNK0	0.000	
34	   C	-3.397	-2.889	-2.531	C.3	1	UNK0	0.000	
35	   H	3.293	0.535	-1.645	 H	1	UNK0	0.000	
36	   H	1.552	0.303	-1.350	 H	1	UNK0	0.000	
37	   H	1.740	0.945	0.860	 H	1	UNK0	0.000	
38	   H	4.225	2.114	1.441	 H	1	UNK0	0.000	
39	   H	2.626	2.954	1.321	 H	1	UNK0	0.000	
40	   H	3.930	4.260	0.036	 H	1	UNK0	0.000	
41	   H	4.996	2.957	-0.496	 H	1	UNK0	0.000	
42	   H	2.724	4.226	-1.876	 H	1	UNK0	0.000	
43	   H	3.889	3.037	-2.435	 H	1	UNK0	0.000	
44	   H	2.240	-1.533	0.048	 H	1	UNK0	0.000	
45	   H	4.154	-2.358	2.032	 H	1	UNK0	0.000	
46	   H	5.021	-2.268	0.429	 H	1	UNK0	0.000	
47	   H	3.512	-4.085	-0.422	 H	1	UNK0	0.000	
48	   H	4.497	-4.556	0.953	 H	1	UNK0	0.000	
49	   H	0.541	-4.862	0.784	 H	1	UNK0	0.000	
50	   H	1.215	-3.531	-0.129	 H	1	UNK0	0.000	
51	   H	0.799	-2.046	1.854	 H	1	UNK0	0.000	
52	   H	-0.666	-3.023	1.584	 H	1	UNK0	0.000	
53	   H	2.199	-2.396	3.404	 H	1	UNK0	0.000	
54	   H	1.963	-3.658	4.628	 H	1	UNK0	0.000	
55	   H	2.123	-5.455	3.066	 H	1	UNK0	0.000	
56	   H	3.647	-4.556	3.086	 H	1	UNK0	0.000	
57	   H	-1.617	0.803	-2.546	 H	1	UNK0	0.000	
58	   H	-2.161	3.864	1.214	 H	1	UNK0	0.000	
59	   H	-4.171	1.342	1.732	 H	1	UNK0	0.000	
60	   H	-4.823	2.883	1.062	 H	1	UNK0	0.000	
61	   H	-5.792	0.495	0.172	 H	1	UNK0	0.000	
62	   H	-5.608	1.916	-0.885	 H	1	UNK0	0.000	
63	   H	-2.970	-0.897	-3.230	 H	1	UNK0	0.000	
64	   H	-2.050	-1.419	-1.770	 H	1	UNK0	0.000	
65	   H	-3.104	-3.129	-3.564	 H	1	UNK0	0.000	
66	   H	-4.489	-3.010	-2.361	 H	1	UNK0	0.000	
67	   H	-2.863	-3.531	-1.803	 H	1	UNK0	0.000	
@<TRIPOS>BOND
1 1 2 2
2 1 3 2
3 1 4 1
4 1 21 1
5 4 5 1
6 4 9 1
7 5 6 1
8 6 7 1
9 6 10 1
10 7 8 1
11 8 9 1
12 10 11 2
13 10 12 1
14 12 13 1
15 13 14 1
16 14 15 1
17 15 16 1
18 15 20 1
19 16 17 1
20 17 18 1
21 18 19 1
22 19 20 1
23 21 22 2
24 21 26 1
25 22 23 1
26 23 24 2
27 23 30 1
28 24 25 1
29 24 28 1
30 25 26 2
31 26 27 1
32 28 29 1
33 29 30 1
34 30 31 1
35 31 32 2
36 31 33 1
37 33 34 1
38 5 35 1
39 5 36 1
40 6 37 1
41 7 38 1
42 7 39 1
43 8 40 1
44 8 41 1
45 9 42 1
46 9 43 1
47 12 44 1
48 13 45 1
49 13 46 1
50 14 47 1
51 14 48 1
52 16 49 1
53 16 50 1
54 17 51 1
55 17 52 1
56 19 53 1
57 19 54 1
58 20 55 1
59 20 56 1
60 22 57 1
61 25 58 1
62 28 59 1
63 28 60 1
64 29 61 1
65 29 62 1
66 33 63 1
67 33 64 1
68 34 65 1
69 34 66 1
70 34 67 1
@<TRIPOS>SUBSTRUCTURE
1	UNK0	1	GROUP	1 ****	UNK
# created with PyMOL 2.3.2
@<TRIPOS>MOLECULE
2345
49 52 1                 
SMALL
USER_CHARGES
@<TRIPOS>ATOM
1	  Cl	-1.187	-3.967	-4.766	Cl	1	UNK0	0.000	
2	   C	-0.440	-2.495	-4.146	C.2	1	UNK0	0.000	
3	   C	0.586	-2.557	-3.241	C.2	1	UNK0	0.000	
4	   C	1.163	-1.395	-2.763	C.2	1	UNK0	0.000	
5	   C	0.746	-0.144	-3.164	C.2	1	UNK0	0.000	
6	   C	-0.287	-0.097	-4.076	C.2	1	UNK0	0.000	
7	   C	-0.879	-1.270	-4.566	C.2	1	UNK0	0.000	
8	   N	1.345	1.051	-2.673	N.pl3	1	UNK0	0.000	
9	   C	0.775	2.392	-2.626	C.3	1	UNK0	0.000	
10	   C	1.470	3.110	-1.503	C.3	1	UNK0	0.000	
11	   C	2.712	2.343	-1.193	C.3	1	UNK0	0.000	
12	   C	2.669	1.181	-2.111	C.2	1	UNK0	0.000	
13	   O	3.592	0.361	-2.426	O.2	1	UNK0	0.000	
14	   C	0.618	3.436	-0.353	C.2	1	UNK0	0.000	
15	   O	0.559	4.675	-0.008	O.2	1	UNK0	0.000	
16	   N	-0.140	2.545	0.414	N.pl3	1	UNK0	0.000	
17	   C	-0.926	3.030	1.537	C.3	1	UNK0	0.000	
18	   C	-0.522	2.314	2.822	C.3	1	UNK0	0.000	
19	   N	-0.174	0.959	2.511	N.pl3	1	UNK0	0.000	
20	   C	-0.754	0.348	1.354	C.3	1	UNK0	0.000	
21	   C	-0.193	1.127	0.148	C.3	1	UNK0	0.000	
22	   C	0.729	0.238	3.321	C.2	1	UNK0	0.000	
23	   N	0.428	-0.471	4.444	N.pl3	1	UNK0	0.000	
24	   C	1.551	-1.019	4.927	C.2	1	UNK0	0.000	
25	   C	2.593	-0.658	4.106	C.2	1	UNK0	0.000	
26	   N	2.059	0.093	3.159	N.2	1	UNK0	0.000	
27	   C	-0.912	-0.608	5.030	C.3	1	UNK0	0.000	
28	   H	0.916	-3.542	-2.923	 H	1	UNK0	0.000	
29	   H	1.970	-1.508	-2.048	 H	1	UNK0	0.000	
30	   H	-0.645	0.842	-4.415	 H	1	UNK0	0.000	
31	   H	-1.689	-1.221	-5.282	 H	1	UNK0	0.000	
32	   H	-0.306	2.323	-2.523	 H	1	UNK0	0.000	
33	   H	0.996	2.851	-3.629	 H	1	UNK0	0.000	
34	   H	1.834	4.080	-1.967	 H	1	UNK0	0.000	
35	   H	3.664	2.890	-1.472	 H	1	UNK0	0.000	
36	   H	2.819	2.082	-0.132	 H	1	UNK0	0.000	
37	   H	-1.991	2.777	1.321	 H	1	UNK0	0.000	
38	   H	-0.880	4.122	1.651	 H	1	UNK0	0.000	
39	   H	-1.429	2.271	3.472	 H	1	UNK0	0.000	
40	   H	0.304	2.883	3.299	 H	1	UNK0	0.000	
41	   H	-0.427	-0.706	1.209	 H	1	UNK0	0.000	
42	   H	-1.857	0.451	1.378	 H	1	UNK0	0.000	
43	   H	-0.831	0.860	-0.718	 H	1	UNK0	0.000	
44	   H	0.843	0.763	0.071	 H	1	UNK0	0.000	
45	   H	1.627	-1.638	5.812	 H	1	UNK0	0.000	
46	   H	3.652	-0.925	4.198	 H	1	UNK0	0.000	
47	   H	-0.903	-0.154	6.052	 H	1	UNK0	0.000	
48	   H	-1.629	-0.059	4.402	 H	1	UNK0	0.000	
49	   H	-1.150	-1.666	5.154	 H	1	UNK0	0.000	
@<TRIPOS>BOND
1 1 2 1
2 2 3 2
3 2 7 1
4 3 4 1
5 4 5 2
6 5 6 1
7 5 8 1
8 6 7 2
9 8 9 1
10 8 12 1
11 9 10 1
12 10 11 1
13 10 14 1
14 11 12 1
15 12 13 2
16 14 15 2
17 14 16 1
18 16 17 1
19 16 21 1
20 17 18 1
21 18 19 1
22 19 20 1
23 19 22 1
24 20 21 1
25 22 23 1
26 22 26 2
27 23 24 1
28 23 27 1
29 24 25 2
30 25 26 1
31 3 28 1
32 4 29 1
33 6 30 1
34 7 31 1
35 9 32 1
36 9 33 1
37 10 34 1
38 11 35 1
39 11 36 1
40 17 37 1
41 17 38 1
42 18 39 1
43 18 40 1
44 20 41 1
45 20 42 1
46 21 43 1
47 21 44 1
48 24 45 1
49 25 46 1
50 27 47 1
51 27 48 1
52 27 49 1
@<TRIPOS>SUBSTRUCTURE
1	UNK0	1	GROUP	1 ****	UNK
# created with PyMOL 2.3.2
@<TRIPOS>MOLECULE
2349
45 48 1                 
SMALL
USER_CHARGES
@<TRIPOS>ATOM
1	  Cl	-2.158	-2.835	7.157	Cl	1	UNK0	0.000	
2	   C	-2.186	-2.323	5.480	C.2	1	UNK0	0.000	
3	   C	-2.013	-3.247	4.449	C.2	1	UNK0	0.000	
4	   C	-2.024	-2.864	3.135	C.2	1	UNK0	0.000	
5	   C	-2.206	-1.538	2.737	C.2	1	UNK0	0.000	
6	   C	-2.378	-0.629	3.768	C.2	1	UNK0	0.000	
7	   C	-2.367	-1.011	5.088	C.2	1	UNK0	0.000	
8	   N	-2.207	-1.167	1.373	N.pl3	1	UNK0	0.000	
9	   C	-3.299	-1.633	0.567	C.2	1	UNK0	0.000	
10	   O	-4.214	-2.310	1.115	O.2	1	UNK0	0.000	
11	   N	-3.269	-1.292	-0.808	N.2	1	UNK0	0.000	
12	   C	-2.362	-0.626	-1.373	C.2	1	UNK0	0.000	
13	   C	-1.135	-0.071	-0.704	C.3	1	UNK0	0.000	
14	   C	0.007	-0.824	-1.326	C.3	1	UNK0	0.000	
15	   N	1.277	-0.208	-1.311	N.4	1	UNK0	0.000	
16	   C	1.300	1.183	-1.569	C.2	1	UNK0	0.000	
17	   C	0.175	1.925	-1.403	C.2	1	UNK0	0.000	
18	   C	0.237	3.291	-1.665	C.2	1	UNK0	0.000	
19	   C	1.423	3.859	-2.084	C.2	1	UNK0	0.000	
20	   C	2.571	3.100	-2.254	C.2	1	UNK0	0.000	
21	   C	2.495	1.734	-1.988	C.2	1	UNK0	0.000	
22	   C	1.519	5.323	-2.384	C.3	1	UNK0	0.000	
23	   C	-1.128	1.388	-0.954	C.3	1	UNK0	0.000	
24	   C	2.103	-0.505	-0.151	C.3	1	UNK0	0.000	
25	   C	-1.198	-0.400	0.741	C.2	1	UNK0	0.000	
26	   O	-0.288	0.021	1.542	O.2	1	UNK0	0.000	
27	   O	-2.443	-0.342	-2.749	O.2	1	UNK0	0.000	
28	   H	-1.869	-4.291	4.759	 H	1	UNK0	0.000	
29	   H	-1.887	-3.605	2.325	 H	1	UNK0	0.000	
30	   H	-2.520	0.394	3.452	 H	1	UNK0	0.000	
31	   H	-2.506	-0.249	5.867	 H	1	UNK0	0.000	
32	   H	-0.248	-1.145	-2.375	 H	1	UNK0	0.000	
33	   H	0.084	-1.790	-0.750	 H	1	UNK0	0.000	
34	   H	1.829	-0.631	-2.125	 H	1	UNK0	0.000	
35	   H	-0.633	3.930	-1.551	 H	1	UNK0	0.000	
36	   H	3.526	3.529	-2.588	 H	1	UNK0	0.000	
37	   H	3.401	1.146	-2.125	 H	1	UNK0	0.000	
38	   H	0.519	5.785	-2.531	 H	1	UNK0	0.000	
39	   H	2.191	5.466	-3.272	 H	1	UNK0	0.000	
40	   H	2.001	5.835	-1.540	 H	1	UNK0	0.000	
41	   H	-1.852	1.684	-1.774	 H	1	UNK0	0.000	
42	   H	-1.444	1.965	-0.067	 H	1	UNK0	0.000	
43	   H	1.754	-1.393	0.418	 H	1	UNK0	0.000	
44	   H	2.216	0.414	0.472	 H	1	UNK0	0.000	
45	   H	3.163	-0.758	-0.460	 H	1	UNK0	0.000	
@<TRIPOS>BOND
1 1 2 1
2 2 3 2
3 2 7 1
4 3 4 1
5 4 5 2
6 5 6 1
7 5 8 1
8 6 7 2
9 8 9 1
10 8 25 1
11 9 10 2
12 9 11 1
13 11 12 2
14 12 13 1
15 12 27 1
16 13 14 1
17 13 23 1
18 13 25 1
19 14 15 1
20 15 16 1
21 15 24 1
22 16 17 2
23 16 21 1
24 17 18 1
25 17 23 1
26 18 19 2
27 19 20 1
28 19 22 1
29 20 21 2
30 25 26 2
31 3 28 1
32 4 29 1
33 6 30 1
34 7 31 1
35 14 32 1
36 14 33 1
37 15 34 1
38 18 35 1
39 20 36 1
40 21 37 1
41 22 38 1
42 22 39 1
43 22 40 1
44 23 41 1
45 23 42 1
46 24 43 1
47 24 44 1
48 24 45 1
@<TRIPOS>SUBSTRUCTURE
1	UNK0	1	GROUP	1 ****	UNK
# created with PyMOL 2.3.2
@<TRIPOS>MOLECULE
2350
35 38 1                 
SMALL
USER_CHARGES
@<TRIPOS>ATOM
1	  Cl	-1.666	-6.006	1.421	Cl	1	UNK0	0.000	
2	   C	-1.537	-4.333	0.882	C.2	1	UNK0	0.000	
3	   C	-2.661	-3.639	0.476	C.2	1	UNK0	0.000	
4	   C	-2.584	-2.333	0.055	C.2	1	UNK0	0.000	
5	   C	-1.356	-1.661	0.025	C.2	1	UNK0	0.000	
6	   C	-0.260	-2.383	0.436	C.2	1	UNK0	0.000	
7	   C	-0.308	-3.689	0.862	C.2	1	UNK0	0.000	
8	   N	-1.283	-0.308	-0.403	N.pl3	1	UNK0	0.000	
9	   C	-2.109	0.803	-0.018	C.2	1	UNK0	0.000	
10	   O	-3.187	0.675	0.615	O.2	1	UNK0	0.000	
11	   C	-1.511	2.084	-0.470	C.3	1	UNK0	0.000	
12	   C	-1.109	2.989	0.649	C.3	1	UNK0	0.000	
13	   C	-0.728	2.113	1.824	C.3	1	UNK0	0.000	
14	   C	0.512	1.403	1.283	C.3	1	UNK0	0.000	
15	   C	0.799	2.031	-0.061	C.3	1	UNK0	0.000	
16	   C	-0.190	1.649	-1.117	C.3	1	UNK0	0.000	
17	   C	-0.325	0.187	-1.325	C.2	1	UNK0	0.000	
18	   O	0.316	-0.468	-2.183	O.2	1	UNK0	0.000	
19	   C	0.297	3.461	0.242	C.3	1	UNK0	0.000	
20	   O	1.625	1.669	2.078	O.3	1	UNK0	0.000	
21	   O	-0.321	2.937	2.851	O.3	1	UNK0	0.000	
22	   H	-3.611	-4.168	0.501	 H	1	UNK0	0.000	
23	   H	-3.440	-1.774	-0.266	 H	1	UNK0	0.000	
24	   H	0.717	-1.894	0.428	 H	1	UNK0	0.000	
25	   H	0.576	-4.246	1.186	 H	1	UNK0	0.000	
26	   H	-2.134	2.585	-1.239	 H	1	UNK0	0.000	
27	   H	-1.775	3.801	0.878	 H	1	UNK0	0.000	
28	   H	-1.518	1.404	2.096	 H	1	UNK0	0.000	
29	   H	0.372	0.328	1.241	 H	1	UNK0	0.000	
30	   H	1.842	2.018	-0.363	 H	1	UNK0	0.000	
31	   H	0.026	2.210	-2.041	 H	1	UNK0	0.000	
32	   H	0.292	4.089	-0.640	 H	1	UNK0	0.000	
33	   H	0.835	3.851	1.128	 H	1	UNK0	0.000	
34	   H	1.681	0.937	2.763	 H	1	UNK0	0.000	
35	   H	-0.898	3.719	3.013	 H	1	UNK0	0.000	
@<TRIPOS>BOND
1 1 2 1
2 2 3 2
3 2 7 1
4 3 4 1
5 4 5 2
6 5 6 1
7 5 8 1
8 6 7 2
9 8 9 1
10 8 17 1
11 9 10 2
12 9 11 1
13 11 12 1
14 11 16 1
15 12 13 1
16 12 19 1
17 13 14 1
18 13 21 1
19 14 15 1
20 14 20 1
21 15 16 1
22 15 19 1
23 16 17 1
24 17 18 2
25 3 22 1
26 4 23 1
27 6 24 1
28 7 25 1
29 11 26 1
30 12 27 1
31 13 28 1
32 14 29 1
33 15 30 1
34 16 31 1
35 19 32 1
36 19 33 1
37 20 34 1
38 21 35 1
@<TRIPOS>SUBSTRUCTURE
1	UNK0	1	GROUP	1 ****	UNK
# created with PyMOL 2.3.2
@<TRIPOS>MOLECULE
2357
51 54 1                 
SMALL
USER_CHARGES
@<TRIPOS>ATOM
1	  Cl	5.706	-3.790	0.821	Cl	1	UNK0	0.000	
2	   C	3.955	-3.551	0.748	C.2	1	UNK0	0.000	
3	   C	3.370	-2.948	-0.337	C.2	1	UNK0	0.000	
4	   C	2.002	-2.770	-0.377	C.2	1	UNK0	0.000	
5	   C	1.188	-3.181	0.647	C.2	1	UNK0	0.000	
6	   C	1.771	-3.781	1.728	C.2	1	UNK0	0.000	
7	   C	3.158	-3.971	1.786	C.2	1	UNK0	0.000	
8	   N	-0.217	-2.980	0.577	N.pl3	1	UNK0	0.000	
9	   C	-0.960	-3.527	-0.503	C.2	1	UNK0	0.000	
10	   O	-0.307	-4.192	-1.381	O.2	1	UNK0	0.000	
11	   N	-2.343	-3.340	-0.590	N.pl3	1	UNK0	0.000	
12	   C	-3.036	-2.601	0.396	C.2	1	UNK0	0.000	
13	   O	-4.274	-2.692	0.505	O.2	1	UNK0	0.000	
14	   C	-2.288	-1.708	1.309	C.3	1	UNK0	0.000	
15	   C	-0.927	-2.240	1.559	C.2	1	UNK0	0.000	
16	   O	-0.398	-2.029	2.664	O.2	1	UNK0	0.000	
17	   C	-2.144	-0.340	0.701	C.2	1	UNK0	0.000	
18	   C	-2.586	0.808	1.176	C.2	1	UNK0	0.000	
19	   C	-2.222	1.913	0.254	C.3	1	UNK0	0.000	
20	   N	-1.948	1.222	-0.975	N.pl3	1	UNK0	0.000	
21	   N	-1.498	-0.030	-0.529	N.pl3	1	UNK0	0.000	
22	   C	-1.086	2.635	0.815	C.2	1	UNK0	0.000	
23	   C	-0.834	2.516	2.165	C.2	1	UNK0	0.000	
24	   C	0.217	3.156	2.790	C.2	1	UNK0	0.000	
25	   C	1.053	3.958	2.002	C.2	1	UNK0	0.000	
26	   C	0.841	4.109	0.649	C.2	1	UNK0	0.000	
27	   C	-0.230	3.438	0.093	C.2	1	UNK0	0.000	
28	   O	1.683	4.902	-0.072	O.3	1	UNK0	0.000	
29	   C	1.613	5.166	-1.443	C.3	1	UNK0	0.000	
30	   O	2.115	4.617	2.579	O.3	1	UNK0	0.000	
31	   O	0.480	3.042	4.149	O.3	1	UNK0	0.000	
32	   C	-0.390	2.220	4.900	C.3	1	UNK0	0.000	
33	   H	4.010	-2.626	-1.141	 H	1	UNK0	0.000	
34	   H	1.566	-2.293	-1.243	 H	1	UNK0	0.000	
35	   H	1.149	-4.110	2.541	 H	1	UNK0	0.000	
36	   H	3.610	-4.444	2.640	 H	1	UNK0	0.000	
37	   H	-2.848	-3.772	-1.417	 H	1	UNK0	0.000	
38	   H	-2.878	-1.610	2.242	 H	1	UNK0	0.000	
39	   H	-3.138	0.889	2.120	 H	1	UNK0	0.000	
40	   H	-3.114	2.574	0.150	 H	1	UNK0	0.000	
41	   H	-1.307	1.696	-1.609	 H	1	UNK0	0.000	
42	   H	-0.805	-0.621	-1.030	 H	1	UNK0	0.000	
43	   H	-1.461	1.903	2.807	 H	1	UNK0	0.000	
44	   H	-0.429	3.531	-0.958	 H	1	UNK0	0.000	
45	   H	1.378	4.263	-2.049	 H	1	UNK0	0.000	
46	   H	2.507	5.612	-1.870	 H	1	UNK0	0.000	
47	   H	0.767	5.868	-1.616	 H	1	UNK0	0.000	
48	   H	2.289	4.520	3.570	 H	1	UNK0	0.000	
49	   H	-0.185	2.309	5.980	 H	1	UNK0	0.000	
50	   H	-0.396	1.177	4.554	 H	1	UNK0	0.000	
51	   H	-1.431	2.611	4.755	 H	1	UNK0	0.000	
@<TRIPOS>BOND
1 1 2 1
2 2 3 2
3 2 7 1
4 3 4 1
5 4 5 2
6 5 6 1
7 5 8 1
8 6 7 2
9 8 9 1
10 8 15 1
11 9 10 2
12 9 11 1
13 11 12 1
14 12 13 2
15 12 14 1
16 14 15 1
17 14 17 1
18 15 16 2
19 17 18 2
20 17 21 1
21 18 19 1
22 19 20 1
23 19 22 1
24 20 21 1
25 22 23 2
26 22 27 1
27 23 24 1
28 24 25 2
29 24 31 1
30 25 26 1
31 25 30 1
32 26 27 2
33 26 28 1
34 28 29 1
35 31 32 1
36 3 33 1
37 4 34 1
38 6 35 1
39 7 36 1
40 11 37 1
41 14 38 1
42 18 39 1
43 19 40 1
44 20 41 1
45 21 42 1
46 23 43 1
47 27 44 1
48 29 45 1
49 29 46 1
50 29 47 1
51 30 48 1
52 32 49 1
53 32 50 1
54 32 51 1
@<TRIPOS>SUBSTRUCTURE
1	UNK0	1	GROUP	1 ****	UNK
# created with PyMOL 2.3.2
@<TRIPOS>MOLECULE
2358
47 50 1                 
SMALL
USER_CHARGES
@<TRIPOS>ATOM
1	  Cl	5.076	1.072	-5.325	Cl	1	UNK0	0.000	
2	   C	3.480	0.718	-4.690	C.2	1	UNK0	0.000	
3	   C	2.631	-0.165	-5.341	C.2	1	UNK0	0.000	
4	   C	1.397	-0.419	-4.823	C.2	1	UNK0	0.000	
5	   C	0.946	0.178	-3.652	C.2	1	UNK0	0.000	
6	   C	1.792	1.054	-3.009	C.2	1	UNK0	0.000	
7	   C	3.062	1.331	-3.520	C.2	1	UNK0	0.000	
8	   N	-0.343	-0.090	-3.116	N.pl3	1	UNK0	0.000	
9	   C	-1.320	0.922	-2.916	C.2	1	UNK0	0.000	
10	   O	-1.021	2.112	-3.228	O.2	1	UNK0	0.000	
11	   N	-2.595	0.625	-2.384	N.pl3	1	UNK0	0.000	
12	   C	-2.936	-0.702	-2.033	C.2	1	UNK0	0.000	
13	   O	-4.136	-1.022	-1.721	O.2	1	UNK0	0.000	
14	   C	-1.936	-1.769	-2.011	C.3	1	UNK0	0.000	
15	   C	-0.720	-1.410	-2.752	C.2	1	UNK0	0.000	
16	   O	0.086	-2.335	-3.115	O.2	1	UNK0	0.000	
17	   C	-1.641	-2.172	-0.604	C.2	1	UNK0	0.000	
18	   C	-0.481	-2.231	-0.006	C.2	1	UNK0	0.000	
19	   C	-0.727	-2.687	1.384	C.3	1	UNK0	0.000	
20	   N	-2.047	-3.278	1.329	N.pl3	1	UNK0	0.000	
21	   N	-2.669	-2.562	0.300	N.pl3	1	UNK0	0.000	
22	   C	-0.717	-1.533	2.325	C.2	1	UNK0	0.000	
23	   C	-0.116	-0.335	2.013	C.2	1	UNK0	0.000	
24	   C	-0.100	0.742	2.880	C.2	1	UNK0	0.000	
25	   C	-0.703	0.641	4.113	C.2	1	UNK0	0.000	
26	   C	-1.309	-0.546	4.443	C.2	1	UNK0	0.000	
27	   C	-1.319	-1.613	3.572	C.2	1	UNK0	0.000	
28	   O	-0.699	1.704	4.994	O.3	1	UNK0	0.000	
29	   C	-1.326	1.571	6.249	C.3	1	UNK0	0.000	
30	   O	0.520	1.920	2.510	O.3	1	UNK0	0.000	
31	   H	2.954	-0.637	-6.242	 H	1	UNK0	0.000	
32	   H	0.731	-1.118	-5.343	 H	1	UNK0	0.000	
33	   H	1.432	1.514	-2.098	 H	1	UNK0	0.000	
34	   H	3.694	2.029	-2.977	 H	1	UNK0	0.000	
35	   H	-3.305	1.390	-2.243	 H	1	UNK0	0.000	
36	   H	-2.406	-2.654	-2.532	 H	1	UNK0	0.000	
37	   H	0.464	-1.982	-0.485	 H	1	UNK0	0.000	
38	   H	0.041	-3.437	1.691	 H	1	UNK0	0.000	
39	   H	-2.000	-4.302	1.113	 H	1	UNK0	0.000	
40	   H	-3.705	-2.379	0.258	 H	1	UNK0	0.000	
41	   H	0.357	-0.279	1.028	 H	1	UNK0	0.000	
42	   H	-1.793	-0.636	5.424	 H	1	UNK0	0.000	
43	   H	-1.800	-2.565	3.827	 H	1	UNK0	0.000	
44	   H	-0.851	0.800	6.885	 H	1	UNK0	0.000	
45	   H	-1.329	2.559	6.747	 H	1	UNK0	0.000	
46	   H	-2.389	1.311	6.060	 H	1	UNK0	0.000	
47	   H	0.965	2.016	1.619	 H	1	UNK0	0.000	
@<TRIPOS>BOND
1 1 2 1
2 2 3 2
3 2 7 1
4 3 4 1
5 4 5 2
6 5 6 1
7 5 8 1
8 6 7 2
9 8 9 1
10 8 15 1
11 9 10 2
12 9 11 1
13 11 12 1
14 12 13 2
15 12 14 1
16 14 15 1
17 14 17 1
18 15 16 2
19 17 18 2
20 17 21 1
21 18 19 1
22 19 20 1
23 19 22 1
24 20 21 1
25 22 23 2
26 22 27 1
27 23 24 1
28 24 25 2
29 24 30 1
30 25 26 1
31 25 28 1
32 26 27 2
33 28 29 1
34 3 31 1
35 4 32 1
36 6 33 1
37 7 34 1
38 11 35 1
39 14 36 1
40 18 37 1
41 19 38 1
42 20 39 1
43 21 40 1
44 23 41 1
45 26 42 1
46 27 43 1
47 29 44 1
48 29 45 1
49 29 46 1
50 30 47 1
@<TRIPOS>SUBSTRUCTURE
1	UNK0	1	GROUP	1 ****	UNK
# created with PyMOL 2.3.2
@<TRIPOS>MOLECULE
2359
43 46 1                 
SMALL
USER_CHARGES
@<TRIPOS>ATOM
1	  Cl	6.131	-2.670	5.147	Cl	1	UNK0	0.000	
2	   C	4.939	-1.747	4.279	C.2	1	UNK0	0.000	
3	   C	3.606	-2.112	4.407	C.2	1	UNK0	0.000	
4	   C	2.641	-1.393	3.727	C.2	1	UNK0	0.000	
5	   C	2.938	-0.315	2.916	C.2	1	UNK0	0.000	
6	   C	4.270	0.033	2.802	C.2	1	UNK0	0.000	
7	   C	5.263	-0.663	3.467	C.2	1	UNK0	0.000	
8	   N	1.904	0.418	2.221	N.pl3	1	UNK0	0.000	
9	   C	1.810	1.826	2.490	C.2	1	UNK0	0.000	
10	   O	2.601	2.399	3.301	O.2	1	UNK0	0.000	
11	   N	0.792	2.540	1.805	N.pl3	1	UNK0	0.000	
12	   C	-0.095	1.862	0.887	C.2	1	UNK0	0.000	
13	   O	-0.630	2.557	0.014	O.2	1	UNK0	0.000	
14	   C	-0.310	0.435	1.029	C.3	1	UNK0	0.000	
15	   C	1.011	-0.203	1.310	C.2	1	UNK0	0.000	
16	   O	1.395	-1.278	0.783	O.2	1	UNK0	0.000	
17	   C	-1.057	-0.244	-0.005	C.2	1	UNK0	0.000	
18	   C	-1.470	0.210	-1.166	C.2	1	UNK0	0.000	
19	   C	-2.206	-0.833	-1.922	C.3	1	UNK0	0.000	
20	   N	-1.932	-2.030	-1.161	N.pl3	1	UNK0	0.000	
21	   N	-1.499	-1.614	0.096	N.pl3	1	UNK0	0.000	
22	   C	-1.688	-1.036	-3.280	C.2	1	UNK0	0.000	
23	   C	-1.955	-2.243	-3.908	C.2	1	UNK0	0.000	
24	   C	-1.485	-2.465	-5.181	C.2	1	UNK0	0.000	
25	   C	-0.752	-1.517	-5.856	C.2	1	UNK0	0.000	
26	   C	-0.478	-0.315	-5.247	C.2	1	UNK0	0.000	
27	   C	-0.956	-0.094	-3.955	C.2	1	UNK0	0.000	
28	   O	-1.749	-3.680	-5.827	O.3	1	UNK0	0.000	
29	   H	3.335	-2.966	5.044	 H	1	UNK0	0.000	
30	   H	1.612	-1.674	3.824	 H	1	UNK0	0.000	
31	   H	4.563	0.859	2.190	 H	1	UNK0	0.000	
32	   H	6.317	-0.416	3.400	 H	1	UNK0	0.000	
33	   H	0.708	3.556	1.985	 H	1	UNK0	0.000	
34	   H	-0.920	0.313	1.995	 H	1	UNK0	0.000	
35	   H	-1.343	1.202	-1.604	 H	1	UNK0	0.000	
36	   H	-3.300	-0.595	-1.931	 H	1	UNK0	0.000	
37	   H	-1.261	-2.670	-1.638	 H	1	UNK0	0.000	
38	   H	-1.518	-2.235	0.932	 H	1	UNK0	0.000	
39	   H	-2.535	-2.999	-3.384	 H	1	UNK0	0.000	
40	   H	-0.380	-1.694	-6.866	 H	1	UNK0	0.000	
41	   H	0.097	0.478	-5.725	 H	1	UNK0	0.000	
42	   H	-0.748	0.848	-3.465	 H	1	UNK0	0.000	
43	   H	-2.284	-4.383	-5.348	 H	1	UNK0	0.000	
@<TRIPOS>BOND
1 1 2 1
2 2 3 2
3 2 7 1
4 3 4 1
5 4 5 2
6 5 6 1
7 5 8 1
8 6 7 2
9 8 9 1
10 8 15 1
11 9 10 2
12 9 11 1
13 11 12 1
14 12 13 2
15 12 14 1
16 14 15 1
17 14 17 1
18 15 16 2
19 17 18 2
20 17 21 1
21 18 19 1
22 19 20 1
23 19 22 1
24 20 21 1
25 22 23 2
26 22 27 1
27 23 24 1
28 24 25 2
29 24 28 1
30 25 26 1
31 26 27 2
32 3 29 1
33 4 30 1
34 6 31 1
35 7 32 1
36 11 33 1
37 14 34 1
38 18 35 1
39 19 36 1
40 20 37 1
41 21 38 1
42 23 39 1
43 25 40 1
44 26 41 1
45 27 42 1
46 28 43 1
@<TRIPOS>SUBSTRUCTURE
1	UNK0	1	GROUP	1 ****	UNK
# created with PyMOL 2.3.2
@<TRIPOS>MOLECULE
2361
41 44 1                 
SMALL
USER_CHARGES
@<TRIPOS>ATOM
1	  Cl	-1.463	0.377	-7.226	Cl	1	UNK0	0.000	
2	   C	-1.511	0.129	-5.489	C.2	1	UNK0	0.000	
3	   C	-2.671	-0.261	-4.854	C.2	1	UNK0	0.000	
4	   C	-2.705	-0.455	-3.478	C.2	1	UNK0	0.000	
5	   C	-1.584	-0.266	-2.699	C.2	1	UNK0	0.000	
6	   C	-0.427	0.123	-3.337	C.2	1	UNK0	0.000	
7	   C	-0.392	0.316	-4.706	C.2	1	UNK0	0.000	
8	   N	-1.603	-0.465	-1.265	N.pl3	1	UNK0	0.000	
9	   C	-1.610	-1.770	-0.716	C.2	1	UNK0	0.000	
10	   O	-1.594	-2.774	-1.471	O.2	1	UNK0	0.000	
11	   N	-1.634	-1.922	0.714	N.pl3	1	UNK0	0.000	
12	   C	-1.652	-0.788	1.570	C.2	1	UNK0	0.000	
13	   O	-2.009	-0.923	2.767	O.2	1	UNK0	0.000	
14	   C	-1.252	0.525	1.039	C.3	1	UNK0	0.000	
15	   C	-1.622	0.643	-0.382	C.2	1	UNK0	0.000	
16	   O	-1.974	1.780	-0.852	O.2	1	UNK0	0.000	
17	   C	0.224	0.743	1.207	C.2	1	UNK0	0.000	
18	   C	1.115	-0.076	1.702	C.2	1	UNK0	0.000	
19	   C	2.437	0.569	1.669	C.3	1	UNK0	0.000	
20	   N	2.257	1.685	0.784	N.pl3	1	UNK0	0.000	
21	   N	0.877	1.940	0.818	N.pl3	1	UNK0	0.000	
22	   C	2.722	1.048	3.046	C.2	1	UNK0	0.000	
23	   C	3.733	0.478	3.782	C.2	1	UNK0	0.000	
24	   N	3.999	0.912	5.045	N.2	1	UNK0	0.000	
25	   C	3.303	1.900	5.630	C.2	1	UNK0	0.000	
26	   C	2.283	2.493	4.921	C.2	1	UNK0	0.000	
27	   C	1.996	2.058	3.619	C.2	1	UNK0	0.000	
28	   H	-3.558	-0.414	-5.447	 H	1	UNK0	0.000	
29	   H	-3.603	-0.762	-2.966	 H	1	UNK0	0.000	
30	   H	0.472	0.278	-2.730	 H	1	UNK0	0.000	
31	   H	0.520	0.627	-5.221	 H	1	UNK0	0.000	
32	   H	-1.640	-2.864	1.161	 H	1	UNK0	0.000	
33	   H	-1.728	1.368	1.589	 H	1	UNK0	0.000	
34	   H	0.886	-1.068	2.069	 H	1	UNK0	0.000	
35	   H	3.239	-0.123	1.315	 H	1	UNK0	0.000	
36	   H	2.585	1.492	-0.167	 H	1	UNK0	0.000	
37	   H	0.477	2.877	0.583	 H	1	UNK0	0.000	
38	   H	4.315	-0.329	3.327	 H	1	UNK0	0.000	
39	   H	3.534	2.236	6.652	 H	1	UNK0	0.000	
40	   H	1.718	3.288	5.381	 H	1	UNK0	0.000	
41	   H	1.207	2.522	3.081	 H	1	UNK0	0.000	
@<TRIPOS>BOND
1 1 2 1
2 2 3 2
3 2 7 1
4 3 4 1
5 4 5 2
6 5 6 1
7 5 8 1
8 6 7 2
9 8 9 1
10 8 15 1
11 9 10 2
12 9 11 1
13 11 12 1
14 12 13 2
15 12 14 1
16 14 15 1
17 14 17 1
18 15 16 2
19 17 18 2
20 17 21 1
21 18 19 1
22 19 20 1
23 19 22 1
24 20 21 1
25 22 23 2
26 22 27 1
27 23 24 1
28 24 25 2
29 25 26 1
30 26 27 2
31 3 28 1
32 4 29 1
33 6 30 1
34 7 31 1
35 11 32 1
36 14 33 1
37 18 34 1
38 19 35 1
39 20 36 1
40 21 37 1
41 23 38 1
42 25 39 1
43 26 40 1
44 27 41 1
@<TRIPOS>SUBSTRUCTURE
1	UNK0	1	GROUP	1 ****	UNK
# created with PyMOL 2.3.2
@<TRIPOS>MOLECULE
2363
53 56 1                 
SMALL
USER_CHARGES
@<TRIPOS>ATOM
1	  Cl	5.984	-0.045	0.181	Cl	1	UNK0	0.000	
2	   C	4.346	0.302	-0.386	C.2	1	UNK0	0.000	
3	   C	3.963	1.612	-0.565	C.2	1	UNK0	0.000	
4	   C	2.675	1.892	-1.011	C.2	1	UNK0	0.000	
5	   C	1.786	0.884	-1.274	C.2	1	UNK0	0.000	
6	   C	2.198	-0.417	-1.085	C.2	1	UNK0	0.000	
7	   C	3.471	-0.731	-0.643	C.2	1	UNK0	0.000	
8	   N	0.423	1.164	-1.745	N.pl3	1	UNK0	0.000	
9	   C	-0.460	1.913	-0.924	C.3	1	UNK0	0.000	
10	   C	-1.816	2.031	-1.439	C.2	1	UNK0	0.000	
11	   C	-2.187	1.547	-2.657	C.2	1	UNK0	0.000	
12	   C	-3.512	1.717	-3.101	C.2	1	UNK0	0.000	
13	   C	-4.470	2.357	-2.356	C.2	1	UNK0	0.000	
14	   C	-4.075	2.842	-1.120	C.2	1	UNK0	0.000	
15	   C	-2.799	2.682	-0.686	C.2	1	UNK0	0.000	
16	   N	-1.272	0.838	-3.508	N.pl3	1	UNK0	0.000	
17	   C	0.037	0.672	-3.001	C.2	1	UNK0	0.000	
18	   O	0.909	0.056	-3.696	O.2	1	UNK0	0.000	
19	   O	0.101	3.239	-0.919	O.3	1	UNK0	0.000	
20	   C	-0.426	1.472	0.494	C.2	1	UNK0	0.000	
21	   O	0.031	2.217	1.363	O.2	1	UNK0	0.000	
22	   N	-0.928	0.193	0.799	N.pl3	1	UNK0	0.000	
23	   C	-0.944	-0.342	2.161	C.3	1	UNK0	0.000	
24	   C	-1.520	-1.704	2.232	C.3	1	UNK0	0.000	
25	   N	-0.883	-2.721	1.489	N.3	1	UNK0	0.000	
26	   C	0.400	-3.142	1.876	C.3	1	UNK0	0.000	
27	   C	0.749	-4.417	1.103	C.3	1	UNK0	0.000	
28	   O	0.188	-4.374	-0.186	O.3	1	UNK0	0.000	
29	   C	-1.196	-4.524	-0.140	C.3	1	UNK0	0.000	
30	   C	-1.711	-3.803	1.076	C.3	1	UNK0	0.000	
31	   H	4.677	2.385	-0.352	 H	1	UNK0	0.000	
32	   H	2.401	2.917	-1.143	 H	1	UNK0	0.000	
33	   H	1.519	-1.224	-1.285	 H	1	UNK0	0.000	
34	   H	3.815	-1.735	-0.489	 H	1	UNK0	0.000	
35	   H	-3.760	1.319	-4.068	 H	1	UNK0	0.000	
36	   H	-5.487	2.497	-2.677	 H	1	UNK0	0.000	
37	   H	-4.831	3.360	-0.503	 H	1	UNK0	0.000	
38	   H	-2.505	3.061	0.271	 H	1	UNK0	0.000	
39	   H	-1.589	0.487	-4.429	 H	1	UNK0	0.000	
40	   H	-0.117	3.686	-0.060	 H	1	UNK0	0.000	
41	   H	-1.322	-0.453	0.060	 H	1	UNK0	0.000	
42	   H	0.072	-0.232	2.547	 H	1	UNK0	0.000	
43	   H	-1.593	0.345	2.743	 H	1	UNK0	0.000	
44	   H	-2.584	-1.637	1.872	 H	1	UNK0	0.000	
45	   H	-1.599	-2.032	3.289	 H	1	UNK0	0.000	
46	   H	1.202	-2.386	1.794	 H	1	UNK0	0.000	
47	   H	0.376	-3.440	2.948	 H	1	UNK0	0.000	
48	   H	1.827	-4.578	1.032	 H	1	UNK0	0.000	
49	   H	0.304	-5.318	1.588	 H	1	UNK0	0.000	
50	   H	-1.514	-5.585	-0.141	 H	1	UNK0	0.000	
51	   H	-1.639	-4.059	-1.036	 H	1	UNK0	0.000	
52	   H	-2.763	-3.472	0.955	 H	1	UNK0	0.000	
53	   H	-1.720	-4.564	1.907	 H	1	UNK0	0.000	
@<TRIPOS>BOND
1 1 2 1
2 2 3 2
3 2 7 1
4 3 4 1
5 4 5 2
6 5 6 1
7 5 8 1
8 6 7 2
9 8 9 1
10 8 17 1
11 9 10 1
12 9 19 1
13 9 20 1
14 10 11 1
15 10 15 2
16 11 12 2
17 11 16 1
18 12 13 1
19 13 14 2
20 14 15 1
21 16 17 1
22 17 18 2
23 20 21 2
24 20 22 1
25 22 23 1
26 23 24 1
27 24 25 1
28 25 26 1
29 25 30 1
30 26 27 1
31 27 28 1
32 28 29 1
33 29 30 1
34 3 31 1
35 4 32 1
36 6 33 1
37 7 34 1
38 12 35 1
39 13 36 1
40 14 37 1
41 15 38 1
42 16 39 1
43 19 40 1
44 22 41 1
45 23 42 1
46 23 43 1
47 24 44 1
48 24 45 1
49 26 46 1
50 26 47 1
51 27 48 1
52 27 49 1
53 29 50 1
54 29 51 1
55 30 52 1
56 30 53 1
@<TRIPOS>SUBSTRUCTURE
1	UNK0	1	GROUP	1 ****	UNK
# created with PyMOL 2.3.2
@<TRIPOS>MOLECULE
2364
58 62 1                 
SMALL
USER_CHARGES
@<TRIPOS>ATOM
1	  Cl	-6.799	4.374	-2.917	Cl	1	UNK0	0.000	
2	   C	-5.244	3.658	-2.555	C.2	1	UNK0	0.000	
3	   C	-5.160	2.441	-1.910	C.2	1	UNK0	0.000	
4	   C	-3.951	1.854	-1.612	C.2	1	UNK0	0.000	
5	   C	-2.802	2.519	-1.979	C.2	1	UNK0	0.000	
6	   C	-2.899	3.717	-2.614	C.2	1	UNK0	0.000	
7	   C	-4.097	4.321	-2.921	C.2	1	UNK0	0.000	
8	   C	-3.889	0.526	-0.909	C.3	1	UNK0	0.000	
9	   N	-2.505	0.165	-0.658	N.pl3	1	UNK0	0.000	
10	   C	-1.734	-0.578	-1.594	C.2	1	UNK0	0.000	
11	   O	-2.289	-1.015	-2.653	O.2	1	UNK0	0.000	
12	   C	-0.310	-0.876	-1.410	C.3	1	UNK0	0.000	
13	   N	0.206	-0.574	-0.116	N.3	1	UNK0	0.000	
14	   C	-0.374	0.543	0.556	C.3	1	UNK0	0.000	
15	   C	0.250	1.886	0.265	C.3	1	UNK0	0.000	
16	   N	0.755	1.935	1.599	N.3	1	UNK0	0.000	
17	   C	0.233	0.672	1.943	C.3	1	UNK0	0.000	
18	   C	2.121	2.246	1.815	C.3	1	UNK0	0.000	
19	   C	3.096	1.334	1.206	C.2	1	UNK0	0.000	
20	   C	3.537	0.235	1.901	C.2	1	UNK0	0.000	
21	   C	4.465	-0.650	1.345	C.2	1	UNK0	0.000	
22	   C	4.942	-0.409	0.077	C.2	1	UNK0	0.000	
23	   C	4.517	0.683	-0.641	C.2	1	UNK0	0.000	
24	   C	3.591	1.545	-0.057	C.2	1	UNK0	0.000	
25	   O	4.911	-1.756	2.041	O.3	1	UNK0	0.000	
26	   C	4.407	-1.983	3.344	C.3	1	UNK0	0.000	
27	   C	-1.860	0.544	0.552	C.2	1	UNK0	0.000	
28	   O	-2.552	0.860	1.553	O.2	1	UNK0	0.000	
29	   C	0.079	-1.745	0.703	C.3	1	UNK0	0.000	
30	   C	-0.484	-2.849	-0.147	C.3	1	UNK0	0.000	
31	   C	-0.158	-2.398	-1.542	C.3	1	UNK0	0.000	
32	   O	0.057	-4.092	0.152	O.3	1	UNK0	0.000	
33	   H	-6.086	1.919	-1.622	 H	1	UNK0	0.000	
34	   H	-1.861	2.069	-1.753	 H	1	UNK0	0.000	
35	   H	-1.983	4.232	-2.899	 H	1	UNK0	0.000	
36	   H	-4.144	5.289	-3.434	 H	1	UNK0	0.000	
37	   H	-4.349	-0.217	-1.595	 H	1	UNK0	0.000	
38	   H	-4.450	0.634	0.039	 H	1	UNK0	0.000	
39	   H	0.319	-0.417	-2.209	 H	1	UNK0	0.000	
40	   H	0.948	1.923	-0.569	 H	1	UNK0	0.000	
41	   H	-0.543	2.682	0.151	 H	1	UNK0	0.000	
42	   H	0.908	-0.138	2.232	 H	1	UNK0	0.000	
43	   H	-0.597	0.742	2.705	 H	1	UNK0	0.000	
44	   H	2.266	3.311	1.457	 H	1	UNK0	0.000	
45	   H	2.278	2.343	2.931	 H	1	UNK0	0.000	
46	   H	3.205	-0.014	2.901	 H	1	UNK0	0.000	
47	   H	5.667	-1.120	-0.329	 H	1	UNK0	0.000	
48	   H	4.925	0.821	-1.631	 H	1	UNK0	0.000	
49	   H	3.294	2.386	-0.667	 H	1	UNK0	0.000	
50	   H	4.940	-2.878	3.735	 H	1	UNK0	0.000	
51	   H	4.586	-1.103	4.007	 H	1	UNK0	0.000	
52	   H	3.317	-2.184	3.339	 H	1	UNK0	0.000	
53	   H	-0.613	-1.605	1.571	 H	1	UNK0	0.000	
54	   H	1.099	-2.039	1.089	 H	1	UNK0	0.000	
55	   H	-1.605	-2.847	-0.048	 H	1	UNK0	0.000	
56	   H	-0.844	-2.804	-2.302	 H	1	UNK0	0.000	
57	   H	0.897	-2.605	-1.749	 H	1	UNK0	0.000	
58	   H	-0.508	-4.497	0.854	 H	1	UNK0	0.000	
@<TRIPOS>BOND
1 1 2 1
2 2 3 2
3 2 7 1
4 3 4 1
5 4 5 2
6 4 8 1
7 5 6 1
8 6 7 2
9 8 9 1
10 9 10 1
11 9 27 1
12 10 11 2
13 10 12 1
14 12 13 1
15 12 31 1
16 13 14 1
17 13 29 1
18 14 15 1
19 14 17 1
20 14 27 1
21 15 16 1
22 16 17 1
23 16 18 1
24 18 19 1
25 19 20 2
26 19 24 1
27 20 21 1
28 21 22 2
29 21 25 1
30 22 23 1
31 23 24 2
32 25 26 1
33 27 28 2
34 29 30 1
35 30 31 1
36 30 32 1
37 3 33 1
38 5 34 1
39 6 35 1
40 7 36 1
41 8 37 1
42 8 38 1
43 12 39 1
44 15 40 1
45 15 41 1
46 17 42 1
47 17 43 1
48 18 44 1
49 18 45 1
50 20 46 1
51 22 47 1
52 23 48 1
53 24 49 1
54 26 50 1
55 26 51 1
56 26 52 1
57 29 53 1
58 29 54 1
59 30 55 1
60 31 56 1
61 31 57 1
62 32 58 1
@<TRIPOS>SUBSTRUCTURE
1	UNK0	1	GROUP	1 ****	UNK
# created with PyMOL 2.3.2
@<TRIPOS>MOLECULE
2365
55 59 1                 
SMALL
USER_CHARGES
@<TRIPOS>ATOM
1	  Br	-1.873	3.418	-4.753	Br	1	UNK0	0.000	
2	   C	-0.038	3.524	-4.249	C.2	1	UNK0	0.000	
3	   C	0.554	3.222	-3.039	C.2	1	UNK0	0.000	
4	   N	1.891	3.445	-3.119	N.pl3	1	UNK0	0.000	
5	   N	2.136	3.871	-4.328	N.2	1	UNK0	0.000	
6	   C	1.014	3.943	-5.067	C.2	1	UNK0	0.000	
7	   C	2.886	3.261	-2.089	C.3	1	UNK0	0.000	
8	   C	3.482	1.872	-2.098	C.3	1	UNK0	0.000	
9	   C	4.151	1.565	-3.395	C.3	1	UNK0	0.000	
10	   C	2.420	0.882	-1.756	C.2	1	UNK0	0.000	
11	   O	2.178	-0.004	-2.614	O.2	1	UNK0	0.000	
12	   N	1.711	0.928	-0.532	N.pl3	1	UNK0	0.000	
13	   N	0.723	0.043	-0.163	N.pl3	1	UNK0	0.000	
14	   C	0.203	0.028	1.140	C.2	1	UNK0	0.000	
15	   O	0.668	0.855	1.982	O.2	1	UNK0	0.000	
16	   C	-0.859	-0.894	1.606	C.3	1	UNK0	0.000	
17	   C	-1.205	-0.622	3.056	C.3	1	UNK0	0.000	
18	   C	-2.273	-1.563	3.537	C.3	1	UNK0	0.000	
19	   C	-3.526	-1.282	2.705	C.3	1	UNK0	0.000	
20	   C	-3.231	-1.522	1.259	C.3	1	UNK0	0.000	
21	   C	-2.106	-0.628	0.791	C.3	1	UNK0	0.000	
22	   C	-2.835	-2.968	1.069	C.3	1	UNK0	0.000	
23	   C	-1.594	-3.221	1.893	C.3	1	UNK0	0.000	
24	   C	-1.913	-3.004	3.350	C.3	1	UNK0	0.000	
25	   C	-0.465	-2.343	1.423	C.3	1	UNK0	0.000	
26	   N	-2.543	-1.235	4.923	N.pl3	1	UNK0	0.000	
27	   N	-2.203	-1.873	6.029	N.2	1	UNK0	0.000	
28	   N	-2.631	-1.264	7.094	N.2	1	UNK0	0.000	
29	   C	-3.282	-0.181	6.708	C.2	1	UNK0	0.000	
30	   N	-3.228	-0.160	5.347	N.2	1	UNK0	0.000	
31	   H	0.044	2.866	-2.168	 H	1	UNK0	0.000	
32	   H	0.879	4.253	-6.093	 H	1	UNK0	0.000	
33	   H	2.399	3.404	-1.110	 H	1	UNK0	0.000	
34	   H	3.711	4.002	-2.162	 H	1	UNK0	0.000	
35	   H	4.242	1.807	-1.291	 H	1	UNK0	0.000	
36	   H	4.855	2.419	-3.604	 H	1	UNK0	0.000	
37	   H	4.818	0.680	-3.287	 H	1	UNK0	0.000	
38	   H	3.471	1.506	-4.252	 H	1	UNK0	0.000	
39	   H	1.972	1.704	0.139	 H	1	UNK0	0.000	
40	   H	0.348	-0.634	-0.871	 H	1	UNK0	0.000	
41	   H	-0.286	-0.671	3.695	 H	1	UNK0	0.000	
42	   H	-1.661	0.402	3.078	 H	1	UNK0	0.000	
43	   H	-4.372	-1.892	3.033	 H	1	UNK0	0.000	
44	   H	-3.710	-0.186	2.831	 H	1	UNK0	0.000	
45	   H	-4.118	-1.284	0.650	 H	1	UNK0	0.000	
46	   H	-1.944	-0.787	-0.296	 H	1	UNK0	0.000	
47	   H	-2.411	0.424	0.991	 H	1	UNK0	0.000	
48	   H	-3.672	-3.588	1.479	 H	1	UNK0	0.000	
49	   H	-2.671	-3.148	0.002	 H	1	UNK0	0.000	
50	   H	-1.302	-4.294	1.701	 H	1	UNK0	0.000	
51	   H	-1.059	-3.309	3.977	 H	1	UNK0	0.000	
52	   H	-2.821	-3.598	3.590	 H	1	UNK0	0.000	
53	   H	-0.292	-2.502	0.356	 H	1	UNK0	0.000	
54	   H	0.415	-2.555	2.057	 H	1	UNK0	0.000	
55	   H	-3.757	0.535	7.361	 H	1	UNK0	0.000	
@<TRIPOS>BOND
1 1 2 1
2 2 3 2
3 2 6 1
4 3 4 1
5 4 5 1
6 4 7 1
7 5 6 2
8 7 8 1
9 8 9 1
10 8 10 1
11 10 11 2
12 10 12 1
13 12 13 1
14 13 14 1
15 14 15 2
16 14 16 1
17 16 17 1
18 16 21 1
19 16 25 1
20 17 18 1
21 18 19 1
22 18 24 1
23 18 26 1
24 19 20 1
25 20 21 1
26 20 22 1
27 22 23 1
28 23 24 1
29 23 25 1
30 26 27 1
31 26 30 1
32 27 28 2
33 28 29 1
34 29 30 2
35 3 31 1
36 6 32 1
37 7 33 1
38 7 34 1
39 8 35 1
40 9 36 1
41 9 37 1
42 9 38 1
43 12 39 1
44 13 40 1
45 17 41 1
46 17 42 1
47 19 43 1
48 19 44 1
49 20 45 1
50 21 46 1
51 21 47 1
52 22 48 1
53 22 49 1
54 23 50 1
55 24 51 1
56 24 52 1
57 25 53 1
58 25 54 1
59 29 55 1
@<TRIPOS>SUBSTRUCTURE
1	UNK0	1	GROUP	1 ****	UNK
# created with PyMOL 2.3.2
@<TRIPOS>MOLECULE
2373
52 55 1                 
SMALL
USER_CHARGES
@<TRIPOS>ATOM
1	  Cl	-1.193	-1.676	8.152	Cl	1	UNK0	0.000	
2	   C	-0.441	-1.305	6.622	C.2	1	UNK0	0.000	
3	   C	0.206	-0.125	6.352	C.2	1	UNK0	0.000	
4	   C	0.782	0.117	5.130	C.2	1	UNK0	0.000	
5	   C	0.735	-0.831	4.101	C.2	1	UNK0	0.000	
6	   C	0.093	-2.004	4.368	C.2	1	UNK0	0.000	
7	   C	-0.482	-2.237	5.597	C.2	1	UNK0	0.000	
8	   C	1.366	-0.517	2.838	C.2	1	UNK0	0.000	
9	   O	1.955	0.607	2.705	O.2	1	UNK0	0.000	
10	   C	1.376	-1.425	1.671	C.3	1	UNK0	0.000	
11	   N	0.730	-0.735	0.550	N.pl3	1	UNK0	0.000	
12	   C	-0.531	-0.702	0.156	C.2	1	UNK0	0.000	
13	   N	-0.676	0.082	-0.946	N.pl3	1	UNK0	0.000	
14	   C	0.509	0.560	-1.256	C.2	1	UNK0	0.000	
15	   C	1.405	0.035	-0.301	C.2	1	UNK0	0.000	
16	   C	0.930	1.434	-2.355	C.2	1	UNK0	0.000	
17	   C	0.115	2.187	-3.137	C.2	1	UNK0	0.000	
18	   C	0.573	2.945	-4.214	C.2	1	UNK0	0.000	
19	   C	1.903	2.962	-4.533	C.2	1	UNK0	0.000	
20	   C	2.755	2.212	-3.759	C.2	1	UNK0	0.000	
21	   C	2.286	1.467	-2.699	C.2	1	UNK0	0.000	
22	   O	2.392	3.717	-5.613	O.3	1	UNK0	0.000	
23	   C	1.561	4.496	-6.431	C.3	1	UNK0	0.000	
24	   C	-1.923	0.271	-1.632	C.3	1	UNK0	0.000	
25	   C	-2.833	1.203	-0.835	C.3	1	UNK0	0.000	
26	   C	-2.552	0.861	0.632	C.3	1	UNK0	0.000	
27	   C	-2.905	-0.585	0.846	C.3	1	UNK0	0.000	
28	   C	-1.621	-1.429	0.877	C.3	1	UNK0	0.000	
29	   H	0.262	0.633	7.125	 H	1	UNK0	0.000	
30	   H	1.290	1.074	4.954	 H	1	UNK0	0.000	
31	   H	0.019	-2.774	3.626	 H	1	UNK0	0.000	
32	   H	-0.986	-3.190	5.769	 H	1	UNK0	0.000	
33	   H	2.465	-1.574	1.416	 H	1	UNK0	0.000	
34	   H	0.918	-2.394	1.870	 H	1	UNK0	0.000	
35	   H	2.476	0.250	-0.289	 H	1	UNK0	0.000	
36	   H	-0.918	2.254	-2.924	 H	1	UNK0	0.000	
37	   H	-0.116	3.533	-4.816	 H	1	UNK0	0.000	
38	   H	3.803	2.229	-4.014	 H	1	UNK0	0.000	
39	   H	2.964	0.878	-2.099	 H	1	UNK0	0.000	
40	   H	1.303	5.436	-5.896	 H	1	UNK0	0.000	
41	   H	2.029	4.694	-7.426	 H	1	UNK0	0.000	
42	   H	0.581	3.987	-6.668	 H	1	UNK0	0.000	
43	   H	-1.905	0.404	-2.691	 H	1	UNK0	0.000	
44	   H	-2.484	-0.742	-1.520	 H	1	UNK0	0.000	
45	   H	-2.590	2.244	-1.067	 H	1	UNK0	0.000	
46	   H	-3.893	1.010	-1.001	 H	1	UNK0	0.000	
47	   H	-1.451	0.997	0.814	 H	1	UNK0	0.000	
48	   H	-3.054	1.554	1.321	 H	1	UNK0	0.000	
49	   H	-3.415	-0.645	1.834	 H	1	UNK0	0.000	
50	   H	-3.641	-0.978	0.119	 H	1	UNK0	0.000	
51	   H	-1.781	-2.374	0.296	 H	1	UNK0	0.000	
52	   H	-1.342	-1.717	1.903	 H	1	UNK0	0.000	
@<TRIPOS>BOND
1 1 2 1
2 2 3 2
3 2 7 1
4 3 4 1
5 4 5 2
6 5 6 1
7 5 8 1
8 6 7 2
9 8 9 2
10 8 10 1
11 10 11 1
12 11 12 2
13 11 15 1
14 12 13 1
15 12 28 1
16 13 14 1
17 13 24 1
18 14 15 2
19 14 16 1
20 16 17 2
21 16 21 1
22 17 18 1
23 18 19 2
24 19 20 1
25 19 22 1
26 20 21 2
27 22 23 1
28 24 25 1
29 25 26 1
30 26 27 1
31 27 28 1
32 3 29 1
33 4 30 1
34 6 31 1
35 7 32 1
36 10 33 1
37 10 34 1
38 15 35 1
39 17 36 1
40 18 37 1
41 20 38 1
42 21 39 1
43 23 40 1
44 23 41 1
45 23 42 1
46 24 43 1
47 24 44 1
48 25 45 1
49 25 46 1
50 26 47 1
51 26 48 1
52 27 49 1
53 27 50 1
54 28 51 1
55 28 52 1
@<TRIPOS>SUBSTRUCTURE
1	UNK0	1	GROUP	1 ****	UNK
# created with PyMOL 2.3.2
@<TRIPOS>MOLECULE
2375
58 61 1                 
SMALL
USER_CHARGES
@<TRIPOS>ATOM
1	  Cl	7.755	-4.745	1.336	Cl	1	UNK0	0.000	
2	   C	6.564	-3.548	0.773	C.2	1	UNK0	0.000	
3	   C	5.954	-2.697	1.665	C.2	1	UNK0	0.000	
4	   C	5.006	-1.769	1.209	C.2	1	UNK0	0.000	
5	   C	4.660	-1.676	-0.131	C.2	1	UNK0	0.000	
6	   C	5.279	-2.525	-0.990	C.2	1	UNK0	0.000	
7	   C	6.218	-3.456	-0.564	C.2	1	UNK0	0.000	
8	   C	3.622	-0.676	-0.471	C.3	1	UNK0	0.000	
9	   C	3.096	-0.795	-1.839	C.3	1	UNK0	0.000	
10	   C	1.638	-0.474	-2.054	C.3	1	UNK0	0.000	
11	   N	0.952	0.074	-0.930	N.pl3	1	UNK0	0.000	
12	   C	1.206	-0.642	0.336	C.3	1	UNK0	0.000	
13	   C	2.615	-0.764	0.649	C.3	1	UNK0	0.000	
14	   C	-0.111	1.008	-0.962	C.2	1	UNK0	0.000	
15	   O	-0.759	1.199	-1.988	O.2	1	UNK0	0.000	
16	   C	-0.475	1.794	0.290	C.3	1	UNK0	0.000	
17	   N	-1.814	1.447	0.704	N.pl3	1	UNK0	0.000	
18	   C	-2.984	1.888	0.088	C.2	1	UNK0	0.000	
19	   O	-2.662	2.759	-0.934	O.2	1	UNK0	0.000	
20	   C	-4.356	1.704	0.166	C.2	1	UNK0	0.000	
21	   C	-5.378	1.067	0.655	C.2	1	UNK0	0.000	
22	   N	-6.732	1.472	0.254	N.pl3	1	UNK0	0.000	
23	   N	-7.872	0.799	0.647	N.pl3	1	UNK0	0.000	
24	   C	-7.823	-0.322	1.460	C.2	1	UNK0	0.000	
25	   O	-8.834	-0.961	1.847	O.2	1	UNK0	0.000	
26	   C	-6.499	-0.808	1.917	C.2	1	UNK0	0.000	
27	   C	-5.390	-0.111	1.500	C.2	1	UNK0	0.000	
28	   C	-4.160	-0.665	1.872	C.2	1	UNK0	0.000	
29	   C	-4.092	-1.831	2.621	C.2	1	UNK0	0.000	
30	   C	-5.226	-2.487	3.023	C.2	1	UNK0	0.000	
31	   C	-6.448	-1.963	2.659	C.2	1	UNK0	0.000	
32	   C	0.567	2.099	1.226	C.3	1	UNK0	0.000	
33	   O	4.247	0.604	-0.376	O.3	1	UNK0	0.000	
34	   H	6.222	-2.756	2.719	 H	1	UNK0	0.000	
35	   H	4.565	-1.114	1.945	 H	1	UNK0	0.000	
36	   H	5.078	-2.517	-2.055	 H	1	UNK0	0.000	
37	   H	6.709	-4.134	-1.232	 H	1	UNK0	0.000	
38	   H	3.283	-1.789	-2.328	 H	1	UNK0	0.000	
39	   H	3.668	-0.060	-2.492	 H	1	UNK0	0.000	
40	   H	1.104	-1.486	-2.224	 H	1	UNK0	0.000	
41	   H	1.422	0.045	-3.007	 H	1	UNK0	0.000	
42	   H	0.825	-1.712	0.057	 H	1	UNK0	0.000	
43	   H	0.583	-0.304	1.154	 H	1	UNK0	0.000	
44	   H	2.905	-0.048	1.443	 H	1	UNK0	0.000	
45	   H	2.742	-1.774	1.189	 H	1	UNK0	0.000	
46	   H	-0.712	2.852	-0.235	 H	1	UNK0	0.000	
47	   H	-1.787	0.850	1.598	 H	1	UNK0	0.000	
48	   H	-4.863	2.527	-0.569	 H	1	UNK0	0.000	
49	   H	-6.786	2.324	-0.368	 H	1	UNK0	0.000	
50	   H	-8.815	1.148	0.320	 H	1	UNK0	0.000	
51	   H	-3.289	-0.213	1.536	 H	1	UNK0	0.000	
52	   H	-3.105	-2.236	2.905	 H	1	UNK0	0.000	
53	   H	-5.106	-3.390	3.595	 H	1	UNK0	0.000	
54	   H	-7.373	-2.444	2.946	 H	1	UNK0	0.000	
55	   H	0.454	1.691	2.257	 H	1	UNK0	0.000	
56	   H	0.695	3.223	1.410	 H	1	UNK0	0.000	
57	   H	1.591	1.836	0.831	 H	1	UNK0	0.000	
58	   H	5.184	0.525	-0.130	 H	1	UNK0	0.000	
@<TRIPOS>BOND
1 1 2 1
2 2 3 2
3 2 7 1
4 3 4 1
5 4 5 2
6 5 6 1
7 5 8 1
8 6 7 2
9 8 9 1
10 8 13 1
11 8 33 1
12 9 10 1
13 10 11 1
14 11 12 1
15 11 14 1
16 12 13 1
17 14 15 2
18 14 16 1
19 16 17 1
20 16 32 1
21 17 18 1
22 18 19 2
23 18 20 1
24 20 21 2
25 21 22 1
26 21 27 1
27 22 23 1
28 23 24 1
29 24 25 2
30 24 26 1
31 26 27 2
32 26 31 1
33 27 28 1
34 28 29 2
35 29 30 1
36 30 31 2
37 3 34 1
38 4 35 1
39 6 36 1
40 7 37 1
41 9 38 1
42 9 39 1
43 10 40 1
44 10 41 1
45 12 42 1
46 12 43 1
47 13 44 1
48 13 45 1
49 16 46 1
50 17 47 1
51 20 48 1
52 22 49 1
53 23 50 1
54 28 51 1
55 29 52 1
56 30 53 1
57 31 54 1
58 32 55 1
59 32 56 1
60 32 57 1
61 33 58 1
@<TRIPOS>SUBSTRUCTURE
1	UNK0	1	GROUP	1 ****	UNK
# created with PyMOL 2.3.2
@<TRIPOS>MOLECULE
2377
58 61 1                 
SMALL
USER_CHARGES
@<TRIPOS>ATOM
1	  Cl	-3.546	-1.116	3.347	Cl	1	UNK0	0.000	
2	   C	-1.929	-1.466	2.790	C.2	1	UNK0	0.000	
3	   C	-1.099	-0.404	2.502	C.2	1	UNK0	0.000	
4	   C	0.185	-0.776	2.079	C.2	1	UNK0	0.000	
5	   N	0.544	-2.069	1.974	N.2	1	UNK0	0.000	
6	   N	-0.243	-3.088	2.247	N.pl3	1	UNK0	0.000	
7	   C	-1.481	-2.783	2.655	C.2	1	UNK0	0.000	
8	   O	-2.295	-3.698	2.936	O.2	1	UNK0	0.000	
9	   C	0.220	-4.428	2.108	C.2	1	UNK0	0.000	
10	   C	0.680	-4.927	0.899	C.2	1	UNK0	0.000	
11	   C	1.132	-6.222	0.747	C.2	1	UNK0	0.000	
12	   C	1.122	-7.049	1.851	C.2	1	UNK0	0.000	
13	   C	0.669	-6.584	3.072	C.2	1	UNK0	0.000	
14	   C	0.217	-5.265	3.194	C.2	1	UNK0	0.000	
15	   N	-1.496	0.944	2.583	N.pl3	1	UNK0	0.000	
16	   C	-0.496	1.993	2.756	C.3	1	UNK0	0.000	
17	   C	-0.546	3.014	1.642	C.3	1	UNK0	0.000	
18	   N	-1.824	2.890	0.984	N.pl3	1	UNK0	0.000	
19	   C	-2.974	2.750	1.859	C.3	1	UNK0	0.000	
20	   C	-2.904	1.346	2.458	C.3	1	UNK0	0.000	
21	   C	-2.000	2.899	-0.415	C.2	1	UNK0	0.000	
22	   O	-3.154	2.785	-0.883	O.2	1	UNK0	0.000	
23	   C	-0.880	3.038	-1.377	C.3	1	UNK0	0.000	
24	   C	-1.388	3.011	-2.800	C.3	1	UNK0	0.000	
25	   C	-0.285	3.155	-3.806	C.3	1	UNK0	0.000	
26	   N	0.718	2.116	-3.730	N.pl3	1	UNK0	0.000	
27	   C	1.900	2.151	-2.951	C.2	1	UNK0	0.000	
28	   O	2.279	3.103	-2.189	O.2	1	UNK0	0.000	
29	   N	2.654	0.969	-3.108	N.pl3	1	UNK0	0.000	
30	   C	1.959	0.109	-4.040	C.3	1	UNK0	0.000	
31	   C	0.734	0.854	-4.406	C.2	1	UNK0	0.000	
32	   O	-0.157	0.454	-5.185	O.2	1	UNK0	0.000	
33	   C	3.909	0.655	-2.456	C.3	1	UNK0	0.000	
34	   H	0.853	0.029	1.836	 H	1	UNK0	0.000	
35	   H	0.681	-4.265	0.043	 H	1	UNK0	0.000	
36	   H	1.493	-6.598	-0.221	 H	1	UNK0	0.000	
37	   H	1.478	-8.062	1.724	 H	1	UNK0	0.000	
38	   H	0.678	-7.260	3.910	 H	1	UNK0	0.000	
39	   H	-0.139	-4.888	4.143	 H	1	UNK0	0.000	
40	   H	-0.804	2.496	3.732	 H	1	UNK0	0.000	
41	   H	0.538	1.644	2.814	 H	1	UNK0	0.000	
42	   H	0.277	2.866	0.915	 H	1	UNK0	0.000	
43	   H	-0.420	4.036	2.101	 H	1	UNK0	0.000	
44	   H	-2.874	3.480	2.687	 H	1	UNK0	0.000	
45	   H	-3.934	2.930	1.341	 H	1	UNK0	0.000	
46	   H	-3.349	0.709	1.682	 H	1	UNK0	0.000	
47	   H	-3.342	1.362	3.438	 H	1	UNK0	0.000	
48	   H	-0.328	3.987	-1.220	 H	1	UNK0	0.000	
49	   H	-0.125	2.227	-1.230	 H	1	UNK0	0.000	
50	   H	-2.102	3.837	-2.971	 H	1	UNK0	0.000	
51	   H	-1.946	2.062	-2.993	 H	1	UNK0	0.000	
52	   H	0.232	4.143	-3.681	 H	1	UNK0	0.000	
53	   H	-0.656	3.152	-4.851	 H	1	UNK0	0.000	
54	   H	1.693	-0.874	-3.567	 H	1	UNK0	0.000	
55	   H	2.567	-0.142	-4.930	 H	1	UNK0	0.000	
56	   H	3.684	0.306	-1.421	 H	1	UNK0	0.000	
57	   H	4.486	1.613	-2.313	 H	1	UNK0	0.000	
58	   H	4.476	-0.089	-3.032	 H	1	UNK0	0.000	
@<TRIPOS>BOND
1 1 2 1
2 2 3 2
3 2 7 1
4 3 4 1
5 3 15 1
6 4 5 2
7 5 6 1
8 6 7 1
9 6 9 1
10 7 8 2
11 9 10 2
12 9 14 1
13 10 11 1
14 11 12 2
15 12 13 1
16 13 14 2
17 15 16 1
18 15 20 1
19 16 17 1
20 17 18 1
21 18 19 1
22 18 21 1
23 19 20 1
24 21 22 2
25 21 23 1
26 23 24 1
27 24 25 1
28 25 26 1
29 26 27 1
30 26 31 1
31 27 28 2
32 27 29 1
33 29 30 1
34 29 33 1
35 30 31 1
36 31 32 2
37 4 34 1
38 10 35 1
39 11 36 1
40 12 37 1
41 13 38 1
42 14 39 1
43 16 40 1
44 16 41 1
45 17 42 1
46 17 43 1
47 19 44 1
48 19 45 1
49 20 46 1
50 20 47 1
51 23 48 1
52 23 49 1
53 24 50 1
54 24 51 1
55 25 52 1
56 25 53 1
57 30 54 1
58 30 55 1
59 33 56 1
60 33 57 1
61 33 58 1
@<TRIPOS>SUBSTRUCTURE
1	UNK0	1	GROUP	1 ****	UNK
# created with PyMOL 2.3.2
@<TRIPOS>MOLECULE
2380
48 51 1                 
SMALL
USER_CHARGES
@<TRIPOS>ATOM
1	  Cl	1.324	2.999	-2.477	Cl	1	UNK0	0.000	
2	   C	1.771	2.079	-1.044	C.2	1	UNK0	0.000	
3	   C	1.300	0.792	-0.938	C.2	1	UNK0	0.000	
4	   C	1.669	0.096	0.202	C.2	1	UNK0	0.000	
5	   N	2.446	0.683	1.129	N.2	1	UNK0	0.000	
6	   N	2.906	1.920	1.039	N.pl3	1	UNK0	0.000	
7	   C	2.566	2.624	-0.055	C.2	1	UNK0	0.000	
8	   O	2.969	3.812	-0.210	O.2	1	UNK0	0.000	
9	   C	3.733	2.491	2.064	C.2	1	UNK0	0.000	
10	   C	4.724	1.737	2.658	C.2	1	UNK0	0.000	
11	   C	5.537	2.280	3.657	C.2	1	UNK0	0.000	
12	   C	5.360	3.578	4.064	C.2	1	UNK0	0.000	
13	   C	4.378	4.339	3.483	C.2	1	UNK0	0.000	
14	   C	3.588	3.791	2.502	C.2	1	UNK0	0.000	
15	   N	0.488	0.254	-1.959	N.pl3	1	UNK0	0.000	
16	   C	-0.790	0.857	-2.320	C.3	1	UNK0	0.000	
17	   C	-1.850	-0.174	-1.886	C.3	1	UNK0	0.000	
18	   N	-1.550	-1.458	-2.438	N.pl3	1	UNK0	0.000	
19	   C	-0.399	-1.539	-3.362	C.3	1	UNK0	0.000	
20	   C	0.835	-0.924	-2.733	C.3	1	UNK0	0.000	
21	   C	-2.293	-2.632	-2.148	C.2	1	UNK0	0.000	
22	   O	-1.989	-3.750	-2.662	O.2	1	UNK0	0.000	
23	   C	-3.455	-2.638	-1.242	C.3	1	UNK0	0.000	
24	   O	-3.701	-1.393	-0.750	O.3	1	UNK0	0.000	
25	   C	-5.069	-1.266	-0.545	C.3	1	UNK0	0.000	
26	   C	-5.616	-1.914	-1.809	C.3	1	UNK0	0.000	
27	   C	-4.713	-3.124	-1.926	C.3	1	UNK0	0.000	
28	   H	1.303	-0.919	0.295	 H	1	UNK0	0.000	
29	   H	4.920	0.714	2.389	 H	1	UNK0	0.000	
30	   H	6.322	1.706	4.137	 H	1	UNK0	0.000	
31	   H	5.975	4.023	4.835	 H	1	UNK0	0.000	
32	   H	4.203	5.357	3.769	 H	1	UNK0	0.000	
33	   H	2.821	4.390	2.051	 H	1	UNK0	0.000	
34	   H	-0.843	0.960	-3.416	 H	1	UNK0	0.000	
35	   H	-1.005	1.768	-1.768	 H	1	UNK0	0.000	
36	   H	-1.728	-0.221	-0.780	 H	1	UNK0	0.000	
37	   H	-2.851	0.228	-2.142	 H	1	UNK0	0.000	
38	   H	-0.675	-0.908	-4.229	 H	1	UNK0	0.000	
39	   H	-0.242	-2.570	-3.674	 H	1	UNK0	0.000	
40	   H	1.544	-0.653	-3.549	 H	1	UNK0	0.000	
41	   H	1.342	-1.694	-2.119	 H	1	UNK0	0.000	
42	   H	-3.219	-3.391	-0.454	 H	1	UNK0	0.000	
43	   H	-5.413	-1.794	0.363	 H	1	UNK0	0.000	
44	   H	-5.383	-0.216	-0.505	 H	1	UNK0	0.000	
45	   H	-5.424	-1.257	-2.667	 H	1	UNK0	0.000	
46	   H	-6.676	-2.199	-1.683	 H	1	UNK0	0.000	
47	   H	-4.546	-3.419	-2.980	 H	1	UNK0	0.000	
48	   H	-5.201	-3.929	-1.341	 H	1	UNK0	0.000	
@<TRIPOS>BOND
1 1 2 1
2 2 3 2
3 2 7 1
4 3 4 1
5 3 15 1
6 4 5 2
7 5 6 1
8 6 7 1
9 6 9 1
10 7 8 2
11 9 10 2
12 9 14 1
13 10 11 1
14 11 12 2
15 12 13 1
16 13 14 2
17 15 16 1
18 15 20 1
19 16 17 1
20 17 18 1
21 18 19 1
22 18 21 1
23 19 20 1
24 21 22 2
25 21 23 1
26 23 24 1
27 23 27 1
28 24 25 1
29 25 26 1
30 26 27 1
31 4 28 1
32 10 29 1
33 11 30 1
34 12 31 1
35 13 32 1
36 14 33 1
37 16 34 1
38 16 35 1
39 17 36 1
40 17 37 1
41 19 38 1
42 19 39 1
43 20 40 1
44 20 41 1
45 23 42 1
46 25 43 1
47 25 44 1
48 26 45 1
49 26 46 1
50 27 47 1
51 27 48 1
@<TRIPOS>SUBSTRUCTURE
1	UNK0	1	GROUP	1 ****	UNK
# created with PyMOL 2.3.2
@<TRIPOS>MOLECULE
2381
50 53 1                 
SMALL
USER_CHARGES
@<TRIPOS>ATOM
1	  Cl	0.123	2.016	-0.960	Cl	1	UNK0	0.000	
2	   C	1.416	0.842	-0.870	C.2	1	UNK0	0.000	
3	   C	1.101	-0.502	-0.862	C.2	1	UNK0	0.000	
4	   C	2.170	-1.377	-0.787	C.2	1	UNK0	0.000	
5	   N	3.443	-0.944	-0.725	N.2	1	UNK0	0.000	
6	   N	3.763	0.340	-0.732	N.pl3	1	UNK0	0.000	
7	   C	2.748	1.220	-0.804	C.2	1	UNK0	0.000	
8	   O	3.041	2.434	-0.812	O.2	1	UNK0	0.000	
9	   C	5.119	0.791	-0.667	C.2	1	UNK0	0.000	
10	   C	5.617	1.672	-1.605	C.2	1	UNK0	0.000	
11	   C	6.924	2.112	-1.550	C.2	1	UNK0	0.000	
12	   C	7.791	1.695	-0.561	C.2	1	UNK0	0.000	
13	   C	7.299	0.815	0.380	C.2	1	UNK0	0.000	
14	   C	5.995	0.379	0.320	C.2	1	UNK0	0.000	
15	   N	-0.246	-0.973	-0.928	N.pl3	1	UNK0	0.000	
16	   C	-1.030	-0.641	-2.085	C.3	1	UNK0	0.000	
17	   C	-2.466	-0.343	-1.715	C.3	1	UNK0	0.000	
18	   N	-2.914	-1.145	-0.604	N.pl3	1	UNK0	0.000	
19	   C	-2.115	-2.276	-0.199	C.3	1	UNK0	0.000	
20	   C	-0.750	-1.761	0.179	C.3	1	UNK0	0.000	
21	   C	-4.118	-0.820	0.071	C.2	1	UNK0	0.000	
22	   O	-4.827	0.177	-0.281	O.2	1	UNK0	0.000	
23	   C	-4.625	-1.614	1.221	C.3	1	UNK0	0.000	
24	   O	-5.827	-1.098	1.725	O.3	1	UNK0	0.000	
25	   C	-5.887	0.192	2.216	C.2	1	UNK0	0.000	
26	   N	-4.928	1.120	2.307	N.2	1	UNK0	0.000	
27	   O	-5.400	2.204	2.830	O.3	1	UNK0	0.000	
28	   C	-6.679	2.081	3.119	C.2	1	UNK0	0.000	
29	   C	-7.021	0.800	2.736	C.2	1	UNK0	0.000	
30	   C	-7.488	3.154	3.725	C.3	1	UNK0	0.000	
31	   H	1.931	-2.451	-0.779	 H	1	UNK0	0.000	
32	   H	4.961	2.016	-2.393	 H	1	UNK0	0.000	
33	   H	7.316	2.802	-2.285	 H	1	UNK0	0.000	
34	   H	8.818	2.049	-0.527	 H	1	UNK0	0.000	
35	   H	8.001	0.502	1.148	 H	1	UNK0	0.000	
36	   H	5.652	-0.308	1.074	 H	1	UNK0	0.000	
37	   H	-0.631	0.242	-2.619	 H	1	UNK0	0.000	
38	   H	-0.953	-1.506	-2.791	 H	1	UNK0	0.000	
39	   H	-2.617	0.729	-1.578	 H	1	UNK0	0.000	
40	   H	-3.094	-0.640	-2.596	 H	1	UNK0	0.000	
41	   H	-1.964	-2.912	-1.114	 H	1	UNK0	0.000	
42	   H	-2.587	-2.873	0.600	 H	1	UNK0	0.000	
43	   H	-0.786	-1.157	1.114	 H	1	UNK0	0.000	
44	   H	-0.085	-2.662	0.317	 H	1	UNK0	0.000	
45	   H	-3.864	-1.726	2.017	 H	1	UNK0	0.000	
46	   H	-4.854	-2.663	0.871	 H	1	UNK0	0.000	
47	   H	-8.008	0.380	2.839	 H	1	UNK0	0.000	
48	   H	-8.462	2.793	4.095	 H	1	UNK0	0.000	
49	   H	-7.690	3.984	2.986	 H	1	UNK0	0.000	
50	   H	-6.899	3.624	4.567	 H	1	UNK0	0.000	
@<TRIPOS>BOND
1 1 2 1
2 2 3 2
3 2 7 1
4 3 4 1
5 3 15 1
6 4 5 2
7 5 6 1
8 6 7 1
9 6 9 1
10 7 8 2
11 9 10 2
12 9 14 1
13 10 11 1
14 11 12 2
15 12 13 1
16 13 14 2
17 15 16 1
18 15 20 1
19 16 17 1
20 17 18 1
21 18 19 1
22 18 21 1
23 19 20 1
24 21 22 2
25 21 23 1
26 23 24 1
27 24 25 1
28 25 26 2
29 25 29 1
30 26 27 1
31 27 28 1
32 28 29 2
33 28 30 1
34 4 31 1
35 10 32 1
36 11 33 1
37 12 34 1
38 13 35 1
39 14 36 1
40 16 37 1
41 16 38 1
42 17 39 1
43 17 40 1
44 19 41 1
45 19 42 1
46 20 43 1
47 20 44 1
48 23 45 1
49 23 46 1
50 29 47 1
51 30 48 1
52 30 49 1
53 30 50 1
@<TRIPOS>SUBSTRUCTURE
1	UNK0	1	GROUP	1 ****	UNK
# created with PyMOL 2.3.2
@<TRIPOS>MOLECULE
2386
53 56 1                 
SMALL
USER_CHARGES
@<TRIPOS>ATOM
1	  Cl	-4.028	-3.569	4.259	Cl	1	UNK0	0.000	
2	   C	-3.345	-2.357	3.180	C.2	1	UNK0	0.000	
3	   C	-1.992	-2.062	3.332	C.2	1	UNK0	0.000	
4	   C	-1.443	-1.116	2.496	C.2	1	UNK0	0.000	
5	   C	-2.227	-0.487	1.538	C.2	1	UNK0	0.000	
6	   C	-3.576	-0.787	1.393	C.2	1	UNK0	0.000	
7	   C	-4.127	-1.737	2.234	C.2	1	UNK0	0.000	
8	   O	-1.749	0.473	0.662	O.3	1	UNK0	0.000	
9	   C	-0.696	1.384	0.814	C.3	1	UNK0	0.000	
10	   C	0.650	0.797	1.037	C.3	1	UNK0	0.000	
11	   N	0.694	-0.522	1.580	N.pl3	1	UNK0	0.000	
12	   C	0.001	-0.940	2.806	C.3	1	UNK0	0.000	
13	   C	1.461	-1.515	0.911	C.2	1	UNK0	0.000	
14	   O	2.065	-1.160	-0.127	O.2	1	UNK0	0.000	
15	   C	1.559	-2.884	1.393	C.3	1	UNK0	0.000	
16	   C	2.016	-3.925	0.455	C.3	1	UNK0	0.000	
17	   C	1.197	-4.264	-0.720	C.3	1	UNK0	0.000	
18	   N	0.864	-3.272	-1.673	N.pl3	1	UNK0	0.000	
19	   C	-0.308	-2.477	-1.661	C.2	1	UNK0	0.000	
20	   O	-1.258	-2.484	-0.823	O.2	1	UNK0	0.000	
21	   N	-0.246	-1.626	-2.792	N.pl3	1	UNK0	0.000	
22	   C	1.124	-1.621	-3.300	C.3	1	UNK0	0.000	
23	   C	1.638	-2.914	-2.801	C.2	1	UNK0	0.000	
24	   O	2.612	-3.570	-3.319	O.2	1	UNK0	0.000	
25	   C	-0.646	2.266	-0.448	C.3	1	UNK0	0.000	
26	   C	-2.046	2.772	-0.668	C.3	1	UNK0	0.000	
27	   O	-2.904	2.432	0.363	O.3	1	UNK0	0.000	
28	   C	-2.462	2.878	1.596	C.3	1	UNK0	0.000	
29	   C	-1.071	2.380	1.923	C.3	1	UNK0	0.000	
30	   H	-1.424	-2.574	4.087	 H	1	UNK0	0.000	
31	   H	-4.146	-0.285	0.650	 H	1	UNK0	0.000	
32	   H	-5.185	-1.994	2.143	 H	1	UNK0	0.000	
33	   H	1.183	1.462	1.780	 H	1	UNK0	0.000	
34	   H	1.280	0.891	0.107	 H	1	UNK0	0.000	
35	   H	0.453	-1.807	3.282	 H	1	UNK0	0.000	
36	   H	0.048	-0.114	3.566	 H	1	UNK0	0.000	
37	   H	0.615	-3.253	1.868	 H	1	UNK0	0.000	
38	   H	2.289	-2.879	2.259	 H	1	UNK0	0.000	
39	   H	2.110	-4.886	1.064	 H	1	UNK0	0.000	
40	   H	3.107	-3.749	0.170	 H	1	UNK0	0.000	
41	   H	1.720	-5.154	-1.217	 H	1	UNK0	0.000	
42	   H	0.208	-4.751	-0.420	 H	1	UNK0	0.000	
43	   H	-1.019	-1.080	-3.221	 H	1	UNK0	0.000	
44	   H	1.715	-0.816	-2.827	 H	1	UNK0	0.000	
45	   H	1.141	-1.576	-4.408	 H	1	UNK0	0.000	
46	   H	-0.236	1.717	-1.299	 H	1	UNK0	0.000	
47	   H	0.018	3.116	-0.181	 H	1	UNK0	0.000	
48	   H	-2.080	3.876	-0.832	 H	1	UNK0	0.000	
49	   H	-2.429	2.305	-1.598	 H	1	UNK0	0.000	
50	   H	-2.544	3.981	1.721	 H	1	UNK0	0.000	
51	   H	-3.162	2.440	2.364	 H	1	UNK0	0.000	
52	   H	-0.384	3.259	1.820	 H	1	UNK0	0.000	
53	   H	-0.996	1.943	2.918	 H	1	UNK0	0.000	
@<TRIPOS>BOND
1 1 2 1
2 2 3 2
3 2 7 1
4 3 4 1
5 4 5 2
6 4 12 1
7 5 6 1
8 5 8 1
9 6 7 2
10 8 9 1
11 9 10 1
12 9 25 1
13 9 29 1
14 10 11 1
15 11 12 1
16 11 13 1
17 13 14 2
18 13 15 1
19 15 16 1
20 16 17 1
21 17 18 1
22 18 19 1
23 18 23 1
24 19 20 2
25 19 21 1
26 21 22 1
27 22 23 1
28 23 24 2
29 25 26 1
30 26 27 1
31 27 28 1
32 28 29 1
33 3 30 1
34 6 31 1
35 7 32 1
36 10 33 1
37 10 34 1
38 12 35 1
39 12 36 1
40 15 37 1
41 15 38 1
42 16 39 1
43 16 40 1
44 17 41 1
45 17 42 1
46 21 43 1
47 22 44 1
48 22 45 1
49 25 46 1
50 25 47 1
51 26 48 1
52 26 49 1
53 28 50 1
54 28 51 1
55 29 52 1
56 29 53 1
@<TRIPOS>SUBSTRUCTURE
1	UNK0	1	GROUP	1 ****	UNK
# created with PyMOL 2.3.2
@<TRIPOS>MOLECULE
2402
55 58 1                 
SMALL
USER_CHARGES
@<TRIPOS>ATOM
1	  Br	1.918	4.745	-5.668	Br	1	UNK0	0.000	
2	   C	1.611	3.494	-4.255	C.2	1	UNK0	0.000	
3	   C	1.910	3.882	-2.981	C.2	1	UNK0	0.000	
4	   C	1.705	3.016	-1.948	C.2	1	UNK0	0.000	
5	   C	1.202	1.738	-2.101	C.2	1	UNK0	0.000	
6	   C	0.908	1.372	-3.397	C.2	1	UNK0	0.000	
7	   C	1.107	2.234	-4.474	C.2	1	UNK0	0.000	
8	   C	1.027	0.894	-0.931	C.3	1	UNK0	0.000	
9	   N	1.512	-0.447	-1.067	N.pl3	1	UNK0	0.000	
10	   C	0.433	-1.368	-1.107	C.2	1	UNK0	0.000	
11	   O	0.413	-2.590	-1.391	O.2	1	UNK0	0.000	
12	   C	-0.805	-0.645	-0.734	C.2	1	UNK0	0.000	
13	   O	-1.964	-1.124	-0.657	O.2	1	UNK0	0.000	
14	   C	-0.382	0.720	-0.483	C.2	1	UNK0	0.000	
15	   C	-1.190	1.644	0.052	C.2	1	UNK0	0.000	
16	   O	-0.608	2.911	0.186	O.2	1	UNK0	0.000	
17	   C	-2.560	1.370	0.470	C.2	1	UNK0	0.000	
18	   O	-3.058	0.388	1.139	O.3	1	UNK0	0.000	
19	   C	-4.341	0.459	1.334	C.2	1	UNK0	0.000	
20	   C	-4.793	1.624	0.733	C.2	1	UNK0	0.000	
21	   C	-3.637	2.187	0.189	C.2	1	UNK0	0.000	
22	   C	-6.128	1.947	0.789	C.2	1	UNK0	0.000	
23	   C	-7.025	1.128	1.435	C.2	1	UNK0	0.000	
24	   C	-6.581	-0.041	2.040	C.2	1	UNK0	0.000	
25	   C	-5.259	-0.350	1.980	C.2	1	UNK0	0.000	
26	   O	-4.786	-1.503	2.571	O.3	1	UNK0	0.000	
27	   C	-5.593	-2.441	3.270	C.3	1	UNK0	0.000	
28	   C	2.891	-0.843	-1.155	C.3	1	UNK0	0.000	
29	   C	3.476	-1.134	0.215	C.3	1	UNK0	0.000	
30	   N	4.840	-1.536	0.179	N.4	1	UNK0	0.000	
31	   C	5.512	-1.359	-1.072	C.3	1	UNK0	0.000	
32	   C	5.595	-0.915	1.259	C.3	1	UNK0	0.000	
33	   H	2.314	4.880	-2.772	 H	1	UNK0	0.000	
34	   H	1.963	3.373	-0.941	 H	1	UNK0	0.000	
35	   H	0.520	0.399	-3.573	 H	1	UNK0	0.000	
36	   H	0.869	1.923	-5.467	 H	1	UNK0	0.000	
37	   H	1.650	1.334	-0.092	 H	1	UNK0	0.000	
38	   H	-3.640	3.119	-0.358	 H	1	UNK0	0.000	
39	   H	-6.486	2.849	0.323	 H	1	UNK0	0.000	
40	   H	-8.077	1.342	1.500	 H	1	UNK0	0.000	
41	   H	-7.322	-0.674	2.550	 H	1	UNK0	0.000	
42	   H	-5.094	-3.444	3.182	 H	1	UNK0	0.000	
43	   H	-5.633	-2.110	4.316	 H	1	UNK0	0.000	
44	   H	-6.599	-2.551	2.860	 H	1	UNK0	0.000	
45	   H	3.509	-0.098	-1.694	 H	1	UNK0	0.000	
46	   H	2.973	-1.784	-1.741	 H	1	UNK0	0.000	
47	   H	2.837	-1.908	0.716	 H	1	UNK0	0.000	
48	   H	3.395	-0.242	0.887	 H	1	UNK0	0.000	
49	   H	4.865	-2.580	0.381	 H	1	UNK0	0.000	
50	   H	5.099	-2.074	-1.816	 H	1	UNK0	0.000	
51	   H	5.541	-0.324	-1.435	 H	1	UNK0	0.000	
52	   H	6.577	-1.666	-0.906	 H	1	UNK0	0.000	
53	   H	5.906	0.094	0.958	 H	1	UNK0	0.000	
54	   H	4.955	-0.797	2.155	 H	1	UNK0	0.000	
55	   H	6.466	-1.559	1.482	 H	1	UNK0	0.000	
@<TRIPOS>BOND
1 1 2 1
2 2 3 2
3 2 7 1
4 3 4 1
5 4 5 2
6 5 6 1
7 5 8 1
8 6 7 2
9 8 9 1
10 8 14 1
11 9 10 1
12 9 28 1
13 10 11 2
14 10 12 1
15 12 13 2
16 12 14 1
17 14 15 2
18 15 16 1
19 15 17 1
20 17 18 1
21 17 21 2
22 18 19 1
23 19 20 2
24 19 25 1
25 20 21 1
26 20 22 1
27 22 23 2
28 23 24 1
29 24 25 2
30 25 26 1
31 26 27 1
32 28 29 1
33 29 30 1
34 30 31 1
35 30 32 1
36 3 33 1
37 4 34 1
38 6 35 1
39 7 36 1
40 8 37 1
41 21 38 1
42 22 39 1
43 23 40 1
44 24 41 1
45 27 42 1
46 27 43 1
47 27 44 1
48 28 45 1
49 28 46 1
50 29 47 1
51 29 48 1
52 30 49 1
53 31 50 1
54 31 51 1
55 31 52 1
56 32 53 1
57 32 54 1
58 32 55 1
@<TRIPOS>SUBSTRUCTURE
1	UNK0	1	GROUP	1 ****	UNK
# created with PyMOL 2.3.2
@<TRIPOS>MOLECULE
2403
39 42 1                 
SMALL
USER_CHARGES
@<TRIPOS>ATOM
1	  Br	2.210	7.545	0.517	Br	1	UNK0	0.000	
2	   C	1.587	5.829	-0.029	C.2	1	UNK0	0.000	
3	   C	0.497	5.305	0.611	C.2	1	UNK0	0.000	
4	   N	0.039	4.091	0.240	N.pl3	1	UNK0	0.000	
5	   C	0.637	3.400	-0.742	C.2	1	UNK0	0.000	
6	   N	0.173	2.172	-1.117	N.2	1	UNK0	0.000	
7	   C	-0.895	1.620	-0.514	C.2	1	UNK0	0.000	
8	   C	-1.492	2.344	0.488	C.2	1	UNK0	0.000	
9	   C	-1.049	3.585	0.890	C.2	1	UNK0	0.000	
10	   O	-1.572	4.257	1.792	O.2	1	UNK0	0.000	
11	   C	-1.368	0.271	-0.973	C.3	1	UNK0	0.000	
12	   N	-0.608	-0.810	-0.377	N.pl3	1	UNK0	0.000	
13	   C	-0.840	-1.524	0.734	C.2	1	UNK0	0.000	
14	   C	0.172	-2.454	0.946	C.2	1	UNK0	0.000	
15	   N	1.033	-2.277	-0.084	N.2	1	UNK0	0.000	
16	   C	0.573	-1.302	-0.872	C.2	1	UNK0	0.000	
17	   N	0.192	-3.309	1.989	N.pl3	1	UNK0	0.000	
18	   C	-0.842	-3.227	2.847	C.2	1	UNK0	0.000	
19	   O	-0.840	-4.019	3.829	O.2	1	UNK0	0.000	
20	   N	-1.844	-2.349	2.688	N.pl3	1	UNK0	0.000	
21	   C	-1.866	-1.492	1.646	C.2	1	UNK0	0.000	
22	   O	-2.789	-0.671	1.480	O.2	1	UNK0	0.000	
23	   C	-2.958	-2.264	3.616	C.3	1	UNK0	0.000	
24	   C	1.279	-4.255	2.154	C.3	1	UNK0	0.000	
25	   C	1.741	3.923	-1.396	C.2	1	UNK0	0.000	
26	   C	2.231	5.155	-1.041	C.2	1	UNK0	0.000	
27	   H	-0.016	5.849	1.422	 H	1	UNK0	0.000	
28	   H	-2.356	1.930	0.986	 H	1	UNK0	0.000	
29	   H	-2.448	0.180	-0.770	 H	1	UNK0	0.000	
30	   H	-1.215	0.233	-2.069	 H	1	UNK0	0.000	
31	   H	1.025	-0.916	-1.780	 H	1	UNK0	0.000	
32	   H	-3.412	-1.254	3.614	 H	1	UNK0	0.000	
33	   H	-3.683	-3.057	3.322	 H	1	UNK0	0.000	
34	   H	-2.601	-2.510	4.652	 H	1	UNK0	0.000	
35	   H	0.981	-5.266	1.803	 H	1	UNK0	0.000	
36	   H	1.565	-4.254	3.236	 H	1	UNK0	0.000	
37	   H	2.180	-3.889	1.610	 H	1	UNK0	0.000	
38	   H	2.205	3.335	-2.191	 H	1	UNK0	0.000	
39	   H	3.105	5.576	-1.554	 H	1	UNK0	0.000	
@<TRIPOS>BOND
1 1 2 1
2 2 3 2
3 2 26 1
4 3 4 1
5 4 5 1
6 4 9 1
7 5 6 2
8 5 25 1
9 6 7 1
10 7 8 2
11 7 11 1
12 8 9 1
13 9 10 2
14 11 12 1
15 12 13 1
16 12 16 1
17 13 14 2
18 13 21 1
19 14 15 1
20 14 17 1
21 15 16 2
22 17 18 1
23 17 24 1
24 18 19 2
25 18 20 1
26 20 21 1
27 20 23 1
28 21 22 2
29 25 26 2
30 3 27 1
31 8 28 1
32 11 29 1
33 11 30 1
34 16 31 1
35 23 32 1
36 23 33 1
37 23 34 1
38 24 35 1
39 24 36 1
40 24 37 1
41 25 38 1
42 26 39 1
@<TRIPOS>SUBSTRUCTURE
1	UNK0	1	GROUP	1 ****	UNK
# created with PyMOL 2.3.2
@<TRIPOS>MOLECULE
2416
53 56 1                 
SMALL
USER_CHARGES
@<TRIPOS>ATOM
1	   S	-2.642	2.136	-0.449	S.O2	1	UNK0	0.000	
2	   O	-2.270	3.607	-0.481	O.2	1	UNK0	0.000	
3	   O	-4.134	2.091	-0.705	O.2	1	UNK0	0.000	
4	   N	-1.736	1.330	-1.579	N.3	1	UNK0	0.000	
5	   C	-1.857	-0.040	-1.790	C.3	1	UNK0	0.000	
6	   C	-0.740	-0.499	-2.737	C.3	1	UNK0	0.000	
7	   N	0.507	0.183	-2.387	N.pl3	1	UNK0	0.000	
8	   C	0.471	1.632	-2.413	C.3	1	UNK0	0.000	
9	   C	-1.007	2.023	-2.558	C.3	1	UNK0	0.000	
10	   C	1.661	-0.568	-2.028	C.2	1	UNK0	0.000	
11	   O	1.559	-1.817	-2.023	O.2	1	UNK0	0.000	
12	   C	2.912	0.104	-1.678	C.3	1	UNK0	0.000	
13	   C	3.559	-0.412	-0.401	C.3	1	UNK0	0.000	
14	   N	3.885	-1.813	-0.447	N.pl3	1	UNK0	0.000	
15	   C	3.351	-2.943	0.228	C.2	1	UNK0	0.000	
16	   O	4.035	-3.995	0.336	O.2	1	UNK0	0.000	
17	   C	2.019	-3.055	0.861	C.2	1	UNK0	0.000	
18	   C	1.232	-2.006	1.349	C.2	1	UNK0	0.000	
19	   C	0.013	-2.280	1.901	C.2	1	UNK0	0.000	
20	   C	-0.494	-3.577	2.001	C.2	1	UNK0	0.000	
21	   C	0.313	-4.601	1.504	C.2	1	UNK0	0.000	
22	   C	1.545	-4.339	0.946	C.2	1	UNK0	0.000	
23	   N	1.577	-0.629	1.332	N.pl3	1	UNK0	0.000	
24	   C	2.735	-0.013	0.760	C.2	1	UNK0	0.000	
25	   O	3.078	1.052	1.385	O.2	1	UNK0	0.000	
26	   C	-2.369	1.592	1.210	C.2	1	UNK0	0.000	
27	   C	-3.083	0.549	1.753	C.2	1	UNK0	0.000	
28	   C	-2.838	0.164	3.053	C.2	1	UNK0	0.000	
29	   C	-1.897	0.776	3.860	C.2	1	UNK0	0.000	
30	   C	-1.177	1.829	3.309	C.2	1	UNK0	0.000	
31	   C	-1.426	2.210	2.010	C.2	1	UNK0	0.000	
32	  Cl	-1.581	0.297	5.495	Cl	1	UNK0	0.000	
33	   H	-2.828	-0.361	-2.272	 H	1	UNK0	0.000	
34	   H	-1.722	-0.681	-0.886	 H	1	UNK0	0.000	
35	   H	-0.976	-0.234	-3.780	 H	1	UNK0	0.000	
36	   H	-0.611	-1.597	-2.701	 H	1	UNK0	0.000	
37	   H	0.779	2.063	-1.433	 H	1	UNK0	0.000	
38	   H	1.025	2.038	-3.257	 H	1	UNK0	0.000	
39	   H	-1.302	1.732	-3.609	 H	1	UNK0	0.000	
40	   H	-1.110	3.135	-2.509	 H	1	UNK0	0.000	
41	   H	3.694	-0.085	-2.481	 H	1	UNK0	0.000	
42	   H	2.806	1.205	-1.640	 H	1	UNK0	0.000	
43	   H	4.539	0.151	-0.315	 H	1	UNK0	0.000	
44	   H	4.676	-2.107	-1.102	 H	1	UNK0	0.000	
45	   H	-0.586	-1.474	2.277	 H	1	UNK0	0.000	
46	   H	-1.452	-3.780	2.435	 H	1	UNK0	0.000	
47	   H	-0.086	-5.602	1.582	 H	1	UNK0	0.000	
48	   H	2.169	-5.127	0.563	 H	1	UNK0	0.000	
49	   H	0.905	-0.011	1.786	 H	1	UNK0	0.000	
50	   H	-3.829	0.020	1.195	 H	1	UNK0	0.000	
51	   H	-3.405	-0.673	3.494	 H	1	UNK0	0.000	
52	   H	-0.444	2.315	3.928	 H	1	UNK0	0.000	
53	   H	-0.851	3.030	1.618	 H	1	UNK0	0.000	
@<TRIPOS>BOND
1 1 2 2
2 1 3 2
3 1 4 1
4 1 26 1
5 4 5 1
6 4 9 1
7 5 6 1
8 6 7 1
9 7 8 1
10 7 10 1
11 8 9 1
12 10 11 2
13 10 12 1
14 12 13 1
15 13 14 1
16 13 24 1
17 14 15 1
18 15 16 2
19 15 17 1
20 17 18 2
21 17 22 1
22 18 19 1
23 18 23 1
24 19 20 2
25 20 21 1
26 21 22 2
27 23 24 1
28 24 25 2
29 26 27 2
30 26 31 1
31 27 28 1
32 28 29 2
33 29 30 1
34 29 32 1
35 30 31 2
36 5 33 1
37 5 34 1
38 6 35 1
39 6 36 1
40 8 37 1
41 8 38 1
42 9 39 1
43 9 40 1
44 12 41 1
45 12 42 1
46 13 43 1
47 14 44 1
48 19 45 1
49 20 46 1
50 21 47 1
51 22 48 1
52 23 49 1
53 27 50 1
54 28 51 1
55 30 52 1
56 31 53 1
@<TRIPOS>SUBSTRUCTURE
1	UNK0	1	GROUP	1 ****	UNK
# created with PyMOL 2.3.2
@<TRIPOS>MOLECULE
2417
53 56 1                 
SMALL
USER_CHARGES
@<TRIPOS>ATOM
1	  Cl	2.113	-2.464	-1.367	Cl	1	UNK0	0.000	
2	   C	2.468	-0.986	-0.479	C.2	1	UNK0	0.000	
3	   C	1.891	-0.833	0.759	C.2	1	UNK0	0.000	
4	   C	2.248	0.275	1.492	C.2	1	UNK0	0.000	
5	   N	1.489	0.213	2.608	N.pl3	1	UNK0	0.000	
6	   N	0.715	-0.838	2.555	N.2	1	UNK0	0.000	
7	   C	0.914	-1.565	1.396	C.2	1	UNK0	0.000	
8	   C	0.333	-2.845	1.078	C.3	1	UNK0	0.000	
9	   N	-1.102	-2.865	0.756	N.3	1	UNK0	0.000	
10	   C	-1.201	-2.541	-0.686	C.3	1	UNK0	0.000	
11	   C	-1.415	-1.097	-0.676	C.3	1	UNK0	0.000	
12	   C	-2.575	-0.990	0.301	C.3	1	UNK0	0.000	
13	   C	-1.949	-1.953	1.397	C.3	1	UNK0	0.000	
14	   C	-3.777	-1.746	-0.187	C.3	1	UNK0	0.000	
15	   O	-4.865	-1.510	0.694	O.3	1	UNK0	0.000	
16	   C	-1.787	-0.477	-2.000	C.3	1	UNK0	0.000	
17	   N	-2.016	0.919	-1.797	N.3	1	UNK0	0.000	
18	   C	-0.810	1.648	-1.465	C.3	1	UNK0	0.000	
19	   C	-0.493	2.766	-2.431	C.3	1	UNK0	0.000	
20	   O	-1.529	3.651	-2.623	O.3	1	UNK0	0.000	
21	   C	-2.777	3.035	-2.601	C.3	1	UNK0	0.000	
22	   C	-2.619	1.582	-2.930	C.3	1	UNK0	0.000	
23	   C	1.624	1.134	3.750	C.3	1	UNK0	0.000	
24	   C	3.126	1.210	1.035	C.2	1	UNK0	0.000	
25	   C	3.699	1.041	-0.229	C.2	1	UNK0	0.000	
26	   C	3.354	-0.074	-0.986	C.2	1	UNK0	0.000	
27	   H	0.828	-3.576	0.492	 H	1	UNK0	0.000	
28	   H	0.272	-3.384	2.126	 H	1	UNK0	0.000	
29	   H	-0.407	-2.966	-1.293	 H	1	UNK0	0.000	
30	   H	-2.126	-3.079	-1.045	 H	1	UNK0	0.000	
31	   H	-0.623	-0.495	-0.255	 H	1	UNK0	0.000	
32	   H	-2.710	-0.008	0.701	 H	1	UNK0	0.000	
33	   H	-1.589	-1.283	2.136	 H	1	UNK0	0.000	
34	   H	-2.868	-2.477	1.835	 H	1	UNK0	0.000	
35	   H	-3.587	-2.876	-0.007	 H	1	UNK0	0.000	
36	   H	-4.084	-1.672	-1.196	 H	1	UNK0	0.000	
37	   H	-5.048	-0.495	0.631	 H	1	UNK0	0.000	
38	   H	-0.908	-0.592	-2.648	 H	1	UNK0	0.000	
39	   H	-2.640	-0.984	-2.469	 H	1	UNK0	0.000	
40	   H	-0.910	2.037	-0.444	 H	1	UNK0	0.000	
41	   H	0.089	0.966	-1.480	 H	1	UNK0	0.000	
42	   H	-0.094	2.325	-3.347	 H	1	UNK0	0.000	
43	   H	0.334	3.345	-1.943	 H	1	UNK0	0.000	
44	   H	-3.187	3.170	-1.587	 H	1	UNK0	0.000	
45	   H	-3.426	3.545	-3.361	 H	1	UNK0	0.000	
46	   H	-3.596	1.118	-3.181	 H	1	UNK0	0.000	
47	   H	-1.900	1.485	-3.766	 H	1	UNK0	0.000	
48	   H	2.740	1.181	4.013	 H	1	UNK0	0.000	
49	   H	1.188	0.697	4.663	 H	1	UNK0	0.000	
50	   H	1.353	2.120	3.455	 H	1	UNK0	0.000	
51	   H	3.338	2.167	1.564	 H	1	UNK0	0.000	
52	   H	4.348	1.758	-0.652	 H	1	UNK0	0.000	
53	   H	3.762	-0.266	-1.950	 H	1	UNK0	0.000	
@<TRIPOS>BOND
1 1 2 1
2 2 3 2
3 2 26 1
4 3 4 1
5 3 7 1
6 4 5 1
7 4 24 2
8 5 6 1
9 5 23 1
10 6 7 2
11 7 8 1
12 8 9 1
13 9 10 1
14 9 13 1
15 10 11 1
16 11 12 1
17 11 16 1
18 12 13 1
19 12 14 1
20 14 15 1
21 16 17 1
22 17 18 1
23 17 22 1
24 18 19 1
25 19 20 1
26 20 21 1
27 21 22 1
28 24 25 1
29 25 26 2
30 8 27 1
31 8 28 1
32 10 29 1
33 10 30 1
34 11 31 1
35 12 32 1
36 13 33 1
37 13 34 1
38 14 35 1
39 14 36 1
40 15 37 1
41 16 38 1
42 16 39 1
43 18 40 1
44 18 41 1
45 19 42 1
46 19 43 1
47 21 44 1
48 21 45 1
49 22 46 1
50 22 47 1
51 23 48 1
52 23 49 1
53 23 50 1
54 24 51 1
55 25 52 1
56 26 53 1
@<TRIPOS>SUBSTRUCTURE
1	UNK0	1	GROUP	1 ****	UNK
# created with PyMOL 2.3.2
@<TRIPOS>MOLECULE
2419
58 62 1                 
SMALL
USER_CHARGES
@<TRIPOS>ATOM
1	  Br	-0.806	5.854	-6.181	Br	1	UNK0	0.000	
2	   C	-0.525	4.869	-4.550	C.2	1	UNK0	0.000	
3	   C	0.658	4.922	-3.879	C.2	1	UNK0	0.000	
4	   C	0.852	4.222	-2.723	C.2	1	UNK0	0.000	
5	   C	-0.133	3.426	-2.174	C.2	1	UNK0	0.000	
6	   C	-1.310	3.372	-2.840	C.2	1	UNK0	0.000	
7	   C	-1.527	4.092	-4.040	C.2	1	UNK0	0.000	
8	   C	0.157	2.708	-0.952	C.2	1	UNK0	0.000	
9	   C	1.416	2.742	-0.330	C.2	1	UNK0	0.000	
10	   N	1.322	1.994	0.762	N.pl3	1	UNK0	0.000	
11	   C	2.102	1.590	1.811	C.2	1	UNK0	0.000	
12	   C	1.287	0.804	2.586	C.2	1	UNK0	0.000	
13	   N	0.100	0.767	2.000	N.pl3	1	UNK0	0.000	
14	   C	0.107	1.508	0.855	C.cat	1	UNK0	0.000	
15	   N	-0.641	1.938	-0.204	N.pl3	1	UNK0	0.000	
16	   C	-2.016	1.567	-0.343	C.3	1	UNK0	0.000	
17	   C	-2.320	0.381	-1.166	C.3	1	UNK0	0.000	
18	   C	-1.811	-0.945	-0.729	C.3	1	UNK0	0.000	
19	   N	-2.400	-1.366	0.523	N.4	1	UNK0	0.000	
20	   C	-1.874	-2.608	1.007	C.3	1	UNK0	0.000	
21	   C	-0.703	-3.147	0.235	C.3	1	UNK0	0.000	
22	   C	-0.619	-4.642	0.577	C.3	1	UNK0	0.000	
23	   C	-0.359	-4.780	2.037	C.3	1	UNK0	0.000	
24	   C	-1.338	-4.024	2.905	C.3	1	UNK0	0.000	
25	   C	-1.429	-2.559	2.463	C.3	1	UNK0	0.000	
26	   C	1.753	0.209	3.762	C.2	1	UNK0	0.000	
27	   C	3.058	0.410	4.157	C.2	1	UNK0	0.000	
28	   C	3.855	1.202	3.362	C.2	1	UNK0	0.000	
29	   C	3.399	1.798	2.192	C.2	1	UNK0	0.000	
30	   H	1.475	5.544	-4.278	 H	1	UNK0	0.000	
31	   H	1.839	4.312	-2.225	 H	1	UNK0	0.000	
32	   H	-2.152	2.808	-2.552	 H	1	UNK0	0.000	
33	   H	-2.466	4.043	-4.563	 H	1	UNK0	0.000	
34	   H	2.299	3.274	-0.673	 H	1	UNK0	0.000	
35	   H	-0.706	0.245	2.393	 H	1	UNK0	0.000	
36	   H	-2.655	2.413	-0.578	 H	1	UNK0	0.000	
37	   H	-2.364	1.253	0.725	 H	1	UNK0	0.000	
38	   H	-3.458	0.281	-1.129	 H	1	UNK0	0.000	
39	   H	-2.161	0.533	-2.278	 H	1	UNK0	0.000	
40	   H	-0.710	-0.980	-0.597	 H	1	UNK0	0.000	
41	   H	-2.161	-1.690	-1.498	 H	1	UNK0	0.000	
42	   H	-2.464	-0.662	1.254	 H	1	UNK0	0.000	
43	   H	-3.437	-1.580	0.287	 H	1	UNK0	0.000	
44	   H	-2.664	-3.418	0.991	 H	1	UNK0	0.000	
45	   H	-0.759	-2.992	-0.842	 H	1	UNK0	0.000	
46	   H	0.242	-2.706	0.664	 H	1	UNK0	0.000	
47	   H	-1.583	-5.130	0.283	 H	1	UNK0	0.000	
48	   H	0.231	-5.088	0.032	 H	1	UNK0	0.000	
49	   H	-0.453	-5.852	2.305	 H	1	UNK0	0.000	
50	   H	0.674	-4.453	2.255	 H	1	UNK0	0.000	
51	   H	-0.951	-4.054	3.936	 H	1	UNK0	0.000	
52	   H	-2.321	-4.487	2.804	 H	1	UNK0	0.000	
53	   H	-0.409	-2.105	2.539	 H	1	UNK0	0.000	
54	   H	-2.198	-2.062	3.052	 H	1	UNK0	0.000	
55	   H	1.122	-0.409	4.376	 H	1	UNK0	0.000	
56	   H	3.461	-0.041	5.075	 H	1	UNK0	0.000	
57	   H	4.872	1.359	3.670	 H	1	UNK0	0.000	
58	   H	4.021	2.414	1.575	 H	1	UNK0	0.000	
@<TRIPOS>BOND
1 1 2 1
2 2 3 2
3 2 7 1
4 3 4 1
5 4 5 2
6 5 6 1
7 5 8 1
8 6 7 2
9 8 9 2
10 8 15 1
11 9 10 1
12 10 11 1
13 10 14 1
14 11 12 2
15 11 29 1
16 12 13 1
17 12 26 1
18 13 14 2
19 14 15 1
20 15 16 1
21 16 17 1
22 17 18 1
23 18 19 1
24 19 20 1
25 20 21 1
26 20 25 1
27 21 22 1
28 22 23 1
29 23 24 1
30 24 25 1
31 26 27 2
32 27 28 1
33 28 29 2
34 3 30 1
35 4 31 1
36 6 32 1
37 7 33 1
38 9 34 1
39 13 35 1
40 16 36 1
41 16 37 1
42 17 38 1
43 17 39 1
44 18 40 1
45 18 41 1
46 19 42 1
47 19 43 1
48 20 44 1
49 21 45 1
50 21 46 1
51 22 47 1
52 22 48 1
53 23 49 1
54 23 50 1
55 24 51 1
56 24 52 1
57 25 53 1
58 25 54 1
59 26 55 1
60 27 56 1
61 28 57 1
62 29 58 1
@<TRIPOS>SUBSTRUCTURE
1	UNK0	1	GROUP	1 ****	UNK
# created with PyMOL 2.3.2
@<TRIPOS>MOLECULE
2420
49 52 1                 
SMALL
USER_CHARGES
@<TRIPOS>ATOM
1	  Br	5.551	-1.862	-0.341	Br	1	UNK0	0.000	
2	   C	3.951	-1.546	-1.322	C.2	1	UNK0	0.000	
3	   C	3.233	-2.592	-1.857	C.2	1	UNK0	0.000	
4	   C	2.085	-2.384	-2.562	C.2	1	UNK0	0.000	
5	   N	1.181	-3.185	-3.194	N.pl3	1	UNK0	0.000	
6	   N	0.229	-2.438	-3.732	N.2	1	UNK0	0.000	
7	   C	0.456	-1.141	-3.486	C.2	1	UNK0	0.000	
8	   C	1.631	-1.101	-2.745	C.2	1	UNK0	0.000	
9	   C	2.336	-0.027	-2.216	C.2	1	UNK0	0.000	
10	   C	3.495	-0.239	-1.504	C.2	1	UNK0	0.000	
11	   N	-0.287	0.009	-3.856	N.pl3	1	UNK0	0.000	
12	   C	-1.660	0.335	-3.475	C.3	1	UNK0	0.000	
13	   C	-1.600	1.827	-3.235	C.3	1	UNK0	0.000	
14	   C	-0.746	2.306	-4.403	C.3	1	UNK0	0.000	
15	   C	0.120	1.106	-4.679	C.2	1	UNK0	0.000	
16	   O	1.072	1.063	-5.514	O.2	1	UNK0	0.000	
17	   C	-0.941	2.154	-1.948	C.2	1	UNK0	0.000	
18	   O	0.052	2.923	-1.969	O.2	1	UNK0	0.000	
19	   N	-1.386	1.635	-0.711	N.pl3	1	UNK0	0.000	
20	   C	-0.751	1.949	0.543	C.3	1	UNK0	0.000	
21	   C	-1.465	1.227	1.666	C.3	1	UNK0	0.000	
22	   N	-0.888	1.492	2.961	N.3	1	UNK0	0.000	
23	   C	-1.659	0.739	3.944	C.3	1	UNK0	0.000	
24	   C	-1.149	-0.697	4.030	C.3	1	UNK0	0.000	
25	   O	0.116	-0.779	4.563	O.3	1	UNK0	0.000	
26	   C	0.760	0.426	4.405	C.3	1	UNK0	0.000	
27	   C	0.485	1.050	3.052	C.3	1	UNK0	0.000	
28	   H	3.576	-3.609	-1.722	 H	1	UNK0	0.000	
29	   H	1.313	-4.227	-3.194	 H	1	UNK0	0.000	
30	   H	1.959	0.996	-2.372	 H	1	UNK0	0.000	
31	   H	4.037	0.618	-1.095	 H	1	UNK0	0.000	
32	   H	-2.018	-0.241	-2.614	 H	1	UNK0	0.000	
33	   H	-2.343	0.157	-4.330	 H	1	UNK0	0.000	
34	   H	-2.599	2.282	-3.336	 H	1	UNK0	0.000	
35	   H	-0.050	3.077	-4.012	 H	1	UNK0	0.000	
36	   H	-1.332	2.611	-5.266	 H	1	UNK0	0.000	
37	   H	-2.219	0.993	-0.733	 H	1	UNK0	0.000	
38	   H	-0.946	3.043	0.723	 H	1	UNK0	0.000	
39	   H	0.327	1.801	0.558	 H	1	UNK0	0.000	
40	   H	-1.365	0.123	1.498	 H	1	UNK0	0.000	
41	   H	-2.551	1.444	1.669	 H	1	UNK0	0.000	
42	   H	-1.643	1.171	4.942	 H	1	UNK0	0.000	
43	   H	-2.703	0.689	3.561	 H	1	UNK0	0.000	
44	   H	-1.880	-1.224	4.708	 H	1	UNK0	0.000	
45	   H	-1.152	-1.193	3.039	 H	1	UNK0	0.000	
46	   H	0.520	1.164	5.194	 H	1	UNK0	0.000	
47	   H	1.855	0.217	4.476	 H	1	UNK0	0.000	
48	   H	1.202	1.905	2.964	 H	1	UNK0	0.000	
49	   H	0.752	0.329	2.246	 H	1	UNK0	0.000	
@<TRIPOS>BOND
1 1 2 1
2 2 3 2
3 2 10 1
4 3 4 1
5 4 5 1
6 4 8 2
7 5 6 1
8 6 7 2
9 7 8 1
10 7 11 1
11 8 9 1
12 9 10 2
13 11 12 1
14 11 15 1
15 12 13 1
16 13 14 1
17 13 17 1
18 14 15 1
19 15 16 2
20 17 18 2
21 17 19 1
22 19 20 1
23 20 21 1
24 21 22 1
25 22 23 1
26 22 27 1
27 23 24 1
28 24 25 1
29 25 26 1
30 26 27 1
31 3 28 1
32 5 29 1
33 9 30 1
34 10 31 1
35 12 32 1
36 12 33 1
37 13 34 1
38 14 35 1
39 14 36 1
40 19 37 1
41 20 38 1
42 20 39 1
43 21 40 1
44 21 41 1
45 23 42 1
46 23 43 1
47 24 44 1
48 24 45 1
49 26 46 1
50 26 47 1
51 27 48 1
52 27 49 1
@<TRIPOS>SUBSTRUCTURE
1	UNK0	1	GROUP	1 ****	UNK
# created with PyMOL 2.3.2
@<TRIPOS>MOLECULE
2432
40 43 1                 
SMALL
USER_CHARGES
@<TRIPOS>ATOM
1	  Cl	-4.842	2.181	-3.910	Cl	1	UNK0	0.000	
2	   C	-3.213	2.471	-3.339	C.2	1	UNK0	0.000	
3	   N	-2.691	2.216	-2.107	N.pl3	1	UNK0	0.000	
4	   C	-1.407	2.569	-2.029	C.2	1	UNK0	0.000	
5	   C	-1.120	3.076	-3.303	C.2	1	UNK0	0.000	
6	   C	-2.228	3.019	-4.115	C.2	1	UNK0	0.000	
7	  Cl	-2.373	3.530	-5.783	Cl	1	UNK0	0.000	
8	   C	-0.471	2.501	-0.937	C.2	1	UNK0	0.000	
9	   O	0.734	2.913	-1.285	O.2	1	UNK0	0.000	
10	   N	-0.638	2.084	0.374	N.pl3	1	UNK0	0.000	
11	   C	0.552	2.092	1.259	C.3	1	UNK0	0.000	
12	   C	0.759	0.664	1.688	C.3	1	UNK0	0.000	
13	   N	-0.271	-0.238	1.280	N.pl3	1	UNK0	0.000	
14	   C	-1.671	0.131	1.131	C.3	1	UNK0	0.000	
15	   C	-1.808	1.643	1.038	C.3	1	UNK0	0.000	
16	   C	0.050	-1.592	0.989	C.2	1	UNK0	0.000	
17	   N	-0.498	-2.603	1.689	N.2	1	UNK0	0.000	
18	   C	-0.202	-3.898	1.427	C.2	1	UNK0	0.000	
19	   N	0.660	-4.213	0.445	N.2	1	UNK0	0.000	
20	   C	1.249	-3.263	-0.299	C.2	1	UNK0	0.000	
21	   N	2.127	-3.311	-1.318	N.pl3	1	UNK0	0.000	
22	   N	2.370	-2.067	-1.679	N.2	1	UNK0	0.000	
23	   C	1.665	-1.201	-0.914	C.2	1	UNK0	0.000	
24	   C	0.932	-1.930	-0.015	C.2	1	UNK0	0.000	
25	   C	2.721	-4.498	-1.934	C.3	1	UNK0	0.000	
26	   H	-3.305	1.784	-1.388	 H	1	UNK0	0.000	
27	   H	-0.170	3.479	-3.674	 H	1	UNK0	0.000	
28	   H	1.411	2.516	0.720	 H	1	UNK0	0.000	
29	   H	0.296	2.731	2.141	 H	1	UNK0	0.000	
30	   H	1.769	0.366	1.342	 H	1	UNK0	0.000	
31	   H	0.829	0.647	2.815	 H	1	UNK0	0.000	
32	   H	-2.252	-0.260	1.971	 H	1	UNK0	0.000	
33	   H	-2.028	-0.311	0.187	 H	1	UNK0	0.000	
34	   H	-1.739	1.964	2.149	 H	1	UNK0	0.000	
35	   H	-2.775	1.949	0.696	 H	1	UNK0	0.000	
36	   H	-0.655	-4.690	2.004	 H	1	UNK0	0.000	
37	   H	1.678	-0.141	-0.997	 H	1	UNK0	0.000	
38	   H	3.805	-4.509	-1.646	 H	1	UNK0	0.000	
39	   H	2.608	-4.495	-3.027	 H	1	UNK0	0.000	
40	   H	2.263	-5.411	-1.541	 H	1	UNK0	0.000	
@<TRIPOS>BOND
1 1 2 1
2 2 3 1
3 2 6 2
4 3 4 1
5 4 5 2
6 4 8 1
7 5 6 1
8 6 7 1
9 8 9 2
10 8 10 1
11 10 11 1
12 10 15 1
13 11 12 1
14 12 13 1
15 13 14 1
16 13 16 1
17 14 15 1
18 16 17 2
19 16 24 1
20 17 18 1
21 18 19 2
22 19 20 1
23 20 21 1
24 20 24 2
25 21 22 1
26 21 25 1
27 22 23 2
28 23 24 1
29 3 26 1
30 5 27 1
31 11 28 1
32 11 29 1
33 12 30 1
34 12 31 1
35 14 32 1
36 14 33 1
37 15 34 1
38 15 35 1
39 18 36 1
40 23 37 1
41 25 38 1
42 25 39 1
43 25 40 1
@<TRIPOS>SUBSTRUCTURE
1	UNK0	1	GROUP	1 ****	UNK
# created with PyMOL 2.3.2
@<TRIPOS>MOLECULE
2439
55 59 1                 
SMALL
USER_CHARGES
@<TRIPOS>ATOM
1	  Br	-2.874	-1.432	7.314	Br	1	UNK0	0.000	
2	   C	-2.456	-1.444	5.464	C.2	1	UNK0	0.000	
3	   C	-2.015	-2.571	4.834	C.2	1	UNK0	0.000	
4	   C	-1.720	-2.543	3.485	C.2	1	UNK0	0.000	
5	   C	-1.845	-1.405	2.689	C.2	1	UNK0	0.000	
6	   C	-2.286	-0.288	3.328	C.2	1	UNK0	0.000	
7	   C	-2.589	-0.310	4.711	C.2	1	UNK0	0.000	
8	   C	-1.486	-1.506	1.270	C.2	1	UNK0	0.000	
9	   C	-0.951	-2.687	0.725	C.2	1	UNK0	0.000	
10	   N	-0.740	-2.507	-0.577	N.pl3	1	UNK0	0.000	
11	   C	-0.288	-3.136	-1.693	C.2	1	UNK0	0.000	
12	   C	-0.394	-2.249	-2.709	C.2	1	UNK0	0.000	
13	   N	-0.900	-1.118	-2.196	N.pl3	1	UNK0	0.000	
14	   C	-1.120	-1.262	-0.870	C.cat	1	UNK0	0.000	
15	   N	-1.582	-0.631	0.259	N.pl3	1	UNK0	0.000	
16	   C	-2.084	0.703	0.274	C.3	1	UNK0	0.000	
17	   C	-1.082	1.772	0.627	C.3	1	UNK0	0.000	
18	   C	0.046	1.955	-0.287	C.3	1	UNK0	0.000	
19	   N	-0.194	2.376	-1.636	N.4	1	UNK0	0.000	
20	   C	-0.528	3.786	-1.727	C.3	1	UNK0	0.000	
21	   C	0.602	4.716	-1.860	C.3	1	UNK0	0.000	
22	   C	1.928	4.120	-2.155	C.3	1	UNK0	0.000	
23	   C	1.797	2.909	-3.009	C.3	1	UNK0	0.000	
24	   C	0.762	1.934	-2.588	C.3	1	UNK0	0.000	
25	   C	-0.007	-2.597	-3.991	C.2	1	UNK0	0.000	
26	   C	0.495	-3.860	-4.260	C.2	1	UNK0	0.000	
27	   C	0.604	-4.770	-3.217	C.2	1	UNK0	0.000	
28	   C	0.210	-4.389	-1.954	C.2	1	UNK0	0.000	
29	   H	-1.907	-3.472	5.420	 H	1	UNK0	0.000	
30	   H	-1.376	-3.473	3.039	 H	1	UNK0	0.000	
31	   H	-2.410	0.627	2.821	 H	1	UNK0	0.000	
32	   H	-2.935	0.597	5.173	 H	1	UNK0	0.000	
33	   H	-0.724	-3.616	1.219	 H	1	UNK0	0.000	
34	   H	-1.110	-0.241	-2.740	 H	1	UNK0	0.000	
35	   H	-3.030	0.821	0.820	 H	1	UNK0	0.000	
36	   H	-2.434	0.884	-0.811	 H	1	UNK0	0.000	
37	   H	-0.630	1.428	1.616	 H	1	UNK0	0.000	
38	   H	-1.587	2.720	0.943	 H	1	UNK0	0.000	
39	   H	0.569	0.954	-0.377	 H	1	UNK0	0.000	
40	   H	0.841	2.593	0.204	 H	1	UNK0	0.000	
41	   H	-1.100	1.923	-1.892	 H	1	UNK0	0.000	
42	   H	-1.264	4.004	-2.532	 H	1	UNK0	0.000	
43	   H	-1.102	4.003	-0.775	 H	1	UNK0	0.000	
44	   H	0.718	5.320	-0.910	 H	1	UNK0	0.000	
45	   H	0.404	5.513	-2.638	 H	1	UNK0	0.000	
46	   H	2.555	4.866	-2.687	 H	1	UNK0	0.000	
47	   H	2.499	3.914	-1.200	 H	1	UNK0	0.000	
48	   H	2.803	2.414	-3.049	 H	1	UNK0	0.000	
49	   H	1.623	3.257	-4.065	 H	1	UNK0	0.000	
50	   H	1.274	1.033	-2.141	 H	1	UNK0	0.000	
51	   H	0.290	1.528	-3.525	 H	1	UNK0	0.000	
52	   H	-0.090	-1.891	-4.804	 H	1	UNK0	0.000	
53	   H	0.806	-4.160	-5.254	 H	1	UNK0	0.000	
54	   H	0.998	-5.744	-3.455	 H	1	UNK0	0.000	
55	   H	0.296	-5.093	-1.159	 H	1	UNK0	0.000	
@<TRIPOS>BOND
1 1 2 1
2 2 3 2
3 2 7 1
4 3 4 1
5 4 5 2
6 5 6 1
7 5 8 1
8 6 7 2
9 8 9 2
10 8 15 1
11 9 10 1
12 10 11 1
13 10 14 1
14 11 12 2
15 11 28 1
16 12 13 1
17 12 25 1
18 13 14 2
19 14 15 1
20 15 16 1
21 16 17 1
22 17 18 1
23 18 19 1
24 19 20 1
25 19 24 1
26 20 21 1
27 21 22 1
28 22 23 1
29 23 24 1
30 25 26 2
31 26 27 1
32 27 28 2
33 3 29 1
34 4 30 1
35 6 31 1
36 7 32 1
37 9 33 1
38 13 34 1
39 16 35 1
40 16 36 1
41 17 37 1
42 17 38 1
43 18 39 1
44 18 40 1
45 19 41 1
46 20 42 1
47 20 43 1
48 21 44 1
49 21 45 1
50 22 46 1
51 22 47 1
52 23 48 1
53 23 49 1
54 24 50 1
55 24 51 1
56 25 52 1
57 26 53 1
58 27 54 1
59 28 55 1
@<TRIPOS>SUBSTRUCTURE
1	UNK0	1	GROUP	1 ****	UNK
# created with PyMOL 2.3.2
@<TRIPOS>MOLECULE
2440
52 55 1                 
SMALL
USER_CHARGES
@<TRIPOS>ATOM
1	  Cl	-1.906	-5.828	0.717	Cl	1	UNK0	0.000	
2	   C	-1.134	-4.692	-0.385	C.2	1	UNK0	0.000	
3	   C	-1.109	-3.343	-0.001	C.2	1	UNK0	0.000	
4	   C	-0.508	-2.464	-0.860	C.2	1	UNK0	0.000	
5	   C	0.060	-2.896	-2.077	C.2	1	UNK0	0.000	
6	   C	0.029	-4.218	-2.442	C.2	1	UNK0	0.000	
7	   C	-0.577	-5.099	-1.573	C.2	1	UNK0	0.000	
8	   C	-0.584	-1.125	-0.260	C.3	1	UNK0	0.000	
9	   N	-1.132	-0.127	-1.107	N.3	1	UNK0	0.000	
10	   C	-0.619	1.138	-0.812	C.3	1	UNK0	0.000	
11	   C	0.635	0.875	-0.007	C.3	1	UNK0	0.000	
12	   C	0.813	-0.606	0.075	C.3	1	UNK0	0.000	
13	   C	1.215	-0.934	1.468	C.2	1	UNK0	0.000	
14	   O	1.545	-2.081	1.850	O.2	1	UNK0	0.000	
15	   N	1.149	0.267	2.238	N.pl3	1	UNK0	0.000	
16	   C	0.495	1.247	1.418	C.2	1	UNK0	0.000	
17	   O	-0.093	2.248	1.857	O.2	1	UNK0	0.000	
18	   C	1.634	0.492	3.565	C.3	1	UNK0	0.000	
19	   C	0.677	0.210	4.667	C.3	1	UNK0	0.000	
20	   C	0.195	-1.192	4.788	C.3	1	UNK0	0.000	
21	   C	1.339	-2.164	5.054	C.3	1	UNK0	0.000	
22	   C	-0.418	2.112	-1.907	C.3	1	UNK0	0.000	
23	   C	0.509	1.758	-3.000	C.3	1	UNK0	0.000	
24	   C	0.181	0.583	-3.814	C.2	1	UNK0	0.000	
25	   O	-0.932	0.034	-3.714	O.2	1	UNK0	0.000	
26	   N	1.092	0.011	-4.749	N.pl3	1	UNK0	0.000	
27	   C	-1.315	-1.303	0.998	C.2	1	UNK0	0.000	
28	   O	-1.655	-0.428	1.854	O.2	1	UNK0	0.000	
29	   N	-1.616	-2.677	1.149	N.pl3	1	UNK0	0.000	
30	   H	0.528	-2.168	-2.734	 H	1	UNK0	0.000	
31	   H	0.455	-4.583	-3.367	 H	1	UNK0	0.000	
32	   H	-0.612	-6.146	-1.840	 H	1	UNK0	0.000	
33	   H	-2.143	-0.205	-1.306	 H	1	UNK0	0.000	
34	   H	-1.337	1.627	-0.083	 H	1	UNK0	0.000	
35	   H	1.515	1.408	-0.401	 H	1	UNK0	0.000	
36	   H	1.567	-1.014	-0.598	 H	1	UNK0	0.000	
37	   H	1.901	1.587	3.654	 H	1	UNK0	0.000	
38	   H	2.604	-0.032	3.749	 H	1	UNK0	0.000	
39	   H	1.212	0.442	5.636	 H	1	UNK0	0.000	
40	   H	-0.161	0.952	4.658	 H	1	UNK0	0.000	
41	   H	-0.351	-1.601	3.936	 H	1	UNK0	0.000	
42	   H	-0.503	-1.216	5.673	 H	1	UNK0	0.000	
43	   H	2.257	-1.892	4.495	 H	1	UNK0	0.000	
44	   H	1.054	-3.205	4.778	 H	1	UNK0	0.000	
45	   H	1.621	-2.165	6.126	 H	1	UNK0	0.000	
46	   H	-1.435	2.421	-2.269	 H	1	UNK0	0.000	
47	   H	-0.026	3.066	-1.441	 H	1	UNK0	0.000	
48	   H	0.611	2.613	-3.742	 H	1	UNK0	0.000	
49	   H	1.561	1.613	-2.651	 H	1	UNK0	0.000	
50	   H	1.387	0.483	-5.622	 H	1	UNK0	0.000	
51	   H	1.483	-0.925	-4.549	 H	1	UNK0	0.000	
52	   H	-2.112	-3.158	1.936	 H	1	UNK0	0.000	
@<TRIPOS>BOND
1 1 2 1
2 2 3 2
3 2 7 1
4 3 4 1
5 3 29 1
6 4 5 2
7 4 8 1
8 5 6 1
9 6 7 2
10 8 9 1
11 8 12 1
12 8 27 1
13 9 10 1
14 10 11 1
15 10 22 1
16 11 12 1
17 11 16 1
18 12 13 1
19 13 14 2
20 13 15 1
21 15 16 1
22 15 18 1
23 16 17 2
24 18 19 1
25 19 20 1
26 20 21 1
27 22 23 1
28 23 24 1
29 24 25 2
30 24 26 1
31 27 28 2
32 27 29 1
33 5 30 1
34 6 31 1
35 7 32 1
36 9 33 1
37 10 34 1
38 11 35 1
39 12 36 1
40 18 37 1
41 18 38 1
42 19 39 1
43 19 40 1
44 20 41 1
45 20 42 1
46 21 43 1
47 21 44 1
48 21 45 1
49 22 46 1
50 22 47 1
51 23 48 1
52 23 49 1
53 26 50 1
54 26 51 1
55 29 52 1
@<TRIPOS>SUBSTRUCTURE
1	UNK0	1	GROUP	1 ****	UNK
# created with PyMOL 2.3.2
@<TRIPOS>MOLECULE
2447
62 65 1                 
SMALL
USER_CHARGES
@<TRIPOS>ATOM
1	   S	2.424	0.849	-4.143	S.O2	1	UNK0	0.000	
2	   O	2.957	0.432	-2.789	O.2	1	UNK0	0.000	
3	   O	2.249	-0.440	-4.935	O.2	1	UNK0	0.000	
4	   N	0.914	1.624	-4.062	N.3	1	UNK0	0.000	
5	   C	0.911	2.850	-3.337	C.3	1	UNK0	0.000	
6	   C	0.454	2.574	-1.918	C.3	1	UNK0	0.000	
7	   N	-0.948	2.242	-1.977	N.3	1	UNK0	0.000	
8	   C	-1.366	1.581	-3.157	C.3	1	UNK0	0.000	
9	   C	-0.179	0.782	-3.697	C.3	1	UNK0	0.000	
10	   C	-1.824	3.209	-1.415	C.3	1	UNK0	0.000	
11	   C	-1.640	3.232	0.061	C.3	1	UNK0	0.000	
12	   C	-2.510	4.230	0.748	C.2	1	UNK0	0.000	
13	   O	-3.197	5.072	0.122	O.co2	1	UNK0	0.000	
14	   O	-2.484	4.136	2.137	O.3	1	UNK0	0.000	
15	   C	-2.237	2.976	2.841	C.2	1	UNK0	0.000	
16	   C	-2.004	1.848	2.135	C.2	1	UNK0	0.000	
17	   C	-2.029	1.919	0.690	C.2	1	UNK0	0.000	
18	   O	-2.356	0.954	-0.021	O.2	1	UNK0	0.000	
19	   C	-1.750	0.569	2.812	C.3	1	UNK0	0.000	
20	   N	-0.493	-0.007	2.564	N.3	1	UNK0	0.000	
21	   C	-0.171	-0.528	1.305	C.3	1	UNK0	0.000	
22	   C	0.986	-1.546	1.423	C.3	1	UNK0	0.000	
23	   N	0.607	-2.412	2.510	N.pl3	1	UNK0	0.000	
24	   C	0.644	-1.780	3.821	C.3	1	UNK0	0.000	
25	   C	0.350	-0.294	3.667	C.3	1	UNK0	0.000	
26	   C	0.221	-3.753	2.318	C.2	1	UNK0	0.000	
27	   C	-0.029	-4.309	1.084	C.2	1	UNK0	0.000	
28	   C	-0.400	-5.627	0.954	C.2	1	UNK0	0.000	
29	   C	-0.542	-6.460	2.039	C.2	1	UNK0	0.000	
30	   C	-0.300	-5.935	3.282	C.2	1	UNK0	0.000	
31	   C	0.074	-4.606	3.417	C.2	1	UNK0	0.000	
32	  Cl	-0.704	-6.273	-0.636	Cl	1	UNK0	0.000	
33	   C	3.662	1.790	-4.953	C.3	1	UNK0	0.000	
34	   H	0.090	3.483	-3.788	 H	1	UNK0	0.000	
35	   H	1.827	3.427	-3.414	 H	1	UNK0	0.000	
36	   H	0.996	1.679	-1.551	 H	1	UNK0	0.000	
37	   H	0.670	3.402	-1.241	 H	1	UNK0	0.000	
38	   H	-1.817	2.227	-3.929	 H	1	UNK0	0.000	
39	   H	-2.148	0.822	-2.883	 H	1	UNK0	0.000	
40	   H	0.107	0.067	-2.882	 H	1	UNK0	0.000	
41	   H	-0.498	0.138	-4.550	 H	1	UNK0	0.000	
42	   H	-1.603	4.238	-1.794	 H	1	UNK0	0.000	
43	   H	-2.860	2.941	-1.727	 H	1	UNK0	0.000	
44	   H	-0.602	3.445	0.317	 H	1	UNK0	0.000	
45	   H	-2.217	2.910	3.915	 H	1	UNK0	0.000	
46	   H	-2.617	-0.109	2.562	 H	1	UNK0	0.000	
47	   H	-1.832	0.758	3.925	 H	1	UNK0	0.000	
48	   H	0.178	0.207	0.563	 H	1	UNK0	0.000	
49	   H	-1.009	-1.184	0.929	 H	1	UNK0	0.000	
50	   H	1.219	-2.028	0.481	 H	1	UNK0	0.000	
51	   H	1.866	-0.918	1.691	 H	1	UNK0	0.000	
52	   H	-0.093	-2.191	4.514	 H	1	UNK0	0.000	
53	   H	1.691	-1.848	4.179	 H	1	UNK0	0.000	
54	   H	-0.139	0.040	4.602	 H	1	UNK0	0.000	
55	   H	1.290	0.290	3.584	 H	1	UNK0	0.000	
56	   H	0.078	-3.656	0.206	 H	1	UNK0	0.000	
57	   H	-0.839	-7.511	1.918	 H	1	UNK0	0.000	
58	   H	-0.395	-6.546	4.184	 H	1	UNK0	0.000	
59	   H	0.272	-4.176	4.395	 H	1	UNK0	0.000	
60	   H	4.273	2.414	-4.273	 H	1	UNK0	0.000	
61	   H	4.400	1.113	-5.474	 H	1	UNK0	0.000	
62	   H	3.275	2.464	-5.743	 H	1	UNK0	0.000	
@<TRIPOS>BOND
1 1 2 2
2 1 3 2
3 1 4 1
4 1 33 1
5 4 5 1
6 4 9 1
7 5 6 1
8 6 7 1
9 7 8 1
10 7 10 1
11 8 9 1
12 10 11 1
13 11 12 1
14 11 17 1
15 12 13 2
16 12 14 1
17 14 15 1
18 15 16 2
19 16 17 1
20 16 19 1
21 17 18 2
22 19 20 1
23 20 21 1
24 20 25 1
25 21 22 1
26 22 23 1
27 23 24 1
28 23 26 1
29 24 25 1
30 26 27 2
31 26 31 1
32 27 28 1
33 28 29 2
34 28 32 1
35 29 30 1
36 30 31 2
37 5 34 1
38 5 35 1
39 6 36 1
40 6 37 1
41 8 38 1
42 8 39 1
43 9 40 1
44 9 41 1
45 10 42 1
46 10 43 1
47 11 44 1
48 15 45 1
49 19 46 1
50 19 47 1
51 21 48 1
52 21 49 1
53 22 50 1
54 22 51 1
55 24 52 1
56 24 53 1
57 25 54 1
58 25 55 1
59 27 56 1
60 29 57 1
61 30 58 1
62 31 59 1
63 33 60 1
64 33 61 1
65 33 62 1
@<TRIPOS>SUBSTRUCTURE
1	UNK0	1	GROUP	1 ****	UNK
