3


 38 41  0  0  0  0  0  0  0  0999 V2000
   91.0109   96.1989  -45.2462 C   0  0  0  0  0  0  0  0  0  0  0  0
   90.1430   96.1933  -46.3094 N   0  0  0  0  0  0  0  0  0  0  0  0
   90.1386   95.0105  -46.8587 N   0  0  0  0  0  0  0  0  0  0  0  0
   90.9595   94.1845  -46.2333 N   0  0  0  0  0  0  0  0  0  0  0  0
   91.5128   94.8930  -45.2345 C   0  0  0  0  0  0  0  0  0  0  0  0
   91.1377   92.8245  -46.5875 C   0  0  0  0  0  0  0  0  0  0  0  0
   91.7717   91.8396  -45.9162 N   0  0  0  0  0  0  0  0  0  0  0  0
   91.6952   90.7235  -46.5914 O   0  0  0  0  0  0  0  0  0  0  0  0
   91.0308   90.9079  -47.7036 N   0  0  0  0  0  0  0  0  0  0  0  0
   90.6689   92.2013  -47.7340 C   0  0  0  0  0  0  0  0  0  0  0  0
   89.9306   92.7950  -48.7805 N   0  0  0  0  0  0  0  0  0  0  0  0
   88.9307   92.5467  -48.8909 H   0  0  0  0  0  0  0  0  0  0  0  0
   90.3482   93.4711  -49.4450 H   0  0  0  0  0  0  0  0  0  0  0  0
   90.4971   97.8927  -43.3929 N   0  0  0  0  0  0  0  0  0  0  0  0
   91.2839   97.3414  -44.3950 C   0  0  0  0  0  0  0  0  0  0  0  0
   92.4185   97.9109  -44.6151 O   0  0  0  0  0  0  0  0  0  0  0  0
   89.5511   97.5707  -43.0784 H   0  0  0  0  0  0  0  0  0  0  0  0
   90.2294   99.9963  -42.3834 C   0  0  0  0  0  0  0  0  0  0  0  0
   91.0231   99.0366  -42.7015 N   0  0  0  0  0  0  0  0  0  0  0  0
   93.7844  102.2948  -39.1860 Br  0  0  0  0  0  0  0  0  0  0  0  0
   92.2088  102.3525  -40.2363 C   0  0  0  0  0  0  0  0  0  0  0  0
   91.4906  103.5089  -40.3266 C   0  0  0  0  0  0  0  0  0  0  0  0
   90.3362  103.5198  -41.1053 C   0  0  0  0  0  0  0  0  0  0  0  0
   89.9429  102.3615  -41.7682 C   0  0  0  0  0  0  0  0  0  0  0  0
   90.6579  101.1970  -41.6825 C   0  0  0  0  0  0  0  0  0  0  0  0
   91.7971  101.2008  -40.9088 C   0  0  0  0  0  0  0  0  0  0  0  0
   92.5132  100.0164  -40.8296 O   0  0  0  0  0  0  0  0  0  0  0  0
   89.3161  105.1107  -41.2525 Br  0  0  0  0  0  0  0  0  0  0  0  0
   91.8655  104.6744  -39.6743 O   0  0  0  0  0  0  0  0  0  0  0  0
   93.3578   99.9680  -40.2735 H   0  0  0  0  0  0  0  0  0  0  0  0
   91.3175  105.5151  -39.7565 H   0  0  0  0  0  0  0  0  0  0  0  0
   92.4679   94.4071  -44.2343 C   0  0  0  0  0  0  0  0  0  0  0  0
   91.9318   93.3810  -43.3360 N   0  0  0  0  0  0  0  0  0  0  0  0
   91.2721   94.0529  -42.1992 C   0  0  0  0  0  0  0  0  0  0  0  0
   92.1558   95.1255  -41.6652 C   0  0  0  0  0  0  0  0  0  0  0  0
   93.3890   94.6012  -41.3651 O   0  0  0  0  0  0  0  0  0  0  0  0
   93.4527   93.2338  -41.4246 C   0  0  0  0  0  0  0  0  0  0  0  0
   93.0753   92.6376  -42.7557 C   0  0  0  0  0  0  0  0  0  0  0  0
 20 21  1  0  0  0
 21 22  2  0  0  0
 21 26  1  0  0  0
 22 23  1  0  0  0
 22 29  1  0  0  0
 23 24  2  0  0  0
 23 28  1  0  0  0
 24 25  1  0  0  0
 25 26  2  0  0  0
 25 18  1  0  0  0
 26 27  1  0  0  0
 18 19  2  0  0  0
 19 14  1  0  0  0
 14 15  1  0  0  0
 15 16  2  0  0  0
 15  1  1  0  0  0
  1  2  1  0  0  0
  1  5  2  0  0  0
  2  3  2  0  0  0
  3  4  1  0  0  0
  4  5  1  0  0  0
  4  6  1  0  0  0
  5 32  1  0  0  0
 32 33  1  0  0  0
 33 34  1  0  0  0
 33 38  1  0  0  0
 34 35  1  0  0  0
 35 36  1  0  0  0
 36 37  1  0  0  0
 37 38  1  0  0  0
  6  7  2  0  0  0
  6 10  1  0  0  0
  7  8  1  0  0  0
  8  9  1  0  0  0
  9 10  2  0  0  0
 10 11  1  0  0  0
 27 30  1  0  0  0
 14 17  1  0  0  0
 11 12  1  0  0  0
 11 13  1  0  0  0
 29 31  1  0  0  0
M  END
> <minimizedAffinity>
-6.90625

$$$$
708


 31 34  0  0  0  0  0  0  0  0999 V2000
   91.8197   99.5996  -43.2595 C   0  0  0  0  0  0  0  0  0  0  0  0
   90.8274   98.5408  -42.8769 C   0  0  0  0  0  0  0  0  0  0  0  0
   90.0635   98.4208  -46.0375 Br  0  0  0  0  0  0  0  0  0  0  0  0
   90.7390   97.0625  -44.8867 C   0  0  0  0  0  0  0  0  0  0  0  0
   91.0189   97.2810  -43.5655 N   0  0  0  0  0  0  0  0  0  0  0  0
   91.4666   96.0940  -43.1102 C   0  0  0  0  0  0  0  0  0  0  0  0
   91.4712   95.1464  -44.1210 C   0  0  0  0  0  0  0  0  0  0  0  0
   91.0097   95.7906  -45.2145 N   0  0  0  0  0  0  0  0  0  0  0  0
   91.8620   93.8705  -43.9595 N   0  0  0  0  0  0  0  0  0  0  0  0
   92.2680   93.5178  -42.7267 C   0  0  0  0  0  0  0  0  0  0  0  0
   92.6502   92.3168  -42.5220 O   0  0  0  0  0  0  0  0  0  0  0  0
   92.2784   94.4058  -41.7155 N   0  0  0  0  0  0  0  0  0  0  0  0
   91.8830   95.6995  -41.8759 C   0  0  0  0  0  0  0  0  0  0  0  0
   91.8969   96.5103  -40.9269 O   0  0  0  0  0  0  0  0  0  0  0  0
   91.8649   92.8875  -45.0218 C   0  0  0  0  0  0  0  0  0  0  0  0
   92.5902   94.1487  -40.7548 H   0  0  0  0  0  0  0  0  0  0  0  0
   91.4118  100.9994  -42.8996 C   0  0  0  0  0  0  0  0  0  0  0  0
   92.5737  101.8772  -42.9154 N   0  0  0  0  0  0  0  0  0  0  0  0
   93.4623  102.1126  -41.9232 C   0  0  0  0  0  0  0  0  0  0  0  0
   94.4182  103.0089  -42.3416 C   0  0  0  0  0  0  0  0  0  0  0  0
   94.0940  103.3165  -43.6115 N   0  0  0  0  0  0  0  0  0  0  0  0
   92.9809  102.6307  -43.9495 C   0  0  0  0  0  0  0  0  0  0  0  0
   92.0746  102.6791  -45.6298 Br  0  0  0  0  0  0  0  0  0  0  0  0
   95.4333  103.4334  -41.5664 N   0  0  0  0  0  0  0  0  0  0  0  0
   95.4857  102.9291  -40.3091 C   0  0  0  0  0  0  0  0  0  0  0  0
   96.4420  103.3260  -39.5755 O   0  0  0  0  0  0  0  0  0  0  0  0
   94.5684  102.0477  -39.8588 N   0  0  0  0  0  0  0  0  0  0  0  0
   93.5553  101.6290  -40.6447 C   0  0  0  0  0  0  0  0  0  0  0  0
   92.6866  100.8107  -40.2564 O   0  0  0  0  0  0  0  0  0  0  0  0
   96.4260  104.3878  -42.0542 C   0  0  0  0  0  0  0  0  0  0  0  0
   94.6601  101.6944  -38.8857 H   0  0  0  0  0  0  0  0  0  0  0  0
  3  4  1  0  0  0
  4  5  1  0  0  0
  4  8  2  0  0  0
  5  6  1  0  0  0
  5  2  1  0  0  0
  6  7  2  0  0  0
  6 13  1  0  0  0
  7  8  1  0  0  0
  7  9  1  0  0  0
  9 10  1  0  0  0
  9 15  1  0  0  0
 10 11  2  0  0  0
 10 12  1  0  0  0
 12 13  1  0  0  0
 13 14  2  0  0  0
  2  1  1  0  0  0
  1 17  1  0  0  0
 17 18  1  0  0  0
 18 19  1  0  0  0
 18 22  1  0  0  0
 19 20  2  0  0  0
 19 28  1  0  0  0
 20 21  1  0  0  0
 20 24  1  0  0  0
 21 22  2  0  0  0
 22 23  1  0  0  0
 24 25  1  0  0  0
 24 30  1  0  0  0
 25 26  2  0  0  0
 25 27  1  0  0  0
 27 28  1  0  0  0
 28 29  2  0  0  0
 12 16  1  0  0  0
 27 31  1  0  0  0
M  END
> <minimizedAffinity>
-6.58130

$$$$
1808


 24 28  0  0  0  0  0  0  0  0999 V2000
   90.2660   97.9103  -45.3302 N   0  0  0  0  0  0  0  0  0  0  0  0
   91.1662   98.9580  -45.6554 C   0  0  0  0  0  0  0  0  0  0  0  0
   92.1363   98.8347  -46.4411 O   0  0  0  0  0  0  0  0  0  0  0  0
   90.7654  100.1887  -44.9221 C   0  0  0  0  0  0  0  0  0  0  0  0
   91.5059  100.3438  -43.6297 C   0  0  0  0  0  0  0  0  0  0  0  0
   90.5289  101.0061  -42.8536 O   0  0  0  0  0  0  0  0  0  0  0  0
   89.5352   99.9982  -42.9346 C   0  0  0  0  0  0  0  0  0  0  0  0
   89.3555   99.8912  -44.4097 C   0  0  0  0  0  0  0  0  0  0  0  0
   89.0729   98.4824  -44.7951 C   0  0  0  0  0  0  0  0  0  0  0  0
   87.9811   97.9226  -44.6647 O   0  0  0  0  0  0  0  0  0  0  0  0
   90.3341   98.8337  -42.4715 C   0  0  0  0  0  0  0  0  0  0  0  0
   91.5519   99.0305  -42.9677 C   0  0  0  0  0  0  0  0  0  0  0  0
   91.5750   92.0292  -46.2362 Br  0  0  0  0  0  0  0  0  0  0  0  0
   91.1732   93.8601  -45.9457 C   0  0  0  0  0  0  0  0  0  0  0  0
   91.8165   94.5435  -44.9424 C   0  0  0  0  0  0  0  0  0  0  0  0
   91.5061   95.8723  -44.7548 C   0  0  0  0  0  0  0  0  0  0  0  0
   90.5782   96.5265  -45.5346 C   0  0  0  0  0  0  0  0  0  0  0  0
   89.9279   95.8375  -46.5492 C   0  0  0  0  0  0  0  0  0  0  0  0
   90.2461   94.4909  -46.7370 C   0  0  0  0  0  0  0  0  0  0  0  0
   92.7723  101.0824  -43.7078 C   0  0  0  0  0  0  0  0  0  0  0  0
   93.1626  101.6464  -42.5242 O   0  0  0  0  0  0  0  0  0  0  0  0
   93.0522  103.0105  -42.6274 C   0  0  0  0  0  0  0  0  0  0  0  0
   92.5568  103.2911  -44.0079 C   0  0  0  0  0  0  0  0  0  0  0  0
   92.7298  102.0788  -44.6663 O   0  0  0  0  0  0  0  0  0  0  0  0
 13 14  1  0  0  0
 14 15  2  0  0  0
 14 19  1  0  0  0
 15 16  1  0  0  0
 16 17  2  0  0  0
 17 18  1  0  0  0
 17  1  1  0  0  0
 18 19  2  0  0  0
  1  2  1  0  0  0
  1  9  1  0  0  0
  2  3  2  0  0  0
  2  4  1  0  0  0
  4  5  1  0  0  0
  4  8  1  0  0  0
  5  6  1  0  0  0
  5 12  1  0  0  0
  5 20  1  0  0  0
  6  7  1  0  0  0
  7  8  1  0  0  0
  7 11  1  0  0  0
  8  9  1  0  0  0
  9 10  2  0  0  0
 11 12  2  0  0  0
 20 21  1  0  0  0
 20 24  1  0  0  0
 21 22  1  0  0  0
 22 23  1  0  0  0
 23 24  1  0  0  0
M  END
> <minimizedAffinity>
-5.79890

$$$$
