2


 38 41  0  0  0  0  0  0  0  0999 V2000
   88.7554  100.4344  -42.9766 C   0  0  0  0  0  0  0  0  0  0  0  0
   87.4280  100.7440  -42.7693 N   0  0  0  0  0  0  0  0  0  0  0  0
   86.7155   99.9062  -43.4518 N   0  0  0  0  0  0  0  0  0  0  0  0
   87.5389   99.0449  -44.1105 N   0  0  0  0  0  0  0  0  0  0  0  0
   88.8070   99.3452  -43.8365 C   0  0  0  0  0  0  0  0  0  0  0  0
   86.9742   98.0282  -44.9421 C   0  0  0  0  0  0  0  0  0  0  0  0
   87.3487   97.5327  -46.1148 N   0  0  0  0  0  0  0  0  0  0  0  0
   86.5129   96.5985  -46.4291 O   0  0  0  0  0  0  0  0  0  0  0  0
   85.5982   96.4462  -45.5236 N   0  0  0  0  0  0  0  0  0  0  0  0
   85.8276   97.3182  -44.5514 C   0  0  0  0  0  0  0  0  0  0  0  0
   85.1081   97.5388  -43.3491 N   0  0  0  0  0  0  0  0  0  0  0  0
   84.9657   96.7493  -42.6855 H   0  0  0  0  0  0  0  0  0  0  0  0
   84.7020   98.4843  -43.0925 H   0  0  0  0  0  0  0  0  0  0  0  0
   90.4584  100.9842  -41.1178 N   0  0  0  0  0  0  0  0  0  0  0  0
   89.8306  101.1693  -42.3548 C   0  0  0  0  0  0  0  0  0  0  0  0
   90.2838  102.1619  -43.0716 O   0  0  0  0  0  0  0  0  0  0  0  0
   90.2383  100.2636  -40.4504 H   0  0  0  0  0  0  0  0  0  0  0  0
   92.6401  101.4773  -40.3649 C   0  0  0  0  0  0  0  0  0  0  0  0
   91.5120  101.9064  -40.7912 N   0  0  0  0  0  0  0  0  0  0  0  0
   96.6261  104.5647  -42.1021 Br  0  0  0  0  0  0  0  0  0  0  0  0
   95.5675  103.7950  -40.6972 C   0  0  0  0  0  0  0  0  0  0  0  0
   95.8790  104.1127  -39.3891 C   0  0  0  0  0  0  0  0  0  0  0  0
   95.1066  103.5500  -38.3964 C   0  0  0  0  0  0  0  0  0  0  0  0
   94.0611  102.6992  -38.7141 C   0  0  0  0  0  0  0  0  0  0  0  0
   93.7467  102.3790  -40.0188 C   0  0  0  0  0  0  0  0  0  0  0  0
   94.5245  102.9459  -41.0069 C   0  0  0  0  0  0  0  0  0  0  0  0
   94.2012  102.6174  -42.3361 O   0  0  0  0  0  0  0  0  0  0  0  0
   95.5408  103.9923  -36.5874 Br  0  0  0  0  0  0  0  0  0  0  0  0
   96.9403  104.9744  -39.1055 O   0  0  0  0  0  0  0  0  0  0  0  0
   94.7443  103.0115  -43.0887 H   0  0  0  0  0  0  0  0  0  0  0  0
   90.0304   98.6971  -44.3079 C   0  0  0  0  0  0  0  0  0  0  0  0
   90.9845   98.2328  -43.3728 N   0  0  0  0  0  0  0  0  0  0  0  0
   92.3006   98.8304  -43.5446 C   0  0  0  0  0  0  0  0  0  0  0  0
   92.7662   98.7111  -44.9402 C   0  0  0  0  0  0  0  0  0  0  0  0
   92.4288   97.6549  -45.6827 O   0  0  0  0  0  0  0  0  0  0  0  0
   91.6027   96.7082  -45.1696 C   0  0  0  0  0  0  0  0  0  0  0  0
   91.2701   96.8066  -43.7364 C   0  0  0  0  0  0  0  0  0  0  0  0
   90.6570   98.2572  -42.4184 H   0  0  0  0  0  0  0  0  0  0  0  0
 20 21  1  0  0  0
 21 22  2  0  0  0
 21 26  1  0  0  0
 22 23  1  0  0  0
 22 29  1  0  0  0
 23 24  2  0  0  0
 23 28  1  0  0  0
 24 25  1  0  0  0
 25 26  2  0  0  0
 25 18  1  0  0  0
 26 27  1  0  0  0
 18 19  2  0  0  0
 19 14  1  0  0  0
 14 15  1  0  0  0
 15 16  2  0  0  0
 15  1  1  0  0  0
  1  2  1  0  0  0
  1  5  2  0  0  0
  2  3  2  0  0  0
  3  4  1  0  0  0
  4  5  1  0  0  0
  4  6  1  0  0  0
  5 31  1  0  0  0
 31 32  1  0  0  0
 32 33  1  0  0  0
 32 37  1  0  0  0
 33 34  1  0  0  0
 34 35  1  0  0  0
 35 36  1  0  0  0
 36 37  1  0  0  0
  6  7  2  0  0  0
  6 10  1  0  0  0
  7  8  1  0  0  0
  8  9  1  0  0  0
  9 10  2  0  0  0
 10 11  1  0  0  0
 27 30  1  0  0  0
 14 17  1  0  0  0
 32 38  1  0  0  0
 11 12  1  0  0  0
 11 13  1  0  0  0
M  CHG 1  29  -1
M  CHG 1  32   1
M  END
> <minimizedAffinity>
-6.36908

$$$$
3


 38 41  0  0  0  0  0  0  0  0999 V2000
   91.0109   96.1989  -45.2462 C   0  0  0  0  0  0  0  0  0  0  0  0
   90.1430   96.1933  -46.3094 N   0  0  0  0  0  0  0  0  0  0  0  0
   90.1386   95.0105  -46.8587 N   0  0  0  0  0  0  0  0  0  0  0  0
   90.9595   94.1845  -46.2333 N   0  0  0  0  0  0  0  0  0  0  0  0
   91.5128   94.8930  -45.2345 C   0  0  0  0  0  0  0  0  0  0  0  0
   91.1377   92.8245  -46.5875 C   0  0  0  0  0  0  0  0  0  0  0  0
   91.7717   91.8396  -45.9162 N   0  0  0  0  0  0  0  0  0  0  0  0
   91.6952   90.7235  -46.5914 O   0  0  0  0  0  0  0  0  0  0  0  0
   91.0308   90.9079  -47.7036 N   0  0  0  0  0  0  0  0  0  0  0  0
   90.6689   92.2013  -47.7340 C   0  0  0  0  0  0  0  0  0  0  0  0
   89.9306   92.7950  -48.7805 N   0  0  0  0  0  0  0  0  0  0  0  0
   88.9307   92.5467  -48.8909 H   0  0  0  0  0  0  0  0  0  0  0  0
   90.3482   93.4711  -49.4450 H   0  0  0  0  0  0  0  0  0  0  0  0
   90.4971   97.8927  -43.3929 N   0  0  0  0  0  0  0  0  0  0  0  0
   91.2839   97.3414  -44.3950 C   0  0  0  0  0  0  0  0  0  0  0  0
   92.4185   97.9109  -44.6151 O   0  0  0  0  0  0  0  0  0  0  0  0
   89.5511   97.5707  -43.0784 H   0  0  0  0  0  0  0  0  0  0  0  0
   90.2294   99.9963  -42.3834 C   0  0  0  0  0  0  0  0  0  0  0  0
   91.0231   99.0366  -42.7015 N   0  0  0  0  0  0  0  0  0  0  0  0
   93.7844  102.2948  -39.1860 Br  0  0  0  0  0  0  0  0  0  0  0  0
   92.2088  102.3525  -40.2363 C   0  0  0  0  0  0  0  0  0  0  0  0
   91.4906  103.5089  -40.3266 C   0  0  0  0  0  0  0  0  0  0  0  0
   90.3362  103.5198  -41.1053 C   0  0  0  0  0  0  0  0  0  0  0  0
   89.9429  102.3615  -41.7682 C   0  0  0  0  0  0  0  0  0  0  0  0
   90.6579  101.1970  -41.6825 C   0  0  0  0  0  0  0  0  0  0  0  0
   91.7971  101.2008  -40.9088 C   0  0  0  0  0  0  0  0  0  0  0  0
   92.5132  100.0164  -40.8296 O   0  0  0  0  0  0  0  0  0  0  0  0
   89.3161  105.1107  -41.2525 Br  0  0  0  0  0  0  0  0  0  0  0  0
   91.8655  104.6744  -39.6743 O   0  0  0  0  0  0  0  0  0  0  0  0
   93.3578   99.9680  -40.2735 H   0  0  0  0  0  0  0  0  0  0  0  0
   91.3175  105.5151  -39.7565 H   0  0  0  0  0  0  0  0  0  0  0  0
   92.4679   94.4071  -44.2343 C   0  0  0  0  0  0  0  0  0  0  0  0
   91.9318   93.3810  -43.3360 N   0  0  0  0  0  0  0  0  0  0  0  0
   91.2721   94.0529  -42.1992 C   0  0  0  0  0  0  0  0  0  0  0  0
   92.1558   95.1255  -41.6652 C   0  0  0  0  0  0  0  0  0  0  0  0
   93.3890   94.6012  -41.3651 O   0  0  0  0  0  0  0  0  0  0  0  0
   93.4527   93.2338  -41.4246 C   0  0  0  0  0  0  0  0  0  0  0  0
   93.0753   92.6376  -42.7557 C   0  0  0  0  0  0  0  0  0  0  0  0
 20 21  1  0  0  0
 21 22  2  0  0  0
 21 26  1  0  0  0
 22 23  1  0  0  0
 22 29  1  0  0  0
 23 24  2  0  0  0
 23 28  1  0  0  0
 24 25  1  0  0  0
 25 26  2  0  0  0
 25 18  1  0  0  0
 26 27  1  0  0  0
 18 19  2  0  0  0
 19 14  1  0  0  0
 14 15  1  0  0  0
 15 16  2  0  0  0
 15  1  1  0  0  0
  1  2  1  0  0  0
  1  5  2  0  0  0
  2  3  2  0  0  0
  3  4  1  0  0  0
  4  5  1  0  0  0
  4  6  1  0  0  0
  5 32  1  0  0  0
 32 33  1  0  0  0
 33 34  1  0  0  0
 33 38  1  0  0  0
 34 35  1  0  0  0
 35 36  1  0  0  0
 36 37  1  0  0  0
 37 38  1  0  0  0
  6  7  2  0  0  0
  6 10  1  0  0  0
  7  8  1  0  0  0
  8  9  1  0  0  0
  9 10  2  0  0  0
 10 11  1  0  0  0
 27 30  1  0  0  0
 14 17  1  0  0  0
 11 12  1  0  0  0
 11 13  1  0  0  0
 29 31  1  0  0  0
M  END
> <minimizedAffinity>
-6.90625

$$$$
4


 34 37  0  0  0  0  0  0  0  0999 V2000
   90.3944   98.8617  -43.2722 C   0  0  0  0  0  0  0  0  0  0  0  0
   90.9679   97.6605  -43.2860 N   0  0  0  0  0  0  0  0  0  0  0  0
   91.0101   96.8781  -44.4027 C   0  0  0  0  0  0  0  0  0  0  0  0
   90.4405   97.3836  -45.4943 N   0  0  0  0  0  0  0  0  0  0  0  0
   89.8383   98.5921  -45.5678 C   0  0  0  0  0  0  0  0  0  0  0  0
   89.8403   99.3098  -44.4049 N   0  0  0  0  0  0  0  0  0  0  0  0
   89.2487   99.0858  -46.7458 N   0  0  0  0  0  0  0  0  0  0  0  0
   88.0600   98.4928  -47.2739 C   0  0  0  0  0  0  0  0  0  0  0  0
   88.3254   98.1877  -48.7508 C   0  0  0  0  0  0  0  0  0  0  0  0
   89.6200   98.4878  -49.1157 O   0  0  0  0  0  0  0  0  0  0  0  0
   89.9846   99.7930  -48.8967 C   0  0  0  0  0  0  0  0  0  0  0  0
   89.8356  100.1943  -47.4339 C   0  0  0  0  0  0  0  0  0  0  0  0
   91.6234   95.6073  -44.3961 N   0  0  0  0  0  0  0  0  0  0  0  0
   91.9304   94.9436  -45.6323 C   0  0  0  0  0  0  0  0  0  0  0  0
   91.4472   93.5074  -45.5057 C   0  0  0  0  0  0  0  0  0  0  0  0
   91.8354   92.9321  -44.3022 O   0  0  0  0  0  0  0  0  0  0  0  0
   91.3225   93.5723  -43.1969 C   0  0  0  0  0  0  0  0  0  0  0  0
   91.9430   94.9742  -43.1482 C   0  0  0  0  0  0  0  0  0  0  0  0
   90.3715   99.6470  -42.0871 N   0  0  0  0  0  0  0  0  0  0  0  0
   89.6814   99.5404  -41.3363 H   0  0  0  0  0  0  0  0  0  0  0  0
   92.2351  100.5934  -40.9906 C   0  0  0  0  0  0  0  0  0  0  0  0
   91.3507  100.6433  -41.9062 N   0  0  0  0  0  0  0  0  0  0  0  0
   96.0098  103.8337  -43.0301 Br  0  0  0  0  0  0  0  0  0  0  0  0
   94.9722  103.1016  -41.6024 C   0  0  0  0  0  0  0  0  0  0  0  0
   95.2162  103.5706  -40.3265 C   0  0  0  0  0  0  0  0  0  0  0  0
   94.4709  103.0459  -39.2933 C   0  0  0  0  0  0  0  0  0  0  0  0
   93.5053  102.0808  -39.5173 C   0  0  0  0  0  0  0  0  0  0  0  0
   93.2552  101.6080  -40.7837 C   0  0  0  0  0  0  0  0  0  0  0  0
   94.0024  102.1343  -41.8170 C   0  0  0  0  0  0  0  0  0  0  0  0
   93.7688  101.6771  -43.0923 O   0  0  0  0  0  0  0  0  0  0  0  0
   94.8002  103.6868  -37.5190 Br  0  0  0  0  0  0  0  0  0  0  0  0
   96.1927  104.5424  -40.1196 O   0  0  0  0  0  0  0  0  0  0  0  0
   94.3034  102.0430  -43.8858 H   0  0  0  0  0  0  0  0  0  0  0  0
   96.3662  104.8803  -39.1877 H   0  0  0  0  0  0  0  0  0  0  0  0
 23 24  1  0  0  0
 24 25  2  0  0  0
 24 29  1  0  0  0
 25 26  1  0  0  0
 25 32  1  0  0  0
 26 27  2  0  0  0
 26 31  1  0  0  0
 27 28  1  0  0  0
 28 29  2  0  0  0
 28 21  1  0  0  0
 29 30  1  0  0  0
 21 22  2  0  0  0
 22 19  1  0  0  0
 19  1  1  0  0  0
  1  2  2  0  0  0
  1  6  1  0  0  0
  2  3  1  0  0  0
  3  4  2  0  0  0
  3 13  1  0  0  0
  4  5  1  0  0  0
  5  6  2  0  0  0
  5  7  1  0  0  0
  7  8  1  0  0  0
  7 12  1  0  0  0
  8  9  1  0  0  0
  9 10  1  0  0  0
 10 11  1  0  0  0
 11 12  1  0  0  0
 13 14  1  0  0  0
 13 18  1  0  0  0
 14 15  1  0  0  0
 15 16  1  0  0  0
 16 17  1  0  0  0
 17 18  1  0  0  0
 30 33  1  0  0  0
 19 20  1  0  0  0
 32 34  1  0  0  0
M  END
> <minimizedAffinity>
-6.20907

$$$$
5


 38 41  0  0  0  0  0  0  0  0999 V2000
   92.6043  101.5805  -41.6511 N   0  0  0  0  0  0  0  0  0  0  0  0
   93.7378  102.2025  -41.2312 C   0  0  0  0  0  0  0  0  0  0  0  0
   93.7814  103.4702  -41.7471 C   0  0  0  0  0  0  0  0  0  0  0  0
   92.6815  103.5933  -42.4612 N   0  0  0  0  0  0  0  0  0  0  0  0
   91.9337  102.4567  -42.4228 C   0  0  0  0  0  0  0  0  0  0  0  0
   94.7855  104.3683  -41.5052 N   0  0  0  0  0  0  0  0  0  0  0  0
   95.7765  103.9562  -40.7052 C   0  0  0  0  0  0  0  0  0  0  0  0
   96.7023  104.7872  -40.4844 O   0  0  0  0  0  0  0  0  0  0  0  0
   95.7785  102.7204  -40.1693 N   0  0  0  0  0  0  0  0  0  0  0  0
   94.8008  101.8292  -40.3986 C   0  0  0  0  0  0  0  0  0  0  0  0
   94.8240  100.5748  -39.8337 O   0  0  0  0  0  0  0  0  0  0  0  0
   94.7318  105.6889  -42.1169 C   0  0  0  0  0  0  0  0  0  0  0  0
   90.6292  102.3781  -43.0258 N   0  0  0  0  0  0  0  0  0  0  0  0
   89.3761  102.5285  -42.3925 C   0  0  0  0  0  0  0  0  0  0  0  0
   88.2806  102.4491  -43.4910 C   0  0  0  0  0  0  0  0  0  0  0  0
   88.4093  101.1132  -44.0405 N   0  0  0  0  0  0  0  0  0  0  0  0
   89.5490  101.2420  -44.9684 C   0  0  0  0  0  0  0  0  0  0  0  0
   90.5972  102.1583  -44.4778 C   0  0  0  0  0  0  0  0  0  0  0  0
   88.6991  100.3971  -43.3410 H   0  0  0  0  0  0  0  0  0  0  0  0
   87.2242  100.7208  -44.7767 C   0  0  0  0  0  0  0  0  0  0  0  0
   86.6884   99.4345  -44.1875 C   0  0  0  0  0  0  0  0  0  0  0  0
   87.2816   99.2225  -42.9368 O   0  0  0  0  0  0  0  0  0  0  0  0
   87.7912   98.3660  -42.9282 H   0  0  0  0  0  0  0  0  0  0  0  0
   92.2136  100.2565  -41.3211 C   0  0  0  0  0  0  0  0  0  0  0  0
   91.6421   99.3423  -42.2958 C   0  0  0  0  0  0  0  0  0  0  0  0
   90.2545   99.1148  -42.2749 O   0  0  0  0  0  0  0  0  0  0  0  0
   89.7486   99.9158  -42.5008 H   0  0  0  0  0  0  0  0  0  0  0  0
   92.2560   98.0898  -42.7578 C   0  0  0  0  0  0  0  0  0  0  0  0
   91.2736   97.0622  -42.8676 O   0  0  0  0  0  0  0  0  0  0  0  0
   92.1920   94.6161  -41.4081 Br  0  0  0  0  0  0  0  0  0  0  0  0
   91.7007   94.7576  -43.2525 C   0  0  0  0  0  0  0  0  0  0  0  0
   91.2967   96.0167  -43.7229 C   0  0  0  0  0  0  0  0  0  0  0  0
   90.9516   96.1009  -45.0331 C   0  0  0  0  0  0  0  0  0  0  0  0
   90.9895   94.9929  -45.8888 C   0  0  0  0  0  0  0  0  0  0  0  0
   91.3887   93.7691  -45.4036 C   0  0  0  0  0  0  0  0  0  0  0  0
   91.7443   93.6620  -44.0761 C   0  0  0  0  0  0  0  0  0  0  0  0
   91.4808   92.1945  -46.4718 Br  0  0  0  0  0  0  0  0  0  0  0  0
   90.4118   97.7380  -45.7906 Br  0  0  0  0  0  0  0  0  0  0  0  0
 30 31  1  0  0  0
 31 32  2  0  0  0
 31 36  1  0  0  0
 32 33  1  0  0  0
 32 29  1  0  0  0
 33 34  2  0  0  0
 33 38  1  0  0  0
 34 35  1  0  0  0
 35 36  2  0  0  0
 35 37  1  0  0  0
 29 28  1  0  0  0
 28 25  1  0  0  0
 25 26  1  0  0  0
 25 24  1  0  0  0
 24  1  1  0  0  0
  1  2  1  0  0  0
  1  5  1  0  0  0
  2  3  2  0  0  0
  2 10  1  0  0  0
  3  4  1  0  0  0
  3  6  1  0  0  0
  4  5  2  0  0  0
  5 13  1  0  0  0
 13 14  1  0  0  0
 13 18  1  0  0  0
 14 15  1  0  0  0
 15 16  1  0  0  0
 16 17  1  0  0  0
 16 20  1  0  0  0
 17 18  1  0  0  0
 20 21  1  0  0  0
 21 22  1  0  0  0
  6  7  1  0  0  0
  6 12  1  0  0  0
  7  8  2  0  0  0
  7  9  1  0  0  0
  9 10  2  0  0  0
 10 11  1  0  0  0
 26 27  1  0  0  0
 16 19  1  0  0  0
 22 23  1  0  0  0
M  CHG 1  11  -1
M  CHG 1  16   1
M  END
> <minimizedAffinity>
-6.17944

$$$$
6


 34 37  0  0  0  0  0  0  0  0999 V2000
   90.3460   89.2026  -49.8339 N   0  0  0  0  0  0  0  0  0  0  0  0
   89.5902   88.1303  -49.4775 C   0  0  0  0  0  0  0  0  0  0  0  0
   88.3133   88.2813  -49.9422 C   0  0  0  0  0  0  0  0  0  0  0  0
   88.3070   89.4597  -50.5849 N   0  0  0  0  0  0  0  0  0  0  0  0
   89.5525   90.0275  -50.5203 C   0  0  0  0  0  0  0  0  0  0  0  0
   87.3904   87.2903  -49.6801 C   0  0  0  0  0  0  0  0  0  0  0  0
   87.7199   86.1520  -48.9625 C   0  0  0  0  0  0  0  0  0  0  0  0
   89.0199   86.0274  -48.5047 C   0  0  0  0  0  0  0  0  0  0  0  0
   89.9454   87.0176  -48.7661 C   0  0  0  0  0  0  0  0  0  0  0  0
   89.8901   91.3124  -51.1203 C   0  0  0  0  0  0  0  0  0  0  0  0
   91.0630   91.6234  -51.6869 N   0  0  0  0  0  0  0  0  0  0  0  0
   91.0092   92.8695  -52.1220 O   0  0  0  0  0  0  0  0  0  0  0  0
   89.8490   93.3848  -51.8624 N   0  0  0  0  0  0  0  0  0  0  0  0
   89.1126   92.4427  -51.2332 C   0  0  0  0  0  0  0  0  0  0  0  0
   87.7818   92.5851  -50.7717 N   0  0  0  0  0  0  0  0  0  0  0  0
   87.0835   92.4167  -51.5084 H   0  0  0  0  0  0  0  0  0  0  0  0
   87.6783   93.5979  -50.4881 H   0  0  0  0  0  0  0  0  0  0  0  0
   87.5848   92.0079  -49.9128 H   0  0  0  0  0  0  0  0  0  0  0  0
   91.7277   89.4296  -49.5455 C   0  0  0  0  0  0  0  0  0  0  0  0
   91.1488   91.2099  -47.8633 N   0  0  0  0  0  0  0  0  0  0  0  0
   92.0155   90.2087  -48.3664 C   0  0  0  0  0  0  0  0  0  0  0  0
   93.0787   90.0130  -47.7319 O   0  0  0  0  0  0  0  0  0  0  0  0
   90.2620   91.3815  -48.3837 H   0  0  0  0  0  0  0  0  0  0  0  0
   91.0204   93.1855  -46.5958 C   0  0  0  0  0  0  0  0  0  0  0  0
   91.3988   91.9727  -46.7348 N   0  0  0  0  0  0  0  0  0  0  0  0
   90.9235   97.7142  -43.9226 Br  0  0  0  0  0  0  0  0  0  0  0  0
   91.3474   95.8710  -44.0739 C   0  0  0  0  0  0  0  0  0  0  0  0
   91.0405   95.2112  -45.2452 C   0  0  0  0  0  0  0  0  0  0  0  0
   91.3382   93.8890  -45.3688 C   0  0  0  0  0  0  0  0  0  0  0  0
   91.9514   93.1785  -44.3308 C   0  0  0  0  0  0  0  0  0  0  0  0
   92.2466   93.8602  -43.1754 C   0  0  0  0  0  0  0  0  0  0  0  0
   91.9546   95.1938  -43.0304 C   0  0  0  0  0  0  0  0  0  0  0  0
   93.0850   92.9374  -41.7243 Br  0  0  0  0  0  0  0  0  0  0  0  0
   90.4340   95.8987  -46.2815 O   0  0  0  0  0  0  0  0  0  0  0  0
 26 27  1  0  0  0
 27 28  2  0  0  0
 27 32  1  0  0  0
 28 29  1  0  0  0
 28 34  1  0  0  0
 29 30  2  0  0  0
 29 24  1  0  0  0
 30 31  1  0  0  0
 31 32  2  0  0  0
 31 33  1  0  0  0
 24 25  2  0  0  0
 25 20  1  0  0  0
 20 21  1  0  0  0
 21 22  2  0  0  0
 21 19  1  0  0  0
 19  1  1  0  0  0
  1  2  1  0  0  0
  1  5  1  0  0  0
  2  3  2  0  0  0
  2  9  1  0  0  0
  3  4  1  0  0  0
  3  6  1  0  0  0
  4  5  2  0  0  0
  5 10  1  0  0  0
 10 11  2  0  0  0
 10 14  1  0  0  0
 11 12  1  0  0  0
 12 13  1  0  0  0
 13 14  2  0  0  0
 14 15  1  0  0  0
  6  7  2  0  0  0
  7  8  1  0  0  0
  8  9  2  0  0  0
 20 23  1  0  0  0
 15 16  1  0  0  0
 15 17  1  0  0  0
 15 18  1  0  0  0
M  CHG 1  15   1
M  CHG 1  34  -1
M  END
> <minimizedAffinity>
-6.90045

$$$$
11


 36 39  0  0  0  0  0  0  0  0999 V2000
   92.1477   94.8559  -44.9536 C   0  0  0  0  0  0  0  0  0  0  0  0
   91.2144   95.8939  -44.7989 N   0  0  0  0  0  0  0  0  0  0  0  0
   90.2416   96.0951  -45.7664 C   0  0  0  0  0  0  0  0  0  0  0  0
   89.5125   97.1566  -45.3791 C   0  0  0  0  0  0  0  0  0  0  0  0
   90.0223   97.5795  -44.2331 N   0  0  0  0  0  0  0  0  0  0  0  0
   91.0978   96.7888  -43.8547 C   0  0  0  0  0  0  0  0  0  0  0  0
   88.4470   97.6442  -46.1197 C   0  0  0  0  0  0  0  0  0  0  0  0
   88.1613   96.9822  -47.2895 C   0  0  0  0  0  0  0  0  0  0  0  0
   88.8750   95.8852  -47.7326 C   0  0  0  0  0  0  0  0  0  0  0  0
   89.9372   95.4385  -46.9487 C   0  0  0  0  0  0  0  0  0  0  0  0
   91.7615   97.1581  -42.6174 C   0  0  0  0  0  0  0  0  0  0  0  0
   92.0399   96.2299  -41.6161 N   0  0  0  0  0  0  0  0  0  0  0  0
   92.6444   96.7873  -40.6466 O   0  0  0  0  0  0  0  0  0  0  0  0
   92.8131   98.0267  -40.8803 N   0  0  0  0  0  0  0  0  0  0  0  0
   92.2706   98.3003  -42.1159 C   0  0  0  0  0  0  0  0  0  0  0  0
   92.3164   99.5925  -42.6803 N   0  0  0  0  0  0  0  0  0  0  0  0
   92.9892  100.2007  -42.0780 H   0  0  0  0  0  0  0  0  0  0  0  0
   91.4092  100.0605  -42.5653 H   0  0  0  0  0  0  0  0  0  0  0  0
   92.7749   99.5932  -43.5878 H   0  0  0  0  0  0  0  0  0  0  0  0
   91.5864   92.5823  -45.4457 N   0  0  0  0  0  0  0  0  0  0  0  0
   91.6015   93.5021  -44.4491 C   0  0  0  0  0  0  0  0  0  0  0  0
   91.2915   93.5285  -43.2598 O   0  0  0  0  0  0  0  0  0  0  0  0
   91.0874   91.6517  -44.5175 H   0  0  0  0  0  0  0  0  0  0  0  0
   91.4999   90.9919  -47.2579 C   0  0  0  0  0  0  0  0  0  0  0  0
   91.5720   91.7435  -46.3494 N   0  0  0  0  0  0  0  0  0  0  0  0
   88.7261   93.5763  -50.9886 Br  0  0  0  0  0  0  0  0  0  0  0  0
   89.4990   91.9993  -50.2685 C   0  0  0  0  0  0  0  0  0  0  0  0
   89.3363   90.7910  -50.9093 C   0  0  0  0  0  0  0  0  0  0  0  0
   89.9039   89.6247  -50.3417 C   0  0  0  0  0  0  0  0  0  0  0  0
   90.5904   89.7641  -49.1706 C   0  0  0  0  0  0  0  0  0  0  0  0
   90.7791   90.9720  -48.4836 C   0  0  0  0  0  0  0  0  0  0  0  0
   90.2063   92.0713  -49.0842 C   0  0  0  0  0  0  0  0  0  0  0  0
   88.6467   90.6453  -52.0779 O   0  0  0  0  0  0  0  0  0  0  0  0
   89.7225   88.4259  -51.0054 O   0  0  0  0  0  0  0  0  0  0  0  0
   89.1969   87.2967  -50.3963 C   0  0  0  0  0  0  0  0  0  0  0  0
   90.1889   86.2558  -49.9604 C   0  0  0  0  0  0  0  0  0  0  0  0
 26 27  1  0  0  0
 27 28  2  0  0  0
 27 32  1  0  0  0
 28 29  1  0  0  0
 28 33  1  0  0  0
 29 30  2  0  0  0
 29 34  1  0  0  0
 30 31  1  0  0  0
 31 32  2  0  0  0
 31 24  1  0  0  0
 24 25  2  0  0  0
 25 20  1  0  0  0
 20 21  1  0  0  0
 21 22  2  0  0  0
 21  1  1  0  0  0
  1  2  1  0  0  0
  2  3  1  0  0  0
  2  6  1  0  0  0
  3  4  2  0  0  0
  3 10  1  0  0  0
  4  5  1  0  0  0
  4  7  1  0  0  0
  5  6  2  0  0  0
  6 11  1  0  0  0
 11 12  2  0  0  0
 11 15  1  0  0  0
 12 13  1  0  0  0
 13 14  1  0  0  0
 14 15  2  0  0  0
 15 16  1  0  0  0
  7  8  2  0  0  0
  8  9  1  0  0  0
  9 10  2  0  0  0
 34 35  1  0  0  0
 35 36  1  0  0  0
 20 23  1  0  0  0
 16 17  1  0  0  0
 16 18  1  0  0  0
 16 19  1  0  0  0
M  CHG 1  16   1
M  CHG 1  33  -1
M  END
> <minimizedAffinity>
-7.00150

$$$$
17


 38 41  0  0  0  0  0  0  0  0999 V2000
   90.3849   97.5392  -45.2976 C   0  0  0  0  0  0  0  0  0  0  0  0
   90.5817   96.4357  -46.0306 N   0  0  0  0  0  0  0  0  0  0  0  0
   89.5050   96.1756  -46.7308 N   0  0  0  0  0  0  0  0  0  0  0  0
   88.5510   97.0939  -46.4931 N   0  0  0  0  0  0  0  0  0  0  0  0
   89.0740   97.9478  -45.6085 C   0  0  0  0  0  0  0  0  0  0  0  0
   87.2564   97.0532  -47.1030 C   0  0  0  0  0  0  0  0  0  0  0  0
   86.9135   97.3131  -48.3746 N   0  0  0  0  0  0  0  0  0  0  0  0
   85.6193   97.1503  -48.5128 O   0  0  0  0  0  0  0  0  0  0  0  0
   85.0791   96.7892  -47.3736 N   0  0  0  0  0  0  0  0  0  0  0  0
   86.0795   96.7210  -46.4767 C   0  0  0  0  0  0  0  0  0  0  0  0
   85.8882   96.3548  -45.1192 N   0  0  0  0  0  0  0  0  0  0  0  0
   85.6301   97.0255  -44.3667 H   0  0  0  0  0  0  0  0  0  0  0  0
   86.0029   95.3554  -44.8102 H   0  0  0  0  0  0  0  0  0  0  0  0
   91.8653   99.4604  -44.6590 N   0  0  0  0  0  0  0  0  0  0  0  0
   91.2986   98.1980  -44.3735 C   0  0  0  0  0  0  0  0  0  0  0  0
   91.5884   97.6316  -43.3014 O   0  0  0  0  0  0  0  0  0  0  0  0
   91.6085   99.9285  -45.5756 H   0  0  0  0  0  0  0  0  0  0  0  0
   92.4122  101.0760  -43.0239 C   0  0  0  0  0  0  0  0  0  0  0  0
   92.7308  100.1351  -43.8340 N   0  0  0  0  0  0  0  0  0  0  0  0
   96.4969  104.3811  -42.9471 Br  0  0  0  0  0  0  0  0  0  0  0  0
   95.2637  103.2273  -42.0643 C   0  0  0  0  0  0  0  0  0  0  0  0
   95.3094  103.0263  -40.6894 C   0  0  0  0  0  0  0  0  0  0  0  0
   94.4222  102.1944  -40.0456 C   0  0  0  0  0  0  0  0  0  0  0  0
   93.4764  101.5581  -40.8136 C   0  0  0  0  0  0  0  0  0  0  0  0
   93.4014  101.7348  -42.1863 C   0  0  0  0  0  0  0  0  0  0  0  0
   94.3093  102.5769  -42.7895 C   0  0  0  0  0  0  0  0  0  0  0  0
   96.2897  103.6966  -39.9636 O   0  0  0  0  0  0  0  0  0  0  0  0
   96.3475  103.5702  -38.9602 H   0  0  0  0  0  0  0  0  0  0  0  0
   94.5268  102.0431  -38.6836 O   0  0  0  0  0  0  0  0  0  0  0  0
   93.9519  102.8466  -37.7059 C   0  0  0  0  0  0  0  0  0  0  0  0
   94.4847  102.6423  -36.3245 C   0  0  0  0  0  0  0  0  0  0  0  0
   88.4591   99.1194  -44.9820 C   0  0  0  0  0  0  0  0  0  0  0  0
   87.5466   98.8753  -43.8938 N   0  0  0  0  0  0  0  0  0  0  0  0
   88.2991   99.2514  -42.6903 C   0  0  0  0  0  0  0  0  0  0  0  0
   88.7241  100.6649  -42.6362 C   0  0  0  0  0  0  0  0  0  0  0  0
   87.8095  101.4946  -43.2660 O   0  0  0  0  0  0  0  0  0  0  0  0
   86.5499  100.9635  -43.0909 C   0  0  0  0  0  0  0  0  0  0  0  0
   86.3940   99.7710  -44.0141 C   0  0  0  0  0  0  0  0  0  0  0  0
 20 21  1  0  0  0
 21 22  2  0  0  0
 21 26  1  0  0  0
 22 23  1  0  0  0
 22 27  1  0  0  0
 23 24  2  0  0  0
 23 29  1  0  0  0
 24 25  1  0  0  0
 25 26  2  0  0  0
 25 18  1  0  0  0
 18 19  2  0  0  0
 19 14  1  0  0  0
 14 15  1  0  0  0
 15 16  2  0  0  0
 15  1  1  0  0  0
  1  2  1  0  0  0
  1  5  2  0  0  0
  2  3  2  0  0  0
  3  4  1  0  0  0
  4  5  1  0  0  0
  4  6  1  0  0  0
  5 32  1  0  0  0
 32 33  1  0  0  0
 33 34  1  0  0  0
 33 38  1  0  0  0
 34 35  1  0  0  0
 35 36  1  0  0  0
 36 37  1  0  0  0
 37 38  1  0  0  0
  6  7  2  0  0  0
  6 10  1  0  0  0
  7  8  1  0  0  0
  8  9  1  0  0  0
  9 10  2  0  0  0
 10 11  1  0  0  0
 29 30  1  0  0  0
 30 31  1  0  0  0
 14 17  1  0  0  0
 11 12  1  0  0  0
 11 13  1  0  0  0
 27 28  1  0  0  0
M  END
> <minimizedAffinity>
-5.77647

$$$$
18


 37 40  0  0  0  0  0  0  0  0999 V2000
   91.4738   97.9480  -42.5209 C   0  0  0  0  0  0  0  0  0  0  0  0
   92.0063   97.0821  -41.7326 N   0  0  0  0  0  0  0  0  0  0  0  0
   91.9561   95.8802  -42.2813 N   0  0  0  0  0  0  0  0  0  0  0  0
   91.3624   95.9761  -43.4623 N   0  0  0  0  0  0  0  0  0  0  0  0
   90.9935   97.2208  -43.7296 C   0  0  0  0  0  0  0  0  0  0  0  0
   91.5417   94.9344  -44.4529 C   0  0  0  0  0  0  0  0  0  0  0  0
   91.6811   94.9268  -45.7125 N   0  0  0  0  0  0  0  0  0  0  0  0
   91.7637   93.6919  -46.2089 O   0  0  0  0  0  0  0  0  0  0  0  0
   91.6734   92.8941  -45.2071 N   0  0  0  0  0  0  0  0  0  0  0  0
   91.5309   93.5605  -44.0609 C   0  0  0  0  0  0  0  0  0  0  0  0
   91.3825   93.0414  -42.7640 N   0  0  0  0  0  0  0  0  0  0  0  0
   90.4973   93.1043  -42.2301 H   0  0  0  0  0  0  0  0  0  0  0  0
   92.1836   92.5337  -42.2572 H   0  0  0  0  0  0  0  0  0  0  0  0
   90.6759  100.2758  -42.0352 N   0  0  0  0  0  0  0  0  0  0  0  0
   91.5822   99.3768  -42.7141 C   0  0  0  0  0  0  0  0  0  0  0  0
   92.5013   99.8249  -43.3982 O   0  0  0  0  0  0  0  0  0  0  0  0
   89.8467  100.3652  -41.6205 H   0  0  0  0  0  0  0  0  0  0  0  0
   91.7187  101.6184  -40.6698 C   0  0  0  0  0  0  0  0  0  0  0  0
   91.5135  101.6339  -42.0003 N   0  0  0  0  0  0  0  0  0  0  0  0
   90.5813  104.1374  -36.2744 Br  0  0  0  0  0  0  0  0  0  0  0  0
   91.8401  103.4540  -37.5686 C   0  0  0  0  0  0  0  0  0  0  0  0
   93.1877  103.6421  -37.3461 C   0  0  0  0  0  0  0  0  0  0  0  0
   94.1023  103.1506  -38.2357 C   0  0  0  0  0  0  0  0  0  0  0  0
   93.6306  102.4794  -39.3402 C   0  0  0  0  0  0  0  0  0  0  0  0
   92.2912  102.2652  -39.6111 C   0  0  0  0  0  0  0  0  0  0  0  0
   91.3783  102.8059  -38.6320 C   0  0  0  0  0  0  0  0  0  0  0  0
   93.6087  104.3372  -36.2087 O   0  0  0  0  0  0  0  0  0  0  0  0
   92.8779  104.7333  -35.5801 H   0  0  0  0  0  0  0  0  0  0  0  0
   95.4793  103.3064  -38.0363 O   0  0  0  0  0  0  0  0  0  0  0  0
   96.2276  104.1106  -38.9704 C   0  0  0  0  0  0  0  0  0  0  0  0
   90.4637   97.9016  -44.8758 C   0  0  0  0  0  0  0  0  0  0  0  0
   89.1015   97.5737  -45.3017 N   0  0  0  0  0  0  0  0  0  0  0  0
   88.8073   98.0630  -46.6092 C   0  0  0  0  0  0  0  0  0  0  0  0
   88.7260   99.5585  -46.7202 C   0  0  0  0  0  0  0  0  0  0  0  0
   87.5501  100.0030  -46.1396 O   0  0  0  0  0  0  0  0  0  0  0  0
   87.0937   99.0869  -45.1851 C   0  0  0  0  0  0  0  0  0  0  0  0
   88.2554   98.5133  -44.4454 C   0  0  0  0  0  0  0  0  0  0  0  0
 20 21  1  0  0  0
 21 22  2  0  0  0
 21 26  1  0  0  0
 22 23  1  0  0  0
 22 27  1  0  0  0
 23 24  2  0  0  0
 23 29  1  0  0  0
 24 25  1  0  0  0
 25 26  2  0  0  0
 25 18  1  0  0  0
 18 19  2  0  0  0
 19 14  1  0  0  0
 14 15  1  0  0  0
 15 16  2  0  0  0
 15  1  1  0  0  0
  1  2  1  0  0  0
  1  5  2  0  0  0
  2  3  2  0  0  0
  3  4  1  0  0  0
  4  5  1  0  0  0
  4  6  1  0  0  0
  5 31  1  0  0  0
 31 32  1  0  0  0
 32 33  1  0  0  0
 32 37  1  0  0  0
 33 34  1  0  0  0
 34 35  1  0  0  0
 35 36  1  0  0  0
 36 37  1  0  0  0
  6  7  2  0  0  0
  6 10  1  0  0  0
  7  8  1  0  0  0
  8  9  1  0  0  0
  9 10  2  0  0  0
 10 11  1  0  0  0
 29 30  1  0  0  0
 14 17  1  0  0  0
 11 12  1  0  0  0
 11 13  1  0  0  0
 27 28  1  0  0  0
M  END
> <minimizedAffinity>
-6.62702

$$$$
20


 34 37  0  0  0  0  0  0  0  0999 V2000
   91.8443   90.0935  -49.2374 C   0  0  0  0  0  0  0  0  0  0  0  0
   91.3621   91.0016  -50.0643 N   0  0  0  0  0  0  0  0  0  0  0  0
   90.3862   90.6851  -50.9628 C   0  0  0  0  0  0  0  0  0  0  0  0
   89.9588   89.4004  -50.9408 N   0  0  0  0  0  0  0  0  0  0  0  0
   90.4134   88.4322  -50.1231 C   0  0  0  0  0  0  0  0  0  0  0  0
   91.3829   88.8134  -49.2611 N   0  0  0  0  0  0  0  0  0  0  0  0
   89.8248   87.1815  -50.0558 N   0  0  0  0  0  0  0  0  0  0  0  0
   89.2411   86.3971  -51.0742 C   0  0  0  0  0  0  0  0  0  0  0  0
   87.7685   86.2146  -50.6955 C   0  0  0  0  0  0  0  0  0  0  0  0
   87.7270   85.6747  -49.4291 O   0  0  0  0  0  0  0  0  0  0  0  0
   88.2846   86.4446  -48.4343 C   0  0  0  0  0  0  0  0  0  0  0  0
   89.8135   86.5655  -48.6953 C   0  0  0  0  0  0  0  0  0  0  0  0
   89.7823   91.6477  -51.8057 N   0  0  0  0  0  0  0  0  0  0  0  0
   90.6245   92.6382  -52.4954 C   0  0  0  0  0  0  0  0  0  0  0  0
   89.9089   93.9947  -52.2678 C   0  0  0  0  0  0  0  0  0  0  0  0
   88.7511   93.8934  -52.9849 O   0  0  0  0  0  0  0  0  0  0  0  0
   87.8469   93.0136  -52.4595 C   0  0  0  0  0  0  0  0  0  0  0  0
   88.3815   91.7056  -51.9759 C   0  0  0  0  0  0  0  0  0  0  0  0
   92.7422   90.3939  -48.0980 N   0  0  0  0  0  0  0  0  0  0  0  0
   93.7016   90.1395  -48.2290 H   0  0  0  0  0  0  0  0  0  0  0  0
   91.4547   91.4535  -46.2762 C   0  0  0  0  0  0  0  0  0  0  0  0
   92.0658   90.9643  -47.1335 N   0  0  0  0  0  0  0  0  0  0  0  0
   92.3676   94.0650  -41.7583 Br  0  0  0  0  0  0  0  0  0  0  0  0
   91.8790   94.0283  -43.6134 C   0  0  0  0  0  0  0  0  0  0  0  0
   91.4485   95.1765  -44.2186 C   0  0  0  0  0  0  0  0  0  0  0  0
   91.0784   95.1436  -45.5615 C   0  0  0  0  0  0  0  0  0  0  0  0
   91.1437   93.9542  -46.2735 C   0  0  0  0  0  0  0  0  0  0  0  0
   91.5624   92.8000  -45.6778 C   0  0  0  0  0  0  0  0  0  0  0  0
   91.9256   92.8659  -44.3514 C   0  0  0  0  0  0  0  0  0  0  0  0
   91.3961   96.3324  -43.4691 O   0  0  0  0  0  0  0  0  0  0  0  0
   91.6345   96.3849  -42.5081 H   0  0  0  0  0  0  0  0  0  0  0  0
   90.6707   96.3307  -46.0848 O   0  0  0  0  0  0  0  0  0  0  0  0
   89.3905   96.8060  -46.3068 C   0  0  0  0  0  0  0  0  0  0  0  0
   89.3722   98.2417  -46.8105 C   0  0  0  0  0  0  0  0  0  0  0  0
 23 24  1  0  0  0
 24 25  2  0  0  0
 24 29  1  0  0  0
 25 26  1  0  0  0
 25 30  1  0  0  0
 26 27  2  0  0  0
 26 32  1  0  0  0
 27 28  1  0  0  0
 28 29  2  0  0  0
 28 21  1  0  0  0
 21 22  2  0  0  0
 22 19  1  0  0  0
 19  1  1  0  0  0
  1  2  2  0  0  0
  1  6  1  0  0  0
  2  3  1  0  0  0
  3  4  2  0  0  0
  3 13  1  0  0  0
  4  5  1  0  0  0
  5  6  2  0  0  0
  5  7  1  0  0  0
  7  8  1  0  0  0
  7 12  1  0  0  0
  8  9  1  0  0  0
  9 10  1  0  0  0
 10 11  1  0  0  0
 11 12  1  0  0  0
 13 14  1  0  0  0
 13 18  1  0  0  0
 14 15  1  0  0  0
 15 16  1  0  0  0
 16 17  1  0  0  0
 17 18  1  0  0  0
 32 33  1  0  0  0
 33 34  1  0  0  0
 19 20  1  0  0  0
 30 31  1  0  0  0
M  END
> <minimizedAffinity>
-7.07969

$$$$
23


 37 40  0  0  0  0  0  0  0  0999 V2000
   90.6583   97.3026  -45.7114 C   0  0  0  0  0  0  0  0  0  0  0  0
   89.2177   97.2719  -45.8515 N   0  0  0  0  0  0  0  0  0  0  0  0
   88.6022   98.2452  -45.0575 C   0  0  0  0  0  0  0  0  0  0  0  0
   87.3831   98.3774  -44.8726 O   0  0  0  0  0  0  0  0  0  0  0  0
   89.6576   99.0792  -44.4816 C   0  0  0  0  0  0  0  0  0  0  0  0
   89.4158  100.0448  -43.7128 O   0  0  0  0  0  0  0  0  0  0  0  0
   90.9304   98.5804  -44.9566 C   0  0  0  0  0  0  0  0  0  0  0  0
   92.0914   99.1285  -44.7191 C   0  0  0  0  0  0  0  0  0  0  0  0
   93.2459   98.5145  -45.1777 O   0  0  0  0  0  0  0  0  0  0  0  0
   92.2193  100.3692  -43.9946 C   0  0  0  0  0  0  0  0  0  0  0  0
   92.3610  100.2264  -42.6082 C   0  0  0  0  0  0  0  0  0  0  0  0
   92.5283  101.3206  -41.7960 C   0  0  0  0  0  0  0  0  0  0  0  0
   92.5576  102.5845  -42.3377 C   0  0  0  0  0  0  0  0  0  0  0  0
   92.4150  102.7000  -43.7078 C   0  0  0  0  0  0  0  0  0  0  0  0
   92.2479  101.6136  -44.5391 C   0  0  0  0  0  0  0  0  0  0  0  0
   92.7385  103.5074  -41.2864 O   0  0  0  0  0  0  0  0  0  0  0  0
   92.4328  102.8550  -40.0579 C   0  0  0  0  0  0  0  0  0  0  0  0
   92.6880  101.3865  -40.3074 C   0  0  0  0  0  0  0  0  0  0  0  0
   90.9717  103.0091  -39.6800 C   0  0  0  0  0  0  0  0  0  0  0  0
   92.0546   95.0343  -41.0659 Br  0  0  0  0  0  0  0  0  0  0  0  0
   91.6729   95.0010  -42.9229 C   0  0  0  0  0  0  0  0  0  0  0  0
   91.7639   93.7827  -43.6110 C   0  0  0  0  0  0  0  0  0  0  0  0
   91.4852   93.7578  -44.9714 C   0  0  0  0  0  0  0  0  0  0  0  0
   91.1349   94.9137  -45.5850 C   0  0  0  0  0  0  0  0  0  0  0  0
   91.0456   96.1168  -44.9033 C   0  0  0  0  0  0  0  0  0  0  0  0
   91.3151   96.1731  -43.5584 C   0  0  0  0  0  0  0  0  0  0  0  0
   92.1195   92.6192  -42.9767 O   0  0  0  0  0  0  0  0  0  0  0  0
   92.1798   91.7694  -43.4811 H   0  0  0  0  0  0  0  0  0  0  0  0
   91.5743   92.5460  -45.6616 O   0  0  0  0  0  0  0  0  0  0  0  0
   91.1065   92.3714  -46.9714 C   0  0  0  0  0  0  0  0  0  0  0  0
   88.5665   96.3154  -46.7228 C   0  0  0  0  0  0  0  0  0  0  0  0
   88.7032   96.5411  -48.1689 C   0  0  0  0  0  0  0  0  0  0  0  0
   88.4640   97.9101  -48.6884 C   0  0  0  0  0  0  0  0  0  0  0  0
   89.6531   98.5889  -49.1416 N   0  0  0  0  0  0  0  0  0  0  0  0
   89.8314   99.8169  -48.3532 C   0  0  0  0  0  0  0  0  0  0  0  0
   89.4181   98.9967  -50.5149 C   0  0  0  0  0  0  0  0  0  0  0  0
   90.5085   98.0266  -49.1290 H   0  0  0  0  0  0  0  0  0  0  0  0
 20 21  1  0  0  0
 21 22  2  0  0  0
 21 26  1  0  0  0
 22 23  1  0  0  0
 22 27  1  0  0  0
 23 24  2  0  0  0
 23 29  1  0  0  0
 24 25  1  0  0  0
 25 26  2  0  0  0
 25  1  1  0  0  0
  1  2  1  0  0  0
  1  7  1  0  0  0
  2  3  1  0  0  0
  2 31  1  0  0  0
  3  4  2  0  0  0
  3  5  1  0  0  0
  5  6  2  0  0  0
  5  7  1  0  0  0
  7  8  2  0  0  0
  8  9  1  0  0  0
  8 10  1  0  0  0
 10 11  2  0  0  0
 10 15  1  0  0  0
 11 12  1  0  0  0
 12 13  2  0  0  0
 12 18  1  0  0  0
 13 14  1  0  0  0
 13 16  1  0  0  0
 14 15  2  0  0  0
 16 17  1  0  0  0
 17 18  1  0  0  0
 17 19  1  0  0  0
 31 32  1  0  0  0
 32 33  1  0  0  0
 33 34  1  0  0  0
 34 35  1  0  0  0
 34 36  1  0  0  0
 29 30  1  0  0  0
 34 37  1  0  0  0
 27 28  1  0  0  0
M  CHG 1   9  -1
M  CHG 1  34   1
M  END
> <minimizedAffinity>
-6.63470

$$$$
26


 29 32  0  0  0  0  0  0  0  0999 V2000
   91.0058   97.7304  -45.4800 C   0  0  0  0  0  0  0  0  0  0  0  0
   91.9505   98.5706  -44.8699 N   0  0  0  0  0  0  0  0  0  0  0  0
   91.5423   99.8207  -44.3523 C   0  0  0  0  0  0  0  0  0  0  0  0
   90.2503  100.3594  -44.9048 C   0  0  0  0  0  0  0  0  0  0  0  0
   89.1974   99.3183  -44.9707 C   0  0  0  0  0  0  0  0  0  0  0  0
   87.8402   99.3650  -44.7999 C   0  0  0  0  0  0  0  0  0  0  0  0
   87.4108   98.0628  -44.9873 C   0  0  0  0  0  0  0  0  0  0  0  0
   88.4857   97.2761  -45.2604 N   0  0  0  0  0  0  0  0  0  0  0  0
   89.5838   98.0433  -45.2513 C   0  0  0  0  0  0  0  0  0  0  0  0
   86.0571   97.8315  -44.8681 C   0  0  0  0  0  0  0  0  0  0  0  0
   85.1712   98.8466  -44.5758 C   0  0  0  0  0  0  0  0  0  0  0  0
   85.6010  100.1444  -44.3889 C   0  0  0  0  0  0  0  0  0  0  0  0
   86.9583  100.3946  -44.5059 C   0  0  0  0  0  0  0  0  0  0  0  0
   92.4965   98.0661  -44.1136 H   0  0  0  0  0  0  0  0  0  0  0  0
   92.7218   98.7624  -45.5869 H   0  0  0  0  0  0  0  0  0  0  0  0
   88.3739   96.2538  -45.4353 H   0  0  0  0  0  0  0  0  0  0  0  0
   91.9326   94.6027  -41.2673 Br  0  0  0  0  0  0  0  0  0  0  0  0
   91.6318   94.8648  -43.1259 C   0  0  0  0  0  0  0  0  0  0  0  0
   91.6076   93.7859  -43.9766 C   0  0  0  0  0  0  0  0  0  0  0  0
   91.3869   94.0061  -45.3198 C   0  0  0  0  0  0  0  0  0  0  0  0
   91.1878   95.2542  -45.8692 C   0  0  0  0  0  0  0  0  0  0  0  0
   91.2128   96.3317  -45.0096 C   0  0  0  0  0  0  0  0  0  0  0  0
   91.4313   96.1400  -43.6631 C   0  0  0  0  0  0  0  0  0  0  0  0
   91.3586   92.4947  -46.4807 Br  0  0  0  0  0  0  0  0  0  0  0  0
   91.8031   92.4764  -43.4931 O   0  0  0  0  0  0  0  0  0  0  0  0
   91.9621   92.3606  -42.5021 H   0  0  0  0  0  0  0  0  0  0  0  0
   91.4188   99.8186  -42.8685 C   0  0  0  0  0  0  0  0  0  0  0  0
   92.0348   98.9268  -42.1909 O   0  0  0  0  0  0  0  0  0  0  0  0
   90.6385  100.7771  -42.2426 O   0  0  0  0  0  0  0  0  0  0  0  0
 17 18  1  0  0  0
 18 19  2  0  0  0
 18 23  1  0  0  0
 19 20  1  0  0  0
 19 25  1  0  0  0
 20 21  2  0  0  0
 20 24  1  0  0  0
 21 22  1  0  0  0
 22 23  2  0  0  0
 22  1  1  0  0  0
  1  2  1  0  0  0
  1  9  1  0  0  0
  2  3  1  0  0  0
  3  4  1  0  0  0
  3 27  1  0  0  0
  4  5  1  0  0  0
  5  6  1  0  0  0
  5  9  2  0  0  0
  6  7  2  0  0  0
  6 13  1  0  0  0
  7  8  1  0  0  0
  7 10  1  0  0  0
  8  9  1  0  0  0
 10 11  2  0  0  0
 11 12  1  0  0  0
 12 13  2  0  0  0
 27 28  2  0  0  0
 27 29  1  0  0  0
  2 14  1  0  0  0
  2 15  1  0  0  0
  8 16  1  0  0  0
 25 26  1  0  0  0
M  CHG 1   2   1
M  END
> <minimizedAffinity>
-6.72118

$$$$
31


 24 27  0  0  0  0  0  0  0  0999 V2000
   91.8341   92.8363  -44.9424 Br  0  0  0  0  0  0  0  0  0  0  0  0
   91.7109   94.3192  -43.7277 C   0  0  0  0  0  0  0  0  0  0  0  0
   91.5044   95.5758  -44.1739 C   0  0  0  0  0  0  0  0  0  0  0  0
   91.4784   96.6758  -43.2676 C   0  0  0  0  0  0  0  0  0  0  0  0
   91.6757   96.4139  -41.9561 C   0  0  0  0  0  0  0  0  0  0  0  0
   91.8973   95.1218  -41.5212 C   0  0  0  0  0  0  0  0  0  0  0  0
   91.9152   94.0718  -42.3872 C   0  0  0  0  0  0  0  0  0  0  0  0
   91.6498   97.9805  -43.9360 C   0  0  0  0  0  0  0  0  0  0  0  0
   90.8484   99.0872  -43.6074 N   0  0  0  0  0  0  0  0  0  0  0  0
   89.6633   98.9577  -42.9212 C   0  0  0  0  0  0  0  0  0  0  0  0
   89.0798  100.2526  -42.5782 N   0  0  0  0  0  0  0  0  0  0  0  0
   88.8676  100.9788  -43.8195 C   0  0  0  0  0  0  0  0  0  0  0  0
   90.0856  101.1069  -44.5925 N   0  0  0  0  0  0  0  0  0  0  0  0
   90.7072   99.8753  -44.8796 C   0  0  0  0  0  0  0  0  0  0  0  0
   90.9934  101.9638  -43.8584 C   0  0  0  0  0  0  0  0  0  0  0  0
   91.2332  101.2879  -42.5317 C   0  0  0  0  0  0  0  0  0  0  0  0
   91.7931   99.9415  -42.8061 C   0  0  0  0  0  0  0  0  0  0  0  0
   89.9380  101.0681  -41.7545 C   0  0  0  0  0  0  0  0  0  0  0  0
   91.3167   95.8319  -45.4852 O   0  0  0  0  0  0  0  0  0  0  0  0
   90.0626   95.6356  -46.1693 C   0  0  0  0  0  0  0  0  0  0  0  0
   89.2731   96.8255  -46.4750 C   0  0  0  0  0  0  0  0  0  0  0  0
   89.3626   97.4884  -47.4986 O   0  0  0  0  0  0  0  0  0  0  0  0
   88.3141   97.2173  -45.5342 O   0  0  0  0  0  0  0  0  0  0  0  0
   86.9396   97.2557  -45.8116 C   0  0  0  0  0  0  0  0  0  0  0  0
  1  2  1  0  0  0
  2  3  2  0  0  0
  2  7  1  0  0  0
  3  4  1  0  0  0
  3 19  1  0  0  0
  4  5  2  0  0  0
  4  8  1  0  0  0
  5  6  1  0  0  0
  6  7  2  0  0  0
  8  9  1  0  0  0
  9 10  1  0  0  0
  9 14  1  0  0  0
  9 17  1  0  0  0
 10 11  1  0  0  0
 11 12  1  0  0  0
 11 18  1  0  0  0
 12 13  1  0  0  0
 13 14  1  0  0  0
 13 15  1  0  0  0
 15 16  1  0  0  0
 16 17  1  0  0  0
 16 18  1  0  0  0
 19 20  1  0  0  0
 20 21  1  0  0  0
 21 22  2  0  0  0
 21 23  1  0  0  0
 23 24  1  0  0  0
M  CHG 1   9   1
M  END
> <minimizedAffinity>
-5.58800

$$$$
33


 33 36  0  0  0  0  0  0  0  0999 V2000
   90.6833   94.7870  -46.1777 C   0  0  0  0  0  0  0  0  0  0  0  0
   90.8685   93.7669  -47.0004 N   0  0  0  0  0  0  0  0  0  0  0  0
   91.3784   92.5789  -46.6316 C   0  0  0  0  0  0  0  0  0  0  0  0
   91.7153   92.4422  -45.3306 N   0  0  0  0  0  0  0  0  0  0  0  0
   91.5482   93.4534  -44.4368 C   0  0  0  0  0  0  0  0  0  0  0  0
   91.0273   94.6235  -44.8827 N   0  0  0  0  0  0  0  0  0  0  0  0
   91.9189   93.3024  -43.0855 N   0  0  0  0  0  0  0  0  0  0  0  0
   92.7919   92.2380  -42.6618 C   0  0  0  0  0  0  0  0  0  0  0  0
   93.9204   92.9267  -41.8803 C   0  0  0  0  0  0  0  0  0  0  0  0
   93.3651   93.7247  -40.9008 O   0  0  0  0  0  0  0  0  0  0  0  0
   92.7261   94.8248  -41.4711 C   0  0  0  0  0  0  0  0  0  0  0  0
   91.4431   94.2368  -42.0971 C   0  0  0  0  0  0  0  0  0  0  0  0
   91.5653   91.5007  -47.5634 N   0  0  0  0  0  0  0  0  0  0  0  0
   92.7089   90.6370  -47.4873 C   0  0  0  0  0  0  0  0  0  0  0  0
   92.6777   89.4173  -48.3232 C   0  0  0  0  0  0  0  0  0  0  0  0
   91.7315   89.4370  -49.3384 O   0  0  0  0  0  0  0  0  0  0  0  0
   90.4812   89.8295  -48.8805 C   0  0  0  0  0  0  0  0  0  0  0  0
   90.5729   91.3054  -48.5792 C   0  0  0  0  0  0  0  0  0  0  0  0
   90.1668   96.0188  -46.6661 N   0  0  0  0  0  0  0  0  0  0  0  0
   89.8366   96.0775  -47.6366 H   0  0  0  0  0  0  0  0  0  0  0  0
   89.0317   97.5666  -45.2884 C   0  0  0  0  0  0  0  0  0  0  0  0
   90.1099   97.1325  -45.8451 N   0  0  0  0  0  0  0  0  0  0  0  0
   87.0379  102.3917  -44.0504 Br  0  0  0  0  0  0  0  0  0  0  0  0
   88.2035  100.9177  -43.7616 C   0  0  0  0  0  0  0  0  0  0  0  0
   89.0689  100.9698  -42.6803 C   0  0  0  0  0  0  0  0  0  0  0  0
   89.9100   99.8893  -42.4945 C   0  0  0  0  0  0  0  0  0  0  0  0
   89.8855   98.8158  -43.3467 C   0  0  0  0  0  0  0  0  0  0  0  0
   89.0224   98.7401  -44.4393 C   0  0  0  0  0  0  0  0  0  0  0  0
   88.1919   99.8262  -44.6092 C   0  0  0  0  0  0  0  0  0  0  0  0
   90.7410   97.7260  -43.1535 O   0  0  0  0  0  0  0  0  0  0  0  0
   89.1029  102.0560  -41.8084 O   0  0  0  0  0  0  0  0  0  0  0  0
   91.3824   97.7523  -42.3665 H   0  0  0  0  0  0  0  0  0  0  0  0
   88.5065  102.8649  -41.8974 H   0  0  0  0  0  0  0  0  0  0  0  0
 23 24  1  0  0  0
 24 25  2  0  0  0
 24 29  1  0  0  0
 25 26  1  0  0  0
 25 31  1  0  0  0
 26 27  2  0  0  0
 27 28  1  0  0  0
 27 30  1  0  0  0
 28 29  2  0  0  0
 28 21  1  0  0  0
 21 22  2  0  0  0
 22 19  1  0  0  0
 19  1  1  0  0  0
  1  2  2  0  0  0
  1  6  1  0  0  0
  2  3  1  0  0  0
  3  4  2  0  0  0
  3 13  1  0  0  0
  4  5  1  0  0  0
  5  6  2  0  0  0
  5  7  1  0  0  0
  7  8  1  0  0  0
  7 12  1  0  0  0
  8  9  1  0  0  0
  9 10  1  0  0  0
 10 11  1  0  0  0
 11 12  1  0  0  0
 13 14  1  0  0  0
 13 18  1  0  0  0
 14 15  1  0  0  0
 15 16  1  0  0  0
 16 17  1  0  0  0
 17 18  1  0  0  0
 19 20  1  0  0  0
 30 32  1  0  0  0
 31 33  1  0  0  0
M  END
> <minimizedAffinity>
-6.82036

$$$$
35


 33 36  0  0  0  0  0  0  0  0999 V2000
   90.7828   94.9567  -46.0650 C   0  0  0  0  0  0  0  0  0  0  0  0
   90.8038   93.8881  -46.8671 N   0  0  0  0  0  0  0  0  0  0  0  0
   91.1930   92.6609  -46.4297 C   0  0  0  0  0  0  0  0  0  0  0  0
   91.5691   92.5207  -45.1487 N   0  0  0  0  0  0  0  0  0  0  0  0
   91.5590   93.5739  -44.3180 C   0  0  0  0  0  0  0  0  0  0  0  0
   91.1617   94.7913  -44.7941 N   0  0  0  0  0  0  0  0  0  0  0  0
   91.9592   93.4338  -42.9551 N   0  0  0  0  0  0  0  0  0  0  0  0
   91.3010   94.1021  -41.8581 C   0  0  0  0  0  0  0  0  0  0  0  0
   92.3148   94.7163  -40.9165 C   0  0  0  0  0  0  0  0  0  0  0  0
   93.6209   94.5139  -41.3360 O   0  0  0  0  0  0  0  0  0  0  0  0
   93.8518   93.1298  -41.4575 C   0  0  0  0  0  0  0  0  0  0  0  0
   93.0892   92.5808  -42.6470 C   0  0  0  0  0  0  0  0  0  0  0  0
   91.1818   91.6017  -47.3598 N   0  0  0  0  0  0  0  0  0  0  0  0
   90.2758   91.6528  -48.4755 C   0  0  0  0  0  0  0  0  0  0  0  0
   91.1641   91.5191  -49.7223 C   0  0  0  0  0  0  0  0  0  0  0  0
   91.7626   90.2631  -49.6181 O   0  0  0  0  0  0  0  0  0  0  0  0
   92.6883   90.2090  -48.5815 C   0  0  0  0  0  0  0  0  0  0  0  0
   92.0503   90.4571  -47.2295 C   0  0  0  0  0  0  0  0  0  0  0  0
   90.3606   96.1998  -46.5793 N   0  0  0  0  0  0  0  0  0  0  0  0
   90.0452   96.2373  -47.5709 H   0  0  0  0  0  0  0  0  0  0  0  0
   89.4595   97.5497  -44.8684 C   0  0  0  0  0  0  0  0  0  0  0  0
   90.3554   97.3791  -45.7840 N   0  0  0  0  0  0  0  0  0  0  0  0
   86.5931   98.2527  -44.0607 Br  0  0  0  0  0  0  0  0  0  0  0  0
   88.1725   99.1871  -43.5443 C   0  0  0  0  0  0  0  0  0  0  0  0
   88.0934  100.3027  -42.7306 C   0  0  0  0  0  0  0  0  0  0  0  0
   89.2572  100.9643  -42.3695 C   0  0  0  0  0  0  0  0  0  0  0  0
   90.4717  100.5044  -42.8266 C   0  0  0  0  0  0  0  0  0  0  0  0
   90.5097   99.3827  -43.6409 C   0  0  0  0  0  0  0  0  0  0  0  0
   89.3727   98.7078  -44.0134 C   0  0  0  0  0  0  0  0  0  0  0  0
   91.6098  101.1963  -42.4427 O   0  0  0  0  0  0  0  0  0  0  0  0
   86.8712  100.7611  -42.2745 O   0  0  0  0  0  0  0  0  0  0  0  0
   92.1466  100.9915  -41.6109 H   0  0  0  0  0  0  0  0  0  0  0  0
   86.0378  100.2592  -42.5521 H   0  0  0  0  0  0  0  0  0  0  0  0
 23 24  1  0  0  0
 24 25  2  0  0  0
 24 29  1  0  0  0
 25 26  1  0  0  0
 25 31  1  0  0  0
 26 27  2  0  0  0
 27 28  1  0  0  0
 27 30  1  0  0  0
 28 29  2  0  0  0
 29 21  1  0  0  0
 21 22  2  0  0  0
 22 19  1  0  0  0
 19  1  1  0  0  0
  1  2  2  0  0  0
  1  6  1  0  0  0
  2  3  1  0  0  0
  3  4  2  0  0  0
  3 13  1  0  0  0
  4  5  1  0  0  0
  5  6  2  0  0  0
  5  7  1  0  0  0
  7  8  1  0  0  0
  7 12  1  0  0  0
  8  9  1  0  0  0
  9 10  1  0  0  0
 10 11  1  0  0  0
 11 12  1  0  0  0
 13 14  1  0  0  0
 13 18  1  0  0  0
 14 15  1  0  0  0
 15 16  1  0  0  0
 16 17  1  0  0  0
 17 18  1  0  0  0
 19 20  1  0  0  0
 30 32  1  0  0  0
 31 33  1  0  0  0
M  END
> <minimizedAffinity>
-7.08001

$$$$
37


 27 30  0  0  0  0  0  0  0  0999 V2000
   91.0622   98.2658  -43.8138 N   0  0  0  0  0  0  0  0  0  0  0  0
   92.1712   99.1634  -43.5923 C   0  0  0  0  0  0  0  0  0  0  0  0
   91.5820  100.4934  -44.0085 C   0  0  0  0  0  0  0  0  0  0  0  0
   90.2279  100.4419  -43.3230 C   0  0  0  0  0  0  0  0  0  0  0  0
   89.8864   99.0150  -43.5657 C   0  0  0  0  0  0  0  0  0  0  0  0
   88.7243   98.5565  -43.5498 O   0  0  0  0  0  0  0  0  0  0  0  0
   91.6604   92.4196  -45.5440 Br  0  0  0  0  0  0  0  0  0  0  0  0
   91.4701   94.2416  -45.0177 C   0  0  0  0  0  0  0  0  0  0  0  0
   91.7071   94.5772  -43.6900 C   0  0  0  0  0  0  0  0  0  0  0  0
   91.5660   95.8915  -43.3373 C   0  0  0  0  0  0  0  0  0  0  0  0
   91.2061   96.9052  -44.1986 C   0  0  0  0  0  0  0  0  0  0  0  0
   90.9769   96.5258  -45.5237 C   0  0  0  0  0  0  0  0  0  0  0  0
   91.1065   95.2119  -45.9290 C   0  0  0  0  0  0  0  0  0  0  0  0
   92.0963   93.5073  -42.7316 C   0  0  0  0  0  0  0  0  0  0  0  0
   92.3948  101.6348  -43.5391 C   0  0  0  0  0  0  0  0  0  0  0  0
   91.9999  102.8169  -43.6801 O   0  0  0  0  0  0  0  0  0  0  0  0
   93.6369  101.3810  -42.9210 N   0  0  0  0  0  0  0  0  0  0  0  0
   93.9716  100.4084  -42.8017 H   0  0  0  0  0  0  0  0  0  0  0  0
   94.4616  102.4646  -42.4450 C   0  0  0  0  0  0  0  0  0  0  0  0
   94.4349  102.5488  -40.9578 C   0  0  0  0  0  0  0  0  0  0  0  0
   93.3987  102.9201  -40.1647 N   0  0  0  0  0  0  0  0  0  0  0  0
   93.7786  102.8615  -38.8772 C   0  0  0  0  0  0  0  0  0  0  0  0
   95.0703  102.4451  -38.9042 N   0  0  0  0  0  0  0  0  0  0  0  0
   95.4651  102.2582  -40.1472 N   0  0  0  0  0  0  0  0  0  0  0  0
   92.6550  103.2667  -37.9703 C   0  0  0  0  0  0  0  0  0  0  0  0
   91.6937  103.9303  -38.9311 C   0  0  0  0  0  0  0  0  0  0  0  0
   92.0208  103.3586  -40.2946 C   0  0  0  0  0  0  0  0  0  0  0  0
  7  8  1  0  0  0
  8  9  2  0  0  0
  8 13  1  0  0  0
  9 10  1  0  0  0
  9 14  1  0  0  0
 10 11  2  0  0  0
 11 12  1  0  0  0
 11  1  1  0  0  0
 12 13  2  0  0  0
  1  2  1  0  0  0
  1  5  1  0  0  0
  2  3  1  0  0  0
  3  4  1  0  0  0
  3 15  1  0  0  0
  4  5  1  0  0  0
  5  6  2  0  0  0
 15 16  2  0  0  0
 15 17  1  0  0  0
 17 19  1  0  0  0
 19 20  1  0  0  0
 20 21  1  0  0  0
 20 24  2  0  0  0
 21 22  1  0  0  0
 21 27  1  0  0  0
 22 23  2  0  0  0
 22 25  1  0  0  0
 23 24  1  0  0  0
 25 26  1  0  0  0
 26 27  1  0  0  0
 17 18  1  0  0  0
M  END
> <minimizedAffinity>
-6.62702

$$$$
39


 21 23  0  0  0  0  0  0  0  0999 V2000
   91.3929   96.4244  -43.8624 N   0  0  0  0  0  0  0  0  0  0  0  0
   91.7494   97.6899  -44.3307 C   0  0  0  0  0  0  0  0  0  0  0  0
   92.1394   97.8634  -45.4942 O   0  0  0  0  0  0  0  0  0  0  0  0
   91.0705   96.3779  -42.8499 H   0  0  0  0  0  0  0  0  0  0  0  0
   92.2603   94.1884  -42.0501 Br  0  0  0  0  0  0  0  0  0  0  0  0
   91.7773   94.0105  -43.9021 C   0  0  0  0  0  0  0  0  0  0  0  0
   91.4029   95.1928  -44.5570 C   0  0  0  0  0  0  0  0  0  0  0  0
   91.0624   95.0363  -45.8837 C   0  0  0  0  0  0  0  0  0  0  0  0
   91.0934   93.7875  -46.5089 C   0  0  0  0  0  0  0  0  0  0  0  0
   91.4639   92.6429  -45.8464 C   0  0  0  0  0  0  0  0  0  0  0  0
   91.8064   92.7859  -44.5233 C   0  0  0  0  0  0  0  0  0  0  0  0
   91.4918   91.3156  -46.5329 C   0  0  0  0  0  0  0  0  0  0  0  0
   91.6572   98.8430  -43.4139 C   0  0  0  0  0  0  0  0  0  0  0  0
   90.4505   99.6010  -43.4832 N   0  0  0  0  0  0  0  0  0  0  0  0
   90.4161  100.4870  -42.3092 C   0  0  0  0  0  0  0  0  0  0  0  0
   89.5234  101.6521  -42.6577 C   0  0  0  0  0  0  0  0  0  0  0  0
   88.4126  101.0917  -43.4263 N   0  0  0  0  0  0  0  0  0  0  0  0
   88.9196  100.9344  -44.7862 C   0  0  0  0  0  0  0  0  0  0  0  0
   90.3449  100.4079  -44.6960 C   0  0  0  0  0  0  0  0  0  0  0  0
   88.1177   99.7559  -42.9323 C   0  0  0  0  0  0  0  0  0  0  0  0
   89.2390   98.8114  -43.3961 C   0  0  0  0  0  0  0  0  0  0  0  0
  5  6  1  0  0  0
  6  7  2  0  0  0
  6 11  1  0  0  0
  7  8  1  0  0  0
  7  1  1  0  0  0
  8  9  2  0  0  0
  9 10  1  0  0  0
 10 11  2  0  0  0
 10 12  1  0  0  0
  1  2  1  0  0  0
  2  3  2  0  0  0
  2 13  1  0  0  0
 13 14  1  0  0  0
 14 15  1  0  0  0
 14 19  1  0  0  0
 14 21  1  0  0  0
 15 16  1  0  0  0
 16 17  1  0  0  0
 17 18  1  0  0  0
 17 20  1  0  0  0
 18 19  1  0  0  0
 20 21  1  0  0  0
  1  4  1  0  0  0
M  CHG 1  14   1
M  END
> <minimizedAffinity>
-5.87895

$$$$
56


 24 27  0  0  0  0  0  0  0  0999 V2000
   90.3877   97.3931  -44.7824 C   0  0  0  0  0  0  0  0  0  0  0  0
   90.0203   98.6834  -44.3966 C   0  0  0  0  0  0  0  0  0  0  0  0
   90.7005   99.9622  -44.0542 C   0  0  0  0  0  0  0  0  0  0  0  0
   90.5730  100.5274  -45.4210 N   0  0  0  0  0  0  0  0  0  0  0  0
   90.7933   99.5706  -46.2673 C   0  0  0  0  0  0  0  0  0  0  0  0
   91.0722   98.3908  -45.5104 C   0  0  0  0  0  0  0  0  0  0  0  0
   90.7586   99.6937  -47.7068 N   0  0  0  0  0  0  0  0  0  0  0  0
   89.8688  100.6778  -43.1857 O   0  0  0  0  0  0  0  0  0  0  0  0
   90.6433  101.0607  -42.1079 C   0  0  0  0  0  0  0  0  0  0  0  0
   92.0414  101.0750  -42.7027 C   0  0  0  0  0  0  0  0  0  0  0  0
   91.9378   99.9433  -43.5491 O   0  0  0  0  0  0  0  0  0  0  0  0
   91.0906  100.5558  -48.1796 H   0  0  0  0  0  0  0  0  0  0  0  0
   90.3996   98.9196  -48.2959 H   0  0  0  0  0  0  0  0  0  0  0  0
   91.2170   94.4694  -45.7482 Br  0  0  0  0  0  0  0  0  0  0  0  0
   91.4660   95.2643  -44.0307 C   0  0  0  0  0  0  0  0  0  0  0  0
   91.0588   96.5466  -43.7621 C   0  0  0  0  0  0  0  0  0  0  0  0
   91.2610   97.0885  -42.5150 C   0  0  0  0  0  0  0  0  0  0  0  0
   91.8739   96.3657  -41.5006 C   0  0  0  0  0  0  0  0  0  0  0  0
   92.2899   95.0797  -41.7478 C   0  0  0  0  0  0  0  0  0  0  0  0
   92.0799   94.5364  -43.0202 C   0  0  0  0  0  0  0  0  0  0  0  0
   92.5134   98.4397  -45.1202 C   0  0  0  0  0  0  0  0  0  0  0  0
   93.6617   98.4705  -44.8360 N   0  0  0  0  0  0  0  0  0  0  0  0
   88.6536   99.0641  -44.9038 C   0  0  0  0  0  0  0  0  0  0  0  0
   87.5730   99.3491  -45.2866 N   0  0  0  0  0  0  0  0  0  0  0  0
 14 15  1  0  0  0
 15 16  2  0  0  0
 15 20  1  0  0  0
 16 17  1  0  0  0
 16  1  1  0  0  0
 17 18  2  0  0  0
 18 19  1  0  0  0
 19 20  2  0  0  0
  1  2  1  0  0  0
  1  6  1  0  0  0
  2  3  1  0  0  0
  2  6  1  0  0  0
  2 23  1  0  0  0
  3  4  1  0  0  0
  3  8  1  0  0  0
  3 11  1  0  0  0
  4  5  2  0  0  0
  5  6  1  0  0  0
  5  7  1  0  0  0
  6 21  1  0  0  0
 21 22  3  0  0  0
  8  9  1  0  0  0
  9 10  1  0  0  0
 10 11  1  0  0  0
 23 24  3  0  0  0
  7 12  1  0  0  0
  7 13  1  0  0  0
M  END
> <minimizedAffinity>
-5.07742

$$$$
64


 22 25  0  0  0  0  0  0  0  0999 V2000
   90.9450   97.9725  -44.5568 N   0  0  0  0  0  0  0  0  0  0  0  0
   91.7412   98.5973  -45.5506 C   0  0  0  0  0  0  0  0  0  0  0  0
   92.8860   98.2277  -45.8662 O   0  0  0  0  0  0  0  0  0  0  0  0
   91.0298   99.7439  -46.1609 C   0  0  0  0  0  0  0  0  0  0  0  0
   91.6835  101.0541  -45.8900 C   0  0  0  0  0  0  0  0  0  0  0  0
   90.6595  101.8809  -45.3563 O   0  0  0  0  0  0  0  0  0  0  0  0
   90.2450  100.9791  -44.3420 C   0  0  0  0  0  0  0  0  0  0  0  0
   89.7765   99.8556  -45.2745 C   0  0  0  0  0  0  0  0  0  0  0  0
   89.6476   98.5761  -44.5611 C   0  0  0  0  0  0  0  0  0  0  0  0
   88.6235   98.0768  -44.0462 O   0  0  0  0  0  0  0  0  0  0  0  0
   91.5443  100.6652  -43.7109 C   0  0  0  0  0  0  0  0  0  0  0  0
   92.4787  100.8913  -44.6340 C   0  0  0  0  0  0  0  0  0  0  0  0
   90.8649   95.1597  -45.8265 Br  0  0  0  0  0  0  0  0  0  0  0  0
   91.3189   95.5972  -44.0055 C   0  0  0  0  0  0  0  0  0  0  0  0
   91.2884   96.9284  -43.6572 C   0  0  0  0  0  0  0  0  0  0  0  0
   91.6177   97.2151  -42.3368 C   0  0  0  0  0  0  0  0  0  0  0  0
   91.9556   96.2306  -41.4284 C   0  0  0  0  0  0  0  0  0  0  0  0
   91.9765   94.8956  -41.8154 C   0  0  0  0  0  0  0  0  0  0  0  0
   91.6537   94.6028  -43.1136 C   0  0  0  0  0  0  0  0  0  0  0  0
   92.4190  101.6905  -46.9928 C   0  0  0  0  0  0  0  0  0  0  0  0
   93.6352  101.0024  -47.1613 O   0  0  0  0  0  0  0  0  0  0  0  0
   94.2638  101.2573  -46.4242 H   0  0  0  0  0  0  0  0  0  0  0  0
 13 14  1  0  0  0
 14 15  2  0  0  0
 14 19  1  0  0  0
 15 16  1  0  0  0
 15  1  1  0  0  0
 16 17  2  0  0  0
 17 18  1  0  0  0
 18 19  2  0  0  0
  1  2  1  0  0  0
  1  9  1  0  0  0
  2  3  2  0  0  0
  2  4  1  0  0  0
  4  5  1  0  0  0
  4  8  1  0  0  0
  5  6  1  0  0  0
  5 12  1  0  0  0
  5 20  1  0  0  0
  6  7  1  0  0  0
  7  8  1  0  0  0
  7 11  1  0  0  0
  8  9  1  0  0  0
  9 10  2  0  0  0
 11 12  2  0  0  0
 20 21  1  0  0  0
 21 22  1  0  0  0
M  END
> <minimizedAffinity>
-5.68335

$$$$
67


 22 25  0  0  0  0  0  0  0  0999 V2000
   91.5638   97.6098  -44.3199 N   0  0  0  0  0  0  0  0  0  0  0  0
   92.6144   98.1088  -45.2277 C   0  0  0  0  0  0  0  0  0  0  0  0
   92.2728   99.5223  -45.3225 C   0  0  0  0  0  0  0  0  0  0  0  0
   92.7810  100.3493  -44.3064 O   0  0  0  0  0  0  0  0  0  0  0  0
   92.0556  101.5092  -44.6882 C   0  0  0  0  0  0  0  0  0  0  0  0
   90.6469  100.9508  -44.4438 C   0  0  0  0  0  0  0  0  0  0  0  0
   90.7462   99.6548  -45.1862 C   0  0  0  0  0  0  0  0  0  0  0  0
   90.4207   98.4474  -44.4449 C   0  0  0  0  0  0  0  0  0  0  0  0
   89.3003   98.1623  -43.9738 O   0  0  0  0  0  0  0  0  0  0  0  0
   92.3852  101.5700  -46.1426 C   0  0  0  0  0  0  0  0  0  0  0  0
   92.6465  100.2938  -46.5038 C   0  0  0  0  0  0  0  0  0  0  0  0
   91.3078   94.7882  -45.7312 Br  0  0  0  0  0  0  0  0  0  0  0  0
   91.5479   95.1872  -43.9046 C   0  0  0  0  0  0  0  0  0  0  0  0
   91.6416   96.4912  -43.4500 C   0  0  0  0  0  0  0  0  0  0  0  0
   91.8189   96.6351  -42.0795 C   0  0  0  0  0  0  0  0  0  0  0  0
   91.8979   95.5767  -41.2098 C   0  0  0  0  0  0  0  0  0  0  0  0
   91.8044   94.3039  -41.6762 C   0  0  0  0  0  0  0  0  0  0  0  0
   91.6289   94.1091  -43.0202 C   0  0  0  0  0  0  0  0  0  0  0  0
   90.5854  100.7008  -42.9687 C   0  0  0  0  0  0  0  0  0  0  0  0
   91.5771  100.3803  -42.2980 O   0  0  0  0  0  0  0  0  0  0  0  0
   89.3606  100.8337  -42.3266 O   0  0  0  0  0  0  0  0  0  0  0  0
   88.2895  101.4815  -43.0234 C   0  0  0  0  0  0  0  0  0  0  0  0
 12 13  1  0  0  0
 13 14  2  0  0  0
 13 18  1  0  0  0
 14 15  1  0  0  0
 14  1  1  0  0  0
 15 16  2  0  0  0
 16 17  1  0  0  0
 17 18  2  0  0  0
  1  2  1  0  0  0
  1  8  1  0  0  0
  2  3  1  0  0  0
  3  4  1  0  0  0
  3  7  1  0  0  0
  3 11  1  0  0  0
  4  5  1  0  0  0
  5  6  1  0  0  0
  5 10  1  0  0  0
  6  7  1  0  0  0
  6 19  1  0  0  0
  7  8  1  0  0  0
  8  9  2  0  0  0
 19 20  2  0  0  0
 19 21  1  0  0  0
 21 22  1  0  0  0
 10 11  2  0  0  0
M  END
> <minimizedAffinity>
-5.77075

$$$$
81


 22 25  0  0  0  0  0  0  0  0999 V2000
   91.1316   91.3338  -47.2906 C   0  0  0  0  0  0  0  0  0  0  0  0
   91.7940   91.3153  -46.1197 N   0  0  0  0  0  0  0  0  0  0  0  0
   91.7300   92.5226  -45.5549 N   0  0  0  0  0  0  0  0  0  0  0  0
   91.0211   93.3425  -46.3572 C   0  0  0  0  0  0  0  0  0  0  0  0
   90.6662   92.5891  -47.4145 N   0  0  0  0  0  0  0  0  0  0  0  0
   90.8228   94.6548  -45.9737 C   0  0  0  0  0  0  0  0  0  0  0  0
   91.3250   95.1625  -44.7926 C   0  0  0  0  0  0  0  0  0  0  0  0
   90.9865   96.4611  -44.6652 N   0  0  0  0  0  0  0  0  0  0  0  0
   90.2844   96.7874  -45.7330 N   0  0  0  0  0  0  0  0  0  0  0  0
   90.1586   95.7106  -46.5637 C   0  0  0  0  0  0  0  0  0  0  0  0
   91.3095   97.3702  -43.5775 C   0  0  0  0  0  0  0  0  0  0  0  0
   92.0265   94.3120  -44.0216 N   0  0  0  0  0  0  0  0  0  0  0  0
   92.2177   93.0217  -44.4052 C   0  0  0  0  0  0  0  0  0  0  0  0
   90.9516   90.1924  -48.2534 C   0  0  0  0  0  0  0  0  0  0  0  0
   87.9722   90.9559  -52.6453 Br  0  0  0  0  0  0  0  0  0  0  0  0
   89.3609   90.9949  -51.3508 C   0  0  0  0  0  0  0  0  0  0  0  0
   89.3668   90.3604  -50.1357 C   0  0  0  0  0  0  0  0  0  0  0  0
   90.5369   90.6612  -49.5553 N   0  0  0  0  0  0  0  0  0  0  0  0
   91.2354   91.4419  -50.3563 N   0  0  0  0  0  0  0  0  0  0  0  0
   90.5401   91.6785  -51.4920 C   0  0  0  0  0  0  0  0  0  0  0  0
   90.9894   92.5228  -52.6572 C   0  0  0  0  0  0  0  0  0  0  0  0
   88.2572   89.5071  -49.6020 C   0  0  0  0  0  0  0  0  0  0  0  0
 15 16  1  0  0  0
 16 17  2  0  0  0
 16 20  1  0  0  0
 17 18  1  0  0  0
 17 22  1  0  0  0
 18 19  1  0  0  0
 18 14  1  0  0  0
 19 20  2  0  0  0
 20 21  1  0  0  0
 14  1  1  0  0  0
  1  2  2  0  0  0
  1  5  1  0  0  0
  2  3  1  0  0  0
  3  4  1  0  0  0
  3 13  1  0  0  0
  4  5  2  0  0  0
  4  6  1  0  0  0
  6  7  2  0  0  0
  6 10  1  0  0  0
  7  8  1  0  0  0
  7 12  1  0  0  0
  8  9  1  0  0  0
  8 11  1  0  0  0
  9 10  2  0  0  0
 12 13  2  0  0  0
M  END
> <minimizedAffinity>
-5.86921

$$$$
85


 26 29  0  0  0  0  0  0  0  0999 V2000
   91.2531   94.9596  -45.0641 C   0  0  0  0  0  0  0  0  0  0  0  0
   90.5963   94.8129  -46.3027 C   0  0  0  0  0  0  0  0  0  0  0  0
   89.8246   95.6855  -47.0059 N   0  0  0  0  0  0  0  0  0  0  0  0
   89.4511   95.0763  -48.0899 O   0  0  0  0  0  0  0  0  0  0  0  0
   89.9323   93.8728  -48.1265 N   0  0  0  0  0  0  0  0  0  0  0  0
   90.6623   93.6512  -47.0258 C   0  0  0  0  0  0  0  0  0  0  0  0
   91.3733   92.5505  -46.5926 C   0  0  0  0  0  0  0  0  0  0  0  0
   92.0156   92.6979  -45.3778 C   0  0  0  0  0  0  0  0  0  0  0  0
   91.9553   93.8749  -44.6341 C   0  0  0  0  0  0  0  0  0  0  0  0
   91.4499   91.3509  -47.3231 N   0  0  0  0  0  0  0  0  0  0  0  0
   92.7513   90.7020  -47.4583 C   0  0  0  0  0  0  0  0  0  0  0  0
   92.6944   89.5356  -48.4059 C   0  0  0  0  0  0  0  0  0  0  0  0
   91.9250   89.7014  -49.5097 O   0  0  0  0  0  0  0  0  0  0  0  0
   90.8295   90.5103  -49.4265 C   0  0  0  0  0  0  0  0  0  0  0  0
   90.3957   90.6402  -47.9813 C   0  0  0  0  0  0  0  0  0  0  0  0
   91.8150   97.3683  -44.7184 C   0  0  0  0  0  0  0  0  0  0  0  0
   92.6690   97.3615  -45.6816 O   0  0  0  0  0  0  0  0  0  0  0  0
   91.1137   96.2073  -44.4055 N   0  0  0  0  0  0  0  0  0  0  0  0
   90.4140   96.3001  -43.6090 H   0  0  0  0  0  0  0  0  0  0  0  0
   90.8224  100.3511  -46.2814 Br  0  0  0  0  0  0  0  0  0  0  0  0
   91.2880   99.8635  -44.4947 C   0  0  0  0  0  0  0  0  0  0  0  0
   91.6455   98.6505  -44.0034 C   0  0  0  0  0  0  0  0  0  0  0  0
   91.8703   98.7811  -42.6510 N   0  0  0  0  0  0  0  0  0  0  0  0
   91.6528  100.0350  -42.3540 N   0  0  0  0  0  0  0  0  0  0  0  0
   91.2963  100.7605  -43.4079 C   0  0  0  0  0  0  0  0  0  0  0  0
   92.2696   97.7363  -41.7448 C   0  0  0  0  0  0  0  0  0  0  0  0
 20 21  1  0  0  0
 21 22  2  0  0  0
 21 25  1  0  0  0
 22 23  1  0  0  0
 22 16  1  0  0  0
 23 24  1  0  0  0
 23 26  1  0  0  0
 24 25  2  0  0  0
 16 17  2  0  0  0
 16 18  1  0  0  0
 18  1  1  0  0  0
  1  2  1  0  0  0
  1  9  2  0  0  0
  2  3  2  0  0  0
  2  6  1  0  0  0
  3  4  1  0  0  0
  4  5  1  0  0  0
  5  6  2  0  0  0
  6  7  1  0  0  0
  7  8  2  0  0  0
  7 10  1  0  0  0
  8  9  1  0  0  0
 10 11  1  0  0  0
 10 15  1  0  0  0
 11 12  1  0  0  0
 12 13  1  0  0  0
 13 14  1  0  0  0
 14 15  1  0  0  0
 18 19  1  0  0  0
M  END
> <minimizedAffinity>
-6.08310

$$$$
95


 26 29  0  0  0  0  0  0  0  0999 V2000
   90.5861   99.4146  -42.9901 C   0  0  0  0  0  0  0  0  0  0  0  0
   89.3944   99.8283  -43.1639 O   0  0  0  0  0  0  0  0  0  0  0  0
   91.0185   98.1155  -43.1089 N   0  0  0  0  0  0  0  0  0  0  0  0
   89.7554   97.7093  -43.4148 H   0  0  0  0  0  0  0  0  0  0  0  0
   92.7227  102.6863  -39.3134 Br  0  0  0  0  0  0  0  0  0  0  0  0
   92.6075  101.9751  -41.0639 C   0  0  0  0  0  0  0  0  0  0  0  0
   91.6618  100.9817  -41.3449 C   0  0  0  0  0  0  0  0  0  0  0  0
   91.5924  100.4792  -42.6191 C   0  0  0  0  0  0  0  0  0  0  0  0
   92.4284  100.9325  -43.6049 C   0  0  0  0  0  0  0  0  0  0  0  0
   93.3785  101.9304  -43.3282 C   0  0  0  0  0  0  0  0  0  0  0  0
   93.4492  102.4367  -42.0462 C   0  0  0  0  0  0  0  0  0  0  0  0
   92.3052  100.3626  -44.8954 N   0  0  0  0  0  0  0  0  0  0  0  0
   93.0591   99.3731  -45.3343 N   0  0  0  0  0  0  0  0  0  0  0  0
   92.7282   99.0427  -46.5643 N   0  0  0  0  0  0  0  0  0  0  0  0
   91.7354   99.8285  -46.9484 N   0  0  0  0  0  0  0  0  0  0  0  0
   91.4804  100.6391  -45.9163 C   0  0  0  0  0  0  0  0  0  0  0  0
   91.4476   96.8237  -43.2271 C   0  0  0  0  0  0  0  0  0  0  0  0
   91.0906   96.1728  -44.5533 C   0  0  0  0  0  0  0  0  0  0  0  0
   91.3111   94.8768  -44.8646 N   0  0  0  0  0  0  0  0  0  0  0  0
   90.8817   94.6201  -46.1069 C   0  0  0  0  0  0  0  0  0  0  0  0
   90.3867   95.7793  -46.5681 N   0  0  0  0  0  0  0  0  0  0  0  0
   90.5128   96.7249  -45.6256 N   0  0  0  0  0  0  0  0  0  0  0  0
   91.0034   93.3355  -46.6530 C   0  0  0  0  0  0  0  0  0  0  0  0
   91.5642   92.3262  -45.9207 C   0  0  0  0  0  0  0  0  0  0  0  0
   92.0065   92.5914  -44.6398 C   0  0  0  0  0  0  0  0  0  0  0  0
   91.8715   93.8745  -44.1300 C   0  0  0  0  0  0  0  0  0  0  0  0
  5  6  1  0  0  0
  6  7  2  0  0  0
  6 11  1  0  0  0
  7  8  1  0  0  0
  8  9  2  0  0  0
  8  1  1  0  0  0
  9 10  1  0  0  0
  9 12  1  0  0  0
 10 11  2  0  0  0
 12 13  1  0  0  0
 12 16  1  0  0  0
 13 14  2  0  0  0
 14 15  1  0  0  0
 15 16  2  0  0  0
  1  2  2  0  0  0
  1  3  1  0  0  0
  3 17  1  0  0  0
 17 18  1  0  0  0
 18 19  1  0  0  0
 18 22  2  0  0  0
 19 20  1  0  0  0
 19 26  1  0  0  0
 20 21  2  0  0  0
 20 23  1  0  0  0
 21 22  1  0  0  0
 23 24  2  0  0  0
 24 25  1  0  0  0
 25 26  2  0  0  0
  3  4  1  0  0  0
M  END
> <minimizedAffinity>
-6.61713

$$$$
106


 29 32  0  0  0  0  0  0  0  0999 V2000
   91.6745   98.9713  -42.1881 C   0  0  0  0  0  0  0  0  0  0  0  0
   91.6952   97.7293  -42.5860 C   0  0  0  0  0  0  0  0  0  0  0  0
   91.2691   97.2969  -43.8321 O   0  0  0  0  0  0  0  0  0  0  0  0
   91.4047   95.9288  -43.9765 C   0  0  0  0  0  0  0  0  0  0  0  0
   91.9283   95.3714  -42.8323 C   0  0  0  0  0  0  0  0  0  0  0  0
   92.1458   94.0115  -42.7611 C   0  0  0  0  0  0  0  0  0  0  0  0
   91.8328   93.2178  -43.8441 C   0  0  0  0  0  0  0  0  0  0  0  0
   91.2974   93.8131  -45.0033 C   0  0  0  0  0  0  0  0  0  0  0  0
   91.0757   95.1527  -45.0970 C   0  0  0  0  0  0  0  0  0  0  0  0
   91.0272   92.8843  -46.0209 O   0  0  0  0  0  0  0  0  0  0  0  0
   92.1286   96.4993  -41.9162 C   0  0  0  0  0  0  0  0  0  0  0  0
   92.5900   96.4384  -40.7552 O   0  0  0  0  0  0  0  0  0  0  0  0
   92.8057  103.3147  -45.1743 Br  0  0  0  0  0  0  0  0  0  0  0  0
   91.6508  102.0809  -44.2954 C   0  0  0  0  0  0  0  0  0  0  0  0
   92.0654  100.9930  -43.5826 C   0  0  0  0  0  0  0  0  0  0  0  0
   91.2096  100.1147  -42.9549 C   0  0  0  0  0  0  0  0  0  0  0  0
   89.8406  100.3755  -43.0688 C   0  0  0  0  0  0  0  0  0  0  0  0
   89.3676  101.4497  -43.7709 C   0  0  0  0  0  0  0  0  0  0  0  0
   90.2793  102.3014  -44.3834 C   0  0  0  0  0  0  0  0  0  0  0  0
   88.9610   99.5127  -42.4444 O   0  0  0  0  0  0  0  0  0  0  0  0
   87.7381   99.1850  -43.0501 C   0  0  0  0  0  0  0  0  0  0  0  0
   90.5511   95.8161  -46.2589 C   0  0  0  0  0  0  0  0  0  0  0  0
   89.1759   95.8917  -46.5391 N   0  0  0  0  0  0  0  0  0  0  0  0
   88.5003   97.0633  -46.0515 C   0  0  0  0  0  0  0  0  0  0  0  0
   88.6465   98.2737  -46.9402 C   0  0  0  0  0  0  0  0  0  0  0  0
   89.5095   98.0764  -48.0094 O   0  0  0  0  0  0  0  0  0  0  0  0
   88.9900   97.0136  -48.7405 C   0  0  0  0  0  0  0  0  0  0  0  0
   88.8859   95.7349  -47.9760 C   0  0  0  0  0  0  0  0  0  0  0  0
   88.6980   95.0641  -46.1268 H   0  0  0  0  0  0  0  0  0  0  0  0
 13 14  1  0  0  0
 14 15  2  0  0  0
 14 19  1  0  0  0
 15 16  1  0  0  0
 16 17  2  0  0  0
 16  1  1  0  0  0
 17 18  1  0  0  0
 17 20  1  0  0  0
 18 19  2  0  0  0
 20 21  1  0  0  0
  1  2  2  0  0  0
  2  3  1  0  0  0
  2 11  1  0  0  0
  3  4  1  0  0  0
  4  5  2  0  0  0
  4  9  1  0  0  0
  5  6  1  0  0  0
  5 11  1  0  0  0
  6  7  2  0  0  0
  7  8  1  0  0  0
  8  9  2  0  0  0
  8 10  1  0  0  0
  9 22  1  0  0  0
 22 23  1  0  0  0
 23 24  1  0  0  0
 23 28  1  0  0  0
 24 25  1  0  0  0
 25 26  1  0  0  0
 26 27  1  0  0  0
 27 28  1  0  0  0
 11 12  2  0  0  0
 23 29  1  0  0  0
M  CHG 1  10  -1
M  CHG 1  23   1
M  END
> <minimizedAffinity>
-6.03448

$$$$
107


 31 34  0  0  0  0  0  0  0  0999 V2000
   91.5725   99.7876  -45.1553 C   0  0  0  0  0  0  0  0  0  0  0  0
   92.3017  100.3691  -44.1785 N   0  0  0  0  0  0  0  0  0  0  0  0
   91.7669  101.2674  -43.3435 C   0  0  0  0  0  0  0  0  0  0  0  0
   90.4724  101.5883  -43.4933 N   0  0  0  0  0  0  0  0  0  0  0  0
   89.6794  101.0422  -44.4536 C   0  0  0  0  0  0  0  0  0  0  0  0
   90.2906  100.1370  -45.2665 N   0  0  0  0  0  0  0  0  0  0  0  0
   92.5343  101.8801  -42.3165 N   0  0  0  0  0  0  0  0  0  0  0  0
   93.7008  102.6873  -42.5976 C   0  0  0  0  0  0  0  0  0  0  0  0
   94.8278  102.3860  -41.6212 C   0  0  0  0  0  0  0  0  0  0  0  0
   94.3382  102.3225  -40.3118 O   0  0  0  0  0  0  0  0  0  0  0  0
   93.4091  101.3207  -40.1637 C   0  0  0  0  0  0  0  0  0  0  0  0
   92.1633  101.7108  -40.9294 C   0  0  0  0  0  0  0  0  0  0  0  0
   88.3232  101.3828  -44.6056 N   0  0  0  0  0  0  0  0  0  0  0  0
   87.7408  102.4693  -43.8758 C   0  0  0  0  0  0  0  0  0  0  0  0
   86.5049  101.9190  -43.1672 C   0  0  0  0  0  0  0  0  0  0  0  0
   85.6934  101.3635  -44.1412 O   0  0  0  0  0  0  0  0  0  0  0  0
   86.2393  100.2428  -44.7213 C   0  0  0  0  0  0  0  0  0  0  0  0
   87.4928  100.6353  -45.5037 C   0  0  0  0  0  0  0  0  0  0  0  0
   92.1087   98.8292  -46.0594 N   0  0  0  0  0  0  0  0  0  0  0  0
   92.4310   99.1131  -47.0241 H   0  0  0  0  0  0  0  0  0  0  0  0
   91.3321   96.7901  -45.1539 C   0  0  0  0  0  0  0  0  0  0  0  0
   92.2407   97.4778  -45.7358 N   0  0  0  0  0  0  0  0  0  0  0  0
   91.5882   91.7265  -46.8158 Br  0  0  0  0  0  0  0  0  0  0  0  0
   91.6159   93.0752  -45.4693 C   0  0  0  0  0  0  0  0  0  0  0  0
   91.4686   94.4056  -45.7935 C   0  0  0  0  0  0  0  0  0  0  0  0
   91.4876   95.3780  -44.8232 C   0  0  0  0  0  0  0  0  0  0  0  0
   91.6584   94.9846  -43.5137 C   0  0  0  0  0  0  0  0  0  0  0  0
   91.8097   93.6386  -43.1712 C   0  0  0  0  0  0  0  0  0  0  0  0
   91.7891   92.6625  -44.1542 C   0  0  0  0  0  0  0  0  0  0  0  0
   91.6745   95.9886  -42.5526 O   0  0  0  0  0  0  0  0  0  0  0  0
   91.9454   95.7639  -41.1886 C   0  0  0  0  0  0  0  0  0  0  0  0
 23 24  1  0  0  0
 24 25  2  0  0  0
 24 29  1  0  0  0
 25 26  1  0  0  0
 26 27  2  0  0  0
 26 21  1  0  0  0
 27 28  1  0  0  0
 27 30  1  0  0  0
 28 29  2  0  0  0
 30 31  1  0  0  0
 21 22  2  0  0  0
 22 19  1  0  0  0
 19  1  1  0  0  0
  1  2  2  0  0  0
  1  6  1  0  0  0
  2  3  1  0  0  0
  3  4  2  0  0  0
  3  7  1  0  0  0
  4  5  1  0  0  0
  5  6  2  0  0  0
  5 13  1  0  0  0
 13 14  1  0  0  0
 13 18  1  0  0  0
 14 15  1  0  0  0
 15 16  1  0  0  0
 16 17  1  0  0  0
 17 18  1  0  0  0
  7  8  1  0  0  0
  7 12  1  0  0  0
  8  9  1  0  0  0
  9 10  1  0  0  0
 10 11  1  0  0  0
 11 12  1  0  0  0
 19 20  1  0  0  0
M  END
> <minimizedAffinity>
-6.42032

$$$$
111


 29 32  0  0  0  0  0  0  0  0999 V2000
   90.2478   96.9053  -45.5291 C   0  0  0  0  0  0  0  0  0  0  0  0
   90.8278   95.9680  -44.8112 N   0  0  0  0  0  0  0  0  0  0  0  0
   90.8783   94.7901  -45.5102 C   0  0  0  0  0  0  0  0  0  0  0  0
   90.2926   95.0311  -46.7052 N   0  0  0  0  0  0  0  0  0  0  0  0
   89.9173   96.2646  -46.7311 N   0  0  0  0  0  0  0  0  0  0  0  0
   91.4685   93.8508  -44.7677 N   0  0  0  0  0  0  0  0  0  0  0  0
   91.7908   94.4216  -43.5958 C   0  0  0  0  0  0  0  0  0  0  0  0
   91.3943   95.7542  -43.5962 C   0  0  0  0  0  0  0  0  0  0  0  0
   91.5672   96.5503  -42.5586 N   0  0  0  0  0  0  0  0  0  0  0  0
   92.1732   96.0053  -41.4574 C   0  0  0  0  0  0  0  0  0  0  0  0
   92.3895   96.6738  -40.4151 O   0  0  0  0  0  0  0  0  0  0  0  0
   92.5753   94.7174  -41.4225 N   0  0  0  0  0  0  0  0  0  0  0  0
   92.3983   93.9127  -42.4637 C   0  0  0  0  0  0  0  0  0  0  0  0
   92.7496   92.7060  -42.4928 O   0  0  0  0  0  0  0  0  0  0  0  0
   91.1453   97.9071  -42.3832 C   0  0  0  0  0  0  0  0  0  0  0  0
   93.0360   94.3183  -40.5779 H   0  0  0  0  0  0  0  0  0  0  0  0
   86.6590  100.7436  -44.5044 Br  0  0  0  0  0  0  0  0  0  0  0  0
   88.4087  100.1773  -45.0099 C   0  0  0  0  0  0  0  0  0  0  0  0
   88.6946   98.8447  -45.0789 C   0  0  0  0  0  0  0  0  0  0  0  0
   89.8904   98.2913  -45.4231 C   0  0  0  0  0  0  0  0  0  0  0  0
   90.8779   99.2578  -45.7229 C   0  0  0  0  0  0  0  0  0  0  0  0
   90.6349  100.6094  -45.6673 C   0  0  0  0  0  0  0  0  0  0  0  0
   89.3834  101.0836  -45.3063 C   0  0  0  0  0  0  0  0  0  0  0  0
   92.1411   98.8264  -46.0888 O   0  0  0  0  0  0  0  0  0  0  0  0
   93.2429   98.7991  -45.2359 C   0  0  0  0  0  0  0  0  0  0  0  0
   91.7233   92.4866  -45.1265 C   0  0  0  0  0  0  0  0  0  0  0  0
   91.3981   92.2814  -46.5914 C   0  0  0  0  0  0  0  0  0  0  0  0
   91.4715   90.9301  -46.8659 O   0  0  0  0  0  0  0  0  0  0  0  0
   92.6150   90.6160  -47.6204 C   0  0  0  0  0  0  0  0  0  0  0  0
 17 18  1  0  0  0
 18 19  2  0  0  0
 18 23  1  0  0  0
 19 20  1  0  0  0
 20 21  2  0  0  0
 20  1  1  0  0  0
 21 22  1  0  0  0
 21 24  1  0  0  0
 22 23  2  0  0  0
 24 25  1  0  0  0
  1  2  1  0  0  0
  1  5  2  0  0  0
  2  3  1  0  0  0
  2  8  1  0  0  0
  3  4  2  0  0  0
  3  6  1  0  0  0
  4  5  1  0  0  0
  6  7  1  0  0  0
  6 26  1  0  0  0
  7  8  2  0  0  0
  7 13  1  0  0  0
  8  9  1  0  0  0
  9 10  1  0  0  0
  9 15  1  0  0  0
 10 11  2  0  0  0
 10 12  1  0  0  0
 12 13  1  0  0  0
 13 14  2  0  0  0
 26 27  1  0  0  0
 27 28  1  0  0  0
 28 29  1  0  0  0
 12 16  1  0  0  0
M  END
> <minimizedAffinity>
-7.10346

$$$$
127


 29 32  0  0  0  0  0  0  0  0999 V2000
   90.5573  101.2333  -43.2792 N   0  0  0  0  0  0  0  0  0  0  0  0
   89.7197  100.3935  -42.5064 C   0  0  0  0  0  0  0  0  0  0  0  0
   89.7285   98.9570  -42.8647 C   0  0  0  0  0  0  0  0  0  0  0  0
   91.0601   98.4440  -42.9113 N   0  0  0  0  0  0  0  0  0  0  0  0
   92.1433   99.3669  -43.0938 C   0  0  0  0  0  0  0  0  0  0  0  0
   91.7469  100.6477  -43.7909 C   0  0  0  0  0  0  0  0  0  0  0  0
   91.3433   97.0561  -42.8107 C   0  0  0  0  0  0  0  0  0  0  0  0
   91.3017   96.3277  -43.9246 C   0  0  0  0  0  0  0  0  0  0  0  0
   91.0272   96.5931  -45.2886 N   0  0  0  0  0  0  0  0  0  0  0  0
   91.1616   95.3471  -45.9424 N   0  0  0  0  0  0  0  0  0  0  0  0
   91.5074   94.3621  -44.9877 C   0  0  0  0  0  0  0  0  0  0  0  0
   91.6044   94.8872  -43.7759 C   0  0  0  0  0  0  0  0  0  0  0  0
   91.9169   94.3553  -42.4931 N   0  0  0  0  0  0  0  0  0  0  0  0
   91.9443   95.1038  -41.4465 C   0  0  0  0  0  0  0  0  0  0  0  0
   91.6650   96.4816  -41.5271 N   0  0  0  0  0  0  0  0  0  0  0  0
   91.7447   92.9170  -45.2468 C   0  0  0  0  0  0  0  0  0  0  0  0
   90.6843   97.8645  -45.8783 C   0  0  0  0  0  0  0  0  0  0  0  0
   91.0131   95.2471  -46.9682 H   0  0  0  0  0  0  0  0  0  0  0  0
   91.6741   97.1227  -40.7153 H   0  0  0  0  0  0  0  0  0  0  0  0
   90.6413  102.5841  -42.8826 C   0  0  0  0  0  0  0  0  0  0  0  0
   91.0568  102.7768  -41.4921 C   0  0  0  0  0  0  0  0  0  0  0  0
   90.1928  103.0913  -40.6337 O   0  0  0  0  0  0  0  0  0  0  0  0
   96.1379  104.1727  -42.3600 Br  0  0  0  0  0  0  0  0  0  0  0  0
   94.7848  103.1725  -41.4719 C   0  0  0  0  0  0  0  0  0  0  0  0
   93.4382  103.3175  -41.7803 C   0  0  0  0  0  0  0  0  0  0  0  0
   92.4620  102.5989  -41.1413 C   0  0  0  0  0  0  0  0  0  0  0  0
   92.8259  101.7038  -40.1622 C   0  0  0  0  0  0  0  0  0  0  0  0
   94.1544  101.5560  -39.8529 C   0  0  0  0  0  0  0  0  0  0  0  0
   95.1545  102.2771  -40.4922 C   0  0  0  0  0  0  0  0  0  0  0  0
 23 24  1  0  0  0
 24 25  2  0  0  0
 24 29  1  0  0  0
 25 26  1  0  0  0
 26 27  2  0  0  0
 26 21  1  0  0  0
 27 28  1  0  0  0
 28 29  2  0  0  0
 21 22  2  0  0  0
 21 20  1  0  0  0
 20  1  1  0  0  0
  1  2  1  0  0  0
  1  6  1  0  0  0
  2  3  1  0  0  0
  3  4  1  0  0  0
  4  5  1  0  0  0
  4  7  1  0  0  0
  5  6  1  0  0  0
  7  8  2  0  0  0
  7 15  1  0  0  0
  8  9  1  0  0  0
  8 12  1  0  0  0
  9 10  1  0  0  0
  9 17  1  0  0  0
 10 11  1  0  0  0
 11 12  2  0  0  0
 11 16  1  0  0  0
 12 13  1  0  0  0
 13 14  2  0  0  0
 14 15  1  0  0  0
 10 18  1  0  0  0
 15 19  1  0  0  0
M  END
> <minimizedAffinity>
-6.53451

$$$$
129


 31 34  0  0  0  0  0  0  0  0999 V2000
   89.5899   99.7954  -43.9775 C   0  0  0  0  0  0  0  0  0  0  0  0
   88.3398  100.0179  -43.9265 O   0  0  0  0  0  0  0  0  0  0  0  0
   90.4609  100.3310  -42.9855 N   0  0  0  0  0  0  0  0  0  0  0  0
   91.8958  100.2492  -43.0864 C   0  0  0  0  0  0  0  0  0  0  0  0
   92.3146  101.7307  -43.2428 C   0  0  0  0  0  0  0  0  0  0  0  0
   92.1309  102.3244  -41.8720 C   0  0  0  0  0  0  0  0  0  0  0  0
   92.1521  103.7760  -42.0443 N   0  0  0  0  0  0  0  0  0  0  0  0
   93.3321  104.2497  -42.6655 C   0  0  0  0  0  0  0  0  0  0  0  0
   94.5823  103.9977  -41.8426 C   0  0  0  0  0  0  0  0  0  0  0  0
   94.4918  102.7389  -41.0792 C   0  0  0  0  0  0  0  0  0  0  0  0
   95.4129  102.1507  -40.2978 N   0  0  0  0  0  0  0  0  0  0  0  0
   94.8611  101.0187  -39.8082 C   0  0  0  0  0  0  0  0  0  0  0  0
   93.5988  100.9197  -40.2970 N   0  0  0  0  0  0  0  0  0  0  0  0
   93.3410  101.9748  -41.0939 C   0  0  0  0  0  0  0  0  0  0  0  0
   90.8641  101.9589  -41.1822 C   0  0  0  0  0  0  0  0  0  0  0  0
   89.9404  100.9938  -41.8438 C   0  0  0  0  0  0  0  0  0  0  0  0
   91.9283  104.2833  -41.1504 H   0  0  0  0  0  0  0  0  0  0  0  0
   93.0151  100.1044  -40.0219 H   0  0  0  0  0  0  0  0  0  0  0  0
   90.0658   98.9929  -45.0949 C   0  0  0  0  0  0  0  0  0  0  0  0
   89.0984   99.1126  -46.2617 C   0  0  0  0  0  0  0  0  0  0  0  0
   91.5832   97.0157  -45.1633 C   0  0  0  0  0  0  0  0  0  0  0  0
   92.5197   97.4144  -45.8336 O   0  0  0  0  0  0  0  0  0  0  0  0
   90.4240   97.6657  -44.7504 N   0  0  0  0  0  0  0  0  0  0  0  0
   89.7599   97.1702  -44.0824 H   0  0  0  0  0  0  0  0  0  0  0  0
   91.5070   91.9090  -46.6492 Br  0  0  0  0  0  0  0  0  0  0  0  0
   91.6067   93.2797  -45.2990 C   0  0  0  0  0  0  0  0  0  0  0  0
   91.5796   94.6025  -45.6720 C   0  0  0  0  0  0  0  0  0  0  0  0
   91.6616   95.5789  -44.7029 C   0  0  0  0  0  0  0  0  0  0  0  0
   91.7644   95.2457  -43.3903 C   0  0  0  0  0  0  0  0  0  0  0  0
   91.7866   93.9238  -43.0394 C   0  0  0  0  0  0  0  0  0  0  0  0
   91.7103   92.8933  -43.9788 C   0  0  0  0  0  0  0  0  0  0  0  0
 25 26  1  0  0  0
 26 27  2  0  0  0
 26 31  1  0  0  0
 27 28  1  0  0  0
 28 29  2  0  0  0
 28 21  1  0  0  0
 29 30  1  0  0  0
 30 31  2  0  0  0
 21 22  2  0  0  0
 21 23  1  0  0  0
 23 19  1  0  0  0
 19 20  1  0  0  0
 19  1  1  0  0  0
  1  2  2  0  0  0
  1  3  1  0  0  0
  3  4  1  0  0  0
  3 16  1  0  0  0
  4  5  1  0  0  0
  5  6  1  0  0  0
  6  7  1  0  0  0
  6 14  1  0  0  0
  6 15  1  0  0  0
  7  8  1  0  0  0
  8  9  1  0  0  0
  9 10  1  0  0  0
 10 11  1  0  0  0
 10 14  2  0  0  0
 11 12  2  0  0  0
 12 13  1  0  0  0
 13 14  1  0  0  0
 15 16  1  0  0  0
 23 24  1  0  0  0
  7 17  1  0  0  0
 13 18  1  0  0  0
M  END
> <minimizedAffinity>
-7.04765

$$$$
130


 30 33  0  0  0  0  0  0  0  0999 V2000
   90.4415   99.0334  -43.7430 C   0  0  0  0  0  0  0  0  0  0  0  0
   90.7436   98.4098  -42.6651 O   0  0  0  0  0  0  0  0  0  0  0  0
   89.3920   99.9613  -43.7804 N   0  0  0  0  0  0  0  0  0  0  0  0
   89.0244  100.6712  -44.9635 C   0  0  0  0  0  0  0  0  0  0  0  0
   87.5423  100.8925  -45.0711 C   0  0  0  0  0  0  0  0  0  0  0  0
   86.6964   99.9367  -44.2587 C   0  0  0  0  0  0  0  0  0  0  0  0
   85.3683  100.5338  -44.2945 N   0  0  0  0  0  0  0  0  0  0  0  0
   84.3152   99.7413  -43.7856 C   0  0  0  0  0  0  0  0  0  0  0  0
   84.5476   98.2816  -43.6458 C   0  0  0  0  0  0  0  0  0  0  0  0
   85.5609   97.7855  -44.6284 C   0  0  0  0  0  0  0  0  0  0  0  0
   85.6534   96.6447  -45.3106 N   0  0  0  0  0  0  0  0  0  0  0  0
   86.7785   96.7479  -46.0485 C   0  0  0  0  0  0  0  0  0  0  0  0
   87.3773   97.9383  -45.8257 N   0  0  0  0  0  0  0  0  0  0  0  0
   86.6137   98.6151  -44.9198 C   0  0  0  0  0  0  0  0  0  0  0  0
   87.1596   99.7708  -42.8341 C   0  0  0  0  0  0  0  0  0  0  0  0
   88.5817  100.2480  -42.6021 C   0  0  0  0  0  0  0  0  0  0  0  0
   85.4814  101.4348  -43.7466 H   0  0  0  0  0  0  0  0  0  0  0  0
   88.2539   98.2648  -46.2659 H   0  0  0  0  0  0  0  0  0  0  0  0
   91.3000   98.6807  -44.9307 C   0  0  0  0  0  0  0  0  0  0  0  0
   90.5579   96.3181  -46.0286 C   0  0  0  0  0  0  0  0  0  0  0  0
   89.8127   96.1105  -47.0501 O   0  0  0  0  0  0  0  0  0  0  0  0
   90.9202   97.4718  -45.4923 N   0  0  0  0  0  0  0  0  0  0  0  0
   90.1863   98.1595  -46.4423 H   0  0  0  0  0  0  0  0  0  0  0  0
   92.5398   93.8597  -41.7243 Br  0  0  0  0  0  0  0  0  0  0  0  0
   91.9736   93.8543  -43.5243 C   0  0  0  0  0  0  0  0  0  0  0  0
   91.4828   95.0213  -44.0897 C   0  0  0  0  0  0  0  0  0  0  0  0
   91.0594   95.0491  -45.3919 C   0  0  0  0  0  0  0  0  0  0  0  0
   91.0964   93.9477  -46.1932 C   0  0  0  0  0  0  0  0  0  0  0  0
   91.5908   92.7667  -45.6310 C   0  0  0  0  0  0  0  0  0  0  0  0
   92.0198   92.7345  -44.3173 C   0  0  0  0  0  0  0  0  0  0  0  0
 24 25  1  0  0  0
 25 26  2  0  0  0
 25 30  1  0  0  0
 26 27  1  0  0  0
 27 28  2  0  0  0
 27 20  1  0  0  0
 28 29  1  0  0  0
 29 30  2  0  0  0
 20 21  2  0  0  0
 20 22  1  0  0  0
 22 19  1  0  0  0
 19  1  1  0  0  0
  1  2  2  0  0  0
  1  3  1  0  0  0
  3  4  1  0  0  0
  3 16  1  0  0  0
  4  5  1  0  0  0
  5  6  1  0  0  0
  6  7  1  0  0  0
  6 14  1  0  0  0
  6 15  1  0  0  0
  7  8  1  0  0  0
  8  9  1  0  0  0
  9 10  1  0  0  0
 10 11  1  0  0  0
 10 14  2  0  0  0
 11 12  2  0  0  0
 12 13  1  0  0  0
 13 14  1  0  0  0
 15 16  1  0  0  0
 22 23  1  0  0  0
  7 17  1  0  0  0
 13 18  1  0  0  0
M  END
> <minimizedAffinity>
-6.53030

$$$$
131


 30 33  0  0  0  0  0  0  0  0999 V2000
   89.2478   99.6049  -43.7645 C   0  0  0  0  0  0  0  0  0  0  0  0
   88.4328   99.2318  -42.8853 O   0  0  0  0  0  0  0  0  0  0  0  0
   90.1315  100.6575  -43.4800 N   0  0  0  0  0  0  0  0  0  0  0  0
   91.0945  101.1410  -44.4381 C   0  0  0  0  0  0  0  0  0  0  0  0
   92.4654  100.8547  -43.8649 C   0  0  0  0  0  0  0  0  0  0  0  0
   92.5444  101.3764  -42.4499 C   0  0  0  0  0  0  0  0  0  0  0  0
   92.7601  100.2484  -41.5688 N   0  0  0  0  0  0  0  0  0  0  0  0
   92.9829  100.5863  -40.2065 C   0  0  0  0  0  0  0  0  0  0  0  0
   93.8192  101.7823  -39.9335 C   0  0  0  0  0  0  0  0  0  0  0  0
   94.4009  102.4163  -41.1352 C   0  0  0  0  0  0  0  0  0  0  0  0
   95.4969  103.2146  -41.3195 N   0  0  0  0  0  0  0  0  0  0  0  0
   95.5456  103.5026  -42.6257 C   0  0  0  0  0  0  0  0  0  0  0  0
   94.5160  102.9062  -43.2484 N   0  0  0  0  0  0  0  0  0  0  0  0
   93.7756  102.2159  -42.3451 C   0  0  0  0  0  0  0  0  0  0  0  0
   91.3523  102.1661  -42.0150 C   0  0  0  0  0  0  0  0  0  0  0  0
   90.1006  101.3008  -42.1918 C   0  0  0  0  0  0  0  0  0  0  0  0
   91.9104   99.6266  -41.6163 H   0  0  0  0  0  0  0  0  0  0  0  0
   96.1516  103.5201  -40.5414 H   0  0  0  0  0  0  0  0  0  0  0  0
   89.2118   98.8861  -45.0656 C   0  0  0  0  0  0  0  0  0  0  0  0
   90.7674   96.9467  -45.3432 C   0  0  0  0  0  0  0  0  0  0  0  0
   91.5888   97.7366  -45.8756 O   0  0  0  0  0  0  0  0  0  0  0  0
   89.5340   97.4838  -44.9099 N   0  0  0  0  0  0  0  0  0  0  0  0
   88.8392   96.8508  -44.4672 H   0  0  0  0  0  0  0  0  0  0  0  0
   92.8043   93.0402  -42.3488 Br  0  0  0  0  0  0  0  0  0  0  0  0
   92.0148   93.6743  -43.9492 C   0  0  0  0  0  0  0  0  0  0  0  0
   91.6945   95.0155  -44.0586 C   0  0  0  0  0  0  0  0  0  0  0  0
   91.1159   95.5406  -45.1989 C   0  0  0  0  0  0  0  0  0  0  0  0
   90.8601   94.6752  -46.2530 C   0  0  0  0  0  0  0  0  0  0  0  0
   91.1810   93.3434  -46.1375 C   0  0  0  0  0  0  0  0  0  0  0  0
   91.7572   92.8035  -45.0091 C   0  0  0  0  0  0  0  0  0  0  0  0
 24 25  1  0  0  0
 25 26  2  0  0  0
 25 30  1  0  0  0
 26 27  1  0  0  0
 27 28  2  0  0  0
 27 20  1  0  0  0
 28 29  1  0  0  0
 29 30  2  0  0  0
 20 21  2  0  0  0
 20 22  1  0  0  0
 22 19  1  0  0  0
 19  1  1  0  0  0
  1  2  2  0  0  0
  1  3  1  0  0  0
  3  4  1  0  0  0
  3 16  1  0  0  0
  4  5  1  0  0  0
  5  6  1  0  0  0
  6  7  1  0  0  0
  6 14  1  0  0  0
  6 15  1  0  0  0
  7  8  1  0  0  0
  8  9  1  0  0  0
  9 10  1  0  0  0
 10 11  1  0  0  0
 10 14  2  0  0  0
 11 12  1  0  0  0
 12 13  2  0  0  0
 13 14  1  0  0  0
 15 16  1  0  0  0
 22 23  1  0  0  0
  7 17  1  0  0  0
 11 18  1  0  0  0
M  END
> <minimizedAffinity>
-7.11770

$$$$
136


 30 33  0  0  0  0  0  0  0  0999 V2000
   91.1909   94.5892  -44.6617 C   0  0  0  0  0  0  0  0  0  0  0  0
   91.8329   95.8289  -45.2540 C   0  0  0  0  0  0  0  0  0  0  0  0
   91.7684   96.7799  -44.1614 N   0  0  0  0  0  0  0  0  0  0  0  0
   91.3357   96.1363  -42.9377 C   0  0  0  0  0  0  0  0  0  0  0  0
   91.6481   94.6631  -43.2324 C   0  0  0  0  0  0  0  0  0  0  0  0
   92.1408   96.6503  -41.8308 C   0  0  0  0  0  0  0  0  0  0  0  0
   92.7445   95.8898  -41.0600 O   0  0  0  0  0  0  0  0  0  0  0  0
   92.2125   98.0568  -41.6605 N   0  0  0  0  0  0  0  0  0  0  0  0
   92.0344   98.9221  -42.8046 C   0  0  0  0  0  0  0  0  0  0  0  0
   92.0461   98.1858  -44.0887 C   0  0  0  0  0  0  0  0  0  0  0  0
   92.3067   98.7993  -45.1569 O   0  0  0  0  0  0  0  0  0  0  0  0
   92.3923   98.5023  -40.7325 H   0  0  0  0  0  0  0  0  0  0  0  0
   91.0958   93.1067  -46.6048 C   0  0  0  0  0  0  0  0  0  0  0  0
   90.2344   93.9147  -47.1135 O   0  0  0  0  0  0  0  0  0  0  0  0
   91.6408   93.3841  -45.3349 N   0  0  0  0  0  0  0  0  0  0  0  0
   92.3267   92.7386  -44.9199 H   0  0  0  0  0  0  0  0  0  0  0  0
   90.0721   89.9374  -50.7479 Br  0  0  0  0  0  0  0  0  0  0  0  0
   91.0927   90.4483  -49.2120 C   0  0  0  0  0  0  0  0  0  0  0  0
   90.7383   91.5518  -48.4865 C   0  0  0  0  0  0  0  0  0  0  0  0
   91.4734   91.9302  -47.3695 C   0  0  0  0  0  0  0  0  0  0  0  0
   92.5498   91.1740  -47.0254 C   0  0  0  0  0  0  0  0  0  0  0  0
   92.9010   90.0574  -47.7677 C   0  0  0  0  0  0  0  0  0  0  0  0
   92.1722   89.6851  -48.8703 C   0  0  0  0  0  0  0  0  0  0  0  0
   90.8200   99.8164  -42.6728 C   0  0  0  0  0  0  0  0  0  0  0  0
   91.1364  101.1507  -42.1372 C   0  0  0  0  0  0  0  0  0  0  0  0
   92.2463  101.8328  -42.6017 C   0  0  0  0  0  0  0  0  0  0  0  0
   92.5488  103.0802  -42.1062 C   0  0  0  0  0  0  0  0  0  0  0  0
   91.7817  103.7055  -41.1415 C   0  0  0  0  0  0  0  0  0  0  0  0
   90.6748  103.0282  -40.6763 C   0  0  0  0  0  0  0  0  0  0  0  0
   90.3556  101.7751  -41.1624 C   0  0  0  0  0  0  0  0  0  0  0  0
 17 18  1  0  0  0
 18 19  2  0  0  0
 18 23  1  0  0  0
 19 20  1  0  0  0
 20 21  2  0  0  0
 20 13  1  0  0  0
 21 22  1  0  0  0
 22 23  2  0  0  0
 13 14  2  0  0  0
 13 15  1  0  0  0
 15  1  1  0  0  0
  1  2  1  0  0  0
  1  5  1  0  0  0
  2  3  1  0  0  0
  3  4  1  0  0  0
  3 10  1  0  0  0
  4  5  1  0  0  0
  4  6  1  0  0  0
  6  7  2  0  0  0
  6  8  1  0  0  0
  8  9  1  0  0  0
  9 10  1  0  0  0
  9 24  1  0  0  0
 10 11  2  0  0  0
 24 25  1  0  0  0
 25 26  2  0  0  0
 25 30  1  0  0  0
 26 27  1  0  0  0
 27 28  2  0  0  0
 28 29  1  0  0  0
 29 30  2  0  0  0
 15 16  1  0  0  0
  8 12  1  0  0  0
M  END
> <minimizedAffinity>
-7.31867

$$$$
137


 25 28  0  0  0  0  0  0  0  0999 V2000
   89.8740   98.7789  -43.5951 C   0  0  0  0  0  0  0  0  0  0  0  0
   88.6436   99.1742  -42.6979 C   0  0  0  0  0  0  0  0  0  0  0  0
   87.6837   99.6457  -43.6370 N   0  0  0  0  0  0  0  0  0  0  0  0
   88.0098   99.1235  -44.9561 C   0  0  0  0  0  0  0  0  0  0  0  0
   89.0283   98.0877  -44.7084 C   0  0  0  0  0  0  0  0  0  0  0  0
   86.7835   98.7141  -45.6590 C   0  0  0  0  0  0  0  0  0  0  0  0
   86.7876   97.6735  -46.3398 O   0  0  0  0  0  0  0  0  0  0  0  0
   85.6107   99.4962  -45.5629 N   0  0  0  0  0  0  0  0  0  0  0  0
   85.3388  100.2311  -44.3475 C   0  0  0  0  0  0  0  0  0  0  0  0
   84.6077  101.4844  -44.7846 C   0  0  0  0  0  0  0  0  0  0  0  0
   84.4059  101.3205  -46.2503 C   0  0  0  0  0  0  0  0  0  0  0  0
   84.4900   99.7994  -46.4471 C   0  0  0  0  0  0  0  0  0  0  0  0
   86.5324  100.4770  -43.5452 C   0  0  0  0  0  0  0  0  0  0  0  0
   86.5622  101.4648  -42.7307 O   0  0  0  0  0  0  0  0  0  0  0  0
   91.7028   97.2770  -42.2933 C   0  0  0  0  0  0  0  0  0  0  0  0
   92.5487   97.6124  -41.4080 O   0  0  0  0  0  0  0  0  0  0  0  0
   90.7717   98.0377  -42.9561 N   0  0  0  0  0  0  0  0  0  0  0  0
   91.2018   99.1407  -42.2520 H   0  0  0  0  0  0  0  0  0  0  0  0
   91.3821   93.3387  -45.9520 Br  0  0  0  0  0  0  0  0  0  0  0  0
   91.6656   93.9923  -44.1900 C   0  0  0  0  0  0  0  0  0  0  0  0
   91.5784   95.3260  -43.8747 C   0  0  0  0  0  0  0  0  0  0  0  0
   91.8041   95.7999  -42.6054 C   0  0  0  0  0  0  0  0  0  0  0  0
   92.1286   94.9136  -41.6107 C   0  0  0  0  0  0  0  0  0  0  0  0
   92.2278   93.5554  -41.8860 C   0  0  0  0  0  0  0  0  0  0  0  0
   91.9962   93.1168  -43.1595 C   0  0  0  0  0  0  0  0  0  0  0  0
 19 20  1  0  0  0
 20 21  2  0  0  0
 20 25  1  0  0  0
 21 22  1  0  0  0
 22 23  2  0  0  0
 22 15  1  0  0  0
 23 24  1  0  0  0
 24 25  2  0  0  0
 15 16  2  0  0  0
 15 17  1  0  0  0
 17  1  1  0  0  0
  1  2  1  0  0  0
  1  5  1  0  0  0
  2  3  1  0  0  0
  3  4  1  0  0  0
  3 13  1  0  0  0
  4  5  1  0  0  0
  4  6  1  0  0  0
  6  7  2  0  0  0
  6  8  1  0  0  0
  8  9  1  0  0  0
  8 12  1  0  0  0
  9 10  1  0  0  0
  9 13  1  0  0  0
 10 11  1  0  0  0
 11 12  1  0  0  0
 13 14  2  0  0  0
 17 18  1  0  0  0
M  END
> <minimizedAffinity>
-6.41185

$$$$
138


 25 28  0  0  0  0  0  0  0  0999 V2000
   91.8209   91.5648  -47.4270 C   0  0  0  0  0  0  0  0  0  0  0  0
   90.3915   91.2609  -47.7297 C   0  0  0  0  0  0  0  0  0  0  0  0
   90.4897   90.2896  -48.8331 N   0  0  0  0  0  0  0  0  0  0  0  0
   91.8624   89.8156  -48.9320 C   0  0  0  0  0  0  0  0  0  0  0  0
   92.4522   90.1755  -47.6029 C   0  0  0  0  0  0  0  0  0  0  0  0
   91.8247   88.3820  -49.2072 C   0  0  0  0  0  0  0  0  0  0  0  0
   92.6707   87.6169  -48.7292 O   0  0  0  0  0  0  0  0  0  0  0  0
   90.7900   87.8487  -50.0455 N   0  0  0  0  0  0  0  0  0  0  0  0
   90.0015   88.8136  -50.7725 C   0  0  0  0  0  0  0  0  0  0  0  0
   88.9182   88.1414  -51.5107 C   0  0  0  0  0  0  0  0  0  0  0  0
   89.3809   86.6978  -51.5234 C   0  0  0  0  0  0  0  0  0  0  0  0
   90.3093   86.5404  -50.3673 C   0  0  0  0  0  0  0  0  0  0  0  0
   89.5106   89.7902  -49.7395 C   0  0  0  0  0  0  0  0  0  0  0  0
   88.3109   90.1418  -49.6820 O   0  0  0  0  0  0  0  0  0  0  0  0
   91.4436   93.3275  -45.7636 C   0  0  0  0  0  0  0  0  0  0  0  0
   90.6565   93.9162  -46.5847 O   0  0  0  0  0  0  0  0  0  0  0  0
   92.0656   92.1195  -46.1476 N   0  0  0  0  0  0  0  0  0  0  0  0
   92.7012   91.6457  -45.4807 H   0  0  0  0  0  0  0  0  0  0  0  0
   91.4239   97.8611  -42.9188 Br  0  0  0  0  0  0  0  0  0  0  0  0
   91.6323   95.9815  -43.1117 C   0  0  0  0  0  0  0  0  0  0  0  0
   91.4716   95.3436  -44.3149 C   0  0  0  0  0  0  0  0  0  0  0  0
   91.6163   93.9893  -44.4822 C   0  0  0  0  0  0  0  0  0  0  0  0
   91.9398   93.2566  -43.3655 C   0  0  0  0  0  0  0  0  0  0  0  0
   92.1129   93.8694  -42.1154 C   0  0  0  0  0  0  0  0  0  0  0  0
   91.9571   95.2412  -41.9959 C   0  0  0  0  0  0  0  0  0  0  0  0
 19 20  1  0  0  0
 20 21  2  0  0  0
 20 25  1  0  0  0
 21 22  1  0  0  0
 22 23  2  0  0  0
 22 15  1  0  0  0
 23 24  1  0  0  0
 24 25  2  0  0  0
 15 16  2  0  0  0
 15 17  1  0  0  0
 17  1  1  0  0  0
  1  2  1  0  0  0
  1  5  1  0  0  0
  2  3  1  0  0  0
  3  4  1  0  0  0
  3 13  1  0  0  0
  4  5  1  0  0  0
  4  6  1  0  0  0
  6  7  2  0  0  0
  6  8  1  0  0  0
  8  9  1  0  0  0
  8 12  1  0  0  0
  9 10  1  0  0  0
  9 13  1  0  0  0
 10 11  1  0  0  0
 11 12  1  0  0  0
 13 14  2  0  0  0
 17 18  1  0  0  0
M  END
> <minimizedAffinity>
-7.26404

$$$$
141


 23 26  0  0  0  0  0  0  0  0999 V2000
   92.4094  100.1305  -42.5495 N   0  0  0  0  0  0  0  0  0  0  0  0
   92.4991  100.8483  -43.7954 C   0  0  0  0  0  0  0  0  0  0  0  0
   92.6434  100.3700  -44.9647 O   0  0  0  0  0  0  0  0  0  0  0  0
   92.3960  102.2672  -43.5132 C   0  0  0  0  0  0  0  0  0  0  0  0
   91.7659  102.3835  -42.1112 C   0  0  0  0  0  0  0  0  0  0  0  0
   92.4833  103.5055  -41.4339 C   0  0  0  0  0  0  0  0  0  0  0  0
   93.1149  104.2470  -42.6290 C   0  0  0  0  0  0  0  0  0  0  0  0
   93.7211  102.9547  -43.2171 C   0  0  0  0  0  0  0  0  0  0  0  0
   94.3354  102.4004  -41.9767 C   0  0  0  0  0  0  0  0  0  0  0  0
   93.7656  102.9304  -40.8862 C   0  0  0  0  0  0  0  0  0  0  0  0
   92.2604  101.0755  -41.5263 C   0  0  0  0  0  0  0  0  0  0  0  0
   92.4928  100.8983  -40.3094 O   0  0  0  0  0  0  0  0  0  0  0  0
   91.4050   97.8455  -42.7360 C   0  0  0  0  0  0  0  0  0  0  0  0
   90.2655   98.2741  -42.9885 O   0  0  0  0  0  0  0  0  0  0  0  0
   92.4799   98.7239  -42.5158 N   0  0  0  0  0  0  0  0  0  0  0  0
   93.4161   98.2521  -42.3054 H   0  0  0  0  0  0  0  0  0  0  0  0
   91.5650   93.3624  -45.4936 Br  0  0  0  0  0  0  0  0  0  0  0  0
   91.6770   94.3081  -43.8452 C   0  0  0  0  0  0  0  0  0  0  0  0
   91.5118   95.6710  -43.8551 C   0  0  0  0  0  0  0  0  0  0  0  0
   91.5806   96.4080  -42.6754 C   0  0  0  0  0  0  0  0  0  0  0  0
   91.8167   95.7405  -41.5138 C   0  0  0  0  0  0  0  0  0  0  0  0
   91.9817   94.3731  -41.5101 C   0  0  0  0  0  0  0  0  0  0  0  0
   91.9185   93.6243  -42.6597 C   0  0  0  0  0  0  0  0  0  0  0  0
 17 18  1  0  0  0
 18 19  2  0  0  0
 18 23  1  0  0  0
 19 20  1  0  0  0
 20 21  2  0  0  0
 20 13  1  0  0  0
 21 22  1  0  0  0
 22 23  2  0  0  0
 13 14  2  0  0  0
 13 15  1  0  0  0
 15  1  1  0  0  0
  1  2  1  0  0  0
  1 11  1  0  0  0
  2  3  2  0  0  0
  2  4  1  0  0  0
  4  5  1  0  0  0
  4  8  1  0  0  0
  5  6  1  0  0  0
  5 11  1  0  0  0
  6  7  1  0  0  0
  6 10  1  0  0  0
  7  8  1  0  0  0
  8  9  1  0  0  0
  9 10  2  0  0  0
 11 12  2  0  0  0
 15 16  1  0  0  0
M  END
> <minimizedAffinity>
-6.47372

$$$$
152


 27 30  0  0  0  0  0  0  0  0999 V2000
   91.7854   98.8149  -42.3358 C   0  0  0  0  0  0  0  0  0  0  0  0
   91.7420   97.5260  -42.6918 C   0  0  0  0  0  0  0  0  0  0  0  0
   91.4468   97.0505  -43.9011 O   0  0  0  0  0  0  0  0  0  0  0  0
   91.5349   95.6354  -43.8980 C   0  0  0  0  0  0  0  0  0  0  0  0
   91.8944   95.1754  -42.6764 C   0  0  0  0  0  0  0  0  0  0  0  0
   92.0986   93.8060  -42.5261 C   0  0  0  0  0  0  0  0  0  0  0  0
   91.9163   92.9609  -43.5756 C   0  0  0  0  0  0  0  0  0  0  0  0
   91.5190   93.4576  -44.8009 C   0  0  0  0  0  0  0  0  0  0  0  0
   91.3058   94.7969  -45.0237 C   0  0  0  0  0  0  0  0  0  0  0  0
   91.3341   92.5492  -45.8458 O   0  0  0  0  0  0  0  0  0  0  0  0
   92.0376   96.3788  -41.8231 C   0  0  0  0  0  0  0  0  0  0  0  0
   92.3412   96.4059  -40.6163 O   0  0  0  0  0  0  0  0  0  0  0  0
   87.9754  101.1615  -45.1857 Br  0  0  0  0  0  0  0  0  0  0  0  0
   89.8267  100.8583  -44.8348 C   0  0  0  0  0  0  0  0  0  0  0  0
   90.1642  100.1579  -43.6690 C   0  0  0  0  0  0  0  0  0  0  0  0
   91.4984   99.8739  -43.3409 C   0  0  0  0  0  0  0  0  0  0  0  0
   92.4576  100.3198  -44.2043 C   0  0  0  0  0  0  0  0  0  0  0  0
   92.1448  101.0269  -45.3854 C   0  0  0  0  0  0  0  0  0  0  0  0
   90.7814  101.2891  -45.6815 C   0  0  0  0  0  0  0  0  0  0  0  0
   90.4780   95.4139  -46.0403 C   0  0  0  0  0  0  0  0  0  0  0  0
   89.2848   96.0155  -46.2149 N   0  0  0  0  0  0  0  0  0  0  0  0
   88.9932   97.3753  -46.0832 C   0  0  0  0  0  0  0  0  0  0  0  0
   89.0246   98.1547  -47.4164 C   0  0  0  0  0  0  0  0  0  0  0  0
   88.0420   97.7701  -48.2969 O   0  0  0  0  0  0  0  0  0  0  0  0
   87.8778   96.3815  -48.2380 C   0  0  0  0  0  0  0  0  0  0  0  0
   89.0262   95.6937  -47.7146 C   0  0  0  0  0  0  0  0  0  0  0  0
   88.5106   95.4365  -45.7138 H   0  0  0  0  0  0  0  0  0  0  0  0
 13 14  1  0  0  0
 14 15  2  0  0  0
 14 19  1  0  0  0
 15 16  1  0  0  0
 16 17  2  0  0  0
 16  1  1  0  0  0
 17 18  1  0  0  0
 18 19  2  0  0  0
  1  2  2  0  0  0
  2  3  1  0  0  0
  2 11  1  0  0  0
  3  4  1  0  0  0
  4  5  2  0  0  0
  4  9  1  0  0  0
  5  6  1  0  0  0
  5 11  1  0  0  0
  6  7  2  0  0  0
  7  8  1  0  0  0
  8  9  2  0  0  0
  8 10  1  0  0  0
  9 20  1  0  0  0
 20 21  1  0  0  0
 21 22  1  0  0  0
 21 26  1  0  0  0
 22 23  1  0  0  0
 23 24  1  0  0  0
 24 25  1  0  0  0
 25 26  1  0  0  0
 11 12  2  0  0  0
 21 27  1  0  0  0
M  CHG 1  10  -1
M  CHG 1  21   1
M  END
> <minimizedAffinity>
-6.41142

$$$$
153


 34 37  0  0  0  0  0  0  0  0999 V2000
   93.8108  101.6970  -40.3512 C   0  0  0  0  0  0  0  0  0  0  0  0
   94.9090  101.6998  -39.6762 N   0  0  0  0  0  0  0  0  0  0  0  0
   95.7357  102.6228  -40.1576 N   0  0  0  0  0  0  0  0  0  0  0  0
   95.1336  103.2395  -41.2083 N   0  0  0  0  0  0  0  0  0  0  0  0
   93.9523  102.7365  -41.3522 C   0  0  0  0  0  0  0  0  0  0  0  0
   96.0058  103.9194  -42.1544 C   0  0  0  0  0  0  0  0  0  0  0  0
   97.1967  104.4649  -41.5484 N   0  0  0  0  0  0  0  0  0  0  0  0
   97.9073  105.0416  -42.3964 O   0  0  0  0  0  0  0  0  0  0  0  0
   97.3316  104.9655  -43.5570 N   0  0  0  0  0  0  0  0  0  0  0  0
   96.1422  104.2571  -43.3894 C   0  0  0  0  0  0  0  0  0  0  0  0
   95.3157  104.0227  -44.5069 N   0  0  0  0  0  0  0  0  0  0  0  0
   95.8360  103.5231  -45.3108 H   0  0  0  0  0  0  0  0  0  0  0  0
   94.3533  104.2308  -44.6898 H   0  0  0  0  0  0  0  0  0  0  0  0
   92.9105   99.4757  -40.7869 N   0  0  0  0  0  0  0  0  0  0  0  0
   92.6290  100.7381  -40.3511 C   0  0  0  0  0  0  0  0  0  0  0  0
   91.5372  101.1910  -39.9426 O   0  0  0  0  0  0  0  0  0  0  0  0
   94.1259   99.4990  -40.9260 H   0  0  0  0  0  0  0  0  0  0  0  0
   92.1248   97.7698  -42.2058 C   0  0  0  0  0  0  0  0  0  0  0  0
   92.6213   98.2299  -41.0917 N   0  0  0  0  0  0  0  0  0  0  0  0
   91.4382   93.4102  -45.3769 Br  0  0  0  0  0  0  0  0  0  0  0  0
   91.5589   94.3384  -43.7033 C   0  0  0  0  0  0  0  0  0  0  0  0
   91.7087   95.7233  -43.6448 C   0  0  0  0  0  0  0  0  0  0  0  0
   91.8248   96.3400  -42.4142 C   0  0  0  0  0  0  0  0  0  0  0  0
   91.7783   95.5462  -41.2823 C   0  0  0  0  0  0  0  0  0  0  0  0
   91.6270   94.1942  -41.3863 C   0  0  0  0  0  0  0  0  0  0  0  0
   91.5193   93.5243  -42.5768 C   0  0  0  0  0  0  0  0  0  0  0  0
   92.8063  102.9872  -42.2202 C   0  0  0  0  0  0  0  0  0  0  0  0
   92.6456  102.3952  -43.4688 N   0  0  0  0  0  0  0  0  0  0  0  0
   92.8528  101.1784  -43.9969 C   0  0  0  0  0  0  0  0  0  0  0  0
   91.4727  100.5191  -44.2665 C   0  0  0  0  0  0  0  0  0  0  0  0
   90.5406  101.1137  -43.3767 N   0  0  0  0  0  0  0  0  0  0  0  0
   90.2650  102.4683  -43.7499 C   0  0  0  0  0  0  0  0  0  0  0  0
   91.5766  103.0890  -44.2475 C   0  0  0  0  0  0  0  0  0  0  0  0
   89.4610  100.3607  -42.8952 C   0  0  0  0  0  0  0  0  0  0  0  0
 20 21  1  0  0  0
 21 22  2  0  0  0
 21 26  1  0  0  0
 22 23  1  0  0  0
 23 24  2  0  0  0
 23 18  1  0  0  0
 24 25  1  0  0  0
 25 26  2  0  0  0
 18 19  2  0  0  0
 19 14  1  0  0  0
 14 15  1  0  0  0
 15 16  2  0  0  0
 15  1  1  0  0  0
  1  2  1  0  0  0
  1  5  2  0  0  0
  2  3  2  0  0  0
  3  4  1  0  0  0
  4  5  1  0  0  0
  4  6  1  0  0  0
  5 27  1  0  0  0
 27 28  1  0  0  0
 28 29  1  0  0  0
 28 33  1  0  0  0
 29 30  1  0  0  0
 30 31  1  0  0  0
 31 32  1  0  0  0
 31 34  1  0  0  0
 32 33  1  0  0  0
  6  7  2  0  0  0
  6 10  1  0  0  0
  7  8  1  0  0  0
  8  9  1  0  0  0
  9 10  2  0  0  0
 10 11  1  0  0  0
 14 17  1  0  0  0
 11 12  1  0  0  0
 11 13  1  0  0  0
M  END
> <minimizedAffinity>
-6.63567

$$$$
156


 29 32  0  0  0  0  0  0  0  0999 V2000
   91.6647   89.6986  -49.1800 C   0  0  0  0  0  0  0  0  0  0  0  0
   91.3231   90.6261  -50.0800 N   0  0  0  0  0  0  0  0  0  0  0  0
   90.4000   90.4082  -51.0579 C   0  0  0  0  0  0  0  0  0  0  0  0
   89.8396   89.1795  -51.0668 N   0  0  0  0  0  0  0  0  0  0  0  0
   90.1408   88.2063  -50.1903 C   0  0  0  0  0  0  0  0  0  0  0  0
   91.0696   88.5095  -49.2501 N   0  0  0  0  0  0  0  0  0  0  0  0
   89.5426   86.9356  -50.2215 N   0  0  0  0  0  0  0  0  0  0  0  0
   88.5486   86.5349  -49.2624 C   0  0  0  0  0  0  0  0  0  0  0  0
   87.5301   85.6923  -50.0421 C   0  0  0  0  0  0  0  0  0  0  0  0
   87.5197   86.0663  -51.3836 O   0  0  0  0  0  0  0  0  0  0  0  0
   88.6587   85.7291  -52.0698 C   0  0  0  0  0  0  0  0  0  0  0  0
   89.9188   85.9888  -51.2325 C   0  0  0  0  0  0  0  0  0  0  0  0
   90.0560   91.4038  -51.9980 N   0  0  0  0  0  0  0  0  0  0  0  0
   88.7662   91.4025  -52.6305 C   0  0  0  0  0  0  0  0  0  0  0  0
   88.1578   92.7810  -52.3977 C   0  0  0  0  0  0  0  0  0  0  0  0
   89.0289   93.6955  -52.9842 O   0  0  0  0  0  0  0  0  0  0  0  0
   90.2370   93.7742  -52.3153 C   0  0  0  0  0  0  0  0  0  0  0  0
   90.9832   92.4443  -52.3491 C   0  0  0  0  0  0  0  0  0  0  0  0
   92.6367   89.9938  -48.1839 N   0  0  0  0  0  0  0  0  0  0  0  0
   93.4329   89.3446  -48.0155 H   0  0  0  0  0  0  0  0  0  0  0  0
   91.5644   91.4638  -46.6664 C   0  0  0  0  0  0  0  0  0  0  0  0
   92.5548   91.1515  -47.4054 N   0  0  0  0  0  0  0  0  0  0  0  0
   92.3666   93.7924  -41.9138 Br  0  0  0  0  0  0  0  0  0  0  0  0
   91.8342   93.8310  -43.7531 C   0  0  0  0  0  0  0  0  0  0  0  0
   91.8791   92.7012  -44.5334 C   0  0  0  0  0  0  0  0  0  0  0  0
   91.5058   92.6800  -45.8660 C   0  0  0  0  0  0  0  0  0  0  0  0
   91.0711   93.8735  -46.4007 C   0  0  0  0  0  0  0  0  0  0  0  0
   91.0110   95.0403  -45.6427 C   0  0  0  0  0  0  0  0  0  0  0  0
   91.3951   95.0103  -44.3186 C   0  0  0  0  0  0  0  0  0  0  0  0
 23 24  1  0  0  0
 24 25  2  0  0  0
 24 29  1  0  0  0
 25 26  1  0  0  0
 26 27  2  0  0  0
 26 21  1  0  0  0
 27 28  1  0  0  0
 28 29  2  0  0  0
 21 22  2  0  0  0
 22 19  1  0  0  0
 19  1  1  0  0  0
  1  2  2  0  0  0
  1  6  1  0  0  0
  2  3  1  0  0  0
  3  4  2  0  0  0
  3 13  1  0  0  0
  4  5  1  0  0  0
  5  6  2  0  0  0
  5  7  1  0  0  0
  7  8  1  0  0  0
  7 12  1  0  0  0
  8  9  1  0  0  0
  9 10  1  0  0  0
 10 11  1  0  0  0
 11 12  1  0  0  0
 13 14  1  0  0  0
 13 18  1  0  0  0
 14 15  1  0  0  0
 15 16  1  0  0  0
 16 17  1  0  0  0
 17 18  1  0  0  0
 19 20  1  0  0  0
M  END
> <minimizedAffinity>
-6.83473

$$$$
167


 35 38  0  0  0  0  0  0  0  0999 V2000
   90.2992   96.7786  -46.1705 C   0  0  0  0  0  0  0  0  0  0  0  0
   88.8866   96.7506  -46.2486 N   0  0  0  0  0  0  0  0  0  0  0  0
   88.3428   97.7888  -45.4502 C   0  0  0  0  0  0  0  0  0  0  0  0
   87.1038   97.9703  -45.2364 O   0  0  0  0  0  0  0  0  0  0  0  0
   89.4309   98.5935  -44.9383 C   0  0  0  0  0  0  0  0  0  0  0  0
   89.2249   99.5880  -44.1914 O   0  0  0  0  0  0  0  0  0  0  0  0
   90.6648   98.0212  -45.4416 C   0  0  0  0  0  0  0  0  0  0  0  0
   91.8614   98.5159  -45.2198 C   0  0  0  0  0  0  0  0  0  0  0  0
   92.9633   97.8432  -45.6956 O   0  0  0  0  0  0  0  0  0  0  0  0
   91.5589   91.6520  -46.8563 Br  0  0  0  0  0  0  0  0  0  0  0  0
   91.4106   93.2259  -45.7859 C   0  0  0  0  0  0  0  0  0  0  0  0
   90.9351   94.4152  -46.2471 C   0  0  0  0  0  0  0  0  0  0  0  0
   90.8129   95.5772  -45.5046 C   0  0  0  0  0  0  0  0  0  0  0  0
   91.2097   95.5251  -44.1711 C   0  0  0  0  0  0  0  0  0  0  0  0
   91.6962   94.3331  -43.6695 C   0  0  0  0  0  0  0  0  0  0  0  0
   91.8068   93.1881  -44.4391 C   0  0  0  0  0  0  0  0  0  0  0  0
   92.0382   99.7503  -44.4962 C   0  0  0  0  0  0  0  0  0  0  0  0
   92.1509   99.8309  -43.0969 C   0  0  0  0  0  0  0  0  0  0  0  0
   92.3427  101.1083  -42.7458 N   0  0  0  0  0  0  0  0  0  0  0  0
   92.3532  101.8182  -43.8590 N   0  0  0  0  0  0  0  0  0  0  0  0
   92.1751  101.0378  -44.9353 C   0  0  0  0  0  0  0  0  0  0  0  0
   92.0667   98.6511  -42.1878 C   0  0  0  0  0  0  0  0  0  0  0  0
   92.5188  101.6228  -41.4335 C   0  0  0  0  0  0  0  0  0  0  0  0
   91.3960  101.9872  -40.7024 C   0  0  0  0  0  0  0  0  0  0  0  0
   91.4919  102.4842  -39.4179 C   0  0  0  0  0  0  0  0  0  0  0  0
   92.7329  102.6401  -38.7991 C   0  0  0  0  0  0  0  0  0  0  0  0
   93.8517  102.2771  -39.5275 C   0  0  0  0  0  0  0  0  0  0  0  0
   93.7297  101.7862  -40.8018 C   0  0  0  0  0  0  0  0  0  0  0  0
   88.0541   95.8119  -47.0523 C   0  0  0  0  0  0  0  0  0  0  0  0
   88.4883   95.8592  -48.4945 C   0  0  0  0  0  0  0  0  0  0  0  0
   88.2275   97.1767  -49.1534 C   0  0  0  0  0  0  0  0  0  0  0  0
   89.3758   97.9461  -49.5020 N   0  0  0  0  0  0  0  0  0  0  0  0
   89.6027   98.1529  -50.8945 C   0  0  0  0  0  0  0  0  0  0  0  0
   89.3127   99.2693  -48.8605 C   0  0  0  0  0  0  0  0  0  0  0  0
   90.2456   97.4963  -49.0835 H   0  0  0  0  0  0  0  0  0  0  0  0
 10 11  1  0  0  0
 11 12  2  0  0  0
 11 16  1  0  0  0
 12 13  1  0  0  0
 13 14  2  0  0  0
 13  1  1  0  0  0
 14 15  1  0  0  0
 15 16  2  0  0  0
  1  2  1  0  0  0
  1  7  1  0  0  0
  2  3  1  0  0  0
  2 29  1  0  0  0
  3  4  2  0  0  0
  3  5  1  0  0  0
  5  6  2  0  0  0
  5  7  1  0  0  0
  7  8  2  0  0  0
  8  9  1  0  0  0
  8 17  1  0  0  0
 17 18  2  0  0  0
 17 21  1  0  0  0
 18 19  1  0  0  0
 18 22  1  0  0  0
 19 20  1  0  0  0
 19 23  1  0  0  0
 20 21  2  0  0  0
 23 24  2  0  0  0
 23 28  1  0  0  0
 24 25  1  0  0  0
 25 26  2  0  0  0
 26 27  1  0  0  0
 27 28  2  0  0  0
 29 30  1  0  0  0
 30 31  1  0  0  0
 31 32  1  0  0  0
 32 33  1  0  0  0
 32 34  1  0  0  0
 32 35  1  0  0  0
M  CHG 1   9  -1
M  CHG 1  32   1
M  END
> <minimizedAffinity>
-6.48926

$$$$
169


 37 40  0  0  0  0  0  0  0  0999 V2000
   91.2248   98.7326  -44.0602 C   0  0  0  0  0  0  0  0  0  0  0  0
   90.6126   99.5802  -43.0555 N   0  0  0  0  0  0  0  0  0  0  0  0
   89.2460   99.1987  -42.9933 C   0  0  0  0  0  0  0  0  0  0  0  0
   88.4644   99.3246  -42.0247 O   0  0  0  0  0  0  0  0  0  0  0  0
   88.9061   98.6102  -44.3077 C   0  0  0  0  0  0  0  0  0  0  0  0
   87.8001   98.1542  -44.6719 O   0  0  0  0  0  0  0  0  0  0  0  0
   90.1311   98.6782  -45.0929 C   0  0  0  0  0  0  0  0  0  0  0  0
   90.2031   98.7269  -46.3878 C   0  0  0  0  0  0  0  0  0  0  0  0
   91.4784   98.8549  -46.9768 O   0  0  0  0  0  0  0  0  0  0  0  0
   89.0747   98.6566  -47.3050 C   0  0  0  0  0  0  0  0  0  0  0  0
   88.3111   99.5911  -47.9191 C   0  0  0  0  0  0  0  0  0  0  0  0
   87.4252   98.9558  -48.7141 N   0  0  0  0  0  0  0  0  0  0  0  0
   87.5760   97.6274  -48.6445 C   0  0  0  0  0  0  0  0  0  0  0  0
   88.6047   97.4107  -47.7671 C   0  0  0  0  0  0  0  0  0  0  0  0
   89.1343   96.0710  -47.3708 C   0  0  0  0  0  0  0  0  0  0  0  0
   88.3602  101.0817  -47.7448 C   0  0  0  0  0  0  0  0  0  0  0  0
   86.7038   99.4538  -49.3124 H   0  0  0  0  0  0  0  0  0  0  0  0
   86.7936   96.6036  -49.3660 C   0  0  0  0  0  0  0  0  0  0  0  0
   87.0173   96.4083  -50.5698 O   0  0  0  0  0  0  0  0  0  0  0  0
   85.8224   95.8684  -48.7135 O   0  0  0  0  0  0  0  0  0  0  0  0
   85.1140   96.3317  -47.5869 C   0  0  0  0  0  0  0  0  0  0  0  0
   91.6108   93.4521  -44.8347 Br  0  0  0  0  0  0  0  0  0  0  0  0
   91.6298   94.9890  -43.7053 C   0  0  0  0  0  0  0  0  0  0  0  0
   91.4371   96.2410  -44.2494 C   0  0  0  0  0  0  0  0  0  0  0  0
   91.4421   97.3902  -43.4696 C   0  0  0  0  0  0  0  0  0  0  0  0
   91.6527   97.1938  -42.1131 C   0  0  0  0  0  0  0  0  0  0  0  0
   91.8459   95.9461  -41.5595 C   0  0  0  0  0  0  0  0  0  0  0  0
   91.8373   94.8207  -42.3539 C   0  0  0  0  0  0  0  0  0  0  0  0
   91.2603  100.6261  -42.2596 C   0  0  0  0  0  0  0  0  0  0  0  0
   92.5509  101.0814  -42.9043 C   0  0  0  0  0  0  0  0  0  0  0  0
   93.5743  101.4257  -41.9722 N   0  0  0  0  0  0  0  0  0  0  0  0
   93.1046  101.5420  -40.5967 C   0  0  0  0  0  0  0  0  0  0  0  0
   94.3076  101.4473  -39.6979 C   0  0  0  0  0  0  0  0  0  0  0  0
   95.4305  101.8074  -40.4003 O   0  0  0  0  0  0  0  0  0  0  0  0
   95.2679  102.9200  -41.2070 C   0  0  0  0  0  0  0  0  0  0  0  0
   94.1963  102.7086  -42.2753 C   0  0  0  0  0  0  0  0  0  0  0  0
   94.3379  100.7279  -42.0275 H   0  0  0  0  0  0  0  0  0  0  0  0
 22 23  1  0  0  0
 23 24  2  0  0  0
 23 28  1  0  0  0
 24 25  1  0  0  0
 25 26  2  0  0  0
 25  1  1  0  0  0
 26 27  1  0  0  0
 27 28  2  0  0  0
  1  2  1  0  0  0
  1  7  1  0  0  0
  2  3  1  0  0  0
  2 29  1  0  0  0
  3  4  2  0  0  0
  3  5  1  0  0  0
  5  6  2  0  0  0
  5  7  1  0  0  0
  7  8  2  0  0  0
  8  9  1  0  0  0
  8 10  1  0  0  0
 10 11  2  0  0  0
 10 14  1  0  0  0
 11 12  1  0  0  0
 11 16  1  0  0  0
 12 13  1  0  0  0
 13 14  2  0  0  0
 13 18  1  0  0  0
 14 15  1  0  0  0
 18 19  2  0  0  0
 18 20  1  0  0  0
 20 21  1  0  0  0
 29 30  1  0  0  0
 30 31  1  0  0  0
 31 32  1  0  0  0
 31 36  1  0  0  0
 32 33  1  0  0  0
 33 34  1  0  0  0
 34 35  1  0  0  0
 35 36  1  0  0  0
 12 17  1  0  0  0
 31 37  1  0  0  0
M  CHG 1   9  -1
M  CHG 1  31   1
M  END
> <minimizedAffinity>
-6.34594

$$$$
170


 35 38  0  0  0  0  0  0  0  0999 V2000
   90.9145   98.6442  -43.5734 C   0  0  0  0  0  0  0  0  0  0  0  0
   91.9224   99.2493  -44.4216 N   0  0  0  0  0  0  0  0  0  0  0  0
   91.7460   98.8579  -45.7657 C   0  0  0  0  0  0  0  0  0  0  0  0
   92.5331   98.8897  -46.7463 O   0  0  0  0  0  0  0  0  0  0  0  0
   90.3532   98.3521  -45.8564 C   0  0  0  0  0  0  0  0  0  0  0  0
   89.8432   97.9211  -46.9098 O   0  0  0  0  0  0  0  0  0  0  0  0
   89.7692   98.4703  -44.5328 C   0  0  0  0  0  0  0  0  0  0  0  0
   88.4905   98.4768  -44.2564 C   0  0  0  0  0  0  0  0  0  0  0  0
   88.0772   98.6716  -42.9270 O   0  0  0  0  0  0  0  0  0  0  0  0
   91.7634   93.3900  -44.1910 Br  0  0  0  0  0  0  0  0  0  0  0  0
   91.7578   94.9910  -43.1584 C   0  0  0  0  0  0  0  0  0  0  0  0
   91.3520   96.1936  -43.7255 C   0  0  0  0  0  0  0  0  0  0  0  0
   91.3405   97.3587  -42.9925 C   0  0  0  0  0  0  0  0  0  0  0  0
   91.7422   97.3179  -41.6760 C   0  0  0  0  0  0  0  0  0  0  0  0
   92.1458   96.1262  -41.1074 C   0  0  0  0  0  0  0  0  0  0  0  0
   92.1602   94.9543  -41.8329 C   0  0  0  0  0  0  0  0  0  0  0  0
   87.4832   98.2846  -45.2649 C   0  0  0  0  0  0  0  0  0  0  0  0
   86.9550   99.4409  -45.8579 C   0  0  0  0  0  0  0  0  0  0  0  0
   85.9647   99.3546  -46.7965 C   0  0  0  0  0  0  0  0  0  0  0  0
   85.4410   98.1333  -47.2020 C   0  0  0  0  0  0  0  0  0  0  0  0
   85.9672   97.0259  -46.6134 C   0  0  0  0  0  0  0  0  0  0  0  0
   86.9664   97.0946  -45.6639 C   0  0  0  0  0  0  0  0  0  0  0  0
   85.4116  100.5997  -47.4193 C   0  0  0  0  0  0  0  0  0  0  0  0
   84.4432   98.1316  -48.1551 O   0  0  0  0  0  0  0  0  0  0  0  0
   83.7366   96.9405  -48.4678 C   0  0  0  0  0  0  0  0  0  0  0  0
   92.9911  100.1582  -43.9770 C   0  0  0  0  0  0  0  0  0  0  0  0
   92.4733  101.5690  -43.9268 C   0  0  0  0  0  0  0  0  0  0  0  0
   92.6689  102.2680  -42.6248 C   0  0  0  0  0  0  0  0  0  0  0  0
   93.8155  101.7974  -41.8786 N   0  0  0  0  0  0  0  0  0  0  0  0
   94.9615  102.6690  -42.0457 C   0  0  0  0  0  0  0  0  0  0  0  0
   95.3364  103.3166  -40.7400 C   0  0  0  0  0  0  0  0  0  0  0  0
   95.6821  102.2905  -39.8372 O   0  0  0  0  0  0  0  0  0  0  0  0
   94.5779  101.4853  -39.5669 C   0  0  0  0  0  0  0  0  0  0  0  0
   93.4126  101.7321  -40.4705 C   0  0  0  0  0  0  0  0  0  0  0  0
   94.0984  100.8253  -42.1235 H   0  0  0  0  0  0  0  0  0  0  0  0
 10 11  1  0  0  0
 11 12  2  0  0  0
 11 16  1  0  0  0
 12 13  1  0  0  0
 13 14  2  0  0  0
 13  1  1  0  0  0
 14 15  1  0  0  0
 15 16  2  0  0  0
  1  2  1  0  0  0
  1  7  1  0  0  0
  2  3  1  0  0  0
  2 26  1  0  0  0
  3  4  2  0  0  0
  3  5  1  0  0  0
  5  6  2  0  0  0
  5  7  1  0  0  0
  7  8  2  0  0  0
  8  9  1  0  0  0
  8 17  1  0  0  0
 17 18  2  0  0  0
 17 22  1  0  0  0
 18 19  1  0  0  0
 19 20  2  0  0  0
 19 23  1  0  0  0
 20 21  1  0  0  0
 20 24  1  0  0  0
 21 22  2  0  0  0
 24 25  1  0  0  0
 26 27  1  0  0  0
 27 28  1  0  0  0
 28 29  1  0  0  0
 29 30  1  0  0  0
 29 34  1  0  0  0
 30 31  1  0  0  0
 31 32  1  0  0  0
 32 33  1  0  0  0
 33 34  1  0  0  0
 29 35  1  0  0  0
M  CHG 1   9  -1
M  CHG 1  29   1
M  END
> <minimizedAffinity>
-6.62459

$$$$
175


 32 35  0  0  0  0  0  0  0  0999 V2000
   91.0314   98.5047  -44.1109 C   0  0  0  0  0  0  0  0  0  0  0  0
   91.1018   99.7000  -43.3247 N   0  0  0  0  0  0  0  0  0  0  0  0
   89.8086   99.8898  -42.7710 C   0  0  0  0  0  0  0  0  0  0  0  0
   89.5322  100.6092  -41.7790 O   0  0  0  0  0  0  0  0  0  0  0  0
   88.8240   99.1035  -43.5511 C   0  0  0  0  0  0  0  0  0  0  0  0
   87.5978   99.0218  -43.3679 O   0  0  0  0  0  0  0  0  0  0  0  0
   89.6018   98.4437  -44.5826 C   0  0  0  0  0  0  0  0  0  0  0  0
   89.1758   97.9403  -45.7202 C   0  0  0  0  0  0  0  0  0  0  0  0
   90.0785   97.4071  -46.6155 O   0  0  0  0  0  0  0  0  0  0  0  0
   91.8365   93.1745  -44.0351 Br  0  0  0  0  0  0  0  0  0  0  0  0
   91.7502   94.8849  -43.1895 C   0  0  0  0  0  0  0  0  0  0  0  0
   91.4376   96.0306  -43.9138 C   0  0  0  0  0  0  0  0  0  0  0  0
   91.3671   97.2795  -43.3325 C   0  0  0  0  0  0  0  0  0  0  0  0
   91.6281   97.3416  -41.9709 C   0  0  0  0  0  0  0  0  0  0  0  0
   91.9405   96.2188  -41.2347 C   0  0  0  0  0  0  0  0  0  0  0  0
   91.9980   94.9980  -41.8575 C   0  0  0  0  0  0  0  0  0  0  0  0
   87.7768   97.9213  -46.0632 C   0  0  0  0  0  0  0  0  0  0  0  0
   87.0777   98.9155  -46.6841 C   0  0  0  0  0  0  0  0  0  0  0  0
   85.7405   98.7446  -46.9907 C   0  0  0  0  0  0  0  0  0  0  0  0
   85.0350   97.5986  -46.7024 C   0  0  0  0  0  0  0  0  0  0  0  0
   85.7424   96.5951  -46.0743 C   0  0  0  0  0  0  0  0  0  0  0  0
   87.0708   96.7449  -45.7608 C   0  0  0  0  0  0  0  0  0  0  0  0
   83.5936   97.4401  -47.0434 C   0  0  0  0  0  0  0  0  0  0  0  0
   92.2649  100.5824  -43.1049 C   0  0  0  0  0  0  0  0  0  0  0  0
   92.4331  100.7374  -41.6194 C   0  0  0  0  0  0  0  0  0  0  0  0
   93.6824  101.2636  -41.2029 N   0  0  0  0  0  0  0  0  0  0  0  0
   94.1432  102.4254  -41.9056 C   0  0  0  0  0  0  0  0  0  0  0  0
   93.7278  103.7306  -41.2839 C   0  0  0  0  0  0  0  0  0  0  0  0
   93.8192  103.7456  -39.9098 O   0  0  0  0  0  0  0  0  0  0  0  0
   93.0913  102.7350  -39.3266 C   0  0  0  0  0  0  0  0  0  0  0  0
   93.6843  101.4246  -39.7708 C   0  0  0  0  0  0  0  0  0  0  0  0
   94.4040  100.5022  -41.3822 H   0  0  0  0  0  0  0  0  0  0  0  0
 10 11  1  0  0  0
 11 12  2  0  0  0
 11 16  1  0  0  0
 12 13  1  0  0  0
 13 14  2  0  0  0
 13  1  1  0  0  0
 14 15  1  0  0  0
 15 16  2  0  0  0
  1  2  1  0  0  0
  1  7  1  0  0  0
  2  3  1  0  0  0
  2 24  1  0  0  0
  3  4  2  0  0  0
  3  5  1  0  0  0
  5  6  2  0  0  0
  5  7  1  0  0  0
  7  8  2  0  0  0
  8  9  1  0  0  0
  8 17  1  0  0  0
 17 18  2  0  0  0
 17 22  1  0  0  0
 18 19  1  0  0  0
 19 20  2  0  0  0
 20 21  1  0  0  0
 20 23  1  0  0  0
 21 22  2  0  0  0
 24 25  1  0  0  0
 25 26  1  0  0  0
 26 27  1  0  0  0
 26 31  1  0  0  0
 27 28  1  0  0  0
 28 29  1  0  0  0
 29 30  1  0  0  0
 30 31  1  0  0  0
 26 32  1  0  0  0
M  CHG 1   9  -1
M  CHG 1  26   1
M  END
> <minimizedAffinity>
-6.81865

$$$$
176


 33 36  0  0  0  0  0  0  0  0999 V2000
   90.8513   98.6851  -43.6030 C   0  0  0  0  0  0  0  0  0  0  0  0
   91.9179   99.2777  -44.3935 N   0  0  0  0  0  0  0  0  0  0  0  0
   91.7430   98.8135  -45.7482 C   0  0  0  0  0  0  0  0  0  0  0  0
   92.6329   98.8390  -46.6337 O   0  0  0  0  0  0  0  0  0  0  0  0
   90.3814   98.3346  -45.8594 C   0  0  0  0  0  0  0  0  0  0  0  0
   89.8044   97.8366  -46.8764 O   0  0  0  0  0  0  0  0  0  0  0  0
   89.7439   98.5186  -44.5627 C   0  0  0  0  0  0  0  0  0  0  0  0
   88.4381   98.4927  -44.3392 C   0  0  0  0  0  0  0  0  0  0  0  0
   88.0833   98.6422  -42.9820 O   0  0  0  0  0  0  0  0  0  0  0  0
   91.7267   93.4312  -44.2556 Br  0  0  0  0  0  0  0  0  0  0  0  0
   91.7073   95.0291  -43.2277 C   0  0  0  0  0  0  0  0  0  0  0  0
   91.3031   96.2505  -43.7489 C   0  0  0  0  0  0  0  0  0  0  0  0
   91.2957   97.4041  -42.9983 C   0  0  0  0  0  0  0  0  0  0  0  0
   91.7039   97.3254  -41.7004 C   0  0  0  0  0  0  0  0  0  0  0  0
   92.1131   96.0975  -41.1624 C   0  0  0  0  0  0  0  0  0  0  0  0
   92.1201   94.9450  -41.9147 C   0  0  0  0  0  0  0  0  0  0  0  0
   87.4223   98.3318  -45.3664 C   0  0  0  0  0  0  0  0  0  0  0  0
   86.9199   99.3403  -46.1540 C   0  0  0  0  0  0  0  0  0  0  0  0
   85.9782   99.1212  -47.1393 C   0  0  0  0  0  0  0  0  0  0  0  0
   85.4936   97.8546  -47.3751 C   0  0  0  0  0  0  0  0  0  0  0  0
   85.9864   96.8290  -46.5931 C   0  0  0  0  0  0  0  0  0  0  0  0
   86.9289   97.0582  -45.6099 C   0  0  0  0  0  0  0  0  0  0  0  0
   84.2888   97.5484  -48.6305 Cl  0  0  0  0  0  0  0  0  0  0  0  0
   92.9871  100.0750  -43.8854 C   0  0  0  0  0  0  0  0  0  0  0  0
   92.7338  101.4835  -43.5343 C   0  0  0  0  0  0  0  0  0  0  0  0
   92.2821  101.8419  -42.1678 C   0  0  0  0  0  0  0  0  0  0  0  0
   93.0919  102.7249  -41.3983 N   0  0  0  0  0  0  0  0  0  0  0  0
   93.2273  102.2500  -40.0446 C   0  0  0  0  0  0  0  0  0  0  0  0
   94.4547  101.3890  -39.8315 C   0  0  0  0  0  0  0  0  0  0  0  0
   95.6114  102.1516  -40.0088 O   0  0  0  0  0  0  0  0  0  0  0  0
   95.3653  103.2411  -40.8463 C   0  0  0  0  0  0  0  0  0  0  0  0
   94.4787  102.7529  -41.9581 C   0  0  0  0  0  0  0  0  0  0  0  0
   92.7967  103.6958  -41.4629 H   0  0  0  0  0  0  0  0  0  0  0  0
 10 11  1  0  0  0
 11 12  2  0  0  0
 11 16  1  0  0  0
 12 13  1  0  0  0
 13 14  2  0  0  0
 13  1  1  0  0  0
 14 15  1  0  0  0
 15 16  2  0  0  0
  1  2  1  0  0  0
  1  7  1  0  0  0
  2  3  1  0  0  0
  2 24  1  0  0  0
  3  4  2  0  0  0
  3  5  1  0  0  0
  5  6  2  0  0  0
  5  7  1  0  0  0
  7  8  2  0  0  0
  8  9  1  0  0  0
  8 17  1  0  0  0
 17 18  2  0  0  0
 17 22  1  0  0  0
 18 19  1  0  0  0
 19 20  2  0  0  0
 20 21  1  0  0  0
 20 23  1  0  0  0
 21 22  2  0  0  0
 24 25  1  0  0  0
 25 26  1  0  0  0
 26 27  1  0  0  0
 27 28  1  0  0  0
 27 32  1  0  0  0
 28 29  1  0  0  0
 29 30  1  0  0  0
 30 31  1  0  0  0
 31 32  1  0  0  0
 27 33  1  0  0  0
M  CHG 1   9  -1
M  CHG 1  27   1
M  END
> <minimizedAffinity>
-6.64640

$$$$
182


 36 40  0  0  0  0  0  0  0  0999 V2000
   89.9770   98.8460  -42.8622 C   0  0  0  0  0  0  0  0  0  0  0  0
   88.8203   99.4189  -43.4572 N   0  0  0  0  0  0  0  0  0  0  0  0
   88.5950  100.6288  -42.6607 C   0  0  0  0  0  0  0  0  0  0  0  0
   87.5035  101.1886  -42.4700 O   0  0  0  0  0  0  0  0  0  0  0  0
   89.9136  101.0323  -42.1450 C   0  0  0  0  0  0  0  0  0  0  0  0
   90.1932  102.0153  -41.4216 O   0  0  0  0  0  0  0  0  0  0  0  0
   90.8521  100.0380  -42.6595 C   0  0  0  0  0  0  0  0  0  0  0  0
   92.1244  100.2126  -42.9082 C   0  0  0  0  0  0  0  0  0  0  0  0
   92.8251   99.1213  -43.4662 O   0  0  0  0  0  0  0  0  0  0  0  0
   92.8244  101.4574  -42.6284 C   0  0  0  0  0  0  0  0  0  0  0  0
   93.3726  101.9422  -41.5050 N   0  0  0  0  0  0  0  0  0  0  0  0
   93.8685  103.1608  -41.7363 C   0  0  0  0  0  0  0  0  0  0  0  0
   93.6277  103.4533  -43.0415 N   0  0  0  0  0  0  0  0  0  0  0  0
   92.9886  102.4315  -43.6259 C   0  0  0  0  0  0  0  0  0  0  0  0
   92.5410  102.3459  -45.0448 C   0  0  0  0  0  0  0  0  0  0  0  0
   94.5106  103.8915  -40.7390 C   0  0  0  0  0  0  0  0  0  0  0  0
   94.6177  103.3010  -39.4950 C   0  0  0  0  0  0  0  0  0  0  0  0
   94.0950  102.0376  -39.2895 C   0  0  0  0  0  0  0  0  0  0  0  0
   93.4644  101.3367  -40.2884 C   0  0  0  0  0  0  0  0  0  0  0  0
   95.0403  105.2414  -41.0526 C   0  0  0  0  0  0  0  0  0  0  0  0
   92.4328   94.2711  -41.7622 Br  0  0  0  0  0  0  0  0  0  0  0  0
   91.7360   95.5585  -42.9983 C   0  0  0  0  0  0  0  0  0  0  0  0
   91.1213   96.6995  -42.5533 C   0  0  0  0  0  0  0  0  0  0  0  0
   90.5909   97.6779  -43.4182 C   0  0  0  0  0  0  0  0  0  0  0  0
   90.7544   97.3721  -44.7512 C   0  0  0  0  0  0  0  0  0  0  0  0
   91.3682   96.2310  -45.2211 C   0  0  0  0  0  0  0  0  0  0  0  0
   91.8706   95.3040  -44.3365 C   0  0  0  0  0  0  0  0  0  0  0  0
   87.9271   99.0282  -44.5338 C   0  0  0  0  0  0  0  0  0  0  0  0
   86.7812   98.1674  -44.1278 C   0  0  0  0  0  0  0  0  0  0  0  0
   85.5774   98.9246  -43.8467 N   0  0  0  0  0  0  0  0  0  0  0  0
   85.3179   99.9076  -44.8748 C   0  0  0  0  0  0  0  0  0  0  0  0
   84.8308   99.2055  -46.1463 C   0  0  0  0  0  0  0  0  0  0  0  0
   83.5930   98.6417  -45.8178 O   0  0  0  0  0  0  0  0  0  0  0  0
   83.8838   97.5664  -44.9532 C   0  0  0  0  0  0  0  0  0  0  0  0
   84.4380   98.0538  -43.6353 C   0  0  0  0  0  0  0  0  0  0  0  0
   85.7132   99.4585  -42.9534 H   0  0  0  0  0  0  0  0  0  0  0  0
 21 22  1  0  0  0
 22 23  2  0  0  0
 22 27  1  0  0  0
 23 24  1  0  0  0
 24 25  2  0  0  0
 24  1  1  0  0  0
 25 26  1  0  0  0
 26 27  2  0  0  0
  1  2  1  0  0  0
  1  7  1  0  0  0
  2  3  1  0  0  0
  2 28  1  0  0  0
  3  4  2  0  0  0
  3  5  1  0  0  0
  5  6  2  0  0  0
  5  7  1  0  0  0
  7  8  2  0  0  0
  8  9  1  0  0  0
  8 10  1  0  0  0
 10 11  1  0  0  0
 10 14  2  0  0  0
 11 12  1  0  0  0
 11 19  1  0  0  0
 12 13  2  0  0  0
 12 16  1  0  0  0
 13 14  1  0  0  0
 14 15  1  0  0  0
 16 17  2  0  0  0
 16 20  1  0  0  0
 17 18  1  0  0  0
 18 19  2  0  0  0
 28 29  1  0  0  0
 29 30  1  0  0  0
 30 31  1  0  0  0
 30 35  1  0  0  0
 31 32  1  0  0  0
 32 33  1  0  0  0
 33 34  1  0  0  0
 34 35  1  0  0  0
 30 36  1  0  0  0
M  CHG 1   9  -1
M  CHG 1  30   1
M  END
> <minimizedAffinity>
-6.14760

$$$$
184


 33 36  0  0  0  0  0  0  0  0999 V2000
   92.3051   98.5622  -44.4530 C   0  0  0  0  0  0  0  0  0  0  0  0
   91.4447   97.4441  -44.1186 N   0  0  0  0  0  0  0  0  0  0  0  0
   91.6734   97.2008  -42.7241 C   0  0  0  0  0  0  0  0  0  0  0  0
   91.5151   96.1347  -42.1034 O   0  0  0  0  0  0  0  0  0  0  0  0
   92.1355   98.4565  -42.1449 C   0  0  0  0  0  0  0  0  0  0  0  0
   92.4668   98.7417  -40.9555 O   0  0  0  0  0  0  0  0  0  0  0  0
   92.1642   99.4199  -43.2350 C   0  0  0  0  0  0  0  0  0  0  0  0
   92.1208  100.7316  -43.1104 C   0  0  0  0  0  0  0  0  0  0  0  0
   92.2279  101.4660  -44.2999 O   0  0  0  0  0  0  0  0  0  0  0  0
   91.9662  101.4508  -41.8548 C   0  0  0  0  0  0  0  0  0  0  0  0
   92.9324  101.9851  -41.0934 N   0  0  0  0  0  0  0  0  0  0  0  0
   92.4035  102.6181  -40.0147 C   0  0  0  0  0  0  0  0  0  0  0  0
   91.0570  102.4534  -40.1359 N   0  0  0  0  0  0  0  0  0  0  0  0
   90.7535  101.7619  -41.2210 C   0  0  0  0  0  0  0  0  0  0  0  0
   89.4498  101.3324  -41.7738 C   0  0  0  0  0  0  0  0  0  0  0  0
   93.1806  103.2474  -39.0551 C   0  0  0  0  0  0  0  0  0  0  0  0
   94.5548  103.2444  -39.1765 C   0  0  0  0  0  0  0  0  0  0  0  0
   95.0880  102.5927  -40.2825 C   0  0  0  0  0  0  0  0  0  0  0  0
   94.2940  101.9853  -41.2054 C   0  0  0  0  0  0  0  0  0  0  0  0
   93.6139  100.9641  -49.0462 Br  0  0  0  0  0  0  0  0  0  0  0  0
   92.3541  100.3988  -47.7415 C   0  0  0  0  0  0  0  0  0  0  0  0
   92.7996   99.7049  -46.6160 C   0  0  0  0  0  0  0  0  0  0  0  0
   91.9242   99.2898  -45.6696 C   0  0  0  0  0  0  0  0  0  0  0  0
   90.5676   99.5765  -45.8565 C   0  0  0  0  0  0  0  0  0  0  0  0
   90.1365  100.2549  -46.9574 C   0  0  0  0  0  0  0  0  0  0  0  0
   91.0101  100.6865  -47.9315 C   0  0  0  0  0  0  0  0  0  0  0  0
   90.5414   96.6953  -44.9956 C   0  0  0  0  0  0  0  0  0  0  0  0
   91.2390   95.7351  -45.8874 C   0  0  0  0  0  0  0  0  0  0  0  0
   92.1046   94.7101  -45.2794 C   0  0  0  0  0  0  0  0  0  0  0  0
   91.4605   93.5491  -44.7726 N   0  0  0  0  0  0  0  0  0  0  0  0
   92.1463   93.0756  -43.5943 C   0  0  0  0  0  0  0  0  0  0  0  0
   91.5698   92.4616  -45.7631 C   0  0  0  0  0  0  0  0  0  0  0  0
   90.4322   93.6525  -44.6290 H   0  0  0  0  0  0  0  0  0  0  0  0
 20 21  1  0  0  0
 21 22  2  0  0  0
 21 26  1  0  0  0
 22 23  1  0  0  0
 23 24  2  0  0  0
 23  1  1  0  0  0
 24 25  1  0  0  0
 25 26  2  0  0  0
  1  2  1  0  0  0
  1  7  1  0  0  0
  2  3  1  0  0  0
  2 27  1  0  0  0
  3  4  2  0  0  0
  3  5  1  0  0  0
  5  6  2  0  0  0
  5  7  1  0  0  0
  7  8  2  0  0  0
  8  9  1  0  0  0
  8 10  1  0  0  0
 10 11  1  0  0  0
 10 14  2  0  0  0
 11 12  1  0  0  0
 11 19  1  0  0  0
 12 13  2  0  0  0
 12 16  1  0  0  0
 13 14  1  0  0  0
 14 15  1  0  0  0
 16 17  2  0  0  0
 17 18  1  0  0  0
 18 19  2  0  0  0
 27 28  1  0  0  0
 28 29  1  0  0  0
 29 30  1  0  0  0
 30 31  1  0  0  0
 30 32  1  0  0  0
 30 33  1  0  0  0
M  CHG 1   9  -1
M  CHG 1  30   1
M  END
> <minimizedAffinity>
-5.73514

$$$$
188


 31 34  0  0  0  0  0  0  0  0999 V2000
   90.6819   98.5996  -44.7931 C   0  0  0  0  0  0  0  0  0  0  0  0
   90.6558   99.8804  -44.1026 N   0  0  0  0  0  0  0  0  0  0  0  0
   89.4735   99.7818  -43.2737 C   0  0  0  0  0  0  0  0  0  0  0  0
   89.2518  100.4087  -42.2156 O   0  0  0  0  0  0  0  0  0  0  0  0
   88.5611   98.8172  -43.8730 C   0  0  0  0  0  0  0  0  0  0  0  0
   87.4283   98.4112  -43.5066 O   0  0  0  0  0  0  0  0  0  0  0  0
   89.2251   98.3395  -45.0852 C   0  0  0  0  0  0  0  0  0  0  0  0
   88.7127   97.7976  -46.1523 C   0  0  0  0  0  0  0  0  0  0  0  0
   89.5934   97.3881  -47.1762 O   0  0  0  0  0  0  0  0  0  0  0  0
   91.7864   93.3714  -44.2347 Br  0  0  0  0  0  0  0  0  0  0  0  0
   91.6333   95.1534  -43.5422 C   0  0  0  0  0  0  0  0  0  0  0  0
   91.2346   96.2102  -44.3461 C   0  0  0  0  0  0  0  0  0  0  0  0
   91.1165   97.5011  -43.8803 C   0  0  0  0  0  0  0  0  0  0  0  0
   91.4143   97.7274  -42.5503 C   0  0  0  0  0  0  0  0  0  0  0  0
   91.8180   96.6741  -41.7263 C   0  0  0  0  0  0  0  0  0  0  0  0
   91.9298   95.3858  -42.2147 C   0  0  0  0  0  0  0  0  0  0  0  0
   87.2772   97.6251  -46.2802 C   0  0  0  0  0  0  0  0  0  0  0  0
   86.6445   96.5504  -45.8914 O   0  0  0  0  0  0  0  0  0  0  0  0
   85.3638   96.6462  -46.1210 C   0  0  0  0  0  0  0  0  0  0  0  0
   85.1258   97.8570  -46.6972 C   0  0  0  0  0  0  0  0  0  0  0  0
   86.3652   98.4983  -46.8055 C   0  0  0  0  0  0  0  0  0  0  0  0
   91.5469  101.0090  -44.1517 C   0  0  0  0  0  0  0  0  0  0  0  0
   92.9302  100.7205  -43.6157 C   0  0  0  0  0  0  0  0  0  0  0  0
   93.3428  101.8026  -42.6987 C   0  0  0  0  0  0  0  0  0  0  0  0
   93.6321  101.3844  -41.3457 N   0  0  0  0  0  0  0  0  0  0  0  0
   94.3412  102.3930  -40.5939 C   0  0  0  0  0  0  0  0  0  0  0  0
   93.4823  103.2621  -39.7464 C   0  0  0  0  0  0  0  0  0  0  0  0
   92.4679  102.6180  -39.0700 O   0  0  0  0  0  0  0  0  0  0  0  0
   91.7004  101.7867  -39.8748 C   0  0  0  0  0  0  0  0  0  0  0  0
   92.5450  100.7987  -40.6374 C   0  0  0  0  0  0  0  0  0  0  0  0
   94.3488  100.6005  -41.4699 H   0  0  0  0  0  0  0  0  0  0  0  0
 10 11  1  0  0  0
 11 12  2  0  0  0
 11 16  1  0  0  0
 12 13  1  0  0  0
 13 14  2  0  0  0
 13  1  1  0  0  0
 14 15  1  0  0  0
 15 16  2  0  0  0
  1  2  1  0  0  0
  1  7  1  0  0  0
  2  3  1  0  0  0
  2 22  1  0  0  0
  3  4  2  0  0  0
  3  5  1  0  0  0
  5  6  2  0  0  0
  5  7  1  0  0  0
  7  8  2  0  0  0
  8  9  1  0  0  0
  8 17  1  0  0  0
 17 18  1  0  0  0
 17 21  2  0  0  0
 18 19  1  0  0  0
 19 20  2  0  0  0
 20 21  1  0  0  0
 22 23  1  0  0  0
 23 24  1  0  0  0
 24 25  1  0  0  0
 25 26  1  0  0  0
 25 30  1  0  0  0
 26 27  1  0  0  0
 27 28  1  0  0  0
 28 29  1  0  0  0
 29 30  1  0  0  0
 25 31  1  0  0  0
M  CHG 1   9  -1
M  CHG 1  25   1
M  END
> <minimizedAffinity>
-6.19815

$$$$
191


 34 37  0  0  0  0  0  0  0  0999 V2000
   90.9069   98.1058  -44.2334 C   0  0  0  0  0  0  0  0  0  0  0  0
   89.5344   98.5317  -44.0493 N   0  0  0  0  0  0  0  0  0  0  0  0
   88.9991   98.7097  -45.3788 C   0  0  0  0  0  0  0  0  0  0  0  0
   87.7823   98.6808  -45.6838 O   0  0  0  0  0  0  0  0  0  0  0  0
   90.1452   98.9257  -46.2671 C   0  0  0  0  0  0  0  0  0  0  0  0
   90.1455   99.1246  -47.5091 O   0  0  0  0  0  0  0  0  0  0  0  0
   91.3553   98.8728  -45.4550 C   0  0  0  0  0  0  0  0  0  0  0  0
   92.5464   99.3686  -45.7438 C   0  0  0  0  0  0  0  0  0  0  0  0
   93.5776   99.2009  -44.8544 O   0  0  0  0  0  0  0  0  0  0  0  0
   92.7893  100.1008  -47.0009 C   0  0  0  0  0  0  0  0  0  0  0  0
   93.2219   99.5736  -48.1140 O   0  0  0  0  0  0  0  0  0  0  0  0
   93.3533  100.4264  -49.0744 C   0  0  0  0  0  0  0  0  0  0  0  0
   92.9766  101.6489  -48.5729 C   0  0  0  0  0  0  0  0  0  0  0  0
   92.6195  101.4405  -47.2573 C   0  0  0  0  0  0  0  0  0  0  0  0
   93.0289  102.7411  -49.4110 C   0  0  0  0  0  0  0  0  0  0  0  0
   93.4458  102.6315  -50.7222 C   0  0  0  0  0  0  0  0  0  0  0  0
   93.8191  101.3676  -51.1904 C   0  0  0  0  0  0  0  0  0  0  0  0
   93.7801  100.2576  -50.3852 C   0  0  0  0  0  0  0  0  0  0  0  0
   94.1530   99.0359  -50.8843 O   0  0  0  0  0  0  0  0  0  0  0  0
   95.3966   98.6905  -51.4048 C   0  0  0  0  0  0  0  0  0  0  0  0
   92.4280   93.3828  -42.1932 Br  0  0  0  0  0  0  0  0  0  0  0  0
   91.7109   94.4586  -43.6196 C   0  0  0  0  0  0  0  0  0  0  0  0
   91.5609   95.8056  -43.4600 C   0  0  0  0  0  0  0  0  0  0  0  0
   91.0471   96.6436  -44.4519 C   0  0  0  0  0  0  0  0  0  0  0  0
   90.6923   96.0140  -45.6245 C   0  0  0  0  0  0  0  0  0  0  0  0
   90.8403   94.6404  -45.7989 C   0  0  0  0  0  0  0  0  0  0  0  0
   91.3490   93.8681  -44.7940 C   0  0  0  0  0  0  0  0  0  0  0  0
   88.8099   98.7253  -42.8170 C   0  0  0  0  0  0  0  0  0  0  0  0
   88.5996  100.1907  -42.5217 C   0  0  0  0  0  0  0  0  0  0  0  0
   89.8271  101.0268  -42.5650 C   0  0  0  0  0  0  0  0  0  0  0  0
   90.6826  100.9059  -41.4261 N   0  0  0  0  0  0  0  0  0  0  0  0
   90.6925  102.1500  -40.6515 C   0  0  0  0  0  0  0  0  0  0  0  0
   92.0238  100.5490  -41.7727 C   0  0  0  0  0  0  0  0  0  0  0  0
   90.3357  100.1791  -40.7362 H   0  0  0  0  0  0  0  0  0  0  0  0
 21 22  1  0  0  0
 22 23  2  0  0  0
 22 27  1  0  0  0
 23 24  1  0  0  0
 24 25  2  0  0  0
 24  1  1  0  0  0
 25 26  1  0  0  0
 26 27  2  0  0  0
  1  2  1  0  0  0
  1  7  1  0  0  0
  2  3  1  0  0  0
  2 28  1  0  0  0
  3  4  2  0  0  0
  3  5  1  0  0  0
  5  6  2  0  0  0
  5  7  1  0  0  0
  7  8  2  0  0  0
  8  9  1  0  0  0
  8 10  1  0  0  0
 10 11  1  0  0  0
 10 14  2  0  0  0
 11 12  1  0  0  0
 12 13  2  0  0  0
 12 18  1  0  0  0
 13 14  1  0  0  0
 13 15  1  0  0  0
 15 16  2  0  0  0
 16 17  1  0  0  0
 17 18  2  0  0  0
 18 19  1  0  0  0
 19 20  1  0  0  0
 28 29  1  0  0  0
 29 30  1  0  0  0
 30 31  1  0  0  0
 31 32  1  0  0  0
 31 33  1  0  0  0
 31 34  1  0  0  0
M  CHG 1   9  -1
M  CHG 1  31   1
M  END
> <minimizedAffinity>
-6.41865

$$$$
199


 25 28  0  0  0  0  0  0  0  0999 V2000
   91.1114  100.9063  -44.0382 C   0  0  0  0  0  0  0  0  0  0  0  0
   90.1955   99.7977  -43.5892 C   0  0  0  0  0  0  0  0  0  0  0  0
   91.2383   98.7931  -43.8450 N   0  0  0  0  0  0  0  0  0  0  0  0
   91.8862   99.7907  -44.6764 C   0  0  0  0  0  0  0  0  0  0  0  0
   91.4371   97.4514  -43.4181 C   0  0  0  0  0  0  0  0  0  0  0  0
   91.6333   97.1303  -42.1129 N   0  0  0  0  0  0  0  0  0  0  0  0
   91.8213   95.8337  -41.7288 C   0  0  0  0  0  0  0  0  0  0  0  0
   91.8185   94.8394  -42.6220 N   0  0  0  0  0  0  0  0  0  0  0  0
   91.6317   95.0830  -43.9204 C   0  0  0  0  0  0  0  0  0  0  0  0
   91.5872   94.2730  -44.9970 N   0  0  0  0  0  0  0  0  0  0  0  0
   91.3748   95.0497  -46.0370 N   0  0  0  0  0  0  0  0  0  0  0  0
   91.2831   96.3288  -45.6557 N   0  0  0  0  0  0  0  0  0  0  0  0
   91.4421   96.3943  -44.3065 C   0  0  0  0  0  0  0  0  0  0  0  0
   91.7390   92.8208  -45.0389 C   0  0  0  0  0  0  0  0  0  0  0  0
   91.6585  101.1253  -41.6009 N   0  0  0  0  0  0  0  0  0  0  0  0
   91.8277  101.5991  -42.9111 C   0  0  0  0  0  0  0  0  0  0  0  0
   92.5293  102.5639  -43.2480 O   0  0  0  0  0  0  0  0  0  0  0  0
   91.0131  100.2679  -41.4384 H   0  0  0  0  0  0  0  0  0  0  0  0
   90.9021  104.0443  -37.2596 Br  0  0  0  0  0  0  0  0  0  0  0  0
   91.9949  103.0095  -38.4284 C   0  0  0  0  0  0  0  0  0  0  0  0
   91.4855  102.4391  -39.5713 C   0  0  0  0  0  0  0  0  0  0  0  0
   92.2628  101.6725  -40.4524 C   0  0  0  0  0  0  0  0  0  0  0  0
   93.5777  101.5150  -40.1147 C   0  0  0  0  0  0  0  0  0  0  0  0
   94.0861  102.0989  -38.9519 C   0  0  0  0  0  0  0  0  0  0  0  0
   93.3106  102.8369  -38.1160 C   0  0  0  0  0  0  0  0  0  0  0  0
 19 20  1  0  0  0
 20 21  2  0  0  0
 20 25  1  0  0  0
 21 22  1  0  0  0
 22 23  2  0  0  0
 22 15  1  0  0  0
 23 24  1  0  0  0
 24 25  2  0  0  0
 15 16  1  0  0  0
 16 17  2  0  0  0
 16  1  1  0  0  0
  1  2  1  0  0  0
  1  4  1  0  0  0
  2  3  1  0  0  0
  3  4  1  0  0  0
  3  5  1  0  0  0
  5  6  2  0  0  0
  5 13  1  0  0  0
  6  7  1  0  0  0
  7  8  2  0  0  0
  8  9  1  0  0  0
  9 10  1  0  0  0
  9 13  2  0  0  0
 10 11  1  0  0  0
 10 14  1  0  0  0
 11 12  2  0  0  0
 12 13  1  0  0  0
 15 18  1  0  0  0
M  END
> <minimizedAffinity>
-6.36702

$$$$
200


 21 24  0  0  0  0  0  0  0  0999 V2000
   91.3202   96.8125  -44.1822 C   0  0  0  0  0  0  0  0  0  0  0  0
   91.2082   96.0376  -45.2556 N   0  0  0  0  0  0  0  0  0  0  0  0
   91.3587   94.7026  -45.2669 C   0  0  0  0  0  0  0  0  0  0  0  0
   91.2974   93.7240  -46.1868 N   0  0  0  0  0  0  0  0  0  0  0  0
   91.5296   92.5645  -45.6570 O   0  0  0  0  0  0  0  0  0  0  0  0
   91.7441   92.7480  -44.4027 N   0  0  0  0  0  0  0  0  0  0  0  0
   91.6558   94.0486  -44.0794 C   0  0  0  0  0  0  0  0  0  0  0  0
   91.7798   94.7892  -42.9680 N   0  0  0  0  0  0  0  0  0  0  0  0
   92.0576   94.3988  -41.7266 N   0  0  0  0  0  0  0  0  0  0  0  0
   92.0762   95.5003  -40.9607 N   0  0  0  0  0  0  0  0  0  0  0  0
   91.8092   96.5492  -41.7412 N   0  0  0  0  0  0  0  0  0  0  0  0
   91.6227   96.1218  -42.9925 C   0  0  0  0  0  0  0  0  0  0  0  0
   91.1712   98.2182  -44.1226 N   0  0  0  0  0  0  0  0  0  0  0  0
   91.9698   98.8426  -44.4319 H   0  0  0  0  0  0  0  0  0  0  0  0
   85.8392   98.7974  -44.0782 Br  0  0  0  0  0  0  0  0  0  0  0  0
   87.6051   99.2777  -43.5431 C   0  0  0  0  0  0  0  0  0  0  0  0
   88.7176   98.5969  -44.0099 C   0  0  0  0  0  0  0  0  0  0  0  0
   90.0124   98.8840  -43.6713 C   0  0  0  0  0  0  0  0  0  0  0  0
   90.1491   99.9663  -42.7761 C   0  0  0  0  0  0  0  0  0  0  0  0
   89.0689  100.6630  -42.2935 C   0  0  0  0  0  0  0  0  0  0  0  0
   87.7905  100.3225  -42.6753 C   0  0  0  0  0  0  0  0  0  0  0  0
 15 16  1  0  0  0
 16 17  2  0  0  0
 16 21  1  0  0  0
 17 18  1  0  0  0
 18 19  2  0  0  0
 18 13  1  0  0  0
 19 20  1  0  0  0
 20 21  2  0  0  0
 13  1  1  0  0  0
  1  2  2  0  0  0
  1 12  1  0  0  0
  2  3  1  0  0  0
  3  4  2  0  0  0
  3  7  1  0  0  0
  4  5  1  0  0  0
  5  6  1  0  0  0
  6  7  2  0  0  0
  7  8  1  0  0  0
  8  9  1  0  0  0
  8 12  1  0  0  0
  9 10  2  0  0  0
 10 11  1  0  0  0
 11 12  2  0  0  0
 13 14  1  0  0  0
M  END
> <minimizedAffinity>
-6.31826

$$$$
201


 25 28  0  0  0  0  0  0  0  0999 V2000
   91.9590  100.8848  -43.2407 C   0  0  0  0  0  0  0  0  0  0  0  0
   91.1312  101.7835  -42.9496 O   0  0  0  0  0  0  0  0  0  0  0  0
   93.3338  101.1963  -43.2315 N   0  0  0  0  0  0  0  0  0  0  0  0
   94.0072  100.4361  -43.4763 H   0  0  0  0  0  0  0  0  0  0  0  0
   91.2210   97.3657  -43.6938 N   0  0  0  0  0  0  0  0  0  0  0  0
   90.2597   97.9317  -44.3741 N   0  0  0  0  0  0  0  0  0  0  0  0
   90.3653   99.2497  -44.3243 N   0  0  0  0  0  0  0  0  0  0  0  0
   91.4496   99.5601  -43.5730 C   0  0  0  0  0  0  0  0  0  0  0  0
   91.9779   98.3506  -43.1826 C   0  0  0  0  0  0  0  0  0  0  0  0
   91.7332   92.4138  -45.6484 Br  0  0  0  0  0  0  0  0  0  0  0  0
   91.7465   93.6995  -44.2411 C   0  0  0  0  0  0  0  0  0  0  0  0
   91.4785   95.0480  -44.4983 C   0  0  0  0  0  0  0  0  0  0  0  0
   91.4884   95.9726  -43.4825 C   0  0  0  0  0  0  0  0  0  0  0  0
   91.7697   95.5302  -42.2082 C   0  0  0  0  0  0  0  0  0  0  0  0
   92.0392   94.1840  -41.9378 C   0  0  0  0  0  0  0  0  0  0  0  0
   92.0261   93.2664  -42.9634 C   0  0  0  0  0  0  0  0  0  0  0  0
   93.8761  102.4963  -42.9078 C   0  0  0  0  0  0  0  0  0  0  0  0
   94.4129  102.5250  -41.5027 C   0  0  0  0  0  0  0  0  0  0  0  0
   93.7203  102.6241  -40.3427 N   0  0  0  0  0  0  0  0  0  0  0  0
   94.5720  102.6118  -39.3120 C   0  0  0  0  0  0  0  0  0  0  0  0
   95.8092  102.5044  -39.8533 N   0  0  0  0  0  0  0  0  0  0  0  0
   95.7134  102.4519  -41.1669 N   0  0  0  0  0  0  0  0  0  0  0  0
   93.8369  102.7215  -37.9997 C   0  0  0  0  0  0  0  0  0  0  0  0
   92.4962  103.2477  -38.4669 C   0  0  0  0  0  0  0  0  0  0  0  0
   92.3451  102.7424  -39.8892 C   0  0  0  0  0  0  0  0  0  0  0  0
 10 11  1  0  0  0
 11 12  2  0  0  0
 11 16  1  0  0  0
 12 13  1  0  0  0
 13 14  2  0  0  0
 13  5  1  0  0  0
 14 15  1  0  0  0
 15 16  2  0  0  0
  5  6  1  0  0  0
  5  9  1  0  0  0
  6  7  2  0  0  0
  7  8  1  0  0  0
  8  9  2  0  0  0
  8  1  1  0  0  0
  1  2  2  0  0  0
  1  3  1  0  0  0
  3 17  1  0  0  0
 17 18  1  0  0  0
 18 19  1  0  0  0
 18 22  2  0  0  0
 19 20  1  0  0  0
 19 25  1  0  0  0
 20 21  2  0  0  0
 20 23  1  0  0  0
 21 22  1  0  0  0
 23 24  1  0  0  0
 24 25  1  0  0  0
  3  4  1  0  0  0
M  END
> <minimizedAffinity>
-6.87087

$$$$
205


 25 28  0  0  0  0  0  0  0  0999 V2000
   91.2844   97.1172  -43.2173 N   0  0  0  0  0  0  0  0  0  0  0  0
   90.3838   97.8385  -44.0820 C   0  0  0  0  0  0  0  0  0  0  0  0
   89.9651   97.3909  -45.1868 O   0  0  0  0  0  0  0  0  0  0  0  0
   90.0580   99.1253  -43.4701 C   0  0  0  0  0  0  0  0  0  0  0  0
   89.8964  100.2059  -44.2916 O   0  0  0  0  0  0  0  0  0  0  0  0
   90.3953  101.2456  -43.5101 N   0  0  0  0  0  0  0  0  0  0  0  0
   91.5285  100.7714  -42.8228 C   0  0  0  0  0  0  0  0  0  0  0  0
   91.3639   99.4418  -42.7795 C   0  0  0  0  0  0  0  0  0  0  0  0
   91.8928   98.1357  -42.4041 C   0  0  0  0  0  0  0  0  0  0  0  0
   92.7451   97.9330  -41.5138 O   0  0  0  0  0  0  0  0  0  0  0  0
   90.0043  102.1940  -43.4478 H   0  0  0  0  0  0  0  0  0  0  0  0
   91.6789   92.4911  -45.8418 Br  0  0  0  0  0  0  0  0  0  0  0  0
   91.7540   93.5706  -44.2715 C   0  0  0  0  0  0  0  0  0  0  0  0
   91.5034   94.9194  -44.2869 C   0  0  0  0  0  0  0  0  0  0  0  0
   91.5487   95.7307  -43.1551 C   0  0  0  0  0  0  0  0  0  0  0  0
   91.8709   95.0830  -41.9726 C   0  0  0  0  0  0  0  0  0  0  0  0
   92.1245   93.7328  -41.9458 C   0  0  0  0  0  0  0  0  0  0  0  0
   92.0735   92.9383  -43.0875 C   0  0  0  0  0  0  0  0  0  0  0  0
   92.6247  101.5194  -42.2271 C   0  0  0  0  0  0  0  0  0  0  0  0
   92.6689  101.9366  -40.8935 C   0  0  0  0  0  0  0  0  0  0  0  0
   93.8121  102.5609  -40.6907 N   0  0  0  0  0  0  0  0  0  0  0  0
   94.4985  102.5627  -41.8309 N   0  0  0  0  0  0  0  0  0  0  0  0
   93.8047  101.9435  -42.7709 C   0  0  0  0  0  0  0  0  0  0  0  0
   94.2713  103.1645  -39.4409 C   0  0  0  0  0  0  0  0  0  0  0  0
   91.6048  101.7409  -39.8810 C   0  0  0  0  0  0  0  0  0  0  0  0
 12 13  1  0  0  0
 13 14  2  0  0  0
 13 18  1  0  0  0
 14 15  1  0  0  0
 15 16  2  0  0  0
 15  1  1  0  0  0
 16 17  1  0  0  0
 17 18  2  0  0  0
  1  2  1  0  0  0
  1  9  1  0  0  0
  2  3  2  0  0  0
  2  4  1  0  0  0
  4  5  1  0  0  0
  4  8  1  0  0  0
  5  6  1  0  0  0
  6  7  1  0  0  0
  7  8  2  0  0  0
  7 19  1  0  0  0
  8  9  1  0  0  0
  9 10  2  0  0  0
 19 20  2  0  0  0
 19 23  1  0  0  0
 20 21  1  0  0  0
 20 25  1  0  0  0
 21 22  1  0  0  0
 21 24  1  0  0  0
 22 23  2  0  0  0
  6 11  1  0  0  0
M  END
> <minimizedAffinity>
-6.91068

$$$$
211


 22 25  0  0  0  0  0  0  0  0999 V2000
   90.8108   97.6398  -45.1626 N   0  0  0  0  0  0  0  0  0  0  0  0
   89.5539   98.2899  -45.0390 C   0  0  0  0  0  0  0  0  0  0  0  0
   88.4138   97.7134  -45.1882 O   0  0  0  0  0  0  0  0  0  0  0  0
   89.7781   99.7065  -44.7163 C   0  0  0  0  0  0  0  0  0  0  0  0
   89.7479   99.8610  -43.2271 C   0  0  0  0  0  0  0  0  0  0  0  0
   90.9640   99.2104  -42.8956 O   0  0  0  0  0  0  0  0  0  0  0  0
   91.8120  100.0869  -43.6233 C   0  0  0  0  0  0  0  0  0  0  0  0
   91.2349   99.9221  -45.0172 C   0  0  0  0  0  0  0  0  0  0  0  0
   91.7470   98.6372  -45.5342 C   0  0  0  0  0  0  0  0  0  0  0  0
   92.8155   98.4766  -46.1801 O   0  0  0  0  0  0  0  0  0  0  0  0
   91.4018  101.3824  -43.0353 C   0  0  0  0  0  0  0  0  0  0  0  0
   90.0917  101.2326  -42.7631 C   0  0  0  0  0  0  0  0  0  0  0  0
   92.3633   93.9087  -41.7339 Br  0  0  0  0  0  0  0  0  0  0  0  0
   91.7764   94.4366  -43.4726 C   0  0  0  0  0  0  0  0  0  0  0  0
   91.5095   95.7433  -43.7293 C   0  0  0  0  0  0  0  0  0  0  0  0
   91.0798   96.2342  -44.9528 C   0  0  0  0  0  0  0  0  0  0  0  0
   90.9213   95.3070  -45.9573 C   0  0  0  0  0  0  0  0  0  0  0  0
   91.1866   93.9549  -45.7261 C   0  0  0  0  0  0  0  0  0  0  0  0
   91.6132   93.5166  -44.4899 C   0  0  0  0  0  0  0  0  0  0  0  0
   88.5672   99.2762  -42.5500 C   0  0  0  0  0  0  0  0  0  0  0  0
   87.7316  100.3133  -42.1320 O   0  0  0  0  0  0  0  0  0  0  0  0
   87.4578  100.1752  -41.1909 H   0  0  0  0  0  0  0  0  0  0  0  0
 13 14  1  0  0  0
 14 15  2  0  0  0
 14 19  1  0  0  0
 15 16  1  0  0  0
 16 17  2  0  0  0
 16  1  1  0  0  0
 17 18  1  0  0  0
 18 19  2  0  0  0
  1  2  1  0  0  0
  1  9  1  0  0  0
  2  3  2  0  0  0
  2  4  1  0  0  0
  4  5  1  0  0  0
  4  8  1  0  0  0
  5  6  1  0  0  0
  5 12  1  0  0  0
  5 20  1  0  0  0
  6  7  1  0  0  0
  7  8  1  0  0  0
  7 11  1  0  0  0
  8  9  1  0  0  0
  9 10  2  0  0  0
 11 12  2  0  0  0
 20 21  1  0  0  0
 21 22  1  0  0  0
M  END
> <minimizedAffinity>
-6.30504

$$$$
213


 25 28  0  0  0  0  0  0  0  0999 V2000
   91.1282   99.2245  -43.5642 N   0  0  0  0  0  0  0  0  0  0  0  0
   90.8107   99.2733  -44.9725 C   0  0  0  0  0  0  0  0  0  0  0  0
   91.0849  100.1626  -45.7859 O   0  0  0  0  0  0  0  0  0  0  0  0
   90.0673   98.0243  -45.3079 C   0  0  0  0  0  0  0  0  0  0  0  0
   90.3433   97.5173  -46.5645 O   0  0  0  0  0  0  0  0  0  0  0  0
   90.1751   96.1680  -46.3610 N   0  0  0  0  0  0  0  0  0  0  0  0
   90.8456   95.9092  -45.1145 C   0  0  0  0  0  0  0  0  0  0  0  0
   90.8031   97.0288  -44.4335 C   0  0  0  0  0  0  0  0  0  0  0  0
   91.1203   97.8170  -43.2366 C   0  0  0  0  0  0  0  0  0  0  0  0
   91.3400   97.2989  -42.1367 O   0  0  0  0  0  0  0  0  0  0  0  0
   89.6895   95.4788  -46.9450 H   0  0  0  0  0  0  0  0  0  0  0  0
   94.6783  102.7113  -41.7788 Br  0  0  0  0  0  0  0  0  0  0  0  0
   92.9231  101.9795  -41.8466 C   0  0  0  0  0  0  0  0  0  0  0  0
   92.6441  100.8823  -42.6678 C   0  0  0  0  0  0  0  0  0  0  0  0
   91.3817  100.3375  -42.7304 C   0  0  0  0  0  0  0  0  0  0  0  0
   90.4035  100.9113  -41.9569 C   0  0  0  0  0  0  0  0  0  0  0  0
   90.6789  102.0115  -41.1323 C   0  0  0  0  0  0  0  0  0  0  0  0
   91.9440  102.5555  -41.0712 C   0  0  0  0  0  0  0  0  0  0  0  0
   91.4634   94.6913  -44.6640 C   0  0  0  0  0  0  0  0  0  0  0  0
   92.0667   94.5762  -43.4135 C   0  0  0  0  0  0  0  0  0  0  0  0
   92.5443   93.3281  -43.2583 N   0  0  0  0  0  0  0  0  0  0  0  0
   92.2474   92.6883  -44.3764 N   0  0  0  0  0  0  0  0  0  0  0  0
   91.6006   93.4549  -45.2518 C   0  0  0  0  0  0  0  0  0  0  0  0
   91.0951   93.0822  -46.6162 C   0  0  0  0  0  0  0  0  0  0  0  0
   93.2519   92.7992  -42.0808 C   0  0  0  0  0  0  0  0  0  0  0  0
 12 13  1  0  0  0
 13 14  2  0  0  0
 13 18  1  0  0  0
 14 15  1  0  0  0
 15 16  2  0  0  0
 15  1  1  0  0  0
 16 17  1  0  0  0
 17 18  2  0  0  0
  1  2  1  0  0  0
  1  9  1  0  0  0
  2  3  2  0  0  0
  2  4  1  0  0  0
  4  5  1  0  0  0
  4  8  1  0  0  0
  5  6  1  0  0  0
  6  7  1  0  0  0
  7  8  2  0  0  0
  7 19  1  0  0  0
  8  9  1  0  0  0
  9 10  2  0  0  0
 19 20  2  0  0  0
 19 23  1  0  0  0
 20 21  1  0  0  0
 21 22  1  0  0  0
 21 25  1  0  0  0
 22 23  2  0  0  0
 23 24  1  0  0  0
  6 11  1  0  0  0
M  END
> <minimizedAffinity>
-6.76614

$$$$
216


 28 31  0  0  0  0  0  0  0  0999 V2000
   88.4468   99.1067  -45.0241 C   0  0  0  0  0  0  0  0  0  0  0  0
   88.9271   99.7003  -46.0219 O   0  0  0  0  0  0  0  0  0  0  0  0
   87.0619   99.1061  -44.7546 N   0  0  0  0  0  0  0  0  0  0  0  0
   86.4700   98.4278  -43.6099 C   0  0  0  0  0  0  0  0  0  0  0  0
   85.0421   98.0288  -43.9601 C   0  0  0  0  0  0  0  0  0  0  0  0
   84.8492   97.8233  -45.3821 N   0  0  0  0  0  0  0  0  0  0  0  0
   84.9593   99.0702  -46.0541 C   0  0  0  0  0  0  0  0  0  0  0  0
   86.1892   99.8293  -45.6882 C   0  0  0  0  0  0  0  0  0  0  0  0
   91.1099   97.0647  -43.7456 N   0  0  0  0  0  0  0  0  0  0  0  0
   90.3644   97.5277  -44.9065 C   0  0  0  0  0  0  0  0  0  0  0  0
   89.3563   98.4076  -44.1381 C   0  0  0  0  0  0  0  0  0  0  0  0
   90.3835   99.3163  -43.4536 C   0  0  0  0  0  0  0  0  0  0  0  0
   91.3346   98.2606  -43.0074 C   0  0  0  0  0  0  0  0  0  0  0  0
   92.2029   98.4026  -42.1161 O   0  0  0  0  0  0  0  0  0  0  0  0
   91.7326   92.2981  -45.8455 Br  0  0  0  0  0  0  0  0  0  0  0  0
   91.7849   93.4662  -44.3622 C   0  0  0  0  0  0  0  0  0  0  0  0
   91.4517   94.8045  -44.5389 C   0  0  0  0  0  0  0  0  0  0  0  0
   91.4666   95.7189  -43.5021 C   0  0  0  0  0  0  0  0  0  0  0  0
   91.8333   95.2229  -42.2704 C   0  0  0  0  0  0  0  0  0  0  0  0
   92.1749   93.9092  -42.0238 C   0  0  0  0  0  0  0  0  0  0  0  0
   92.1464   93.0334  -43.0873 C   0  0  0  0  0  0  0  0  0  0  0  0
   85.6199   96.7423  -45.8847 C   0  0  0  0  0  0  0  0  0  0  0  0
   85.6988   96.6898  -47.3892 C   0  0  0  0  0  0  0  0  0  0  0  0
   87.0168   96.9038  -47.9140 N   0  0  0  0  0  0  0  0  0  0  0  0
   88.1654   96.3449  -47.5288 C   0  0  0  0  0  0  0  0  0  0  0  0
   89.1772   96.8289  -48.2809 N   0  0  0  0  0  0  0  0  0  0  0  0
   88.6661   97.7049  -49.1538 C   0  0  0  0  0  0  0  0  0  0  0  0
   87.3122   97.7446  -48.9149 C   0  0  0  0  0  0  0  0  0  0  0  0
 15 16  1  0  0  0
 16 17  2  0  0  0
 16 21  1  0  0  0
 17 18  1  0  0  0
 18 19  2  0  0  0
 18  9  1  0  0  0
 19 20  1  0  0  0
 20 21  2  0  0  0
  9 10  1  0  0  0
  9 13  1  0  0  0
 10 11  1  0  0  0
 11 12  1  0  0  0
 11  1  1  0  0  0
 12 13  1  0  0  0
 13 14  2  0  0  0
  1  2  2  0  0  0
  1  3  1  0  0  0
  3  4  1  0  0  0
  3  8  1  0  0  0
  4  5  1  0  0  0
  5  6  1  0  0  0
  6  7  1  0  0  0
  6 22  1  0  0  0
  7  8  1  0  0  0
 22 23  1  0  0  0
 23 24  1  0  0  0
 24 25  1  0  0  0
 24 28  1  0  0  0
 25 26  2  0  0  0
 26 27  1  0  0  0
 27 28  2  0  0  0
M  END
> <minimizedAffinity>
-6.12615

$$$$
219


 27 30  0  0  0  0  0  0  0  0999 V2000
   91.0642   91.1386  -47.4388 N   0  0  0  0  0  0  0  0  0  0  0  0
   91.9566   90.4005  -48.2640 C   0  0  0  0  0  0  0  0  0  0  0  0
   93.1115   90.1857  -47.7545 O   0  0  0  0  0  0  0  0  0  0  0  0
   90.1082   91.3384  -47.8011 H   0  0  0  0  0  0  0  0  0  0  0  0
   91.6396   89.8925  -49.6144 C   0  0  0  0  0  0  0  0  0  0  0  0
   90.6380   88.8620  -49.6490 N   0  0  0  0  0  0  0  0  0  0  0  0
   89.2403   89.1620  -49.8000 C   0  0  0  0  0  0  0  0  0  0  0  0
   88.6667   90.2663  -49.6262 O   0  0  0  0  0  0  0  0  0  0  0  0
   88.5638   87.9292  -50.2029 C   0  0  0  0  0  0  0  0  0  0  0  0
   89.6458   86.8350  -50.2994 C   0  0  0  0  0  0  0  0  0  0  0  0
   89.1329   85.6750  -49.5214 C   0  0  0  0  0  0  0  0  0  0  0  0
   87.6103   85.8756  -49.6737 C   0  0  0  0  0  0  0  0  0  0  0  0
   87.6656   87.3273  -49.1572 C   0  0  0  0  0  0  0  0  0  0  0  0
   88.4812   87.0922  -47.9178 C   0  0  0  0  0  0  0  0  0  0  0  0
   89.2471   86.0186  -48.0821 C   0  0  0  0  0  0  0  0  0  0  0  0
   90.7900   87.4385  -49.5678 C   0  0  0  0  0  0  0  0  0  0  0  0
   91.7175   86.8513  -48.9842 O   0  0  0  0  0  0  0  0  0  0  0  0
   91.4260   91.6144  -46.1381 C   0  0  0  0  0  0  0  0  0  0  0  0
   91.7251   93.1211  -46.1816 C   0  0  0  0  0  0  0  0  0  0  0  0
   91.7057   93.6516  -45.0024 O   0  0  0  0  0  0  0  0  0  0  0  0
   91.5956   98.2833  -42.6346 Br  0  0  0  0  0  0  0  0  0  0  0  0
   91.6696   96.3754  -42.6586 C   0  0  0  0  0  0  0  0  0  0  0  0
   91.6621   95.6640  -43.8270 C   0  0  0  0  0  0  0  0  0  0  0  0
   91.7155   94.2591  -43.8738 C   0  0  0  0  0  0  0  0  0  0  0  0
   91.7791   93.6299  -42.6141 C   0  0  0  0  0  0  0  0  0  0  0  0
   91.7872   94.3414  -41.4395 C   0  0  0  0  0  0  0  0  0  0  0  0
   91.7321   95.7208  -41.4584 C   0  0  0  0  0  0  0  0  0  0  0  0
 21 22  1  0  0  0
 22 23  2  0  0  0
 22 27  1  0  0  0
 23 24  1  0  0  0
 24 25  2  0  0  0
 24 20  1  0  0  0
 25 26  1  0  0  0
 26 27  2  0  0  0
 20 19  1  0  0  0
 19 18  1  0  0  0
 18  1  1  0  0  0
  1  2  1  0  0  0
  2  3  2  0  0  0
  2  5  1  0  0  0
  5  6  1  0  0  0
  6  7  1  0  0  0
  6 16  1  0  0  0
  7  8  2  0  0  0
  7  9  1  0  0  0
  9 10  1  0  0  0
  9 13  1  0  0  0
 10 11  1  0  0  0
 10 16  1  0  0  0
 11 12  1  0  0  0
 11 15  1  0  0  0
 12 13  1  0  0  0
 13 14  1  0  0  0
 14 15  2  0  0  0
 16 17  2  0  0  0
  1  4  1  0  0  0
M  END
> <minimizedAffinity>
-7.08235

$$$$
226


 30 33  0  0  0  0  0  0  0  0999 V2000
   91.1479   98.0443  -44.3798 N   0  0  0  0  0  0  0  0  0  0  0  0
   91.2818   96.7131  -44.2593 C   0  0  0  0  0  0  0  0  0  0  0  0
   91.5625   96.3896  -42.9456 C   0  0  0  0  0  0  0  0  0  0  0  0
   91.5888   97.5611  -42.2985 N   0  0  0  0  0  0  0  0  0  0  0  0
   91.3412   98.5797  -43.1411 C   0  0  0  0  0  0  0  0  0  0  0  0
   91.7360   95.1042  -42.5883 N   0  0  0  0  0  0  0  0  0  0  0  0
   91.6407   94.1200  -43.4994 C   0  0  0  0  0  0  0  0  0  0  0  0
   91.7953   92.9078  -43.2091 O   0  0  0  0  0  0  0  0  0  0  0  0
   91.3638   94.4245  -44.7973 N   0  0  0  0  0  0  0  0  0  0  0  0
   91.1824   95.6939  -45.2034 C   0  0  0  0  0  0  0  0  0  0  0  0
   90.9271   95.9383  -46.4274 O   0  0  0  0  0  0  0  0  0  0  0  0
   92.0324   94.7327  -41.2200 C   0  0  0  0  0  0  0  0  0  0  0  0
   91.2971   93.6292  -45.4742 H   0  0  0  0  0  0  0  0  0  0  0  0
   91.2721   99.9662  -42.8634 N   0  0  0  0  0  0  0  0  0  0  0  0
   90.1235  100.4818  -42.1912 C   0  0  0  0  0  0  0  0  0  0  0  0
   90.2332  101.8411  -41.6077 C   0  0  0  0  0  0  0  0  0  0  0  0
   91.2057  102.7031  -42.2118 N   0  0  0  0  0  0  0  0  0  0  0  0
   92.4671  101.9898  -42.2615 C   0  0  0  0  0  0  0  0  0  0  0  0
   92.3455  100.8291  -43.2504 C   0  0  0  0  0  0  0  0  0  0  0  0
   90.8050  103.2185  -43.4897 C   0  0  0  0  0  0  0  0  0  0  0  0
   90.8481   98.7846  -45.5728 C   0  0  0  0  0  0  0  0  0  0  0  0
   89.4484   99.3125  -45.6008 C   0  0  0  0  0  0  0  0  0  0  0  0
   89.2239  100.5237  -45.4441 O   0  0  0  0  0  0  0  0  0  0  0  0
   84.6471   95.5140  -46.5258 Br  0  0  0  0  0  0  0  0  0  0  0  0
   86.1121   96.6848  -46.2105 C   0  0  0  0  0  0  0  0  0  0  0  0
   87.0127   96.9665  -47.2274 C   0  0  0  0  0  0  0  0  0  0  0  0
   88.0893   97.8148  -47.0283 C   0  0  0  0  0  0  0  0  0  0  0  0
   88.3152   98.4148  -45.8138 C   0  0  0  0  0  0  0  0  0  0  0  0
   87.4103   98.1260  -44.8079 C   0  0  0  0  0  0  0  0  0  0  0  0
   86.3359   97.2858  -44.9917 C   0  0  0  0  0  0  0  0  0  0  0  0
 24 25  1  0  0  0
 25 26  2  0  0  0
 25 30  1  0  0  0
 26 27  1  0  0  0
 27 28  2  0  0  0
 28 29  1  0  0  0
 28 22  1  0  0  0
 29 30  2  0  0  0
 22 23  2  0  0  0
 22 21  1  0  0  0
 21  1  1  0  0  0
  1  2  1  0  0  0
  1  5  1  0  0  0
  2  3  2  0  0  0
  2 10  1  0  0  0
  3  4  1  0  0  0
  3  6  1  0  0  0
  4  5  2  0  0  0
  5 14  1  0  0  0
 14 15  1  0  0  0
 14 19  1  0  0  0
 15 16  1  0  0  0
 16 17  1  0  0  0
 17 18  1  0  0  0
 17 20  1  0  0  0
 18 19  1  0  0  0
  6  7  1  0  0  0
  6 12  1  0  0  0
  7  8  2  0  0  0
  7  9  1  0  0  0
  9 10  1  0  0  0
 10 11  2  0  0  0
  9 13  1  0  0  0
M  END
> <minimizedAffinity>
-6.39208

$$$$
231


 34 37  0  0  0  0  0  0  0  0999 V2000
   91.2702   99.8280  -45.1899 C   0  0  0  0  0  0  0  0  0  0  0  0
   90.2008   98.8014  -44.9067 C   0  0  0  0  0  0  0  0  0  0  0  0
   89.3437   98.9280  -46.0630 N   0  0  0  0  0  0  0  0  0  0  0  0
   90.1958   99.2401  -47.1603 C   0  0  0  0  0  0  0  0  0  0  0  0
   89.8471   99.2912  -48.3803 O   0  0  0  0  0  0  0  0  0  0  0  0
   91.5513   99.4910  -46.6339 C   0  0  0  0  0  0  0  0  0  0  0  0
   92.6250   99.4309  -47.2538 O   0  0  0  0  0  0  0  0  0  0  0  0
   90.7029   97.4558  -44.6756 C   0  0  0  0  0  0  0  0  0  0  0  0
   91.0978   97.0175  -43.4034 C   0  0  0  0  0  0  0  0  0  0  0  0
   91.5691   95.7385  -43.1911 C   0  0  0  0  0  0  0  0  0  0  0  0
   91.6688   94.8334  -44.2315 C   0  0  0  0  0  0  0  0  0  0  0  0
   91.2849   95.2431  -45.4905 C   0  0  0  0  0  0  0  0  0  0  0  0
   90.8142   96.5317  -45.6880 C   0  0  0  0  0  0  0  0  0  0  0  0
   92.1402   93.5399  -44.0452 O   0  0  0  0  0  0  0  0  0  0  0  0
   91.9609   95.3000  -41.9384 O   0  0  0  0  0  0  0  0  0  0  0  0
   92.2599   96.1620  -40.8703 C   0  0  0  0  0  0  0  0  0  0  0  0
   92.4574   99.7284  -44.3614 C   0  0  0  0  0  0  0  0  0  0  0  0
   93.3952   98.9620  -44.6636 O   0  0  0  0  0  0  0  0  0  0  0  0
   93.0143  103.1693  -39.3142 Br  0  0  0  0  0  0  0  0  0  0  0  0
   92.8262  102.0901  -40.8637 C   0  0  0  0  0  0  0  0  0  0  0  0
   93.4404  102.4870  -42.0273 C   0  0  0  0  0  0  0  0  0  0  0  0
   93.3126  101.7171  -43.1540 C   0  0  0  0  0  0  0  0  0  0  0  0
   92.5718  100.5294  -43.1563 C   0  0  0  0  0  0  0  0  0  0  0  0
   91.9809  100.1876  -41.9569 C   0  0  0  0  0  0  0  0  0  0  0  0
   92.0873  100.9387  -40.8010 C   0  0  0  0  0  0  0  0  0  0  0  0
   87.9135   98.7860  -46.1752 C   0  0  0  0  0  0  0  0  0  0  0  0
   87.1471   99.8518  -45.4525 C   0  0  0  0  0  0  0  0  0  0  0  0
   86.9500   99.6318  -44.0720 N   0  0  0  0  0  0  0  0  0  0  0  0
   86.2520   98.3520  -43.9105 C   0  0  0  0  0  0  0  0  0  0  0  0
   84.8316   98.4127  -44.3660 C   0  0  0  0  0  0  0  0  0  0  0  0
   84.3405   99.6813  -44.5548 O   0  0  0  0  0  0  0  0  0  0  0  0
   84.7180  100.5195  -43.5349 C   0  0  0  0  0  0  0  0  0  0  0  0
   86.2101  100.6165  -43.3660 C   0  0  0  0  0  0  0  0  0  0  0  0
   87.8725   99.4954  -43.5724 H   0  0  0  0  0  0  0  0  0  0  0  0
 19 20  1  0  0  0
 20 21  2  0  0  0
 20 25  1  0  0  0
 21 22  1  0  0  0
 22 23  2  0  0  0
 23 24  1  0  0  0
 23 17  1  0  0  0
 24 25  2  0  0  0
 17 18  2  0  0  0
 17  1  1  0  0  0
  1  2  1  0  0  0
  1  6  1  0  0  0
  2  3  1  0  0  0
  2  8  1  0  0  0
  3  4  1  0  0  0
  3 26  1  0  0  0
  4  5  2  0  0  0
  4  6  1  0  0  0
  6  7  2  0  0  0
 26 27  1  0  0  0
 27 28  1  0  0  0
 28 29  1  0  0  0
 28 33  1  0  0  0
 29 30  1  0  0  0
 30 31  1  0  0  0
 31 32  1  0  0  0
 32 33  1  0  0  0
  8  9  2  0  0  0
  8 13  1  0  0  0
  9 10  1  0  0  0
 10 11  2  0  0  0
 10 15  1  0  0  0
 11 12  1  0  0  0
 11 14  1  0  0  0
 12 13  2  0  0  0
 15 16  1  0  0  0
 28 34  1  0  0  0
M  CHG 1  14  -1
M  CHG 1  28   1
M  END
> <minimizedAffinity>
-6.18608

$$$$
235


 25 28  0  0  0  0  0  0  0  0999 V2000
   89.9526   98.0264  -44.5960 C   0  0  0  0  0  0  0  0  0  0  0  0
   89.9581   99.1858  -43.7177 N   0  0  0  0  0  0  0  0  0  0  0  0
   90.5943   99.5705  -42.5554 N   0  0  0  0  0  0  0  0  0  0  0  0
   90.4872  100.7441  -42.0396 C   0  0  0  0  0  0  0  0  0  0  0  0
   89.6534  101.7336  -42.6822 C   0  0  0  0  0  0  0  0  0  0  0  0
   88.9934  101.4347  -43.7769 C   0  0  0  0  0  0  0  0  0  0  0  0
   89.0527  100.1183  -44.3841 C   0  0  0  0  0  0  0  0  0  0  0  0
   89.5547  100.0584  -45.7833 C   0  0  0  0  0  0  0  0  0  0  0  0
   90.2292   98.6893  -45.9275 C   0  0  0  0  0  0  0  0  0  0  0  0
   91.6410   99.0104  -46.1248 C   0  0  0  0  0  0  0  0  0  0  0  0
   92.5993   98.1949  -46.0268 O   0  0  0  0  0  0  0  0  0  0  0  0
   91.7587  100.3837  -46.4417 N   0  0  0  0  0  0  0  0  0  0  0  0
   90.5655  101.0757  -46.0967 C   0  0  0  0  0  0  0  0  0  0  0  0
   90.3986  102.3189  -46.0634 O   0  0  0  0  0  0  0  0  0  0  0  0
   90.9891   97.0580  -44.2127 C   0  0  0  0  0  0  0  0  0  0  0  0
   91.8154   97.4356  -43.3197 O   0  0  0  0  0  0  0  0  0  0  0  0
   91.5666   91.4073  -46.6322 Br  0  0  0  0  0  0  0  0  0  0  0  0
   91.3796   93.1602  -45.8992 C   0  0  0  0  0  0  0  0  0  0  0  0
   91.9422   93.4902  -44.6855 C   0  0  0  0  0  0  0  0  0  0  0  0
   91.8346   94.7391  -44.1170 C   0  0  0  0  0  0  0  0  0  0  0  0
   91.1400   95.7295  -44.7621 C   0  0  0  0  0  0  0  0  0  0  0  0
   90.5697   95.4095  -45.9839 C   0  0  0  0  0  0  0  0  0  0  0  0
   90.6826   94.1581  -46.5445 C   0  0  0  0  0  0  0  0  0  0  0  0
   92.9139  101.0175  -47.0329 C   0  0  0  0  0  0  0  0  0  0  0  0
   92.9321  100.9532  -48.5299 C   0  0  0  0  0  0  0  0  0  0  0  0
 17 18  1  0  0  0
 18 19  2  0  0  0
 18 23  1  0  0  0
 19 20  1  0  0  0
 20 21  2  0  0  0
 21 22  1  0  0  0
 21 15  1  0  0  0
 22 23  2  0  0  0
 15 16  2  0  0  0
 15  1  1  0  0  0
  1  2  1  0  0  0
  1  9  1  0  0  0
  2  3  1  0  0  0
  2  7  1  0  0  0
  3  4  2  0  0  0
  4  5  1  0  0  0
  5  6  2  0  0  0
  6  7  1  0  0  0
  7  8  1  0  0  0
  8  9  1  0  0  0
  8 13  1  0  0  0
  9 10  1  0  0  0
 10 11  2  0  0  0
 10 12  1  0  0  0
 12 13  1  0  0  0
 12 24  1  0  0  0
 13 14  2  0  0  0
 24 25  1  0  0  0
M  END
> <minimizedAffinity>
-5.95480

$$$$
243


 30 33  0  0  0  0  0  0  0  0999 V2000
   90.2060  102.4134  -42.2628 C   0  0  0  0  0  0  0  0  0  0  0  0
   89.2945  101.2115  -42.3065 C   0  0  0  0  0  0  0  0  0  0  0  0
   90.0011  100.2575  -43.1342 N   0  0  0  0  0  0  0  0  0  0  0  0
   91.0156  100.9385  -43.9213 C   0  0  0  0  0  0  0  0  0  0  0  0
   91.0497  102.3678  -43.5065 C   0  0  0  0  0  0  0  0  0  0  0  0
   92.2834  100.2179  -43.6654 C   0  0  0  0  0  0  0  0  0  0  0  0
   93.3109  100.8682  -43.3711 O   0  0  0  0  0  0  0  0  0  0  0  0
   92.2802   98.8055  -43.7655 N   0  0  0  0  0  0  0  0  0  0  0  0
   91.0814   98.0006  -43.7195 C   0  0  0  0  0  0  0  0  0  0  0  0
   89.9196   98.8526  -43.3356 C   0  0  0  0  0  0  0  0  0  0  0  0
   88.7666   98.3145  -43.1681 O   0  0  0  0  0  0  0  0  0  0  0  0
   93.2225   98.3467  -43.8785 H   0  0  0  0  0  0  0  0  0  0  0  0
   90.8658  103.2288  -40.0276 C   0  0  0  0  0  0  0  0  0  0  0  0
   89.8722  104.0314  -40.0085 O   0  0  0  0  0  0  0  0  0  0  0  0
   91.0888  102.3929  -41.1248 N   0  0  0  0  0  0  0  0  0  0  0  0
   91.8936  101.7444  -41.1371 H   0  0  0  0  0  0  0  0  0  0  0  0
   94.4780  103.3542  -34.9855 Br  0  0  0  0  0  0  0  0  0  0  0  0
   93.3967  103.3026  -36.5471 C   0  0  0  0  0  0  0  0  0  0  0  0
   93.8509  102.8468  -37.7678 C   0  0  0  0  0  0  0  0  0  0  0  0
   93.0392  102.8225  -38.8835 C   0  0  0  0  0  0  0  0  0  0  0  0
   91.7298  103.2543  -38.8387 C   0  0  0  0  0  0  0  0  0  0  0  0
   91.2771  103.7090  -37.6218 C   0  0  0  0  0  0  0  0  0  0  0  0
   92.0767  103.7373  -36.5043 C   0  0  0  0  0  0  0  0  0  0  0  0
   90.8576   97.2755  -45.0245 C   0  0  0  0  0  0  0  0  0  0  0  0
   91.1812   95.8259  -44.9046 C   0  0  0  0  0  0  0  0  0  0  0  0
   91.1353   94.9947  -46.0245 C   0  0  0  0  0  0  0  0  0  0  0  0
   91.4445   93.6633  -45.8549 C   0  0  0  0  0  0  0  0  0  0  0  0
   91.7967   93.1204  -44.6315 C   0  0  0  0  0  0  0  0  0  0  0  0
   91.8281   93.9788  -43.5574 C   0  0  0  0  0  0  0  0  0  0  0  0
   91.5284   95.3188  -43.6655 C   0  0  0  0  0  0  0  0  0  0  0  0
 17 18  1  0  0  0
 18 19  2  0  0  0
 18 23  1  0  0  0
 19 20  1  0  0  0
 20 21  2  0  0  0
 21 22  1  0  0  0
 21 13  1  0  0  0
 22 23  2  0  0  0
 13 14  2  0  0  0
 13 15  1  0  0  0
 15  1  1  0  0  0
  1  2  1  0  0  0
  1  5  1  0  0  0
  2  3  1  0  0  0
  3  4  1  0  0  0
  3 10  1  0  0  0
  4  5  1  0  0  0
  4  6  1  0  0  0
  6  7  2  0  0  0
  6  8  1  0  0  0
  8  9  1  0  0  0
  9 10  1  0  0  0
  9 24  1  0  0  0
 10 11  2  0  0  0
 24 25  1  0  0  0
 25 26  2  0  0  0
 25 30  1  0  0  0
 26 27  1  0  0  0
 27 28  2  0  0  0
 28 29  1  0  0  0
 29 30  2  0  0  0
 15 16  1  0  0  0
  8 12  1  0  0  0
M  END
> <minimizedAffinity>
-6.15233

$$$$
244


 25 28  0  0  0  0  0  0  0  0999 V2000
   90.9971   98.7787  -42.8733 C   0  0  0  0  0  0  0  0  0  0  0  0
   89.7680   99.6364  -43.0652 C   0  0  0  0  0  0  0  0  0  0  0  0
   90.1226  100.4637  -44.2048 N   0  0  0  0  0  0  0  0  0  0  0  0
   91.5655  100.5908  -44.2666 C   0  0  0  0  0  0  0  0  0  0  0  0
   92.1577   99.6619  -43.2609 C   0  0  0  0  0  0  0  0  0  0  0  0
   91.9595  100.2680  -45.6614 C   0  0  0  0  0  0  0  0  0  0  0  0
   92.9135   99.5103  -45.9551 O   0  0  0  0  0  0  0  0  0  0  0  0
   91.2368  100.8317  -46.7402 N   0  0  0  0  0  0  0  0  0  0  0  0
   89.8499  101.2315  -46.6217 C   0  0  0  0  0  0  0  0  0  0  0  0
   89.9094  102.6227  -47.1678 C   0  0  0  0  0  0  0  0  0  0  0  0
   90.8581  102.4422  -48.3589 C   0  0  0  0  0  0  0  0  0  0  0  0
   91.6166  101.1386  -48.0909 C   0  0  0  0  0  0  0  0  0  0  0  0
   89.3839  101.1388  -45.2152 C   0  0  0  0  0  0  0  0  0  0  0  0
   88.2762  101.6801  -44.8765 O   0  0  0  0  0  0  0  0  0  0  0  0
   91.4577   96.3833  -43.1853 C   0  0  0  0  0  0  0  0  0  0  0  0
   91.8232   96.3108  -41.9936 O   0  0  0  0  0  0  0  0  0  0  0  0
   91.0175   97.6247  -43.7109 N   0  0  0  0  0  0  0  0  0  0  0  0
   90.7020   97.7305  -44.7078 H   0  0  0  0  0  0  0  0  0  0  0  0
   91.5420   91.3982  -46.8461 Br  0  0  0  0  0  0  0  0  0  0  0  0
   91.5368   92.8933  -45.6767 C   0  0  0  0  0  0  0  0  0  0  0  0
   91.1342   94.1315  -46.1471 C   0  0  0  0  0  0  0  0  0  0  0  0
   91.1120   95.2484  -45.3412 C   0  0  0  0  0  0  0  0  0  0  0  0
   91.4939   95.1667  -44.0205 C   0  0  0  0  0  0  0  0  0  0  0  0
   91.8910   93.9510  -43.5512 C   0  0  0  0  0  0  0  0  0  0  0  0
   91.9205   92.8112  -44.3514 C   0  0  0  0  0  0  0  0  0  0  0  0
 19 20  1  0  0  0
 20 21  2  0  0  0
 20 25  1  0  0  0
 21 22  1  0  0  0
 22 23  2  0  0  0
 23 24  1  0  0  0
 23 15  1  0  0  0
 24 25  2  0  0  0
 15 16  2  0  0  0
 15 17  1  0  0  0
 17  1  1  0  0  0
  1  2  1  0  0  0
  1  5  1  0  0  0
  2  3  1  0  0  0
  3  4  1  0  0  0
  3 13  1  0  0  0
  4  5  1  0  0  0
  4  6  1  0  0  0
  6  7  2  0  0  0
  6  8  1  0  0  0
  8  9  1  0  0  0
  8 12  1  0  0  0
  9 10  1  0  0  0
  9 13  1  0  0  0
 10 11  1  0  0  0
 11 12  1  0  0  0
 13 14  2  0  0  0
 17 18  1  0  0  0
M  END
> <minimizedAffinity>
-6.02675

$$$$
247


 23 26  0  0  0  0  0  0  0  0999 V2000
   90.0699   89.1746  -49.0405 N   0  0  0  0  0  0  0  0  0  0  0  0
   90.8771   88.0950  -49.4963 C   0  0  0  0  0  0  0  0  0  0  0  0
   92.0492   87.8936  -49.0282 O   0  0  0  0  0  0  0  0  0  0  0  0
   90.1611   87.3088  -50.5344 C   0  0  0  0  0  0  0  0  0  0  0  0
   88.7851   87.9465  -50.5173 C   0  0  0  0  0  0  0  0  0  0  0  0
   88.0286   86.9597  -49.6541 C   0  0  0  0  0  0  0  0  0  0  0  0
   88.4464   85.6803  -50.4088 C   0  0  0  0  0  0  0  0  0  0  0  0
   89.9383   85.8910  -50.0890 C   0  0  0  0  0  0  0  0  0  0  0  0
   89.8157   85.9444  -48.5889 C   0  0  0  0  0  0  0  0  0  0  0  0
   88.7470   86.7024  -48.3752 C   0  0  0  0  0  0  0  0  0  0  0  0
   88.9294   89.2627  -49.8707 C   0  0  0  0  0  0  0  0  0  0  0  0
   88.1767   90.2459  -50.0414 O   0  0  0  0  0  0  0  0  0  0  0  0
   90.9286   91.3050  -48.1367 C   0  0  0  0  0  0  0  0  0  0  0  0
   91.3289   91.6901  -49.2831 O   0  0  0  0  0  0  0  0  0  0  0  0
   90.2914   90.0594  -47.9533 N   0  0  0  0  0  0  0  0  0  0  0  0
   89.9682   89.7761  -47.0109 H   0  0  0  0  0  0  0  0  0  0  0  0
   91.9039   94.9049  -43.2543 Br  0  0  0  0  0  0  0  0  0  0  0  0
   91.5944   93.8084  -44.7903 C   0  0  0  0  0  0  0  0  0  0  0  0
   91.9703   92.4969  -44.7721 C   0  0  0  0  0  0  0  0  0  0  0  0
   91.7521   91.6904  -45.8700 C   0  0  0  0  0  0  0  0  0  0  0  0
   91.1468   92.1909  -47.0185 C   0  0  0  0  0  0  0  0  0  0  0  0
   90.7744   93.5154  -47.0186 C   0  0  0  0  0  0  0  0  0  0  0  0
   90.9866   94.3259  -45.9336 C   0  0  0  0  0  0  0  0  0  0  0  0
 17 18  1  0  0  0
 18 19  2  0  0  0
 18 23  1  0  0  0
 19 20  1  0  0  0
 20 21  2  0  0  0
 21 22  1  0  0  0
 21 13  1  0  0  0
 22 23  2  0  0  0
 13 14  2  0  0  0
 13 15  1  0  0  0
 15  1  1  0  0  0
  1  2  1  0  0  0
  1 11  1  0  0  0
  2  3  2  0  0  0
  2  4  1  0  0  0
  4  5  1  0  0  0
  4  8  1  0  0  0
  5  6  1  0  0  0
  5 11  1  0  0  0
  6  7  1  0  0  0
  6 10  1  0  0  0
  7  8  1  0  0  0
  8  9  1  0  0  0
  9 10  2  0  0  0
 11 12  2  0  0  0
 15 16  1  0  0  0
M  END
> <minimizedAffinity>
-6.21662

$$$$
257


 31 34  0  0  0  0  0  0  0  0999 V2000
   91.9137  101.5871  -45.3572 C   0  0  0  0  0  0  0  0  0  0  0  0
   92.2998  100.3675  -45.0840 C   0  0  0  0  0  0  0  0  0  0  0  0
   92.6369   99.7719  -43.7515 C   0  0  0  0  0  0  0  0  0  0  0  0
   92.0668   98.4377  -43.8965 N   0  0  0  0  0  0  0  0  0  0  0  0
   92.3800   98.0619  -45.2525 C   0  0  0  0  0  0  0  0  0  0  0  0
   92.4897   96.8902  -45.6491 O   0  0  0  0  0  0  0  0  0  0  0  0
   92.5369   99.2954  -46.0387 C   0  0  0  0  0  0  0  0  0  0  0  0
   92.8163   99.4045  -47.2615 O   0  0  0  0  0  0  0  0  0  0  0  0
   91.7839  102.5069  -44.2981 O   0  0  0  0  0  0  0  0  0  0  0  0
   90.7644  103.3600  -51.1766 Br  0  0  0  0  0  0  0  0  0  0  0  0
   91.1398  102.8142  -49.3901 C   0  0  0  0  0  0  0  0  0  0  0  0
   92.3400  103.0666  -48.7609 C   0  0  0  0  0  0  0  0  0  0  0  0
   92.5942  102.6640  -47.4680 C   0  0  0  0  0  0  0  0  0  0  0  0
   91.6272  101.9707  -46.7286 C   0  0  0  0  0  0  0  0  0  0  0  0
   90.4329  101.7265  -47.3723 C   0  0  0  0  0  0  0  0  0  0  0  0
   90.1745  102.1325  -48.6800 C   0  0  0  0  0  0  0  0  0  0  0  0
   92.0146  100.5519  -42.6536 C   0  0  0  0  0  0  0  0  0  0  0  0
   90.6741  100.5799  -42.5839 N   0  0  0  0  0  0  0  0  0  0  0  0
   90.0036  101.2378  -41.6352 C   0  0  0  0  0  0  0  0  0  0  0  0
   90.7282  101.9199  -40.6856 C   0  0  0  0  0  0  0  0  0  0  0  0
   92.1028  101.9186  -40.7181 C   0  0  0  0  0  0  0  0  0  0  0  0
   92.7432  101.2265  -41.7136 C   0  0  0  0  0  0  0  0  0  0  0  0
   91.3670   97.6801  -42.9002 C   0  0  0  0  0  0  0  0  0  0  0  0
   92.3118   97.0781  -41.8717 C   0  0  0  0  0  0  0  0  0  0  0  0
   91.5844   95.9124  -41.2021 C   0  0  0  0  0  0  0  0  0  0  0  0
   92.0505   94.6336  -41.7022 N   0  0  0  0  0  0  0  0  0  0  0  0
   91.4204   93.8121  -42.5742 C   0  0  0  0  0  0  0  0  0  0  0  0
   92.1857   92.7271  -42.7807 N   0  0  0  0  0  0  0  0  0  0  0  0
   93.3099   92.8251  -42.0557 C   0  0  0  0  0  0  0  0  0  0  0  0
   93.2052   94.0279  -41.3868 C   0  0  0  0  0  0  0  0  0  0  0  0
   91.9575   91.9094  -43.4133 H   0  0  0  0  0  0  0  0  0  0  0  0
 10 11  1  0  0  0
 11 12  2  0  0  0
 11 16  1  0  0  0
 12 13  1  0  0  0
 13 14  2  0  0  0
 14 15  1  0  0  0
 14  1  1  0  0  0
 15 16  2  0  0  0
  1  2  2  0  0  0
  1  9  1  0  0  0
  2  3  1  0  0  0
  2  7  1  0  0  0
  3  4  1  0  0  0
  3 17  1  0  0  0
  4  5  1  0  0  0
  4 23  1  0  0  0
  5  6  2  0  0  0
  5  7  1  0  0  0
  7  8  2  0  0  0
 23 24  1  0  0  0
 24 25  1  0  0  0
 25 26  1  0  0  0
 26 27  1  0  0  0
 26 30  1  0  0  0
 27 28  2  0  0  0
 28 29  1  0  0  0
 29 30  2  0  0  0
 17 18  2  0  0  0
 17 22  1  0  0  0
 18 19  1  0  0  0
 19 20  2  0  0  0
 20 21  1  0  0  0
 21 22  2  0  0  0
 28 31  1  0  0  0
M  CHG 1   9  -1
M  END
> <minimizedAffinity>
-6.15137

$$$$
263


 34 37  0  0  0  0  0  0  0  0999 V2000
   92.3896  101.6378  -45.1331 C   0  0  0  0  0  0  0  0  0  0  0  0
   92.4611  100.3460  -44.9491 C   0  0  0  0  0  0  0  0  0  0  0  0
   92.4592   99.6123  -43.6331 C   0  0  0  0  0  0  0  0  0  0  0  0
   91.8078   98.3862  -43.9421 N   0  0  0  0  0  0  0  0  0  0  0  0
   92.0881   98.0946  -45.3326 C   0  0  0  0  0  0  0  0  0  0  0  0
   92.0023   96.9848  -45.9112 O   0  0  0  0  0  0  0  0  0  0  0  0
   92.5025   99.3343  -45.9803 C   0  0  0  0  0  0  0  0  0  0  0  0
   92.8236   99.4525  -47.2108 O   0  0  0  0  0  0  0  0  0  0  0  0
   92.2914  102.4681  -43.9942 O   0  0  0  0  0  0  0  0  0  0  0  0
   92.0140  104.1465  -50.6964 Br  0  0  0  0  0  0  0  0  0  0  0  0
   92.2022  103.3522  -48.9550 C   0  0  0  0  0  0  0  0  0  0  0  0
   91.0586  102.9220  -48.3209 C   0  0  0  0  0  0  0  0  0  0  0  0
   91.1662  102.3540  -47.0830 C   0  0  0  0  0  0  0  0  0  0  0  0
   92.4094  102.2101  -46.4691 C   0  0  0  0  0  0  0  0  0  0  0  0
   93.5290  102.6382  -47.1032 C   0  0  0  0  0  0  0  0  0  0  0  0
   93.4348  103.2133  -48.3530 C   0  0  0  0  0  0  0  0  0  0  0  0
   91.9030  100.4336  -42.5655 C   0  0  0  0  0  0  0  0  0  0  0  0
   92.5974  100.9530  -41.5063 C   0  0  0  0  0  0  0  0  0  0  0  0
   92.0003  101.7268  -40.5454 C   0  0  0  0  0  0  0  0  0  0  0  0
   90.6618  101.9970  -40.6341 C   0  0  0  0  0  0  0  0  0  0  0  0
   89.9024  101.4969  -41.6874 C   0  0  0  0  0  0  0  0  0  0  0  0
   90.5313  100.7267  -42.6313 C   0  0  0  0  0  0  0  0  0  0  0  0
   92.7767  102.2293  -39.4824 N   0  0  0  0  0  0  0  0  0  0  0  0
   92.3327  103.0808  -38.6702 O   0  0  0  0  0  0  0  0  0  0  0  0
   94.0644  101.7672  -39.3350 O   0  0  0  0  0  0  0  0  0  0  0  0
   91.0283   97.4432  -43.1618 C   0  0  0  0  0  0  0  0  0  0  0  0
   91.7540   96.7869  -42.0322 C   0  0  0  0  0  0  0  0  0  0  0  0
   92.2983   95.4869  -42.3894 N   0  0  0  0  0  0  0  0  0  0  0  0
   91.4204   94.8009  -43.3429 C   0  0  0  0  0  0  0  0  0  0  0  0
   92.1893   93.5354  -43.7464 C   0  0  0  0  0  0  0  0  0  0  0  0
   92.4543   92.7209  -42.6728 O   0  0  0  0  0  0  0  0  0  0  0  0
   93.0772   93.3618  -41.6132 C   0  0  0  0  0  0  0  0  0  0  0  0
   92.3713   94.6381  -41.2269 C   0  0  0  0  0  0  0  0  0  0  0  0
   93.2182   95.5223  -42.8358 H   0  0  0  0  0  0  0  0  0  0  0  0
 10 11  1  0  0  0
 11 12  2  0  0  0
 11 16  1  0  0  0
 12 13  1  0  0  0
 13 14  2  0  0  0
 14 15  1  0  0  0
 14  1  1  0  0  0
 15 16  2  0  0  0
  1  2  2  0  0  0
  1  9  1  0  0  0
  2  3  1  0  0  0
  2  7  1  0  0  0
  3  4  1  0  0  0
  3 17  1  0  0  0
  4  5  1  0  0  0
  4 26  1  0  0  0
  5  6  2  0  0  0
  5  7  1  0  0  0
  7  8  2  0  0  0
 26 27  1  0  0  0
 27 28  1  0  0  0
 28 29  1  0  0  0
 28 33  1  0  0  0
 29 30  1  0  0  0
 30 31  1  0  0  0
 31 32  1  0  0  0
 32 33  1  0  0  0
 17 18  2  0  0  0
 17 22  1  0  0  0
 18 19  1  0  0  0
 19 20  2  0  0  0
 19 23  1  0  0  0
 20 21  1  0  0  0
 21 22  2  0  0  0
 23 24  2  0  0  0
 23 25  1  0  0  0
 28 34  1  0  0  0
M  CHG 1   9  -1
M  CHG 1  25  -1
M  CHG 1  28   1
M  END
> <minimizedAffinity>
-5.94009

$$$$
265


 35 38  0  0  0  0  0  0  0  0999 V2000
   92.1253  100.3100  -43.2146 C   0  0  0  0  0  0  0  0  0  0  0  0
   90.8482  100.0212  -43.3334 C   0  0  0  0  0  0  0  0  0  0  0  0
   90.2517   99.0364  -44.3064 C   0  0  0  0  0  0  0  0  0  0  0  0
   88.8428   99.1155  -44.1336 N   0  0  0  0  0  0  0  0  0  0  0  0
   88.5015   99.9765  -43.0272 C   0  0  0  0  0  0  0  0  0  0  0  0
   87.3838  100.2232  -42.5536 O   0  0  0  0  0  0  0  0  0  0  0  0
   89.7727  100.5450  -42.5236 C   0  0  0  0  0  0  0  0  0  0  0  0
   89.8710  101.3516  -41.5433 O   0  0  0  0  0  0  0  0  0  0  0  0
   92.9937   99.6139  -44.0873 O   0  0  0  0  0  0  0  0  0  0  0  0
   94.4834  104.2261  -39.0177 Br  0  0  0  0  0  0  0  0  0  0  0  0
   93.7485  103.0527  -40.3378 C   0  0  0  0  0  0  0  0  0  0  0  0
   93.4692  101.7436  -40.0090 C   0  0  0  0  0  0  0  0  0  0  0  0
   92.9371  100.8842  -40.9462 C   0  0  0  0  0  0  0  0  0  0  0  0
   92.6522  101.2750  -42.2611 C   0  0  0  0  0  0  0  0  0  0  0  0
   92.9380  102.5837  -42.5707 C   0  0  0  0  0  0  0  0  0  0  0  0
   93.4785  103.4613  -41.6219 C   0  0  0  0  0  0  0  0  0  0  0  0
   90.7859   97.7099  -43.8691 C   0  0  0  0  0  0  0  0  0  0  0  0
   90.9847   96.7537  -44.8144 C   0  0  0  0  0  0  0  0  0  0  0  0
   91.4707   95.5102  -44.4662 C   0  0  0  0  0  0  0  0  0  0  0  0
   91.7576   95.2315  -43.1574 C   0  0  0  0  0  0  0  0  0  0  0  0
   91.5574   96.1977  -42.2060 C   0  0  0  0  0  0  0  0  0  0  0  0
   91.0698   97.4482  -42.5493 C   0  0  0  0  0  0  0  0  0  0  0  0
   92.2709   93.9140  -42.7745 C   0  0  0  0  0  0  0  0  0  0  0  0
   92.0692   92.9286  -43.5292 O   0  0  0  0  0  0  0  0  0  0  0  0
   92.9691   93.6906  -41.6195 O   0  0  0  0  0  0  0  0  0  0  0  0
   94.0231   92.7583  -41.5266 C   0  0  0  0  0  0  0  0  0  0  0  0
   87.8182   98.4573  -44.8987 C   0  0  0  0  0  0  0  0  0  0  0  0
   87.5367   99.0551  -46.2341 C   0  0  0  0  0  0  0  0  0  0  0  0
   87.7651   98.1923  -47.3545 N   0  0  0  0  0  0  0  0  0  0  0  0
   88.1241   96.8369  -46.9914 C   0  0  0  0  0  0  0  0  0  0  0  0
   88.1356   96.0215  -48.2680 C   0  0  0  0  0  0  0  0  0  0  0  0
   89.2263   96.5111  -49.0257 O   0  0  0  0  0  0  0  0  0  0  0  0
   88.8595   97.7985  -49.4274 C   0  0  0  0  0  0  0  0  0  0  0  0
   88.8746   98.6865  -48.1937 C   0  0  0  0  0  0  0  0  0  0  0  0
   86.9501   98.1907  -48.0240 H   0  0  0  0  0  0  0  0  0  0  0  0
 10 11  1  0  0  0
 11 12  2  0  0  0
 11 16  1  0  0  0
 12 13  1  0  0  0
 13 14  2  0  0  0
 14 15  1  0  0  0
 14  1  1  0  0  0
 15 16  2  0  0  0
  1  2  2  0  0  0
  1  9  1  0  0  0
  2  3  1  0  0  0
  2  7  1  0  0  0
  3  4  1  0  0  0
  3 17  1  0  0  0
  4  5  1  0  0  0
  4 27  1  0  0  0
  5  6  2  0  0  0
  5  7  1  0  0  0
  7  8  2  0  0  0
 27 28  1  0  0  0
 28 29  1  0  0  0
 29 30  1  0  0  0
 29 34  1  0  0  0
 30 31  1  0  0  0
 31 32  1  0  0  0
 32 33  1  0  0  0
 33 34  1  0  0  0
 17 18  2  0  0  0
 17 22  1  0  0  0
 18 19  1  0  0  0
 19 20  2  0  0  0
 20 21  1  0  0  0
 20 23  1  0  0  0
 21 22  2  0  0  0
 23 24  2  0  0  0
 23 25  1  0  0  0
 25 26  1  0  0  0
 29 35  1  0  0  0
M  CHG 1   9  -1
M  CHG 1  29   1
M  END
> <minimizedAffinity>
-6.28702

$$$$
274


 31 34  0  0  0  0  0  0  0  0999 V2000
   90.4611   99.6784  -42.9103 C   0  0  0  0  0  0  0  0  0  0  0  0
   90.7714   99.3063  -44.1370 C   0  0  0  0  0  0  0  0  0  0  0  0
   90.0846   98.3482  -45.0500 C   0  0  0  0  0  0  0  0  0  0  0  0
   90.3200   98.9361  -46.3793 N   0  0  0  0  0  0  0  0  0  0  0  0
   91.6139   99.5020  -46.3009 C   0  0  0  0  0  0  0  0  0  0  0  0
   92.3407   99.7417  -47.2736 O   0  0  0  0  0  0  0  0  0  0  0  0
   91.9361   99.7484  -44.8999 C   0  0  0  0  0  0  0  0  0  0  0  0
   92.9692  100.2309  -44.3720 O   0  0  0  0  0  0  0  0  0  0  0  0
   89.3128   99.1041  -42.3303 O   0  0  0  0  0  0  0  0  0  0  0  0
   93.5989  103.7427  -39.4577 Br  0  0  0  0  0  0  0  0  0  0  0  0
   92.6339  102.4816  -40.5329 C   0  0  0  0  0  0  0  0  0  0  0  0
   92.8960  101.1329  -40.4585 C   0  0  0  0  0  0  0  0  0  0  0  0
   92.1948  100.2271  -41.2398 C   0  0  0  0  0  0  0  0  0  0  0  0
   91.2137  100.6341  -42.1162 C   0  0  0  0  0  0  0  0  0  0  0  0
   90.9526  101.9831  -42.1878 C   0  0  0  0  0  0  0  0  0  0  0  0
   91.6562  102.9017  -41.4031 C   0  0  0  0  0  0  0  0  0  0  0  0
   90.5622   96.9680  -44.9426 C   0  0  0  0  0  0  0  0  0  0  0  0
   90.2879   96.0327  -45.9477 C   0  0  0  0  0  0  0  0  0  0  0  0
   90.7032   94.7373  -45.9083 C   0  0  0  0  0  0  0  0  0  0  0  0
   91.4393   94.2834  -44.8297 C   0  0  0  0  0  0  0  0  0  0  0  0
   91.7226   95.1726  -43.8328 C   0  0  0  0  0  0  0  0  0  0  0  0
   91.2954   96.5031  -43.8746 C   0  0  0  0  0  0  0  0  0  0  0  0
   89.3659   98.8691  -47.4252 C   0  0  0  0  0  0  0  0  0  0  0  0
   87.9586   99.1842  -47.1241 C   0  0  0  0  0  0  0  0  0  0  0  0
   86.9994   98.1661  -47.4246 N   0  0  0  0  0  0  0  0  0  0  0  0
   85.7038   98.6200  -47.7906 C   0  0  0  0  0  0  0  0  0  0  0  0
   84.7535   98.3675  -46.6404 C   0  0  0  0  0  0  0  0  0  0  0  0
   85.3358   98.6361  -45.4047 O   0  0  0  0  0  0  0  0  0  0  0  0
   86.3498   97.7497  -45.0933 C   0  0  0  0  0  0  0  0  0  0  0  0
   86.8841   97.1686  -46.3833 C   0  0  0  0  0  0  0  0  0  0  0  0
   87.4019   97.6513  -48.2673 H   0  0  0  0  0  0  0  0  0  0  0  0
 10 11  1  0  0  0
 11 12  2  0  0  0
 11 16  1  0  0  0
 12 13  1  0  0  0
 13 14  2  0  0  0
 14 15  1  0  0  0
 14  1  1  0  0  0
 15 16  2  0  0  0
  1  2  2  0  0  0
  1  9  1  0  0  0
  2  3  1  0  0  0
  2  7  1  0  0  0
  3  4  1  0  0  0
  3 17  1  0  0  0
  4  5  1  0  0  0
  4 23  1  0  0  0
  5  6  2  0  0  0
  5  7  1  0  0  0
  7  8  2  0  0  0
 23 24  1  0  0  0
 24 25  1  0  0  0
 25 26  1  0  0  0
 25 30  1  0  0  0
 26 27  1  0  0  0
 27 28  1  0  0  0
 28 29  1  0  0  0
 29 30  1  0  0  0
 17 18  2  0  0  0
 17 22  1  0  0  0
 18 19  1  0  0  0
 19 20  2  0  0  0
 20 21  1  0  0  0
 21 22  2  0  0  0
 25 31  1  0  0  0
M  CHG 1   9  -1
M  CHG 1  25   1
M  END
> <minimizedAffinity>
-5.59398

$$$$
278


 30 33  0  0  0  0  0  0  0  0999 V2000
   91.6318  100.2425  -43.1364 N   0  0  0  0  0  0  0  0  0  0  0  0
   90.2929  100.0499  -43.0697 C   0  0  0  0  0  0  0  0  0  0  0  0
   90.0114   98.9947  -43.9226 C   0  0  0  0  0  0  0  0  0  0  0  0
   88.6987   98.5828  -44.0579 C   0  0  0  0  0  0  0  0  0  0  0  0
   87.6540   99.2001  -43.3591 C   0  0  0  0  0  0  0  0  0  0  0  0
   87.9861  100.2529  -42.5171 C   0  0  0  0  0  0  0  0  0  0  0  0
   89.2811  100.6825  -42.3641 C   0  0  0  0  0  0  0  0  0  0  0  0
   91.1639   98.5442  -44.5026 N   0  0  0  0  0  0  0  0  0  0  0  0
   92.1429   99.3396  -43.9945 C   0  0  0  0  0  0  0  0  0  0  0  0
   93.3878   99.2189  -44.3139 N   0  0  0  0  0  0  0  0  0  0  0  0
   94.0968   99.8788  -43.8731 H   0  0  0  0  0  0  0  0  0  0  0  0
   93.7874   98.5427  -44.9684 H   0  0  0  0  0  0  0  0  0  0  0  0
   92.2923  101.2626  -42.3753 C   0  0  0  0  0  0  0  0  0  0  0  0
   92.9795  100.7414  -41.1496 C   0  0  0  0  0  0  0  0  0  0  0  0
   92.5422   99.4968  -40.7399 O   0  0  0  0  0  0  0  0  0  0  0  0
   91.5869   99.4630  -40.5381 H   0  0  0  0  0  0  0  0  0  0  0  0
   92.1954  104.5717  -36.3975 Br  0  0  0  0  0  0  0  0  0  0  0  0
   92.4394  103.3813  -37.8771 C   0  0  0  0  0  0  0  0  0  0  0  0
   91.3512  103.0256  -38.6412 C   0  0  0  0  0  0  0  0  0  0  0  0
   91.5327  102.1736  -39.6980 C   0  0  0  0  0  0  0  0  0  0  0  0
   92.7826  101.6846  -39.9858 C   0  0  0  0  0  0  0  0  0  0  0  0
   93.8453  102.0614  -39.2003 C   0  0  0  0  0  0  0  0  0  0  0  0
   93.7120  102.9204  -38.1206 C   0  0  0  0  0  0  0  0  0  0  0  0
   91.2236   97.4508  -45.4256 C   0  0  0  0  0  0  0  0  0  0  0  0
   91.4061   96.1133  -44.7634 C   0  0  0  0  0  0  0  0  0  0  0  0
   91.4425   94.9750  -45.5504 C   0  0  0  0  0  0  0  0  0  0  0  0
   91.6086   93.7116  -45.0173 C   0  0  0  0  0  0  0  0  0  0  0  0
   91.7402   93.6120  -43.6545 C   0  0  0  0  0  0  0  0  0  0  0  0
   91.7069   94.7220  -42.8524 C   0  0  0  0  0  0  0  0  0  0  0  0
   91.5411   95.9605  -43.4121 C   0  0  0  0  0  0  0  0  0  0  0  0
 17 18  1  0  0  0
 18 19  2  0  0  0
 18 23  1  0  0  0
 19 20  1  0  0  0
 20 21  2  0  0  0
 21 22  1  0  0  0
 21 14  1  0  0  0
 22 23  2  0  0  0
 14 15  1  0  0  0
 14 13  1  0  0  0
 13  1  1  0  0  0
  1  2  1  0  0  0
  1  9  1  0  0  0
  2  3  1  0  0  0
  2  7  2  0  0  0
  3  4  2  0  0  0
  3  8  1  0  0  0
  4  5  1  0  0  0
  5  6  2  0  0  0
  6  7  1  0  0  0
  8  9  1  0  0  0
  8 24  1  0  0  0
  9 10  2  0  0  0
 24 25  1  0  0  0
 25 26  2  0  0  0
 25 30  1  0  0  0
 26 27  1  0  0  0
 27 28  2  0  0  0
 28 29  1  0  0  0
 29 30  2  0  0  0
 15 16  1  0  0  0
 10 11  1  0  0  0
 10 12  1  0  0  0
M  END
> <minimizedAffinity>
-7.14259

$$$$
289


 31 34  0  0  0  0  0  0  0  0999 V2000
   90.8853   98.6236  -43.7652 C   0  0  0  0  0  0  0  0  0  0  0  0
   90.7555   97.8311  -44.8420 N   0  0  0  0  0  0  0  0  0  0  0  0
   91.0722   96.5599  -44.5007 C   0  0  0  0  0  0  0  0  0  0  0  0
   91.4166   96.5360  -43.1669 C   0  0  0  0  0  0  0  0  0  0  0  0
   91.2965   97.7955  -42.7468 N   0  0  0  0  0  0  0  0  0  0  0  0
   91.7714   95.3707  -42.5944 N   0  0  0  0  0  0  0  0  0  0  0  0
   91.8006   94.2232  -43.2853 C   0  0  0  0  0  0  0  0  0  0  0  0
   92.1394   93.1405  -42.7084 O   0  0  0  0  0  0  0  0  0  0  0  0
   91.4677   94.2249  -44.5874 N   0  0  0  0  0  0  0  0  0  0  0  0
   91.1103   95.3679  -45.1887 C   0  0  0  0  0  0  0  0  0  0  0  0
   90.7990   95.3664  -46.4050 O   0  0  0  0  0  0  0  0  0  0  0  0
   92.1264   95.3831  -41.1711 C   0  0  0  0  0  0  0  0  0  0  0  0
   91.4892   93.3196  -45.1408 H   0  0  0  0  0  0  0  0  0  0  0  0
   91.2628  101.4695  -41.7622 N   0  0  0  0  0  0  0  0  0  0  0  0
   91.9229  101.8443  -42.9405 C   0  0  0  0  0  0  0  0  0  0  0  0
   91.4921  101.0113  -44.1434 C   0  0  0  0  0  0  0  0  0  0  0  0
   90.6175   99.9999  -43.6611 N   0  0  0  0  0  0  0  0  0  0  0  0
   89.4073  100.4508  -43.0176 C   0  0  0  0  0  0  0  0  0  0  0  0
   89.8883  101.1792  -41.7570 C   0  0  0  0  0  0  0  0  0  0  0  0
   92.0726  100.8851  -40.7452 C   0  0  0  0  0  0  0  0  0  0  0  0
   93.8593  104.8555  -36.3615 Br  0  0  0  0  0  0  0  0  0  0  0  0
   93.3224  103.6205  -37.7326 C   0  0  0  0  0  0  0  0  0  0  0  0
   91.9920  103.4786  -38.0701 C   0  0  0  0  0  0  0  0  0  0  0  0
   91.6014  102.5873  -39.0567 C   0  0  0  0  0  0  0  0  0  0  0  0
   92.5390  101.8298  -39.7127 C   0  0  0  0  0  0  0  0  0  0  0  0
   93.8731  101.9602  -39.3889 C   0  0  0  0  0  0  0  0  0  0  0  0
   94.2465  102.8523  -38.4040 C   0  0  0  0  0  0  0  0  0  0  0  0
   90.3940   98.1979  -46.1850 C   0  0  0  0  0  0  0  0  0  0  0  0
   88.9073   98.4312  -46.3318 C   0  0  0  0  0  0  0  0  0  0  0  0
   88.1259   97.4701  -45.7231 O   0  0  0  0  0  0  0  0  0  0  0  0
   87.1335   98.1788  -45.0069 C   0  0  0  0  0  0  0  0  0  0  0  0
 21 22  1  0  0  0
 22 23  2  0  0  0
 22 27  1  0  0  0
 23 24  1  0  0  0
 24 25  2  0  0  0
 25 26  1  0  0  0
 25 20  1  0  0  0
 26 27  2  0  0  0
 20 14  1  0  0  0
 14 15  1  0  0  0
 14 19  1  0  0  0
 15 16  1  0  0  0
 16 17  1  0  0  0
 17 18  1  0  0  0
 17  1  1  0  0  0
 18 19  1  0  0  0
  1  2  1  0  0  0
  1  5  2  0  0  0
  2  3  1  0  0  0
  2 28  1  0  0  0
  3  4  2  0  0  0
  3 10  1  0  0  0
  4  5  1  0  0  0
  4  6  1  0  0  0
  6  7  1  0  0  0
  6 12  1  0  0  0
  7  8  2  0  0  0
  7  9  1  0  0  0
  9 10  1  0  0  0
 10 11  2  0  0  0
 28 29  1  0  0  0
 29 30  1  0  0  0
 30 31  1  0  0  0
  9 13  1  0  0  0
M  END
> <minimizedAffinity>
-6.24350

$$$$
293


 27 30  0  0  0  0  0  0  0  0999 V2000
   91.4864   97.8019  -43.2629 C   0  0  0  0  0  0  0  0  0  0  0  0
   90.3388   98.4901  -43.2504 C   0  0  0  0  0  0  0  0  0  0  0  0
   89.1536   98.0094  -43.7829 O   0  0  0  0  0  0  0  0  0  0  0  0
   88.1167   98.9251  -43.6365 C   0  0  0  0  0  0  0  0  0  0  0  0
   88.6119  100.0247  -43.0033 C   0  0  0  0  0  0  0  0  0  0  0  0
   87.7857  101.0952  -42.7307 C   0  0  0  0  0  0  0  0  0  0  0  0
   86.4751  100.9991  -43.1197 C   0  0  0  0  0  0  0  0  0  0  0  0
   85.9632   99.8691  -43.7708 C   0  0  0  0  0  0  0  0  0  0  0  0
   86.7695   98.7947  -44.0519 C   0  0  0  0  0  0  0  0  0  0  0  0
   84.6157   99.8513  -44.1337 O   0  0  0  0  0  0  0  0  0  0  0  0
   90.0384   99.7977  -42.7328 C   0  0  0  0  0  0  0  0  0  0  0  0
   90.8606  100.5619  -42.1662 O   0  0  0  0  0  0  0  0  0  0  0  0
   91.6183   92.1966  -45.9218 Br  0  0  0  0  0  0  0  0  0  0  0  0
   91.5775   93.9274  -45.0861 C   0  0  0  0  0  0  0  0  0  0  0  0
   91.4640   95.0754  -45.8364 C   0  0  0  0  0  0  0  0  0  0  0  0
   91.4374   96.3202  -45.2366 C   0  0  0  0  0  0  0  0  0  0  0  0
   91.5218   96.4718  -43.8627 C   0  0  0  0  0  0  0  0  0  0  0  0
   91.6342   95.3207  -43.1159 C   0  0  0  0  0  0  0  0  0  0  0  0
   91.6623   94.0590  -43.7161 C   0  0  0  0  0  0  0  0  0  0  0  0
   86.3800   97.5500  -44.7256 C   0  0  0  0  0  0  0  0  0  0  0  0
   85.8998   97.6243  -46.0508 N   0  0  0  0  0  0  0  0  0  0  0  0
   86.9617   97.8298  -47.0137 C   0  0  0  0  0  0  0  0  0  0  0  0
   87.5445   96.4883  -47.4185 C   0  0  0  0  0  0  0  0  0  0  0  0
   86.6790   95.9042  -48.3305 O   0  0  0  0  0  0  0  0  0  0  0  0
   85.3735   96.2495  -47.9646 C   0  0  0  0  0  0  0  0  0  0  0  0
   85.2681   96.3551  -46.4517 C   0  0  0  0  0  0  0  0  0  0  0  0
   85.1441   98.3314  -46.1567 H   0  0  0  0  0  0  0  0  0  0  0  0
 13 14  1  0  0  0
 14 15  2  0  0  0
 14 19  1  0  0  0
 15 16  1  0  0  0
 16 17  2  0  0  0
 17 18  1  0  0  0
 17  1  1  0  0  0
 18 19  2  0  0  0
  1  2  2  0  0  0
  2  3  1  0  0  0
  2 11  1  0  0  0
  3  4  1  0  0  0
  4  5  2  0  0  0
  4  9  1  0  0  0
  5  6  1  0  0  0
  5 11  1  0  0  0
  6  7  2  0  0  0
  7  8  1  0  0  0
  8  9  2  0  0  0
  8 10  1  0  0  0
  9 20  1  0  0  0
 20 21  1  0  0  0
 21 22  1  0  0  0
 21 26  1  0  0  0
 22 23  1  0  0  0
 23 24  1  0  0  0
 24 25  1  0  0  0
 25 26  1  0  0  0
 11 12  2  0  0  0
 21 27  1  0  0  0
M  CHG 1  10  -1
M  CHG 1  21   1
M  END
> <minimizedAffinity>
-6.17036

$$$$
294


 35 38  0  0  0  0  0  0  0  0999 V2000
   90.6770   89.0684  -49.5577 N   0  0  0  0  0  0  0  0  0  0  0  0
   89.9752   88.1058  -48.8856 N   0  0  0  0  0  0  0  0  0  0  0  0
   88.7204   88.0795  -49.3552 C   0  0  0  0  0  0  0  0  0  0  0  0
   88.6705   89.0175  -50.2994 N   0  0  0  0  0  0  0  0  0  0  0  0
   89.8985   89.6461  -50.4337 C   0  0  0  0  0  0  0  0  0  0  0  0
   87.6307   87.2100  -48.9283 C   0  0  0  0  0  0  0  0  0  0  0  0
   87.0477   87.1763  -47.7262 N   0  0  0  0  0  0  0  0  0  0  0  0
   86.1004   86.2546  -47.7290 O   0  0  0  0  0  0  0  0  0  0  0  0
   86.0350   85.6753  -48.8940 N   0  0  0  0  0  0  0  0  0  0  0  0
   86.9919   86.2566  -49.6803 C   0  0  0  0  0  0  0  0  0  0  0  0
   87.2313   85.8912  -51.0298 N   0  0  0  0  0  0  0  0  0  0  0  0
   86.4605   85.4367  -51.5950 H   0  0  0  0  0  0  0  0  0  0  0  0
   88.1346   86.0414  -51.5183 H   0  0  0  0  0  0  0  0  0  0  0  0
   90.1233   90.7096  -51.3911 C   0  0  0  0  0  0  0  0  0  0  0  0
   91.2821   91.4809  -51.3743 N   0  0  0  0  0  0  0  0  0  0  0  0
   91.2450   92.3321  -52.3229 O   0  0  0  0  0  0  0  0  0  0  0  0
   90.1619   92.2055  -52.9828 N   0  0  0  0  0  0  0  0  0  0  0  0
   89.4304   91.1937  -52.4247 C   0  0  0  0  0  0  0  0  0  0  0  0
   88.1907   90.8310  -52.9649 N   0  0  0  0  0  0  0  0  0  0  0  0
   87.3263   91.3190  -52.6339 H   0  0  0  0  0  0  0  0  0  0  0  0
   88.0582   90.1015  -53.6960 H   0  0  0  0  0  0  0  0  0  0  0  0
   92.0765   89.2839  -49.2465 C   0  0  0  0  0  0  0  0  0  0  0  0
   91.1292   90.8129  -47.4733 N   0  0  0  0  0  0  0  0  0  0  0  0
   92.2371   90.1377  -48.0405 C   0  0  0  0  0  0  0  0  0  0  0  0
   93.3651   90.2652  -47.5138 O   0  0  0  0  0  0  0  0  0  0  0  0
   90.1566   90.7234  -47.8984 H   0  0  0  0  0  0  0  0  0  0  0  0
   91.2525   92.8689  -46.3189 C   0  0  0  0  0  0  0  0  0  0  0  0
   91.3122   91.5958  -46.3544 N   0  0  0  0  0  0  0  0  0  0  0  0
   92.1188   96.1411  -41.1411 Br  0  0  0  0  0  0  0  0  0  0  0  0
   91.8545   95.1218  -42.7333 C   0  0  0  0  0  0  0  0  0  0  0  0
   91.4757   95.7348  -43.9184 C   0  0  0  0  0  0  0  0  0  0  0  0
   91.2779   95.0157  -45.0837 C   0  0  0  0  0  0  0  0  0  0  0  0
   91.4549   93.6482  -45.1025 C   0  0  0  0  0  0  0  0  0  0  0  0
   91.8318   93.0484  -43.9200 C   0  0  0  0  0  0  0  0  0  0  0  0
   92.0324   93.7544  -42.7516 C   0  0  0  0  0  0  0  0  0  0  0  0
 29 30  1  0  0  0
 30 31  2  0  0  0
 30 35  1  0  0  0
 31 32  1  0  0  0
 32 33  2  0  0  0
 33 34  1  0  0  0
 33 27  1  0  0  0
 34 35  2  0  0  0
 27 28  2  0  0  0
 28 23  1  0  0  0
 23 24  1  0  0  0
 24 25  2  0  0  0
 24 22  1  0  0  0
 22  1  1  0  0  0
  1  2  1  0  0  0
  1  5  1  0  0  0
  2  3  2  0  0  0
  3  4  1  0  0  0
  3  6  1  0  0  0
  4  5  2  0  0  0
  5 14  1  0  0  0
 14 15  2  0  0  0
 14 18  1  0  0  0
 15 16  1  0  0  0
 16 17  1  0  0  0
 17 18  2  0  0  0
 18 19  1  0  0  0
  6  7  2  0  0  0
  6 10  1  0  0  0
  7  8  1  0  0  0
  8  9  1  0  0  0
  9 10  2  0  0  0
 10 11  1  0  0  0
 23 26  1  0  0  0
 19 20  1  0  0  0
 19 21  1  0  0  0
 11 12  1  0  0  0
 11 13  1  0  0  0
M  END
> <minimizedAffinity>
-7.16729

$$$$
302


 29 33  0  0  0  0  0  0  0  0999 V2000
   91.0746   97.2314  -43.7570 C   0  0  0  0  0  0  0  0  0  0  0  0
   90.1114   98.1472  -43.9882 N   0  0  0  0  0  0  0  0  0  0  0  0
   90.3195   99.2453  -43.2199 C   0  0  0  0  0  0  0  0  0  0  0  0
   91.4266   99.0417  -42.4855 N   0  0  0  0  0  0  0  0  0  0  0  0
   91.8912   97.8130  -42.8093 C   0  0  0  0  0  0  0  0  0  0  0  0
   91.5904  100.1543  -41.7442 C   0  0  0  0  0  0  0  0  0  0  0  0
   90.5848  101.0575  -42.0144 C   0  0  0  0  0  0  0  0  0  0  0  0
   90.5121  102.2945  -41.3844 C   0  0  0  0  0  0  0  0  0  0  0  0
   91.4691  102.6430  -40.4591 C   0  0  0  0  0  0  0  0  0  0  0  0
   92.4706  101.7339  -40.1955 C   0  0  0  0  0  0  0  0  0  0  0  0
   92.5666  100.5011  -40.8048 C   0  0  0  0  0  0  0  0  0  0  0  0
   89.8016  100.4538  -42.9473 N   0  0  0  0  0  0  0  0  0  0  0  0
   89.3157   98.0489  -44.6507 H   0  0  0  0  0  0  0  0  0  0  0  0
   91.5938   91.6984  -46.4387 Br  0  0  0  0  0  0  0  0  0  0  0  0
   91.4320   93.4016  -45.6172 C   0  0  0  0  0  0  0  0  0  0  0  0
   91.8963   93.6036  -44.3319 C   0  0  0  0  0  0  0  0  0  0  0  0
   91.7769   94.8547  -43.7319 C   0  0  0  0  0  0  0  0  0  0  0  0
   91.2009   95.9203  -44.3857 C   0  0  0  0  0  0  0  0  0  0  0  0
   90.7414   95.7104  -45.6664 C   0  0  0  0  0  0  0  0  0  0  0  0
   90.8525   94.4618  -46.2837 C   0  0  0  0  0  0  0  0  0  0  0  0
   88.6223  101.0875  -43.4996 C   0  0  0  0  0  0  0  0  0  0  0  0
   87.3509  100.4923  -42.9349 C   0  0  0  0  0  0  0  0  0  0  0  0
   86.5709   99.8964  -43.9818 N   0  0  0  0  0  0  0  0  0  0  0  0
   86.5047   98.4607  -43.8069 C   0  0  0  0  0  0  0  0  0  0  0  0
   86.7353   97.7057  -45.0934 C   0  0  0  0  0  0  0  0  0  0  0  0
   85.8858   98.2192  -46.0756 O   0  0  0  0  0  0  0  0  0  0  0  0
   86.0921   99.5646  -46.2937 C   0  0  0  0  0  0  0  0  0  0  0  0
   87.0585  100.1588  -45.3028 C   0  0  0  0  0  0  0  0  0  0  0  0
   85.5792  100.2432  -43.9430 H   0  0  0  0  0  0  0  0  0  0  0  0
 14 15  1  0  0  0
 15 16  2  0  0  0
 15 20  1  0  0  0
 16 17  1  0  0  0
 17 18  2  0  0  0
 18 19  1  0  0  0
 18  1  1  0  0  0
 19 20  2  0  0  0
  1  2  1  0  0  0
  1  5  2  0  0  0
  2  3  2  0  0  0
  3  4  1  0  0  0
  3 12  1  0  0  0
  4  5  1  0  0  0
  4  6  1  0  0  0
  6  7  2  0  0  0
  6 11  1  0  0  0
  7  8  1  0  0  0
  7 12  1  0  0  0
  8  9  2  0  0  0
  9 10  1  0  0  0
 10 11  2  0  0  0
 12 21  1  0  0  0
 21 22  1  0  0  0
 22 23  1  0  0  0
 23 24  1  0  0  0
 23 28  1  0  0  0
 24 25  1  0  0  0
 25 26  1  0  0  0
 26 27  1  0  0  0
 27 28  1  0  0  0
  2 13  1  0  0  0
 23 29  1  0  0  0
M  CHG 1  23   1
M  END
> <minimizedAffinity>
-6.58930

$$$$
305


 27 30  0  0  0  0  0  0  0  0999 V2000
   90.4551   97.0942  -45.4267 C   0  0  0  0  0  0  0  0  0  0  0  0
   90.9478   96.1156  -44.6785 N   0  0  0  0  0  0  0  0  0  0  0  0
   90.9770   94.9507  -45.3717 C   0  0  0  0  0  0  0  0  0  0  0  0
   90.4906   95.2296  -46.5955 N   0  0  0  0  0  0  0  0  0  0  0  0
   90.1799   96.4833  -46.6529 N   0  0  0  0  0  0  0  0  0  0  0  0
   91.4747   93.9455  -44.6416 N   0  0  0  0  0  0  0  0  0  0  0  0
   91.7769   94.4872  -43.4569 C   0  0  0  0  0  0  0  0  0  0  0  0
   91.4638   95.8534  -43.4455 C   0  0  0  0  0  0  0  0  0  0  0  0
   91.7144   96.6040  -42.3851 N   0  0  0  0  0  0  0  0  0  0  0  0
   92.2782   95.9929  -41.2980 C   0  0  0  0  0  0  0  0  0  0  0  0
   92.5277   96.6673  -40.2711 O   0  0  0  0  0  0  0  0  0  0  0  0
   92.5808   94.6891  -41.2744 N   0  0  0  0  0  0  0  0  0  0  0  0
   92.3419   93.9115  -42.3435 C   0  0  0  0  0  0  0  0  0  0  0  0
   92.6141   92.6826  -42.3592 O   0  0  0  0  0  0  0  0  0  0  0  0
   91.5627   98.0320  -42.2781 C   0  0  0  0  0  0  0  0  0  0  0  0
   93.0076   94.2241  -40.4473 H   0  0  0  0  0  0  0  0  0  0  0  0
   89.1800  102.9439  -44.1225 Br  0  0  0  0  0  0  0  0  0  0  0  0
   89.5894  101.1545  -44.5880 C   0  0  0  0  0  0  0  0  0  0  0  0
   88.6972  100.1478  -44.2836 C   0  0  0  0  0  0  0  0  0  0  0  0
   88.9891   98.8620  -44.6171 C   0  0  0  0  0  0  0  0  0  0  0  0
   90.1736   98.5079  -45.2665 C   0  0  0  0  0  0  0  0  0  0  0  0
   91.0167   99.5547  -45.5378 C   0  0  0  0  0  0  0  0  0  0  0  0
   90.7760  100.8692  -45.2260 C   0  0  0  0  0  0  0  0  0  0  0  0
   91.6458   92.5673  -45.0425 C   0  0  0  0  0  0  0  0  0  0  0  0
   91.3657   92.3490  -46.5137 C   0  0  0  0  0  0  0  0  0  0  0  0
   91.3427   90.9992  -46.8428 O   0  0  0  0  0  0  0  0  0  0  0  0
   92.5371   90.7115  -47.5031 C   0  0  0  0  0  0  0  0  0  0  0  0
 17 18  1  0  0  0
 18 19  2  0  0  0
 18 23  1  0  0  0
 19 20  1  0  0  0
 20 21  2  0  0  0
 21 22  1  0  0  0
 21  1  1  0  0  0
 22 23  2  0  0  0
  1  2  1  0  0  0
  1  5  2  0  0  0
  2  3  1  0  0  0
  2  8  1  0  0  0
  3  4  2  0  0  0
  3  6  1  0  0  0
  4  5  1  0  0  0
  6  7  1  0  0  0
  6 24  1  0  0  0
  7  8  2  0  0  0
  7 13  1  0  0  0
  8  9  1  0  0  0
  9 10  1  0  0  0
  9 15  1  0  0  0
 10 11  2  0  0  0
 10 12  1  0  0  0
 12 13  1  0  0  0
 13 14  2  0  0  0
 24 25  1  0  0  0
 25 26  1  0  0  0
 26 27  1  0  0  0
 12 16  1  0  0  0
M  END
> <minimizedAffinity>
-7.16011

$$$$
309


 33 36  0  0  0  0  0  0  0  0999 V2000
   91.9271   98.6346  -45.0144 C   0  0  0  0  0  0  0  0  0  0  0  0
   91.7361   99.0859  -43.7307 C   0  0  0  0  0  0  0  0  0  0  0  0
   91.8702  100.3532  -43.3897 O   0  0  0  0  0  0  0  0  0  0  0  0
   92.1953  101.2686  -44.2664 C   0  0  0  0  0  0  0  0  0  0  0  0
   92.3972  100.8879  -45.5452 C   0  0  0  0  0  0  0  0  0  0  0  0
   92.7376  101.8291  -46.4915 C   0  0  0  0  0  0  0  0  0  0  0  0
   92.8609  103.1370  -46.0982 C   0  0  0  0  0  0  0  0  0  0  0  0
   92.6477  103.5233  -44.7611 C   0  0  0  0  0  0  0  0  0  0  0  0
   92.3111  102.6099  -43.8073 C   0  0  0  0  0  0  0  0  0  0  0  0
   92.8152  104.8819  -44.5519 O   0  0  0  0  0  0  0  0  0  0  0  0
   92.2772   99.5817  -45.9783 C   0  0  0  0  0  0  0  0  0  0  0  0
   92.4626   99.2357  -47.1496 O   0  0  0  0  0  0  0  0  0  0  0  0
   91.1164   92.6805  -46.3632 Br  0  0  0  0  0  0  0  0  0  0  0  0
   91.3478   94.5346  -45.9555 C   0  0  0  0  0  0  0  0  0  0  0  0
   92.5912   94.9773  -45.6114 C   0  0  0  0  0  0  0  0  0  0  0  0
   92.7708   96.3103  -45.3123 C   0  0  0  0  0  0  0  0  0  0  0  0
   91.7401   97.2462  -45.3410 C   0  0  0  0  0  0  0  0  0  0  0  0
   90.5015   96.7758  -45.6904 C   0  0  0  0  0  0  0  0  0  0  0  0
   90.2931   95.4218  -45.9997 C   0  0  0  0  0  0  0  0  0  0  0  0
   91.3688   98.1040  -42.6983 C   0  0  0  0  0  0  0  0  0  0  0  0
   90.1528   97.9872  -42.4038 O   0  0  0  0  0  0  0  0  0  0  0  0
   92.2697   97.3188  -42.0482 O   0  0  0  0  0  0  0  0  0  0  0  0
   91.8370   96.2784  -41.2054 C   0  0  0  0  0  0  0  0  0  0  0  0
   91.8875   94.9798  -41.9620 C   0  0  0  0  0  0  0  0  0  0  0  0
   92.0830  102.8472  -42.4026 C   0  0  0  0  0  0  0  0  0  0  0  0
   92.9398  102.3840  -41.3891 N   0  0  0  0  0  0  0  0  0  0  0  0
   92.3787  102.5301  -40.0932 C   0  0  0  0  0  0  0  0  0  0  0  0
   93.2785  102.6910  -38.9322 C   0  0  0  0  0  0  0  0  0  0  0  0
   94.5724  103.0993  -39.2723 N   0  0  0  0  0  0  0  0  0  0  0  0
   95.2059  102.4865  -40.3568 C   0  0  0  0  0  0  0  0  0  0  0  0
   94.3394  102.5170  -41.5760 C   0  0  0  0  0  0  0  0  0  0  0  0
   95.2157  104.1098  -38.5435 C   0  0  0  0  0  0  0  0  0  0  0  0
   92.8296  101.2602  -41.5286 H   0  0  0  0  0  0  0  0  0  0  0  0
 13 14  1  0  0  0
 14 15  2  0  0  0
 14 19  1  0  0  0
 15 16  1  0  0  0
 16 17  2  0  0  0
 17 18  1  0  0  0
 17  1  1  0  0  0
 18 19  2  0  0  0
  1  2  2  0  0  0
  1 11  1  0  0  0
  2  3  1  0  0  0
  2 20  1  0  0  0
  3  4  1  0  0  0
  4  5  2  0  0  0
  4  9  1  0  0  0
  5  6  1  0  0  0
  5 11  1  0  0  0
  6  7  2  0  0  0
  7  8  1  0  0  0
  8  9  2  0  0  0
  8 10  1  0  0  0
  9 25  1  0  0  0
 25 26  1  0  0  0
 26 27  1  0  0  0
 26 31  1  0  0  0
 27 28  1  0  0  0
 28 29  1  0  0  0
 29 30  1  0  0  0
 29 32  1  0  0  0
 30 31  1  0  0  0
 11 12  2  0  0  0
 20 21  2  0  0  0
 20 22  1  0  0  0
 22 23  1  0  0  0
 23 24  1  0  0  0
 26 33  1  0  0  0
M  CHG 1  10  -1
M  CHG 1  26   1
M  END
> <minimizedAffinity>
-5.40129

$$$$
320


 32 36  0  0  0  0  0  0  0  0999 V2000
   91.1926   98.8098  -43.1002 C   0  0  0  0  0  0  0  0  0  0  0  0
   91.4711   97.4974  -42.6841 C   0  0  0  0  0  0  0  0  0  0  0  0
   91.3849   96.7292  -43.7626 N   0  0  0  0  0  0  0  0  0  0  0  0
   91.5127   95.4117  -44.1087 C   0  0  0  0  0  0  0  0  0  0  0  0
   91.2598   95.3656  -45.4565 C   0  0  0  0  0  0  0  0  0  0  0  0
   91.0004   96.6024  -45.8525 N   0  0  0  0  0  0  0  0  0  0  0  0
   91.0758   97.4683  -44.8015 C   0  0  0  0  0  0  0  0  0  0  0  0
   90.9509   98.7726  -44.4152 N   0  0  0  0  0  0  0  0  0  0  0  0
   91.3003   94.1608  -46.1643 C   0  0  0  0  0  0  0  0  0  0  0  0
   91.6017   92.9906  -45.5017 C   0  0  0  0  0  0  0  0  0  0  0  0
   91.8519   93.0638  -44.1502 C   0  0  0  0  0  0  0  0  0  0  0  0
   91.8125   94.2574  -43.4390 C   0  0  0  0  0  0  0  0  0  0  0  0
   90.7642   96.8415  -46.8341 H   0  0  0  0  0  0  0  0  0  0  0  0
   91.3923  103.5413  -39.1327 Br  0  0  0  0  0  0  0  0  0  0  0  0
   91.3114  102.0707  -40.3738 C   0  0  0  0  0  0  0  0  0  0  0  0
   92.2985  101.1359  -40.4381 C   0  0  0  0  0  0  0  0  0  0  0  0
   92.2362  100.0951  -41.3196 C   0  0  0  0  0  0  0  0  0  0  0  0
   91.1768   99.9339  -42.1896 C   0  0  0  0  0  0  0  0  0  0  0  0
   90.1944  100.8627  -42.1272 C   0  0  0  0  0  0  0  0  0  0  0  0
   90.2441  101.9479  -41.2186 C   0  0  0  0  0  0  0  0  0  0  0  0
   90.6017   99.7958  -45.3526 C   0  0  0  0  0  0  0  0  0  0  0  0
   91.7044  100.5580  -45.9687 C   0  0  0  0  0  0  0  0  0  0  0  0
   92.0402  101.8998  -45.4256 C   0  0  0  0  0  0  0  0  0  0  0  0
   93.1740  101.8535  -44.5290 N   0  0  0  0  0  0  0  0  0  0  0  0
   93.4106  100.9430  -44.1429 H   0  0  0  0  0  0  0  0  0  0  0  0
   94.0312  102.0956  -45.1483 H   0  0  0  0  0  0  0  0  0  0  0  0
   93.1474  102.8794  -43.5288 C   0  0  0  0  0  0  0  0  0  0  0  0
   94.4961  103.3274  -43.0409 C   0  0  0  0  0  0  0  0  0  0  0  0
   94.2525  104.0204  -41.6920 C   0  0  0  0  0  0  0  0  0  0  0  0
   93.3852  105.2095  -41.9202 C   0  0  0  0  0  0  0  0  0  0  0  0
   92.1104  104.8998  -42.6700 C   0  0  0  0  0  0  0  0  0  0  0  0
   92.4194  104.1436  -43.9672 C   0  0  0  0  0  0  0  0  0  0  0  0
 14 15  1  0  0  0
 15 16  2  0  0  0
 15 20  1  0  0  0
 16 17  1  0  0  0
 17 18  2  0  0  0
 18 19  1  0  0  0
 18  1  1  0  0  0
 19 20  2  0  0  0
  1  2  2  0  0  0
  1  8  1  0  0  0
  2  3  1  0  0  0
  3  4  1  0  0  0
  3  7  1  0  0  0
  4  5  2  0  0  0
  4 12  1  0  0  0
  5  6  1  0  0  0
  5  9  1  0  0  0
  6  7  2  0  0  0
  7  8  1  0  0  0
  8 21  1  0  0  0
 21 22  1  0  0  0
 22 23  1  0  0  0
 23 24  1  0  0  0
 24 27  1  0  0  0
 27 28  1  0  0  0
 27 32  1  0  0  0
 28 29  1  0  0  0
 29 30  1  0  0  0
 30 31  1  0  0  0
 31 32  1  0  0  0
  9 10  2  0  0  0
 10 11  1  0  0  0
 11 12  2  0  0  0
  6 13  1  0  0  0
 24 25  1  0  0  0
 24 26  1  0  0  0
M  CHG 1  24   1
M  END
> <minimizedAffinity>
-6.10942

$$$$
324


 34 38  0  0  0  0  0  0  0  0999 V2000
   91.5039   99.0324  -42.9934 C   0  0  0  0  0  0  0  0  0  0  0  0
   91.5049   97.6936  -42.5584 C   0  0  0  0  0  0  0  0  0  0  0  0
   91.5864   96.8559  -43.5976 N   0  0  0  0  0  0  0  0  0  0  0  0
   91.6334   95.5482  -43.9523 C   0  0  0  0  0  0  0  0  0  0  0  0
   91.7179   95.5264  -45.3231 C   0  0  0  0  0  0  0  0  0  0  0  0
   91.7203   96.8149  -45.7643 N   0  0  0  0  0  0  0  0  0  0  0  0
   91.6391   97.6175  -44.6866 C   0  0  0  0  0  0  0  0  0  0  0  0
   91.5886   98.9487  -44.3227 N   0  0  0  0  0  0  0  0  0  0  0  0
   91.7796   94.2993  -45.9495 C   0  0  0  0  0  0  0  0  0  0  0  0
   91.7574   93.1100  -45.2321 C   0  0  0  0  0  0  0  0  0  0  0  0
   91.6722   93.1335  -43.8629 C   0  0  0  0  0  0  0  0  0  0  0  0
   91.6099   94.3799  -43.2284 C   0  0  0  0  0  0  0  0  0  0  0  0
   91.7766   97.0959  -46.7677 H   0  0  0  0  0  0  0  0  0  0  0  0
   91.2000  103.7197  -38.9109 Br  0  0  0  0  0  0  0  0  0  0  0  0
   91.2878  102.2888  -40.1849 C   0  0  0  0  0  0  0  0  0  0  0  0
   90.3202  102.1397  -41.1451 C   0  0  0  0  0  0  0  0  0  0  0  0
   90.3860  101.0909  -42.0772 C   0  0  0  0  0  0  0  0  0  0  0  0
   91.3889  100.1754  -42.0885 C   0  0  0  0  0  0  0  0  0  0  0  0
   92.3631  100.3468  -41.1041 C   0  0  0  0  0  0  0  0  0  0  0  0
   92.3071  101.3784  -40.1804 C   0  0  0  0  0  0  0  0  0  0  0  0
   91.6050  100.0245  -45.2914 C   0  0  0  0  0  0  0  0  0  0  0  0
   90.5418   99.9072  -46.3578 C   0  0  0  0  0  0  0  0  0  0  0  0
   89.1861  100.2948  -45.8227 C   0  0  0  0  0  0  0  0  0  0  0  0
   88.2360   99.2196  -45.7458 N   0  0  0  0  0  0  0  0  0  0  0  0
   86.9938   99.7471  -46.2876 C   0  0  0  0  0  0  0  0  0  0  0  0
   85.7848   99.4326  -45.4893 C   0  0  0  0  0  0  0  0  0  0  0  0
   85.9029   99.6090  -44.0677 N   0  0  0  0  0  0  0  0  0  0  0  0
   87.2703   99.5829  -43.5930 C   0  0  0  0  0  0  0  0  0  0  0  0
   88.0584   98.6252  -44.4628 C   0  0  0  0  0  0  0  0  0  0  0  0
   85.4568   98.7410  -43.6329 H   0  0  0  0  0  0  0  0  0  0  0  0
   85.1247  100.7095  -43.5954 C   0  0  0  0  0  0  0  0  0  0  0  0
   83.8990  100.3612  -42.8217 C   0  0  0  0  0  0  0  0  0  0  0  0
   83.8612   99.0342  -42.3973 O   0  0  0  0  0  0  0  0  0  0  0  0
   84.7195   98.7860  -42.0126 H   0  0  0  0  0  0  0  0  0  0  0  0
 14 15  1  0  0  0
 15 16  2  0  0  0
 15 20  1  0  0  0
 16 17  1  0  0  0
 17 18  2  0  0  0
 18 19  1  0  0  0
 18  1  1  0  0  0
 19 20  2  0  0  0
  1  2  2  0  0  0
  1  8  1  0  0  0
  2  3  1  0  0  0
  3  4  1  0  0  0
  3  7  1  0  0  0
  4  5  2  0  0  0
  4 12  1  0  0  0
  5  6  1  0  0  0
  5  9  1  0  0  0
  6  7  2  0  0  0
  7  8  1  0  0  0
  8 21  1  0  0  0
 21 22  1  0  0  0
 22 23  1  0  0  0
 23 24  1  0  0  0
 24 25  1  0  0  0
 24 29  1  0  0  0
 25 26  1  0  0  0
 26 27  1  0  0  0
 27 28  1  0  0  0
 27 31  1  0  0  0
 28 29  1  0  0  0
 31 32  1  0  0  0
 32 33  1  0  0  0
  9 10  2  0  0  0
 10 11  1  0  0  0
 11 12  2  0  0  0
  6 13  1  0  0  0
 27 30  1  0  0  0
 33 34  1  0  0  0
M  CHG 1  27   1
M  END
> <minimizedAffinity>
-6.82421

$$$$
346


 35 38  0  0  0  0  0  0  0  0999 V2000
   90.9535  100.3419  -44.1230 C   0  0  0  0  0  0  0  0  0  0  0  0
   91.7051  101.0867  -45.0960 N   0  0  0  0  0  0  0  0  0  0  0  0
   92.4571  100.2250  -45.9285 C   0  0  0  0  0  0  0  0  0  0  0  0
   93.2462  100.5361  -46.8736 O   0  0  0  0  0  0  0  0  0  0  0  0
   92.1903   98.8233  -45.5352 C   0  0  0  0  0  0  0  0  0  0  0  0
   92.7004   97.8141  -46.0715 O   0  0  0  0  0  0  0  0  0  0  0  0
   91.2492   98.9052  -44.4382 C   0  0  0  0  0  0  0  0  0  0  0  0
   90.7906   97.8449  -43.8108 C   0  0  0  0  0  0  0  0  0  0  0  0
   89.9292   98.0553  -42.7135 O   0  0  0  0  0  0  0  0  0  0  0  0
   84.8777  101.5538  -44.2994 Br  0  0  0  0  0  0  0  0  0  0  0  0
   86.7618  101.1875  -44.2181 C   0  0  0  0  0  0  0  0  0  0  0  0
   87.3826  100.5793  -45.2862 C   0  0  0  0  0  0  0  0  0  0  0  0
   88.7532  100.3034  -45.2532 C   0  0  0  0  0  0  0  0  0  0  0  0
   89.5174  100.6307  -44.1539 C   0  0  0  0  0  0  0  0  0  0  0  0
   88.8595  101.2372  -43.1080 C   0  0  0  0  0  0  0  0  0  0  0  0
   87.5132  101.5154  -43.1238 C   0  0  0  0  0  0  0  0  0  0  0  0
   91.0761   96.4715  -44.1400 C   0  0  0  0  0  0  0  0  0  0  0  0
   91.7034   95.5653  -43.3590 C   0  0  0  0  0  0  0  0  0  0  0  0
   91.8825   94.2662  -43.7857 C   0  0  0  0  0  0  0  0  0  0  0  0
   91.4449   93.8066  -45.0093 C   0  0  0  0  0  0  0  0  0  0  0  0
   90.8078   94.7521  -45.7887 C   0  0  0  0  0  0  0  0  0  0  0  0
   90.6149   96.0477  -45.3961 C   0  0  0  0  0  0  0  0  0  0  0  0
   92.5843   93.2968  -42.8811 C   0  0  0  0  0  0  0  0  0  0  0  0
   91.6288   92.4961  -45.4331 O   0  0  0  0  0  0  0  0  0  0  0  0
   91.2316   92.1094  -46.7406 C   0  0  0  0  0  0  0  0  0  0  0  0
   91.6846  102.5355  -45.1861 C   0  0  0  0  0  0  0  0  0  0  0  0
   92.0212  103.2190  -43.8893 C   0  0  0  0  0  0  0  0  0  0  0  0
   93.3906  102.8509  -43.4064 C   0  0  0  0  0  0  0  0  0  0  0  0
   93.3847  102.1917  -42.1329 N   0  0  0  0  0  0  0  0  0  0  0  0
   92.2240  102.5100  -41.3269 C   0  0  0  0  0  0  0  0  0  0  0  0
   92.2423  101.5529  -40.1303 C   0  0  0  0  0  0  0  0  0  0  0  0
   93.4536  100.8813  -40.0578 O   0  0  0  0  0  0  0  0  0  0  0  0
   94.5244  101.8022  -40.0708 C   0  0  0  0  0  0  0  0  0  0  0  0
   94.6143  102.4602  -41.4430 C   0  0  0  0  0  0  0  0  0  0  0  0
   93.3447  101.1420  -42.2992 H   0  0  0  0  0  0  0  0  0  0  0  0
 10 11  1  0  0  0
 11 12  2  0  0  0
 11 16  1  0  0  0
 12 13  1  0  0  0
 13 14  2  0  0  0
 14 15  1  0  0  0
 14  1  1  0  0  0
 15 16  2  0  0  0
  1  2  1  0  0  0
  1  7  1  0  0  0
  2  3  1  0  0  0
  2 26  1  0  0  0
  3  4  2  0  0  0
  3  5  1  0  0  0
  5  6  2  0  0  0
  5  7  1  0  0  0
  7  8  2  0  0  0
  8  9  1  0  0  0
  8 17  1  0  0  0
 17 18  2  0  0  0
 17 22  1  0  0  0
 18 19  1  0  0  0
 19 20  2  0  0  0
 19 23  1  0  0  0
 20 21  1  0  0  0
 20 24  1  0  0  0
 21 22  2  0  0  0
 24 25  1  0  0  0
 26 27  1  0  0  0
 27 28  1  0  0  0
 28 29  1  0  0  0
 29 30  1  0  0  0
 29 34  1  0  0  0
 30 31  1  0  0  0
 31 32  1  0  0  0
 32 33  1  0  0  0
 33 34  1  0  0  0
 29 35  1  0  0  0
M  CHG 1   9  -1
M  CHG 1  29   1
M  END
> <minimizedAffinity>
-6.32877

$$$$
347


 34 37  0  0  0  0  0  0  0  0999 V2000
   90.2810   98.6324  -44.4314 C   0  0  0  0  0  0  0  0  0  0  0  0
   90.6465   98.9414  -45.7987 N   0  0  0  0  0  0  0  0  0  0  0  0
   92.0011   99.3954  -45.7596 C   0  0  0  0  0  0  0  0  0  0  0  0
   92.8394   99.3462  -46.6935 O   0  0  0  0  0  0  0  0  0  0  0  0
   92.2043   99.9255  -44.4157 C   0  0  0  0  0  0  0  0  0  0  0  0
   93.2337  100.4349  -43.9064 O   0  0  0  0  0  0  0  0  0  0  0  0
   90.9475   99.7664  -43.6910 C   0  0  0  0  0  0  0  0  0  0  0  0
   90.5516  100.4366  -42.6368 C   0  0  0  0  0  0  0  0  0  0  0  0
   89.3146  100.0528  -42.0892 O   0  0  0  0  0  0  0  0  0  0  0  0
   92.5639   93.1842  -42.6641 Br  0  0  0  0  0  0  0  0  0  0  0  0
   91.8510   94.8638  -43.2215 C   0  0  0  0  0  0  0  0  0  0  0  0
   91.7421   95.8982  -42.3222 C   0  0  0  0  0  0  0  0  0  0  0  0
   91.2217   97.1301  -42.7277 C   0  0  0  0  0  0  0  0  0  0  0  0
   90.8090   97.3389  -44.0206 C   0  0  0  0  0  0  0  0  0  0  0  0
   90.9298   96.2849  -44.8981 C   0  0  0  0  0  0  0  0  0  0  0  0
   91.4430   95.0590  -44.5144 C   0  0  0  0  0  0  0  0  0  0  0  0
   91.3177  101.5270  -42.0422 C   0  0  0  0  0  0  0  0  0  0  0  0
   92.1637  101.3801  -40.9666 C   0  0  0  0  0  0  0  0  0  0  0  0
   92.8770  102.4126  -40.3844 C   0  0  0  0  0  0  0  0  0  0  0  0
   92.7422  103.6684  -40.9031 C   0  0  0  0  0  0  0  0  0  0  0  0
   91.8978  103.8640  -41.9923 C   0  0  0  0  0  0  0  0  0  0  0  0
   91.2021  102.8103  -42.5463 C   0  0  0  0  0  0  0  0  0  0  0  0
   93.6774  102.0837  -39.3138 O   0  0  0  0  0  0  0  0  0  0  0  0
   93.9311  102.8371  -38.1783 C   0  0  0  0  0  0  0  0  0  0  0  0
   89.8083   98.8203  -47.0037 C   0  0  0  0  0  0  0  0  0  0  0  0
   88.5051   99.6144  -46.8277 C   0  0  0  0  0  0  0  0  0  0  0  0
   87.3505   98.6567  -46.7534 C   0  0  0  0  0  0  0  0  0  0  0  0
   86.2757   99.2718  -46.0126 N   0  0  0  0  0  0  0  0  0  0  0  0
   86.5939   99.5567  -44.6488 C   0  0  0  0  0  0  0  0  0  0  0  0
   86.6670   98.3370  -43.7949 C   0  0  0  0  0  0  0  0  0  0  0  0
   85.4898   97.6125  -43.8652 O   0  0  0  0  0  0  0  0  0  0  0  0
   85.3173   97.2129  -45.1910 C   0  0  0  0  0  0  0  0  0  0  0  0
   85.0725   98.4590  -46.0198 C   0  0  0  0  0  0  0  0  0  0  0  0
   86.0229  100.1682  -46.4897 H   0  0  0  0  0  0  0  0  0  0  0  0
 10 11  1  0  0  0
 11 12  2  0  0  0
 11 16  1  0  0  0
 12 13  1  0  0  0
 13 14  2  0  0  0
 14 15  1  0  0  0
 14  1  1  0  0  0
 15 16  2  0  0  0
  1  2  1  0  0  0
  1  7  1  0  0  0
  2  3  1  0  0  0
  2 25  1  0  0  0
  3  4  2  0  0  0
  3  5  1  0  0  0
  5  6  2  0  0  0
  5  7  1  0  0  0
  7  8  2  0  0  0
  8  9  1  0  0  0
  8 17  1  0  0  0
 17 18  2  0  0  0
 17 22  1  0  0  0
 18 19  1  0  0  0
 19 20  2  0  0  0
 19 23  1  0  0  0
 20 21  1  0  0  0
 21 22  2  0  0  0
 23 24  1  0  0  0
 25 26  1  0  0  0
 26 27  1  0  0  0
 27 28  1  0  0  0
 28 29  1  0  0  0
 28 33  1  0  0  0
 29 30  1  0  0  0
 30 31  1  0  0  0
 31 32  1  0  0  0
 32 33  1  0  0  0
 28 34  1  0  0  0
M  CHG 1   9  -1
M  CHG 1  28   1
M  END
> <minimizedAffinity>
-5.94636

$$$$
349


 32 35  0  0  0  0  0  0  0  0999 V2000
   89.6547  100.9899  -44.8906 C   0  0  0  0  0  0  0  0  0  0  0  0
   90.8359  101.5693  -44.4150 N   0  0  0  0  0  0  0  0  0  0  0  0
   91.8601  101.0960  -45.3692 C   0  0  0  0  0  0  0  0  0  0  0  0
   92.9157  101.6960  -45.7131 O   0  0  0  0  0  0  0  0  0  0  0  0
   91.3676   99.7876  -45.8117 C   0  0  0  0  0  0  0  0  0  0  0  0
   91.9078   98.9794  -46.6271 O   0  0  0  0  0  0  0  0  0  0  0  0
   90.0905   99.5811  -45.1016 C   0  0  0  0  0  0  0  0  0  0  0  0
   89.5525   98.4417  -44.7300 C   0  0  0  0  0  0  0  0  0  0  0  0
   88.3693   98.4264  -44.0012 O   0  0  0  0  0  0  0  0  0  0  0  0
   83.7815  102.1306  -43.4935 Br  0  0  0  0  0  0  0  0  0  0  0  0
   85.6154  101.7732  -43.9142 C   0  0  0  0  0  0  0  0  0  0  0  0
   86.0337  101.5623  -45.2101 C   0  0  0  0  0  0  0  0  0  0  0  0
   87.3465  101.3083  -45.4869 C   0  0  0  0  0  0  0  0  0  0  0  0
   88.3270  101.2483  -44.4850 C   0  0  0  0  0  0  0  0  0  0  0  0
   87.9118  101.4565  -43.2174 C   0  0  0  0  0  0  0  0  0  0  0  0
   86.5712  101.7162  -42.9289 C   0  0  0  0  0  0  0  0  0  0  0  0
   90.1324   97.1474  -45.0530 C   0  0  0  0  0  0  0  0  0  0  0  0
   91.1370   96.5280  -44.3778 C   0  0  0  0  0  0  0  0  0  0  0  0
   91.5701   95.2674  -44.7645 C   0  0  0  0  0  0  0  0  0  0  0  0
   90.9894   94.6282  -45.8361 C   0  0  0  0  0  0  0  0  0  0  0  0
   89.9711   95.2207  -46.5453 C   0  0  0  0  0  0  0  0  0  0  0  0
   89.5549   96.4812  -46.1399 C   0  0  0  0  0  0  0  0  0  0  0  0
   91.4286   93.2719  -46.2813 C   0  0  0  0  0  0  0  0  0  0  0  0
   91.2584  102.4625  -43.3465 C   0  0  0  0  0  0  0  0  0  0  0  0
   91.5857  101.7616  -42.0540 C   0  0  0  0  0  0  0  0  0  0  0  0
   92.7532  102.2613  -41.4053 N   0  0  0  0  0  0  0  0  0  0  0  0
   93.9021  102.1508  -42.2844 C   0  0  0  0  0  0  0  0  0  0  0  0
   95.1032  102.7263  -41.5818 C   0  0  0  0  0  0  0  0  0  0  0  0
   95.4099  101.8409  -40.5358 O   0  0  0  0  0  0  0  0  0  0  0  0
   94.3580  101.8588  -39.6497 C   0  0  0  0  0  0  0  0  0  0  0  0
   93.0663  101.3813  -40.2614 C   0  0  0  0  0  0  0  0  0  0  0  0
   92.6452  103.2237  -41.0539 H   0  0  0  0  0  0  0  0  0  0  0  0
 10 11  1  0  0  0
 11 12  2  0  0  0
 11 16  1  0  0  0
 12 13  1  0  0  0
 13 14  2  0  0  0
 14 15  1  0  0  0
 14  1  1  0  0  0
 15 16  2  0  0  0
  1  2  1  0  0  0
  1  7  1  0  0  0
  2  3  1  0  0  0
  2 24  1  0  0  0
  3  4  2  0  0  0
  3  5  1  0  0  0
  5  6  2  0  0  0
  5  7  1  0  0  0
  7  8  2  0  0  0
  8  9  1  0  0  0
  8 17  1  0  0  0
 17 18  2  0  0  0
 17 22  1  0  0  0
 18 19  1  0  0  0
 19 20  2  0  0  0
 20 21  1  0  0  0
 20 23  1  0  0  0
 21 22  2  0  0  0
 24 25  1  0  0  0
 25 26  1  0  0  0
 26 27  1  0  0  0
 26 31  1  0  0  0
 27 28  1  0  0  0
 28 29  1  0  0  0
 29 30  1  0  0  0
 30 31  1  0  0  0
 26 32  1  0  0  0
M  CHG 1   9  -1
M  CHG 1  26   1
M  END
> <minimizedAffinity>
-5.93443

$$$$
351


 32 35  0  0  0  0  0  0  0  0999 V2000
   89.4377  100.7876  -45.5742 C   0  0  0  0  0  0  0  0  0  0  0  0
   90.4943  101.6286  -45.1441 N   0  0  0  0  0  0  0  0  0  0  0  0
   91.6580  101.0897  -45.8411 C   0  0  0  0  0  0  0  0  0  0  0  0
   92.6822  101.7386  -46.1888 O   0  0  0  0  0  0  0  0  0  0  0  0
   91.3802   99.6682  -46.0392 C   0  0  0  0  0  0  0  0  0  0  0  0
   92.1057   98.8005  -46.5909 O   0  0  0  0  0  0  0  0  0  0  0  0
   90.0583   99.4349  -45.4534 C   0  0  0  0  0  0  0  0  0  0  0  0
   89.5953   98.3168  -44.9240 C   0  0  0  0  0  0  0  0  0  0  0  0
   88.3339   98.2839  -44.3505 O   0  0  0  0  0  0  0  0  0  0  0  0
   83.5910  101.3642  -43.8016 Br  0  0  0  0  0  0  0  0  0  0  0  0
   85.4188  101.1929  -44.2984 C   0  0  0  0  0  0  0  0  0  0  0  0
   86.4590  101.3723  -43.4156 C   0  0  0  0  0  0  0  0  0  0  0  0
   87.7955  101.2369  -43.8193 C   0  0  0  0  0  0  0  0  0  0  0  0
   88.1097  100.9209  -45.1106 C   0  0  0  0  0  0  0  0  0  0  0  0
   87.0467  100.7467  -45.9725 C   0  0  0  0  0  0  0  0  0  0  0  0
   85.7301  100.8749  -45.5935 C   0  0  0  0  0  0  0  0  0  0  0  0
   90.3393   97.0651  -44.9052 C   0  0  0  0  0  0  0  0  0  0  0  0
   91.1093   96.8618  -43.7520 C   0  0  0  0  0  0  0  0  0  0  0  0
   91.8407   95.7132  -43.5572 C   0  0  0  0  0  0  0  0  0  0  0  0
   91.8032   94.7345  -44.5443 C   0  0  0  0  0  0  0  0  0  0  0  0
   91.0437   94.9412  -45.6748 C   0  0  0  0  0  0  0  0  0  0  0  0
   90.3134   96.0964  -45.8600 C   0  0  0  0  0  0  0  0  0  0  0  0
   92.7378   93.2788  -44.2863 Cl  0  0  0  0  0  0  0  0  0  0  0  0
   90.5651  102.8106  -44.2805 C   0  0  0  0  0  0  0  0  0  0  0  0
   91.3558  102.6123  -43.0242 C   0  0  0  0  0  0  0  0  0  0  0  0
   90.9939  101.4030  -42.3194 N   0  0  0  0  0  0  0  0  0  0  0  0
   90.3807  101.6591  -41.0464 C   0  0  0  0  0  0  0  0  0  0  0  0
   91.3236  102.2058  -40.0149 C   0  0  0  0  0  0  0  0  0  0  0  0
   92.4716  101.4227  -39.8839 O   0  0  0  0  0  0  0  0  0  0  0  0
   93.0974  101.4336  -41.1397 C   0  0  0  0  0  0  0  0  0  0  0  0
   92.2093  100.6463  -42.0791 C   0  0  0  0  0  0  0  0  0  0  0  0
   90.3594  100.7935  -42.8708 H   0  0  0  0  0  0  0  0  0  0  0  0
 10 11  1  0  0  0
 11 12  2  0  0  0
 11 16  1  0  0  0
 12 13  1  0  0  0
 13 14  2  0  0  0
 14 15  1  0  0  0
 14  1  1  0  0  0
 15 16  2  0  0  0
  1  2  1  0  0  0
  1  7  1  0  0  0
  2  3  1  0  0  0
  2 24  1  0  0  0
  3  4  2  0  0  0
  3  5  1  0  0  0
  5  6  2  0  0  0
  5  7  1  0  0  0
  7  8  2  0  0  0
  8  9  1  0  0  0
  8 17  1  0  0  0
 17 18  2  0  0  0
 17 22  1  0  0  0
 18 19  1  0  0  0
 19 20  2  0  0  0
 20 21  1  0  0  0
 20 23  1  0  0  0
 21 22  2  0  0  0
 24 25  1  0  0  0
 25 26  1  0  0  0
 26 27  1  0  0  0
 26 31  1  0  0  0
 27 28  1  0  0  0
 28 29  1  0  0  0
 29 30  1  0  0  0
 30 31  1  0  0  0
 26 32  1  0  0  0
M  CHG 1   9  -1
M  CHG 1  26   1
M  END
> <minimizedAffinity>
-5.43516

$$$$
354


 32 35  0  0  0  0  0  0  0  0999 V2000
   90.0852   98.4096  -45.5966 C   0  0  0  0  0  0  0  0  0  0  0  0
   90.4497   97.0462  -45.8128 N   0  0  0  0  0  0  0  0  0  0  0  0
   89.3628   96.4700  -46.5825 C   0  0  0  0  0  0  0  0  0  0  0  0
   89.4554   95.4234  -47.2751 O   0  0  0  0  0  0  0  0  0  0  0  0
   88.1941   97.3092  -46.3997 C   0  0  0  0  0  0  0  0  0  0  0  0
   87.0386   97.1503  -46.8986 O   0  0  0  0  0  0  0  0  0  0  0  0
   88.6002   98.3865  -45.5203 C   0  0  0  0  0  0  0  0  0  0  0  0
   87.7940   99.1424  -44.7965 C   0  0  0  0  0  0  0  0  0  0  0  0
   88.4201  100.1071  -43.9702 O   0  0  0  0  0  0  0  0  0  0  0  0
   92.9297  101.7670  -41.2560 Br  0  0  0  0  0  0  0  0  0  0  0  0
   92.0348  100.7027  -42.5642 C   0  0  0  0  0  0  0  0  0  0  0  0
   91.4429   99.4982  -42.2518 C   0  0  0  0  0  0  0  0  0  0  0  0
   90.7989   98.7396  -43.2105 C   0  0  0  0  0  0  0  0  0  0  0  0
   90.7109   99.1280  -44.5041 C   0  0  0  0  0  0  0  0  0  0  0  0
   91.3178  100.3576  -44.8104 C   0  0  0  0  0  0  0  0  0  0  0  0
   91.9635  101.1296  -43.8724 C   0  0  0  0  0  0  0  0  0  0  0  0
   86.3481   99.0460  -44.8076 C   0  0  0  0  0  0  0  0  0  0  0  0
   85.7839   98.1475  -43.8935 C   0  0  0  0  0  0  0  0  0  0  0  0
   84.4201   97.9862  -43.7663 C   0  0  0  0  0  0  0  0  0  0  0  0
   83.5916   98.7098  -44.5408 N   0  0  0  0  0  0  0  0  0  0  0  0
   84.1074   99.5834  -45.4300 C   0  0  0  0  0  0  0  0  0  0  0  0
   85.4834   99.7555  -45.5675 C   0  0  0  0  0  0  0  0  0  0  0  0
   91.6538   96.2864  -45.4709 C   0  0  0  0  0  0  0  0  0  0  0  0
   91.5320   95.4128  -44.2690 C   0  0  0  0  0  0  0  0  0  0  0  0
   91.6229   93.9374  -44.6263 C   0  0  0  0  0  0  0  0  0  0  0  0
   92.0340   93.1467  -43.4896 N   0  0  0  0  0  0  0  0  0  0  0  0
   93.4703   93.0160  -43.3943 C   0  0  0  0  0  0  0  0  0  0  0  0
   93.7744   92.5519  -41.9678 C   0  0  0  0  0  0  0  0  0  0  0  0
   93.6271   93.6412  -41.1098 O   0  0  0  0  0  0  0  0  0  0  0  0
   92.5245   94.4215  -41.4555 C   0  0  0  0  0  0  0  0  0  0  0  0
   91.5080   93.6262  -42.2485 C   0  0  0  0  0  0  0  0  0  0  0  0
   91.6520   92.1831  -43.6453 H   0  0  0  0  0  0  0  0  0  0  0  0
 10 11  1  0  0  0
 11 12  2  0  0  0
 11 16  1  0  0  0
 12 13  1  0  0  0
 13 14  2  0  0  0
 14 15  1  0  0  0
 14  1  1  0  0  0
 15 16  2  0  0  0
  1  2  1  0  0  0
  1  7  1  0  0  0
  2  3  1  0  0  0
  2 23  1  0  0  0
  3  4  2  0  0  0
  3  5  1  0  0  0
  5  6  2  0  0  0
  5  7  1  0  0  0
  7  8  2  0  0  0
  8  9  1  0  0  0
  8 17  1  0  0  0
 17 18  2  0  0  0
 17 22  1  0  0  0
 18 19  1  0  0  0
 19 20  2  0  0  0
 20 21  1  0  0  0
 21 22  2  0  0  0
 23 24  1  0  0  0
 24 25  1  0  0  0
 25 26  1  0  0  0
 26 27  1  0  0  0
 26 31  1  0  0  0
 27 28  1  0  0  0
 28 29  1  0  0  0
 29 30  1  0  0  0
 30 31  1  0  0  0
 26 32  1  0  0  0
M  CHG 1   9  -1
M  CHG 1  26   1
M  END
> <minimizedAffinity>
-6.14797

$$$$
361


 33 36  0  0  0  0  0  0  0  0999 V2000
   90.4208   98.1124  -45.7093 C   0  0  0  0  0  0  0  0  0  0  0  0
   89.0359   97.9165  -46.1765 N   0  0  0  0  0  0  0  0  0  0  0  0
   88.2390   98.0960  -45.0111 C   0  0  0  0  0  0  0  0  0  0  0  0
   87.0886   97.5950  -44.8519 O   0  0  0  0  0  0  0  0  0  0  0  0
   88.9678   98.9371  -44.0674 C   0  0  0  0  0  0  0  0  0  0  0  0
   88.5808   99.3121  -42.9416 O   0  0  0  0  0  0  0  0  0  0  0  0
   90.2257   99.2396  -44.7248 C   0  0  0  0  0  0  0  0  0  0  0  0
   91.0058  100.2746  -44.5442 C   0  0  0  0  0  0  0  0  0  0  0  0
   92.1593  100.4409  -45.2974 O   0  0  0  0  0  0  0  0  0  0  0  0
   90.7097  101.2905  -43.5519 C   0  0  0  0  0  0  0  0  0  0  0  0
   91.1214  101.4432  -42.2767 N   0  0  0  0  0  0  0  0  0  0  0  0
   90.5565  102.5240  -41.7192 C   0  0  0  0  0  0  0  0  0  0  0  0
   89.7670  103.0658  -42.6716 N   0  0  0  0  0  0  0  0  0  0  0  0
   89.8247  102.3649  -43.7872 C   0  0  0  0  0  0  0  0  0  0  0  0
   89.1266  102.5902  -45.0936 C   0  0  0  0  0  0  0  0  0  0  0  0
   90.8188  102.9305  -40.4104 C   0  0  0  0  0  0  0  0  0  0  0  0
   91.6943  102.2116  -39.6297 C   0  0  0  0  0  0  0  0  0  0  0  0
   92.2663  101.1076  -40.2187 C   0  0  0  0  0  0  0  0  0  0  0  0
   91.9876  100.7308  -41.5109 C   0  0  0  0  0  0  0  0  0  0  0  0
   92.4039   93.1868  -42.4677 Br  0  0  0  0  0  0  0  0  0  0  0  0
   91.7878   94.7086  -43.4661 C   0  0  0  0  0  0  0  0  0  0  0  0
   91.3969   94.5764  -44.7861 C   0  0  0  0  0  0  0  0  0  0  0  0
   90.9522   95.6895  -45.4973 C   0  0  0  0  0  0  0  0  0  0  0  0
   90.8829   96.9407  -44.9324 C   0  0  0  0  0  0  0  0  0  0  0  0
   91.2766   97.0503  -43.6164 C   0  0  0  0  0  0  0  0  0  0  0  0
   91.7174   95.9591  -42.9051 C   0  0  0  0  0  0  0  0  0  0  0  0
   88.6248   97.5978  -47.5185 C   0  0  0  0  0  0  0  0  0  0  0  0
   88.0809   96.2552  -47.8119 C   0  0  0  0  0  0  0  0  0  0  0  0
   86.6534   96.0764  -48.1470 C   0  0  0  0  0  0  0  0  0  0  0  0
   85.6806   96.4150  -47.1527 N   0  0  0  0  0  0  0  0  0  0  0  0
   84.8797   97.5429  -47.7082 C   0  0  0  0  0  0  0  0  0  0  0  0
   84.7225   95.3376  -47.0127 C   0  0  0  0  0  0  0  0  0  0  0  0
   86.0326   96.6924  -46.2367 H   0  0  0  0  0  0  0  0  0  0  0  0
 20 21  1  0  0  0
 21 22  2  0  0  0
 21 26  1  0  0  0
 22 23  1  0  0  0
 23 24  2  0  0  0
 24 25  1  0  0  0
 24  1  1  0  0  0
 25 26  2  0  0  0
  1  2  1  0  0  0
  1  7  1  0  0  0
  2  3  1  0  0  0
  2 27  1  0  0  0
  3  4  2  0  0  0
  3  5  1  0  0  0
  5  6  2  0  0  0
  5  7  1  0  0  0
  7  8  2  0  0  0
  8  9  1  0  0  0
  8 10  1  0  0  0
 10 11  1  0  0  0
 10 14  2  0  0  0
 11 12  1  0  0  0
 11 19  1  0  0  0
 12 13  2  0  0  0
 12 16  1  0  0  0
 13 14  1  0  0  0
 14 15  1  0  0  0
 16 17  2  0  0  0
 17 18  1  0  0  0
 18 19  2  0  0  0
 27 28  1  0  0  0
 28 29  1  0  0  0
 29 30  1  0  0  0
 30 31  1  0  0  0
 30 32  1  0  0  0
 30 33  1  0  0  0
M  CHG 1   9  -1
M  CHG 1  30   1
M  END
> <minimizedAffinity>
-5.85719

$$$$
362


 36 40  0  0  0  0  0  0  0  0999 V2000
   91.8599   98.7393  -45.3074 C   0  0  0  0  0  0  0  0  0  0  0  0
   91.0618   97.5964  -45.1538 N   0  0  0  0  0  0  0  0  0  0  0  0
   91.4246   97.1286  -43.8267 C   0  0  0  0  0  0  0  0  0  0  0  0
   91.3665   95.9367  -43.3690 O   0  0  0  0  0  0  0  0  0  0  0  0
   91.8849   98.2834  -43.0635 C   0  0  0  0  0  0  0  0  0  0  0  0
   92.3063   98.3754  -41.8660 O   0  0  0  0  0  0  0  0  0  0  0  0
   91.7734   99.4118  -43.9856 C   0  0  0  0  0  0  0  0  0  0  0  0
   91.6687  100.6964  -43.7018 C   0  0  0  0  0  0  0  0  0  0  0  0
   91.6283  101.6324  -44.7261 O   0  0  0  0  0  0  0  0  0  0  0  0
   91.5878  101.1963  -42.3380 C   0  0  0  0  0  0  0  0  0  0  0  0
   92.5858  101.6637  -41.5690 N   0  0  0  0  0  0  0  0  0  0  0  0
   92.0991  102.0703  -40.3734 C   0  0  0  0  0  0  0  0  0  0  0  0
   90.7756  101.8479  -40.4092 N   0  0  0  0  0  0  0  0  0  0  0  0
   90.4230  101.3192  -41.5786 C   0  0  0  0  0  0  0  0  0  0  0  0
   89.0814  100.9085  -42.0720 C   0  0  0  0  0  0  0  0  0  0  0  0
   92.9070  102.5863  -39.3826 C   0  0  0  0  0  0  0  0  0  0  0  0
   94.2634  102.7097  -39.5695 C   0  0  0  0  0  0  0  0  0  0  0  0
   94.7757  102.2986  -40.7798 C   0  0  0  0  0  0  0  0  0  0  0  0
   93.9354  101.7974  -41.7250 C   0  0  0  0  0  0  0  0  0  0  0  0
   91.7382  102.4034  -50.2306 Br  0  0  0  0  0  0  0  0  0  0  0  0
   91.7545  101.2689  -48.6970 C   0  0  0  0  0  0  0  0  0  0  0  0
   90.5900  100.8112  -48.1091 C   0  0  0  0  0  0  0  0  0  0  0  0
   90.6010   99.9910  -47.0007 C   0  0  0  0  0  0  0  0  0  0  0  0
   91.7863   99.6020  -46.4455 C   0  0  0  0  0  0  0  0  0  0  0  0
   92.9397  100.0515  -47.0230 C   0  0  0  0  0  0  0  0  0  0  0  0
   92.9492  100.8704  -48.1287 C   0  0  0  0  0  0  0  0  0  0  0  0
   90.1096   96.8266  -45.8866 C   0  0  0  0  0  0  0  0  0  0  0  0
   88.6861   97.0829  -45.8576 C   0  0  0  0  0  0  0  0  0  0  0  0
   88.1870   98.2010  -44.9729 C   0  0  0  0  0  0  0  0  0  0  0  0
   86.8811   97.8848  -44.4022 N   0  0  0  0  0  0  0  0  0  0  0  0
   85.9966   97.2118  -45.3068 C   0  0  0  0  0  0  0  0  0  0  0  0
   85.1699   98.1197  -46.1689 C   0  0  0  0  0  0  0  0  0  0  0  0
   85.6037   99.4185  -46.1774 O   0  0  0  0  0  0  0  0  0  0  0  0
   85.7717   99.9915  -44.9438 C   0  0  0  0  0  0  0  0  0  0  0  0
   86.2224   99.0443  -43.8815 C   0  0  0  0  0  0  0  0  0  0  0  0
   87.0643   97.2228  -43.6074 H   0  0  0  0  0  0  0  0  0  0  0  0
 20 21  1  0  0  0
 21 22  2  0  0  0
 21 26  1  0  0  0
 22 23  1  0  0  0
 23 24  2  0  0  0
 24 25  1  0  0  0
 24  1  1  0  0  0
 25 26  2  0  0  0
  1  2  1  0  0  0
  1  7  1  0  0  0
  2  3  1  0  0  0
  2 27  1  0  0  0
  3  4  2  0  0  0
  3  5  1  0  0  0
  5  6  2  0  0  0
  5  7  1  0  0  0
  7  8  2  0  0  0
  8  9  1  0  0  0
  8 10  1  0  0  0
 10 11  1  0  0  0
 10 14  2  0  0  0
 11 12  1  0  0  0
 11 19  1  0  0  0
 12 13  2  0  0  0
 12 16  1  0  0  0
 13 14  1  0  0  0
 14 15  1  0  0  0
 16 17  2  0  0  0
 17 18  1  0  0  0
 18 19  2  0  0  0
 27 28  1  0  0  0
 28 29  1  0  0  0
 29 30  1  0  0  0
 30 31  1  0  0  0
 30 35  1  0  0  0
 31 32  1  0  0  0
 32 33  1  0  0  0
 33 34  1  0  0  0
 34 35  1  0  0  0
 30 36  1  0  0  0
M  CHG 1   9  -1
M  CHG 1  30   1
M  END
> <minimizedAffinity>
-5.63448

$$$$
364


 32 35  0  0  0  0  0  0  0  0999 V2000
   90.5969   98.9455  -44.0979 C   0  0  0  0  0  0  0  0  0  0  0  0
   91.4681   99.5472  -45.0693 N   0  0  0  0  0  0  0  0  0  0  0  0
   90.7694   99.5850  -46.3015 C   0  0  0  0  0  0  0  0  0  0  0  0
   91.2760   99.8587  -47.4269 O   0  0  0  0  0  0  0  0  0  0  0  0
   89.3616   99.2549  -46.0658 C   0  0  0  0  0  0  0  0  0  0  0  0
   88.4367   99.1925  -46.9131 O   0  0  0  0  0  0  0  0  0  0  0  0
   89.2233   99.0105  -44.6413 C   0  0  0  0  0  0  0  0  0  0  0  0
   88.0804   98.9260  -43.9797 C   0  0  0  0  0  0  0  0  0  0  0  0
   88.1573   98.7609  -42.5828 O   0  0  0  0  0  0  0  0  0  0  0  0
   86.7571   98.9773  -44.5497 C   0  0  0  0  0  0  0  0  0  0  0  0
   85.9836   98.0652  -45.1512 N   0  0  0  0  0  0  0  0  0  0  0  0
   84.8242   98.6114  -45.5569 C   0  0  0  0  0  0  0  0  0  0  0  0
   84.8570   99.9075  -45.2041 N   0  0  0  0  0  0  0  0  0  0  0  0
   86.0137  100.1646  -44.5913 C   0  0  0  0  0  0  0  0  0  0  0  0
   86.4228  101.4915  -44.0512 C   0  0  0  0  0  0  0  0  0  0  0  0
   83.8194   97.8945  -46.1976 C   0  0  0  0  0  0  0  0  0  0  0  0
   84.0209   96.5614  -46.4266 C   0  0  0  0  0  0  0  0  0  0  0  0
   85.2119   95.9961  -46.0091 C   0  0  0  0  0  0  0  0  0  0  0  0
   86.1763   96.7484  -45.3797 C   0  0  0  0  0  0  0  0  0  0  0  0
   92.2878   93.1404  -42.6437 Br  0  0  0  0  0  0  0  0  0  0  0  0
   91.7625   94.9123  -43.1301 C   0  0  0  0  0  0  0  0  0  0  0  0
   91.7416   95.8805  -42.1674 C   0  0  0  0  0  0  0  0  0  0  0  0
   91.3648   97.1598  -42.5035 C   0  0  0  0  0  0  0  0  0  0  0  0
   90.9987   97.5505  -43.7716 C   0  0  0  0  0  0  0  0  0  0  0  0
   91.0314   96.5375  -44.7313 C   0  0  0  0  0  0  0  0  0  0  0  0
   91.4050   95.2533  -44.4127 C   0  0  0  0  0  0  0  0  0  0  0  0
   92.8428  100.0422  -44.8370 C   0  0  0  0  0  0  0  0  0  0  0  0
   92.8015  101.3145  -44.0180 C   0  0  0  0  0  0  0  0  0  0  0  0
   93.3710  101.1731  -42.7240 N   0  0  0  0  0  0  0  0  0  0  0  0
   94.1710  102.3687  -42.4575 C   0  0  0  0  0  0  0  0  0  0  0  0
   92.4321  101.0036  -41.6586 C   0  0  0  0  0  0  0  0  0  0  0  0
   94.0471  100.3595  -42.6753 H   0  0  0  0  0  0  0  0  0  0  0  0
 20 21  1  0  0  0
 21 22  2  0  0  0
 21 26  1  0  0  0
 22 23  1  0  0  0
 23 24  2  0  0  0
 24 25  1  0  0  0
 24  1  1  0  0  0
 25 26  2  0  0  0
  1  2  1  0  0  0
  1  7  1  0  0  0
  2  3  1  0  0  0
  2 27  1  0  0  0
  3  4  2  0  0  0
  3  5  1  0  0  0
  5  6  2  0  0  0
  5  7  1  0  0  0
  7  8  2  0  0  0
  8  9  1  0  0  0
  8 10  1  0  0  0
 10 11  1  0  0  0
 10 14  2  0  0  0
 11 12  1  0  0  0
 11 19  1  0  0  0
 12 13  2  0  0  0
 12 16  1  0  0  0
 13 14  1  0  0  0
 14 15  1  0  0  0
 16 17  2  0  0  0
 17 18  1  0  0  0
 18 19  2  0  0  0
 27 28  1  0  0  0
 28 29  1  0  0  0
 29 30  1  0  0  0
 29 31  1  0  0  0
 29 32  1  0  0  0
M  CHG 1   9  -1
M  CHG 1  29   1
M  END
> <minimizedAffinity>
-6.15893

$$$$
381


 29 32  0  0  0  0  0  0  0  0999 V2000
   90.8968   99.4210  -43.5532 N   0  0  0  0  0  0  0  0  0  0  0  0
   89.7789   98.9399  -44.0890 N   0  0  0  0  0  0  0  0  0  0  0  0
   88.5609   99.4941  -43.8254 C   0  0  0  0  0  0  0  0  0  0  0  0
   88.4855  100.5516  -43.0027 N   0  0  0  0  0  0  0  0  0  0  0  0
   87.1101  100.9680  -42.8384 C   0  0  0  0  0  0  0  0  0  0  0  0
   86.2726  100.0477  -43.6755 C   0  0  0  0  0  0  0  0  0  0  0  0
   87.2566   99.1852  -44.3023 N   0  0  0  0  0  0  0  0  0  0  0  0
   89.5766  101.0806  -42.4331 C   0  0  0  0  0  0  0  0  0  0  0  0
   89.5036  102.0689  -41.6647 O   0  0  0  0  0  0  0  0  0  0  0  0
   90.7834  100.4822  -42.7352 C   0  0  0  0  0  0  0  0  0  0  0  0
   91.8352  100.9422  -42.2233 O   0  0  0  0  0  0  0  0  0  0  0  0
   86.9117   98.1929  -45.2497 C   0  0  0  0  0  0  0  0  0  0  0  0
   87.4525   98.1170  -46.5052 C   0  0  0  0  0  0  0  0  0  0  0  0
   87.0820   97.1428  -47.4153 C   0  0  0  0  0  0  0  0  0  0  0  0
   86.1330   96.2031  -47.0604 C   0  0  0  0  0  0  0  0  0  0  0  0
   85.5843   96.2603  -45.8181 C   0  0  0  0  0  0  0  0  0  0  0  0
   85.9582   97.2349  -44.9179 C   0  0  0  0  0  0  0  0  0  0  0  0
   92.2219   98.8545  -43.8545 C   0  0  0  0  0  0  0  0  0  0  0  0
   91.3882   96.4476  -44.2106 N   0  0  0  0  0  0  0  0  0  0  0  0
   92.0928   97.5969  -44.5888 C   0  0  0  0  0  0  0  0  0  0  0  0
   92.7255   97.5999  -45.7186 O   0  0  0  0  0  0  0  0  0  0  0  0
   90.8937   96.4859  -43.2746 H   0  0  0  0  0  0  0  0  0  0  0  0
   91.2555   91.0913  -47.2604 Br  0  0  0  0  0  0  0  0  0  0  0  0
   91.2653   92.7649  -46.3385 C   0  0  0  0  0  0  0  0  0  0  0  0
   90.6195   93.8673  -46.8326 C   0  0  0  0  0  0  0  0  0  0  0  0
   90.6369   95.0905  -46.1481 C   0  0  0  0  0  0  0  0  0  0  0  0
   91.2896   95.2683  -44.9540 C   0  0  0  0  0  0  0  0  0  0  0  0
   91.9411   94.1150  -44.4746 C   0  0  0  0  0  0  0  0  0  0  0  0
   91.9294   92.9192  -45.1375 C   0  0  0  0  0  0  0  0  0  0  0  0
 23 24  1  0  0  0
 24 25  2  0  0  0
 24 29  1  0  0  0
 25 26  1  0  0  0
 26 27  2  0  0  0
 27 28  1  0  0  0
 27 19  1  0  0  0
 28 29  2  0  0  0
 19 20  1  0  0  0
 20 21  2  0  0  0
 20 18  1  0  0  0
 18  1  1  0  0  0
  1  2  1  0  0  0
  1 10  1  0  0  0
  2  3  2  0  0  0
  3  4  1  0  0  0
  3  7  1  0  0  0
  4  5  1  0  0  0
  4  8  1  0  0  0
  5  6  1  0  0  0
  6  7  1  0  0  0
  7 12  1  0  0  0
 12 13  2  0  0  0
 12 17  1  0  0  0
 13 14  1  0  0  0
 14 15  2  0  0  0
 15 16  1  0  0  0
 16 17  2  0  0  0
  8  9  2  0  0  0
  8 10  1  0  0  0
 10 11  2  0  0  0
 19 22  1  0  0  0
M  END
> <minimizedAffinity>
-6.57375

$$$$
382


 31 34  0  0  0  0  0  0  0  0999 V2000
   91.9101   97.3968  -42.2751 N   0  0  0  0  0  0  0  0  0  0  0  0
   91.9887   96.9922  -41.0072 N   0  0  0  0  0  0  0  0  0  0  0  0
   91.9056   95.6827  -40.9605 N   0  0  0  0  0  0  0  0  0  0  0  0
   91.7710   95.2165  -42.2252 C   0  0  0  0  0  0  0  0  0  0  0  0
   91.7757   96.2894  -43.0254 C   0  0  0  0  0  0  0  0  0  0  0  0
   91.6366   95.7749  -44.2974 C   0  0  0  0  0  0  0  0  0  0  0  0
   91.6003   96.5090  -45.3295 O   0  0  0  0  0  0  0  0  0  0  0  0
   91.5493   94.4359  -44.2927 N   0  0  0  0  0  0  0  0  0  0  0  0
   91.6331   94.0757  -42.9804 C   0  0  0  0  0  0  0  0  0  0  0  0
   91.5850   92.8751  -42.5970 O   0  0  0  0  0  0  0  0  0  0  0  0
   92.0998   97.6492  -40.2072 H   0  0  0  0  0  0  0  0  0  0  0  0
   91.9337   95.0542  -40.1194 H   0  0  0  0  0  0  0  0  0  0  0  0
   91.4004   93.5386  -45.4028 C   0  0  0  0  0  0  0  0  0  0  0  0
   91.9357   92.2689  -45.3647 C   0  0  0  0  0  0  0  0  0  0  0  0
   91.7875   91.3960  -46.4239 C   0  0  0  0  0  0  0  0  0  0  0  0
   91.1009   91.7464  -47.5723 C   0  0  0  0  0  0  0  0  0  0  0  0
   90.5643   93.0160  -47.6131 C   0  0  0  0  0  0  0  0  0  0  0  0
   90.7153   93.8876  -46.5470 C   0  0  0  0  0  0  0  0  0  0  0  0
   90.9557   90.7794  -48.6938 C   0  0  0  0  0  0  0  0  0  0  0  0
   91.9645   98.7818  -42.6990 C   0  0  0  0  0  0  0  0  0  0  0  0
   89.4584   99.0783  -42.5284 N   0  0  0  0  0  0  0  0  0  0  0  0
   90.6218   99.1545  -43.3054 C   0  0  0  0  0  0  0  0  0  0  0  0
   90.5778   99.5227  -44.4978 O   0  0  0  0  0  0  0  0  0  0  0  0
   89.5449   98.7514  -41.5143 H   0  0  0  0  0  0  0  0  0  0  0  0
   83.7708  100.7113  -44.1977 Br  0  0  0  0  0  0  0  0  0  0  0  0
   85.5229  100.1561  -43.7141 C   0  0  0  0  0  0  0  0  0  0  0  0
   86.0090   98.9064  -44.0027 C   0  0  0  0  0  0  0  0  0  0  0  0
   87.2966   98.5494  -43.6260 C   0  0  0  0  0  0  0  0  0  0  0  0
   88.1500   99.3995  -42.9565 C   0  0  0  0  0  0  0  0  0  0  0  0
   87.6176  100.6728  -42.6782 C   0  0  0  0  0  0  0  0  0  0  0  0
   86.3579  101.0239  -43.0454 C   0  0  0  0  0  0  0  0  0  0  0  0
 25 26  1  0  0  0
 26 27  2  0  0  0
 26 31  1  0  0  0
 27 28  1  0  0  0
 28 29  2  0  0  0
 29 30  1  0  0  0
 29 21  1  0  0  0
 30 31  2  0  0  0
 21 22  1  0  0  0
 22 23  2  0  0  0
 22 20  1  0  0  0
 20  1  1  0  0  0
  1  2  1  0  0  0
  1  5  1  0  0  0
  2  3  1  0  0  0
  3  4  1  0  0  0
  4  5  2  0  0  0
  4  9  1  0  0  0
  5  6  1  0  0  0
  6  7  2  0  0  0
  6  8  1  0  0  0
  8  9  1  0  0  0
  8 13  1  0  0  0
  9 10  2  0  0  0
 13 14  2  0  0  0
 13 18  1  0  0  0
 14 15  1  0  0  0
 15 16  2  0  0  0
 16 17  1  0  0  0
 16 19  1  0  0  0
 17 18  2  0  0  0
 21 24  1  0  0  0
  2 11  1  0  0  0
  3 12  1  0  0  0
M  END
> <minimizedAffinity>
-7.50501

$$$$
385


 32 35  0  0  0  0  0  0  0  0999 V2000
   91.9951   99.2838  -43.2946 C   0  0  0  0  0  0  0  0  0  0  0  0
   92.6660  100.2892  -44.1826 C   0  0  0  0  0  0  0  0  0  0  0  0
   92.4881  100.0494  -45.6203 C   0  0  0  0  0  0  0  0  0  0  0  0
   92.4724  101.0496  -46.3881 O   0  0  0  0  0  0  0  0  0  0  0  0
   92.3376   98.7288  -46.1100 N   0  0  0  0  0  0  0  0  0  0  0  0
   92.0276   97.6767  -45.2211 C   0  0  0  0  0  0  0  0  0  0  0  0
   91.9002   96.4059  -45.7149 N   0  0  0  0  0  0  0  0  0  0  0  0
   91.6221   95.3629  -44.9301 C   0  0  0  0  0  0  0  0  0  0  0  0
   91.4663   95.5945  -43.6204 N   0  0  0  0  0  0  0  0  0  0  0  0
   91.5807   96.8416  -43.0770 C   0  0  0  0  0  0  0  0  0  0  0  0
   91.8686   97.9370  -43.8669 C   0  0  0  0  0  0  0  0  0  0  0  0
   91.3936   97.0383  -41.6793 N   0  0  0  0  0  0  0  0  0  0  0  0
   92.4521   98.4994  -47.1396 H   0  0  0  0  0  0  0  0  0  0  0  0
   91.6902   97.8859  -41.1864 H   0  0  0  0  0  0  0  0  0  0  0  0
   90.9337   96.2728  -41.1235 H   0  0  0  0  0  0  0  0  0  0  0  0
   91.4896   94.0300  -45.4754 N   0  0  0  0  0  0  0  0  0  0  0  0
   90.7088   93.8875  -46.6542 C   0  0  0  0  0  0  0  0  0  0  0  0
   90.9631   92.6179  -47.4145 C   0  0  0  0  0  0  0  0  0  0  0  0
   91.9898   91.8619  -46.8594 O   0  0  0  0  0  0  0  0  0  0  0  0
   91.8060   91.6601  -45.4981 C   0  0  0  0  0  0  0  0  0  0  0  0
   92.1598   92.9433  -44.7917 C   0  0  0  0  0  0  0  0  0  0  0  0
   89.5209   99.3656  -43.4709 N   0  0  0  0  0  0  0  0  0  0  0  0
   90.6183   99.8965  -42.9587 C   0  0  0  0  0  0  0  0  0  0  0  0
   90.7781  100.9108  -42.1700 O   0  0  0  0  0  0  0  0  0  0  0  0
   88.7860  100.4029  -42.9816 H   0  0  0  0  0  0  0  0  0  0  0  0
   84.7825   96.5143  -46.0481 Br  0  0  0  0  0  0  0  0  0  0  0  0
   86.2454   97.4479  -45.2276 C   0  0  0  0  0  0  0  0  0  0  0  0
   87.5090   97.3906  -45.7606 C   0  0  0  0  0  0  0  0  0  0  0  0
   88.5449   98.0380  -45.1914 C   0  0  0  0  0  0  0  0  0  0  0  0
   88.3809   98.8161  -44.0015 C   0  0  0  0  0  0  0  0  0  0  0  0
   87.0980   98.8470  -43.5005 C   0  0  0  0  0  0  0  0  0  0  0  0
   86.0439   98.1881  -44.0831 C   0  0  0  0  0  0  0  0  0  0  0  0
 26 27  1  0  0  0
 27 28  2  0  0  0
 27 32  1  0  0  0
 28 29  1  0  0  0
 29 30  2  0  0  0
 30 31  1  0  0  0
 30 22  1  0  0  0
 31 32  2  0  0  0
 22 23  1  0  0  0
 23 24  2  0  0  0
 23  1  1  0  0  0
  1  2  1  0  0  0
  1 11  1  0  0  0
  2  3  1  0  0  0
  3  4  2  0  0  0
  3  5  1  0  0  0
  5  6  1  0  0  0
  6  7  2  0  0  0
  6 11  1  0  0  0
  7  8  1  0  0  0
  8  9  2  0  0  0
  8 16  1  0  0  0
  9 10  1  0  0  0
 10 11  2  0  0  0
 10 12  1  0  0  0
 16 17  1  0  0  0
 16 21  1  0  0  0
 17 18  1  0  0  0
 18 19  1  0  0  0
 19 20  1  0  0  0
 20 21  1  0  0  0
 22 25  1  0  0  0
  5 13  1  0  0  0
 12 14  1  0  0  0
 12 15  1  0  0  0
M  END
> <minimizedAffinity>
-7.01833

$$$$
386


 36 39  0  0  0  0  0  0  0  0999 V2000
   89.6047   98.2052  -43.8829 C   0  0  0  0  0  0  0  0  0  0  0  0
   88.3247   98.6038  -44.5935 C   0  0  0  0  0  0  0  0  0  0  0  0
   87.3758   99.1284  -43.5653 C   0  0  0  0  0  0  0  0  0  0  0  0
   86.2249   98.7325  -43.5186 O   0  0  0  0  0  0  0  0  0  0  0  0
   87.8839  100.0879  -42.6778 N   0  0  0  0  0  0  0  0  0  0  0  0
   89.2748  100.2002  -42.4511 C   0  0  0  0  0  0  0  0  0  0  0  0
   89.7832  101.1804  -41.6774 N   0  0  0  0  0  0  0  0  0  0  0  0
   91.0812  101.4159  -41.4835 C   0  0  0  0  0  0  0  0  0  0  0  0
   91.9221  100.5749  -42.1397 N   0  0  0  0  0  0  0  0  0  0  0  0
   91.4818   99.5646  -42.9329 C   0  0  0  0  0  0  0  0  0  0  0  0
   90.1561   99.3226  -43.1263 C   0  0  0  0  0  0  0  0  0  0  0  0
   92.4131   98.7506  -43.5723 O   0  0  0  0  0  0  0  0  0  0  0  0
   87.2679  100.7629  -42.1498 H   0  0  0  0  0  0  0  0  0  0  0  0
   92.9408   99.0614  -44.3852 H   0  0  0  0  0  0  0  0  0  0  0  0
   91.5883  102.4200  -40.6258 N   0  0  0  0  0  0  0  0  0  0  0  0
   92.2017  102.2206  -39.3385 C   0  0  0  0  0  0  0  0  0  0  0  0
   93.3589  103.2056  -39.2022 C   0  0  0  0  0  0  0  0  0  0  0  0
   93.9715  103.5482  -40.5283 C   0  0  0  0  0  0  0  0  0  0  0  0
   92.9775  104.1659  -41.4476 C   0  0  0  0  0  0  0  0  0  0  0  0
   91.5216  103.8206  -41.0585 C   0  0  0  0  0  0  0  0  0  0  0  0
   94.6761  102.3913  -41.1298 C   0  0  0  0  0  0  0  0  0  0  0  0
   95.4748  101.7597  -40.4082 O   0  0  0  0  0  0  0  0  0  0  0  0
   94.4987  101.9701  -42.4666 N   0  0  0  0  0  0  0  0  0  0  0  0
   93.5844  102.0190  -42.9523 H   0  0  0  0  0  0  0  0  0  0  0  0
   95.3207  101.5961  -42.9850 H   0  0  0  0  0  0  0  0  0  0  0  0
   91.1318   96.2679  -44.1830 N   0  0  0  0  0  0  0  0  0  0  0  0
   90.5084   97.3468  -44.6951 C   0  0  0  0  0  0  0  0  0  0  0  0
   90.5689   97.8070  -45.9155 O   0  0  0  0  0  0  0  0  0  0  0  0
   91.5929   95.9425  -45.4063 H   0  0  0  0  0  0  0  0  0  0  0  0
   94.0862   91.7596  -41.4585 Br  0  0  0  0  0  0  0  0  0  0  0  0
   93.1509   93.1284  -42.3718 C   0  0  0  0  0  0  0  0  0  0  0  0
   92.6278   94.1955  -41.6625 C   0  0  0  0  0  0  0  0  0  0  0  0
   91.9467   95.2132  -42.2420 C   0  0  0  0  0  0  0  0  0  0  0  0
   91.7682   95.1687  -43.6622 C   0  0  0  0  0  0  0  0  0  0  0  0
   92.2999   94.0958  -44.3368 C   0  0  0  0  0  0  0  0  0  0  0  0
   92.9892   93.0718  -43.7265 C   0  0  0  0  0  0  0  0  0  0  0  0
 30 31  1  0  0  0
 31 32  2  0  0  0
 31 36  1  0  0  0
 32 33  1  0  0  0
 33 34  2  0  0  0
 34 35  1  0  0  0
 34 26  1  0  0  0
 35 36  2  0  0  0
 26 27  1  0  0  0
 27 28  2  0  0  0
 27  1  1  0  0  0
  1  2  1  0  0  0
  1 11  1  0  0  0
  2  3  1  0  0  0
  3  4  2  0  0  0
  3  5  1  0  0  0
  5  6  1  0  0  0
  6  7  2  0  0  0
  6 11  1  0  0  0
  7  8  1  0  0  0
  8  9  2  0  0  0
  8 15  1  0  0  0
  9 10  1  0  0  0
 10 11  2  0  0  0
 10 12  1  0  0  0
 15 16  1  0  0  0
 15 20  1  0  0  0
 16 17  1  0  0  0
 17 18  1  0  0  0
 18 19  1  0  0  0
 18 21  1  0  0  0
 19 20  1  0  0  0
 21 22  2  0  0  0
 21 23  1  0  0  0
 26 29  1  0  0  0
  5 13  1  0  0  0
 12 14  1  0  0  0
 23 24  1  0  0  0
 23 25  1  0  0  0
M  END
> <minimizedAffinity>
-7.48177

$$$$
393


 27 30  0  0  0  0  0  0  0  0999 V2000
   91.4599   96.8973  -43.3744 N   0  0  0  0  0  0  0  0  0  0  0  0
   92.1236   97.1499  -42.2737 N   0  0  0  0  0  0  0  0  0  0  0  0
   91.9129   98.4017  -41.8205 C   0  0  0  0  0  0  0  0  0  0  0  0
   91.0477   98.9799  -42.7083 C   0  0  0  0  0  0  0  0  0  0  0  0
   90.7796   98.0254  -43.6665 C   0  0  0  0  0  0  0  0  0  0  0  0
   90.5360  100.3419  -42.6187 C   0  0  0  0  0  0  0  0  0  0  0  0
   89.3455  100.4692  -42.2441 O   0  0  0  0  0  0  0  0  0  0  0  0
   91.3047  101.4851  -42.9275 N   0  0  0  0  0  0  0  0  0  0  0  0
   90.7009  102.7901  -42.8054 C   0  0  0  0  0  0  0  0  0  0  0  0
   91.3850  103.5134  -41.6839 C   0  0  0  0  0  0  0  0  0  0  0  0
   92.7034  102.9613  -41.3948 N   0  0  0  0  0  0  0  0  0  0  0  0
   93.4528  102.2245  -42.3549 C   0  0  0  0  0  0  0  0  0  0  0  0
   94.7073  102.2387  -42.3124 O   0  0  0  0  0  0  0  0  0  0  0  0
   92.6809  101.4680  -43.3684 C   0  0  0  0  0  0  0  0  0  0  0  0
   93.1011  103.1272  -40.4221 H   0  0  0  0  0  0  0  0  0  0  0  0
   91.5299   91.5840  -46.4919 Br  0  0  0  0  0  0  0  0  0  0  0  0
   91.5088   93.2320  -45.5220 C   0  0  0  0  0  0  0  0  0  0  0  0
   91.2588   94.4228  -46.1711 C   0  0  0  0  0  0  0  0  0  0  0  0
   91.2470   95.6028  -45.4551 C   0  0  0  0  0  0  0  0  0  0  0  0
   91.4776   95.6615  -44.0935 C   0  0  0  0  0  0  0  0  0  0  0  0
   91.7256   94.4593  -43.4565 C   0  0  0  0  0  0  0  0  0  0  0  0
   91.7399   93.2712  -44.1591 C   0  0  0  0  0  0  0  0  0  0  0  0
   89.9111   98.1870  -44.8107 N   0  0  0  0  0  0  0  0  0  0  0  0
   88.6289   97.8728  -44.9207 C   0  0  0  0  0  0  0  0  0  0  0  0
   88.1619   98.1839  -46.1768 C   0  0  0  0  0  0  0  0  0  0  0  0
   89.2402   98.7133  -46.8448 C   0  0  0  0  0  0  0  0  0  0  0  0
   90.3132   98.7071  -45.9817 C   0  0  0  0  0  0  0  0  0  0  0  0
 16 17  1  0  0  0
 17 18  2  0  0  0
 17 22  1  0  0  0
 18 19  1  0  0  0
 19 20  2  0  0  0
 20 21  1  0  0  0
 20  1  1  0  0  0
 21 22  2  0  0  0
  1  2  1  0  0  0
  1  5  1  0  0  0
  2  3  2  0  0  0
  3  4  1  0  0  0
  4  5  2  0  0  0
  4  6  1  0  0  0
  5 23  1  0  0  0
 23 24  1  0  0  0
 23 27  1  0  0  0
 24 25  2  0  0  0
 25 26  1  0  0  0
 26 27  2  0  0  0
  6  7  2  0  0  0
  6  8  1  0  0  0
  8  9  1  0  0  0
  8 14  1  0  0  0
  9 10  1  0  0  0
 10 11  1  0  0  0
 11 12  1  0  0  0
 12 13  2  0  0  0
 12 14  1  0  0  0
 11 15  1  0  0  0
M  END
> <minimizedAffinity>
-6.27928

$$$$
395


 28 31  0  0  0  0  0  0  0  0999 V2000
   91.7396   93.3023  -44.7493 N   0  0  0  0  0  0  0  0  0  0  0  0
   92.2105   92.8099  -43.6165 N   0  0  0  0  0  0  0  0  0  0  0  0
   92.2435   93.7291  -42.6666 N   0  0  0  0  0  0  0  0  0  0  0  0
   91.7743   94.8989  -43.1779 C   0  0  0  0  0  0  0  0  0  0  0  0
   91.4669   94.5936  -44.4917 C   0  0  0  0  0  0  0  0  0  0  0  0
   90.9747   95.5831  -45.2458 N   0  0  0  0  0  0  0  0  0  0  0  0
   90.7926   96.8136  -44.7359 C   0  0  0  0  0  0  0  0  0  0  0  0
   91.0910   97.1200  -43.4526 N   0  0  0  0  0  0  0  0  0  0  0  0
   91.5863   96.1594  -42.6632 C   0  0  0  0  0  0  0  0  0  0  0  0
   91.8638   96.4395  -41.4762 O   0  0  0  0  0  0  0  0  0  0  0  0
   90.9773   90.3435  -50.1026 Br  0  0  0  0  0  0  0  0  0  0  0  0
   91.2045   91.2738  -48.4439 C   0  0  0  0  0  0  0  0  0  0  0  0
   92.0419   90.7889  -47.4615 C   0  0  0  0  0  0  0  0  0  0  0  0
   92.2190   91.4486  -46.2543 C   0  0  0  0  0  0  0  0  0  0  0  0
   91.5526   92.6280  -45.9959 C   0  0  0  0  0  0  0  0  0  0  0  0
   90.7161   93.1073  -46.9842 C   0  0  0  0  0  0  0  0  0  0  0  0
   90.5381   92.4531  -48.1855 C   0  0  0  0  0  0  0  0  0  0  0  0
   90.8607   98.4774  -42.9941 C   0  0  0  0  0  0  0  0  0  0  0  0
   92.0168   99.3614  -43.3871 C   0  0  0  0  0  0  0  0  0  0  0  0
   92.8287   98.9969  -44.2789 O   0  0  0  0  0  0  0  0  0  0  0  0
   92.2144  100.6162  -42.7642 N   0  0  0  0  0  0  0  0  0  0  0  0
   93.3183  101.4708  -43.1315 C   0  0  0  0  0  0  0  0  0  0  0  0
   93.9277  101.9843  -41.8383 C   0  0  0  0  0  0  0  0  0  0  0  0
   93.0256  102.6093  -41.0166 O   0  0  0  0  0  0  0  0  0  0  0  0
   91.7128  102.4898  -41.4009 C   0  0  0  0  0  0  0  0  0  0  0  0
   91.3064  101.0692  -41.7363 C   0  0  0  0  0  0  0  0  0  0  0  0
   90.7447  103.0715  -40.4134 C   0  0  0  0  0  0  0  0  0  0  0  0
   94.9666  103.0343  -42.2461 C   0  0  0  0  0  0  0  0  0  0  0  0
 11 12  1  0  0  0
 12 13  2  0  0  0
 12 17  1  0  0  0
 13 14  1  0  0  0
 14 15  2  0  0  0
 15 16  1  0  0  0
 15  1  1  0  0  0
 16 17  2  0  0  0
  1  2  1  0  0  0
  1  5  1  0  0  0
  2  3  2  0  0  0
  3  4  1  0  0  0
  4  5  2  0  0  0
  4  9  1  0  0  0
  5  6  1  0  0  0
  6  7  2  0  0  0
  7  8  1  0  0  0
  8  9  1  0  0  0
  8 18  1  0  0  0
  9 10  2  0  0  0
 18 19  1  0  0  0
 19 20  2  0  0  0
 19 21  1  0  0  0
 21 22  1  0  0  0
 21 26  1  0  0  0
 22 23  1  0  0  0
 23 24  1  0  0  0
 23 28  1  0  0  0
 24 25  1  0  0  0
 25 26  1  0  0  0
 25 27  1  0  0  0
M  END
> <minimizedAffinity>
-6.99697

$$$$
399


 28 31  0  0  0  0  0  0  0  0999 V2000
   90.8594   98.0449  -44.8923 N   0  0  0  0  0  0  0  0  0  0  0  0
   89.5585   98.5046  -45.2420 C   0  0  0  0  0  0  0  0  0  0  0  0
   88.5091   97.8346  -45.1353 O   0  0  0  0  0  0  0  0  0  0  0  0
   89.5989   99.8829  -45.7528 C   0  0  0  0  0  0  0  0  0  0  0  0
   91.0382   99.9987  -46.2415 C   0  0  0  0  0  0  0  0  0  0  0  0
   91.7691   99.0805  -45.3117 C   0  0  0  0  0  0  0  0  0  0  0  0
   92.9636   99.2776  -45.0210 O   0  0  0  0  0  0  0  0  0  0  0  0
   92.5084   92.7947  -42.1079 Br  0  0  0  0  0  0  0  0  0  0  0  0
   91.9964   94.4215  -42.9788 C   0  0  0  0  0  0  0  0  0  0  0  0
   91.7782   94.4762  -44.3281 C   0  0  0  0  0  0  0  0  0  0  0  0
   91.4051   95.6680  -44.9582 C   0  0  0  0  0  0  0  0  0  0  0  0
   91.2420   96.8252  -44.2531 C   0  0  0  0  0  0  0  0  0  0  0  0
   91.4591   96.7758  -42.9063 C   0  0  0  0  0  0  0  0  0  0  0  0
   91.8348   95.5860  -42.2640 C   0  0  0  0  0  0  0  0  0  0  0  0
   89.3164  100.9105  -44.7764 N   0  0  0  0  0  0  0  0  0  0  0  0
   88.9547  100.3642  -43.4905 C   0  0  0  0  0  0  0  0  0  0  0  0
   90.0910  100.3091  -42.4938 C   0  0  0  0  0  0  0  0  0  0  0  0
   90.9021  101.4982  -42.5555 N   0  0  0  0  0  0  0  0  0  0  0  0
   90.3393  102.5644  -43.3503 C   0  0  0  0  0  0  0  0  0  0  0  0
   90.2593  101.9698  -44.7691 C   0  0  0  0  0  0  0  0  0  0  0  0
   88.3972  101.3439  -45.1304 H   0  0  0  0  0  0  0  0  0  0  0  0
   92.1438  101.6304  -41.9252 C   0  0  0  0  0  0  0  0  0  0  0  0
   92.4208  101.2763  -40.6202 C   0  0  0  0  0  0  0  0  0  0  0  0
   93.6652  101.4515  -40.0367 C   0  0  0  0  0  0  0  0  0  0  0  0
   94.6909  101.9994  -40.7590 C   0  0  0  0  0  0  0  0  0  0  0  0
   94.4692  102.3726  -42.0693 C   0  0  0  0  0  0  0  0  0  0  0  0
   93.2180  102.1871  -42.6298 C   0  0  0  0  0  0  0  0  0  0  0  0
   95.9669  102.2029  -40.2322 O   0  0  0  0  0  0  0  0  0  0  0  0
  8  9  1  0  0  0
  9 10  2  0  0  0
  9 14  1  0  0  0
 10 11  1  0  0  0
 11 12  2  0  0  0
 12 13  1  0  0  0
 12  1  1  0  0  0
 13 14  2  0  0  0
  1  2  1  0  0  0
  1  6  1  0  0  0
  2  3  2  0  0  0
  2  4  1  0  0  0
  4  5  1  0  0  0
  4 15  1  0  0  0
  5  6  1  0  0  0
  6  7  2  0  0  0
 15 16  1  0  0  0
 15 20  1  0  0  0
 16 17  1  0  0  0
 17 18  1  0  0  0
 18 19  1  0  0  0
 18 22  1  0  0  0
 19 20  1  0  0  0
 22 23  2  0  0  0
 22 27  1  0  0  0
 23 24  1  0  0  0
 24 25  2  0  0  0
 25 26  1  0  0  0
 25 28  1  0  0  0
 26 27  2  0  0  0
 15 21  1  0  0  0
M  CHG 1  15   1
M  CHG 1  28  -1
M  END
> <minimizedAffinity>
-6.44889

$$$$
400


 31 34  0  0  0  0  0  0  0  0999 V2000
   90.2440   99.4970  -44.9362 N   0  0  0  0  0  0  0  0  0  0  0  0
   89.3395  100.3815  -44.3200 C   0  0  0  0  0  0  0  0  0  0  0  0
   88.2387  100.7368  -45.3284 C   0  0  0  0  0  0  0  0  0  0  0  0
   87.3767   99.5343  -45.6429 C   0  0  0  0  0  0  0  0  0  0  0  0
   88.2278   98.3365  -45.7758 C   0  0  0  0  0  0  0  0  0  0  0  0
   89.6827   98.6913  -45.9535 C   0  0  0  0  0  0  0  0  0  0  0  0
   91.6117   96.6013  -44.3029 N   0  0  0  0  0  0  0  0  0  0  0  0
   91.9302   97.8386  -44.9487 C   0  0  0  0  0  0  0  0  0  0  0  0
   92.6249   98.0087  -45.9800 O   0  0  0  0  0  0  0  0  0  0  0  0
   91.2825   98.9300  -44.1759 C   0  0  0  0  0  0  0  0  0  0  0  0
   90.8322   98.3246  -42.8651 C   0  0  0  0  0  0  0  0  0  0  0  0
   91.3747   96.9419  -42.9428 C   0  0  0  0  0  0  0  0  0  0  0  0
   91.6003   96.1613  -41.9519 O   0  0  0  0  0  0  0  0  0  0  0  0
   91.3211   91.0500  -46.9750 Br  0  0  0  0  0  0  0  0  0  0  0  0
   91.4084   92.7725  -46.1490 C   0  0  0  0  0  0  0  0  0  0  0  0
   90.7500   93.8651  -46.6639 C   0  0  0  0  0  0  0  0  0  0  0  0
   90.8192   95.1233  -46.0533 C   0  0  0  0  0  0  0  0  0  0  0  0
   91.5521   95.3086  -44.9114 C   0  0  0  0  0  0  0  0  0  0  0  0
   92.2080   94.2088  -44.4051 C   0  0  0  0  0  0  0  0  0  0  0  0
   92.1462   92.9588  -45.0003 C   0  0  0  0  0  0  0  0  0  0  0  0
   86.3379   99.4734  -44.7001 N   0  0  0  0  0  0  0  0  0  0  0  0
   86.1815   98.3054  -43.9397 C   0  0  0  0  0  0  0  0  0  0  0  0
   84.7324   97.8314  -44.1468 C   0  0  0  0  0  0  0  0  0  0  0  0
   83.8580   98.9040  -43.5296 C   0  0  0  0  0  0  0  0  0  0  0  0
   84.5722  100.1942  -43.2998 C   0  0  0  0  0  0  0  0  0  0  0  0
   85.5245  100.5615  -44.4477 C   0  0  0  0  0  0  0  0  0  0  0  0
   86.7599   99.8268  -46.9854 C   0  0  0  0  0  0  0  0  0  0  0  0
   87.0073  100.9256  -47.5674 O   0  0  0  0  0  0  0  0  0  0  0  0
   85.8990   98.9208  -47.6491 N   0  0  0  0  0  0  0  0  0  0  0  0
   84.9268   99.1907  -47.8410 H   0  0  0  0  0  0  0  0  0  0  0  0
   86.2358   97.9856  -47.9477 H   0  0  0  0  0  0  0  0  0  0  0  0
 14 15  1  0  0  0
 15 16  2  0  0  0
 15 20  1  0  0  0
 16 17  1  0  0  0
 17 18  2  0  0  0
 18 19  1  0  0  0
 18  7  1  0  0  0
 19 20  2  0  0  0
  7  8  1  0  0  0
  7 12  1  0  0  0
  8  9  2  0  0  0
  8 10  1  0  0  0
 10 11  1  0  0  0
 10  1  1  0  0  0
 11 12  1  0  0  0
 12 13  2  0  0  0
  1  2  1  0  0  0
  1  6  1  0  0  0
  2  3  1  0  0  0
  3  4  1  0  0  0
  4  5  1  0  0  0
  4 21  1  0  0  0
  4 27  1  0  0  0
  5  6  1  0  0  0
 21 22  1  0  0  0
 21 26  1  0  0  0
 22 23  1  0  0  0
 23 24  1  0  0  0
 24 25  1  0  0  0
 25 26  1  0  0  0
 27 28  2  0  0  0
 27 29  1  0  0  0
 29 30  1  0  0  0
 29 31  1  0  0  0
M  END
> <minimizedAffinity>
-6.80914

$$$$
408


 31 34  0  0  0  0  0  0  0  0999 V2000
   87.0258   98.4001  -44.9267 N   0  0  0  0  0  0  0  0  0  0  0  0
   88.3645   98.4376  -44.8155 C   0  0  0  0  0  0  0  0  0  0  0  0
   89.1546   97.8509  -45.6173 O   0  0  0  0  0  0  0  0  0  0  0  0
   88.7539   99.1991  -43.7134 C   0  0  0  0  0  0  0  0  0  0  0  0
   87.6221   99.6232  -43.1592 C   0  0  0  0  0  0  0  0  0  0  0  0
   88.0203  100.3530  -42.1016 N   0  0  0  0  0  0  0  0  0  0  0  0
   89.3408  100.3676  -42.0241 N   0  0  0  0  0  0  0  0  0  0  0  0
   89.8056   99.6541  -43.0207 N   0  0  0  0  0  0  0  0  0  0  0  0
   86.5590   99.1388  -43.8947 C   0  0  0  0  0  0  0  0  0  0  0  0
   85.3420   99.3280  -43.6777 O   0  0  0  0  0  0  0  0  0  0  0  0
   87.3237  100.8198  -41.4669 H   0  0  0  0  0  0  0  0  0  0  0  0
   89.8630  100.8774  -41.2749 H   0  0  0  0  0  0  0  0  0  0  0  0
   83.7068   95.5556  -49.2731 Br  0  0  0  0  0  0  0  0  0  0  0  0
   84.7397   96.4336  -47.9135 C   0  0  0  0  0  0  0  0  0  0  0  0
   85.1999   97.7209  -48.0899 C   0  0  0  0  0  0  0  0  0  0  0  0
   85.9437   98.3548  -47.1128 C   0  0  0  0  0  0  0  0  0  0  0  0
   86.2576   97.7261  -45.9198 C   0  0  0  0  0  0  0  0  0  0  0  0
   85.7873   96.4378  -45.7638 C   0  0  0  0  0  0  0  0  0  0  0  0
   85.0458   95.7988  -46.7309 C   0  0  0  0  0  0  0  0  0  0  0  0
   91.1865   99.3903  -43.3370 C   0  0  0  0  0  0  0  0  0  0  0  0
   91.6165   98.0294  -42.8722 C   0  0  0  0  0  0  0  0  0  0  0  0
   92.2976   98.0326  -41.8192 O   0  0  0  0  0  0  0  0  0  0  0  0
   91.2833   96.8595  -43.5597 N   0  0  0  0  0  0  0  0  0  0  0  0
   90.6952   97.0185  -44.4456 H   0  0  0  0  0  0  0  0  0  0  0  0
   91.6297   95.5470  -43.2179 C   0  0  0  0  0  0  0  0  0  0  0  0
   91.6968   94.6088  -44.2608 C   0  0  0  0  0  0  0  0  0  0  0  0
   92.0327   93.3106  -43.9712 C   0  0  0  0  0  0  0  0  0  0  0  0
   92.3120   92.8766  -42.6926 C   0  0  0  0  0  0  0  0  0  0  0  0
   92.2483   93.7815  -41.6748 C   0  0  0  0  0  0  0  0  0  0  0  0
   91.9109   95.0894  -41.9539 C   0  0  0  0  0  0  0  0  0  0  0  0
   91.4136   94.9903  -45.6580 C   0  0  0  0  0  0  0  0  0  0  0  0
 13 14  1  0  0  0
 14 15  2  0  0  0
 14 19  1  0  0  0
 15 16  1  0  0  0
 16 17  2  0  0  0
 17 18  1  0  0  0
 17  1  1  0  0  0
 18 19  2  0  0  0
  1  2  1  0  0  0
  1  9  1  0  0  0
  2  3  2  0  0  0
  2  4  1  0  0  0
  4  5  2  0  0  0
  4  8  1  0  0  0
  5  6  1  0  0  0
  5  9  1  0  0  0
  6  7  1  0  0  0
  7  8  1  0  0  0
  8 20  1  0  0  0
 20 21  1  0  0  0
 21 22  2  0  0  0
 21 23  1  0  0  0
 23 25  1  0  0  0
 25 26  2  0  0  0
 25 30  1  0  0  0
 26 27  1  0  0  0
 26 31  1  0  0  0
 27 28  2  0  0  0
 28 29  1  0  0  0
 29 30  2  0  0  0
  9 10  2  0  0  0
  6 11  1  0  0  0
  7 12  1  0  0  0
 23 24  1  0  0  0
M  END
> <minimizedAffinity>
-7.04219

$$$$
411


 34 37  0  0  0  0  0  0  0  0999 V2000
   91.5377   95.4172  -44.3396 N   0  0  0  0  0  0  0  0  0  0  0  0
   91.5989   96.7303  -44.6148 C   0  0  0  0  0  0  0  0  0  0  0  0
   91.5300   97.1783  -45.7879 O   0  0  0  0  0  0  0  0  0  0  0  0
   91.7423   97.4779  -43.4578 C   0  0  0  0  0  0  0  0  0  0  0  0
   91.7683   96.6017  -42.4618 C   0  0  0  0  0  0  0  0  0  0  0  0
   91.9077   97.3265  -41.3411 N   0  0  0  0  0  0  0  0  0  0  0  0
   91.9653   98.6108  -41.6450 N   0  0  0  0  0  0  0  0  0  0  0  0
   91.8647   98.7250  -42.9424 N   0  0  0  0  0  0  0  0  0  0  0  0
   91.6441   95.3356  -42.9946 C   0  0  0  0  0  0  0  0  0  0  0  0
   91.6300   94.2507  -42.3237 O   0  0  0  0  0  0  0  0  0  0  0  0
   91.9658   96.9688  -40.3670 H   0  0  0  0  0  0  0  0  0  0  0  0
   92.0732   99.4278  -40.9730 H   0  0  0  0  0  0  0  0  0  0  0  0
   90.8414   90.6785  -48.2144 Br  0  0  0  0  0  0  0  0  0  0  0  0
   91.0664   92.1425  -47.0005 C   0  0  0  0  0  0  0  0  0  0  0  0
   91.7901   92.0016  -45.8328 C   0  0  0  0  0  0  0  0  0  0  0  0
   91.9509   93.0691  -44.9545 C   0  0  0  0  0  0  0  0  0  0  0  0
   91.3940   94.3041  -45.2141 C   0  0  0  0  0  0  0  0  0  0  0  0
   90.6728   94.4385  -46.3801 C   0  0  0  0  0  0  0  0  0  0  0  0
   90.5131   93.3819  -47.2528 C   0  0  0  0  0  0  0  0  0  0  0  0
   91.8784   99.9381  -43.7247 C   0  0  0  0  0  0  0  0  0  0  0  0
   92.4446  101.0608  -42.8869 C   0  0  0  0  0  0  0  0  0  0  0  0
   91.6721  101.7404  -42.1753 O   0  0  0  0  0  0  0  0  0  0  0  0
   93.8203  101.3323  -42.9116 N   0  0  0  0  0  0  0  0  0  0  0  0
   94.4213  100.7093  -43.5435 H   0  0  0  0  0  0  0  0  0  0  0  0
   94.4763  102.3408  -42.1781 C   0  0  0  0  0  0  0  0  0  0  0  0
   94.7955  102.2891  -40.8448 C   0  0  0  0  0  0  0  0  0  0  0  0
   95.4246  103.3207  -40.1793 C   0  0  0  0  0  0  0  0  0  0  0  0
   95.7452  104.4544  -40.8961 C   0  0  0  0  0  0  0  0  0  0  0  0
   95.4410  104.5464  -42.2447 C   0  0  0  0  0  0  0  0  0  0  0  0
   94.8154  103.5111  -42.8840 C   0  0  0  0  0  0  0  0  0  0  0  0
   96.3810  105.5072  -40.2436 O   0  0  0  0  0  0  0  0  0  0  0  0
   97.7000  105.8537  -40.6166 C   0  0  0  0  0  0  0  0  0  0  0  0
   95.7365  103.2393  -38.8240 O   0  0  0  0  0  0  0  0  0  0  0  0
   94.6545  103.3337  -37.8884 C   0  0  0  0  0  0  0  0  0  0  0  0
 13 14  1  0  0  0
 14 15  2  0  0  0
 14 19  1  0  0  0
 15 16  1  0  0  0
 16 17  2  0  0  0
 17 18  1  0  0  0
 17  1  1  0  0  0
 18 19  2  0  0  0
  1  2  1  0  0  0
  1  9  1  0  0  0
  2  3  2  0  0  0
  2  4  1  0  0  0
  4  5  2  0  0  0
  4  8  1  0  0  0
  5  6  1  0  0  0
  5  9  1  0  0  0
  6  7  1  0  0  0
  7  8  1  0  0  0
  8 20  1  0  0  0
 20 21  1  0  0  0
 21 22  2  0  0  0
 21 23  1  0  0  0
 23 25  1  0  0  0
 25 26  2  0  0  0
 25 30  1  0  0  0
 26 27  1  0  0  0
 27 28  2  0  0  0
 27 33  1  0  0  0
 28 29  1  0  0  0
 28 31  1  0  0  0
 29 30  2  0  0  0
 31 32  1  0  0  0
 33 34  1  0  0  0
  9 10  2  0  0  0
  6 11  1  0  0  0
  7 12  1  0  0  0
 23 24  1  0  0  0
M  END
> <minimizedAffinity>
-7.24996

$$$$
412


 34 37  0  0  0  0  0  0  0  0999 V2000
   91.5989  101.5115  -43.2095 N   0  0  0  0  0  0  0  0  0  0  0  0
   90.8383  100.6475  -43.8862 C   0  0  0  0  0  0  0  0  0  0  0  0
   89.7787  100.1103  -43.4196 O   0  0  0  0  0  0  0  0  0  0  0  0
   91.3066  100.3794  -45.1515 C   0  0  0  0  0  0  0  0  0  0  0  0
   92.4219  101.1280  -45.2524 C   0  0  0  0  0  0  0  0  0  0  0  0
   92.9048  100.8826  -46.4944 N   0  0  0  0  0  0  0  0  0  0  0  0
   92.1216  100.0256  -47.1248 N   0  0  0  0  0  0  0  0  0  0  0  0
   91.1387   99.7140  -46.3050 N   0  0  0  0  0  0  0  0  0  0  0  0
   92.6105  101.8202  -44.0789 C   0  0  0  0  0  0  0  0  0  0  0  0
   93.5320  102.6185  -43.7828 O   0  0  0  0  0  0  0  0  0  0  0  0
   93.7769  101.3204  -46.8733 H   0  0  0  0  0  0  0  0  0  0  0  0
   92.3095   99.6901  -48.1075 H   0  0  0  0  0  0  0  0  0  0  0  0
   90.9308  103.7403  -37.4966 Br  0  0  0  0  0  0  0  0  0  0  0  0
   91.1380  103.0501  -39.2851 C   0  0  0  0  0  0  0  0  0  0  0  0
   90.4605  103.6055  -40.3437 C   0  0  0  0  0  0  0  0  0  0  0  0
   90.6108  103.0995  -41.6444 C   0  0  0  0  0  0  0  0  0  0  0  0
   91.4424  102.0338  -41.8871 C   0  0  0  0  0  0  0  0  0  0  0  0
   92.1118  101.4950  -40.8092 C   0  0  0  0  0  0  0  0  0  0  0  0
   91.9704  101.9826  -39.5314 C   0  0  0  0  0  0  0  0  0  0  0  0
   90.0705   98.8092  -46.6174 C   0  0  0  0  0  0  0  0  0  0  0  0
   90.1381   97.5431  -45.8918 C   0  0  0  0  0  0  0  0  0  0  0  0
   89.1188   96.9992  -45.3754 O   0  0  0  0  0  0  0  0  0  0  0  0
   91.3970   96.9147  -45.7634 N   0  0  0  0  0  0  0  0  0  0  0  0
   92.2702   97.3582  -46.1854 H   0  0  0  0  0  0  0  0  0  0  0  0
   91.4815   95.6850  -45.0623 C   0  0  0  0  0  0  0  0  0  0  0  0
   91.5519   95.7630  -43.6933 C   0  0  0  0  0  0  0  0  0  0  0  0
   91.6679   94.5955  -42.9294 C   0  0  0  0  0  0  0  0  0  0  0  0
   91.7127   93.3757  -43.5511 C   0  0  0  0  0  0  0  0  0  0  0  0
   91.6433   93.2806  -44.9393 C   0  0  0  0  0  0  0  0  0  0  0  0
   91.5271   94.4552  -45.6665 C   0  0  0  0  0  0  0  0  0  0  0  0
   91.6990   92.0200  -45.4954 O   0  0  0  0  0  0  0  0  0  0  0  0
   91.3194   91.6516  -46.7847 C   0  0  0  0  0  0  0  0  0  0  0  0
   91.7265   94.7914  -41.5703 O   0  0  0  0  0  0  0  0  0  0  0  0
   92.1956   95.9390  -40.9633 C   0  0  0  0  0  0  0  0  0  0  0  0
 13 14  1  0  0  0
 14 15  2  0  0  0
 14 19  1  0  0  0
 15 16  1  0  0  0
 16 17  2  0  0  0
 17 18  1  0  0  0
 17  1  1  0  0  0
 18 19  2  0  0  0
  1  2  1  0  0  0
  1  9  1  0  0  0
  2  3  2  0  0  0
  2  4  1  0  0  0
  4  5  2  0  0  0
  4  8  1  0  0  0
  5  6  1  0  0  0
  5  9  1  0  0  0
  6  7  1  0  0  0
  7  8  1  0  0  0
  8 20  1  0  0  0
 20 21  1  0  0  0
 21 22  2  0  0  0
 21 23  1  0  0  0
 23 25  1  0  0  0
 25 26  2  0  0  0
 25 30  1  0  0  0
 26 27  1  0  0  0
 27 28  2  0  0  0
 27 33  1  0  0  0
 28 29  1  0  0  0
 29 30  2  0  0  0
 29 31  1  0  0  0
 31 32  1  0  0  0
 33 34  1  0  0  0
  9 10  2  0  0  0
  6 11  1  0  0  0
  7 12  1  0  0  0
 23 24  1  0  0  0
M  END
> <minimizedAffinity>
-6.83577

$$$$
414


 35 38  0  0  0  0  0  0  0  0999 V2000
   87.3280   98.3176  -45.5529 N   0  0  0  0  0  0  0  0  0  0  0  0
   88.6820   98.4044  -45.5837 C   0  0  0  0  0  0  0  0  0  0  0  0
   89.4202   98.2406  -46.6047 O   0  0  0  0  0  0  0  0  0  0  0  0
   89.1563   98.7028  -44.3181 C   0  0  0  0  0  0  0  0  0  0  0  0
   88.0776   98.7916  -43.5438 C   0  0  0  0  0  0  0  0  0  0  0  0
   88.5155   99.0837  -42.2954 N   0  0  0  0  0  0  0  0  0  0  0  0
   89.8417   99.1647  -42.3479 N   0  0  0  0  0  0  0  0  0  0  0  0
   90.2708   98.9358  -43.5741 N   0  0  0  0  0  0  0  0  0  0  0  0
   86.9473   98.5565  -44.2900 C   0  0  0  0  0  0  0  0  0  0  0  0
   85.7629   98.5593  -43.8882 O   0  0  0  0  0  0  0  0  0  0  0  0
   87.9124   99.2183  -41.4588 H   0  0  0  0  0  0  0  0  0  0  0  0
   90.4464   99.3770  -41.5353 H   0  0  0  0  0  0  0  0  0  0  0  0
   83.9005   96.9504  -50.4471 Br  0  0  0  0  0  0  0  0  0  0  0  0
   84.9661   97.3512  -48.9239 C   0  0  0  0  0  0  0  0  0  0  0  0
   85.4780   96.3832  -48.0858 C   0  0  0  0  0  0  0  0  0  0  0  0
   86.2367   96.7019  -47.0031 C   0  0  0  0  0  0  0  0  0  0  0  0
   86.5290   98.0218  -46.6960 C   0  0  0  0  0  0  0  0  0  0  0  0
   86.0263   98.9947  -47.5214 C   0  0  0  0  0  0  0  0  0  0  0  0
   85.2638   98.6581  -48.6071 C   0  0  0  0  0  0  0  0  0  0  0  0
   91.6354   98.9229  -44.0879 C   0  0  0  0  0  0  0  0  0  0  0  0
   91.8714   97.6278  -44.8261 C   0  0  0  0  0  0  0  0  0  0  0  0
   92.6581   97.7627  -45.7959 O   0  0  0  0  0  0  0  0  0  0  0  0
   91.2396   96.4604  -44.4019 N   0  0  0  0  0  0  0  0  0  0  0  0
   90.6046   96.5640  -43.5479 H   0  0  0  0  0  0  0  0  0  0  0  0
   91.3486   95.1691  -44.9752 C   0  0  0  0  0  0  0  0  0  0  0  0
   92.0337   94.1127  -44.4239 C   0  0  0  0  0  0  0  0  0  0  0  0
   92.0953   92.8626  -45.0553 C   0  0  0  0  0  0  0  0  0  0  0  0
   91.4699   92.6375  -46.2582 C   0  0  0  0  0  0  0  0  0  0  0  0
   90.7817   93.6862  -46.8179 C   0  0  0  0  0  0  0  0  0  0  0  0
   90.7227   94.9175  -46.1941 C   0  0  0  0  0  0  0  0  0  0  0  0
   91.5609   91.3200  -46.8785 C   0  0  0  0  0  0  0  0  0  0  0  0
   92.6862   90.7625  -46.9223 O   0  0  0  0  0  0  0  0  0  0  0  0
   90.5019   90.6458  -47.4193 O   0  0  0  0  0  0  0  0  0  0  0  0
   90.4190   90.1402  -48.7207 C   0  0  0  0  0  0  0  0  0  0  0  0
   90.5309   91.3457  -49.6646 C   0  0  0  0  0  0  0  0  0  0  0  0
 13 14  1  0  0  0
 14 15  2  0  0  0
 14 19  1  0  0  0
 15 16  1  0  0  0
 16 17  2  0  0  0
 17 18  1  0  0  0
 17  1  1  0  0  0
 18 19  2  0  0  0
  1  2  1  0  0  0
  1  9  1  0  0  0
  2  3  2  0  0  0
  2  4  1  0  0  0
  4  5  2  0  0  0
  4  8  1  0  0  0
  5  6  1  0  0  0
  5  9  1  0  0  0
  6  7  1  0  0  0
  7  8  1  0  0  0
  8 20  1  0  0  0
 20 21  1  0  0  0
 21 22  2  0  0  0
 21 23  1  0  0  0
 23 25  1  0  0  0
 25 26  2  0  0  0
 25 30  1  0  0  0
 26 27  1  0  0  0
 27 28  2  0  0  0
 28 29  1  0  0  0
 28 31  1  0  0  0
 29 30  2  0  0  0
 31 32  2  0  0  0
 31 33  1  0  0  0
 33 34  1  0  0  0
 34 35  1  0  0  0
  9 10  2  0  0  0
  6 11  1  0  0  0
  7 12  1  0  0  0
 23 24  1  0  0  0
M  END
> <minimizedAffinity>
-6.69102

$$$$
416


 33 36  0  0  0  0  0  0  0  0999 V2000
   91.4075   96.8983  -43.5219 N   0  0  0  0  0  0  0  0  0  0  0  0
   91.2496   96.2377  -44.7030 C   0  0  0  0  0  0  0  0  0  0  0  0
   91.0164   96.8093  -45.7948 O   0  0  0  0  0  0  0  0  0  0  0  0
   91.3804   94.8771  -44.5273 C   0  0  0  0  0  0  0  0  0  0  0  0
   91.6189   94.7002  -43.2360 C   0  0  0  0  0  0  0  0  0  0  0  0
   91.7503   93.3766  -43.0335 N   0  0  0  0  0  0  0  0  0  0  0  0
   91.5909   92.7657  -44.1985 N   0  0  0  0  0  0  0  0  0  0  0  0
   91.3611   93.6606  -45.1408 N   0  0  0  0  0  0  0  0  0  0  0  0
   91.6364   95.9318  -42.6215 C   0  0  0  0  0  0  0  0  0  0  0  0
   91.8363   96.1619  -41.3873 O   0  0  0  0  0  0  0  0  0  0  0  0
   91.9448   92.8866  -42.1432 H   0  0  0  0  0  0  0  0  0  0  0  0
   91.6437   91.7150  -44.3406 H   0  0  0  0  0  0  0  0  0  0  0  0
   91.2650  102.9962  -42.6026 Br  0  0  0  0  0  0  0  0  0  0  0  0
   91.2842  101.1071  -42.8725 C   0  0  0  0  0  0  0  0  0  0  0  0
   90.2033  100.3095  -42.5606 C   0  0  0  0  0  0  0  0  0  0  0  0
   90.2328   98.9384  -42.7659 C   0  0  0  0  0  0  0  0  0  0  0  0
   91.3389   98.3025  -43.2909 C   0  0  0  0  0  0  0  0  0  0  0  0
   92.4254   99.0993  -43.6041 C   0  0  0  0  0  0  0  0  0  0  0  0
   92.3971  100.4635  -43.3996 C   0  0  0  0  0  0  0  0  0  0  0  0
   91.1209   93.4367  -46.5365 C   0  0  0  0  0  0  0  0  0  0  0  0
   91.3025   91.9960  -46.9530 C   0  0  0  0  0  0  0  0  0  0  0  0
   92.0745   91.3202  -46.2389 O   0  0  0  0  0  0  0  0  0  0  0  0
   90.6461   91.4608  -48.0594 N   0  0  0  0  0  0  0  0  0  0  0  0
   90.0128   92.1516  -48.5959 H   0  0  0  0  0  0  0  0  0  0  0  0
   90.6797   90.1603  -48.5908 C   0  0  0  0  0  0  0  0  0  0  0  0
   89.4913   89.4611  -48.8026 C   0  0  0  0  0  0  0  0  0  0  0  0
   89.4787   88.1863  -49.3013 C   0  0  0  0  0  0  0  0  0  0  0  0
   90.6757   87.5407  -49.6149 C   0  0  0  0  0  0  0  0  0  0  0  0
   91.8279   88.2558  -49.3962 C   0  0  0  0  0  0  0  0  0  0  0  0
   91.8466   89.5374  -48.8972 C   0  0  0  0  0  0  0  0  0  0  0  0
   90.6171   86.2585  -50.1096 O   0  0  0  0  0  0  0  0  0  0  0  0
   89.5539   85.6745  -50.7898 C   0  0  0  0  0  0  0  0  0  0  0  0
   89.3320   86.2096  -52.1629 C   0  0  0  0  0  0  0  0  0  0  0  0
 13 14  1  0  0  0
 14 15  2  0  0  0
 14 19  1  0  0  0
 15 16  1  0  0  0
 16 17  2  0  0  0
 17 18  1  0  0  0
 17  1  1  0  0  0
 18 19  2  0  0  0
  1  2  1  0  0  0
  1  9  1  0  0  0
  2  3  2  0  0  0
  2  4  1  0  0  0
  4  5  2  0  0  0
  4  8  1  0  0  0
  5  6  1  0  0  0
  5  9  1  0  0  0
  6  7  1  0  0  0
  7  8  1  0  0  0
  8 20  1  0  0  0
 20 21  1  0  0  0
 21 22  2  0  0  0
 21 23  1  0  0  0
 23 25  1  0  0  0
 25 26  2  0  0  0
 25 30  1  0  0  0
 26 27  1  0  0  0
 27 28  2  0  0  0
 28 29  1  0  0  0
 28 31  1  0  0  0
 29 30  2  0  0  0
 31 32  1  0  0  0
 32 33  1  0  0  0
  9 10  2  0  0  0
  6 11  1  0  0  0
  7 12  1  0  0  0
 23 24  1  0  0  0
M  END
> <minimizedAffinity>
-7.19719

$$$$
421


 28 31  0  0  0  0  0  0  0  0999 V2000
   91.5023   96.4475  -43.9588 N   0  0  0  0  0  0  0  0  0  0  0  0
   91.4587   95.5291  -44.9491 C   0  0  0  0  0  0  0  0  0  0  0  0
   91.3117   95.7393  -46.1956 O   0  0  0  0  0  0  0  0  0  0  0  0
   91.5980   94.2509  -44.4405 C   0  0  0  0  0  0  0  0  0  0  0  0
   91.7275   94.4147  -43.1220 C   0  0  0  0  0  0  0  0  0  0  0  0
   91.8650   93.1635  -42.6207 N   0  0  0  0  0  0  0  0  0  0  0  0
   91.8163   92.3013  -43.6224 N   0  0  0  0  0  0  0  0  0  0  0  0
   91.6512   92.9469  -44.7649 N   0  0  0  0  0  0  0  0  0  0  0  0
   91.6696   95.7580  -42.8175 C   0  0  0  0  0  0  0  0  0  0  0  0
   91.7537   96.3022  -41.6884 O   0  0  0  0  0  0  0  0  0  0  0  0
   91.9883   92.9437  -41.5979 H   0  0  0  0  0  0  0  0  0  0  0  0
   91.8920   91.2523  -43.5676 H   0  0  0  0  0  0  0  0  0  0  0  0
   90.8851  102.5433  -44.6318 Br  0  0  0  0  0  0  0  0  0  0  0  0
   91.1012  100.6520  -44.4267 C   0  0  0  0  0  0  0  0  0  0  0  0
   92.3364  100.0478  -44.5392 C   0  0  0  0  0  0  0  0  0  0  0  0
   92.4783   98.6711  -44.3881 C   0  0  0  0  0  0  0  0  0  0  0  0
   91.3898   97.8676  -44.1205 C   0  0  0  0  0  0  0  0  0  0  0  0
   90.1611   98.4854  -44.0108 C   0  0  0  0  0  0  0  0  0  0  0  0
   90.0102   99.8512  -44.1599 C   0  0  0  0  0  0  0  0  0  0  0  0
   91.5514   92.3677  -46.0716 C   0  0  0  0  0  0  0  0  0  0  0  0
   92.3498   91.3052  -46.4424 C   0  0  0  0  0  0  0  0  0  0  0  0
   92.2754   90.7222  -47.7011 C   0  0  0  0  0  0  0  0  0  0  0  0
   91.3800   91.2035  -48.6325 C   0  0  0  0  0  0  0  0  0  0  0  0
   90.5812   92.2649  -48.2648 C   0  0  0  0  0  0  0  0  0  0  0  0
   90.6575   92.8440  -47.0077 C   0  0  0  0  0  0  0  0  0  0  0  0
   91.2806   90.6267  -49.9318 N   0  0  0  0  0  0  0  0  0  0  0  0
   91.4488   91.2953  -50.9689 O   0  0  0  0  0  0  0  0  0  0  0  0
   90.9924   89.3043  -50.0511 O   0  0  0  0  0  0  0  0  0  0  0  0
 13 14  1  0  0  0
 14 15  2  0  0  0
 14 19  1  0  0  0
 15 16  1  0  0  0
 16 17  2  0  0  0
 17 18  1  0  0  0
 17  1  1  0  0  0
 18 19  2  0  0  0
  1  2  1  0  0  0
  1  9  1  0  0  0
  2  3  2  0  0  0
  2  4  1  0  0  0
  4  5  2  0  0  0
  4  8  1  0  0  0
  5  6  1  0  0  0
  5  9  1  0  0  0
  6  7  1  0  0  0
  7  8  1  0  0  0
  8 20  1  0  0  0
 20 21  2  0  0  0
 20 25  1  0  0  0
 21 22  1  0  0  0
 22 23  2  0  0  0
 23 24  1  0  0  0
 23 26  1  0  0  0
 24 25  2  0  0  0
 26 27  2  0  0  0
 26 28  1  0  0  0
  9 10  2  0  0  0
  6 11  1  0  0  0
  7 12  1  0  0  0
M  CHG 1  28  -1
M  END
> <minimizedAffinity>
-7.08155

$$$$
425


 24 28  0  0  0  0  0  0  0  0999 V2000
   90.2660   97.9103  -45.3302 N   0  0  0  0  0  0  0  0  0  0  0  0
   91.1662   98.9580  -45.6554 C   0  0  0  0  0  0  0  0  0  0  0  0
   92.1363   98.8347  -46.4411 O   0  0  0  0  0  0  0  0  0  0  0  0
   90.7654  100.1887  -44.9221 C   0  0  0  0  0  0  0  0  0  0  0  0
   91.5059  100.3438  -43.6297 C   0  0  0  0  0  0  0  0  0  0  0  0
   90.5289  101.0061  -42.8536 O   0  0  0  0  0  0  0  0  0  0  0  0
   89.5352   99.9982  -42.9346 C   0  0  0  0  0  0  0  0  0  0  0  0
   89.3555   99.8912  -44.4097 C   0  0  0  0  0  0  0  0  0  0  0  0
   89.0729   98.4824  -44.7951 C   0  0  0  0  0  0  0  0  0  0  0  0
   87.9811   97.9226  -44.6647 O   0  0  0  0  0  0  0  0  0  0  0  0
   90.3341   98.8337  -42.4715 C   0  0  0  0  0  0  0  0  0  0  0  0
   91.5519   99.0305  -42.9677 C   0  0  0  0  0  0  0  0  0  0  0  0
   91.5750   92.0292  -46.2362 Br  0  0  0  0  0  0  0  0  0  0  0  0
   91.1732   93.8601  -45.9457 C   0  0  0  0  0  0  0  0  0  0  0  0
   91.8165   94.5435  -44.9424 C   0  0  0  0  0  0  0  0  0  0  0  0
   91.5061   95.8723  -44.7548 C   0  0  0  0  0  0  0  0  0  0  0  0
   90.5782   96.5265  -45.5346 C   0  0  0  0  0  0  0  0  0  0  0  0
   89.9279   95.8375  -46.5492 C   0  0  0  0  0  0  0  0  0  0  0  0
   90.2461   94.4909  -46.7370 C   0  0  0  0  0  0  0  0  0  0  0  0
   92.7723  101.0824  -43.7078 C   0  0  0  0  0  0  0  0  0  0  0  0
   93.1626  101.6464  -42.5242 O   0  0  0  0  0  0  0  0  0  0  0  0
   93.0522  103.0105  -42.6274 C   0  0  0  0  0  0  0  0  0  0  0  0
   92.5568  103.2911  -44.0079 C   0  0  0  0  0  0  0  0  0  0  0  0
   92.7298  102.0788  -44.6663 O   0  0  0  0  0  0  0  0  0  0  0  0
 13 14  1  0  0  0
 14 15  2  0  0  0
 14 19  1  0  0  0
 15 16  1  0  0  0
 16 17  2  0  0  0
 17 18  1  0  0  0
 17  1  1  0  0  0
 18 19  2  0  0  0
  1  2  1  0  0  0
  1  9  1  0  0  0
  2  3  2  0  0  0
  2  4  1  0  0  0
  4  5  1  0  0  0
  4  8  1  0  0  0
  5  6  1  0  0  0
  5 12  1  0  0  0
  5 20  1  0  0  0
  6  7  1  0  0  0
  7  8  1  0  0  0
  7 11  1  0  0  0
  8  9  1  0  0  0
  9 10  2  0  0  0
 11 12  2  0  0  0
 20 21  1  0  0  0
 20 24  1  0  0  0
 21 22  1  0  0  0
 22 23  1  0  0  0
 23 24  1  0  0  0
M  END
> <minimizedAffinity>
-5.79890

$$$$
426


 29 32  0  0  0  0  0  0  0  0999 V2000
   91.2274  100.3036  -42.5099 N   0  0  0  0  0  0  0  0  0  0  0  0
   89.8178  100.5795  -42.6226 C   0  0  0  0  0  0  0  0  0  0  0  0
   89.2693  101.7138  -42.5254 O   0  0  0  0  0  0  0  0  0  0  0  0
   89.1461   99.2838  -42.8731 C   0  0  0  0  0  0  0  0  0  0  0  0
   87.9823   99.3682  -43.7335 N   0  0  0  0  0  0  0  0  0  0  0  0
   88.1418   98.1325  -44.4339 N   0  0  0  0  0  0  0  0  0  0  0  0
   89.5266   97.9557  -44.7329 C   0  0  0  0  0  0  0  0  0  0  0  0
   90.1623   98.6493  -43.7953 C   0  0  0  0  0  0  0  0  0  0  0  0
   91.4378   99.0930  -43.2464 C   0  0  0  0  0  0  0  0  0  0  0  0
   92.5032   98.4457  -43.4445 O   0  0  0  0  0  0  0  0  0  0  0  0
   88.2232  100.1108  -44.4486 H   0  0  0  0  0  0  0  0  0  0  0  0
   87.3854   97.4683  -44.6888 H   0  0  0  0  0  0  0  0  0  0  0  0
   95.6158  103.6119  -39.7729 Br  0  0  0  0  0  0  0  0  0  0  0  0
   94.2310  102.5657  -40.6116 C   0  0  0  0  0  0  0  0  0  0  0  0
   94.1303  102.5479  -41.9792 C   0  0  0  0  0  0  0  0  0  0  0  0
   93.1481  101.8060  -42.5522 C   0  0  0  0  0  0  0  0  0  0  0  0
   92.2176  101.0479  -41.8310 C   0  0  0  0  0  0  0  0  0  0  0  0
   92.3394  101.0818  -40.4681 C   0  0  0  0  0  0  0  0  0  0  0  0
   93.3317  101.8304  -39.8636 C   0  0  0  0  0  0  0  0  0  0  0  0
   90.1263   97.1845  -45.8162 C   0  0  0  0  0  0  0  0  0  0  0  0
   89.6550   97.2009  -46.9774 O   0  0  0  0  0  0  0  0  0  0  0  0
   91.2480   96.3912  -45.6248 O   0  0  0  0  0  0  0  0  0  0  0  0
   91.1550   94.9765  -45.5307 C   0  0  0  0  0  0  0  0  0  0  0  0
   91.6972   94.5321  -44.2033 C   0  0  0  0  0  0  0  0  0  0  0  0
   91.4869   95.3046  -43.0623 C   0  0  0  0  0  0  0  0  0  0  0  0
   91.9595   94.9334  -41.8326 C   0  0  0  0  0  0  0  0  0  0  0  0
   92.6760   93.7453  -41.7163 C   0  0  0  0  0  0  0  0  0  0  0  0
   92.8820   92.9853  -42.8465 C   0  0  0  0  0  0  0  0  0  0  0  0
   92.3938   93.3729  -44.0964 C   0  0  0  0  0  0  0  0  0  0  0  0
 13 14  1  0  0  0
 14 15  2  0  0  0
 14 19  1  0  0  0
 15 16  1  0  0  0
 16 17  2  0  0  0
 17 18  1  0  0  0
 17  1  1  0  0  0
 18 19  2  0  0  0
  1  2  1  0  0  0
  1  9  1  0  0  0
  2  3  2  0  0  0
  2  4  1  0  0  0
  4  5  1  0  0  0
  4  8  1  0  0  0
  5  6  1  0  0  0
  6  7  1  0  0  0
  7  8  2  0  0  0
  7 20  1  0  0  0
  8  9  1  0  0  0
  9 10  2  0  0  0
 20 21  2  0  0  0
 20 22  1  0  0  0
 22 23  1  0  0  0
 23 24  1  0  0  0
 24 25  2  0  0  0
 24 29  1  0  0  0
 25 26  1  0  0  0
 26 27  2  0  0  0
 27 28  1  0  0  0
 28 29  2  0  0  0
  5 11  1  0  0  0
  6 12  1  0  0  0
M  END
> <minimizedAffinity>
-6.85640

$$$$
428


 28 31  0  0  0  0  0  0  0  0999 V2000
   90.6662   98.2612  -45.2067 N   0  0  0  0  0  0  0  0  0  0  0  0
   91.6171   99.0548  -45.9406 C   0  0  0  0  0  0  0  0  0  0  0  0
   92.7993   98.6360  -46.0806 O   0  0  0  0  0  0  0  0  0  0  0  0
   91.1599  100.2782  -46.4709 N   0  0  0  0  0  0  0  0  0  0  0  0
   89.9775  100.7183  -46.3437 C   0  0  0  0  0  0  0  0  0  0  0  0
   88.8679  100.0436  -45.6256 C   0  0  0  0  0  0  0  0  0  0  0  0
   88.3317  100.9879  -44.6057 C   0  0  0  0  0  0  0  0  0  0  0  0
   86.9672  100.8455  -44.2476 N   0  0  0  0  0  0  0  0  0  0  0  0
   86.3270   99.6769  -44.7071 C   0  0  0  0  0  0  0  0  0  0  0  0
   86.6894   99.1047  -45.9328 C   0  0  0  0  0  0  0  0  0  0  0  0
   86.0573   97.9716  -46.3616 C   0  0  0  0  0  0  0  0  0  0  0  0
   85.0629   97.3374  -45.6524 C   0  0  0  0  0  0  0  0  0  0  0  0
   84.7098   97.9042  -44.4457 C   0  0  0  0  0  0  0  0  0  0  0  0
   85.3331   99.0555  -43.9831 C   0  0  0  0  0  0  0  0  0  0  0  0
   84.4015   96.1082  -46.1497 C   0  0  0  0  0  0  0  0  0  0  0  0
   87.7663   99.8198  -46.6656 C   0  0  0  0  0  0  0  0  0  0  0  0
   86.1720  102.0356  -44.5934 C   0  0  0  0  0  0  0  0  0  0  0  0
   89.3399   98.7593  -45.0654 C   0  0  0  0  0  0  0  0  0  0  0  0
   88.5489   98.0094  -44.4033 O   0  0  0  0  0  0  0  0  0  0  0  0
   89.6555  101.9620  -46.9281 O   0  0  0  0  0  0  0  0  0  0  0  0
   86.9189  100.8094  -43.1855 H   0  0  0  0  0  0  0  0  0  0  0  0
   92.3655   93.0420  -42.5158 Br  0  0  0  0  0  0  0  0  0  0  0  0
   91.8305   94.6485  -43.3935 C   0  0  0  0  0  0  0  0  0  0  0  0
   91.7552   95.8091  -42.6712 C   0  0  0  0  0  0  0  0  0  0  0  0
   91.3658   96.9832  -43.3043 C   0  0  0  0  0  0  0  0  0  0  0  0
   91.0517   97.0159  -44.6442 C   0  0  0  0  0  0  0  0  0  0  0  0
   91.1341   95.8371  -45.3518 C   0  0  0  0  0  0  0  0  0  0  0  0
   91.5198   94.6538  -44.7439 C   0  0  0  0  0  0  0  0  0  0  0  0
 22 23  1  0  0  0
 23 24  2  0  0  0
 23 28  1  0  0  0
 24 25  1  0  0  0
 25 26  2  0  0  0
 26 27  1  0  0  0
 26  1  1  0  0  0
 27 28  2  0  0  0
  1  2  1  0  0  0
  1 18  1  0  0  0
  2  3  2  0  0  0
  2  4  1  0  0  0
  4  5  2  0  0  0
  5  6  1  0  0  0
  5 20  1  0  0  0
  6  7  1  0  0  0
  6 16  1  0  0  0
  6 18  1  0  0  0
  7  8  1  0  0  0
  8  9  1  0  0  0
  8 17  1  0  0  0
  9 10  2  0  0  0
  9 14  1  0  0  0
 10 11  1  0  0  0
 10 16  1  0  0  0
 11 12  2  0  0  0
 12 13  1  0  0  0
 12 15  1  0  0  0
 13 14  2  0  0  0
 18 19  2  0  0  0
  8 21  1  0  0  0
M  CHG 1   8   1
M  CHG 1  20  -1
M  END
> <minimizedAffinity>
-6.18187

$$$$
429


 36 39  0  0  0  0  0  0  0  0999 V2000
   86.5610  100.5737  -44.0668 N   0  0  0  0  0  0  0  0  0  0  0  0
   86.0751  101.8867  -44.3525 C   0  0  0  0  0  0  0  0  0  0  0  0
   85.0101  101.9803  -45.0425 O   0  0  0  0  0  0  0  0  0  0  0  0
   86.7790  103.0170  -43.8700 N   0  0  0  0  0  0  0  0  0  0  0  0
   87.9723  102.9360  -43.0967 C   0  0  0  0  0  0  0  0  0  0  0  0
   88.5779  103.9624  -42.6795 O   0  0  0  0  0  0  0  0  0  0  0  0
   88.5018  101.5968  -42.7825 C   0  0  0  0  0  0  0  0  0  0  0  0
   89.6082  101.4555  -42.0689 C   0  0  0  0  0  0  0  0  0  0  0  0
   87.7540  100.4537  -43.2934 C   0  0  0  0  0  0  0  0  0  0  0  0
   88.1676   99.2907  -43.0509 O   0  0  0  0  0  0  0  0  0  0  0  0
   86.3891  103.9602  -44.1010 H   0  0  0  0  0  0  0  0  0  0  0  0
   83.5910   95.6900  -46.2714 Br  0  0  0  0  0  0  0  0  0  0  0  0
   84.5113   97.2156  -45.5713 C   0  0  0  0  0  0  0  0  0  0  0  0
   85.5158   97.8324  -46.2980 C   0  0  0  0  0  0  0  0  0  0  0  0
   86.1740   98.9334  -45.7850 C   0  0  0  0  0  0  0  0  0  0  0  0
   85.8655   99.4579  -44.5458 C   0  0  0  0  0  0  0  0  0  0  0  0
   84.8676   98.8549  -43.8097 C   0  0  0  0  0  0  0  0  0  0  0  0
   84.2200   97.7564  -44.3379 C   0  0  0  0  0  0  0  0  0  0  0  0
   90.0938  100.1515  -41.7829 N   0  0  0  0  0  0  0  0  0  0  0  0
   89.5164   99.5946  -41.0962 H   0  0  0  0  0  0  0  0  0  0  0  0
   91.2352   99.5850  -42.3261 N   0  0  0  0  0  0  0  0  0  0  0  0
   92.0827  100.2241  -42.3490 H   0  0  0  0  0  0  0  0  0  0  0  0
   91.3173   98.2573  -42.8300 C   0  0  0  0  0  0  0  0  0  0  0  0
   91.1005   97.9009  -44.1002 N   0  0  0  0  0  0  0  0  0  0  0  0
   91.2651   96.5740  -44.2284 C   0  0  0  0  0  0  0  0  0  0  0  0
   91.6008   96.0786  -42.9756 C   0  0  0  0  0  0  0  0  0  0  0  0
   91.6181   97.1386  -42.1693 N   0  0  0  0  0  0  0  0  0  0  0  0
   91.8316   94.7691  -42.7731 N   0  0  0  0  0  0  0  0  0  0  0  0
   91.7338   93.9303  -43.8047 C   0  0  0  0  0  0  0  0  0  0  0  0
   91.9441   92.6874  -43.6563 O   0  0  0  0  0  0  0  0  0  0  0  0
   91.4096   94.3481  -45.0578 N   0  0  0  0  0  0  0  0  0  0  0  0
   91.1787   95.6678  -45.2508 C   0  0  0  0  0  0  0  0  0  0  0  0
   90.8798   96.0551  -46.3992 O   0  0  0  0  0  0  0  0  0  0  0  0
   91.3185   93.4021  -46.1406 C   0  0  0  0  0  0  0  0  0  0  0  0
   92.1724   94.3319  -41.4516 C   0  0  0  0  0  0  0  0  0  0  0  0
   90.7382   98.7394  -45.2485 C   0  0  0  0  0  0  0  0  0  0  0  0
 12 13  1  0  0  0
 13 14  2  0  0  0
 13 18  1  0  0  0
 14 15  1  0  0  0
 15 16  2  0  0  0
 16 17  1  0  0  0
 16  1  1  0  0  0
 17 18  2  0  0  0
  1  2  1  0  0  0
  1  9  1  0  0  0
  2  3  2  0  0  0
  2  4  1  0  0  0
  4  5  1  0  0  0
  5  6  2  0  0  0
  5  7  1  0  0  0
  7  8  2  0  0  0
  7  9  1  0  0  0
  8 19  1  0  0  0
 19 21  1  0  0  0
 21 23  1  0  0  0
 23 24  1  0  0  0
 23 27  2  0  0  0
 24 25  1  0  0  0
 24 36  1  0  0  0
 25 26  2  0  0  0
 25 32  1  0  0  0
 26 27  1  0  0  0
 26 28  1  0  0  0
 28 29  1  0  0  0
 28 35  1  0  0  0
 29 30  2  0  0  0
 29 31  1  0  0  0
 31 32  1  0  0  0
 31 34  1  0  0  0
 32 33  2  0  0  0
  9 10  2  0  0  0
  4 11  1  0  0  0
 19 20  1  0  0  0
 21 22  1  0  0  0
M  END
> <minimizedAffinity>
-7.29314

$$$$
436


 29 32  0  0  0  0  0  0  0  0999 V2000
   90.8065   97.0207  -44.5990 N   0  0  0  0  0  0  0  0  0  0  0  0
   91.8958   97.7536  -43.9850 C   0  0  0  0  0  0  0  0  0  0  0  0
   91.4973   99.1421  -43.5423 C   0  0  0  0  0  0  0  0  0  0  0  0
   90.1362   99.0113  -42.8414 C   0  0  0  0  0  0  0  0  0  0  0  0
   89.2037   98.7065  -43.8951 N   0  0  0  0  0  0  0  0  0  0  0  0
   89.5707   97.7074  -44.7539 C   0  0  0  0  0  0  0  0  0  0  0  0
   88.5984   97.5546  -45.6678 N   0  0  0  0  0  0  0  0  0  0  0  0
   87.6364   98.4617  -45.3639 C   0  0  0  0  0  0  0  0  0  0  0  0
   88.0095   99.1925  -44.2464 C   0  0  0  0  0  0  0  0  0  0  0  0
   87.1872  100.1817  -43.7443 C   0  0  0  0  0  0  0  0  0  0  0  0
   87.5676  100.8315  -42.7132 O   0  0  0  0  0  0  0  0  0  0  0  0
   86.0129  100.4330  -44.3494 N   0  0  0  0  0  0  0  0  0  0  0  0
   85.6753   99.7095  -45.4311 C   0  0  0  0  0  0  0  0  0  0  0  0
   84.5663   99.9777  -45.9674 O   0  0  0  0  0  0  0  0  0  0  0  0
   86.4529   98.7506  -45.9334 N   0  0  0  0  0  0  0  0  0  0  0  0
   86.0557   97.9869  -47.1069 C   0  0  0  0  0  0  0  0  0  0  0  0
   91.5404   91.3393  -46.6684 Br  0  0  0  0  0  0  0  0  0  0  0  0
   91.3427   93.0825  -45.9770 C   0  0  0  0  0  0  0  0  0  0  0  0
   91.8320   93.4438  -44.7393 C   0  0  0  0  0  0  0  0  0  0  0  0
   91.6730   94.7412  -44.2494 C   0  0  0  0  0  0  0  0  0  0  0  0
   91.0183   95.6847  -45.0077 C   0  0  0  0  0  0  0  0  0  0  0  0
   90.5439   95.2884  -46.2370 C   0  0  0  0  0  0  0  0  0  0  0  0
   90.6850   94.0243  -46.7427 C   0  0  0  0  0  0  0  0  0  0  0  0
   85.1403  101.4708  -43.8282 C   0  0  0  0  0  0  0  0  0  0  0  0
   84.4505  100.9439  -42.6047 C   0  0  0  0  0  0  0  0  0  0  0  0
   83.5941  100.0338  -42.6984 O   0  0  0  0  0  0  0  0  0  0  0  0
   84.7427  101.4527  -41.3188 N   0  0  0  0  0  0  0  0  0  0  0  0
   84.7634  100.8510  -40.4645 H   0  0  0  0  0  0  0  0  0  0  0  0
   84.9541  102.4703  -41.1694 H   0  0  0  0  0  0  0  0  0  0  0  0
 17 18  1  0  0  0
 18 19  2  0  0  0
 18 23  1  0  0  0
 19 20  1  0  0  0
 20 21  2  0  0  0
 21 22  1  0  0  0
 21  1  1  0  0  0
 22 23  2  0  0  0
  1  2  1  0  0  0
  1  6  1  0  0  0
  2  3  1  0  0  0
  3  4  1  0  0  0
  4  5  1  0  0  0
  5  6  1  0  0  0
  5  9  1  0  0  0
  6  7  2  0  0  0
  7  8  1  0  0  0
  8  9  2  0  0  0
  8 15  1  0  0  0
  9 10  1  0  0  0
 10 11  2  0  0  0
 10 12  1  0  0  0
 12 13  1  0  0  0
 12 24  1  0  0  0
 13 14  2  0  0  0
 13 15  1  0  0  0
 15 16  1  0  0  0
 24 25  1  0  0  0
 25 26  2  0  0  0
 25 27  1  0  0  0
 27 28  1  0  0  0
 27 29  1  0  0  0
M  END
> <minimizedAffinity>
-6.84357

$$$$
439


 28 32  0  0  0  0  0  0  0  0999 V2000
   91.4207   93.2587  -45.4891 N   0  0  0  0  0  0  0  0  0  0  0  0
   91.6945   92.8238  -44.2638 N   0  0  0  0  0  0  0  0  0  0  0  0
   91.7825   93.8573  -43.4062 C   0  0  0  0  0  0  0  0  0  0  0  0
   92.0421   93.7806  -42.1071 C   0  0  0  0  0  0  0  0  0  0  0  0
   91.5541   95.0260  -44.1030 C   0  0  0  0  0  0  0  0  0  0  0  0
   91.5463   96.2814  -43.6464 C   0  0  0  0  0  0  0  0  0  0  0  0
   91.3323   94.6028  -45.4049 C   0  0  0  0  0  0  0  0  0  0  0  0
   91.0863   95.3770  -46.3581 O   0  0  0  0  0  0  0  0  0  0  0  0
   91.8234   91.8256  -44.0046 H   0  0  0  0  0  0  0  0  0  0  0  0
   90.7272   89.8795  -50.5750 Br  0  0  0  0  0  0  0  0  0  0  0  0
   90.9616   90.9196  -48.9744 C   0  0  0  0  0  0  0  0  0  0  0  0
   91.8196   90.5360  -47.9877 C   0  0  0  0  0  0  0  0  0  0  0  0
   91.9621   91.3165  -46.8432 C   0  0  0  0  0  0  0  0  0  0  0  0
   91.2503   92.4856  -46.6714 C   0  0  0  0  0  0  0  0  0  0  0  0
   90.3922   92.8417  -47.6894 C   0  0  0  0  0  0  0  0  0  0  0  0
   90.2330   92.0889  -48.8302 C   0  0  0  0  0  0  0  0  0  0  0  0
   91.2829   97.3260  -44.5755 N   0  0  0  0  0  0  0  0  0  0  0  0
   91.8083   97.3268  -45.4620 H   0  0  0  0  0  0  0  0  0  0  0  0
   90.3221   98.3584  -44.3131 C   0  0  0  0  0  0  0  0  0  0  0  0
   90.1977   98.6088  -42.8440 C   0  0  0  0  0  0  0  0  0  0  0  0
   89.2894   99.7260  -42.6266 N   0  0  0  0  0  0  0  0  0  0  0  0
   89.8537  100.8921  -43.2951 C   0  0  0  0  0  0  0  0  0  0  0  0
   89.9225  100.7077  -44.7241 N   0  0  0  0  0  0  0  0  0  0  0  0
   88.6028  100.3478  -45.2335 C   0  0  0  0  0  0  0  0  0  0  0  0
   88.0868   99.1600  -44.5917 N   0  0  0  0  0  0  0  0  0  0  0  0
   87.9964   99.3956  -43.1694 C   0  0  0  0  0  0  0  0  0  0  0  0
   88.9492   98.0327  -44.8532 C   0  0  0  0  0  0  0  0  0  0  0  0
   90.8181   99.6214  -45.0243 C   0  0  0  0  0  0  0  0  0  0  0  0
 10 11  1  0  0  0
 11 12  2  0  0  0
 11 16  1  0  0  0
 12 13  1  0  0  0
 13 14  2  0  0  0
 14 15  1  0  0  0
 14  1  1  0  0  0
 15 16  2  0  0  0
  1  2  1  0  0  0
  1  7  1  0  0  0
  2  3  1  0  0  0
  3  4  2  0  0  0
  3  5  1  0  0  0
  5  6  2  0  0  0
  5  7  1  0  0  0
  6 17  1  0  0  0
 17 19  1  0  0  0
 19 20  1  0  0  0
 19 27  1  0  0  0
 19 28  1  0  0  0
 20 21  1  0  0  0
 21 22  1  0  0  0
 21 26  1  0  0  0
 22 23  1  0  0  0
 23 24  1  0  0  0
 23 28  1  0  0  0
 24 25  1  0  0  0
 25 26  1  0  0  0
 25 27  1  0  0  0
  7  8  2  0  0  0
  2  9  1  0  0  0
 17 18  1  0  0  0
M  END
> <minimizedAffinity>
-6.80248

$$$$
441


 36 39  0  0  0  0  0  0  0  0999 V2000
   91.4122   93.9509  -45.1196 C   0  0  0  0  0  0  0  0  0  0  0  0
   91.2761   95.2236  -44.7034 N   0  0  0  0  0  0  0  0  0  0  0  0
   91.5596   95.5357  -43.4494 C   0  0  0  0  0  0  0  0  0  0  0  0
   91.5028   96.7111  -42.8096 N   0  0  0  0  0  0  0  0  0  0  0  0
   91.9009   96.4563  -41.5422 C   0  0  0  0  0  0  0  0  0  0  0  0
   92.1955   95.1602  -41.4039 N   0  0  0  0  0  0  0  0  0  0  0  0
   91.9990   94.5398  -42.5688 C   0  0  0  0  0  0  0  0  0  0  0  0
   92.1412   93.2306  -42.9892 C   0  0  0  0  0  0  0  0  0  0  0  0
   91.8410   92.9753  -44.2655 N   0  0  0  0  0  0  0  0  0  0  0  0
   92.5798   92.2846  -42.0742 O   0  0  0  0  0  0  0  0  0  0  0  0
   93.3457   92.5830  -41.4600 H   0  0  0  0  0  0  0  0  0  0  0  0
   91.1271   97.9979  -43.2547 C   0  0  0  0  0  0  0  0  0  0  0  0
   91.3275   98.1537  -44.6326 O   0  0  0  0  0  0  0  0  0  0  0  0
   92.5493   98.8191  -44.6897 C   0  0  0  0  0  0  0  0  0  0  0  0
   92.2804   99.9631  -43.7234 C   0  0  0  0  0  0  0  0  0  0  0  0
   91.7034   99.1588  -42.5610 C   0  0  0  0  0  0  0  0  0  0  0  0
   90.7199   99.9210  -41.8916 O   0  0  0  0  0  0  0  0  0  0  0  0
   93.3986  100.6749  -43.3911 O   0  0  0  0  0  0  0  0  0  0  0  0
   91.2221  100.5812  -41.3514 H   0  0  0  0  0  0  0  0  0  0  0  0
   94.0987  100.6798  -44.1191 H   0  0  0  0  0  0  0  0  0  0  0  0
   92.8743   99.3084  -46.0712 C   0  0  0  0  0  0  0  0  0  0  0  0
   93.0181  100.6664  -46.1593 O   0  0  0  0  0  0  0  0  0  0  0  0
   93.9707  100.8934  -45.9983 H   0  0  0  0  0  0  0  0  0  0  0  0
   91.1592   92.2386  -46.9073 C   0  0  0  0  0  0  0  0  0  0  0  0
   91.4736   91.3263  -46.1228 O   0  0  0  0  0  0  0  0  0  0  0  0
   91.1125   93.5750  -46.4619 N   0  0  0  0  0  0  0  0  0  0  0  0
   90.8447   94.3535  -47.1306 H   0  0  0  0  0  0  0  0  0  0  0  0
   90.8352   91.9247  -48.3110 C   0  0  0  0  0  0  0  0  0  0  0  0
   91.4895   90.7838  -48.7861 O   0  0  0  0  0  0  0  0  0  0  0  0
   88.4966   86.8852  -52.3731 Br  0  0  0  0  0  0  0  0  0  0  0  0
   89.4435   88.1089  -51.2363 C   0  0  0  0  0  0  0  0  0  0  0  0
   89.4676   89.4504  -51.5483 C   0  0  0  0  0  0  0  0  0  0  0  0
   90.1573   90.3404  -50.7203 C   0  0  0  0  0  0  0  0  0  0  0  0
   90.8131   89.8983  -49.5961 C   0  0  0  0  0  0  0  0  0  0  0  0
   90.7766   88.5577  -49.3020 C   0  0  0  0  0  0  0  0  0  0  0  0
   90.1026   87.6692  -50.1071 C   0  0  0  0  0  0  0  0  0  0  0  0
 30 31  1  0  0  0
 31 32  2  0  0  0
 31 36  1  0  0  0
 32 33  1  0  0  0
 33 34  2  0  0  0
 34 35  1  0  0  0
 34 29  1  0  0  0
 35 36  2  0  0  0
 29 28  1  0  0  0
 28 24  1  0  0  0
 24 25  2  0  0  0
 24 26  1  0  0  0
 26  1  1  0  0  0
  1  2  2  0  0  0
  1  9  1  0  0  0
  2  3  1  0  0  0
  3  4  1  0  0  0
  3  7  2  0  0  0
  4  5  1  0  0  0
  4 12  1  0  0  0
  5  6  2  0  0  0
  6  7  1  0  0  0
  7  8  1  0  0  0
  8  9  2  0  0  0
  8 10  1  0  0  0
 12 13  1  0  0  0
 12 16  1  0  0  0
 13 14  1  0  0  0
 14 15  1  0  0  0
 14 21  1  0  0  0
 15 16  1  0  0  0
 15 18  1  0  0  0
 16 17  1  0  0  0
 21 22  1  0  0  0
 26 27  1  0  0  0
 10 11  1  0  0  0
 17 19  1  0  0  0
 18 20  1  0  0  0
 22 23  1  0  0  0
M  END
> <minimizedAffinity>
-7.98725

$$$$
444


 33 36  0  0  0  0  0  0  0  0999 V2000
   92.6366  100.5067  -44.2562 N   0  0  0  0  0  0  0  0  0  0  0  0
   92.5188  100.7877  -45.5745 C   0  0  0  0  0  0  0  0  0  0  0  0
   92.4402  102.1539  -45.7213 C   0  0  0  0  0  0  0  0  0  0  0  0
   92.5092  102.6397  -44.4993 N   0  0  0  0  0  0  0  0  0  0  0  0
   92.6290  101.6524  -43.5571 C   0  0  0  0  0  0  0  0  0  0  0  0
   92.3137  102.7857  -46.9247 N   0  0  0  0  0  0  0  0  0  0  0  0
   92.2640  102.0208  -48.0165 C   0  0  0  0  0  0  0  0  0  0  0  0
   92.1484  102.5874  -49.1367 O   0  0  0  0  0  0  0  0  0  0  0  0
   92.3366  100.6878  -47.9045 N   0  0  0  0  0  0  0  0  0  0  0  0
   92.4625  100.0335  -46.7264 C   0  0  0  0  0  0  0  0  0  0  0  0
   92.5262   98.7978  -46.6532 O   0  0  0  0  0  0  0  0  0  0  0  0
   92.2472  104.2465  -46.9785 C   0  0  0  0  0  0  0  0  0  0  0  0
   92.2943  100.1246  -48.7790 H   0  0  0  0  0  0  0  0  0  0  0  0
   92.6534  101.9020  -42.1384 N   0  0  0  0  0  0  0  0  0  0  0  0
   91.3110  102.1242  -41.5570 C   0  0  0  0  0  0  0  0  0  0  0  0
   91.2638  102.0809  -40.0834 C   0  0  0  0  0  0  0  0  0  0  0  0
   92.4486  102.6081  -39.4542 N   0  0  0  0  0  0  0  0  0  0  0  0
   93.5213  101.7505  -39.8481 C   0  0  0  0  0  0  0  0  0  0  0  0
   93.8272  101.8829  -41.3397 C   0  0  0  0  0  0  0  0  0  0  0  0
   92.6427  103.9955  -39.7190 C   0  0  0  0  0  0  0  0  0  0  0  0
   92.8055   99.1906  -43.6794 C   0  0  0  0  0  0  0  0  0  0  0  0
   91.7897   98.8028  -42.6449 C   0  0  0  0  0  0  0  0  0  0  0  0
   92.3818   98.4938  -41.4121 O   0  0  0  0  0  0  0  0  0  0  0  0
   91.6952   98.6237  -40.6812 H   0  0  0  0  0  0  0  0  0  0  0  0
   90.8661   97.6789  -42.9933 C   0  0  0  0  0  0  0  0  0  0  0  0
   91.4251   96.6460  -43.5879 O   0  0  0  0  0  0  0  0  0  0  0  0
   91.5117   91.4781  -46.6189 Br  0  0  0  0  0  0  0  0  0  0  0  0
   91.4851   93.1140  -45.6534 C   0  0  0  0  0  0  0  0  0  0  0  0
   91.8491   93.1102  -44.3339 C   0  0  0  0  0  0  0  0  0  0  0  0
   91.8313   94.2944  -43.6297 C   0  0  0  0  0  0  0  0  0  0  0  0
   91.4585   95.4913  -44.2076 C   0  0  0  0  0  0  0  0  0  0  0  0
   91.0871   95.4616  -45.5708 C   0  0  0  0  0  0  0  0  0  0  0  0
   91.1064   94.2948  -46.2591 C   0  0  0  0  0  0  0  0  0  0  0  0
 27 28  1  0  0  0
 28 29  2  0  0  0
 28 33  1  0  0  0
 29 30  1  0  0  0
 30 31  2  0  0  0
 31 32  1  0  0  0
 31 26  1  0  0  0
 32 33  2  0  0  0
 26 25  1  0  0  0
 25 22  1  0  0  0
 22 23  1  0  0  0
 22 21  1  0  0  0
 21  1  1  0  0  0
  1  2  1  0  0  0
  1  5  1  0  0  0
  2  3  2  0  0  0
  2 10  1  0  0  0
  3  4  1  0  0  0
  3  6  1  0  0  0
  4  5  2  0  0  0
  5 14  1  0  0  0
 14 15  1  0  0  0
 14 19  1  0  0  0
 15 16  1  0  0  0
 16 17  1  0  0  0
 17 18  1  0  0  0
 17 20  1  0  0  0
 18 19  1  0  0  0
  6  7  1  0  0  0
  6 12  1  0  0  0
  7  8  2  0  0  0
  7  9  1  0  0  0
  9 10  1  0  0  0
 10 11  2  0  0  0
 23 24  1  0  0  0
  9 13  1  0  0  0
M  END
> <minimizedAffinity>
-6.58017

$$$$
454


 21 25  0  0  0  0  0  0  0  0999 V2000
   91.5684   97.5891  -43.9505 C   0  0  0  0  0  0  0  0  0  0  0  0
   92.0530   95.9683  -41.2945 Br  0  0  0  0  0  0  0  0  0  0  0  0
   91.7204   95.3088  -43.0594 C   0  0  0  0  0  0  0  0  0  0  0  0
   91.7470   93.9500  -43.3129 C   0  0  0  0  0  0  0  0  0  0  0  0
   91.5150   93.4592  -44.5819 C   0  0  0  0  0  0  0  0  0  0  0  0
   91.2533   94.2479  -45.6771 C   0  0  0  0  0  0  0  0  0  0  0  0
   91.2299   95.5914  -45.4197 C   0  0  0  0  0  0  0  0  0  0  0  0
   91.4548   96.1449  -44.1572 C   0  0  0  0  0  0  0  0  0  0  0  0
   91.0990   93.3629  -46.7318 O   0  0  0  0  0  0  0  0  0  0  0  0
   91.8828   92.1754  -46.4292 C   0  0  0  0  0  0  0  0  0  0  0  0
   91.5065   92.0999  -45.0211 O   0  0  0  0  0  0  0  0  0  0  0  0
   90.4240   98.4005  -43.9682 N   0  0  0  0  0  0  0  0  0  0  0  0
   90.9156   99.5610  -44.7950 C   0  0  0  0  0  0  0  0  0  0  0  0
   90.0966  100.6975  -44.7553 N   0  0  0  0  0  0  0  0  0  0  0  0
   89.9569  101.0821  -43.3616 C   0  0  0  0  0  0  0  0  0  0  0  0
   89.2510  100.0168  -42.6936 N   0  0  0  0  0  0  0  0  0  0  0  0
   90.0429   98.8315  -42.6244 C   0  0  0  0  0  0  0  0  0  0  0  0
   87.9676   99.6780  -43.3196 C   0  0  0  0  0  0  0  0  0  0  0  0
   88.2644   99.1843  -44.6544 N   0  0  0  0  0  0  0  0  0  0  0  0
   89.1992   98.0397  -44.6114 C   0  0  0  0  0  0  0  0  0  0  0  0
   88.8245  100.3043  -45.3721 C   0  0  0  0  0  0  0  0  0  0  0  0
  2  3  1  0  0  0
  3  4  2  0  0  0
  3  8  1  0  0  0
  4  5  1  0  0  0
  5  6  2  0  0  0
  5 11  1  0  0  0
  6  7  1  0  0  0
  6  9  1  0  0  0
  7  8  2  0  0  0
  8  1  1  0  0  0
  1 12  1  0  0  0
 12 13  1  0  0  0
 12 17  1  0  0  0
 12 20  1  0  0  0
 13 14  1  0  0  0
 14 15  1  0  0  0
 14 21  1  0  0  0
 15 16  1  0  0  0
 16 17  1  0  0  0
 16 18  1  0  0  0
 18 19  1  0  0  0
 19 20  1  0  0  0
 19 21  1  0  0  0
  9 10  1  0  0  0
 10 11  1  0  0  0
M  CHG 1  12   1
M  END
> <minimizedAffinity>
-5.54535

$$$$
455


 26 29  0  0  0  0  0  0  0  0999 V2000
   91.4898   99.8352  -44.5995 N   0  0  0  0  0  0  0  0  0  0  0  0
   90.0968   99.4648  -44.9619 C   0  0  0  0  0  0  0  0  0  0  0  0
   89.9465   98.0653  -44.3749 C   0  0  0  0  0  0  0  0  0  0  0  0
   91.1673   97.4864  -43.9484 N   0  0  0  0  0  0  0  0  0  0  0  0
   92.2128   97.5845  -44.9332 C   0  0  0  0  0  0  0  0  0  0  0  0
   92.2783   98.9779  -45.4866 C   0  0  0  0  0  0  0  0  0  0  0  0
   91.7111  101.2336  -44.9120 C   0  0  0  0  0  0  0  0  0  0  0  0
   93.1282  103.7981  -45.8063 Br  0  0  0  0  0  0  0  0  0  0  0  0
   93.1558  103.0848  -44.0346 C   0  0  0  0  0  0  0  0  0  0  0  0
   93.8402  103.7337  -43.0325 C   0  0  0  0  0  0  0  0  0  0  0  0
   93.8688  103.2340  -41.7543 C   0  0  0  0  0  0  0  0  0  0  0  0
   93.1961  102.0713  -41.5061 C   0  0  0  0  0  0  0  0  0  0  0  0
   92.5041  101.4167  -42.5237 C   0  0  0  0  0  0  0  0  0  0  0  0
   92.4597  101.8977  -43.8158 C   0  0  0  0  0  0  0  0  0  0  0  0
   93.2124  101.5504  -40.2220 O   0  0  0  0  0  0  0  0  0  0  0  0
   94.0866  101.9914  -39.2153 C   0  0  0  0  0  0  0  0  0  0  0  0
   94.4261  103.4380  -39.3811 C   0  0  0  0  0  0  0  0  0  0  0  0
   94.5465  103.8592  -40.7159 O   0  0  0  0  0  0  0  0  0  0  0  0
   91.5627   97.6799  -42.6049 C   0  0  0  0  0  0  0  0  0  0  0  0
   91.9608   96.4931  -41.8710 C   0  0  0  0  0  0  0  0  0  0  0  0
   92.5884   96.5802  -40.7946 O   0  0  0  0  0  0  0  0  0  0  0  0
   91.6478   95.2009  -42.3524 N   0  0  0  0  0  0  0  0  0  0  0  0
   91.1157   95.0436  -43.2564 H   0  0  0  0  0  0  0  0  0  0  0  0
   92.0317   93.9866  -41.6428 C   0  0  0  0  0  0  0  0  0  0  0  0
   93.4095   93.4760  -41.7239 C   0  0  0  0  0  0  0  0  0  0  0  0
   92.3540   92.7968  -42.5428 C   0  0  0  0  0  0  0  0  0  0  0  0
  8  9  1  0  0  0
  9 10  2  0  0  0
  9 14  1  0  0  0
 10 11  1  0  0  0
 11 12  2  0  0  0
 11 18  1  0  0  0
 12 13  1  0  0  0
 12 15  1  0  0  0
 13 14  2  0  0  0
 14  7  1  0  0  0
  7  1  1  0  0  0
  1  2  1  0  0  0
  1  6  1  0  0  0
  2  3  1  0  0  0
  3  4  1  0  0  0
  4  5  1  0  0  0
  4 19  1  0  0  0
  5  6  1  0  0  0
 19 20  1  0  0  0
 20 21  2  0  0  0
 20 22  1  0  0  0
 22 24  1  0  0  0
 24 25  1  0  0  0
 24 26  1  0  0  0
 25 26  1  0  0  0
 15 16  1  0  0  0
 16 17  1  0  0  0
 17 18  1  0  0  0
 22 23  1  0  0  0
M  END
> <minimizedAffinity>
-5.59932

$$$$
459


 29 32  0  0  0  0  0  0  0  0999 V2000
   91.3014   92.5702  -46.2862 C   0  0  0  0  0  0  0  0  0  0  0  0
   91.8112   92.5949  -44.9809 C   0  0  0  0  0  0  0  0  0  0  0  0
   91.8382   93.7351  -44.2106 C   0  0  0  0  0  0  0  0  0  0  0  0
   91.3539   94.9257  -44.7066 C   0  0  0  0  0  0  0  0  0  0  0  0
   90.8496   94.9203  -45.9897 C   0  0  0  0  0  0  0  0  0  0  0  0
   90.8207   93.7652  -46.7728 C   0  0  0  0  0  0  0  0  0  0  0  0
   91.3760   96.1476  -43.8987 C   0  0  0  0  0  0  0  0  0  0  0  0
   91.0711   97.4036  -44.2644 N   0  0  0  0  0  0  0  0  0  0  0  0
   91.2290   98.2074  -43.2077 N   0  0  0  0  0  0  0  0  0  0  0  0
   91.6313   97.4734  -42.1805 N   0  0  0  0  0  0  0  0  0  0  0  0
   91.7199   96.2237  -42.6032 N   0  0  0  0  0  0  0  0  0  0  0  0
   91.0167   99.6378  -43.1306 C   0  0  0  0  0  0  0  0  0  0  0  0
   92.2275  100.3592  -43.5798 C   0  0  0  0  0  0  0  0  0  0  0  0
   92.2625  101.5986  -43.5175 O   0  0  0  0  0  0  0  0  0  0  0  0
   93.3260   99.6235  -44.0743 N   0  0  0  0  0  0  0  0  0  0  0  0
   93.2154   98.6962  -44.5711 H   0  0  0  0  0  0  0  0  0  0  0  0
   94.2941   99.9909  -43.9561 H   0  0  0  0  0  0  0  0  0  0  0  0
   91.3022   91.3959  -47.0184 O   0  0  0  0  0  0  0  0  0  0  0  0
   91.6697   91.3148  -48.3628 C   0  0  0  0  0  0  0  0  0  0  0  0
   89.3838   92.5182  -49.9838 Br  0  0  0  0  0  0  0  0  0  0  0  0
   89.8621   90.6639  -49.9530 C   0  0  0  0  0  0  0  0  0  0  0  0
   89.1869   89.7338  -50.7035 C   0  0  0  0  0  0  0  0  0  0  0  0
   89.5457   88.4016  -50.6687 C   0  0  0  0  0  0  0  0  0  0  0  0
   90.5971   88.0109  -49.8669 C   0  0  0  0  0  0  0  0  0  0  0  0
   91.2776   88.9620  -49.1086 C   0  0  0  0  0  0  0  0  0  0  0  0
   90.9339   90.2945  -49.1294 C   0  0  0  0  0  0  0  0  0  0  0  0
   90.7357   86.6458  -50.0222 O   0  0  0  0  0  0  0  0  0  0  0  0
   89.9876   86.1967  -51.1385 C   0  0  0  0  0  0  0  0  0  0  0  0
   89.0652   87.2524  -51.3001 O   0  0  0  0  0  0  0  0  0  0  0  0
 20 21  1  0  0  0
 21 22  2  0  0  0
 21 26  1  0  0  0
 22 23  1  0  0  0
 23 24  2  0  0  0
 23 29  1  0  0  0
 24 25  1  0  0  0
 24 27  1  0  0  0
 25 26  2  0  0  0
 26 19  1  0  0  0
 19 18  1  0  0  0
 18  1  1  0  0  0
  1  2  2  0  0  0
  1  6  1  0  0  0
  2  3  1  0  0  0
  3  4  2  0  0  0
  4  5  1  0  0  0
  4  7  1  0  0  0
  5  6  2  0  0  0
  7  8  2  0  0  0
  7 11  1  0  0  0
  8  9  1  0  0  0
  9 10  1  0  0  0
  9 12  1  0  0  0
 10 11  2  0  0  0
 12 13  1  0  0  0
 13 14  2  0  0  0
 13 15  1  0  0  0
 27 28  1  0  0  0
 28 29  1  0  0  0
 15 16  1  0  0  0
 15 17  1  0  0  0
M  END
> <minimizedAffinity>
-6.87634

$$$$
467


 28 31  0  0  0  0  0  0  0  0999 V2000
   90.1068   95.9178  -46.4074 N   0  0  0  0  0  0  0  0  0  0  0  0
   89.7170   96.0971  -47.3579 H   0  0  0  0  0  0  0  0  0  0  0  0
   90.6757   94.6545  -46.1361 C   0  0  0  0  0  0  0  0  0  0  0  0
   91.1709   94.4744  -44.9005 N   0  0  0  0  0  0  0  0  0  0  0  0
   91.7196   93.2985  -44.4924 C   0  0  0  0  0  0  0  0  0  0  0  0
   91.7403   92.3215  -45.3977 N   0  0  0  0  0  0  0  0  0  0  0  0
   91.2670   92.4352  -46.6362 C   0  0  0  0  0  0  0  0  0  0  0  0
   90.7268   93.6379  -46.9956 N   0  0  0  0  0  0  0  0  0  0  0  0
   92.2211   93.1989  -43.1928 N   0  0  0  0  0  0  0  0  0  0  0  0
   93.5479   92.6916  -42.9361 C   0  0  0  0  0  0  0  0  0  0  0  0
   94.0089   93.0513  -41.5392 C   0  0  0  0  0  0  0  0  0  0  0  0
   93.5728   94.2436  -41.0622 O   0  0  0  0  0  0  0  0  0  0  0  0
   92.3083   94.6534  -41.3500 C   0  0  0  0  0  0  0  0  0  0  0  0
   91.4406   93.6157  -42.0558 C   0  0  0  0  0  0  0  0  0  0  0  0
   91.3032   91.3998  -47.5545 O   0  0  0  0  0  0  0  0  0  0  0  0
   92.4314   90.5729  -47.6571 C   0  0  0  0  0  0  0  0  0  0  0  0
   89.1144   97.7581  -45.2660 C   0  0  0  0  0  0  0  0  0  0  0  0
   90.0459   96.9267  -45.4666 N   0  0  0  0  0  0  0  0  0  0  0  0
   86.3916   98.4933  -43.9801 Br  0  0  0  0  0  0  0  0  0  0  0  0
   88.0900   99.2174  -43.5546 C   0  0  0  0  0  0  0  0  0  0  0  0
   88.2063  100.1861  -42.5753 C   0  0  0  0  0  0  0  0  0  0  0  0
   89.4360  100.7493  -42.2290 C   0  0  0  0  0  0  0  0  0  0  0  0
   90.5669  100.3016  -42.9075 C   0  0  0  0  0  0  0  0  0  0  0  0
   90.4261   99.3340  -43.8807 C   0  0  0  0  0  0  0  0  0  0  0  0
   89.2021   98.7681  -44.2313 C   0  0  0  0  0  0  0  0  0  0  0  0
   91.6341  101.0009  -42.3911 O   0  0  0  0  0  0  0  0  0  0  0  0
   91.1970  102.0241  -41.5186 C   0  0  0  0  0  0  0  0  0  0  0  0
   89.8441  101.7094  -41.3173 O   0  0  0  0  0  0  0  0  0  0  0  0
 19 20  1  0  0  0
 20 21  2  0  0  0
 20 25  1  0  0  0
 21 22  1  0  0  0
 22 23  2  0  0  0
 22 28  1  0  0  0
 23 24  1  0  0  0
 23 26  1  0  0  0
 24 25  2  0  0  0
 25 17  1  0  0  0
 17 18  2  0  0  0
 18  1  1  0  0  0
  1  3  1  0  0  0
  3  4  2  0  0  0
  3  8  1  0  0  0
  4  5  1  0  0  0
  5  6  2  0  0  0
  5  9  1  0  0  0
  6  7  1  0  0  0
  7  8  2  0  0  0
  7 15  1  0  0  0
 15 16  1  0  0  0
  9 10  1  0  0  0
  9 14  1  0  0  0
 10 11  1  0  0  0
 11 12  1  0  0  0
 12 13  1  0  0  0
 13 14  1  0  0  0
 26 27  1  0  0  0
 27 28  1  0  0  0
  1  2  1  0  0  0
M  END
> <minimizedAffinity>
-6.99251

$$$$
469


 32 36  0  0  0  0  0  0  0  0999 V2000
   90.3657  101.7198  -41.9542 C   0  0  0  0  0  0  0  0  0  0  0  0
   90.7372  100.3639  -42.2862 N   0  0  0  0  0  0  0  0  0  0  0  0
   91.9592  100.2035  -42.9182 C   0  0  0  0  0  0  0  0  0  0  0  0
   92.1799   99.0865  -43.8638 C   0  0  0  0  0  0  0  0  0  0  0  0
   91.1800   98.0823  -43.6397 N   0  0  0  0  0  0  0  0  0  0  0  0
   89.8269   98.5731  -43.7119 C   0  0  0  0  0  0  0  0  0  0  0  0
   89.6461   99.5069  -42.5435 C   0  0  0  0  0  0  0  0  0  0  0  0
   91.4053   96.7231  -43.3661 C   0  0  0  0  0  0  0  0  0  0  0  0
   91.6535   96.2330  -42.1252 N   0  0  0  0  0  0  0  0  0  0  0  0
   91.8640   94.9247  -41.8942 C   0  0  0  0  0  0  0  0  0  0  0  0
   91.8367   94.0295  -42.8973 N   0  0  0  0  0  0  0  0  0  0  0  0
   91.5970   94.4261  -44.1635 C   0  0  0  0  0  0  0  0  0  0  0  0
   91.5130   93.7620  -45.3447 N   0  0  0  0  0  0  0  0  0  0  0  0
   91.2546   94.6753  -46.2632 N   0  0  0  0  0  0  0  0  0  0  0  0
   91.1677   95.8988  -45.7365 C   0  0  0  0  0  0  0  0  0  0  0  0
   91.3844   95.7636  -44.3833 C   0  0  0  0  0  0  0  0  0  0  0  0
   91.6808   92.3196  -45.5296 C   0  0  0  0  0  0  0  0  0  0  0  0
   91.9861  102.1315  -40.0975 N   0  0  0  0  0  0  0  0  0  0  0  0
   91.5344  102.4915  -41.3840 C   0  0  0  0  0  0  0  0  0  0  0  0
   92.0118  103.3908  -42.0955 O   0  0  0  0  0  0  0  0  0  0  0  0
   91.4745  101.3332  -39.6052 H   0  0  0  0  0  0  0  0  0  0  0  0
   90.9808  103.4370  -37.5887 Br  0  0  0  0  0  0  0  0  0  0  0  0
   92.7761  103.4031  -38.2035 C   0  0  0  0  0  0  0  0  0  0  0  0
   93.7922  104.0090  -37.5030 C   0  0  0  0  0  0  0  0  0  0  0  0
   95.0816  103.9906  -37.9338 C   0  0  0  0  0  0  0  0  0  0  0  0
   95.3927  103.3468  -39.1116 C   0  0  0  0  0  0  0  0  0  0  0  0
   94.3749  102.7234  -39.8417 C   0  0  0  0  0  0  0  0  0  0  0  0
   93.0612  102.7402  -39.4061 C   0  0  0  0  0  0  0  0  0  0  0  0
   96.7002  103.3409  -39.5260 O   0  0  0  0  0  0  0  0  0  0  0  0
   97.6543  104.3033  -39.1485 C   0  0  0  0  0  0  0  0  0  0  0  0
   97.2008  105.1753  -38.0217 C   0  0  0  0  0  0  0  0  0  0  0  0
   96.1375  104.5889  -37.2595 O   0  0  0  0  0  0  0  0  0  0  0  0
 22 23  1  0  0  0
 23 24  2  0  0  0
 23 28  1  0  0  0
 24 25  1  0  0  0
 25 26  2  0  0  0
 25 32  1  0  0  0
 26 27  1  0  0  0
 26 29  1  0  0  0
 27 28  2  0  0  0
 28 18  1  0  0  0
 18 19  1  0  0  0
 19 20  2  0  0  0
 19  1  1  0  0  0
  1  2  1  0  0  0
  2  3  1  0  0  0
  2  7  1  0  0  0
  3  4  1  0  0  0
  4  5  1  0  0  0
  5  6  1  0  0  0
  5  8  1  0  0  0
  6  7  1  0  0  0
  8  9  2  0  0  0
  8 16  1  0  0  0
  9 10  1  0  0  0
 10 11  2  0  0  0
 11 12  1  0  0  0
 12 13  1  0  0  0
 12 16  2  0  0  0
 13 14  1  0  0  0
 13 17  1  0  0  0
 14 15  2  0  0  0
 15 16  1  0  0  0
 29 30  1  0  0  0
 30 31  1  0  0  0
 31 32  1  0  0  0
 18 21  1  0  0  0
M  END
> <minimizedAffinity>
-6.81364

$$$$
471


 27 30  0  0  0  0  0  0  0  0999 V2000
   90.3883   99.0298  -43.4113 C   0  0  0  0  0  0  0  0  0  0  0  0
   89.1435   99.2361  -43.3200 O   0  0  0  0  0  0  0  0  0  0  0  0
   91.2622  100.1267  -43.5485 N   0  0  0  0  0  0  0  0  0  0  0  0
   90.7104  101.4572  -43.5810 C   0  0  0  0  0  0  0  0  0  0  0  0
   91.3206  102.3725  -42.5408 C   0  0  0  0  0  0  0  0  0  0  0  0
   92.6592  101.9699  -42.3185 N   0  0  0  0  0  0  0  0  0  0  0  0
   93.2739  101.4407  -43.4718 C   0  0  0  0  0  0  0  0  0  0  0  0
   92.6972  100.0256  -43.6614 C   0  0  0  0  0  0  0  0  0  0  0  0
   91.3041   92.3131  -46.9695 Br  0  0  0  0  0  0  0  0  0  0  0  0
   91.4936   93.4273  -45.4331 C   0  0  0  0  0  0  0  0  0  0  0  0
   91.0537   94.7398  -45.4618 C   0  0  0  0  0  0  0  0  0  0  0  0
   91.1782   95.5739  -44.3601 C   0  0  0  0  0  0  0  0  0  0  0  0
   91.7635   95.0178  -43.2391 C   0  0  0  0  0  0  0  0  0  0  0  0
   92.2093   93.7201  -43.1830 C   0  0  0  0  0  0  0  0  0  0  0  0
   92.0735   92.9153  -44.2879 C   0  0  0  0  0  0  0  0  0  0  0  0
   91.8906   95.8450  -42.1380 C   0  0  0  0  0  0  0  0  0  0  0  0
   92.4230   95.3945  -41.0704 O   0  0  0  0  0  0  0  0  0  0  0  0
   91.4349   97.1437  -42.2232 C   0  0  0  0  0  0  0  0  0  0  0  0
   90.8584   97.6395  -43.3693 C   0  0  0  0  0  0  0  0  0  0  0  0
   90.7624   96.8166  -44.3835 O   0  0  0  0  0  0  0  0  0  0  0  0
   92.9536  101.3664  -41.0813 C   0  0  0  0  0  0  0  0  0  0  0  0
   94.0444  101.9735  -40.3237 C   0  0  0  0  0  0  0  0  0  0  0  0
   95.3507  101.8655  -40.6160 N   0  0  0  0  0  0  0  0  0  0  0  0
   95.9971  102.5314  -39.7268 O   0  0  0  0  0  0  0  0  0  0  0  0
   95.1858  103.0784  -38.8563 N   0  0  0  0  0  0  0  0  0  0  0  0
   93.9226  102.7458  -39.2015 C   0  0  0  0  0  0  0  0  0  0  0  0
   92.6659  103.1426  -38.4985 C   0  0  0  0  0  0  0  0  0  0  0  0
  9 10  1  0  0  0
 10 11  2  0  0  0
 10 15  1  0  0  0
 11 12  1  0  0  0
 12 13  2  0  0  0
 12 20  1  0  0  0
 13 14  1  0  0  0
 13 16  1  0  0  0
 14 15  2  0  0  0
 16 17  2  0  0  0
 16 18  1  0  0  0
 18 19  2  0  0  0
 19 20  1  0  0  0
 19  1  1  0  0  0
  1  2  2  0  0  0
  1  3  1  0  0  0
  3  4  1  0  0  0
  3  8  1  0  0  0
  4  5  1  0  0  0
  5  6  1  0  0  0
  6  7  1  0  0  0
  6 21  1  0  0  0
  7  8  1  0  0  0
 21 22  1  0  0  0
 22 23  2  0  0  0
 22 26  1  0  0  0
 23 24  1  0  0  0
 24 25  1  0  0  0
 25 26  2  0  0  0
 26 27  1  0  0  0
M  END
> <minimizedAffinity>
-7.52987

$$$$
473


 29 32  0  0  0  0  0  0  0  0999 V2000
   92.0324   91.9736  -47.7773 C   0  0  0  0  0  0  0  0  0  0  0  0
   92.2055   90.5399  -48.1052 C   0  0  0  0  0  0  0  0  0  0  0  0
   93.0408   89.7907  -47.5353 O   0  0  0  0  0  0  0  0  0  0  0  0
   91.3969   89.9207  -49.1250 N   0  0  0  0  0  0  0  0  0  0  0  0
   91.5570   88.5222  -49.4511 C   0  0  0  0  0  0  0  0  0  0  0  0
   90.2635   87.7960  -49.6122 C   0  0  0  0  0  0  0  0  0  0  0  0
   89.0919   88.6186  -49.4256 N   0  0  0  0  0  0  0  0  0  0  0  0
   89.0329   90.0302  -49.6952 C   0  0  0  0  0  0  0  0  0  0  0  0
   90.3935   90.6601  -49.8675 C   0  0  0  0  0  0  0  0  0  0  0  0
   87.9050   87.9843  -48.9388 C   0  0  0  0  0  0  0  0  0  0  0  0
   86.7154   88.6426  -48.8859 N   0  0  0  0  0  0  0  0  0  0  0  0
   85.5888   88.0888  -48.4401 C   0  0  0  0  0  0  0  0  0  0  0  0
   85.6175   86.7728  -48.0035 C   0  0  0  0  0  0  0  0  0  0  0  0
   86.7859   86.0881  -48.0428 N   0  0  0  0  0  0  0  0  0  0  0  0
   87.9014   86.6804  -48.4990 C   0  0  0  0  0  0  0  0  0  0  0  0
   91.0934   92.2388  -46.6348 C   0  0  0  0  0  0  0  0  0  0  0  0
   91.8448   92.2407  -45.3555 C   0  0  0  0  0  0  0  0  0  0  0  0
   91.1991   99.6036  -42.6332 Br  0  0  0  0  0  0  0  0  0  0  0  0
   91.4692   97.7163  -42.7052 C   0  0  0  0  0  0  0  0  0  0  0  0
   91.3616   97.0714  -43.9208 C   0  0  0  0  0  0  0  0  0  0  0  0
   91.5492   95.7057  -44.0276 C   0  0  0  0  0  0  0  0  0  0  0  0
   91.8468   95.0071  -42.8739 C   0  0  0  0  0  0  0  0  0  0  0  0
   91.9519   95.6623  -41.6640 C   0  0  0  0  0  0  0  0  0  0  0  0
   91.7670   97.0252  -41.5495 C   0  0  0  0  0  0  0  0  0  0  0  0
   91.9938   93.6108  -43.2458 C   0  0  0  0  0  0  0  0  0  0  0  0
   92.2711   92.6836  -42.4187 O   0  0  0  0  0  0  0  0  0  0  0  0
   91.7764   93.4982  -44.6443 N   0  0  0  0  0  0  0  0  0  0  0  0
   91.4971   94.7740  -45.1646 C   0  0  0  0  0  0  0  0  0  0  0  0
   91.2497   95.0899  -46.3607 O   0  0  0  0  0  0  0  0  0  0  0  0
 18 19  1  0  0  0
 19 20  2  0  0  0
 19 24  1  0  0  0
 20 21  1  0  0  0
 21 22  2  0  0  0
 21 28  1  0  0  0
 22 23  1  0  0  0
 22 25  1  0  0  0
 23 24  2  0  0  0
 25 26  2  0  0  0
 25 27  1  0  0  0
 27 28  1  0  0  0
 27 17  1  0  0  0
 28 29  2  0  0  0
 17 16  1  0  0  0
 16  1  1  0  0  0
  1  2  1  0  0  0
  2  3  2  0  0  0
  2  4  1  0  0  0
  4  5  1  0  0  0
  4  9  1  0  0  0
  5  6  1  0  0  0
  6  7  1  0  0  0
  7  8  1  0  0  0
  7 10  1  0  0  0
  8  9  1  0  0  0
 10 11  2  0  0  0
 10 15  1  0  0  0
 11 12  1  0  0  0
 12 13  2  0  0  0
 13 14  1  0  0  0
 14 15  2  0  0  0
M  END
> <minimizedAffinity>
-7.30126

$$$$
483


 31 34  0  0  0  0  0  0  0  0999 V2000
   91.4030   97.2167  -42.1489 N   0  0  0  0  0  0  0  0  0  0  0  0
   91.9648   96.2269  -41.3054 C   0  0  0  0  0  0  0  0  0  0  0  0
   92.9190   96.5351  -40.5555 O   0  0  0  0  0  0  0  0  0  0  0  0
   90.6165   96.9601  -42.7789 H   0  0  0  0  0  0  0  0  0  0  0  0
   88.6850   96.3157  -46.6824 Br  0  0  0  0  0  0  0  0  0  0  0  0
   89.5815   97.8764  -46.0713 C   0  0  0  0  0  0  0  0  0  0  0  0
   90.2429   97.9106  -44.8380 C   0  0  0  0  0  0  0  0  0  0  0  0
   90.8948   99.0398  -44.3901 C   0  0  0  0  0  0  0  0  0  0  0  0
   90.8962  100.1885  -45.1906 C   0  0  0  0  0  0  0  0  0  0  0  0
   90.2380  100.1423  -46.4107 C   0  0  0  0  0  0  0  0  0  0  0  0
   89.5932   99.0067  -46.8400 C   0  0  0  0  0  0  0  0  0  0  0  0
   91.6178  101.2373  -44.5544 N   0  0  0  0  0  0  0  0  0  0  0  0
   92.0816  100.7257  -43.3146 C   0  0  0  0  0  0  0  0  0  0  0  0
   92.7633  101.2863  -42.4129 O   0  0  0  0  0  0  0  0  0  0  0  0
   91.6401   99.3216  -43.1719 C   0  0  0  0  0  0  0  0  0  0  0  0
   91.8716   98.5324  -42.1796 N   0  0  0  0  0  0  0  0  0  0  0  0
   91.8771  102.5889  -45.0085 C   0  0  0  0  0  0  0  0  0  0  0  0
   92.6255  102.5717  -46.2554 C   0  0  0  0  0  0  0  0  0  0  0  0
   93.2581  102.5504  -47.2790 C   0  0  0  0  0  0  0  0  0  0  0  0
   91.4376   94.8697  -41.3133 C   0  0  0  0  0  0  0  0  0  0  0  0
   91.8911   94.0901  -42.4490 N   0  0  0  0  0  0  0  0  0  0  0  0
   93.0523   93.4723  -42.5820 N   0  0  0  0  0  0  0  0  0  0  0  0
   93.1165   92.8595  -43.7527 N   0  0  0  0  0  0  0  0  0  0  0  0
   91.9622   93.0856  -44.4028 C   0  0  0  0  0  0  0  0  0  0  0  0
   91.2333   93.8435  -43.5732 N   0  0  0  0  0  0  0  0  0  0  0  0
   91.6263   92.5853  -45.7320 C   0  0  0  0  0  0  0  0  0  0  0  0
   92.0638   91.3413  -46.1330 C   0  0  0  0  0  0  0  0  0  0  0  0
   91.7440   90.8591  -47.4043 C   0  0  0  0  0  0  0  0  0  0  0  0
   90.9917   91.5984  -48.2886 C   0  0  0  0  0  0  0  0  0  0  0  0
   90.5508   92.8475  -47.8880 C   0  0  0  0  0  0  0  0  0  0  0  0
   90.8733   93.3191  -46.6228 C   0  0  0  0  0  0  0  0  0  0  0  0
  5  6  1  0  0  0
  6  7  2  0  0  0
  6 11  1  0  0  0
  7  8  1  0  0  0
  8  9  2  0  0  0
  8 15  1  0  0  0
  9 10  1  0  0  0
  9 12  1  0  0  0
 10 11  2  0  0  0
 12 13  1  0  0  0
 12 17  1  0  0  0
 13 14  2  0  0  0
 13 15  1  0  0  0
 15 16  2  0  0  0
 16  1  1  0  0  0
  1  2  1  0  0  0
  2  3  2  0  0  0
  2 20  1  0  0  0
 20 21  1  0  0  0
 21 22  1  0  0  0
 21 25  1  0  0  0
 22 23  2  0  0  0
 23 24  1  0  0  0
 24 25  2  0  0  0
 24 26  1  0  0  0
 26 27  2  0  0  0
 26 31  1  0  0  0
 27 28  1  0  0  0
 28 29  2  0  0  0
 29 30  1  0  0  0
 30 31  2  0  0  0
 17 18  1  0  0  0
 18 19  3  0  0  0
  1  4  1  0  0  0
M  END
> <minimizedAffinity>
-6.42339

$$$$
484


 35 38  0  0  0  0  0  0  0  0999 V2000
   91.7022   92.3757  -46.0915 Br  0  0  0  0  0  0  0  0  0  0  0  0
   91.2486   94.1538  -45.5634 C   0  0  0  0  0  0  0  0  0  0  0  0
   90.4450   94.9762  -46.3670 C   0  0  0  0  0  0  0  0  0  0  0  0
   90.1783   96.2251  -45.8848 C   0  0  0  0  0  0  0  0  0  0  0  0
   90.6490   96.7082  -44.6816 C   0  0  0  0  0  0  0  0  0  0  0  0
   91.4418   95.9010  -43.8980 C   0  0  0  0  0  0  0  0  0  0  0  0
   91.7334   94.6077  -44.3563 C   0  0  0  0  0  0  0  0  0  0  0  0
   90.2132   98.0391  -44.4363 N   0  0  0  0  0  0  0  0  0  0  0  0
   89.4128   98.4173  -45.5867 C   0  0  0  0  0  0  0  0  0  0  0  0
   88.8402   99.5169  -45.7334 O   0  0  0  0  0  0  0  0  0  0  0  0
   89.4173   97.2794  -46.4790 C   0  0  0  0  0  0  0  0  0  0  0  0
   88.9807   97.2072  -47.6770 N   0  0  0  0  0  0  0  0  0  0  0  0
   88.9074   96.5830  -48.6598 N   0  0  0  0  0  0  0  0  0  0  0  0
   88.8195   95.8445  -49.8617 C   0  0  0  0  0  0  0  0  0  0  0  0
   88.8554   96.1691  -51.0274 O   0  0  0  0  0  0  0  0  0  0  0  0
   88.8935   97.7181  -49.4598 H   0  0  0  0  0  0  0  0  0  0  0  0
   88.6271   94.3483  -49.5250 C   0  0  0  0  0  0  0  0  0  0  0  0
   88.8468   93.6783  -50.7850 O   0  0  0  0  0  0  0  0  0  0  0  0
   89.1985   92.3033  -50.6666 N   0  0  0  0  0  0  0  0  0  0  0  0
   89.9067   91.8787  -49.6945 C   0  0  0  0  0  0  0  0  0  0  0  0
   90.2636   90.4814  -49.6054 C   0  0  0  0  0  0  0  0  0  0  0  0
   91.4571   89.9993  -49.1835 C   0  0  0  0  0  0  0  0  0  0  0  0
   91.6284   88.5925  -49.2447 C   0  0  0  0  0  0  0  0  0  0  0  0
   90.7376   87.6942  -49.6602 C   0  0  0  0  0  0  0  0  0  0  0  0
   89.5607   88.2246  -50.0668 C   0  0  0  0  0  0  0  0  0  0  0  0
   89.2157   89.5222  -50.0948 C   0  0  0  0  0  0  0  0  0  0  0  0
   91.0403   86.3280  -49.6602 O   0  0  0  0  0  0  0  0  0  0  0  0
   91.4500   85.6754  -48.4639 C   0  0  0  0  0  0  0  0  0  0  0  0
   90.3946   98.9320  -43.3035 C   0  0  0  0  0  0  0  0  0  0  0  0
   91.7106   99.3164  -43.1516 N   0  0  0  0  0  0  0  0  0  0  0  0
   92.1415  100.1899  -44.1663 C   0  0  0  0  0  0  0  0  0  0  0  0
   92.9348  101.3437  -43.5482 C   0  0  0  0  0  0  0  0  0  0  0  0
   92.0623  101.8296  -42.5361 O   0  0  0  0  0  0  0  0  0  0  0  0
   92.0967  100.9525  -41.4437 C   0  0  0  0  0  0  0  0  0  0  0  0
   92.1767   99.5104  -41.8378 C   0  0  0  0  0  0  0  0  0  0  0  0
  1  2  1  0  0  0
  2  3  2  0  0  0
  2  7  1  0  0  0
  3  4  1  0  0  0
  4  5  2  0  0  0
  4 11  1  0  0  0
  5  6  1  0  0  0
  5  8  1  0  0  0
  6  7  2  0  0  0
  8  9  1  0  0  0
  8 29  1  0  0  0
  9 10  2  0  0  0
  9 11  1  0  0  0
 11 12  2  0  0  0
 12 13  1  0  0  0
 13 14  1  0  0  0
 14 15  2  0  0  0
 14 17  1  0  0  0
 17 18  1  0  0  0
 18 19  1  0  0  0
 19 20  2  0  0  0
 20 21  1  0  0  0
 21 22  2  0  0  0
 21 26  1  0  0  0
 22 23  1  0  0  0
 23 24  2  0  0  0
 24 25  1  0  0  0
 24 27  1  0  0  0
 25 26  2  0  0  0
 27 28  1  0  0  0
 29 30  1  0  0  0
 30 31  1  0  0  0
 30 35  1  0  0  0
 31 32  1  0  0  0
 32 33  1  0  0  0
 33 34  1  0  0  0
 34 35  1  0  0  0
 13 16  1  0  0  0
M  END
> <minimizedAffinity>
-6.42284

$$$$
485


 34 37  0  0  0  0  0  0  0  0999 V2000
   93.7095   92.8265  -41.3803 Br  0  0  0  0  0  0  0  0  0  0  0  0
   92.6727   93.8836  -42.6060 C   0  0  0  0  0  0  0  0  0  0  0  0
   92.2905   93.3926  -43.8331 C   0  0  0  0  0  0  0  0  0  0  0  0
   91.5418   94.1190  -44.7529 C   0  0  0  0  0  0  0  0  0  0  0  0
   91.1573   95.4186  -44.4101 C   0  0  0  0  0  0  0  0  0  0  0  0
   91.5402   95.9113  -43.1793 C   0  0  0  0  0  0  0  0  0  0  0  0
   92.2901   95.1658  -42.2738 C   0  0  0  0  0  0  0  0  0  0  0  0
   90.3959   96.0016  -45.4770 N   0  0  0  0  0  0  0  0  0  0  0  0
   90.3164   95.0218  -46.5035 C   0  0  0  0  0  0  0  0  0  0  0  0
   89.7276   95.1661  -47.5979 O   0  0  0  0  0  0  0  0  0  0  0  0
   91.0252   93.8303  -46.0778 C   0  0  0  0  0  0  0  0  0  0  0  0
   91.1727   92.7350  -46.7338 N   0  0  0  0  0  0  0  0  0  0  0  0
   90.6468   92.5320  -48.0042 N   0  0  0  0  0  0  0  0  0  0  0  0
   90.7240   91.2558  -48.5995 C   0  0  0  0  0  0  0  0  0  0  0  0
   91.2698   90.2677  -47.9968 O   0  0  0  0  0  0  0  0  0  0  0  0
   90.2041   93.3167  -48.5025 H   0  0  0  0  0  0  0  0  0  0  0  0
   90.1884   90.9507  -49.9499 C   0  0  0  0  0  0  0  0  0  0  0  0
   90.6540   89.6741  -50.3857 O   0  0  0  0  0  0  0  0  0  0  0  0
   89.7448   88.6994  -50.7605 C   0  0  0  0  0  0  0  0  0  0  0  0
   89.9379   87.3887  -50.3787 C   0  0  0  0  0  0  0  0  0  0  0  0
   89.0201   86.4145  -50.7590 C   0  0  0  0  0  0  0  0  0  0  0  0
   87.9156   86.7499  -51.5185 C   0  0  0  0  0  0  0  0  0  0  0  0
   87.7385   88.0502  -51.8886 C   0  0  0  0  0  0  0  0  0  0  0  0
   88.6528   89.0191  -51.5095 C   0  0  0  0  0  0  0  0  0  0  0  0
   91.0241   87.0226  -49.6250 O   0  0  0  0  0  0  0  0  0  0  0  0
   90.9973   85.8468  -48.8559 C   0  0  0  0  0  0  0  0  0  0  0  0
   89.8332   97.3414  -45.4603 C   0  0  0  0  0  0  0  0  0  0  0  0
   90.6324   98.3336  -46.0841 N   0  0  0  0  0  0  0  0  0  0  0  0
   89.9270   99.3536  -46.7816 C   0  0  0  0  0  0  0  0  0  0  0  0
   90.8756  100.3291  -47.4843 C   0  0  0  0  0  0  0  0  0  0  0  0
   92.1764   99.7239  -47.4727 N   0  0  0  0  0  0  0  0  0  0  0  0
   92.7276   99.6039  -46.1586 C   0  0  0  0  0  0  0  0  0  0  0  0
   91.7544   98.7959  -45.3192 C   0  0  0  0  0  0  0  0  0  0  0  0
   93.0778  100.2626  -48.4502 C   0  0  0  0  0  0  0  0  0  0  0  0
  1  2  1  0  0  0
  2  3  2  0  0  0
  2  7  1  0  0  0
  3  4  1  0  0  0
  4  5  2  0  0  0
  4 11  1  0  0  0
  5  6  1  0  0  0
  5  8  1  0  0  0
  6  7  2  0  0  0
  8  9  1  0  0  0
  8 27  1  0  0  0
  9 10  2  0  0  0
  9 11  1  0  0  0
 11 12  2  0  0  0
 12 13  1  0  0  0
 13 14  1  0  0  0
 14 15  2  0  0  0
 14 17  1  0  0  0
 17 18  1  0  0  0
 18 19  1  0  0  0
 19 20  2  0  0  0
 19 24  1  0  0  0
 20 21  1  0  0  0
 20 25  1  0  0  0
 21 22  2  0  0  0
 22 23  1  0  0  0
 23 24  2  0  0  0
 25 26  1  0  0  0
 27 28  1  0  0  0
 28 29  1  0  0  0
 28 33  1  0  0  0
 29 30  1  0  0  0
 30 31  1  0  0  0
 31 32  1  0  0  0
 31 34  1  0  0  0
 32 33  1  0  0  0
 13 16  1  0  0  0
M  END
> <minimizedAffinity>
-6.51989

$$$$
500


 32 35  0  0  0  0  0  0  0  0999 V2000
   94.7042  102.1118  -40.2914 Br  0  0  0  0  0  0  0  0  0  0  0  0
   93.0524  101.6347  -41.1581 C   0  0  0  0  0  0  0  0  0  0  0  0
   92.9835  101.1480  -42.4310 C   0  0  0  0  0  0  0  0  0  0  0  0
   91.7836  100.8488  -43.0234 C   0  0  0  0  0  0  0  0  0  0  0  0
   90.6523  101.0561  -42.2861 C   0  0  0  0  0  0  0  0  0  0  0  0
   90.6952  101.5517  -40.9766 C   0  0  0  0  0  0  0  0  0  0  0  0
   91.9085  101.8506  -40.3916 C   0  0  0  0  0  0  0  0  0  0  0  0
   89.4900  100.7463  -43.0300 N   0  0  0  0  0  0  0  0  0  0  0  0
   89.9036  100.3273  -44.2925 C   0  0  0  0  0  0  0  0  0  0  0  0
   89.1115   99.9943  -45.2126 O   0  0  0  0  0  0  0  0  0  0  0  0
   91.4115  100.3433  -44.3566 C   0  0  0  0  0  0  0  0  0  0  0  0
   91.7856   98.9722  -44.6666 C   0  0  0  0  0  0  0  0  0  0  0  0
   92.3715   98.6752  -45.8592 C   0  0  0  0  0  0  0  0  0  0  0  0
   92.5910   97.3305  -45.8600 N   0  0  0  0  0  0  0  0  0  0  0  0
   92.1651   96.8211  -44.7332 N   0  0  0  0  0  0  0  0  0  0  0  0
   91.6475   97.7824  -43.9339 C   0  0  0  0  0  0  0  0  0  0  0  0
   92.6490   99.6502  -46.8382 O   0  0  0  0  0  0  0  0  0  0  0  0
   92.2926  100.9505  -46.5377 C   0  0  0  0  0  0  0  0  0  0  0  0
   91.7271  101.2923  -45.4144 C   0  0  0  0  0  0  0  0  0  0  0  0
   92.5757  101.9540  -47.5421 N   0  0  0  0  0  0  0  0  0  0  0  0
   88.0955  100.8455  -42.5535 C   0  0  0  0  0  0  0  0  0  0  0  0
   92.1987   95.8021  -44.4389 H   0  0  0  0  0  0  0  0  0  0  0  0
   93.2611  101.8211  -48.3059 H   0  0  0  0  0  0  0  0  0  0  0  0
   92.0602  102.8467  -47.4854 H   0  0  0  0  0  0  0  0  0  0  0  0
   91.3806  102.6995  -45.1928 C   0  0  0  0  0  0  0  0  0  0  0  0
   91.1198  103.8041  -45.0367 N   0  0  0  0  0  0  0  0  0  0  0  0
   91.0939   97.5546  -42.5749 C   0  0  0  0  0  0  0  0  0  0  0  0
   91.8840   96.5505  -41.8293 C   0  0  0  0  0  0  0  0  0  0  0  0
   92.5910   96.7857  -40.8163 O   0  0  0  0  0  0  0  0  0  0  0  0
   91.8411   95.2507  -42.2823 O   0  0  0  0  0  0  0  0  0  0  0  0
   91.8858   94.0931  -41.4911 C   0  0  0  0  0  0  0  0  0  0  0  0
   93.1836   93.3594  -41.7350 C   0  0  0  0  0  0  0  0  0  0  0  0
  1  2  1  0  0  0
  2  3  2  0  0  0
  2  7  1  0  0  0
  3  4  1  0  0  0
  4  5  2  0  0  0
  4 11  1  0  0  0
  5  6  1  0  0  0
  5  8  1  0  0  0
  6  7  2  0  0  0
  8  9  1  0  0  0
  8 21  1  0  0  0
  9 10  2  0  0  0
  9 11  1  0  0  0
 11 12  1  0  0  0
 11 19  1  0  0  0
 12 13  1  0  0  0
 12 16  2  0  0  0
 13 14  2  0  0  0
 13 17  1  0  0  0
 14 15  1  0  0  0
 15 16  1  0  0  0
 16 27  1  0  0  0
 27 28  1  0  0  0
 28 29  2  0  0  0
 28 30  1  0  0  0
 30 31  1  0  0  0
 31 32  1  0  0  0
 17 18  1  0  0  0
 18 19  2  0  0  0
 18 20  1  0  0  0
 19 25  1  0  0  0
 25 26  3  0  0  0
 15 22  1  0  0  0
 20 23  1  0  0  0
 20 24  1  0  0  0
M  END
> <minimizedAffinity>
-6.26236

$$$$
502


 27 30  0  0  0  0  0  0  0  0999 V2000
   85.1034   98.3074  -43.9329 Br  0  0  0  0  0  0  0  0  0  0  0  0
   86.7915   98.6510  -44.7968 C   0  0  0  0  0  0  0  0  0  0  0  0
   87.9431   98.0497  -44.3622 C   0  0  0  0  0  0  0  0  0  0  0  0
   89.1394   98.3104  -44.9968 C   0  0  0  0  0  0  0  0  0  0  0  0
   89.1215   99.1774  -46.0555 C   0  0  0  0  0  0  0  0  0  0  0  0
   87.9356   99.7950  -46.5018 C   0  0  0  0  0  0  0  0  0  0  0  0
   86.7566   99.5243  -45.8600 C   0  0  0  0  0  0  0  0  0  0  0  0
   90.4257   99.3445  -46.6034 N   0  0  0  0  0  0  0  0  0  0  0  0
   91.3093   98.5507  -45.8614 C   0  0  0  0  0  0  0  0  0  0  0  0
   92.5572   98.4549  -46.0710 O   0  0  0  0  0  0  0  0  0  0  0  0
   90.5309   97.8410  -44.7860 C   0  0  0  0  0  0  0  0  0  0  0  0
   90.6999   96.4159  -45.0454 C   0  0  0  0  0  0  0  0  0  0  0  0
   91.3317   95.6062  -44.1536 C   0  0  0  0  0  0  0  0  0  0  0  0
   91.3207   94.3507  -44.6911 N   0  0  0  0  0  0  0  0  0  0  0  0
   90.7161   94.3617  -45.8604 N   0  0  0  0  0  0  0  0  0  0  0  0
   90.3191   95.6057  -46.1190 C   0  0  0  0  0  0  0  0  0  0  0  0
   89.5910   96.1378  -47.3132 C   0  0  0  0  0  0  0  0  0  0  0  0
   91.8548   96.0744  -42.9433 O   0  0  0  0  0  0  0  0  0  0  0  0
   91.6921   97.4343  -42.6998 C   0  0  0  0  0  0  0  0  0  0  0  0
   91.0953   98.2619  -43.5173 C   0  0  0  0  0  0  0  0  0  0  0  0
   92.2160   97.9797  -41.4561 N   0  0  0  0  0  0  0  0  0  0  0  0
   90.7937  100.1965  -47.7444 C   0  0  0  0  0  0  0  0  0  0  0  0
   90.5478   93.5575  -46.5185 H   0  0  0  0  0  0  0  0  0  0  0  0
   93.2043   98.2985  -41.5045 H   0  0  0  0  0  0  0  0  0  0  0  0
   91.6708   98.0490  -40.5993 H   0  0  0  0  0  0  0  0  0  0  0  0
   91.0134   99.6709  -43.0949 C   0  0  0  0  0  0  0  0  0  0  0  0
   90.9537  100.7815  -42.7382 N   0  0  0  0  0  0  0  0  0  0  0  0
  1  2  1  0  0  0
  2  3  2  0  0  0
  2  7  1  0  0  0
  3  4  1  0  0  0
  4  5  2  0  0  0
  4 11  1  0  0  0
  5  6  1  0  0  0
  5  8  1  0  0  0
  6  7  2  0  0  0
  8  9  1  0  0  0
  8 22  1  0  0  0
  9 10  2  0  0  0
  9 11  1  0  0  0
 11 12  1  0  0  0
 11 20  1  0  0  0
 12 13  1  0  0  0
 12 16  2  0  0  0
 13 14  2  0  0  0
 13 18  1  0  0  0
 14 15  1  0  0  0
 15 16  1  0  0  0
 16 17  1  0  0  0
 18 19  1  0  0  0
 19 20  2  0  0  0
 19 21  1  0  0  0
 20 26  1  0  0  0
 26 27  3  0  0  0
 15 23  1  0  0  0
 21 24  1  0  0  0
 21 25  1  0  0  0
M  END
> <minimizedAffinity>
-6.13768

$$$$
504


 29 32  0  0  0  0  0  0  0  0999 V2000
   85.5188   99.2446  -43.9850 Br  0  0  0  0  0  0  0  0  0  0  0  0
   87.1405   99.4603  -44.9511 C   0  0  0  0  0  0  0  0  0  0  0  0
   88.3803   99.3437  -44.3699 C   0  0  0  0  0  0  0  0  0  0  0  0
   89.5241   99.5167  -45.1483 C   0  0  0  0  0  0  0  0  0  0  0  0
   89.4848   99.7983  -46.4724 C   0  0  0  0  0  0  0  0  0  0  0  0
   88.2237   99.9161  -47.0633 C   0  0  0  0  0  0  0  0  0  0  0  0
   87.0833   99.7488  -46.3101 C   0  0  0  0  0  0  0  0  0  0  0  0
   90.7784   99.9245  -47.0310 N   0  0  0  0  0  0  0  0  0  0  0  0
   91.7093   99.7102  -45.9961 C   0  0  0  0  0  0  0  0  0  0  0  0
   92.9660   99.7412  -46.1079 O   0  0  0  0  0  0  0  0  0  0  0  0
   90.9628   99.4369  -44.7362 C   0  0  0  0  0  0  0  0  0  0  0  0
   91.2512  100.4856  -43.7256 C   0  0  0  0  0  0  0  0  0  0  0  0
   91.6519  100.2100  -42.5375 C   0  0  0  0  0  0  0  0  0  0  0  0
   91.8595   98.8469  -42.0738 N   0  0  0  0  0  0  0  0  0  0  0  0
   91.5880   97.8395  -43.0257 C   0  0  0  0  0  0  0  0  0  0  0  0
   91.1808   98.0969  -44.2381 C   0  0  0  0  0  0  0  0  0  0  0  0
   91.7782   96.4566  -42.6177 N   0  0  0  0  0  0  0  0  0  0  0  0
   91.8460  101.4892  -41.7873 C   0  0  0  0  0  0  0  0  0  0  0  0
   91.5140  102.4897  -42.6771 O   0  0  0  0  0  0  0  0  0  0  0  0
   91.1399  101.9726  -43.8800 C   0  0  0  0  0  0  0  0  0  0  0  0
   90.7691  102.5588  -44.9413 O   0  0  0  0  0  0  0  0  0  0  0  0
   93.2720  101.5803  -41.2788 C   0  0  0  0  0  0  0  0  0  0  0  0
   90.8916  101.5702  -40.6100 C   0  0  0  0  0  0  0  0  0  0  0  0
   91.1301  100.2247  -48.4273 C   0  0  0  0  0  0  0  0  0  0  0  0
   92.1834   98.6816  -41.1055 H   0  0  0  0  0  0  0  0  0  0  0  0
   92.5734   95.9442  -43.0507 H   0  0  0  0  0  0  0  0  0  0  0  0
   91.1541   96.0057  -41.9344 H   0  0  0  0  0  0  0  0  0  0  0  0
   90.9416   96.9532  -45.1101 C   0  0  0  0  0  0  0  0  0  0  0  0
   90.7688   96.0503  -45.8148 N   0  0  0  0  0  0  0  0  0  0  0  0
  1  2  1  0  0  0
  2  3  2  0  0  0
  2  7  1  0  0  0
  3  4  1  0  0  0
  4  5  2  0  0  0
  4 11  1  0  0  0
  5  6  1  0  0  0
  5  8  1  0  0  0
  6  7  2  0  0  0
  8  9  1  0  0  0
  8 24  1  0  0  0
  9 10  2  0  0  0
  9 11  1  0  0  0
 11 12  1  0  0  0
 11 16  1  0  0  0
 12 13  2  0  0  0
 12 20  1  0  0  0
 13 14  1  0  0  0
 13 18  1  0  0  0
 14 15  1  0  0  0
 15 16  2  0  0  0
 15 17  1  0  0  0
 16 28  1  0  0  0
 28 29  3  0  0  0
 18 19  1  0  0  0
 18 22  1  0  0  0
 18 23  1  0  0  0
 19 20  1  0  0  0
 20 21  2  0  0  0
 14 25  1  0  0  0
 17 26  1  0  0  0
 17 27  1  0  0  0
M  END
> <minimizedAffinity>
-5.63387

$$$$
505


 30 33  0  0  0  0  0  0  0  0999 V2000
   93.3411  101.6188  -47.7659 Br  0  0  0  0  0  0  0  0  0  0  0  0
   91.6990  101.2639  -46.8714 C   0  0  0  0  0  0  0  0  0  0  0  0
   91.6029  100.1873  -46.0170 C   0  0  0  0  0  0  0  0  0  0  0  0
   90.4079   99.9052  -45.3476 C   0  0  0  0  0  0  0  0  0  0  0  0
   89.3513  100.7283  -45.5702 C   0  0  0  0  0  0  0  0  0  0  0  0
   89.4509  101.8296  -46.4457 C   0  0  0  0  0  0  0  0  0  0  0  0
   90.6304  102.1006  -47.0998 C   0  0  0  0  0  0  0  0  0  0  0  0
   88.2436  100.2734  -44.8036 N   0  0  0  0  0  0  0  0  0  0  0  0
   88.6096   99.1283  -44.0735 C   0  0  0  0  0  0  0  0  0  0  0  0
   87.8932   98.4561  -43.2901 O   0  0  0  0  0  0  0  0  0  0  0  0
   90.0375   98.8245  -44.3863 C   0  0  0  0  0  0  0  0  0  0  0  0
   90.1694   97.4994  -45.0021 C   0  0  0  0  0  0  0  0  0  0  0  0
   90.9970   96.5544  -44.4891 C   0  0  0  0  0  0  0  0  0  0  0  0
   91.7521   96.8265  -43.3440 O   0  0  0  0  0  0  0  0  0  0  0  0
   91.6637   98.0579  -42.7260 C   0  0  0  0  0  0  0  0  0  0  0  0
   90.8792   98.9798  -43.1966 C   0  0  0  0  0  0  0  0  0  0  0  0
   92.4696   98.2648  -41.5541 N   0  0  0  0  0  0  0  0  0  0  0  0
   91.0910   95.3058  -45.1101 C   0  0  0  0  0  0  0  0  0  0  0  0
   91.8557   94.4449  -44.6275 O   0  0  0  0  0  0  0  0  0  0  0  0
   90.3417   95.0531  -46.2350 C   0  0  0  0  0  0  0  0  0  0  0  0
   89.5184   96.0512  -46.7120 C   0  0  0  0  0  0  0  0  0  0  0  0
   89.4728   97.1843  -46.0970 O   0  0  0  0  0  0  0  0  0  0  0  0
   86.9290  100.9439  -44.8126 C   0  0  0  0  0  0  0  0  0  0  0  0
   93.0432   99.1043  -41.4978 H   0  0  0  0  0  0  0  0  0  0  0  0
   92.4409   97.5622  -40.8165 H   0  0  0  0  0  0  0  0  0  0  0  0
   88.6834   95.7966  -47.9491 C   0  0  0  0  0  0  0  0  0  0  0  0
   89.2160   96.5219  -49.0149 O   0  0  0  0  0  0  0  0  0  0  0  0
   89.6856   97.3334  -48.6559 H   0  0  0  0  0  0  0  0  0  0  0  0
   90.8480  100.2599  -42.4747 C   0  0  0  0  0  0  0  0  0  0  0  0
   90.8298  101.2485  -41.9094 N   0  0  0  0  0  0  0  0  0  0  0  0
  1  2  1  0  0  0
  2  3  2  0  0  0
  2  7  1  0  0  0
  3  4  1  0  0  0
  4  5  2  0  0  0
  4 11  1  0  0  0
  5  6  1  0  0  0
  5  8  1  0  0  0
  6  7  2  0  0  0
  8  9  1  0  0  0
  8 23  1  0  0  0
  9 10  2  0  0  0
  9 11  1  0  0  0
 11 12  1  0  0  0
 11 16  1  0  0  0
 12 13  2  0  0  0
 12 22  1  0  0  0
 13 14  1  0  0  0
 13 18  1  0  0  0
 14 15  1  0  0  0
 15 16  2  0  0  0
 15 17  1  0  0  0
 16 29  1  0  0  0
 29 30  3  0  0  0
 18 19  2  0  0  0
 18 20  1  0  0  0
 20 21  2  0  0  0
 21 22  1  0  0  0
 21 26  1  0  0  0
 26 27  1  0  0  0
 17 24  1  0  0  0
 17 25  1  0  0  0
 27 28  1  0  0  0
M  END
> <minimizedAffinity>
-6.05139

$$$$
513


 33 36  0  0  0  0  0  0  0  0999 V2000
   92.2242   97.9457  -41.9034 N   0  0  0  0  0  0  0  0  0  0  0  0
   91.4810   98.9584  -42.5674 C   0  0  0  0  0  0  0  0  0  0  0  0
   90.2469   98.8286  -42.5962 O   0  0  0  0  0  0  0  0  0  0  0  0
   93.2619   98.0499  -41.8924 H   0  0  0  0  0  0  0  0  0  0  0  0
   91.6483   96.8493  -41.2885 N   0  0  0  0  0  0  0  0  0  0  0  0
   90.7188   96.9539  -40.7974 H   0  0  0  0  0  0  0  0  0  0  0  0
   89.5544   97.3024  -46.3136 Br  0  0  0  0  0  0  0  0  0  0  0  0
   90.4859   95.8235  -45.5326 C   0  0  0  0  0  0  0  0  0  0  0  0
   90.9514   95.8928  -44.2198 C   0  0  0  0  0  0  0  0  0  0  0  0
   91.6306   94.8632  -43.6057 C   0  0  0  0  0  0  0  0  0  0  0  0
   91.8419   93.7271  -44.3505 C   0  0  0  0  0  0  0  0  0  0  0  0
   91.3877   93.6221  -45.6732 C   0  0  0  0  0  0  0  0  0  0  0  0
   90.7160   94.6731  -46.2421 C   0  0  0  0  0  0  0  0  0  0  0  0
   92.5539   92.8072  -43.5346 N   0  0  0  0  0  0  0  0  0  0  0  0
   92.7970   93.3660  -42.2567 C   0  0  0  0  0  0  0  0  0  0  0  0
   93.3913   92.8542  -41.2771 O   0  0  0  0  0  0  0  0  0  0  0  0
   92.2071   94.7144  -42.2652 C   0  0  0  0  0  0  0  0  0  0  0  0
   92.2161   95.5685  -41.2648 C   0  0  0  0  0  0  0  0  0  0  0  0
   92.8605   91.8485  -43.8225 H   0  0  0  0  0  0  0  0  0  0  0  0
   92.1074  100.1365  -43.2074 C   0  0  0  0  0  0  0  0  0  0  0  0
   92.2651   99.9759  -44.5768 N   0  0  0  0  0  0  0  0  0  0  0  0
   91.7970  100.6641  -45.6169 C   0  0  0  0  0  0  0  0  0  0  0  0
   92.2057  100.0408  -46.7884 C   0  0  0  0  0  0  0  0  0  0  0  0
   92.9290   98.9661  -46.4218 N   0  0  0  0  0  0  0  0  0  0  0  0
   92.9666   98.9258  -45.1094 C   0  0  0  0  0  0  0  0  0  0  0  0
   91.8530  100.5722  -48.0128 C   0  0  0  0  0  0  0  0  0  0  0  0
   92.2358   99.9835  -49.0567 O   0  0  0  0  0  0  0  0  0  0  0  0
   91.1241  101.6782  -48.0125 N   0  0  0  0  0  0  0  0  0  0  0  0
   90.7360  102.2749  -46.8716 C   0  0  0  0  0  0  0  0  0  0  0  0
   90.0474  103.3218  -46.9163 O   0  0  0  0  0  0  0  0  0  0  0  0
   91.0571  101.7916  -45.6383 N   0  0  0  0  0  0  0  0  0  0  0  0
   90.6582  102.4720  -44.4395 C   0  0  0  0  0  0  0  0  0  0  0  0
   90.7182  102.2850  -49.2912 C   0  0  0  0  0  0  0  0  0  0  0  0
  7  8  1  0  0  0
  8  9  2  0  0  0
  8 13  1  0  0  0
  9 10  1  0  0  0
 10 11  2  0  0  0
 10 17  1  0  0  0
 11 12  1  0  0  0
 11 14  1  0  0  0
 12 13  2  0  0  0
 14 15  1  0  0  0
 15 16  2  0  0  0
 15 17  1  0  0  0
 17 18  2  0  0  0
 18  5  1  0  0  0
  5  1  1  0  0  0
  1  2  1  0  0  0
  2  3  2  0  0  0
  2 20  1  0  0  0
 20 21  1  0  0  0
 21 22  1  0  0  0
 21 25  1  0  0  0
 22 23  2  0  0  0
 22 31  1  0  0  0
 23 24  1  0  0  0
 23 26  1  0  0  0
 24 25  2  0  0  0
 26 27  2  0  0  0
 26 28  1  0  0  0
 28 29  1  0  0  0
 28 33  1  0  0  0
 29 30  2  0  0  0
 29 31  1  0  0  0
 31 32  1  0  0  0
 14 19  1  0  0  0
  5  6  1  0  0  0
  1  4  1  0  0  0
M  END
> <minimizedAffinity>
-7.35428

$$$$
526


 31 34  0  0  0  0  0  0  0  0999 V2000
   91.3727   98.6877  -42.3472 N   0  0  0  0  0  0  0  0  0  0  0  0
   90.1735   99.4095  -42.4922 C   0  0  0  0  0  0  0  0  0  0  0  0
   89.1887   98.8341  -43.0779 O   0  0  0  0  0  0  0  0  0  0  0  0
   92.1970   99.1523  -41.8780 H   0  0  0  0  0  0  0  0  0  0  0  0
   91.0656   93.0319  -46.7575 Br  0  0  0  0  0  0  0  0  0  0  0  0
   91.5439   93.4667  -44.9731 C   0  0  0  0  0  0  0  0  0  0  0  0
   91.4516   94.7403  -44.4885 C   0  0  0  0  0  0  0  0  0  0  0  0
   91.8056   95.0440  -43.1919 C   0  0  0  0  0  0  0  0  0  0  0  0
   92.2627   94.1039  -42.3237 C   0  0  0  0  0  0  0  0  0  0  0  0
   92.3600   92.7967  -42.8115 C   0  0  0  0  0  0  0  0  0  0  0  0
   92.0088   92.4889  -44.1017 C   0  0  0  0  0  0  0  0  0  0  0  0
   92.5598   94.6566  -41.0596 N   0  0  0  0  0  0  0  0  0  0  0  0
   92.2862   96.0598  -41.0879 C   0  0  0  0  0  0  0  0  0  0  0  0
   92.4022   96.9232  -40.2158 O   0  0  0  0  0  0  0  0  0  0  0  0
   91.7949   96.3244  -42.4732 C   0  0  0  0  0  0  0  0  0  0  0  0
   91.4679   97.4212  -42.8029 N   0  0  0  0  0  0  0  0  0  0  0  0
   92.9278   94.1582  -40.2142 H   0  0  0  0  0  0  0  0  0  0  0  0
   89.8934  100.7746  -42.0370 C   0  0  0  0  0  0  0  0  0  0  0  0
   90.7506  101.2902  -41.0075 N   0  0  0  0  0  0  0  0  0  0  0  0
   92.0769  101.7242  -41.2874 C   0  0  0  0  0  0  0  0  0  0  0  0
   92.4517  101.6179  -42.5196 O   0  0  0  0  0  0  0  0  0  0  0  0
   90.4505  101.3513  -40.0226 H   0  0  0  0  0  0  0  0  0  0  0  0
   93.0147  102.2540  -40.3456 C   0  0  0  0  0  0  0  0  0  0  0  0
   94.3710  102.4319  -40.5745 C   0  0  0  0  0  0  0  0  0  0  0  0
   95.2041  102.9472  -39.6409 C   0  0  0  0  0  0  0  0  0  0  0  0
   94.7360  103.3257  -38.3986 C   0  0  0  0  0  0  0  0  0  0  0  0
   93.4136  103.1653  -38.1282 C   0  0  0  0  0  0  0  0  0  0  0  0
   92.5341  102.6359  -39.0844 C   0  0  0  0  0  0  0  0  0  0  0  0
   95.8137  103.8280  -37.6509 O   0  0  0  0  0  0  0  0  0  0  0  0
   96.6528  104.4039  -38.6810 C   0  0  0  0  0  0  0  0  0  0  0  0
   96.6156  103.2501  -39.5947 O   0  0  0  0  0  0  0  0  0  0  0  0
  5  6  1  0  0  0
  6  7  2  0  0  0
  6 11  1  0  0  0
  7  8  1  0  0  0
  8  9  2  0  0  0
  8 15  1  0  0  0
  9 10  1  0  0  0
  9 12  1  0  0  0
 10 11  2  0  0  0
 12 13  1  0  0  0
 13 14  2  0  0  0
 13 15  1  0  0  0
 15 16  2  0  0  0
 16  1  1  0  0  0
  1  2  1  0  0  0
  2  3  2  0  0  0
  2 18  1  0  0  0
 18 19  1  0  0  0
 19 20  1  0  0  0
 20 21  2  0  0  0
 20 23  1  0  0  0
 23 24  2  0  0  0
 23 28  1  0  0  0
 24 25  1  0  0  0
 25 26  2  0  0  0
 25 31  1  0  0  0
 26 27  1  0  0  0
 26 29  1  0  0  0
 27 28  2  0  0  0
 29 30  1  0  0  0
 30 31  1  0  0  0
 12 17  1  0  0  0
  1  4  1  0  0  0
 19 22  1  0  0  0
M  END
> <minimizedAffinity>
-7.50128

$$$$
550


 30 35  0  0  0  0  0  0  0  0999 V2000
   95.2416  103.1703  -40.1842 Br  0  0  0  0  0  0  0  0  0  0  0  0
   93.5674  102.3802  -40.6432 C   0  0  0  0  0  0  0  0  0  0  0  0
   93.3271  101.8355  -41.8991 C   0  0  0  0  0  0  0  0  0  0  0  0
   92.1230  101.2700  -42.2220 C   0  0  0  0  0  0  0  0  0  0  0  0
   91.1428  101.2600  -41.2409 C   0  0  0  0  0  0  0  0  0  0  0  0
   91.3742  101.7988  -39.9928 C   0  0  0  0  0  0  0  0  0  0  0  0
   92.5880  102.3650  -39.6802 C   0  0  0  0  0  0  0  0  0  0  0  0
   89.9568  100.6337  -41.7366 N   0  0  0  0  0  0  0  0  0  0  0  0
   90.1821  100.2314  -43.0708 C   0  0  0  0  0  0  0  0  0  0  0  0
   89.3441   99.6531  -43.7773 O   0  0  0  0  0  0  0  0  0  0  0  0
   91.5636  100.6331  -43.4116 C   0  0  0  0  0  0  0  0  0  0  0  0
   91.4897  101.4484  -44.5866 N   0  0  0  0  0  0  0  0  0  0  0  0
   91.2556  100.4927  -45.6674 C   0  0  0  0  0  0  0  0  0  0  0  0
   91.9641   99.2368  -45.2795 C   0  0  0  0  0  0  0  0  0  0  0  0
   92.4049   99.4705  -43.8761 C   0  0  0  0  0  0  0  0  0  0  0  0
   92.1144   98.2232  -43.1766 C   0  0  0  0  0  0  0  0  0  0  0  0
   92.4572   97.9309  -42.0090 O   0  0  0  0  0  0  0  0  0  0  0  0
   91.3754   97.3760  -44.0205 N   0  0  0  0  0  0  0  0  0  0  0  0
   91.0481   98.0521  -45.2445 C   0  0  0  0  0  0  0  0  0  0  0  0
   90.1911   97.7479  -46.1114 O   0  0  0  0  0  0  0  0  0  0  0  0
   91.9565  101.0770  -46.8850 C   0  0  0  0  0  0  0  0  0  0  0  0
   92.5412  102.3997  -46.4351 C   0  0  0  0  0  0  0  0  0  0  0  0
   92.7231  102.1215  -44.9367 C   0  0  0  0  0  0  0  0  0  0  0  0
   89.0643  100.5045  -41.1750 H   0  0  0  0  0  0  0  0  0  0  0  0
   90.9885   96.0305  -43.7337 C   0  0  0  0  0  0  0  0  0  0  0  0
   91.5244   95.0038  -44.6632 C   0  0  0  0  0  0  0  0  0  0  0  0
   90.6488   94.6603  -45.6869 O   0  0  0  0  0  0  0  0  0  0  0  0
   91.2420   93.5464  -46.2656 C   0  0  0  0  0  0  0  0  0  0  0  0
   91.8764   92.7369  -45.1784 C   0  0  0  0  0  0  0  0  0  0  0  0
   91.9846   93.7367  -44.0275 C   0  0  0  0  0  0  0  0  0  0  0  0
  1  2  1  0  0  0
  2  3  2  0  0  0
  2  7  1  0  0  0
  3  4  1  0  0  0
  4  5  2  0  0  0
  4 11  1  0  0  0
  5  6  1  0  0  0
  5  8  1  0  0  0
  6  7  2  0  0  0
  8  9  1  0  0  0
  9 10  2  0  0  0
  9 11  1  0  0  0
 11 12  1  0  0  0
 11 15  1  0  0  0
 12 13  1  0  0  0
 12 23  1  0  0  0
 13 14  1  0  0  0
 13 21  1  0  0  0
 14 15  1  0  0  0
 14 19  1  0  0  0
 15 16  1  0  0  0
 16 17  2  0  0  0
 16 18  1  0  0  0
 18 19  1  0  0  0
 18 25  1  0  0  0
 19 20  2  0  0  0
 25 26  1  0  0  0
 26 27  1  0  0  0
 26 30  1  0  0  0
 27 28  1  0  0  0
 28 29  1  0  0  0
 29 30  1  0  0  0
 21 22  1  0  0  0
 22 23  1  0  0  0
  8 24  1  0  0  0
M  END
> <minimizedAffinity>
-6.71275

$$$$
556


 30 33  0  0  0  0  0  0  0  0999 V2000
   85.3999   98.4060  -43.9824 Br  0  0  0  0  0  0  0  0  0  0  0  0
   87.0554   98.6914  -44.8851 C   0  0  0  0  0  0  0  0  0  0  0  0
   88.1614   98.0495  -44.3841 C   0  0  0  0  0  0  0  0  0  0  0  0
   89.3988   98.2269  -45.0124 C   0  0  0  0  0  0  0  0  0  0  0  0
   89.4794   99.0306  -46.1026 C   0  0  0  0  0  0  0  0  0  0  0  0
   88.3582   99.6976  -46.6324 C   0  0  0  0  0  0  0  0  0  0  0  0
   87.1557   99.5044  -45.9944 C   0  0  0  0  0  0  0  0  0  0  0  0
   90.8083   99.0858  -46.5874 N   0  0  0  0  0  0  0  0  0  0  0  0
   91.5924   98.2801  -45.7598 C   0  0  0  0  0  0  0  0  0  0  0  0
   92.8627   98.0668  -45.8561 O   0  0  0  0  0  0  0  0  0  0  0  0
   90.7125   97.6805  -44.7125 C   0  0  0  0  0  0  0  0  0  0  0  0
   90.8700   96.2543  -44.8290 C   0  0  0  0  0  0  0  0  0  0  0  0
   91.4660   95.5338  -43.8629 C   0  0  0  0  0  0  0  0  0  0  0  0
   91.4549   94.2239  -44.2776 N   0  0  0  0  0  0  0  0  0  0  0  0
   90.8708   94.1639  -45.4550 N   0  0  0  0  0  0  0  0  0  0  0  0
   90.4836   95.3739  -45.8600 C   0  0  0  0  0  0  0  0  0  0  0  0
   89.7894   95.7543  -47.1242 C   0  0  0  0  0  0  0  0  0  0  0  0
   91.9767   96.0985  -42.6798 O   0  0  0  0  0  0  0  0  0  0  0  0
   91.8344   97.4741  -42.5480 C   0  0  0  0  0  0  0  0  0  0  0  0
   91.2687   98.2201  -43.4479 C   0  0  0  0  0  0  0  0  0  0  0  0
   92.3342   98.1283  -41.3601 N   0  0  0  0  0  0  0  0  0  0  0  0
   91.1782   99.6270  -47.4202 H   0  0  0  0  0  0  0  0  0  0  0  0
   91.8471   93.4144  -43.7451 H   0  0  0  0  0  0  0  0  0  0  0  0
   93.2420   98.5959  -41.4140 H   0  0  0  0  0  0  0  0  0  0  0  0
   91.7749   98.1089  -40.5067 H   0  0  0  0  0  0  0  0  0  0  0  0
   91.1665   99.6888  -43.2077 C   0  0  0  0  0  0  0  0  0  0  0  0
   91.9965  100.4281  -43.7662 O   0  0  0  0  0  0  0  0  0  0  0  0
   90.2084  100.2531  -42.4106 O   0  0  0  0  0  0  0  0  0  0  0  0
   89.8066  101.6008  -42.4685 C   0  0  0  0  0  0  0  0  0  0  0  0
   88.4328  101.6357  -43.1463 C   0  0  0  0  0  0  0  0  0  0  0  0
  1  2  1  0  0  0
  2  3  2  0  0  0
  2  7  1  0  0  0
  3  4  1  0  0  0
  4  5  2  0  0  0
  4 11  1  0  0  0
  5  6  1  0  0  0
  5  8  1  0  0  0
  6  7  2  0  0  0
  8  9  1  0  0  0
  9 10  2  0  0  0
  9 11  1  0  0  0
 11 12  1  0  0  0
 11 20  1  0  0  0
 12 13  2  0  0  0
 12 16  1  0  0  0
 13 14  1  0  0  0
 13 18  1  0  0  0
 14 15  1  0  0  0
 15 16  2  0  0  0
 16 17  1  0  0  0
 18 19  1  0  0  0
 19 20  2  0  0  0
 19 21  1  0  0  0
 20 26  1  0  0  0
 26 27  2  0  0  0
 26 28  1  0  0  0
 28 29  1  0  0  0
 29 30  1  0  0  0
  8 22  1  0  0  0
 14 23  1  0  0  0
 21 24  1  0  0  0
 21 25  1  0  0  0
M  END
> <minimizedAffinity>
-6.08827

$$$$
558


 29 32  0  0  0  0  0  0  0  0999 V2000
   85.8280   98.3425  -43.9644 Br  0  0  0  0  0  0  0  0  0  0  0  0
   87.5211   98.4422  -44.8190 C   0  0  0  0  0  0  0  0  0  0  0  0
   88.7140   98.5388  -44.0955 C   0  0  0  0  0  0  0  0  0  0  0  0
   89.9310   98.6096  -44.7197 C   0  0  0  0  0  0  0  0  0  0  0  0
   89.9853   98.5878  -46.0825 C   0  0  0  0  0  0  0  0  0  0  0  0
   88.8176   98.4926  -46.8522 C   0  0  0  0  0  0  0  0  0  0  0  0
   87.6111   98.4219  -46.1981 C   0  0  0  0  0  0  0  0  0  0  0  0
   91.3257   98.6711  -46.5360 N   0  0  0  0  0  0  0  0  0  0  0  0
   92.1500   98.7495  -45.3998 C   0  0  0  0  0  0  0  0  0  0  0  0
   93.4054   98.8370  -45.3581 O   0  0  0  0  0  0  0  0  0  0  0  0
   91.3019   98.7144  -44.1881 C   0  0  0  0  0  0  0  0  0  0  0  0
   91.4783   99.9884  -43.4183 C   0  0  0  0  0  0  0  0  0  0  0  0
   91.8410  100.0730  -42.1654 C   0  0  0  0  0  0  0  0  0  0  0  0
   92.0927   98.8730  -41.4593 N   0  0  0  0  0  0  0  0  0  0  0  0
   91.9518   97.6176  -42.1055 C   0  0  0  0  0  0  0  0  0  0  0  0
   91.5882   97.5295  -43.3613 C   0  0  0  0  0  0  0  0  0  0  0  0
   92.2160   96.3982  -41.3596 N   0  0  0  0  0  0  0  0  0  0  0  0
   91.8970  101.5061  -41.7870 C   0  0  0  0  0  0  0  0  0  0  0  0
   91.5364  102.2472  -42.9239 O   0  0  0  0  0  0  0  0  0  0  0  0
   91.2740  101.3507  -43.9413 C   0  0  0  0  0  0  0  0  0  0  0  0
   90.9152  101.6684  -45.1271 O   0  0  0  0  0  0  0  0  0  0  0  0
   93.3289  101.9209  -41.4413 C   0  0  0  0  0  0  0  0  0  0  0  0
   90.9741  101.7990  -40.6123 C   0  0  0  0  0  0  0  0  0  0  0  0
   91.6317   98.6717  -47.5591 H   0  0  0  0  0  0  0  0  0  0  0  0
   92.3872   98.8795  -40.4487 H   0  0  0  0  0  0  0  0  0  0  0  0
   91.8116   95.4809  -41.6087 H   0  0  0  0  0  0  0  0  0  0  0  0
   92.8422   96.4632  -40.5409 H   0  0  0  0  0  0  0  0  0  0  0  0
   91.4660   96.1940  -43.9540 C   0  0  0  0  0  0  0  0  0  0  0  0
   91.3888   95.1379  -44.4184 N   0  0  0  0  0  0  0  0  0  0  0  0
  1  2  1  0  0  0
  2  3  2  0  0  0
  2  7  1  0  0  0
  3  4  1  0  0  0
  4  5  2  0  0  0
  4 11  1  0  0  0
  5  6  1  0  0  0
  5  8  1  0  0  0
  6  7  2  0  0  0
  8  9  1  0  0  0
  9 10  2  0  0  0
  9 11  1  0  0  0
 11 12  1  0  0  0
 11 16  1  0  0  0
 12 13  2  0  0  0
 12 20  1  0  0  0
 13 14  1  0  0  0
 13 18  1  0  0  0
 14 15  1  0  0  0
 15 16  2  0  0  0
 15 17  1  0  0  0
 16 28  1  0  0  0
 28 29  3  0  0  0
 18 19  1  0  0  0
 18 22  1  0  0  0
 18 23  1  0  0  0
 19 20  1  0  0  0
 20 21  2  0  0  0
  8 24  1  0  0  0
 14 25  1  0  0  0
 17 26  1  0  0  0
 17 27  1  0  0  0
M  END
> <minimizedAffinity>
-6.80393

$$$$
559


 32 35  0  0  0  0  0  0  0  0999 V2000
   83.9265   98.2012  -44.4127 Br  0  0  0  0  0  0  0  0  0  0  0  0
   85.3302   99.3607  -43.8046 C   0  0  0  0  0  0  0  0  0  0  0  0
   86.6625   99.0053  -43.9063 C   0  0  0  0  0  0  0  0  0  0  0  0
   87.6784   99.8318  -43.4717 C   0  0  0  0  0  0  0  0  0  0  0  0
   87.2952  101.0394  -42.9258 C   0  0  0  0  0  0  0  0  0  0  0  0
   85.9555  101.4003  -42.8212 C   0  0  0  0  0  0  0  0  0  0  0  0
   84.9725  100.5664  -43.2584 C   0  0  0  0  0  0  0  0  0  0  0  0
   88.4720  101.7592  -42.5256 N   0  0  0  0  0  0  0  0  0  0  0  0
   89.6164  100.9805  -42.8284 C   0  0  0  0  0  0  0  0  0  0  0  0
   90.7933  101.3370  -42.5878 O   0  0  0  0  0  0  0  0  0  0  0  0
   89.1555   99.7243  -43.4555 C   0  0  0  0  0  0  0  0  0  0  0  0
   89.6175   98.5783  -42.7199 N   0  0  0  0  0  0  0  0  0  0  0  0
   90.9825   98.4031  -43.1703 C   0  0  0  0  0  0  0  0  0  0  0  0
   90.8966   98.6256  -44.6568 C   0  0  0  0  0  0  0  0  0  0  0  0
   89.7581   99.6055  -44.8098 C   0  0  0  0  0  0  0  0  0  0  0  0
   88.8875   99.0318  -45.8457 C   0  0  0  0  0  0  0  0  0  0  0  0
   87.8858   99.5771  -46.3740 O   0  0  0  0  0  0  0  0  0  0  0  0
   89.3503   97.7065  -46.1926 N   0  0  0  0  0  0  0  0  0  0  0  0
   90.4910   97.4140  -45.4018 C   0  0  0  0  0  0  0  0  0  0  0  0
   91.0480   96.2912  -45.3600 O   0  0  0  0  0  0  0  0  0  0  0  0
   88.4383  102.7037  -42.0844 H   0  0  0  0  0  0  0  0  0  0  0  0
   89.0692   97.7516  -43.0072 H   0  0  0  0  0  0  0  0  0  0  0  0
   88.7700   96.8188  -47.1693 C   0  0  0  0  0  0  0  0  0  0  0  0
   89.5177   95.5105  -47.2578 C   0  0  0  0  0  0  0  0  0  0  0  0
   87.3104   96.5520  -46.7892 C   0  0  0  0  0  0  0  0  0  0  0  0
   88.7960   97.4429  -48.5472 C   0  0  0  0  0  0  0  0  0  0  0  0
   91.4893   97.0378  -42.7913 C   0  0  0  0  0  0  0  0  0  0  0  0
   92.2541   97.0878  -41.5345 C   0  0  0  0  0  0  0  0  0  0  0  0
   92.6176   96.0029  -41.0035 O   0  0  0  0  0  0  0  0  0  0  0  0
   92.6226   98.2802  -40.8613 N   0  0  0  0  0  0  0  0  0  0  0  0
   91.9932   99.0712  -40.6622 H   0  0  0  0  0  0  0  0  0  0  0  0
   93.6241   98.3558  -40.5421 H   0  0  0  0  0  0  0  0  0  0  0  0
  1  2  1  0  0  0
  2  3  2  0  0  0
  2  7  1  0  0  0
  3  4  1  0  0  0
  4  5  2  0  0  0
  4 11  1  0  0  0
  5  6  1  0  0  0
  5  8  1  0  0  0
  6  7  2  0  0  0
  8  9  1  0  0  0
  9 10  2  0  0  0
  9 11  1  0  0  0
 11 12  1  0  0  0
 11 15  1  0  0  0
 12 13  1  0  0  0
 13 14  1  0  0  0
 13 27  1  0  0  0
 14 15  1  0  0  0
 14 19  1  0  0  0
 15 16  1  0  0  0
 16 17  2  0  0  0
 16 18  1  0  0  0
 18 19  1  0  0  0
 18 23  1  0  0  0
 19 20  2  0  0  0
 23 24  1  0  0  0
 23 25  1  0  0  0
 23 26  1  0  0  0
 27 28  1  0  0  0
 28 29  2  0  0  0
 28 30  1  0  0  0
  8 21  1  0  0  0
 12 22  1  0  0  0
 30 31  1  0  0  0
 30 32  1  0  0  0
M  END
> <minimizedAffinity>
-6.60637

$$$$
566


 30 33  0  0  0  0  0  0  0  0999 V2000
   92.4803   93.6711  -41.7214 Br  0  0  0  0  0  0  0  0  0  0  0  0
   91.8176   94.5708  -43.2681 C   0  0  0  0  0  0  0  0  0  0  0  0
   91.5321   95.9121  -43.2310 C   0  0  0  0  0  0  0  0  0  0  0  0
   91.0427   96.5855  -44.3650 C   0  0  0  0  0  0  0  0  0  0  0  0
   90.8344   95.9265  -45.5442 C   0  0  0  0  0  0  0  0  0  0  0  0
   91.1268   94.5555  -45.5819 C   0  0  0  0  0  0  0  0  0  0  0  0
   91.6041   93.9166  -44.4614 C   0  0  0  0  0  0  0  0  0  0  0  0
   90.3404   96.8108  -46.5401 N   0  0  0  0  0  0  0  0  0  0  0  0
   90.2343   98.0915  -45.9508 C   0  0  0  0  0  0  0  0  0  0  0  0
   89.8152   99.1046  -46.6030 O   0  0  0  0  0  0  0  0  0  0  0  0
   90.6681   98.0024  -44.5672 C   0  0  0  0  0  0  0  0  0  0  0  0
   91.7558   98.9042  -44.2413 N   0  0  0  0  0  0  0  0  0  0  0  0
   91.1269  100.1404  -43.8130 C   0  0  0  0  0  0  0  0  0  0  0  0
   89.9888   99.6367  -42.9727 C   0  0  0  0  0  0  0  0  0  0  0  0
   89.5245   98.3956  -43.6557 C   0  0  0  0  0  0  0  0  0  0  0  0
   88.3078   98.7747  -44.3909 C   0  0  0  0  0  0  0  0  0  0  0  0
   87.7151   98.1486  -45.3298 O   0  0  0  0  0  0  0  0  0  0  0  0
   87.8247  100.0190  -43.9005 N   0  0  0  0  0  0  0  0  0  0  0  0
   88.8086  100.5263  -43.0216 C   0  0  0  0  0  0  0  0  0  0  0  0
   88.7308  101.5965  -42.3450 O   0  0  0  0  0  0  0  0  0  0  0  0
   90.1122   96.5107  -47.5222 H   0  0  0  0  0  0  0  0  0  0  0  0
   92.4171   99.0374  -45.0275 H   0  0  0  0  0  0  0  0  0  0  0  0
   92.1173  100.9568  -43.0441 C   0  0  0  0  0  0  0  0  0  0  0  0
   93.3802  100.7414  -43.6099 O   0  0  0  0  0  0  0  0  0  0  0  0
   92.1841  100.4817  -41.6136 C   0  0  0  0  0  0  0  0  0  0  0  0
   94.0656  100.6093  -42.9058 H   0  0  0  0  0  0  0  0  0  0  0  0
   86.5643  100.6536  -44.2326 C   0  0  0  0  0  0  0  0  0  0  0  0
   85.4985  100.3692  -43.2244 C   0  0  0  0  0  0  0  0  0  0  0  0
   84.4455   99.5021  -43.9259 C   0  0  0  0  0  0  0  0  0  0  0  0
   84.6672   98.0485  -43.6102 C   0  0  0  0  0  0  0  0  0  0  0  0
  1  2  1  0  0  0
  2  3  2  0  0  0
  2  7  1  0  0  0
  3  4  1  0  0  0
  4  5  2  0  0  0
  4 11  1  0  0  0
  5  6  1  0  0  0
  5  8  1  0  0  0
  6  7  2  0  0  0
  8  9  1  0  0  0
  9 10  2  0  0  0
  9 11  1  0  0  0
 11 12  1  0  0  0
 11 15  1  0  0  0
 12 13  1  0  0  0
 13 14  1  0  0  0
 13 23  1  0  0  0
 14 15  1  0  0  0
 14 19  1  0  0  0
 15 16  1  0  0  0
 16 17  2  0  0  0
 16 18  1  0  0  0
 18 19  1  0  0  0
 18 27  1  0  0  0
 19 20  2  0  0  0
 27 28  1  0  0  0
 28 29  1  0  0  0
 29 30  1  0  0  0
 23 24  1  0  0  0
 23 25  1  0  0  0
  8 21  1  0  0  0
 12 22  1  0  0  0
 24 26  1  0  0  0
M  END
> <minimizedAffinity>
-6.36581

$$$$
571


 34 38  0  0  0  0  0  0  0  0999 V2000
   91.4661   93.5516  -43.9688 Br  0  0  0  0  0  0  0  0  0  0  0  0
   91.7398   95.2036  -43.0513 C   0  0  0  0  0  0  0  0  0  0  0  0
   91.6827   96.4237  -43.6874 C   0  0  0  0  0  0  0  0  0  0  0  0
   91.8912   97.6345  -43.0097 C   0  0  0  0  0  0  0  0  0  0  0  0
   92.1581   97.5651  -41.6642 C   0  0  0  0  0  0  0  0  0  0  0  0
   92.2162   96.3393  -41.0162 C   0  0  0  0  0  0  0  0  0  0  0  0
   92.0108   95.1570  -41.6923 C   0  0  0  0  0  0  0  0  0  0  0  0
   92.3594   98.8553  -41.1205 N   0  0  0  0  0  0  0  0  0  0  0  0
   92.2141   99.7847  -42.1710 C   0  0  0  0  0  0  0  0  0  0  0  0
   92.3389  101.0299  -41.9990 O   0  0  0  0  0  0  0  0  0  0  0  0
   91.9099   99.0413  -43.4115 C   0  0  0  0  0  0  0  0  0  0  0  0
   92.9459   99.2841  -44.4203 N   0  0  0  0  0  0  0  0  0  0  0  0
   92.2655   99.2331  -45.6949 C   0  0  0  0  0  0  0  0  0  0  0  0
   90.8472   99.5848  -45.4746 C   0  0  0  0  0  0  0  0  0  0  0  0
   90.6518   99.5925  -43.9694 C   0  0  0  0  0  0  0  0  0  0  0  0
   89.4173   98.8543  -43.7311 C   0  0  0  0  0  0  0  0  0  0  0  0
   88.9529   98.5165  -42.6140 O   0  0  0  0  0  0  0  0  0  0  0  0
   88.7712   98.5479  -44.9854 N   0  0  0  0  0  0  0  0  0  0  0  0
   89.8484   98.6041  -45.9439 C   0  0  0  0  0  0  0  0  0  0  0  0
   89.9047   97.9315  -46.9842 O   0  0  0  0  0  0  0  0  0  0  0  0
   92.5778   99.0778  -40.1104 H   0  0  0  0  0  0  0  0  0  0  0  0
   93.7075   98.5698  -44.3657 H   0  0  0  0  0  0  0  0  0  0  0  0
   92.9662  100.1194  -46.6974 C   0  0  0  0  0  0  0  0  0  0  0  0
   92.9050   99.5496  -47.9546 O   0  0  0  0  0  0  0  0  0  0  0  0
   92.4423  101.5348  -46.6781 C   0  0  0  0  0  0  0  0  0  0  0  0
   93.2755  100.1289  -48.6471 H   0  0  0  0  0  0  0  0  0  0  0  0
   87.3940   98.2825  -45.2536 C   0  0  0  0  0  0  0  0  0  0  0  0
   86.5495   99.4710  -45.6104 C   0  0  0  0  0  0  0  0  0  0  0  0
   85.8718  100.1167  -44.4729 C   0  0  0  0  0  0  0  0  0  0  0  0
   86.4413  101.2425  -43.8904 C   0  0  0  0  0  0  0  0  0  0  0  0
   85.8150  101.8606  -42.8608 C   0  0  0  0  0  0  0  0  0  0  0  0
   84.6243  101.4250  -42.3552 C   0  0  0  0  0  0  0  0  0  0  0  0
   84.0645  100.3015  -42.9442 C   0  0  0  0  0  0  0  0  0  0  0  0
   84.6769   99.6602  -43.9823 C   0  0  0  0  0  0  0  0  0  0  0  0
  1  2  1  0  0  0
  2  3  2  0  0  0
  2  7  1  0  0  0
  3  4  1  0  0  0
  4  5  2  0  0  0
  4 11  1  0  0  0
  5  6  1  0  0  0
  5  8  1  0  0  0
  6  7  2  0  0  0
  8  9  1  0  0  0
  9 10  2  0  0  0
  9 11  1  0  0  0
 11 12  1  0  0  0
 11 15  1  0  0  0
 12 13  1  0  0  0
 13 14  1  0  0  0
 13 23  1  0  0  0
 14 15  1  0  0  0
 14 19  1  0  0  0
 15 16  1  0  0  0
 16 17  2  0  0  0
 16 18  1  0  0  0
 18 19  1  0  0  0
 18 27  1  0  0  0
 19 20  2  0  0  0
 27 28  1  0  0  0
 28 29  1  0  0  0
 29 30  2  0  0  0
 29 34  1  0  0  0
 30 31  1  0  0  0
 31 32  2  0  0  0
 32 33  1  0  0  0
 33 34  2  0  0  0
 23 24  1  0  0  0
 23 25  1  0  0  0
  8 21  1  0  0  0
 12 22  1  0  0  0
 24 26  1  0  0  0
M  END
> <minimizedAffinity>
-7.20671

$$$$
578


 27 30  0  0  0  0  0  0  0  0999 V2000
   86.7243   96.9258  -45.7310 Br  0  0  0  0  0  0  0  0  0  0  0  0
   87.3459   98.3109  -44.5723 C   0  0  0  0  0  0  0  0  0  0  0  0
   88.6470   98.7469  -44.5846 C   0  0  0  0  0  0  0  0  0  0  0  0
   89.1399   99.7630  -43.7468 C   0  0  0  0  0  0  0  0  0  0  0  0
   88.2508  100.3299  -42.8837 C   0  0  0  0  0  0  0  0  0  0  0  0
   86.9124   99.8949  -42.8564 C   0  0  0  0  0  0  0  0  0  0  0  0
   86.4612   98.8977  -43.6891 C   0  0  0  0  0  0  0  0  0  0  0  0
   88.8766  101.3433  -42.1088 N   0  0  0  0  0  0  0  0  0  0  0  0
   90.2241  101.4074  -42.5145 C   0  0  0  0  0  0  0  0  0  0  0  0
   91.1078  102.2164  -42.0488 O   0  0  0  0  0  0  0  0  0  0  0  0
   90.4319  100.3890  -43.5598 C   0  0  0  0  0  0  0  0  0  0  0  0
   90.7906  101.1839  -44.7481 N   0  0  0  0  0  0  0  0  0  0  0  0
   92.2086  101.1266  -44.9221 C   0  0  0  0  0  0  0  0  0  0  0  0
   92.6012   99.8219  -44.3334 C   0  0  0  0  0  0  0  0  0  0  0  0
   91.5787   99.4896  -43.2807 C   0  0  0  0  0  0  0  0  0  0  0  0
   91.3867   98.0648  -43.4272 C   0  0  0  0  0  0  0  0  0  0  0  0
   90.8154   97.3169  -42.5802 O   0  0  0  0  0  0  0  0  0  0  0  0
   91.9402   97.6457  -44.6668 N   0  0  0  0  0  0  0  0  0  0  0  0
   92.4289   98.7697  -45.3843 C   0  0  0  0  0  0  0  0  0  0  0  0
   92.6427   98.7992  -46.6124 O   0  0  0  0  0  0  0  0  0  0  0  0
   92.9656  102.2958  -44.3372 C   0  0  0  0  0  0  0  0  0  0  0  0
   88.4306  101.9499  -41.3597 H   0  0  0  0  0  0  0  0  0  0  0  0
   90.2781  100.8438  -45.5913 H   0  0  0  0  0  0  0  0  0  0  0  0
   91.9716   96.2508  -45.0855 C   0  0  0  0  0  0  0  0  0  0  0  0
   90.7101   95.8461  -45.7862 C   0  0  0  0  0  0  0  0  0  0  0  0
   90.7162   94.4100  -46.2364 C   0  0  0  0  0  0  0  0  0  0  0  0
   91.5298   93.6327  -45.1956 C   0  0  0  0  0  0  0  0  0  0  0  0
  1  2  1  0  0  0
  2  3  2  0  0  0
  2  7  1  0  0  0
  3  4  1  0  0  0
  4  5  2  0  0  0
  4 11  1  0  0  0
  5  6  1  0  0  0
  5  8  1  0  0  0
  6  7  2  0  0  0
  8  9  1  0  0  0
  9 10  2  0  0  0
  9 11  1  0  0  0
 11 12  1  0  0  0
 11 15  1  0  0  0
 12 13  1  0  0  0
 13 14  1  0  0  0
 13 21  1  0  0  0
 14 15  1  0  0  0
 14 19  1  0  0  0
 15 16  1  0  0  0
 16 17  2  0  0  0
 16 18  1  0  0  0
 18 19  1  0  0  0
 18 24  1  0  0  0
 19 20  2  0  0  0
 24 25  1  0  0  0
 25 26  1  0  0  0
 26 27  1  0  0  0
  8 22  1  0  0  0
 12 23  1  0  0  0
M  END
> <minimizedAffinity>
-5.80534

$$$$
579


 32 35  0  0  0  0  0  0  0  0999 V2000
   91.4659   92.1923  -46.6562 Br  0  0  0  0  0  0  0  0  0  0  0  0
   91.5386   93.5204  -45.2892 C   0  0  0  0  0  0  0  0  0  0  0  0
   91.1503   94.8257  -45.4935 C   0  0  0  0  0  0  0  0  0  0  0  0
   91.2052   95.7919  -44.4896 C   0  0  0  0  0  0  0  0  0  0  0  0
   91.6643   95.4390  -43.2453 C   0  0  0  0  0  0  0  0  0  0  0  0
   92.0627   94.1330  -43.0093 C   0  0  0  0  0  0  0  0  0  0  0  0
   91.9965   93.1826  -44.0351 C   0  0  0  0  0  0  0  0  0  0  0  0
   91.6330   96.5707  -42.3705 N   0  0  0  0  0  0  0  0  0  0  0  0
   91.1335   97.6797  -43.0984 C   0  0  0  0  0  0  0  0  0  0  0  0
   90.9788   98.8116  -42.6002 O   0  0  0  0  0  0  0  0  0  0  0  0
   90.8578   97.2419  -44.4574 C   0  0  0  0  0  0  0  0  0  0  0  0
   89.4269   97.4326  -44.6917 N   0  0  0  0  0  0  0  0  0  0  0  0
   89.3128   97.8826  -46.0468 C   0  0  0  0  0  0  0  0  0  0  0  0
   90.4988   98.7565  -46.2335 C   0  0  0  0  0  0  0  0  0  0  0  0
   91.5921   97.9819  -45.5352 C   0  0  0  0  0  0  0  0  0  0  0  0
   92.5322   98.9979  -45.0823 C   0  0  0  0  0  0  0  0  0  0  0  0
   93.7160   98.7987  -44.7350 O   0  0  0  0  0  0  0  0  0  0  0  0
   91.8618  100.2522  -45.1051 N   0  0  0  0  0  0  0  0  0  0  0  0
   90.4776  100.0234  -45.4614 C   0  0  0  0  0  0  0  0  0  0  0  0
   89.5642  100.7971  -45.1318 O   0  0  0  0  0  0  0  0  0  0  0  0
   91.9388   96.5512  -41.3578 H   0  0  0  0  0  0  0  0  0  0  0  0
   89.0540   98.1889  -44.0696 H   0  0  0  0  0  0  0  0  0  0  0  0
   92.4888  101.5102  -44.8198 C   0  0  0  0  0  0  0  0  0  0  0  0
   92.3455  101.9924  -43.4148 C   0  0  0  0  0  0  0  0  0  0  0  0
   93.2687  101.4337  -42.5464 O   0  0  0  0  0  0  0  0  0  0  0  0
   92.8608  101.5463  -41.2194 C   0  0  0  0  0  0  0  0  0  0  0  0
   87.9986   98.5091  -46.3646 C   0  0  0  0  0  0  0  0  0  0  0  0
   87.0812   98.3455  -45.2315 C   0  0  0  0  0  0  0  0  0  0  0  0
   86.3807   97.2978  -45.1407 O   0  0  0  0  0  0  0  0  0  0  0  0
   86.9691   99.3537  -44.2288 N   0  0  0  0  0  0  0  0  0  0  0  0
   86.7221   99.0965  -43.2516 H   0  0  0  0  0  0  0  0  0  0  0  0
   87.1368  100.3487  -44.4825 H   0  0  0  0  0  0  0  0  0  0  0  0
  1  2  1  0  0  0
  2  3  2  0  0  0
  2  7  1  0  0  0
  3  4  1  0  0  0
  4  5  2  0  0  0
  4 11  1  0  0  0
  5  6  1  0  0  0
  5  8  1  0  0  0
  6  7  2  0  0  0
  8  9  1  0  0  0
  9 10  2  0  0  0
  9 11  1  0  0  0
 11 12  1  0  0  0
 11 15  1  0  0  0
 12 13  1  0  0  0
 13 14  1  0  0  0
 13 27  1  0  0  0
 14 15  1  0  0  0
 14 19  1  0  0  0
 15 16  1  0  0  0
 16 17  2  0  0  0
 16 18  1  0  0  0
 18 19  1  0  0  0
 18 23  1  0  0  0
 19 20  2  0  0  0
 23 24  1  0  0  0
 24 25  1  0  0  0
 25 26  1  0  0  0
 27 28  1  0  0  0
 28 29  2  0  0  0
 28 30  1  0  0  0
  8 21  1  0  0  0
 12 22  1  0  0  0
 30 31  1  0  0  0
 30 32  1  0  0  0
M  END
> <minimizedAffinity>
-5.97463

$$$$
588


 24 27  0  0  0  0  0  0  0  0999 V2000
   91.3467   91.7316  -47.6965 Br  0  0  0  0  0  0  0  0  0  0  0  0
   91.3971   93.0453  -46.3173 C   0  0  0  0  0  0  0  0  0  0  0  0
   90.6172   94.1569  -46.4523 C   0  0  0  0  0  0  0  0  0  0  0  0
   90.6345   95.1279  -45.4654 C   0  0  0  0  0  0  0  0  0  0  0  0
   91.4399   94.9733  -44.3437 C   0  0  0  0  0  0  0  0  0  0  0  0
   92.2339   93.8548  -44.1926 C   0  0  0  0  0  0  0  0  0  0  0  0
   92.1849   92.9165  -45.1989 C   0  0  0  0  0  0  0  0  0  0  0  0
   91.5384   95.8941  -43.2759 N   0  0  0  0  0  0  0  0  0  0  0  0
   91.9563   95.5052  -42.0654 N   0  0  0  0  0  0  0  0  0  0  0  0
   91.9346   96.5751  -41.3178 N   0  0  0  0  0  0  0  0  0  0  0  0
   91.5190   97.6192  -42.0165 N   0  0  0  0  0  0  0  0  0  0  0  0
   91.2608   97.1865  -43.2845 C   0  0  0  0  0  0  0  0  0  0  0  0
   90.7666   98.1223  -44.3532 C   0  0  0  0  0  0  0  0  0  0  0  0
   89.7130   97.4923  -45.1448 N   0  0  0  0  0  0  0  0  0  0  0  0
   89.7289   96.2321  -45.8052 C   0  0  0  0  0  0  0  0  0  0  0  0
   88.9105   96.0456  -46.7485 O   0  0  0  0  0  0  0  0  0  0  0  0
   91.9254   98.3335  -45.2897 C   0  0  0  0  0  0  0  0  0  0  0  0
   91.7193   99.5885  -46.0729 C   0  0  0  0  0  0  0  0  0  0  0  0
   91.7090  100.6275  -45.1801 O   0  0  0  0  0  0  0  0  0  0  0  0
   90.6565  100.6456  -44.3054 C   0  0  0  0  0  0  0  0  0  0  0  0
   90.2489   99.3620  -43.7214 C   0  0  0  0  0  0  0  0  0  0  0  0
   92.9223   99.8107  -46.9982 C   0  0  0  0  0  0  0  0  0  0  0  0
   90.5060   99.5483  -46.9628 C   0  0  0  0  0  0  0  0  0  0  0  0
   88.8026   98.0336  -45.2546 H   0  0  0  0  0  0  0  0  0  0  0  0
  1  2  1  0  0  0
  2  3  2  0  0  0
  2  7  1  0  0  0
  3  4  1  0  0  0
  4  5  2  0  0  0
  4 15  1  0  0  0
  5  6  1  0  0  0
  5  8  1  0  0  0
  6  7  2  0  0  0
  8  9  1  0  0  0
  8 12  1  0  0  0
  9 10  2  0  0  0
 10 11  1  0  0  0
 11 12  2  0  0  0
 12 13  1  0  0  0
 13 14  1  0  0  0
 13 17  1  0  0  0
 13 21  1  0  0  0
 14 15  1  0  0  0
 15 16  2  0  0  0
 17 18  1  0  0  0
 18 19  1  0  0  0
 18 22  1  0  0  0
 18 23  1  0  0  0
 19 20  1  0  0  0
 20 21  1  0  0  0
 14 24  1  0  0  0
M  END
> <minimizedAffinity>
-6.61357

$$$$
591


 23 26  0  0  0  0  0  0  0  0999 V2000
   94.4565   91.7808  -41.3600 Br  0  0  0  0  0  0  0  0  0  0  0  0
   93.3973   93.0391  -42.3507 C   0  0  0  0  0  0  0  0  0  0  0  0
   92.9694   94.2090  -41.7602 C   0  0  0  0  0  0  0  0  0  0  0  0
   92.2092   95.1098  -42.4766 C   0  0  0  0  0  0  0  0  0  0  0  0
   91.8410   94.8989  -43.7917 C   0  0  0  0  0  0  0  0  0  0  0  0
   92.2810   93.7118  -44.3722 C   0  0  0  0  0  0  0  0  0  0  0  0
   93.0424   92.8069  -43.6627 C   0  0  0  0  0  0  0  0  0  0  0  0
   91.0767   95.7061  -44.6572 N   0  0  0  0  0  0  0  0  0  0  0  0
   90.5769   95.2769  -45.8046 N   0  0  0  0  0  0  0  0  0  0  0  0
   89.9210   96.2837  -46.3601 N   0  0  0  0  0  0  0  0  0  0  0  0
   90.0091   97.3278  -45.5713 N   0  0  0  0  0  0  0  0  0  0  0  0
   90.7380   96.9992  -44.4759 C   0  0  0  0  0  0  0  0  0  0  0  0
   90.9940   97.9874  -43.4263 C   0  0  0  0  0  0  0  0  0  0  0  0
   91.1886   97.4860  -42.1100 N   0  0  0  0  0  0  0  0  0  0  0  0
   91.8410   96.2951  -41.6997 C   0  0  0  0  0  0  0  0  0  0  0  0
   92.1813   96.1803  -40.4917 O   0  0  0  0  0  0  0  0  0  0  0  0
   92.2274   98.8450  -43.7494 C   0  0  0  0  0  0  0  0  0  0  0  0
   92.0044  100.2353  -43.2107 C   0  0  0  0  0  0  0  0  0  0  0  0
   91.1138  100.9165  -44.1229 N   0  0  0  0  0  0  0  0  0  0  0  0
   89.9893  100.0644  -44.4058 C   0  0  0  0  0  0  0  0  0  0  0  0
   89.8163   98.9554  -43.3974 C   0  0  0  0  0  0  0  0  0  0  0  0
   91.8738  101.2286  -45.3324 C   0  0  0  0  0  0  0  0  0  0  0  0
   90.7988   98.0758  -41.3465 H   0  0  0  0  0  0  0  0  0  0  0  0
  1  2  1  0  0  0
  2  3  2  0  0  0
  2  7  1  0  0  0
  3  4  1  0  0  0
  4  5  2  0  0  0
  4 15  1  0  0  0
  5  6  1  0  0  0
  5  8  1  0  0  0
  6  7  2  0  0  0
  8  9  1  0  0  0
  8 12  1  0  0  0
  9 10  2  0  0  0
 10 11  1  0  0  0
 11 12  2  0  0  0
 12 13  1  0  0  0
 13 14  1  0  0  0
 13 17  1  0  0  0
 13 21  1  0  0  0
 14 15  1  0  0  0
 15 16  2  0  0  0
 17 18  1  0  0  0
 18 19  1  0  0  0
 19 20  1  0  0  0
 19 22  1  0  0  0
 20 21  1  0  0  0
 14 23  1  0  0  0
M  END
> <minimizedAffinity>
-6.89004

$$$$
592


 27 30  0  0  0  0  0  0  0  0999 V2000
   92.0772   94.7767  -41.4105 Br  0  0  0  0  0  0  0  0  0  0  0  0
   91.5330   95.5886  -43.0390 C   0  0  0  0  0  0  0  0  0  0  0  0
   91.5480   96.9523  -43.1359 C   0  0  0  0  0  0  0  0  0  0  0  0
   91.1465   97.5493  -44.3354 C   0  0  0  0  0  0  0  0  0  0  0  0
   90.7565   96.7566  -45.3635 C   0  0  0  0  0  0  0  0  0  0  0  0
   90.7423   95.3502  -45.2596 C   0  0  0  0  0  0  0  0  0  0  0  0
   91.1365   94.7676  -44.0795 C   0  0  0  0  0  0  0  0  0  0  0  0
   90.3512   97.2982  -46.5700 O   0  0  0  0  0  0  0  0  0  0  0  0
   90.3509   98.6692  -46.7102 C   0  0  0  0  0  0  0  0  0  0  0  0
   90.7150   99.4986  -45.7616 C   0  0  0  0  0  0  0  0  0  0  0  0
   91.1568   99.0221  -44.4580 C   0  0  0  0  0  0  0  0  0  0  0  0
   90.4324   99.6640  -43.3349 C   0  0  0  0  0  0  0  0  0  0  0  0
   91.3287  100.3822  -42.5931 C   0  0  0  0  0  0  0  0  0  0  0  0
   90.6581  100.9723  -41.5601 N   0  0  0  0  0  0  0  0  0  0  0  0
   89.3923  100.6147  -41.6831 N   0  0  0  0  0  0  0  0  0  0  0  0
   89.2090   99.8211  -42.7460 C   0  0  0  0  0  0  0  0  0  0  0  0
   87.8891   99.2502  -43.1525 C   0  0  0  0  0  0  0  0  0  0  0  0
   92.6305  100.2810  -43.1290 N   0  0  0  0  0  0  0  0  0  0  0  0
   92.5567   99.4584  -44.2648 C   0  0  0  0  0  0  0  0  0  0  0  0
   93.5052   99.1226  -45.0232 O   0  0  0  0  0  0  0  0  0  0  0  0
   89.9269   99.2165  -47.9694 N   0  0  0  0  0  0  0  0  0  0  0  0
   88.6587  100.9428  -40.9999 H   0  0  0  0  0  0  0  0  0  0  0  0
   93.5035  100.7562  -42.7223 H   0  0  0  0  0  0  0  0  0  0  0  0
   89.2837   98.6662  -48.5785 H   0  0  0  0  0  0  0  0  0  0  0  0
   90.2400  100.1548  -48.3052 H   0  0  0  0  0  0  0  0  0  0  0  0
   90.6876  100.9244  -45.9851 C   0  0  0  0  0  0  0  0  0  0  0  0
   90.6508  102.0656  -46.1775 N   0  0  0  0  0  0  0  0  0  0  0  0
  1  2  1  0  0  0
  2  3  2  0  0  0
  2  7  1  0  0  0
  3  4  1  0  0  0
  4  5  2  0  0  0
  4 11  1  0  0  0
  5  6  1  0  0  0
  5  8  1  0  0  0
  6  7  2  0  0  0
  8  9  1  0  0  0
  9 10  2  0  0  0
  9 21  1  0  0  0
 10 11  1  0  0  0
 10 26  1  0  0  0
 11 12  1  0  0  0
 11 19  1  0  0  0
 12 13  1  0  0  0
 12 16  2  0  0  0
 13 14  2  0  0  0
 13 18  1  0  0  0
 14 15  1  0  0  0
 15 16  1  0  0  0
 16 17  1  0  0  0
 18 19  1  0  0  0
 19 20  2  0  0  0
 26 27  3  0  0  0
 15 22  1  0  0  0
 18 23  1  0  0  0
 21 24  1  0  0  0
 21 25  1  0  0  0
M  END
> <minimizedAffinity>
-6.20755

$$$$
596


 29 32  0  0  0  0  0  0  0  0999 V2000
   91.4519   99.2493  -43.4601 C   0  0  0  0  0  0  0  0  0  0  0  0
   91.4773   99.7042  -44.7687 C   0  0  0  0  0  0  0  0  0  0  0  0
   91.5813   98.8120  -45.8148 C   0  0  0  0  0  0  0  0  0  0  0  0
   91.6009   99.3056  -46.9865 O   0  0  0  0  0  0  0  0  0  0  0  0
   91.6543   97.5353  -45.5943 O   0  0  0  0  0  0  0  0  0  0  0  0
   91.6349   97.0506  -44.4126 C   0  0  0  0  0  0  0  0  0  0  0  0
   91.5317   97.8896  -43.2865 C   0  0  0  0  0  0  0  0  0  0  0  0
   91.5010   97.3423  -42.0370 C   0  0  0  0  0  0  0  0  0  0  0  0
   91.5803   95.9494  -41.9310 C   0  0  0  0  0  0  0  0  0  0  0  0
   91.6849   95.1544  -43.0550 C   0  0  0  0  0  0  0  0  0  0  0  0
   91.7157   95.6728  -44.3301 C   0  0  0  0  0  0  0  0  0  0  0  0
   91.7639   93.7619  -42.8364 O   0  0  0  0  0  0  0  0  0  0  0  0
   95.0981  103.4978  -38.0983 Br  0  0  0  0  0  0  0  0  0  0  0  0
   93.5364  102.8961  -38.9864 C   0  0  0  0  0  0  0  0  0  0  0  0
   93.6012  101.9845  -40.0244 C   0  0  0  0  0  0  0  0  0  0  0  0
   92.4880  101.5091  -40.6931 C   0  0  0  0  0  0  0  0  0  0  0  0
   91.2530  101.9766  -40.2922 C   0  0  0  0  0  0  0  0  0  0  0  0
   91.1251  102.8918  -39.2580 C   0  0  0  0  0  0  0  0  0  0  0  0
   92.2579  103.3406  -38.6200 C   0  0  0  0  0  0  0  0  0  0  0  0
   90.1622  101.5344  -40.9209 O   0  0  0  0  0  0  0  0  0  0  0  0
   90.2007  100.6885  -41.8890 C   0  0  0  0  0  0  0  0  0  0  0  0
   89.1672  100.2610  -42.4912 O   0  0  0  0  0  0  0  0  0  0  0  0
   91.4031  100.1845  -42.3374 C   0  0  0  0  0  0  0  0  0  0  0  0
   92.5610  100.6075  -41.7251 C   0  0  0  0  0  0  0  0  0  0  0  0
   91.9269   94.7883  -45.4442 C   0  0  0  0  0  0  0  0  0  0  0  0
   90.9329   93.9612  -45.9954 N   0  0  0  0  0  0  0  0  0  0  0  0
   90.1792   94.4757  -47.1051 C   0  0  0  0  0  0  0  0  0  0  0  0
   91.4167   92.5760  -46.2276 C   0  0  0  0  0  0  0  0  0  0  0  0
   90.1952   93.8251  -45.2449 H   0  0  0  0  0  0  0  0  0  0  0  0
 13 14  1  0  0  0
 14 15  2  0  0  0
 14 19  1  0  0  0
 15 16  1  0  0  0
 16 17  2  0  0  0
 16 24  1  0  0  0
 17 18  1  0  0  0
 17 20  1  0  0  0
 18 19  2  0  0  0
 20 21  1  0  0  0
 21 22  2  0  0  0
 21 23  1  0  0  0
 23 24  2  0  0  0
 23  1  1  0  0  0
  1  2  2  0  0  0
  1  7  1  0  0  0
  2  3  1  0  0  0
  3  4  2  0  0  0
  3  5  1  0  0  0
  5  6  1  0  0  0
  6  7  2  0  0  0
  6 11  1  0  0  0
  7  8  1  0  0  0
  8  9  2  0  0  0
  9 10  1  0  0  0
 10 11  2  0  0  0
 10 12  1  0  0  0
 11 25  1  0  0  0
 25 26  1  0  0  0
 26 27  1  0  0  0
 26 28  1  0  0  0
 26 29  1  0  0  0
M  CHG 1  12  -1
M  CHG 1  26   1
M  END
> <minimizedAffinity>
-6.75386

$$$$
610


 32 35  0  0  0  0  0  0  0  0999 V2000
   87.4157   95.4927  -48.4227 Br  0  0  0  0  0  0  0  0  0  0  0  0
   88.3704   96.3775  -47.0274 C   0  0  0  0  0  0  0  0  0  0  0  0
   87.7132   97.2353  -46.1498 C   0  0  0  0  0  0  0  0  0  0  0  0
   88.4067   97.8788  -45.1339 C   0  0  0  0  0  0  0  0  0  0  0  0
   89.7612   97.6717  -44.9862 C   0  0  0  0  0  0  0  0  0  0  0  0
   90.4400   98.2968  -43.9913 N   0  0  0  0  0  0  0  0  0  0  0  0
   89.8272   99.1267  -43.1283 C   0  0  0  0  0  0  0  0  0  0  0  0
   88.5117   99.3157  -43.2872 N   0  0  0  0  0  0  0  0  0  0  0  0
   87.7764   98.7304  -44.2503 C   0  0  0  0  0  0  0  0  0  0  0  0
   90.3945   96.8124  -45.8747 C   0  0  0  0  0  0  0  0  0  0  0  0
   89.7255   96.1632  -46.8894 C   0  0  0  0  0  0  0  0  0  0  0  0
   90.5769   99.7671  -42.0883 N   0  0  0  0  0  0  0  0  0  0  0  0
   89.9433  101.0021  -41.7134 C   0  0  0  0  0  0  0  0  0  0  0  0
   90.1313  102.1131  -42.6896 C   0  0  0  0  0  0  0  0  0  0  0  0
   91.1640  101.8292  -43.6612 N   0  0  0  0  0  0  0  0  0  0  0  0
   92.3287  101.1170  -43.1830 C   0  0  0  0  0  0  0  0  0  0  0  0
   91.9685   99.8977  -42.3922 C   0  0  0  0  0  0  0  0  0  0  0  0
   90.9774  102.2575  -44.9975 C   0  0  0  0  0  0  0  0  0  0  0  0
   89.9409  102.8692  -45.3377 O   0  0  0  0  0  0  0  0  0  0  0  0
   90.4650   99.1224  -41.2495 H   0  0  0  0  0  0  0  0  0  0  0  0
   92.0737  101.9405  -45.9581 C   0  0  0  0  0  0  0  0  0  0  0  0
   91.6425  100.9206  -46.9683 C   0  0  0  0  0  0  0  0  0  0  0  0
   92.6508   99.8772  -47.2088 C   0  0  0  0  0  0  0  0  0  0  0  0
   92.9011   99.0014  -46.3547 O   0  0  0  0  0  0  0  0  0  0  0  0
   93.3367   99.8626  -48.4059 O   0  0  0  0  0  0  0  0  0  0  0  0
   86.3507   99.0027  -44.3358 C   0  0  0  0  0  0  0  0  0  0  0  0
   85.8868  100.0986  -45.0504 C   0  0  0  0  0  0  0  0  0  0  0  0
   84.5425  100.3812  -45.1652 C   0  0  0  0  0  0  0  0  0  0  0  0
   83.5936   99.5766  -44.5690 C   0  0  0  0  0  0  0  0  0  0  0  0
   84.0596   98.4799  -43.8543 C   0  0  0  0  0  0  0  0  0  0  0  0
   85.4049   98.2052  -43.7442 C   0  0  0  0  0  0  0  0  0  0  0  0
   87.0779  101.1469  -45.8239 Cl  0  0  0  0  0  0  0  0  0  0  0  0
  1  2  1  0  0  0
  2  3  2  0  0  0
  2 11  1  0  0  0
  3  4  1  0  0  0
  4  5  2  0  0  0
  4  9  1  0  0  0
  5  6  1  0  0  0
  5 10  1  0  0  0
  6  7  2  0  0  0
  7  8  1  0  0  0
  7 12  1  0  0  0
  8  9  2  0  0  0
  9 26  1  0  0  0
 26 27  2  0  0  0
 26 31  1  0  0  0
 27 28  1  0  0  0
 27 32  1  0  0  0
 28 29  2  0  0  0
 29 30  1  0  0  0
 30 31  2  0  0  0
 12 13  1  0  0  0
 12 17  1  0  0  0
 13 14  1  0  0  0
 14 15  1  0  0  0
 15 16  1  0  0  0
 15 18  1  0  0  0
 16 17  1  0  0  0
 18 19  2  0  0  0
 18 21  1  0  0  0
 21 22  1  0  0  0
 22 23  1  0  0  0
 23 24  2  0  0  0
 23 25  1  0  0  0
 10 11  2  0  0  0
 12 20  1  0  0  0
M  CHG 1  12   1
M  END
> <minimizedAffinity>
-5.74039

$$$$
611


 33 36  0  0  0  0  0  0  0  0999 V2000
   91.3900   91.7296  -46.7480 Br  0  0  0  0  0  0  0  0  0  0  0  0
   91.2724   93.4611  -45.9460 C   0  0  0  0  0  0  0  0  0  0  0  0
   90.3727   94.4150  -46.3875 C   0  0  0  0  0  0  0  0  0  0  0  0
   90.2637   95.6707  -45.8312 C   0  0  0  0  0  0  0  0  0  0  0  0
   91.0828   96.0249  -44.7750 C   0  0  0  0  0  0  0  0  0  0  0  0
   90.9974   97.2585  -44.2180 N   0  0  0  0  0  0  0  0  0  0  0  0
   90.1281   98.1865  -44.6524 C   0  0  0  0  0  0  0  0  0  0  0  0
   89.3296   97.8430  -45.6790 N   0  0  0  0  0  0  0  0  0  0  0  0
   89.3757   96.6257  -46.2696 C   0  0  0  0  0  0  0  0  0  0  0  0
   91.9812   95.0816  -44.3277 C   0  0  0  0  0  0  0  0  0  0  0  0
   92.0869   93.8166  -44.8933 C   0  0  0  0  0  0  0  0  0  0  0  0
   90.0661   99.4710  -44.0428 N   0  0  0  0  0  0  0  0  0  0  0  0
   89.0784   99.4969  -42.9870 C   0  0  0  0  0  0  0  0  0  0  0  0
   89.3584  100.6711  -42.1033 C   0  0  0  0  0  0  0  0  0  0  0  0
   90.2645  101.5654  -42.7945 N   0  0  0  0  0  0  0  0  0  0  0  0
   89.9874  101.8417  -44.1927 C   0  0  0  0  0  0  0  0  0  0  0  0
   89.7538  100.5353  -44.9611 C   0  0  0  0  0  0  0  0  0  0  0  0
   91.3500  102.1138  -42.0914 C   0  0  0  0  0  0  0  0  0  0  0  0
   92.1237  102.8830  -42.7137 O   0  0  0  0  0  0  0  0  0  0  0  0
   91.0069   99.6648  -43.6405 H   0  0  0  0  0  0  0  0  0  0  0  0
   91.6028  101.8195  -40.6794 C   0  0  0  0  0  0  0  0  0  0  0  0
   92.9319  101.1371  -40.5300 C   0  0  0  0  0  0  0  0  0  0  0  0
   93.8927  101.9180  -39.6609 C   0  0  0  0  0  0  0  0  0  0  0  0
   95.1307  102.3032  -40.3668 C   0  0  0  0  0  0  0  0  0  0  0  0
   95.1731  102.1098  -41.6047 O   0  0  0  0  0  0  0  0  0  0  0  0
   96.1899  102.8556  -39.6623 O   0  0  0  0  0  0  0  0  0  0  0  0
   88.4898   96.3079  -47.3793 C   0  0  0  0  0  0  0  0  0  0  0  0
   87.1169   96.2070  -47.2145 C   0  0  0  0  0  0  0  0  0  0  0  0
   86.2662   95.8863  -48.2574 C   0  0  0  0  0  0  0  0  0  0  0  0
   86.8413   95.6617  -49.5137 C   0  0  0  0  0  0  0  0  0  0  0  0
   88.2031   95.7538  -49.7118 C   0  0  0  0  0  0  0  0  0  0  0  0
   89.0002   96.0706  -48.6583 C   0  0  0  0  0  0  0  0  0  0  0  0
   86.4217   96.4937  -45.6274 Cl  0  0  0  0  0  0  0  0  0  0  0  0
  1  2  1  0  0  0
  2  3  2  0  0  0
  2 11  1  0  0  0
  3  4  1  0  0  0
  4  5  2  0  0  0
  4  9  1  0  0  0
  5  6  1  0  0  0
  5 10  1  0  0  0
  6  7  2  0  0  0
  7  8  1  0  0  0
  7 12  1  0  0  0
  8  9  2  0  0  0
  9 27  1  0  0  0
 27 28  2  0  0  0
 27 32  1  0  0  0
 28 29  1  0  0  0
 28 33  1  0  0  0
 29 30  2  0  0  0
 30 31  1  0  0  0
 31 32  2  0  0  0
 12 13  1  0  0  0
 12 17  1  0  0  0
 13 14  1  0  0  0
 14 15  1  0  0  0
 15 16  1  0  0  0
 15 18  1  0  0  0
 16 17  1  0  0  0
 18 19  2  0  0  0
 18 21  1  0  0  0
 21 22  1  0  0  0
 22 23  1  0  0  0
 23 24  1  0  0  0
 24 25  2  0  0  0
 24 26  1  0  0  0
 10 11  2  0  0  0
 12 20  1  0  0  0
M  CHG 1  12   1
M  END
> <minimizedAffinity>
-6.59714

$$$$
616


 28 31  0  0  0  0  0  0  0  0999 V2000
   90.7784   92.6955  -47.6207 C   0  0  0  0  0  0  0  0  0  0  0  0
   89.9464   93.4542  -48.2496 O   0  0  0  0  0  0  0  0  0  0  0  0
   91.2381   91.5847  -48.3287 N   0  0  0  0  0  0  0  0  0  0  0  0
   92.1524   90.5839  -47.8488 C   0  0  0  0  0  0  0  0  0  0  0  0
   92.3884   89.4732  -48.8807 C   0  0  0  0  0  0  0  0  0  0  0  0
   91.0983   89.0289  -49.3850 N   0  0  0  0  0  0  0  0  0  0  0  0
   90.0718   90.0150  -49.7259 C   0  0  0  0  0  0  0  0  0  0  0  0
   90.7774   91.3739  -49.7272 C   0  0  0  0  0  0  0  0  0  0  0  0
   90.8108   87.6563  -49.5508 C   0  0  0  0  0  0  0  0  0  0  0  0
   91.7127   86.8410  -49.2421 O   0  0  0  0  0  0  0  0  0  0  0  0
   92.2225   96.5069  -40.8923 Br  0  0  0  0  0  0  0  0  0  0  0  0
   92.0519   95.1356  -42.2231 C   0  0  0  0  0  0  0  0  0  0  0  0
   91.6038   95.4073  -43.4899 C   0  0  0  0  0  0  0  0  0  0  0  0
   91.4817   94.4024  -44.4535 C   0  0  0  0  0  0  0  0  0  0  0  0
   91.8142   93.1140  -44.1369 C   0  0  0  0  0  0  0  0  0  0  0  0
   91.6069   92.3316  -45.2410 N   0  0  0  0  0  0  0  0  0  0  0  0
   91.1516   93.0556  -46.2669 C   0  0  0  0  0  0  0  0  0  0  0  0
   91.0746   94.3762  -45.7571 C   0  0  0  0  0  0  0  0  0  0  0  0
   92.2672   92.8316  -42.8621 C   0  0  0  0  0  0  0  0  0  0  0  0
   92.3848   93.8358  -41.9118 C   0  0  0  0  0  0  0  0  0  0  0  0
   91.8022   91.3202  -45.2163 H   0  0  0  0  0  0  0  0  0  0  0  0
   89.5086   87.2551  -50.0590 C   0  0  0  0  0  0  0  0  0  0  0  0
   88.9000   86.1388  -49.3702 N   0  0  0  0  0  0  0  0  0  0  0  0
   87.7441   85.6770  -50.1421 C   0  0  0  0  0  0  0  0  0  0  0  0
   86.4792   86.2611  -49.6158 C   0  0  0  0  0  0  0  0  0  0  0  0
   86.6875   87.5616  -49.1628 O   0  0  0  0  0  0  0  0  0  0  0  0
   87.4625   87.5751  -48.0008 C   0  0  0  0  0  0  0  0  0  0  0  0
   88.4890   86.4657  -48.0161 C   0  0  0  0  0  0  0  0  0  0  0  0
 11 12  1  0  0  0
 12 13  2  0  0  0
 12 20  1  0  0  0
 13 14  1  0  0  0
 14 15  2  0  0  0
 14 18  1  0  0  0
 15 16  1  0  0  0
 15 19  1  0  0  0
 16 17  1  0  0  0
 17 18  2  0  0  0
 17  1  1  0  0  0
  1  2  2  0  0  0
  1  3  1  0  0  0
  3  4  1  0  0  0
  3  8  1  0  0  0
  4  5  1  0  0  0
  5  6  1  0  0  0
  6  7  1  0  0  0
  6  9  1  0  0  0
  7  8  1  0  0  0
  9 10  2  0  0  0
  9 22  1  0  0  0
 22 23  1  0  0  0
 23 24  1  0  0  0
 23 28  1  0  0  0
 24 25  1  0  0  0
 25 26  1  0  0  0
 26 27  1  0  0  0
 27 28  1  0  0  0
 19 20  2  0  0  0
 16 21  1  0  0  0
M  END
> <minimizedAffinity>
-7.05570

$$$$
617


 25 28  0  0  0  0  0  0  0  0999 V2000
   91.1430   91.1242  -48.0331 Br  0  0  0  0  0  0  0  0  0  0  0  0
   91.2908   92.4536  -46.6808 C   0  0  0  0  0  0  0  0  0  0  0  0
   90.7160   93.6987  -46.8309 C   0  0  0  0  0  0  0  0  0  0  0  0
   90.8142   94.6740  -45.8594 C   0  0  0  0  0  0  0  0  0  0  0  0
   91.5154   94.3752  -44.7066 C   0  0  0  0  0  0  0  0  0  0  0  0
   91.4522   95.4852  -43.9494 N   0  0  0  0  0  0  0  0  0  0  0  0
   90.7455   96.4609  -44.5728 C   0  0  0  0  0  0  0  0  0  0  0  0
   90.3311   95.9629  -45.7896 C   0  0  0  0  0  0  0  0  0  0  0  0
   89.6043   96.7616  -46.5957 N   0  0  0  0  0  0  0  0  0  0  0  0
   89.2750   98.0197  -46.2465 C   0  0  0  0  0  0  0  0  0  0  0  0
   89.6633   98.5297  -45.0701 N   0  0  0  0  0  0  0  0  0  0  0  0
   90.3883   97.7513  -44.2533 C   0  0  0  0  0  0  0  0  0  0  0  0
   90.7617   98.2130  -43.1459 O   0  0  0  0  0  0  0  0  0  0  0  0
   92.0872   93.1240  -44.5692 C   0  0  0  0  0  0  0  0  0  0  0  0
   91.9947   92.1428  -45.5355 C   0  0  0  0  0  0  0  0  0  0  0  0
   91.8775   95.6057  -43.0115 H   0  0  0  0  0  0  0  0  0  0  0  0
   89.3084   99.9060  -44.6829 C   0  0  0  0  0  0  0  0  0  0  0  0
   89.8695  100.8764  -45.6493 C   0  0  0  0  0  0  0  0  0  0  0  0
   91.1603  101.3892  -45.3651 N   0  0  0  0  0  0  0  0  0  0  0  0
   92.2096  100.8938  -46.1867 C   0  0  0  0  0  0  0  0  0  0  0  0
   92.9660   99.7518  -45.5707 C   0  0  0  0  0  0  0  0  0  0  0  0
   93.1303   99.9010  -44.1406 N   0  0  0  0  0  0  0  0  0  0  0  0
   92.8923  101.2728  -43.7238 C   0  0  0  0  0  0  0  0  0  0  0  0
   91.4314  101.5499  -43.9814 C   0  0  0  0  0  0  0  0  0  0  0  0
   92.5292   99.2376  -43.6006 H   0  0  0  0  0  0  0  0  0  0  0  0
  1  2  1  0  0  0
  2  3  2  0  0  0
  2 15  1  0  0  0
  3  4  1  0  0  0
  4  5  2  0  0  0
  4  8  1  0  0  0
  5  6  1  0  0  0
  5 14  1  0  0  0
  6  7  1  0  0  0
  7  8  2  0  0  0
  7 12  1  0  0  0
  8  9  1  0  0  0
  9 10  2  0  0  0
 10 11  1  0  0  0
 11 12  1  0  0  0
 11 17  1  0  0  0
 12 13  2  0  0  0
 17 18  1  0  0  0
 18 19  1  0  0  0
 19 20  1  0  0  0
 19 24  1  0  0  0
 20 21  1  0  0  0
 21 22  1  0  0  0
 22 23  1  0  0  0
 23 24  1  0  0  0
 14 15  2  0  0  0
  6 16  1  0  0  0
 22 25  1  0  0  0
M  END
> <minimizedAffinity>
-5.91934

$$$$
624


 22 25  0  0  0  0  0  0  0  0999 V2000
   91.4664   92.1025  -46.4098 Br  0  0  0  0  0  0  0  0  0  0  0  0
   91.5291   93.5373  -45.1590 C   0  0  0  0  0  0  0  0  0  0  0  0
   91.7724   93.2541  -43.8314 C   0  0  0  0  0  0  0  0  0  0  0  0
   91.8243   94.2873  -42.8870 C   0  0  0  0  0  0  0  0  0  0  0  0
   91.6304   95.5600  -43.3176 C   0  0  0  0  0  0  0  0  0  0  0  0
   91.3845   95.8918  -44.6320 C   0  0  0  0  0  0  0  0  0  0  0  0
   91.3377   94.8638  -45.5377 C   0  0  0  0  0  0  0  0  0  0  0  0
   91.2065   97.2171  -44.9274 C   0  0  0  0  0  0  0  0  0  0  0  0
   90.9849   97.5300  -46.1087 O   0  0  0  0  0  0  0  0  0  0  0  0
   91.2655   98.2137  -43.9648 C   0  0  0  0  0  0  0  0  0  0  0  0
   91.5148   97.8148  -42.6692 C   0  0  0  0  0  0  0  0  0  0  0  0
   91.6937   96.4898  -42.3630 N   0  0  0  0  0  0  0  0  0  0  0  0
   91.9628   95.8082  -41.1166 C   0  0  0  0  0  0  0  0  0  0  0  0
   92.0544   94.3401  -41.4331 C   0  0  0  0  0  0  0  0  0  0  0  0
   91.0747   99.6215  -44.2966 C   0  0  0  0  0  0  0  0  0  0  0  0
   92.0699  100.3164  -44.6047 O   0  0  0  0  0  0  0  0  0  0  0  0
   89.7673  100.2109  -44.2723 N   0  0  0  0  0  0  0  0  0  0  0  0
   89.5506  101.6046  -44.5964 C   0  0  0  0  0  0  0  0  0  0  0  0
   88.7868  102.2026  -43.4079 C   0  0  0  0  0  0  0  0  0  0  0  0
   87.6697  101.4429  -43.1568 O   0  0  0  0  0  0  0  0  0  0  0  0
   87.9418  100.1557  -42.7439 C   0  0  0  0  0  0  0  0  0  0  0  0
   88.6009   99.4269  -43.9182 C   0  0  0  0  0  0  0  0  0  0  0  0
  1  2  1  0  0  0
  2  3  2  0  0  0
  2  7  1  0  0  0
  3  4  1  0  0  0
  4  5  2  0  0  0
  4 14  1  0  0  0
  5  6  1  0  0  0
  5 12  1  0  0  0
  6  7  2  0  0  0
  6  8  1  0  0  0
  8  9  2  0  0  0
  8 10  1  0  0  0
 10 11  2  0  0  0
 10 15  1  0  0  0
 11 12  1  0  0  0
 12 13  1  0  0  0
 13 14  1  0  0  0
 15 16  2  0  0  0
 15 17  1  0  0  0
 17 18  1  0  0  0
 17 22  1  0  0  0
 18 19  1  0  0  0
 19 20  1  0  0  0
 20 21  1  0  0  0
 21 22  1  0  0  0
M  END
> <minimizedAffinity>
-7.34432

$$$$
625


 31 34  0  0  0  0  0  0  0  0999 V2000
   92.7518  101.0172  -40.9164 Br  0  0  0  0  0  0  0  0  0  0  0  0
   91.3261  100.4211  -41.9950 C   0  0  0  0  0  0  0  0  0  0  0  0
   91.4994   99.4037  -42.9192 C   0  0  0  0  0  0  0  0  0  0  0  0
   90.4880   98.9654  -43.7237 C   0  0  0  0  0  0  0  0  0  0  0  0
   90.4590   97.9492  -44.6376 N   0  0  0  0  0  0  0  0  0  0  0  0
   89.2011   97.8718  -45.1059 C   0  0  0  0  0  0  0  0  0  0  0  0
   88.4147   98.8861  -44.4958 C   0  0  0  0  0  0  0  0  0  0  0  0
   89.2652   99.5314  -43.6351 C   0  0  0  0  0  0  0  0  0  0  0  0
   89.0641  100.5583  -42.7092 C   0  0  0  0  0  0  0  0  0  0  0  0
   90.0821  101.0125  -41.8833 C   0  0  0  0  0  0  0  0  0  0  0  0
   89.9091  102.0371  -40.9353 O   0  0  0  0  0  0  0  0  0  0  0  0
   90.7094  102.3154  -40.3492 H   0  0  0  0  0  0  0  0  0  0  0  0
   87.0471   99.2993  -44.8376 C   0  0  0  0  0  0  0  0  0  0  0  0
   86.8934   99.9648  -45.8969 O   0  0  0  0  0  0  0  0  0  0  0  0
   85.9333   99.0158  -44.1201 O   0  0  0  0  0  0  0  0  0  0  0  0
   85.3009   97.8218  -43.8287 C   0  0  0  0  0  0  0  0  0  0  0  0
   84.0592   97.5408  -44.6659 C   0  0  0  0  0  0  0  0  0  0  0  0
   91.7061   97.3631  -45.1661 C   0  0  0  0  0  0  0  0  0  0  0  0
   91.6872   95.8884  -44.7032 C   0  0  0  0  0  0  0  0  0  0  0  0
   91.7117   94.9609  -45.7039 C   0  0  0  0  0  0  0  0  0  0  0  0
   91.7088   93.5989  -45.3595 C   0  0  0  0  0  0  0  0  0  0  0  0
   91.6895   93.1650  -44.0677 C   0  0  0  0  0  0  0  0  0  0  0  0
   91.6694   94.1508  -43.0805 C   0  0  0  0  0  0  0  0  0  0  0  0
   91.6669   95.5119  -43.4101 C   0  0  0  0  0  0  0  0  0  0  0  0
   88.6071   96.9032  -46.0272 C   0  0  0  0  0  0  0  0  0  0  0  0
   88.8937   97.0100  -47.4239 N   0  0  0  0  0  0  0  0  0  0  0  0
   88.8871   98.0859  -48.2481 C   0  0  0  0  0  0  0  0  0  0  0  0
   88.4364   97.6036  -49.6483 C   0  0  0  0  0  0  0  0  0  0  0  0
   88.8672   96.1407  -49.5760 C   0  0  0  0  0  0  0  0  0  0  0  0
   88.3978   95.8349  -48.1603 C   0  0  0  0  0  0  0  0  0  0  0  0
   90.0213   96.6643  -47.3904 H   0  0  0  0  0  0  0  0  0  0  0  0
  1  2  1  0  0  0
  2  3  2  0  0  0
  2 10  1  0  0  0
  3  4  1  0  0  0
  4  5  1  0  0  0
  4  8  2  0  0  0
  5  6  1  0  0  0
  5 18  1  0  0  0
  6  7  2  0  0  0
  6 25  1  0  0  0
  7  8  1  0  0  0
  7 13  1  0  0  0
  8  9  1  0  0  0
  9 10  2  0  0  0
 10 11  1  0  0  0
 13 14  2  0  0  0
 13 15  1  0  0  0
 15 16  1  0  0  0
 16 17  1  0  0  0
 25 26  1  0  0  0
 26 27  1  0  0  0
 26 30  1  0  0  0
 27 28  1  0  0  0
 28 29  1  0  0  0
 29 30  1  0  0  0
 18 19  1  0  0  0
 19 20  2  0  0  0
 19 24  1  0  0  0
 20 21  1  0  0  0
 21 22  2  0  0  0
 22 23  1  0  0  0
 23 24  2  0  0  0
 11 12  1  0  0  0
 26 31  1  0  0  0
M  CHG 1  26   1
M  END
> <minimizedAffinity>
-5.87904

$$$$
626


 32 35  0  0  0  0  0  0  0  0999 V2000
   91.0904   96.6450  -44.3641 N   0  0  0  0  0  0  0  0  0  0  0  0
   91.7751   97.7545  -44.8765 C   0  0  0  0  0  0  0  0  0  0  0  0
   92.6564   97.6013  -45.7601 O   0  0  0  0  0  0  0  0  0  0  0  0
   90.3499   96.8767  -43.6337 H   0  0  0  0  0  0  0  0  0  0  0  0
   92.0593   95.0788  -42.0029 Br  0  0  0  0  0  0  0  0  0  0  0  0
   91.6950   94.3910  -43.7561 C   0  0  0  0  0  0  0  0  0  0  0  0
   91.8815   93.0486  -43.9952 C   0  0  0  0  0  0  0  0  0  0  0  0
   91.6399   92.5219  -45.2403 C   0  0  0  0  0  0  0  0  0  0  0  0
   91.7130   91.3019  -45.8051 N   0  0  0  0  0  0  0  0  0  0  0  0
   91.3463   91.3609  -47.0991 C   0  0  0  0  0  0  0  0  0  0  0  0
   91.0436   92.6520  -47.3209 N   0  0  0  0  0  0  0  0  0  0  0  0
   91.2122   93.3899  -46.2045 C   0  0  0  0  0  0  0  0  0  0  0  0
   91.0201   94.7583  -45.9658 C   0  0  0  0  0  0  0  0  0  0  0  0
   91.2613   95.2887  -44.7189 C   0  0  0  0  0  0  0  0  0  0  0  0
   91.2960   90.2880  -48.0109 O   0  0  0  0  0  0  0  0  0  0  0  0
   90.7154   93.0492  -48.2449 H   0  0  0  0  0  0  0  0  0  0  0  0
   90.3828   89.8200  -48.0834 H   0  0  0  0  0  0  0  0  0  0  0  0
   91.5334   99.1359  -44.4462 C   0  0  0  0  0  0  0  0  0  0  0  0
   90.2087   99.5243  -44.1676 N   0  0  0  0  0  0  0  0  0  0  0  0
   89.8723   99.8571  -42.8309 C   0  0  0  0  0  0  0  0  0  0  0  0
   88.3646   99.8000  -42.5833 C   0  0  0  0  0  0  0  0  0  0  0  0
   87.7382  100.6116  -43.5371 N   0  0  0  0  0  0  0  0  0  0  0  0
   88.5178  101.1725  -44.5701 C   0  0  0  0  0  0  0  0  0  0  0  0
   89.5605  100.2855  -45.1814 C   0  0  0  0  0  0  0  0  0  0  0  0
   86.3659  100.4419  -43.7020 C   0  0  0  0  0  0  0  0  0  0  0  0
   85.8653   99.1334  -44.1242 C   0  0  0  0  0  0  0  0  0  0  0  0
   84.7851   98.7430  -43.5324 O   0  0  0  0  0  0  0  0  0  0  0  0
   86.4046   98.2728  -45.0738 N   0  0  0  0  0  0  0  0  0  0  0  0
   87.2679   98.5345  -45.5918 H   0  0  0  0  0  0  0  0  0  0  0  0
   85.8121   96.9827  -45.4145 C   0  0  0  0  0  0  0  0  0  0  0  0
   84.7451   96.8834  -46.4230 C   0  0  0  0  0  0  0  0  0  0  0  0
   86.1394   96.3972  -46.7715 C   0  0  0  0  0  0  0  0  0  0  0  0
  5  6  1  0  0  0
  6  7  2  0  0  0
  6 14  1  0  0  0
  7  8  1  0  0  0
  8  9  1  0  0  0
  8 12  2  0  0  0
  9 10  2  0  0  0
 10 11  1  0  0  0
 10 15  1  0  0  0
 11 12  1  0  0  0
 12 13  1  0  0  0
 13 14  2  0  0  0
 14  1  1  0  0  0
  1  2  1  0  0  0
  2  3  2  0  0  0
  2 18  1  0  0  0
 18 19  1  0  0  0
 19 20  1  0  0  0
 19 24  1  0  0  0
 20 21  1  0  0  0
 21 22  1  0  0  0
 22 23  1  0  0  0
 22 25  1  0  0  0
 23 24  1  0  0  0
 25 26  1  0  0  0
 26 27  2  0  0  0
 26 28  1  0  0  0
 28 30  1  0  0  0
 30 31  1  0  0  0
 30 32  1  0  0  0
 31 32  1  0  0  0
 11 16  1  0  0  0
  1  4  1  0  0  0
 28 29  1  0  0  0
 15 17  1  0  0  0
M  END
> <minimizedAffinity>
-6.31386

$$$$
631


 29 32  0  0  0  0  0  0  0  0999 V2000
   91.0270   98.9290  -43.0293 N   0  0  0  0  0  0  0  0  0  0  0  0
   91.6308   97.8419  -43.8309 C   0  0  0  0  0  0  0  0  0  0  0  0
   90.7562   97.8096  -45.0740 C   0  0  0  0  0  0  0  0  0  0  0  0
   89.3957   98.1992  -44.5360 C   0  0  0  0  0  0  0  0  0  0  0  0
   89.6161   98.8338  -43.2110 C   0  0  0  0  0  0  0  0  0  0  0  0
   88.7552   99.2120  -42.4050 O   0  0  0  0  0  0  0  0  0  0  0  0
   94.3516  105.1385  -43.6571 Br  0  0  0  0  0  0  0  0  0  0  0  0
   93.5340  103.4531  -43.2576 C   0  0  0  0  0  0  0  0  0  0  0  0
   93.6765  102.8680  -42.0011 C   0  0  0  0  0  0  0  0  0  0  0  0
   93.0600  101.6560  -41.7919 C   0  0  0  0  0  0  0  0  0  0  0  0
   92.9960  100.8358  -40.7283 N   0  0  0  0  0  0  0  0  0  0  0  0
   92.2662   99.7662  -41.0319 N   0  0  0  0  0  0  0  0  0  0  0  0
   91.8190   99.8299  -42.2943 C   0  0  0  0  0  0  0  0  0  0  0  0
   92.3331  101.0487  -42.7789 C   0  0  0  0  0  0  0  0  0  0  0  0
   92.1863  101.6139  -44.0144 C   0  0  0  0  0  0  0  0  0  0  0  0
   92.7932  102.8229  -44.2477 C   0  0  0  0  0  0  0  0  0  0  0  0
   92.0875   99.0009  -40.3530 H   0  0  0  0  0  0  0  0  0  0  0  0
   90.8416   96.4297  -45.5783 C   0  0  0  0  0  0  0  0  0  0  0  0
   90.0816   96.0225  -46.4874 O   0  0  0  0  0  0  0  0  0  0  0  0
   91.8147   95.5667  -45.0054 N   0  0  0  0  0  0  0  0  0  0  0  0
   92.4181   95.9434  -44.2486 H   0  0  0  0  0  0  0  0  0  0  0  0
   91.9718   94.1986  -45.4477 C   0  0  0  0  0  0  0  0  0  0  0  0
   91.5765   93.1934  -44.3869 C   0  0  0  0  0  0  0  0  0  0  0  0
   92.1286   93.5739  -43.0720 C   0  0  0  0  0  0  0  0  0  0  0  0
   91.6111   94.5392  -42.2953 N   0  0  0  0  0  0  0  0  0  0  0  0
   92.3190   94.6512  -41.1709 C   0  0  0  0  0  0  0  0  0  0  0  0
   93.3217   93.7332  -41.2227 N   0  0  0  0  0  0  0  0  0  0  0  0
   93.1951   93.0835  -42.3838 C   0  0  0  0  0  0  0  0  0  0  0  0
   94.0204   93.6232  -40.4531 H   0  0  0  0  0  0  0  0  0  0  0  0
  7  8  1  0  0  0
  8  9  2  0  0  0
  8 16  1  0  0  0
  9 10  1  0  0  0
 10 11  2  0  0  0
 10 14  1  0  0  0
 11 12  1  0  0  0
 12 13  1  0  0  0
 13 14  2  0  0  0
 13  1  1  0  0  0
 14 15  1  0  0  0
 15 16  2  0  0  0
  1  2  1  0  0  0
  1  5  1  0  0  0
  2  3  1  0  0  0
  3  4  1  0  0  0
  3 18  1  0  0  0
  4  5  1  0  0  0
  5  6  2  0  0  0
 18 19  2  0  0  0
 18 20  1  0  0  0
 20 22  1  0  0  0
 22 23  1  0  0  0
 23 24  1  0  0  0
 24 25  1  0  0  0
 24 28  2  0  0  0
 25 26  2  0  0  0
 26 27  1  0  0  0
 27 28  1  0  0  0
 12 17  1  0  0  0
 20 21  1  0  0  0
 27 29  1  0  0  0
M  END
> <minimizedAffinity>
-6.78105

$$$$
648


 32 35  0  0  0  0  0  0  0  0999 V2000
   91.7738   97.2644  -45.5885 C   0  0  0  0  0  0  0  0  0  0  0  0
   92.9568   97.7580  -45.6567 O   0  0  0  0  0  0  0  0  0  0  0  0
   90.7218   98.0968  -45.8648 N   0  0  0  0  0  0  0  0  0  0  0  0
   89.3379   97.7390  -45.8265 C   0  0  0  0  0  0  0  0  0  0  0  0
   88.7061   98.3892  -44.6396 C   0  0  0  0  0  0  0  0  0  0  0  0
   89.4014   99.6130  -44.2678 N   0  0  0  0  0  0  0  0  0  0  0  0
   90.2208  100.3543  -45.1676 C   0  0  0  0  0  0  0  0  0  0  0  0
   90.9293   99.5143  -46.2258 C   0  0  0  0  0  0  0  0  0  0  0  0
   89.2334   99.9710  -42.8873 C   0  0  0  0  0  0  0  0  0  0  0  0
   88.5753   99.1312  -42.1420 O   0  0  0  0  0  0  0  0  0  0  0  0
   91.6150   96.3786  -42.3219 Br  0  0  0  0  0  0  0  0  0  0  0  0
   91.6302   95.3309  -43.9351 C   0  0  0  0  0  0  0  0  0  0  0  0
   91.5757   93.9672  -44.0339 C   0  0  0  0  0  0  0  0  0  0  0  0
   91.6108   93.6650  -45.3358 N   0  0  0  0  0  0  0  0  0  0  0  0
   91.6838   94.7706  -46.0281 N   0  0  0  0  0  0  0  0  0  0  0  0
   91.7008   95.8727  -45.2225 C   0  0  0  0  0  0  0  0  0  0  0  0
   91.5761   92.2856  -45.8062 C   0  0  0  0  0  0  0  0  0  0  0  0
   91.1268   92.1655  -47.2379 C   0  0  0  0  0  0  0  0  0  0  0  0
   89.7304  101.1600  -42.2874 C   0  0  0  0  0  0  0  0  0  0  0  0
   89.1256  102.4001  -42.4476 N   0  0  0  0  0  0  0  0  0  0  0  0
   89.8218  103.3079  -41.8454 N   0  0  0  0  0  0  0  0  0  0  0  0
   90.8963  102.7860  -41.2612 C   0  0  0  0  0  0  0  0  0  0  0  0
   90.8336  101.4074  -41.5485 C   0  0  0  0  0  0  0  0  0  0  0  0
   87.9016  102.6493  -43.1717 C   0  0  0  0  0  0  0  0  0  0  0  0
   91.9266  103.4333  -40.4692 C   0  0  0  0  0  0  0  0  0  0  0  0
   91.5213  104.2517  -39.5686 O   0  0  0  0  0  0  0  0  0  0  0  0
   93.2920  103.2402  -40.6097 N   0  0  0  0  0  0  0  0  0  0  0  0
   94.1875  103.9644  -39.7020 C   0  0  0  0  0  0  0  0  0  0  0  0
   95.1791  104.6858  -40.5906 C   0  0  0  0  0  0  0  0  0  0  0  0
   95.9369  103.6707  -41.2028 O   0  0  0  0  0  0  0  0  0  0  0  0
   95.1791  103.0223  -42.1379 C   0  0  0  0  0  0  0  0  0  0  0  0
   93.9010  102.3990  -41.5921 C   0  0  0  0  0  0  0  0  0  0  0  0
 11 12  1  0  0  0
 12 13  2  0  0  0
 12 16  1  0  0  0
 13 14  1  0  0  0
 14 15  1  0  0  0
 14 17  1  0  0  0
 15 16  2  0  0  0
 16  1  1  0  0  0
  1  2  2  0  0  0
  1  3  1  0  0  0
  3  4  1  0  0  0
  3  8  1  0  0  0
  4  5  1  0  0  0
  5  6  1  0  0  0
  6  7  1  0  0  0
  6  9  1  0  0  0
  7  8  1  0  0  0
  9 10  2  0  0  0
  9 19  1  0  0  0
 19 20  1  0  0  0
 19 23  2  0  0  0
 20 21  1  0  0  0
 20 24  1  0  0  0
 21 22  2  0  0  0
 22 23  1  0  0  0
 22 25  1  0  0  0
 25 26  2  0  0  0
 25 27  1  0  0  0
 27 28  1  0  0  0
 27 32  1  0  0  0
 28 29  1  0  0  0
 29 30  1  0  0  0
 30 31  1  0  0  0
 31 32  1  0  0  0
 17 18  1  0  0  0
M  END
> <minimizedAffinity>
-6.25241

$$$$
653


 29 32  0  0  0  0  0  0  0  0999 V2000
   91.2435   96.7022  -43.9709 C   0  0  0  0  0  0  0  0  0  0  0  0
   91.6879   96.5880  -42.6784 C   0  0  0  0  0  0  0  0  0  0  0  0
   92.1024   95.3720  -42.1666 C   0  0  0  0  0  0  0  0  0  0  0  0
   92.0808   94.2335  -42.9411 C   0  0  0  0  0  0  0  0  0  0  0  0
   91.6258   94.3359  -44.2697 C   0  0  0  0  0  0  0  0  0  0  0  0
   91.2161   95.5409  -44.7761 C   0  0  0  0  0  0  0  0  0  0  0  0
   90.7544   95.6363  -46.1630 C   0  0  0  0  0  0  0  0  0  0  0  0
   90.2943   94.3953  -46.8180 C   0  0  0  0  0  0  0  0  0  0  0  0
   91.0167   93.2018  -46.3962 N   0  0  0  0  0  0  0  0  0  0  0  0
   91.5377   93.1232  -45.0764 C   0  0  0  0  0  0  0  0  0  0  0  0
   91.9147   91.9983  -44.6284 O   0  0  0  0  0  0  0  0  0  0  0  0
   91.1435   92.1392  -47.3672 C   0  0  0  0  0  0  0  0  0  0  0  0
   92.4844   95.6056  -40.8601 O   0  0  0  0  0  0  0  0  0  0  0  0
   92.4921   96.9840  -40.5868 C   0  0  0  0  0  0  0  0  0  0  0  0
   91.8094   97.5856  -41.6836 O   0  0  0  0  0  0  0  0  0  0  0  0
   92.4894   93.0009  -42.4644 O   0  0  0  0  0  0  0  0  0  0  0  0
   93.7272   92.8460  -41.8021 C   0  0  0  0  0  0  0  0  0  0  0  0
   90.7532   97.9788  -44.5328 C   0  0  0  0  0  0  0  0  0  0  0  0
   90.2379  100.2678  -43.5136 C   0  0  0  0  0  0  0  0  0  0  0  0
   90.7444  100.9448  -44.4654 O   0  0  0  0  0  0  0  0  0  0  0  0
   90.2350   98.8899  -43.5285 N   0  0  0  0  0  0  0  0  0  0  0  0
   89.7895   98.3831  -42.6996 H   0  0  0  0  0  0  0  0  0  0  0  0
   89.6471  101.0245  -42.3770 C   0  0  0  0  0  0  0  0  0  0  0  0
   92.6287  103.2528  -38.4152 Br  0  0  0  0  0  0  0  0  0  0  0  0
   91.9979  102.1752  -39.8596 C   0  0  0  0  0  0  0  0  0  0  0  0
   90.7784  102.2465  -40.4926 C   0  0  0  0  0  0  0  0  0  0  0  0
   90.7519  101.3194  -41.4444 N   0  0  0  0  0  0  0  0  0  0  0  0
   91.9194  100.6816  -41.4142 N   0  0  0  0  0  0  0  0  0  0  0  0
   92.7228  101.1701  -40.4573 C   0  0  0  0  0  0  0  0  0  0  0  0
 24 25  1  0  0  0
 25 26  2  0  0  0
 25 29  1  0  0  0
 26 27  1  0  0  0
 27 28  1  0  0  0
 27 23  1  0  0  0
 28 29  2  0  0  0
 23 19  1  0  0  0
 19 20  2  0  0  0
 19 21  1  0  0  0
 21 18  1  0  0  0
 18  1  1  0  0  0
  1  2  2  0  0  0
  1  6  1  0  0  0
  2  3  1  0  0  0
  2 15  1  0  0  0
  3  4  2  0  0  0
  3 13  1  0  0  0
  4  5  1  0  0  0
  4 16  1  0  0  0
  5  6  2  0  0  0
  5 10  1  0  0  0
  6  7  1  0  0  0
  7  8  1  0  0  0
  8  9  1  0  0  0
  9 10  1  0  0  0
  9 12  1  0  0  0
 10 11  2  0  0  0
 16 17  1  0  0  0
 13 14  1  0  0  0
 14 15  1  0  0  0
 21 22  1  0  0  0
M  END
> <minimizedAffinity>
-6.27064

$$$$
662


 25 29  0  0  0  0  0  0  0  0999 V2000
   91.5395   93.1884  -45.4442 C   0  0  0  0  0  0  0  0  0  0  0  0
   91.7929   92.8026  -44.1835 N   0  0  0  0  0  0  0  0  0  0  0  0
   91.7997   93.8598  -43.3717 N   0  0  0  0  0  0  0  0  0  0  0  0
   91.5419   94.9609  -44.1341 C   0  0  0  0  0  0  0  0  0  0  0  0
   91.3868   94.5219  -45.3982 N   0  0  0  0  0  0  0  0  0  0  0  0
   91.4960   96.1913  -43.5136 C   0  0  0  0  0  0  0  0  0  0  0  0
   91.7003   96.3493  -42.1543 C   0  0  0  0  0  0  0  0  0  0  0  0
   91.5956   97.6519  -41.8413 N   0  0  0  0  0  0  0  0  0  0  0  0
   91.3327   98.3026  -42.9633 N   0  0  0  0  0  0  0  0  0  0  0  0
   91.2641   97.4479  -44.0052 C   0  0  0  0  0  0  0  0  0  0  0  0
   91.9510   95.2375  -41.4448 N   0  0  0  0  0  0  0  0  0  0  0  0
   91.9942   94.0409  -42.0530 C   0  0  0  0  0  0  0  0  0  0  0  0
   91.6964   98.0949  -40.9032 H   0  0  0  0  0  0  0  0  0  0  0  0
   90.8035   91.4234  -48.5158 N   0  0  0  0  0  0  0  0  0  0  0  0
   90.5789   92.3829  -47.6353 N   0  0  0  0  0  0  0  0  0  0  0  0
   91.4509   92.3171  -46.6148 C   0  0  0  0  0  0  0  0  0  0  0  0
   92.2638   91.2394  -46.8960 C   0  0  0  0  0  0  0  0  0  0  0  0
   91.8454   90.6832  -48.1006 C   0  0  0  0  0  0  0  0  0  0  0  0
   90.0376   91.2065  -49.7460 C   0  0  0  0  0  0  0  0  0  0  0  0
   87.9470   86.3421  -48.7362 Br  0  0  0  0  0  0  0  0  0  0  0  0
   88.8358   87.8033  -49.5439 C   0  0  0  0  0  0  0  0  0  0  0  0
   88.9749   89.0738  -49.0229 C   0  0  0  0  0  0  0  0  0  0  0  0
   89.6697   89.8146  -49.9021 N   0  0  0  0  0  0  0  0  0  0  0  0
   89.9650   89.0578  -50.9437 N   0  0  0  0  0  0  0  0  0  0  0  0
   89.4719   87.8110  -50.7650 C   0  0  0  0  0  0  0  0  0  0  0  0
 20 21  1  0  0  0
 21 22  2  0  0  0
 21 25  1  0  0  0
 22 23  1  0  0  0
 23 24  1  0  0  0
 23 19  1  0  0  0
 24 25  2  0  0  0
 19 14  1  0  0  0
 14 15  1  0  0  0
 14 18  1  0  0  0
 15 16  2  0  0  0
 16 17  1  0  0  0
 16  1  1  0  0  0
 17 18  2  0  0  0
  1  2  2  0  0  0
  1  5  1  0  0  0
  2  3  1  0  0  0
  3  4  1  0  0  0
  3 12  1  0  0  0
  4  5  2  0  0  0
  4  6  1  0  0  0
  6  7  2  0  0  0
  6 10  1  0  0  0
  7  8  1  0  0  0
  7 11  1  0  0  0
  8  9  1  0  0  0
  9 10  2  0  0  0
 11 12  2  0  0  0
  8 13  1  0  0  0
M  END
> <minimizedAffinity>
-7.20537

$$$$
663


 28 31  0  0  0  0  0  0  0  0999 V2000
   91.1722  100.8166  -43.7781 C   0  0  0  0  0  0  0  0  0  0  0  0
   91.4618  101.4527  -44.8684 O   0  0  0  0  0  0  0  0  0  0  0  0
   90.8562  101.6085  -42.6873 N   0  0  0  0  0  0  0  0  0  0  0  0
   90.4382  101.2697  -41.3537 C   0  0  0  0  0  0  0  0  0  0  0  0
   91.6583  101.3880  -40.4609 C   0  0  0  0  0  0  0  0  0  0  0  0
   92.5112  102.5663  -40.8860 C   0  0  0  0  0  0  0  0  0  0  0  0
   93.0115  103.1888  -39.6798 N   0  0  0  0  0  0  0  0  0  0  0  0
   94.1894  102.4991  -39.2895 C   0  0  0  0  0  0  0  0  0  0  0  0
   94.7415  102.4757  -38.1415 O   0  0  0  0  0  0  0  0  0  0  0  0
   94.6670  101.8099  -40.4556 N   0  0  0  0  0  0  0  0  0  0  0  0
   93.7530  102.1042  -41.5336 C   0  0  0  0  0  0  0  0  0  0  0  0
   94.0282  101.9710  -42.7454 O   0  0  0  0  0  0  0  0  0  0  0  0
   91.7612  103.5923  -41.6726 C   0  0  0  0  0  0  0  0  0  0  0  0
   91.0051  103.0882  -42.8549 C   0  0  0  0  0  0  0  0  0  0  0  0
   92.6145  103.9946  -39.1589 H   0  0  0  0  0  0  0  0  0  0  0  0
   95.5067  101.1995  -40.5607 H   0  0  0  0  0  0  0  0  0  0  0  0
   91.4183   96.5574  -44.3248 C   0  0  0  0  0  0  0  0  0  0  0  0
   91.2779   97.4353  -45.3716 C   0  0  0  0  0  0  0  0  0  0  0  0
   91.1881   98.7875  -45.1759 C   0  0  0  0  0  0  0  0  0  0  0  0
   91.2314   99.3774  -43.8958 C   0  0  0  0  0  0  0  0  0  0  0  0
   91.3737   98.4880  -42.8566 C   0  0  0  0  0  0  0  0  0  0  0  0
   91.4635   97.1035  -43.0707 C   0  0  0  0  0  0  0  0  0  0  0  0
   91.4253   91.7169  -46.7784 Br  0  0  0  0  0  0  0  0  0  0  0  0
   91.5292   93.1415  -45.4873 C   0  0  0  0  0  0  0  0  0  0  0  0
   91.3579   94.4896  -45.7141 C   0  0  0  0  0  0  0  0  0  0  0  0
   91.5091   95.1595  -44.5576 N   0  0  0  0  0  0  0  0  0  0  0  0
   91.7668   94.2587  -43.6333 N   0  0  0  0  0  0  0  0  0  0  0  0
   91.7906   93.0276  -44.1400 C   0  0  0  0  0  0  0  0  0  0  0  0
 23 24  1  0  0  0
 24 25  2  0  0  0
 24 28  1  0  0  0
 25 26  1  0  0  0
 26 27  1  0  0  0
 26 17  1  0  0  0
 27 28  2  0  0  0
 17 18  2  0  0  0
 17 22  1  0  0  0
 18 19  1  0  0  0
 19 20  2  0  0  0
 20 21  1  0  0  0
 20  1  1  0  0  0
 21 22  2  0  0  0
  1  2  2  0  0  0
  1  3  1  0  0  0
  3  4  1  0  0  0
  3 14  1  0  0  0
  4  5  1  0  0  0
  5  6  1  0  0  0
  6  7  1  0  0  0
  6 11  1  0  0  0
  6 13  1  0  0  0
  7  8  1  0  0  0
  8  9  2  0  0  0
  8 10  1  0  0  0
 10 11  1  0  0  0
 11 12  2  0  0  0
 13 14  1  0  0  0
  7 15  1  0  0  0
 10 16  1  0  0  0
M  END
> <minimizedAffinity>
-7.24847

$$$$
666


 28 31  0  0  0  0  0  0  0  0999 V2000
   90.9655   98.0180  -44.8890 C   0  0  0  0  0  0  0  0  0  0  0  0
   89.8682   98.5442  -45.3469 C   0  0  0  0  0  0  0  0  0  0  0  0
   90.2656   99.6797  -46.1810 C   0  0  0  0  0  0  0  0  0  0  0  0
   89.4435  100.4316  -46.7916 O   0  0  0  0  0  0  0  0  0  0  0  0
   91.6932   99.8227  -46.2108 N   0  0  0  0  0  0  0  0  0  0  0  0
   92.1535   98.7560  -45.3821 C   0  0  0  0  0  0  0  0  0  0  0  0
   93.3560   98.4907  -45.1183 O   0  0  0  0  0  0  0  0  0  0  0  0
   92.4511  100.8052  -46.8982 C   0  0  0  0  0  0  0  0  0  0  0  0
   92.5949  102.0950  -46.4550 C   0  0  0  0  0  0  0  0  0  0  0  0
   93.3709  103.0413  -47.1565 C   0  0  0  0  0  0  0  0  0  0  0  0
   94.0141  102.6893  -48.3212 C   0  0  0  0  0  0  0  0  0  0  0  0
   93.8737  101.4004  -48.7685 C   0  0  0  0  0  0  0  0  0  0  0  0
   93.1017  100.4773  -48.0617 C   0  0  0  0  0  0  0  0  0  0  0  0
   88.5189   98.1307  -45.1219 N   0  0  0  0  0  0  0  0  0  0  0  0
   87.9424   97.2416  -45.9509 C   0  0  0  0  0  0  0  0  0  0  0  0
   86.6146   96.8202  -45.7630 C   0  0  0  0  0  0  0  0  0  0  0  0
   85.8754   97.3238  -44.7092 C   0  0  0  0  0  0  0  0  0  0  0  0
   86.4882   98.2329  -43.8737 C   0  0  0  0  0  0  0  0  0  0  0  0
   87.7852   98.6169  -44.0913 C   0  0  0  0  0  0  0  0  0  0  0  0
   91.1285   96.9002  -44.0369 N   0  0  0  0  0  0  0  0  0  0  0  0
   91.1596   97.0153  -43.0243 H   0  0  0  0  0  0  0  0  0  0  0  0
   91.5543   91.3933  -46.6805 Br  0  0  0  0  0  0  0  0  0  0  0  0
   91.4354   93.1125  -45.8531 C   0  0  0  0  0  0  0  0  0  0  0  0
   91.0081   94.2202  -46.5364 C   0  0  0  0  0  0  0  0  0  0  0  0
   90.9261   95.4118  -45.9339 N   0  0  0  0  0  0  0  0  0  0  0  0
   91.2497   95.6221  -44.6298 C   0  0  0  0  0  0  0  0  0  0  0  0
   91.6875   94.4845  -43.9406 C   0  0  0  0  0  0  0  0  0  0  0  0
   91.7806   93.2524  -44.5287 C   0  0  0  0  0  0  0  0  0  0  0  0
 22 23  1  0  0  0
 23 24  2  0  0  0
 23 28  1  0  0  0
 24 25  1  0  0  0
 25 26  2  0  0  0
 26 27  1  0  0  0
 26 20  1  0  0  0
 27 28  2  0  0  0
 20  1  1  0  0  0
  1  2  2  0  0  0
  1  6  1  0  0  0
  2  3  1  0  0  0
  2 14  1  0  0  0
  3  4  2  0  0  0
  3  5  1  0  0  0
  5  6  1  0  0  0
  5  8  1  0  0  0
  6  7  2  0  0  0
  8  9  2  0  0  0
  8 13  1  0  0  0
  9 10  1  0  0  0
 10 11  2  0  0  0
 11 12  1  0  0  0
 12 13  2  0  0  0
 14 15  2  0  0  0
 14 19  1  0  0  0
 15 16  1  0  0  0
 16 17  2  0  0  0
 17 18  1  0  0  0
 18 19  2  0  0  0
 20 21  1  0  0  0
M  END
> <minimizedAffinity>
-6.25177

$$$$
670


 23 26  0  0  0  0  0  0  0  0999 V2000
   90.3526   97.0752  -45.2885 C   0  0  0  0  0  0  0  0  0  0  0  0
   90.8331   95.7243  -45.1649 N   0  0  0  0  0  0  0  0  0  0  0  0
   91.4971   95.3150  -44.0086 N   0  0  0  0  0  0  0  0  0  0  0  0
   91.9891   93.9926  -43.8406 C   0  0  0  0  0  0  0  0  0  0  0  0
   92.6103   93.6578  -42.7261 C   0  0  0  0  0  0  0  0  0  0  0  0
   93.1682   93.8725  -41.3761 C   0  0  0  0  0  0  0  0  0  0  0  0
   93.3094   92.5498  -41.9646 C   0  0  0  0  0  0  0  0  0  0  0  0
   91.8117   93.0077  -44.8896 C   0  0  0  0  0  0  0  0  0  0  0  0
   91.1850   93.3738  -45.9960 C   0  0  0  0  0  0  0  0  0  0  0  0
   90.6689   94.7457  -46.1801 C   0  0  0  0  0  0  0  0  0  0  0  0
   90.0757   95.0687  -47.2433 O   0  0  0  0  0  0  0  0  0  0  0  0
   91.6229   96.0423  -43.2455 H   0  0  0  0  0  0  0  0  0  0  0  0
   90.7911   99.5462  -43.0485 N   0  0  0  0  0  0  0  0  0  0  0  0
   91.1963   99.3155  -44.4050 C   0  0  0  0  0  0  0  0  0  0  0  0
   90.8784   97.8595  -44.1279 C   0  0  0  0  0  0  0  0  0  0  0  0
   89.8133   98.5164  -43.2570 C   0  0  0  0  0  0  0  0  0  0  0  0
   92.4624  103.2707  -38.5264 Br  0  0  0  0  0  0  0  0  0  0  0  0
   91.9258  102.1085  -39.9481 C   0  0  0  0  0  0  0  0  0  0  0  0
   92.7303  101.0608  -40.3353 C   0  0  0  0  0  0  0  0  0  0  0  0
   92.3393  100.2669  -41.3231 N   0  0  0  0  0  0  0  0  0  0  0  0
   91.1827  100.3960  -42.0084 C   0  0  0  0  0  0  0  0  0  0  0  0
   90.3898  101.4380  -41.6197 N   0  0  0  0  0  0  0  0  0  0  0  0
   90.7361  102.2737  -40.6243 C   0  0  0  0  0  0  0  0  0  0  0  0
 17 18  1  0  0  0
 18 19  2  0  0  0
 18 23  1  0  0  0
 19 20  1  0  0  0
 20 21  2  0  0  0
 21 22  1  0  0  0
 21 13  1  0  0  0
 22 23  2  0  0  0
 13 14  1  0  0  0
 13 16  1  0  0  0
 14 15  1  0  0  0
 15 16  1  0  0  0
 15  1  1  0  0  0
  1  2  1  0  0  0
  2  3  1  0  0  0
  2 10  1  0  0  0
  3  4  1  0  0  0
  4  5  2  0  0  0
  4  8  1  0  0  0
  5  6  1  0  0  0
  5  7  1  0  0  0
  6  7  1  0  0  0
  8  9  2  0  0  0
  9 10  1  0  0  0
 10 11  2  0  0  0
  3 12  1  0  0  0
M  END
> <minimizedAffinity>
-6.53412

$$$$
677


 29 32  0  0  0  0  0  0  0  0999 V2000
   91.2723   95.4426  -44.5544 C   0  0  0  0  0  0  0  0  0  0  0  0
   91.7393   94.5822  -43.4982 C   0  0  0  0  0  0  0  0  0  0  0  0
   92.1019   95.1096  -42.3134 C   0  0  0  0  0  0  0  0  0  0  0  0
   92.0331   96.4958  -42.0831 C   0  0  0  0  0  0  0  0  0  0  0  0
   91.5920   97.3314  -43.0802 C   0  0  0  0  0  0  0  0  0  0  0  0
   91.2139   96.7931  -44.3206 C   0  0  0  0  0  0  0  0  0  0  0  0
   90.8254   97.6895  -45.4398 C   0  0  0  0  0  0  0  0  0  0  0  0
   91.2728   99.1349  -45.2491 C   0  0  0  0  0  0  0  0  0  0  0  0
   90.9800   99.6137  -43.9185 N   0  0  0  0  0  0  0  0  0  0  0  0
   91.4745   98.7709  -42.8685 C   0  0  0  0  0  0  0  0  0  0  0  0
   91.7847   99.3371  -41.8001 O   0  0  0  0  0  0  0  0  0  0  0  0
   90.2497  100.8378  -43.6688 C   0  0  0  0  0  0  0  0  0  0  0  0
   92.4120   96.9442  -40.8728 O   0  0  0  0  0  0  0  0  0  0  0  0
   92.5080   94.0452  -41.4938 O   0  0  0  0  0  0  0  0  0  0  0  0
   92.1557   92.8165  -42.0933 C   0  0  0  0  0  0  0  0  0  0  0  0
   91.9111   93.1962  -43.4332 O   0  0  0  0  0  0  0  0  0  0  0  0
   92.4484   97.8307  -40.5018 H   0  0  0  0  0  0  0  0  0  0  0  0
   90.9216   94.6839  -45.7360 C   0  0  0  0  0  0  0  0  0  0  0  0
   90.8696   92.8265  -47.3051 C   0  0  0  0  0  0  0  0  0  0  0  0
   89.9673   93.4359  -47.9035 O   0  0  0  0  0  0  0  0  0  0  0  0
   91.4554   93.4447  -46.0979 N   0  0  0  0  0  0  0  0  0  0  0  0
   92.2173   92.8665  -45.7146 H   0  0  0  0  0  0  0  0  0  0  0  0
   90.1521   88.3776  -50.1555 Br  0  0  0  0  0  0  0  0  0  0  0  0
   91.1561   89.5224  -49.0028 C   0  0  0  0  0  0  0  0  0  0  0  0
   92.3941   89.1597  -48.5759 C   0  0  0  0  0  0  0  0  0  0  0  0
   93.1059   89.9481  -47.7718 N   0  0  0  0  0  0  0  0  0  0  0  0
   92.5973   91.1227  -47.3723 C   0  0  0  0  0  0  0  0  0  0  0  0
   91.3361   91.5448  -47.7780 C   0  0  0  0  0  0  0  0  0  0  0  0
   90.5947   90.7363  -48.6090 C   0  0  0  0  0  0  0  0  0  0  0  0
 23 24  1  0  0  0
 24 25  2  0  0  0
 24 29  1  0  0  0
 25 26  1  0  0  0
 26 27  2  0  0  0
 27 28  1  0  0  0
 28 29  2  0  0  0
 28 19  1  0  0  0
 19 20  2  0  0  0
 19 21  1  0  0  0
 21 18  1  0  0  0
 18  1  1  0  0  0
  1  2  2  0  0  0
  1  6  1  0  0  0
  2  3  1  0  0  0
  2 16  1  0  0  0
  3  4  2  0  0  0
  3 14  1  0  0  0
  4  5  1  0  0  0
  4 13  1  0  0  0
  5  6  2  0  0  0
  5 10  1  0  0  0
  6  7  1  0  0  0
  7  8  1  0  0  0
  8  9  1  0  0  0
  9 10  1  0  0  0
  9 12  1  0  0  0
 10 11  2  0  0  0
 14 15  1  0  0  0
 15 16  1  0  0  0
 21 22  1  0  0  0
 13 17  1  0  0  0
M  END
> <minimizedAffinity>
-7.09454

$$$$
680


 24 27  0  0  0  0  0  0  0  0999 V2000
   91.2248   96.9847  -44.8669 C   0  0  0  0  0  0  0  0  0  0  0  0
   91.0427   97.3227  -46.0940 O   0  0  0  0  0  0  0  0  0  0  0  0
   91.2152   98.0125  -43.9054 N   0  0  0  0  0  0  0  0  0  0  0  0
   91.3776   98.1874  -42.4958 C   0  0  0  0  0  0  0  0  0  0  0  0
   91.8610   99.6169  -42.7997 C   0  0  0  0  0  0  0  0  0  0  0  0
   90.9791   99.4688  -43.9810 C   0  0  0  0  0  0  0  0  0  0  0  0
   91.4564  100.5455  -41.7805 N   0  0  0  0  0  0  0  0  0  0  0  0
   90.1896  101.2141  -41.6325 C   0  0  0  0  0  0  0  0  0  0  0  0
   89.1086  100.7950  -42.0811 O   0  0  0  0  0  0  0  0  0  0  0  0
   90.4838  102.4634  -40.8490 C   0  0  0  0  0  0  0  0  0  0  0  0
   91.5013  101.9279  -39.8695 C   0  0  0  0  0  0  0  0  0  0  0  0
   92.3386  103.0351  -39.2919 C   0  0  0  0  0  0  0  0  0  0  0  0
   93.0415  103.7533  -40.3887 C   0  0  0  0  0  0  0  0  0  0  0  0
   92.3949  103.9230  -41.5238 C   0  0  0  0  0  0  0  0  0  0  0  0
   91.0286  103.4635  -41.8106 C   0  0  0  0  0  0  0  0  0  0  0  0
   92.2718  100.9808  -40.6982 C   0  0  0  0  0  0  0  0  0  0  0  0
   93.4554  100.6482  -40.4431 O   0  0  0  0  0  0  0  0  0  0  0  0
   91.5053   91.9261  -46.7389 Br  0  0  0  0  0  0  0  0  0  0  0  0
   91.5743   93.2488  -45.3717 C   0  0  0  0  0  0  0  0  0  0  0  0
   91.8361   92.8639  -44.0785 C   0  0  0  0  0  0  0  0  0  0  0  0
   91.8904   93.7943  -43.0916 N   0  0  0  0  0  0  0  0  0  0  0  0
   91.6900   95.0906  -43.3526 C   0  0  0  0  0  0  0  0  0  0  0  0
   91.4170   95.5718  -44.6401 C   0  0  0  0  0  0  0  0  0  0  0  0
   91.3720   94.5987  -45.6124 C   0  0  0  0  0  0  0  0  0  0  0  0
 18 19  1  0  0  0
 19 20  2  0  0  0
 19 24  1  0  0  0
 20 21  1  0  0  0
 21 22  2  0  0  0
 22 23  1  0  0  0
 23 24  2  0  0  0
 23  1  1  0  0  0
  1  2  2  0  0  0
  1  3  1  0  0  0
  3  4  1  0  0  0
  3  6  1  0  0  0
  4  5  1  0  0  0
  5  6  1  0  0  0
  5  7  1  0  0  0
  7  8  1  0  0  0
  7 16  1  0  0  0
  8  9  2  0  0  0
  8 10  1  0  0  0
 10 11  1  0  0  0
 10 15  1  0  0  0
 11 12  1  0  0  0
 11 16  1  0  0  0
 12 13  1  0  0  0
 13 14  2  0  0  0
 14 15  1  0  0  0
 16 17  2  0  0  0
M  END
> <minimizedAffinity>
-6.78798

$$$$
681


 25 28  0  0  0  0  0  0  0  0999 V2000
   91.5687  100.9185  -43.6488 C   0  0  0  0  0  0  0  0  0  0  0  0
   91.3416  101.7771  -44.5568 O   0  0  0  0  0  0  0  0  0  0  0  0
   91.5681   99.5614  -43.9946 N   0  0  0  0  0  0  0  0  0  0  0  0
   91.7655   98.2616  -43.4101 C   0  0  0  0  0  0  0  0  0  0  0  0
   91.7430   97.5767  -44.7682 C   0  0  0  0  0  0  0  0  0  0  0  0
   91.2995   98.9090  -45.2914 C   0  0  0  0  0  0  0  0  0  0  0  0
   95.1878  102.8786  -40.2812 Br  0  0  0  0  0  0  0  0  0  0  0  0
   93.4075  102.2917  -40.7066 C   0  0  0  0  0  0  0  0  0  0  0  0
   92.4469  102.3431  -39.7226 C   0  0  0  0  0  0  0  0  0  0  0  0
   91.2158  101.9294  -40.0430 N   0  0  0  0  0  0  0  0  0  0  0  0
   90.9002  101.4706  -41.2893 C   0  0  0  0  0  0  0  0  0  0  0  0
   91.8132  101.3965  -42.3109 C   0  0  0  0  0  0  0  0  0  0  0  0
   93.1048  101.8341  -41.9638 C   0  0  0  0  0  0  0  0  0  0  0  0
   90.8468   96.5219  -44.9282 O   0  0  0  0  0  0  0  0  0  0  0  0
   91.1571   95.1779  -44.8900 C   0  0  0  0  0  0  0  0  0  0  0  0
   91.0340   94.4402  -45.9905 C   0  0  0  0  0  0  0  0  0  0  0  0
   91.3463   93.0169  -46.0142 C   0  0  0  0  0  0  0  0  0  0  0  0
   91.2137   92.3145  -47.1256 C   0  0  0  0  0  0  0  0  0  0  0  0
   91.7936   92.4226  -44.8037 N   0  0  0  0  0  0  0  0  0  0  0  0
   91.9158   93.2434  -43.6317 C   0  0  0  0  0  0  0  0  0  0  0  0
   91.6124   94.5485  -43.6754 N   0  0  0  0  0  0  0  0  0  0  0  0
   91.8062   95.0760  -42.4622 N   0  0  0  0  0  0  0  0  0  0  0  0
   92.2306   94.0874  -41.6673 C   0  0  0  0  0  0  0  0  0  0  0  0
   92.2990   92.9605  -42.3830 N   0  0  0  0  0  0  0  0  0  0  0  0
   92.0183   91.4135  -44.8088 H   0  0  0  0  0  0  0  0  0  0  0  0
  7  8  1  0  0  0
  8  9  2  0  0  0
  8 13  1  0  0  0
  9 10  1  0  0  0
 10 11  2  0  0  0
 11 12  1  0  0  0
 12 13  2  0  0  0
 12  1  1  0  0  0
  1  2  2  0  0  0
  1  3  1  0  0  0
  3  4  1  0  0  0
  3  6  1  0  0  0
  4  5  1  0  0  0
  5  6  1  0  0  0
  5 14  1  0  0  0
 14 15  1  0  0  0
 15 16  2  0  0  0
 15 21  1  0  0  0
 16 17  1  0  0  0
 17 18  2  0  0  0
 17 19  1  0  0  0
 19 20  1  0  0  0
 20 21  1  0  0  0
 20 24  2  0  0  0
 21 22  1  0  0  0
 22 23  2  0  0  0
 23 24  1  0  0  0
 19 25  1  0  0  0
M  END
> <minimizedAffinity>
-6.53384

$$$$
683


 20 22  0  0  0  0  0  0  0  0999 V2000
   90.3353   99.5539  -45.5482 N   0  0  0  0  0  0  0  0  0  0  0  0
   91.2729  100.6389  -45.3102 C   0  0  0  0  0  0  0  0  0  0  0  0
   92.4589  100.1947  -44.4841 C   0  0  0  0  0  0  0  0  0  0  0  0
   92.1605  100.3757  -43.0061 C   0  0  0  0  0  0  0  0  0  0  0  0
   91.2103   99.3070  -42.5149 C   0  0  0  0  0  0  0  0  0  0  0  0
   91.1170   98.2356  -43.5191 C   0  0  0  0  0  0  0  0  0  0  0  0
   90.7339   98.3647  -44.8324 C   0  0  0  0  0  0  0  0  0  0  0  0
   90.7028   97.2839  -45.6161 N   0  0  0  0  0  0  0  0  0  0  0  0
   91.0320   96.0693  -45.1677 C   0  0  0  0  0  0  0  0  0  0  0  0
   91.4169   95.9169  -43.8603 C   0  0  0  0  0  0  0  0  0  0  0  0
   91.4582   97.0163  -43.0271 C   0  0  0  0  0  0  0  0  0  0  0  0
   91.8638   96.8336  -41.6611 N   0  0  0  0  0  0  0  0  0  0  0  0
   91.7704   94.6746  -43.3404 C   0  0  0  0  0  0  0  0  0  0  0  0
   91.7236   93.5902  -44.1805 C   0  0  0  0  0  0  0  0  0  0  0  0
   91.3382   93.7440  -45.4896 C   0  0  0  0  0  0  0  0  0  0  0  0
   90.9866   94.9928  -45.9999 C   0  0  0  0  0  0  0  0  0  0  0  0
   90.3754   99.2389  -46.9721 C   0  0  0  0  0  0  0  0  0  0  0  0
   89.3687   99.8396  -45.2698 H   0  0  0  0  0  0  0  0  0  0  0  0
   92.7363   97.2694  -41.3233 H   0  0  0  0  0  0  0  0  0  0  0  0
   91.2892   96.2629  -40.9994 H   0  0  0  0  0  0  0  0  0  0  0  0
  1  2  1  0  0  0
  1  7  1  0  0  0
  1 17  1  0  0  0
  2  3  1  0  0  0
  3  4  1  0  0  0
  4  5  1  0  0  0
  5  6  1  0  0  0
  6  7  2  0  0  0
  6 11  1  0  0  0
  7  8  1  0  0  0
  8  9  2  0  0  0
  9 10  1  0  0  0
  9 16  1  0  0  0
 10 11  2  0  0  0
 10 13  1  0  0  0
 11 12  1  0  0  0
 13 14  2  0  0  0
 14 15  1  0  0  0
 15 16  2  0  0  0
  1 18  1  0  0  0
 12 19  1  0  0  0
 12 20  1  0  0  0
M  CHG 1   1   1
M  END
> <minimizedAffinity>
-5.79427

$$$$
684


 19 21  0  0  0  0  0  0  0  0999 V2000
   91.2292   99.5691  -44.7880 N   0  0  0  0  0  0  0  0  0  0  0  0
   92.3183  100.3820  -44.2154 C   0  0  0  0  0  0  0  0  0  0  0  0
   91.9591  100.7375  -42.8101 C   0  0  0  0  0  0  0  0  0  0  0  0
   91.8125   99.4772  -42.0006 C   0  0  0  0  0  0  0  0  0  0  0  0
   91.6866   98.2476  -42.8005 C   0  0  0  0  0  0  0  0  0  0  0  0
   91.4027   98.2888  -44.1473 C   0  0  0  0  0  0  0  0  0  0  0  0
   91.3010   97.1395  -44.8115 N   0  0  0  0  0  0  0  0  0  0  0  0
   91.4608   95.9278  -44.2378 C   0  0  0  0  0  0  0  0  0  0  0  0
   91.7458   95.8485  -42.8908 C   0  0  0  0  0  0  0  0  0  0  0  0
   91.8608   97.0119  -42.1629 C   0  0  0  0  0  0  0  0  0  0  0  0
   92.1549   96.9259  -40.7735 N   0  0  0  0  0  0  0  0  0  0  0  0
   91.9114   94.5970  -42.2943 C   0  0  0  0  0  0  0  0  0  0  0  0
   91.8013   93.4219  -43.0041 C   0  0  0  0  0  0  0  0  0  0  0  0
   91.5152   93.5075  -44.3515 C   0  0  0  0  0  0  0  0  0  0  0  0
   91.3506   94.7501  -44.9450 C   0  0  0  0  0  0  0  0  0  0  0  0
   91.4974   99.4890  -46.2094 C   0  0  0  0  0  0  0  0  0  0  0  0
   90.3095   99.9902  -44.5757 H   0  0  0  0  0  0  0  0  0  0  0  0
   93.1125   96.6021  -40.5131 H   0  0  0  0  0  0  0  0  0  0  0  0
   91.4974   97.1577  -40.0154 H   0  0  0  0  0  0  0  0  0  0  0  0
  1  2  1  0  0  0
  1  6  1  0  0  0
  1 16  1  0  0  0
  2  3  1  0  0  0
  3  4  1  0  0  0
  4  5  1  0  0  0
  5  6  2  0  0  0
  5 10  1  0  0  0
  6  7  1  0  0  0
  7  8  2  0  0  0
  8  9  1  0  0  0
  8 15  1  0  0  0
  9 10  2  0  0  0
  9 12  1  0  0  0
 10 11  1  0  0  0
 12 13  2  0  0  0
 13 14  1  0  0  0
 14 15  2  0  0  0
  1 17  1  0  0  0
 11 18  1  0  0  0
 11 19  1  0  0  0
M  CHG 1   1   1
M  END
> <minimizedAffinity>
-5.84516

$$$$
692


 29 32  0  0  0  0  0  0  0  0999 V2000
   92.2869   94.4030  -41.4110 Br  0  0  0  0  0  0  0  0  0  0  0  0
   91.8040   94.5041  -43.2457 C   0  0  0  0  0  0  0  0  0  0  0  0
   91.4293   95.7203  -43.7841 C   0  0  0  0  0  0  0  0  0  0  0  0
   91.0599   95.8636  -45.1299 C   0  0  0  0  0  0  0  0  0  0  0  0
   91.0692   94.7597  -45.9457 C   0  0  0  0  0  0  0  0  0  0  0  0
   91.4429   93.5406  -45.4136 C   0  0  0  0  0  0  0  0  0  0  0  0
   91.8057   93.3993  -44.0921 C   0  0  0  0  0  0  0  0  0  0  0  0
   91.4676   91.9896  -46.5163 Br  0  0  0  0  0  0  0  0  0  0  0  0
   90.6585   97.1657  -45.6484 C   0  0  0  0  0  0  0  0  0  0  0  0
   89.9384   97.1469  -46.6841 O   0  0  0  0  0  0  0  0  0  0  0  0
   91.0590   98.4179  -45.0168 C   0  0  0  0  0  0  0  0  0  0  0  0
   91.7854   98.0898  -43.6851 C   0  0  0  0  0  0  0  0  0  0  0  0
   91.3725   96.9154  -43.0884 O   0  0  0  0  0  0  0  0  0  0  0  0
   92.0026   99.2711  -45.7319 C   0  0  0  0  0  0  0  0  0  0  0  0
   91.7054  100.4214  -46.4509 N   0  0  0  0  0  0  0  0  0  0  0  0
   91.4890  100.3686  -47.8630 C   0  0  0  0  0  0  0  0  0  0  0  0
   90.6087  101.5973  -48.2079 C   0  0  0  0  0  0  0  0  0  0  0  0
   91.5355  102.7899  -48.0962 C   0  0  0  0  0  0  0  0  0  0  0  0
   92.7825  102.4599  -47.3062 C   0  0  0  0  0  0  0  0  0  0  0  0
   92.4727  101.6061  -46.0953 C   0  0  0  0  0  0  0  0  0  0  0  0
   90.7159  100.6907  -46.0926 H   0  0  0  0  0  0  0  0  0  0  0  0
   89.7962   99.2019  -44.6957 C   0  0  0  0  0  0  0  0  0  0  0  0
   88.9013   98.4916  -43.8156 N   0  0  0  0  0  0  0  0  0  0  0  0
   87.6002   98.4208  -44.4652 C   0  0  0  0  0  0  0  0  0  0  0  0
   87.1685   99.7985  -44.8442 C   0  0  0  0  0  0  0  0  0  0  0  0
   87.1773  100.7904  -43.7397 C   0  0  0  0  0  0  0  0  0  0  0  0
   88.2656  100.6241  -42.7361 C   0  0  0  0  0  0  0  0  0  0  0  0
   88.6384   99.1691  -42.5590 C   0  0  0  0  0  0  0  0  0  0  0  0
   89.2673   97.5540  -43.5726 H   0  0  0  0  0  0  0  0  0  0  0  0
  1  2  1  0  0  0
  2  3  2  0  0  0
  2  7  1  0  0  0
  3  4  1  0  0  0
  3 13  1  0  0  0
  4  5  2  0  0  0
  4  9  1  0  0  0
  5  6  1  0  0  0
  6  7  2  0  0  0
  6  8  1  0  0  0
  9 10  2  0  0  0
  9 11  1  0  0  0
 11 12  1  0  0  0
 11 14  1  0  0  0
 11 22  1  0  0  0
 12 13  1  0  0  0
 14 15  1  0  0  0
 15 16  1  0  0  0
 15 20  1  0  0  0
 16 17  1  0  0  0
 17 18  1  0  0  0
 18 19  1  0  0  0
 19 20  1  0  0  0
 22 23  1  0  0  0
 23 24  1  0  0  0
 23 28  1  0  0  0
 24 25  1  0  0  0
 25 26  1  0  0  0
 26 27  1  0  0  0
 27 28  1  0  0  0
 15 21  1  0  0  0
 23 29  1  0  0  0
M  CHG 1  15   1
M  CHG 1  23   1
M  END
> <minimizedAffinity>
-6.21737

$$$$
693


 33 36  0  0  0  0  0  0  0  0999 V2000
   90.1420   99.0608  -46.2369 N   0  0  0  0  0  0  0  0  0  0  0  0
   91.0676   99.9379  -46.8449 C   0  0  0  0  0  0  0  0  0  0  0  0
   92.0831   99.4898  -47.4164 O   0  0  0  0  0  0  0  0  0  0  0  0
   89.2754   99.3639  -45.7435 H   0  0  0  0  0  0  0  0  0  0  0  0
   92.5016   93.6065  -41.7387 Br  0  0  0  0  0  0  0  0  0  0  0  0
   91.9202   94.0155  -43.5159 C   0  0  0  0  0  0  0  0  0  0  0  0
   91.5567   95.2949  -43.8834 C   0  0  0  0  0  0  0  0  0  0  0  0
   91.1368   95.6030  -45.1662 C   0  0  0  0  0  0  0  0  0  0  0  0
   91.0981   94.5610  -46.0669 C   0  0  0  0  0  0  0  0  0  0  0  0
   91.4519   93.2720  -45.7374 C   0  0  0  0  0  0  0  0  0  0  0  0
   91.8704   92.9803  -44.4495 C   0  0  0  0  0  0  0  0  0  0  0  0
   91.3762   91.8714  -47.0361 Br  0  0  0  0  0  0  0  0  0  0  0  0
   90.8178   97.0178  -45.2868 C   0  0  0  0  0  0  0  0  0  0  0  0
   90.4020   97.6883  -46.2949 N   0  0  0  0  0  0  0  0  0  0  0  0
   91.0715   97.5949  -43.9622 C   0  0  0  0  0  0  0  0  0  0  0  0
   90.9039   98.8122  -43.6827 O   0  0  0  0  0  0  0  0  0  0  0  0
   91.5127   96.5190  -43.1581 N   0  0  0  0  0  0  0  0  0  0  0  0
   91.7728   96.6075  -42.1612 H   0  0  0  0  0  0  0  0  0  0  0  0
   90.8860  101.4240  -46.8377 C   0  0  0  0  0  0  0  0  0  0  0  0
   90.9688  101.9693  -45.5107 N   0  0  0  0  0  0  0  0  0  0  0  0
   89.8431  102.0796  -44.6498 C   0  0  0  0  0  0  0  0  0  0  0  0
   88.7341  101.6831  -45.0695 O   0  0  0  0  0  0  0  0  0  0  0  0
   91.8778  102.3112  -45.1193 H   0  0  0  0  0  0  0  0  0  0  0  0
   89.9130  102.6466  -43.2697 C   0  0  0  0  0  0  0  0  0  0  0  0
   91.1807  103.1555  -42.9781 O   0  0  0  0  0  0  0  0  0  0  0  0
   92.0789  102.5877  -42.0771 C   0  0  0  0  0  0  0  0  0  0  0  0
   91.5669  101.7071  -41.1612 C   0  0  0  0  0  0  0  0  0  0  0  0
   92.4433  101.1240  -40.2458 C   0  0  0  0  0  0  0  0  0  0  0  0
   93.7910  101.4025  -40.2324 C   0  0  0  0  0  0  0  0  0  0  0  0
   94.2707  102.2954  -41.1709 C   0  0  0  0  0  0  0  0  0  0  0  0
   93.4115  102.8732  -42.0760 C   0  0  0  0  0  0  0  0  0  0  0  0
   90.2290  101.4239  -41.1659 O   0  0  0  0  0  0  0  0  0  0  0  0
   89.3782  101.7136  -42.2406 C   0  0  0  0  0  0  0  0  0  0  0  0
  5  6  1  0  0  0
  6  7  2  0  0  0
  6 11  1  0  0  0
  7  8  1  0  0  0
  7 17  1  0  0  0
  8  9  2  0  0  0
  8 13  1  0  0  0
  9 10  1  0  0  0
 10 11  2  0  0  0
 10 12  1  0  0  0
 13 14  2  0  0  0
 13 15  1  0  0  0
 14  1  1  0  0  0
  1  2  1  0  0  0
  2  3  2  0  0  0
  2 19  1  0  0  0
 19 20  1  0  0  0
 20 21  1  0  0  0
 21 22  2  0  0  0
 21 24  1  0  0  0
 24 25  1  0  0  0
 24 33  1  0  0  0
 25 26  1  0  0  0
 26 27  2  0  0  0
 26 31  1  0  0  0
 27 28  1  0  0  0
 27 32  1  0  0  0
 28 29  2  0  0  0
 29 30  1  0  0  0
 30 31  2  0  0  0
 32 33  1  0  0  0
 15 16  2  0  0  0
 15 17  1  0  0  0
  1  4  1  0  0  0
 20 23  1  0  0  0
 17 18  1  0  0  0
M  END
> <minimizedAffinity>
-7.05919

$$$$
695


 22 25  0  0  0  0  0  0  0  0999 V2000
   91.8583   99.9805  -42.3742 C   0  0  0  0  0  0  0  0  0  0  0  0
   91.9129   94.7558  -41.1810 Br  0  0  0  0  0  0  0  0  0  0  0  0
   91.7530   96.2141  -42.4212 C   0  0  0  0  0  0  0  0  0  0  0  0
   91.5330   95.9009  -43.7459 C   0  0  0  0  0  0  0  0  0  0  0  0
   91.4182   96.9428  -44.6329 C   0  0  0  0  0  0  0  0  0  0  0  0
   91.5245   98.2631  -44.1913 C   0  0  0  0  0  0  0  0  0  0  0  0
   91.7439   98.5860  -42.8723 C   0  0  0  0  0  0  0  0  0  0  0  0
   91.8592   97.5172  -41.9784 C   0  0  0  0  0  0  0  0  0  0  0  0
   91.2023   96.3685  -45.8869 O   0  0  0  0  0  0  0  0  0  0  0  0
   91.7062   95.0250  -45.8293 C   0  0  0  0  0  0  0  0  0  0  0  0
   91.3849   94.7102  -44.4669 O   0  0  0  0  0  0  0  0  0  0  0  0
   92.5735   99.9847  -41.1216 N   0  0  0  0  0  0  0  0  0  0  0  0
   93.0921   99.1566  -40.7835 H   0  0  0  0  0  0  0  0  0  0  0  0
   92.5550  101.1859  -40.3277 C   0  0  0  0  0  0  0  0  0  0  0  0
   91.4029  101.6964  -39.8723 N   0  0  0  0  0  0  0  0  0  0  0  0
   91.3948  102.8187  -39.1313 C   0  0  0  0  0  0  0  0  0  0  0  0
   92.5751  103.4841  -38.8142 C   0  0  0  0  0  0  0  0  0  0  0  0
   93.7170  102.9701  -39.2704 N   0  0  0  0  0  0  0  0  0  0  0  0
   93.7288  101.8371  -40.0190 C   0  0  0  0  0  0  0  0  0  0  0  0
   95.0070  101.5662  -40.3293 N   0  0  0  0  0  0  0  0  0  0  0  0
   95.7997  102.4853  -39.8044 N   0  0  0  0  0  0  0  0  0  0  0  0
   95.0048  103.3422  -39.1579 C   0  0  0  0  0  0  0  0  0  0  0  0
  2  3  1  0  0  0
  3  4  2  0  0  0
  3  8  1  0  0  0
  4  5  1  0  0  0
  4 11  1  0  0  0
  5  6  2  0  0  0
  5  9  1  0  0  0
  6  7  1  0  0  0
  7  8  2  0  0  0
  7  1  1  0  0  0
  1 12  1  0  0  0
 12 14  1  0  0  0
 14 15  2  0  0  0
 14 19  1  0  0  0
 15 16  1  0  0  0
 16 17  2  0  0  0
 17 18  1  0  0  0
 18 19  1  0  0  0
 18 22  1  0  0  0
 19 20  2  0  0  0
 20 21  1  0  0  0
 21 22  2  0  0  0
  9 10  1  0  0  0
 10 11  1  0  0  0
 12 13  1  0  0  0
M  END
> <minimizedAffinity>
-6.36246

$$$$
696


 28 31  0  0  0  0  0  0  0  0999 V2000
   91.7590   94.6752  -41.2734 Br  0  0  0  0  0  0  0  0  0  0  0  0
   91.5732   94.8522  -43.1542 C   0  0  0  0  0  0  0  0  0  0  0  0
   91.4561   96.1323  -43.7125 C   0  0  0  0  0  0  0  0  0  0  0  0
   91.3290   96.3216  -45.0546 C   0  0  0  0  0  0  0  0  0  0  0  0
   91.3140   95.2116  -45.8811 C   0  0  0  0  0  0  0  0  0  0  0  0
   91.4292   93.9379  -45.3358 C   0  0  0  0  0  0  0  0  0  0  0  0
   91.5588   93.7498  -43.9794 C   0  0  0  0  0  0  0  0  0  0  0  0
   91.4175   92.7171  -46.1914 C   0  0  0  0  0  0  0  0  0  0  0  0
   91.2489   97.6927  -45.6280 C   0  0  0  0  0  0  0  0  0  0  0  0
   90.6199   98.7363  -44.7766 C   0  0  0  0  0  0  0  0  0  0  0  0
   90.4585   98.2429  -43.3186 C   0  0  0  0  0  0  0  0  0  0  0  0
   91.4565   97.3002  -42.9632 O   0  0  0  0  0  0  0  0  0  0  0  0
   92.6076   97.9667  -45.9510 O   0  0  0  0  0  0  0  0  0  0  0  0
   92.8647   97.5401  -46.7862 H   0  0  0  0  0  0  0  0  0  0  0  0
   89.1912   99.0480  -45.1803 C   0  0  0  0  0  0  0  0  0  0  0  0
   88.2001   98.1446  -44.6364 N   0  0  0  0  0  0  0  0  0  0  0  0
   87.6361   97.3321  -45.7145 C   0  0  0  0  0  0  0  0  0  0  0  0
   86.2935   96.8737  -45.2800 C   0  0  0  0  0  0  0  0  0  0  0  0
   86.0334   97.6430  -44.0292 C   0  0  0  0  0  0  0  0  0  0  0  0
   86.9956   98.8267  -44.1932 C   0  0  0  0  0  0  0  0  0  0  0  0
   88.5161   97.5613  -43.8484 H   0  0  0  0  0  0  0  0  0  0  0  0
   91.4636   99.9467  -44.6425 C   0  0  0  0  0  0  0  0  0  0  0  0
   91.5515  100.8494  -43.6151 N   0  0  0  0  0  0  0  0  0  0  0  0
   92.9699  101.1638  -43.3311 C   0  0  0  0  0  0  0  0  0  0  0  0
   93.0134  102.5827  -42.9150 C   0  0  0  0  0  0  0  0  0  0  0  0
   91.8160  103.2325  -43.4948 C   0  0  0  0  0  0  0  0  0  0  0  0
   90.8530  102.0648  -43.7011 C   0  0  0  0  0  0  0  0  0  0  0  0
   91.2978  100.3747  -42.6406 H   0  0  0  0  0  0  0  0  0  0  0  0
  1  2  1  0  0  0
  2  3  2  0  0  0
  2  7  1  0  0  0
  3  4  1  0  0  0
  3 12  1  0  0  0
  4  5  2  0  0  0
  4  9  1  0  0  0
  5  6  1  0  0  0
  6  7  2  0  0  0
  6  8  1  0  0  0
  9 10  1  0  0  0
  9 13  1  0  0  0
 10 11  1  0  0  0
 10 15  1  0  0  0
 10 22  1  0  0  0
 11 12  1  0  0  0
 15 16  1  0  0  0
 16 17  1  0  0  0
 16 20  1  0  0  0
 17 18  1  0  0  0
 18 19  1  0  0  0
 19 20  1  0  0  0
 22 23  1  0  0  0
 23 24  1  0  0  0
 23 27  1  0  0  0
 24 25  1  0  0  0
 25 26  1  0  0  0
 26 27  1  0  0  0
 16 21  1  0  0  0
 23 28  1  0  0  0
 13 14  1  0  0  0
M  CHG 1  16   1
M  CHG 1  23   1
M  END
> <minimizedAffinity>
-6.57298

$$$$
699


 32 35  0  0  0  0  0  0  0  0999 V2000
   88.9616  100.0619  -42.2645 C   0  0  0  0  0  0  0  0  0  0  0  0
   87.7521  100.6884  -42.1111 O   0  0  0  0  0  0  0  0  0  0  0  0
   87.2433  100.8118  -42.9329 H   0  0  0  0  0  0  0  0  0  0  0  0
   89.0129   99.1588  -43.4708 C   0  0  0  0  0  0  0  0  0  0  0  0
   90.3356   98.7724  -43.7902 O   0  0  0  0  0  0  0  0  0  0  0  0
   91.8543   96.8628  -41.9628 Br  0  0  0  0  0  0  0  0  0  0  0  0
   91.1865   96.5031  -43.7076 C   0  0  0  0  0  0  0  0  0  0  0  0
   91.3808   95.2533  -44.2617 C   0  0  0  0  0  0  0  0  0  0  0  0
   90.9072   94.9644  -45.5245 C   0  0  0  0  0  0  0  0  0  0  0  0
   90.2411   95.9719  -46.1920 C   0  0  0  0  0  0  0  0  0  0  0  0
   90.0506   97.2187  -45.6306 C   0  0  0  0  0  0  0  0  0  0  0  0
   90.5210   97.5176  -44.3677 C   0  0  0  0  0  0  0  0  0  0  0  0
   91.1023   93.7108  -46.0799 C   0  0  0  0  0  0  0  0  0  0  0  0
   91.7677   92.7024  -45.4132 C   0  0  0  0  0  0  0  0  0  0  0  0
   92.2428   92.9911  -44.1491 C   0  0  0  0  0  0  0  0  0  0  0  0
   92.0485   94.2409  -43.5950 C   0  0  0  0  0  0  0  0  0  0  0  0
   90.1012  101.0209  -42.2705 C   0  0  0  0  0  0  0  0  0  0  0  0
   90.8087  101.0985  -41.0118 N   0  0  0  0  0  0  0  0  0  0  0  0
   90.7205  102.4769  -40.5633 C   0  0  0  0  0  0  0  0  0  0  0  0
   91.6438  102.7521  -39.3677 C   0  0  0  0  0  0  0  0  0  0  0  0
   92.9761  102.4307  -39.7354 N   0  0  0  0  0  0  0  0  0  0  0  0
   93.1258  101.8734  -41.0958 C   0  0  0  0  0  0  0  0  0  0  0  0
   92.1949  100.7152  -41.2348 C   0  0  0  0  0  0  0  0  0  0  0  0
   94.1033  102.6038  -38.9242 C   0  0  0  0  0  0  0  0  0  0  0  0
   95.2285  102.2230  -39.5073 O   0  0  0  0  0  0  0  0  0  0  0  0
   90.4036  100.4968  -40.2640 H   0  0  0  0  0  0  0  0  0  0  0  0
   94.2654  103.1074  -37.5988 C   0  0  0  0  0  0  0  0  0  0  0  0
   94.3553  102.3748  -36.4498 C   0  0  0  0  0  0  0  0  0  0  0  0
   94.5125  102.9295  -35.1872 C   0  0  0  0  0  0  0  0  0  0  0  0
   94.5867  104.2774  -35.0397 C   0  0  0  0  0  0  0  0  0  0  0  0
   94.4991  105.0463  -36.1819 C   0  0  0  0  0  0  0  0  0  0  0  0
   94.3429  104.4981  -37.4300 C   0  0  0  0  0  0  0  0  0  0  0  0
  6  7  1  0  0  0
  7  8  2  0  0  0
  7 12  1  0  0  0
  8  9  1  0  0  0
  8 16  1  0  0  0
  9 10  2  0  0  0
  9 13  1  0  0  0
 10 11  1  0  0  0
 11 12  2  0  0  0
 12  5  1  0  0  0
  5  4  1  0  0  0
  4  1  1  0  0  0
  1  2  1  0  0  0
  1 17  1  0  0  0
 17 18  1  0  0  0
 18 19  1  0  0  0
 18 23  1  0  0  0
 19 20  1  0  0  0
 20 21  1  0  0  0
 21 22  1  0  0  0
 21 24  1  0  0  0
 22 23  1  0  0  0
 24 25  2  0  0  0
 24 27  1  0  0  0
 27 28  2  0  0  0
 27 32  1  0  0  0
 28 29  1  0  0  0
 29 30  2  0  0  0
 30 31  1  0  0  0
 31 32  2  0  0  0
 13 14  2  0  0  0
 14 15  1  0  0  0
 15 16  2  0  0  0
  2  3  1  0  0  0
 18 26  1  0  0  0
M  CHG 1  18   1
M  END
> <minimizedAffinity>
-6.96853

$$$$
706


 30 33  0  0  0  0  0  0  0  0999 V2000
   89.8352   99.4601  -45.6196 C   0  0  0  0  0  0  0  0  0  0  0  0
   88.0768   99.4676  -42.8228 Br  0  0  0  0  0  0  0  0  0  0  0  0
   87.8438   98.5869  -44.5230 C   0  0  0  0  0  0  0  0  0  0  0  0
   88.6477   98.6746  -45.5992 N   0  0  0  0  0  0  0  0  0  0  0  0
   88.1524   97.9164  -46.5901 C   0  0  0  0  0  0  0  0  0  0  0  0
   86.9938   97.3307  -46.1183 C   0  0  0  0  0  0  0  0  0  0  0  0
   86.8375   97.7613  -44.8596 N   0  0  0  0  0  0  0  0  0  0  0  0
   86.3033   96.5099  -46.9356 N   0  0  0  0  0  0  0  0  0  0  0  0
   86.6978   96.2340  -48.1984 C   0  0  0  0  0  0  0  0  0  0  0  0
   86.0193   95.4565  -48.9337 O   0  0  0  0  0  0  0  0  0  0  0  0
   87.8218   96.7866  -48.6899 N   0  0  0  0  0  0  0  0  0  0  0  0
   88.5179   97.6062  -47.8833 C   0  0  0  0  0  0  0  0  0  0  0  0
   89.5631   98.1225  -48.3287 O   0  0  0  0  0  0  0  0  0  0  0  0
   88.2251   96.4743  -50.0475 C   0  0  0  0  0  0  0  0  0  0  0  0
   85.0889   95.9011  -46.4326 C   0  0  0  0  0  0  0  0  0  0  0  0
   91.1300   98.7399  -45.5167 C   0  0  0  0  0  0  0  0  0  0  0  0
   91.3816   98.0064  -44.3219 N   0  0  0  0  0  0  0  0  0  0  0  0
   91.4425   96.6548  -44.2257 C   0  0  0  0  0  0  0  0  0  0  0  0
   91.6945   96.3024  -42.9228 C   0  0  0  0  0  0  0  0  0  0  0  0
   91.7825   97.4651  -42.2554 N   0  0  0  0  0  0  0  0  0  0  0  0
   91.5938   98.4920  -43.0956 C   0  0  0  0  0  0  0  0  0  0  0  0
   91.6090  100.3718  -42.6682 Br  0  0  0  0  0  0  0  0  0  0  0  0
   91.8127   95.0124  -42.5094 N   0  0  0  0  0  0  0  0  0  0  0  0
   91.6692   94.0604  -43.4490 C   0  0  0  0  0  0  0  0  0  0  0  0
   91.7765   92.8596  -43.0786 O   0  0  0  0  0  0  0  0  0  0  0  0
   91.4214   94.3462  -44.7392 N   0  0  0  0  0  0  0  0  0  0  0  0
   91.3072   95.6131  -45.1347 C   0  0  0  0  0  0  0  0  0  0  0  0
   91.0756   95.9486  -46.3273 O   0  0  0  0  0  0  0  0  0  0  0  0
   91.2755   93.2839  -45.7118 C   0  0  0  0  0  0  0  0  0  0  0  0
   92.0817   94.6756  -41.1178 C   0  0  0  0  0  0  0  0  0  0  0  0
  2  3  1  0  0  0
  3  4  1  0  0  0
  3  7  2  0  0  0
  4  5  1  0  0  0
  4  1  1  0  0  0
  5  6  2  0  0  0
  5 12  1  0  0  0
  6  7  1  0  0  0
  6  8  1  0  0  0
  8  9  1  0  0  0
  8 15  1  0  0  0
  9 10  2  0  0  0
  9 11  1  0  0  0
 11 12  1  0  0  0
 11 14  1  0  0  0
 12 13  2  0  0  0
  1 16  1  0  0  0
 16 17  1  0  0  0
 17 18  1  0  0  0
 17 21  1  0  0  0
 18 19  2  0  0  0
 18 27  1  0  0  0
 19 20  1  0  0  0
 19 23  1  0  0  0
 20 21  2  0  0  0
 21 22  1  0  0  0
 23 24  1  0  0  0
 23 30  1  0  0  0
 24 25  2  0  0  0
 24 26  1  0  0  0
 26 27  1  0  0  0
 26 29  1  0  0  0
 27 28  2  0  0  0
M  END
> <minimizedAffinity>
-6.68532

$$$$
708


 31 34  0  0  0  0  0  0  0  0999 V2000
   91.8197   99.5996  -43.2595 C   0  0  0  0  0  0  0  0  0  0  0  0
   90.8274   98.5408  -42.8769 C   0  0  0  0  0  0  0  0  0  0  0  0
   90.0635   98.4208  -46.0375 Br  0  0  0  0  0  0  0  0  0  0  0  0
   90.7390   97.0625  -44.8867 C   0  0  0  0  0  0  0  0  0  0  0  0
   91.0189   97.2810  -43.5655 N   0  0  0  0  0  0  0  0  0  0  0  0
   91.4666   96.0940  -43.1102 C   0  0  0  0  0  0  0  0  0  0  0  0
   91.4712   95.1464  -44.1210 C   0  0  0  0  0  0  0  0  0  0  0  0
   91.0097   95.7906  -45.2145 N   0  0  0  0  0  0  0  0  0  0  0  0
   91.8620   93.8705  -43.9595 N   0  0  0  0  0  0  0  0  0  0  0  0
   92.2680   93.5178  -42.7267 C   0  0  0  0  0  0  0  0  0  0  0  0
   92.6502   92.3168  -42.5220 O   0  0  0  0  0  0  0  0  0  0  0  0
   92.2784   94.4058  -41.7155 N   0  0  0  0  0  0  0  0  0  0  0  0
   91.8830   95.6995  -41.8759 C   0  0  0  0  0  0  0  0  0  0  0  0
   91.8969   96.5103  -40.9269 O   0  0  0  0  0  0  0  0  0  0  0  0
   91.8649   92.8875  -45.0218 C   0  0  0  0  0  0  0  0  0  0  0  0
   92.5902   94.1487  -40.7548 H   0  0  0  0  0  0  0  0  0  0  0  0
   91.4118  100.9994  -42.8996 C   0  0  0  0  0  0  0  0  0  0  0  0
   92.5737  101.8772  -42.9154 N   0  0  0  0  0  0  0  0  0  0  0  0
   93.4623  102.1126  -41.9232 C   0  0  0  0  0  0  0  0  0  0  0  0
   94.4182  103.0089  -42.3416 C   0  0  0  0  0  0  0  0  0  0  0  0
   94.0940  103.3165  -43.6115 N   0  0  0  0  0  0  0  0  0  0  0  0
   92.9809  102.6307  -43.9495 C   0  0  0  0  0  0  0  0  0  0  0  0
   92.0746  102.6791  -45.6298 Br  0  0  0  0  0  0  0  0  0  0  0  0
   95.4333  103.4334  -41.5664 N   0  0  0  0  0  0  0  0  0  0  0  0
   95.4857  102.9291  -40.3091 C   0  0  0  0  0  0  0  0  0  0  0  0
   96.4420  103.3260  -39.5755 O   0  0  0  0  0  0  0  0  0  0  0  0
   94.5684  102.0477  -39.8588 N   0  0  0  0  0  0  0  0  0  0  0  0
   93.5553  101.6290  -40.6447 C   0  0  0  0  0  0  0  0  0  0  0  0
   92.6866  100.8107  -40.2564 O   0  0  0  0  0  0  0  0  0  0  0  0
   96.4260  104.3878  -42.0542 C   0  0  0  0  0  0  0  0  0  0  0  0
   94.6601  101.6944  -38.8857 H   0  0  0  0  0  0  0  0  0  0  0  0
  3  4  1  0  0  0
  4  5  1  0  0  0
  4  8  2  0  0  0
  5  6  1  0  0  0
  5  2  1  0  0  0
  6  7  2  0  0  0
  6 13  1  0  0  0
  7  8  1  0  0  0
  7  9  1  0  0  0
  9 10  1  0  0  0
  9 15  1  0  0  0
 10 11  2  0  0  0
 10 12  1  0  0  0
 12 13  1  0  0  0
 13 14  2  0  0  0
  2  1  1  0  0  0
  1 17  1  0  0  0
 17 18  1  0  0  0
 18 19  1  0  0  0
 18 22  1  0  0  0
 19 20  2  0  0  0
 19 28  1  0  0  0
 20 21  1  0  0  0
 20 24  1  0  0  0
 21 22  2  0  0  0
 22 23  1  0  0  0
 24 25  1  0  0  0
 24 30  1  0  0  0
 25 26  2  0  0  0
 25 27  1  0  0  0
 27 28  1  0  0  0
 28 29  2  0  0  0
 12 16  1  0  0  0
 27 31  1  0  0  0
M  END
> <minimizedAffinity>
-6.58130

$$$$
709


 30 33  0  0  0  0  0  0  0  0999 V2000
   91.6058   99.7854  -44.7378 C   0  0  0  0  0  0  0  0  0  0  0  0
   92.1184  100.7127  -41.6716 Br  0  0  0  0  0  0  0  0  0  0  0  0
   91.9005   98.9731  -42.4284 C   0  0  0  0  0  0  0  0  0  0  0  0
   91.6846   98.7652  -43.7489 N   0  0  0  0  0  0  0  0  0  0  0  0
   91.5825   97.4247  -43.9057 C   0  0  0  0  0  0  0  0  0  0  0  0
   91.7346   96.7875  -42.6775 C   0  0  0  0  0  0  0  0  0  0  0  0
   91.9291   97.7914  -41.7927 N   0  0  0  0  0  0  0  0  0  0  0  0
   91.6783   95.4472  -42.5784 N   0  0  0  0  0  0  0  0  0  0  0  0
   91.4740   94.6889  -43.6697 C   0  0  0  0  0  0  0  0  0  0  0  0
   91.4190   93.4209  -43.5850 O   0  0  0  0  0  0  0  0  0  0  0  0
   91.3223   95.2502  -44.8829 N   0  0  0  0  0  0  0  0  0  0  0  0
   91.3778   96.6030  -44.9881 C   0  0  0  0  0  0  0  0  0  0  0  0
   91.2423   97.1684  -46.1127 O   0  0  0  0  0  0  0  0  0  0  0  0
   91.8346   94.7789  -41.3068 C   0  0  0  0  0  0  0  0  0  0  0  0
   91.1633   94.6812  -45.7419 H   0  0  0  0  0  0  0  0  0  0  0  0
   90.3283  100.5409  -44.8311 C   0  0  0  0  0  0  0  0  0  0  0  0
   89.2069   99.9000  -45.4215 N   0  0  0  0  0  0  0  0  0  0  0  0
   88.1479   99.3565  -44.7990 C   0  0  0  0  0  0  0  0  0  0  0  0
   87.2918   98.8304  -45.7438 C   0  0  0  0  0  0  0  0  0  0  0  0
   87.8852   99.0876  -46.9273 N   0  0  0  0  0  0  0  0  0  0  0  0
   89.0365   99.7296  -46.7659 C   0  0  0  0  0  0  0  0  0  0  0  0
   90.2543  100.3195  -48.1377 Br  0  0  0  0  0  0  0  0  0  0  0  0
   86.1588   98.2388  -45.3678 N   0  0  0  0  0  0  0  0  0  0  0  0
   85.8380   98.1468  -44.0747 C   0  0  0  0  0  0  0  0  0  0  0  0
   84.7615   97.5845  -43.6841 O   0  0  0  0  0  0  0  0  0  0  0  0
   86.6187   98.6342  -43.0942 N   0  0  0  0  0  0  0  0  0  0  0  0
   87.7563   99.2294  -43.4754 C   0  0  0  0  0  0  0  0  0  0  0  0
   88.4878   99.6888  -42.5704 O   0  0  0  0  0  0  0  0  0  0  0  0
   85.2537   97.6824  -46.3462 C   0  0  0  0  0  0  0  0  0  0  0  0
   86.3362   98.5453  -42.0847 H   0  0  0  0  0  0  0  0  0  0  0  0
  2  3  1  0  0  0
  3  4  1  0  0  0
  3  7  2  0  0  0
  4  5  1  0  0  0
  4  1  1  0  0  0
  5  6  2  0  0  0
  5 12  1  0  0  0
  6  7  1  0  0  0
  6  8  1  0  0  0
  8  9  1  0  0  0
  8 14  1  0  0  0
  9 10  2  0  0  0
  9 11  1  0  0  0
 11 12  1  0  0  0
 12 13  2  0  0  0
  1 16  1  0  0  0
 16 17  1  0  0  0
 17 18  1  0  0  0
 17 21  1  0  0  0
 18 19  2  0  0  0
 18 27  1  0  0  0
 19 20  1  0  0  0
 19 23  1  0  0  0
 20 21  2  0  0  0
 21 22  1  0  0  0
 23 24  1  0  0  0
 23 29  1  0  0  0
 24 25  2  0  0  0
 24 26  1  0  0  0
 26 27  1  0  0  0
 27 28  2  0  0  0
 11 15  1  0  0  0
 26 30  1  0  0  0
M  END
> <minimizedAffinity>
-6.32147

$$$$
716


 31 35  0  0  0  0  0  0  0  0999 V2000
   91.3526   97.5904  -44.2028 C   0  0  0  0  0  0  0  0  0  0  0  0
   91.6993   98.1608  -42.8462 C   0  0  0  0  0  0  0  0  0  0  0  0
   91.7804   99.6565  -42.9395 C   0  0  0  0  0  0  0  0  0  0  0  0
   90.3576  100.1423  -43.2493 C   0  0  0  0  0  0  0  0  0  0  0  0
   89.9057   99.5172  -44.5447 C   0  0  0  0  0  0  0  0  0  0  0  0
   89.9318   98.0110  -44.5107 C   0  0  0  0  0  0  0  0  0  0  0  0
   90.7775  100.0240  -45.6490 C   0  0  0  0  0  0  0  0  0  0  0  0
   92.2023   99.6002  -45.3701 C   0  0  0  0  0  0  0  0  0  0  0  0
   92.2378   98.1108  -45.2919 C   0  0  0  0  0  0  0  0  0  0  0  0
   92.6554  100.1587  -44.0391 C   0  0  0  0  0  0  0  0  0  0  0  0
   91.6388   92.4291  -45.8283 Br  0  0  0  0  0  0  0  0  0  0  0  0
   91.6052   94.0235  -44.7632 C   0  0  0  0  0  0  0  0  0  0  0  0
   91.4547   95.2920  -45.1857 N   0  0  0  0  0  0  0  0  0  0  0  0
   91.4816   96.1346  -44.1609 N   0  0  0  0  0  0  0  0  0  0  0  0
   91.6545   95.3666  -43.0696 C   0  0  0  0  0  0  0  0  0  0  0  0
   91.7316   94.0732  -43.4176 N   0  0  0  0  0  0  0  0  0  0  0  0
   92.2188  100.2570  -41.6615 C   0  0  0  0  0  0  0  0  0  0  0  0
   92.6115   99.4853  -40.7503 O   0  0  0  0  0  0  0  0  0  0  0  0
   92.1963  101.6685  -41.4691 N   0  0  0  0  0  0  0  0  0  0  0  0
   91.8584  102.2367  -42.2682 H   0  0  0  0  0  0  0  0  0  0  0  0
   92.5964  102.3336  -40.2802 C   0  0  0  0  0  0  0  0  0  0  0  0
   93.8914  102.6191  -39.9520 C   0  0  0  0  0  0  0  0  0  0  0  0
   93.8700  103.2518  -38.7549 N   0  0  0  0  0  0  0  0  0  0  0  0
   92.6213  103.3565  -38.3533 N   0  0  0  0  0  0  0  0  0  0  0  0
   91.8022  102.8065  -39.2557 C   0  0  0  0  0  0  0  0  0  0  0  0
   95.0016  103.7528  -37.9947 C   0  0  0  0  0  0  0  0  0  0  0  0
   95.1326  102.3558  -40.6520 C   0  0  0  0  0  0  0  0  0  0  0  0
   95.8823  101.4057  -40.3149 O   0  0  0  0  0  0  0  0  0  0  0  0
   95.5912  103.1325  -41.7502 N   0  0  0  0  0  0  0  0  0  0  0  0
   95.4482  102.7407  -42.7261 H   0  0  0  0  0  0  0  0  0  0  0  0
   96.0587  104.0561  -41.6740 H   0  0  0  0  0  0  0  0  0  0  0  0
 11 12  1  0  0  0
 12 13  2  0  0  0
 12 16  1  0  0  0
 13 14  1  0  0  0
 14 15  1  0  0  0
 14  1  1  0  0  0
 15 16  2  0  0  0
  1  2  1  0  0  0
  1  6  1  0  0  0
  1  9  1  0  0  0
  2  3  1  0  0  0
  3  4  1  0  0  0
  3 10  1  0  0  0
  3 17  1  0  0  0
  4  5  1  0  0  0
  5  6  1  0  0  0
  5  7  1  0  0  0
  7  8  1  0  0  0
  8  9  1  0  0  0
  8 10  1  0  0  0
 17 18  2  0  0  0
 17 19  1  0  0  0
 19 21  1  0  0  0
 21 22  2  0  0  0
 21 25  1  0  0  0
 22 23  1  0  0  0
 22 27  1  0  0  0
 23 24  1  0  0  0
 23 26  1  0  0  0
 24 25  2  0  0  0
 27 28  2  0  0  0
 27 29  1  0  0  0
 19 20  1  0  0  0
 29 30  1  0  0  0
 29 31  1  0  0  0
M  END
> <minimizedAffinity>
-6.64201

$$$$
723


 23 26  0  0  0  0  0  0  0  0999 V2000
   91.4010   98.8481  -45.6185 N   0  0  0  0  0  0  0  0  0  0  0  0
   90.2487   99.6933  -45.6389 C   0  0  0  0  0  0  0  0  0  0  0  0
   90.2714  100.6929  -46.7304 C   0  0  0  0  0  0  0  0  0  0  0  0
   91.4365  100.8267  -47.4352 O   0  0  0  0  0  0  0  0  0  0  0  0
   92.5709  100.6842  -46.6438 C   0  0  0  0  0  0  0  0  0  0  0  0
   92.6820   99.3170  -46.0496 C   0  0  0  0  0  0  0  0  0  0  0  0
   91.7788   99.7145  -42.5206 Br  0  0  0  0  0  0  0  0  0  0  0  0
   91.7104   97.8180  -42.6668 C   0  0  0  0  0  0  0  0  0  0  0  0
   91.8078   96.9153  -41.6655 N   0  0  0  0  0  0  0  0  0  0  0  0
   91.6897   95.6866  -42.1133 N   0  0  0  0  0  0  0  0  0  0  0  0
   91.5114   95.7877  -43.4429 C   0  0  0  0  0  0  0  0  0  0  0  0
   91.3229   94.8606  -44.3877 N   0  0  0  0  0  0  0  0  0  0  0  0
   91.1459   95.1981  -45.6777 C   0  0  0  0  0  0  0  0  0  0  0  0
   91.1547   96.4882  -46.0570 N   0  0  0  0  0  0  0  0  0  0  0  0
   91.3427   97.4934  -45.1471 C   0  0  0  0  0  0  0  0  0  0  0  0
   91.5189   97.1304  -43.8412 C   0  0  0  0  0  0  0  0  0  0  0  0
   91.7448   94.4757  -41.3156 C   0  0  0  0  0  0  0  0  0  0  0  0
   88.9943   98.9099  -45.5778 C   0  0  0  0  0  0  0  0  0  0  0  0
   88.1793   98.8153  -44.5264 N   0  0  0  0  0  0  0  0  0  0  0  0
   87.1552   97.9987  -44.9062 C   0  0  0  0  0  0  0  0  0  0  0  0
   87.4059   97.6380  -46.1776 N   0  0  0  0  0  0  0  0  0  0  0  0
   88.5168   98.1988  -46.5577 O   0  0  0  0  0  0  0  0  0  0  0  0
   85.9907   97.5824  -44.0916 C   0  0  0  0  0  0  0  0  0  0  0  0
  7  8  1  0  0  0
  8  9  2  0  0  0
  8 16  1  0  0  0
  9 10  1  0  0  0
 10 11  1  0  0  0
 10 17  1  0  0  0
 11 12  1  0  0  0
 11 16  2  0  0  0
 12 13  2  0  0  0
 13 14  1  0  0  0
 14 15  2  0  0  0
 15 16  1  0  0  0
 15  1  1  0  0  0
  1  2  1  0  0  0
  1  6  1  0  0  0
  2  3  1  0  0  0
  2 18  1  0  0  0
  3  4  1  0  0  0
  4  5  1  0  0  0
  5  6  1  0  0  0
 18 19  2  0  0  0
 18 22  1  0  0  0
 19 20  1  0  0  0
 20 21  2  0  0  0
 20 23  1  0  0  0
 21 22  1  0  0  0
M  END
> <minimizedAffinity>
-5.85251

$$$$
727


 21 24  0  0  0  0  0  0  0  0999 V2000
   90.6974   99.2479  -46.2256 Br  0  0  0  0  0  0  0  0  0  0  0  0
   90.9831   97.5794  -45.3547 C   0  0  0  0  0  0  0  0  0  0  0  0
   90.9162   96.3482  -45.9411 N   0  0  0  0  0  0  0  0  0  0  0  0
   91.1920   95.4373  -45.0383 N   0  0  0  0  0  0  0  0  0  0  0  0
   91.4421   96.0248  -43.8568 C   0  0  0  0  0  0  0  0  0  0  0  0
   91.7772   95.5631  -42.6414 N   0  0  0  0  0  0  0  0  0  0  0  0
   91.9869   96.3796  -41.6123 C   0  0  0  0  0  0  0  0  0  0  0  0
   91.8640   97.6934  -41.7768 N   0  0  0  0  0  0  0  0  0  0  0  0
   91.5252   98.2714  -42.9767 C   0  0  0  0  0  0  0  0  0  0  0  0
   91.3147   97.4135  -44.0270 C   0  0  0  0  0  0  0  0  0  0  0  0
   91.2405   93.9777  -45.2092 C   0  0  0  0  0  0  0  0  0  0  0  0
   91.3687   99.6528  -43.0897 N   0  0  0  0  0  0  0  0  0  0  0  0
   90.0886  100.2850  -42.8584 C   0  0  0  0  0  0  0  0  0  0  0  0
   90.1877  101.0371  -41.5146 C   0  0  0  0  0  0  0  0  0  0  0  0
   91.5366  101.6297  -41.3858 C   0  0  0  0  0  0  0  0  0  0  0  0
   91.9653  102.4700  -40.4158 N   0  0  0  0  0  0  0  0  0  0  0  0
   93.2498  102.7703  -40.6717 C   0  0  0  0  0  0  0  0  0  0  0  0
   93.6568  102.1483  -41.7765 N   0  0  0  0  0  0  0  0  0  0  0  0
   92.5957  101.4400  -42.2219 C   0  0  0  0  0  0  0  0  0  0  0  0
   92.4470  100.5555  -43.4031 C   0  0  0  0  0  0  0  0  0  0  0  0
   91.2274  102.9828  -39.2900 C   0  0  0  0  0  0  0  0  0  0  0  0
  1  2  1  0  0  0
  2  3  2  0  0  0
  2 10  1  0  0  0
  3  4  1  0  0  0
  4  5  1  0  0  0
  4 11  1  0  0  0
  5  6  1  0  0  0
  5 10  2  0  0  0
  6  7  2  0  0  0
  7  8  1  0  0  0
  8  9  2  0  0  0
  9 10  1  0  0  0
  9 12  1  0  0  0
 12 13  1  0  0  0
 12 20  1  0  0  0
 13 14  1  0  0  0
 14 15  1  0  0  0
 15 16  1  0  0  0
 15 19  2  0  0  0
 16 17  1  0  0  0
 16 21  1  0  0  0
 17 18  2  0  0  0
 18 19  1  0  0  0
 19 20  1  0  0  0
M  END
> <minimizedAffinity>
-5.49604

$$$$
729


 27 30  0  0  0  0  0  0  0  0999 V2000
   91.0466   97.5635  -44.2543 N   0  0  0  0  0  0  0  0  0  0  0  0
   91.9389   98.0123  -45.2851 C   0  0  0  0  0  0  0  0  0  0  0  0
   92.1808   99.4939  -44.9835 C   0  0  0  0  0  0  0  0  0  0  0  0
   91.1199  100.0324  -44.1248 N   0  0  0  0  0  0  0  0  0  0  0  0
   89.8191   99.5466  -44.5922 C   0  0  0  0  0  0  0  0  0  0  0  0
   89.6931   98.0581  -44.3250 C   0  0  0  0  0  0  0  0  0  0  0  0
   90.6771   95.0355  -46.1765 Br  0  0  0  0  0  0  0  0  0  0  0  0
   91.3552   94.5042  -44.4874 C   0  0  0  0  0  0  0  0  0  0  0  0
   91.6713   93.2672  -44.0643 N   0  0  0  0  0  0  0  0  0  0  0  0
   92.0954   93.2703  -42.8291 N   0  0  0  0  0  0  0  0  0  0  0  0
   92.0683   94.5455  -42.3970 C   0  0  0  0  0  0  0  0  0  0  0  0
   92.3811   95.1258  -41.2256 N   0  0  0  0  0  0  0  0  0  0  0  0
   92.2603   96.4406  -41.0219 C   0  0  0  0  0  0  0  0  0  0  0  0
   91.8174   97.2103  -42.0088 N   0  0  0  0  0  0  0  0  0  0  0  0
   91.4772   96.7199  -43.2243 C   0  0  0  0  0  0  0  0  0  0  0  0
   91.6030   95.3512  -43.4321 C   0  0  0  0  0  0  0  0  0  0  0  0
   92.5346   92.1617  -41.9935 C   0  0  0  0  0  0  0  0  0  0  0  0
   91.1525  101.4773  -44.2897 C   0  0  0  0  0  0  0  0  0  0  0  0
   91.2321  101.7516  -45.8164 C   0  0  0  0  0  0  0  0  0  0  0  0
   92.3441  102.0607  -43.6486 C   0  0  0  0  0  0  0  0  0  0  0  0
   93.0204  102.8470  -44.4341 O   0  0  0  0  0  0  0  0  0  0  0  0
   92.8210  101.8714  -42.3417 N   0  0  0  0  0  0  0  0  0  0  0  0
   92.2859  101.0386  -41.3073 C   0  0  0  0  0  0  0  0  0  0  0  0
   92.2110  101.7021  -39.9478 C   0  0  0  0  0  0  0  0  0  0  0  0
   93.3268  102.6458  -39.6587 C   0  0  0  0  0  0  0  0  0  0  0  0
   93.6508  103.5351  -40.8403 C   0  0  0  0  0  0  0  0  0  0  0  0
   94.0459  102.6128  -41.9641 C   0  0  0  0  0  0  0  0  0  0  0  0
  7  8  1  0  0  0
  8  9  2  0  0  0
  8 16  1  0  0  0
  9 10  1  0  0  0
 10 11  1  0  0  0
 10 17  1  0  0  0
 11 12  1  0  0  0
 11 16  2  0  0  0
 12 13  2  0  0  0
 13 14  1  0  0  0
 14 15  2  0  0  0
 15 16  1  0  0  0
 15  1  1  0  0  0
  1  2  1  0  0  0
  1  6  1  0  0  0
  2  3  1  0  0  0
  3  4  1  0  0  0
  4  5  1  0  0  0
  4 18  1  0  0  0
  5  6  1  0  0  0
 18 19  1  0  0  0
 18 20  1  0  0  0
 20 21  2  0  0  0
 20 22  1  0  0  0
 22 23  1  0  0  0
 22 27  1  0  0  0
 23 24  1  0  0  0
 24 25  1  0  0  0
 25 26  1  0  0  0
 26 27  1  0  0  0
M  END
> <minimizedAffinity>
-6.06752

$$$$
737


 21 24  0  0  0  0  0  0  0  0999 V2000
   91.3988   95.7762  -44.6025 C   0  0  0  0  0  0  0  0  0  0  0  0
   91.3465   94.8342  -45.5166 C   0  0  0  0  0  0  0  0  0  0  0  0
   91.4996   93.4123  -45.1723 C   0  0  0  0  0  0  0  0  0  0  0  0
   91.4496   92.4546  -46.0810 C   0  0  0  0  0  0  0  0  0  0  0  0
   91.7047   93.1404  -43.7942 N   0  0  0  0  0  0  0  0  0  0  0  0
   91.7584   94.1825  -42.8107 C   0  0  0  0  0  0  0  0  0  0  0  0
   91.6046   95.4641  -43.2393 N   0  0  0  0  0  0  0  0  0  0  0  0
   91.6947   96.2243  -42.1420 N   0  0  0  0  0  0  0  0  0  0  0  0
   91.8977   95.4735  -41.0496 C   0  0  0  0  0  0  0  0  0  0  0  0
   91.9356   94.2010  -41.4782 N   0  0  0  0  0  0  0  0  0  0  0  0
   91.8205   92.1515  -43.4855 H   0  0  0  0  0  0  0  0  0  0  0  0
   89.4198  101.7230  -47.5400 Br  0  0  0  0  0  0  0  0  0  0  0  0
   90.8797  100.5566  -47.1110 C   0  0  0  0  0  0  0  0  0  0  0  0
   90.9192   99.5807  -46.1967 N   0  0  0  0  0  0  0  0  0  0  0  0
   92.1199   99.0048  -46.2116 C   0  0  0  0  0  0  0  0  0  0  0  0
   92.8541   99.6384  -47.1636 N   0  0  0  0  0  0  0  0  0  0  0  0
   92.1093  100.6014  -47.7350 C   0  0  0  0  0  0  0  0  0  0  0  0
   92.4367   97.8796  -45.2828 C   0  0  0  0  0  0  0  0  0  0  0  0
   91.2457   97.1219  -44.9884 N   0  0  0  0  0  0  0  0  0  0  0  0
   89.9079   97.6609  -45.0630 C   0  0  0  0  0  0  0  0  0  0  0  0
   89.8787   99.1441  -45.2873 C   0  0  0  0  0  0  0  0  0  0  0  0
 12 13  1  0  0  0
 13 14  1  0  0  0
 13 17  2  0  0  0
 14 15  1  0  0  0
 14 21  1  0  0  0
 15 16  2  0  0  0
 15 18  1  0  0  0
 16 17  1  0  0  0
 18 19  1  0  0  0
 19 20  1  0  0  0
 19  1  1  0  0  0
 20 21  1  0  0  0
  1  2  2  0  0  0
  1  7  1  0  0  0
  2  3  1  0  0  0
  3  4  2  0  0  0
  3  5  1  0  0  0
  5  6  1  0  0  0
  6  7  1  0  0  0
  6 10  2  0  0  0
  7  8  1  0  0  0
  8  9  2  0  0  0
  9 10  1  0  0  0
  5 11  1  0  0  0
M  END
> <minimizedAffinity>
-6.51013

$$$$
743


 30 33  0  0  0  0  0  0  0  0999 V2000
   86.6373   97.4686  -47.0083 C   0  0  0  0  0  0  0  0  0  0  0  0
   86.6408   96.1990  -47.1375 O   0  0  0  0  0  0  0  0  0  0  0  0
   85.7762   98.0914  -46.0651 N   0  0  0  0  0  0  0  0  0  0  0  0
   84.9071   97.2834  -45.2550 C   0  0  0  0  0  0  0  0  0  0  0  0
   84.6631   97.8345  -43.8835 C   0  0  0  0  0  0  0  0  0  0  0  0
   84.8561   99.3195  -43.7899 C   0  0  0  0  0  0  0  0  0  0  0  0
   84.0208   99.8776  -42.7703 N   0  0  0  0  0  0  0  0  0  0  0  0
   84.1101  101.2925  -42.6435 C   0  0  0  0  0  0  0  0  0  0  0  0
   85.4929  101.8537  -42.6880 C   0  0  0  0  0  0  0  0  0  0  0  0
   86.5394  100.8147  -42.8642 C   0  0  0  0  0  0  0  0  0  0  0  0
   87.8444  100.8158  -42.5886 N   0  0  0  0  0  0  0  0  0  0  0  0
   88.3705   99.6314  -42.9301 C   0  0  0  0  0  0  0  0  0  0  0  0
   87.4000   98.8554  -43.4313 N   0  0  0  0  0  0  0  0  0  0  0  0
   86.2721   99.5761  -43.3940 C   0  0  0  0  0  0  0  0  0  0  0  0
   84.6428   99.9623  -45.1511 C   0  0  0  0  0  0  0  0  0  0  0  0
   85.8376   99.5476  -45.9842 C   0  0  0  0  0  0  0  0  0  0  0  0
   83.0321   99.6215  -42.9854 H   0  0  0  0  0  0  0  0  0  0  0  0
   87.5020   97.8529  -43.7926 H   0  0  0  0  0  0  0  0  0  0  0  0
   87.5567   98.2212  -47.8764 C   0  0  0  0  0  0  0  0  0  0  0  0
   88.9548   98.2802  -47.3428 C   0  0  0  0  0  0  0  0  0  0  0  0
   90.0631   96.5475  -45.9224 C   0  0  0  0  0  0  0  0  0  0  0  0
   89.9711   97.3343  -44.9341 O   0  0  0  0  0  0  0  0  0  0  0  0
   89.5551   96.9940  -47.1723 N   0  0  0  0  0  0  0  0  0  0  0  0
   89.6292   96.3517  -47.9840 H   0  0  0  0  0  0  0  0  0  0  0  0
   91.4447   91.4612  -46.8473 Br  0  0  0  0  0  0  0  0  0  0  0  0
   91.2488   93.2077  -46.0633 C   0  0  0  0  0  0  0  0  0  0  0  0
   90.5911   94.2343  -46.5122 O   0  0  0  0  0  0  0  0  0  0  0  0
   90.6712   95.2557  -45.7259 C   0  0  0  0  0  0  0  0  0  0  0  0
   91.4613   94.8935  -44.6282 C   0  0  0  0  0  0  0  0  0  0  0  0
   91.8177   93.5831  -44.8675 C   0  0  0  0  0  0  0  0  0  0  0  0
 25 26  1  0  0  0
 26 27  1  0  0  0
 26 30  2  0  0  0
 27 28  1  0  0  0
 28 29  2  0  0  0
 28 21  1  0  0  0
 29 30  1  0  0  0
 21 22  2  0  0  0
 21 23  1  0  0  0
 23 20  1  0  0  0
 20 19  1  0  0  0
 19  1  1  0  0  0
  1  2  2  0  0  0
  1  3  1  0  0  0
  3  4  1  0  0  0
  3 16  1  0  0  0
  4  5  1  0  0  0
  5  6  1  0  0  0
  6  7  1  0  0  0
  6 14  1  0  0  0
  6 15  1  0  0  0
  7  8  1  0  0  0
  8  9  1  0  0  0
  9 10  1  0  0  0
 10 11  1  0  0  0
 10 14  2  0  0  0
 11 12  2  0  0  0
 12 13  1  0  0  0
 13 14  1  0  0  0
 15 16  1  0  0  0
 23 24  1  0  0  0
  7 17  1  0  0  0
 13 18  1  0  0  0
M  END
> <minimizedAffinity>
-6.18502

$$$$
746


 30 33  0  0  0  0  0  0  0  0999 V2000
   89.8447  100.0104  -42.9689 C   0  0  0  0  0  0  0  0  0  0  0  0
   89.2178  100.7078  -42.0970 O   0  0  0  0  0  0  0  0  0  0  0  0
   89.3070   99.9769  -44.2605 N   0  0  0  0  0  0  0  0  0  0  0  0
   89.9135   99.2332  -45.3456 C   0  0  0  0  0  0  0  0  0  0  0  0
   88.9362   98.1900  -45.7914 C   0  0  0  0  0  0  0  0  0  0  0  0
   87.5903   98.7687  -46.0930 C   0  0  0  0  0  0  0  0  0  0  0  0
   87.2374   98.4235  -47.4590 N   0  0  0  0  0  0  0  0  0  0  0  0
   87.0825   96.9822  -47.5293 C   0  0  0  0  0  0  0  0  0  0  0  0
   85.6741   96.6799  -47.0049 C   0  0  0  0  0  0  0  0  0  0  0  0
   85.6233   97.2521  -45.6381 C   0  0  0  0  0  0  0  0  0  0  0  0
   84.7828   96.9735  -44.6233 N   0  0  0  0  0  0  0  0  0  0  0  0
   85.1373   97.7500  -43.5875 C   0  0  0  0  0  0  0  0  0  0  0  0
   86.1883   98.4991  -43.9668 N   0  0  0  0  0  0  0  0  0  0  0  0
   86.5174   98.2143  -45.2377 C   0  0  0  0  0  0  0  0  0  0  0  0
   87.6462  100.2916  -45.9737 C   0  0  0  0  0  0  0  0  0  0  0  0
   88.0959  100.6978  -44.6083 C   0  0  0  0  0  0  0  0  0  0  0  0
   88.0206   98.6648  -48.1283 H   0  0  0  0  0  0  0  0  0  0  0  0
   83.9847   96.2900  -44.5895 H   0  0  0  0  0  0  0  0  0  0  0  0
   91.0612   99.3300  -42.4934 C   0  0  0  0  0  0  0  0  0  0  0  0
   92.3437   99.9380  -42.9322 C   0  0  0  0  0  0  0  0  0  0  0  0
   91.8294   96.9625  -42.1395 C   0  0  0  0  0  0  0  0  0  0  0  0
   92.5409   97.3182  -41.1778 O   0  0  0  0  0  0  0  0  0  0  0  0
   91.0702   97.9215  -42.8337 N   0  0  0  0  0  0  0  0  0  0  0  0
   90.4805   97.6143  -43.6341 H   0  0  0  0  0  0  0  0  0  0  0  0
   91.6608   92.7296  -45.4067 Br  0  0  0  0  0  0  0  0  0  0  0  0
   91.7263   93.8159  -43.8186 C   0  0  0  0  0  0  0  0  0  0  0  0
   91.7490   95.1232  -43.7898 O   0  0  0  0  0  0  0  0  0  0  0  0
   91.7948   95.5623  -42.5314 C   0  0  0  0  0  0  0  0  0  0  0  0
   91.8008   94.4466  -41.7241 C   0  0  0  0  0  0  0  0  0  0  0  0
   91.7585   93.3307  -42.5209 C   0  0  0  0  0  0  0  0  0  0  0  0
 25 26  1  0  0  0
 26 27  1  0  0  0
 26 30  2  0  0  0
 27 28  1  0  0  0
 28 29  2  0  0  0
 28 21  1  0  0  0
 29 30  1  0  0  0
 21 22  2  0  0  0
 21 23  1  0  0  0
 23 19  1  0  0  0
 19 20  1  0  0  0
 19  1  1  0  0  0
  1  2  2  0  0  0
  1  3  1  0  0  0
  3  4  1  0  0  0
  3 16  1  0  0  0
  4  5  1  0  0  0
  5  6  1  0  0  0
  6  7  1  0  0  0
  6 14  1  0  0  0
  6 15  1  0  0  0
  7  8  1  0  0  0
  8  9  1  0  0  0
  9 10  1  0  0  0
 10 11  1  0  0  0
 10 14  2  0  0  0
 11 12  1  0  0  0
 12 13  2  0  0  0
 13 14  1  0  0  0
 15 16  1  0  0  0
 23 24  1  0  0  0
  7 17  1  0  0  0
 11 18  1  0  0  0
M  END
> <minimizedAffinity>
-6.62680

$$$$
754


 27 30  0  0  0  0  0  0  0  0999 V2000
   91.6831   96.4607  -42.3884 C   0  0  0  0  0  0  0  0  0  0  0  0
   91.7601   96.5800  -41.1573 O   0  0  0  0  0  0  0  0  0  0  0  0
   91.5303   97.6118  -43.1997 N   0  0  0  0  0  0  0  0  0  0  0  0
   91.4674   98.9225  -42.5858 C   0  0  0  0  0  0  0  0  0  0  0  0
   90.1660   99.6281  -42.8798 C   0  0  0  0  0  0  0  0  0  0  0  0
   89.7118   99.1332  -44.1899 N   0  0  0  0  0  0  0  0  0  0  0  0
   90.7313   98.8613  -45.1444 C   0  0  0  0  0  0  0  0  0  0  0  0
   91.4282   97.5815  -44.6462 C   0  0  0  0  0  0  0  0  0  0  0  0
   88.3151   98.9801  -44.3655 C   0  0  0  0  0  0  0  0  0  0  0  0
   87.4405   99.9615  -44.0094 N   0  0  0  0  0  0  0  0  0  0  0  0
   86.1145   99.8287  -44.1681 C   0  0  0  0  0  0  0  0  0  0  0  0
   85.6054   98.6943  -44.6954 N   0  0  0  0  0  0  0  0  0  0  0  0
   86.3917   97.6724  -45.0762 C   0  0  0  0  0  0  0  0  0  0  0  0
   87.7720   97.8453  -44.8950 C   0  0  0  0  0  0  0  0  0  0  0  0
   85.8529   96.4142  -45.6596 C   0  0  0  0  0  0  0  0  0  0  0  0
   85.2457  100.8804  -43.7824 N   0  0  0  0  0  0  0  0  0  0  0  0
   84.0912  100.6844  -42.9396 C   0  0  0  0  0  0  0  0  0  0  0  0
   84.1308  101.6378  -41.7830 C   0  0  0  0  0  0  0  0  0  0  0  0
   85.1125  102.6179  -41.9171 O   0  0  0  0  0  0  0  0  0  0  0  0
   85.0625  103.1951  -43.1829 C   0  0  0  0  0  0  0  0  0  0  0  0
   85.5142  102.2243  -44.2466 C   0  0  0  0  0  0  0  0  0  0  0  0
   91.5368   92.4757  -46.0133 Br  0  0  0  0  0  0  0  0  0  0  0  0
   91.7077   93.4916  -44.3766 C   0  0  0  0  0  0  0  0  0  0  0  0
   91.5698   94.7572  -44.2104 O   0  0  0  0  0  0  0  0  0  0  0  0
   91.7544   95.1102  -42.9742 C   0  0  0  0  0  0  0  0  0  0  0  0
   92.0394   93.9658  -42.2651 C   0  0  0  0  0  0  0  0  0  0  0  0
   92.0106   92.9283  -43.1615 C   0  0  0  0  0  0  0  0  0  0  0  0
 22 23  1  0  0  0
 23 24  1  0  0  0
 23 27  2  0  0  0
 24 25  1  0  0  0
 25 26  2  0  0  0
 25  1  1  0  0  0
 26 27  1  0  0  0
  1  2  2  0  0  0
  1  3  1  0  0  0
  3  4  1  0  0  0
  3  8  1  0  0  0
  4  5  1  0  0  0
  5  6  1  0  0  0
  6  7  1  0  0  0
  6  9  1  0  0  0
  7  8  1  0  0  0
  9 10  2  0  0  0
  9 14  1  0  0  0
 10 11  1  0  0  0
 11 12  2  0  0  0
 11 16  1  0  0  0
 12 13  1  0  0  0
 13 14  2  0  0  0
 13 15  1  0  0  0
 16 17  1  0  0  0
 16 21  1  0  0  0
 17 18  1  0  0  0
 18 19  1  0  0  0
 19 20  1  0  0  0
 20 21  1  0  0  0
M  END
> <minimizedAffinity>
-6.64619

$$$$
755


 28 31  0  0  0  0  0  0  0  0999 V2000
   88.1661   99.0911  -43.6489 C   0  0  0  0  0  0  0  0  0  0  0  0
   88.3412   99.7955  -42.6434 O   0  0  0  0  0  0  0  0  0  0  0  0
   89.2607   98.4683  -44.3047 N   0  0  0  0  0  0  0  0  0  0  0  0
   89.0454   97.6406  -45.4886 C   0  0  0  0  0  0  0  0  0  0  0  0
   90.3710   97.0412  -45.9532 C   0  0  0  0  0  0  0  0  0  0  0  0
   90.9994   96.4381  -44.7943 N   0  0  0  0  0  0  0  0  0  0  0  0
   91.2635   97.2622  -43.6465 C   0  0  0  0  0  0  0  0  0  0  0  0
   90.6274   98.6141  -43.8454 C   0  0  0  0  0  0  0  0  0  0  0  0
   91.3574   95.0503  -44.7760 C   0  0  0  0  0  0  0  0  0  0  0  0
   91.7990   94.4522  -43.6606 N   0  0  0  0  0  0  0  0  0  0  0  0
   92.1269   93.1553  -43.6741 C   0  0  0  0  0  0  0  0  0  0  0  0
   92.0292   92.4102  -44.7924 N   0  0  0  0  0  0  0  0  0  0  0  0
   91.5934   92.9487  -45.9452 C   0  0  0  0  0  0  0  0  0  0  0  0
   91.2598   94.2863  -45.9104 C   0  0  0  0  0  0  0  0  0  0  0  0
   92.6139   92.5022  -42.4335 C   0  0  0  0  0  0  0  0  0  0  0  0
   91.4728   92.2076  -47.1463 N   0  0  0  0  0  0  0  0  0  0  0  0
   90.2976   92.3518  -47.9808 C   0  0  0  0  0  0  0  0  0  0  0  0
   90.6043   91.6899  -49.3079 C   0  0  0  0  0  0  0  0  0  0  0  0
   90.8630   90.2939  -49.0795 N   0  0  0  0  0  0  0  0  0  0  0  0
   91.7691   90.0141  -48.0104 C   0  0  0  0  0  0  0  0  0  0  0  0
   92.4905   91.2815  -47.6044 C   0  0  0  0  0  0  0  0  0  0  0  0
   89.6212   89.5659  -49.0184 C   0  0  0  0  0  0  0  0  0  0  0  0
   83.8552   99.8032  -46.7653 Br  0  0  0  0  0  0  0  0  0  0  0  0
   85.0169   99.1335  -45.4041 C   0  0  0  0  0  0  0  0  0  0  0  0
   86.2420   99.5341  -45.1760 O   0  0  0  0  0  0  0  0  0  0  0  0
   86.7963   98.8940  -44.1767 C   0  0  0  0  0  0  0  0  0  0  0  0
   85.8540   98.0055  -43.7173 C   0  0  0  0  0  0  0  0  0  0  0  0
   84.7267   98.1482  -44.4849 C   0  0  0  0  0  0  0  0  0  0  0  0
 23 24  1  0  0  0
 24 25  1  0  0  0
 24 28  2  0  0  0
 25 26  1  0  0  0
 26 27  2  0  0  0
 26  1  1  0  0  0
 27 28  1  0  0  0
  1  2  2  0  0  0
  1  3  1  0  0  0
  3  4  1  0  0  0
  3  8  1  0  0  0
  4  5  1  0  0  0
  5  6  1  0  0  0
  6  7  1  0  0  0
  6  9  1  0  0  0
  7  8  1  0  0  0
  9 10  2  0  0  0
  9 14  1  0  0  0
 10 11  1  0  0  0
 11 12  2  0  0  0
 11 15  1  0  0  0
 12 13  1  0  0  0
 13 14  2  0  0  0
 13 16  1  0  0  0
 16 17  1  0  0  0
 16 21  1  0  0  0
 17 18  1  0  0  0
 18 19  1  0  0  0
 19 20  1  0  0  0
 19 22  1  0  0  0
 20 21  1  0  0  0
M  END
> <minimizedAffinity>
-6.25119

$$$$
767


 32 35  0  0  0  0  0  0  0  0999 V2000
   92.7512  101.4329  -42.6399 C   0  0  0  0  0  0  0  0  0  0  0  0
   92.1267  101.4511  -45.0479 C   0  0  0  0  0  0  0  0  0  0  0  0
   91.3370  102.4278  -44.8137 O   0  0  0  0  0  0  0  0  0  0  0  0
   92.8690  100.9134  -43.9599 N   0  0  0  0  0  0  0  0  0  0  0  0
   93.5125  100.1209  -44.1425 H   0  0  0  0  0  0  0  0  0  0  0  0
   92.9128  100.3948  -48.4392 C   0  0  0  0  0  0  0  0  0  0  0  0
   91.7063   99.8455  -48.1736 N   0  0  0  0  0  0  0  0  0  0  0  0
   91.3354  100.1708  -46.9681 O   0  0  0  0  0  0  0  0  0  0  0  0
   92.2446  100.9219  -46.4010 C   0  0  0  0  0  0  0  0  0  0  0  0
   93.2165  101.0590  -47.3106 N   0  0  0  0  0  0  0  0  0  0  0  0
   96.1383   98.3666  -52.2129 Br  0  0  0  0  0  0  0  0  0  0  0  0
   94.9915   99.4978  -51.2112 C   0  0  0  0  0  0  0  0  0  0  0  0
   94.4233   99.2752  -50.0654 O   0  0  0  0  0  0  0  0  0  0  0  0
   93.6922  100.2849  -49.6665 C   0  0  0  0  0  0  0  0  0  0  0  0
   93.7952  101.2552  -50.6463 C   0  0  0  0  0  0  0  0  0  0  0  0
   94.6237  100.7720  -51.6478 C   0  0  0  0  0  0  0  0  0  0  0  0
   91.9209  100.5522  -41.7307 C   0  0  0  0  0  0  0  0  0  0  0  0
   92.2354   99.1441  -41.9266 N   0  0  0  0  0  0  0  0  0  0  0  0
   91.3721   98.3542  -42.7050 C   0  0  0  0  0  0  0  0  0  0  0  0
   90.3541   98.9677  -43.1873 O   0  0  0  0  0  0  0  0  0  0  0  0
   93.0799   98.7124  -41.5097 H   0  0  0  0  0  0  0  0  0  0  0  0
   91.4949   96.9541  -43.0217 C   0  0  0  0  0  0  0  0  0  0  0  0
   91.2731   96.5463  -44.3364 C   0  0  0  0  0  0  0  0  0  0  0  0
   91.3930   95.2200  -44.6676 C   0  0  0  0  0  0  0  0  0  0  0  0
   91.7257   94.3031  -43.7194 C   0  0  0  0  0  0  0  0  0  0  0  0
   91.8465   92.9539  -44.0618 C   0  0  0  0  0  0  0  0  0  0  0  0
   91.6375   92.5132  -45.3459 C   0  0  0  0  0  0  0  0  0  0  0  0
   91.3015   93.4423  -46.2971 C   0  0  0  0  0  0  0  0  0  0  0  0
   91.1784   94.7758  -45.9759 C   0  0  0  0  0  0  0  0  0  0  0  0
   91.9268   94.7150  -42.5009 O   0  0  0  0  0  0  0  0  0  0  0  0
   91.8277   95.9813  -42.1129 C   0  0  0  0  0  0  0  0  0  0  0  0
   92.0464   96.2439  -40.9069 O   0  0  0  0  0  0  0  0  0  0  0  0
 11 12  1  0  0  0
 12 13  1  0  0  0
 12 16  2  0  0  0
 13 14  1  0  0  0
 14 15  2  0  0  0
 14  6  1  0  0  0
 15 16  1  0  0  0
  6  7  2  0  0  0
  6 10  1  0  0  0
  7  8  1  0  0  0
  8  9  1  0  0  0
  9 10  2  0  0  0
  9  2  1  0  0  0
  2  3  2  0  0  0
  2  4  1  0  0  0
  4  1  1  0  0  0
  1 17  1  0  0  0
 17 18  1  0  0  0
 18 19  1  0  0  0
 19 20  2  0  0  0
 19 22  1  0  0  0
 22 23  2  0  0  0
 22 31  1  0  0  0
 23 24  1  0  0  0
 24 25  2  0  0  0
 24 29  1  0  0  0
 25 26  1  0  0  0
 25 30  1  0  0  0
 26 27  2  0  0  0
 27 28  1  0  0  0
 28 29  2  0  0  0
 30 31  1  0  0  0
 31 32  2  0  0  0
  4  5  1  0  0  0
 18 21  1  0  0  0
M  END
> <minimizedAffinity>
-7.20964

$$$$
769


 26 29  0  0  0  0  0  0  0  0999 V2000
   92.7190  101.6016  -42.5800 C   0  0  0  0  0  0  0  0  0  0  0  0
   93.3909  102.3152  -43.4637 O   0  0  0  0  0  0  0  0  0  0  0  0
   91.7845  100.7230  -43.1075 N   0  0  0  0  0  0  0  0  0  0  0  0
   91.6175  100.6544  -44.5816 C   0  0  0  0  0  0  0  0  0  0  0  0
   91.8224   99.2257  -45.0260 C   0  0  0  0  0  0  0  0  0  0  0  0
   90.9099   98.3851  -44.3575 N   0  0  0  0  0  0  0  0  0  0  0  0
   90.0832   99.1009  -43.4470 C   0  0  0  0  0  0  0  0  0  0  0  0
   90.9365   99.8476  -42.3935 C   0  0  0  0  0  0  0  0  0  0  0  0
   91.6730  103.4944  -37.6763 Br  0  0  0  0  0  0  0  0  0  0  0  0
   92.7648  102.7179  -39.0009 C   0  0  0  0  0  0  0  0  0  0  0  0
   92.2872  102.4675  -40.2908 C   0  0  0  0  0  0  0  0  0  0  0  0
   93.1193  101.9015  -41.2186 C   0  0  0  0  0  0  0  0  0  0  0  0
   94.4209  101.6046  -40.8037 C   0  0  0  0  0  0  0  0  0  0  0  0
   94.8177  101.8555  -39.5971 O   0  0  0  0  0  0  0  0  0  0  0  0
   94.0634  102.3865  -38.7006 C   0  0  0  0  0  0  0  0  0  0  0  0
   94.5410  102.5905  -37.5543 O   0  0  0  0  0  0  0  0  0  0  0  0
   90.1669   97.4803  -45.1754 C   0  0  0  0  0  0  0  0  0  0  0  0
   90.6794   96.0992  -45.2261 C   0  0  0  0  0  0  0  0  0  0  0  0
   90.4666   95.2305  -46.2461 C   0  0  0  0  0  0  0  0  0  0  0  0
   90.9836   93.9595  -46.2009 C   0  0  0  0  0  0  0  0  0  0  0  0
   91.7191   93.5666  -45.1158 C   0  0  0  0  0  0  0  0  0  0  0  0
   91.9485   94.4306  -44.0687 C   0  0  0  0  0  0  0  0  0  0  0  0
   91.4261   95.6810  -44.1397 C   0  0  0  0  0  0  0  0  0  0  0  0
   92.1338   92.2568  -45.2871 O   0  0  0  0  0  0  0  0  0  0  0  0
   91.3316   91.7219  -46.3303 C   0  0  0  0  0  0  0  0  0  0  0  0
   90.9397   92.8605  -47.0730 O   0  0  0  0  0  0  0  0  0  0  0  0
  9 10  1  0  0  0
 10 11  2  0  0  0
 10 15  1  0  0  0
 11 12  1  0  0  0
 12 13  2  0  0  0
 12  1  1  0  0  0
 13 14  1  0  0  0
 14 15  1  0  0  0
 15 16  2  0  0  0
  1  2  2  0  0  0
  1  3  1  0  0  0
  3  4  1  0  0  0
  3  8  1  0  0  0
  4  5  1  0  0  0
  5  6  1  0  0  0
  6  7  1  0  0  0
  6 17  1  0  0  0
  7  8  1  0  0  0
 17 18  1  0  0  0
 18 19  2  0  0  0
 18 23  1  0  0  0
 19 20  1  0  0  0
 20 21  2  0  0  0
 20 26  1  0  0  0
 21 22  1  0  0  0
 21 24  1  0  0  0
 22 23  2  0  0  0
 24 25  1  0  0  0
 25 26  1  0  0  0
M  END
> <minimizedAffinity>
-6.40381

$$$$
776


 38 41  0  0  0  0  0  0  0  0999 V2000
   86.0906  100.2861  -44.1491 C   0  0  0  0  0  0  0  0  0  0  0  0
   87.0452  101.3409  -43.5750 C   0  0  0  0  0  0  0  0  0  0  0  0
   88.4285  101.0595  -44.0525 C   0  0  0  0  0  0  0  0  0  0  0  0
   88.8604   99.7138  -43.5146 C   0  0  0  0  0  0  0  0  0  0  0  0
   87.7923   98.9300  -43.1201 O   0  0  0  0  0  0  0  0  0  0  0  0
   86.7308   98.9446  -44.0143 C   0  0  0  0  0  0  0  0  0  0  0  0
   89.7355   99.0787  -44.5329 C   0  0  0  0  0  0  0  0  0  0  0  0
   90.2136   97.7256  -43.9837 C   0  0  0  0  0  0  0  0  0  0  0  0
   91.0736   97.9872  -42.8772 N   0  0  0  0  0  0  0  0  0  0  0  0
   91.0962   99.4207  -42.4311 C   0  0  0  0  0  0  0  0  0  0  0  0
   89.7132   99.9652  -42.2893 C   0  0  0  0  0  0  0  0  0  0  0  0
   91.8524   97.0645  -42.2065 C   0  0  0  0  0  0  0  0  0  0  0  0
   92.5832   97.5524  -41.2256 O   0  0  0  0  0  0  0  0  0  0  0  0
   87.0290  101.1708  -42.1885 O   0  0  0  0  0  0  0  0  0  0  0  0
   86.5657  102.7249  -43.8722 C   0  0  0  0  0  0  0  0  0  0  0  0
   86.2393  100.6643  -41.8720 H   0  0  0  0  0  0  0  0  0  0  0  0
   87.0469  100.6642  -49.3129 Br  0  0  0  0  0  0  0  0  0  0  0  0
   85.8870  100.8569  -47.8166 C   0  0  0  0  0  0  0  0  0  0  0  0
   86.3640  100.5234  -46.5742 C   0  0  0  0  0  0  0  0  0  0  0  0
   85.6241  100.6239  -45.4554 N   0  0  0  0  0  0  0  0  0  0  0  0
   84.3515  101.0863  -45.6461 C   0  0  0  0  0  0  0  0  0  0  0  0
   83.5925  101.2088  -44.6409 O   0  0  0  0  0  0  0  0  0  0  0  0
   83.8603  101.4157  -46.8301 N   0  0  0  0  0  0  0  0  0  0  0  0
   84.5996  101.3156  -47.9478 C   0  0  0  0  0  0  0  0  0  0  0  0
   84.1714  101.6192  -49.0883 O   0  0  0  0  0  0  0  0  0  0  0  0
   82.8861  101.7655  -46.9451 H   0  0  0  0  0  0  0  0  0  0  0  0
   92.0040   95.6649  -42.3914 C   0  0  0  0  0  0  0  0  0  0  0  0
   91.6223   95.0669  -43.6060 C   0  0  0  0  0  0  0  0  0  0  0  0
   91.7334   93.7474  -43.9096 C   0  0  0  0  0  0  0  0  0  0  0  0
   92.2828   92.9171  -42.9109 C   0  0  0  0  0  0  0  0  0  0  0  0
   92.6580   93.4690  -41.7340 C   0  0  0  0  0  0  0  0  0  0  0  0
   92.5286   94.8393  -41.4504 C   0  0  0  0  0  0  0  0  0  0  0  0
   91.3472   93.2044  -45.0987 O   0  0  0  0  0  0  0  0  0  0  0  0
   91.7669   92.1011  -45.7803 C   0  0  0  0  0  0  0  0  0  0  0  0
   91.1321   91.9683  -47.1222 C   0  0  0  0  0  0  0  0  0  0  0  0
   90.9542   90.5511  -47.4414 N   0  0  0  0  0  0  0  0  0  0  0  0
   90.1088   90.1571  -47.0035 H   0  0  0  0  0  0  0  0  0  0  0  0
   91.8101   90.0026  -47.3135 H   0  0  0  0  0  0  0  0  0  0  0  0
 17 18  1  0  0  0
 18 19  2  0  0  0
 18 24  1  0  0  0
 19 20  1  0  0  0
 20 21  1  0  0  0
 20  1  1  0  0  0
 21 22  2  0  0  0
 21 23  1  0  0  0
 23 24  1  0  0  0
 24 25  2  0  0  0
  1  2  1  0  0  0
  1  6  1  0  0  0
  2  3  1  0  0  0
  2 14  1  0  0  0
  2 15  1  0  0  0
  3  4  1  0  0  0
  4  5  1  0  0  0
  4  7  1  0  0  0
  4 11  1  0  0  0
  5  6  1  0  0  0
  7  8  1  0  0  0
  8  9  1  0  0  0
  9 10  1  0  0  0
  9 12  1  0  0  0
 10 11  1  0  0  0
 12 13  2  0  0  0
 12 27  1  0  0  0
 27 28  2  0  0  0
 27 32  1  0  0  0
 28 29  1  0  0  0
 29 30  2  0  0  0
 29 33  1  0  0  0
 30 31  1  0  0  0
 31 32  2  0  0  0
 33 34  1  0  0  0
 34 35  1  0  0  0
 35 36  1  0  0  0
 23 26  1  0  0  0
 36 37  1  0  0  0
 36 38  1  0  0  0
 14 16  1  0  0  0
M  END
> <minimizedAffinity>
-7.00542

$$$$
783


 39 42  0  0  0  0  0  0  0  0999 V2000
   92.3606  102.6058  -42.1457 C   0  0  0  0  0  0  0  0  0  0  0  0
   92.4555  101.2287  -42.6693 C   0  0  0  0  0  0  0  0  0  0  0  0
   91.4315  100.9032  -43.7633 C   0  0  0  0  0  0  0  0  0  0  0  0
   90.0323  101.2042  -43.2866 C   0  0  0  0  0  0  0  0  0  0  0  0
   90.0291  102.1132  -42.2455 O   0  0  0  0  0  0  0  0  0  0  0  0
   90.9544  103.1072  -42.3288 C   0  0  0  0  0  0  0  0  0  0  0  0
   89.3963   99.8865  -42.8820 C   0  0  0  0  0  0  0  0  0  0  0  0
   88.5740   99.3292  -44.0127 C   0  0  0  0  0  0  0  0  0  0  0  0
   89.2760   99.5557  -45.2502 N   0  0  0  0  0  0  0  0  0  0  0  0
   89.3752  100.9437  -45.6766 C   0  0  0  0  0  0  0  0  0  0  0  0
   89.2654  101.8058  -44.4399 C   0  0  0  0  0  0  0  0  0  0  0  0
   89.8020   98.4924  -45.9882 C   0  0  0  0  0  0  0  0  0  0  0  0
   90.4095   98.8218  -47.0713 O   0  0  0  0  0  0  0  0  0  0  0  0
   93.7020  101.1246  -43.3387 O   0  0  0  0  0  0  0  0  0  0  0  0
   92.4576  100.1441  -41.6416 C   0  0  0  0  0  0  0  0  0  0  0  0
   93.8563  101.8892  -43.9411 H   0  0  0  0  0  0  0  0  0  0  0  0
   90.9742  103.3803  -37.1294 Br  0  0  0  0  0  0  0  0  0  0  0  0
   92.2903  103.1102  -38.5027 C   0  0  0  0  0  0  0  0  0  0  0  0
   91.9027  102.9507  -39.8130 C   0  0  0  0  0  0  0  0  0  0  0  0
   92.8009  102.7627  -40.7741 N   0  0  0  0  0  0  0  0  0  0  0  0
   94.0998  102.7248  -40.4887 C   0  0  0  0  0  0  0  0  0  0  0  0
   94.9918  102.5467  -41.3827 O   0  0  0  0  0  0  0  0  0  0  0  0
   94.4972  102.8774  -39.2161 N   0  0  0  0  0  0  0  0  0  0  0  0
   93.6355  103.0708  -38.2005 C   0  0  0  0  0  0  0  0  0  0  0  0
   94.0421  103.2118  -37.0099 O   0  0  0  0  0  0  0  0  0  0  0  0
   95.5367  102.8468  -38.9881 H   0  0  0  0  0  0  0  0  0  0  0  0
   89.7584   97.0607  -45.7102 C   0  0  0  0  0  0  0  0  0  0  0  0
   88.8885   96.3474  -46.6464 N   0  0  0  0  0  0  0  0  0  0  0  0
   88.0378   96.9081  -46.8700 H   0  0  0  0  0  0  0  0  0  0  0  0
   88.5473   95.4710  -46.1794 H   0  0  0  0  0  0  0  0  0  0  0  0
   91.0931   96.3515  -45.7637 C   0  0  0  0  0  0  0  0  0  0  0  0
   91.3501   95.8473  -44.3635 C   0  0  0  0  0  0  0  0  0  0  0  0
   91.5146   94.5068  -44.1320 C   0  0  0  0  0  0  0  0  0  0  0  0
   91.7491   94.0851  -42.8263 C   0  0  0  0  0  0  0  0  0  0  0  0
   91.8192   94.9747  -41.7786 C   0  0  0  0  0  0  0  0  0  0  0  0
   91.6486   96.3171  -42.0522 C   0  0  0  0  0  0  0  0  0  0  0  0
   91.4132   96.7658  -43.3359 C   0  0  0  0  0  0  0  0  0  0  0  0
   92.0550   94.4990  -40.5029 O   0  0  0  0  0  0  0  0  0  0  0  0
   91.3200   94.2214  -39.8526 H   0  0  0  0  0  0  0  0  0  0  0  0
 17 18  1  0  0  0
 18 19  2  0  0  0
 18 24  1  0  0  0
 19 20  1  0  0  0
 20 21  1  0  0  0
 20  1  1  0  0  0
 21 22  2  0  0  0
 21 23  1  0  0  0
 23 24  1  0  0  0
 24 25  2  0  0  0
  1  2  1  0  0  0
  1  6  1  0  0  0
  2  3  1  0  0  0
  2 14  1  0  0  0
  2 15  1  0  0  0
  3  4  1  0  0  0
  4  5  1  0  0  0
  4  7  1  0  0  0
  4 11  1  0  0  0
  5  6  1  0  0  0
  7  8  1  0  0  0
  8  9  1  0  0  0
  9 10  1  0  0  0
  9 12  1  0  0  0
 10 11  1  0  0  0
 12 13  2  0  0  0
 12 27  1  0  0  0
 27 28  1  0  0  0
 27 31  1  0  0  0
 31 32  1  0  0  0
 32 33  2  0  0  0
 32 37  1  0  0  0
 33 34  1  0  0  0
 34 35  2  0  0  0
 35 36  1  0  0  0
 35 38  1  0  0  0
 36 37  2  0  0  0
 23 26  1  0  0  0
 28 29  1  0  0  0
 28 30  1  0  0  0
 38 39  1  0  0  0
 14 16  1  0  0  0
M  END
> <minimizedAffinity>
-7.30357

$$$$
784


 39 42  0  0  0  0  0  0  0  0999 V2000
   90.7109   97.7604  -43.9431 C   0  0  0  0  0  0  0  0  0  0  0  0
   91.8650   98.7501  -44.1723 C   0  0  0  0  0  0  0  0  0  0  0  0
   91.2316  100.1230  -43.9072 C   0  0  0  0  0  0  0  0  0  0  0  0
   89.9787  100.2950  -44.7201 C   0  0  0  0  0  0  0  0  0  0  0  0
   89.8664   99.2490  -45.6039 O   0  0  0  0  0  0  0  0  0  0  0  0
   89.7267   97.9954  -45.0139 C   0  0  0  0  0  0  0  0  0  0  0  0
   90.1832  101.5532  -45.5532 C   0  0  0  0  0  0  0  0  0  0  0  0
   89.8033  102.7669  -44.7433 C   0  0  0  0  0  0  0  0  0  0  0  0
   89.8643  102.4615  -43.3040 N   0  0  0  0  0  0  0  0  0  0  0  0
   88.8785  101.5345  -42.8326 C   0  0  0  0  0  0  0  0  0  0  0  0
   88.7358  100.4765  -43.9238 C   0  0  0  0  0  0  0  0  0  0  0  0
   90.8360  103.0048  -42.4643 C   0  0  0  0  0  0  0  0  0  0  0  0
   91.7659  103.7695  -42.9332 O   0  0  0  0  0  0  0  0  0  0  0  0
   92.8965   98.5611  -43.2787 O   0  0  0  0  0  0  0  0  0  0  0  0
   92.4084   98.6412  -45.5617 C   0  0  0  0  0  0  0  0  0  0  0  0
   93.7383   98.8976  -43.6787 H   0  0  0  0  0  0  0  0  0  0  0  0
   91.7706   92.8527  -45.5540 Br  0  0  0  0  0  0  0  0  0  0  0  0
   91.6942   94.1894  -44.2144 C   0  0  0  0  0  0  0  0  0  0  0  0
   91.2391   95.4611  -44.5627 C   0  0  0  0  0  0  0  0  0  0  0  0
   91.1567   96.4538  -43.6738 N   0  0  0  0  0  0  0  0  0  0  0  0
   91.5437   96.1567  -42.3966 C   0  0  0  0  0  0  0  0  0  0  0  0
   91.4840   97.0604  -41.5193 O   0  0  0  0  0  0  0  0  0  0  0  0
   91.9851   94.9412  -42.0315 N   0  0  0  0  0  0  0  0  0  0  0  0
   92.0740   93.9319  -42.9158 C   0  0  0  0  0  0  0  0  0  0  0  0
   92.4924   92.7792  -42.5705 O   0  0  0  0  0  0  0  0  0  0  0  0
   92.2643   94.7949  -41.0252 H   0  0  0  0  0  0  0  0  0  0  0  0
   90.8799  102.7602  -41.0311 C   0  0  0  0  0  0  0  0  0  0  0  0
   92.2397  102.6118  -40.5722 N   0  0  0  0  0  0  0  0  0  0  0  0
   92.9998  101.4534  -40.4646 C   0  0  0  0  0  0  0  0  0  0  0  0
   92.6115  100.3009  -40.7462 O   0  0  0  0  0  0  0  0  0  0  0  0
   94.4337  101.5121  -39.9706 C   0  0  0  0  0  0  0  0  0  0  0  0
   92.7055  103.5251  -40.2779 H   0  0  0  0  0  0  0  0  0  0  0  0
   90.2057  103.9174  -40.2292 C   0  0  0  0  0  0  0  0  0  0  0  0
   90.8528  104.0593  -38.9128 C   0  0  0  0  0  0  0  0  0  0  0  0
   91.0512  103.1579  -37.9640 N   0  0  0  0  0  0  0  0  0  0  0  0
   91.6922  103.6968  -36.8906 C   0  0  0  0  0  0  0  0  0  0  0  0
   91.9000  104.9928  -37.1905 N   0  0  0  0  0  0  0  0  0  0  0  0
   91.3948  105.2339  -38.4188 C   0  0  0  0  0  0  0  0  0  0  0  0
   92.3789  105.6629  -36.5411 H   0  0  0  0  0  0  0  0  0  0  0  0
 17 18  1  0  0  0
 18 19  2  0  0  0
 18 24  1  0  0  0
 19 20  1  0  0  0
 20 21  1  0  0  0
 20  1  1  0  0  0
 21 22  2  0  0  0
 21 23  1  0  0  0
 23 24  1  0  0  0
 24 25  2  0  0  0
  1  2  1  0  0  0
  1  6  1  0  0  0
  2  3  1  0  0  0
  2 14  1  0  0  0
  2 15  1  0  0  0
  3  4  1  0  0  0
  4  5  1  0  0  0
  4  7  1  0  0  0
  4 11  1  0  0  0
  5  6  1  0  0  0
  7  8  1  0  0  0
  8  9  1  0  0  0
  9 10  1  0  0  0
  9 12  1  0  0  0
 10 11  1  0  0  0
 12 13  2  0  0  0
 12 27  1  0  0  0
 27 28  1  0  0  0
 27 33  1  0  0  0
 28 29  1  0  0  0
 29 30  2  0  0  0
 29 31  1  0  0  0
 33 34  1  0  0  0
 34 35  1  0  0  0
 34 38  2  0  0  0
 35 36  2  0  0  0
 36 37  1  0  0  0
 37 38  1  0  0  0
 23 26  1  0  0  0
 28 32  1  0  0  0
 37 39  1  0  0  0
 14 16  1  0  0  0
M  END
> <minimizedAffinity>
-6.34029

$$$$
786


 25 28  0  0  0  0  0  0  0  0999 V2000
   90.2965   99.2241  -42.4881 N   0  0  0  0  0  0  0  0  0  0  0  0
   90.1829  100.2087  -43.4821 C   0  0  0  0  0  0  0  0  0  0  0  0
   91.1830  100.5358  -44.1542 O   0  0  0  0  0  0  0  0  0  0  0  0
   89.4587   98.9603  -41.9354 H   0  0  0  0  0  0  0  0  0  0  0  0
   88.8878  100.8640  -43.7431 C   0  0  0  0  0  0  0  0  0  0  0  0
   88.6227  100.9402  -45.2256 C   0  0  0  0  0  0  0  0  0  0  0  0
   88.5955   99.5772  -45.7205 N   0  0  0  0  0  0  0  0  0  0  0  0
   88.0712   98.5972  -44.9666 C   0  0  0  0  0  0  0  0  0  0  0  0
   88.1828   97.4562  -45.6760 N   0  0  0  0  0  0  0  0  0  0  0  0
   88.7488   97.7090  -46.8190 N   0  0  0  0  0  0  0  0  0  0  0  0
   89.0098   99.0218  -46.8597 C   0  0  0  0  0  0  0  0  0  0  0  0
   89.6654   99.6776  -48.0334 C   0  0  0  0  0  0  0  0  0  0  0  0
   87.4965   98.7878  -43.6259 C   0  0  0  0  0  0  0  0  0  0  0  0
   87.7920  100.1172  -43.0278 C   0  0  0  0  0  0  0  0  0  0  0  0
   91.5757   98.5934  -42.2492 C   0  0  0  0  0  0  0  0  0  0  0  0
   91.4614   92.0897  -46.6160 Br  0  0  0  0  0  0  0  0  0  0  0  0
   91.5972   93.3065  -45.1431 C   0  0  0  0  0  0  0  0  0  0  0  0
   91.4355   94.6654  -45.2993 C   0  0  0  0  0  0  0  0  0  0  0  0
   91.5308   95.5341  -44.2532 N   0  0  0  0  0  0  0  0  0  0  0  0
   91.7919   95.0425  -43.0285 C   0  0  0  0  0  0  0  0  0  0  0  0
   91.8403   96.0675  -42.1603 N   0  0  0  0  0  0  0  0  0  0  0  0
   91.6122   97.2210  -42.8152 C   0  0  0  0  0  0  0  0  0  0  0  0
   91.4185   96.8700  -44.1346 C   0  0  0  0  0  0  0  0  0  0  0  0
   91.9602   93.6740  -42.8374 C   0  0  0  0  0  0  0  0  0  0  0  0
   91.8652   92.7982  -43.8898 C   0  0  0  0  0  0  0  0  0  0  0  0
 16 17  1  0  0  0
 17 18  2  0  0  0
 17 25  1  0  0  0
 18 19  1  0  0  0
 19 20  1  0  0  0
 19 23  1  0  0  0
 20 21  2  0  0  0
 20 24  1  0  0  0
 21 22  1  0  0  0
 22 23  2  0  0  0
 22 15  1  0  0  0
 15  1  1  0  0  0
  1  2  1  0  0  0
  2  3  2  0  0  0
  2  5  1  0  0  0
  5  6  1  0  0  0
  5 14  1  0  0  0
  6  7  1  0  0  0
  7  8  1  0  0  0
  7 11  1  0  0  0
  8  9  2  0  0  0
  8 13  1  0  0  0
  9 10  1  0  0  0
 10 11  2  0  0  0
 11 12  1  0  0  0
 13 14  1  0  0  0
 24 25  2  0  0  0
  1  4  1  0  0  0
M  END
> <minimizedAffinity>
-5.92914

$$$$
789


 21 24  0  0  0  0  0  0  0  0999 V2000
   90.6848   99.0706  -44.6582 C   0  0  0  0  0  0  0  0  0  0  0  0
   91.6740   99.8521  -44.6542 O   0  0  0  0  0  0  0  0  0  0  0  0
   89.3871   99.6351  -44.5688 N   0  0  0  0  0  0  0  0  0  0  0  0
   89.2272  101.0406  -44.4840 C   0  0  0  0  0  0  0  0  0  0  0  0
   87.9899  101.4647  -43.7851 C   0  0  0  0  0  0  0  0  0  0  0  0
   87.1336  100.4083  -43.3270 N   0  0  0  0  0  0  0  0  0  0  0  0
   86.9301   99.4052  -44.3556 C   0  0  0  0  0  0  0  0  0  0  0  0
   88.2710   98.7288  -44.5683 C   0  0  0  0  0  0  0  0  0  0  0  0
   85.9424  101.0904  -42.9213 C   0  0  0  0  0  0  0  0  0  0  0  0
   85.7571  102.2039  -43.9216 C   0  0  0  0  0  0  0  0  0  0  0  0
   87.0643  102.2718  -44.6793 C   0  0  0  0  0  0  0  0  0  0  0  0
   91.5089   91.5492  -46.6050 Br  0  0  0  0  0  0  0  0  0  0  0  0
   91.4804   93.1887  -45.6031 C   0  0  0  0  0  0  0  0  0  0  0  0
   91.1164   94.3826  -46.1855 C   0  0  0  0  0  0  0  0  0  0  0  0
   91.0914   95.5496  -45.4906 N   0  0  0  0  0  0  0  0  0  0  0  0
   90.7877   96.7988  -45.8064 N   0  0  0  0  0  0  0  0  0  0  0  0
   90.9161   97.6226  -44.7571 C   0  0  0  0  0  0  0  0  0  0  0  0
   91.3334   96.7867  -43.7210 C   0  0  0  0  0  0  0  0  0  0  0  0
   91.4400   95.4937  -44.1921 C   0  0  0  0  0  0  0  0  0  0  0  0
   91.7997   94.3209  -43.6067 N   0  0  0  0  0  0  0  0  0  0  0  0
   91.8322   93.1565  -44.2723 C   0  0  0  0  0  0  0  0  0  0  0  0
 12 13  1  0  0  0
 13 14  2  0  0  0
 13 21  1  0  0  0
 14 15  1  0  0  0
 15 16  1  0  0  0
 15 19  1  0  0  0
 16 17  2  0  0  0
 17 18  1  0  0  0
 17  1  1  0  0  0
 18 19  2  0  0  0
 19 20  1  0  0  0
 20 21  2  0  0  0
  1  2  2  0  0  0
  1  3  1  0  0  0
  3  4  1  0  0  0
  3  8  1  0  0  0
  4  5  1  0  0  0
  5  6  1  0  0  0
  5 11  1  0  0  0
  6  7  1  0  0  0
  6  9  1  0  0  0
  7  8  1  0  0  0
  9 10  1  0  0  0
 10 11  1  0  0  0
M  END
> <minimizedAffinity>
-5.63065

$$$$
790


 25 28  0  0  0  0  0  0  0  0999 V2000
   89.0162  100.5587  -44.3620 C   0  0  0  0  0  0  0  0  0  0  0  0
   89.0971  101.6497  -44.9962 O   0  0  0  0  0  0  0  0  0  0  0  0
   90.1166  100.0671  -43.6137 N   0  0  0  0  0  0  0  0  0  0  0  0
   89.9367   98.7901  -42.9059 C   0  0  0  0  0  0  0  0  0  0  0  0
   91.3544   98.2296  -42.7912 C   0  0  0  0  0  0  0  0  0  0  0  0
   92.0036   98.5528  -44.0268 N   0  0  0  0  0  0  0  0  0  0  0  0
   92.5579   99.9384  -44.0289 C   0  0  0  0  0  0  0  0  0  0  0  0
   91.3801  100.7858  -43.5399 C   0  0  0  0  0  0  0  0  0  0  0  0
   92.1251   97.7776  -45.1683 C   0  0  0  0  0  0  0  0  0  0  0  0
   92.8052   98.2827  -46.1550 O   0  0  0  0  0  0  0  0  0  0  0  0
   85.5181   95.7622  -48.1376 Br  0  0  0  0  0  0  0  0  0  0  0  0
   86.3104   97.0657  -46.9978 C   0  0  0  0  0  0  0  0  0  0  0  0
   85.6459   97.5354  -45.9089 C   0  0  0  0  0  0  0  0  0  0  0  0
   86.1929   98.4439  -45.1108 N   0  0  0  0  0  0  0  0  0  0  0  0
   85.7424   99.0418  -44.0064 N   0  0  0  0  0  0  0  0  0  0  0  0
   86.6905   99.8895  -43.5744 C   0  0  0  0  0  0  0  0  0  0  0  0
   87.7720   99.8324  -44.4223 C   0  0  0  0  0  0  0  0  0  0  0  0
   87.4249   98.9004  -45.3942 C   0  0  0  0  0  0  0  0  0  0  0  0
   88.0942   98.4468  -46.4658 N   0  0  0  0  0  0  0  0  0  0  0  0
   87.5640   97.5333  -47.2821 C   0  0  0  0  0  0  0  0  0  0  0  0
   91.5994   96.4530  -45.4533 C   0  0  0  0  0  0  0  0  0  0  0  0
   90.5991   96.2008  -46.3092 O   0  0  0  0  0  0  0  0  0  0  0  0
   90.3251   94.9430  -46.3758 C   0  0  0  0  0  0  0  0  0  0  0  0
   91.1586   94.2490  -45.5349 C   0  0  0  0  0  0  0  0  0  0  0  0
   91.9585   95.2225  -44.9588 C   0  0  0  0  0  0  0  0  0  0  0  0
 11 12  1  0  0  0
 12 13  2  0  0  0
 12 20  1  0  0  0
 13 14  1  0  0  0
 14 15  1  0  0  0
 14 18  1  0  0  0
 15 16  2  0  0  0
 16 17  1  0  0  0
 17 18  2  0  0  0
 17  1  1  0  0  0
 18 19  1  0  0  0
 19 20  2  0  0  0
  1  2  2  0  0  0
  1  3  1  0  0  0
  3  4  1  0  0  0
  3  8  1  0  0  0
  4  5  1  0  0  0
  5  6  1  0  0  0
  6  7  1  0  0  0
  6  9  1  0  0  0
  7  8  1  0  0  0
  9 10  2  0  0  0
  9 21  1  0  0  0
 21 22  1  0  0  0
 21 25  2  0  0  0
 22 23  1  0  0  0
 23 24  2  0  0  0
 24 25  1  0  0  0
M  END
> <minimizedAffinity>
-5.74303

$$$$
797


 28 31  0  0  0  0  0  0  0  0999 V2000
   92.1979   98.6487  -42.5562 O   0  0  0  0  0  0  0  0  0  0  0  0
   91.6609   99.9160  -42.4680 C   0  0  0  0  0  0  0  0  0  0  0  0
   91.7548  100.5522  -41.3989 O   0  0  0  0  0  0  0  0  0  0  0  0
   90.9852  100.4858  -43.6562 C   0  0  0  0  0  0  0  0  0  0  0  0
   89.8968   99.6525  -44.0798 N   0  0  0  0  0  0  0  0  0  0  0  0
   89.8770   98.8246  -45.2215 C   0  0  0  0  0  0  0  0  0  0  0  0
   90.7700   98.6394  -46.0885 O   0  0  0  0  0  0  0  0  0  0  0  0
   88.5641   98.1461  -45.2772 C   0  0  0  0  0  0  0  0  0  0  0  0
   87.8360   98.5648  -44.1966 C   0  0  0  0  0  0  0  0  0  0  0  0
   86.5689   98.1113  -43.9677 C   0  0  0  0  0  0  0  0  0  0  0  0
   86.0236   97.2129  -44.8524 C   0  0  0  0  0  0  0  0  0  0  0  0
   86.7583   96.7893  -45.9430 C   0  0  0  0  0  0  0  0  0  0  0  0
   88.0379   97.2411  -46.1831 C   0  0  0  0  0  0  0  0  0  0  0  0
   88.6534   99.5099  -43.4324 C   0  0  0  0  0  0  0  0  0  0  0  0
   88.2731  100.0862  -42.3677 O   0  0  0  0  0  0  0  0  0  0  0  0
   91.8007   97.5398  -41.7931 C   0  0  0  0  0  0  0  0  0  0  0  0
   91.3191   91.0793  -47.0895 Br  0  0  0  0  0  0  0  0  0  0  0  0
   91.3380   92.7203  -46.0968 C   0  0  0  0  0  0  0  0  0  0  0  0
   91.7186   92.7604  -44.7734 C   0  0  0  0  0  0  0  0  0  0  0  0
   91.7441   93.8951  -44.0416 N   0  0  0  0  0  0  0  0  0  0  0  0
   91.3918   95.0803  -44.5709 C   0  0  0  0  0  0  0  0  0  0  0  0
   91.4110   96.2193  -43.8573 N   0  0  0  0  0  0  0  0  0  0  0  0
   91.7851   96.2651  -42.5564 C   0  0  0  0  0  0  0  0  0  0  0  0
   92.1498   95.0607  -41.9926 C   0  0  0  0  0  0  0  0  0  0  0  0
   92.1240   93.8913  -42.7469 C   0  0  0  0  0  0  0  0  0  0  0  0
   92.4503   92.8022  -42.2496 O   0  0  0  0  0  0  0  0  0  0  0  0
   91.0009   95.0711  -45.9124 C   0  0  0  0  0  0  0  0  0  0  0  0
   90.9708   93.9197  -46.6683 C   0  0  0  0  0  0  0  0  0  0  0  0
 17 18  1  0  0  0
 18 19  2  0  0  0
 18 28  1  0  0  0
 19 20  1  0  0  0
 20 21  1  0  0  0
 20 25  1  0  0  0
 21 22  2  0  0  0
 21 27  1  0  0  0
 22 23  1  0  0  0
 23 24  2  0  0  0
 23 16  1  0  0  0
 24 25  1  0  0  0
 25 26  2  0  0  0
 16  1  1  0  0  0
  1  2  1  0  0  0
  2  3  2  0  0  0
  2  4  1  0  0  0
  4  5  1  0  0  0
  5  6  1  0  0  0
  5 14  1  0  0  0
  6  7  2  0  0  0
  6  8  1  0  0  0
  8  9  2  0  0  0
  8 13  1  0  0  0
  9 10  1  0  0  0
  9 14  1  0  0  0
 10 11  2  0  0  0
 11 12  1  0  0  0
 12 13  2  0  0  0
 14 15  2  0  0  0
 27 28  2  0  0  0
M  END
> <minimizedAffinity>
-7.04783

$$$$
800


 29 32  0  0  0  0  0  0  0  0999 V2000
   92.5126   90.2438  -47.9741 C   0  0  0  0  0  0  0  0  0  0  0  0
   93.6994   89.8999  -47.7368 O   0  0  0  0  0  0  0  0  0  0  0  0
   91.8405   90.9645  -47.0161 O   0  0  0  0  0  0  0  0  0  0  0  0
   91.0569   92.1035  -47.3183 C   0  0  0  0  0  0  0  0  0  0  0  0
   92.2824   96.7128  -40.5698 Br  0  0  0  0  0  0  0  0  0  0  0  0
   92.0798   95.4218  -41.9632 C   0  0  0  0  0  0  0  0  0  0  0  0
   91.6649   95.8418  -43.2084 C   0  0  0  0  0  0  0  0  0  0  0  0
   91.5208   94.9363  -44.1907 N   0  0  0  0  0  0  0  0  0  0  0  0
   91.7732   93.6264  -43.9914 C   0  0  0  0  0  0  0  0  0  0  0  0
   91.6217   92.7303  -44.9960 N   0  0  0  0  0  0  0  0  0  0  0  0
   91.2186   93.0950  -46.2257 C   0  0  0  0  0  0  0  0  0  0  0  0
   90.9575   94.4270  -46.4480 C   0  0  0  0  0  0  0  0  0  0  0  0
   91.1136   95.3520  -45.4108 C   0  0  0  0  0  0  0  0  0  0  0  0
   90.8802   96.5570  -45.6010 O   0  0  0  0  0  0  0  0  0  0  0  0
   92.1893   93.1991  -42.7458 C   0  0  0  0  0  0  0  0  0  0  0  0
   92.3511   94.0867  -41.7057 C   0  0  0  0  0  0  0  0  0  0  0  0
   91.9348   89.8375  -49.2818 C   0  0  0  0  0  0  0  0  0  0  0  0
   90.9864   88.7708  -49.1564 N   0  0  0  0  0  0  0  0  0  0  0  0
   91.2827   87.3913  -48.9443 C   0  0  0  0  0  0  0  0  0  0  0  0
   92.4465   86.9081  -48.8349 O   0  0  0  0  0  0  0  0  0  0  0  0
   90.0517   86.6803  -48.8807 N   0  0  0  0  0  0  0  0  0  0  0  0
   88.9766   87.5806  -49.2123 C   0  0  0  0  0  0  0  0  0  0  0  0
   88.3678   87.2957  -50.5597 C   0  0  0  0  0  0  0  0  0  0  0  0
   87.0337   87.9692  -50.4826 C   0  0  0  0  0  0  0  0  0  0  0  0
   86.7489   88.2682  -49.0398 C   0  0  0  0  0  0  0  0  0  0  0  0
   87.8087   87.4907  -48.2898 C   0  0  0  0  0  0  0  0  0  0  0  0
   89.5664   88.9181  -49.2254 C   0  0  0  0  0  0  0  0  0  0  0  0
   88.9847   90.0265  -49.2843 O   0  0  0  0  0  0  0  0  0  0  0  0
   89.9775   85.6787  -48.6326 H   0  0  0  0  0  0  0  0  0  0  0  0
  5  6  1  0  0  0
  6  7  2  0  0  0
  6 16  1  0  0  0
  7  8  1  0  0  0
  8  9  1  0  0  0
  8 13  1  0  0  0
  9 10  2  0  0  0
  9 15  1  0  0  0
 10 11  1  0  0  0
 11 12  2  0  0  0
 11  4  1  0  0  0
 12 13  1  0  0  0
 13 14  2  0  0  0
  4  3  1  0  0  0
  3  1  1  0  0  0
  1  2  2  0  0  0
  1 17  1  0  0  0
 17 18  1  0  0  0
 18 19  1  0  0  0
 18 27  1  0  0  0
 19 20  2  0  0  0
 19 21  1  0  0  0
 21 22  1  0  0  0
 22 23  1  0  0  0
 22 26  1  0  0  0
 22 27  1  0  0  0
 23 24  1  0  0  0
 24 25  1  0  0  0
 25 26  1  0  0  0
 27 28  2  0  0  0
 15 16  2  0  0  0
 21 29  1  0  0  0
M  END
> <minimizedAffinity>
-7.68000

$$$$
803


 31 34  0  0  0  0  0  0  0  0999 V2000
   91.6737  102.2679  -43.6946 Br  0  0  0  0  0  0  0  0  0  0  0  0
   91.6820  100.4122  -43.2874 C   0  0  0  0  0  0  0  0  0  0  0  0
   91.4834   99.4467  -44.2116 C   0  0  0  0  0  0  0  0  0  0  0  0
   91.5738   98.1397  -43.9488 N   0  0  0  0  0  0  0  0  0  0  0  0
   91.8771   97.7633  -42.7071 C   0  0  0  0  0  0  0  0  0  0  0  0
   91.9672   96.4355  -42.4137 N   0  0  0  0  0  0  0  0  0  0  0  0
   91.7649   95.4803  -43.3106 C   0  0  0  0  0  0  0  0  0  0  0  0
   91.4509   95.8434  -44.6005 C   0  0  0  0  0  0  0  0  0  0  0  0
   91.2217   94.8950  -45.5775 C   0  0  0  0  0  0  0  0  0  0  0  0
   91.2955   93.5261  -45.3169 C   0  0  0  0  0  0  0  0  0  0  0  0
   91.6107   93.1744  -44.0223 C   0  0  0  0  0  0  0  0  0  0  0  0
   91.8413   94.1217  -43.0399 C   0  0  0  0  0  0  0  0  0  0  0  0
   91.3650   97.2020  -44.8796 C   0  0  0  0  0  0  0  0  0  0  0  0
   91.0792   97.5458  -46.0480 O   0  0  0  0  0  0  0  0  0  0  0  0
   92.0798   98.7109  -41.7625 N   0  0  0  0  0  0  0  0  0  0  0  0
   92.0063  100.0223  -41.9450 C   0  0  0  0  0  0  0  0  0  0  0  0
   92.3161   98.2787  -40.8109 H   0  0  0  0  0  0  0  0  0  0  0  0
   92.0925  101.0225  -41.0293 N   0  0  0  0  0  0  0  0  0  0  0  0
   93.3775  100.6836  -40.7095 H   0  0  0  0  0  0  0  0  0  0  0  0
   92.1779  102.0081  -40.1268 C   0  0  0  0  0  0  0  0  0  0  0  0
   93.3644  102.1785  -39.4016 C   0  0  0  0  0  0  0  0  0  0  0  0
   93.4073  103.0027  -38.3254 C   0  0  0  0  0  0  0  0  0  0  0  0
   92.2865  103.6912  -37.9297 C   0  0  0  0  0  0  0  0  0  0  0  0
   91.0915  103.5727  -38.6038 C   0  0  0  0  0  0  0  0  0  0  0  0
   91.0726  102.7291  -39.6897 C   0  0  0  0  0  0  0  0  0  0  0  0
   94.6364  101.6007  -39.8529 C   0  0  0  0  0  0  0  0  0  0  0  0
   94.9078  100.4296  -39.4850 O   0  0  0  0  0  0  0  0  0  0  0  0
   95.5596  102.2293  -40.6372 O   0  0  0  0  0  0  0  0  0  0  0  0
   95.2155  102.9243  -41.8204 C   0  0  0  0  0  0  0  0  0  0  0  0
   95.2743  104.4361  -41.5829 C   0  0  0  0  0  0  0  0  0  0  0  0
   93.8758  104.9960  -41.6882 C   0  0  0  0  0  0  0  0  0  0  0  0
  1  2  1  0  0  0
  2  3  2  0  0  0
  2 16  1  0  0  0
  3  4  1  0  0  0
  4  5  1  0  0  0
  4 13  1  0  0  0
  5  6  2  0  0  0
  5 15  1  0  0  0
  6  7  1  0  0  0
  7  8  2  0  0  0
  7 12  1  0  0  0
  8  9  1  0  0  0
  8 13  1  0  0  0
  9 10  2  0  0  0
 10 11  1  0  0  0
 11 12  2  0  0  0
 13 14  2  0  0  0
 15 16  2  0  0  0
 16 18  1  0  0  0
 18 20  1  0  0  0
 20 21  2  0  0  0
 20 25  1  0  0  0
 21 22  1  0  0  0
 21 26  1  0  0  0
 22 23  2  0  0  0
 23 24  1  0  0  0
 24 25  2  0  0  0
 26 27  2  0  0  0
 26 28  1  0  0  0
 28 29  1  0  0  0
 29 30  1  0  0  0
 30 31  1  0  0  0
 15 17  1  0  0  0
 18 19  1  0  0  0
M  END
> <minimizedAffinity>
-6.83250

$$$$
814


 31 34  0  0  0  0  0  0  0  0999 V2000
   91.5721   96.8399  -45.0479 N   0  0  0  0  0  0  0  0  0  0  0  0
   91.7745   95.7810  -45.7983 N   0  0  0  0  0  0  0  0  0  0  0  0
   91.7724   94.6665  -45.0520 C   0  0  0  0  0  0  0  0  0  0  0  0
   91.5603   95.0467  -43.7836 N   0  0  0  0  0  0  0  0  0  0  0  0
   91.4370   96.4067  -43.7899 C   0  0  0  0  0  0  0  0  0  0  0  0
   91.1953   97.2541  -42.6235 C   0  0  0  0  0  0  0  0  0  0  0  0
   92.2588   97.1131  -41.5602 C   0  0  0  0  0  0  0  0  0  0  0  0
   92.1597   95.7902  -40.8332 C   0  0  0  0  0  0  0  0  0  0  0  0
   92.5777   94.6229  -41.6728 C   0  0  0  0  0  0  0  0  0  0  0  0
   91.4795   94.1761  -42.6274 C   0  0  0  0  0  0  0  0  0  0  0  0
   91.5079   98.2026  -45.4846 C   0  0  0  0  0  0  0  0  0  0  0  0
   90.2543   98.4855  -46.2328 C   0  0  0  0  0  0  0  0  0  0  0  0
   90.3627   98.8527  -47.4329 O   0  0  0  0  0  0  0  0  0  0  0  0
   84.6493   97.9918  -43.6926 Br  0  0  0  0  0  0  0  0  0  0  0  0
   86.3981   98.1527  -44.4796 C   0  0  0  0  0  0  0  0  0  0  0  0
   86.8116   97.2373  -45.4321 C   0  0  0  0  0  0  0  0  0  0  0  0
   88.0751   97.3479  -46.0048 C   0  0  0  0  0  0  0  0  0  0  0  0
   88.9379   98.3574  -45.6460 C   0  0  0  0  0  0  0  0  0  0  0  0
   88.4948   99.2499  -44.6957 C   0  0  0  0  0  0  0  0  0  0  0  0
   87.2535   99.1646  -44.1141 C   0  0  0  0  0  0  0  0  0  0  0  0
   91.9621   93.2802  -45.5008 C   0  0  0  0  0  0  0  0  0  0  0  0
   91.2254   92.9811  -46.6903 N   0  0  0  0  0  0  0  0  0  0  0  0
   90.5482   93.6619  -47.0640 H   0  0  0  0  0  0  0  0  0  0  0  0
   91.3761   91.7612  -47.4099 C   0  0  0  0  0  0  0  0  0  0  0  0
   90.4127   91.2937  -48.2747 C   0  0  0  0  0  0  0  0  0  0  0  0
   90.5712   90.1203  -48.9658 C   0  0  0  0  0  0  0  0  0  0  0  0
   91.7064   89.3910  -48.7994 C   0  0  0  0  0  0  0  0  0  0  0  0
   92.6727   89.8552  -47.9343 C   0  0  0  0  0  0  0  0  0  0  0  0
   92.5244   91.0347  -47.2345 C   0  0  0  0  0  0  0  0  0  0  0  0
   91.8924   88.2105  -49.4782 O   0  0  0  0  0  0  0  0  0  0  0  0
   90.9163   87.2001  -49.5372 C   0  0  0  0  0  0  0  0  0  0  0  0
 14 15  1  0  0  0
 15 16  2  0  0  0
 15 20  1  0  0  0
 16 17  1  0  0  0
 17 18  2  0  0  0
 18 19  1  0  0  0
 18 12  1  0  0  0
 19 20  2  0  0  0
 12 13  2  0  0  0
 12 11  1  0  0  0
 11  1  1  0  0  0
  1  2  1  0  0  0
  1  5  2  0  0  0
  2  3  2  0  0  0
  3  4  1  0  0  0
  3 21  1  0  0  0
  4  5  1  0  0  0
  4 10  1  0  0  0
  5  6  1  0  0  0
  6  7  1  0  0  0
  7  8  1  0  0  0
  8  9  1  0  0  0
  9 10  1  0  0  0
 21 22  1  0  0  0
 22 24  1  0  0  0
 24 25  2  0  0  0
 24 29  1  0  0  0
 25 26  1  0  0  0
 26 27  2  0  0  0
 27 28  1  0  0  0
 27 30  1  0  0  0
 28 29  2  0  0  0
 30 31  1  0  0  0
 22 23  1  0  0  0
M  END
> <minimizedAffinity>
-7.14347

$$$$
827


 29 32  0  0  0  0  0  0  0  0999 V2000
   90.3916   99.2489  -45.8916 C   0  0  0  0  0  0  0  0  0  0  0  0
   91.4250   99.0332  -44.8815 N   0  0  0  0  0  0  0  0  0  0  0  0
   91.7787  100.2345  -44.3169 C   0  0  0  0  0  0  0  0  0  0  0  0
   92.8455  100.5565  -43.6286 C   0  0  0  0  0  0  0  0  0  0  0  0
   93.3235  101.8075  -42.9719 C   0  0  0  0  0  0  0  0  0  0  0  0
   92.4948  103.0154  -43.2771 C   0  0  0  0  0  0  0  0  0  0  0  0
   91.0492  102.8122  -42.8891 C   0  0  0  0  0  0  0  0  0  0  0  0
   90.2468  102.3721  -44.0976 C   0  0  0  0  0  0  0  0  0  0  0  0
   90.7847  101.2053  -44.7192 N   0  0  0  0  0  0  0  0  0  0  0  0
   90.3396  100.8015  -46.0597 C   0  0  0  0  0  0  0  0  0  0  0  0
   90.6917   98.7261  -47.0894 O   0  0  0  0  0  0  0  0  0  0  0  0
   92.3038   98.8616  -45.5867 H   0  0  0  0  0  0  0  0  0  0  0  0
   90.0084   98.6071  -47.7650 H   0  0  0  0  0  0  0  0  0  0  0  0
   84.7826   97.9123  -43.7171 Br  0  0  0  0  0  0  0  0  0  0  0  0
   86.5031   98.3216  -44.3938 C   0  0  0  0  0  0  0  0  0  0  0  0
   87.3026   99.2234  -43.7171 C   0  0  0  0  0  0  0  0  0  0  0  0
   88.5615   99.5293  -44.1893 C   0  0  0  0  0  0  0  0  0  0  0  0
   89.0415   98.9444  -45.3380 C   0  0  0  0  0  0  0  0  0  0  0  0
   88.2509   98.0562  -46.0029 C   0  0  0  0  0  0  0  0  0  0  0  0
   86.9686   97.7306  -45.5410 C   0  0  0  0  0  0  0  0  0  0  0  0
   91.3790   97.8372  -44.2155 C   0  0  0  0  0  0  0  0  0  0  0  0
   91.4396   97.6768  -42.8640 C   0  0  0  0  0  0  0  0  0  0  0  0
   91.5637   96.4201  -42.2474 C   0  0  0  0  0  0  0  0  0  0  0  0
   91.6297   95.2752  -42.9970 C   0  0  0  0  0  0  0  0  0  0  0  0
   91.5661   95.4297  -44.3742 C   0  0  0  0  0  0  0  0  0  0  0  0
   91.4459   96.6643  -44.9748 C   0  0  0  0  0  0  0  0  0  0  0  0
   91.7632   94.0286  -42.4082 O   0  0  0  0  0  0  0  0  0  0  0  0
   92.7935   93.1113  -42.6753 C   0  0  0  0  0  0  0  0  0  0  0  0
   93.7292   93.1724  -41.4527 C   0  0  0  0  0  0  0  0  0  0  0  0
 14 15  1  0  0  0
 15 16  2  0  0  0
 15 20  1  0  0  0
 16 17  1  0  0  0
 17 18  2  0  0  0
 18 19  1  0  0  0
 18  1  1  0  0  0
 19 20  2  0  0  0
  1  2  1  0  0  0
  1 10  1  0  0  0
  1 11  1  0  0  0
  2  3  1  0  0  0
  2 21  1  0  0  0
  3  4  2  0  0  0
  3  9  1  0  0  0
  4  5  1  0  0  0
  5  6  1  0  0  0
  6  7  1  0  0  0
  7  8  1  0  0  0
  8  9  1  0  0  0
  9 10  1  0  0  0
 21 22  2  0  0  0
 21 26  1  0  0  0
 22 23  1  0  0  0
 23 24  2  0  0  0
 24 25  1  0  0  0
 24 27  1  0  0  0
 25 26  2  0  0  0
 27 28  1  0  0  0
 28 29  1  0  0  0
  2 12  1  0  0  0
 11 13  1  0  0  0
M  CHG 1   2   1
M  END
> <minimizedAffinity>
-6.24860

$$$$
833


 28 31  0  0  0  0  0  0  0  0999 V2000
   91.9902   98.8572  -44.0771 C   0  0  0  0  0  0  0  0  0  0  0  0
   91.6111   97.5526  -43.5522 N   0  0  0  0  0  0  0  0  0  0  0  0
   91.6752   97.2280  -42.1317 C   0  0  0  0  0  0  0  0  0  0  0  0
   91.5421   95.7754  -41.8559 C   0  0  0  0  0  0  0  0  0  0  0  0
   92.4792   94.9082  -42.6559 C   0  0  0  0  0  0  0  0  0  0  0  0
   91.6806   94.4217  -43.8508 C   0  0  0  0  0  0  0  0  0  0  0  0
   91.2517   95.4349  -44.7696 C   0  0  0  0  0  0  0  0  0  0  0  0
   91.2208   96.7816  -44.6446 C   0  0  0  0  0  0  0  0  0  0  0  0
   90.7359   97.5914  -45.6904 N   0  0  0  0  0  0  0  0  0  0  0  0
   91.1236   98.9115  -45.2865 C   0  0  0  0  0  0  0  0  0  0  0  0
   93.3332   98.8157  -44.3476 O   0  0  0  0  0  0  0  0  0  0  0  0
   91.1587   97.3898  -46.6258 H   0  0  0  0  0  0  0  0  0  0  0  0
   93.8988   98.6774  -43.5590 H   0  0  0  0  0  0  0  0  0  0  0  0
   90.7789  103.3326  -40.0762 Br  0  0  0  0  0  0  0  0  0  0  0  0
   91.1602  101.9267  -41.3186 C   0  0  0  0  0  0  0  0  0  0  0  0
   90.1315  101.1417  -41.7857 C   0  0  0  0  0  0  0  0  0  0  0  0
   90.3774  100.1091  -42.6914 C   0  0  0  0  0  0  0  0  0  0  0  0
   91.7033   99.9169  -43.0895 C   0  0  0  0  0  0  0  0  0  0  0  0
   92.7271  100.6855  -42.6329 C   0  0  0  0  0  0  0  0  0  0  0  0
   92.4625  101.7054  -41.7347 C   0  0  0  0  0  0  0  0  0  0  0  0
   89.3186   97.4187  -45.7010 C   0  0  0  0  0  0  0  0  0  0  0  0
   88.7008   96.6889  -46.7026 C   0  0  0  0  0  0  0  0  0  0  0  0
   87.3131   96.6453  -46.6653 C   0  0  0  0  0  0  0  0  0  0  0  0
   86.5415   97.2760  -45.7071 C   0  0  0  0  0  0  0  0  0  0  0  0
   87.2161   98.0075  -44.7067 C   0  0  0  0  0  0  0  0  0  0  0  0
   88.5629   98.0402  -44.7533 C   0  0  0  0  0  0  0  0  0  0  0  0
   89.4494   96.0611  -47.6506 O   0  0  0  0  0  0  0  0  0  0  0  0
   88.8661   95.2268  -48.6170 C   0  0  0  0  0  0  0  0  0  0  0  0
 14 15  1  0  0  0
 15 16  2  0  0  0
 15 20  1  0  0  0
 16 17  1  0  0  0
 17 18  2  0  0  0
 18 19  1  0  0  0
 18  1  1  0  0  0
 19 20  2  0  0  0
  1  2  1  0  0  0
  1 10  1  0  0  0
  1 11  1  0  0  0
  2  3  1  0  0  0
  2  8  1  0  0  0
  3  4  1  0  0  0
  4  5  1  0  0  0
  5  6  1  0  0  0
  6  7  1  0  0  0
  7  8  2  0  0  0
  8  9  1  0  0  0
  9 10  1  0  0  0
  9 21  1  0  0  0
 21 22  2  0  0  0
 21 26  1  0  0  0
 22 23  1  0  0  0
 22 27  1  0  0  0
 23 24  2  0  0  0
 24 25  1  0  0  0
 25 26  2  0  0  0
 27 28  1  0  0  0
  9 12  1  0  0  0
 11 13  1  0  0  0
M  CHG 1   9   1
M  END
> <minimizedAffinity>
-6.28815

$$$$
834


 28 31  0  0  0  0  0  0  0  0999 V2000
   91.2201   98.6059  -43.0637 C   0  0  0  0  0  0  0  0  0  0  0  0
   89.9758   99.3011  -43.1433 N   0  0  0  0  0  0  0  0  0  0  0  0
   88.6983   98.8777  -42.6590 C   0  0  0  0  0  0  0  0  0  0  0  0
   87.5381   99.0401  -43.5628 C   0  0  0  0  0  0  0  0  0  0  0  0
   87.7869   99.6754  -44.8827 C   0  0  0  0  0  0  0  0  0  0  0  0
   88.0430  101.1780  -44.7619 C   0  0  0  0  0  0  0  0  0  0  0  0
   89.5047  101.3403  -44.4882 C   0  0  0  0  0  0  0  0  0  0  0  0
   90.3156  100.5483  -43.8071 C   0  0  0  0  0  0  0  0  0  0  0  0
   91.7043  100.7962  -43.6247 N   0  0  0  0  0  0  0  0  0  0  0  0
   92.2303   99.4775  -43.8174 C   0  0  0  0  0  0  0  0  0  0  0  0
   91.6452   98.4189  -41.7339 O   0  0  0  0  0  0  0  0  0  0  0  0
   92.0115  101.4663  -44.3740 H   0  0  0  0  0  0  0  0  0  0  0  0
   92.6168   98.6144  -41.7466 H   0  0  0  0  0  0  0  0  0  0  0  0
   91.7407   92.8566  -45.2493 Br  0  0  0  0  0  0  0  0  0  0  0  0
   91.5651   94.6547  -44.6205 C   0  0  0  0  0  0  0  0  0  0  0  0
   91.2750   95.6871  -45.4868 C   0  0  0  0  0  0  0  0  0  0  0  0
   91.1553   96.9867  -45.0107 C   0  0  0  0  0  0  0  0  0  0  0  0
   91.3136   97.2941  -43.7005 C   0  0  0  0  0  0  0  0  0  0  0  0
   91.6115   96.2415  -42.8095 C   0  0  0  0  0  0  0  0  0  0  0  0
   91.7267   94.9628  -43.2906 C   0  0  0  0  0  0  0  0  0  0  0  0
   91.9155  101.3040  -42.3328 C   0  0  0  0  0  0  0  0  0  0  0  0
   93.2142  101.4004  -41.8001 C   0  0  0  0  0  0  0  0  0  0  0  0
   93.4528  101.8868  -40.5432 C   0  0  0  0  0  0  0  0  0  0  0  0
   92.4156  102.3088  -39.7389 C   0  0  0  0  0  0  0  0  0  0  0  0
   91.1407  102.2252  -40.2360 C   0  0  0  0  0  0  0  0  0  0  0  0
   90.9010  101.7339  -41.5030 C   0  0  0  0  0  0  0  0  0  0  0  0
   92.6710  102.8083  -38.4476 O   0  0  0  0  0  0  0  0  0  0  0  0
   93.9865  102.8599  -37.9626 C   0  0  0  0  0  0  0  0  0  0  0  0
 14 15  1  0  0  0
 15 16  2  0  0  0
 15 20  1  0  0  0
 16 17  1  0  0  0
 17 18  2  0  0  0
 18 19  1  0  0  0
 18  1  1  0  0  0
 19 20  2  0  0  0
  1  2  1  0  0  0
  1 10  1  0  0  0
  1 11  1  0  0  0
  2  3  1  0  0  0
  2  8  1  0  0  0
  3  4  1  0  0  0
  4  5  1  0  0  0
  5  6  1  0  0  0
  6  7  1  0  0  0
  7  8  2  0  0  0
  8  9  1  0  0  0
  9 10  1  0  0  0
  9 21  1  0  0  0
 21 22  2  0  0  0
 21 26  1  0  0  0
 22 23  1  0  0  0
 23 24  2  0  0  0
 24 25  1  0  0  0
 24 27  1  0  0  0
 25 26  2  0  0  0
 27 28  1  0  0  0
  9 12  1  0  0  0
 11 13  1  0  0  0
M  CHG 1   9   1
M  END
> <minimizedAffinity>
-6.36461

$$$$
835


 27 30  0  0  0  0  0  0  0  0999 V2000
   91.2291   98.8570  -43.0359 C   0  0  0  0  0  0  0  0  0  0  0  0
   89.9539   99.4545  -43.3694 N   0  0  0  0  0  0  0  0  0  0  0  0
   88.6037   99.0124  -43.6472 C   0  0  0  0  0  0  0  0  0  0  0  0
   87.5647   99.9863  -43.1302 C   0  0  0  0  0  0  0  0  0  0  0  0
   87.8146  101.3152  -43.7601 C   0  0  0  0  0  0  0  0  0  0  0  0
   89.2246  101.7333  -43.6104 C   0  0  0  0  0  0  0  0  0  0  0  0
   90.2152  100.8551  -43.4285 C   0  0  0  0  0  0  0  0  0  0  0  0
   91.5936  101.1220  -43.2986 N   0  0  0  0  0  0  0  0  0  0  0  0
   92.2012   99.8221  -43.6510 C   0  0  0  0  0  0  0  0  0  0  0  0
   91.4649   98.8226  -41.6654 O   0  0  0  0  0  0  0  0  0  0  0  0
   91.9387  101.7521  -44.0952 H   0  0  0  0  0  0  0  0  0  0  0  0
   92.4417   98.7367  -41.5484 H   0  0  0  0  0  0  0  0  0  0  0  0
   91.8833   93.0515  -45.1212 Br  0  0  0  0  0  0  0  0  0  0  0  0
   91.6760   94.8564  -44.4990 C   0  0  0  0  0  0  0  0  0  0  0  0
   91.7067   95.1091  -43.1460 C   0  0  0  0  0  0  0  0  0  0  0  0
   91.5614   96.4241  -42.7054 C   0  0  0  0  0  0  0  0  0  0  0  0
   91.3878   97.4829  -43.5708 C   0  0  0  0  0  0  0  0  0  0  0  0
   91.3613   97.2032  -44.9240 C   0  0  0  0  0  0  0  0  0  0  0  0
   91.5045   95.9052  -45.3765 C   0  0  0  0  0  0  0  0  0  0  0  0
   92.0412  101.5667  -42.0592 C   0  0  0  0  0  0  0  0  0  0  0  0
   93.3049  102.0542  -41.8365 C   0  0  0  0  0  0  0  0  0  0  0  0
   93.6941  102.4661  -40.5599 C   0  0  0  0  0  0  0  0  0  0  0  0
   92.8250  102.3938  -39.5018 C   0  0  0  0  0  0  0  0  0  0  0  0
   91.5536  101.9077  -39.7162 C   0  0  0  0  0  0  0  0  0  0  0  0
   91.1773  101.5052  -40.9729 C   0  0  0  0  0  0  0  0  0  0  0  0
   94.2428  102.1637  -42.8434 O   0  0  0  0  0  0  0  0  0  0  0  0
   95.1000  103.2541  -42.9158 C   0  0  0  0  0  0  0  0  0  0  0  0
 13 14  1  0  0  0
 14 15  2  0  0  0
 14 19  1  0  0  0
 15 16  1  0  0  0
 16 17  2  0  0  0
 17 18  1  0  0  0
 17  1  1  0  0  0
 18 19  2  0  0  0
  1  2  1  0  0  0
  1  9  1  0  0  0
  1 10  1  0  0  0
  2  3  1  0  0  0
  2  7  1  0  0  0
  3  4  1  0  0  0
  4  5  1  0  0  0
  5  6  1  0  0  0
  6  7  2  0  0  0
  7  8  1  0  0  0
  8  9  1  0  0  0
  8 20  1  0  0  0
 20 21  2  0  0  0
 20 25  1  0  0  0
 21 22  1  0  0  0
 21 26  1  0  0  0
 22 23  2  0  0  0
 23 24  1  0  0  0
 24 25  2  0  0  0
 26 27  1  0  0  0
  8 11  1  0  0  0
 10 12  1  0  0  0
M  CHG 1   8   1
M  END
> <minimizedAffinity>
-6.13782

$$$$
836


 27 30  0  0  0  0  0  0  0  0999 V2000
   90.4221  100.1939  -43.9072 C   0  0  0  0  0  0  0  0  0  0  0  0
   89.3096   99.2812  -43.8166 N   0  0  0  0  0  0  0  0  0  0  0  0
   88.0829   99.2055  -43.0346 C   0  0  0  0  0  0  0  0  0  0  0  0
   86.9550   98.5259  -43.7079 C   0  0  0  0  0  0  0  0  0  0  0  0
   87.1958   98.1179  -45.1398 C   0  0  0  0  0  0  0  0  0  0  0  0
   88.5676   97.6876  -45.3942 C   0  0  0  0  0  0  0  0  0  0  0  0
   89.5767   98.2502  -44.7552 C   0  0  0  0  0  0  0  0  0  0  0  0
   90.9855   98.0446  -44.7916 N   0  0  0  0  0  0  0  0  0  0  0  0
   91.5406   99.3006  -44.3920 C   0  0  0  0  0  0  0  0  0  0  0  0
   90.0879  101.1554  -44.8830 O   0  0  0  0  0  0  0  0  0  0  0  0
   91.2332   97.8332  -45.7960 H   0  0  0  0  0  0  0  0  0  0  0  0
   89.1136  101.2988  -44.7963 H   0  0  0  0  0  0  0  0  0  0  0  0
   91.9041  103.0699  -38.6102 Br  0  0  0  0  0  0  0  0  0  0  0  0
   91.4426  102.1936  -40.2412 C   0  0  0  0  0  0  0  0  0  0  0  0
   92.1474  101.0977  -40.7018 C   0  0  0  0  0  0  0  0  0  0  0  0
   91.7982  100.4750  -41.8823 C   0  0  0  0  0  0  0  0  0  0  0  0
   90.7444  100.8949  -42.6663 C   0  0  0  0  0  0  0  0  0  0  0  0
   90.0425  101.9978  -42.1951 C   0  0  0  0  0  0  0  0  0  0  0  0
   90.3861  102.6272  -41.0126 C   0  0  0  0  0  0  0  0  0  0  0  0
   91.3072   96.9616  -43.9847 C   0  0  0  0  0  0  0  0  0  0  0  0
   91.4765   97.1205  -42.6292 C   0  0  0  0  0  0  0  0  0  0  0  0
   91.8028   96.0236  -41.8150 C   0  0  0  0  0  0  0  0  0  0  0  0
   91.9627   94.7688  -42.3325 C   0  0  0  0  0  0  0  0  0  0  0  0
   91.7885   94.6095  -43.7198 C   0  0  0  0  0  0  0  0  0  0  0  0
   91.4684   95.7067  -44.4924 C   0  0  0  0  0  0  0  0  0  0  0  0
   92.2854   93.6378  -41.5848 O   0  0  0  0  0  0  0  0  0  0  0  0
   93.4916   92.9466  -41.6112 C   0  0  0  0  0  0  0  0  0  0  0  0
 13 14  1  0  0  0
 14 15  2  0  0  0
 14 19  1  0  0  0
 15 16  1  0  0  0
 16 17  2  0  0  0
 17 18  1  0  0  0
 17  1  1  0  0  0
 18 19  2  0  0  0
  1  2  1  0  0  0
  1  9  1  0  0  0
  1 10  1  0  0  0
  2  3  1  0  0  0
  2  7  1  0  0  0
  3  4  1  0  0  0
  4  5  1  0  0  0
  5  6  1  0  0  0
  6  7  2  0  0  0
  7  8  1  0  0  0
  8  9  1  0  0  0
  8 20  1  0  0  0
 20 21  2  0  0  0
 20 25  1  0  0  0
 21 22  1  0  0  0
 22 23  2  0  0  0
 23 24  1  0  0  0
 23 26  1  0  0  0
 24 25  2  0  0  0
 26 27  1  0  0  0
  8 11  1  0  0  0
 10 12  1  0  0  0
M  CHG 1   8   1
M  END
> <minimizedAffinity>
-6.74073

$$$$
847


 31 34  0  0  0  0  0  0  0  0999 V2000
   91.5671   94.0104  -45.3544 C   0  0  0  0  0  0  0  0  0  0  0  0
   91.5703   94.3580  -44.0570 N   0  0  0  0  0  0  0  0  0  0  0  0
   91.4702   95.6983  -43.9852 C   0  0  0  0  0  0  0  0  0  0  0  0
   91.4033   96.1920  -45.2661 N   0  0  0  0  0  0  0  0  0  0  0  0
   91.4648   95.1404  -46.0643 N   0  0  0  0  0  0  0  0  0  0  0  0
   91.4199   96.6311  -42.8553 C   0  0  0  0  0  0  0  0  0  0  0  0
   92.2241   96.2166  -41.6523 C   0  0  0  0  0  0  0  0  0  0  0  0
   91.7778   94.9261  -41.0466 C   0  0  0  0  0  0  0  0  0  0  0  0
   92.4623   93.8164  -41.8107 C   0  0  0  0  0  0  0  0  0  0  0  0
   91.6633   93.3875  -43.0164 C   0  0  0  0  0  0  0  0  0  0  0  0
   91.6575   92.6538  -45.9841 C   0  0  0  0  0  0  0  0  0  0  0  0
   91.4501   92.6900  -47.4176 N   0  0  0  0  0  0  0  0  0  0  0  0
   91.5596   93.5782  -47.9546 H   0  0  0  0  0  0  0  0  0  0  0  0
   89.8708   87.7650  -50.6449 Br  0  0  0  0  0  0  0  0  0  0  0  0
   90.3629   89.3024  -49.6416 C   0  0  0  0  0  0  0  0  0  0  0  0
   91.5320   89.3014  -48.8873 C   0  0  0  0  0  0  0  0  0  0  0  0
   91.8858   90.4085  -48.1636 C   0  0  0  0  0  0  0  0  0  0  0  0
   91.0861   91.5304  -48.1769 C   0  0  0  0  0  0  0  0  0  0  0  0
   89.9310   91.5143  -48.9297 C   0  0  0  0  0  0  0  0  0  0  0  0
   89.5465   90.4190  -49.6680 C   0  0  0  0  0  0  0  0  0  0  0  0
   91.2450   97.5250  -45.6934 C   0  0  0  0  0  0  0  0  0  0  0  0
   89.9242   97.9874  -46.0292 C   0  0  0  0  0  0  0  0  0  0  0  0
   89.8788   98.5775  -47.2244 O   0  0  0  0  0  0  0  0  0  0  0  0
   88.6489   97.9563  -45.3709 C   0  0  0  0  0  0  0  0  0  0  0  0
   87.6286   97.0929  -45.8261 C   0  0  0  0  0  0  0  0  0  0  0  0
   86.3924   97.0269  -45.2396 C   0  0  0  0  0  0  0  0  0  0  0  0
   86.0835   97.8146  -44.1594 C   0  0  0  0  0  0  0  0  0  0  0  0
   87.0439   98.6658  -43.6860 C   0  0  0  0  0  0  0  0  0  0  0  0
   88.3096   98.7234  -44.2988 C   0  0  0  0  0  0  0  0  0  0  0  0
   84.8257   97.7460  -43.5632 O   0  0  0  0  0  0  0  0  0  0  0  0
   83.9250   98.8262  -43.5730 C   0  0  0  0  0  0  0  0  0  0  0  0
 14 15  1  0  0  0
 15 16  2  0  0  0
 15 20  1  0  0  0
 16 17  1  0  0  0
 17 18  2  0  0  0
 18 19  1  0  0  0
 18 12  1  0  0  0
 19 20  2  0  0  0
 12 11  1  0  0  0
 11  1  1  0  0  0
  1  2  1  0  0  0
  1  5  2  0  0  0
  2  3  1  0  0  0
  2 10  1  0  0  0
  3  4  2  0  0  0
  3  6  1  0  0  0
  4  5  1  0  0  0
  4 21  1  0  0  0
 21 22  1  0  0  0
 22 23  2  0  0  0
 22 24  1  0  0  0
 24 25  2  0  0  0
 24 29  1  0  0  0
 25 26  1  0  0  0
 26 27  2  0  0  0
 27 28  1  0  0  0
 27 30  1  0  0  0
 28 29  2  0  0  0
 30 31  1  0  0  0
  6  7  1  0  0  0
  7  8  1  0  0  0
  8  9  1  0  0  0
  9 10  1  0  0  0
 12 13  1  0  0  0
M  END
> <minimizedAffinity>
-6.96978

$$$$
850


 29 32  0  0  0  0  0  0  0  0999 V2000
   90.3247   99.9363  -42.0862 N   0  0  0  0  0  0  0  0  0  0  0  0
   91.5514   99.4765  -42.6660 C   0  0  0  0  0  0  0  0  0  0  0  0
   91.3687   99.9803  -44.0972 C   0  0  0  0  0  0  0  0  0  0  0  0
   89.9416   99.7305  -44.3535 N   0  0  0  0  0  0  0  0  0  0  0  0
   89.4368   99.6781  -45.6798 C   0  0  0  0  0  0  0  0  0  0  0  0
   87.9766   99.3559  -45.7890 C   0  0  0  0  0  0  0  0  0  0  0  0
   87.6709   98.1404  -44.9576 C   0  0  0  0  0  0  0  0  0  0  0  0
   87.0657   98.6887  -43.6570 C   0  0  0  0  0  0  0  0  0  0  0  0
   88.1671   99.1079  -42.7674 C   0  0  0  0  0  0  0  0  0  0  0  0
   89.3628   99.5668  -43.0598 C   0  0  0  0  0  0  0  0  0  0  0  0
   92.7114   99.8430  -42.0610 O   0  0  0  0  0  0  0  0  0  0  0  0
   90.2029   99.4091  -41.1657 H   0  0  0  0  0  0  0  0  0  0  0  0
   93.5047   99.6746  -42.6019 H   0  0  0  0  0  0  0  0  0  0  0  0
   90.0985  105.8525  -40.5032 Br  0  0  0  0  0  0  0  0  0  0  0  0
   90.1461  103.9999  -40.9926 C   0  0  0  0  0  0  0  0  0  0  0  0
   90.8483  103.0793  -40.2476 C   0  0  0  0  0  0  0  0  0  0  0  0
   90.8859  101.7442  -40.6222 C   0  0  0  0  0  0  0  0  0  0  0  0
   90.2257  101.2710  -41.7545 C   0  0  0  0  0  0  0  0  0  0  0  0
   89.5452  102.2218  -42.4557 C   0  0  0  0  0  0  0  0  0  0  0  0
   89.4903  103.5678  -42.1036 C   0  0  0  0  0  0  0  0  0  0  0  0
   91.5897   97.9902  -42.7816 C   0  0  0  0  0  0  0  0  0  0  0  0
   91.5052   97.2920  -43.9488 C   0  0  0  0  0  0  0  0  0  0  0  0
   91.5553   95.8827  -43.9896 C   0  0  0  0  0  0  0  0  0  0  0  0
   91.6934   95.1496  -42.8357 C   0  0  0  0  0  0  0  0  0  0  0  0
   91.7787   95.8429  -41.6526 C   0  0  0  0  0  0  0  0  0  0  0  0
   91.7286   97.2177  -41.6171 C   0  0  0  0  0  0  0  0  0  0  0  0
   91.7487   93.7462  -42.8655 O   0  0  0  0  0  0  0  0  0  0  0  0
   92.9683   93.0597  -43.0176 C   0  0  0  0  0  0  0  0  0  0  0  0
   93.6753   92.8490  -41.7159 C   0  0  0  0  0  0  0  0  0  0  0  0
 14 15  1  0  0  0
 15 16  2  0  0  0
 15 20  1  0  0  0
 16 17  1  0  0  0
 17 18  2  0  0  0
 18 19  1  0  0  0
 18  1  1  0  0  0
 19 20  2  0  0  0
  1  2  1  0  0  0
  1 10  1  0  0  0
  2  3  1  0  0  0
  2 11  1  0  0  0
  2 21  1  0  0  0
  3  4  1  0  0  0
  4  5  1  0  0  0
  4 10  1  0  0  0
  5  6  1  0  0  0
  6  7  1  0  0  0
  7  8  1  0  0  0
  8  9  1  0  0  0
  9 10  2  0  0  0
 21 22  2  0  0  0
 21 26  1  0  0  0
 22 23  1  0  0  0
 23 24  2  0  0  0
 24 25  1  0  0  0
 24 27  1  0  0  0
 25 26  2  0  0  0
 27 28  1  0  0  0
 28 29  1  0  0  0
  1 12  1  0  0  0
 11 13  1  0  0  0
M  CHG 1   1   1
M  END
> <minimizedAffinity>
-6.81257

$$$$
860


 29 32  0  0  0  0  0  0  0  0999 V2000
   91.8328   93.1086  -44.3385 Br  0  0  0  0  0  0  0  0  0  0  0  0
   91.6462   94.9493  -43.8430 C   0  0  0  0  0  0  0  0  0  0  0  0
   91.3425   95.9222  -44.7750 C   0  0  0  0  0  0  0  0  0  0  0  0
   91.2093   97.2442  -44.4139 C   0  0  0  0  0  0  0  0  0  0  0  0
   91.3954   97.5470  -43.0812 C   0  0  0  0  0  0  0  0  0  0  0  0
   91.6990   96.5791  -42.1451 C   0  0  0  0  0  0  0  0  0  0  0  0
   91.8312   95.2567  -42.5111 C   0  0  0  0  0  0  0  0  0  0  0  0
   92.1592   94.2193  -41.4916 C   0  0  0  0  0  0  0  0  0  0  0  0
   91.2556   98.8911  -42.7405 O   0  0  0  0  0  0  0  0  0  0  0  0
   91.2566   99.9317  -43.6592 C   0  0  0  0  0  0  0  0  0  0  0  0
   90.6789   99.6118  -44.9963 C   0  0  0  0  0  0  0  0  0  0  0  0
   90.8863   98.2148  -45.4645 C   0  0  0  0  0  0  0  0  0  0  0  0
   89.7328   97.7281  -46.1265 O   0  0  0  0  0  0  0  0  0  0  0  0
   89.3504   96.9462  -45.6777 H   0  0  0  0  0  0  0  0  0  0  0  0
   91.3836  100.4817  -45.9442 N   0  0  0  0  0  0  0  0  0  0  0  0
   92.6272   99.9479  -46.3823 C   0  0  0  0  0  0  0  0  0  0  0  0
   93.0352  100.7686  -47.6155 C   0  0  0  0  0  0  0  0  0  0  0  0
   93.2402  102.0630  -47.1694 O   0  0  0  0  0  0  0  0  0  0  0  0
   92.1037  102.6403  -46.6150 C   0  0  0  0  0  0  0  0  0  0  0  0
   91.5855  101.8039  -45.4358 C   0  0  0  0  0  0  0  0  0  0  0  0
   90.7497  100.5555  -46.7718 H   0  0  0  0  0  0  0  0  0  0  0  0
   89.2104   99.9695  -45.1001 C   0  0  0  0  0  0  0  0  0  0  0  0
   88.5411  100.0411  -43.8377 N   0  0  0  0  0  0  0  0  0  0  0  0
   87.7406  101.2434  -43.6937 C   0  0  0  0  0  0  0  0  0  0  0  0
   86.3721  100.9433  -43.1010 C   0  0  0  0  0  0  0  0  0  0  0  0
   85.6108  100.1261  -43.9200 O   0  0  0  0  0  0  0  0  0  0  0  0
   86.4048   99.2028  -44.5935 C   0  0  0  0  0  0  0  0  0  0  0  0
   87.5974   98.9189  -43.7036 C   0  0  0  0  0  0  0  0  0  0  0  0
   89.1514   99.9854  -43.0084 H   0  0  0  0  0  0  0  0  0  0  0  0
  1  2  1  0  0  0
  2  3  2  0  0  0
  2  7  1  0  0  0
  3  4  1  0  0  0
  4  5  2  0  0  0
  4 12  1  0  0  0
  5  6  1  0  0  0
  5  9  1  0  0  0
  6  7  2  0  0  0
  7  8  1  0  0  0
  9 10  1  0  0  0
 10 11  1  0  0  0
 11 12  1  0  0  0
 11 15  1  0  0  0
 11 22  1  0  0  0
 12 13  1  0  0  0
 15 16  1  0  0  0
 15 20  1  0  0  0
 16 17  1  0  0  0
 17 18  1  0  0  0
 18 19  1  0  0  0
 19 20  1  0  0  0
 22 23  1  0  0  0
 23 24  1  0  0  0
 23 28  1  0  0  0
 24 25  1  0  0  0
 25 26  1  0  0  0
 26 27  1  0  0  0
 27 28  1  0  0  0
 13 14  1  0  0  0
 15 21  1  0  0  0
 23 29  1  0  0  0
M  CHG 1  15   1
M  CHG 1  23   1
M  END
> <minimizedAffinity>
-5.97172

$$$$
861


 32 35  0  0  0  0  0  0  0  0999 V2000
   92.0362   95.8327  -41.0089 Br  0  0  0  0  0  0  0  0  0  0  0  0
   91.6862   95.8494  -42.8932 C   0  0  0  0  0  0  0  0  0  0  0  0
   91.4438   97.0413  -43.5333 C   0  0  0  0  0  0  0  0  0  0  0  0
   91.1829   97.0978  -44.9126 C   0  0  0  0  0  0  0  0  0  0  0  0
   91.1834   95.8965  -45.5871 C   0  0  0  0  0  0  0  0  0  0  0  0
   91.4224   94.6877  -44.9695 C   0  0  0  0  0  0  0  0  0  0  0  0
   91.6761   94.6582  -43.6173 C   0  0  0  0  0  0  0  0  0  0  0  0
   91.9457   93.4076  -42.8618 C   0  0  0  0  0  0  0  0  0  0  0  0
   91.4170   93.0392  -45.9301 Br  0  0  0  0  0  0  0  0  0  0  0  0
   90.9299   98.3754  -45.5458 C   0  0  0  0  0  0  0  0  0  0  0  0
   90.8025   98.4469  -46.7727 O   0  0  0  0  0  0  0  0  0  0  0  0
   90.8258   99.5881  -44.7151 C   0  0  0  0  0  0  0  0  0  0  0  0
   91.7658   99.4090  -43.5432 C   0  0  0  0  0  0  0  0  0  0  0  0
   91.4526   98.2345  -42.8174 O   0  0  0  0  0  0  0  0  0  0  0  0
   91.1092  100.8561  -45.4621 C   0  0  0  0  0  0  0  0  0  0  0  0
   92.4601  101.2655  -45.5002 N   0  0  0  0  0  0  0  0  0  0  0  0
   92.9812  101.1125  -46.8263 C   0  0  0  0  0  0  0  0  0  0  0  0
   92.4585  102.0785  -47.8283 C   0  0  0  0  0  0  0  0  0  0  0  0
   91.6461  103.2015  -47.3106 C   0  0  0  0  0  0  0  0  0  0  0  0
   91.8449  103.5679  -45.8917 C   0  0  0  0  0  0  0  0  0  0  0  0
   92.7122  102.6253  -45.1104 C   0  0  0  0  0  0  0  0  0  0  0  0
   91.5890  101.2943  -48.8180 C   0  0  0  0  0  0  0  0  0  0  0  0
   93.0385  100.6560  -44.8681 H   0  0  0  0  0  0  0  0  0  0  0  0
   89.4084   99.6071  -44.1810 C   0  0  0  0  0  0  0  0  0  0  0  0
   88.4260  100.1100  -45.0795 N   0  0  0  0  0  0  0  0  0  0  0  0
   87.5324  101.0360  -44.3863 C   0  0  0  0  0  0  0  0  0  0  0  0
   86.2227  100.4044  -44.0151 C   0  0  0  0  0  0  0  0  0  0  0  0
   86.4641   99.0044  -43.4976 C   0  0  0  0  0  0  0  0  0  0  0  0
   86.9658   98.1754  -44.6390 C   0  0  0  0  0  0  0  0  0  0  0  0
   87.5816   99.0924  -45.6667 C   0  0  0  0  0  0  0  0  0  0  0  0
   85.6562  101.2075  -42.8363 C   0  0  0  0  0  0  0  0  0  0  0  0
   88.8652  100.6429  -45.8348 H   0  0  0  0  0  0  0  0  0  0  0  0
  1  2  1  0  0  0
  2  3  2  0  0  0
  2  7  1  0  0  0
  3  4  1  0  0  0
  3 14  1  0  0  0
  4  5  2  0  0  0
  4 10  1  0  0  0
  5  6  1  0  0  0
  6  7  2  0  0  0
  6  9  1  0  0  0
  7  8  1  0  0  0
 10 11  2  0  0  0
 10 12  1  0  0  0
 12 13  1  0  0  0
 12 15  1  0  0  0
 12 24  1  0  0  0
 13 14  1  0  0  0
 15 16  1  0  0  0
 16 17  1  0  0  0
 16 21  1  0  0  0
 17 18  1  0  0  0
 18 19  1  0  0  0
 18 22  1  0  0  0
 19 20  1  0  0  0
 20 21  1  0  0  0
 24 25  1  0  0  0
 25 26  1  0  0  0
 25 30  1  0  0  0
 26 27  1  0  0  0
 27 28  1  0  0  0
 27 31  1  0  0  0
 28 29  1  0  0  0
 29 30  1  0  0  0
 16 23  1  0  0  0
 25 32  1  0  0  0
M  CHG 1  16   1
M  CHG 1  25   1
M  END
> <minimizedAffinity>
-6.09889

$$$$
862


 30 33  0  0  0  0  0  0  0  0999 V2000
   92.1357  102.3624  -41.3086 Br  0  0  0  0  0  0  0  0  0  0  0  0
   92.2673  101.8220  -43.1123 C   0  0  0  0  0  0  0  0  0  0  0  0
   92.1106  100.4875  -43.3965 C   0  0  0  0  0  0  0  0  0  0  0  0
   92.1860   99.9667  -44.6995 C   0  0  0  0  0  0  0  0  0  0  0  0
   92.4342  100.8489  -45.7584 C   0  0  0  0  0  0  0  0  0  0  0  0
   92.5897  102.1837  -45.4584 C   0  0  0  0  0  0  0  0  0  0  0  0
   92.5112  102.6754  -44.1681 C   0  0  0  0  0  0  0  0  0  0  0  0
   92.6866  104.1385  -43.8728 C   0  0  0  0  0  0  0  0  0  0  0  0
   92.9255  103.3834  -46.9008 Br  0  0  0  0  0  0  0  0  0  0  0  0
   92.0195   98.5459  -44.9387 C   0  0  0  0  0  0  0  0  0  0  0  0
   92.6640   98.0635  -45.9031 O   0  0  0  0  0  0  0  0  0  0  0  0
   91.1168   97.8092  -44.0338 C   0  0  0  0  0  0  0  0  0  0  0  0
   91.7968   98.1617  -42.6348 C   0  0  0  0  0  0  0  0  0  0  0  0
   91.8635   99.5277  -42.4321 O   0  0  0  0  0  0  0  0  0  0  0  0
   91.1320   96.3623  -44.1174 C   0  0  0  0  0  0  0  0  0  0  0  0
   91.5033   95.5562  -45.1816 N   0  0  0  0  0  0  0  0  0  0  0  0
   90.5733   94.8546  -45.9766 C   0  0  0  0  0  0  0  0  0  0  0  0
   91.1332   93.5803  -46.5952 C   0  0  0  0  0  0  0  0  0  0  0  0
   91.4660   92.5570  -45.5567 C   0  0  0  0  0  0  0  0  0  0  0  0
   91.9463   93.2707  -44.3306 C   0  0  0  0  0  0  0  0  0  0  0  0
   92.5259   94.5909  -44.7206 C   0  0  0  0  0  0  0  0  0  0  0  0
   92.1216   96.1173  -45.9050 H   0  0  0  0  0  0  0  0  0  0  0  0
   89.7754   98.4370  -44.0359 C   0  0  0  0  0  0  0  0  0  0  0  0
   88.7066   97.8552  -44.7334 N   0  0  0  0  0  0  0  0  0  0  0  0
   87.4554   98.4234  -44.2140 C   0  0  0  0  0  0  0  0  0  0  0  0
   86.2398   97.6546  -44.6888 C   0  0  0  0  0  0  0  0  0  0  0  0
   86.1903   97.8610  -46.2111 C   0  0  0  0  0  0  0  0  0  0  0  0
   87.4824   97.2567  -46.7109 C   0  0  0  0  0  0  0  0  0  0  0  0
   88.6366   98.1128  -46.1622 C   0  0  0  0  0  0  0  0  0  0  0  0
   88.5590   96.8287  -44.6484 H   0  0  0  0  0  0  0  0  0  0  0  0
  1  2  1  0  0  0
  2  3  2  0  0  0
  2  7  1  0  0  0
  3  4  1  0  0  0
  3 14  1  0  0  0
  4  5  2  0  0  0
  4 10  1  0  0  0
  5  6  1  0  0  0
  6  7  2  0  0  0
  6  9  1  0  0  0
  7  8  1  0  0  0
 10 11  2  0  0  0
 10 12  1  0  0  0
 12 13  1  0  0  0
 12 15  1  0  0  0
 12 23  1  0  0  0
 13 14  1  0  0  0
 15 16  1  0  0  0
 16 17  1  0  0  0
 16 21  1  0  0  0
 17 18  1  0  0  0
 18 19  1  0  0  0
 19 20  1  0  0  0
 20 21  1  0  0  0
 23 24  1  0  0  0
 24 25  1  0  0  0
 24 29  1  0  0  0
 25 26  1  0  0  0
 26 27  1  0  0  0
 27 28  1  0  0  0
 28 29  1  0  0  0
 16 22  1  0  0  0
 24 30  1  0  0  0
M  CHG 1  16   1
M  CHG 1  24   1
M  END
> <minimizedAffinity>
-6.01610

$$$$
865


 30 33  0  0  0  0  0  0  0  0999 V2000
   90.5541   94.8805  -46.2267 C   0  0  0  0  0  0  0  0  0  0  0  0
   91.0477   94.6488  -44.9905 N   0  0  0  0  0  0  0  0  0  0  0  0
   91.6172   93.4702  -44.6360 C   0  0  0  0  0  0  0  0  0  0  0  0
   91.6692   92.5274  -45.5789 N   0  0  0  0  0  0  0  0  0  0  0  0
   91.1987   92.6870  -46.8281 C   0  0  0  0  0  0  0  0  0  0  0  0
   90.6463   93.8783  -47.1179 N   0  0  0  0  0  0  0  0  0  0  0  0
   91.2890   91.6359  -47.7804 N   0  0  0  0  0  0  0  0  0  0  0  0
   92.3556   90.6617  -47.6509 C   0  0  0  0  0  0  0  0  0  0  0  0
   92.2758   89.6727  -48.7921 C   0  0  0  0  0  0  0  0  0  0  0  0
   91.0322   89.1466  -48.9975 O   0  0  0  0  0  0  0  0  0  0  0  0
   89.9739   90.0100  -48.9055 C   0  0  0  0  0  0  0  0  0  0  0  0
   90.3826   91.4731  -48.8780 C   0  0  0  0  0  0  0  0  0  0  0  0
   92.1218   93.2804  -43.3191 N   0  0  0  0  0  0  0  0  0  0  0  0
   91.4120   93.6524  -42.1174 C   0  0  0  0  0  0  0  0  0  0  0  0
   92.4007   94.5439  -41.3682 C   0  0  0  0  0  0  0  0  0  0  0  0
   93.4418   93.7965  -40.9578 O   0  0  0  0  0  0  0  0  0  0  0  0
   94.0307   92.9373  -41.7991 C   0  0  0  0  0  0  0  0  0  0  0  0
   93.4210   92.6819  -43.1201 C   0  0  0  0  0  0  0  0  0  0  0  0
   89.9736   96.1341  -46.5277 N   0  0  0  0  0  0  0  0  0  0  0  0
   89.4718   96.2572  -47.4226 H   0  0  0  0  0  0  0  0  0  0  0  0
   89.0845   97.6527  -44.9570 C   0  0  0  0  0  0  0  0  0  0  0  0
   90.0734   97.1941  -45.6373 N   0  0  0  0  0  0  0  0  0  0  0  0
   89.7413  101.9736  -41.3952 F   0  0  0  0  0  0  0  0  0  0  0  0
   89.5985  100.9305  -42.2589 C   0  0  0  0  0  0  0  0  0  0  0  0
   90.6580  100.4514  -43.0011 C   0  0  0  0  0  0  0  0  0  0  0  0
   90.4910   99.3939  -43.8709 C   0  0  0  0  0  0  0  0  0  0  0  0
   89.2661   98.7700  -44.0397 C   0  0  0  0  0  0  0  0  0  0  0  0
   88.2131   99.2556  -43.2936 C   0  0  0  0  0  0  0  0  0  0  0  0
   88.3763  100.3199  -42.4176 C   0  0  0  0  0  0  0  0  0  0  0  0
   92.3593  101.2931  -42.7881 Br  0  0  0  0  0  0  0  0  0  0  0  0
 23 24  1  0  0  0
 24 25  2  0  0  0
 24 29  1  0  0  0
 25 26  1  0  0  0
 25 30  1  0  0  0
 26 27  2  0  0  0
 27 28  1  0  0  0
 27 21  1  0  0  0
 28 29  2  0  0  0
 21 22  2  0  0  0
 22 19  1  0  0  0
 19  1  1  0  0  0
  1  2  2  0  0  0
  1  6  1  0  0  0
  2  3  1  0  0  0
  3  4  2  0  0  0
  3 13  1  0  0  0
  4  5  1  0  0  0
  5  6  2  0  0  0
  5  7  1  0  0  0
  7  8  1  0  0  0
  7 12  1  0  0  0
  8  9  1  0  0  0
  9 10  1  0  0  0
 10 11  1  0  0  0
 11 12  1  0  0  0
 13 14  1  0  0  0
 13 18  1  0  0  0
 14 15  1  0  0  0
 15 16  1  0  0  0
 16 17  1  0  0  0
 17 18  1  0  0  0
 19 20  1  0  0  0
M  END
> <minimizedAffinity>
-6.99865

$$$$
872


 32 35  0  0  0  0  0  0  0  0999 V2000
   91.5442   99.7769  -45.6129 N   0  0  0  0  0  0  0  0  0  0  0  0
   92.1911  100.3121  -46.6326 N   0  0  0  0  0  0  0  0  0  0  0  0
   92.8200  101.3688  -46.1482 N   0  0  0  0  0  0  0  0  0  0  0  0
   92.5803  101.5145  -44.8289 C   0  0  0  0  0  0  0  0  0  0  0  0
   91.7681  100.4964  -44.5003 C   0  0  0  0  0  0  0  0  0  0  0  0
   91.5336  100.6597  -43.1549 C   0  0  0  0  0  0  0  0  0  0  0  0
   90.8087   99.9006  -42.4576 O   0  0  0  0  0  0  0  0  0  0  0  0
   92.1744  101.7388  -42.6617 N   0  0  0  0  0  0  0  0  0  0  0  0
   92.8307  102.2778  -43.7021 C   0  0  0  0  0  0  0  0  0  0  0  0
   93.5528  103.3078  -43.6501 O   0  0  0  0  0  0  0  0  0  0  0  0
   92.2125   99.9749  -47.6378 H   0  0  0  0  0  0  0  0  0  0  0  0
   93.4213  101.9932  -46.7475 H   0  0  0  0  0  0  0  0  0  0  0  0
   92.1358  102.1846  -41.2948 C   0  0  0  0  0  0  0  0  0  0  0  0
   93.1819  101.9137  -40.4346 C   0  0  0  0  0  0  0  0  0  0  0  0
   93.1879  102.3209  -39.1166 C   0  0  0  0  0  0  0  0  0  0  0  0
   92.0873  103.0262  -38.6702 C   0  0  0  0  0  0  0  0  0  0  0  0
   91.0098  103.3272  -39.4868 C   0  0  0  0  0  0  0  0  0  0  0  0
   91.0672  102.8897  -40.7947 C   0  0  0  0  0  0  0  0  0  0  0  0
   92.1178  103.5832  -36.8316 Br  0  0  0  0  0  0  0  0  0  0  0  0
   90.7302   98.5863  -45.7249 C   0  0  0  0  0  0  0  0  0  0  0  0
   90.9107   96.6014  -44.1997 N   0  0  0  0  0  0  0  0  0  0  0  0
   91.5021   97.4064  -45.1694 C   0  0  0  0  0  0  0  0  0  0  0  0
   92.6379   97.2260  -45.6200 O   0  0  0  0  0  0  0  0  0  0  0  0
   89.9130   96.8808  -43.9050 H   0  0  0  0  0  0  0  0  0  0  0  0
   91.4771   96.6739  -41.5578 F   0  0  0  0  0  0  0  0  0  0  0  0
   91.8012   95.5337  -42.2281 C   0  0  0  0  0  0  0  0  0  0  0  0
   91.5115   95.4828  -43.6016 C   0  0  0  0  0  0  0  0  0  0  0  0
   91.8327   94.3458  -44.2751 C   0  0  0  0  0  0  0  0  0  0  0  0
   92.4375   93.2307  -43.6567 C   0  0  0  0  0  0  0  0  0  0  0  0
   92.7049   93.3201  -42.3101 C   0  0  0  0  0  0  0  0  0  0  0  0
   92.3877   94.4625  -41.6053 C   0  0  0  0  0  0  0  0  0  0  0  0
   93.2834   92.2852  -41.6579 F   0  0  0  0  0  0  0  0  0  0  0  0
 25 26  1  0  0  0
 26 27  2  0  0  0
 26 31  1  0  0  0
 27 28  1  0  0  0
 27 21  1  0  0  0
 28 29  2  0  0  0
 29 30  1  0  0  0
 30 31  2  0  0  0
 30 32  1  0  0  0
 21 22  1  0  0  0
 22 23  2  0  0  0
 22 20  1  0  0  0
 20  1  1  0  0  0
  1  2  1  0  0  0
  1  5  1  0  0  0
  2  3  1  0  0  0
  3  4  1  0  0  0
  4  5  2  0  0  0
  4  9  1  0  0  0
  5  6  1  0  0  0
  6  7  2  0  0  0
  6  8  1  0  0  0
  8  9  1  0  0  0
  8 13  1  0  0  0
  9 10  2  0  0  0
 13 14  2  0  0  0
 13 18  1  0  0  0
 14 15  1  0  0  0
 15 16  2  0  0  0
 16 17  1  0  0  0
 16 19  1  0  0  0
 17 18  2  0  0  0
 21 24  1  0  0  0
  2 11  1  0  0  0
  3 12  1  0  0  0
M  END
> <minimizedAffinity>
-6.94041

$$$$
873


 32 35  0  0  0  0  0  0  0  0999 V2000
   91.6711   98.9786  -43.8582 C   0  0  0  0  0  0  0  0  0  0  0  0
   91.6995  100.3140  -43.2826 N   0  0  0  0  0  0  0  0  0  0  0  0
   90.5185  100.2943  -42.4534 C   0  0  0  0  0  0  0  0  0  0  0  0
   90.3090  100.9006  -41.3696 O   0  0  0  0  0  0  0  0  0  0  0  0
   89.5074   99.4014  -43.0869 C   0  0  0  0  0  0  0  0  0  0  0  0
   88.3678   99.0762  -42.7584 O   0  0  0  0  0  0  0  0  0  0  0  0
   90.2272   98.9441  -44.3118 C   0  0  0  0  0  0  0  0  0  0  0  0
   89.6937   98.6037  -45.4594 C   0  0  0  0  0  0  0  0  0  0  0  0
   90.5338   98.1833  -46.5103 O   0  0  0  0  0  0  0  0  0  0  0  0
   91.0872   96.1953  -44.3444 F   0  0  0  0  0  0  0  0  0  0  0  0
   91.5628   96.5710  -43.1672 C   0  0  0  0  0  0  0  0  0  0  0  0
   91.8708   97.8873  -42.8907 C   0  0  0  0  0  0  0  0  0  0  0  0
   92.3537   98.1204  -41.6270 C   0  0  0  0  0  0  0  0  0  0  0  0
   92.5383   97.1409  -40.6637 C   0  0  0  0  0  0  0  0  0  0  0  0
   92.2221   95.8495  -40.9750 C   0  0  0  0  0  0  0  0  0  0  0  0
   91.7392   95.5671  -42.2107 C   0  0  0  0  0  0  0  0  0  0  0  0
   88.2565   98.6496  -45.6839 C   0  0  0  0  0  0  0  0  0  0  0  0
   87.5199   97.4948  -45.5361 C   0  0  0  0  0  0  0  0  0  0  0  0
   86.1537   97.4610  -45.7611 C   0  0  0  0  0  0  0  0  0  0  0  0
   85.4937   98.6086  -46.1438 C   0  0  0  0  0  0  0  0  0  0  0  0
   86.2019   99.7611  -46.2964 C   0  0  0  0  0  0  0  0  0  0  0  0
   87.5885   99.7829  -46.0657 C   0  0  0  0  0  0  0  0  0  0  0  0
   83.5921   98.5917  -46.4636 Br  0  0  0  0  0  0  0  0  0  0  0  0
   92.5541  101.4165  -43.3979 C   0  0  0  0  0  0  0  0  0  0  0  0
   93.7194  101.5678  -42.4875 C   0  0  0  0  0  0  0  0  0  0  0  0
   93.3786  101.9885  -41.1580 N   0  0  0  0  0  0  0  0  0  0  0  0
   92.7863  103.3087  -41.2219 C   0  0  0  0  0  0  0  0  0  0  0  0
   92.3006  103.7467  -39.8519 C   0  0  0  0  0  0  0  0  0  0  0  0
   93.3706  103.7607  -38.9775 O   0  0  0  0  0  0  0  0  0  0  0  0
   93.9812  102.5108  -38.9313 C   0  0  0  0  0  0  0  0  0  0  0  0
   94.5718  102.1635  -40.3050 C   0  0  0  0  0  0  0  0  0  0  0  0
   92.8073  101.3007  -40.6255 H   0  0  0  0  0  0  0  0  0  0  0  0
 10 11  1  0  0  0
 11 12  2  0  0  0
 11 16  1  0  0  0
 12 13  1  0  0  0
 12  1  1  0  0  0
 13 14  2  0  0  0
 14 15  1  0  0  0
 15 16  2  0  0  0
  1  2  1  0  0  0
  1  7  1  0  0  0
  2  3  1  0  0  0
  2 24  1  0  0  0
  3  4  2  0  0  0
  3  5  1  0  0  0
  5  6  2  0  0  0
  5  7  1  0  0  0
  7  8  2  0  0  0
  8  9  1  0  0  0
  8 17  1  0  0  0
 17 18  2  0  0  0
 17 22  1  0  0  0
 18 19  1  0  0  0
 19 20  2  0  0  0
 20 21  1  0  0  0
 20 23  1  0  0  0
 21 22  2  0  0  0
 24 25  1  0  0  0
 25 26  1  0  0  0
 26 27  1  0  0  0
 26 31  1  0  0  0
 27 28  1  0  0  0
 28 29  1  0  0  0
 29 30  1  0  0  0
 30 31  1  0  0  0
 26 32  1  0  0  0
M  CHG 1   9  -1
M  CHG 1  26   1
M  END
> <minimizedAffinity>
-5.90545

$$$$
874


 31 34  0  0  0  0  0  0  0  0999 V2000
   91.5196   93.6149  -45.0975 N   0  0  0  0  0  0  0  0  0  0  0  0
   91.7787   92.6872  -44.2020 N   0  0  0  0  0  0  0  0  0  0  0  0
   91.8729   93.2259  -42.9951 N   0  0  0  0  0  0  0  0  0  0  0  0
   91.6674   94.5560  -43.1132 C   0  0  0  0  0  0  0  0  0  0  0  0
   91.4543   94.7772  -44.3941 C   0  0  0  0  0  0  0  0  0  0  0  0
   91.2438   96.1415  -44.5178 C   0  0  0  0  0  0  0  0  0  0  0  0
   91.0077   96.7213  -45.5996 O   0  0  0  0  0  0  0  0  0  0  0  0
   91.3262   96.7512  -43.3217 N   0  0  0  0  0  0  0  0  0  0  0  0
   91.5901   95.7643  -42.4457 C   0  0  0  0  0  0  0  0  0  0  0  0
   91.7448   95.9042  -41.2128 O   0  0  0  0  0  0  0  0  0  0  0  0
   91.8886   91.6681  -44.4422 H   0  0  0  0  0  0  0  0  0  0  0  0
   92.0719   92.7126  -42.1022 H   0  0  0  0  0  0  0  0  0  0  0  0
   91.1648   98.1456  -43.0613 C   0  0  0  0  0  0  0  0  0  0  0  0
   92.2557   98.9884  -42.9779 C   0  0  0  0  0  0  0  0  0  0  0  0
   92.1175  100.3394  -42.7276 C   0  0  0  0  0  0  0  0  0  0  0  0
   90.8726  100.9055  -42.5479 C   0  0  0  0  0  0  0  0  0  0  0  0
   89.7688  100.0824  -42.6263 C   0  0  0  0  0  0  0  0  0  0  0  0
   89.9287   98.7343  -42.8776 C   0  0  0  0  0  0  0  0  0  0  0  0
   90.6509  102.7729  -42.1998 Br  0  0  0  0  0  0  0  0  0  0  0  0
   91.3380   93.4699  -46.5299 C   0  0  0  0  0  0  0  0  0  0  0  0
   90.8997   91.6121  -48.1639 N   0  0  0  0  0  0  0  0  0  0  0  0
   91.2245   92.0249  -46.8755 C   0  0  0  0  0  0  0  0  0  0  0  0
   91.4360   91.2231  -45.9512 O   0  0  0  0  0  0  0  0  0  0  0  0
   90.7407   92.4000  -48.8753 H   0  0  0  0  0  0  0  0  0  0  0  0
   93.1074   90.0032  -48.4606 F   0  0  0  0  0  0  0  0  0  0  0  0
   91.8948   89.4733  -48.7932 C   0  0  0  0  0  0  0  0  0  0  0  0
   90.7555   90.2806  -48.6475 C   0  0  0  0  0  0  0  0  0  0  0  0
   89.5605   89.7038  -48.9942 C   0  0  0  0  0  0  0  0  0  0  0  0
   89.5082   88.3997  -49.4586 C   0  0  0  0  0  0  0  0  0  0  0  0
   90.6180   87.6190  -49.5980 C   0  0  0  0  0  0  0  0  0  0  0  0
   91.8243   88.1834  -49.2541 C   0  0  0  0  0  0  0  0  0  0  0  0
 25 26  1  0  0  0
 26 27  2  0  0  0
 26 31  1  0  0  0
 27 28  1  0  0  0
 27 21  1  0  0  0
 28 29  2  0  0  0
 29 30  1  0  0  0
 30 31  2  0  0  0
 21 22  1  0  0  0
 22 23  2  0  0  0
 22 20  1  0  0  0
 20  1  1  0  0  0
  1  2  1  0  0  0
  1  5  1  0  0  0
  2  3  1  0  0  0
  3  4  1  0  0  0
  4  5  2  0  0  0
  4  9  1  0  0  0
  5  6  1  0  0  0
  6  7  2  0  0  0
  6  8  1  0  0  0
  8  9  1  0  0  0
  8 13  1  0  0  0
  9 10  2  0  0  0
 13 14  2  0  0  0
 13 18  1  0  0  0
 14 15  1  0  0  0
 15 16  2  0  0  0
 16 17  1  0  0  0
 16 19  1  0  0  0
 17 18  2  0  0  0
 21 24  1  0  0  0
  2 11  1  0  0  0
  3 12  1  0  0  0
M  END
> <minimizedAffinity>
-7.72518

$$$$
886


 31 34  0  0  0  0  0  0  0  0999 V2000
   91.3680   96.7251  -43.5642 N   0  0  0  0  0  0  0  0  0  0  0  0
   91.2730   96.0673  -44.7321 C   0  0  0  0  0  0  0  0  0  0  0  0
   91.0468   96.6749  -45.8138 O   0  0  0  0  0  0  0  0  0  0  0  0
   91.4498   94.7049  -44.5802 C   0  0  0  0  0  0  0  0  0  0  0  0
   91.6579   94.5320  -43.2779 C   0  0  0  0  0  0  0  0  0  0  0  0
   91.8315   93.2215  -43.0838 N   0  0  0  0  0  0  0  0  0  0  0  0
   91.7294   92.6096  -44.2488 N   0  0  0  0  0  0  0  0  0  0  0  0
   91.4914   93.5020  -45.2050 N   0  0  0  0  0  0  0  0  0  0  0  0
   91.6112   95.7561  -42.6455 C   0  0  0  0  0  0  0  0  0  0  0  0
   91.7594   96.0238  -41.4191 O   0  0  0  0  0  0  0  0  0  0  0  0
   92.0180   92.7880  -42.1377 H   0  0  0  0  0  0  0  0  0  0  0  0
   91.8176   91.5971  -44.4145 H   0  0  0  0  0  0  0  0  0  0  0  0
   90.6929  102.1905  -42.5343 F   0  0  0  0  0  0  0  0  0  0  0  0
   90.8612  100.8587  -42.7888 C   0  0  0  0  0  0  0  0  0  0  0  0
   92.0864  100.3886  -43.1683 C   0  0  0  0  0  0  0  0  0  0  0  0
   92.2694   99.0285  -43.4295 C   0  0  0  0  0  0  0  0  0  0  0  0
   91.2378   98.1239  -43.3174 C   0  0  0  0  0  0  0  0  0  0  0  0
   90.0079   98.6334  -42.9307 C   0  0  0  0  0  0  0  0  0  0  0  0
   89.8162   99.9716  -42.6707 C   0  0  0  0  0  0  0  0  0  0  0  0
   91.3126   93.2975  -46.6133 C   0  0  0  0  0  0  0  0  0  0  0  0
   91.1560   91.9019  -47.0365 C   0  0  0  0  0  0  0  0  0  0  0  0
   91.4363   91.0191  -46.2115 O   0  0  0  0  0  0  0  0  0  0  0  0
   90.7047   91.5932  -48.3231 N   0  0  0  0  0  0  0  0  0  0  0  0
   90.4767   92.4167  -48.9899 H   0  0  0  0  0  0  0  0  0  0  0  0
   90.4905   90.3265  -48.9148 C   0  0  0  0  0  0  0  0  0  0  0  0
   89.2512   89.9261  -49.3538 C   0  0  0  0  0  0  0  0  0  0  0  0
   89.0008   88.6825  -49.9418 C   0  0  0  0  0  0  0  0  0  0  0  0
   90.0757   87.8401  -50.0725 C   0  0  0  0  0  0  0  0  0  0  0  0
   91.3241   88.2153  -49.6428 C   0  0  0  0  0  0  0  0  0  0  0  0
   91.5429   89.4408  -49.0690 C   0  0  0  0  0  0  0  0  0  0  0  0
   89.8038   86.1090  -50.8764 Br  0  0  0  0  0  0  0  0  0  0  0  0
 13 14  1  0  0  0
 14 15  2  0  0  0
 14 19  1  0  0  0
 15 16  1  0  0  0
 16 17  2  0  0  0
 17 18  1  0  0  0
 17  1  1  0  0  0
 18 19  2  0  0  0
  1  2  1  0  0  0
  1  9  1  0  0  0
  2  3  2  0  0  0
  2  4  1  0  0  0
  4  5  2  0  0  0
  4  8  1  0  0  0
  5  6  1  0  0  0
  5  9  1  0  0  0
  6  7  1  0  0  0
  7  8  1  0  0  0
  8 20  1  0  0  0
 20 21  1  0  0  0
 21 22  2  0  0  0
 21 23  1  0  0  0
 23 25  1  0  0  0
 25 26  2  0  0  0
 25 30  1  0  0  0
 26 27  1  0  0  0
 27 28  2  0  0  0
 28 29  1  0  0  0
 28 31  1  0  0  0
 29 30  2  0  0  0
  9 10  2  0  0  0
  6 11  1  0  0  0
  7 12  1  0  0  0
 23 24  1  0  0  0
M  END
> <minimizedAffinity>
-7.68938

$$$$
892


 27 30  0  0  0  0  0  0  0  0999 V2000
   91.9478   98.9289  -43.6017 C   0  0  0  0  0  0  0  0  0  0  0  0
   91.4102   97.8135  -44.3476 N   0  0  0  0  0  0  0  0  0  0  0  0
   90.0228   97.8029  -44.7002 C   0  0  0  0  0  0  0  0  0  0  0  0
   89.1241   97.0311  -45.9728 S   0  0  0  0  0  0  0  0  0  0  0  0
   87.5645   97.5872  -45.5880 C   0  0  0  0  0  0  0  0  0  0  0  0
   87.7786   98.3512  -44.4937 C   0  0  0  0  0  0  0  0  0  0  0  0
   89.0350   98.4671  -44.0323 C   0  0  0  0  0  0  0  0  0  0  0  0
   89.5811   99.2207  -42.8678 C   0  0  0  0  0  0  0  0  0  0  0  0
   88.8313   99.8941  -42.1222 O   0  0  0  0  0  0  0  0  0  0  0  0
   90.9613   99.1969  -42.5688 N   0  0  0  0  0  0  0  0  0  0  0  0
   86.5221   98.9923  -43.9169 C   0  0  0  0  0  0  0  0  0  0  0  0
   85.3419   98.1926  -44.3634 C   0  0  0  0  0  0  0  0  0  0  0  0
   85.3193   98.3064  -45.8303 N   0  0  0  0  0  0  0  0  0  0  0  0
   86.2779   97.3140  -46.2688 C   0  0  0  0  0  0  0  0  0  0  0  0
   83.9960   98.0675  -46.3553 C   0  0  0  0  0  0  0  0  0  0  0  0
   91.9859   96.9965  -44.6491 H   0  0  0  0  0  0  0  0  0  0  0  0
   91.3043   99.3734  -41.5903 H   0  0  0  0  0  0  0  0  0  0  0  0
   85.6931   99.2409  -46.0990 H   0  0  0  0  0  0  0  0  0  0  0  0
   93.2597  100.8436  -48.6596 I   0  0  0  0  0  0  0  0  0  0  0  0
   92.5564  101.0721  -46.6905 C   0  0  0  0  0  0  0  0  0  0  0  0
   92.4852   99.9653  -45.8431 C   0  0  0  0  0  0  0  0  0  0  0  0
   92.0324  100.0706  -44.5497 C   0  0  0  0  0  0  0  0  0  0  0  0
   91.6476  101.3541  -44.1365 C   0  0  0  0  0  0  0  0  0  0  0  0
   91.7200  102.4352  -44.9758 C   0  0  0  0  0  0  0  0  0  0  0  0
   92.1766  102.3079  -46.2666 C   0  0  0  0  0  0  0  0  0  0  0  0
   91.1875  104.1627  -44.3783 Br  0  0  0  0  0  0  0  0  0  0  0  0
   92.8802   98.7363  -46.3229 O   0  0  0  0  0  0  0  0  0  0  0  0
 19 20  1  0  0  0
 20 21  2  0  0  0
 20 25  1  0  0  0
 21 22  1  0  0  0
 21 27  1  0  0  0
 22 23  2  0  0  0
 22  1  1  0  0  0
 23 24  1  0  0  0
 24 25  2  0  0  0
 24 26  1  0  0  0
  1  2  1  0  0  0
  1 10  1  0  0  0
  2  3  1  0  0  0
  3  4  1  0  0  0
  3  7  2  0  0  0
  4  5  1  0  0  0
  5  6  2  0  0  0
  5 14  1  0  0  0
  6  7  1  0  0  0
  6 11  1  0  0  0
  7  8  1  0  0  0
  8  9  2  0  0  0
  8 10  1  0  0  0
 11 12  1  0  0  0
 12 13  1  0  0  0
 13 14  1  0  0  0
 13 15  1  0  0  0
  2 16  1  0  0  0
 10 17  1  0  0  0
 13 18  1  0  0  0
M  CHG 1  13   1
M  CHG 1  27  -1
M  END
> <minimizedAffinity>
-5.59092

$$$$
895


 28 31  0  0  0  0  0  0  0  0999 V2000
   90.5695   97.4629  -45.5061 C   0  0  0  0  0  0  0  0  0  0  0  0
   89.9183   98.1183  -44.3717 N   0  0  0  0  0  0  0  0  0  0  0  0
   88.7203   98.9131  -44.5569 C   0  0  0  0  0  0  0  0  0  0  0  0
   87.8981  100.0375  -43.5499 S   0  0  0  0  0  0  0  0  0  0  0  0
   86.6258  100.4495  -44.5925 C   0  0  0  0  0  0  0  0  0  0  0  0
   86.8712   99.6966  -45.7092 C   0  0  0  0  0  0  0  0  0  0  0  0
   87.9617   98.8999  -45.6831 C   0  0  0  0  0  0  0  0  0  0  0  0
   88.4438   97.9907  -46.7623 C   0  0  0  0  0  0  0  0  0  0  0  0
   87.8272   97.8849  -47.8654 O   0  0  0  0  0  0  0  0  0  0  0  0
   89.6112   97.2310  -46.5516 N   0  0  0  0  0  0  0  0  0  0  0  0
   85.8196   99.9254  -46.7892 C   0  0  0  0  0  0  0  0  0  0  0  0
   84.4478   99.7851  -46.1844 C   0  0  0  0  0  0  0  0  0  0  0  0
   84.2945  100.4436  -44.9304 N   0  0  0  0  0  0  0  0  0  0  0  0
   85.4065  101.3377  -44.6262 C   0  0  0  0  0  0  0  0  0  0  0  0
   84.3337   99.4060  -43.8880 C   0  0  0  0  0  0  0  0  0  0  0  0
   90.2882   98.0364  -43.4070 H   0  0  0  0  0  0  0  0  0  0  0  0
   89.8149   96.4268  -47.2008 H   0  0  0  0  0  0  0  0  0  0  0  0
   83.3854  100.9674  -44.8334 H   0  0  0  0  0  0  0  0  0  0  0  0
   91.5627   92.0783  -46.4532 I   0  0  0  0  0  0  0  0  0  0  0  0
   91.4874   93.8057  -45.2452 C   0  0  0  0  0  0  0  0  0  0  0  0
   91.8626   93.7293  -43.9192 C   0  0  0  0  0  0  0  0  0  0  0  0
   91.8176   94.8626  -43.1087 C   0  0  0  0  0  0  0  0  0  0  0  0
   91.3952   96.0270  -43.6758 C   0  0  0  0  0  0  0  0  0  0  0  0
   91.0124   96.1322  -45.0069 C   0  0  0  0  0  0  0  0  0  0  0  0
   91.0633   95.0093  -45.7858 C   0  0  0  0  0  0  0  0  0  0  0  0
   92.2856   92.5288  -43.3802 O   0  0  0  0  0  0  0  0  0  0  0  0
   92.2062   94.7260  -41.7828 O   0  0  0  0  0  0  0  0  0  0  0  0
   92.1428   95.8611  -40.9399 C   0  0  0  0  0  0  0  0  0  0  0  0
 19 20  1  0  0  0
 20 21  2  0  0  0
 20 25  1  0  0  0
 21 22  1  0  0  0
 21 26  1  0  0  0
 22 23  2  0  0  0
 22 27  1  0  0  0
 23 24  1  0  0  0
 24 25  2  0  0  0
 24  1  1  0  0  0
  1  2  1  0  0  0
  1 10  1  0  0  0
  2  3  1  0  0  0
  3  4  1  0  0  0
  3  7  2  0  0  0
  4  5  1  0  0  0
  5  6  2  0  0  0
  5 14  1  0  0  0
  6  7  1  0  0  0
  6 11  1  0  0  0
  7  8  1  0  0  0
  8  9  2  0  0  0
  8 10  1  0  0  0
 11 12  1  0  0  0
 12 13  1  0  0  0
 13 14  1  0  0  0
 13 15  1  0  0  0
 27 28  1  0  0  0
  2 16  1  0  0  0
 10 17  1  0  0  0
 13 18  1  0  0  0
M  CHG 1  13   1
M  CHG 1  26  -1
M  END
> <minimizedAffinity>
-6.10253

$$$$
906


 27 30  0  0  0  0  0  0  0  0999 V2000
   91.2307   96.7946  -43.8640 C   0  0  0  0  0  0  0  0  0  0  0  0
   91.6346   96.3561  -42.6776 N   0  0  0  0  0  0  0  0  0  0  0  0
   91.9489   95.0852  -42.3755 C   0  0  0  0  0  0  0  0  0  0  0  0
   92.3644   94.3845  -41.3134 N   0  0  0  0  0  0  0  0  0  0  0  0
   92.5079   93.1289  -41.6252 O   0  0  0  0  0  0  0  0  0  0  0  0
   92.1988   92.9537  -42.8784 N   0  0  0  0  0  0  0  0  0  0  0  0
   91.8430   94.1377  -43.3994 C   0  0  0  0  0  0  0  0  0  0  0  0
   91.4449   94.5172  -44.6001 N   0  0  0  0  0  0  0  0  0  0  0  0
   91.1430   95.7936  -44.8515 C   0  0  0  0  0  0  0  0  0  0  0  0
   90.7858   95.8520  -46.1242 N   0  0  0  0  0  0  0  0  0  0  0  0
   90.8637   94.6240  -46.6661 N   0  0  0  0  0  0  0  0  0  0  0  0
   91.2764   93.7638  -45.7239 C   0  0  0  0  0  0  0  0  0  0  0  0
   90.8976   98.1246  -44.1923 N   0  0  0  0  0  0  0  0  0  0  0  0
   90.7986   98.3664  -45.2411 H   0  0  0  0  0  0  0  0  0  0  0  0
   87.7804   98.7858  -44.2453 I   0  0  0  0  0  0  0  0  0  0  0  0
   89.3537   99.6963  -43.1706 C   0  0  0  0  0  0  0  0  0  0  0  0
   90.6706   99.2067  -43.3180 C   0  0  0  0  0  0  0  0  0  0  0  0
   91.7009   99.7800  -42.6289 C   0  0  0  0  0  0  0  0  0  0  0  0
   91.4010  100.8552  -41.7884 C   0  0  0  0  0  0  0  0  0  0  0  0
   90.1374  101.3492  -41.6253 C   0  0  0  0  0  0  0  0  0  0  0  0
   89.0960  100.7535  -42.3335 C   0  0  0  0  0  0  0  0  0  0  0  0
   91.5228   92.3006  -45.8241 C   0  0  0  0  0  0  0  0  0  0  0  0
   91.6661   91.8270  -47.2215 C   0  0  0  0  0  0  0  0  0  0  0  0
   92.7116   91.3048  -47.6610 O   0  0  0  0  0  0  0  0  0  0  0  0
   90.6066   91.9697  -48.0740 O   0  0  0  0  0  0  0  0  0  0  0  0
   90.3624   91.1841  -49.1854 C   0  0  0  0  0  0  0  0  0  0  0  0
   89.8491   89.8194  -48.9269 C   0  0  0  0  0  0  0  0  0  0  0  0
 15 16  1  0  0  0
 16 17  2  0  0  0
 16 21  1  0  0  0
 17 18  1  0  0  0
 17 13  1  0  0  0
 18 19  2  0  0  0
 19 20  1  0  0  0
 20 21  2  0  0  0
 13  1  1  0  0  0
  1  2  2  0  0  0
  1  9  1  0  0  0
  2  3  1  0  0  0
  3  4  2  0  0  0
  3  7  1  0  0  0
  4  5  1  0  0  0
  5  6  1  0  0  0
  6  7  2  0  0  0
  7  8  1  0  0  0
  8  9  1  0  0  0
  8 12  1  0  0  0
  9 10  2  0  0  0
 10 11  1  0  0  0
 11 12  2  0  0  0
 12 22  1  0  0  0
 22 23  1  0  0  0
 23 24  2  0  0  0
 23 25  1  0  0  0
 25 26  1  0  0  0
 26 27  1  0  0  0
 13 14  1  0  0  0
M  END
> <minimizedAffinity>
-6.63624

$$$$
908


 25 28  0  0  0  0  0  0  0  0999 V2000
   91.0360   98.8925  -44.5971 N   0  0  0  0  0  0  0  0  0  0  0  0
   91.5141   97.8042  -43.9680 C   0  0  0  0  0  0  0  0  0  0  0  0
   92.1912   97.8182  -42.8963 O   0  0  0  0  0  0  0  0  0  0  0  0
   91.1760   96.6458  -44.6372 C   0  0  0  0  0  0  0  0  0  0  0  0
   90.4792   97.0368  -45.6918 C   0  0  0  0  0  0  0  0  0  0  0  0
   90.1540   95.8917  -46.3369 N   0  0  0  0  0  0  0  0  0  0  0  0
   90.6372   94.8441  -45.6945 N   0  0  0  0  0  0  0  0  0  0  0  0
   91.2729   95.2871  -44.6407 N   0  0  0  0  0  0  0  0  0  0  0  0
   90.3867   98.4195  -45.6764 C   0  0  0  0  0  0  0  0  0  0  0  0
   89.7784   99.1103  -46.5571 O   0  0  0  0  0  0  0  0  0  0  0  0
   89.6013   95.8221  -47.2172 H   0  0  0  0  0  0  0  0  0  0  0  0
   90.5342   93.8475  -45.9741 H   0  0  0  0  0  0  0  0  0  0  0  0
   88.5431   99.7607  -42.8435 I   0  0  0  0  0  0  0  0  0  0  0  0
   90.2138  100.9034  -43.4623 C   0  0  0  0  0  0  0  0  0  0  0  0
   91.1668  100.2668  -44.2309 C   0  0  0  0  0  0  0  0  0  0  0  0
   92.2485  101.0284  -44.6236 C   0  0  0  0  0  0  0  0  0  0  0  0
   92.3624  102.3599  -44.2623 C   0  0  0  0  0  0  0  0  0  0  0  0
   91.4037  102.9854  -43.4936 C   0  0  0  0  0  0  0  0  0  0  0  0
   90.3194  102.2305  -43.0969 C   0  0  0  0  0  0  0  0  0  0  0  0
   91.9579   94.5392  -43.6449 C   0  0  0  0  0  0  0  0  0  0  0  0
   91.7677   94.7649  -42.2996 C   0  0  0  0  0  0  0  0  0  0  0  0
   92.4508   94.0181  -41.3535 C   0  0  0  0  0  0  0  0  0  0  0  0
   93.3414   93.0271  -41.7113 C   0  0  0  0  0  0  0  0  0  0  0  0
   93.5325   92.7998  -43.0576 C   0  0  0  0  0  0  0  0  0  0  0  0
   92.8602   93.5354  -44.0027 C   0  0  0  0  0  0  0  0  0  0  0  0
 13 14  1  0  0  0
 14 15  2  0  0  0
 14 19  1  0  0  0
 15 16  1  0  0  0
 15  1  1  0  0  0
 16 17  2  0  0  0
 17 18  1  0  0  0
 18 19  2  0  0  0
  1  2  1  0  0  0
  1  9  1  0  0  0
  2  3  2  0  0  0
  2  4  1  0  0  0
  4  5  2  0  0  0
  4  8  1  0  0  0
  5  6  1  0  0  0
  5  9  1  0  0  0
  6  7  1  0  0  0
  7  8  1  0  0  0
  8 20  1  0  0  0
 20 21  2  0  0  0
 20 25  1  0  0  0
 21 22  1  0  0  0
 22 23  2  0  0  0
 23 24  1  0  0  0
 24 25  2  0  0  0
  9 10  2  0  0  0
  6 11  1  0  0  0
  7 12  1  0  0  0
M  END
> <minimizedAffinity>
-6.22861

$$$$
910


 26 29  0  0  0  0  0  0  0  0999 V2000
   88.8893   97.8476  -44.8056 C   0  0  0  0  0  0  0  0  0  0  0  0
   88.7950   98.8477  -43.8104 C   0  0  0  0  0  0  0  0  0  0  0  0
   89.6090   99.1725  -42.8126 N   0  0  0  0  0  0  0  0  0  0  0  0
   89.0818  100.1649  -42.1626 O   0  0  0  0  0  0  0  0  0  0  0  0
   87.9604  100.5013  -42.6902 N   0  0  0  0  0  0  0  0  0  0  0  0
   87.7380   99.6944  -43.7359 C   0  0  0  0  0  0  0  0  0  0  0  0
   86.7140   99.5927  -44.6511 C   0  0  0  0  0  0  0  0  0  0  0  0
   86.7739   98.6328  -45.6281 C   0  0  0  0  0  0  0  0  0  0  0  0
   87.8443   97.7643  -45.7155 C   0  0  0  0  0  0  0  0  0  0  0  0
   85.6354  100.4823  -44.5356 N   0  0  0  0  0  0  0  0  0  0  0  0
   85.6573  101.8308  -45.1041 C   0  0  0  0  0  0  0  0  0  0  0  0
   85.5416  102.7513  -43.9062 C   0  0  0  0  0  0  0  0  0  0  0  0
   85.4150  102.0819  -42.6998 O   0  0  0  0  0  0  0  0  0  0  0  0
   84.3996  101.1507  -42.6465 C   0  0  0  0  0  0  0  0  0  0  0  0
   84.3768  100.2456  -43.8657 C   0  0  0  0  0  0  0  0  0  0  0  0
   91.1987   96.4261  -44.7824 C   0  0  0  0  0  0  0  0  0  0  0  0
   92.1896   96.6362  -45.5948 O   0  0  0  0  0  0  0  0  0  0  0  0
   90.0642   97.1244  -44.7939 N   0  0  0  0  0  0  0  0  0  0  0  0
   90.4376   97.7434  -45.9476 H   0  0  0  0  0  0  0  0  0  0  0  0
   91.3615   93.1913  -46.1913 I   0  0  0  0  0  0  0  0  0  0  0  0
   91.6562   93.9842  -44.2382 C   0  0  0  0  0  0  0  0  0  0  0  0
   91.5274   95.3035  -43.8618 C   0  0  0  0  0  0  0  0  0  0  0  0
   91.8039   95.3731  -42.5573 N   0  0  0  0  0  0  0  0  0  0  0  0
   92.0926   94.1509  -42.1271 N   0  0  0  0  0  0  0  0  0  0  0  0
   92.0149   93.2698  -43.1220 C   0  0  0  0  0  0  0  0  0  0  0  0
   91.8555   96.5653  -41.6907 C   0  0  0  0  0  0  0  0  0  0  0  0
 20 21  1  0  0  0
 21 22  2  0  0  0
 21 25  1  0  0  0
 22 23  1  0  0  0
 22 16  1  0  0  0
 23 24  1  0  0  0
 23 26  1  0  0  0
 24 25  2  0  0  0
 16 17  2  0  0  0
 16 18  1  0  0  0
 18  1  1  0  0  0
  1  2  1  0  0  0
  1  9  2  0  0  0
  2  3  2  0  0  0
  2  6  1  0  0  0
  3  4  1  0  0  0
  4  5  1  0  0  0
  5  6  2  0  0  0
  6  7  1  0  0  0
  7  8  2  0  0  0
  7 10  1  0  0  0
  8  9  1  0  0  0
 10 11  1  0  0  0
 10 15  1  0  0  0
 11 12  1  0  0  0
 12 13  1  0  0  0
 13 14  1  0  0  0
 14 15  1  0  0  0
 18 19  1  0  0  0
M  END
> <minimizedAffinity>
-5.81655

$$$$
920


 24 27  0  0  0  0  0  0  0  0999 V2000
   91.6559   95.0024  -42.4806 N   0  0  0  0  0  0  0  0  0  0  0  0
   91.5233   96.1336  -43.1003 C   0  0  0  0  0  0  0  0  0  0  0  0
   91.0400   96.7998  -44.7009 S   0  0  0  0  0  0  0  0  0  0  0  0
   91.3061   98.4887  -44.2132 C   0  0  0  0  0  0  0  0  0  0  0  0
   91.7149   98.5103  -42.9641 C   0  0  0  0  0  0  0  0  0  0  0  0
   91.8435   97.2518  -42.3272 N   0  0  0  0  0  0  0  0  0  0  0  0
   92.2393   96.7307  -40.9937 C   0  0  0  0  0  0  0  0  0  0  0  0
   92.1588   95.2531  -41.1581 C   0  0  0  0  0  0  0  0  0  0  0  0
   92.0070   99.8385  -42.3487 C   0  0  0  0  0  0  0  0  0  0  0  0
   92.3961   99.9695  -41.0414 C   0  0  0  0  0  0  0  0  0  0  0  0
   92.6800  101.2244  -40.4674 C   0  0  0  0  0  0  0  0  0  0  0  0
   92.5710  102.3701  -41.2211 C   0  0  0  0  0  0  0  0  0  0  0  0
   92.1816  102.2446  -42.5311 C   0  0  0  0  0  0  0  0  0  0  0  0
   91.9043  101.0028  -43.0883 C   0  0  0  0  0  0  0  0  0  0  0  0
   91.3919   93.7262  -43.0313 C   0  0  0  0  0  0  0  0  0  0  0  0
   92.1073   93.2304  -44.1771 C   0  0  0  0  0  0  0  0  0  0  0  0
   93.3990   93.1860  -43.9853 O   0  0  0  0  0  0  0  0  0  0  0  0
   90.3081   91.0571  -49.8574 I   0  0  0  0  0  0  0  0  0  0  0  0
   90.8840   91.8157  -48.0062 C   0  0  0  0  0  0  0  0  0  0  0  0
   90.6158   93.1001  -47.5741 C   0  0  0  0  0  0  0  0  0  0  0  0
   91.0081   93.5680  -46.3488 C   0  0  0  0  0  0  0  0  0  0  0  0
   91.6952   92.7781  -45.4781 C   0  0  0  0  0  0  0  0  0  0  0  0
   91.9753   91.4784  -45.8964 C   0  0  0  0  0  0  0  0  0  0  0  0
   91.5882   91.0127  -47.1086 C   0  0  0  0  0  0  0  0  0  0  0  0
 18 19  1  0  0  0
 19 20  2  0  0  0
 19 24  1  0  0  0
 20 21  1  0  0  0
 21 22  2  0  0  0
 22 23  1  0  0  0
 22 16  1  0  0  0
 23 24  2  0  0  0
 16 17  2  0  0  0
 16 15  1  0  0  0
 15  1  1  0  0  0
  1  2  2  0  0  0
  1  8  1  0  0  0
  2  3  1  0  0  0
  2  6  1  0  0  0
  3  4  1  0  0  0
  4  5  2  0  0  0
  5  6  1  0  0  0
  5  9  1  0  0  0
  6  7  1  0  0  0
  7  8  1  0  0  0
  9 10  2  0  0  0
  9 14  1  0  0  0
 10 11  1  0  0  0
 11 12  2  0  0  0
 12 13  1  0  0  0
 13 14  2  0  0  0
M  END
> <minimizedAffinity>
-6.18590

$$$$
924


 29 32  0  0  0  0  0  0  0  0999 V2000
   90.3740   95.0761  -46.3296 C   0  0  0  0  0  0  0  0  0  0  0  0
   90.7708   95.0544  -45.0459 N   0  0  0  0  0  0  0  0  0  0  0  0
   91.4008   93.9905  -44.5321 C   0  0  0  0  0  0  0  0  0  0  0  0
   91.6121   92.9542  -45.3600 N   0  0  0  0  0  0  0  0  0  0  0  0
   91.2284   92.9386  -46.6524 C   0  0  0  0  0  0  0  0  0  0  0  0
   90.5992   94.0280  -47.1306 N   0  0  0  0  0  0  0  0  0  0  0  0
   91.4902   91.7993  -47.4602 N   0  0  0  0  0  0  0  0  0  0  0  0
   90.6536   91.5283  -48.6062 C   0  0  0  0  0  0  0  0  0  0  0  0
   90.5567   89.9982  -48.6858 C   0  0  0  0  0  0  0  0  0  0  0  0
   91.8075   89.5219  -48.9800 O   0  0  0  0  0  0  0  0  0  0  0  0
   92.7874   89.7775  -48.0622 C   0  0  0  0  0  0  0  0  0  0  0  0
   92.5681   90.9267  -47.1464 C   0  0  0  0  0  0  0  0  0  0  0  0
   91.8312   93.9446  -43.1714 N   0  0  0  0  0  0  0  0  0  0  0  0
   91.7731   95.0716  -42.2906 C   0  0  0  0  0  0  0  0  0  0  0  0
   92.4844   94.6819  -40.9931 C   0  0  0  0  0  0  0  0  0  0  0  0
   93.7239   94.1163  -41.2420 O   0  0  0  0  0  0  0  0  0  0  0  0
   93.6550   92.9174  -41.9076 C   0  0  0  0  0  0  0  0  0  0  0  0
   92.3567   92.6971  -42.6412 C   0  0  0  0  0  0  0  0  0  0  0  0
   89.6953   96.2383  -46.8625 N   0  0  0  0  0  0  0  0  0  0  0  0
   90.1485   96.8060  -47.6117 H   0  0  0  0  0  0  0  0  0  0  0  0
   88.3049   97.5309  -45.5419 C   0  0  0  0  0  0  0  0  0  0  0  0
   88.4871   96.5901  -46.3591 N   0  0  0  0  0  0  0  0  0  0  0  0
   92.5530  101.7556  -43.4385 I   0  0  0  0  0  0  0  0  0  0  0  0
   91.1702  100.3118  -44.0552 C   0  0  0  0  0  0  0  0  0  0  0  0
   90.9134   99.1840  -43.3386 C   0  0  0  0  0  0  0  0  0  0  0  0
   89.9738   98.2543  -43.8085 C   0  0  0  0  0  0  0  0  0  0  0  0
   89.2824   98.4172  -44.9728 C   0  0  0  0  0  0  0  0  0  0  0  0
   89.5670   99.5882  -45.6912 C   0  0  0  0  0  0  0  0  0  0  0  0
   90.4863  100.5019  -45.2353 C   0  0  0  0  0  0  0  0  0  0  0  0
 23 24  1  0  0  0
 24 25  2  0  0  0
 24 29  1  0  0  0
 25 26  1  0  0  0
 26 27  2  0  0  0
 27 28  1  0  0  0
 27 21  1  0  0  0
 28 29  2  0  0  0
 21 22  2  0  0  0
 22 19  1  0  0  0
 19  1  1  0  0  0
  1  2  2  0  0  0
  1  6  1  0  0  0
  2  3  1  0  0  0
  3  4  2  0  0  0
  3 13  1  0  0  0
  4  5  1  0  0  0
  5  6  2  0  0  0
  5  7  1  0  0  0
  7  8  1  0  0  0
  7 12  1  0  0  0
  8  9  1  0  0  0
  9 10  1  0  0  0
 10 11  1  0  0  0
 11 12  1  0  0  0
 13 14  1  0  0  0
 13 18  1  0  0  0
 14 15  1  0  0  0
 15 16  1  0  0  0
 16 17  1  0  0  0
 17 18  1  0  0  0
 19 20  1  0  0  0
M  END
> <minimizedAffinity>
-6.76146

$$$$
935


 34 38  0  0  0  0  0  0  0  0999 V2000
   91.7396   96.3304  -43.9649 N   0  0  0  0  0  0  0  0  0  0  0  0
   91.9458   97.5438  -44.5056 C   0  0  0  0  0  0  0  0  0  0  0  0
   92.0715   98.6828  -43.7406 C   0  0  0  0  0  0  0  0  0  0  0  0
   91.9743   98.5063  -42.3742 C   0  0  0  0  0  0  0  0  0  0  0  0
   92.0676   99.4518  -41.5344 O   0  0  0  0  0  0  0  0  0  0  0  0
   91.7646   97.2758  -41.8113 N   0  0  0  0  0  0  0  0  0  0  0  0
   91.6517   96.2155  -42.6299 C   0  0  0  0  0  0  0  0  0  0  0  0
   91.4584   95.0659  -42.1593 O   0  0  0  0  0  0  0  0  0  0  0  0
   92.0393   97.6766  -45.8670 O   0  0  0  0  0  0  0  0  0  0  0  0
   91.6915   97.1483  -40.7848 H   0  0  0  0  0  0  0  0  0  0  0  0
   92.2785  100.0259  -44.2498 C   0  0  0  0  0  0  0  0  0  0  0  0
   91.8372  100.3015  -45.5800 N   0  0  0  0  0  0  0  0  0  0  0  0
   90.4161  100.2044  -45.7725 C   0  0  0  0  0  0  0  0  0  0  0  0
   89.6436  100.0690  -44.4773 C   0  0  0  0  0  0  0  0  0  0  0  0
   90.2018  101.0602  -43.4842 C   0  0  0  0  0  0  0  0  0  0  0  0
   91.5705  101.0421  -43.3916 C   0  0  0  0  0  0  0  0  0  0  0  0
   92.2239  101.9129  -42.5530 C   0  0  0  0  0  0  0  0  0  0  0  0
   91.4439  102.7940  -41.8178 C   0  0  0  0  0  0  0  0  0  0  0  0
   90.0670  102.8242  -41.8988 C   0  0  0  0  0  0  0  0  0  0  0  0
   89.4449  101.9238  -42.7627 C   0  0  0  0  0  0  0  0  0  0  0  0
   89.5980  103.8096  -41.0444 O   0  0  0  0  0  0  0  0  0  0  0  0
   90.6456  104.1704  -40.1295 C   0  0  0  0  0  0  0  0  0  0  0  0
   91.7780  103.7925  -40.8900 O   0  0  0  0  0  0  0  0  0  0  0  0
   92.1552  101.7367  -45.8009 C   0  0  0  0  0  0  0  0  0  0  0  0
   92.3715   99.8589  -46.3459 H   0  0  0  0  0  0  0  0  0  0  0  0
   93.5871  101.8887  -42.4684 O   0  0  0  0  0  0  0  0  0  0  0  0
   94.4655  102.9357  -42.7326 C   0  0  0  0  0  0  0  0  0  0  0  0
   91.1635   91.1607  -47.5763 I   0  0  0  0  0  0  0  0  0  0  0  0
   91.3404   92.8840  -46.3914 C   0  0  0  0  0  0  0  0  0  0  0  0
   92.2113   92.8959  -45.3070 C   0  0  0  0  0  0  0  0  0  0  0  0
   92.3324   94.0120  -44.5317 C   0  0  0  0  0  0  0  0  0  0  0  0
   91.6119   95.1709  -44.7730 C   0  0  0  0  0  0  0  0  0  0  0  0
   90.7389   95.1651  -45.8558 C   0  0  0  0  0  0  0  0  0  0  0  0
   90.6234   94.0321  -46.6334 C   0  0  0  0  0  0  0  0  0  0  0  0
 28 29  1  0  0  0
 29 30  2  0  0  0
 29 34  1  0  0  0
 30 31  1  0  0  0
 31 32  2  0  0  0
 32 33  1  0  0  0
 32  1  1  0  0  0
 33 34  2  0  0  0
  1  2  1  0  0  0
  1  7  1  0  0  0
  2  3  2  0  0  0
  2  9  1  0  0  0
  3  4  1  0  0  0
  3 11  1  0  0  0
  4  5  2  0  0  0
  4  6  1  0  0  0
  6  7  1  0  0  0
  7  8  2  0  0  0
 11 12  1  0  0  0
 11 16  1  0  0  0
 12 13  1  0  0  0
 12 24  1  0  0  0
 13 14  1  0  0  0
 14 15  1  0  0  0
 15 16  2  0  0  0
 15 20  1  0  0  0
 16 17  1  0  0  0
 17 18  2  0  0  0
 17 26  1  0  0  0
 18 19  1  0  0  0
 18 23  1  0  0  0
 19 20  2  0  0  0
 19 21  1  0  0  0
 21 22  1  0  0  0
 22 23  1  0  0  0
 26 27  1  0  0  0
  6 10  1  0  0  0
 12 25  1  0  0  0
M  CHG 1   9  -1
M  CHG 1  12   1
M  END
> <minimizedAffinity>
-7.01237

$$$$
937


 26 29  0  0  0  0  0  0  0  0999 V2000
   90.7207   99.4866  -43.0278 N   0  0  0  0  0  0  0  0  0  0  0  0
   91.5801  100.6085  -43.1430 C   0  0  0  0  0  0  0  0  0  0  0  0
   92.5947  100.6374  -43.8867 O   0  0  0  0  0  0  0  0  0  0  0  0
   91.0889  101.7072  -42.2657 C   0  0  0  0  0  0  0  0  0  0  0  0
   89.5949  101.4323  -42.2451 C   0  0  0  0  0  0  0  0  0  0  0  0
   89.4792   99.9905  -42.5403 C   0  0  0  0  0  0  0  0  0  0  0  0
   88.4457   99.2744  -42.3953 O   0  0  0  0  0  0  0  0  0  0  0  0
   91.9508   93.4144  -44.4839 I   0  0  0  0  0  0  0  0  0  0  0  0
   91.5393   95.4316  -44.0097 C   0  0  0  0  0  0  0  0  0  0  0  0
   91.0605   96.3222  -44.9473 C   0  0  0  0  0  0  0  0  0  0  0  0
   90.8009   97.6353  -44.6097 C   0  0  0  0  0  0  0  0  0  0  0  0
   91.0085   98.1084  -43.3310 C   0  0  0  0  0  0  0  0  0  0  0  0
   91.4859   97.2050  -42.4116 C   0  0  0  0  0  0  0  0  0  0  0  0
   91.7524   95.8869  -42.7267 C   0  0  0  0  0  0  0  0  0  0  0  0
   91.7053  101.5810  -41.0098 N   0  0  0  0  0  0  0  0  0  0  0  0
   92.9725  101.0139  -40.8782 C   0  0  0  0  0  0  0  0  0  0  0  0
   93.5988  101.6000  -39.5857 C   0  0  0  0  0  0  0  0  0  0  0  0
   93.4443  103.0464  -39.6290 N   0  0  0  0  0  0  0  0  0  0  0  0
   92.0931  103.5457  -39.6916 C   0  0  0  0  0  0  0  0  0  0  0  0
   91.1812  102.3503  -39.9551 C   0  0  0  0  0  0  0  0  0  0  0  0
   94.5642  103.9027  -39.6170 C   0  0  0  0  0  0  0  0  0  0  0  0
   95.8113  103.4119  -39.3810 N   0  0  0  0  0  0  0  0  0  0  0  0
   96.9070  104.1677  -39.3669 C   0  0  0  0  0  0  0  0  0  0  0  0
   96.8155  105.5335  -39.5996 C   0  0  0  0  0  0  0  0  0  0  0  0
   95.5448  106.0268  -39.8388 C   0  0  0  0  0  0  0  0  0  0  0  0
   94.4684  105.2291  -39.8444 N   0  0  0  0  0  0  0  0  0  0  0  0
  8  9  1  0  0  0
  9 10  2  0  0  0
  9 14  1  0  0  0
 10 11  1  0  0  0
 11 12  2  0  0  0
 12 13  1  0  0  0
 12  1  1  0  0  0
 13 14  2  0  0  0
  1  2  1  0  0  0
  1  6  1  0  0  0
  2  3  2  0  0  0
  2  4  1  0  0  0
  4  5  1  0  0  0
  4 15  1  0  0  0
  5  6  1  0  0  0
  6  7  2  0  0  0
 15 16  1  0  0  0
 15 20  1  0  0  0
 16 17  1  0  0  0
 17 18  1  0  0  0
 18 19  1  0  0  0
 18 21  1  0  0  0
 19 20  1  0  0  0
 21 22  2  0  0  0
 21 26  1  0  0  0
 22 23  1  0  0  0
 23 24  2  0  0  0
 24 25  1  0  0  0
 25 26  2  0  0  0
M  END
> <minimizedAffinity>
-5.70927

$$$$
950


 26 29  0  0  0  0  0  0  0  0999 V2000
   91.5278   97.6496  -44.1713 C   0  0  0  0  0  0  0  0  0  0  0  0
   92.0215   98.5747  -45.0964 C   0  0  0  0  0  0  0  0  0  0  0  0
   92.6731   98.4091  -46.2606 N   0  0  0  0  0  0  0  0  0  0  0  0
   92.9258   99.5824  -46.7614 O   0  0  0  0  0  0  0  0  0  0  0  0
   92.4713  100.5130  -45.9807 N   0  0  0  0  0  0  0  0  0  0  0  0
   91.8917   99.9268  -44.9155 C   0  0  0  0  0  0  0  0  0  0  0  0
   91.2568  100.4102  -43.7919 C   0  0  0  0  0  0  0  0  0  0  0  0
   90.7754   99.4936  -42.8912 C   0  0  0  0  0  0  0  0  0  0  0  0
   90.9041   98.1099  -43.0666 C   0  0  0  0  0  0  0  0  0  0  0  0
   91.1324  101.8123  -43.6225 N   0  0  0  0  0  0  0  0  0  0  0  0
   89.9790  102.5189  -44.1405 C   0  0  0  0  0  0  0  0  0  0  0  0
   90.0720  103.9524  -43.7490 C   0  0  0  0  0  0  0  0  0  0  0  0
   90.3503  104.1596  -42.4120 O   0  0  0  0  0  0  0  0  0  0  0  0
   91.4880  103.5700  -41.9596 C   0  0  0  0  0  0  0  0  0  0  0  0
   92.1261  102.6137  -42.9357 C   0  0  0  0  0  0  0  0  0  0  0  0
   90.9643   95.4891  -45.3183 C   0  0  0  0  0  0  0  0  0  0  0  0
   89.9690   95.9970  -45.9419 O   0  0  0  0  0  0  0  0  0  0  0  0
   91.7189   96.2787  -44.4617 N   0  0  0  0  0  0  0  0  0  0  0  0
   92.5204   95.7708  -43.9699 H   0  0  0  0  0  0  0  0  0  0  0  0
   92.4024   93.1566  -42.8556 I   0  0  0  0  0  0  0  0  0  0  0  0
   91.7044   93.0628  -44.8173 C   0  0  0  0  0  0  0  0  0  0  0  0
   91.6895   91.9006  -45.5887 C   0  0  0  0  0  0  0  0  0  0  0  0
   91.1993   92.2003  -46.7925 N   0  0  0  0  0  0  0  0  0  0  0  0
   90.9176   93.4738  -46.7950 N   0  0  0  0  0  0  0  0  0  0  0  0
   91.2125   94.0605  -45.5860 C   0  0  0  0  0  0  0  0  0  0  0  0
   91.0246   91.2391  -47.8901 C   0  0  0  0  0  0  0  0  0  0  0  0
 20 21  1  0  0  0
 21 22  2  0  0  0
 21 25  1  0  0  0
 22 23  1  0  0  0
 23 24  1  0  0  0
 23 26  1  0  0  0
 24 25  2  0  0  0
 25 16  1  0  0  0
 16 17  2  0  0  0
 16 18  1  0  0  0
 18  1  1  0  0  0
  1  2  1  0  0  0
  1  9  2  0  0  0
  2  3  2  0  0  0
  2  6  1  0  0  0
  3  4  1  0  0  0
  4  5  1  0  0  0
  5  6  2  0  0  0
  6  7  1  0  0  0
  7  8  2  0  0  0
  7 10  1  0  0  0
  8  9  1  0  0  0
 10 11  1  0  0  0
 10 15  1  0  0  0
 11 12  1  0  0  0
 12 13  1  0  0  0
 13 14  1  0  0  0
 14 15  1  0  0  0
 18 19  1  0  0  0
M  END
> <minimizedAffinity>
-6.10004

$$$$
956


 30 33  0  0  0  0  0  0  0  0999 V2000
   88.8502   95.6380  -48.3372 I   0  0  0  0  0  0  0  0  0  0  0  0
   89.8537   95.8396  -46.4942 C   0  0  0  0  0  0  0  0  0  0  0  0
   90.6526   94.9067  -45.9020 C   0  0  0  0  0  0  0  0  0  0  0  0
   91.0728   95.5091  -44.7155 C   0  0  0  0  0  0  0  0  0  0  0  0
   90.5691   96.7363  -44.5787 N   0  0  0  0  0  0  0  0  0  0  0  0
   89.8220   96.9462  -45.6622 C   0  0  0  0  0  0  0  0  0  0  0  0
   91.8886   94.8034  -43.9145 N   0  0  0  0  0  0  0  0  0  0  0  0
   92.2831   93.5639  -44.2450 C   0  0  0  0  0  0  0  0  0  0  0  0
   91.8785   92.9900  -45.3820 N   0  0  0  0  0  0  0  0  0  0  0  0
   91.0471   93.6373  -46.2562 C   0  0  0  0  0  0  0  0  0  0  0  0
   90.7600   97.6716  -43.5109 C   0  0  0  0  0  0  0  0  0  0  0  0
   89.8260   98.7005  -43.4960 O   0  0  0  0  0  0  0  0  0  0  0  0
   90.3031   99.5222  -42.4787 C   0  0  0  0  0  0  0  0  0  0  0  0
   91.8081   99.5558  -42.6087 C   0  0  0  0  0  0  0  0  0  0  0  0
   92.0591   98.4677  -43.6597 C   0  0  0  0  0  0  0  0  0  0  0  0
   92.4373   99.1207  -41.4416 O   0  0  0  0  0  0  0  0  0  0  0  0
   92.3496   99.8853  -40.7922 H   0  0  0  0  0  0  0  0  0  0  0  0
   89.8203  100.9623  -42.7017 C   0  0  0  0  0  0  0  0  0  0  0  0
   89.5617  101.5488  -41.4558 O   0  0  0  0  0  0  0  0  0  0  0  0
   90.3618  102.0737  -41.1355 H   0  0  0  0  0  0  0  0  0  0  0  0
   90.6485   92.9769  -47.4531 N   0  0  0  0  0  0  0  0  0  0  0  0
   90.9007   91.5803  -47.5779 C   0  0  0  0  0  0  0  0  0  0  0  0
   91.4664   91.0085  -46.6114 O   0  0  0  0  0  0  0  0  0  0  0  0
   90.1867   93.4180  -48.2532 H   0  0  0  0  0  0  0  0  0  0  0  0
   90.5518   90.7923  -48.7280 C   0  0  0  0  0  0  0  0  0  0  0  0
   90.0535   89.5256  -48.5966 C   0  0  0  0  0  0  0  0  0  0  0  0
   89.7063   88.7486  -49.7040 C   0  0  0  0  0  0  0  0  0  0  0  0
   89.8662   89.2608  -50.9577 C   0  0  0  0  0  0  0  0  0  0  0  0
   90.3637   90.5278  -51.1203 C   0  0  0  0  0  0  0  0  0  0  0  0
   90.7051   91.2891  -49.9967 C   0  0  0  0  0  0  0  0  0  0  0  0
  1  2  1  0  0  0
  2  3  1  0  0  0
  2  6  2  0  0  0
  3  4  2  0  0  0
  3 10  1  0  0  0
  4  5  1  0  0  0
  4  7  1  0  0  0
  5  6  1  0  0  0
  5 11  1  0  0  0
 11 12  1  0  0  0
 11 15  1  0  0  0
 12 13  1  0  0  0
 13 14  1  0  0  0
 13 18  1  0  0  0
 14 15  1  0  0  0
 14 16  1  0  0  0
 18 19  1  0  0  0
  7  8  2  0  0  0
  8  9  1  0  0  0
  9 10  2  0  0  0
 10 21  1  0  0  0
 21 22  1  0  0  0
 22 23  2  0  0  0
 22 25  1  0  0  0
 25 26  2  0  0  0
 25 30  1  0  0  0
 26 27  1  0  0  0
 27 28  2  0  0  0
 28 29  1  0  0  0
 29 30  2  0  0  0
 16 17  1  0  0  0
 19 20  1  0  0  0
 21 24  1  0  0  0
M  END
> <minimizedAffinity>
-7.19365

$$$$
961


 29 33  0  0  0  0  0  0  0  0999 V2000
   91.1651   94.4168  -45.2896 C   0  0  0  0  0  0  0  0  0  0  0  0
   91.6157   93.2180  -45.0078 N   0  0  0  0  0  0  0  0  0  0  0  0
   92.1590   92.9643  -43.7790 C   0  0  0  0  0  0  0  0  0  0  0  0
   92.2673   93.8954  -42.7922 C   0  0  0  0  0  0  0  0  0  0  0  0
   91.8018   95.1664  -43.0503 C   0  0  0  0  0  0  0  0  0  0  0  0
   91.7421   96.3358  -42.3241 N   0  0  0  0  0  0  0  0  0  0  0  0
   91.1886   97.2831  -43.0622 C   0  0  0  0  0  0  0  0  0  0  0  0
   90.8982   96.7032  -44.2587 N   0  0  0  0  0  0  0  0  0  0  0  0
   91.2616   95.4151  -44.2784 C   0  0  0  0  0  0  0  0  0  0  0  0
   92.2229   96.3713  -40.9721 C   0  0  0  0  0  0  0  0  0  0  0  0
   91.4966   92.1194  -45.9205 C   0  0  0  0  0  0  0  0  0  0  0  0
   90.8962   98.6795  -42.7178 C   0  0  0  0  0  0  0  0  0  0  0  0
   91.8215   99.6165  -42.3970 C   0  0  0  0  0  0  0  0  0  0  0  0
   91.4188  100.9212  -42.0550 C   0  0  0  0  0  0  0  0  0  0  0  0
   90.0838  101.2548  -42.0439 C   0  0  0  0  0  0  0  0  0  0  0  0
   89.1161  100.3141  -42.3696 C   0  0  0  0  0  0  0  0  0  0  0  0
   89.5473   99.0701  -42.6928 C   0  0  0  0  0  0  0  0  0  0  0  0
   89.4754   95.1949  -46.9662 C   0  0  0  0  0  0  0  0  0  0  0  0
   90.6568   94.8784  -46.5681 C   0  0  0  0  0  0  0  0  0  0  0  0
   88.8651   98.3490  -47.3003 Br  0  0  0  0  0  0  0  0  0  0  0  0
   88.7120   96.9487  -48.5838 C   0  0  0  0  0  0  0  0  0  0  0  0
   88.2758   97.3036  -49.8850 C   0  0  0  0  0  0  0  0  0  0  0  0
   88.0967   96.3462  -50.8463 C   0  0  0  0  0  0  0  0  0  0  0  0
   88.3483   95.0315  -50.5209 C   0  0  0  0  0  0  0  0  0  0  0  0
   88.7715   94.6978  -49.2542 C   0  0  0  0  0  0  0  0  0  0  0  0
   88.9691   95.6640  -48.2358 C   0  0  0  0  0  0  0  0  0  0  0  0
   88.0879   94.2654  -51.6691 O   0  0  0  0  0  0  0  0  0  0  0  0
   88.1917   95.1533  -52.7631 C   0  0  0  0  0  0  0  0  0  0  0  0
   87.6899   96.3572  -52.1841 O   0  0  0  0  0  0  0  0  0  0  0  0
 20 21  1  0  0  0
 21 22  2  0  0  0
 21 26  1  0  0  0
 22 23  1  0  0  0
 23 24  2  0  0  0
 23 29  1  0  0  0
 24 25  1  0  0  0
 24 27  1  0  0  0
 25 26  2  0  0  0
 26 18  1  0  0  0
 18 19  2  0  0  0
 19  1  1  0  0  0
  1  2  2  0  0  0
  1  9  1  0  0  0
  2  3  1  0  0  0
  2 11  1  0  0  0
  3  4  2  0  0  0
  4  5  1  0  0  0
  5  6  1  0  0  0
  5  9  2  0  0  0
  6  7  1  0  0  0
  6 10  1  0  0  0
  7  8  2  0  0  0
  7 12  1  0  0  0
  8  9  1  0  0  0
 12 13  2  0  0  0
 12 17  1  0  0  0
 13 14  1  0  0  0
 14 15  2  0  0  0
 15 16  1  0  0  0
 16 17  2  0  0  0
 27 28  1  0  0  0
 28 29  1  0  0  0
M  END
> <minimizedAffinity>
-6.53734

$$$$
969


 31 34  0  0  0  0  0  0  0  0999 V2000
   91.4657   92.5293  -46.2350 Br  0  0  0  0  0  0  0  0  0  0  0  0
   91.1337   94.2531  -45.5058 C   0  0  0  0  0  0  0  0  0  0  0  0
   90.3635   95.2188  -46.1475 C   0  0  0  0  0  0  0  0  0  0  0  0
   90.1521   96.4620  -45.5741 C   0  0  0  0  0  0  0  0  0  0  0  0
   90.7082   96.7610  -44.3470 C   0  0  0  0  0  0  0  0  0  0  0  0
   91.4660   95.8184  -43.7102 C   0  0  0  0  0  0  0  0  0  0  0  0
   91.6712   94.5892  -44.2839 C   0  0  0  0  0  0  0  0  0  0  0  0
   92.4609   93.6710  -43.5676 O   0  0  0  0  0  0  0  0  0  0  0  0
   92.2082   96.2985  -42.0057 Br  0  0  0  0  0  0  0  0  0  0  0  0
   89.3942   97.4355  -46.1882 C   0  0  0  0  0  0  0  0  0  0  0  0
   88.8410   97.1284  -47.4137 C   0  0  0  0  0  0  0  0  0  0  0  0
   89.1179   95.7887  -47.9458 C   0  0  0  0  0  0  0  0  0  0  0  0
   88.5523   95.4934  -49.1872 C   0  0  0  0  0  0  0  0  0  0  0  0
   87.7855   96.4248  -49.8481 C   0  0  0  0  0  0  0  0  0  0  0  0
   87.2960   96.1136  -50.9636 O   0  0  0  0  0  0  0  0  0  0  0  0
   87.5419   97.6869  -49.3169 C   0  0  0  0  0  0  0  0  0  0  0  0
   88.0634   98.0423  -48.1070 C   0  0  0  0  0  0  0  0  0  0  0  0
   86.4640   98.9197  -50.3030 Br  0  0  0  0  0  0  0  0  0  0  0  0
   88.8746   93.7575  -49.9458 Br  0  0  0  0  0  0  0  0  0  0  0  0
   89.8499   94.9051  -47.3092 O   0  0  0  0  0  0  0  0  0  0  0  0
   89.1788   98.7513  -45.5840 C   0  0  0  0  0  0  0  0  0  0  0  0
   88.0719   98.9893  -44.7899 C   0  0  0  0  0  0  0  0  0  0  0  0
   87.8438  100.2212  -44.2144 C   0  0  0  0  0  0  0  0  0  0  0  0
   88.7514  101.2346  -44.4439 C   0  0  0  0  0  0  0  0  0  0  0  0
   89.8542  101.0434  -45.2187 C   0  0  0  0  0  0  0  0  0  0  0  0
   90.0657   99.8063  -45.7864 C   0  0  0  0  0  0  0  0  0  0  0  0
   90.9582  102.3884  -45.4571 Cl  0  0  0  0  0  0  0  0  0  0  0  0
   86.9247   97.6745  -44.5095 Cl  0  0  0  0  0  0  0  0  0  0  0  0
   91.2294   99.5965  -46.6136 C   0  0  0  0  0  0  0  0  0  0  0  0
   92.3362   99.2207  -46.1386 O   0  0  0  0  0  0  0  0  0  0  0  0
   91.1637   99.8077  -47.9889 O   0  0  0  0  0  0  0  0  0  0  0  0
  1  2  1  0  0  0
  2  3  2  0  0  0
  2  7  1  0  0  0
  3  4  1  0  0  0
  3 20  1  0  0  0
  4  5  2  0  0  0
  4 10  1  0  0  0
  5  6  1  0  0  0
  6  7  2  0  0  0
  6  9  1  0  0  0
  7  8  1  0  0  0
 10 11  2  0  0  0
 10 21  1  0  0  0
 11 12  1  0  0  0
 11 17  1  0  0  0
 12 13  2  0  0  0
 12 20  1  0  0  0
 13 14  1  0  0  0
 13 19  1  0  0  0
 14 15  2  0  0  0
 14 16  1  0  0  0
 16 17  2  0  0  0
 16 18  1  0  0  0
 21 22  2  0  0  0
 21 26  1  0  0  0
 22 23  1  0  0  0
 22 28  1  0  0  0
 23 24  2  0  0  0
 24 25  1  0  0  0
 25 26  2  0  0  0
 25 27  1  0  0  0
 26 29  1  0  0  0
 29 30  2  0  0  0
 29 31  1  0  0  0
M  CHG 1   8  -1
M  END
> <minimizedAffinity>
-5.93754

$$$$
971


 29 33  0  0  0  0  0  0  0  0999 V2000
   92.1897   96.5905  -40.8258 Br  0  0  0  0  0  0  0  0  0  0  0  0
   91.8836   96.8088  -42.6956 C   0  0  0  0  0  0  0  0  0  0  0  0
   91.9138   98.0790  -43.3010 C   0  0  0  0  0  0  0  0  0  0  0  0
   91.7000   98.2771  -44.6330 C   0  0  0  0  0  0  0  0  0  0  0  0
   91.4404   97.1523  -45.4190 C   0  0  0  0  0  0  0  0  0  0  0  0
   91.4108   95.9220  -44.8324 C   0  0  0  0  0  0  0  0  0  0  0  0
   91.6271   95.7148  -43.4854 C   0  0  0  0  0  0  0  0  0  0  0  0
   91.5817   94.4167  -42.9495 O   0  0  0  0  0  0  0  0  0  0  0  0
   91.0573   94.3800  -45.8989 Br  0  0  0  0  0  0  0  0  0  0  0  0
   91.7382   99.6049  -45.2313 C   0  0  0  0  0  0  0  0  0  0  0  0
   92.8175   99.6005  -46.1636 O   0  0  0  0  0  0  0  0  0  0  0  0
   92.3951   99.8467  -47.4413 C   0  0  0  0  0  0  0  0  0  0  0  0
   93.1294   99.9008  -48.4540 O   0  0  0  0  0  0  0  0  0  0  0  0
   90.9585  100.0254  -47.3579 C   0  0  0  0  0  0  0  0  0  0  0  0
   90.5297   99.8884  -46.0574 C   0  0  0  0  0  0  0  0  0  0  0  0
   89.2052  100.0269  -45.8016 C   0  0  0  0  0  0  0  0  0  0  0  0
   88.3287  100.2966  -46.8317 C   0  0  0  0  0  0  0  0  0  0  0  0
   88.7541  100.4340  -48.1360 C   0  0  0  0  0  0  0  0  0  0  0  0
   90.0893  100.2978  -48.4102 C   0  0  0  0  0  0  0  0  0  0  0  0
   92.0209  100.6723  -44.2774 C   0  0  0  0  0  0  0  0  0  0  0  0
   92.2267  100.4105  -42.9513 C   0  0  0  0  0  0  0  0  0  0  0  0
   92.4989  101.4549  -42.0441 C   0  0  0  0  0  0  0  0  0  0  0  0
   92.5547  102.7451  -42.5169 C   0  0  0  0  0  0  0  0  0  0  0  0
   92.3472  103.0188  -43.8610 C   0  0  0  0  0  0  0  0  0  0  0  0
   92.0833  102.0013  -44.7344 C   0  0  0  0  0  0  0  0  0  0  0  0
   92.4214  104.8010  -44.5306 Br  0  0  0  0  0  0  0  0  0  0  0  0
   92.8236  103.7627  -41.6141 O   0  0  0  0  0  0  0  0  0  0  0  0
   92.7811  101.0486  -40.1961 Br  0  0  0  0  0  0  0  0  0  0  0  0
   92.1830   99.1292  -42.4199 O   0  0  0  0  0  0  0  0  0  0  0  0
  1  2  1  0  0  0
  2  3  2  0  0  0
  2  7  1  0  0  0
  3  4  1  0  0  0
  3 29  1  0  0  0
  4  5  2  0  0  0
  4 10  1  0  0  0
  5  6  1  0  0  0
  6  7  2  0  0  0
  6  9  1  0  0  0
  7  8  1  0  0  0
 10 11  1  0  0  0
 10 15  1  0  0  0
 10 20  1  0  0  0
 11 12  1  0  0  0
 12 13  2  0  0  0
 12 14  1  0  0  0
 14 15  2  0  0  0
 14 19  1  0  0  0
 15 16  1  0  0  0
 16 17  2  0  0  0
 17 18  1  0  0  0
 18 19  2  0  0  0
 20 21  2  0  0  0
 20 25  1  0  0  0
 21 22  1  0  0  0
 21 29  1  0  0  0
 22 23  2  0  0  0
 22 28  1  0  0  0
 23 24  1  0  0  0
 23 27  1  0  0  0
 24 25  2  0  0  0
 24 26  1  0  0  0
M  CHG 1   8  -1
M  CHG 1  27  -1
M  END
> <minimizedAffinity>
-6.51932

$$$$
978


 33 37  0  0  0  0  0  0  0  0999 V2000
   90.2385  104.1758  -43.4241 I   0  0  0  0  0  0  0  0  0  0  0  0
   89.3786  102.8998  -44.8705 C   0  0  0  0  0  0  0  0  0  0  0  0
   89.6574  101.5409  -44.7646 C   0  0  0  0  0  0  0  0  0  0  0  0
   89.1188  100.6965  -45.6796 C   0  0  0  0  0  0  0  0  0  0  0  0
   88.3079  101.2174  -46.6913 C   0  0  0  0  0  0  0  0  0  0  0  0
   88.0262  102.5613  -46.8041 C   0  0  0  0  0  0  0  0  0  0  0  0
   88.5775  103.4138  -45.8691 C   0  0  0  0  0  0  0  0  0  0  0  0
   88.3077  104.7713  -45.9638 O   0  0  0  0  0  0  0  0  0  0  0  0
   86.7894  103.3016  -48.3585 I   0  0  0  0  0  0  0  0  0  0  0  0
   89.3448   99.2632  -45.6621 C   0  0  0  0  0  0  0  0  0  0  0  0
   89.9625   98.8161  -46.8779 O   0  0  0  0  0  0  0  0  0  0  0  0
   89.2124   97.8666  -47.5202 C   0  0  0  0  0  0  0  0  0  0  0  0
   89.4403   97.2548  -48.6034 O   0  0  0  0  0  0  0  0  0  0  0  0
   88.0279   97.6597  -46.6995 C   0  0  0  0  0  0  0  0  0  0  0  0
   88.1023   98.4755  -45.6115 C   0  0  0  0  0  0  0  0  0  0  0  0
   87.0846   98.4731  -44.6577 C   0  0  0  0  0  0  0  0  0  0  0  0
   85.9864   97.6509  -44.7911 C   0  0  0  0  0  0  0  0  0  0  0  0
   85.9127   96.8178  -45.9043 C   0  0  0  0  0  0  0  0  0  0  0  0
   86.9119   96.8174  -46.8441 C   0  0  0  0  0  0  0  0  0  0  0  0
   86.8057   95.7809  -48.2162 Cl  0  0  0  0  0  0  0  0  0  0  0  0
   84.5522   95.7547  -46.1315 Cl  0  0  0  0  0  0  0  0  0  0  0  0
   84.7298   97.6731  -43.5757 Cl  0  0  0  0  0  0  0  0  0  0  0  0
   87.2435   99.5352  -43.2985 Cl  0  0  0  0  0  0  0  0  0  0  0  0
   90.2238   98.8504  -44.5345 C   0  0  0  0  0  0  0  0  0  0  0  0
   90.7444   99.7204  -43.6390 C   0  0  0  0  0  0  0  0  0  0  0  0
   91.5533   99.1994  -42.6311 C   0  0  0  0  0  0  0  0  0  0  0  0
   91.8349   97.8567  -42.5175 C   0  0  0  0  0  0  0  0  0  0  0  0
   91.2861   96.9985  -43.4492 C   0  0  0  0  0  0  0  0  0  0  0  0
   90.4867   97.4766  -44.4549 C   0  0  0  0  0  0  0  0  0  0  0  0
   91.6986   94.9381  -43.3024 I   0  0  0  0  0  0  0  0  0  0  0  0
   92.6302   97.3437  -41.5257 O   0  0  0  0  0  0  0  0  0  0  0  0
   92.3668  100.5390  -41.2352 I   0  0  0  0  0  0  0  0  0  0  0  0
   90.4829  101.0760  -43.7219 O   0  0  0  0  0  0  0  0  0  0  0  0
  1  2  1  0  0  0
  2  3  2  0  0  0
  2  7  1  0  0  0
  3  4  1  0  0  0
  3 33  1  0  0  0
  4  5  2  0  0  0
  4 10  1  0  0  0
  5  6  1  0  0  0
  6  7  2  0  0  0
  6  9  1  0  0  0
  7  8  1  0  0  0
 10 11  1  0  0  0
 10 15  1  0  0  0
 10 24  1  0  0  0
 11 12  1  0  0  0
 12 13  2  0  0  0
 12 14  1  0  0  0
 14 15  2  0  0  0
 14 19  1  0  0  0
 15 16  1  0  0  0
 16 17  2  0  0  0
 16 23  1  0  0  0
 17 18  1  0  0  0
 17 22  1  0  0  0
 18 19  2  0  0  0
 18 21  1  0  0  0
 19 20  1  0  0  0
 24 25  2  0  0  0
 24 29  1  0  0  0
 25 26  1  0  0  0
 25 33  1  0  0  0
 26 27  2  0  0  0
 26 32  1  0  0  0
 27 28  1  0  0  0
 27 31  1  0  0  0
 28 29  2  0  0  0
 28 30  1  0  0  0
M  CHG 1   8  -1
M  CHG 1  31  -1
M  END
> <minimizedAffinity>
-5.89637

$$$$
979


 29 33  0  0  0  0  0  0  0  0999 V2000
   91.2733  104.1699  -43.7548 I   0  0  0  0  0  0  0  0  0  0  0  0
   90.3214  102.7580  -45.0160 C   0  0  0  0  0  0  0  0  0  0  0  0
   90.4607  101.4078  -44.6522 C   0  0  0  0  0  0  0  0  0  0  0  0
   89.8592  100.4823  -45.4449 C   0  0  0  0  0  0  0  0  0  0  0  0
   89.1374  100.9090  -46.5740 C   0  0  0  0  0  0  0  0  0  0  0  0
   89.0023  102.2265  -46.9267 C   0  0  0  0  0  0  0  0  0  0  0  0
   89.6116  103.1641  -46.1224 C   0  0  0  0  0  0  0  0  0  0  0  0
   89.4957  104.5072  -46.4501 O   0  0  0  0  0  0  0  0  0  0  0  0
   87.8980  102.7999  -48.6427 I   0  0  0  0  0  0  0  0  0  0  0  0
   89.9470   99.0472  -45.1493 C   0  0  0  0  0  0  0  0  0  0  0  0
   90.4099   98.3087  -46.2636 O   0  0  0  0  0  0  0  0  0  0  0  0
   89.4975   97.3806  -46.6919 C   0  0  0  0  0  0  0  0  0  0  0  0
   89.5883   96.5652  -47.6479 O   0  0  0  0  0  0  0  0  0  0  0  0
   88.3366   97.4876  -45.8192 C   0  0  0  0  0  0  0  0  0  0  0  0
   88.5902   98.4639  -44.9111 C   0  0  0  0  0  0  0  0  0  0  0  0
   87.6089   98.7525  -43.9554 C   0  0  0  0  0  0  0  0  0  0  0  0
   86.4221   98.0566  -43.9490 C   0  0  0  0  0  0  0  0  0  0  0  0
   86.1617   97.0653  -44.8712 C   0  0  0  0  0  0  0  0  0  0  0  0
   87.1179   96.7729  -45.8136 C   0  0  0  0  0  0  0  0  0  0  0  0
   90.7328   98.7488  -43.9399 C   0  0  0  0  0  0  0  0  0  0  0  0
   91.3076   99.7170  -43.1907 C   0  0  0  0  0  0  0  0  0  0  0  0
   92.0374   99.3611  -42.0610 C   0  0  0  0  0  0  0  0  0  0  0  0
   92.1756   98.0494  -41.7040 C   0  0  0  0  0  0  0  0  0  0  0  0
   91.6037   97.0391  -42.4418 C   0  0  0  0  0  0  0  0  0  0  0  0
   90.8924   97.4136  -43.5485 C   0  0  0  0  0  0  0  0  0  0  0  0
   91.8210   95.0110  -41.8842 I   0  0  0  0  0  0  0  0  0  0  0  0
   92.9085   97.7222  -40.5703 O   0  0  0  0  0  0  0  0  0  0  0  0
   92.9376  100.8899  -40.8896 I   0  0  0  0  0  0  0  0  0  0  0  0
   91.1987  101.0797  -43.5122 O   0  0  0  0  0  0  0  0  0  0  0  0
  1  2  1  0  0  0
  2  3  2  0  0  0
  2  7  1  0  0  0
  3  4  1  0  0  0
  3 29  1  0  0  0
  4  5  2  0  0  0
  4 10  1  0  0  0
  5  6  1  0  0  0
  6  7  2  0  0  0
  6  9  1  0  0  0
  7  8  1  0  0  0
 10 11  1  0  0  0
 10 15  1  0  0  0
 10 20  1  0  0  0
 11 12  1  0  0  0
 12 13  2  0  0  0
 12 14  1  0  0  0
 14 15  2  0  0  0
 14 19  1  0  0  0
 15 16  1  0  0  0
 16 17  2  0  0  0
 17 18  1  0  0  0
 18 19  2  0  0  0
 20 21  2  0  0  0
 20 25  1  0  0  0
 21 22  1  0  0  0
 21 29  1  0  0  0
 22 23  2  0  0  0
 22 28  1  0  0  0
 23 24  1  0  0  0
 23 27  1  0  0  0
 24 25  2  0  0  0
 24 26  1  0  0  0
M  CHG 1   8  -1
M  CHG 1  27  -1
M  END
> <minimizedAffinity>
-6.16469

$$$$
980


 27 30  0  0  0  0  0  0  0  0999 V2000
   88.4706   94.0314  -50.0934 I   0  0  0  0  0  0  0  0  0  0  0  0
   88.4078   95.7836  -48.9250 C   0  0  0  0  0  0  0  0  0  0  0  0
   89.1002   95.9095  -47.7370 C   0  0  0  0  0  0  0  0  0  0  0  0
   89.0615   97.0536  -46.9693 C   0  0  0  0  0  0  0  0  0  0  0  0
   88.2901   98.1050  -47.4290 C   0  0  0  0  0  0  0  0  0  0  0  0
   87.5910   97.9875  -48.6209 C   0  0  0  0  0  0  0  0  0  0  0  0
   87.6351   96.8300  -49.3879 C   0  0  0  0  0  0  0  0  0  0  0  0
   86.9137   96.7660  -50.5773 O   0  0  0  0  0  0  0  0  0  0  0  0
   89.7471   97.1989  -45.7804 C   0  0  0  0  0  0  0  0  0  0  0  0
   90.5022   96.1005  -45.3802 C   0  0  0  0  0  0  0  0  0  0  0  0
   90.5172   94.9066  -46.2208 C   0  0  0  0  0  0  0  0  0  0  0  0
   91.2841   93.8521  -45.7716 C   0  0  0  0  0  0  0  0  0  0  0  0
   92.0060   93.8955  -44.5981 C   0  0  0  0  0  0  0  0  0  0  0  0
   92.7047   92.9161  -44.2021 O   0  0  0  0  0  0  0  0  0  0  0  0
   91.9921   95.0243  -43.8021 C   0  0  0  0  0  0  0  0  0  0  0  0
   91.2340   96.0982  -44.2246 C   0  0  0  0  0  0  0  0  0  0  0  0
   91.3689   92.0901  -46.9143 I   0  0  0  0  0  0  0  0  0  0  0  0
   89.8208   94.8954  -47.3309 O   0  0  0  0  0  0  0  0  0  0  0  0
   89.7085   98.4081  -44.9651 C   0  0  0  0  0  0  0  0  0  0  0  0
   90.6384   99.4105  -45.2235 C   0  0  0  0  0  0  0  0  0  0  0  0
   90.6407  100.5641  -44.4848 C   0  0  0  0  0  0  0  0  0  0  0  0
   89.7150  100.7296  -43.4782 C   0  0  0  0  0  0  0  0  0  0  0  0
   88.7836   99.7530  -43.2029 C   0  0  0  0  0  0  0  0  0  0  0  0
   88.7994   98.6018  -43.9583 C   0  0  0  0  0  0  0  0  0  0  0  0
   91.6242   99.2458  -46.2878 C   0  0  0  0  0  0  0  0  0  0  0  0
   92.7269   98.6819  -46.1114 O   0  0  0  0  0  0  0  0  0  0  0  0
   91.3684   99.7225  -47.5655 O   0  0  0  0  0  0  0  0  0  0  0  0
  1  2  1  0  0  0
  2  3  2  0  0  0
  2  7  1  0  0  0
  3  4  1  0  0  0
  3 18  1  0  0  0
  4  5  2  0  0  0
  4  9  1  0  0  0
  5  6  1  0  0  0
  6  7  2  0  0  0
  7  8  1  0  0  0
  9 10  2  0  0  0
  9 19  1  0  0  0
 10 11  1  0  0  0
 10 16  1  0  0  0
 11 12  2  0  0  0
 11 18  1  0  0  0
 12 13  1  0  0  0
 12 17  1  0  0  0
 13 14  2  0  0  0
 13 15  1  0  0  0
 15 16  2  0  0  0
 19 20  2  0  0  0
 19 24  1  0  0  0
 20 21  1  0  0  0
 20 25  1  0  0  0
 21 22  2  0  0  0
 22 23  1  0  0  0
 23 24  2  0  0  0
 25 26  2  0  0  0
 25 27  1  0  0  0
M  CHG 1   8  -1
M  END
> <minimizedAffinity>
-6.20496

$$$$
983


 34 37  0  0  0  0  0  0  0  0999 V2000
   90.9367   97.3828  -44.7281 C   0  0  0  0  0  0  0  0  0  0  0  0
   91.1530   96.0010  -44.8170 C   0  0  0  0  0  0  0  0  0  0  0  0
   91.6069   95.6359  -43.5688 C   0  0  0  0  0  0  0  0  0  0  0  0
   91.6551   96.7293  -42.7951 N   0  0  0  0  0  0  0  0  0  0  0  0
   91.2445   97.8431  -43.4753 C   0  0  0  0  0  0  0  0  0  0  0  0
   91.9155   94.2977  -43.3386 C   0  0  0  0  0  0  0  0  0  0  0  0
   91.7604   93.3879  -44.3481 C   0  0  0  0  0  0  0  0  0  0  0  0
   91.3005   93.7535  -45.6171 C   0  0  0  0  0  0  0  0  0  0  0  0
   90.9916   95.0982  -45.8442 C   0  0  0  0  0  0  0  0  0  0  0  0
   91.1072   92.4422  -46.9768 Br  0  0  0  0  0  0  0  0  0  0  0  0
   92.5420   93.7663  -41.6323 Br  0  0  0  0  0  0  0  0  0  0  0  0
   91.9678   96.7497  -41.7832 H   0  0  0  0  0  0  0  0  0  0  0  0
   91.1393   99.1834  -42.9107 C   0  0  0  0  0  0  0  0  0  0  0  0
   92.2171   99.9963  -42.7370 N   0  0  0  0  0  0  0  0  0  0  0  0
   91.8485  101.1636  -42.1865 C   0  0  0  0  0  0  0  0  0  0  0  0
   90.4868  101.1485  -41.9782 C   0  0  0  0  0  0  0  0  0  0  0  0
   90.0784   99.8928  -42.4420 C   0  0  0  0  0  0  0  0  0  0  0  0
   89.8151  102.2180  -41.4223 C   0  0  0  0  0  0  0  0  0  0  0  0
   90.5032  103.3617  -41.0483 C   0  0  0  0  0  0  0  0  0  0  0  0
   91.8736  103.3927  -41.2519 C   0  0  0  0  0  0  0  0  0  0  0  0
   92.5275  102.3137  -41.8095 C   0  0  0  0  0  0  0  0  0  0  0  0
   94.4143  102.4229  -42.0613 Br  0  0  0  0  0  0  0  0  0  0  0  0
   89.5916  104.8594  -40.2734 Br  0  0  0  0  0  0  0  0  0  0  0  0
   93.2063   99.7753  -42.9864 H   0  0  0  0  0  0  0  0  0  0  0  0
   88.7583   99.4825  -42.3986 O   0  0  0  0  0  0  0  0  0  0  0  0
   87.7145   99.6216  -43.7397 S   0  0  0  0  0  0  0  0  0  0  0  0
   88.2897  100.5449  -44.7740 O   0  0  0  0  0  0  0  0  0  0  0  0
   86.3724  100.1700  -43.3456 O   0  0  0  0  0  0  0  0  0  0  0  0
   87.4243   98.0809  -44.3903 O   0  0  0  0  0  0  0  0  0  0  0  0
   90.4723   98.1399  -45.7978 O   0  0  0  0  0  0  0  0  0  0  0  0
   91.4478   99.3478  -46.5200 S   0  0  0  0  0  0  0  0  0  0  0  0
   92.8675   98.8586  -46.4390 O   0  0  0  0  0  0  0  0  0  0  0  0
   91.0776   99.5443  -47.9694 O   0  0  0  0  0  0  0  0  0  0  0  0
   91.3510  100.7951  -45.6699 O   0  0  0  0  0  0  0  0  0  0  0  0
 31 32  2  0  0  0
 31 33  2  0  0  0
 31 34  1  0  0  0
 31 30  1  0  0  0
 30  1  1  0  0  0
  1  2  1  0  0  0
  1  5  2  0  0  0
  2  3  2  0  0  0
  2  9  1  0  0  0
  3  4  1  0  0  0
  3  6  1  0  0  0
  4  5  1  0  0  0
  5 13  1  0  0  0
 13 14  1  0  0  0
 13 17  2  0  0  0
 14 15  1  0  0  0
 15 16  2  0  0  0
 15 21  1  0  0  0
 16 17  1  0  0  0
 16 18  1  0  0  0
 17 25  1  0  0  0
 25 26  1  0  0  0
 26 27  2  0  0  0
 26 28  2  0  0  0
 26 29  1  0  0  0
 18 19  2  0  0  0
 19 20  1  0  0  0
 19 23  1  0  0  0
 20 21  2  0  0  0
 21 22  1  0  0  0
  6  7  2  0  0  0
  6 11  1  0  0  0
  7  8  1  0  0  0
  8  9  2  0  0  0
  8 10  1  0  0  0
  4 12  1  0  0  0
 14 24  1  0  0  0
M  END
> <minimizedAffinity>
-7.16645

$$$$
985


 28 31  0  0  0  0  0  0  0  0999 V2000
   91.0792   97.4614  -44.2358 N   0  0  0  0  0  0  0  0  0  0  0  0
   91.3808   96.2188  -43.8407 C   0  0  0  0  0  0  0  0  0  0  0  0
   91.8226   95.7270  -42.6508 N   0  0  0  0  0  0  0  0  0  0  0  0
   92.0721   94.4373  -42.4422 C   0  0  0  0  0  0  0  0  0  0  0  0
   91.8801   93.5746  -43.4565 N   0  0  0  0  0  0  0  0  0  0  0  0
   91.4432   93.9945  -44.6617 C   0  0  0  0  0  0  0  0  0  0  0  0
   91.1837   95.3315  -44.8804 C   0  0  0  0  0  0  0  0  0  0  0  0
   90.7548   96.0678  -45.9160 N   0  0  0  0  0  0  0  0  0  0  0  0
   90.6931   97.3609  -45.5202 C   0  0  0  0  0  0  0  0  0  0  0  0
   90.1435   98.8447  -46.6004 Br  0  0  0  0  0  0  0  0  0  0  0  0
   91.2424   93.1058  -45.7136 O   0  0  0  0  0  0  0  0  0  0  0  0
   92.5342   93.9707  -41.1776 N   0  0  0  0  0  0  0  0  0  0  0  0
   90.7453   92.2340  -45.4767 H   0  0  0  0  0  0  0  0  0  0  0  0
   93.5605   93.8103  -41.0867 H   0  0  0  0  0  0  0  0  0  0  0  0
   91.8850   93.7931  -40.3708 H   0  0  0  0  0  0  0  0  0  0  0  0
   91.4148  102.2299  -41.1818 P   0  0  0  0  0  0  0  0  0  0  0  0
   91.5808  101.4644  -39.8875 O   0  0  0  0  0  0  0  0  0  0  0  0
   92.3266  101.5163  -42.4356 O   0  0  0  0  0  0  0  0  0  0  0  0
   91.4061  100.9519  -43.3152 C   0  0  0  0  0  0  0  0  0  0  0  0
   90.3134  100.3310  -42.4363 C   0  0  0  0  0  0  0  0  0  0  0  0
   89.9492   99.2348  -43.1785 O   0  0  0  0  0  0  0  0  0  0  0  0
   91.1826   98.6149  -43.3765 C   0  0  0  0  0  0  0  0  0  0  0  0
   91.9678   99.7460  -44.0382 C   0  0  0  0  0  0  0  0  0  0  0  0
   93.3246   99.6050  -43.8903 O   0  0  0  0  0  0  0  0  0  0  0  0
   89.2514  101.3451  -42.2339 C   0  0  0  0  0  0  0  0  0  0  0  0
   89.8206  102.4609  -41.6108 O   0  0  0  0  0  0  0  0  0  0  0  0
   92.1224  103.7652  -40.9147 O   0  0  0  0  0  0  0  0  0  0  0  0
   93.7866   99.7942  -44.7676 H   0  0  0  0  0  0  0  0  0  0  0  0
 16 17  2  0  0  0
 16 18  1  0  0  0
 16 26  1  0  0  0
 16 27  1  0  0  0
 18 19  1  0  0  0
 19 20  1  0  0  0
 19 23  1  0  0  0
 20 21  1  0  0  0
 20 25  1  0  0  0
 21 22  1  0  0  0
 22 23  1  0  0  0
 22  1  1  0  0  0
 23 24  1  0  0  0
  1  2  1  0  0  0
  1  9  1  0  0  0
  2  3  2  0  0  0
  2  7  1  0  0  0
  3  4  1  0  0  0
  4  5  2  0  0  0
  4 12  1  0  0  0
  5  6  1  0  0  0
  6  7  2  0  0  0
  6 11  1  0  0  0
  7  8  1  0  0  0
  8  9  2  0  0  0
  9 10  1  0  0  0
 25 26  1  0  0  0
 24 28  1  0  0  0
 11 13  1  0  0  0
 12 14  1  0  0  0
 12 15  1  0  0  0
M  END
> <minimizedAffinity>
-6.79684

$$$$
991


 34 39  0  0  0  0  0  0  0  0999 V2000
   92.0829  101.7899  -40.8891 N   0  0  0  0  0  0  0  0  0  0  0  0
   91.7749  100.7205  -41.6650 C   0  0  0  0  0  0  0  0  0  0  0  0
   90.7647  101.0360  -42.5486 C   0  0  0  0  0  0  0  0  0  0  0  0
   90.4628  102.3262  -42.2932 N   0  0  0  0  0  0  0  0  0  0  0  0
   91.2568  102.7693  -41.2970 C   0  0  0  0  0  0  0  0  0  0  0  0
   91.2706  104.5182  -40.5228 Br  0  0  0  0  0  0  0  0  0  0  0  0
   90.3057  100.0764  -43.4285 C   0  0  0  0  0  0  0  0  0  0  0  0
   89.3901  100.3518  -44.2348 O   0  0  0  0  0  0  0  0  0  0  0  0
   90.8151   98.8238  -43.4590 N   0  0  0  0  0  0  0  0  0  0  0  0
   91.7998   98.5374  -42.5881 C   0  0  0  0  0  0  0  0  0  0  0  0
   92.1266   97.2529  -42.8163 N   0  0  0  0  0  0  0  0  0  0  0  0
   91.3840   96.7159  -43.8010 C   0  0  0  0  0  0  0  0  0  0  0  0
   90.5399   97.7251  -44.2145 C   0  0  0  0  0  0  0  0  0  0  0  0
   92.2665   99.4710  -41.7111 N   0  0  0  0  0  0  0  0  0  0  0  0
   93.0319   99.2438  -41.0370 H   0  0  0  0  0  0  0  0  0  0  0  0
   95.8945  103.9675  -37.0787 P   0  0  0  0  0  0  0  0  0  0  0  0
   97.2931  104.9789  -36.8851 S   0  0  0  0  0  0  0  0  0  0  0  0
   95.9370  103.3118  -38.6454 O   0  0  0  0  0  0  0  0  0  0  0  0
   94.6649  103.4855  -39.1828 C   0  0  0  0  0  0  0  0  0  0  0  0
   93.6825  103.1087  -38.0713 C   0  0  0  0  0  0  0  0  0  0  0  0
   92.6107  102.5830  -38.7383 O   0  0  0  0  0  0  0  0  0  0  0  0
   93.0912  101.8711  -39.8353 C   0  0  0  0  0  0  0  0  0  0  0  0
   94.3524  102.5217  -40.2876 C   0  0  0  0  0  0  0  0  0  0  0  0
   95.3849  101.5854  -40.4288 O   0  0  0  0  0  0  0  0  0  0  0  0
   93.3762  104.3860  -37.3263 C   0  0  0  0  0  0  0  0  0  0  0  0
   94.5401  104.9523  -36.8576 O   0  0  0  0  0  0  0  0  0  0  0  0
   95.8435  102.7567  -35.9011 O   0  0  0  0  0  0  0  0  0  0  0  0
   95.6692  101.2177  -39.5674 H   0  0  0  0  0  0  0  0  0  0  0  0
   91.4510   95.3464  -44.3278 C   0  0  0  0  0  0  0  0  0  0  0  0
   91.1551   95.0956  -45.6485 C   0  0  0  0  0  0  0  0  0  0  0  0
   91.2101   93.8116  -46.1759 C   0  0  0  0  0  0  0  0  0  0  0  0
   91.5703   92.7716  -45.3497 C   0  0  0  0  0  0  0  0  0  0  0  0
   91.8754   92.9815  -44.0139 C   0  0  0  0  0  0  0  0  0  0  0  0
   91.8048   94.2754  -43.5452 C   0  0  0  0  0  0  0  0  0  0  0  0
 16 17  2  0  0  0
 16 18  1  0  0  0
 16 26  1  0  0  0
 16 27  1  0  0  0
 18 19  1  0  0  0
 19 20  1  0  0  0
 19 23  1  0  0  0
 20 21  1  0  0  0
 20 25  1  0  0  0
 21 22  1  0  0  0
 22 23  1  0  0  0
 22  1  1  0  0  0
 23 24  1  0  0  0
  1  2  1  0  0  0
  1  5  1  0  0  0
  2  3  2  0  0  0
  2 14  1  0  0  0
  3  4  1  0  0  0
  3  7  1  0  0  0
  4  5  2  0  0  0
  5  6  1  0  0  0
  7  8  2  0  0  0
  7  9  1  0  0  0
  9 10  1  0  0  0
  9 13  1  0  0  0
 10 11  2  0  0  0
 10 14  1  0  0  0
 11 12  1  0  0  0
 12 13  2  0  0  0
 12 29  1  0  0  0
 29 30  2  0  0  0
 29 34  1  0  0  0
 30 31  1  0  0  0
 31 32  2  0  0  0
 32 33  1  0  0  0
 33 34  2  0  0  0
 25 26  1  0  0  0
 24 28  1  0  0  0
 14 15  1  0  0  0
M  END
> <minimizedAffinity>
-8.32116

$$$$
993


 26 29  0  0  0  0  0  0  0  0999 V2000
   91.8606  102.3468  -42.7054 P   0  0  0  0  0  0  0  0  0  0  0  0
   92.3045  102.8856  -44.3050 S   0  0  0  0  0  0  0  0  0  0  0  0
   92.5215  100.7991  -42.4165 O   0  0  0  0  0  0  0  0  0  0  0  0
   91.8016   99.9118  -43.1779 C   0  0  0  0  0  0  0  0  0  0  0  0
   90.3429   99.9284  -42.7016 C   0  0  0  0  0  0  0  0  0  0  0  0
   89.8739   98.7657  -43.3107 O   0  0  0  0  0  0  0  0  0  0  0  0
   90.8042   97.7943  -43.0273 C   0  0  0  0  0  0  0  0  0  0  0  0
   92.1487   98.4630  -42.8910 C   0  0  0  0  0  0  0  0  0  0  0  0
   92.5024   98.3994  -41.5363 O   0  0  0  0  0  0  0  0  0  0  0  0
   89.6331  101.1615  -43.1663 C   0  0  0  0  0  0  0  0  0  0  0  0
   90.2011  102.2555  -42.5386 O   0  0  0  0  0  0  0  0  0  0  0  0
   92.5217  103.4082  -41.5988 O   0  0  0  0  0  0  0  0  0  0  0  0
   93.3901   98.0244  -41.3886 H   0  0  0  0  0  0  0  0  0  0  0  0
   90.9185   96.7984  -44.0758 N   0  0  0  0  0  0  0  0  0  0  0  0
   91.3028   95.5140  -43.8660 C   0  0  0  0  0  0  0  0  0  0  0  0
   91.6585   94.8434  -42.7402 N   0  0  0  0  0  0  0  0  0  0  0  0
   92.0086   93.5430  -42.7855 C   0  0  0  0  0  0  0  0  0  0  0  0
   92.0081   92.8873  -43.9721 N   0  0  0  0  0  0  0  0  0  0  0  0
   91.6623   93.5167  -45.1091 C   0  0  0  0  0  0  0  0  0  0  0  0
   91.3004   94.8510  -45.0763 C   0  0  0  0  0  0  0  0  0  0  0  0
   90.9150   95.7330  -46.0163 N   0  0  0  0  0  0  0  0  0  0  0  0
   90.6867   96.9108  -45.3945 C   0  0  0  0  0  0  0  0  0  0  0  0
   90.1122   98.5552  -46.2024 Br  0  0  0  0  0  0  0  0  0  0  0  0
   91.6664   92.8103  -46.3539 N   0  0  0  0  0  0  0  0  0  0  0  0
   91.5939   91.7563  -46.3331 H   0  0  0  0  0  0  0  0  0  0  0  0
   91.7375   93.2940  -47.2707 H   0  0  0  0  0  0  0  0  0  0  0  0
  1  2  2  0  0  0
  1  3  1  0  0  0
  1 11  1  0  0  0
  1 12  1  0  0  0
  3  4  1  0  0  0
  4  5  1  0  0  0
  4  8  1  0  0  0
  5  6  1  0  0  0
  5 10  1  0  0  0
  6  7  1  0  0  0
  7  8  1  0  0  0
  7 14  1  0  0  0
  8  9  1  0  0  0
 14 15  1  0  0  0
 14 22  1  0  0  0
 15 16  2  0  0  0
 15 20  1  0  0  0
 16 17  1  0  0  0
 17 18  2  0  0  0
 18 19  1  0  0  0
 19 20  2  0  0  0
 19 24  1  0  0  0
 20 21  1  0  0  0
 21 22  2  0  0  0
 22 23  1  0  0  0
 10 11  1  0  0  0
  9 13  1  0  0  0
 24 25  1  0  0  0
 24 26  1  0  0  0
M  END
> <minimizedAffinity>
-6.53182

$$$$
999


 35 38  0  0  0  0  0  0  0  0999 V2000
   89.6115   96.9689  -45.6118 N   0  0  0  0  0  0  0  0  0  0  0  0
   89.7895   95.8780  -46.4980 C   0  0  0  0  0  0  0  0  0  0  0  0
   89.2512   95.9394  -47.6355 O   0  0  0  0  0  0  0  0  0  0  0  0
   90.0697   96.8947  -44.6686 H   0  0  0  0  0  0  0  0  0  0  0  0
   88.7735   99.2033  -43.4076 S   0  0  0  0  0  0  0  0  0  0  0  0
   88.8378   99.3011  -45.1949 C   0  0  0  0  0  0  0  0  0  0  0  0
   90.2029   99.4528  -45.5875 N   0  0  0  0  0  0  0  0  0  0  0  0
   91.3286   99.8776  -44.8138 C   0  0  0  0  0  0  0  0  0  0  0  0
   91.1417  100.4452  -43.6640 C   0  0  0  0  0  0  0  0  0  0  0  0
   89.7581  100.7041  -43.0505 C   0  0  0  0  0  0  0  0  0  0  0  0
   89.7453   98.9950  -46.8479 C   0  0  0  0  0  0  0  0  0  0  0  0
   89.8739   99.1202  -48.0711 O   0  0  0  0  0  0  0  0  0  0  0  0
   88.8363   98.0914  -46.0311 C   0  0  0  0  0  0  0  0  0  0  0  0
   92.6668   99.6259  -45.4238 C   0  0  0  0  0  0  0  0  0  0  0  0
   93.1266  100.1623  -46.4088 O   0  0  0  0  0  0  0  0  0  0  0  0
   93.5111   98.6742  -44.8216 O   0  0  0  0  0  0  0  0  0  0  0  0
   92.1717  100.9173  -42.7744 C   0  0  0  0  0  0  0  0  0  0  0  0
   92.4014  100.3876  -41.5490 O   0  0  0  0  0  0  0  0  0  0  0  0
   92.6632  101.1606  -40.4115 C   0  0  0  0  0  0  0  0  0  0  0  0
   93.8089  101.0894  -39.9296 O   0  0  0  0  0  0  0  0  0  0  0  0
   91.5641  101.9961  -39.8726 C   0  0  0  0  0  0  0  0  0  0  0  0
   90.5740   94.6951  -46.1304 C   0  0  0  0  0  0  0  0  0  0  0  0
   90.6674   93.5493  -46.7293 O   0  0  0  0  0  0  0  0  0  0  0  0
   91.4607   92.7333  -46.1143 C   0  0  0  0  0  0  0  0  0  0  0  0
   91.9491   93.4002  -44.9850 C   0  0  0  0  0  0  0  0  0  0  0  0
   91.3752   94.6426  -45.0120 C   0  0  0  0  0  0  0  0  0  0  0  0
   91.8271   91.3201  -46.4950 C   0  0  0  0  0  0  0  0  0  0  0  0
   92.1438   91.2370  -47.8605 O   0  0  0  0  0  0  0  0  0  0  0  0
   91.3273   90.7672  -48.8490 C   0  0  0  0  0  0  0  0  0  0  0  0
   90.4823   91.5614  -49.6192 C   0  0  0  0  0  0  0  0  0  0  0  0
   89.7013   90.9814  -50.5936 C   0  0  0  0  0  0  0  0  0  0  0  0
   89.7021   89.6324  -50.8613 C   0  0  0  0  0  0  0  0  0  0  0  0
   90.5398   88.8350  -50.1003 C   0  0  0  0  0  0  0  0  0  0  0  0
   91.3307   89.4134  -49.1162 C   0  0  0  0  0  0  0  0  0  0  0  0
   88.5977   88.8853  -52.2254 Br  0  0  0  0  0  0  0  0  0  0  0  0
  5  6  1  0  0  0
  5 10  1  0  0  0
  6  7  1  0  0  0
  6 13  1  0  0  0
  7  8  1  0  0  0
  7 11  1  0  0  0
  8  9  2  0  0  0
  8 14  1  0  0  0
  9 10  1  0  0  0
  9 17  1  0  0  0
 17 18  1  0  0  0
 18 19  1  0  0  0
 19 20  2  0  0  0
 19 21  1  0  0  0
 14 15  2  0  0  0
 14 16  1  0  0  0
 11 12  2  0  0  0
 11 13  1  0  0  0
 13  1  1  0  0  0
  1  2  1  0  0  0
  2  3  2  0  0  0
  2 22  1  0  0  0
 22 23  1  0  0  0
 22 26  2  0  0  0
 23 24  1  0  0  0
 24 25  2  0  0  0
 24 27  1  0  0  0
 25 26  1  0  0  0
 27 28  1  0  0  0
 28 29  1  0  0  0
 29 30  2  0  0  0
 29 34  1  0  0  0
 30 31  1  0  0  0
 31 32  2  0  0  0
 32 33  1  0  0  0
 32 35  1  0  0  0
 33 34  2  0  0  0
  1  4  1  0  0  0
M  END
> <minimizedAffinity>
-6.63616

$$$$
1001


 26 29  0  0  0  0  0  0  0  0999 V2000
   91.5729   96.1099  -45.2891 P   0  0  0  0  0  0  0  0  0  0  0  0
   92.3219   94.7824  -45.1576 O   0  0  0  0  0  0  0  0  0  0  0  0
   92.6714   97.2579  -45.8301 O   0  0  0  0  0  0  0  0  0  0  0  0
   92.5945   98.4202  -45.1074 C   0  0  0  0  0  0  0  0  0  0  0  0
   91.1209   98.5964  -44.7161 C   0  0  0  0  0  0  0  0  0  0  0  0
   90.9175   99.9380  -44.5883 O   0  0  0  0  0  0  0  0  0  0  0  0
   91.8231  100.6233  -45.3500 C   0  0  0  0  0  0  0  0  0  0  0  0
   92.8138   99.6684  -45.9201 C   0  0  0  0  0  0  0  0  0  0  0  0
   92.6279   99.4070  -47.2632 O   0  0  0  0  0  0  0  0  0  0  0  0
   90.9251   97.7969  -43.4682 C   0  0  0  0  0  0  0  0  0  0  0  0
   90.9154   96.4624  -43.7963 O   0  0  0  0  0  0  0  0  0  0  0  0
   90.3676   95.8449  -46.4737 O   0  0  0  0  0  0  0  0  0  0  0  0
   93.4330   99.1210  -47.7245 H   0  0  0  0  0  0  0  0  0  0  0  0
   92.4395  101.6362  -44.5031 N   0  0  0  0  0  0  0  0  0  0  0  0
   92.5861  101.5633  -43.1593 C   0  0  0  0  0  0  0  0  0  0  0  0
   92.2318  100.6061  -42.2850 N   0  0  0  0  0  0  0  0  0  0  0  0
   92.4934  100.7766  -40.9789 C   0  0  0  0  0  0  0  0  0  0  0  0
   93.1053  101.8994  -40.5600 N   0  0  0  0  0  0  0  0  0  0  0  0
   93.4875  102.8950  -41.3740 C   0  0  0  0  0  0  0  0  0  0  0  0
   93.2134  102.7129  -42.7273 C   0  0  0  0  0  0  0  0  0  0  0  0
   93.4461  103.4760  -43.7918 N   0  0  0  0  0  0  0  0  0  0  0  0
   92.9730  102.8143  -44.8631 C   0  0  0  0  0  0  0  0  0  0  0  0
   93.0179  103.4081  -46.6975 Br  0  0  0  0  0  0  0  0  0  0  0  0
   94.1341  104.0841  -40.9437 N   0  0  0  0  0  0  0  0  0  0  0  0
   93.5223  104.8973  -40.6362 H   0  0  0  0  0  0  0  0  0  0  0  0
   95.1495  104.2128  -40.9069 H   0  0  0  0  0  0  0  0  0  0  0  0
  1  2  2  0  0  0
  1  3  1  0  0  0
  1 11  1  0  0  0
  1 12  1  0  0  0
  3  4  1  0  0  0
  4  5  1  0  0  0
  4  8  1  0  0  0
  5  6  1  0  0  0
  5 10  1  0  0  0
  6  7  1  0  0  0
  7  8  1  0  0  0
  7 14  1  0  0  0
  8  9  1  0  0  0
 14 15  1  0  0  0
 14 22  1  0  0  0
 15 16  2  0  0  0
 15 20  1  0  0  0
 16 17  1  0  0  0
 17 18  2  0  0  0
 18 19  1  0  0  0
 19 20  2  0  0  0
 19 24  1  0  0  0
 20 21  1  0  0  0
 21 22  2  0  0  0
 22 23  1  0  0  0
 10 11  1  0  0  0
  9 13  1  0  0  0
 24 25  1  0  0  0
 24 26  1  0  0  0
M  END
> <minimizedAffinity>
-5.78831

$$$$
1008


 29 32  0  0  0  0  0  0  0  0999 V2000
   89.5805   98.7720  -43.7351 C   0  0  0  0  0  0  0  0  0  0  0  0
   90.1823   98.5283  -42.6605 O   0  0  0  0  0  0  0  0  0  0  0  0
   90.0008   98.1444  -44.9451 N   0  0  0  0  0  0  0  0  0  0  0  0
   91.1203   97.2274  -44.9488 C   0  0  0  0  0  0  0  0  0  0  0  0
   90.9030   96.0354  -45.8278 C   0  0  0  0  0  0  0  0  0  0  0  0
   89.4033   95.9748  -46.1299 C   0  0  0  0  0  0  0  0  0  0  0  0
   89.1191   97.1695  -47.0141 C   0  0  0  0  0  0  0  0  0  0  0  0
   89.3224   98.4121  -46.1862 C   0  0  0  0  0  0  0  0  0  0  0  0
   91.3733   94.7542  -45.2106 C   0  0  0  0  0  0  0  0  0  0  0  0
   91.6971   94.5569  -43.9058 N   0  0  0  0  0  0  0  0  0  0  0  0
   92.0752   93.2906  -43.7092 C   0  0  0  0  0  0  0  0  0  0  0  0
   91.9772   92.6993  -44.9377 N   0  0  0  0  0  0  0  0  0  0  0  0
   91.5583   93.5770  -45.8283 N   0  0  0  0  0  0  0  0  0  0  0  0
   92.4429   93.0231  -42.2879 C   0  0  0  0  0  0  0  0  0  0  0  0
   91.9001   94.2349  -41.5958 C   0  0  0  0  0  0  0  0  0  0  0  0
   91.7589   95.3015  -42.6609 C   0  0  0  0  0  0  0  0  0  0  0  0
   86.0760  100.0925  -43.6423 C   0  0  0  0  0  0  0  0  0  0  0  0
   87.1491   99.2315  -43.6540 C   0  0  0  0  0  0  0  0  0  0  0  0
   88.4601   99.6912  -43.7256 C   0  0  0  0  0  0  0  0  0  0  0  0
   88.6577  101.0531  -43.7862 C   0  0  0  0  0  0  0  0  0  0  0  0
   87.5751  101.9323  -43.7754 C   0  0  0  0  0  0  0  0  0  0  0  0
   86.2840  101.4591  -43.7042 C   0  0  0  0  0  0  0  0  0  0  0  0
   90.4137  101.7570  -43.8867 Br  0  0  0  0  0  0  0  0  0  0  0  0
   84.4616   99.4534  -43.5515 S   0  0  0  0  0  0  0  0  0  0  0  0
   83.8120   99.5733  -44.9147 O   0  0  0  0  0  0  0  0  0  0  0  0
   83.6328  100.2331  -42.5603 O   0  0  0  0  0  0  0  0  0  0  0  0
   84.5019   97.7852  -43.1564 N   0  0  0  0  0  0  0  0  0  0  0  0
   84.1753   97.6096  -42.1756 H   0  0  0  0  0  0  0  0  0  0  0  0
   85.4723   97.4044  -43.2860 H   0  0  0  0  0  0  0  0  0  0  0  0
 24 25  2  0  0  0
 24 26  2  0  0  0
 24 27  1  0  0  0
 24 17  1  0  0  0
 17 18  2  0  0  0
 17 22  1  0  0  0
 18 19  1  0  0  0
 19 20  2  0  0  0
 19  1  1  0  0  0
 20 21  1  0  0  0
 20 23  1  0  0  0
 21 22  2  0  0  0
  1  2  2  0  0  0
  1  3  1  0  0  0
  3  4  1  0  0  0
  3  8  1  0  0  0
  4  5  1  0  0  0
  5  6  1  0  0  0
  5  9  1  0  0  0
  6  7  1  0  0  0
  7  8  1  0  0  0
  9 10  1  0  0  0
  9 13  2  0  0  0
 10 11  1  0  0  0
 10 16  1  0  0  0
 11 12  2  0  0  0
 11 14  1  0  0  0
 12 13  1  0  0  0
 14 15  1  0  0  0
 15 16  1  0  0  0
 27 28  1  0  0  0
 27 29  1  0  0  0
M  END
> <minimizedAffinity>
-7.28406

$$$$
1011


 29 32  0  0  0  0  0  0  0  0999 V2000
   91.4690   99.6100  -43.1415 C   0  0  0  0  0  0  0  0  0  0  0  0
   91.5373   98.3141  -42.6207 C   0  0  0  0  0  0  0  0  0  0  0  0
   91.6204   97.2258  -43.4614 C   0  0  0  0  0  0  0  0  0  0  0  0
   91.6402   97.3525  -44.8389 C   0  0  0  0  0  0  0  0  0  0  0  0
   91.5745   98.6152  -45.3577 C   0  0  0  0  0  0  0  0  0  0  0  0
   91.4901   99.7252  -44.5103 C   0  0  0  0  0  0  0  0  0  0  0  0
   91.3876  101.4925  -45.2471 Br  0  0  0  0  0  0  0  0  0  0  0  0
   91.7221   95.9991  -45.4560 C   0  0  0  0  0  0  0  0  0  0  0  0
   91.2349   95.0994  -44.3002 C   0  0  0  0  0  0  0  0  0  0  0  0
   91.7062   95.8270  -43.1328 N   0  0  0  0  0  0  0  0  0  0  0  0
   92.1777   95.3378  -41.8924 C   0  0  0  0  0  0  0  0  0  0  0  0
   92.5762   96.0884  -40.9721 O   0  0  0  0  0  0  0  0  0  0  0  0
   92.2035   93.8727  -41.6694 C   0  0  0  0  0  0  0  0  0  0  0  0
   93.5344   93.3123  -41.3741 C   0  0  0  0  0  0  0  0  0  0  0  0
   92.8355   92.9740  -42.6681 C   0  0  0  0  0  0  0  0  0  0  0  0
   91.3702  100.9691  -42.0545 S   0  0  0  0  0  0  0  0  0  0  0  0
   92.2046  100.6969  -40.8082 O   0  0  0  0  0  0  0  0  0  0  0  0
   91.9291  102.2120  -42.6598 O   0  0  0  0  0  0  0  0  0  0  0  0
   89.7551  101.1845  -41.4964 N   0  0  0  0  0  0  0  0  0  0  0  0
   89.5604  100.4523  -40.7858 H   0  0  0  0  0  0  0  0  0  0  0  0
   88.7815  101.1391  -42.5687 C   0  0  0  0  0  0  0  0  0  0  0  0
   88.1051   99.7798  -42.4728 C   0  0  0  0  0  0  0  0  0  0  0  0
   87.7761   99.2446  -43.8410 C   0  0  0  0  0  0  0  0  0  0  0  0
   86.4325   98.8014  -43.8497 N   0  0  0  0  0  0  0  0  0  0  0  0
   85.4373   99.7946  -44.0432 C   0  0  0  0  0  0  0  0  0  0  0  0
   84.1147   99.2558  -43.5245 C   0  0  0  0  0  0  0  0  0  0  0  0
   83.9265   97.9373  -43.8877 O   0  0  0  0  0  0  0  0  0  0  0  0
   84.7349   97.5310  -44.9427 C   0  0  0  0  0  0  0  0  0  0  0  0
   86.1759   97.5325  -44.4243 C   0  0  0  0  0  0  0  0  0  0  0  0
 16 17  2  0  0  0
 16 18  2  0  0  0
 16 19  1  0  0  0
 16  1  1  0  0  0
 19 21  1  0  0  0
 21 22  1  0  0  0
 22 23  1  0  0  0
 23 24  1  0  0  0
 24 25  1  0  0  0
 24 29  1  0  0  0
 25 26  1  0  0  0
 26 27  1  0  0  0
 27 28  1  0  0  0
 28 29  1  0  0  0
  1  2  2  0  0  0
  1  6  1  0  0  0
  2  3  1  0  0  0
  3  4  2  0  0  0
  3 10  1  0  0  0
  4  5  1  0  0  0
  4  8  1  0  0  0
  5  6  2  0  0  0
  6  7  1  0  0  0
  8  9  1  0  0  0
  9 10  1  0  0  0
 10 11  1  0  0  0
 11 12  2  0  0  0
 11 13  1  0  0  0
 13 14  1  0  0  0
 13 15  1  0  0  0
 14 15  1  0  0  0
 19 20  1  0  0  0
M  END
> <minimizedAffinity>
-6.57191

$$$$
1027


 32 35  0  0  0  0  0  0  0  0999 V2000
   91.6589   99.3179  -45.0941 S   0  0  0  0  0  0  0  0  0  0  0  0
   92.8056  100.2738  -44.7641 O   0  0  0  0  0  0  0  0  0  0  0  0
   91.9853   98.8138  -46.4806 O   0  0  0  0  0  0  0  0  0  0  0  0
   91.7586   98.0196  -43.9362 C   0  0  0  0  0  0  0  0  0  0  0  0
   91.7746   96.7034  -44.4148 C   0  0  0  0  0  0  0  0  0  0  0  0
   91.7851   95.5921  -43.6027 C   0  0  0  0  0  0  0  0  0  0  0  0
   91.7799   95.7426  -42.2329 C   0  0  0  0  0  0  0  0  0  0  0  0
   91.7658   97.0258  -41.7453 C   0  0  0  0  0  0  0  0  0  0  0  0
   91.7564   98.1564  -42.5788 C   0  0  0  0  0  0  0  0  0  0  0  0
   91.8407   99.8978  -41.7799 Br  0  0  0  0  0  0  0  0  0  0  0  0
   91.7982   94.4193  -41.5628 C   0  0  0  0  0  0  0  0  0  0  0  0
   92.2728   93.5072  -42.6950 C   0  0  0  0  0  0  0  0  0  0  0  0
   91.7994   94.1928  -43.8928 N   0  0  0  0  0  0  0  0  0  0  0  0
   91.4254   93.5514  -45.0867 C   0  0  0  0  0  0  0  0  0  0  0  0
   91.5359   92.2781  -45.1568 O   0  0  0  0  0  0  0  0  0  0  0  0
   90.9004   94.2186  -46.3022 C   0  0  0  0  0  0  0  0  0  0  0  0
   90.2429  100.2145  -45.1119 N   0  0  0  0  0  0  0  0  0  0  0  0
   89.1204   99.8179  -44.3904 C   0  0  0  0  0  0  0  0  0  0  0  0
   88.2186   98.8699  -45.0819 C   0  0  0  0  0  0  0  0  0  0  0  0
   87.4982   98.0731  -44.4339 O   0  0  0  0  0  0  0  0  0  0  0  0
   88.2210   98.9205  -46.5043 N   0  0  0  0  0  0  0  0  0  0  0  0
   88.8554  100.0408  -47.0987 C   0  0  0  0  0  0  0  0  0  0  0  0
   88.4710  100.4037  -48.2458 O   0  0  0  0  0  0  0  0  0  0  0  0
   89.9381  100.7812  -46.4179 C   0  0  0  0  0  0  0  0  0  0  0  0
   87.5941   97.8693  -47.2769 C   0  0  0  0  0  0  0  0  0  0  0  0
   88.4939   96.7369  -47.6334 C   0  0  0  0  0  0  0  0  0  0  0  0
   87.9090   95.6957  -48.4760 C   0  0  0  0  0  0  0  0  0  0  0  0
   88.6754   94.8524  -49.2315 C   0  0  0  0  0  0  0  0  0  0  0  0
   88.0650   93.9025  -50.0013 C   0  0  0  0  0  0  0  0  0  0  0  0
   86.6818   93.7649  -50.0417 C   0  0  0  0  0  0  0  0  0  0  0  0
   85.9369   94.6201  -49.2770 C   0  0  0  0  0  0  0  0  0  0  0  0
   86.5180   95.5861  -48.4917 C   0  0  0  0  0  0  0  0  0  0  0  0
  1  2  2  0  0  0
  1  3  2  0  0  0
  1 17  1  0  0  0
  1  4  1  0  0  0
 17 18  1  0  0  0
 17 24  1  0  0  0
 18 19  1  0  0  0
 19 20  2  0  0  0
 19 21  1  0  0  0
 21 22  1  0  0  0
 21 25  1  0  0  0
 22 23  2  0  0  0
 22 24  1  0  0  0
 25 26  1  0  0  0
 26 27  1  0  0  0
 27 28  2  0  0  0
 27 32  1  0  0  0
 28 29  1  0  0  0
 29 30  2  0  0  0
 30 31  1  0  0  0
 31 32  2  0  0  0
  4  5  2  0  0  0
  4  9  1  0  0  0
  5  6  1  0  0  0
  6  7  2  0  0  0
  6 13  1  0  0  0
  7  8  1  0  0  0
  7 11  1  0  0  0
  8  9  2  0  0  0
  9 10  1  0  0  0
 11 12  1  0  0  0
 12 13  1  0  0  0
 13 14  1  0  0  0
 14 15  2  0  0  0
 14 16  1  0  0  0
M  END
> <minimizedAffinity>
-6.44829

$$$$
1028


 25 28  0  0  0  0  0  0  0  0999 V2000
   92.7104  100.4981  -43.1318 N   0  0  0  0  0  0  0  0  0  0  0  0
   91.8309   99.4864  -42.6657 C   0  0  0  0  0  0  0  0  0  0  0  0
   91.3967   99.1814  -44.0461 C   0  0  0  0  0  0  0  0  0  0  0  0
   92.4790  100.1083  -44.4774 C   0  0  0  0  0  0  0  0  0  0  0  0
   91.6068   97.8220  -44.5052 N   0  0  0  0  0  0  0  0  0  0  0  0
   92.2881   97.4099  -45.5423 N   0  0  0  0  0  0  0  0  0  0  0  0
   92.2425   96.0735  -45.6289 N   0  0  0  0  0  0  0  0  0  0  0  0
   91.5039   95.6019  -44.6094 C   0  0  0  0  0  0  0  0  0  0  0  0
   91.1068   96.7294  -43.9046 C   0  0  0  0  0  0  0  0  0  0  0  0
   91.1744   94.1716  -44.2936 C   0  0  0  0  0  0  0  0  0  0  0  0
   92.1636   93.6874  -43.3482 N   0  0  0  0  0  0  0  0  0  0  0  0
   93.3454   92.9499  -43.6805 C   0  0  0  0  0  0  0  0  0  0  0  0
   94.0843   92.7462  -42.3887 C   0  0  0  0  0  0  0  0  0  0  0  0
   93.4455   93.5971  -41.3395 C   0  0  0  0  0  0  0  0  0  0  0  0
   92.0955   93.8818  -41.9389 C   0  0  0  0  0  0  0  0  0  0  0  0
   91.1078   94.2292  -41.2665 O   0  0  0  0  0  0  0  0  0  0  0  0
   92.3829  102.1161  -42.7785 S   0  0  0  0  0  0  0  0  0  0  0  0
   91.0417  102.4775  -43.3497 O   0  0  0  0  0  0  0  0  0  0  0  0
   93.3837  103.0510  -43.4148 O   0  0  0  0  0  0  0  0  0  0  0  0
   92.3099  102.4620  -41.0521 C   0  0  0  0  0  0  0  0  0  0  0  0
   90.9549  102.9805  -40.1387 S   0  0  0  0  0  0  0  0  0  0  0  0
   91.6862  103.0869  -38.5990 C   0  0  0  0  0  0  0  0  0  0  0  0
   92.9797  102.7099  -38.8519 C   0  0  0  0  0  0  0  0  0  0  0  0
   93.2920  102.3908  -40.1093 C   0  0  0  0  0  0  0  0  0  0  0  0
   90.9164  103.6034  -36.9102 Br  0  0  0  0  0  0  0  0  0  0  0  0
 17 18  2  0  0  0
 17 19  2  0  0  0
 17  1  1  0  0  0
 17 20  1  0  0  0
  1  2  1  0  0  0
  1  4  1  0  0  0
  2  3  1  0  0  0
  3  4  1  0  0  0
  3  5  1  0  0  0
  5  6  1  0  0  0
  5  9  1  0  0  0
  6  7  2  0  0  0
  7  8  1  0  0  0
  8  9  2  0  0  0
  8 10  1  0  0  0
 10 11  1  0  0  0
 11 12  1  0  0  0
 11 15  1  0  0  0
 12 13  1  0  0  0
 13 14  1  0  0  0
 14 15  1  0  0  0
 15 16  2  0  0  0
 20 21  1  0  0  0
 20 24  2  0  0  0
 21 22  1  0  0  0
 22 23  2  0  0  0
 22 25  1  0  0  0
 23 24  1  0  0  0
M  END
> <minimizedAffinity>
-5.93750

$$$$
1037


 31 34  0  0  0  0  0  0  0  0999 V2000
   90.8454  101.3691  -46.5157 N   0  0  0  0  0  0  0  0  0  0  0  0
   92.1501  100.8281  -46.6900 C   0  0  0  0  0  0  0  0  0  0  0  0
   92.4617   99.5409  -46.0816 C   0  0  0  0  0  0  0  0  0  0  0  0
   91.3653   98.7212  -45.6040 N   0  0  0  0  0  0  0  0  0  0  0  0
   90.0483   99.2648  -45.4750 C   0  0  0  0  0  0  0  0  0  0  0  0
   89.8048  100.4079  -46.4528 C   0  0  0  0  0  0  0  0  0  0  0  0
   91.6325   97.3851  -45.3003 C   0  0  0  0  0  0  0  0  0  0  0  0
   92.9023   97.0684  -45.6322 O   0  0  0  0  0  0  0  0  0  0  0  0
   90.7087  102.6631  -45.4304 S   0  0  0  0  0  0  0  0  0  0  0  0
   89.2688  103.0891  -45.3458 O   0  0  0  0  0  0  0  0  0  0  0  0
   91.4763  103.8694  -45.9436 O   0  0  0  0  0  0  0  0  0  0  0  0
   91.2019  102.2867  -43.7928 C   0  0  0  0  0  0  0  0  0  0  0  0
   92.5438  102.3873  -43.4283 C   0  0  0  0  0  0  0  0  0  0  0  0
   92.9956  102.0922  -42.1603 C   0  0  0  0  0  0  0  0  0  0  0  0
   92.1227  101.6771  -41.1799 C   0  0  0  0  0  0  0  0  0  0  0  0
   90.7949  101.5752  -41.5330 C   0  0  0  0  0  0  0  0  0  0  0  0
   90.3317  101.8707  -42.8100 C   0  0  0  0  0  0  0  0  0  0  0  0
   92.5758  101.3706  -39.8813 O   0  0  0  0  0  0  0  0  0  0  0  0
   93.7835  101.9794  -39.3912 C   0  0  0  0  0  0  0  0  0  0  0  0
   94.7754  101.8542  -40.4903 C   0  0  0  0  0  0  0  0  0  0  0  0
   95.9476  101.4596  -40.2951 O   0  0  0  0  0  0  0  0  0  0  0  0
   94.3865  102.1912  -41.8099 N   0  0  0  0  0  0  0  0  0  0  0  0
   95.0320  102.5036  -42.5496 H   0  0  0  0  0  0  0  0  0  0  0  0
   90.8666   96.3160  -44.7286 C   0  0  0  0  0  0  0  0  0  0  0  0
   91.4351   95.4213  -43.7232 C   0  0  0  0  0  0  0  0  0  0  0  0
   91.7650   94.1228  -44.0246 C   0  0  0  0  0  0  0  0  0  0  0  0
   92.3130   93.2808  -43.0575 C   0  0  0  0  0  0  0  0  0  0  0  0
   92.5253   93.7555  -41.7967 C   0  0  0  0  0  0  0  0  0  0  0  0
   92.1949   95.0754  -41.4846 C   0  0  0  0  0  0  0  0  0  0  0  0
   91.6604   95.8927  -42.4291 C   0  0  0  0  0  0  0  0  0  0  0  0
   91.4692   93.4314  -45.7882 Br  0  0  0  0  0  0  0  0  0  0  0  0
  9 10  2  0  0  0
  9 11  2  0  0  0
  9  1  1  0  0  0
  9 12  1  0  0  0
  1  2  1  0  0  0
  1  6  1  0  0  0
  2  3  1  0  0  0
  3  4  1  0  0  0
  4  5  1  0  0  0
  4  7  1  0  0  0
  5  6  1  0  0  0
  7  8  2  0  0  0
  7 24  1  0  0  0
 24 25  1  0  0  0
 25 26  2  0  0  0
 25 30  1  0  0  0
 26 27  1  0  0  0
 26 31  1  0  0  0
 27 28  2  0  0  0
 28 29  1  0  0  0
 29 30  2  0  0  0
 12 13  2  0  0  0
 12 17  1  0  0  0
 13 14  1  0  0  0
 14 15  2  0  0  0
 14 22  1  0  0  0
 15 16  1  0  0  0
 15 18  1  0  0  0
 16 17  2  0  0  0
 18 19  1  0  0  0
 19 20  1  0  0  0
 20 21  2  0  0  0
 20 22  1  0  0  0
 22 23  1  0  0  0
M  END
> <minimizedAffinity>
-7.03929

$$$$
1040


 34 38  0  0  0  0  0  0  0  0999 V2000
   91.0827  102.0856  -42.7164 S   0  0  0  0  0  0  0  0  0  0  0  0
   90.6061  101.4346  -41.4756 O   0  0  0  0  0  0  0  0  0  0  0  0
   90.2309  103.3536  -42.8464 O   0  0  0  0  0  0  0  0  0  0  0  0
   92.7270  102.6399  -42.6683 C   0  0  0  0  0  0  0  0  0  0  0  0
   93.2606  103.4772  -43.6578 C   0  0  0  0  0  0  0  0  0  0  0  0
   94.5701  103.9117  -43.6143 C   0  0  0  0  0  0  0  0  0  0  0  0
   95.4118  103.5370  -42.5868 C   0  0  0  0  0  0  0  0  0  0  0  0
   94.8984  102.7190  -41.6186 C   0  0  0  0  0  0  0  0  0  0  0  0
   93.5768  102.2889  -41.6748 C   0  0  0  0  0  0  0  0  0  0  0  0
   93.1718  101.4050  -40.5688 C   0  0  0  0  0  0  0  0  0  0  0  0
   93.5811  101.9879  -39.2339 C   0  0  0  0  0  0  0  0  0  0  0  0
   94.8936  102.5102  -39.2866 N   0  0  0  0  0  0  0  0  0  0  0  0
   95.6713  102.2337  -40.4524 C   0  0  0  0  0  0  0  0  0  0  0  0
   95.1029  103.7848  -38.6955 C   0  0  0  0  0  0  0  0  0  0  0  0
   94.7786  104.7089  -44.7184 O   0  0  0  0  0  0  0  0  0  0  0  0
   93.6394  104.6671  -45.5306 C   0  0  0  0  0  0  0  0  0  0  0  0
   92.6340  103.9958  -44.7869 O   0  0  0  0  0  0  0  0  0  0  0  0
   96.7507  103.9766  -42.5358 O   0  0  0  0  0  0  0  0  0  0  0  0
   97.0285  105.2605  -41.9587 C   0  0  0  0  0  0  0  0  0  0  0  0
   90.7402  101.1897  -44.1451 N   0  0  0  0  0  0  0  0  0  0  0  0
   89.7029  100.2282  -43.9966 C   0  0  0  0  0  0  0  0  0  0  0  0
   90.1786   98.8676  -43.5041 C   0  0  0  0  0  0  0  0  0  0  0  0
   91.2546   98.4304  -44.3286 N   0  0  0  0  0  0  0  0  0  0  0  0
   92.4128   99.3805  -44.2903 C   0  0  0  0  0  0  0  0  0  0  0  0
   91.9020  100.6870  -44.7961 C   0  0  0  0  0  0  0  0  0  0  0  0
   91.4047   97.3168  -45.1303 C   0  0  0  0  0  0  0  0  0  0  0  0
   92.5585   97.2415  -45.7635 O   0  0  0  0  0  0  0  0  0  0  0  0
   90.5253   96.2172  -45.4016 C   0  0  0  0  0  0  0  0  0  0  0  0
   91.0124   94.8879  -45.3303 N   0  0  0  0  0  0  0  0  0  0  0  0
   91.5640   94.2758  -44.2838 N   0  0  0  0  0  0  0  0  0  0  0  0
   91.8673   93.0055  -44.5785 C   0  0  0  0  0  0  0  0  0  0  0  0
   91.4822   92.8180  -45.8833 C   0  0  0  0  0  0  0  0  0  0  0  0
   90.9536   93.9859  -46.3453 C   0  0  0  0  0  0  0  0  0  0  0  0
   91.6574   91.1885  -46.8909 Br  0  0  0  0  0  0  0  0  0  0  0  0
  1  2  2  0  0  0
  1  3  2  0  0  0
  1 20  1  0  0  0
  1  4  1  0  0  0
 20 21  1  0  0  0
 20 25  1  0  0  0
 21 22  1  0  0  0
 22 23  1  0  0  0
 23 24  1  0  0  0
 23 26  1  0  0  0
 24 25  1  0  0  0
 26 27  2  0  0  0
 26 28  1  0  0  0
 28 29  1  0  0  0
 29 30  1  0  0  0
 29 33  1  0  0  0
 30 31  2  0  0  0
 31 32  1  0  0  0
 32 33  2  0  0  0
 32 34  1  0  0  0
  4  5  2  0  0  0
  4  9  1  0  0  0
  5  6  1  0  0  0
  5 17  1  0  0  0
  6  7  2  0  0  0
  6 15  1  0  0  0
  7  8  1  0  0  0
  7 18  1  0  0  0
  8  9  2  0  0  0
  8 13  1  0  0  0
  9 10  1  0  0  0
 10 11  1  0  0  0
 11 12  1  0  0  0
 12 13  1  0  0  0
 12 14  1  0  0  0
 18 19  1  0  0  0
 15 16  1  0  0  0
 16 17  1  0  0  0
M  END
> <minimizedAffinity>
-6.58535

$$$$
1042


 31 34  0  0  0  0  0  0  0  0999 V2000
   91.1036   98.9624  -43.7441 N   0  0  0  0  0  0  0  0  0  0  0  0
   90.1333   99.2967  -42.8135 C   0  0  0  0  0  0  0  0  0  0  0  0
   90.2240  100.8248  -42.5499 C   0  0  0  0  0  0  0  0  0  0  0  0
   91.5780  101.1786  -42.2266 N   0  0  0  0  0  0  0  0  0  0  0  0
   92.5852  100.8707  -43.2160 C   0  0  0  0  0  0  0  0  0  0  0  0
   91.9168  100.0216  -44.2751 C   0  0  0  0  0  0  0  0  0  0  0  0
   91.9577  101.7969  -41.0201 C   0  0  0  0  0  0  0  0  0  0  0  0
   91.0802  102.0611  -40.1672 O   0  0  0  0  0  0  0  0  0  0  0  0
   91.1743   97.5036  -44.5256 S   0  0  0  0  0  0  0  0  0  0  0  0
   89.8123   97.2462  -45.1844 O   0  0  0  0  0  0  0  0  0  0  0  0
   92.1308   97.5381  -45.7216 O   0  0  0  0  0  0  0  0  0  0  0  0
   91.5054   96.0821  -43.5851 C   0  0  0  0  0  0  0  0  0  0  0  0
   91.5170   94.7910  -44.0407 C   0  0  0  0  0  0  0  0  0  0  0  0
   91.7459   93.7070  -43.1857 C   0  0  0  0  0  0  0  0  0  0  0  0
   91.9697   93.8803  -41.8563 C   0  0  0  0  0  0  0  0  0  0  0  0
   91.9672   95.1597  -41.3695 C   0  0  0  0  0  0  0  0  0  0  0  0
   91.7419   96.2272  -42.2054 C   0  0  0  0  0  0  0  0  0  0  0  0
   91.2837   94.4606  -45.8944 Br  0  0  0  0  0  0  0  0  0  0  0  0
   93.3565  102.1331  -40.7501 C   0  0  0  0  0  0  0  0  0  0  0  0
   93.4451  103.2566  -39.8212 N   0  0  0  0  0  0  0  0  0  0  0  0
   93.1694  104.6261  -40.0312 C   0  0  0  0  0  0  0  0  0  0  0  0
   92.7738  105.1325  -41.1320 O   0  0  0  0  0  0  0  0  0  0  0  0
   93.4140  105.3039  -38.8051 N   0  0  0  0  0  0  0  0  0  0  0  0
   93.3679  104.3148  -37.7602 C   0  0  0  0  0  0  0  0  0  0  0  0
   92.0116  104.1329  -37.1610 C   0  0  0  0  0  0  0  0  0  0  0  0
   92.3423  103.3670  -35.8738 C   0  0  0  0  0  0  0  0  0  0  0  0
   93.6398  103.9744  -35.4162 C   0  0  0  0  0  0  0  0  0  0  0  0
   94.2399  104.6864  -36.5834 C   0  0  0  0  0  0  0  0  0  0  0  0
   93.8638  103.1002  -38.4501 C   0  0  0  0  0  0  0  0  0  0  0  0
   94.5046  102.1528  -37.9420 O   0  0  0  0  0  0  0  0  0  0  0  0
   93.5869  106.3390  -38.7614 H   0  0  0  0  0  0  0  0  0  0  0  0
  9 10  2  0  0  0
  9 11  2  0  0  0
  9  1  1  0  0  0
  9 12  1  0  0  0
  1  2  1  0  0  0
  1  6  1  0  0  0
  2  3  1  0  0  0
  3  4  1  0  0  0
  4  5  1  0  0  0
  4  7  1  0  0  0
  5  6  1  0  0  0
  7  8  2  0  0  0
  7 19  1  0  0  0
 19 20  1  0  0  0
 20 21  1  0  0  0
 20 29  1  0  0  0
 21 22  2  0  0  0
 21 23  1  0  0  0
 23 24  1  0  0  0
 24 25  1  0  0  0
 24 28  1  0  0  0
 24 29  1  0  0  0
 25 26  1  0  0  0
 26 27  1  0  0  0
 27 28  1  0  0  0
 29 30  2  0  0  0
 12 13  2  0  0  0
 12 17  1  0  0  0
 13 14  1  0  0  0
 13 18  1  0  0  0
 14 15  2  0  0  0
 15 16  1  0  0  0
 16 17  2  0  0  0
 23 31  1  0  0  0
M  END
> <minimizedAffinity>
-6.78108

$$$$
1043


 31 34  0  0  0  0  0  0  0  0999 V2000
   89.8517   98.3375  -43.8450 N   0  0  0  0  0  0  0  0  0  0  0  0
   89.4565   99.0970  -42.6778 C   0  0  0  0  0  0  0  0  0  0  0  0
   88.8871  100.4386  -43.0666 C   0  0  0  0  0  0  0  0  0  0  0  0
   87.8356  100.1823  -44.0727 N   0  0  0  0  0  0  0  0  0  0  0  0
   88.2577   99.4516  -45.2269 C   0  0  0  0  0  0  0  0  0  0  0  0
   89.7543   99.1135  -45.0311 C   0  0  0  0  0  0  0  0  0  0  0  0
   86.5253  100.6375  -43.8673 C   0  0  0  0  0  0  0  0  0  0  0  0
   86.3414  101.2794  -42.7311 O   0  0  0  0  0  0  0  0  0  0  0  0
   91.3398   97.5254  -43.6462 S   0  0  0  0  0  0  0  0  0  0  0  0
   91.5967   97.4290  -42.1531 O   0  0  0  0  0  0  0  0  0  0  0  0
   92.4516   98.3822  -44.1977 O   0  0  0  0  0  0  0  0  0  0  0  0
   91.3661   95.9453  -44.3908 C   0  0  0  0  0  0  0  0  0  0  0  0
   91.7907   94.8201  -43.7135 C   0  0  0  0  0  0  0  0  0  0  0  0
   91.8081   93.5670  -44.3152 C   0  0  0  0  0  0  0  0  0  0  0  0
   91.3995   93.4078  -45.6140 C   0  0  0  0  0  0  0  0  0  0  0  0
   90.9724   94.5237  -46.3021 C   0  0  0  0  0  0  0  0  0  0  0  0
   90.9570   95.7710  -45.6958 C   0  0  0  0  0  0  0  0  0  0  0  0
   91.4199   91.6749  -46.4547 Br  0  0  0  0  0  0  0  0  0  0  0  0
   85.3228  100.5455  -44.6557 C   0  0  0  0  0  0  0  0  0  0  0  0
   84.7587   99.2710  -44.9710 N   0  0  0  0  0  0  0  0  0  0  0  0
   84.0236   98.3871  -44.0864 C   0  0  0  0  0  0  0  0  0  0  0  0
   83.7781   98.6782  -42.8826 O   0  0  0  0  0  0  0  0  0  0  0  0
   83.6765   97.2267  -44.8241 N   0  0  0  0  0  0  0  0  0  0  0  0
   84.5271   97.1782  -45.9646 C   0  0  0  0  0  0  0  0  0  0  0  0
   85.7655   96.3402  -45.7546 C   0  0  0  0  0  0  0  0  0  0  0  0
   86.2790   96.2006  -47.1749 C   0  0  0  0  0  0  0  0  0  0  0  0
   85.0648   96.2862  -48.0679 C   0  0  0  0  0  0  0  0  0  0  0  0
   83.8817   96.4819  -47.1502 C   0  0  0  0  0  0  0  0  0  0  0  0
   84.8234   98.5835  -46.2379 C   0  0  0  0  0  0  0  0  0  0  0  0
   85.0874   99.1259  -47.3412 O   0  0  0  0  0  0  0  0  0  0  0  0
   82.9114   96.5660  -44.5149 H   0  0  0  0  0  0  0  0  0  0  0  0
  9 10  2  0  0  0
  9 11  2  0  0  0
  9  1  1  0  0  0
  9 12  1  0  0  0
  1  2  1  0  0  0
  1  6  1  0  0  0
  2  3  1  0  0  0
  3  4  1  0  0  0
  4  5  1  0  0  0
  4  7  1  0  0  0
  5  6  1  0  0  0
  7  8  2  0  0  0
  7 19  1  0  0  0
 19 20  1  0  0  0
 20 21  1  0  0  0
 20 29  1  0  0  0
 21 22  2  0  0  0
 21 23  1  0  0  0
 23 24  1  0  0  0
 24 25  1  0  0  0
 24 28  1  0  0  0
 24 29  1  0  0  0
 25 26  1  0  0  0
 26 27  1  0  0  0
 27 28  1  0  0  0
 29 30  2  0  0  0
 12 13  2  0  0  0
 12 17  1  0  0  0
 13 14  1  0  0  0
 14 15  2  0  0  0
 15 16  1  0  0  0
 15 18  1  0  0  0
 16 17  2  0  0  0
 23 31  1  0  0  0
M  END
> <minimizedAffinity>
-6.83689

$$$$
1044


 30 33  0  0  0  0  0  0  0  0999 V2000
   91.7239   99.8426  -43.2510 S   0  0  0  0  0  0  0  0  0  0  0  0
   92.6568  100.2020  -44.3405 O   0  0  0  0  0  0  0  0  0  0  0  0
   92.2031  100.5685  -41.9998 O   0  0  0  0  0  0  0  0  0  0  0  0
   91.8134   98.1283  -42.8632 C   0  0  0  0  0  0  0  0  0  0  0  0
   91.6329   97.1611  -43.8304 C   0  0  0  0  0  0  0  0  0  0  0  0
   91.6976   95.8097  -43.5584 C   0  0  0  0  0  0  0  0  0  0  0  0
   91.9510   95.3686  -42.2759 C   0  0  0  0  0  0  0  0  0  0  0  0
   92.1337   96.3379  -41.3015 C   0  0  0  0  0  0  0  0  0  0  0  0
   92.0678   97.6870  -41.5805 C   0  0  0  0  0  0  0  0  0  0  0  0
   92.0220   94.0107  -41.9699 O   0  0  0  0  0  0  0  0  0  0  0  0
   91.6046   92.9775  -42.8417 C   0  0  0  0  0  0  0  0  0  0  0  0
   91.5789   93.4184  -44.2593 C   0  0  0  0  0  0  0  0  0  0  0  0
   91.6189   92.5234  -45.1411 O   0  0  0  0  0  0  0  0  0  0  0  0
   91.5106   94.8096  -44.5515 N   0  0  0  0  0  0  0  0  0  0  0  0
   91.3182   95.1263  -45.5254 H   0  0  0  0  0  0  0  0  0  0  0  0
   90.1182  100.2982  -43.5223 N   0  0  0  0  0  0  0  0  0  0  0  0
   89.2764  100.3996  -42.4136 C   0  0  0  0  0  0  0  0  0  0  0  0
   87.8185  100.2294  -42.6559 C   0  0  0  0  0  0  0  0  0  0  0  0
   87.4905   99.4343  -43.7966 N   0  0  0  0  0  0  0  0  0  0  0  0
   88.5606   98.8698  -44.5901 C   0  0  0  0  0  0  0  0  0  0  0  0
   89.5703   99.9994  -44.7818 C   0  0  0  0  0  0  0  0  0  0  0  0
   86.1534   99.1762  -44.1833 C   0  0  0  0  0  0  0  0  0  0  0  0
   85.1795   99.6512  -43.5156 O   0  0  0  0  0  0  0  0  0  0  0  0
   85.8006   98.3683  -45.3436 C   0  0  0  0  0  0  0  0  0  0  0  0
   85.6372   98.9145  -46.6031 C   0  0  0  0  0  0  0  0  0  0  0  0
   85.3050   98.1618  -47.7056 C   0  0  0  0  0  0  0  0  0  0  0  0
   85.1292   96.7977  -47.5326 C   0  0  0  0  0  0  0  0  0  0  0  0
   85.2794   96.1999  -46.3034 C   0  0  0  0  0  0  0  0  0  0  0  0
   85.6119   96.9976  -45.2308 C   0  0  0  0  0  0  0  0  0  0  0  0
   85.8952  100.7998  -46.7662 Br  0  0  0  0  0  0  0  0  0  0  0  0
  1  2  2  0  0  0
  1  3  2  0  0  0
  1 16  1  0  0  0
  1  4  1  0  0  0
 16 17  1  0  0  0
 16 21  1  0  0  0
 17 18  1  0  0  0
 18 19  1  0  0  0
 19 20  1  0  0  0
 19 22  1  0  0  0
 20 21  1  0  0  0
 22 23  2  0  0  0
 22 24  1  0  0  0
 24 25  2  0  0  0
 24 29  1  0  0  0
 25 26  1  0  0  0
 25 30  1  0  0  0
 26 27  2  0  0  0
 27 28  1  0  0  0
 28 29  2  0  0  0
  4  5  2  0  0  0
  4  9  1  0  0  0
  5  6  1  0  0  0
  6  7  2  0  0  0
  6 14  1  0  0  0
  7  8  1  0  0  0
  7 10  1  0  0  0
  8  9  2  0  0  0
 10 11  1  0  0  0
 11 12  1  0  0  0
 12 13  2  0  0  0
 12 14  1  0  0  0
 14 15  1  0  0  0
M  END
> <minimizedAffinity>
-6.47104

$$$$
1051


 27 30  0  0  0  0  0  0  0  0999 V2000
   90.8436   99.0910  -44.0189 N   0  0  0  0  0  0  0  0  0  0  0  0
   91.5177   98.4654  -45.0961 C   0  0  0  0  0  0  0  0  0  0  0  0
   91.5206   96.9750  -45.1080 C   0  0  0  0  0  0  0  0  0  0  0  0
   91.5679   96.3785  -43.7999 N   0  0  0  0  0  0  0  0  0  0  0  0
   91.6304   97.2881  -42.6779 C   0  0  0  0  0  0  0  0  0  0  0  0
   90.4984   98.2677  -42.9102 C   0  0  0  0  0  0  0  0  0  0  0  0
   91.5597   94.9925  -43.5561 C   0  0  0  0  0  0  0  0  0  0  0  0
   91.6038   94.5662  -42.3812 O   0  0  0  0  0  0  0  0  0  0  0  0
   91.5000   94.0450  -44.6642 C   0  0  0  0  0  0  0  0  0  0  0  0
   90.7996   94.1988  -45.7832 N   0  0  0  0  0  0  0  0  0  0  0  0
   90.9678   93.1452  -46.5856 N   0  0  0  0  0  0  0  0  0  0  0  0
   91.8016   92.2596  -45.9939 C   0  0  0  0  0  0  0  0  0  0  0  0
   92.1406   92.8363  -44.7645 C   0  0  0  0  0  0  0  0  0  0  0  0
   92.1481   91.0911  -46.5898 N   0  0  0  0  0  0  0  0  0  0  0  0
   91.6447   90.7945  -47.8228 C   0  0  0  0  0  0  0  0  0  0  0  0
   90.7938   91.6770  -48.4519 C   0  0  0  0  0  0  0  0  0  0  0  0
   90.4717   92.8493  -47.8054 C   0  0  0  0  0  0  0  0  0  0  0  0
   90.0856   91.2560  -50.1901 Br  0  0  0  0  0  0  0  0  0  0  0  0
   89.4515   99.9886  -44.4892 S   0  0  0  0  0  0  0  0  0  0  0  0
   89.6852  100.6482  -45.8100 O   0  0  0  0  0  0  0  0  0  0  0  0
   89.2643  101.0750  -43.4387 O   0  0  0  0  0  0  0  0  0  0  0  0
   88.0296   98.9815  -44.5980 C   0  0  0  0  0  0  0  0  0  0  0  0
   86.8670   99.0968  -43.8708 C   0  0  0  0  0  0  0  0  0  0  0  0
   86.0103   98.1431  -44.2382 N   0  0  0  0  0  0  0  0  0  0  0  0
   86.5761   97.4129  -45.1796 N   0  0  0  0  0  0  0  0  0  0  0  0
   87.8212   97.8876  -45.4379 C   0  0  0  0  0  0  0  0  0  0  0  0
   84.6862   97.9137  -43.7240 C   0  0  0  0  0  0  0  0  0  0  0  0
 19 20  2  0  0  0
 19 21  2  0  0  0
 19  1  1  0  0  0
 19 22  1  0  0  0
  1  2  1  0  0  0
  1  6  1  0  0  0
  2  3  1  0  0  0
  3  4  1  0  0  0
  4  5  1  0  0  0
  4  7  1  0  0  0
  5  6  1  0  0  0
  7  8  2  0  0  0
  7  9  1  0  0  0
  9 10  2  0  0  0
  9 13  1  0  0  0
 10 11  1  0  0  0
 11 12  1  0  0  0
 11 17  1  0  0  0
 12 13  2  0  0  0
 12 14  1  0  0  0
 14 15  2  0  0  0
 15 16  1  0  0  0
 16 17  2  0  0  0
 16 18  1  0  0  0
 22 23  2  0  0  0
 22 26  1  0  0  0
 23 24  1  0  0  0
 24 25  1  0  0  0
 24 27  1  0  0  0
 25 26  2  0  0  0
M  END
> <minimizedAffinity>
-6.35717

$$$$
1056


 30 33  0  0  0  0  0  0  0  0999 V2000
   90.7374   97.5604  -43.9353 N   0  0  0  0  0  0  0  0  0  0  0  0
   89.5862   98.3776  -43.9965 C   0  0  0  0  0  0  0  0  0  0  0  0
   89.7911   99.8359  -43.9902 C   0  0  0  0  0  0  0  0  0  0  0  0
   90.8442  100.2292  -43.1023 N   0  0  0  0  0  0  0  0  0  0  0  0
   91.5026   99.2329  -42.3071 C   0  0  0  0  0  0  0  0  0  0  0  0
   91.7653   97.9558  -43.0422 C   0  0  0  0  0  0  0  0  0  0  0  0
   91.2377  101.5787  -43.0031 C   0  0  0  0  0  0  0  0  0  0  0  0
   90.6524  102.4339  -43.7056 O   0  0  0  0  0  0  0  0  0  0  0  0
   92.2989  102.0497  -42.1224 C   0  0  0  0  0  0  0  0  0  0  0  0
   93.5698  102.2575  -42.6262 C   0  0  0  0  0  0  0  0  0  0  0  0
   94.5481  102.6918  -41.8167 N   0  0  0  0  0  0  0  0  0  0  0  0
   94.3459  102.9421  -40.5050 C   0  0  0  0  0  0  0  0  0  0  0  0
   93.1221  102.7505  -39.9831 N   0  0  0  0  0  0  0  0  0  0  0  0
   92.9134  103.0016  -38.6599 C   0  0  0  0  0  0  0  0  0  0  0  0
   93.9249  103.4477  -37.8342 C   0  0  0  0  0  0  0  0  0  0  0  0
   95.1940  103.6519  -38.3501 C   0  0  0  0  0  0  0  0  0  0  0  0
   95.3787  103.3915  -39.6893 C   0  0  0  0  0  0  0  0  0  0  0  0
   93.7365  103.7317  -36.3898 C   0  0  0  0  0  0  0  0  0  0  0  0
   92.1124  102.3107  -40.7800 C   0  0  0  0  0  0  0  0  0  0  0  0
   90.9835  102.1349  -40.2973 O   0  0  0  0  0  0  0  0  0  0  0  0
   91.2364   96.8495  -45.3870 S   0  0  0  0  0  0  0  0  0  0  0  0
   90.2553   97.1322  -46.4706 O   0  0  0  0  0  0  0  0  0  0  0  0
   92.5663   97.4452  -45.7787 O   0  0  0  0  0  0  0  0  0  0  0  0
   91.4514   95.1332  -45.1714 C   0  0  0  0  0  0  0  0  0  0  0  0
   91.2814   94.2736  -46.2365 C   0  0  0  0  0  0  0  0  0  0  0  0
   91.4688   92.9167  -45.9943 C   0  0  0  0  0  0  0  0  0  0  0  0
   91.8083   92.4352  -44.7569 C   0  0  0  0  0  0  0  0  0  0  0  0
   91.9771   93.3089  -43.6925 C   0  0  0  0  0  0  0  0  0  0  0  0
   91.7934   94.6779  -43.9145 C   0  0  0  0  0  0  0  0  0  0  0  0
   91.2485   91.6800  -47.4219 Br  0  0  0  0  0  0  0  0  0  0  0  0
 21 22  2  0  0  0
 21 23  2  0  0  0
 21  1  1  0  0  0
 21 24  1  0  0  0
  1  2  1  0  0  0
  1  6  1  0  0  0
  2  3  1  0  0  0
  3  4  1  0  0  0
  4  5  1  0  0  0
  4  7  1  0  0  0
  5  6  1  0  0  0
  7  8  2  0  0  0
  7  9  1  0  0  0
  9 10  2  0  0  0
  9 19  1  0  0  0
 10 11  1  0  0  0
 11 12  2  0  0  0
 12 13  1  0  0  0
 12 17  1  0  0  0
 13 14  1  0  0  0
 13 19  1  0  0  0
 14 15  2  0  0  0
 15 16  1  0  0  0
 15 18  1  0  0  0
 16 17  2  0  0  0
 19 20  2  0  0  0
 24 25  2  0  0  0
 24 29  1  0  0  0
 25 26  1  0  0  0
 26 27  2  0  0  0
 26 30  1  0  0  0
 27 28  1  0  0  0
 28 29  2  0  0  0
M  END
> <minimizedAffinity>
-7.39856

$$$$
1061


 30 34  0  0  0  0  0  0  0  0999 V2000
   91.6758   98.6272  -45.9285 N   0  0  0  0  0  0  0  0  0  0  0  0
   91.1199   99.8972  -46.3150 C   0  0  0  0  0  0  0  0  0  0  0  0
   91.8998  101.0501  -45.7259 C   0  0  0  0  0  0  0  0  0  0  0  0
   91.9948  100.8981  -44.2523 N   0  0  0  0  0  0  0  0  0  0  0  0
   92.7699   99.6948  -43.9863 C   0  0  0  0  0  0  0  0  0  0  0  0
   92.8949   98.7857  -45.1965 C   0  0  0  0  0  0  0  0  0  0  0  0
   90.5925   97.4568  -45.4029 S   0  0  0  0  0  0  0  0  0  0  0  0
   89.4439   98.1657  -44.6965 O   0  0  0  0  0  0  0  0  0  0  0  0
   89.9356   96.8448  -46.6409 O   0  0  0  0  0  0  0  0  0  0  0  0
   91.2193   96.1616  -44.4656 C   0  0  0  0  0  0  0  0  0  0  0  0
   91.5439   94.9619  -45.0509 C   0  0  0  0  0  0  0  0  0  0  0  0
   92.0561   93.9445  -44.2659 C   0  0  0  0  0  0  0  0  0  0  0  0
   92.2560   94.0852  -42.9046 C   0  0  0  0  0  0  0  0  0  0  0  0
   91.9290   95.2914  -42.3216 C   0  0  0  0  0  0  0  0  0  0  0  0
   91.4142   96.3134  -43.1114 C   0  0  0  0  0  0  0  0  0  0  0  0
   92.9598   92.6834  -41.8208 Br  0  0  0  0  0  0  0  0  0  0  0  0
   92.7489  102.0609  -43.8357 C   0  0  0  0  0  0  0  0  0  0  0  0
   93.7490  101.8880  -42.7733 C   0  0  0  0  0  0  0  0  0  0  0  0
   93.4336  102.2605  -41.4360 N   0  0  0  0  0  0  0  0  0  0  0  0
   92.2440  102.8092  -40.8801 C   0  0  0  0  0  0  0  0  0  0  0  0
   91.4022  103.4734  -41.5021 O   0  0  0  0  0  0  0  0  0  0  0  0
   92.1816  102.4559  -39.4415 C   0  0  0  0  0  0  0  0  0  0  0  0
   93.6892  102.3779  -39.1087 C   0  0  0  0  0  0  0  0  0  0  0  0
   94.0269  103.6792  -38.4844 C   0  0  0  0  0  0  0  0  0  0  0  0
   92.9259  104.5996  -39.0376 C   0  0  0  0  0  0  0  0  0  0  0  0
   91.7896  103.6426  -38.6363 C   0  0  0  0  0  0  0  0  0  0  0  0
   92.2084  103.3624  -37.2220 C   0  0  0  0  0  0  0  0  0  0  0  0
   93.5075  103.6157  -37.0632 C   0  0  0  0  0  0  0  0  0  0  0  0
   94.3712  102.0601  -40.3551 C   0  0  0  0  0  0  0  0  0  0  0  0
   95.5663  101.6815  -40.4393 O   0  0  0  0  0  0  0  0  0  0  0  0
  7  8  2  0  0  0
  7  9  2  0  0  0
  7  1  1  0  0  0
  7 10  1  0  0  0
  1  2  1  0  0  0
  1  6  1  0  0  0
  2  3  1  0  0  0
  3  4  1  0  0  0
  4  5  1  0  0  0
  4 17  1  0  0  0
  5  6  1  0  0  0
 17 18  1  0  0  0
 18 19  1  0  0  0
 19 20  1  0  0  0
 19 29  1  0  0  0
 20 21  2  0  0  0
 20 22  1  0  0  0
 22 23  1  0  0  0
 22 26  1  0  0  0
 23 24  1  0  0  0
 23 29  1  0  0  0
 24 25  1  0  0  0
 24 28  1  0  0  0
 25 26  1  0  0  0
 26 27  1  0  0  0
 27 28  2  0  0  0
 29 30  2  0  0  0
 10 11  2  0  0  0
 10 15  1  0  0  0
 11 12  1  0  0  0
 12 13  2  0  0  0
 13 14  1  0  0  0
 13 16  1  0  0  0
 14 15  2  0  0  0
M  END
> <minimizedAffinity>
-6.56942

$$$$
1073


 28 31  0  0  0  0  0  0  0  0999 V2000
   90.9505  101.3778  -42.7306 N   0  0  0  0  0  0  0  0  0  0  0  0
   91.5621  100.9936  -43.9374 C   0  0  0  0  0  0  0  0  0  0  0  0
   91.1759   99.6125  -44.3902 C   0  0  0  0  0  0  0  0  0  0  0  0
   90.6657   98.7795  -43.3610 N   0  0  0  0  0  0  0  0  0  0  0  0
   89.5443   99.3726  -42.7246 C   0  0  0  0  0  0  0  0  0  0  0  0
   89.6957  100.8140  -42.4080 C   0  0  0  0  0  0  0  0  0  0  0  0
   91.3228  102.8584  -42.0758 S   0  0  0  0  0  0  0  0  0  0  0  0
   92.0576  103.7427  -43.0260 O   0  0  0  0  0  0  0  0  0  0  0  0
   90.0831  103.5617  -41.6250 O   0  0  0  0  0  0  0  0  0  0  0  0
   92.3713  102.6222  -40.6617 C   0  0  0  0  0  0  0  0  0  0  0  0
   92.3163  103.3921  -39.1418 S   0  0  0  0  0  0  0  0  0  0  0  0
   93.6305  102.6091  -38.3926 C   0  0  0  0  0  0  0  0  0  0  0  0
   94.0853  101.7542  -39.3663 C   0  0  0  0  0  0  0  0  0  0  0  0
   93.4289  101.7669  -40.5369 C   0  0  0  0  0  0  0  0  0  0  0  0
   94.3281  102.8443  -36.6241 Br  0  0  0  0  0  0  0  0  0  0  0  0
   91.6922   98.2506  -42.5428 C   0  0  0  0  0  0  0  0  0  0  0  0
   91.8242   96.8338  -42.5025 N   0  0  0  0  0  0  0  0  0  0  0  0
   91.5988   96.1057  -43.5767 N   0  0  0  0  0  0  0  0  0  0  0  0
   91.6948   94.7679  -43.6225 C   0  0  0  0  0  0  0  0  0  0  0  0
   92.0552   94.1334  -42.4574 C   0  0  0  0  0  0  0  0  0  0  0  0
   92.3043   94.8387  -41.2992 C   0  0  0  0  0  0  0  0  0  0  0  0
   92.1763   96.2200  -41.3617 C   0  0  0  0  0  0  0  0  0  0  0  0
   92.4097   96.8718  -40.2847 O   0  0  0  0  0  0  0  0  0  0  0  0
   91.4425   94.0037  -44.8073 N   0  0  0  0  0  0  0  0  0  0  0  0
   90.8832   94.4023  -45.9543 C   0  0  0  0  0  0  0  0  0  0  0  0
   90.8424   93.3550  -46.7985 N   0  0  0  0  0  0  0  0  0  0  0  0
   91.3763   92.2784  -46.1946 C   0  0  0  0  0  0  0  0  0  0  0  0
   91.7508   92.7038  -44.9377 C   0  0  0  0  0  0  0  0  0  0  0  0
  7  8  2  0  0  0
  7  9  2  0  0  0
  7  1  1  0  0  0
  7 10  1  0  0  0
  1  2  1  0  0  0
  1  6  1  0  0  0
  2  3  1  0  0  0
  3  4  1  0  0  0
  4  5  1  0  0  0
  4 16  1  0  0  0
  5  6  1  0  0  0
 16 17  1  0  0  0
 17 18  1  0  0  0
 17 22  1  0  0  0
 18 19  2  0  0  0
 19 20  1  0  0  0
 19 24  1  0  0  0
 20 21  2  0  0  0
 21 22  1  0  0  0
 22 23  2  0  0  0
 24 25  1  0  0  0
 24 28  1  0  0  0
 25 26  2  0  0  0
 26 27  1  0  0  0
 27 28  2  0  0  0
 10 11  1  0  0  0
 10 14  2  0  0  0
 11 12  1  0  0  0
 12 13  2  0  0  0
 12 15  1  0  0  0
 13 14  1  0  0  0
M  END
> <minimizedAffinity>
-6.62550

$$$$
1076


 29 32  0  0  0  0  0  0  0  0999 V2000
   90.0395   98.8746  -44.7577 N   0  0  0  0  0  0  0  0  0  0  0  0
   90.1836   99.9884  -45.6411 C   0  0  0  0  0  0  0  0  0  0  0  0
   89.4384  101.1554  -44.9704 C   0  0  0  0  0  0  0  0  0  0  0  0
   88.3538  100.7077  -44.2100 N   0  0  0  0  0  0  0  0  0  0  0  0
   87.6969   99.5177  -44.6776 C   0  0  0  0  0  0  0  0  0  0  0  0
   88.6628   98.3908  -44.9666 C   0  0  0  0  0  0  0  0  0  0  0  0
   91.0798   97.5631  -45.1137 S   0  0  0  0  0  0  0  0  0  0  0  0
   92.3571   98.0164  -45.7705 O   0  0  0  0  0  0  0  0  0  0  0  0
   90.3702   96.6904  -46.1229 O   0  0  0  0  0  0  0  0  0  0  0  0
   91.4658   96.5882  -43.7483 C   0  0  0  0  0  0  0  0  0  0  0  0
   91.7062   95.2461  -43.7605 C   0  0  0  0  0  0  0  0  0  0  0  0
   92.0103   94.5522  -42.5982 C   0  0  0  0  0  0  0  0  0  0  0  0
   92.0824   95.1835  -41.3922 C   0  0  0  0  0  0  0  0  0  0  0  0
   91.8430   96.5483  -41.3483 C   0  0  0  0  0  0  0  0  0  0  0  0
   91.5424   97.2236  -42.5042 C   0  0  0  0  0  0  0  0  0  0  0  0
   92.3451   92.6604  -42.6400 Br  0  0  0  0  0  0  0  0  0  0  0  0
   88.2955  100.9269  -42.8260 C   0  0  0  0  0  0  0  0  0  0  0  0
   89.4775  101.3605  -42.1534 N   0  0  0  0  0  0  0  0  0  0  0  0
   90.4648  100.4315  -41.7366 N   0  0  0  0  0  0  0  0  0  0  0  0
   91.4906  101.2082  -41.1241 C   0  0  0  0  0  0  0  0  0  0  0  0
   92.5907  100.6735  -40.6082 C   0  0  0  0  0  0  0  0  0  0  0  0
   93.7868  101.2236  -39.9313 C   0  0  0  0  0  0  0  0  0  0  0  0
   93.4642  102.5251  -39.2371 C   0  0  0  0  0  0  0  0  0  0  0  0
   93.2864  103.5565  -40.3370 C   0  0  0  0  0  0  0  0  0  0  0  0
   91.8423  103.7634  -40.6775 C   0  0  0  0  0  0  0  0  0  0  0  0
   91.1705  102.5904  -41.1478 N   0  0  0  0  0  0  0  0  0  0  0  0
   89.9045  102.6668  -41.7958 C   0  0  0  0  0  0  0  0  0  0  0  0
   89.2953  103.7463  -41.9991 O   0  0  0  0  0  0  0  0  0  0  0  0
   90.4444   99.3909  -41.8534 H   0  0  0  0  0  0  0  0  0  0  0  0
  7  8  2  0  0  0
  7  9  2  0  0  0
  7  1  1  0  0  0
  7 10  1  0  0  0
  1  2  1  0  0  0
  1  6  1  0  0  0
  2  3  1  0  0  0
  3  4  1  0  0  0
  4  5  1  0  0  0
  4 17  1  0  0  0
  5  6  1  0  0  0
 17 18  1  0  0  0
 18 19  1  0  0  0
 18 27  1  0  0  0
 19 20  1  0  0  0
 20 21  2  0  0  0
 20 26  1  0  0  0
 21 22  1  0  0  0
 22 23  1  0  0  0
 23 24  1  0  0  0
 24 25  1  0  0  0
 25 26  1  0  0  0
 26 27  1  0  0  0
 27 28  2  0  0  0
 10 11  2  0  0  0
 10 15  1  0  0  0
 11 12  1  0  0  0
 12 13  2  0  0  0
 12 16  1  0  0  0
 13 14  1  0  0  0
 14 15  2  0  0  0
 19 29  1  0  0  0
M  END
> <minimizedAffinity>
-6.40762

$$$$
1081


 27 30  0  0  0  0  0  0  0  0999 V2000
   91.8921   99.9824  -43.7162 N   0  0  0  0  0  0  0  0  0  0  0  0
   92.8534   99.5624  -44.6624 C   0  0  0  0  0  0  0  0  0  0  0  0
   92.8201   98.1279  -45.0719 C   0  0  0  0  0  0  0  0  0  0  0  0
   91.7863   97.3480  -44.4378 N   0  0  0  0  0  0  0  0  0  0  0  0
   91.4178   97.6375  -43.0898 C   0  0  0  0  0  0  0  0  0  0  0  0
   91.5013   99.0737  -42.7064 C   0  0  0  0  0  0  0  0  0  0  0  0
   91.1838   96.2999  -45.2107 C   0  0  0  0  0  0  0  0  0  0  0  0
   91.2772   94.9832  -44.9582 N   0  0  0  0  0  0  0  0  0  0  0  0
   90.5819   94.3867  -45.9336 N   0  0  0  0  0  0  0  0  0  0  0  0
   90.0857   95.2943  -46.7452 N   0  0  0  0  0  0  0  0  0  0  0  0
   90.4367   96.4933  -46.3305 N   0  0  0  0  0  0  0  0  0  0  0  0
   91.9611   94.3668  -43.8764 C   0  0  0  0  0  0  0  0  0  0  0  0
   91.6312   94.6454  -42.5697 C   0  0  0  0  0  0  0  0  0  0  0  0
   92.3209   94.0233  -41.5300 C   0  0  0  0  0  0  0  0  0  0  0  0
   93.3361   93.1261  -41.7798 C   0  0  0  0  0  0  0  0  0  0  0  0
   93.6720   92.8427  -43.1098 C   0  0  0  0  0  0  0  0  0  0  0  0
   92.9707   93.4751  -44.1377 C   0  0  0  0  0  0  0  0  0  0  0  0
   90.6680  101.0257  -44.2691 S   0  0  0  0  0  0  0  0  0  0  0  0
   90.8963  101.6005  -45.6102 O   0  0  0  0  0  0  0  0  0  0  0  0
   90.5925  102.2029  -43.3043 O   0  0  0  0  0  0  0  0  0  0  0  0
   89.1265  100.2169  -44.2031 C   0  0  0  0  0  0  0  0  0  0  0  0
   88.7526   99.2474  -45.0992 C   0  0  0  0  0  0  0  0  0  0  0  0
   87.5161   98.6057  -45.0333 C   0  0  0  0  0  0  0  0  0  0  0  0
   86.6363   98.9748  -44.0106 C   0  0  0  0  0  0  0  0  0  0  0  0
   87.0007   99.9471  -43.1060 C   0  0  0  0  0  0  0  0  0  0  0  0
   88.2223  100.5522  -43.2050 C   0  0  0  0  0  0  0  0  0  0  0  0
   84.9239   98.1341  -43.8582 Br  0  0  0  0  0  0  0  0  0  0  0  0
 18 19  2  0  0  0
 18 20  2  0  0  0
 18  1  1  0  0  0
 18 21  1  0  0  0
  1  2  1  0  0  0
  1  6  1  0  0  0
  2  3  1  0  0  0
  3  4  1  0  0  0
  4  5  1  0  0  0
  4  7  1  0  0  0
  5  6  1  0  0  0
  7  8  1  0  0  0
  7 11  2  0  0  0
  8  9  1  0  0  0
  8 12  1  0  0  0
  9 10  2  0  0  0
 10 11  1  0  0  0
 12 13  2  0  0  0
 12 17  1  0  0  0
 13 14  1  0  0  0
 14 15  2  0  0  0
 15 16  1  0  0  0
 16 17  2  0  0  0
 21 22  2  0  0  0
 21 26  1  0  0  0
 22 23  1  0  0  0
 23 24  2  0  0  0
 24 25  1  0  0  0
 24 27  1  0  0  0
 25 26  2  0  0  0
M  END
> <minimizedAffinity>
-6.73072

$$$$
1084


 29 32  0  0  0  0  0  0  0  0999 V2000
   90.1409   99.1981  -43.9344 N   0  0  0  0  0  0  0  0  0  0  0  0
   91.4904   99.1046  -44.3806 C   0  0  0  0  0  0  0  0  0  0  0  0
   91.6626   98.2233  -45.5990 C   0  0  0  0  0  0  0  0  0  0  0  0
   90.5950   97.2662  -45.5946 N   0  0  0  0  0  0  0  0  0  0  0  0
   89.2469   97.7408  -45.7028 C   0  0  0  0  0  0  0  0  0  0  0  0
   89.1578   99.0628  -44.9830 C   0  0  0  0  0  0  0  0  0  0  0  0
   90.8775   95.8942  -45.4871 C   0  0  0  0  0  0  0  0  0  0  0  0
   91.3655   95.3396  -44.3652 N   0  0  0  0  0  0  0  0  0  0  0  0
   91.6515   94.0601  -44.2026 C   0  0  0  0  0  0  0  0  0  0  0  0
   91.4297   93.2125  -45.2749 C   0  0  0  0  0  0  0  0  0  0  0  0
   90.9293   93.7335  -46.4468 C   0  0  0  0  0  0  0  0  0  0  0  0
   90.6661   95.0504  -46.5263 N   0  0  0  0  0  0  0  0  0  0  0  0
   90.6777   92.8562  -47.6219 C   0  0  0  0  0  0  0  0  0  0  0  0
   92.1637   93.5995  -42.9656 N   0  0  0  0  0  0  0  0  0  0  0  0
   93.3667   92.8021  -42.8437 C   0  0  0  0  0  0  0  0  0  0  0  0
   93.8776   93.0160  -41.4196 C   0  0  0  0  0  0  0  0  0  0  0  0
   93.7420   94.3771  -41.1385 O   0  0  0  0  0  0  0  0  0  0  0  0
   92.4403   94.7576  -40.9044 C   0  0  0  0  0  0  0  0  0  0  0  0
   91.4606   93.9351  -41.7488 C   0  0  0  0  0  0  0  0  0  0  0  0
   89.9153  100.7594  -43.2256 S   0  0  0  0  0  0  0  0  0  0  0  0
   89.6111  101.7384  -44.3478 O   0  0  0  0  0  0  0  0  0  0  0  0
   88.7236  100.7164  -42.3137 O   0  0  0  0  0  0  0  0  0  0  0  0
   91.3461  101.2960  -42.3929 C   0  0  0  0  0  0  0  0  0  0  0  0
   92.1151  102.2981  -42.9689 C   0  0  0  0  0  0  0  0  0  0  0  0
   93.2598  102.7726  -42.3677 C   0  0  0  0  0  0  0  0  0  0  0  0
   93.6644  102.2472  -41.1649 C   0  0  0  0  0  0  0  0  0  0  0  0
   92.9261  101.2478  -40.5593 C   0  0  0  0  0  0  0  0  0  0  0  0
   91.7736  100.7906  -41.1925 C   0  0  0  0  0  0  0  0  0  0  0  0
   95.2505  102.9153  -40.3466 Br  0  0  0  0  0  0  0  0  0  0  0  0
 20 21  2  0  0  0
 20 22  2  0  0  0
 20  1  1  0  0  0
 20 23  1  0  0  0
  1  2  1  0  0  0
  1  6  1  0  0  0
  2  3  1  0  0  0
  3  4  1  0  0  0
  4  5  1  0  0  0
  4  7  1  0  0  0
  5  6  1  0  0  0
  7  8  2  0  0  0
  7 12  1  0  0  0
  8  9  1  0  0  0
  9 10  2  0  0  0
  9 14  1  0  0  0
 10 11  1  0  0  0
 11 12  2  0  0  0
 11 13  1  0  0  0
 14 15  1  0  0  0
 14 19  1  0  0  0
 15 16  1  0  0  0
 16 17  1  0  0  0
 17 18  1  0  0  0
 18 19  1  0  0  0
 23 24  2  0  0  0
 23 28  1  0  0  0
 24 25  1  0  0  0
 25 26  2  0  0  0
 26 27  1  0  0  0
 26 29  1  0  0  0
 27 28  2  0  0  0
M  END
> <minimizedAffinity>
-6.24412

$$$$
1089


 25 28  0  0  0  0  0  0  0  0999 V2000
   90.4500  100.1208  -44.8886 N   0  0  0  0  0  0  0  0  0  0  0  0
   91.8528   99.9655  -44.8796 C   0  0  0  0  0  0  0  0  0  0  0  0
   92.3865   98.8148  -44.0631 C   0  0  0  0  0  0  0  0  0  0  0  0
   91.3641   98.1126  -43.3534 N   0  0  0  0  0  0  0  0  0  0  0  0
   90.1291   98.7348  -42.9099 C   0  0  0  0  0  0  0  0  0  0  0  0
   89.8825  100.0446  -43.5997 C   0  0  0  0  0  0  0  0  0  0  0  0
   91.5286   96.7333  -43.0529 C   0  0  0  0  0  0  0  0  0  0  0  0
   91.7487   96.3476  -41.7609 N   0  0  0  0  0  0  0  0  0  0  0  0
   91.8974   95.0582  -41.4556 C   0  0  0  0  0  0  0  0  0  0  0  0
   91.8390   94.1001  -42.3791 N   0  0  0  0  0  0  0  0  0  0  0  0
   91.6253   94.4547  -43.6443 C   0  0  0  0  0  0  0  0  0  0  0  0
   91.5237   93.7285  -44.7611 N   0  0  0  0  0  0  0  0  0  0  0  0
   91.3062   94.5744  -45.8068 C   0  0  0  0  0  0  0  0  0  0  0  0
   91.2678   95.8313  -45.3636 N   0  0  0  0  0  0  0  0  0  0  0  0
   91.4611   95.7840  -44.0378 C   0  0  0  0  0  0  0  0  0  0  0  0
   91.1179   96.6691  -45.9554 H   0  0  0  0  0  0  0  0  0  0  0  0
   89.5721   99.5605  -46.1955 S   0  0  0  0  0  0  0  0  0  0  0  0
   90.3921   98.4916  -46.9092 O   0  0  0  0  0  0  0  0  0  0  0  0
   89.2781  100.6070  -47.2077 O   0  0  0  0  0  0  0  0  0  0  0  0
   88.0479   98.7704  -45.7817 C   0  0  0  0  0  0  0  0  0  0  0  0
   86.5327   99.4639  -45.4246 S   0  0  0  0  0  0  0  0  0  0  0  0
   85.6332   98.0458  -45.1459 C   0  0  0  0  0  0  0  0  0  0  0  0
   86.5592   97.0501  -45.3440 C   0  0  0  0  0  0  0  0  0  0  0  0
   87.7993   97.4307  -45.6707 C   0  0  0  0  0  0  0  0  0  0  0  0
   83.7924   97.8575  -44.6745 Br  0  0  0  0  0  0  0  0  0  0  0  0
 17 18  2  0  0  0
 17 19  2  0  0  0
 17  1  1  0  0  0
 17 20  1  0  0  0
  1  2  1  0  0  0
  1  6  1  0  0  0
  2  3  1  0  0  0
  3  4  1  0  0  0
  4  5  1  0  0  0
  4  7  1  0  0  0
  5  6  1  0  0  0
  7  8  2  0  0  0
  7 15  1  0  0  0
  8  9  1  0  0  0
  9 10  2  0  0  0
 10 11  1  0  0  0
 11 12  1  0  0  0
 11 15  2  0  0  0
 12 13  2  0  0  0
 13 14  1  0  0  0
 14 15  1  0  0  0
 20 21  1  0  0  0
 20 24  2  0  0  0
 21 22  1  0  0  0
 22 23  2  0  0  0
 22 25  1  0  0  0
 23 24  1  0  0  0
 14 16  1  0  0  0
M  END
> <minimizedAffinity>
-6.09410

$$$$
1100


 26 29  0  0  0  0  0  0  0  0999 V2000
   90.7181   99.1316  -43.9993 N   0  0  0  0  0  0  0  0  0  0  0  0
   89.5705   98.4257  -44.4619 C   0  0  0  0  0  0  0  0  0  0  0  0
   89.9009   97.3840  -45.5098 C   0  0  0  0  0  0  0  0  0  0  0  0
   91.1921   96.8381  -45.1781 N   0  0  0  0  0  0  0  0  0  0  0  0
   92.3060   97.7454  -45.2892 C   0  0  0  0  0  0  0  0  0  0  0  0
   91.8744   99.0916  -44.8296 C   0  0  0  0  0  0  0  0  0  0  0  0
   91.3887   95.5000  -44.7656 C   0  0  0  0  0  0  0  0  0  0  0  0
   91.3776   94.4818  -45.6264 C   0  0  0  0  0  0  0  0  0  0  0  0
   91.5762   93.0960  -45.2428 C   0  0  0  0  0  0  0  0  0  0  0  0
   91.5543   92.1253  -46.1411 C   0  0  0  0  0  0  0  0  0  0  0  0
   91.7950   92.7957  -43.8807 N   0  0  0  0  0  0  0  0  0  0  0  0
   91.8013   93.9159  -42.9831 C   0  0  0  0  0  0  0  0  0  0  0  0
   91.6123   95.1810  -43.3886 N   0  0  0  0  0  0  0  0  0  0  0  0
   91.6736   95.9924  -42.3296 N   0  0  0  0  0  0  0  0  0  0  0  0
   91.9026   95.2600  -41.2257 C   0  0  0  0  0  0  0  0  0  0  0  0
   91.9787   93.9840  -41.6402 N   0  0  0  0  0  0  0  0  0  0  0  0
   91.9461   91.8486  -43.5074 H   0  0  0  0  0  0  0  0  0  0  0  0
   90.2938  100.7093  -43.5357 S   0  0  0  0  0  0  0  0  0  0  0  0
   88.8035  100.9289  -43.5036 O   0  0  0  0  0  0  0  0  0  0  0  0
   90.8362  101.6641  -44.5891 O   0  0  0  0  0  0  0  0  0  0  0  0
   91.0353  101.1896  -42.0104 C   0  0  0  0  0  0  0  0  0  0  0  0
   90.5202  102.4386  -40.9815 S   0  0  0  0  0  0  0  0  0  0  0  0
   91.6959  102.2949  -39.7593 C   0  0  0  0  0  0  0  0  0  0  0  0
   92.4750  101.2562  -40.1935 C   0  0  0  0  0  0  0  0  0  0  0  0
   92.1275  100.6805  -41.3693 C   0  0  0  0  0  0  0  0  0  0  0  0
   91.9155  103.3228  -38.1395 Br  0  0  0  0  0  0  0  0  0  0  0  0
 18 19  2  0  0  0
 18 20  2  0  0  0
 18  1  1  0  0  0
 18 21  1  0  0  0
  1  2  1  0  0  0
  1  6  1  0  0  0
  2  3  1  0  0  0
  3  4  1  0  0  0
  4  5  1  0  0  0
  4  7  1  0  0  0
  5  6  1  0  0  0
  7  8  2  0  0  0
  7 13  1  0  0  0
  8  9  1  0  0  0
  9 10  2  0  0  0
  9 11  1  0  0  0
 11 12  1  0  0  0
 12 13  1  0  0  0
 12 16  2  0  0  0
 13 14  1  0  0  0
 14 15  2  0  0  0
 15 16  1  0  0  0
 21 22  1  0  0  0
 21 25  2  0  0  0
 22 23  1  0  0  0
 23 24  2  0  0  0
 23 26  1  0  0  0
 24 25  1  0  0  0
 11 17  1  0  0  0
M  END
> <minimizedAffinity>
-7.27055

$$$$
1101


 26 29  0  0  0  0  0  0  0  0999 V2000
   90.3715  100.5611  -43.2594 N   0  0  0  0  0  0  0  0  0  0  0  0
   90.6657  100.6327  -44.6406 C   0  0  0  0  0  0  0  0  0  0  0  0
   91.0214   99.3491  -45.3037 C   0  0  0  0  0  0  0  0  0  0  0  0
   90.1563   98.2495  -44.8476 N   0  0  0  0  0  0  0  0  0  0  0  0
   89.0288   98.6653  -44.0409 C   0  0  0  0  0  0  0  0  0  0  0  0
   89.6022   99.4170  -42.8548 C   0  0  0  0  0  0  0  0  0  0  0  0
   90.4423   96.9091  -45.1950 C   0  0  0  0  0  0  0  0  0  0  0  0
   91.2212   96.1475  -44.3323 C   0  0  0  0  0  0  0  0  0  0  0  0
   91.4967   94.8280  -44.6854 C   0  0  0  0  0  0  0  0  0  0  0  0
   91.0350   94.2974  -45.8101 N   0  0  0  0  0  0  0  0  0  0  0  0
   91.4659   93.0266  -45.8644 C   0  0  0  0  0  0  0  0  0  0  0  0
   92.1949   92.8001  -44.7546 N   0  0  0  0  0  0  0  0  0  0  0  0
   92.2168   93.9034  -44.0269 N   0  0  0  0  0  0  0  0  0  0  0  0
   91.1911   92.0366  -46.9553 C   0  0  0  0  0  0  0  0  0  0  0  0
   90.3030   95.0002  -46.6283 N   0  0  0  0  0  0  0  0  0  0  0  0
   90.0049   96.2924  -46.3319 C   0  0  0  0  0  0  0  0  0  0  0  0
   91.6655  100.9088  -42.2103 S   0  0  0  0  0  0  0  0  0  0  0  0
   92.7840  101.5104  -43.0524 O   0  0  0  0  0  0  0  0  0  0  0  0
   92.2241   99.6499  -41.6168 O   0  0  0  0  0  0  0  0  0  0  0  0
   91.2724  102.0943  -40.9945 C   0  0  0  0  0  0  0  0  0  0  0  0
   90.4160  103.1548  -41.2577 C   0  0  0  0  0  0  0  0  0  0  0  0
   90.1065  104.0911  -40.2962 C   0  0  0  0  0  0  0  0  0  0  0  0
   90.6694  103.9626  -39.0366 C   0  0  0  0  0  0  0  0  0  0  0  0
   91.5263  102.9247  -38.7255 C   0  0  0  0  0  0  0  0  0  0  0  0
   91.8093  102.0116  -39.7146 C   0  0  0  0  0  0  0  0  0  0  0  0
   90.2281  105.2736  -37.7111 Br  0  0  0  0  0  0  0  0  0  0  0  0
 17 18  2  0  0  0
 17 19  2  0  0  0
 17  1  1  0  0  0
 17 20  1  0  0  0
  1  2  1  0  0  0
  1  6  1  0  0  0
  2  3  1  0  0  0
  3  4  1  0  0  0
  4  5  1  0  0  0
  4  7  1  0  0  0
  5  6  1  0  0  0
  7  8  2  0  0  0
  7 16  1  0  0  0
  8  9  1  0  0  0
  9 10  1  0  0  0
  9 13  2  0  0  0
 10 11  1  0  0  0
 10 15  1  0  0  0
 11 12  2  0  0  0
 11 14  1  0  0  0
 12 13  1  0  0  0
 15 16  2  0  0  0
 20 21  2  0  0  0
 20 25  1  0  0  0
 21 22  1  0  0  0
 22 23  2  0  0  0
 23 24  1  0  0  0
 23 26  1  0  0  0
 24 25  2  0  0  0
M  END
> <minimizedAffinity>
-6.34521

$$$$
1105


 33 36  0  0  0  0  0  0  0  0999 V2000
   85.8221   99.9757  -43.9988 N   0  0  0  0  0  0  0  0  0  0  0  0
   84.6307   99.9248  -43.2200 C   0  0  0  0  0  0  0  0  0  0  0  0
   84.4126  101.1183  -42.3179 C   0  0  0  0  0  0  0  0  0  0  0  0
   84.6743  102.3674  -43.0373 N   0  0  0  0  0  0  0  0  0  0  0  0
   85.9088  102.3390  -43.7896 C   0  0  0  0  0  0  0  0  0  0  0  0
   86.2785  103.2820  -44.4934 O   0  0  0  0  0  0  0  0  0  0  0  0
   86.6571  101.0509  -43.6072 C   0  0  0  0  0  0  0  0  0  0  0  0
   84.0734  103.1910  -43.0315 H   0  0  0  0  0  0  0  0  0  0  0  0
   85.4412   99.8891  -45.6525 S   0  0  0  0  0  0  0  0  0  0  0  0
   86.5037  100.4284  -46.5563 O   0  0  0  0  0  0  0  0  0  0  0  0
   84.1812  100.6903  -45.9575 O   0  0  0  0  0  0  0  0  0  0  0  0
   85.0838   98.2447  -46.1499 C   0  0  0  0  0  0  0  0  0  0  0  0
   83.8894   97.6114  -45.8292 C   0  0  0  0  0  0  0  0  0  0  0  0
   83.5910   96.3311  -46.2020 C   0  0  0  0  0  0  0  0  0  0  0  0
   84.4913   95.6006  -46.9330 C   0  0  0  0  0  0  0  0  0  0  0  0
   85.7062   96.2062  -47.2759 C   0  0  0  0  0  0  0  0  0  0  0  0
   85.9733   97.4955  -46.8833 C   0  0  0  0  0  0  0  0  0  0  0  0
   84.1334   93.8147  -47.4828 Br  0  0  0  0  0  0  0  0  0  0  0  0
   88.0256  101.0972  -44.1614 C   0  0  0  0  0  0  0  0  0  0  0  0
   88.9280  100.2691  -43.3261 C   0  0  0  0  0  0  0  0  0  0  0  0
   89.2119  100.7205  -42.1847 O   0  0  0  0  0  0  0  0  0  0  0  0
   89.4522   99.0227  -43.7868 N   0  0  0  0  0  0  0  0  0  0  0  0
   89.1210   98.5187  -45.0915 C   0  0  0  0  0  0  0  0  0  0  0  0
   90.1875   97.6692  -45.7094 C   0  0  0  0  0  0  0  0  0  0  0  0
   90.9771   96.9206  -44.7469 N   0  0  0  0  0  0  0  0  0  0  0  0
   91.5234   97.7238  -43.6635 C   0  0  0  0  0  0  0  0  0  0  0  0
   90.3226   98.2708  -42.9212 C   0  0  0  0  0  0  0  0  0  0  0  0
   91.2434   95.5461  -44.8063 C   0  0  0  0  0  0  0  0  0  0  0  0
   91.6638   94.8886  -43.6716 C   0  0  0  0  0  0  0  0  0  0  0  0
   91.9400   93.5315  -43.7369 C   0  0  0  0  0  0  0  0  0  0  0  0
   91.8137   92.8029  -44.8935 C   0  0  0  0  0  0  0  0  0  0  0  0
   91.3929   93.4642  -46.0242 C   0  0  0  0  0  0  0  0  0  0  0  0
   91.1149   94.8220  -45.9666 C   0  0  0  0  0  0  0  0  0  0  0  0
  9 10  2  0  0  0
  9 11  2  0  0  0
  9  1  1  0  0  0
  9 12  1  0  0  0
  1  2  1  0  0  0
  1  7  1  0  0  0
  2  3  1  0  0  0
  3  4  1  0  0  0
  4  5  1  0  0  0
  5  6  2  0  0  0
  5  7  1  0  0  0
  7 19  1  0  0  0
 19 20  1  0  0  0
 20 21  2  0  0  0
 20 22  1  0  0  0
 22 23  1  0  0  0
 22 27  1  0  0  0
 23 24  1  0  0  0
 24 25  1  0  0  0
 25 26  1  0  0  0
 25 28  1  0  0  0
 26 27  1  0  0  0
 28 29  2  0  0  0
 28 33  1  0  0  0
 29 30  1  0  0  0
 30 31  2  0  0  0
 31 32  1  0  0  0
 32 33  2  0  0  0
 12 13  2  0  0  0
 12 17  1  0  0  0
 13 14  1  0  0  0
 14 15  2  0  0  0
 15 16  1  0  0  0
 15 18  1  0  0  0
 16 17  2  0  0  0
  4  8  1  0  0  0
M  END
> <minimizedAffinity>
-5.99006

$$$$
1112


 32 35  0  0  0  0  0  0  0  0999 V2000
   89.4233  101.2514  -42.2736 C   0  0  0  0  0  0  0  0  0  0  0  0
   93.4414  102.4345  -41.3192 C   0  0  0  0  0  0  0  0  0  0  0  0
   92.7593  103.0575  -42.3239 C   0  0  0  0  0  0  0  0  0  0  0  0
   91.4566  102.6949  -42.6531 C   0  0  0  0  0  0  0  0  0  0  0  0
   90.8068  101.7008  -41.9844 C   0  0  0  0  0  0  0  0  0  0  0  0
   91.4913  101.0644  -40.9637 C   0  0  0  0  0  0  0  0  0  0  0  0
   92.7855  101.4265  -40.6377 C   0  0  0  0  0  0  0  0  0  0  0  0
   95.0864  102.8661  -40.8764 S   0  0  0  0  0  0  0  0  0  0  0  0
   95.8165  101.7071  -40.2898 O   0  0  0  0  0  0  0  0  0  0  0  0
   95.7906  103.2322  -42.1673 O   0  0  0  0  0  0  0  0  0  0  0  0
   95.1472  104.2339  -39.8551 N   0  0  0  0  0  0  0  0  0  0  0  0
   96.1258  104.1168  -38.8063 C   0  0  0  0  0  0  0  0  0  0  0  0
   95.7397  105.1394  -37.7336 C   0  0  0  0  0  0  0  0  0  0  0  0
   94.6395  104.7050  -37.0264 O   0  0  0  0  0  0  0  0  0  0  0  0
   93.8977  103.8235  -37.8327 C   0  0  0  0  0  0  0  0  0  0  0  0
   93.8558  104.4359  -39.2248 C   0  0  0  0  0  0  0  0  0  0  0  0
   89.3177   99.8457  -42.3177 O   0  0  0  0  0  0  0  0  0  0  0  0
   89.4019   99.0840  -43.4575 C   0  0  0  0  0  0  0  0  0  0  0  0
   88.3571   98.6372  -43.9703 O   0  0  0  0  0  0  0  0  0  0  0  0
   90.6940   98.7915  -44.0726 C   0  0  0  0  0  0  0  0  0  0  0  0
   90.9563   97.3907  -44.2255 N   0  0  0  0  0  0  0  0  0  0  0  0
   90.7202   96.6797  -45.4475 C   0  0  0  0  0  0  0  0  0  0  0  0
   90.2651   97.1777  -46.5166 O   0  0  0  0  0  0  0  0  0  0  0  0
   91.0909   95.2813  -45.2644 C   0  0  0  0  0  0  0  0  0  0  0  0
   91.5415   95.1118  -43.9814 C   0  0  0  0  0  0  0  0  0  0  0  0
   91.9592   93.8698  -43.5425 C   0  0  0  0  0  0  0  0  0  0  0  0
   91.9326   92.7733  -44.3832 C   0  0  0  0  0  0  0  0  0  0  0  0
   91.4809   92.9293  -45.6768 C   0  0  0  0  0  0  0  0  0  0  0  0
   91.0692   94.1798  -46.0887 C   0  0  0  0  0  0  0  0  0  0  0  0
   91.4245   91.4462  -46.8733 Br  0  0  0  0  0  0  0  0  0  0  0  0
   91.4632   96.4257  -43.3194 C   0  0  0  0  0  0  0  0  0  0  0  0
   91.7869   96.6832  -42.1389 O   0  0  0  0  0  0  0  0  0  0  0  0
  8  9  2  0  0  0
  8 10  2  0  0  0
  8 11  1  0  0  0
  8  2  1  0  0  0
 11 12  1  0  0  0
 11 16  1  0  0  0
 12 13  1  0  0  0
 13 14  1  0  0  0
 14 15  1  0  0  0
 15 16  1  0  0  0
  2  3  2  0  0  0
  2  7  1  0  0  0
  3  4  1  0  0  0
  4  5  2  0  0  0
  5  6  1  0  0  0
  5  1  1  0  0  0
  6  7  2  0  0  0
  1 17  1  0  0  0
 17 18  1  0  0  0
 18 19  2  0  0  0
 18 20  1  0  0  0
 20 21  1  0  0  0
 21 22  1  0  0  0
 21 31  1  0  0  0
 22 23  2  0  0  0
 22 24  1  0  0  0
 24 25  2  0  0  0
 24 29  1  0  0  0
 25 26  1  0  0  0
 25 31  1  0  0  0
 26 27  2  0  0  0
 27 28  1  0  0  0
 28 29  2  0  0  0
 28 30  1  0  0  0
 31 32  2  0  0  0
M  END
> <minimizedAffinity>
-6.97515

$$$$
1113


 28 31  0  0  0  0  0  0  0  0999 V2000
   93.6811  101.8046  -41.5939 C   0  0  0  0  0  0  0  0  0  0  0  0
   92.6490  101.0885  -41.1174 N   0  0  0  0  0  0  0  0  0  0  0  0
   91.8665  100.7011  -42.1567 C   0  0  0  0  0  0  0  0  0  0  0  0
   92.3916  101.1658  -43.3033 N   0  0  0  0  0  0  0  0  0  0  0  0
   93.4887  101.8340  -42.9791 C   0  0  0  0  0  0  0  0  0  0  0  0
   94.9852  102.5432  -40.6935 S   0  0  0  0  0  0  0  0  0  0  0  0
   95.9446  101.4365  -40.2746 O   0  0  0  0  0  0  0  0  0  0  0  0
   95.7923  103.4346  -41.6163 O   0  0  0  0  0  0  0  0  0  0  0  0
   94.5003  103.3691  -39.3188 N   0  0  0  0  0  0  0  0  0  0  0  0
   94.2307  104.7422  -39.4218 C   0  0  0  0  0  0  0  0  0  0  0  0
   92.9616  105.0986  -38.7056 C   0  0  0  0  0  0  0  0  0  0  0  0
   93.0949  104.6922  -37.3894 O   0  0  0  0  0  0  0  0  0  0  0  0
   93.1479  103.3101  -37.2602 C   0  0  0  0  0  0  0  0  0  0  0  0
   94.0780  102.6449  -38.1996 C   0  0  0  0  0  0  0  0  0  0  0  0
   91.8276  100.9476  -44.6197 C   0  0  0  0  0  0  0  0  0  0  0  0
   91.8578   99.5145  -44.9967 C   0  0  0  0  0  0  0  0  0  0  0  0
   92.8846   98.8963  -45.6374 N   0  0  0  0  0  0  0  0  0  0  0  0
   92.5647   97.6486  -45.8011 O   0  0  0  0  0  0  0  0  0  0  0  0
   91.3800   97.3904  -45.3079 C   0  0  0  0  0  0  0  0  0  0  0  0
   90.9366   98.5692  -44.8012 N   0  0  0  0  0  0  0  0  0  0  0  0
   90.6457   96.0892  -45.2903 C   0  0  0  0  0  0  0  0  0  0  0  0
   91.4369   95.1606  -44.4356 C   0  0  0  0  0  0  0  0  0  0  0  0
   91.4897   95.4038  -43.0721 C   0  0  0  0  0  0  0  0  0  0  0  0
   92.1923   94.6028  -42.2109 C   0  0  0  0  0  0  0  0  0  0  0  0
   92.8611   93.5268  -42.7280 C   0  0  0  0  0  0  0  0  0  0  0  0
   92.8410   93.2458  -44.0589 C   0  0  0  0  0  0  0  0  0  0  0  0
   92.1188   94.0769  -44.9109 C   0  0  0  0  0  0  0  0  0  0  0  0
   93.8507   92.3887  -41.5598 Br  0  0  0  0  0  0  0  0  0  0  0  0
  6  7  2  0  0  0
  6  8  2  0  0  0
  6  9  1  0  0  0
  6  1  1  0  0  0
  9 10  1  0  0  0
  9 14  1  0  0  0
 10 11  1  0  0  0
 11 12  1  0  0  0
 12 13  1  0  0  0
 13 14  1  0  0  0
  1  2  1  0  0  0
  1  5  2  0  0  0
  2  3  2  0  0  0
  3  4  1  0  0  0
  4  5  1  0  0  0
  4 15  1  0  0  0
 15 16  1  0  0  0
 16 17  2  0  0  0
 16 20  1  0  0  0
 17 18  1  0  0  0
 18 19  1  0  0  0
 19 20  2  0  0  0
 19 21  1  0  0  0
 21 22  1  0  0  0
 22 23  2  0  0  0
 22 27  1  0  0  0
 23 24  1  0  0  0
 24 25  2  0  0  0
 25 26  1  0  0  0
 25 28  1  0  0  0
 26 27  2  0  0  0
M  END
> <minimizedAffinity>
-6.22707

$$$$
1114


 27 30  0  0  0  0  0  0  0  0999 V2000
   90.5482   88.6768  -49.4573 C   0  0  0  0  0  0  0  0  0  0  0  0
   91.8272   88.7676  -49.0527 N   0  0  0  0  0  0  0  0  0  0  0  0
   92.0501   90.0216  -48.6177 C   0  0  0  0  0  0  0  0  0  0  0  0
   90.9367   90.7605  -48.7308 N   0  0  0  0  0  0  0  0  0  0  0  0
   90.0114   89.9355  -49.2468 C   0  0  0  0  0  0  0  0  0  0  0  0
   89.7304   87.2540  -50.1153 S   0  0  0  0  0  0  0  0  0  0  0  0
   89.0396   87.6847  -51.3816 O   0  0  0  0  0  0  0  0  0  0  0  0
   90.7176   86.1935  -50.4823 O   0  0  0  0  0  0  0  0  0  0  0  0
   88.5506   86.6632  -49.0275 N   0  0  0  0  0  0  0  0  0  0  0  0
   87.6938   85.6751  -49.5689 C   0  0  0  0  0  0  0  0  0  0  0  0
   86.2718   85.6977  -49.1141 C   0  0  0  0  0  0  0  0  0  0  0  0
   86.2741   86.1013  -47.7588 O   0  0  0  0  0  0  0  0  0  0  0  0
   86.5533   87.4704  -47.8069 C   0  0  0  0  0  0  0  0  0  0  0  0
   87.9772   87.6561  -48.1943 C   0  0  0  0  0  0  0  0  0  0  0  0
   90.7783   92.1537  -48.3676 C   0  0  0  0  0  0  0  0  0  0  0  0
   91.1370   92.4208  -46.9558 C   0  0  0  0  0  0  0  0  0  0  0  0
   91.6273   91.5018  -46.1028 N   0  0  0  0  0  0  0  0  0  0  0  0
   91.8291   92.0706  -44.9528 O   0  0  0  0  0  0  0  0  0  0  0  0
   91.4971   93.3320  -44.9916 C   0  0  0  0  0  0  0  0  0  0  0  0
   91.0640   93.5550  -46.2430 N   0  0  0  0  0  0  0  0  0  0  0  0
   91.5973   94.2702  -43.8725 C   0  0  0  0  0  0  0  0  0  0  0  0
   91.5254   95.6354  -44.0547 C   0  0  0  0  0  0  0  0  0  0  0  0
   91.6221   96.5157  -42.9794 C   0  0  0  0  0  0  0  0  0  0  0  0
   91.7923   96.0507  -41.6947 C   0  0  0  0  0  0  0  0  0  0  0  0
   91.8641   94.6871  -41.5093 C   0  0  0  0  0  0  0  0  0  0  0  0
   91.7675   93.8064  -42.5897 C   0  0  0  0  0  0  0  0  0  0  0  0
   91.5204   98.4053  -43.2543 Br  0  0  0  0  0  0  0  0  0  0  0  0
  6  7  2  0  0  0
  6  8  2  0  0  0
  6  9  1  0  0  0
  6  1  1  0  0  0
  9 10  1  0  0  0
  9 14  1  0  0  0
 10 11  1  0  0  0
 11 12  1  0  0  0
 12 13  1  0  0  0
 13 14  1  0  0  0
  1  2  1  0  0  0
  1  5  2  0  0  0
  2  3  2  0  0  0
  3  4  1  0  0  0
  4  5  1  0  0  0
  4 15  1  0  0  0
 15 16  1  0  0  0
 16 17  2  0  0  0
 16 20  1  0  0  0
 17 18  1  0  0  0
 18 19  1  0  0  0
 19 20  2  0  0  0
 19 21  1  0  0  0
 21 22  2  0  0  0
 21 26  1  0  0  0
 22 23  1  0  0  0
 23 24  2  0  0  0
 23 27  1  0  0  0
 24 25  1  0  0  0
 25 26  2  0  0  0
M  END
> <minimizedAffinity>
-7.28532

$$$$
1130


 29 32  0  0  0  0  0  0  0  0999 V2000
   90.8627   99.4776  -44.2587 C   0  0  0  0  0  0  0  0  0  0  0  0
   90.6884   98.9837  -45.4966 N   0  0  0  0  0  0  0  0  0  0  0  0
   90.8179   97.7027  -45.8023 N   0  0  0  0  0  0  0  0  0  0  0  0
   91.1432   96.7936  -44.8587 C   0  0  0  0  0  0  0  0  0  0  0  0
   91.3279   97.2775  -43.5796 C   0  0  0  0  0  0  0  0  0  0  0  0
   91.6388   96.2038  -42.8261 N   0  0  0  0  0  0  0  0  0  0  0  0
   91.6572   95.0823  -43.5645 C   0  0  0  0  0  0  0  0  0  0  0  0
   91.3469   95.4239  -44.8632 C   0  0  0  0  0  0  0  0  0  0  0  0
   91.2791   94.4919  -45.8877 C   0  0  0  0  0  0  0  0  0  0  0  0
   91.5419   93.1751  -45.5534 C   0  0  0  0  0  0  0  0  0  0  0  0
   91.8565   92.8062  -44.2615 C   0  0  0  0  0  0  0  0  0  0  0  0
   91.9173   93.7465  -43.2615 C   0  0  0  0  0  0  0  0  0  0  0  0
   91.4492   91.8894  -46.9669 Br  0  0  0  0  0  0  0  0  0  0  0  0
   91.9119   96.2882  -41.4049 C   0  0  0  0  0  0  0  0  0  0  0  0
   91.1886   98.6053  -43.2897 N   0  0  0  0  0  0  0  0  0  0  0  0
   90.6683  101.2395  -43.9182 S   0  0  0  0  0  0  0  0  0  0  0  0
   92.1194  102.1029  -44.5781 C   0  0  0  0  0  0  0  0  0  0  0  0
   92.9387  102.5924  -43.4321 C   0  0  0  0  0  0  0  0  0  0  0  0
   92.6079  103.6421  -42.7942 O   0  0  0  0  0  0  0  0  0  0  0  0
   94.1037  101.9161  -43.0146 N   0  0  0  0  0  0  0  0  0  0  0  0
   94.3879  101.0545  -43.5282 H   0  0  0  0  0  0  0  0  0  0  0  0
   94.8798  102.3814  -41.9257 C   0  0  0  0  0  0  0  0  0  0  0  0
   95.8160  103.3447  -41.9267 N   0  0  0  0  0  0  0  0  0  0  0  0
   96.3167  103.4942  -40.7313 O   0  0  0  0  0  0  0  0  0  0  0  0
   95.7278  102.6505  -39.9538 N   0  0  0  0  0  0  0  0  0  0  0  0
   94.8216  101.9196  -40.6154 C   0  0  0  0  0  0  0  0  0  0  0  0
   94.0002  100.9080  -40.0727 N   0  0  0  0  0  0  0  0  0  0  0  0
   93.0527  100.7565  -40.4664 H   0  0  0  0  0  0  0  0  0  0  0  0
   94.3046  100.2987  -39.2866 H   0  0  0  0  0  0  0  0  0  0  0  0
 16 17  1  0  0  0
 16  1  1  0  0  0
 17 18  1  0  0  0
 18 19  2  0  0  0
 18 20  1  0  0  0
 20 22  1  0  0  0
 22 23  2  0  0  0
 22 26  1  0  0  0
 23 24  1  0  0  0
 24 25  1  0  0  0
 25 26  2  0  0  0
 26 27  1  0  0  0
  1  2  2  0  0  0
  1 15  1  0  0  0
  2  3  1  0  0  0
  3  4  2  0  0  0
  4  5  1  0  0  0
  4  8  1  0  0  0
  5  6  1  0  0  0
  5 15  2  0  0  0
  6  7  1  0  0  0
  6 14  1  0  0  0
  7  8  2  0  0  0
  7 12  1  0  0  0
  8  9  1  0  0  0
  9 10  2  0  0  0
 10 11  1  0  0  0
 10 13  1  0  0  0
 11 12  2  0  0  0
 20 21  1  0  0  0
 27 28  1  0  0  0
 27 29  1  0  0  0
M  END
> <minimizedAffinity>
-7.73638

$$$$
1133


 35 38  0  0  0  0  0  0  0  0999 V2000
   88.4099   97.9914  -45.0225 C   0  0  0  0  0  0  0  0  0  0  0  0
   88.2182   99.1223  -44.3433 N   0  0  0  0  0  0  0  0  0  0  0  0
   86.8874   99.1977  -44.0764 C   0  0  0  0  0  0  0  0  0  0  0  0
   86.0397  100.0728  -43.5140 N   0  0  0  0  0  0  0  0  0  0  0  0
   84.7122   99.9353  -43.4309 C   0  0  0  0  0  0  0  0  0  0  0  0
   84.1485   98.7829  -43.9617 N   0  0  0  0  0  0  0  0  0  0  0  0
   84.8979   97.8726  -44.5318 C   0  0  0  0  0  0  0  0  0  0  0  0
   86.2657   98.0381  -44.6145 C   0  0  0  0  0  0  0  0  0  0  0  0
   87.2457   97.3453  -45.1815 N   0  0  0  0  0  0  0  0  0  0  0  0
   84.3935   96.7123  -45.0634 O   0  0  0  0  0  0  0  0  0  0  0  0
   83.8161  100.9061  -42.8688 N   0  0  0  0  0  0  0  0  0  0  0  0
   84.5688   95.7921  -44.6760 H   0  0  0  0  0  0  0  0  0  0  0  0
   83.3000  100.8302  -41.9950 H   0  0  0  0  0  0  0  0  0  0  0  0
   83.6410  101.7964  -43.4527 H   0  0  0  0  0  0  0  0  0  0  0  0
   89.1477  100.1065  -43.8912 C   0  0  0  0  0  0  0  0  0  0  0  0
   90.3175  100.1967  -44.6776 O   0  0  0  0  0  0  0  0  0  0  0  0
   91.0581  101.0913  -43.8713 C   0  0  0  0  0  0  0  0  0  0  0  0
   91.0859  100.2312  -42.5808 C   0  0  0  0  0  0  0  0  0  0  0  0
   89.5708  100.0220  -42.4601 C   0  0  0  0  0  0  0  0  0  0  0  0
   89.0713  101.1169  -41.7092 O   0  0  0  0  0  0  0  0  0  0  0  0
   91.6221  100.9009  -41.5146 O   0  0  0  0  0  0  0  0  0  0  0  0
   89.2562  100.8709  -40.7755 H   0  0  0  0  0  0  0  0  0  0  0  0
   92.2041  100.2991  -40.9915 H   0  0  0  0  0  0  0  0  0  0  0  0
   92.4153  101.3453  -44.4079 C   0  0  0  0  0  0  0  0  0  0  0  0
   93.3185  100.3794  -43.9473 O   0  0  0  0  0  0  0  0  0  0  0  0
   92.8384   99.8374  -43.2486 H   0  0  0  0  0  0  0  0  0  0  0  0
   89.9666   97.4298  -45.7254 S   0  0  0  0  0  0  0  0  0  0  0  0
   91.0594   96.7466  -44.4035 C   0  0  0  0  0  0  0  0  0  0  0  0
   91.2369   95.2914  -44.6110 C   0  0  0  0  0  0  0  0  0  0  0  0
   91.7301   94.4286  -43.6631 C   0  0  0  0  0  0  0  0  0  0  0  0
   92.0035   93.1335  -43.9369 C   0  0  0  0  0  0  0  0  0  0  0  0
   91.7910   92.5975  -45.2018 C   0  0  0  0  0  0  0  0  0  0  0  0
   91.2910   93.4514  -46.1947 C   0  0  0  0  0  0  0  0  0  0  0  0
   91.0191   94.7738  -45.9022 C   0  0  0  0  0  0  0  0  0  0  0  0
   91.8785   95.1357  -41.8922 Br  0  0  0  0  0  0  0  0  0  0  0  0
 27 28  1  0  0  0
 27  1  1  0  0  0
 28 29  1  0  0  0
 29 30  2  0  0  0
 29 34  1  0  0  0
 30 31  1  0  0  0
 30 35  1  0  0  0
 31 32  2  0  0  0
 32 33  1  0  0  0
 33 34  2  0  0  0
  1  2  1  0  0  0
  1  9  2  0  0  0
  2  3  1  0  0  0
  2 15  1  0  0  0
  3  4  2  0  0  0
  3  8  1  0  0  0
  4  5  1  0  0  0
  5  6  2  0  0  0
  5 11  1  0  0  0
  6  7  1  0  0  0
  7  8  2  0  0  0
  7 10  1  0  0  0
  8  9  1  0  0  0
 15 16  1  0  0  0
 15 19  1  0  0  0
 16 17  1  0  0  0
 17 18  1  0  0  0
 17 24  1  0  0  0
 18 19  1  0  0  0
 18 21  1  0  0  0
 19 20  1  0  0  0
 24 25  1  0  0  0
 10 12  1  0  0  0
 11 13  1  0  0  0
 11 14  1  0  0  0
 20 22  1  0  0  0
 21 23  1  0  0  0
 25 26  1  0  0  0
M  END
> <minimizedAffinity>
-7.07127

$$$$
1143


 33 37  0  0  0  0  0  0  0  0999 V2000
   89.8331   99.1378  -44.4026 C   0  0  0  0  0  0  0  0  0  0  0  0
   89.3092  100.2321  -43.5968 N   0  0  0  0  0  0  0  0  0  0  0  0
   88.0839   99.8205  -42.9335 C   0  0  0  0  0  0  0  0  0  0  0  0
   87.4938   98.5416  -43.4678 C   0  0  0  0  0  0  0  0  0  0  0  0
   87.5922   98.5746  -44.9707 C   0  0  0  0  0  0  0  0  0  0  0  0
   88.8702   98.9237  -45.4688 C   0  0  0  0  0  0  0  0  0  0  0  0
   89.0618   99.0069  -46.8200 C   0  0  0  0  0  0  0  0  0  0  0  0
   87.9749   98.7363  -47.6483 C   0  0  0  0  0  0  0  0  0  0  0  0
   86.7431   98.3972  -47.1404 C   0  0  0  0  0  0  0  0  0  0  0  0
   86.5331   98.3108  -45.7767 C   0  0  0  0  0  0  0  0  0  0  0  0
   85.8788   98.1901  -48.1956 O   0  0  0  0  0  0  0  0  0  0  0  0
   86.4784   98.6760  -49.3714 C   0  0  0  0  0  0  0  0  0  0  0  0
   87.8585   98.7367  -49.0118 O   0  0  0  0  0  0  0  0  0  0  0  0
   89.0525  101.4334  -44.3139 C   0  0  0  0  0  0  0  0  0  0  0  0
   90.0162  100.4218  -42.8560 H   0  0  0  0  0  0  0  0  0  0  0  0
   91.3912   95.7082  -41.6210 S   0  0  0  0  0  0  0  0  0  0  0  0
   91.6300   97.0593  -42.7648 C   0  0  0  0  0  0  0  0  0  0  0  0
   91.6967   98.2827  -42.3827 N   0  0  0  0  0  0  0  0  0  0  0  0
   91.8849   99.4035  -43.2303 C   0  0  0  0  0  0  0  0  0  0  0  0
   92.4827  100.4315  -42.9012 O   0  0  0  0  0  0  0  0  0  0  0  0
   91.2680   99.2339  -44.6359 C   0  0  0  0  0  0  0  0  0  0  0  0
   91.9335   97.9640  -45.0578 C   0  0  0  0  0  0  0  0  0  0  0  0
   92.6136   97.8002  -46.0724 O   0  0  0  0  0  0  0  0  0  0  0  0
   91.7536   96.8538  -44.1910 N   0  0  0  0  0  0  0  0  0  0  0  0
   91.7018   95.5645  -44.7290 C   0  0  0  0  0  0  0  0  0  0  0  0
   90.8162   95.3411  -45.7904 C   0  0  0  0  0  0  0  0  0  0  0  0
   90.7100   94.0966  -46.3730 C   0  0  0  0  0  0  0  0  0  0  0  0
   91.4951   93.0519  -45.8954 C   0  0  0  0  0  0  0  0  0  0  0  0
   92.3785   93.2854  -44.8335 C   0  0  0  0  0  0  0  0  0  0  0  0
   92.4710   94.5335  -44.2651 C   0  0  0  0  0  0  0  0  0  0  0  0
   91.3801   91.3327  -46.6652 Br  0  0  0  0  0  0  0  0  0  0  0  0
   90.2911   99.3532  -47.3630 O   0  0  0  0  0  0  0  0  0  0  0  0
   90.4763  100.6765  -47.8538 C   0  0  0  0  0  0  0  0  0  0  0  0
 16 17  1  0  0  0
 17 18  2  0  0  0
 17 24  1  0  0  0
 18 19  1  0  0  0
 19 20  2  0  0  0
 19 21  1  0  0  0
 21 22  1  0  0  0
 21  1  1  0  0  0
 22 23  2  0  0  0
 22 24  1  0  0  0
 24 25  1  0  0  0
 25 26  2  0  0  0
 25 30  1  0  0  0
 26 27  1  0  0  0
 27 28  2  0  0  0
 28 29  1  0  0  0
 28 31  1  0  0  0
 29 30  2  0  0  0
  1  2  1  0  0  0
  1  6  1  0  0  0
  2  3  1  0  0  0
  2 14  1  0  0  0
  3  4  1  0  0  0
  4  5  1  0  0  0
  5  6  2  0  0  0
  5 10  1  0  0  0
  6  7  1  0  0  0
  7  8  2  0  0  0
  7 32  1  0  0  0
  8  9  1  0  0  0
  8 13  1  0  0  0
  9 10  2  0  0  0
  9 11  1  0  0  0
 11 12  1  0  0  0
 12 13  1  0  0  0
 32 33  1  0  0  0
  2 15  1  0  0  0
M  CHG 1   2   1
M  END
> <minimizedAffinity>
-6.47457

$$$$
1151


 24 27  0  0  0  0  0  0  0  0999 V2000
   92.0064  102.9546  -40.7662 S   0  0  0  0  0  0  0  0  0  0  0  0
   91.9800  104.4408  -40.9750 O   0  0  0  0  0  0  0  0  0  0  0  0
   91.8568  102.5922  -39.3149 O   0  0  0  0  0  0  0  0  0  0  0  0
   90.7487  102.1419  -41.7283 C   0  0  0  0  0  0  0  0  0  0  0  0
   91.2528  100.7330  -41.9647 C   0  0  0  0  0  0  0  0  0  0  0  0
   92.3737  100.7873  -42.8814 N   0  0  0  0  0  0  0  0  0  0  0  0
   93.3285  101.8737  -42.8141 C   0  0  0  0  0  0  0  0  0  0  0  0
   93.5612  102.2673  -41.3540 C   0  0  0  0  0  0  0  0  0  0  0  0
   92.2361   99.6365  -43.7049 C   0  0  0  0  0  0  0  0  0  0  0  0
   93.1313   99.1567  -44.4800 O   0  0  0  0  0  0  0  0  0  0  0  0
   90.9438   99.0635  -43.5563 N   0  0  0  0  0  0  0  0  0  0  0  0
   90.2567   99.8779  -42.6180 C   0  0  0  0  0  0  0  0  0  0  0  0
   89.0140   99.8811  -42.3748 O   0  0  0  0  0  0  0  0  0  0  0  0
   90.4039   97.8846  -44.2169 C   0  0  0  0  0  0  0  0  0  0  0  0
   90.7098   97.8996  -45.7045 C   0  0  0  0  0  0  0  0  0  0  0  0
   90.0098   96.6704  -46.2881 C   0  0  0  0  0  0  0  0  0  0  0  0
   90.6793   95.5451  -45.7483 O   0  0  0  0  0  0  0  0  0  0  0  0
   91.1222   95.5472  -44.4304 C   0  0  0  0  0  0  0  0  0  0  0  0
   91.0077   96.6635  -43.6517 C   0  0  0  0  0  0  0  0  0  0  0  0
   91.4434   96.6661  -42.3558 C   0  0  0  0  0  0  0  0  0  0  0  0
   92.0035   95.5194  -41.8462 C   0  0  0  0  0  0  0  0  0  0  0  0
   92.1116   94.4057  -42.6401 C   0  0  0  0  0  0  0  0  0  0  0  0
   91.6812   94.3711  -43.9542 C   0  0  0  0  0  0  0  0  0  0  0  0
   91.8372   92.8212  -45.0435 Br  0  0  0  0  0  0  0  0  0  0  0  0
  1  2  2  0  0  0
  1  3  2  0  0  0
  1  4  1  0  0  0
  1  8  1  0  0  0
  4  5  1  0  0  0
  5  6  1  0  0  0
  5 12  1  0  0  0
  6  7  1  0  0  0
  6  9  1  0  0  0
  7  8  1  0  0  0
  9 10  2  0  0  0
  9 11  1  0  0  0
 11 12  1  0  0  0
 11 14  1  0  0  0
 12 13  2  0  0  0
 14 15  1  0  0  0
 14 19  1  0  0  0
 15 16  1  0  0  0
 16 17  1  0  0  0
 17 18  1  0  0  0
 18 19  2  0  0  0
 18 23  1  0  0  0
 19 20  1  0  0  0
 20 21  2  0  0  0
 21 22  1  0  0  0
 22 23  2  0  0  0
 23 24  1  0  0  0
M  END
> <minimizedAffinity>
-6.16813

$$$$
1157


 24 27  0  0  0  0  0  0  0  0999 V2000
   90.3967   99.8148  -44.3077 C   0  0  0  0  0  0  0  0  0  0  0  0
   89.8514   98.4333  -44.0498 C   0  0  0  0  0  0  0  0  0  0  0  0
   91.0559   97.6209  -44.1354 N   0  0  0  0  0  0  0  0  0  0  0  0
   91.7349   98.0739  -45.3260 C   0  0  0  0  0  0  0  0  0  0  0  0
   91.3687   99.5420  -45.4356 C   0  0  0  0  0  0  0  0  0  0  0  0
   91.4359   96.5979  -43.2012 C   0  0  0  0  0  0  0  0  0  0  0  0
   91.6838   96.8918  -41.9110 N   0  0  0  0  0  0  0  0  0  0  0  0
   92.0386   95.9130  -41.0605 C   0  0  0  0  0  0  0  0  0  0  0  0
   92.1599   94.6074  -41.4618 C   0  0  0  0  0  0  0  0  0  0  0  0
   91.9153   94.2970  -42.7462 N   0  0  0  0  0  0  0  0  0  0  0  0
   91.5609   95.2859  -43.5901 C   0  0  0  0  0  0  0  0  0  0  0  0
   91.3869   94.6788  -44.7800 N   0  0  0  0  0  0  0  0  0  0  0  0
   91.6189   93.3803  -44.6898 N   0  0  0  0  0  0  0  0  0  0  0  0
   91.9537   93.1196  -43.4149 C   0  0  0  0  0  0  0  0  0  0  0  0
   90.6217  101.1846  -42.2189 C   0  0  0  0  0  0  0  0  0  0  0  0
   89.4358  101.5950  -42.2660 O   0  0  0  0  0  0  0  0  0  0  0  0
   91.1738  100.3086  -43.1804 N   0  0  0  0  0  0  0  0  0  0  0  0
   92.1698  100.0185  -43.0629 H   0  0  0  0  0  0  0  0  0  0  0  0
   93.1165  101.6281  -40.8419 S   0  0  0  0  0  0  0  0  0  0  0  0
   91.4281  101.6770  -41.0788 C   0  0  0  0  0  0  0  0  0  0  0  0
   90.9804  102.2944  -39.9399 C   0  0  0  0  0  0  0  0  0  0  0  0
   91.8900  102.6591  -39.0337 C   0  0  0  0  0  0  0  0  0  0  0  0
   93.2032  102.3849  -39.3176 C   0  0  0  0  0  0  0  0  0  0  0  0
   91.4534  103.5423  -37.3627 Br  0  0  0  0  0  0  0  0  0  0  0  0
 19 20  1  0  0  0
 19 23  1  0  0  0
 20 21  2  0  0  0
 20 15  1  0  0  0
 21 22  1  0  0  0
 22 23  2  0  0  0
 22 24  1  0  0  0
 15 16  2  0  0  0
 15 17  1  0  0  0
 17  1  1  0  0  0
  1  2  1  0  0  0
  1  5  1  0  0  0
  2  3  1  0  0  0
  3  4  1  0  0  0
  3  6  1  0  0  0
  4  5  1  0  0  0
  6  7  2  0  0  0
  6 11  1  0  0  0
  7  8  1  0  0  0
  8  9  2  0  0  0
  9 10  1  0  0  0
 10 11  1  0  0  0
 10 14  1  0  0  0
 11 12  2  0  0  0
 12 13  1  0  0  0
 13 14  2  0  0  0
 17 18  1  0  0  0
M  END
> <minimizedAffinity>
-5.94335

$$$$
1160


 25 28  0  0  0  0  0  0  0  0999 V2000
   91.5916   92.5552  -45.8807 C   0  0  0  0  0  0  0  0  0  0  0  0
   91.0551   93.7608  -46.1427 N   0  0  0  0  0  0  0  0  0  0  0  0
   91.4092   94.6429  -45.1922 C   0  0  0  0  0  0  0  0  0  0  0  0
   92.1780   93.9447  -44.3397 N   0  0  0  0  0  0  0  0  0  0  0  0
   92.2722   92.7065  -44.7694 O   0  0  0  0  0  0  0  0  0  0  0  0
   91.0518   96.0573  -45.0832 C   0  0  0  0  0  0  0  0  0  0  0  0
   91.0039   96.7786  -43.9504 N   0  0  0  0  0  0  0  0  0  0  0  0
   90.6395   98.0362  -44.2226 N   0  0  0  0  0  0  0  0  0  0  0  0
   90.4466   98.1368  -45.5570 C   0  0  0  0  0  0  0  0  0  0  0  0
   90.7050   96.9082  -46.0629 N   0  0  0  0  0  0  0  0  0  0  0  0
   90.4774   99.1132  -43.2604 C   0  0  0  0  0  0  0  0  0  0  0  0
   91.7811   99.3647  -42.6101 C   0  0  0  0  0  0  0  0  0  0  0  0
   92.3746  100.4385  -42.8516 O   0  0  0  0  0  0  0  0  0  0  0  0
   92.3332   98.4014  -41.7338 N   0  0  0  0  0  0  0  0  0  0  0  0
   92.7802   98.6762  -40.8161 H   0  0  0  0  0  0  0  0  0  0  0  0
   92.3373   97.3704  -41.9262 H   0  0  0  0  0  0  0  0  0  0  0  0
   91.7562   91.4835  -48.1774 C   0  0  0  0  0  0  0  0  0  0  0  0
   91.4476   91.2915  -46.6860 C   0  0  0  0  0  0  0  0  0  0  0  0
   92.6454   90.6955  -47.3213 C   0  0  0  0  0  0  0  0  0  0  0  0
   89.0007   90.1184  -50.5731 S   0  0  0  0  0  0  0  0  0  0  0  0
   89.9657   88.8096  -50.0809 C   0  0  0  0  0  0  0  0  0  0  0  0
   90.8924   89.3891  -49.2545 C   0  0  0  0  0  0  0  0  0  0  0  0
   90.7933   90.7260  -49.0735 C   0  0  0  0  0  0  0  0  0  0  0  0
   89.7823   91.3710  -49.7281 C   0  0  0  0  0  0  0  0  0  0  0  0
   89.8272   86.9411  -50.5472 Br  0  0  0  0  0  0  0  0  0  0  0  0
 20 21  1  0  0  0
 20 24  1  0  0  0
 21 22  2  0  0  0
 21 25  1  0  0  0
 22 23  1  0  0  0
 23 24  2  0  0  0
 23 17  1  0  0  0
 17 18  1  0  0  0
 17 19  1  0  0  0
 18 19  1  0  0  0
 18  1  1  0  0  0
  1  2  2  0  0  0
  1  5  1  0  0  0
  2  3  1  0  0  0
  3  4  2  0  0  0
  3  6  1  0  0  0
  4  5  1  0  0  0
  6  7  2  0  0  0
  6 10  1  0  0  0
  7  8  1  0  0  0
  8  9  1  0  0  0
  8 11  1  0  0  0
  9 10  2  0  0  0
 11 12  1  0  0  0
 12 13  2  0  0  0
 12 14  1  0  0  0
 14 15  1  0  0  0
 14 16  1  0  0  0
M  END
> <minimizedAffinity>
-6.73391

$$$$
1161


 29 32  0  0  0  0  0  0  0  0999 V2000
   91.0941   98.9919  -44.1806 N   0  0  0  0  0  0  0  0  0  0  0  0
   89.8941   99.4412  -43.7421 C   0  0  0  0  0  0  0  0  0  0  0  0
   90.0477  100.6553  -43.1443 C   0  0  0  0  0  0  0  0  0  0  0  0
   88.9561  101.3202  -42.6159 C   0  0  0  0  0  0  0  0  0  0  0  0
   87.7125  100.7377  -42.7028 C   0  0  0  0  0  0  0  0  0  0  0  0
   87.5311   99.5167  -43.3004 C   0  0  0  0  0  0  0  0  0  0  0  0
   88.6386   98.8810  -43.8162 C   0  0  0  0  0  0  0  0  0  0  0  0
   91.3489  100.9533  -43.2128 N   0  0  0  0  0  0  0  0  0  0  0  0
   91.9863   99.9291  -43.8491 C   0  0  0  0  0  0  0  0  0  0  0  0
   93.2537   99.9708  -44.0308 N   0  0  0  0  0  0  0  0  0  0  0  0
   93.8607   99.2838  -44.4741 H   0  0  0  0  0  0  0  0  0  0  0  0
   91.2946   97.7377  -44.8622 C   0  0  0  0  0  0  0  0  0  0  0  0
   91.4342   96.6068  -43.9124 C   0  0  0  0  0  0  0  0  0  0  0  0
   91.4846   96.8041  -42.6733 O   0  0  0  0  0  0  0  0  0  0  0  0
   91.2532   94.5514  -45.9258 S   0  0  0  0  0  0  0  0  0  0  0  0
   91.5444   92.9112  -45.5886 C   0  0  0  0  0  0  0  0  0  0  0  0
   91.8466   92.9257  -44.2550 C   0  0  0  0  0  0  0  0  0  0  0  0
   91.8355   94.1045  -43.6293 C   0  0  0  0  0  0  0  0  0  0  0  0
   91.5211   95.2157  -44.3706 C   0  0  0  0  0  0  0  0  0  0  0  0
   91.4637   91.4375  -46.7969 Br  0  0  0  0  0  0  0  0  0  0  0  0
   91.9466  102.1783  -42.7002 C   0  0  0  0  0  0  0  0  0  0  0  0
   92.3939  101.9230  -41.2528 C   0  0  0  0  0  0  0  0  0  0  0  0
   93.7660  101.5112  -41.1796 N   0  0  0  0  0  0  0  0  0  0  0  0
   94.7105  102.5278  -41.5972 C   0  0  0  0  0  0  0  0  0  0  0  0
   94.4810  103.8336  -40.8903 C   0  0  0  0  0  0  0  0  0  0  0  0
   94.3289  103.6884  -39.4135 C   0  0  0  0  0  0  0  0  0  0  0  0
   93.8036  102.3813  -38.9384 C   0  0  0  0  0  0  0  0  0  0  0  0
   94.0787  101.2043  -39.8050 C   0  0  0  0  0  0  0  0  0  0  0  0
   93.9351  100.6925  -41.8033 H   0  0  0  0  0  0  0  0  0  0  0  0
 15 16  1  0  0  0
 15 19  1  0  0  0
 16 17  2  0  0  0
 16 20  1  0  0  0
 17 18  1  0  0  0
 18 19  2  0  0  0
 19 13  1  0  0  0
 13 14  2  0  0  0
 13 12  1  0  0  0
 12  1  1  0  0  0
  1  2  1  0  0  0
  1  9  1  0  0  0
  2  3  1  0  0  0
  2  7  2  0  0  0
  3  4  2  0  0  0
  3  8  1  0  0  0
  4  5  1  0  0  0
  5  6  2  0  0  0
  6  7  1  0  0  0
  8  9  1  0  0  0
  8 21  1  0  0  0
  9 10  2  0  0  0
 21 22  1  0  0  0
 22 23  1  0  0  0
 23 24  1  0  0  0
 23 28  1  0  0  0
 24 25  1  0  0  0
 25 26  1  0  0  0
 26 27  1  0  0  0
 27 28  1  0  0  0
 10 11  1  0  0  0
 23 29  1  0  0  0
M  CHG 1  23   1
M  END
> <minimizedAffinity>
-6.46388

$$$$
1177


 33 36  0  0  0  0  0  0  0  0999 V2000
   89.5551   97.9829  -45.2681 C   0  0  0  0  0  0  0  0  0  0  0  0
   90.1518   99.1080  -45.6120 C   0  0  0  0  0  0  0  0  0  0  0  0
   89.5408  100.4637  -45.8134 C   0  0  0  0  0  0  0  0  0  0  0  0
   90.5734  101.3658  -45.4090 N   0  0  0  0  0  0  0  0  0  0  0  0
   91.8052  100.7051  -45.8125 C   0  0  0  0  0  0  0  0  0  0  0  0
   92.8856  101.3277  -45.9994 O   0  0  0  0  0  0  0  0  0  0  0  0
   91.5591   99.2807  -45.9481 C   0  0  0  0  0  0  0  0  0  0  0  0
   92.3917   98.3763  -46.2895 O   0  0  0  0  0  0  0  0  0  0  0  0
   88.1575   97.9888  -45.0543 O   0  0  0  0  0  0  0  0  0  0  0  0
   90.2996   95.3939  -46.1606 S   0  0  0  0  0  0  0  0  0  0  0  0
   91.3503   94.3716  -45.2886 C   0  0  0  0  0  0  0  0  0  0  0  0
   91.6551   95.1133  -44.2406 N   0  0  0  0  0  0  0  0  0  0  0  0
   91.1529   96.3066  -44.1179 C   0  0  0  0  0  0  0  0  0  0  0  0
   90.3136   96.7442  -45.1087 C   0  0  0  0  0  0  0  0  0  0  0  0
   91.4747   97.1412  -42.8849 C   0  0  0  0  0  0  0  0  0  0  0  0
   91.8146   92.9737  -45.6255 C   0  0  0  0  0  0  0  0  0  0  0  0
   88.2484  100.5826  -45.1513 C   0  0  0  0  0  0  0  0  0  0  0  0
   87.1073  100.7063  -45.9595 C   0  0  0  0  0  0  0  0  0  0  0  0
   85.8353  100.8006  -45.4555 C   0  0  0  0  0  0  0  0  0  0  0  0
   85.6420  100.7743  -44.0963 C   0  0  0  0  0  0  0  0  0  0  0  0
   86.7448  100.6520  -43.2652 C   0  0  0  0  0  0  0  0  0  0  0  0
   88.0088  100.5597  -43.8080 C   0  0  0  0  0  0  0  0  0  0  0  0
   84.3000  100.9682  -46.5794 Br  0  0  0  0  0  0  0  0  0  0  0  0
   90.5217  102.6672  -44.8113 C   0  0  0  0  0  0  0  0  0  0  0  0
   90.7129  102.7247  -43.3304 C   0  0  0  0  0  0  0  0  0  0  0  0
   92.1252  103.2202  -42.9830 C   0  0  0  0  0  0  0  0  0  0  0  0
   92.9833  102.0884  -42.8821 N   0  0  0  0  0  0  0  0  0  0  0  0
   94.3154  102.3412  -42.4338 C   0  0  0  0  0  0  0  0  0  0  0  0
   94.4114  102.6018  -40.9493 C   0  0  0  0  0  0  0  0  0  0  0  0
   93.0917  102.5748  -40.4449 O   0  0  0  0  0  0  0  0  0  0  0  0
   92.6799  101.2349  -40.5911 C   0  0  0  0  0  0  0  0  0  0  0  0
   92.4108  101.0322  -42.0678 C   0  0  0  0  0  0  0  0  0  0  0  0
   93.0665  101.6752  -43.8598 H   0  0  0  0  0  0  0  0  0  0  0  0
 10 11  1  0  0  0
 10 14  1  0  0  0
 11 12  2  0  0  0
 11 16  1  0  0  0
 12 13  1  0  0  0
 13 14  2  0  0  0
 13 15  1  0  0  0
 14  1  1  0  0  0
  1  2  2  0  0  0
  1  9  1  0  0  0
  2  3  1  0  0  0
  2  7  1  0  0  0
  3  4  1  0  0  0
  3 17  1  0  0  0
  4  5  1  0  0  0
  4 24  1  0  0  0
  5  6  2  0  0  0
  5  7  1  0  0  0
  7  8  2  0  0  0
 24 25  1  0  0  0
 25 26  1  0  0  0
 26 27  1  0  0  0
 27 28  1  0  0  0
 27 32  1  0  0  0
 28 29  1  0  0  0
 29 30  1  0  0  0
 30 31  1  0  0  0
 31 32  1  0  0  0
 17 18  2  0  0  0
 17 22  1  0  0  0
 18 19  1  0  0  0
 19 20  2  0  0  0
 19 23  1  0  0  0
 20 21  1  0  0  0
 21 22  2  0  0  0
 27 33  1  0  0  0
M  CHG 1   9  -1
M  CHG 1  27   1
M  END
> <minimizedAffinity>
-5.21697

$$$$
1178


 33 36  0  0  0  0  0  0  0  0999 V2000
   89.7015   99.7675  -47.3141 C   0  0  0  0  0  0  0  0  0  0  0  0
   90.5589   99.1813  -46.5319 C   0  0  0  0  0  0  0  0  0  0  0  0
   90.2208   98.1648  -45.4870 C   0  0  0  0  0  0  0  0  0  0  0  0
   91.1988   98.4284  -44.4652 N   0  0  0  0  0  0  0  0  0  0  0  0
   92.3870   98.8162  -45.1683 C   0  0  0  0  0  0  0  0  0  0  0  0
   93.5502   98.7530  -44.7311 O   0  0  0  0  0  0  0  0  0  0  0  0
   92.0107   99.2982  -46.4899 C   0  0  0  0  0  0  0  0  0  0  0  0
   92.7135   99.7314  -47.4434 O   0  0  0  0  0  0  0  0  0  0  0  0
   88.3383   99.4433  -47.2069 O   0  0  0  0  0  0  0  0  0  0  0  0
   90.5019  100.5583  -49.9728 S   0  0  0  0  0  0  0  0  0  0  0  0
   90.8589  102.1766  -50.3672 C   0  0  0  0  0  0  0  0  0  0  0  0
   90.6889  102.7942  -49.2159 N   0  0  0  0  0  0  0  0  0  0  0  0
   90.3329  102.1205  -48.1650 C   0  0  0  0  0  0  0  0  0  0  0  0
   90.1471  100.7668  -48.3099 C   0  0  0  0  0  0  0  0  0  0  0  0
   90.0839  102.8088  -46.8256 C   0  0  0  0  0  0  0  0  0  0  0  0
   91.2672  102.7879  -51.6805 C   0  0  0  0  0  0  0  0  0  0  0  0
   88.8150   98.2828  -45.0725 C   0  0  0  0  0  0  0  0  0  0  0  0
   88.2661   99.2906  -44.3280 C   0  0  0  0  0  0  0  0  0  0  0  0
   86.9424   99.3612  -43.9572 C   0  0  0  0  0  0  0  0  0  0  0  0
   86.0964   98.3567  -44.3536 C   0  0  0  0  0  0  0  0  0  0  0  0
   86.5862   97.3182  -45.1010 C   0  0  0  0  0  0  0  0  0  0  0  0
   87.9150   97.2787  -45.4549 C   0  0  0  0  0  0  0  0  0  0  0  0
   84.2533   98.4591  -43.8368 Br  0  0  0  0  0  0  0  0  0  0  0  0
   90.9837   98.2920  -43.0556 C   0  0  0  0  0  0  0  0  0  0  0  0
   91.6431   97.1397  -42.4205 C   0  0  0  0  0  0  0  0  0  0  0  0
   91.7873   95.9249  -43.1802 C   0  0  0  0  0  0  0  0  0  0  0  0
   91.3929   94.6339  -42.8698 N   0  0  0  0  0  0  0  0  0  0  0  0
   91.7830   94.2838  -41.4536 C   0  0  0  0  0  0  0  0  0  0  0  0
   93.2300   93.9176  -41.4219 C   0  0  0  0  0  0  0  0  0  0  0  0
   93.3669   92.7141  -42.1044 O   0  0  0  0  0  0  0  0  0  0  0  0
   93.1506   93.0305  -43.4645 C   0  0  0  0  0  0  0  0  0  0  0  0
   91.7459   93.5213  -43.6807 C   0  0  0  0  0  0  0  0  0  0  0  0
   90.3486   94.5926  -42.7828 H   0  0  0  0  0  0  0  0  0  0  0  0
 10 11  1  0  0  0
 10 14  1  0  0  0
 11 12  2  0  0  0
 11 16  1  0  0  0
 12 13  1  0  0  0
 13 14  2  0  0  0
 13 15  1  0  0  0
 14  1  1  0  0  0
  1  2  2  0  0  0
  1  9  1  0  0  0
  2  3  1  0  0  0
  2  7  1  0  0  0
  3  4  1  0  0  0
  3 17  1  0  0  0
  4  5  1  0  0  0
  4 24  1  0  0  0
  5  6  2  0  0  0
  5  7  1  0  0  0
  7  8  2  0  0  0
 24 25  1  0  0  0
 25 26  1  0  0  0
 26 27  1  0  0  0
 27 28  1  0  0  0
 27 32  1  0  0  0
 28 29  1  0  0  0
 29 30  1  0  0  0
 30 31  1  0  0  0
 31 32  1  0  0  0
 17 18  2  0  0  0
 17 22  1  0  0  0
 18 19  1  0  0  0
 19 20  2  0  0  0
 20 21  1  0  0  0
 20 23  1  0  0  0
 21 22  2  0  0  0
 27 33  1  0  0  0
M  CHG 1   9  -1
M  CHG 1  27   1
M  END
> <minimizedAffinity>
-5.65016

$$$$
1180


 32 35  0  0  0  0  0  0  0  0999 V2000
   90.0901  100.6431  -42.7900 C   0  0  0  0  0  0  0  0  0  0  0  0
   90.4689  100.0714  -43.9135 C   0  0  0  0  0  0  0  0  0  0  0  0
   89.6514   99.3248  -44.9178 C   0  0  0  0  0  0  0  0  0  0  0  0
   90.4723   98.1999  -45.1479 N   0  0  0  0  0  0  0  0  0  0  0  0
   91.8004   98.8244  -45.3494 C   0  0  0  0  0  0  0  0  0  0  0  0
   92.7413   98.3918  -46.0672 O   0  0  0  0  0  0  0  0  0  0  0  0
   91.7890  100.0396  -44.5422 C   0  0  0  0  0  0  0  0  0  0  0  0
   92.6870  100.9217  -44.3756 O   0  0  0  0  0  0  0  0  0  0  0  0
   88.7618  100.6020  -42.4052 O   0  0  0  0  0  0  0  0  0  0  0  0
   92.2840  100.6044  -40.9201 S   0  0  0  0  0  0  0  0  0  0  0  0
   93.1264  102.0149  -40.4783 C   0  0  0  0  0  0  0  0  0  0  0  0
   92.4970  102.9464  -41.1664 N   0  0  0  0  0  0  0  0  0  0  0  0
   91.5001  102.6303  -41.9329 C   0  0  0  0  0  0  0  0  0  0  0  0
   91.1345  101.3064  -41.9947 C   0  0  0  0  0  0  0  0  0  0  0  0
   90.7890  103.6841  -42.7693 C   0  0  0  0  0  0  0  0  0  0  0  0
   94.2925  102.1675  -39.5393 C   0  0  0  0  0  0  0  0  0  0  0  0
   88.2418   99.2998  -44.7334 C   0  0  0  0  0  0  0  0  0  0  0  0
   87.4701  100.3379  -45.2634 C   0  0  0  0  0  0  0  0  0  0  0  0
   86.1089  100.3995  -45.1163 C   0  0  0  0  0  0  0  0  0  0  0  0
   85.4873   99.3881  -44.4147 C   0  0  0  0  0  0  0  0  0  0  0  0
   86.2309   98.3548  -43.8834 C   0  0  0  0  0  0  0  0  0  0  0  0
   87.5968   98.3148  -44.0438 C   0  0  0  0  0  0  0  0  0  0  0  0
   83.5911   99.3969  -44.1632 Br  0  0  0  0  0  0  0  0  0  0  0  0
   90.3958   96.7876  -45.3072 C   0  0  0  0  0  0  0  0  0  0  0  0
   91.4534   95.9234  -44.7688 C   0  0  0  0  0  0  0  0  0  0  0  0
   91.3589   95.3197  -43.5024 N   0  0  0  0  0  0  0  0  0  0  0  0
   92.2239   94.1749  -43.3108 C   0  0  0  0  0  0  0  0  0  0  0  0
   91.8671   93.5944  -41.9462 C   0  0  0  0  0  0  0  0  0  0  0  0
   91.1412   94.5129  -41.1880 O   0  0  0  0  0  0  0  0  0  0  0  0
   91.9085   95.6953  -41.1918 C   0  0  0  0  0  0  0  0  0  0  0  0
   91.9332   96.3290  -42.5532 C   0  0  0  0  0  0  0  0  0  0  0  0
   90.3860   95.1863  -43.2082 H   0  0  0  0  0  0  0  0  0  0  0  0
 10 11  1  0  0  0
 10 14  1  0  0  0
 11 12  2  0  0  0
 11 16  1  0  0  0
 12 13  1  0  0  0
 13 14  2  0  0  0
 13 15  1  0  0  0
 14  1  1  0  0  0
  1  2  2  0  0  0
  1  9  1  0  0  0
  2  3  1  0  0  0
  2  7  1  0  0  0
  3  4  1  0  0  0
  3 17  1  0  0  0
  4  5  1  0  0  0
  4 24  1  0  0  0
  5  6  2  0  0  0
  5  7  1  0  0  0
  7  8  2  0  0  0
 24 25  1  0  0  0
 25 26  1  0  0  0
 26 27  1  0  0  0
 26 31  1  0  0  0
 27 28  1  0  0  0
 28 29  1  0  0  0
 29 30  1  0  0  0
 30 31  1  0  0  0
 17 18  2  0  0  0
 17 22  1  0  0  0
 18 19  1  0  0  0
 19 20  2  0  0  0
 20 21  1  0  0  0
 20 23  1  0  0  0
 21 22  2  0  0  0
 26 32  1  0  0  0
M  CHG 1   9  -1
M  CHG 1  26   1
M  END
> <minimizedAffinity>
-6.08697

$$$$
1192


 27 30  0  0  0  0  0  0  0  0999 V2000
   89.5492  100.3662  -42.6093 S   0  0  0  0  0  0  0  0  0  0  0  0
   89.9577   99.5272  -44.0515 C   0  0  0  0  0  0  0  0  0  0  0  0
   91.1567  100.0920  -44.3933 C   0  0  0  0  0  0  0  0  0  0  0  0
   91.6410  101.0521  -43.5903 C   0  0  0  0  0  0  0  0  0  0  0  0
   90.8981  101.3909  -42.4916 C   0  0  0  0  0  0  0  0  0  0  0  0
   91.4575  102.4661  -41.6064 C   0  0  0  0  0  0  0  0  0  0  0  0
   92.8107  102.0706  -41.2216 N   0  0  0  0  0  0  0  0  0  0  0  0
   93.6505  101.7653  -42.3382 C   0  0  0  0  0  0  0  0  0  0  0  0
   92.9195  101.8728  -43.6718 C   0  0  0  0  0  0  0  0  0  0  0  0
   92.6554  100.8443  -40.4391 C   0  0  0  0  0  0  0  0  0  0  0  0
   91.7583   99.5437  -45.6406 C   0  0  0  0  0  0  0  0  0  0  0  0
   92.8677   99.9791  -46.0688 O   0  0  0  0  0  0  0  0  0  0  0  0
   91.0654   98.5228  -46.3410 N   0  0  0  0  0  0  0  0  0  0  0  0
   90.0796   97.6602  -45.7584 C   0  0  0  0  0  0  0  0  0  0  0  0
   89.3223   98.4832  -44.8287 N   0  0  0  0  0  0  0  0  0  0  0  0
   93.2157  102.7712  -40.5684 H   0  0  0  0  0  0  0  0  0  0  0  0
   91.3058   98.4044  -47.3663 H   0  0  0  0  0  0  0  0  0  0  0  0
   88.3001   98.3585  -44.6819 H   0  0  0  0  0  0  0  0  0  0  0  0
   90.6775   96.5147  -45.0301 C   0  0  0  0  0  0  0  0  0  0  0  0
   91.0776   96.6165  -43.7136 C   0  0  0  0  0  0  0  0  0  0  0  0
   91.6331   95.5641  -43.0216 C   0  0  0  0  0  0  0  0  0  0  0  0
   91.8086   94.3477  -43.6491 C   0  0  0  0  0  0  0  0  0  0  0  0
   91.4176   94.2226  -44.9607 C   0  0  0  0  0  0  0  0  0  0  0  0
   90.8601   95.2835  -45.6480 C   0  0  0  0  0  0  0  0  0  0  0  0
   91.6797   92.5115  -45.7945 Br  0  0  0  0  0  0  0  0  0  0  0  0
   92.3681   93.2828  -42.9575 O   0  0  0  0  0  0  0  0  0  0  0  0
   92.1783   95.7163  -41.2126 Br  0  0  0  0  0  0  0  0  0  0  0  0
  1  2  1  0  0  0
  1  5  1  0  0  0
  2  3  2  0  0  0
  2 15  1  0  0  0
  3  4  1  0  0  0
  3 11  1  0  0  0
  4  5  2  0  0  0
  4  9  1  0  0  0
  5  6  1  0  0  0
  6  7  1  0  0  0
  7  8  1  0  0  0
  7 10  1  0  0  0
  8  9  1  0  0  0
 11 12  2  0  0  0
 11 13  1  0  0  0
 13 14  1  0  0  0
 14 15  1  0  0  0
 14 19  1  0  0  0
 19 20  2  0  0  0
 19 24  1  0  0  0
 20 21  1  0  0  0
 21 22  2  0  0  0
 21 27  1  0  0  0
 22 23  1  0  0  0
 22 26  1  0  0  0
 23 24  2  0  0  0
 23 25  1  0  0  0
  7 16  1  0  0  0
 13 17  1  0  0  0
 15 18  1  0  0  0
M  CHG 1   7   1
M  CHG 1  26  -1
M  END
> <minimizedAffinity>
-6.67257

$$$$
1193


 29 32  0  0  0  0  0  0  0  0999 V2000
   91.8141  103.8633  -44.1371 S   0  0  0  0  0  0  0  0  0  0  0  0
   91.1377  102.7776  -43.0071 C   0  0  0  0  0  0  0  0  0  0  0  0
   92.2295  102.3364  -42.3127 C   0  0  0  0  0  0  0  0  0  0  0  0
   93.4365  102.8368  -42.6788 C   0  0  0  0  0  0  0  0  0  0  0  0
   93.4498  103.7388  -43.7134 C   0  0  0  0  0  0  0  0  0  0  0  0
   94.7132  104.3586  -44.2108 C   0  0  0  0  0  0  0  0  0  0  0  0
   95.7061  104.5423  -43.2089 N   0  0  0  0  0  0  0  0  0  0  0  0
   95.5072  103.8485  -41.9822 C   0  0  0  0  0  0  0  0  0  0  0  0
   94.8146  102.5259  -42.0828 C   0  0  0  0  0  0  0  0  0  0  0  0
   97.0421  104.3156  -43.7467 C   0  0  0  0  0  0  0  0  0  0  0  0
   91.8967  101.3571  -41.2328 C   0  0  0  0  0  0  0  0  0  0  0  0
   92.8308  100.8715  -40.5155 O   0  0  0  0  0  0  0  0  0  0  0  0
   90.5516  100.9777  -41.0175 N   0  0  0  0  0  0  0  0  0  0  0  0
   89.5912  101.0130  -42.0983 C   0  0  0  0  0  0  0  0  0  0  0  0
   89.7880  102.3219  -42.7202 N   0  0  0  0  0  0  0  0  0  0  0  0
   95.6984  105.5821  -42.9670 H   0  0  0  0  0  0  0  0  0  0  0  0
   90.2434  100.6681  -40.0691 H   0  0  0  0  0  0  0  0  0  0  0  0
   89.0250  102.9684  -42.9807 H   0  0  0  0  0  0  0  0  0  0  0  0
   89.9622   99.9374  -43.0546 C   0  0  0  0  0  0  0  0  0  0  0  0
   89.7565  100.0966  -44.4081 C   0  0  0  0  0  0  0  0  0  0  0  0
   90.0936   99.1115  -45.3110 C   0  0  0  0  0  0  0  0  0  0  0  0
   90.6539   97.9268  -44.8515 C   0  0  0  0  0  0  0  0  0  0  0  0
   90.8708   97.7401  -43.5035 C   0  0  0  0  0  0  0  0  0  0  0  0
   90.5276   98.7309  -42.6379 C   0  0  0  0  0  0  0  0  0  0  0  0
   91.0021   96.9171  -45.7453 O   0  0  0  0  0  0  0  0  0  0  0  0
   89.8153   99.3181  -47.1852 Br  0  0  0  0  0  0  0  0  0  0  0  0
   91.4314   96.5435  -43.0969 O   0  0  0  0  0  0  0  0  0  0  0  0
   91.8322   96.2255  -41.8016 C   0  0  0  0  0  0  0  0  0  0  0  0
   91.8523   94.7290  -41.5784 C   0  0  0  0  0  0  0  0  0  0  0  0
  1  2  1  0  0  0
  1  5  1  0  0  0
  2  3  2  0  0  0
  2 15  1  0  0  0
  3  4  1  0  0  0
  3 11  1  0  0  0
  4  5  2  0  0  0
  4  9  1  0  0  0
  5  6  1  0  0  0
  6  7  1  0  0  0
  7  8  1  0  0  0
  7 10  1  0  0  0
  8  9  1  0  0  0
 11 12  2  0  0  0
 11 13  1  0  0  0
 13 14  1  0  0  0
 14 15  1  0  0  0
 14 19  1  0  0  0
 19 20  2  0  0  0
 19 24  1  0  0  0
 20 21  1  0  0  0
 21 22  2  0  0  0
 21 26  1  0  0  0
 22 23  1  0  0  0
 22 25  1  0  0  0
 23 24  2  0  0  0
 23 27  1  0  0  0
 27 28  1  0  0  0
 28 29  1  0  0  0
  7 16  1  0  0  0
 13 17  1  0  0  0
 15 18  1  0  0  0
M  CHG 1   7   1
M  CHG 1  25  -1
M  END
> <minimizedAffinity>
-5.67218

$$$$
1206


 25 28  0  0  0  0  0  0  0  0999 V2000
   88.6045  100.5841  -42.6893 S   0  0  0  0  0  0  0  0  0  0  0  0
   87.5701   99.7969  -43.9512 C   0  0  0  0  0  0  0  0  0  0  0  0
   88.2245   98.4428  -43.9917 C   0  0  0  0  0  0  0  0  0  0  0  0
   89.6329   98.5157  -43.7466 N   0  0  0  0  0  0  0  0  0  0  0  0
   90.0500   99.6048  -43.0804 C   0  0  0  0  0  0  0  0  0  0  0  0
   91.3802   99.5568  -42.9442 N   0  0  0  0  0  0  0  0  0  0  0  0
   91.8316   98.4238  -43.5271 C   0  0  0  0  0  0  0  0  0  0  0  0
   90.7437   97.7556  -44.0362 C   0  0  0  0  0  0  0  0  0  0  0  0
   87.7617  100.4438  -45.3016 C   0  0  0  0  0  0  0  0  0  0  0  0
   92.2029  100.5218  -42.2990 C   0  0  0  0  0  0  0  0  0  0  0  0
   92.2501  100.6415  -40.9296 C   0  0  0  0  0  0  0  0  0  0  0  0
   93.0386  101.5675  -40.2797 C   0  0  0  0  0  0  0  0  0  0  0  0
   93.8241  102.4258  -41.0170 C   0  0  0  0  0  0  0  0  0  0  0  0
   93.8023  102.3353  -42.3976 C   0  0  0  0  0  0  0  0  0  0  0  0
   93.0047  101.3987  -43.0229 C   0  0  0  0  0  0  0  0  0  0  0  0
   94.9304  103.7241  -40.1503 Br  0  0  0  0  0  0  0  0  0  0  0  0
   90.8168   96.5002  -44.7452 C   0  0  0  0  0  0  0  0  0  0  0  0
   91.5494   95.4556  -44.1552 C   0  0  0  0  0  0  0  0  0  0  0  0
   91.6267   94.2250  -44.7545 C   0  0  0  0  0  0  0  0  0  0  0  0
   91.0085   93.9337  -45.9444 C   0  0  0  0  0  0  0  0  0  0  0  0
   90.2847   94.9388  -46.5422 C   0  0  0  0  0  0  0  0  0  0  0  0
   90.2041   96.1959  -45.9312 C   0  0  0  0  0  0  0  0  0  0  0  0
   91.1375   92.6385  -46.4984 N   0  0  0  0  0  0  0  0  0  0  0  0
   91.7250   91.7422  -45.8823 O   0  0  0  0  0  0  0  0  0  0  0  0
   90.6062   92.3818  -47.7252 O   0  0  0  0  0  0  0  0  0  0  0  0
  1  2  1  0  0  0
  1  5  1  0  0  0
  2  3  1  0  0  0
  2  9  1  0  0  0
  3  4  1  0  0  0
  4  5  1  0  0  0
  4  8  1  0  0  0
  5  6  2  0  0  0
  6  7  1  0  0  0
  6 10  1  0  0  0
  7  8  2  0  0  0
  8 17  1  0  0  0
 17 18  2  0  0  0
 17 22  1  0  0  0
 18 19  1  0  0  0
 19 20  2  0  0  0
 20 21  1  0  0  0
 20 23  1  0  0  0
 21 22  2  0  0  0
 23 24  2  0  0  0
 23 25  1  0  0  0
 10 11  2  0  0  0
 10 15  1  0  0  0
 11 12  1  0  0  0
 12 13  2  0  0  0
 13 14  1  0  0  0
 13 16  1  0  0  0
 14 15  2  0  0  0
M  CHG 1  25  -1
M  END
> <minimizedAffinity>
-6.34925

$$$$
1209


 24 27  0  0  0  0  0  0  0  0999 V2000
   89.8677  101.9637  -42.5750 S   0  0  0  0  0  0  0  0  0  0  0  0
   90.3566  102.6741  -40.9779 C   0  0  0  0  0  0  0  0  0  0  0  0
   91.4152  101.7611  -40.3861 C   0  0  0  0  0  0  0  0  0  0  0  0
   92.4251  101.3762  -41.4471 C   0  0  0  0  0  0  0  0  0  0  0  0
   91.8756  100.2275  -42.1485 N   0  0  0  0  0  0  0  0  0  0  0  0
   90.6784  100.3810  -42.7200 C   0  0  0  0  0  0  0  0  0  0  0  0
   90.3258   99.1959  -43.3310 N   0  0  0  0  0  0  0  0  0  0  0  0
   91.2932   98.3137  -43.1422 C   0  0  0  0  0  0  0  0  0  0  0  0
   92.2608   98.9812  -42.3951 C   0  0  0  0  0  0  0  0  0  0  0  0
   89.0927   99.0477  -44.0309 C   0  0  0  0  0  0  0  0  0  0  0  0
   87.9148   98.7995  -43.3480 C   0  0  0  0  0  0  0  0  0  0  0  0
   86.7002   98.6807  -43.9935 C   0  0  0  0  0  0  0  0  0  0  0  0
   86.6798   98.8162  -45.3675 C   0  0  0  0  0  0  0  0  0  0  0  0
   87.8582   99.0626  -46.0395 C   0  0  0  0  0  0  0  0  0  0  0  0
   89.0806   99.1850  -45.4158 C   0  0  0  0  0  0  0  0  0  0  0  0
   85.0373   98.6657  -46.3529 Br  0  0  0  0  0  0  0  0  0  0  0  0
   91.4209   96.9307  -43.5733 C   0  0  0  0  0  0  0  0  0  0  0  0
   91.6878   95.9374  -42.6198 C   0  0  0  0  0  0  0  0  0  0  0  0
   91.8189   94.6209  -42.9652 C   0  0  0  0  0  0  0  0  0  0  0  0
   91.6994   94.1733  -44.2611 C   0  0  0  0  0  0  0  0  0  0  0  0
   91.4388   95.1369  -45.2010 C   0  0  0  0  0  0  0  0  0  0  0  0
   91.3010   96.4926  -44.8695 C   0  0  0  0  0  0  0  0  0  0  0  0
   91.8385   92.8279  -44.5727 O   0  0  0  0  0  0  0  0  0  0  0  0
   91.4901   92.3529  -45.8598 C   0  0  0  0  0  0  0  0  0  0  0  0
  1  2  1  0  0  0
  1  6  1  0  0  0
  2  3  1  0  0  0
  3  4  1  0  0  0
  4  5  1  0  0  0
  5  6  2  0  0  0
  5  9  1  0  0  0
  6  7  1  0  0  0
  7  8  1  0  0  0
  7 10  1  0  0  0
  8  9  2  0  0  0
  8 17  1  0  0  0
 17 18  2  0  0  0
 17 22  1  0  0  0
 18 19  1  0  0  0
 19 20  2  0  0  0
 20 21  1  0  0  0
 20 23  1  0  0  0
 21 22  2  0  0  0
 23 24  1  0  0  0
 10 11  2  0  0  0
 10 15  1  0  0  0
 11 12  1  0  0  0
 12 13  2  0  0  0
 13 14  1  0  0  0
 13 16  1  0  0  0
 14 15  2  0  0  0
M  END
> <minimizedAffinity>
-6.04667

$$$$
1211


 26 29  0  0  0  0  0  0  0  0999 V2000
   88.4057   99.4394  -42.7595 S   0  0  0  0  0  0  0  0  0  0  0  0
   87.1292  100.4776  -43.5728 C   0  0  0  0  0  0  0  0  0  0  0  0
   87.6533  100.6760  -44.9968 C   0  0  0  0  0  0  0  0  0  0  0  0
   88.9163  101.5268  -44.9106 C   0  0  0  0  0  0  0  0  0  0  0  0
   90.0132  100.6361  -44.6227 N   0  0  0  0  0  0  0  0  0  0  0  0
   89.8947   99.7023  -43.7149 C   0  0  0  0  0  0  0  0  0  0  0  0
   91.1510   98.9747  -43.6797 N   0  0  0  0  0  0  0  0  0  0  0  0
   92.1031  100.0391  -43.9121 C   0  0  0  0  0  0  0  0  0  0  0  0
   91.3560  100.5394  -45.2040 C   0  0  0  0  0  0  0  0  0  0  0  0
   93.3756   99.6511  -44.1880 O   0  0  0  0  0  0  0  0  0  0  0  0
   93.9843  100.4421  -44.0586 H   0  0  0  0  0  0  0  0  0  0  0  0
   91.3228   97.5828  -43.5366 C   0  0  0  0  0  0  0  0  0  0  0  0
   91.6267   97.0873  -42.2449 C   0  0  0  0  0  0  0  0  0  0  0  0
   91.8650   95.7431  -42.0167 C   0  0  0  0  0  0  0  0  0  0  0  0
   91.8177   94.8344  -43.0380 C   0  0  0  0  0  0  0  0  0  0  0  0
   91.5247   95.2861  -44.3079 C   0  0  0  0  0  0  0  0  0  0  0  0
   91.2811   96.6550  -44.5318 C   0  0  0  0  0  0  0  0  0  0  0  0
   92.1593   92.9736  -42.7759 Br  0  0  0  0  0  0  0  0  0  0  0  0
   91.9570  101.0676  -42.8758 C   0  0  0  0  0  0  0  0  0  0  0  0
   91.9791  102.4244  -43.1500 C   0  0  0  0  0  0  0  0  0  0  0  0
   91.8665  103.3484  -42.0998 C   0  0  0  0  0  0  0  0  0  0  0  0
   91.7373  102.9699  -40.8171 C   0  0  0  0  0  0  0  0  0  0  0  0
   91.7081  101.5952  -40.5028 C   0  0  0  0  0  0  0  0  0  0  0  0
   91.8218  100.7166  -41.5661 C   0  0  0  0  0  0  0  0  0  0  0  0
   91.6230  103.8721  -39.7274 O   0  0  0  0  0  0  0  0  0  0  0  0
   91.0687  103.4431  -38.5018 C   0  0  0  0  0  0  0  0  0  0  0  0
  1  2  1  0  0  0
  1  6  1  0  0  0
  2  3  1  0  0  0
  3  4  1  0  0  0
  4  5  1  0  0  0
  5  6  2  0  0  0
  5  9  1  0  0  0
  6  7  1  0  0  0
  7  8  1  0  0  0
  7 12  1  0  0  0
  8  9  1  0  0  0
  8 10  1  0  0  0
  8 19  1  0  0  0
 19 20  2  0  0  0
 19 24  1  0  0  0
 20 21  1  0  0  0
 21 22  2  0  0  0
 22 23  1  0  0  0
 22 25  1  0  0  0
 23 24  2  0  0  0
 25 26  1  0  0  0
 12 13  2  0  0  0
 12 17  1  0  0  0
 13 14  1  0  0  0
 14 15  2  0  0  0
 15 16  1  0  0  0
 15 18  1  0  0  0
 16 17  2  0  0  0
 10 11  1  0  0  0
M  END
> <minimizedAffinity>
-5.90297

$$$$
1217


 28 31  0  0  0  0  0  0  0  0999 V2000
   89.9091  100.1191  -46.5082 S   0  0  0  0  0  0  0  0  0  0  0  0
   91.4348  100.8611  -47.0327 C   0  0  0  0  0  0  0  0  0  0  0  0
   92.6011  100.1193  -46.4112 C   0  0  0  0  0  0  0  0  0  0  0  0
   92.5020  100.2064  -44.8985 C   0  0  0  0  0  0  0  0  0  0  0  0
   91.4635   99.3218  -44.4210 N   0  0  0  0  0  0  0  0  0  0  0  0
   91.4798   98.2592  -43.4688 C   0  0  0  0  0  0  0  0  0  0  0  0
   90.0814   98.4133  -42.8917 C   0  0  0  0  0  0  0  0  0  0  0  0
   89.2969   98.8069  -44.0403 N   0  0  0  0  0  0  0  0  0  0  0  0
   90.0996   99.3674  -44.8764 C   0  0  0  0  0  0  0  0  0  0  0  0
   92.4488   98.4941  -42.4990 O   0  0  0  0  0  0  0  0  0  0  0  0
   92.7434   99.4326  -42.5326 H   0  0  0  0  0  0  0  0  0  0  0  0
   91.5801   96.8981  -44.0308 C   0  0  0  0  0  0  0  0  0  0  0  0
   91.6582   96.5745  -45.3486 C   0  0  0  0  0  0  0  0  0  0  0  0
   91.7130   95.2450  -45.7722 C   0  0  0  0  0  0  0  0  0  0  0  0
   91.6880   94.2049  -44.8668 C   0  0  0  0  0  0  0  0  0  0  0  0
   91.6100   94.5180  -43.5447 C   0  0  0  0  0  0  0  0  0  0  0  0
   91.5564   95.8195  -43.1302 C   0  0  0  0  0  0  0  0  0  0  0  0
   91.7574   92.3838  -45.4642 Br  0  0  0  0  0  0  0  0  0  0  0  0
   87.9094   98.5918  -44.2532 C   0  0  0  0  0  0  0  0  0  0  0  0
   87.0323   99.4865  -43.6544 C   0  0  0  0  0  0  0  0  0  0  0  0
   85.6503   99.3258  -43.7967 C   0  0  0  0  0  0  0  0  0  0  0  0
   85.1564   98.2663  -44.5374 C   0  0  0  0  0  0  0  0  0  0  0  0
   85.9957   97.3626  -45.1440 C   0  0  0  0  0  0  0  0  0  0  0  0
   87.3756   97.5804  -44.9627 C   0  0  0  0  0  0  0  0  0  0  0  0
   85.5648   96.2841  -45.8971 O   0  0  0  0  0  0  0  0  0  0  0  0
   85.4160   96.2596  -47.2880 C   0  0  0  0  0  0  0  0  0  0  0  0
   87.5284  100.5386  -42.9151 O   0  0  0  0  0  0  0  0  0  0  0  0
   87.4247  101.8982  -43.2669 C   0  0  0  0  0  0  0  0  0  0  0  0
  1  2  1  0  0  0
  1  9  1  0  0  0
  2  3  1  0  0  0
  3  4  1  0  0  0
  4  5  1  0  0  0
  5  6  1  0  0  0
  5  9  1  0  0  0
  6  7  1  0  0  0
  6 10  1  0  0  0
  6 12  1  0  0  0
  7  8  1  0  0  0
  8  9  2  0  0  0
  8 19  1  0  0  0
 19 20  2  0  0  0
 19 24  1  0  0  0
 20 21  1  0  0  0
 20 27  1  0  0  0
 21 22  2  0  0  0
 22 23  1  0  0  0
 23 24  2  0  0  0
 23 25  1  0  0  0
 25 26  1  0  0  0
 27 28  1  0  0  0
 12 13  2  0  0  0
 12 17  1  0  0  0
 13 14  1  0  0  0
 14 15  2  0  0  0
 15 16  1  0  0  0
 15 18  1  0  0  0
 16 17  2  0  0  0
 10 11  1  0  0  0
M  END
> <minimizedAffinity>
-5.99835

$$$$
1219


 27 30  0  0  0  0  0  0  0  0999 V2000
   88.3943   99.1985  -43.0938 S   0  0  0  0  0  0  0  0  0  0  0  0
   87.4054   99.9999  -44.4235 C   0  0  0  0  0  0  0  0  0  0  0  0
   88.2682  101.0328  -45.1274 C   0  0  0  0  0  0  0  0  0  0  0  0
   89.0213  101.8786  -44.1336 C   0  0  0  0  0  0  0  0  0  0  0  0
   90.1866  101.1832  -43.6881 N   0  0  0  0  0  0  0  0  0  0  0  0
   91.5777  101.5060  -43.4300 C   0  0  0  0  0  0  0  0  0  0  0  0
   92.2878  100.1884  -43.6859 C   0  0  0  0  0  0  0  0  0  0  0  0
   91.2215   99.2172  -43.3691 N   0  0  0  0  0  0  0  0  0  0  0  0
   90.0810   99.7834  -43.3831 C   0  0  0  0  0  0  0  0  0  0  0  0
   92.0437  102.5189  -44.2446 O   0  0  0  0  0  0  0  0  0  0  0  0
   92.6497  102.2529  -44.9506 H   0  0  0  0  0  0  0  0  0  0  0  0
   91.4520   97.8360  -43.1056 C   0  0  0  0  0  0  0  0  0  0  0  0
   91.7598   97.2864  -41.8960 C   0  0  0  0  0  0  0  0  0  0  0  0
   91.9534   95.9249  -41.7067 C   0  0  0  0  0  0  0  0  0  0  0  0
   91.8356   95.0635  -42.7784 C   0  0  0  0  0  0  0  0  0  0  0  0
   91.5232   95.5885  -44.0271 C   0  0  0  0  0  0  0  0  0  0  0  0
   91.3340   96.9550  -44.1921 C   0  0  0  0  0  0  0  0  0  0  0  0
   92.0893   93.1736  -42.6198 Br  0  0  0  0  0  0  0  0  0  0  0  0
   91.8009  101.8734  -42.0115 C   0  0  0  0  0  0  0  0  0  0  0  0
   93.0533  101.7157  -41.4512 C   0  0  0  0  0  0  0  0  0  0  0  0
   93.2181  102.0748  -40.1134 C   0  0  0  0  0  0  0  0  0  0  0  0
   92.1795  102.5650  -39.3810 C   0  0  0  0  0  0  0  0  0  0  0  0
   90.9205  102.7293  -39.9293 C   0  0  0  0  0  0  0  0  0  0  0  0
   90.7629  102.3670  -41.2724 C   0  0  0  0  0  0  0  0  0  0  0  0
   94.5005  101.9169  -39.5292 N   0  0  0  0  0  0  0  0  0  0  0  0
   94.6819  102.0305  -38.3018 O   0  0  0  0  0  0  0  0  0  0  0  0
   95.5965  101.6314  -40.2930 O   0  0  0  0  0  0  0  0  0  0  0  0
  1  2  1  0  0  0
  1  9  1  0  0  0
  2  3  1  0  0  0
  3  4  1  0  0  0
  4  5  1  0  0  0
  5  6  1  0  0  0
  5  9  1  0  0  0
  6  7  1  0  0  0
  6 10  1  0  0  0
  6 19  1  0  0  0
  7  8  1  0  0  0
  8  9  2  0  0  0
  8 12  1  0  0  0
 12 13  2  0  0  0
 12 17  1  0  0  0
 13 14  1  0  0  0
 14 15  2  0  0  0
 15 16  1  0  0  0
 15 18  1  0  0  0
 16 17  2  0  0  0
 19 20  2  0  0  0
 19 24  1  0  0  0
 20 21  1  0  0  0
 21 22  2  0  0  0
 21 25  1  0  0  0
 22 23  1  0  0  0
 23 24  2  0  0  0
 25 26  2  0  0  0
 25 27  1  0  0  0
 10 11  1  0  0  0
M  CHG 1  27  -1
M  END
> <minimizedAffinity>
-6.44168

$$$$
1220


 27 30  0  0  0  0  0  0  0  0999 V2000
   88.7908  101.7440  -43.1041 S   0  0  0  0  0  0  0  0  0  0  0  0
   87.3063  100.6880  -42.8586 C   0  0  0  0  0  0  0  0  0  0  0  0
   87.5201   99.2802  -43.2267 C   0  0  0  0  0  0  0  0  0  0  0  0
   88.7392   98.8969  -43.9607 C   0  0  0  0  0  0  0  0  0  0  0  0
   89.9796   99.3505  -43.4804 N   0  0  0  0  0  0  0  0  0  0  0  0
   91.3174   98.8448  -43.5355 C   0  0  0  0  0  0  0  0  0  0  0  0
   91.8544   99.3283  -42.2063 C   0  0  0  0  0  0  0  0  0  0  0  0
   91.1725  100.5962  -42.0571 N   0  0  0  0  0  0  0  0  0  0  0  0
   90.1365  100.5970  -42.7545 C   0  0  0  0  0  0  0  0  0  0  0  0
   92.0285   99.5337  -44.5214 O   0  0  0  0  0  0  0  0  0  0  0  0
   92.9271   99.7098  -44.1980 H   0  0  0  0  0  0  0  0  0  0  0  0
   91.6318  101.6844  -41.2465 C   0  0  0  0  0  0  0  0  0  0  0  0
   92.2951  102.7353  -41.8641 C   0  0  0  0  0  0  0  0  0  0  0  0
   92.7880  103.8167  -41.1374 C   0  0  0  0  0  0  0  0  0  0  0  0
   92.6309  103.8729  -39.7704 C   0  0  0  0  0  0  0  0  0  0  0  0
   91.9761  102.8399  -39.1447 C   0  0  0  0  0  0  0  0  0  0  0  0
   91.4927  101.7649  -39.9010 C   0  0  0  0  0  0  0  0  0  0  0  0
   93.3293  105.3610  -38.7709 Br  0  0  0  0  0  0  0  0  0  0  0  0
   91.4573   97.3839  -43.6850 C   0  0  0  0  0  0  0  0  0  0  0  0
   91.6474   96.6405  -42.5241 C   0  0  0  0  0  0  0  0  0  0  0  0
   91.7852   95.2709  -42.5606 C   0  0  0  0  0  0  0  0  0  0  0  0
   91.7409   94.5666  -43.7507 C   0  0  0  0  0  0  0  0  0  0  0  0
   91.5499   95.2995  -44.9064 C   0  0  0  0  0  0  0  0  0  0  0  0
   91.4109   96.6908  -44.8663 C   0  0  0  0  0  0  0  0  0  0  0  0
   91.8825   93.1584  -43.7613 N   0  0  0  0  0  0  0  0  0  0  0  0
   92.1578   92.4915  -42.7575 O   0  0  0  0  0  0  0  0  0  0  0  0
   91.7026   92.4816  -44.9407 O   0  0  0  0  0  0  0  0  0  0  0  0
  1  2  1  0  0  0
  1  9  1  0  0  0
  2  3  1  0  0  0
  3  4  1  0  0  0
  4  5  1  0  0  0
  5  6  1  0  0  0
  5  9  1  0  0  0
  6  7  1  0  0  0
  6 10  1  0  0  0
  6 19  1  0  0  0
  7  8  1  0  0  0
  8  9  2  0  0  0
  8 12  1  0  0  0
 12 13  2  0  0  0
 12 17  1  0  0  0
 13 14  1  0  0  0
 14 15  2  0  0  0
 15 16  1  0  0  0
 15 18  1  0  0  0
 16 17  2  0  0  0
 19 20  2  0  0  0
 19 24  1  0  0  0
 20 21  1  0  0  0
 21 22  2  0  0  0
 22 23  1  0  0  0
 22 25  1  0  0  0
 23 24  2  0  0  0
 25 26  2  0  0  0
 25 27  1  0  0  0
 10 11  1  0  0  0
M  CHG 1  27  -1
M  END
> <minimizedAffinity>
-6.29842

$$$$
1222


 24 27  0  0  0  0  0  0  0  0999 V2000
   89.0103  100.2708  -42.3485 S   0  0  0  0  0  0  0  0  0  0  0  0
   89.5304  102.0439  -42.4082 C   0  0  0  0  0  0  0  0  0  0  0  0
   90.9378  102.1578  -42.9340 C   0  0  0  0  0  0  0  0  0  0  0  0
   91.7974  100.9456  -42.6480 C   0  0  0  0  0  0  0  0  0  0  0  0
   91.4641   99.8057  -43.4090 N   0  0  0  0  0  0  0  0  0  0  0  0
   92.0991   98.6677  -44.0964 C   0  0  0  0  0  0  0  0  0  0  0  0
   91.1603   98.5916  -45.2768 C   0  0  0  0  0  0  0  0  0  0  0  0
   89.8707   98.7880  -44.6315 N   0  0  0  0  0  0  0  0  0  0  0  0
   90.0553   99.5324  -43.6468 C   0  0  0  0  0  0  0  0  0  0  0  0
   93.3695   98.9305  -44.5083 O   0  0  0  0  0  0  0  0  0  0  0  0
   93.9792   99.3088  -43.8271 H   0  0  0  0  0  0  0  0  0  0  0  0
   88.6307   98.1681  -45.0348 C   0  0  0  0  0  0  0  0  0  0  0  0
   87.4293   98.3472  -44.4248 C   0  0  0  0  0  0  0  0  0  0  0  0
   86.2675   97.6941  -44.8170 C   0  0  0  0  0  0  0  0  0  0  0  0
   86.3077   96.8185  -45.8698 C   0  0  0  0  0  0  0  0  0  0  0  0
   87.5266   96.6341  -46.4934 C   0  0  0  0  0  0  0  0  0  0  0  0
   88.6688   97.2778  -46.1054 C   0  0  0  0  0  0  0  0  0  0  0  0
   84.7552   95.8680  -46.4795 Br  0  0  0  0  0  0  0  0  0  0  0  0
   91.9734   97.4176  -43.2758 C   0  0  0  0  0  0  0  0  0  0  0  0
   91.6454   96.1916  -43.8222 C   0  0  0  0  0  0  0  0  0  0  0  0
   91.5566   95.0817  -42.9921 C   0  0  0  0  0  0  0  0  0  0  0  0
   91.7864   95.1467  -41.6239 C   0  0  0  0  0  0  0  0  0  0  0  0
   92.1123   96.3573  -41.0758 C   0  0  0  0  0  0  0  0  0  0  0  0
   92.1993   97.4742  -41.9059 C   0  0  0  0  0  0  0  0  0  0  0  0
  1  2  1  0  0  0
  1  9  1  0  0  0
  2  3  1  0  0  0
  3  4  1  0  0  0
  4  5  1  0  0  0
  5  6  1  0  0  0
  5  9  1  0  0  0
  6  7  1  0  0  0
  6 10  1  0  0  0
  6 19  1  0  0  0
  7  8  1  0  0  0
  8  9  2  0  0  0
  8 12  1  0  0  0
 12 13  2  0  0  0
 12 17  1  0  0  0
 13 14  1  0  0  0
 14 15  2  0  0  0
 15 16  1  0  0  0
 15 18  1  0  0  0
 16 17  2  0  0  0
 19 20  2  0  0  0
 19 24  1  0  0  0
 20 21  1  0  0  0
 21 22  2  0  0  0
 22 23  1  0  0  0
 23 24  2  0  0  0
 10 11  1  0  0  0
M  END
> <minimizedAffinity>
-6.17032

$$$$
1224


 26 29  0  0  0  0  0  0  0  0999 V2000
   88.4484   99.0216  -43.3975 S   0  0  0  0  0  0  0  0  0  0  0  0
   87.4803   99.7957  -44.7568 C   0  0  0  0  0  0  0  0  0  0  0  0
   87.9033  101.2574  -44.7658 C   0  0  0  0  0  0  0  0  0  0  0  0
   89.3128  101.4302  -45.2377 C   0  0  0  0  0  0  0  0  0  0  0  0
   90.3056  100.8372  -44.3956 N   0  0  0  0  0  0  0  0  0  0  0  0
   91.6364  101.2191  -43.9140 C   0  0  0  0  0  0  0  0  0  0  0  0
   92.2965   99.8376  -44.0823 C   0  0  0  0  0  0  0  0  0  0  0  0
   91.2574   98.9594  -43.5767 N   0  0  0  0  0  0  0  0  0  0  0  0
   90.1409   99.5347  -43.7718 C   0  0  0  0  0  0  0  0  0  0  0  0
   92.1935  102.1451  -44.7641 O   0  0  0  0  0  0  0  0  0  0  0  0
   92.7576  101.7371  -45.4631 H   0  0  0  0  0  0  0  0  0  0  0  0
   91.6411  101.6053  -42.4918 C   0  0  0  0  0  0  0  0  0  0  0  0
   92.5455  101.1751  -41.5464 C   0  0  0  0  0  0  0  0  0  0  0  0
   92.4681  101.6069  -40.2327 C   0  0  0  0  0  0  0  0  0  0  0  0
   91.4856  102.4740  -39.8503 C   0  0  0  0  0  0  0  0  0  0  0  0
   90.5723  102.9138  -40.7832 C   0  0  0  0  0  0  0  0  0  0  0  0
   90.6602  102.4788  -42.0811 C   0  0  0  0  0  0  0  0  0  0  0  0
   91.3219  103.1095  -38.0439 Br  0  0  0  0  0  0  0  0  0  0  0  0
   91.5456   97.6769  -42.9749 C   0  0  0  0  0  0  0  0  0  0  0  0
   91.3823   96.5117  -43.7183 C   0  0  0  0  0  0  0  0  0  0  0  0
   91.6456   95.2746  -43.1721 C   0  0  0  0  0  0  0  0  0  0  0  0
   92.0807   95.1152  -41.8739 C   0  0  0  0  0  0  0  0  0  0  0  0
   92.2436   96.2608  -41.1326 C   0  0  0  0  0  0  0  0  0  0  0  0
   91.9739   97.5198  -41.6926 C   0  0  0  0  0  0  0  0  0  0  0  0
   92.3386   93.8501  -41.3575 O   0  0  0  0  0  0  0  0  0  0  0  0
   93.3933   93.0147  -41.7413 C   0  0  0  0  0  0  0  0  0  0  0  0
  1  2  1  0  0  0
  1  9  1  0  0  0
  2  3  1  0  0  0
  3  4  1  0  0  0
  4  5  1  0  0  0
  5  6  1  0  0  0
  5  9  1  0  0  0
  6  7  1  0  0  0
  6 10  1  0  0  0
  6 12  1  0  0  0
  7  8  1  0  0  0
  8  9  2  0  0  0
  8 19  1  0  0  0
 19 20  2  0  0  0
 19 24  1  0  0  0
 20 21  1  0  0  0
 21 22  2  0  0  0
 22 23  1  0  0  0
 22 25  1  0  0  0
 23 24  2  0  0  0
 25 26  1  0  0  0
 12 13  2  0  0  0
 12 17  1  0  0  0
 13 14  1  0  0  0
 14 15  2  0  0  0
 15 16  1  0  0  0
 15 18  1  0  0  0
 16 17  2  0  0  0
 10 11  1  0  0  0
M  END
> <minimizedAffinity>
-5.88122

$$$$
1226


 24 27  0  0  0  0  0  0  0  0999 V2000
   92.9231   98.6684  -45.4473 S   0  0  0  0  0  0  0  0  0  0  0  0
   92.7344   99.9597  -46.7084 C   0  0  0  0  0  0  0  0  0  0  0  0
   91.3826  100.6268  -46.4361 C   0  0  0  0  0  0  0  0  0  0  0  0
   91.4730  101.3354  -45.0752 C   0  0  0  0  0  0  0  0  0  0  0  0
   91.1987  100.3378  -44.0339 N   0  0  0  0  0  0  0  0  0  0  0  0
   90.4374  100.3610  -42.8521 C   0  0  0  0  0  0  0  0  0  0  0  0
   90.3004   98.8965  -42.4494 C   0  0  0  0  0  0  0  0  0  0  0  0
   91.2123   98.2078  -43.3101 N   0  0  0  0  0  0  0  0  0  0  0  0
   91.7160   99.0196  -44.1473 C   0  0  0  0  0  0  0  0  0  0  0  0
   89.1254  100.7922  -43.1504 O   0  0  0  0  0  0  0  0  0  0  0  0
   89.2001  101.7512  -43.3954 H   0  0  0  0  0  0  0  0  0  0  0  0
   90.9256  101.1226  -41.7042 C   0  0  0  0  0  0  0  0  0  0  0  0
   92.1624  100.7378  -41.1890 C   0  0  0  0  0  0  0  0  0  0  0  0
   92.7823  101.3723  -40.1285 C   0  0  0  0  0  0  0  0  0  0  0  0
   92.1749  102.4392  -39.5255 C   0  0  0  0  0  0  0  0  0  0  0  0
   90.9463  102.8364  -40.0221 C   0  0  0  0  0  0  0  0  0  0  0  0
   90.3342  102.1896  -41.0917 C   0  0  0  0  0  0  0  0  0  0  0  0
   92.9908  103.3765  -38.0499 Br  0  0  0  0  0  0  0  0  0  0  0  0
   91.4344   96.7915  -43.2133 C   0  0  0  0  0  0  0  0  0  0  0  0
   91.6984   96.2461  -41.9987 C   0  0  0  0  0  0  0  0  0  0  0  0
   91.8794   94.8685  -41.9280 C   0  0  0  0  0  0  0  0  0  0  0  0
   91.8014   94.0470  -43.0301 C   0  0  0  0  0  0  0  0  0  0  0  0
   91.5333   94.6478  -44.2430 C   0  0  0  0  0  0  0  0  0  0  0  0
   91.3490   96.0048  -44.3492 C   0  0  0  0  0  0  0  0  0  0  0  0
  1  2  1  0  0  0
  1  9  1  0  0  0
  2  3  1  0  0  0
  3  4  1  0  0  0
  4  5  1  0  0  0
  5  6  1  0  0  0
  5  9  1  0  0  0
  6  7  1  0  0  0
  6 10  1  0  0  0
  6 12  1  0  0  0
  7  8  1  0  0  0
  8  9  2  0  0  0
  8 19  1  0  0  0
 19 20  2  0  0  0
 19 24  1  0  0  0
 20 21  1  0  0  0
 21 22  2  0  0  0
 22 23  1  0  0  0
 23 24  2  0  0  0
 12 13  2  0  0  0
 12 17  1  0  0  0
 13 14  1  0  0  0
 14 15  2  0  0  0
 15 16  1  0  0  0
 15 18  1  0  0  0
 16 17  2  0  0  0
 10 11  1  0  0  0
M  END
> <minimizedAffinity>
-6.26679

$$$$
1231


 37 40  0  0  0  0  0  0  0  0999 V2000
   91.3936   98.1979  -44.5830 C   0  0  0  0  0  0  0  0  0  0  0  0
   91.6272   98.6994  -43.3636 N   0  0  0  0  0  0  0  0  0  0  0  0
   91.6343   97.6406  -42.5343 N   0  0  0  0  0  0  0  0  0  0  0  0
   91.4229   96.5469  -43.1732 N   0  0  0  0  0  0  0  0  0  0  0  0
   91.2541   96.8073  -44.5200 C   0  0  0  0  0  0  0  0  0  0  0  0
   91.8703  100.0262  -42.9035 C   0  0  0  0  0  0  0  0  0  0  0  0
   91.6359  101.1908  -43.5425 N   0  0  0  0  0  0  0  0  0  0  0  0
   91.9494  102.2056  -42.8276 O   0  0  0  0  0  0  0  0  0  0  0  0
   92.4012  101.7721  -41.6932 N   0  0  0  0  0  0  0  0  0  0  0  0
   92.3762  100.4059  -41.6784 C   0  0  0  0  0  0  0  0  0  0  0  0
   92.7706   99.5692  -40.6098 N   0  0  0  0  0  0  0  0  0  0  0  0
   92.9303  100.1770  -39.7637 H   0  0  0  0  0  0  0  0  0  0  0  0
   93.6086   98.9920  -40.7994 H   0  0  0  0  0  0  0  0  0  0  0  0
   91.9651   98.9324  -40.3616 H   0  0  0  0  0  0  0  0  0  0  0  0
   91.0143   95.7909  -45.5111 C   0  0  0  0  0  0  0  0  0  0  0  0
   90.2947   96.1348  -46.5301 O   0  0  0  0  0  0  0  0  0  0  0  0
   91.4558   94.4713  -45.5250 N   0  0  0  0  0  0  0  0  0  0  0  0
   92.0303   93.9741  -44.8236 H   0  0  0  0  0  0  0  0  0  0  0  0
   91.1041   93.6121  -46.6237 N   0  0  0  0  0  0  0  0  0  0  0  0
   91.5096   92.4063  -46.6920 C   0  0  0  0  0  0  0  0  0  0  0  0
   91.1762   91.5042  -47.7857 C   0  0  0  0  0  0  0  0  0  0  0  0
   90.2060   91.8159  -48.7112 C   0  0  0  0  0  0  0  0  0  0  0  0
   89.8836   90.9753  -49.7562 C   0  0  0  0  0  0  0  0  0  0  0  0
   90.5266   89.7750  -49.9170 C   0  0  0  0  0  0  0  0  0  0  0  0
   91.5220   89.4244  -48.9917 C   0  0  0  0  0  0  0  0  0  0  0  0
   91.8210   90.2863  -47.9584 C   0  0  0  0  0  0  0  0  0  0  0  0
   90.1863   88.9451  -50.9745 O   0  0  0  0  0  0  0  0  0  0  0  0
   88.5284   91.4526  -51.0167 Br  0  0  0  0  0  0  0  0  0  0  0  0
   92.1260   88.2085  -49.2113 O   0  0  0  0  0  0  0  0  0  0  0  0
   91.5924   86.9526  -48.8722 C   0  0  0  0  0  0  0  0  0  0  0  0
   91.3152   98.9433  -45.8490 C   0  0  0  0  0  0  0  0  0  0  0  0
   89.7482   99.6783  -46.2657 S   0  0  0  0  0  0  0  0  0  0  0  0
   87.2799   97.8066  -45.7646 S   0  0  0  0  0  0  0  0  0  0  0  0
   86.1554   97.9543  -44.3425 C   0  0  0  0  0  0  0  0  0  0  0  0
   86.9811   98.8318  -43.4573 C   0  0  0  0  0  0  0  0  0  0  0  0
   88.0524   99.4116  -44.0922 N   0  0  0  0  0  0  0  0  0  0  0  0
   88.4121   99.0908  -45.2325 C   0  0  0  0  0  0  0  0  0  0  0  0
 33 34  1  0  0  0
 33 37  1  0  0  0
 34 35  1  0  0  0
 35 36  1  0  0  0
 36 37  2  0  0  0
 37 32  1  0  0  0
 32 31  1  0  0  0
 31  1  1  0  0  0
  1  2  1  0  0  0
  1  5  2  0  0  0
  2  3  1  0  0  0
  2  6  1  0  0  0
  3  4  2  0  0  0
  4  5  1  0  0  0
  5 15  1  0  0  0
 15 16  2  0  0  0
 15 17  1  0  0  0
 17 19  1  0  0  0
 19 20  2  0  0  0
 20 21  1  0  0  0
 21 22  2  0  0  0
 21 26  1  0  0  0
 22 23  1  0  0  0
 23 24  2  0  0  0
 23 28  1  0  0  0
 24 25  1  0  0  0
 24 27  1  0  0  0
 25 26  2  0  0  0
 25 29  1  0  0  0
 29 30  1  0  0  0
  6  7  2  0  0  0
  6 10  1  0  0  0
  7  8  1  0  0  0
  8  9  1  0  0  0
  9 10  2  0  0  0
 10 11  1  0  0  0
 17 18  1  0  0  0
 11 12  1  0  0  0
 11 13  1  0  0  0
 11 14  1  0  0  0
M  CHG 1  11   1
M  CHG 1  27  -1
M  END
> <minimizedAffinity>
-6.34794

$$$$
1236


 30 34  0  0  0  0  0  0  0  0999 V2000
   90.4518   99.7451  -44.3899 C   0  0  0  0  0  0  0  0  0  0  0  0
   92.0591  103.0520  -41.0850 S   0  0  0  0  0  0  0  0  0  0  0  0
   93.7186  103.3143  -41.8747 C   0  0  0  0  0  0  0  0  0  0  0  0
   93.6385  102.1768  -42.8604 C   0  0  0  0  0  0  0  0  0  0  0  0
   92.3277  102.1120  -43.4420 N   0  0  0  0  0  0  0  0  0  0  0  0
   91.2779  102.5281  -42.5973 C   0  0  0  0  0  0  0  0  0  0  0  0
   90.0741  102.4975  -42.9841 N   0  0  0  0  0  0  0  0  0  0  0  0
   89.6862  102.0169  -44.2861 C   0  0  0  0  0  0  0  0  0  0  0  0
   88.6063  102.3379  -44.8407 O   0  0  0  0  0  0  0  0  0  0  0  0
   90.6308  101.0996  -44.9805 C   0  0  0  0  0  0  0  0  0  0  0  0
   91.9910  101.6480  -44.7754 C   0  0  0  0  0  0  0  0  0  0  0  0
   92.8700  101.7417  -45.6660 O   0  0  0  0  0  0  0  0  0  0  0  0
   91.7474   99.0271  -44.1038 C   0  0  0  0  0  0  0  0  0  0  0  0
   92.1109   98.0099  -45.1035 C   0  0  0  0  0  0  0  0  0  0  0  0
   92.5909   98.3704  -46.2350 O   0  0  0  0  0  0  0  0  0  0  0  0
   91.9260   96.6016  -44.8139 N   0  0  0  0  0  0  0  0  0  0  0  0
   92.0064   95.5165  -45.7520 C   0  0  0  0  0  0  0  0  0  0  0  0
   91.0900   94.3896  -45.3450 C   0  0  0  0  0  0  0  0  0  0  0  0
   91.4663   94.4385  -43.5304 S   0  0  0  0  0  0  0  0  0  0  0  0
   91.6629   96.2184  -43.4801 C   0  0  0  0  0  0  0  0  0  0  0  0
   91.5840   97.0568  -42.5206 N   0  0  0  0  0  0  0  0  0  0  0  0
   91.7565   98.4675  -42.7290 C   0  0  0  0  0  0  0  0  0  0  0  0
   91.9138   99.1957  -41.7171 O   0  0  0  0  0  0  0  0  0  0  0  0
   89.5539   98.9536  -45.2602 C   0  0  0  0  0  0  0  0  0  0  0  0
   89.5903   99.0990  -46.6414 C   0  0  0  0  0  0  0  0  0  0  0  0
   88.7607   98.3642  -47.4623 C   0  0  0  0  0  0  0  0  0  0  0  0
   87.8706   97.4613  -46.9246 C   0  0  0  0  0  0  0  0  0  0  0  0
   87.8365   97.3207  -45.5705 C   0  0  0  0  0  0  0  0  0  0  0  0
   88.6597   98.0488  -44.7361 C   0  0  0  0  0  0  0  0  0  0  0  0
   88.8040   98.5570  -49.3605 Br  0  0  0  0  0  0  0  0  0  0  0  0
  2  3  1  0  0  0
  2  6  1  0  0  0
  3  4  1  0  0  0
  4  5  1  0  0  0
  5  6  1  0  0  0
  5 11  1  0  0  0
  6  7  2  0  0  0
  7  8  1  0  0  0
  8  9  2  0  0  0
  8 10  1  0  0  0
 10 11  1  0  0  0
 10  1  1  0  0  0
 11 12  2  0  0  0
  1 13  1  0  0  0
  1 24  1  0  0  0
 13 14  1  0  0  0
 13 22  1  0  0  0
 14 15  2  0  0  0
 14 16  1  0  0  0
 16 17  1  0  0  0
 16 20  1  0  0  0
 17 18  1  0  0  0
 18 19  1  0  0  0
 19 20  1  0  0  0
 20 21  2  0  0  0
 21 22  1  0  0  0
 22 23  2  0  0  0
 24 25  2  0  0  0
 24 29  1  0  0  0
 25 26  1  0  0  0
 26 27  2  0  0  0
 26 30  1  0  0  0
 27 28  1  0  0  0
 28 29  2  0  0  0
M  END
> <minimizedAffinity>
-5.32971

$$$$
1237


 30 34  0  0  0  0  0  0  0  0999 V2000
   89.8246   98.5390  -44.9828 C   0  0  0  0  0  0  0  0  0  0  0  0
   86.4078  101.3077  -47.9752 S   0  0  0  0  0  0  0  0  0  0  0  0
   87.9180  101.3979  -49.0329 C   0  0  0  0  0  0  0  0  0  0  0  0
   88.2963   99.9504  -49.0187 C   0  0  0  0  0  0  0  0  0  0  0  0
   88.0490   99.3558  -47.7595 N   0  0  0  0  0  0  0  0  0  0  0  0
   87.0046   99.9092  -46.9898 C   0  0  0  0  0  0  0  0  0  0  0  0
   86.6448   99.4685  -45.8266 N   0  0  0  0  0  0  0  0  0  0  0  0
   87.2930   98.3040  -45.2442 C   0  0  0  0  0  0  0  0  0  0  0  0
   86.5614   97.6923  -44.4280 O   0  0  0  0  0  0  0  0  0  0  0  0
   88.6338   98.0195  -45.6718 C   0  0  0  0  0  0  0  0  0  0  0  0
   88.7306   98.2273  -47.1653 C   0  0  0  0  0  0  0  0  0  0  0  0
   89.3824   97.4471  -47.8827 O   0  0  0  0  0  0  0  0  0  0  0  0
   90.7300   99.5057  -45.6174 C   0  0  0  0  0  0  0  0  0  0  0  0
   90.4145  100.8798  -45.0267 C   0  0  0  0  0  0  0  0  0  0  0  0
   89.4148  101.5167  -45.4300 O   0  0  0  0  0  0  0  0  0  0  0  0
   91.2684  101.4425  -44.0038 N   0  0  0  0  0  0  0  0  0  0  0  0
   90.9683  102.5165  -43.1214 C   0  0  0  0  0  0  0  0  0  0  0  0
   91.7041  102.3747  -41.8121 C   0  0  0  0  0  0  0  0  0  0  0  0
   93.3120  101.7737  -42.5156 S   0  0  0  0  0  0  0  0  0  0  0  0
   92.5616  100.8824  -43.8665 C   0  0  0  0  0  0  0  0  0  0  0  0
   93.0075   99.9295  -44.5853 N   0  0  0  0  0  0  0  0  0  0  0  0
   92.1606   99.3555  -45.6258 C   0  0  0  0  0  0  0  0  0  0  0  0
   92.7703   98.7362  -46.5161 O   0  0  0  0  0  0  0  0  0  0  0  0
   90.5446   97.4697  -44.1896 C   0  0  0  0  0  0  0  0  0  0  0  0
   90.8632   96.2605  -44.7594 C   0  0  0  0  0  0  0  0  0  0  0  0
   91.5114   95.3142  -44.0069 C   0  0  0  0  0  0  0  0  0  0  0  0
   91.8604   95.5134  -42.7084 C   0  0  0  0  0  0  0  0  0  0  0  0
   91.5552   96.7112  -42.1109 C   0  0  0  0  0  0  0  0  0  0  0  0
   90.8957   97.6736  -42.8762 C   0  0  0  0  0  0  0  0  0  0  0  0
   92.7669   94.1836  -41.6638 Br  0  0  0  0  0  0  0  0  0  0  0  0
  2  3  1  0  0  0
  2  6  1  0  0  0
  3  4  1  0  0  0
  4  5  1  0  0  0
  5  6  1  0  0  0
  5 11  1  0  0  0
  6  7  2  0  0  0
  7  8  1  0  0  0
  8  9  2  0  0  0
  8 10  1  0  0  0
 10 11  1  0  0  0
 10  1  1  0  0  0
 11 12  2  0  0  0
  1 13  1  0  0  0
  1 24  1  0  0  0
 13 14  1  0  0  0
 13 22  1  0  0  0
 14 15  2  0  0  0
 14 16  1  0  0  0
 16 17  1  0  0  0
 16 20  1  0  0  0
 17 18  1  0  0  0
 18 19  1  0  0  0
 19 20  1  0  0  0
 20 21  2  0  0  0
 21 22  1  0  0  0
 22 23  2  0  0  0
 24 25  2  0  0  0
 24 29  1  0  0  0
 25 26  1  0  0  0
 26 27  2  0  0  0
 27 28  1  0  0  0
 27 30  1  0  0  0
 28 29  2  0  0  0
M  END
> <minimizedAffinity>
-5.75190

$$$$
1248


 21 24  0  0  0  0  0  0  0  0999 V2000
   89.4399   99.9098  -45.7482 S   0  0  0  0  0  0  0  0  0  0  0  0
   90.8284   98.8992  -45.7730 C   0  0  0  0  0  0  0  0  0  0  0  0
   90.4449   97.9123  -44.9646 N   0  0  0  0  0  0  0  0  0  0  0  0
   91.5251   97.0602  -44.9429 C   0  0  0  0  0  0  0  0  0  0  0  0
   92.4930   97.5498  -45.7162 N   0  0  0  0  0  0  0  0  0  0  0  0
   92.0980   98.6885  -46.2479 N   0  0  0  0  0  0  0  0  0  0  0  0
   89.2879   97.9570  -44.4392 N   0  0  0  0  0  0  0  0  0  0  0  0
   88.4694   98.9615  -44.6832 C   0  0  0  0  0  0  0  0  0  0  0  0
   87.1106   99.2158  -44.1937 C   0  0  0  0  0  0  0  0  0  0  0  0
   86.7135  100.2422  -43.4317 N   0  0  0  0  0  0  0  0  0  0  0  0
   85.3971  100.1295  -43.1911 N   0  0  0  0  0  0  0  0  0  0  0  0
   84.9381   99.0201  -43.8036 C   0  0  0  0  0  0  0  0  0  0  0  0
   86.0350   98.4376  -44.4440 C   0  0  0  0  0  0  0  0  0  0  0  0
   85.9382   96.8482  -45.4545 Br  0  0  0  0  0  0  0  0  0  0  0  0
   84.8381  100.8031  -42.6195 H   0  0  0  0  0  0  0  0  0  0  0  0
   91.6185   95.7948  -44.1864 C   0  0  0  0  0  0  0  0  0  0  0  0
   91.6888   95.7912  -42.8425 N   0  0  0  0  0  0  0  0  0  0  0  0
   91.7745   94.6265  -42.1619 C   0  0  0  0  0  0  0  0  0  0  0  0
   91.7897   93.4340  -42.8312 C   0  0  0  0  0  0  0  0  0  0  0  0
   91.7179   93.4532  -44.1630 N   0  0  0  0  0  0  0  0  0  0  0  0
   91.6326   94.6023  -44.8683 C   0  0  0  0  0  0  0  0  0  0  0  0
  1  2  1  0  0  0
  1  8  1  0  0  0
  2  3  1  0  0  0
  2  6  2  0  0  0
  3  4  1  0  0  0
  3  7  1  0  0  0
  4  5  2  0  0  0
  4 16  1  0  0  0
  5  6  1  0  0  0
 16 17  2  0  0  0
 16 21  1  0  0  0
 17 18  1  0  0  0
 18 19  2  0  0  0
 19 20  1  0  0  0
 20 21  2  0  0  0
  7  8  2  0  0  0
  8  9  1  0  0  0
  9 10  2  0  0  0
  9 13  1  0  0  0
 10 11  1  0  0  0
 11 12  1  0  0  0
 12 13  2  0  0  0
 13 14  1  0  0  0
 11 15  1  0  0  0
M  END
> <minimizedAffinity>
-5.74881

$$$$
1255


 34 38  0  0  0  0  0  0  0  0999 V2000
   89.8721   98.5594  -45.1583 C   0  0  0  0  0  0  0  0  0  0  0  0
   87.4947  102.5460  -45.9587 S   0  0  0  0  0  0  0  0  0  0  0  0
   87.6519  100.9186  -45.2420 C   0  0  0  0  0  0  0  0  0  0  0  0
   87.1448   99.7829  -45.5963 N   0  0  0  0  0  0  0  0  0  0  0  0
   87.4405   98.5960  -44.8246 C   0  0  0  0  0  0  0  0  0  0  0  0
   86.7024   97.6202  -44.6987 O   0  0  0  0  0  0  0  0  0  0  0  0
   88.7925   98.5744  -44.1134 C   0  0  0  0  0  0  0  0  0  0  0  0
   88.7513   99.8621  -43.3513 C   0  0  0  0  0  0  0  0  0  0  0  0
   88.9307   99.9336  -42.1016 O   0  0  0  0  0  0  0  0  0  0  0  0
   88.4860  101.0753  -44.1137 N   0  0  0  0  0  0  0  0  0  0  0  0
   88.9347  102.3444  -43.8655 N   0  0  0  0  0  0  0  0  0  0  0  0
   88.5268  103.3645  -44.7518 C   0  0  0  0  0  0  0  0  0  0  0  0
   88.8251  104.6601  -44.7261 C   0  0  0  0  0  0  0  0  0  0  0  0
   89.5706  102.6045  -43.0308 H   0  0  0  0  0  0  0  0  0  0  0  0
   91.2267   98.1543  -44.7335 C   0  0  0  0  0  0  0  0  0  0  0  0
   91.5614   98.2650  -43.3217 C   0  0  0  0  0  0  0  0  0  0  0  0
   91.5662   97.2230  -42.5821 O   0  0  0  0  0  0  0  0  0  0  0  0
   91.8980   99.5409  -42.7173 N   0  0  0  0  0  0  0  0  0  0  0  0
   91.8010   99.8997  -41.4112 N   0  0  0  0  0  0  0  0  0  0  0  0
   92.2034  101.2138  -41.0654 C   0  0  0  0  0  0  0  0  0  0  0  0
   92.2169  101.8058  -39.8911 C   0  0  0  0  0  0  0  0  0  0  0  0
   92.7166  101.9533  -42.6136 S   0  0  0  0  0  0  0  0  0  0  0  0
   92.3913  100.5122  -43.6118 C   0  0  0  0  0  0  0  0  0  0  0  0
   92.5440  100.3162  -44.8731 N   0  0  0  0  0  0  0  0  0  0  0  0
   92.2078   99.0518  -45.4679 C   0  0  0  0  0  0  0  0  0  0  0  0
   92.6646   98.6399  -46.5440 O   0  0  0  0  0  0  0  0  0  0  0  0
   91.4447   99.2621  -40.6178 H   0  0  0  0  0  0  0  0  0  0  0  0
   89.4569   97.7783  -46.3583 C   0  0  0  0  0  0  0  0  0  0  0  0
   89.3987   96.4040  -46.3300 C   0  0  0  0  0  0  0  0  0  0  0  0
   89.0171   95.6780  -47.4347 C   0  0  0  0  0  0  0  0  0  0  0  0
   88.6851   96.3360  -48.5976 C   0  0  0  0  0  0  0  0  0  0  0  0
   88.7310   97.7299  -48.6692 C   0  0  0  0  0  0  0  0  0  0  0  0
   89.1186   98.4213  -47.5398 C   0  0  0  0  0  0  0  0  0  0  0  0
   88.1502   95.3556  -50.1499 Br  0  0  0  0  0  0  0  0  0  0  0  0
  2  3  1  0  0  0
  2 12  1  0  0  0
  3  4  2  0  0  0
  3 10  1  0  0  0
  4  5  1  0  0  0
  5  6  2  0  0  0
  5  7  1  0  0  0
  7  8  1  0  0  0
  7  1  1  0  0  0
  8  9  2  0  0  0
  8 10  1  0  0  0
 10 11  1  0  0  0
 11 12  1  0  0  0
 12 13  2  0  0  0
  1 15  1  0  0  0
  1 28  1  0  0  0
 15 16  1  0  0  0
 15 25  1  0  0  0
 16 17  2  0  0  0
 16 18  1  0  0  0
 18 19  1  0  0  0
 18 23  1  0  0  0
 19 20  1  0  0  0
 20 21  2  0  0  0
 20 22  1  0  0  0
 22 23  1  0  0  0
 23 24  2  0  0  0
 24 25  1  0  0  0
 25 26  2  0  0  0
 28 29  2  0  0  0
 28 33  1  0  0  0
 29 30  1  0  0  0
 30 31  2  0  0  0
 31 32  1  0  0  0
 31 34  1  0  0  0
 32 33  2  0  0  0
 11 14  1  0  0  0
 19 27  1  0  0  0
M  END
> <minimizedAffinity>
-6.45180

$$$$
1256


 30 33  0  0  0  0  0  0  0  0999 V2000
   86.5057  101.0248  -43.1525 S   0  0  0  0  0  0  0  0  0  0  0  0
   86.2863   99.6561  -44.1584 C   0  0  0  0  0  0  0  0  0  0  0  0
   85.1937   99.0336  -44.7008 N   0  0  0  0  0  0  0  0  0  0  0  0
   85.3305   97.9648  -45.5025 C   0  0  0  0  0  0  0  0  0  0  0  0
   84.3980   97.3379  -46.0395 O   0  0  0  0  0  0  0  0  0  0  0  0
   86.6268   97.5628  -45.7231 C   0  0  0  0  0  0  0  0  0  0  0  0
   87.7200   98.1767  -45.1866 C   0  0  0  0  0  0  0  0  0  0  0  0
   87.5473   99.2681  -44.3718 N   0  0  0  0  0  0  0  0  0  0  0  0
   88.4800   99.9497  -43.8284 N   0  0  0  0  0  0  0  0  0  0  0  0
   88.2315  100.9913  -43.0861 C   0  0  0  0  0  0  0  0  0  0  0  0
   89.1372  101.8941  -42.4089 N   0  0  0  0  0  0  0  0  0  0  0  0
   90.1456  101.3939  -41.5555 C   0  0  0  0  0  0  0  0  0  0  0  0
   90.8915  102.5331  -40.9012 C   0  0  0  0  0  0  0  0  0  0  0  0
   89.9909  103.5419  -40.5495 O   0  0  0  0  0  0  0  0  0  0  0  0
   89.5476  104.2142  -41.6949 C   0  0  0  0  0  0  0  0  0  0  0  0
   88.9171  103.2750  -42.6762 C   0  0  0  0  0  0  0  0  0  0  0  0
   89.0370   97.6395  -45.5237 C   0  0  0  0  0  0  0  0  0  0  0  0
   89.2743   97.2696  -46.7317 O   0  0  0  0  0  0  0  0  0  0  0  0
   90.0986   97.4822  -44.6093 N   0  0  0  0  0  0  0  0  0  0  0  0
   89.9925   97.7334  -43.6081 H   0  0  0  0  0  0  0  0  0  0  0  0
   91.3750   96.9462  -45.0673 C   0  0  0  0  0  0  0  0  0  0  0  0
   91.4916   95.5065  -44.7283 C   0  0  0  0  0  0  0  0  0  0  0  0
   91.6606   95.1366  -43.4032 C   0  0  0  0  0  0  0  0  0  0  0  0
   91.8111   93.8103  -43.0837 C   0  0  0  0  0  0  0  0  0  0  0  0
   91.8017   92.8245  -44.0354 C   0  0  0  0  0  0  0  0  0  0  0  0
   91.6329   93.1847  -45.3593 C   0  0  0  0  0  0  0  0  0  0  0  0
   91.4803   94.5242  -45.6781 C   0  0  0  0  0  0  0  0  0  0  0  0
   91.6019   91.8734  -46.7461 Br  0  0  0  0  0  0  0  0  0  0  0  0
   91.6697   96.1358  -42.4556 O   0  0  0  0  0  0  0  0  0  0  0  0
   92.0612   95.8008  -41.1243 C   0  0  0  0  0  0  0  0  0  0  0  0
  1  2  1  0  0  0
  1 10  1  0  0  0
  2  3  2  0  0  0
  2  8  1  0  0  0
  3  4  1  0  0  0
  4  5  2  0  0  0
  4  6  1  0  0  0
  6  7  2  0  0  0
  7  8  1  0  0  0
  7 17  1  0  0  0
  8  9  1  0  0  0
  9 10  2  0  0  0
 10 11  1  0  0  0
 11 12  1  0  0  0
 11 16  1  0  0  0
 12 13  1  0  0  0
 13 14  1  0  0  0
 14 15  1  0  0  0
 15 16  1  0  0  0
 17 18  2  0  0  0
 17 19  1  0  0  0
 19 21  1  0  0  0
 21 22  1  0  0  0
 22 23  2  0  0  0
 22 27  1  0  0  0
 23 24  1  0  0  0
 23 29  1  0  0  0
 24 25  2  0  0  0
 25 26  1  0  0  0
 26 27  2  0  0  0
 26 28  1  0  0  0
 29 30  1  0  0  0
 19 20  1  0  0  0
M  END
> <minimizedAffinity>
-6.29116

$$$$
1265


 24 27  0  0  0  0  0  0  0  0999 V2000
   89.7519   98.7202  -45.3635 S   0  0  0  0  0  0  0  0  0  0  0  0
   90.6913   98.4477  -43.8667 C   0  0  0  0  0  0  0  0  0  0  0  0
   91.0955   99.0386  -42.7898 N   0  0  0  0  0  0  0  0  0  0  0  0
   91.8572   98.1711  -41.9721 C   0  0  0  0  0  0  0  0  0  0  0  0
   91.8806   96.8756  -42.7150 C   0  0  0  0  0  0  0  0  0  0  0  0
   91.0963   97.1034  -43.9519 N   0  0  0  0  0  0  0  0  0  0  0  0
   90.6857   96.4016  -45.0913 C   0  0  0  0  0  0  0  0  0  0  0  0
   89.9657   97.0549  -45.9753 C   0  0  0  0  0  0  0  0  0  0  0  0
   91.0010   94.9600  -45.3589 C   0  0  0  0  0  0  0  0  0  0  0  0
   91.6343   94.1764  -44.4206 C   0  0  0  0  0  0  0  0  0  0  0  0
   91.9509   92.8489  -44.6160 C   0  0  0  0  0  0  0  0  0  0  0  0
   91.6327   92.2335  -45.8047 C   0  0  0  0  0  0  0  0  0  0  0  0
   91.0042   92.9907  -46.7527 C   0  0  0  0  0  0  0  0  0  0  0  0
   90.6857   94.3455  -46.5430 C   0  0  0  0  0  0  0  0  0  0  0  0
   90.7530  100.4446  -42.5109 C   0  0  0  0  0  0  0  0  0  0  0  0
   92.0216  101.1514  -42.2436 C   0  0  0  0  0  0  0  0  0  0  0  0
   92.8957  101.2730  -43.1254 O   0  0  0  0  0  0  0  0  0  0  0  0
   92.2752  101.7235  -40.9291 C   0  0  0  0  0  0  0  0  0  0  0  0
   91.2420  102.2899  -40.1801 C   0  0  0  0  0  0  0  0  0  0  0  0
   91.4562  102.8471  -38.9333 C   0  0  0  0  0  0  0  0  0  0  0  0
   92.7340  102.8287  -38.4405 C   0  0  0  0  0  0  0  0  0  0  0  0
   93.7909  102.2793  -39.1427 C   0  0  0  0  0  0  0  0  0  0  0  0
   93.5488  101.7222  -40.4001 C   0  0  0  0  0  0  0  0  0  0  0  0
   93.0204  103.6034  -36.7093 Br  0  0  0  0  0  0  0  0  0  0  0  0
  1  2  1  0  0  0
  1  8  1  0  0  0
  2  3  2  0  0  0
  2  6  1  0  0  0
  3  4  1  0  0  0
  3 15  1  0  0  0
  4  5  1  0  0  0
  5  6  1  0  0  0
  6  7  1  0  0  0
  7  8  2  0  0  0
  7  9  1  0  0  0
  9 10  2  0  0  0
  9 14  1  0  0  0
 10 11  1  0  0  0
 11 12  2  0  0  0
 12 13  1  0  0  0
 13 14  2  0  0  0
 15 16  1  0  0  0
 16 17  2  0  0  0
 16 18  1  0  0  0
 18 19  2  0  0  0
 18 23  1  0  0  0
 19 20  1  0  0  0
 20 21  2  0  0  0
 21 22  1  0  0  0
 21 24  1  0  0  0
 22 23  2  0  0  0
M  END
> <minimizedAffinity>
-6.23707

$$$$
1266


 28 31  0  0  0  0  0  0  0  0999 V2000
   91.0831   97.0984  -44.8271 C   0  0  0  0  0  0  0  0  0  0  0  0
   92.3894   97.3327  -45.4304 N   0  0  0  0  0  0  0  0  0  0  0  0
   92.9103   98.6179  -45.4485 C   0  0  0  0  0  0  0  0  0  0  0  0
   92.4677   99.6137  -44.3971 C   0  0  0  0  0  0  0  0  0  0  0  0
   91.1872   99.3674  -43.8935 N   0  0  0  0  0  0  0  0  0  0  0  0
   90.3963   98.3458  -44.5104 C   0  0  0  0  0  0  0  0  0  0  0  0
   90.5702  100.0360  -42.8049 C   0  0  0  0  0  0  0  0  0  0  0  0
   89.3112   99.6888  -42.6682 O   0  0  0  0  0  0  0  0  0  0  0  0
   93.0698   96.6131  -45.1125 H   0  0  0  0  0  0  0  0  0  0  0  0
   91.0333  100.9779  -41.8513 C   0  0  0  0  0  0  0  0  0  0  0  0
   90.1370  102.0053  -41.4681 C   0  0  0  0  0  0  0  0  0  0  0  0
   90.4380  102.8516  -40.4837 N   0  0  0  0  0  0  0  0  0  0  0  0
   91.5906  102.7738  -39.8159 C   0  0  0  0  0  0  0  0  0  0  0  0
   92.4969  101.8014  -40.1410 C   0  0  0  0  0  0  0  0  0  0  0  0
   92.2208  100.8973  -41.1645 C   0  0  0  0  0  0  0  0  0  0  0  0
   93.7208  101.6861  -39.4091 N   0  0  0  0  0  0  0  0  0  0  0  0
   93.9656  102.6038  -38.3422 C   0  0  0  0  0  0  0  0  0  0  0  0
   94.7276  102.3782  -37.3800 O   0  0  0  0  0  0  0  0  0  0  0  0
   93.2521  103.9169  -38.3979 C   0  0  0  0  0  0  0  0  0  0  0  0
   91.8907  103.6739  -38.7873 O   0  0  0  0  0  0  0  0  0  0  0  0
   94.4187  100.9593  -39.6278 H   0  0  0  0  0  0  0  0  0  0  0  0
   91.1729   94.2488  -45.4799 Cl  0  0  0  0  0  0  0  0  0  0  0  0
   91.5118   94.8522  -43.8445 C   0  0  0  0  0  0  0  0  0  0  0  0
   91.3731   96.2328  -43.6300 C   0  0  0  0  0  0  0  0  0  0  0  0
   91.6312   96.6932  -42.3720 C   0  0  0  0  0  0  0  0  0  0  0  0
   92.0104   95.8183  -41.3692 C   0  0  0  0  0  0  0  0  0  0  0  0
   92.1473   94.4568  -41.5779 C   0  0  0  0  0  0  0  0  0  0  0  0
   91.8889   93.9700  -42.8550 C   0  0  0  0  0  0  0  0  0  0  0  0
 22 23  1  0  0  0
 23 24  2  0  0  0
 23 28  1  0  0  0
 24 25  1  0  0  0
 24  1  1  0  0  0
 25 26  2  0  0  0
 26 27  1  0  0  0
 27 28  2  0  0  0
  1  2  1  0  0  0
  1  6  1  0  0  0
  2  3  1  0  0  0
  3  4  1  0  0  0
  4  5  1  0  0  0
  5  6  1  0  0  0
  5  7  1  0  0  0
  7  8  2  0  0  0
  7 10  1  0  0  0
 10 11  2  0  0  0
 10 15  1  0  0  0
 11 12  1  0  0  0
 12 13  2  0  0  0
 13 14  1  0  0  0
 13 20  1  0  0  0
 14 15  2  0  0  0
 14 16  1  0  0  0
 16 17  1  0  0  0
 17 18  2  0  0  0
 17 19  1  0  0  0
 19 20  1  0  0  0
  2  9  1  0  0  0
 16 21  1  0  0  0
M  END
> <minimizedAffinity>
-7.71567

$$$$
1271


 35 38  0  0  0  0  0  0  0  0999 V2000
   88.1394   96.9300  -46.0751 C   0  0  0  0  0  0  0  0  0  0  0  0
   86.9045   96.4994  -46.3649 N   0  0  0  0  0  0  0  0  0  0  0  0
   86.0750   97.3696  -45.8489 N   0  0  0  0  0  0  0  0  0  0  0  0
   86.7429   98.3441  -45.2368 N   0  0  0  0  0  0  0  0  0  0  0  0
   88.0440   98.1244  -45.3440 C   0  0  0  0  0  0  0  0  0  0  0  0
   86.1171   99.4184  -44.5611 C   0  0  0  0  0  0  0  0  0  0  0  0
   86.4621  100.7212  -44.7606 N   0  0  0  0  0  0  0  0  0  0  0  0
   85.7099  101.4461  -43.9943 O   0  0  0  0  0  0  0  0  0  0  0  0
   84.9020  100.7223  -43.3068 N   0  0  0  0  0  0  0  0  0  0  0  0
   85.1215   99.4407  -43.6297 C   0  0  0  0  0  0  0  0  0  0  0  0
   84.4662   98.3087  -43.1224 N   0  0  0  0  0  0  0  0  0  0  0  0
   84.4030   98.0339  -42.1177 H   0  0  0  0  0  0  0  0  0  0  0  0
   83.9912   97.6651  -43.7919 H   0  0  0  0  0  0  0  0  0  0  0  0
   90.1975   95.5796  -45.5634 N   0  0  0  0  0  0  0  0  0  0  0  0
   89.3556   96.2504  -46.4814 C   0  0  0  0  0  0  0  0  0  0  0  0
   89.6661   96.2600  -47.6945 O   0  0  0  0  0  0  0  0  0  0  0  0
   89.9890   95.5428  -44.5299 H   0  0  0  0  0  0  0  0  0  0  0  0
   91.3607   94.9236  -45.9666 N   0  0  0  0  0  0  0  0  0  0  0  0
   92.0101   95.2525  -46.7010 H   0  0  0  0  0  0  0  0  0  0  0  0
   91.7011   93.6827  -45.3120 C   0  0  0  0  0  0  0  0  0  0  0  0
   91.5938   92.5679  -45.9901 C   0  0  0  0  0  0  0  0  0  0  0  0
   95.0571   91.8764  -41.5995 Br  0  0  0  0  0  0  0  0  0  0  0  0
   93.6175   92.9670  -42.1963 C   0  0  0  0  0  0  0  0  0  0  0  0
   93.1891   92.9246  -43.5003 C   0  0  0  0  0  0  0  0  0  0  0  0
   92.1319   93.7261  -43.9286 C   0  0  0  0  0  0  0  0  0  0  0  0
   91.5586   94.5407  -42.9962 C   0  0  0  0  0  0  0  0  0  0  0  0
   91.9894   94.5868  -41.6701 C   0  0  0  0  0  0  0  0  0  0  0  0
   93.0225   93.7995  -41.2640 C   0  0  0  0  0  0  0  0  0  0  0  0
   89.2063   98.8217  -44.8432 C   0  0  0  0  0  0  0  0  0  0  0  0
   89.3927   98.8113  -43.4053 N   0  0  0  0  0  0  0  0  0  0  0  0
   90.5888   98.0563  -43.0443 C   0  0  0  0  0  0  0  0  0  0  0  0
   91.7812   98.4510  -43.8874 C   0  0  0  0  0  0  0  0  0  0  0  0
   92.0380   99.9414  -43.7545 C   0  0  0  0  0  0  0  0  0  0  0  0
   91.0567  100.5734  -42.8087 C   0  0  0  0  0  0  0  0  0  0  0  0
   89.6423  100.1723  -42.9397 C   0  0  0  0  0  0  0  0  0  0  0  0
 22 23  1  0  0  0
 23 24  2  0  0  0
 23 28  1  0  0  0
 24 25  1  0  0  0
 25 26  2  0  0  0
 25 20  1  0  0  0
 26 27  1  0  0  0
 27 28  2  0  0  0
 20 21  2  0  0  0
 20 18  1  0  0  0
 18 14  1  0  0  0
 14 15  1  0  0  0
 15 16  2  0  0  0
 15  1  1  0  0  0
  1  2  1  0  0  0
  1  5  2  0  0  0
  2  3  2  0  0  0
  3  4  1  0  0  0
  4  5  1  0  0  0
  4  6  1  0  0  0
  5 29  1  0  0  0
 29 30  1  0  0  0
 30 31  1  0  0  0
 30 35  1  0  0  0
 31 32  1  0  0  0
 32 33  1  0  0  0
 33 34  1  0  0  0
 34 35  1  0  0  0
  6  7  2  0  0  0
  6 10  1  0  0  0
  7  8  1  0  0  0
  8  9  1  0  0  0
  9 10  2  0  0  0
 10 11  1  0  0  0
 18 19  1  0  0  0
 14 17  1  0  0  0
 11 12  1  0  0  0
 11 13  1  0  0  0
M  END
> <minimizedAffinity>
-7.01347

$$$$
1280


 35 38  0  0  0  0  0  0  0  0999 V2000
   90.9646   97.8920  -45.1831 C   0  0  0  0  0  0  0  0  0  0  0  0
   89.6455   97.9588  -45.7795 N   0  0  0  0  0  0  0  0  0  0  0  0
   88.7221   98.1386  -44.7195 C   0  0  0  0  0  0  0  0  0  0  0  0
   87.5341   97.8007  -44.7399 O   0  0  0  0  0  0  0  0  0  0  0  0
   89.4629   98.7934  -43.6274 C   0  0  0  0  0  0  0  0  0  0  0  0
   89.0243   99.1421  -42.5046 O   0  0  0  0  0  0  0  0  0  0  0  0
   90.8205   98.9550  -44.1329 C   0  0  0  0  0  0  0  0  0  0  0  0
   91.6823   99.8824  -43.7405 C   0  0  0  0  0  0  0  0  0  0  0  0
   92.9292   99.8750  -44.4093 O   0  0  0  0  0  0  0  0  0  0  0  0
   91.4239   92.6438  -46.1645 Br  0  0  0  0  0  0  0  0  0  0  0  0
   91.4519   94.1560  -44.9791 C   0  0  0  0  0  0  0  0  0  0  0  0
   91.1974   95.4423  -45.4690 C   0  0  0  0  0  0  0  0  0  0  0  0
   91.2120   96.5506  -44.6342 C   0  0  0  0  0  0  0  0  0  0  0  0
   91.4867   96.3240  -43.3137 C   0  0  0  0  0  0  0  0  0  0  0  0
   91.7421   95.0552  -42.8099 C   0  0  0  0  0  0  0  0  0  0  0  0
   91.7232   93.9666  -43.6487 C   0  0  0  0  0  0  0  0  0  0  0  0
   91.4085  100.8628  -42.6957 C   0  0  0  0  0  0  0  0  0  0  0  0
   90.8106  102.0695  -42.9067 C   0  0  0  0  0  0  0  0  0  0  0  0
   90.6297  102.9780  -41.8481 C   0  0  0  0  0  0  0  0  0  0  0  0
   91.0344  102.7080  -40.5689 C   0  0  0  0  0  0  0  0  0  0  0  0
   91.6378  101.4876  -40.3527 C   0  0  0  0  0  0  0  0  0  0  0  0
   91.8192  100.5949  -41.3762 C   0  0  0  0  0  0  0  0  0  0  0  0
   90.2958  102.4276  -44.2492 C   0  0  0  0  0  0  0  0  0  0  0  0
   90.8562  103.6047  -39.5153 O   0  0  0  0  0  0  0  0  0  0  0  0
   91.2955  103.2842  -38.2206 C   0  0  0  0  0  0  0  0  0  0  0  0
   89.3847   97.8484  -47.1994 C   0  0  0  0  0  0  0  0  0  0  0  0
   88.8498   99.1046  -47.8115 C   0  0  0  0  0  0  0  0  0  0  0  0
   89.5219   99.5594  -49.0505 C   0  0  0  0  0  0  0  0  0  0  0  0
   90.9104   99.8307  -48.9331 N   0  0  0  0  0  0  0  0  0  0  0  0
   91.5210  100.3325  -50.1753 C   0  0  0  0  0  0  0  0  0  0  0  0
   93.0130  100.0195  -50.0445 C   0  0  0  0  0  0  0  0  0  0  0  0
   93.3554   99.6486  -48.7567 O   0  0  0  0  0  0  0  0  0  0  0  0
   92.8754  100.5712  -47.8267 C   0  0  0  0  0  0  0  0  0  0  0  0
   91.3414  100.6888  -47.8902 C   0  0  0  0  0  0  0  0  0  0  0  0
   91.3916   98.8941  -48.7707 H   0  0  0  0  0  0  0  0  0  0  0  0
 10 11  1  0  0  0
 11 12  2  0  0  0
 11 16  1  0  0  0
 12 13  1  0  0  0
 13 14  2  0  0  0
 13  1  1  0  0  0
 14 15  1  0  0  0
 15 16  2  0  0  0
  1  2  1  0  0  0
  1  7  1  0  0  0
  2  3  1  0  0  0
  2 26  1  0  0  0
  3  4  2  0  0  0
  3  5  1  0  0  0
  5  6  2  0  0  0
  5  7  1  0  0  0
  7  8  2  0  0  0
  8  9  1  0  0  0
  8 17  1  0  0  0
 17 18  2  0  0  0
 17 22  1  0  0  0
 18 19  1  0  0  0
 18 23  1  0  0  0
 19 20  2  0  0  0
 20 21  1  0  0  0
 20 24  1  0  0  0
 21 22  2  0  0  0
 24 25  1  0  0  0
 26 27  1  0  0  0
 27 28  1  0  0  0
 28 29  1  0  0  0
 29 30  1  0  0  0
 29 34  1  0  0  0
 30 31  1  0  0  0
 31 32  1  0  0  0
 32 33  1  0  0  0
 33 34  1  0  0  0
 29 35  1  0  0  0
M  CHG 1   9  -1
M  CHG 1  29   1
M  END
> <minimizedAffinity>
-6.38934

$$$$
1282


 30 33  0  0  0  0  0  0  0  0999 V2000
   91.1909   94.5892  -44.6617 C   0  0  0  0  0  0  0  0  0  0  0  0
   91.8329   95.8289  -45.2540 C   0  0  0  0  0  0  0  0  0  0  0  0
   91.7684   96.7799  -44.1614 N   0  0  0  0  0  0  0  0  0  0  0  0
   91.3357   96.1363  -42.9377 C   0  0  0  0  0  0  0  0  0  0  0  0
   91.6481   94.6631  -43.2324 C   0  0  0  0  0  0  0  0  0  0  0  0
   92.1408   96.6503  -41.8308 C   0  0  0  0  0  0  0  0  0  0  0  0
   92.7445   95.8898  -41.0600 O   0  0  0  0  0  0  0  0  0  0  0  0
   92.2125   98.0568  -41.6605 N   0  0  0  0  0  0  0  0  0  0  0  0
   92.0344   98.9221  -42.8046 C   0  0  0  0  0  0  0  0  0  0  0  0
   92.0461   98.1858  -44.0887 C   0  0  0  0  0  0  0  0  0  0  0  0
   92.3067   98.7993  -45.1569 O   0  0  0  0  0  0  0  0  0  0  0  0
   92.3923   98.5023  -40.7325 H   0  0  0  0  0  0  0  0  0  0  0  0
   91.0958   93.1067  -46.6048 C   0  0  0  0  0  0  0  0  0  0  0  0
   90.2344   93.9147  -47.1135 O   0  0  0  0  0  0  0  0  0  0  0  0
   91.6408   93.3841  -45.3349 N   0  0  0  0  0  0  0  0  0  0  0  0
   92.3267   92.7386  -44.9199 H   0  0  0  0  0  0  0  0  0  0  0  0
   90.0721   89.9374  -50.7479 Br  0  0  0  0  0  0  0  0  0  0  0  0
   91.0927   90.4483  -49.2120 C   0  0  0  0  0  0  0  0  0  0  0  0
   90.7383   91.5518  -48.4865 C   0  0  0  0  0  0  0  0  0  0  0  0
   91.4734   91.9302  -47.3695 C   0  0  0  0  0  0  0  0  0  0  0  0
   92.5498   91.1740  -47.0254 C   0  0  0  0  0  0  0  0  0  0  0  0
   92.9010   90.0574  -47.7677 C   0  0  0  0  0  0  0  0  0  0  0  0
   92.1722   89.6851  -48.8703 C   0  0  0  0  0  0  0  0  0  0  0  0
   90.8200   99.8164  -42.6728 C   0  0  0  0  0  0  0  0  0  0  0  0
   91.1364  101.1507  -42.1372 C   0  0  0  0  0  0  0  0  0  0  0  0
   92.2463  101.8328  -42.6017 C   0  0  0  0  0  0  0  0  0  0  0  0
   92.5488  103.0802  -42.1062 C   0  0  0  0  0  0  0  0  0  0  0  0
   91.7817  103.7055  -41.1415 C   0  0  0  0  0  0  0  0  0  0  0  0
   90.6748  103.0282  -40.6763 C   0  0  0  0  0  0  0  0  0  0  0  0
   90.3556  101.7751  -41.1624 C   0  0  0  0  0  0  0  0  0  0  0  0
 17 18  1  0  0  0
 18 19  2  0  0  0
 18 23  1  0  0  0
 19 20  1  0  0  0
 20 21  2  0  0  0
 20 13  1  0  0  0
 21 22  1  0  0  0
 22 23  2  0  0  0
 13 14  2  0  0  0
 13 15  1  0  0  0
 15  1  1  0  0  0
  1  2  1  0  0  0
  1  5  1  0  0  0
  2  3  1  0  0  0
  3  4  1  0  0  0
  3 10  1  0  0  0
  4  5  1  0  0  0
  4  6  1  0  0  0
  6  7  2  0  0  0
  6  8  1  0  0  0
  8  9  1  0  0  0
  9 10  1  0  0  0
  9 24  1  0  0  0
 10 11  2  0  0  0
 24 25  1  0  0  0
 25 26  2  0  0  0
 25 30  1  0  0  0
 26 27  1  0  0  0
 27 28  2  0  0  0
 28 29  1  0  0  0
 29 30  2  0  0  0
 15 16  1  0  0  0
  8 12  1  0  0  0
M  END
> <minimizedAffinity>
-7.31867

$$$$
1284


 35 38  0  0  0  0  0  0  0  0999 V2000
   90.2992   96.7786  -46.1705 C   0  0  0  0  0  0  0  0  0  0  0  0
   88.8866   96.7506  -46.2486 N   0  0  0  0  0  0  0  0  0  0  0  0
   88.3428   97.7888  -45.4502 C   0  0  0  0  0  0  0  0  0  0  0  0
   87.1038   97.9703  -45.2364 O   0  0  0  0  0  0  0  0  0  0  0  0
   89.4309   98.5935  -44.9383 C   0  0  0  0  0  0  0  0  0  0  0  0
   89.2249   99.5880  -44.1914 O   0  0  0  0  0  0  0  0  0  0  0  0
   90.6648   98.0212  -45.4416 C   0  0  0  0  0  0  0  0  0  0  0  0
   91.8614   98.5159  -45.2198 C   0  0  0  0  0  0  0  0  0  0  0  0
   92.9633   97.8432  -45.6956 O   0  0  0  0  0  0  0  0  0  0  0  0
   91.5589   91.6520  -46.8563 Br  0  0  0  0  0  0  0  0  0  0  0  0
   91.4106   93.2259  -45.7859 C   0  0  0  0  0  0  0  0  0  0  0  0
   90.9351   94.4152  -46.2471 C   0  0  0  0  0  0  0  0  0  0  0  0
   90.8129   95.5772  -45.5046 C   0  0  0  0  0  0  0  0  0  0  0  0
   91.2097   95.5251  -44.1711 C   0  0  0  0  0  0  0  0  0  0  0  0
   91.6962   94.3331  -43.6695 C   0  0  0  0  0  0  0  0  0  0  0  0
   91.8068   93.1881  -44.4391 C   0  0  0  0  0  0  0  0  0  0  0  0
   92.0382   99.7503  -44.4962 C   0  0  0  0  0  0  0  0  0  0  0  0
   92.1509   99.8309  -43.0969 C   0  0  0  0  0  0  0  0  0  0  0  0
   92.3427  101.1083  -42.7458 N   0  0  0  0  0  0  0  0  0  0  0  0
   92.3532  101.8182  -43.8590 N   0  0  0  0  0  0  0  0  0  0  0  0
   92.1751  101.0378  -44.9353 C   0  0  0  0  0  0  0  0  0  0  0  0
   92.0667   98.6511  -42.1878 C   0  0  0  0  0  0  0  0  0  0  0  0
   92.5188  101.6228  -41.4335 C   0  0  0  0  0  0  0  0  0  0  0  0
   91.3960  101.9872  -40.7024 C   0  0  0  0  0  0  0  0  0  0  0  0
   91.4919  102.4842  -39.4179 C   0  0  0  0  0  0  0  0  0  0  0  0
   92.7329  102.6401  -38.7991 C   0  0  0  0  0  0  0  0  0  0  0  0
   93.8517  102.2771  -39.5275 C   0  0  0  0  0  0  0  0  0  0  0  0
   93.7297  101.7862  -40.8018 C   0  0  0  0  0  0  0  0  0  0  0  0
   88.0541   95.8119  -47.0523 C   0  0  0  0  0  0  0  0  0  0  0  0
   88.4883   95.8592  -48.4945 C   0  0  0  0  0  0  0  0  0  0  0  0
   88.2275   97.1767  -49.1534 C   0  0  0  0  0  0  0  0  0  0  0  0
   89.3758   97.9461  -49.5020 N   0  0  0  0  0  0  0  0  0  0  0  0
   89.6027   98.1529  -50.8945 C   0  0  0  0  0  0  0  0  0  0  0  0
   89.3127   99.2693  -48.8605 C   0  0  0  0  0  0  0  0  0  0  0  0
   90.2456   97.4963  -49.0835 H   0  0  0  0  0  0  0  0  0  0  0  0
 10 11  1  0  0  0
 11 12  2  0  0  0
 11 16  1  0  0  0
 12 13  1  0  0  0
 13 14  2  0  0  0
 13  1  1  0  0  0
 14 15  1  0  0  0
 15 16  2  0  0  0
  1  2  1  0  0  0
  1  7  1  0  0  0
  2  3  1  0  0  0
  2 29  1  0  0  0
  3  4  2  0  0  0
  3  5  1  0  0  0
  5  6  2  0  0  0
  5  7  1  0  0  0
  7  8  2  0  0  0
  8  9  1  0  0  0
  8 17  1  0  0  0
 17 18  2  0  0  0
 17 21  1  0  0  0
 18 19  1  0  0  0
 18 22  1  0  0  0
 19 20  1  0  0  0
 19 23  1  0  0  0
 20 21  2  0  0  0
 23 24  2  0  0  0
 23 28  1  0  0  0
 24 25  1  0  0  0
 25 26  2  0  0  0
 26 27  1  0  0  0
 27 28  2  0  0  0
 29 30  1  0  0  0
 30 31  1  0  0  0
 31 32  1  0  0  0
 32 33  1  0  0  0
 32 34  1  0  0  0
 32 35  1  0  0  0
M  CHG 1   9  -1
M  CHG 1  32   1
M  END
> <minimizedAffinity>
-6.48926

$$$$
1285


 34 37  0  0  0  0  0  0  0  0999 V2000
   90.9038   98.2677  -44.5702 C   0  0  0  0  0  0  0  0  0  0  0  0
   89.5778   98.2100  -45.1537 N   0  0  0  0  0  0  0  0  0  0  0  0
   88.6306   98.6254  -44.1455 C   0  0  0  0  0  0  0  0  0  0  0  0
   87.4281   98.3462  -44.0731 O   0  0  0  0  0  0  0  0  0  0  0  0
   89.4088   99.4505  -43.2265 C   0  0  0  0  0  0  0  0  0  0  0  0
   89.0201  100.0406  -42.1746 O   0  0  0  0  0  0  0  0  0  0  0  0
   90.7774   99.5016  -43.7136 C   0  0  0  0  0  0  0  0  0  0  0  0
   91.7183  100.3904  -43.4388 C   0  0  0  0  0  0  0  0  0  0  0  0
   93.0093  100.1778  -44.0008 O   0  0  0  0  0  0  0  0  0  0  0  0
   91.4580  101.5419  -42.6112 C   0  0  0  0  0  0  0  0  0  0  0  0
   90.7954  102.6731  -42.9327 N   0  0  0  0  0  0  0  0  0  0  0  0
   90.7580  103.4738  -41.8395 C   0  0  0  0  0  0  0  0  0  0  0  0
   91.3985  102.8573  -40.8081 N   0  0  0  0  0  0  0  0  0  0  0  0
   91.8257  101.6688  -41.2960 C   0  0  0  0  0  0  0  0  0  0  0  0
   92.5829  100.6645  -40.4988 C   0  0  0  0  0  0  0  0  0  0  0  0
   90.1739  104.7135  -41.8027 C   0  0  0  0  0  0  0  0  0  0  0  0
   89.5861  105.1769  -42.9590 C   0  0  0  0  0  0  0  0  0  0  0  0
   89.6235  104.3662  -44.0752 C   0  0  0  0  0  0  0  0  0  0  0  0
   90.2200  103.1343  -44.0561 C   0  0  0  0  0  0  0  0  0  0  0  0
   90.1602  105.5520  -40.5692 C   0  0  0  0  0  0  0  0  0  0  0  0
   91.8575   93.0679  -44.5728 Br  0  0  0  0  0  0  0  0  0  0  0  0
   91.7081   94.7508  -43.6810 C   0  0  0  0  0  0  0  0  0  0  0  0
   91.3762   95.8658  -44.3857 C   0  0  0  0  0  0  0  0  0  0  0  0
   91.2630   97.1047  -43.7479 C   0  0  0  0  0  0  0  0  0  0  0  0
   91.4991   97.1554  -42.3911 C   0  0  0  0  0  0  0  0  0  0  0  0
   91.8383   96.0163  -41.6713 C   0  0  0  0  0  0  0  0  0  0  0  0
   91.9409   94.8126  -42.3283 C   0  0  0  0  0  0  0  0  0  0  0  0
   89.2402   97.8026  -46.5070 C   0  0  0  0  0  0  0  0  0  0  0  0
   88.5645   96.4776  -46.5984 C   0  0  0  0  0  0  0  0  0  0  0  0
   87.2411   96.4906  -47.3214 C   0  0  0  0  0  0  0  0  0  0  0  0
   86.2332   97.0964  -46.4834 N   0  0  0  0  0  0  0  0  0  0  0  0
   85.5946   98.2012  -47.1746 C   0  0  0  0  0  0  0  0  0  0  0  0
   85.1979   96.1139  -46.2294 C   0  0  0  0  0  0  0  0  0  0  0  0
   86.6041   97.3776  -45.5500 H   0  0  0  0  0  0  0  0  0  0  0  0
 21 22  1  0  0  0
 22 23  2  0  0  0
 22 27  1  0  0  0
 23 24  1  0  0  0
 24 25  2  0  0  0
 24  1  1  0  0  0
 25 26  1  0  0  0
 26 27  2  0  0  0
  1  2  1  0  0  0
  1  7  1  0  0  0
  2  3  1  0  0  0
  2 28  1  0  0  0
  3  4  2  0  0  0
  3  5  1  0  0  0
  5  6  2  0  0  0
  5  7  1  0  0  0
  7  8  2  0  0  0
  8  9  1  0  0  0
  8 10  1  0  0  0
 10 11  1  0  0  0
 10 14  2  0  0  0
 11 12  1  0  0  0
 11 19  1  0  0  0
 12 13  2  0  0  0
 12 16  1  0  0  0
 13 14  1  0  0  0
 14 15  1  0  0  0
 16 17  2  0  0  0
 16 20  1  0  0  0
 17 18  1  0  0  0
 18 19  2  0  0  0
 28 29  1  0  0  0
 29 30  1  0  0  0
 30 31  1  0  0  0
 31 32  1  0  0  0
 31 33  1  0  0  0
 31 34  1  0  0  0
M  CHG 1   9  -1
M  CHG 1  31   1
M  END
> <minimizedAffinity>
-5.96720

$$$$
1295


 26 29  0  0  0  0  0  0  0  0999 V2000
   91.2875   98.3666  -44.0846 C   0  0  0  0  0  0  0  0  0  0  0  0
   91.5666   99.6642  -43.5101 C   0  0  0  0  0  0  0  0  0  0  0  0
   92.0078   99.7890  -42.2228 C   0  0  0  0  0  0  0  0  0  0  0  0
   92.2407   98.6514  -41.3830 N   0  0  0  0  0  0  0  0  0  0  0  0
   91.9856   97.3828  -41.9725 C   0  0  0  0  0  0  0  0  0  0  0  0
   91.5674   97.2371  -43.1988 C   0  0  0  0  0  0  0  0  0  0  0  0
   91.4416   95.7762  -43.4925 C   0  0  0  0  0  0  0  0  0  0  0  0
   91.0533   95.3298  -44.6136 O   0  0  0  0  0  0  0  0  0  0  0  0
   91.8146   95.1334  -42.3580 O   0  0  0  0  0  0  0  0  0  0  0  0
   92.1362   96.0133  -41.3350 C   0  0  0  0  0  0  0  0  0  0  0  0
   92.2504  101.0387  -41.7107 N   0  0  0  0  0  0  0  0  0  0  0  0
   92.0591  102.1303  -42.4593 C   0  0  0  0  0  0  0  0  0  0  0  0
   92.2889  103.2713  -41.9672 O   0  0  0  0  0  0  0  0  0  0  0  0
   91.6256  101.9975  -43.7239 N   0  0  0  0  0  0  0  0  0  0  0  0
   91.3671  100.8235  -44.2952 C   0  0  0  0  0  0  0  0  0  0  0  0
   90.9621  100.6896  -45.4766 O   0  0  0  0  0  0  0  0  0  0  0  0
   91.4306  103.2204  -44.5044 C   0  0  0  0  0  0  0  0  0  0  0  0
   92.7177  101.1047  -40.3339 C   0  0  0  0  0  0  0  0  0  0  0  0
   92.5736   98.7893  -40.4121 H   0  0  0  0  0  0  0  0  0  0  0  0
   85.8131   97.8986  -46.8854 Br  0  0  0  0  0  0  0  0  0  0  0  0
   87.5371   98.0347  -46.0437 C   0  0  0  0  0  0  0  0  0  0  0  0
   88.6896   97.8236  -46.7555 C   0  0  0  0  0  0  0  0  0  0  0  0
   89.9330   97.9309  -46.1080 C   0  0  0  0  0  0  0  0  0  0  0  0
   90.0120   98.2425  -44.7838 C   0  0  0  0  0  0  0  0  0  0  0  0
   88.8522   98.4519  -44.0807 C   0  0  0  0  0  0  0  0  0  0  0  0
   87.6029   98.3468  -44.7169 C   0  0  0  0  0  0  0  0  0  0  0  0
 20 21  1  0  0  0
 21 22  2  0  0  0
 21 26  1  0  0  0
 22 23  1  0  0  0
 23 24  2  0  0  0
 24 25  1  0  0  0
 24  1  1  0  0  0
 25 26  2  0  0  0
  1  2  1  0  0  0
  1  6  1  0  0  0
  2  3  2  0  0  0
  2 15  1  0  0  0
  3  4  1  0  0  0
  3 11  1  0  0  0
  4  5  1  0  0  0
  5  6  2  0  0  0
  5 10  1  0  0  0
  6  7  1  0  0  0
  7  8  2  0  0  0
  7  9  1  0  0  0
  9 10  1  0  0  0
 11 12  1  0  0  0
 11 18  1  0  0  0
 12 13  2  0  0  0
 12 14  1  0  0  0
 14 15  1  0  0  0
 14 17  1  0  0  0
 15 16  2  0  0  0
  4 19  1  0  0  0
M  END
> <minimizedAffinity>
-6.36348

$$$$
1299


 36 39  0  0  0  0  0  0  0  0999 V2000
   91.0505   97.7989  -44.1720 C   0  0  0  0  0  0  0  0  0  0  0  0
   91.3941   96.5058  -43.8700 N   0  0  0  0  0  0  0  0  0  0  0  0
   91.2742   95.8359  -44.9971 N   0  0  0  0  0  0  0  0  0  0  0  0
   90.8892   96.5945  -45.9700 N   0  0  0  0  0  0  0  0  0  0  0  0
   90.7291   97.8644  -45.5011 C   0  0  0  0  0  0  0  0  0  0  0  0
   91.7919   96.0014  -42.6118 C   0  0  0  0  0  0  0  0  0  0  0  0
   92.2722   96.6597  -41.5278 N   0  0  0  0  0  0  0  0  0  0  0  0
   92.5078   95.8102  -40.5934 O   0  0  0  0  0  0  0  0  0  0  0  0
   92.2246   94.5971  -40.9472 N   0  0  0  0  0  0  0  0  0  0  0  0
   91.7662   94.6740  -42.2256 C   0  0  0  0  0  0  0  0  0  0  0  0
   91.3442   93.5580  -42.9911 N   0  0  0  0  0  0  0  0  0  0  0  0
   90.5976   93.7044  -43.6956 H   0  0  0  0  0  0  0  0  0  0  0  0
   91.7378   92.6044  -42.8900 H   0  0  0  0  0  0  0  0  0  0  0  0
   92.2019   99.5329  -42.6694 N   0  0  0  0  0  0  0  0  0  0  0  0
   91.0713   98.8293  -43.1414 C   0  0  0  0  0  0  0  0  0  0  0  0
   89.9684   99.1722  -42.5673 O   0  0  0  0  0  0  0  0  0  0  0  0
   93.1844   99.4088  -42.9997 H   0  0  0  0  0  0  0  0  0  0  0  0
   92.9273  101.0930  -41.0418 C   0  0  0  0  0  0  0  0  0  0  0  0
   91.9657  100.5067  -41.6416 N   0  0  0  0  0  0  0  0  0  0  0  0
   94.5901  103.3982  -36.5153 Br  0  0  0  0  0  0  0  0  0  0  0  0
   93.3565  103.1809  -37.9560 C   0  0  0  0  0  0  0  0  0  0  0  0
   92.2341  103.9836  -37.9821 C   0  0  0  0  0  0  0  0  0  0  0  0
   91.3525  103.8214  -39.0211 C   0  0  0  0  0  0  0  0  0  0  0  0
   91.5800  102.8835  -40.0116 C   0  0  0  0  0  0  0  0  0  0  0  0
   92.6844  102.0907  -39.9891 C   0  0  0  0  0  0  0  0  0  0  0  0
   93.5747  102.2476  -38.9494 C   0  0  0  0  0  0  0  0  0  0  0  0
   89.7865  104.9363  -39.0637 Br  0  0  0  0  0  0  0  0  0  0  0  0
   91.9716  104.9344  -37.0064 O   0  0  0  0  0  0  0  0  0  0  0  0
   92.5759  105.1021  -36.2216 H   0  0  0  0  0  0  0  0  0  0  0  0
   90.2968   99.0528  -46.2351 C   0  0  0  0  0  0  0  0  0  0  0  0
   91.2362   99.4966  -47.2537 N   0  0  0  0  0  0  0  0  0  0  0  0
   90.6090  100.4892  -48.1173 C   0  0  0  0  0  0  0  0  0  0  0  0
   90.8381  101.8881  -47.6192 C   0  0  0  0  0  0  0  0  0  0  0  0
   91.1274  101.9670  -46.2695 O   0  0  0  0  0  0  0  0  0  0  0  0
   92.2484  101.2507  -45.8782 C   0  0  0  0  0  0  0  0  0  0  0  0
   92.4664  100.0141  -46.7071 C   0  0  0  0  0  0  0  0  0  0  0  0
 20 21  1  0  0  0
 21 22  2  0  0  0
 21 26  1  0  0  0
 22 23  1  0  0  0
 22 28  1  0  0  0
 23 24  2  0  0  0
 23 27  1  0  0  0
 24 25  1  0  0  0
 25 26  2  0  0  0
 25 18  1  0  0  0
 18 19  2  0  0  0
 19 14  1  0  0  0
 14 15  1  0  0  0
 15 16  2  0  0  0
 15  1  1  0  0  0
  1  2  1  0  0  0
  1  5  2  0  0  0
  2  3  1  0  0  0
  2  6  1  0  0  0
  3  4  2  0  0  0
  4  5  1  0  0  0
  5 30  1  0  0  0
 30 31  1  0  0  0
 31 32  1  0  0  0
 31 36  1  0  0  0
 32 33  1  0  0  0
 33 34  1  0  0  0
 34 35  1  0  0  0
 35 36  1  0  0  0
  6  7  2  0  0  0
  6 10  1  0  0  0
  7  8  1  0  0  0
  8  9  1  0  0  0
  9 10  2  0  0  0
 10 11  1  0  0  0
 14 17  1  0  0  0
 11 12  1  0  0  0
 11 13  1  0  0  0
 28 29  1  0  0  0
M  END
> <minimizedAffinity>
-6.28296

$$$$
1300


 22 25  0  0  0  0  0  0  0  0999 V2000
   91.1862   99.1623  -43.0260 N   0  0  0  0  0  0  0  0  0  0  0  0
   91.9605  100.1907  -43.6149 C   0  0  0  0  0  0  0  0  0  0  0  0
   92.9540  100.0424  -44.3559 O   0  0  0  0  0  0  0  0  0  0  0  0
   91.4323  101.5178  -43.2329 C   0  0  0  0  0  0  0  0  0  0  0  0
   92.2403  101.9804  -42.0399 C   0  0  0  0  0  0  0  0  0  0  0  0
   91.6924  101.1393  -41.0349 O   0  0  0  0  0  0  0  0  0  0  0  0
   90.3569  101.6084  -41.1536 C   0  0  0  0  0  0  0  0  0  0  0  0
   90.0785  101.2397  -42.5861 C   0  0  0  0  0  0  0  0  0  0  0  0
   89.9423   99.7681  -42.6652 C   0  0  0  0  0  0  0  0  0  0  0  0
   88.8679   99.1213  -42.4422 O   0  0  0  0  0  0  0  0  0  0  0  0
   90.5854  103.0583  -40.9799 C   0  0  0  0  0  0  0  0  0  0  0  0
   91.7563  103.2999  -41.5637 C   0  0  0  0  0  0  0  0  0  0  0  0
   90.5558   97.4429  -45.4316 Br  0  0  0  0  0  0  0  0  0  0  0  0
   91.2650   96.8353  -43.7592 C   0  0  0  0  0  0  0  0  0  0  0  0
   91.4818   97.7932  -42.7954 C   0  0  0  0  0  0  0  0  0  0  0  0
   92.0011   97.3434  -41.5805 C   0  0  0  0  0  0  0  0  0  0  0  0
   92.2725   96.0102  -41.3812 C   0  0  0  0  0  0  0  0  0  0  0  0
   92.0540   95.0468  -42.3520 C   0  0  0  0  0  0  0  0  0  0  0  0
   91.5406   95.4851  -43.5568 C   0  0  0  0  0  0  0  0  0  0  0  0
   92.3426   93.6744  -42.1153 N   0  0  0  0  0  0  0  0  0  0  0  0
   91.6424   92.8192  -42.6849 O   0  0  0  0  0  0  0  0  0  0  0  0
   93.3451   93.2274  -41.2989 O   0  0  0  0  0  0  0  0  0  0  0  0
 13 14  1  0  0  0
 14 15  2  0  0  0
 14 19  1  0  0  0
 15 16  1  0  0  0
 15  1  1  0  0  0
 16 17  2  0  0  0
 17 18  1  0  0  0
 18 19  2  0  0  0
 18 20  1  0  0  0
 20 21  2  0  0  0
 20 22  1  0  0  0
  1  2  1  0  0  0
  1  9  1  0  0  0
  2  3  2  0  0  0
  2  4  1  0  0  0
  4  5  1  0  0  0
  4  8  1  0  0  0
  5  6  1  0  0  0
  5 12  1  0  0  0
  6  7  1  0  0  0
  7  8  1  0  0  0
  7 11  1  0  0  0
  8  9  1  0  0  0
  9 10  2  0  0  0
 11 12  2  0  0  0
M  CHG 1  22  -1
M  END
> <minimizedAffinity>
-5.78494

$$$$
1301


 24 27  0  0  0  0  0  0  0  0999 V2000
   91.0937   98.0605  -44.3459 N   0  0  0  0  0  0  0  0  0  0  0  0
   89.7955   98.5465  -44.6670 C   0  0  0  0  0  0  0  0  0  0  0  0
   88.7959   97.8778  -45.0078 O   0  0  0  0  0  0  0  0  0  0  0  0
   89.7771  100.0352  -44.5380 C   0  0  0  0  0  0  0  0  0  0  0  0
   89.4645  100.4749  -43.1467 C   0  0  0  0  0  0  0  0  0  0  0  0
   90.6955  100.2900  -42.4691 O   0  0  0  0  0  0  0  0  0  0  0  0
   91.4695  101.1076  -43.3311 C   0  0  0  0  0  0  0  0  0  0  0  0
   91.2526  100.4149  -44.6365 C   0  0  0  0  0  0  0  0  0  0  0  0
   91.9807   99.1243  -44.6658 C   0  0  0  0  0  0  0  0  0  0  0  0
   93.1939   98.9947  -44.9318 O   0  0  0  0  0  0  0  0  0  0  0  0
   90.6613  102.3620  -43.2576 C   0  0  0  0  0  0  0  0  0  0  0  0
   89.3848  101.9598  -43.1273 C   0  0  0  0  0  0  0  0  0  0  0  0
   92.8660  101.2487  -42.8975 C   0  0  0  0  0  0  0  0  0  0  0  0
   91.7829   92.8871  -45.2741 Br  0  0  0  0  0  0  0  0  0  0  0  0
   91.7166   94.3885  -44.1071 C   0  0  0  0  0  0  0  0  0  0  0  0
   91.9492   94.1895  -42.7662 C   0  0  0  0  0  0  0  0  0  0  0  0
   91.8952   95.2924  -41.9457 C   0  0  0  0  0  0  0  0  0  0  0  0
   91.6149   96.5593  -42.4693 C   0  0  0  0  0  0  0  0  0  0  0  0
   91.3796   96.7750  -43.8121 C   0  0  0  0  0  0  0  0  0  0  0  0
   91.4363   95.6559  -44.6243 C   0  0  0  0  0  0  0  0  0  0  0  0
   92.2512   92.8405  -42.2043 C   0  0  0  0  0  0  0  0  0  0  0  0
   88.3322   99.7928  -42.4957 C   0  0  0  0  0  0  0  0  0  0  0  0
   87.3313  100.6847  -42.1176 O   0  0  0  0  0  0  0  0  0  0  0  0
   87.4057  100.9733  -41.1653 H   0  0  0  0  0  0  0  0  0  0  0  0
 14 15  1  0  0  0
 15 16  2  0  0  0
 15 20  1  0  0  0
 16 17  1  0  0  0
 16 21  1  0  0  0
 17 18  2  0  0  0
 18 19  1  0  0  0
 19 20  2  0  0  0
 19  1  1  0  0  0
  1  2  1  0  0  0
  1  9  1  0  0  0
  2  3  2  0  0  0
  2  4  1  0  0  0
  4  5  1  0  0  0
  4  8  1  0  0  0
  5  6  1  0  0  0
  5 12  1  0  0  0
  5 22  1  0  0  0
  6  7  1  0  0  0
  7  8  1  0  0  0
  7 11  1  0  0  0
  7 13  1  0  0  0
  8  9  1  0  0  0
  9 10  2  0  0  0
 11 12  2  0  0  0
 22 23  1  0  0  0
 23 24  1  0  0  0
M  END
> <minimizedAffinity>
-6.60579

$$$$
1310


 32 35  0  0  0  0  0  0  0  0999 V2000
   90.8093   97.7348  -45.4227 C   0  0  0  0  0  0  0  0  0  0  0  0
   89.4703   97.9148  -45.9401 N   0  0  0  0  0  0  0  0  0  0  0  0
   88.6175   98.0863  -44.8219 C   0  0  0  0  0  0  0  0  0  0  0  0
   87.3921   97.8236  -44.7363 O   0  0  0  0  0  0  0  0  0  0  0  0
   89.4545   98.6415  -43.7576 C   0  0  0  0  0  0  0  0  0  0  0  0
   89.1376   98.9552  -42.5874 O   0  0  0  0  0  0  0  0  0  0  0  0
   90.7999   98.7687  -44.3399 C   0  0  0  0  0  0  0  0  0  0  0  0
   91.7319   99.5976  -43.9282 C   0  0  0  0  0  0  0  0  0  0  0  0
   92.9690   99.5382  -44.5822 O   0  0  0  0  0  0  0  0  0  0  0  0
   91.5093  100.5633  -42.8336 C   0  0  0  0  0  0  0  0  0  0  0  0
   90.7839  101.6419  -42.8308 O   0  0  0  0  0  0  0  0  0  0  0  0
   90.8248  102.2503  -41.6670 C   0  0  0  0  0  0  0  0  0  0  0  0
   91.6417  101.5282  -40.8123 C   0  0  0  0  0  0  0  0  0  0  0  0
   92.0673  100.4567  -41.5735 C   0  0  0  0  0  0  0  0  0  0  0  0
   91.8525  101.9571  -39.5198 C   0  0  0  0  0  0  0  0  0  0  0  0
   91.2719  103.1028  -39.0249 C   0  0  0  0  0  0  0  0  0  0  0  0
   90.4570  103.8324  -39.8623 C   0  0  0  0  0  0  0  0  0  0  0  0
   90.2411  103.4022  -41.1704 C   0  0  0  0  0  0  0  0  0  0  0  0
   92.1667   94.3726  -41.4167 Br  0  0  0  0  0  0  0  0  0  0  0  0
   91.6906   94.7456  -43.2431 C   0  0  0  0  0  0  0  0  0  0  0  0
   91.4357   96.0563  -43.6516 C   0  0  0  0  0  0  0  0  0  0  0  0
   91.0938   96.3803  -44.9397 C   0  0  0  0  0  0  0  0  0  0  0  0
   91.0125   95.3073  -45.8433 C   0  0  0  0  0  0  0  0  0  0  0  0
   91.2601   94.0113  -45.4543 C   0  0  0  0  0  0  0  0  0  0  0  0
   91.6021   93.7150  -44.1534 C   0  0  0  0  0  0  0  0  0  0  0  0
   88.9937   97.9549  -47.3210 C   0  0  0  0  0  0  0  0  0  0  0  0
   88.4169   96.6105  -47.7224 C   0  0  0  0  0  0  0  0  0  0  0  0
   87.0374   96.7230  -48.3158 C   0  0  0  0  0  0  0  0  0  0  0  0
   86.0988   97.0543  -47.2923 N   0  0  0  0  0  0  0  0  0  0  0  0
   85.2779   98.2017  -47.6167 C   0  0  0  0  0  0  0  0  0  0  0  0
   85.2259   95.9919  -46.8937 C   0  0  0  0  0  0  0  0  0  0  0  0
   86.6585   97.3335  -46.4319 H   0  0  0  0  0  0  0  0  0  0  0  0
 19 20  1  0  0  0
 20 21  2  0  0  0
 20 25  1  0  0  0
 21 22  1  0  0  0
 22 23  2  0  0  0
 22  1  1  0  0  0
 23 24  1  0  0  0
 24 25  2  0  0  0
  1  2  1  0  0  0
  1  7  1  0  0  0
  2  3  1  0  0  0
  2 26  1  0  0  0
  3  4  2  0  0  0
  3  5  1  0  0  0
  5  6  2  0  0  0
  5  7  1  0  0  0
  7  8  2  0  0  0
  8  9  1  0  0  0
  8 10  1  0  0  0
 10 11  1  0  0  0
 10 14  2  0  0  0
 11 12  1  0  0  0
 12 13  2  0  0  0
 12 18  1  0  0  0
 13 14  1  0  0  0
 13 15  1  0  0  0
 15 16  2  0  0  0
 16 17  1  0  0  0
 17 18  2  0  0  0
 26 27  1  0  0  0
 27 28  1  0  0  0
 28 29  1  0  0  0
 29 30  1  0  0  0
 29 31  1  0  0  0
 29 32  1  0  0  0
M  CHG 1   9  -1
M  CHG 1  29   1
M  END
> <minimizedAffinity>
-6.39331

$$$$
1314


 32 35  0  0  0  0  0  0  0  0999 V2000
   91.3991   93.0787  -45.4676 C   0  0  0  0  0  0  0  0  0  0  0  0
   91.9685   92.8999  -44.3148 N   0  0  0  0  0  0  0  0  0  0  0  0
   92.0368   94.0237  -43.6882 N   0  0  0  0  0  0  0  0  0  0  0  0
   91.4902   95.0676  -44.4226 N   0  0  0  0  0  0  0  0  0  0  0  0
   91.0773   94.5120  -45.5402 C   0  0  0  0  0  0  0  0  0  0  0  0
   91.5624   96.3437  -43.8660 C   0  0  0  0  0  0  0  0  0  0  0  0
   91.7446   97.4759  -44.6598 N   0  0  0  0  0  0  0  0  0  0  0  0
   91.8880   98.4835  -43.8943 O   0  0  0  0  0  0  0  0  0  0  0  0
   91.8177   98.1586  -42.6656 N   0  0  0  0  0  0  0  0  0  0  0  0
   91.6139   96.8118  -42.6186 C   0  0  0  0  0  0  0  0  0  0  0  0
   91.5109   96.1381  -41.3584 N   0  0  0  0  0  0  0  0  0  0  0  0
   90.6223   96.2338  -40.8468 H   0  0  0  0  0  0  0  0  0  0  0  0
   92.3081   95.6427  -40.9644 H   0  0  0  0  0  0  0  0  0  0  0  0
   92.1104   90.9342  -46.7154 N   0  0  0  0  0  0  0  0  0  0  0  0
   91.3104   92.2516  -46.6011 C   0  0  0  0  0  0  0  0  0  0  0  0
   90.6260   92.4800  -47.5921 O   0  0  0  0  0  0  0  0  0  0  0  0
   92.6609   90.7065  -45.8918 H   0  0  0  0  0  0  0  0  0  0  0  0
   91.9803   89.8265  -48.9362 C   0  0  0  0  0  0  0  0  0  0  0  0
   91.8542   90.5182  -47.9108 N   0  0  0  0  0  0  0  0  0  0  0  0
   89.8845   87.7012  -49.4408 Br  0  0  0  0  0  0  0  0  0  0  0  0
   90.0300   89.3254  -50.3917 C   0  0  0  0  0  0  0  0  0  0  0  0
   90.9329   90.2778  -49.9844 C   0  0  0  0  0  0  0  0  0  0  0  0
   91.1008   91.4283  -50.6374 C   0  0  0  0  0  0  0  0  0  0  0  0
   90.3340   91.7093  -51.8107 C   0  0  0  0  0  0  0  0  0  0  0  0
   89.4553   90.7784  -52.2523 C   0  0  0  0  0  0  0  0  0  0  0  0
   89.2913   89.5795  -51.5518 C   0  0  0  0  0  0  0  0  0  0  0  0
   90.2729   94.9058  -46.6935 C   0  0  0  0  0  0  0  0  0  0  0  0
   89.5305   95.9943  -46.9229 N   0  0  0  0  0  0  0  0  0  0  0  0
   88.8544   95.8802  -48.2074 C   0  0  0  0  0  0  0  0  0  0  0  0
   87.4263   96.2802  -47.9866 C   0  0  0  0  0  0  0  0  0  0  0  0
   87.3058   96.5750  -46.4948 C   0  0  0  0  0  0  0  0  0  0  0  0
   88.7902   96.8283  -46.1331 C   0  0  0  0  0  0  0  0  0  0  0  0
 20 21  1  0  0  0
 21 22  2  0  0  0
 21 26  1  0  0  0
 22 23  1  0  0  0
 22 18  1  0  0  0
 23 24  2  0  0  0
 24 25  1  0  0  0
 25 26  2  0  0  0
 18 19  2  0  0  0
 19 14  1  0  0  0
 14 15  1  0  0  0
 15 16  2  0  0  0
 15  1  1  0  0  0
  1  2  1  0  0  0
  1  5  2  0  0  0
  2  3  2  0  0  0
  3  4  1  0  0  0
  4  5  1  0  0  0
  4  6  1  0  0  0
  5 27  1  0  0  0
 27 28  1  0  0  0
 28 29  1  0  0  0
 28 32  1  0  0  0
 29 30  1  0  0  0
 30 31  1  0  0  0
 31 32  1  0  0  0
  6  7  2  0  0  0
  6 10  1  0  0  0
  7  8  1  0  0  0
  8  9  1  0  0  0
  9 10  2  0  0  0
 10 11  1  0  0  0
 14 17  1  0  0  0
 11 12  1  0  0  0
 11 13  1  0  0  0
M  END
> <minimizedAffinity>
-7.20235

$$$$
1315


 30 33  0  0  0  0  0  0  0  0999 V2000
   89.1408   98.0579  -44.7347 N   0  0  0  0  0  0  0  0  0  0  0  0
   88.5199   97.4085  -45.7725 C   0  0  0  0  0  0  0  0  0  0  0  0
   87.1799   97.4723  -45.5221 C   0  0  0  0  0  0  0  0  0  0  0  0
   86.2852   96.8822  -46.4197 C   0  0  0  0  0  0  0  0  0  0  0  0
   86.7703   96.2461  -47.5424 C   0  0  0  0  0  0  0  0  0  0  0  0
   88.1225   96.1809  -47.7987 C   0  0  0  0  0  0  0  0  0  0  0  0
   89.0074   96.7744  -46.8950 C   0  0  0  0  0  0  0  0  0  0  0  0
   87.0077   98.1473  -44.3643 N   0  0  0  0  0  0  0  0  0  0  0  0
   88.1932   98.5130  -43.8720 C   0  0  0  0  0  0  0  0  0  0  0  0
   88.3885   99.2609  -42.8091 N   0  0  0  0  0  0  0  0  0  0  0  0
   87.6381   99.5701  -42.1975 H   0  0  0  0  0  0  0  0  0  0  0  0
   89.3469   99.5745  -42.6017 H   0  0  0  0  0  0  0  0  0  0  0  0
   90.5697   98.2691  -44.6476 C   0  0  0  0  0  0  0  0  0  0  0  0
   91.2165   97.5259  -43.5589 C   0  0  0  0  0  0  0  0  0  0  0  0
   91.6435   98.2507  -42.5498 O   0  0  0  0  0  0  0  0  0  0  0  0
   91.6676   92.5828  -45.6300 Br  0  0  0  0  0  0  0  0  0  0  0  0
   91.7049   93.8638  -44.1793 C   0  0  0  0  0  0  0  0  0  0  0  0
   91.4422   95.1850  -44.4019 C   0  0  0  0  0  0  0  0  0  0  0  0
   91.4659   96.1161  -43.4035 C   0  0  0  0  0  0  0  0  0  0  0  0
   91.7786   95.6392  -42.1210 C   0  0  0  0  0  0  0  0  0  0  0  0
   92.0469   94.3241  -41.8592 C   0  0  0  0  0  0  0  0  0  0  0  0
   92.0066   93.4342  -42.9069 C   0  0  0  0  0  0  0  0  0  0  0  0
   85.6857   98.4285  -43.8320 C   0  0  0  0  0  0  0  0  0  0  0  0
   85.0966   99.7230  -44.2157 C   0  0  0  0  0  0  0  0  0  0  0  0
   85.8068  100.9209  -43.9450 N   0  0  0  0  0  0  0  0  0  0  0  0
   85.4251  101.4614  -42.6151 C   0  0  0  0  0  0  0  0  0  0  0  0
   83.9525  101.6811  -42.4991 C   0  0  0  0  0  0  0  0  0  0  0  0
   83.6265  102.7230  -43.3690 O   0  0  0  0  0  0  0  0  0  0  0  0
   83.9843  102.4381  -44.6632 C   0  0  0  0  0  0  0  0  0  0  0  0
   85.4165  102.0152  -44.8496 C   0  0  0  0  0  0  0  0  0  0  0  0
 16 17  1  0  0  0
 17 18  2  0  0  0
 17 22  1  0  0  0
 18 19  1  0  0  0
 19 20  2  0  0  0
 19 14  1  0  0  0
 20 21  1  0  0  0
 21 22  2  0  0  0
 14 15  2  0  0  0
 14 13  1  0  0  0
 13  1  1  0  0  0
  1  2  1  0  0  0
  1  9  1  0  0  0
  2  3  1  0  0  0
  2  7  2  0  0  0
  3  4  2  0  0  0
  3  8  1  0  0  0
  4  5  1  0  0  0
  5  6  2  0  0  0
  6  7  1  0  0  0
  8  9  1  0  0  0
  8 23  1  0  0  0
  9 10  2  0  0  0
 23 24  1  0  0  0
 24 25  1  0  0  0
 25 26  1  0  0  0
 25 30  1  0  0  0
 26 27  1  0  0  0
 27 28  1  0  0  0
 28 29  1  0  0  0
 29 30  1  0  0  0
 10 11  1  0  0  0
 10 12  1  0  0  0
M  END
> <minimizedAffinity>
-6.01300

$$$$
1325


 31 34  0  0  0  0  0  0  0  0999 V2000
   90.3739  101.2213  -44.0897 C   0  0  0  0  0  0  0  0  0  0  0  0
   91.2284  101.6854  -43.0368 N   0  0  0  0  0  0  0  0  0  0  0  0
   92.4862  100.9907  -43.2882 C   0  0  0  0  0  0  0  0  0  0  0  0
   93.6241  101.3774  -42.9425 O   0  0  0  0  0  0  0  0  0  0  0  0
   92.1746   99.7709  -44.0095 C   0  0  0  0  0  0  0  0  0  0  0  0
   92.9595   98.8703  -44.4319 O   0  0  0  0  0  0  0  0  0  0  0  0
   90.7169   99.7725  -44.1698 C   0  0  0  0  0  0  0  0  0  0  0  0
   89.9664   98.7255  -44.3747 C   0  0  0  0  0  0  0  0  0  0  0  0
   88.5922   98.9179  -44.5625 O   0  0  0  0  0  0  0  0  0  0  0  0
   90.5298   97.3611  -44.4048 C   0  0  0  0  0  0  0  0  0  0  0  0
   90.9763   96.6896  -43.3492 O   0  0  0  0  0  0  0  0  0  0  0  0
   91.4183   95.5056  -43.6856 C   0  0  0  0  0  0  0  0  0  0  0  0
   91.2812   95.3280  -45.0464 C   0  0  0  0  0  0  0  0  0  0  0  0
   90.7168   96.5182  -45.4736 C   0  0  0  0  0  0  0  0  0  0  0  0
   91.6782   94.1535  -45.6450 C   0  0  0  0  0  0  0  0  0  0  0  0
   92.2270   93.1038  -44.9417 C   0  0  0  0  0  0  0  0  0  0  0  0
   92.3681   93.2773  -43.5768 C   0  0  0  0  0  0  0  0  0  0  0  0
   91.9755   94.4461  -42.9626 C   0  0  0  0  0  0  0  0  0  0  0  0
   84.3245  102.5314  -44.1967 Br  0  0  0  0  0  0  0  0  0  0  0  0
   86.1965  102.1269  -44.1480 C   0  0  0  0  0  0  0  0  0  0  0  0
   87.0073  102.3254  -45.2377 C   0  0  0  0  0  0  0  0  0  0  0  0
   88.3449  102.0285  -45.1765 C   0  0  0  0  0  0  0  0  0  0  0  0
   88.9640  101.5125  -44.0234 C   0  0  0  0  0  0  0  0  0  0  0  0
   88.1423  101.3236  -42.9559 C   0  0  0  0  0  0  0  0  0  0  0  0
   86.7948  101.6229  -43.0165 C   0  0  0  0  0  0  0  0  0  0  0  0
   91.0580  102.6503  -41.9735 C   0  0  0  0  0  0  0  0  0  0  0  0
   91.0201  102.1592  -40.5880 C   0  0  0  0  0  0  0  0  0  0  0  0
   91.9298  102.7607  -39.6482 N   0  0  0  0  0  0  0  0  0  0  0  0
   91.2859  103.1415  -38.4231 C   0  0  0  0  0  0  0  0  0  0  0  0
   93.1766  102.0690  -39.4849 C   0  0  0  0  0  0  0  0  0  0  0  0
   92.1891  103.6977  -40.1132 H   0  0  0  0  0  0  0  0  0  0  0  0
 19 20  1  0  0  0
 20 21  2  0  0  0
 20 25  1  0  0  0
 21 22  1  0  0  0
 22 23  2  0  0  0
 23 24  1  0  0  0
 23  1  1  0  0  0
 24 25  2  0  0  0
  1  2  1  0  0  0
  1  7  1  0  0  0
  2  3  1  0  0  0
  2 26  1  0  0  0
  3  4  2  0  0  0
  3  5  1  0  0  0
  5  6  2  0  0  0
  5  7  1  0  0  0
  7  8  2  0  0  0
  8  9  1  0  0  0
  8 10  1  0  0  0
 10 11  1  0  0  0
 10 14  2  0  0  0
 11 12  1  0  0  0
 12 13  2  0  0  0
 12 18  1  0  0  0
 13 14  1  0  0  0
 13 15  1  0  0  0
 15 16  2  0  0  0
 16 17  1  0  0  0
 17 18  2  0  0  0
 26 27  1  0  0  0
 27 28  1  0  0  0
 28 29  1  0  0  0
 28 30  1  0  0  0
 28 31  1  0  0  0
M  CHG 1   9  -1
M  CHG 1  28   1
M  END
> <minimizedAffinity>
-5.65469

$$$$
1329


 28 31  0  0  0  0  0  0  0  0999 V2000
   91.7739   98.1505  -42.5052 C   0  0  0  0  0  0  0  0  0  0  0  0
   90.6899   98.9041  -42.6987 C   0  0  0  0  0  0  0  0  0  0  0  0
   89.4245   98.4727  -43.0916 O   0  0  0  0  0  0  0  0  0  0  0  0
   88.5594   99.5285  -43.1800 C   0  0  0  0  0  0  0  0  0  0  0  0
   89.2097  100.7128  -42.8508 C   0  0  0  0  0  0  0  0  0  0  0  0
   88.4808  101.8911  -42.8803 C   0  0  0  0  0  0  0  0  0  0  0  0
   87.1489  101.8735  -43.2263 C   0  0  0  0  0  0  0  0  0  0  0  0
   86.5292  100.6643  -43.5514 C   0  0  0  0  0  0  0  0  0  0  0  0
   87.2264   99.4853  -43.5319 C   0  0  0  0  0  0  0  0  0  0  0  0
   85.1868  100.7523  -43.8864 O   0  0  0  0  0  0  0  0  0  0  0  0
   90.6015  100.3525  -42.5308 C   0  0  0  0  0  0  0  0  0  0  0  0
   91.4949  101.1710  -42.1919 O   0  0  0  0  0  0  0  0  0  0  0  0
   91.3309   94.0342  -45.8666 Br  0  0  0  0  0  0  0  0  0  0  0  0
   91.5368   94.7892  -44.1236 C   0  0  0  0  0  0  0  0  0  0  0  0
   91.5898   96.1702  -43.9546 C   0  0  0  0  0  0  0  0  0  0  0  0
   91.7312   96.7145  -42.6974 C   0  0  0  0  0  0  0  0  0  0  0  0
   91.8214   95.9002  -41.5950 C   0  0  0  0  0  0  0  0  0  0  0  0
   91.7658   94.5387  -41.7799 C   0  0  0  0  0  0  0  0  0  0  0  0
   91.6270   93.9559  -43.0193 C   0  0  0  0  0  0  0  0  0  0  0  0
   86.5520   98.2578  -43.9578 C   0  0  0  0  0  0  0  0  0  0  0  0
   85.9620   98.2756  -45.2467 N   0  0  0  0  0  0  0  0  0  0  0  0
   85.1040   97.1087  -45.3715 C   0  0  0  0  0  0  0  0  0  0  0  0
   85.1171   96.4519  -46.7085 C   0  0  0  0  0  0  0  0  0  0  0  0
   86.4054   96.1836  -47.2438 N   0  0  0  0  0  0  0  0  0  0  0  0
   87.4300   96.8917  -46.5495 C   0  0  0  0  0  0  0  0  0  0  0  0
   86.9820   98.2862  -46.2681 C   0  0  0  0  0  0  0  0  0  0  0  0
   86.4145   96.4593  -48.6650 C   0  0  0  0  0  0  0  0  0  0  0  0
   85.3894   99.1546  -45.4266 H   0  0  0  0  0  0  0  0  0  0  0  0
 13 14  1  0  0  0
 14 15  2  0  0  0
 14 19  1  0  0  0
 15 16  1  0  0  0
 16 17  2  0  0  0
 16  1  1  0  0  0
 17 18  1  0  0  0
 18 19  2  0  0  0
  1  2  2  0  0  0
  2  3  1  0  0  0
  2 11  1  0  0  0
  3  4  1  0  0  0
  4  5  2  0  0  0
  4  9  1  0  0  0
  5  6  1  0  0  0
  5 11  1  0  0  0
  6  7  2  0  0  0
  7  8  1  0  0  0
  8  9  2  0  0  0
  8 10  1  0  0  0
  9 20  1  0  0  0
 20 21  1  0  0  0
 21 22  1  0  0  0
 21 26  1  0  0  0
 22 23  1  0  0  0
 23 24  1  0  0  0
 24 25  1  0  0  0
 24 27  1  0  0  0
 25 26  1  0  0  0
 11 12  2  0  0  0
 21 28  1  0  0  0
M  CHG 1  10  -1
M  CHG 1  21   1
M  END
> <minimizedAffinity>
-6.40353

$$$$
1337


 32 35  0  0  0  0  0  0  0  0999 V2000
   91.3764   90.9019  -47.2547 N   0  0  0  0  0  0  0  0  0  0  0  0
   92.2473   90.2060  -48.1295 C   0  0  0  0  0  0  0  0  0  0  0  0
   93.4425   90.0444  -47.7628 O   0  0  0  0  0  0  0  0  0  0  0  0
   90.3875   91.0387  -47.5532 H   0  0  0  0  0  0  0  0  0  0  0  0
   91.7406   89.6952  -49.4308 C   0  0  0  0  0  0  0  0  0  0  0  0
   91.3672   90.7391  -50.1909 O   0  0  0  0  0  0  0  0  0  0  0  0
   90.4071   90.5482  -51.1339 C   0  0  0  0  0  0  0  0  0  0  0  0
   89.9457   91.8106  -51.5345 O   0  0  0  0  0  0  0  0  0  0  0  0
   88.9117   92.1567  -50.6994 C   0  0  0  0  0  0  0  0  0  0  0  0
   88.5778   91.0610  -49.9285 O   0  0  0  0  0  0  0  0  0  0  0  0
   89.1333   89.9428  -50.5926 C   0  0  0  0  0  0  0  0  0  0  0  0
   89.3873   88.8113  -49.6731 C   0  0  0  0  0  0  0  0  0  0  0  0
   89.0074   87.5796  -50.2540 O   0  0  0  0  0  0  0  0  0  0  0  0
   89.9884   86.6665  -49.9612 C   0  0  0  0  0  0  0  0  0  0  0  0
   91.1364   87.4113  -49.8842 O   0  0  0  0  0  0  0  0  0  0  0  0
   90.7683   88.5946  -49.2268 C   0  0  0  0  0  0  0  0  0  0  0  0
   90.0387   85.6786  -51.1332 C   0  0  0  0  0  0  0  0  0  0  0  0
   89.6991   85.8460  -48.7316 C   0  0  0  0  0  0  0  0  0  0  0  0
   87.6536   92.5414  -51.4790 C   0  0  0  0  0  0  0  0  0  0  0  0
   89.2482   93.3492  -49.8191 C   0  0  0  0  0  0  0  0  0  0  0  0
   91.7807   91.4274  -45.9848 C   0  0  0  0  0  0  0  0  0  0  0  0
   91.8655   93.6676  -44.7957 N   0  0  0  0  0  0  0  0  0  0  0  0
   91.4298   92.8662  -45.8660 C   0  0  0  0  0  0  0  0  0  0  0  0
   90.7196   93.3409  -46.7746 O   0  0  0  0  0  0  0  0  0  0  0  0
   92.4702   93.1620  -44.0692 H   0  0  0  0  0  0  0  0  0  0  0  0
   90.8164   99.5455  -43.4056 Br  0  0  0  0  0  0  0  0  0  0  0  0
   91.1349   97.7234  -43.9044 C   0  0  0  0  0  0  0  0  0  0  0  0
   91.4143   96.8061  -42.9160 C   0  0  0  0  0  0  0  0  0  0  0  0
   91.6465   95.4930  -43.2544 C   0  0  0  0  0  0  0  0  0  0  0  0
   91.6171   95.0152  -44.5570 C   0  0  0  0  0  0  0  0  0  0  0  0
   91.3348   95.9560  -45.5213 C   0  0  0  0  0  0  0  0  0  0  0  0
   91.0957   97.2998  -45.1944 C   0  0  0  0  0  0  0  0  0  0  0  0
 26 27  1  0  0  0
 27 28  2  0  0  0
 27 32  1  0  0  0
 28 29  1  0  0  0
 29 30  2  0  0  0
 30 31  1  0  0  0
 30 22  1  0  0  0
 31 32  2  0  0  0
 22 23  1  0  0  0
 23 24  2  0  0  0
 23 21  1  0  0  0
 21  1  1  0  0  0
  1  2  1  0  0  0
  2  3  2  0  0  0
  2  5  1  0  0  0
  5  6  1  0  0  0
  5 16  1  0  0  0
  6  7  1  0  0  0
  7  8  1  0  0  0
  7 11  1  0  0  0
  8  9  1  0  0  0
  9 10  1  0  0  0
  9 19  1  0  0  0
  9 20  1  0  0  0
 10 11  1  0  0  0
 11 12  1  0  0  0
 12 13  1  0  0  0
 12 16  1  0  0  0
 13 14  1  0  0  0
 14 15  1  0  0  0
 14 17  1  0  0  0
 14 18  1  0  0  0
 15 16  1  0  0  0
 22 25  1  0  0  0
  1  4  1  0  0  0
M  END
> <minimizedAffinity>
-7.64243

$$$$
1341


 28 31  0  0  0  0  0  0  0  0999 V2000
   91.4469   94.8619  -44.7195 C   0  0  0  0  0  0  0  0  0  0  0  0
   91.6131   94.8706  -43.3762 N   0  0  0  0  0  0  0  0  0  0  0  0
   91.6637   96.1520  -42.9574 C   0  0  0  0  0  0  0  0  0  0  0  0
   91.5338   96.9929  -44.0060 N   0  0  0  0  0  0  0  0  0  0  0  0
   91.4005   96.1891  -45.0855 C   0  0  0  0  0  0  0  0  0  0  0  0
   91.8445   96.1912  -41.4838 C   0  0  0  0  0  0  0  0  0  0  0  0
   91.9919   94.7751  -41.0450 C   0  0  0  0  0  0  0  0  0  0  0  0
   91.7538   93.9602  -42.2616 C   0  0  0  0  0  0  0  0  0  0  0  0
   90.9396   90.2361  -48.5876 Cl  0  0  0  0  0  0  0  0  0  0  0  0
   91.0900   91.5775  -47.4600 C   0  0  0  0  0  0  0  0  0  0  0  0
   90.5491   92.8142  -47.7371 C   0  0  0  0  0  0  0  0  0  0  0  0
   90.6714   93.8659  -46.8469 C   0  0  0  0  0  0  0  0  0  0  0  0
   91.3346   93.7340  -45.6428 C   0  0  0  0  0  0  0  0  0  0  0  0
   91.8757   92.4969  -45.3620 C   0  0  0  0  0  0  0  0  0  0  0  0
   91.7546   91.4302  -46.2606 C   0  0  0  0  0  0  0  0  0  0  0  0
   91.5322   98.4416  -44.0046 C   0  0  0  0  0  0  0  0  0  0  0  0
   90.1613   98.9474  -44.2990 C   0  0  0  0  0  0  0  0  0  0  0  0
   89.9515   99.4304  -45.4133 O   0  0  0  0  0  0  0  0  0  0  0  0
   89.1972   98.8440  -43.2945 N   0  0  0  0  0  0  0  0  0  0  0  0
   89.4369   98.4138  -42.3395 H   0  0  0  0  0  0  0  0  0  0  0  0
   87.8493   99.2705  -43.4197 C   0  0  0  0  0  0  0  0  0  0  0  0
   87.5108  100.5669  -43.0107 C   0  0  0  0  0  0  0  0  0  0  0  0
   86.2272  101.0010  -43.0988 C   0  0  0  0  0  0  0  0  0  0  0  0
   85.2236  100.1835  -43.5921 C   0  0  0  0  0  0  0  0  0  0  0  0
   85.5632   98.9210  -43.9875 C   0  0  0  0  0  0  0  0  0  0  0  0
   86.8778   98.4444  -43.9088 C   0  0  0  0  0  0  0  0  0  0  0  0
   83.8272  100.6804  -43.6796 C   0  0  0  0  0  0  0  0  0  0  0  0
   83.8551  102.2052  -43.5356 C   0  0  0  0  0  0  0  0  0  0  0  0
  9 10  1  0  0  0
 10 11  2  0  0  0
 10 15  1  0  0  0
 11 12  1  0  0  0
 12 13  2  0  0  0
 13 14  1  0  0  0
 13  1  1  0  0  0
 14 15  2  0  0  0
  1  2  1  0  0  0
  1  5  2  0  0  0
  2  3  1  0  0  0
  2  8  1  0  0  0
  3  4  2  0  0  0
  3  6  1  0  0  0
  4  5  1  0  0  0
  4 16  1  0  0  0
 16 17  1  0  0  0
 17 18  2  0  0  0
 17 19  1  0  0  0
 19 21  1  0  0  0
 21 22  2  0  0  0
 21 26  1  0  0  0
 22 23  1  0  0  0
 23 24  2  0  0  0
 24 25  1  0  0  0
 24 27  1  0  0  0
 25 26  2  0  0  0
 27 28  1  0  0  0
  6  7  1  0  0  0
  7  8  1  0  0  0
 19 20  1  0  0  0
M  END
> <minimizedAffinity>
-6.50326

$$$$
1343


 41 44  0  0  0  0  0  0  0  0999 V2000
   91.5374  100.8954  -41.8986 C   0  0  0  0  0  0  0  0  0  0  0  0
   92.1170  101.6901  -42.8349 N   0  0  0  0  0  0  0  0  0  0  0  0
   93.3144  102.1196  -42.3594 C   0  0  0  0  0  0  0  0  0  0  0  0
   94.2834  102.9042  -42.8449 N   0  0  0  0  0  0  0  0  0  0  0  0
   95.4013  103.1769  -42.1475 C   0  0  0  0  0  0  0  0  0  0  0  0
   95.5501  102.6411  -40.9164 N   0  0  0  0  0  0  0  0  0  0  0  0
   94.6299  101.8537  -40.3709 C   0  0  0  0  0  0  0  0  0  0  0  0
   93.4853  101.5769  -41.0920 C   0  0  0  0  0  0  0  0  0  0  0  0
   92.4012  100.8561  -40.8616 N   0  0  0  0  0  0  0  0  0  0  0  0
   94.7553  101.2837  -39.0998 O   0  0  0  0  0  0  0  0  0  0  0  0
   96.4308  104.0208  -42.6841 N   0  0  0  0  0  0  0  0  0  0  0  0
   95.2334  100.3915  -39.0574 H   0  0  0  0  0  0  0  0  0  0  0  0
   96.7577  104.8872  -42.2439 H   0  0  0  0  0  0  0  0  0  0  0  0
   96.8600  103.7122  -43.5819 H   0  0  0  0  0  0  0  0  0  0  0  0
   91.5557  102.0176  -44.1090 C   0  0  0  0  0  0  0  0  0  0  0  0
   90.1771  102.1773  -44.0945 O   0  0  0  0  0  0  0  0  0  0  0  0
   89.7036  101.9862  -45.3608 C   0  0  0  0  0  0  0  0  0  0  0  0
   90.7683  101.3884  -46.2152 C   0  0  0  0  0  0  0  0  0  0  0  0
   91.8137  100.9751  -45.1772 C   0  0  0  0  0  0  0  0  0  0  0  0
   93.0994  101.0798  -45.7065 O   0  0  0  0  0  0  0  0  0  0  0  0
   91.3914  102.3877  -46.9905 O   0  0  0  0  0  0  0  0  0  0  0  0
   93.6229  100.2657  -45.4886 H   0  0  0  0  0  0  0  0  0  0  0  0
   91.7825  102.0150  -47.8097 H   0  0  0  0  0  0  0  0  0  0  0  0
   88.5457  100.9885  -45.2933 C   0  0  0  0  0  0  0  0  0  0  0  0
   88.1292  100.8298  -43.9669 O   0  0  0  0  0  0  0  0  0  0  0  0
   88.7774  101.2338  -43.3347 H   0  0  0  0  0  0  0  0  0  0  0  0
   90.2767  100.2469  -42.0104 N   0  0  0  0  0  0  0  0  0  0  0  0
   89.4528  100.6554  -41.5425 H   0  0  0  0  0  0  0  0  0  0  0  0
   91.1840   98.2421  -42.8691 C   0  0  0  0  0  0  0  0  0  0  0  0
   90.2199   99.0615  -42.7689 N   0  0  0  0  0  0  0  0  0  0  0  0
   92.1719   95.7985  -41.2954 Br  0  0  0  0  0  0  0  0  0  0  0  0
   91.5641   95.8123  -43.0968 C   0  0  0  0  0  0  0  0  0  0  0  0
   91.1547   97.0081  -43.6464 C   0  0  0  0  0  0  0  0  0  0  0  0
   90.7225   96.9705  -44.9548 C   0  0  0  0  0  0  0  0  0  0  0  0
   90.6941   95.8062  -45.6933 C   0  0  0  0  0  0  0  0  0  0  0  0
   91.1031   94.6097  -45.1431 C   0  0  0  0  0  0  0  0  0  0  0  0
   91.5391   94.6263  -43.8354 C   0  0  0  0  0  0  0  0  0  0  0  0
   90.2557   95.7770  -47.0136 O   0  0  0  0  0  0  0  0  0  0  0  0
   88.9571   96.0685  -47.4229 C   0  0  0  0  0  0  0  0  0  0  0  0
   91.0715   93.4348  -45.8956 O   0  0  0  0  0  0  0  0  0  0  0  0
   91.7589   92.2745  -45.5362 C   0  0  0  0  0  0  0  0  0  0  0  0
 31 32  1  0  0  0
 32 33  2  0  0  0
 32 37  1  0  0  0
 33 34  1  0  0  0
 33 29  1  0  0  0
 34 35  2  0  0  0
 35 36  1  0  0  0
 35 38  1  0  0  0
 36 37  2  0  0  0
 36 40  1  0  0  0
 40 41  1  0  0  0
 38 39  1  0  0  0
 29 30  2  0  0  0
 30 27  1  0  0  0
 27  1  1  0  0  0
  1  2  1  0  0  0
  1  9  2  0  0  0
  2  3  1  0  0  0
  2 15  1  0  0  0
  3  4  2  0  0  0
  3  8  1  0  0  0
  4  5  1  0  0  0
  5  6  2  0  0  0
  5 11  1  0  0  0
  6  7  1  0  0  0
  7  8  2  0  0  0
  7 10  1  0  0  0
  8  9  1  0  0  0
 15 16  1  0  0  0
 15 19  1  0  0  0
 16 17  1  0  0  0
 17 18  1  0  0  0
 17 24  1  0  0  0
 18 19  1  0  0  0
 18 21  1  0  0  0
 19 20  1  0  0  0
 24 25  1  0  0  0
 27 28  1  0  0  0
 10 12  1  0  0  0
 11 13  1  0  0  0
 11 14  1  0  0  0
 20 22  1  0  0  0
 21 23  1  0  0  0
 25 26  1  0  0  0
M  END
> <minimizedAffinity>
-6.77733

$$$$
1355


 27 30  0  0  0  0  0  0  0  0999 V2000
   93.1884  101.7086  -43.4720 N   0  0  0  0  0  0  0  0  0  0  0  0
   92.6185  102.9064  -43.0058 C   0  0  0  0  0  0  0  0  0  0  0  0
   91.5783  103.3436  -43.5451 O   0  0  0  0  0  0  0  0  0  0  0  0
   94.0527  101.3497  -43.0199 H   0  0  0  0  0  0  0  0  0  0  0  0
   93.2385  103.6427  -41.8939 C   0  0  0  0  0  0  0  0  0  0  0  0
   92.2156  104.4068  -41.0740 C   0  0  0  0  0  0  0  0  0  0  0  0
   92.8284  104.9905  -39.8453 C   0  0  0  0  0  0  0  0  0  0  0  0
   92.7562  104.1248  -38.6301 C   0  0  0  0  0  0  0  0  0  0  0  0
   92.7339  102.6398  -38.9789 C   0  0  0  0  0  0  0  0  0  0  0  0
   93.8914  102.3732  -39.8013 N   0  0  0  0  0  0  0  0  0  0  0  0
   94.9071  101.6517  -39.4088 N   0  0  0  0  0  0  0  0  0  0  0  0
   95.7860  101.6011  -40.3788 N   0  0  0  0  0  0  0  0  0  0  0  0
   95.3056  102.3027  -41.3871 N   0  0  0  0  0  0  0  0  0  0  0  0
   94.1049  102.8053  -41.0510 C   0  0  0  0  0  0  0  0  0  0  0  0
   92.5943  100.9663  -44.5687 C   0  0  0  0  0  0  0  0  0  0  0  0
   91.4429   97.7023  -43.3601 C   0  0  0  0  0  0  0  0  0  0  0  0
   90.3299   98.4510  -43.2913 N   0  0  0  0  0  0  0  0  0  0  0  0
   90.5988   99.6723  -43.7025 O   0  0  0  0  0  0  0  0  0  0  0  0
   91.8593   99.7593  -44.0441 C   0  0  0  0  0  0  0  0  0  0  0  0
   92.3882   98.5340  -43.8325 N   0  0  0  0  0  0  0  0  0  0  0  0
   91.2630   95.7323  -45.6022 Cl  0  0  0  0  0  0  0  0  0  0  0  0
   91.5308   95.2847  -43.9352 C   0  0  0  0  0  0  0  0  0  0  0  0
   91.5920   96.2963  -43.0007 C   0  0  0  0  0  0  0  0  0  0  0  0
   91.8042   95.9107  -41.6986 C   0  0  0  0  0  0  0  0  0  0  0  0
   91.9494   94.5936  -41.3266 C   0  0  0  0  0  0  0  0  0  0  0  0
   91.8828   93.5804  -42.2910 C   0  0  0  0  0  0  0  0  0  0  0  0
   91.6722   93.9424  -43.5975 C   0  0  0  0  0  0  0  0  0  0  0  0
 21 22  1  0  0  0
 22 23  2  0  0  0
 22 27  1  0  0  0
 23 24  1  0  0  0
 23 16  1  0  0  0
 24 25  2  0  0  0
 25 26  1  0  0  0
 26 27  2  0  0  0
 16 17  2  0  0  0
 16 20  1  0  0  0
 17 18  1  0  0  0
 18 19  1  0  0  0
 19 20  2  0  0  0
 19 15  1  0  0  0
 15  1  1  0  0  0
  1  2  1  0  0  0
  2  3  2  0  0  0
  2  5  1  0  0  0
  5  6  1  0  0  0
  5 14  1  0  0  0
  6  7  1  0  0  0
  7  8  1  0  0  0
  8  9  1  0  0  0
  9 10  1  0  0  0
 10 11  1  0  0  0
 10 14  1  0  0  0
 11 12  2  0  0  0
 12 13  1  0  0  0
 13 14  2  0  0  0
  1  4  1  0  0  0
M  END
> <minimizedAffinity>
-6.70734

$$$$
1357


 24 27  0  0  0  0  0  0  0  0999 V2000
   90.3877   97.3931  -44.7824 C   0  0  0  0  0  0  0  0  0  0  0  0
   90.0203   98.6834  -44.3966 C   0  0  0  0  0  0  0  0  0  0  0  0
   90.7005   99.9622  -44.0542 C   0  0  0  0  0  0  0  0  0  0  0  0
   90.5730  100.5274  -45.4210 N   0  0  0  0  0  0  0  0  0  0  0  0
   90.7933   99.5706  -46.2673 C   0  0  0  0  0  0  0  0  0  0  0  0
   91.0722   98.3908  -45.5104 C   0  0  0  0  0  0  0  0  0  0  0  0
   90.7586   99.6937  -47.7068 N   0  0  0  0  0  0  0  0  0  0  0  0
   89.8688  100.6778  -43.1857 O   0  0  0  0  0  0  0  0  0  0  0  0
   90.6433  101.0607  -42.1079 C   0  0  0  0  0  0  0  0  0  0  0  0
   92.0414  101.0750  -42.7027 C   0  0  0  0  0  0  0  0  0  0  0  0
   91.9378   99.9433  -43.5491 O   0  0  0  0  0  0  0  0  0  0  0  0
   91.0906  100.5558  -48.1796 H   0  0  0  0  0  0  0  0  0  0  0  0
   90.3996   98.9196  -48.2959 H   0  0  0  0  0  0  0  0  0  0  0  0
   91.2170   94.4694  -45.7482 Br  0  0  0  0  0  0  0  0  0  0  0  0
   91.4660   95.2643  -44.0307 C   0  0  0  0  0  0  0  0  0  0  0  0
   91.0588   96.5466  -43.7621 C   0  0  0  0  0  0  0  0  0  0  0  0
   91.2610   97.0885  -42.5150 C   0  0  0  0  0  0  0  0  0  0  0  0
   91.8739   96.3657  -41.5006 C   0  0  0  0  0  0  0  0  0  0  0  0
   92.2899   95.0797  -41.7478 C   0  0  0  0  0  0  0  0  0  0  0  0
   92.0799   94.5364  -43.0202 C   0  0  0  0  0  0  0  0  0  0  0  0
   92.5134   98.4397  -45.1202 C   0  0  0  0  0  0  0  0  0  0  0  0
   93.6617   98.4705  -44.8360 N   0  0  0  0  0  0  0  0  0  0  0  0
   88.6536   99.0641  -44.9038 C   0  0  0  0  0  0  0  0  0  0  0  0
   87.5730   99.3491  -45.2866 N   0  0  0  0  0  0  0  0  0  0  0  0
 14 15  1  0  0  0
 15 16  2  0  0  0
 15 20  1  0  0  0
 16 17  1  0  0  0
 16  1  1  0  0  0
 17 18  2  0  0  0
 18 19  1  0  0  0
 19 20  2  0  0  0
  1  2  1  0  0  0
  1  6  1  0  0  0
  2  3  1  0  0  0
  2  6  1  0  0  0
  2 23  1  0  0  0
  3  4  1  0  0  0
  3  8  1  0  0  0
  3 11  1  0  0  0
  4  5  2  0  0  0
  5  6  1  0  0  0
  5  7  1  0  0  0
  6 21  1  0  0  0
 21 22  3  0  0  0
  8  9  1  0  0  0
  9 10  1  0  0  0
 10 11  1  0  0  0
 23 24  3  0  0  0
  7 12  1  0  0  0
  7 13  1  0  0  0
M  END
> <minimizedAffinity>
-5.07742

$$$$
1360


 34 37  0  0  0  0  0  0  0  0999 V2000
   91.9349   99.9574  -42.2796 C   0  0  0  0  0  0  0  0  0  0  0  0
   91.5731   98.7398  -42.9578 N   0  0  0  0  0  0  0  0  0  0  0  0
   90.8745   99.2679  -44.1520 C   0  0  0  0  0  0  0  0  0  0  0  0
   90.6165   98.1631  -44.9920 N   0  0  0  0  0  0  0  0  0  0  0  0
   91.0127   96.9805  -44.2911 C   0  0  0  0  0  0  0  0  0  0  0  0
   91.5830   97.3536  -43.0723 C   0  0  0  0  0  0  0  0  0  0  0  0
   92.0381   96.3661  -42.2239 C   0  0  0  0  0  0  0  0  0  0  0  0
   92.5476   96.7266  -41.1318 O   0  0  0  0  0  0  0  0  0  0  0  0
   91.9250   95.0819  -42.5821 N   0  0  0  0  0  0  0  0  0  0  0  0
   91.3806   94.7576  -43.7427 C   0  0  0  0  0  0  0  0  0  0  0  0
   91.2927   93.5357  -44.0421 O   0  0  0  0  0  0  0  0  0  0  0  0
   90.9111   95.6912  -44.6264 N   0  0  0  0  0  0  0  0  0  0  0  0
   90.3359   95.2046  -45.8600 C   0  0  0  0  0  0  0  0  0  0  0  0
   92.4220   94.0643  -41.6498 C   0  0  0  0  0  0  0  0  0  0  0  0
   90.0295   98.1599  -46.3073 C   0  0  0  0  0  0  0  0  0  0  0  0
   91.7073  100.3942  -44.5992 C   0  0  0  0  0  0  0  0  0  0  0  0
   92.6803  100.6398  -43.4377 C   0  0  0  0  0  0  0  0  0  0  0  0
   90.7784  100.7480  -41.9258 C   0  0  0  0  0  0  0  0  0  0  0  0
   89.6726  100.3332  -42.4758 O   0  0  0  0  0  0  0  0  0  0  0  0
   90.4463  105.6008  -38.1978 Br  0  0  0  0  0  0  0  0  0  0  0  0
   90.5344  104.0937  -39.3603 C   0  0  0  0  0  0  0  0  0  0  0  0
   89.8769  104.0994  -40.5813 C   0  0  0  0  0  0  0  0  0  0  0  0
   89.9275  103.0242  -41.4335 C   0  0  0  0  0  0  0  0  0  0  0  0
   90.6471  101.9093  -41.0742 C   0  0  0  0  0  0  0  0  0  0  0  0
   91.3158  101.8862  -39.8476 C   0  0  0  0  0  0  0  0  0  0  0  0
   91.2566  102.9687  -39.0044 C   0  0  0  0  0  0  0  0  0  0  0  0
   92.9116  102.0630  -43.2122 C   0  0  0  0  0  0  0  0  0  0  0  0
   92.2917  102.9281  -43.9158 O   0  0  0  0  0  0  0  0  0  0  0  0
   93.7829  102.5163  -42.2589 O   0  0  0  0  0  0  0  0  0  0  0  0
   93.7990  103.8693  -41.7975 C   0  0  0  0  0  0  0  0  0  0  0  0
   92.4178  100.2887  -45.8667 C   0  0  0  0  0  0  0  0  0  0  0  0
   93.2468   99.3585  -46.0458 O   0  0  0  0  0  0  0  0  0  0  0  0
   92.2110  101.1836  -46.8938 O   0  0  0  0  0  0  0  0  0  0  0  0
   90.9698  101.8316  -47.0672 C   0  0  0  0  0  0  0  0  0  0  0  0
 20 21  1  0  0  0
 21 22  2  0  0  0
 21 26  1  0  0  0
 22 23  1  0  0  0
 23 24  2  0  0  0
 24 25  1  0  0  0
 24 18  1  0  0  0
 25 26  2  0  0  0
 18 19  2  0  0  0
 18  1  1  0  0  0
  1  2  1  0  0  0
  1 17  1  0  0  0
  2  3  1  0  0  0
  2  6  1  0  0  0
  3  4  1  0  0  0
  3 16  1  0  0  0
  4  5  1  0  0  0
  4 15  1  0  0  0
  5  6  2  0  0  0
  5 12  1  0  0  0
  6  7  1  0  0  0
  7  8  2  0  0  0
  7  9  1  0  0  0
  9 10  1  0  0  0
  9 14  1  0  0  0
 10 11  2  0  0  0
 10 12  1  0  0  0
 12 13  1  0  0  0
 16 17  1  0  0  0
 16 31  1  0  0  0
 17 27  1  0  0  0
 27 28  2  0  0  0
 27 29  1  0  0  0
 29 30  1  0  0  0
 31 32  2  0  0  0
 31 33  1  0  0  0
 33 34  1  0  0  0
M  END
> <minimizedAffinity>
-6.16921

$$$$
1372


 31 34  0  0  0  0  0  0  0  0999 V2000
   92.2085  100.2218  -42.8841 C   0  0  0  0  0  0  0  0  0  0  0  0
   92.5182   99.9908  -44.0711 O   0  0  0  0  0  0  0  0  0  0  0  0
   92.9088  101.1857  -42.1502 N   0  0  0  0  0  0  0  0  0  0  0  0
   93.7518  102.2485  -42.5826 C   0  0  0  0  0  0  0  0  0  0  0  0
   93.5672  103.3371  -41.5138 C   0  0  0  0  0  0  0  0  0  0  0  0
   92.1936  103.2918  -40.8911 C   0  0  0  0  0  0  0  0  0  0  0  0
   92.0400  104.3103  -39.8883 N   0  0  0  0  0  0  0  0  0  0  0  0
   90.7172  104.1323  -39.2732 C   0  0  0  0  0  0  0  0  0  0  0  0
   89.6107  104.4258  -40.2376 C   0  0  0  0  0  0  0  0  0  0  0  0
   89.9555  104.0670  -41.6319 C   0  0  0  0  0  0  0  0  0  0  0  0
   89.2367  104.1671  -42.7543 N   0  0  0  0  0  0  0  0  0  0  0  0
   89.9794  103.7077  -43.7812 C   0  0  0  0  0  0  0  0  0  0  0  0
   91.1603  103.3236  -43.2778 N   0  0  0  0  0  0  0  0  0  0  0  0
   91.2064  103.5225  -41.9521 C   0  0  0  0  0  0  0  0  0  0  0  0
   91.9313  101.9748  -40.1427 C   0  0  0  0  0  0  0  0  0  0  0  0
   92.9461  101.0453  -40.6560 C   0  0  0  0  0  0  0  0  0  0  0  0
   92.7314  104.1450  -39.1185 H   0  0  0  0  0  0  0  0  0  0  0  0
   88.2675  104.5260  -42.9002 H   0  0  0  0  0  0  0  0  0  0  0  0
   91.0705   99.4480  -42.2993 C   0  0  0  0  0  0  0  0  0  0  0  0
   89.7794  100.0105  -42.9491 C   0  0  0  0  0  0  0  0  0  0  0  0
   91.8985   97.1202  -41.9527 C   0  0  0  0  0  0  0  0  0  0  0  0
   92.5919   97.4796  -40.9932 O   0  0  0  0  0  0  0  0  0  0  0  0
   91.0556   98.0559  -42.6771 N   0  0  0  0  0  0  0  0  0  0  0  0
   90.4596   97.7310  -43.4360 H   0  0  0  0  0  0  0  0  0  0  0  0
   91.0939   94.0783  -46.2363 Br  0  0  0  0  0  0  0  0  0  0  0  0
   91.5152   94.2691  -44.3623 C   0  0  0  0  0  0  0  0  0  0  0  0
   91.5755   95.5175  -43.7949 C   0  0  0  0  0  0  0  0  0  0  0  0
   91.8831   95.7309  -42.4410 C   0  0  0  0  0  0  0  0  0  0  0  0
   92.1246   94.6372  -41.6665 C   0  0  0  0  0  0  0  0  0  0  0  0
   92.0674   93.3667  -42.2299 C   0  0  0  0  0  0  0  0  0  0  0  0
   91.7661   93.1752  -43.5680 C   0  0  0  0  0  0  0  0  0  0  0  0
 25 26  1  0  0  0
 26 27  2  0  0  0
 26 31  1  0  0  0
 27 28  1  0  0  0
 28 29  2  0  0  0
 28 21  1  0  0  0
 29 30  1  0  0  0
 30 31  2  0  0  0
 21 22  2  0  0  0
 21 23  1  0  0  0
 23 19  1  0  0  0
 19 20  1  0  0  0
 19  1  1  0  0  0
  1  2  2  0  0  0
  1  3  1  0  0  0
  3  4  1  0  0  0
  3 16  1  0  0  0
  4  5  1  0  0  0
  5  6  1  0  0  0
  6  7  1  0  0  0
  6 14  1  0  0  0
  6 15  1  0  0  0
  7  8  1  0  0  0
  8  9  1  0  0  0
  9 10  1  0  0  0
 10 11  1  0  0  0
 10 14  2  0  0  0
 11 12  1  0  0  0
 12 13  2  0  0  0
 13 14  1  0  0  0
 15 16  1  0  0  0
 23 24  1  0  0  0
  7 17  1  0  0  0
 11 18  1  0  0  0
M  END
> <minimizedAffinity>
-6.36657

$$$$
1381


 31 34  0  0  0  0  0  0  0  0999 V2000
   91.8280   90.5167  -48.1665 C   0  0  0  0  0  0  0  0  0  0  0  0
   93.0287   90.5479  -47.9304 O   0  0  0  0  0  0  0  0  0  0  0  0
   91.0931   89.7581  -49.1601 C   0  0  0  0  0  0  0  0  0  0  0  0
   91.0270   88.3953  -49.0826 N   0  0  0  0  0  0  0  0  0  0  0  0
   90.3638   87.6814  -49.9748 N   0  0  0  0  0  0  0  0  0  0  0  0
   89.7225   88.2635  -51.0022 C   0  0  0  0  0  0  0  0  0  0  0  0
   89.0857   87.5631  -51.8586 O   0  0  0  0  0  0  0  0  0  0  0  0
   89.7410   89.6300  -51.1526 C   0  0  0  0  0  0  0  0  0  0  0  0
   90.4488   90.3613  -50.1954 C   0  0  0  0  0  0  0  0  0  0  0  0
   90.4396   91.7216  -50.3837 C   0  0  0  0  0  0  0  0  0  0  0  0
   89.7727   92.3145  -51.4508 C   0  0  0  0  0  0  0  0  0  0  0  0
   89.0858   91.5637  -52.3755 C   0  0  0  0  0  0  0  0  0  0  0  0
   89.0804   90.2020  -52.2075 C   0  0  0  0  0  0  0  0  0  0  0  0
   90.3015   86.2373  -49.8821 C   0  0  0  0  0  0  0  0  0  0  0  0
   90.8511   85.7199  -48.5788 C   0  0  0  0  0  0  0  0  0  0  0  0
   92.2091   85.9432  -48.4458 O   0  0  0  0  0  0  0  0  0  0  0  0
   92.4905   86.5194  -49.1950 H   0  0  0  0  0  0  0  0  0  0  0  0
   91.1078   91.3789  -47.2951 O   0  0  0  0  0  0  0  0  0  0  0  0
   91.6428   91.6135  -46.0208 C   0  0  0  0  0  0  0  0  0  0  0  0
   90.7888   99.2393  -42.8868 Br  0  0  0  0  0  0  0  0  0  0  0  0
   91.0977   97.4020  -43.3685 C   0  0  0  0  0  0  0  0  0  0  0  0
   90.7492   96.9351  -44.6230 C   0  0  0  0  0  0  0  0  0  0  0  0
   90.9601   95.6435  -44.9775 N   0  0  0  0  0  0  0  0  0  0  0  0
   91.5153   94.7807  -44.1197 C   0  0  0  0  0  0  0  0  0  0  0  0
   91.7219   93.5022  -44.4760 N   0  0  0  0  0  0  0  0  0  0  0  0
   91.3901   93.0297  -45.6889 C   0  0  0  0  0  0  0  0  0  0  0  0
   90.8204   93.9141  -46.5706 C   0  0  0  0  0  0  0  0  0  0  0  0
   90.5972   95.2525  -46.2161 C   0  0  0  0  0  0  0  0  0  0  0  0
   90.0736   96.0357  -47.0471 O   0  0  0  0  0  0  0  0  0  0  0  0
   91.8670   95.2245  -42.8731 C   0  0  0  0  0  0  0  0  0  0  0  0
   91.6686   96.5302  -42.4745 C   0  0  0  0  0  0  0  0  0  0  0  0
 20 21  1  0  0  0
 21 22  2  0  0  0
 21 31  1  0  0  0
 22 23  1  0  0  0
 23 24  1  0  0  0
 23 28  1  0  0  0
 24 25  2  0  0  0
 24 30  1  0  0  0
 25 26  1  0  0  0
 26 27  2  0  0  0
 26 19  1  0  0  0
 27 28  1  0  0  0
 28 29  2  0  0  0
 19 18  1  0  0  0
 18  1  1  0  0  0
  1  2  2  0  0  0
  1  3  1  0  0  0
  3  4  2  0  0  0
  3  9  1  0  0  0
  4  5  1  0  0  0
  5  6  1  0  0  0
  5 14  1  0  0  0
  6  7  2  0  0  0
  6  8  1  0  0  0
  8  9  2  0  0  0
  8 13  1  0  0  0
  9 10  1  0  0  0
 10 11  2  0  0  0
 11 12  1  0  0  0
 12 13  2  0  0  0
 14 15  1  0  0  0
 15 16  1  0  0  0
 30 31  2  0  0  0
 16 17  1  0  0  0
M  END
> <minimizedAffinity>
-7.59834

$$$$
1386


 33 36  0  0  0  0  0  0  0  0999 V2000
   92.2291  100.1158  -44.6252 C   0  0  0  0  0  0  0  0  0  0  0  0
   93.3336   99.5266  -44.6071 O   0  0  0  0  0  0  0  0  0  0  0  0
   92.0826  101.3436  -43.8797 N   0  0  0  0  0  0  0  0  0  0  0  0
   93.2091  101.8483  -43.1431 C   0  0  0  0  0  0  0  0  0  0  0  0
   92.8694  101.7348  -41.6714 C   0  0  0  0  0  0  0  0  0  0  0  0
   91.4224  101.9046  -41.3792 C   0  0  0  0  0  0  0  0  0  0  0  0
   90.6310  102.5929  -42.4298 C   0  0  0  0  0  0  0  0  0  0  0  0
   90.8680  102.1088  -43.8227 C   0  0  0  0  0  0  0  0  0  0  0  0
   90.7816  100.6918  -41.0805 O   0  0  0  0  0  0  0  0  0  0  0  0
   91.3121  102.7437  -40.0991 C   0  0  0  0  0  0  0  0  0  0  0  0
   91.3143   99.9500  -41.5064 H   0  0  0  0  0  0  0  0  0  0  0  0
   93.7180  102.6522  -40.9505 N   0  0  0  0  0  0  0  0  0  0  0  0
   93.7689  103.9511  -41.3051 C   0  0  0  0  0  0  0  0  0  0  0  0
   94.5645  104.8610  -40.6456 C   0  0  0  0  0  0  0  0  0  0  0  0
   95.3287  104.4190  -39.5904 C   0  0  0  0  0  0  0  0  0  0  0  0
   96.0861  105.2121  -38.9390 O   0  0  0  0  0  0  0  0  0  0  0  0
   95.2583  103.1202  -39.2600 N   0  0  0  0  0  0  0  0  0  0  0  0
   94.4792  102.2583  -39.9152 C   0  0  0  0  0  0  0  0  0  0  0  0
   94.4493  101.0440  -39.5632 O   0  0  0  0  0  0  0  0  0  0  0  0
   95.8330  102.7361  -38.4512 H   0  0  0  0  0  0  0  0  0  0  0  0
   91.0754   99.6055  -45.3741 C   0  0  0  0  0  0  0  0  0  0  0  0
   90.2159   98.6076  -44.7228 C   0  0  0  0  0  0  0  0  0  0  0  0
   91.6285   91.3118  -46.6040 Cl  0  0  0  0  0  0  0  0  0  0  0  0
   91.5591   92.8140  -45.6691 C   0  0  0  0  0  0  0  0  0  0  0  0
   91.0206   93.9398  -46.2467 C   0  0  0  0  0  0  0  0  0  0  0  0
   90.9485   95.1348  -45.5490 C   0  0  0  0  0  0  0  0  0  0  0  0
   90.4874   96.3570  -45.8527 N   0  0  0  0  0  0  0  0  0  0  0  0
   90.6638   97.1922  -44.7697 C   0  0  0  0  0  0  0  0  0  0  0  0
   91.2306   96.4390  -43.8337 N   0  0  0  0  0  0  0  0  0  0  0  0
   91.4310   95.1583  -44.2611 C   0  0  0  0  0  0  0  0  0  0  0  0
   91.9734   94.0350  -43.6732 C   0  0  0  0  0  0  0  0  0  0  0  0
   92.0401   92.8555  -44.3749 C   0  0  0  0  0  0  0  0  0  0  0  0
   91.5838   96.8278  -42.4799 C   0  0  0  0  0  0  0  0  0  0  0  0
 23 24  1  0  0  0
 24 25  2  0  0  0
 24 32  1  0  0  0
 25 26  1  0  0  0
 26 27  1  0  0  0
 26 30  2  0  0  0
 27 28  2  0  0  0
 28 29  1  0  0  0
 28 22  1  0  0  0
 29 30  1  0  0  0
 29 33  1  0  0  0
 30 31  1  0  0  0
 31 32  2  0  0  0
 22 21  1  0  0  0
 21  1  1  0  0  0
  1  2  2  0  0  0
  1  3  1  0  0  0
  3  4  1  0  0  0
  3  8  1  0  0  0
  4  5  1  0  0  0
  5  6  1  0  0  0
  5 12  1  0  0  0
  6  7  1  0  0  0
  6  9  1  0  0  0
  6 10  1  0  0  0
  7  8  1  0  0  0
 12 13  1  0  0  0
 12 18  1  0  0  0
 13 14  2  0  0  0
 14 15  1  0  0  0
 15 16  2  0  0  0
 15 17  1  0  0  0
 17 18  1  0  0  0
 18 19  2  0  0  0
  9 11  1  0  0  0
 17 20  1  0  0  0
M  END
> <minimizedAffinity>
-7.13609

$$$$
1388


 30 33  0  0  0  0  0  0  0  0999 V2000
   89.2478   99.6049  -43.7645 C   0  0  0  0  0  0  0  0  0  0  0  0
   88.4328   99.2318  -42.8853 O   0  0  0  0  0  0  0  0  0  0  0  0
   90.1315  100.6575  -43.4800 N   0  0  0  0  0  0  0  0  0  0  0  0
   91.0945  101.1410  -44.4381 C   0  0  0  0  0  0  0  0  0  0  0  0
   92.4654  100.8547  -43.8649 C   0  0  0  0  0  0  0  0  0  0  0  0
   92.5444  101.3764  -42.4499 C   0  0  0  0  0  0  0  0  0  0  0  0
   92.7601  100.2484  -41.5688 N   0  0  0  0  0  0  0  0  0  0  0  0
   92.9829  100.5863  -40.2065 C   0  0  0  0  0  0  0  0  0  0  0  0
   93.8192  101.7823  -39.9335 C   0  0  0  0  0  0  0  0  0  0  0  0
   94.4009  102.4163  -41.1352 C   0  0  0  0  0  0  0  0  0  0  0  0
   95.4969  103.2146  -41.3195 N   0  0  0  0  0  0  0  0  0  0  0  0
   95.5456  103.5026  -42.6257 C   0  0  0  0  0  0  0  0  0  0  0  0
   94.5160  102.9062  -43.2484 N   0  0  0  0  0  0  0  0  0  0  0  0
   93.7756  102.2159  -42.3451 C   0  0  0  0  0  0  0  0  0  0  0  0
   91.3523  102.1661  -42.0150 C   0  0  0  0  0  0  0  0  0  0  0  0
   90.1006  101.3008  -42.1918 C   0  0  0  0  0  0  0  0  0  0  0  0
   91.9104   99.6266  -41.6163 H   0  0  0  0  0  0  0  0  0  0  0  0
   96.1516  103.5201  -40.5414 H   0  0  0  0  0  0  0  0  0  0  0  0
   89.2118   98.8861  -45.0656 C   0  0  0  0  0  0  0  0  0  0  0  0
   90.7674   96.9467  -45.3432 C   0  0  0  0  0  0  0  0  0  0  0  0
   91.5888   97.7366  -45.8756 O   0  0  0  0  0  0  0  0  0  0  0  0
   89.5340   97.4838  -44.9099 N   0  0  0  0  0  0  0  0  0  0  0  0
   88.8392   96.8508  -44.4672 H   0  0  0  0  0  0  0  0  0  0  0  0
   92.8043   93.0402  -42.3488 Br  0  0  0  0  0  0  0  0  0  0  0  0
   92.0148   93.6743  -43.9492 C   0  0  0  0  0  0  0  0  0  0  0  0
   91.6945   95.0155  -44.0586 C   0  0  0  0  0  0  0  0  0  0  0  0
   91.1159   95.5406  -45.1989 C   0  0  0  0  0  0  0  0  0  0  0  0
   90.8601   94.6752  -46.2530 C   0  0  0  0  0  0  0  0  0  0  0  0
   91.1810   93.3434  -46.1375 C   0  0  0  0  0  0  0  0  0  0  0  0
   91.7572   92.8035  -45.0091 C   0  0  0  0  0  0  0  0  0  0  0  0
 24 25  1  0  0  0
 25 26  2  0  0  0
 25 30  1  0  0  0
 26 27  1  0  0  0
 27 28  2  0  0  0
 27 20  1  0  0  0
 28 29  1  0  0  0
 29 30  2  0  0  0
 20 21  2  0  0  0
 20 22  1  0  0  0
 22 19  1  0  0  0
 19  1  1  0  0  0
  1  2  2  0  0  0
  1  3  1  0  0  0
  3  4  1  0  0  0
  3 16  1  0  0  0
  4  5  1  0  0  0
  5  6  1  0  0  0
  6  7  1  0  0  0
  6 14  1  0  0  0
  6 15  1  0  0  0
  7  8  1  0  0  0
  8  9  1  0  0  0
  9 10  1  0  0  0
 10 11  1  0  0  0
 10 14  2  0  0  0
 11 12  1  0  0  0
 12 13  2  0  0  0
 13 14  1  0  0  0
 15 16  1  0  0  0
 22 23  1  0  0  0
  7 17  1  0  0  0
 11 18  1  0  0  0
M  END
> <minimizedAffinity>
-7.11770

$$$$
1404


 26 29  0  0  0  0  0  0  0  0999 V2000
   91.8333   92.9960  -45.5971 Br  0  0  0  0  0  0  0  0  0  0  0  0
   91.6768   94.6092  -44.5910 C   0  0  0  0  0  0  0  0  0  0  0  0
   91.5426   95.8340  -45.2169 C   0  0  0  0  0  0  0  0  0  0  0  0
   91.4262   97.0264  -44.5345 C   0  0  0  0  0  0  0  0  0  0  0  0
   91.4501   96.9345  -43.1398 C   0  0  0  0  0  0  0  0  0  0  0  0
   91.5834   95.7173  -42.5179 C   0  0  0  0  0  0  0  0  0  0  0  0
   91.6987   94.5320  -43.2143 C   0  0  0  0  0  0  0  0  0  0  0  0
   91.8412   93.2387  -42.4868 C   0  0  0  0  0  0  0  0  0  0  0  0
   91.3286   98.1536  -42.4877 O   0  0  0  0  0  0  0  0  0  0  0  0
   91.4039   99.4138  -43.1271 C   0  0  0  0  0  0  0  0  0  0  0  0
   90.5927   99.3957  -44.4653 C   0  0  0  0  0  0  0  0  0  0  0  0
   91.3035   98.3181  -45.1957 C   0  0  0  0  0  0  0  0  0  0  0  0
   91.8188   98.3895  -46.3251 O   0  0  0  0  0  0  0  0  0  0  0  0
   90.5142  100.6100  -45.0733 N   0  0  0  0  0  0  0  0  0  0  0  0
   91.1867  100.9448  -46.2549 C   0  0  0  0  0  0  0  0  0  0  0  0
   92.4172  101.7669  -45.9371 C   0  0  0  0  0  0  0  0  0  0  0  0
   91.9301  102.9895  -45.4168 O   0  0  0  0  0  0  0  0  0  0  0  0
   91.4542  102.6532  -44.1375 C   0  0  0  0  0  0  0  0  0  0  0  0
   90.2335  101.7470  -44.3139 C   0  0  0  0  0  0  0  0  0  0  0  0
   89.2529   98.9151  -44.0354 C   0  0  0  0  0  0  0  0  0  0  0  0
   88.1228   99.2270  -44.8535 N   0  0  0  0  0  0  0  0  0  0  0  0
   87.8662   98.4226  -45.9874 C   0  0  0  0  0  0  0  0  0  0  0  0
   87.2505   97.0792  -45.5686 C   0  0  0  0  0  0  0  0  0  0  0  0
   85.9957   97.3935  -45.0362 O   0  0  0  0  0  0  0  0  0  0  0  0
   86.2251   98.0492  -43.8210 C   0  0  0  0  0  0  0  0  0  0  0  0
   86.9426   99.3522  -43.9963 C   0  0  0  0  0  0  0  0  0  0  0  0
  1  2  1  0  0  0
  2  3  2  0  0  0
  2  7  1  0  0  0
  3  4  1  0  0  0
  4  5  2  0  0  0
  4 12  1  0  0  0
  5  6  1  0  0  0
  5  9  1  0  0  0
  6  7  2  0  0  0
  7  8  1  0  0  0
  9 10  1  0  0  0
 10 11  1  0  0  0
 11 12  1  0  0  0
 11 14  1  0  0  0
 11 20  1  0  0  0
 12 13  2  0  0  0
 14 15  1  0  0  0
 14 19  1  0  0  0
 15 16  1  0  0  0
 16 17  1  0  0  0
 17 18  1  0  0  0
 18 19  1  0  0  0
 20 21  1  0  0  0
 21 22  1  0  0  0
 21 26  1  0  0  0
 22 23  1  0  0  0
 23 24  1  0  0  0
 24 25  1  0  0  0
 25 26  1  0  0  0
M  END
> <minimizedAffinity>
-5.97018

$$$$
1405


 27 30  0  0  0  0  0  0  0  0999 V2000
   85.1034   98.3074  -43.9329 Br  0  0  0  0  0  0  0  0  0  0  0  0
   86.7915   98.6510  -44.7968 C   0  0  0  0  0  0  0  0  0  0  0  0
   87.9431   98.0497  -44.3622 C   0  0  0  0  0  0  0  0  0  0  0  0
   89.1394   98.3104  -44.9968 C   0  0  0  0  0  0  0  0  0  0  0  0
   89.1215   99.1774  -46.0555 C   0  0  0  0  0  0  0  0  0  0  0  0
   87.9356   99.7950  -46.5018 C   0  0  0  0  0  0  0  0  0  0  0  0
   86.7566   99.5243  -45.8600 C   0  0  0  0  0  0  0  0  0  0  0  0
   90.4257   99.3445  -46.6034 N   0  0  0  0  0  0  0  0  0  0  0  0
   91.3093   98.5507  -45.8614 C   0  0  0  0  0  0  0  0  0  0  0  0
   92.5572   98.4549  -46.0710 O   0  0  0  0  0  0  0  0  0  0  0  0
   90.5309   97.8410  -44.7860 C   0  0  0  0  0  0  0  0  0  0  0  0
   90.6999   96.4159  -45.0454 C   0  0  0  0  0  0  0  0  0  0  0  0
   91.3317   95.6062  -44.1536 C   0  0  0  0  0  0  0  0  0  0  0  0
   91.3207   94.3507  -44.6911 N   0  0  0  0  0  0  0  0  0  0  0  0
   90.7161   94.3617  -45.8604 N   0  0  0  0  0  0  0  0  0  0  0  0
   90.3191   95.6057  -46.1190 C   0  0  0  0  0  0  0  0  0  0  0  0
   89.5910   96.1378  -47.3132 C   0  0  0  0  0  0  0  0  0  0  0  0
   91.8548   96.0744  -42.9433 O   0  0  0  0  0  0  0  0  0  0  0  0
   91.6921   97.4343  -42.6998 C   0  0  0  0  0  0  0  0  0  0  0  0
   91.0953   98.2619  -43.5173 C   0  0  0  0  0  0  0  0  0  0  0  0
   92.2160   97.9797  -41.4561 N   0  0  0  0  0  0  0  0  0  0  0  0
   90.7937  100.1965  -47.7444 C   0  0  0  0  0  0  0  0  0  0  0  0
   90.5478   93.5575  -46.5185 H   0  0  0  0  0  0  0  0  0  0  0  0
   93.2043   98.2985  -41.5045 H   0  0  0  0  0  0  0  0  0  0  0  0
   91.6708   98.0490  -40.5993 H   0  0  0  0  0  0  0  0  0  0  0  0
   91.0134   99.6709  -43.0949 C   0  0  0  0  0  0  0  0  0  0  0  0
   90.9537  100.7815  -42.7382 N   0  0  0  0  0  0  0  0  0  0  0  0
  1  2  1  0  0  0
  2  3  2  0  0  0
  2  7  1  0  0  0
  3  4  1  0  0  0
  4  5  2  0  0  0
  4 11  1  0  0  0
  5  6  1  0  0  0
  5  8  1  0  0  0
  6  7  2  0  0  0
  8  9  1  0  0  0
  8 22  1  0  0  0
  9 10  2  0  0  0
  9 11  1  0  0  0
 11 12  1  0  0  0
 11 20  1  0  0  0
 12 13  1  0  0  0
 12 16  2  0  0  0
 13 14  2  0  0  0
 13 18  1  0  0  0
 14 15  1  0  0  0
 15 16  1  0  0  0
 16 17  1  0  0  0
 18 19  1  0  0  0
 19 20  2  0  0  0
 19 21  1  0  0  0
 20 26  1  0  0  0
 26 27  3  0  0  0
 15 23  1  0  0  0
 21 24  1  0  0  0
 21 25  1  0  0  0
M  END
> <minimizedAffinity>
-6.13768

$$$$
1413


 24 27  0  0  0  0  0  0  0  0999 V2000
   90.3814  100.3578  -42.3933 C   0  0  0  0  0  0  0  0  0  0  0  0
   90.6346  104.2849  -38.8532 Br  0  0  0  0  0  0  0  0  0  0  0  0
   91.3884  102.8033  -39.7609 C   0  0  0  0  0  0  0  0  0  0  0  0
   92.6501  102.4225  -39.4538 C   0  0  0  0  0  0  0  0  0  0  0  0
   93.5444  102.9143  -38.5739 N   0  0  0  0  0  0  0  0  0  0  0  0
   94.6118  102.1337  -38.7133 N   0  0  0  0  0  0  0  0  0  0  0  0
   94.4323  101.2047  -39.6105 N   0  0  0  0  0  0  0  0  0  0  0  0
   93.1816  101.3427  -40.1226 C   0  0  0  0  0  0  0  0  0  0  0  0
   92.4436  100.6633  -41.0861 C   0  0  0  0  0  0  0  0  0  0  0  0
   91.1905  101.0373  -41.3951 N   0  0  0  0  0  0  0  0  0  0  0  0
   90.6798  102.0975  -40.7323 C   0  0  0  0  0  0  0  0  0  0  0  0
   93.4733  103.9973  -37.6680 C   0  0  0  0  0  0  0  0  0  0  0  0
   91.1523   99.6840  -43.4339 C   0  0  0  0  0  0  0  0  0  0  0  0
   91.7509  100.4332  -44.2645 O   0  0  0  0  0  0  0  0  0  0  0  0
   91.2977   98.2419  -43.6072 C   0  0  0  0  0  0  0  0  0  0  0  0
   91.5336   97.4634  -42.5092 C   0  0  0  0  0  0  0  0  0  0  0  0
   91.6807   96.1073  -42.6426 C   0  0  0  0  0  0  0  0  0  0  0  0
   91.5984   95.4784  -43.8715 C   0  0  0  0  0  0  0  0  0  0  0  0
   91.3581   96.3003  -44.9700 C   0  0  0  0  0  0  0  0  0  0  0  0
   91.2101   97.6539  -44.8414 C   0  0  0  0  0  0  0  0  0  0  0  0
   91.7422   94.1157  -44.0307 C   0  0  0  0  0  0  0  0  0  0  0  0
   91.9788   93.3632  -42.9004 C   0  0  0  0  0  0  0  0  0  0  0  0
   92.0630   93.9795  -41.6691 C   0  0  0  0  0  0  0  0  0  0  0  0
   91.9179   95.3391  -41.5168 C   0  0  0  0  0  0  0  0  0  0  0  0
  2  3  1  0  0  0
  3  4  2  0  0  0
  3 11  1  0  0  0
  4  5  1  0  0  0
  4  8  1  0  0  0
  5  6  1  0  0  0
  5 12  1  0  0  0
  6  7  2  0  0  0
  7  8  1  0  0  0
  8  9  2  0  0  0
  9 10  1  0  0  0
 10 11  2  0  0  0
 10  1  1  0  0  0
  1 13  1  0  0  0
 13 14  2  0  0  0
 13 15  1  0  0  0
 15 16  2  0  0  0
 15 20  1  0  0  0
 16 17  1  0  0  0
 17 18  2  0  0  0
 17 24  1  0  0  0
 18 19  1  0  0  0
 18 21  1  0  0  0
 19 20  2  0  0  0
 21 22  2  0  0  0
 22 23  1  0  0  0
 23 24  2  0  0  0
M  END
> <minimizedAffinity>
-7.08757

$$$$
1415


 32 35  0  0  0  0  0  0  0  0999 V2000
   92.0362   95.8327  -41.0089 Br  0  0  0  0  0  0  0  0  0  0  0  0
   91.6862   95.8494  -42.8932 C   0  0  0  0  0  0  0  0  0  0  0  0
   91.4438   97.0413  -43.5333 C   0  0  0  0  0  0  0  0  0  0  0  0
   91.1829   97.0978  -44.9126 C   0  0  0  0  0  0  0  0  0  0  0  0
   91.1834   95.8965  -45.5871 C   0  0  0  0  0  0  0  0  0  0  0  0
   91.4224   94.6877  -44.9695 C   0  0  0  0  0  0  0  0  0  0  0  0
   91.6761   94.6582  -43.6173 C   0  0  0  0  0  0  0  0  0  0  0  0
   91.9457   93.4076  -42.8618 C   0  0  0  0  0  0  0  0  0  0  0  0
   91.4170   93.0392  -45.9301 Br  0  0  0  0  0  0  0  0  0  0  0  0
   90.9299   98.3754  -45.5458 C   0  0  0  0  0  0  0  0  0  0  0  0
   90.8025   98.4469  -46.7727 O   0  0  0  0  0  0  0  0  0  0  0  0
   90.8258   99.5881  -44.7151 C   0  0  0  0  0  0  0  0  0  0  0  0
   91.7658   99.4090  -43.5432 C   0  0  0  0  0  0  0  0  0  0  0  0
   91.4526   98.2345  -42.8174 O   0  0  0  0  0  0  0  0  0  0  0  0
   91.1092  100.8561  -45.4621 C   0  0  0  0  0  0  0  0  0  0  0  0
   92.4601  101.2655  -45.5002 N   0  0  0  0  0  0  0  0  0  0  0  0
   92.9812  101.1125  -46.8263 C   0  0  0  0  0  0  0  0  0  0  0  0
   92.4585  102.0785  -47.8283 C   0  0  0  0  0  0  0  0  0  0  0  0
   91.6461  103.2015  -47.3106 C   0  0  0  0  0  0  0  0  0  0  0  0
   91.8449  103.5679  -45.8917 C   0  0  0  0  0  0  0  0  0  0  0  0
   92.7122  102.6253  -45.1104 C   0  0  0  0  0  0  0  0  0  0  0  0
   91.5890  101.2943  -48.8180 C   0  0  0  0  0  0  0  0  0  0  0  0
   93.0385  100.6560  -44.8681 H   0  0  0  0  0  0  0  0  0  0  0  0
   89.4084   99.6071  -44.1810 C   0  0  0  0  0  0  0  0  0  0  0  0
   88.4260  100.1100  -45.0795 N   0  0  0  0  0  0  0  0  0  0  0  0
   87.5324  101.0360  -44.3863 C   0  0  0  0  0  0  0  0  0  0  0  0
   86.2227  100.4044  -44.0151 C   0  0  0  0  0  0  0  0  0  0  0  0
   86.4641   99.0044  -43.4976 C   0  0  0  0  0  0  0  0  0  0  0  0
   86.9658   98.1754  -44.6390 C   0  0  0  0  0  0  0  0  0  0  0  0
   87.5816   99.0924  -45.6667 C   0  0  0  0  0  0  0  0  0  0  0  0
   85.6562  101.2075  -42.8363 C   0  0  0  0  0  0  0  0  0  0  0  0
   88.8652  100.6429  -45.8348 H   0  0  0  0  0  0  0  0  0  0  0  0
  1  2  1  0  0  0
  2  3  2  0  0  0
  2  7  1  0  0  0
  3  4  1  0  0  0
  3 14  1  0  0  0
  4  5  2  0  0  0
  4 10  1  0  0  0
  5  6  1  0  0  0
  6  7  2  0  0  0
  6  9  1  0  0  0
  7  8  1  0  0  0
 10 11  2  0  0  0
 10 12  1  0  0  0
 12 13  1  0  0  0
 12 15  1  0  0  0
 12 24  1  0  0  0
 13 14  1  0  0  0
 15 16  1  0  0  0
 16 17  1  0  0  0
 16 21  1  0  0  0
 17 18  1  0  0  0
 18 19  1  0  0  0
 18 22  1  0  0  0
 19 20  1  0  0  0
 20 21  1  0  0  0
 24 25  1  0  0  0
 25 26  1  0  0  0
 25 30  1  0  0  0
 26 27  1  0  0  0
 27 28  1  0  0  0
 27 31  1  0  0  0
 28 29  1  0  0  0
 29 30  1  0  0  0
 16 23  1  0  0  0
 25 32  1  0  0  0
M  CHG 1  16   1
M  CHG 1  25   1
M  END
> <minimizedAffinity>
-6.09889

$$$$
1428


 37 40  0  0  0  0  0  0  0  0999 V2000
   86.9936   96.8479  -47.3725 Cl  0  0  0  0  0  0  0  0  0  0  0  0
   87.3867   97.6890  -45.8763 C   0  0  0  0  0  0  0  0  0  0  0  0
   88.6051   98.2801  -45.6733 C   0  0  0  0  0  0  0  0  0  0  0  0
   88.8609   98.9247  -44.4843 C   0  0  0  0  0  0  0  0  0  0  0  0
   87.8730   98.9515  -43.5350 C   0  0  0  0  0  0  0  0  0  0  0  0
   86.6302   98.3475  -43.7452 C   0  0  0  0  0  0  0  0  0  0  0  0
   86.3883   97.7113  -44.9272 C   0  0  0  0  0  0  0  0  0  0  0  0
   88.2662   99.6601  -42.3653 N   0  0  0  0  0  0  0  0  0  0  0  0
   89.5749  100.1015  -42.5989 C   0  0  0  0  0  0  0  0  0  0  0  0
   90.2169  100.7888  -41.7380 O   0  0  0  0  0  0  0  0  0  0  0  0
   90.0245   99.6517  -43.9237 C   0  0  0  0  0  0  0  0  0  0  0  0
   90.3604  100.8166  -44.6932 N   0  0  0  0  0  0  0  0  0  0  0  0
   91.7737  100.8399  -44.9077 C   0  0  0  0  0  0  0  0  0  0  0  0
   92.3806   99.8272  -43.9906 C   0  0  0  0  0  0  0  0  0  0  0  0
   91.2502   98.8552  -43.7964 C   0  0  0  0  0  0  0  0  0  0  0  0
   87.6933   99.8240  -41.4953 H   0  0  0  0  0  0  0  0  0  0  0  0
   89.7957  100.8670  -45.5673 H   0  0  0  0  0  0  0  0  0  0  0  0
   91.3580   97.6636  -44.6769 C   0  0  0  0  0  0  0  0  0  0  0  0
   91.8102   97.8702  -45.8288 O   0  0  0  0  0  0  0  0  0  0  0  0
   90.9879   96.3715  -44.2866 N   0  0  0  0  0  0  0  0  0  0  0  0
   90.6270   96.3024  -43.2858 H   0  0  0  0  0  0  0  0  0  0  0  0
   91.0387   95.1855  -45.0206 C   0  0  0  0  0  0  0  0  0  0  0  0
   91.6988   94.0869  -44.4891 C   0  0  0  0  0  0  0  0  0  0  0  0
   91.7866   92.8830  -45.1581 C   0  0  0  0  0  0  0  0  0  0  0  0
   91.2186   92.7157  -46.3961 C   0  0  0  0  0  0  0  0  0  0  0  0
   90.5627   93.7794  -46.9451 C   0  0  0  0  0  0  0  0  0  0  0  0
   90.4808   94.9886  -46.2587 C   0  0  0  0  0  0  0  0  0  0  0  0
   92.2977   94.1772  -43.2450 O   0  0  0  0  0  0  0  0  0  0  0  0
   91.7129   93.7309  -42.0600 C   0  0  0  0  0  0  0  0  0  0  0  0
   89.9754   93.6518  -48.1908 O   0  0  0  0  0  0  0  0  0  0  0  0
   89.1202   94.6387  -48.7384 C   0  0  0  0  0  0  0  0  0  0  0  0
   92.3545  102.2276  -44.6906 C   0  0  0  0  0  0  0  0  0  0  0  0
   91.3062  103.2400  -44.5003 C   0  0  0  0  0  0  0  0  0  0  0  0
   90.9540  103.5710  -43.3572 O   0  0  0  0  0  0  0  0  0  0  0  0
   90.6994  103.8364  -45.6212 N   0  0  0  0  0  0  0  0  0  0  0  0
   90.6024  104.8741  -45.6352 H   0  0  0  0  0  0  0  0  0  0  0  0
   90.3347  103.3074  -46.4504 H   0  0  0  0  0  0  0  0  0  0  0  0
  1  2  1  0  0  0
  2  3  2  0  0  0
  2  7  1  0  0  0
  3  4  1  0  0  0
  4  5  2  0  0  0
  4 11  1  0  0  0
  5  6  1  0  0  0
  5  8  1  0  0  0
  6  7  2  0  0  0
  8  9  1  0  0  0
  9 10  2  0  0  0
  9 11  1  0  0  0
 11 12  1  0  0  0
 11 15  1  0  0  0
 12 13  1  0  0  0
 13 14  1  0  0  0
 13 32  1  0  0  0
 14 15  1  0  0  0
 15 18  1  0  0  0
 18 19  2  0  0  0
 18 20  1  0  0  0
 20 22  1  0  0  0
 22 23  2  0  0  0
 22 27  1  0  0  0
 23 24  1  0  0  0
 23 28  1  0  0  0
 24 25  2  0  0  0
 25 26  1  0  0  0
 26 27  2  0  0  0
 26 30  1  0  0  0
 30 31  1  0  0  0
 28 29  1  0  0  0
 32 33  1  0  0  0
 33 34  2  0  0  0
 33 35  1  0  0  0
  8 16  1  0  0  0
 12 17  1  0  0  0
 20 21  1  0  0  0
 35 36  1  0  0  0
 35 37  1  0  0  0
M  END
> <minimizedAffinity>
-6.01981

$$$$
1432


 21 24  0  0  0  0  0  0  0  0999 V2000
   91.2655  100.1757  -43.2451 C   0  0  0  0  0  0  0  0  0  0  0  0
   91.1301   99.5127  -44.4054 N   0  0  0  0  0  0  0  0  0  0  0  0
   91.2735   98.1906  -44.2136 N   0  0  0  0  0  0  0  0  0  0  0  0
   91.5044   98.0066  -42.9015 C   0  0  0  0  0  0  0  0  0  0  0  0
   91.4978   99.2204  -42.3196 N   0  0  0  0  0  0  0  0  0  0  0  0
   91.6864   96.7112  -42.4567 C   0  0  0  0  0  0  0  0  0  0  0  0
   91.6375   95.6258  -43.3110 C   0  0  0  0  0  0  0  0  0  0  0  0
   91.8476   94.4814  -42.6254 N   0  0  0  0  0  0  0  0  0  0  0  0
   92.0231   94.8410  -41.3678 N   0  0  0  0  0  0  0  0  0  0  0  0
   91.9362   96.1748  -41.2153 C   0  0  0  0  0  0  0  0  0  0  0  0
   91.8679   93.1339  -43.1904 C   0  0  0  0  0  0  0  0  0  0  0  0
   91.4021   95.8844  -44.6089 N   0  0  0  0  0  0  0  0  0  0  0  0
   91.2236   97.1392  -45.0531 C   0  0  0  0  0  0  0  0  0  0  0  0
   91.1829  101.6414  -42.9967 C   0  0  0  0  0  0  0  0  0  0  0  0
   91.1605  103.3584  -37.8330 Br  0  0  0  0  0  0  0  0  0  0  0  0
   91.6604  102.6744  -39.5401 C   0  0  0  0  0  0  0  0  0  0  0  0
   90.8560  102.4920  -40.6624 C   0  0  0  0  0  0  0  0  0  0  0  0
   91.6176  101.9846  -41.6524 N   0  0  0  0  0  0  0  0  0  0  0  0
   92.8590  101.8456  -41.1861 N   0  0  0  0  0  0  0  0  0  0  0  0
   92.9225  102.2556  -39.9044 C   0  0  0  0  0  0  0  0  0  0  0  0
   94.0906  102.2817  -38.9927 C   0  0  0  0  0  0  0  0  0  0  0  0
 15 16  1  0  0  0
 16 17  2  0  0  0
 16 20  1  0  0  0
 17 18  1  0  0  0
 18 19  1  0  0  0
 18 14  1  0  0  0
 19 20  2  0  0  0
 20 21  1  0  0  0
 14  1  1  0  0  0
  1  2  2  0  0  0
  1  5  1  0  0  0
  2  3  1  0  0  0
  3  4  1  0  0  0
  3 13  1  0  0  0
  4  5  2  0  0  0
  4  6  1  0  0  0
  6  7  2  0  0  0
  6 10  1  0  0  0
  7  8  1  0  0  0
  7 12  1  0  0  0
  8  9  1  0  0  0
  8 11  1  0  0  0
  9 10  2  0  0  0
 12 13  2  0  0  0
M  END
> <minimizedAffinity>
-5.78798

$$$$
1433


 28 31  0  0  0  0  0  0  0  0999 V2000
   91.0149   94.7153  -46.2008 Br  0  0  0  0  0  0  0  0  0  0  0  0
   91.3030   95.4602  -44.4808 C   0  0  0  0  0  0  0  0  0  0  0  0
   91.0614   96.8209  -44.2660 C   0  0  0  0  0  0  0  0  0  0  0  0
   91.2476   97.3917  -43.0310 C   0  0  0  0  0  0  0  0  0  0  0  0
   91.6819   96.5772  -42.0128 C   0  0  0  0  0  0  0  0  0  0  0  0
   91.9310   95.2185  -42.1990 C   0  0  0  0  0  0  0  0  0  0  0  0
   91.7339   94.6506  -43.4610 C   0  0  0  0  0  0  0  0  0  0  0  0
   91.9912   93.1990  -43.6707 C   0  0  0  0  0  0  0  0  0  0  0  0
   92.4204   94.3834  -41.0701 C   0  0  0  0  0  0  0  0  0  0  0  0
   90.9783   98.8213  -42.7028 C   0  0  0  0  0  0  0  0  0  0  0  0
   90.6882   99.6879  -43.8895 C   0  0  0  0  0  0  0  0  0  0  0  0
   91.2283   99.0083  -45.1344 C   0  0  0  0  0  0  0  0  0  0  0  0
   90.6314   97.6913  -45.2582 O   0  0  0  0  0  0  0  0  0  0  0  0
   92.1277   99.3109  -42.0079 O   0  0  0  0  0  0  0  0  0  0  0  0
   92.0782   98.9514  -41.0880 H   0  0  0  0  0  0  0  0  0  0  0  0
   91.4379  100.9102  -43.6936 N   0  0  0  0  0  0  0  0  0  0  0  0
   90.6590  101.9833  -43.1721 C   0  0  0  0  0  0  0  0  0  0  0  0
   91.2606  103.3517  -43.3185 C   0  0  0  0  0  0  0  0  0  0  0  0
   91.9505  103.5660  -44.4810 O   0  0  0  0  0  0  0  0  0  0  0  0
   92.9620  102.6002  -44.5652 C   0  0  0  0  0  0  0  0  0  0  0  0
   92.1885  101.2872  -44.8548 C   0  0  0  0  0  0  0  0  0  0  0  0
   89.2569   99.9273  -44.1868 C   0  0  0  0  0  0  0  0  0  0  0  0
   88.2081   99.3886  -43.4503 N   0  0  0  0  0  0  0  0  0  0  0  0
   87.2402  100.4798  -43.0872 C   0  0  0  0  0  0  0  0  0  0  0  0
   86.7652  101.1999  -44.2946 C   0  0  0  0  0  0  0  0  0  0  0  0
   86.6888  100.4391  -45.4301 O   0  0  0  0  0  0  0  0  0  0  0  0
   86.5372   99.0962  -45.2429 C   0  0  0  0  0  0  0  0  0  0  0  0
   87.2819   98.4814  -44.1022 C   0  0  0  0  0  0  0  0  0  0  0  0
  1  2  1  0  0  0
  2  3  2  0  0  0
  2  7  1  0  0  0
  3  4  1  0  0  0
  3 13  1  0  0  0
  4  5  2  0  0  0
  4 10  1  0  0  0
  5  6  1  0  0  0
  6  7  2  0  0  0
  6  9  1  0  0  0
  7  8  1  0  0  0
 10 11  1  0  0  0
 10 14  1  0  0  0
 11 12  1  0  0  0
 11 16  1  0  0  0
 11 22  1  0  0  0
 12 13  1  0  0  0
 16 17  1  0  0  0
 16 21  1  0  0  0
 17 18  1  0  0  0
 18 19  1  0  0  0
 19 20  1  0  0  0
 20 21  1  0  0  0
 22 23  1  0  0  0
 23 24  1  0  0  0
 23 28  1  0  0  0
 24 25  1  0  0  0
 25 26  1  0  0  0
 26 27  1  0  0  0
 27 28  1  0  0  0
 14 15  1  0  0  0
M  END
> <minimizedAffinity>
-6.21782

$$$$
1434


 28 31  0  0  0  0  0  0  0  0999 V2000
   91.2422   98.4697  -44.4619 C   0  0  0  0  0  0  0  0  0  0  0  0
   92.5048   98.0769  -44.5901 O   0  0  0  0  0  0  0  0  0  0  0  0
   91.0604   99.8421  -44.5260 N   0  0  0  0  0  0  0  0  0  0  0  0
   89.8474  100.5716  -44.4210 C   0  0  0  0  0  0  0  0  0  0  0  0
   89.8007  101.3126  -43.0841 C   0  0  0  0  0  0  0  0  0  0  0  0
   91.2075  101.7180  -42.6777 C   0  0  0  0  0  0  0  0  0  0  0  0
   91.0654  102.9931  -41.9956 N   0  0  0  0  0  0  0  0  0  0  0  0
   90.8511  102.6861  -40.6024 C   0  0  0  0  0  0  0  0  0  0  0  0
   90.3732  103.4646  -39.7402 O   0  0  0  0  0  0  0  0  0  0  0  0
   91.2856  101.3289  -40.3944 N   0  0  0  0  0  0  0  0  0  0  0  0
   91.7546  100.8220  -41.6377 C   0  0  0  0  0  0  0  0  0  0  0  0
   92.4845   99.8132  -41.7783 O   0  0  0  0  0  0  0  0  0  0  0  0
   92.1161  101.9074  -43.8512 C   0  0  0  0  0  0  0  0  0  0  0  0
   92.2557  100.6991  -44.7187 C   0  0  0  0  0  0  0  0  0  0  0  0
   91.1078  103.9452  -42.4149 H   0  0  0  0  0  0  0  0  0  0  0  0
   91.2590  100.8203  -39.4995 H   0  0  0  0  0  0  0  0  0  0  0  0
   90.3458   97.3454  -44.2795 C   0  0  0  0  0  0  0  0  0  0  0  0
   91.5904   92.3731  -46.0778 Br  0  0  0  0  0  0  0  0  0  0  0  0
   91.3699   93.9754  -45.0589 C   0  0  0  0  0  0  0  0  0  0  0  0
   91.8224   94.1120  -43.7702 C   0  0  0  0  0  0  0  0  0  0  0  0
   91.4899   95.3790  -43.3658 C   0  0  0  0  0  0  0  0  0  0  0  0
   90.8422   96.0179  -44.3852 N   0  0  0  0  0  0  0  0  0  0  0  0
   90.7713   95.1495  -45.4216 C   0  0  0  0  0  0  0  0  0  0  0  0
   90.1425   95.4376  -46.7305 C   0  0  0  0  0  0  0  0  0  0  0  0
   91.8330   95.7992  -42.0805 C   0  0  0  0  0  0  0  0  0  0  0  0
   92.5051   94.9468  -41.2140 C   0  0  0  0  0  0  0  0  0  0  0  0
   92.8277   93.6871  -41.6359 C   0  0  0  0  0  0  0  0  0  0  0  0
   92.4929   93.2644  -42.9017 C   0  0  0  0  0  0  0  0  0  0  0  0
 18 19  1  0  0  0
 19 20  1  0  0  0
 19 23  2  0  0  0
 20 21  2  0  0  0
 20 28  1  0  0  0
 21 22  1  0  0  0
 21 25  1  0  0  0
 22 23  1  0  0  0
 22 17  1  0  0  0
 23 24  1  0  0  0
 17  1  1  0  0  0
  1  2  2  0  0  0
  1  3  1  0  0  0
  3  4  1  0  0  0
  3 14  1  0  0  0
  4  5  1  0  0  0
  5  6  1  0  0  0
  6  7  1  0  0  0
  6 11  1  0  0  0
  6 13  1  0  0  0
  7  8  1  0  0  0
  8  9  2  0  0  0
  8 10  1  0  0  0
 10 11  1  0  0  0
 11 12  2  0  0  0
 13 14  1  0  0  0
 25 26  2  0  0  0
 26 27  1  0  0  0
 27 28  2  0  0  0
  7 15  1  0  0  0
 10 16  1  0  0  0
M  END
> <minimizedAffinity>
-6.72168

$$$$
1435


 32 35  0  0  0  0  0  0  0  0999 V2000
   89.3782  100.6235  -43.0916 C   0  0  0  0  0  0  0  0  0  0  0  0
   89.8418  101.6543  -42.0712 C   0  0  0  0  0  0  0  0  0  0  0  0
   90.1236  103.5215  -44.8255 Br  0  0  0  0  0  0  0  0  0  0  0  0
   91.4120  103.0068  -43.5135 C   0  0  0  0  0  0  0  0  0  0  0  0
   91.1114  102.2307  -42.4438 N   0  0  0  0  0  0  0  0  0  0  0  0
   92.2777  102.1001  -41.7729 C   0  0  0  0  0  0  0  0  0  0  0  0
   93.2925  102.7827  -42.4104 C   0  0  0  0  0  0  0  0  0  0  0  0
   92.7153  103.3405  -43.5007 N   0  0  0  0  0  0  0  0  0  0  0  0
   94.5603  102.8097  -41.9404 N   0  0  0  0  0  0  0  0  0  0  0  0
   94.8218  102.1388  -40.8044 C   0  0  0  0  0  0  0  0  0  0  0  0
   95.9787  102.1187  -40.3063 O   0  0  0  0  0  0  0  0  0  0  0  0
   93.8462  101.4542  -40.1468 N   0  0  0  0  0  0  0  0  0  0  0  0
   92.5863  101.4225  -40.6054 C   0  0  0  0  0  0  0  0  0  0  0  0
   91.6555  100.8081  -40.0382 O   0  0  0  0  0  0  0  0  0  0  0  0
   95.6159  103.5323  -42.6250 C   0  0  0  0  0  0  0  0  0  0  0  0
   94.0884  100.9444  -39.2648 H   0  0  0  0  0  0  0  0  0  0  0  0
   89.7731   99.2322  -42.6727 C   0  0  0  0  0  0  0  0  0  0  0  0
   91.1954   98.8647  -42.9740 C   0  0  0  0  0  0  0  0  0  0  0  0
   91.2552   97.6086  -43.6441 N   0  0  0  0  0  0  0  0  0  0  0  0
   91.5376   96.3899  -43.1874 C   0  0  0  0  0  0  0  0  0  0  0  0
   91.4252   95.4823  -44.2346 C   0  0  0  0  0  0  0  0  0  0  0  0
   91.0752   96.2000  -45.2979 N   0  0  0  0  0  0  0  0  0  0  0  0
   90.9678   97.4871  -44.9646 C   0  0  0  0  0  0  0  0  0  0  0  0
   90.4871   98.8725  -46.1831 Br  0  0  0  0  0  0  0  0  0  0  0  0
   91.6633   94.1818  -44.0416 N   0  0  0  0  0  0  0  0  0  0  0  0
   92.0195   93.7151  -42.8294 C   0  0  0  0  0  0  0  0  0  0  0  0
   92.2413   92.4907  -42.6562 O   0  0  0  0  0  0  0  0  0  0  0  0
   92.1325   94.5769  -41.8140 N   0  0  0  0  0  0  0  0  0  0  0  0
   91.9022   95.8898  -41.9648 C   0  0  0  0  0  0  0  0  0  0  0  0
   92.0152   96.6792  -41.0061 O   0  0  0  0  0  0  0  0  0  0  0  0
   91.5519   93.2079  -45.1223 C   0  0  0  0  0  0  0  0  0  0  0  0
   92.4107   94.2516  -40.8443 H   0  0  0  0  0  0  0  0  0  0  0  0
  3  4  1  0  0  0
  4  5  1  0  0  0
  4  8  2  0  0  0
  5  6  1  0  0  0
  5  2  1  0  0  0
  6  7  2  0  0  0
  6 13  1  0  0  0
  7  8  1  0  0  0
  7  9  1  0  0  0
  9 10  1  0  0  0
  9 15  1  0  0  0
 10 11  2  0  0  0
 10 12  1  0  0  0
 12 13  1  0  0  0
 13 14  2  0  0  0
  2  1  1  0  0  0
  1 17  1  0  0  0
 17 18  1  0  0  0
 18 19  1  0  0  0
 19 20  1  0  0  0
 19 23  1  0  0  0
 20 21  2  0  0  0
 20 29  1  0  0  0
 21 22  1  0  0  0
 21 25  1  0  0  0
 22 23  2  0  0  0
 23 24  1  0  0  0
 25 26  1  0  0  0
 25 31  1  0  0  0
 26 27  2  0  0  0
 26 28  1  0  0  0
 28 29  1  0  0  0
 29 30  2  0  0  0
 12 16  1  0  0  0
 28 32  1  0  0  0
M  END
> <minimizedAffinity>
-6.43078

$$$$
1436


 33 36  0  0  0  0  0  0  0  0999 V2000
   91.7858   93.4999  -46.2225 O   0  0  0  0  0  0  0  0  0  0  0  0
   91.1261   94.3870  -45.4381 C   0  0  0  0  0  0  0  0  0  0  0  0
   91.3420   95.8400  -45.5353 C   0  0  0  0  0  0  0  0  0  0  0  0
   88.8493   95.8956  -47.9396 Br  0  0  0  0  0  0  0  0  0  0  0  0
   89.1592   96.8220  -46.2956 C   0  0  0  0  0  0  0  0  0  0  0  0
   90.2081   96.6999  -45.4850 N   0  0  0  0  0  0  0  0  0  0  0  0
   90.0054   97.5934  -44.4772 C   0  0  0  0  0  0  0  0  0  0  0  0
   88.8104   98.2345  -44.7218 C   0  0  0  0  0  0  0  0  0  0  0  0
   88.2904   97.7562  -45.8440 N   0  0  0  0  0  0  0  0  0  0  0  0
   88.3823   99.1890  -43.8493 N   0  0  0  0  0  0  0  0  0  0  0  0
   89.1324   99.4750  -42.7869 C   0  0  0  0  0  0  0  0  0  0  0  0
   88.7085  100.3654  -41.9944 O   0  0  0  0  0  0  0  0  0  0  0  0
   90.2980   98.8567  -42.5395 N   0  0  0  0  0  0  0  0  0  0  0  0
   90.7804   97.8929  -43.3745 C   0  0  0  0  0  0  0  0  0  0  0  0
   91.8739   97.3222  -43.1355 O   0  0  0  0  0  0  0  0  0  0  0  0
   87.1317   99.8853  -44.0704 C   0  0  0  0  0  0  0  0  0  0  0  0
   90.8749   99.0914  -41.7037 H   0  0  0  0  0  0  0  0  0  0  0  0
   90.9075   92.7269  -46.9640 C   0  0  0  0  0  0  0  0  0  0  0  0
   91.5406   92.3899  -48.2810 C   0  0  0  0  0  0  0  0  0  0  0  0
   90.9841   91.2077  -48.8585 N   0  0  0  0  0  0  0  0  0  0  0  0
   91.4862   89.9705  -48.7492 C   0  0  0  0  0  0  0  0  0  0  0  0
   90.6729   89.1296  -49.4432 C   0  0  0  0  0  0  0  0  0  0  0  0
   89.6976   89.8739  -49.9576 N   0  0  0  0  0  0  0  0  0  0  0  0
   89.8555   91.1638  -49.6176 C   0  0  0  0  0  0  0  0  0  0  0  0
   88.7837   92.6687  -50.0575 Br  0  0  0  0  0  0  0  0  0  0  0  0
   90.9495   87.8152  -49.4947 N   0  0  0  0  0  0  0  0  0  0  0  0
   92.0241   87.3541  -48.8591 C   0  0  0  0  0  0  0  0  0  0  0  0
   92.2709   86.1200  -48.9157 O   0  0  0  0  0  0  0  0  0  0  0  0
   92.8298   88.1578  -48.1762 N   0  0  0  0  0  0  0  0  0  0  0  0
   92.5958   89.4704  -48.0971 C   0  0  0  0  0  0  0  0  0  0  0  0
   93.3925   90.2068  -47.4321 O   0  0  0  0  0  0  0  0  0  0  0  0
   90.0957   86.9047  -50.2286 C   0  0  0  0  0  0  0  0  0  0  0  0
   93.6675   87.7773  -47.6847 H   0  0  0  0  0  0  0  0  0  0  0  0
  4  5  1  0  0  0
  5  6  1  0  0  0
  5  9  2  0  0  0
  6  7  1  0  0  0
  6  3  1  0  0  0
  7  8  2  0  0  0
  7 14  1  0  0  0
  8  9  1  0  0  0
  8 10  1  0  0  0
 10 11  1  0  0  0
 10 16  1  0  0  0
 11 12  2  0  0  0
 11 13  1  0  0  0
 13 14  1  0  0  0
 14 15  2  0  0  0
  3  2  1  0  0  0
  2  1  1  0  0  0
  1 18  1  0  0  0
 18 19  1  0  0  0
 19 20  1  0  0  0
 20 21  1  0  0  0
 20 24  1  0  0  0
 21 22  2  0  0  0
 21 30  1  0  0  0
 22 23  1  0  0  0
 22 26  1  0  0  0
 23 24  2  0  0  0
 24 25  1  0  0  0
 26 27  1  0  0  0
 26 32  1  0  0  0
 27 28  2  0  0  0
 27 29  1  0  0  0
 29 30  1  0  0  0
 30 31  2  0  0  0
 13 17  1  0  0  0
 29 33  1  0  0  0
M  END
> <minimizedAffinity>
-6.38169

$$$$
1444


 33 36  0  0  0  0  0  0  0  0999 V2000
   89.8206   99.8116  -42.3864 N   0  0  0  0  0  0  0  0  0  0  0  0
   90.4455  101.0075  -42.2289 C   0  0  0  0  0  0  0  0  0  0  0  0
   90.7503  101.1459  -40.8954 O   0  0  0  0  0  0  0  0  0  0  0  0
   89.7317   99.2533  -41.4145 H   0  0  0  0  0  0  0  0  0  0  0  0
   89.7236   98.1738  -44.2256 N   0  0  0  0  0  0  0  0  0  0  0  0
   88.7658   97.6824  -45.0015 N   0  0  0  0  0  0  0  0  0  0  0  0
   87.5954   98.2343  -44.7305 C   0  0  0  0  0  0  0  0  0  0  0  0
   87.8294   99.1524  -43.6960 C   0  0  0  0  0  0  0  0  0  0  0  0
   89.1705   99.1038  -43.3902 C   0  0  0  0  0  0  0  0  0  0  0  0
   91.0985   97.8144  -44.2453 C   0  0  0  0  0  0  0  0  0  0  0  0
   91.2269   95.1447  -45.7527 Cl  0  0  0  0  0  0  0  0  0  0  0  0
   91.5064   95.3514  -44.0391 C   0  0  0  0  0  0  0  0  0  0  0  0
   91.4207   96.5938  -43.4832 C   0  0  0  0  0  0  0  0  0  0  0  0
   91.6502   96.6986  -42.1295 C   0  0  0  0  0  0  0  0  0  0  0  0
   91.9542   95.6107  -41.3521 C   0  0  0  0  0  0  0  0  0  0  0  0
   92.0385   94.3594  -41.9247 C   0  0  0  0  0  0  0  0  0  0  0  0
   91.8103   94.2469  -43.2774 C   0  0  0  0  0  0  0  0  0  0  0  0
   90.9027  102.1751  -42.9646 C   0  0  0  0  0  0  0  0  0  0  0  0
   91.6818  102.1726  -44.1271 N   0  0  0  0  0  0  0  0  0  0  0  0
   91.3085  101.4083  -45.3472 C   0  0  0  0  0  0  0  0  0  0  0  0
   92.5678  101.3970  -46.1884 C   0  0  0  0  0  0  0  0  0  0  0  0
   92.8881  102.8112  -46.5947 C   0  0  0  0  0  0  0  0  0  0  0  0
   93.3129  103.5998  -45.3741 C   0  0  0  0  0  0  0  0  0  0  0  0
   92.9431  102.8562  -44.1349 C   0  0  0  0  0  0  0  0  0  0  0  0
   93.8102  102.7601  -43.1244 C   0  0  0  0  0  0  0  0  0  0  0  0
   95.0641  103.4629  -43.1460 N   0  0  0  0  0  0  0  0  0  0  0  0
   95.8029  103.1327  -41.9954 N   0  0  0  0  0  0  0  0  0  0  0  0
   95.0396  102.2256  -41.2323 C   0  0  0  0  0  0  0  0  0  0  0  0
   95.3113  101.6774  -40.1400 O   0  0  0  0  0  0  0  0  0  0  0  0
   93.8124  102.0104  -41.9523 N   0  0  0  0  0  0  0  0  0  0  0  0
   95.4673  104.1292  -43.8326 H   0  0  0  0  0  0  0  0  0  0  0  0
   96.7548  103.4798  -41.7189 H   0  0  0  0  0  0  0  0  0  0  0  0
   93.0654  101.3687  -41.6399 H   0  0  0  0  0  0  0  0  0  0  0  0
 11 12  1  0  0  0
 12 13  2  0  0  0
 12 17  1  0  0  0
 13 14  1  0  0  0
 13 10  1  0  0  0
 14 15  2  0  0  0
 15 16  1  0  0  0
 16 17  2  0  0  0
 10  5  1  0  0  0
  5  6  1  0  0  0
  5  9  1  0  0  0
  6  7  2  0  0  0
  7  8  1  0  0  0
  8  9  2  0  0  0
  9  1  1  0  0  0
  1  2  1  0  0  0
  2  3  2  0  0  0
  2 18  1  0  0  0
 18 19  1  0  0  0
 19 20  1  0  0  0
 19 24  1  0  0  0
 20 21  1  0  0  0
 21 22  1  0  0  0
 22 23  1  0  0  0
 23 24  1  0  0  0
 24 25  2  0  0  0
 25 26  1  0  0  0
 25 30  1  0  0  0
 26 27  1  0  0  0
 27 28  1  0  0  0
 28 29  2  0  0  0
 28 30  1  0  0  0
  1  4  1  0  0  0
 26 31  1  0  0  0
 27 32  1  0  0  0
 30 33  1  0  0  0
M  END
> <minimizedAffinity>
-6.94813

$$$$
1447


 38 41  0  0  0  0  0  0  0  0999 V2000
   91.0109   96.1989  -45.2462 C   0  0  0  0  0  0  0  0  0  0  0  0
   90.1430   96.1933  -46.3094 N   0  0  0  0  0  0  0  0  0  0  0  0
   90.1386   95.0105  -46.8587 N   0  0  0  0  0  0  0  0  0  0  0  0
   90.9595   94.1845  -46.2333 N   0  0  0  0  0  0  0  0  0  0  0  0
   91.5128   94.8930  -45.2345 C   0  0  0  0  0  0  0  0  0  0  0  0
   91.1377   92.8245  -46.5875 C   0  0  0  0  0  0  0  0  0  0  0  0
   91.7717   91.8396  -45.9162 N   0  0  0  0  0  0  0  0  0  0  0  0
   91.6952   90.7235  -46.5914 O   0  0  0  0  0  0  0  0  0  0  0  0
   91.0308   90.9079  -47.7036 N   0  0  0  0  0  0  0  0  0  0  0  0
   90.6689   92.2013  -47.7340 C   0  0  0  0  0  0  0  0  0  0  0  0
   89.9306   92.7950  -48.7805 N   0  0  0  0  0  0  0  0  0  0  0  0
   88.9307   92.5467  -48.8909 H   0  0  0  0  0  0  0  0  0  0  0  0
   90.3482   93.4711  -49.4450 H   0  0  0  0  0  0  0  0  0  0  0  0
   90.4971   97.8927  -43.3929 N   0  0  0  0  0  0  0  0  0  0  0  0
   91.2839   97.3414  -44.3950 C   0  0  0  0  0  0  0  0  0  0  0  0
   92.4185   97.9109  -44.6151 O   0  0  0  0  0  0  0  0  0  0  0  0
   89.5511   97.5707  -43.0784 H   0  0  0  0  0  0  0  0  0  0  0  0
   90.2294   99.9963  -42.3834 C   0  0  0  0  0  0  0  0  0  0  0  0
   91.0231   99.0366  -42.7015 N   0  0  0  0  0  0  0  0  0  0  0  0
   93.7844  102.2948  -39.1860 Br  0  0  0  0  0  0  0  0  0  0  0  0
   92.2088  102.3525  -40.2363 C   0  0  0  0  0  0  0  0  0  0  0  0
   91.4906  103.5089  -40.3266 C   0  0  0  0  0  0  0  0  0  0  0  0
   90.3362  103.5198  -41.1053 C   0  0  0  0  0  0  0  0  0  0  0  0
   89.9429  102.3615  -41.7682 C   0  0  0  0  0  0  0  0  0  0  0  0
   90.6579  101.1970  -41.6825 C   0  0  0  0  0  0  0  0  0  0  0  0
   91.7971  101.2008  -40.9088 C   0  0  0  0  0  0  0  0  0  0  0  0
   92.5132  100.0164  -40.8296 O   0  0  0  0  0  0  0  0  0  0  0  0
   89.3161  105.1107  -41.2525 Br  0  0  0  0  0  0  0  0  0  0  0  0
   91.8655  104.6744  -39.6743 O   0  0  0  0  0  0  0  0  0  0  0  0
   93.3578   99.9680  -40.2735 H   0  0  0  0  0  0  0  0  0  0  0  0
   91.3175  105.5151  -39.7565 H   0  0  0  0  0  0  0  0  0  0  0  0
   92.4679   94.4071  -44.2343 C   0  0  0  0  0  0  0  0  0  0  0  0
   91.9318   93.3810  -43.3360 N   0  0  0  0  0  0  0  0  0  0  0  0
   91.2721   94.0529  -42.1992 C   0  0  0  0  0  0  0  0  0  0  0  0
   92.1558   95.1255  -41.6652 C   0  0  0  0  0  0  0  0  0  0  0  0
   93.3890   94.6012  -41.3651 O   0  0  0  0  0  0  0  0  0  0  0  0
   93.4527   93.2338  -41.4246 C   0  0  0  0  0  0  0  0  0  0  0  0
   93.0753   92.6376  -42.7557 C   0  0  0  0  0  0  0  0  0  0  0  0
 20 21  1  0  0  0
 21 22  2  0  0  0
 21 26  1  0  0  0
 22 23  1  0  0  0
 22 29  1  0  0  0
 23 24  2  0  0  0
 23 28  1  0  0  0
 24 25  1  0  0  0
 25 26  2  0  0  0
 25 18  1  0  0  0
 26 27  1  0  0  0
 18 19  2  0  0  0
 19 14  1  0  0  0
 14 15  1  0  0  0
 15 16  2  0  0  0
 15  1  1  0  0  0
  1  2  1  0  0  0
  1  5  2  0  0  0
  2  3  2  0  0  0
  3  4  1  0  0  0
  4  5  1  0  0  0
  4  6  1  0  0  0
  5 32  1  0  0  0
 32 33  1  0  0  0
 33 34  1  0  0  0
 33 38  1  0  0  0
 34 35  1  0  0  0
 35 36  1  0  0  0
 36 37  1  0  0  0
 37 38  1  0  0  0
  6  7  2  0  0  0
  6 10  1  0  0  0
  7  8  1  0  0  0
  8  9  1  0  0  0
  9 10  2  0  0  0
 10 11  1  0  0  0
 27 30  1  0  0  0
 14 17  1  0  0  0
 11 12  1  0  0  0
 11 13  1  0  0  0
 29 31  1  0  0  0
M  END
> <minimizedAffinity>
-6.90625

$$$$
1466


 29 32  0  0  0  0  0  0  0  0999 V2000
   91.4607   96.3528  -43.7227 N   0  0  0  0  0  0  0  0  0  0  0  0
   91.3818   96.9019  -44.9233 N   0  0  0  0  0  0  0  0  0  0  0  0
   91.3332   95.9649  -45.8603 N   0  0  0  0  0  0  0  0  0  0  0  0
   91.3802   94.7553  -45.2802 C   0  0  0  0  0  0  0  0  0  0  0  0
   91.4609   95.0092  -43.9311 C   0  0  0  0  0  0  0  0  0  0  0  0
   91.3529   93.4575  -45.9306 C   0  0  0  0  0  0  0  0  0  0  0  0
   90.8693   93.1704  -47.1525 N   0  0  0  0  0  0  0  0  0  0  0  0
   91.0250   91.8589  -47.3952 C   0  0  0  0  0  0  0  0  0  0  0  0
   91.6124   91.3531  -46.2991 N   0  0  0  0  0  0  0  0  0  0  0  0
   91.7919   92.3221  -45.4547 O   0  0  0  0  0  0  0  0  0  0  0  0
   90.6309   91.1235  -48.6163 C   0  0  0  0  0  0  0  0  0  0  0  0
   90.0704   91.8030  -49.6729 C   0  0  0  0  0  0  0  0  0  0  0  0
   89.7082   91.1439  -50.7901 N   0  0  0  0  0  0  0  0  0  0  0  0
   89.8666   89.8133  -50.9419 C   0  0  0  0  0  0  0  0  0  0  0  0
   90.4308   89.1402  -49.8755 C   0  0  0  0  0  0  0  0  0  0  0  0
   90.8136   89.7718  -48.7211 C   0  0  0  0  0  0  0  0  0  0  0  0
   91.5349   97.0249  -42.4203 C   0  0  0  0  0  0  0  0  0  0  0  0
   91.8297   98.4783  -42.7159 C   0  0  0  0  0  0  0  0  0  0  0  0
   92.2636  100.5971  -41.5328 C   0  0  0  0  0  0  0  0  0  0  0  0
   91.9288  101.2159  -42.5967 O   0  0  0  0  0  0  0  0  0  0  0  0
   92.2405   99.1773  -41.5079 N   0  0  0  0  0  0  0  0  0  0  0  0
   92.5099   98.6594  -40.6482 H   0  0  0  0  0  0  0  0  0  0  0  0
   91.0152  103.9317  -37.5132 Br  0  0  0  0  0  0  0  0  0  0  0  0
   92.2175  102.8806  -38.5606 C   0  0  0  0  0  0  0  0  0  0  0  0
   93.5509  102.8673  -38.2174 C   0  0  0  0  0  0  0  0  0  0  0  0
   94.4282  102.1332  -38.9406 N   0  0  0  0  0  0  0  0  0  0  0  0
   93.9646  101.4268  -39.9883 C   0  0  0  0  0  0  0  0  0  0  0  0
   92.6574  101.3966  -40.3821 C   0  0  0  0  0  0  0  0  0  0  0  0
   91.7545  102.1429  -39.6505 C   0  0  0  0  0  0  0  0  0  0  0  0
 23 24  1  0  0  0
 24 25  2  0  0  0
 24 29  1  0  0  0
 25 26  1  0  0  0
 26 27  2  0  0  0
 27 28  1  0  0  0
 28 29  2  0  0  0
 28 19  1  0  0  0
 19 20  2  0  0  0
 19 21  1  0  0  0
 21 18  1  0  0  0
 18 17  1  0  0  0
 17  1  1  0  0  0
  1  2  1  0  0  0
  1  5  1  0  0  0
  2  3  2  0  0  0
  3  4  1  0  0  0
  4  5  2  0  0  0
  4  6  1  0  0  0
  6  7  2  0  0  0
  6 10  1  0  0  0
  7  8  1  0  0  0
  8  9  2  0  0  0
  8 11  1  0  0  0
  9 10  1  0  0  0
 11 12  2  0  0  0
 11 16  1  0  0  0
 12 13  1  0  0  0
 13 14  2  0  0  0
 14 15  1  0  0  0
 15 16  2  0  0  0
 21 22  1  0  0  0
M  END
> <minimizedAffinity>
-7.22983

$$$$
1471


 31 34  0  0  0  0  0  0  0  0999 V2000
   90.7127   96.7356  -44.7422 C   0  0  0  0  0  0  0  0  0  0  0  0
   90.6855   95.7302  -45.6689 C   0  0  0  0  0  0  0  0  0  0  0  0
   91.1092   94.4513  -45.4296 N   0  0  0  0  0  0  0  0  0  0  0  0
   91.5750   94.1810  -44.2145 C   0  0  0  0  0  0  0  0  0  0  0  0
   91.6411   95.1212  -43.2201 C   0  0  0  0  0  0  0  0  0  0  0  0
   91.1869   96.4724  -43.4908 C   0  0  0  0  0  0  0  0  0  0  0  0
   91.3682   97.1616  -42.3487 N   0  0  0  0  0  0  0  0  0  0  0  0
   91.8816   96.3717  -41.4209 N   0  0  0  0  0  0  0  0  0  0  0  0
   92.0621   95.1349  -41.9021 C   0  0  0  0  0  0  0  0  0  0  0  0
   92.5271   94.1061  -41.3233 O   0  0  0  0  0  0  0  0  0  0  0  0
   92.1346   96.6213  -40.4241 H   0  0  0  0  0  0  0  0  0  0  0  0
   92.4572  100.8245  -44.1518 N   0  0  0  0  0  0  0  0  0  0  0  0
   91.6341  101.4120  -45.1759 C   0  0  0  0  0  0  0  0  0  0  0  0
   90.6876  100.4285  -45.8172 C   0  0  0  0  0  0  0  0  0  0  0  0
   91.1214   99.1005  -45.4758 N   0  0  0  0  0  0  0  0  0  0  0  0
   92.5326   98.8208  -45.5477 C   0  0  0  0  0  0  0  0  0  0  0  0
   93.1709   99.5561  -44.3609 C   0  0  0  0  0  0  0  0  0  0  0  0
   90.2417   98.0692  -45.0802 C   0  0  0  0  0  0  0  0  0  0  0  0
   88.9933   98.2648  -45.0021 O   0  0  0  0  0  0  0  0  0  0  0  0
   90.1803  100.4360  -42.2216 Cl  0  0  0  0  0  0  0  0  0  0  0  0
   91.6605  101.3483  -41.9099 C   0  0  0  0  0  0  0  0  0  0  0  0
   92.6189  101.4398  -42.8954 C   0  0  0  0  0  0  0  0  0  0  0  0
   93.7556  102.1527  -42.6273 C   0  0  0  0  0  0  0  0  0  0  0  0
   93.9765  102.7825  -41.4119 C   0  0  0  0  0  0  0  0  0  0  0  0
   92.9791  102.6664  -40.4378 C   0  0  0  0  0  0  0  0  0  0  0  0
   91.8304  101.9562  -40.6843 C   0  0  0  0  0  0  0  0  0  0  0  0
   91.0706   93.4681  -46.5012 C   0  0  0  0  0  0  0  0  0  0  0  0
   91.4920   92.1121  -46.1476 C   0  0  0  0  0  0  0  0  0  0  0  0
   91.3264   90.9431  -47.0133 C   0  0  0  0  0  0  0  0  0  0  0  0
   92.2112   90.6355  -47.9757 O   0  0  0  0  0  0  0  0  0  0  0  0
   93.3592   89.9933  -47.7508 C   0  0  0  0  0  0  0  0  0  0  0  0
 20 21  1  0  0  0
 21 22  2  0  0  0
 21 26  1  0  0  0
 22 23  1  0  0  0
 22 12  1  0  0  0
 23 24  2  0  0  0
 24 25  1  0  0  0
 25 26  2  0  0  0
 12 13  1  0  0  0
 12 17  1  0  0  0
 13 14  1  0  0  0
 14 15  1  0  0  0
 15 16  1  0  0  0
 15 18  1  0  0  0
 16 17  1  0  0  0
 18 19  2  0  0  0
 18  1  1  0  0  0
  1  2  2  0  0  0
  1  6  1  0  0  0
  2  3  1  0  0  0
  3  4  1  0  0  0
  3 27  1  0  0  0
  4  5  2  0  0  0
  5  6  1  0  0  0
  5  9  1  0  0  0
  6  7  2  0  0  0
  7  8  1  0  0  0
  8  9  1  0  0  0
  9 10  2  0  0  0
 27 28  1  0  0  0
 28 29  1  0  0  0
 29 30  1  0  0  0
 30 31  1  0  0  0
  8 11  1  0  0  0
M  END
> <minimizedAffinity>
-6.86424

$$$$
1477


 35 39  0  0  0  0  0  0  0  0999 V2000
   90.0950   99.3776  -47.0316 C   0  0  0  0  0  0  0  0  0  0  0  0
   88.7209   99.5479  -47.2148 N   0  0  0  0  0  0  0  0  0  0  0  0
   88.0782   99.2342  -45.9421 C   0  0  0  0  0  0  0  0  0  0  0  0
   86.8702   99.3909  -45.6331 O   0  0  0  0  0  0  0  0  0  0  0  0
   89.0602   98.6835  -45.0210 C   0  0  0  0  0  0  0  0  0  0  0  0
   88.8453   98.3075  -43.8204 O   0  0  0  0  0  0  0  0  0  0  0  0
   90.3090   98.6571  -45.7350 C   0  0  0  0  0  0  0  0  0  0  0  0
   91.4331   98.1349  -45.2897 C   0  0  0  0  0  0  0  0  0  0  0  0
   92.5489   98.2908  -46.1453 O   0  0  0  0  0  0  0  0  0  0  0  0
   91.6159   97.4288  -44.0354 C   0  0  0  0  0  0  0  0  0  0  0  0
   91.6069   96.1257  -43.7144 N   0  0  0  0  0  0  0  0  0  0  0  0
   91.7761   95.9160  -42.4002 C   0  0  0  0  0  0  0  0  0  0  0  0
   91.9006   97.1417  -41.8443 N   0  0  0  0  0  0  0  0  0  0  0  0
   91.8100   98.0751  -42.7949 C   0  0  0  0  0  0  0  0  0  0  0  0
   91.8943   99.5309  -42.6138 C   0  0  0  0  0  0  0  0  0  0  0  0
   91.8158   94.6482  -41.8521 C   0  0  0  0  0  0  0  0  0  0  0  0
   91.6755   93.5659  -42.6784 C   0  0  0  0  0  0  0  0  0  0  0  0
   91.5020   93.7813  -44.0323 C   0  0  0  0  0  0  0  0  0  0  0  0
   91.4679   95.0569  -44.5452 C   0  0  0  0  0  0  0  0  0  0  0  0
   93.6846  101.6420  -50.2471 Br  0  0  0  0  0  0  0  0  0  0  0  0
   92.6858  101.5467  -48.6363 C   0  0  0  0  0  0  0  0  0  0  0  0
   91.8034  100.5121  -48.4161 C   0  0  0  0  0  0  0  0  0  0  0  0
   91.0615  100.4395  -47.2296 C   0  0  0  0  0  0  0  0  0  0  0  0
   91.2900  101.4629  -46.3362 C   0  0  0  0  0  0  0  0  0  0  0  0
   92.1540  102.5040  -46.5132 C   0  0  0  0  0  0  0  0  0  0  0  0
   92.8679  102.5423  -47.6973 C   0  0  0  0  0  0  0  0  0  0  0  0
   87.9993   99.8541  -48.3955 C   0  0  0  0  0  0  0  0  0  0  0  0
   88.2666   99.1649  -49.6558 C   0  0  0  0  0  0  0  0  0  0  0  0
   87.4802   98.0351  -50.0554 N   0  0  0  0  0  0  0  0  0  0  0  0
   88.2594   97.3180  -51.0649 C   0  0  0  0  0  0  0  0  0  0  0  0
   89.1702   96.2910  -50.4728 C   0  0  0  0  0  0  0  0  0  0  0  0
   89.2690   96.4479  -49.0818 O   0  0  0  0  0  0  0  0  0  0  0  0
   88.0135   96.1661  -48.5918 C   0  0  0  0  0  0  0  0  0  0  0  0
   87.0444   97.2244  -48.9690 C   0  0  0  0  0  0  0  0  0  0  0  0
   86.6166   98.3314  -50.6004 H   0  0  0  0  0  0  0  0  0  0  0  0
 20 21  1  0  0  0
 21 22  2  0  0  0
 21 26  1  0  0  0
 22 23  1  0  0  0
 23 24  2  0  0  0
 23  1  1  0  0  0
 24 25  1  0  0  0
 25 26  2  0  0  0
  1  2  1  0  0  0
  1  7  1  0  0  0
  2  3  1  0  0  0
  2 27  1  0  0  0
  3  4  2  0  0  0
  3  5  1  0  0  0
  5  6  2  0  0  0
  5  7  1  0  0  0
  7  8  2  0  0  0
  8  9  1  0  0  0
  8 10  1  0  0  0
 10 11  1  0  0  0
 10 14  2  0  0  0
 11 12  1  0  0  0
 11 19  1  0  0  0
 12 13  2  0  0  0
 12 16  1  0  0  0
 13 14  1  0  0  0
 14 15  1  0  0  0
 16 17  2  0  0  0
 17 18  1  0  0  0
 18 19  2  0  0  0
 27 28  1  0  0  0
 28 29  1  0  0  0
 29 30  1  0  0  0
 29 34  1  0  0  0
 30 31  1  0  0  0
 31 32  1  0  0  0
 32 33  1  0  0  0
 33 34  1  0  0  0
 29 35  1  0  0  0
M  CHG 1   9  -1
M  CHG 1  29   1
M  END
> <minimizedAffinity>
-5.97239

$$$$
1486


 31 34  0  0  0  0  0  0  0  0999 V2000
   91.5721   96.8399  -45.0479 N   0  0  0  0  0  0  0  0  0  0  0  0
   91.7745   95.7810  -45.7983 N   0  0  0  0  0  0  0  0  0  0  0  0
   91.7724   94.6665  -45.0520 C   0  0  0  0  0  0  0  0  0  0  0  0
   91.5603   95.0467  -43.7836 N   0  0  0  0  0  0  0  0  0  0  0  0
   91.4370   96.4067  -43.7899 C   0  0  0  0  0  0  0  0  0  0  0  0
   91.1953   97.2541  -42.6235 C   0  0  0  0  0  0  0  0  0  0  0  0
   92.2588   97.1131  -41.5602 C   0  0  0  0  0  0  0  0  0  0  0  0
   92.1597   95.7902  -40.8332 C   0  0  0  0  0  0  0  0  0  0  0  0
   92.5777   94.6229  -41.6728 C   0  0  0  0  0  0  0  0  0  0  0  0
   91.4795   94.1761  -42.6274 C   0  0  0  0  0  0  0  0  0  0  0  0
   91.5079   98.2026  -45.4846 C   0  0  0  0  0  0  0  0  0  0  0  0
   90.2543   98.4855  -46.2328 C   0  0  0  0  0  0  0  0  0  0  0  0
   90.3627   98.8527  -47.4329 O   0  0  0  0  0  0  0  0  0  0  0  0
   84.6493   97.9918  -43.6926 Br  0  0  0  0  0  0  0  0  0  0  0  0
   86.3981   98.1527  -44.4796 C   0  0  0  0  0  0  0  0  0  0  0  0
   86.8116   97.2373  -45.4321 C   0  0  0  0  0  0  0  0  0  0  0  0
   88.0751   97.3479  -46.0048 C   0  0  0  0  0  0  0  0  0  0  0  0
   88.9379   98.3574  -45.6460 C   0  0  0  0  0  0  0  0  0  0  0  0
   88.4948   99.2499  -44.6957 C   0  0  0  0  0  0  0  0  0  0  0  0
   87.2535   99.1646  -44.1141 C   0  0  0  0  0  0  0  0  0  0  0  0
   91.9621   93.2802  -45.5008 C   0  0  0  0  0  0  0  0  0  0  0  0
   91.2254   92.9811  -46.6903 N   0  0  0  0  0  0  0  0  0  0  0  0
   90.5482   93.6619  -47.0640 H   0  0  0  0  0  0  0  0  0  0  0  0
   91.3761   91.7612  -47.4099 C   0  0  0  0  0  0  0  0  0  0  0  0
   90.4127   91.2937  -48.2747 C   0  0  0  0  0  0  0  0  0  0  0  0
   90.5712   90.1203  -48.9658 C   0  0  0  0  0  0  0  0  0  0  0  0
   91.7064   89.3910  -48.7994 C   0  0  0  0  0  0  0  0  0  0  0  0
   92.6727   89.8552  -47.9343 C   0  0  0  0  0  0  0  0  0  0  0  0
   92.5244   91.0347  -47.2345 C   0  0  0  0  0  0  0  0  0  0  0  0
   91.8924   88.2105  -49.4782 O   0  0  0  0  0  0  0  0  0  0  0  0
   90.9163   87.2001  -49.5372 C   0  0  0  0  0  0  0  0  0  0  0  0
 14 15  1  0  0  0
 15 16  2  0  0  0
 15 20  1  0  0  0
 16 17  1  0  0  0
 17 18  2  0  0  0
 18 19  1  0  0  0
 18 12  1  0  0  0
 19 20  2  0  0  0
 12 13  2  0  0  0
 12 11  1  0  0  0
 11  1  1  0  0  0
  1  2  1  0  0  0
  1  5  2  0  0  0
  2  3  2  0  0  0
  3  4  1  0  0  0
  3 21  1  0  0  0
  4  5  1  0  0  0
  4 10  1  0  0  0
  5  6  1  0  0  0
  6  7  1  0  0  0
  7  8  1  0  0  0
  8  9  1  0  0  0
  9 10  1  0  0  0
 21 22  1  0  0  0
 22 24  1  0  0  0
 24 25  2  0  0  0
 24 29  1  0  0  0
 25 26  1  0  0  0
 26 27  2  0  0  0
 27 28  1  0  0  0
 27 30  1  0  0  0
 28 29  2  0  0  0
 30 31  1  0  0  0
 22 23  1  0  0  0
M  END
> <minimizedAffinity>
-7.14347

$$$$
1487


 29 32  0  0  0  0  0  0  0  0999 V2000
   91.7427   97.4999  -45.7446 N   0  0  0  0  0  0  0  0  0  0  0  0
   92.7854   98.3716  -45.2644 C   0  0  0  0  0  0  0  0  0  0  0  0
   92.2863   99.7356  -45.0332 C   0  0  0  0  0  0  0  0  0  0  0  0
   90.9096   99.6607  -45.4324 N   0  0  0  0  0  0  0  0  0  0  0  0
   89.9638  100.6659  -45.8570 C   0  0  0  0  0  0  0  0  0  0  0  0
   88.7462  100.7927  -44.9990 C   0  0  0  0  0  0  0  0  0  0  0  0
   88.5694   99.7178  -43.9843 C   0  0  0  0  0  0  0  0  0  0  0  0
   88.0912   98.4442  -44.7176 C   0  0  0  0  0  0  0  0  0  0  0  0
   89.3793   97.7331  -45.0920 C   0  0  0  0  0  0  0  0  0  0  0  0
   90.5469   98.2534  -45.3932 C   0  0  0  0  0  0  0  0  0  0  0  0
   92.9178  100.6305  -45.9413 O   0  0  0  0  0  0  0  0  0  0  0  0
   91.6924   97.3329  -46.7436 H   0  0  0  0  0  0  0  0  0  0  0  0
   93.7722  100.1643  -46.2244 H   0  0  0  0  0  0  0  0  0  0  0  0
   91.6977   94.8802  -41.2656 Cl  0  0  0  0  0  0  0  0  0  0  0  0
   91.6538   94.9447  -43.0212 C   0  0  0  0  0  0  0  0  0  0  0  0
   91.6715   96.1682  -43.6858 C   0  0  0  0  0  0  0  0  0  0  0  0
   91.6126   96.2657  -45.0541 C   0  0  0  0  0  0  0  0  0  0  0  0
   91.5363   95.0547  -45.7525 C   0  0  0  0  0  0  0  0  0  0  0  0
   91.5168   93.8228  -45.1081 C   0  0  0  0  0  0  0  0  0  0  0  0
   91.5741   93.7698  -43.7410 C   0  0  0  0  0  0  0  0  0  0  0  0
   92.5002  100.3092  -43.7267 C   0  0  0  0  0  0  0  0  0  0  0  0
   93.3021  101.4283  -43.5016 C   0  0  0  0  0  0  0  0  0  0  0  0
   93.4848  101.9907  -42.2458 C   0  0  0  0  0  0  0  0  0  0  0  0
   92.8359  101.4123  -41.1548 C   0  0  0  0  0  0  0  0  0  0  0  0
   92.0432  100.3152  -41.3313 C   0  0  0  0  0  0  0  0  0  0  0  0
   91.8832   99.7756  -42.6176 C   0  0  0  0  0  0  0  0  0  0  0  0
   94.3126  103.1259  -42.0916 N   0  0  0  0  0  0  0  0  0  0  0  0
   93.7858  104.2780  -41.9939 O   0  0  0  0  0  0  0  0  0  0  0  0
   95.6550  103.0649  -42.0451 O   0  0  0  0  0  0  0  0  0  0  0  0
 14 15  1  0  0  0
 15 16  2  0  0  0
 15 20  1  0  0  0
 16 17  1  0  0  0
 17 18  2  0  0  0
 17  1  1  0  0  0
 18 19  1  0  0  0
 19 20  2  0  0  0
  1  2  1  0  0  0
  1 10  1  0  0  0
  2  3  1  0  0  0
  3  4  1  0  0  0
  3 11  1  0  0  0
  3 21  1  0  0  0
  4  5  1  0  0  0
  4 10  1  0  0  0
  5  6  1  0  0  0
  6  7  1  0  0  0
  7  8  1  0  0  0
  8  9  1  0  0  0
  9 10  2  0  0  0
 21 22  2  0  0  0
 21 26  1  0  0  0
 22 23  1  0  0  0
 23 24  2  0  0  0
 23 27  1  0  0  0
 24 25  1  0  0  0
 25 26  2  0  0  0
 27 28  2  0  0  0
 27 29  1  0  0  0
  1 12  1  0  0  0
 11 13  1  0  0  0
M  CHG 1   1   1
M  CHG 1  29  -1
M  END
> <minimizedAffinity>
-6.92993

$$$$
1491


 34 38  0  0  0  0  0  0  0  0999 V2000
   88.9649   97.8298  -47.0539 F   0  0  0  0  0  0  0  0  0  0  0  0
   89.6835   96.9435  -46.3417 C   0  0  0  0  0  0  0  0  0  0  0  0
   89.8224   95.7014  -46.9541 C   0  0  0  0  0  0  0  0  0  0  0  0
   90.5402   94.6973  -46.3431 C   0  0  0  0  0  0  0  0  0  0  0  0
   91.1106   94.9620  -45.1207 C   0  0  0  0  0  0  0  0  0  0  0  0
   90.9614   96.2106  -44.5256 C   0  0  0  0  0  0  0  0  0  0  0  0
   90.2492   97.2163  -45.1218 C   0  0  0  0  0  0  0  0  0  0  0  0
   91.8096   93.9647  -44.5423 N   0  0  0  0  0  0  0  0  0  0  0  0
   91.9577   92.7561  -45.1138 C   0  0  0  0  0  0  0  0  0  0  0  0
   91.3985   92.4593  -46.3371 C   0  0  0  0  0  0  0  0  0  0  0  0
   90.6767   93.4479  -46.9635 C   0  0  0  0  0  0  0  0  0  0  0  0
   90.1423   93.2444  -48.0792 O   0  0  0  0  0  0  0  0  0  0  0  0
   90.1140   98.4516  -44.4888 N   0  0  0  0  0  0  0  0  0  0  0  0
   90.8547   99.5384  -45.0768 C   0  0  0  0  0  0  0  0  0  0  0  0
   90.4929  100.8641  -44.3664 C   0  0  0  0  0  0  0  0  0  0  0  0
   90.9250  100.7080  -43.0337 N   0  0  0  0  0  0  0  0  0  0  0  0
   90.0688   99.6789  -42.3254 C   0  0  0  0  0  0  0  0  0  0  0  0
   90.3667   98.4230  -43.0856 C   0  0  0  0  0  0  0  0  0  0  0  0
   91.9432  101.2381  -42.3157 C   0  0  0  0  0  0  0  0  0  0  0  0
   91.9750  100.8962  -41.0501 O   0  0  0  0  0  0  0  0  0  0  0  0
   89.0887   98.7270  -44.5929 H   0  0  0  0  0  0  0  0  0  0  0  0
   93.0108  102.1218  -42.6930 C   0  0  0  0  0  0  0  0  0  0  0  0
   92.9782  102.9465  -43.7705 C   0  0  0  0  0  0  0  0  0  0  0  0
   94.0125  103.8254  -44.0659 C   0  0  0  0  0  0  0  0  0  0  0  0
   95.1107  103.8655  -43.2461 C   0  0  0  0  0  0  0  0  0  0  0  0
   95.1953  103.0552  -42.1494 C   0  0  0  0  0  0  0  0  0  0  0  0
   94.1643  102.2052  -41.8856 C   0  0  0  0  0  0  0  0  0  0  0  0
   93.9240  104.8815  -45.4775 Cl  0  0  0  0  0  0  0  0  0  0  0  0
   91.5698   91.1282  -46.9498 C   0  0  0  0  0  0  0  0  0  0  0  0
   90.6085   90.4360  -47.3201 O   0  0  0  0  0  0  0  0  0  0  0  0
   92.8508   90.6516  -47.1116 O   0  0  0  0  0  0  0  0  0  0  0  0
   92.4110   94.2655  -43.2377 C   0  0  0  0  0  0  0  0  0  0  0  0
   92.8915   93.1928  -42.3615 C   0  0  0  0  0  0  0  0  0  0  0  0
   91.5732   93.7340  -42.0278 C   0  0  0  0  0  0  0  0  0  0  0  0
  1  2  1  0  0  0
  2  3  2  0  0  0
  2  7  1  0  0  0
  3  4  1  0  0  0
  4  5  2  0  0  0
  4 11  1  0  0  0
  5  6  1  0  0  0
  5  8  1  0  0  0
  6  7  2  0  0  0
  7 13  1  0  0  0
 13 14  1  0  0  0
 13 18  1  0  0  0
 14 15  1  0  0  0
 15 16  1  0  0  0
 16 17  1  0  0  0
 16 19  1  0  0  0
 17 18  1  0  0  0
 19 20  2  0  0  0
 19 22  1  0  0  0
 22 23  2  0  0  0
 22 27  1  0  0  0
 23 24  1  0  0  0
 24 25  2  0  0  0
 24 28  1  0  0  0
 25 26  1  0  0  0
 26 27  2  0  0  0
  8  9  1  0  0  0
  8 32  1  0  0  0
  9 10  2  0  0  0
 10 11  1  0  0  0
 10 29  1  0  0  0
 11 12  2  0  0  0
 29 30  2  0  0  0
 29 31  1  0  0  0
 32 33  1  0  0  0
 32 34  1  0  0  0
 33 34  1  0  0  0
 13 21  1  0  0  0
M  CHG 1  13   1
M  END
> <minimizedAffinity>
-6.79729

$$$$
1506


 32 35  0  0  0  0  0  0  0  0999 V2000
   91.0060   95.9649  -45.0492 N   0  0  0  0  0  0  0  0  0  0  0  0
   91.4130   97.3092  -45.3741 C   0  0  0  0  0  0  0  0  0  0  0  0
   92.5379   97.4982  -45.8629 O   0  0  0  0  0  0  0  0  0  0  0  0
   90.0621   95.8821  -44.6804 H   0  0  0  0  0  0  0  0  0  0  0  0
   90.5199   98.4681  -45.1386 C   0  0  0  0  0  0  0  0  0  0  0  0
   91.3687   99.7199  -45.1346 C   0  0  0  0  0  0  0  0  0  0  0  0
   92.1823   99.7044  -43.8599 C   0  0  0  0  0  0  0  0  0  0  0  0
   91.2268   99.9410  -42.7817 N   0  0  0  0  0  0  0  0  0  0  0  0
   89.9090   99.4099  -42.8690 C   0  0  0  0  0  0  0  0  0  0  0  0
   89.7110   98.3583  -43.8993 C   0  0  0  0  0  0  0  0  0  0  0  0
   91.6672  100.7038  -41.6755 C   0  0  0  0  0  0  0  0  0  0  0  0
   92.9226  100.6358  -41.1926 N   0  0  0  0  0  0  0  0  0  0  0  0
   93.3488  101.3394  -40.1604 N   0  0  0  0  0  0  0  0  0  0  0  0
   94.5303  101.4021  -39.5554 N   0  0  0  0  0  0  0  0  0  0  0  0
   94.4924  102.2481  -38.5611 N   0  0  0  0  0  0  0  0  0  0  0  0
   93.2782  102.7527  -38.5051 N   0  0  0  0  0  0  0  0  0  0  0  0
   92.5574  102.1910  -39.4985 C   0  0  0  0  0  0  0  0  0  0  0  0
   91.2535  102.3056  -39.9461 C   0  0  0  0  0  0  0  0  0  0  0  0
   90.8061  101.5709  -41.0256 C   0  0  0  0  0  0  0  0  0  0  0  0
   91.9272   94.9312  -45.3132 C   0  0  0  0  0  0  0  0  0  0  0  0
   91.5321   93.5134  -45.3155 C   0  0  0  0  0  0  0  0  0  0  0  0
   91.4812   91.7767  -47.1855 C   0  0  0  0  0  0  0  0  0  0  0  0
   92.3597   91.0168  -46.7250 O   0  0  0  0  0  0  0  0  0  0  0  0
   91.0925   92.9335  -46.5267 N   0  0  0  0  0  0  0  0  0  0  0  0
   90.2981   93.4777  -47.0828 H   0  0  0  0  0  0  0  0  0  0  0  0
   89.0348   90.1887  -52.4481 Cl  0  0  0  0  0  0  0  0  0  0  0  0
   89.7560   90.6362  -50.9106 C   0  0  0  0  0  0  0  0  0  0  0  0
   89.4492   91.8596  -50.3383 C   0  0  0  0  0  0  0  0  0  0  0  0
   90.0177   92.2012  -49.1339 C   0  0  0  0  0  0  0  0  0  0  0  0
   90.8877   91.3581  -48.4772 C   0  0  0  0  0  0  0  0  0  0  0  0
   91.1768   90.1537  -49.0630 C   0  0  0  0  0  0  0  0  0  0  0  0
   90.6174   89.7745  -50.2854 C   0  0  0  0  0  0  0  0  0  0  0  0
 26 27  1  0  0  0
 27 28  2  0  0  0
 27 32  1  0  0  0
 28 29  1  0  0  0
 29 30  2  0  0  0
 30 31  1  0  0  0
 30 22  1  0  0  0
 31 32  2  0  0  0
 22 23  2  0  0  0
 22 24  1  0  0  0
 24 21  1  0  0  0
 21 20  1  0  0  0
 20  1  1  0  0  0
  1  2  1  0  0  0
  2  3  2  0  0  0
  2  5  1  0  0  0
  5  6  1  0  0  0
  5 10  1  0  0  0
  6  7  1  0  0  0
  7  8  1  0  0  0
  8  9  1  0  0  0
  8 11  1  0  0  0
  9 10  1  0  0  0
 11 12  2  0  0  0
 11 19  1  0  0  0
 12 13  1  0  0  0
 13 14  1  0  0  0
 13 17  1  0  0  0
 14 15  2  0  0  0
 15 16  1  0  0  0
 16 17  2  0  0  0
 17 18  1  0  0  0
 18 19  2  0  0  0
 24 25  1  0  0  0
  1  4  1  0  0  0
M  END
> <minimizedAffinity>
-7.16876

$$$$
1507


 32 35  0  0  0  0  0  0  0  0999 V2000
   91.7135  101.6800  -45.4691 C   0  0  0  0  0  0  0  0  0  0  0  0
   92.1808  100.4805  -45.1893 C   0  0  0  0  0  0  0  0  0  0  0  0
   92.5051   99.8670  -43.8607 C   0  0  0  0  0  0  0  0  0  0  0  0
   92.0074   98.5485  -44.0155 N   0  0  0  0  0  0  0  0  0  0  0  0
   92.4536   98.1679  -45.3528 C   0  0  0  0  0  0  0  0  0  0  0  0
   92.6980   97.0102  -45.7811 O   0  0  0  0  0  0  0  0  0  0  0  0
   92.5644   99.4100  -46.1090 C   0  0  0  0  0  0  0  0  0  0  0  0
   92.9143   99.6066  -47.3202 O   0  0  0  0  0  0  0  0  0  0  0  0
   91.4439  102.6125  -44.4828 O   0  0  0  0  0  0  0  0  0  0  0  0
   90.4772  103.4369  -51.2576 Br  0  0  0  0  0  0  0  0  0  0  0  0
   90.8606  102.8797  -49.4577 C   0  0  0  0  0  0  0  0  0  0  0  0
   92.0498  103.1984  -48.8433 C   0  0  0  0  0  0  0  0  0  0  0  0
   92.3747  102.8289  -47.5682 C   0  0  0  0  0  0  0  0  0  0  0  0
   91.4577  102.0891  -46.8450 C   0  0  0  0  0  0  0  0  0  0  0  0
   90.2601  101.7575  -47.4356 C   0  0  0  0  0  0  0  0  0  0  0  0
   89.9404  102.1423  -48.7412 C   0  0  0  0  0  0  0  0  0  0  0  0
   92.1979  100.6892  -42.7385 C   0  0  0  0  0  0  0  0  0  0  0  0
   90.9200  100.6849  -42.2339 C   0  0  0  0  0  0  0  0  0  0  0  0
   90.5509  101.4370  -41.1448 C   0  0  0  0  0  0  0  0  0  0  0  0
   91.4773  102.2451  -40.5019 C   0  0  0  0  0  0  0  0  0  0  0  0
   92.7557  102.2358  -41.0238 C   0  0  0  0  0  0  0  0  0  0  0  0
   93.1172  101.4789  -42.1158 C   0  0  0  0  0  0  0  0  0  0  0  0
   91.0220  103.2054  -39.1166 Cl  0  0  0  0  0  0  0  0  0  0  0  0
   91.2856   97.6269  -43.1595 C   0  0  0  0  0  0  0  0  0  0  0  0
   92.0785   96.7978  -42.2261 C   0  0  0  0  0  0  0  0  0  0  0  0
   91.5597   95.4378  -42.0437 N   0  0  0  0  0  0  0  0  0  0  0  0
   92.3760   94.7161  -41.1286 C   0  0  0  0  0  0  0  0  0  0  0  0
   93.1116   93.5413  -41.6713 C   0  0  0  0  0  0  0  0  0  0  0  0
   92.5251   92.9182  -42.7562 O   0  0  0  0  0  0  0  0  0  0  0  0
   92.4774   93.9091  -43.7634 C   0  0  0  0  0  0  0  0  0  0  0  0
   91.4125   94.8621  -43.3482 C   0  0  0  0  0  0  0  0  0  0  0  0
   90.5844   95.5804  -41.6371 H   0  0  0  0  0  0  0  0  0  0  0  0
 10 11  1  0  0  0
 11 12  2  0  0  0
 11 16  1  0  0  0
 12 13  1  0  0  0
 13 14  2  0  0  0
 14 15  1  0  0  0
 14  1  1  0  0  0
 15 16  2  0  0  0
  1  2  2  0  0  0
  1  9  1  0  0  0
  2  3  1  0  0  0
  2  7  1  0  0  0
  3  4  1  0  0  0
  3 17  1  0  0  0
  4  5  1  0  0  0
  4 24  1  0  0  0
  5  6  2  0  0  0
  5  7  1  0  0  0
  7  8  2  0  0  0
 24 25  1  0  0  0
 25 26  1  0  0  0
 26 27  1  0  0  0
 26 31  1  0  0  0
 27 28  1  0  0  0
 28 29  1  0  0  0
 29 30  1  0  0  0
 30 31  1  0  0  0
 17 18  2  0  0  0
 17 22  1  0  0  0
 18 19  1  0  0  0
 19 20  2  0  0  0
 20 21  1  0  0  0
 20 23  1  0  0  0
 21 22  2  0  0  0
 26 32  1  0  0  0
M  CHG 1   9  -1
M  CHG 1  26   1
M  END
> <minimizedAffinity>
-5.77466

$$$$
1511


 34 37  0  0  0  0  0  0  0  0999 V2000
   91.5377   95.4172  -44.3396 N   0  0  0  0  0  0  0  0  0  0  0  0
   91.5989   96.7303  -44.6148 C   0  0  0  0  0  0  0  0  0  0  0  0
   91.5300   97.1783  -45.7879 O   0  0  0  0  0  0  0  0  0  0  0  0
   91.7423   97.4779  -43.4578 C   0  0  0  0  0  0  0  0  0  0  0  0
   91.7683   96.6017  -42.4618 C   0  0  0  0  0  0  0  0  0  0  0  0
   91.9077   97.3265  -41.3411 N   0  0  0  0  0  0  0  0  0  0  0  0
   91.9653   98.6108  -41.6450 N   0  0  0  0  0  0  0  0  0  0  0  0
   91.8647   98.7250  -42.9424 N   0  0  0  0  0  0  0  0  0  0  0  0
   91.6441   95.3356  -42.9946 C   0  0  0  0  0  0  0  0  0  0  0  0
   91.6300   94.2507  -42.3237 O   0  0  0  0  0  0  0  0  0  0  0  0
   91.9658   96.9688  -40.3670 H   0  0  0  0  0  0  0  0  0  0  0  0
   92.0732   99.4278  -40.9730 H   0  0  0  0  0  0  0  0  0  0  0  0
   90.8414   90.6785  -48.2144 Br  0  0  0  0  0  0  0  0  0  0  0  0
   91.0664   92.1425  -47.0005 C   0  0  0  0  0  0  0  0  0  0  0  0
   91.7901   92.0016  -45.8328 C   0  0  0  0  0  0  0  0  0  0  0  0
   91.9509   93.0691  -44.9545 C   0  0  0  0  0  0  0  0  0  0  0  0
   91.3940   94.3041  -45.2141 C   0  0  0  0  0  0  0  0  0  0  0  0
   90.6728   94.4385  -46.3801 C   0  0  0  0  0  0  0  0  0  0  0  0
   90.5131   93.3819  -47.2528 C   0  0  0  0  0  0  0  0  0  0  0  0
   91.8784   99.9381  -43.7247 C   0  0  0  0  0  0  0  0  0  0  0  0
   92.4446  101.0608  -42.8869 C   0  0  0  0  0  0  0  0  0  0  0  0
   91.6721  101.7404  -42.1753 O   0  0  0  0  0  0  0  0  0  0  0  0
   93.8203  101.3323  -42.9116 N   0  0  0  0  0  0  0  0  0  0  0  0
   94.4213  100.7093  -43.5435 H   0  0  0  0  0  0  0  0  0  0  0  0
   94.4763  102.3408  -42.1781 C   0  0  0  0  0  0  0  0  0  0  0  0
   94.7955  102.2891  -40.8448 C   0  0  0  0  0  0  0  0  0  0  0  0
   95.4246  103.3207  -40.1793 C   0  0  0  0  0  0  0  0  0  0  0  0
   95.7452  104.4544  -40.8961 C   0  0  0  0  0  0  0  0  0  0  0  0
   95.4410  104.5464  -42.2447 C   0  0  0  0  0  0  0  0  0  0  0  0
   94.8154  103.5111  -42.8840 C   0  0  0  0  0  0  0  0  0  0  0  0
   96.3810  105.5072  -40.2436 O   0  0  0  0  0  0  0  0  0  0  0  0
   97.7000  105.8537  -40.6166 C   0  0  0  0  0  0  0  0  0  0  0  0
   95.7365  103.2393  -38.8240 O   0  0  0  0  0  0  0  0  0  0  0  0
   94.6545  103.3337  -37.8884 C   0  0  0  0  0  0  0  0  0  0  0  0
 13 14  1  0  0  0
 14 15  2  0  0  0
 14 19  1  0  0  0
 15 16  1  0  0  0
 16 17  2  0  0  0
 17 18  1  0  0  0
 17  1  1  0  0  0
 18 19  2  0  0  0
  1  2  1  0  0  0
  1  9  1  0  0  0
  2  3  2  0  0  0
  2  4  1  0  0  0
  4  5  2  0  0  0
  4  8  1  0  0  0
  5  6  1  0  0  0
  5  9  1  0  0  0
  6  7  1  0  0  0
  7  8  1  0  0  0
  8 20  1  0  0  0
 20 21  1  0  0  0
 21 22  2  0  0  0
 21 23  1  0  0  0
 23 25  1  0  0  0
 25 26  2  0  0  0
 25 30  1  0  0  0
 26 27  1  0  0  0
 27 28  2  0  0  0
 27 33  1  0  0  0
 28 29  1  0  0  0
 28 31  1  0  0  0
 29 30  2  0  0  0
 31 32  1  0  0  0
 33 34  1  0  0  0
  9 10  2  0  0  0
  6 11  1  0  0  0
  7 12  1  0  0  0
 23 24  1  0  0  0
M  END
> <minimizedAffinity>
-7.24996

$$$$
1516


 30 33  0  0  0  0  0  0  0  0999 V2000
   91.1258   99.8938  -42.7811 C   0  0  0  0  0  0  0  0  0  0  0  0
   91.4362  100.8212  -41.9043 O   0  0  0  0  0  0  0  0  0  0  0  0
   89.8450  100.0127  -43.3016 N   0  0  0  0  0  0  0  0  0  0  0  0
   89.2909   99.1482  -44.2910 C   0  0  0  0  0  0  0  0  0  0  0  0
   88.0012   99.8078  -44.8313 C   0  0  0  0  0  0  0  0  0  0  0  0
   86.9957   99.7713  -43.6962 C   0  0  0  0  0  0  0  0  0  0  0  0
   86.7511   98.4354  -43.3362 N   0  0  0  0  0  0  0  0  0  0  0  0
   85.7956   97.6725  -44.0174 C   0  0  0  0  0  0  0  0  0  0  0  0
   84.5600   98.3574  -44.4664 C   0  0  0  0  0  0  0  0  0  0  0  0
   84.6692   99.8312  -44.4847 C   0  0  0  0  0  0  0  0  0  0  0  0
   83.7279  100.7289  -44.8354 N   0  0  0  0  0  0  0  0  0  0  0  0
   84.2517  101.9516  -44.7054 C   0  0  0  0  0  0  0  0  0  0  0  0
   85.5260  101.8212  -44.2718 N   0  0  0  0  0  0  0  0  0  0  0  0
   85.8013  100.5112  -44.1300 C   0  0  0  0  0  0  0  0  0  0  0  0
   87.6420  100.4651  -42.4848 C   0  0  0  0  0  0  0  0  0  0  0  0
   88.9630  101.0931  -42.8318 C   0  0  0  0  0  0  0  0  0  0  0  0
   87.3830   97.9700  -42.6957 H   0  0  0  0  0  0  0  0  0  0  0  0
   86.1765  102.6054  -44.0843 H   0  0  0  0  0  0  0  0  0  0  0  0
   92.1948   98.9284  -43.0306 C   0  0  0  0  0  0  0  0  0  0  0  0
   91.8328   96.3674  -42.1744 C   0  0  0  0  0  0  0  0  0  0  0  0
   91.7332   95.9670  -40.9853 O   0  0  0  0  0  0  0  0  0  0  0  0
   92.0128   97.6407  -42.6007 N   0  0  0  0  0  0  0  0  0  0  0  0
   92.0874   98.0900  -41.3016 H   0  0  0  0  0  0  0  0  0  0  0  0
   91.4659   92.0384  -46.2881 Cl  0  0  0  0  0  0  0  0  0  0  0  0
   91.5680   93.3176  -45.0866 C   0  0  0  0  0  0  0  0  0  0  0  0
   91.8416   92.9775  -43.7913 C   0  0  0  0  0  0  0  0  0  0  0  0
   91.9279   93.9935  -42.8338 C   0  0  0  0  0  0  0  0  0  0  0  0
   91.7371   95.2895  -43.2125 C   0  0  0  0  0  0  0  0  0  0  0  0
   91.4660   95.6313  -44.4937 C   0  0  0  0  0  0  0  0  0  0  0  0
   91.3781   94.6145  -45.4654 C   0  0  0  0  0  0  0  0  0  0  0  0
 24 25  1  0  0  0
 25 26  2  0  0  0
 25 30  1  0  0  0
 26 27  1  0  0  0
 27 28  2  0  0  0
 28 29  1  0  0  0
 28 20  1  0  0  0
 29 30  2  0  0  0
 20 21  2  0  0  0
 20 22  1  0  0  0
 22 19  1  0  0  0
 19  1  1  0  0  0
  1  2  2  0  0  0
  1  3  1  0  0  0
  3  4  1  0  0  0
  3 16  1  0  0  0
  4  5  1  0  0  0
  5  6  1  0  0  0
  6  7  1  0  0  0
  6 14  1  0  0  0
  6 15  1  0  0  0
  7  8  1  0  0  0
  8  9  1  0  0  0
  9 10  1  0  0  0
 10 11  1  0  0  0
 10 14  2  0  0  0
 11 12  2  0  0  0
 12 13  1  0  0  0
 13 14  1  0  0  0
 15 16  1  0  0  0
 22 23  1  0  0  0
  7 17  1  0  0  0
 13 18  1  0  0  0
M  END
> <minimizedAffinity>
-6.87766

$$$$
1518


 31 34  0  0  0  0  0  0  0  0999 V2000
   90.7270   95.4835  -45.8760 C   0  0  0  0  0  0  0  0  0  0  0  0
   89.7675   95.2192  -46.6409 O   0  0  0  0  0  0  0  0  0  0  0  0
   90.6854   96.6284  -45.0462 N   0  0  0  0  0  0  0  0  0  0  0  0
   91.7603   96.9883  -44.1438 C   0  0  0  0  0  0  0  0  0  0  0  0
   91.1383   97.6629  -42.9301 C   0  0  0  0  0  0  0  0  0  0  0  0
   90.4518   98.9653  -43.3404 C   0  0  0  0  0  0  0  0  0  0  0  0
   89.3041   99.1121  -42.4930 N   0  0  0  0  0  0  0  0  0  0  0  0
   88.8459  100.4836  -42.4316 C   0  0  0  0  0  0  0  0  0  0  0  0
   89.8576  101.2977  -41.6282 C   0  0  0  0  0  0  0  0  0  0  0  0
   91.1509  101.1975  -42.3642 C   0  0  0  0  0  0  0  0  0  0  0  0
   92.2296  102.0344  -42.4247 N   0  0  0  0  0  0  0  0  0  0  0  0
   93.1416  101.4732  -43.2380 C   0  0  0  0  0  0  0  0  0  0  0  0
   92.6405  100.3052  -43.6783 N   0  0  0  0  0  0  0  0  0  0  0  0
   91.3969  100.0969  -43.1535 C   0  0  0  0  0  0  0  0  0  0  0  0
   89.9978   98.8999  -44.7831 C   0  0  0  0  0  0  0  0  0  0  0  0
   89.5304   97.5043  -45.0737 C   0  0  0  0  0  0  0  0  0  0  0  0
   88.5271   98.4868  -42.7838 H   0  0  0  0  0  0  0  0  0  0  0  0
   92.2570  102.9357  -41.8973 H   0  0  0  0  0  0  0  0  0  0  0  0
   91.8907   94.5690  -45.8721 C   0  0  0  0  0  0  0  0  0  0  0  0
   91.5114   93.1493  -45.5921 C   0  0  0  0  0  0  0  0  0  0  0  0
   91.5074   91.4839  -47.4722 C   0  0  0  0  0  0  0  0  0  0  0  0
   92.5831   90.9747  -47.0672 O   0  0  0  0  0  0  0  0  0  0  0  0
   90.9373   92.5550  -46.7835 N   0  0  0  0  0  0  0  0  0  0  0  0
   90.0398   92.9887  -47.1075 H   0  0  0  0  0  0  0  0  0  0  0  0
   88.9665   89.0606  -52.3453 Cl  0  0  0  0  0  0  0  0  0  0  0  0
   89.6886   89.7403  -50.9004 C   0  0  0  0  0  0  0  0  0  0  0  0
   90.5552   90.8161  -51.0331 C   0  0  0  0  0  0  0  0  0  0  0  0
   91.1604   91.4022  -49.9318 C   0  0  0  0  0  0  0  0  0  0  0  0
   90.9020   90.9106  -48.6715 C   0  0  0  0  0  0  0  0  0  0  0  0
   90.0278   89.8293  -48.5678 C   0  0  0  0  0  0  0  0  0  0  0  0
   89.4215   89.2400  -49.6433 C   0  0  0  0  0  0  0  0  0  0  0  0
 25 26  1  0  0  0
 26 27  2  0  0  0
 26 31  1  0  0  0
 27 28  1  0  0  0
 28 29  2  0  0  0
 29 30  1  0  0  0
 29 21  1  0  0  0
 30 31  2  0  0  0
 21 22  2  0  0  0
 21 23  1  0  0  0
 23 20  1  0  0  0
 20 19  1  0  0  0
 19  1  1  0  0  0
  1  2  2  0  0  0
  1  3  1  0  0  0
  3  4  1  0  0  0
  3 16  1  0  0  0
  4  5  1  0  0  0
  5  6  1  0  0  0
  6  7  1  0  0  0
  6 14  1  0  0  0
  6 15  1  0  0  0
  7  8  1  0  0  0
  8  9  1  0  0  0
  9 10  1  0  0  0
 10 11  1  0  0  0
 10 14  2  0  0  0
 11 12  1  0  0  0
 12 13  2  0  0  0
 13 14  1  0  0  0
 15 16  1  0  0  0
 23 24  1  0  0  0
  7 17  1  0  0  0
 11 18  1  0  0  0
M  END
> <minimizedAffinity>
-7.25069

$$$$
1521


 24 27  0  0  0  0  0  0  0  0999 V2000
   91.7957   93.1081  -44.9548 Cl  0  0  0  0  0  0  0  0  0  0  0  0
   91.7136   94.4105  -43.7868 C   0  0  0  0  0  0  0  0  0  0  0  0
   91.4843   95.6935  -44.2206 C   0  0  0  0  0  0  0  0  0  0  0  0
   91.2887   96.2622  -45.4222 N   0  0  0  0  0  0  0  0  0  0  0  0
   91.1026   97.5914  -45.3156 C   0  0  0  0  0  0  0  0  0  0  0  0
   91.1883   97.8686  -43.9676 C   0  0  0  0  0  0  0  0  0  0  0  0
   91.4253   96.7019  -43.2734 C   0  0  0  0  0  0  0  0  0  0  0  0
   91.5959   96.3890  -41.9402 C   0  0  0  0  0  0  0  0  0  0  0  0
   91.8259   95.1158  -41.4810 C   0  0  0  0  0  0  0  0  0  0  0  0
   91.8851   94.1061  -42.4359 C   0  0  0  0  0  0  0  0  0  0  0  0
   91.0108   99.2931  -43.5917 C   0  0  0  0  0  0  0  0  0  0  0  0
   89.7862   99.6969  -44.2448 N   0  0  0  0  0  0  0  0  0  0  0  0
   89.8501   99.7357  -45.6537 C   0  0  0  0  0  0  0  0  0  0  0  0
   90.8536   98.7471  -46.2026 C   0  0  0  0  0  0  0  0  0  0  0  0
   91.2737   95.7693  -46.3591 H   0  0  0  0  0  0  0  0  0  0  0  0
   89.0530  100.6821  -43.5709 C   0  0  0  0  0  0  0  0  0  0  0  0
   87.6298  100.2886  -43.3164 C   0  0  0  0  0  0  0  0  0  0  0  0
   86.6879  100.7423  -44.3775 C   0  0  0  0  0  0  0  0  0  0  0  0
   85.9731   99.6354  -44.9132 N   0  0  0  0  0  0  0  0  0  0  0  0
   86.4376   98.4341  -44.2994 C   0  0  0  0  0  0  0  0  0  0  0  0
   87.5344   98.7870  -43.3526 C   0  0  0  0  0  0  0  0  0  0  0  0
   87.2179  100.6877  -42.0386 O   0  0  0  0  0  0  0  0  0  0  0  0
   84.9318   99.7369  -44.8621 H   0  0  0  0  0  0  0  0  0  0  0  0
   86.2288  100.7702  -42.0860 H   0  0  0  0  0  0  0  0  0  0  0  0
  1  2  1  0  0  0
  2  3  2  0  0  0
  2 10  1  0  0  0
  3  4  1  0  0  0
  3  7  1  0  0  0
  4  5  1  0  0  0
  5  6  2  0  0  0
  5 14  1  0  0  0
  6  7  1  0  0  0
  6 11  1  0  0  0
  7  8  2  0  0  0
  8  9  1  0  0  0
  9 10  2  0  0  0
 11 12  1  0  0  0
 12 13  1  0  0  0
 12 16  1  0  0  0
 13 14  1  0  0  0
 16 17  1  0  0  0
 17 18  1  0  0  0
 17 21  1  0  0  0
 17 22  1  0  0  0
 18 19  1  0  0  0
 19 20  1  0  0  0
 20 21  1  0  0  0
  4 15  1  0  0  0
 19 23  1  0  0  0
 22 24  1  0  0  0
M  END
> <minimizedAffinity>
-6.20856

$$$$
1523


 25 28  0  0  0  0  0  0  0  0999 V2000
   91.8673   91.2393  -47.4850 C   0  0  0  0  0  0  0  0  0  0  0  0
   92.8689   90.5743  -47.0435 O   0  0  0  0  0  0  0  0  0  0  0  0
   91.1857   90.8195  -48.6279 N   0  0  0  0  0  0  0  0  0  0  0  0
   91.6154   89.6350  -49.3186 C   0  0  0  0  0  0  0  0  0  0  0  0
   90.5416   88.5909  -49.1848 C   0  0  0  0  0  0  0  0  0  0  0  0
   89.2604   89.1888  -49.4304 N   0  0  0  0  0  0  0  0  0  0  0  0
   89.2908   90.5053  -50.0971 C   0  0  0  0  0  0  0  0  0  0  0  0
   90.0437   91.4882  -49.2113 C   0  0  0  0  0  0  0  0  0  0  0  0
   88.0024   88.6787  -49.1096 C   0  0  0  0  0  0  0  0  0  0  0  0
   87.0014   89.4160  -49.4827 O   0  0  0  0  0  0  0  0  0  0  0  0
   91.3980   93.9326  -45.0490 N   0  0  0  0  0  0  0  0  0  0  0  0
   90.6752   94.3454  -46.0956 N   0  0  0  0  0  0  0  0  0  0  0  0
   90.7420   93.4708  -47.0743 N   0  0  0  0  0  0  0  0  0  0  0  0
   91.5181   92.4444  -46.6978 C   0  0  0  0  0  0  0  0  0  0  0  0
   91.9225   92.7527  -45.4202 C   0  0  0  0  0  0  0  0  0  0  0  0
   91.6710   98.5600  -42.4801 Br  0  0  0  0  0  0  0  0  0  0  0  0
   91.6931   96.6552  -42.5534 C   0  0  0  0  0  0  0  0  0  0  0  0
   91.5367   95.9931  -43.7799 C   0  0  0  0  0  0  0  0  0  0  0  0
   91.5550   94.6199  -43.8194 C   0  0  0  0  0  0  0  0  0  0  0  0
   91.7256   93.9247  -42.6511 C   0  0  0  0  0  0  0  0  0  0  0  0
   91.8829   94.5766  -41.4216 C   0  0  0  0  0  0  0  0  0  0  0  0
   91.8638   95.9500  -41.3921 C   0  0  0  0  0  0  0  0  0  0  0  0
   87.6273   87.4488  -48.4222 C   0  0  0  0  0  0  0  0  0  0  0  0
   86.3566   87.2449  -47.7264 C   0  0  0  0  0  0  0  0  0  0  0  0
   86.6981   86.4312  -48.9715 C   0  0  0  0  0  0  0  0  0  0  0  0
 16 17  1  0  0  0
 17 18  2  0  0  0
 17 22  1  0  0  0
 18 19  1  0  0  0
 19 20  2  0  0  0
 19 11  1  0  0  0
 20 21  1  0  0  0
 21 22  2  0  0  0
 11 12  1  0  0  0
 11 15  1  0  0  0
 12 13  2  0  0  0
 13 14  1  0  0  0
 14 15  2  0  0  0
 14  1  1  0  0  0
  1  2  2  0  0  0
  1  3  1  0  0  0
  3  4  1  0  0  0
  3  8  1  0  0  0
  4  5  1  0  0  0
  5  6  1  0  0  0
  6  7  1  0  0  0
  6  9  1  0  0  0
  7  8  1  0  0  0
  9 10  2  0  0  0
  9 23  1  0  0  0
 23 24  1  0  0  0
 23 25  1  0  0  0
 24 25  1  0  0  0
M  END
> <minimizedAffinity>
-7.23041

$$$$
1525


 26 29  0  0  0  0  0  0  0  0999 V2000
   91.1609   97.9955  -44.7540 N   0  0  0  0  0  0  0  0  0  0  0  0
   89.8768   98.4985  -45.1015 C   0  0  0  0  0  0  0  0  0  0  0  0
   88.8781   97.7654  -45.3002 O   0  0  0  0  0  0  0  0  0  0  0  0
   89.9949   99.9503  -45.1655 C   0  0  0  0  0  0  0  0  0  0  0  0
   91.4366  100.1591  -45.5788 C   0  0  0  0  0  0  0  0  0  0  0  0
   92.1581   98.9631  -45.1039 C   0  0  0  0  0  0  0  0  0  0  0  0
   93.4040   98.8021  -45.0156 O   0  0  0  0  0  0  0  0  0  0  0  0
   91.7867   92.6987  -45.1943 Br  0  0  0  0  0  0  0  0  0  0  0  0
   91.6841   94.3296  -44.2189 C   0  0  0  0  0  0  0  0  0  0  0  0
   91.4599   95.5455  -44.8587 C   0  0  0  0  0  0  0  0  0  0  0  0
   91.3864   96.7233  -44.1453 C   0  0  0  0  0  0  0  0  0  0  0  0
   91.5489   96.6211  -42.7682 C   0  0  0  0  0  0  0  0  0  0  0  0
   91.7693   95.4358  -42.1212 C   0  0  0  0  0  0  0  0  0  0  0  0
   91.8395   94.2740  -42.8508 C   0  0  0  0  0  0  0  0  0  0  0  0
   89.6462  100.6643  -44.0035 N   0  0  0  0  0  0  0  0  0  0  0  0
   89.6333   99.9720  -42.7788 C   0  0  0  0  0  0  0  0  0  0  0  0
   88.1920   99.5393  -42.4760 C   0  0  0  0  0  0  0  0  0  0  0  0
   87.2670  100.3030  -43.2979 N   0  0  0  0  0  0  0  0  0  0  0  0
   87.5074  101.6915  -43.6372 C   0  0  0  0  0  0  0  0  0  0  0  0
   88.9402  101.8647  -44.0832 C   0  0  0  0  0  0  0  0  0  0  0  0
   86.0785   99.6986  -43.8265 C   0  0  0  0  0  0  0  0  0  0  0  0
   85.8815   98.3659  -43.7458 N   0  0  0  0  0  0  0  0  0  0  0  0
   84.7551   97.8064  -44.2292 C   0  0  0  0  0  0  0  0  0  0  0  0
   83.7602   98.5740  -44.8238 C   0  0  0  0  0  0  0  0  0  0  0  0
   83.9685   99.9397  -44.9020 C   0  0  0  0  0  0  0  0  0  0  0  0
   85.1128  100.4378  -44.4014 N   0  0  0  0  0  0  0  0  0  0  0  0
  8  9  1  0  0  0
  9 10  2  0  0  0
  9 14  1  0  0  0
 10 11  1  0  0  0
 11 12  2  0  0  0
 11  1  1  0  0  0
 12 13  1  0  0  0
 13 14  2  0  0  0
  1  2  1  0  0  0
  1  6  1  0  0  0
  2  3  2  0  0  0
  2  4  1  0  0  0
  4  5  1  0  0  0
  4 15  1  0  0  0
  5  6  1  0  0  0
  6  7  2  0  0  0
 15 16  1  0  0  0
 15 20  1  0  0  0
 16 17  1  0  0  0
 17 18  1  0  0  0
 18 19  1  0  0  0
 18 21  1  0  0  0
 19 20  1  0  0  0
 21 22  2  0  0  0
 21 26  1  0  0  0
 22 23  1  0  0  0
 23 24  2  0  0  0
 24 25  1  0  0  0
 25 26  2  0  0  0
M  END
> <minimizedAffinity>
-6.11648

$$$$
1531


 27 30  0  0  0  0  0  0  0  0999 V2000
   91.4954   97.2255  -44.0818 N   0  0  0  0  0  0  0  0  0  0  0  0
   91.6653   96.4516  -42.9641 C   0  0  0  0  0  0  0  0  0  0  0  0
   91.6347   95.1826  -43.3782 N   0  0  0  0  0  0  0  0  0  0  0  0
   91.4530   95.0857  -44.7058 C   0  0  0  0  0  0  0  0  0  0  0  0
   91.3644   96.3928  -45.1505 C   0  0  0  0  0  0  0  0  0  0  0  0
   91.8078   94.2764  -42.2478 C   0  0  0  0  0  0  0  0  0  0  0  0
   91.8447   95.1598  -41.0352 C   0  0  0  0  0  0  0  0  0  0  0  0
   91.8672   96.5720  -41.4999 C   0  0  0  0  0  0  0  0  0  0  0  0
   91.3610   93.8923  -45.5457 C   0  0  0  0  0  0  0  0  0  0  0  0
   91.8852   92.6669  -45.2224 C   0  0  0  0  0  0  0  0  0  0  0  0
   91.7547   91.5661  -46.0812 C   0  0  0  0  0  0  0  0  0  0  0  0
   91.0974   91.6584  -47.2878 C   0  0  0  0  0  0  0  0  0  0  0  0
   90.5679   92.8857  -47.6221 C   0  0  0  0  0  0  0  0  0  0  0  0
   90.6970   93.9668  -46.7751 C   0  0  0  0  0  0  0  0  0  0  0  0
   90.9610   90.5773  -48.1475 O   0  0  0  0  0  0  0  0  0  0  0  0
   90.9676   90.7701  -49.5507 C   0  0  0  0  0  0  0  0  0  0  0  0
   91.5041   98.6481  -44.1276 C   0  0  0  0  0  0  0  0  0  0  0  0
   90.6524   99.4376  -43.2693 C   0  0  0  0  0  0  0  0  0  0  0  0
   89.3617   99.2550  -43.4697 O   0  0  0  0  0  0  0  0  0  0  0  0
   94.1422  101.0603  -39.8472 Cl  0  0  0  0  0  0  0  0  0  0  0  0
   92.5729  101.1965  -40.5937 C   0  0  0  0  0  0  0  0  0  0  0  0
   91.7201  102.1859  -40.1605 C   0  0  0  0  0  0  0  0  0  0  0  0
   90.4870  102.2803  -40.7576 C   0  0  0  0  0  0  0  0  0  0  0  0
   90.1395  101.3807  -41.7761 C   0  0  0  0  0  0  0  0  0  0  0  0
   90.9529  100.3890  -42.2336 C   0  0  0  0  0  0  0  0  0  0  0  0
   92.2098  100.3404  -41.5807 C   0  0  0  0  0  0  0  0  0  0  0  0
   92.1586  103.3050  -38.8908 Cl  0  0  0  0  0  0  0  0  0  0  0  0
 20 21  1  0  0  0
 21 22  2  0  0  0
 21 26  1  0  0  0
 22 23  1  0  0  0
 22 27  1  0  0  0
 23 24  2  0  0  0
 24 25  1  0  0  0
 25 26  2  0  0  0
 25 18  1  0  0  0
 18 19  2  0  0  0
 18 17  1  0  0  0
 17  1  1  0  0  0
  1  2  1  0  0  0
  1  5  1  0  0  0
  2  3  2  0  0  0
  2  8  1  0  0  0
  3  4  1  0  0  0
  3  6  1  0  0  0
  4  5  2  0  0  0
  4  9  1  0  0  0
  9 10  2  0  0  0
  9 14  1  0  0  0
 10 11  1  0  0  0
 11 12  2  0  0  0
 12 13  1  0  0  0
 12 15  1  0  0  0
 13 14  2  0  0  0
 15 16  1  0  0  0
  6  7  1  0  0  0
  7  8  1  0  0  0
M  END
> <minimizedAffinity>
-6.86074

$$$$
1533


 28 31  0  0  0  0  0  0  0  0999 V2000
   90.8371  100.1836  -42.5521 C   0  0  0  0  0  0  0  0  0  0  0  0
   89.5662   99.9125  -42.9469 N   0  0  0  0  0  0  0  0  0  0  0  0
   89.5957   99.1056  -44.0128 C   0  0  0  0  0  0  0  0  0  0  0  0
   90.8918   98.8213  -44.3467 N   0  0  0  0  0  0  0  0  0  0  0  0
   91.6356   99.4862  -43.4472 C   0  0  0  0  0  0  0  0  0  0  0  0
   88.2266   98.7952  -44.4817 C   0  0  0  0  0  0  0  0  0  0  0  0
   87.4141   99.0700  -43.2467 C   0  0  0  0  0  0  0  0  0  0  0  0
   88.1757  100.1991  -42.5917 C   0  0  0  0  0  0  0  0  0  0  0  0
   90.2370  104.1438  -39.1974 Cl  0  0  0  0  0  0  0  0  0  0  0  0
   91.1437  102.8105  -39.8788 C   0  0  0  0  0  0  0  0  0  0  0  0
   92.3779  102.5343  -39.3681 C   0  0  0  0  0  0  0  0  0  0  0  0
   93.1124  101.4922  -39.8847 C   0  0  0  0  0  0  0  0  0  0  0  0
   92.5749  100.7343  -40.9282 C   0  0  0  0  0  0  0  0  0  0  0  0
   91.3298  101.0076  -41.4484 C   0  0  0  0  0  0  0  0  0  0  0  0
   90.6220  102.0466  -40.9181 C   0  0  0  0  0  0  0  0  0  0  0  0
   93.0754  103.4794  -38.0511 Cl  0  0  0  0  0  0  0  0  0  0  0  0
   91.3408   98.0286  -45.4542 C   0  0  0  0  0  0  0  0  0  0  0  0
   90.8869   96.6833  -45.6779 C   0  0  0  0  0  0  0  0  0  0  0  0
   89.9207   96.6032  -46.5878 O   0  0  0  0  0  0  0  0  0  0  0  0
   91.2476   95.3988  -45.1336 C   0  0  0  0  0  0  0  0  0  0  0  0
   91.5397   95.2784  -43.7561 C   0  0  0  0  0  0  0  0  0  0  0  0
   91.8898   94.1015  -43.1476 C   0  0  0  0  0  0  0  0  0  0  0  0
   91.9523   92.9834  -43.9542 C   0  0  0  0  0  0  0  0  0  0  0  0
   91.6721   93.0743  -45.2994 C   0  0  0  0  0  0  0  0  0  0  0  0
   91.3163   94.2765  -45.9137 C   0  0  0  0  0  0  0  0  0  0  0  0
   92.1791   94.0029  -41.7659 N   0  0  0  0  0  0  0  0  0  0  0  0
   91.3745   94.4571  -40.9454 O   0  0  0  0  0  0  0  0  0  0  0  0
   93.3248   93.4188  -41.3097 O   0  0  0  0  0  0  0  0  0  0  0  0
  9 10  1  0  0  0
 10 11  2  0  0  0
 10 15  1  0  0  0
 11 12  1  0  0  0
 11 16  1  0  0  0
 12 13  2  0  0  0
 13 14  1  0  0  0
 14 15  2  0  0  0
 14  1  1  0  0  0
  1  2  1  0  0  0
  1  5  2  0  0  0
  2  3  2  0  0  0
  2  8  1  0  0  0
  3  4  1  0  0  0
  3  6  1  0  0  0
  4  5  1  0  0  0
  4 17  1  0  0  0
 17 18  1  0  0  0
 18 19  2  0  0  0
 18 20  1  0  0  0
 20 21  2  0  0  0
 20 25  1  0  0  0
 21 22  1  0  0  0
 22 23  2  0  0  0
 22 26  1  0  0  0
 23 24  1  0  0  0
 24 25  2  0  0  0
 26 27  2  0  0  0
 26 28  1  0  0  0
  6  7  1  0  0  0
  7  8  1  0  0  0
M  CHG 1  28  -1
M  END
> <minimizedAffinity>
-7.42736

$$$$
1535


 28 31  0  0  0  0  0  0  0  0999 V2000
   90.8097  100.2495  -42.5384 C   0  0  0  0  0  0  0  0  0  0  0  0
   89.5492  100.0177  -42.9388 N   0  0  0  0  0  0  0  0  0  0  0  0
   89.5611   99.2082  -44.0184 C   0  0  0  0  0  0  0  0  0  0  0  0
   90.8427   98.9204  -44.3072 N   0  0  0  0  0  0  0  0  0  0  0  0
   91.6558   99.5472  -43.4107 C   0  0  0  0  0  0  0  0  0  0  0  0
   88.1757   98.9543  -44.4774 C   0  0  0  0  0  0  0  0  0  0  0  0
   87.4479   99.0741  -43.1630 C   0  0  0  0  0  0  0  0  0  0  0  0
   88.1523  100.3242  -42.6084 C   0  0  0  0  0  0  0  0  0  0  0  0
   90.2695  104.1868  -39.1916 Cl  0  0  0  0  0  0  0  0  0  0  0  0
   91.1969  102.8639  -39.8253 C   0  0  0  0  0  0  0  0  0  0  0  0
   92.4294  102.5635  -39.3109 C   0  0  0  0  0  0  0  0  0  0  0  0
   93.1183  101.5054  -39.8536 C   0  0  0  0  0  0  0  0  0  0  0  0
   92.5804  100.7751  -40.8796 C   0  0  0  0  0  0  0  0  0  0  0  0
   91.3247  101.0527  -41.4284 C   0  0  0  0  0  0  0  0  0  0  0  0
   90.6615  102.1007  -40.8815 C   0  0  0  0  0  0  0  0  0  0  0  0
   93.1260  103.4900  -37.9999 Cl  0  0  0  0  0  0  0  0  0  0  0  0
   91.2956   98.1304  -45.3923 C   0  0  0  0  0  0  0  0  0  0  0  0
   90.8708   96.7789  -45.6187 C   0  0  0  0  0  0  0  0  0  0  0  0
   89.9563   96.7049  -46.5649 O   0  0  0  0  0  0  0  0  0  0  0  0
   91.2439   95.5187  -45.0210 C   0  0  0  0  0  0  0  0  0  0  0  0
   91.5367   95.3314  -43.6973 C   0  0  0  0  0  0  0  0  0  0  0  0
   91.8899   94.0782  -43.1883 C   0  0  0  0  0  0  0  0  0  0  0  0
   91.9520   93.0002  -44.0115 C   0  0  0  0  0  0  0  0  0  0  0  0
   91.6621   93.1600  -45.3490 C   0  0  0  0  0  0  0  0  0  0  0  0
   91.3149   94.3818  -45.8579 C   0  0  0  0  0  0  0  0  0  0  0  0
   92.1835   93.9500  -41.7959 N   0  0  0  0  0  0  0  0  0  0  0  0
   91.3881   94.4102  -40.9586 O   0  0  0  0  0  0  0  0  0  0  0  0
   93.3117   93.3377  -41.3529 O   0  0  0  0  0  0  0  0  0  0  0  0
  9 10  1  0  0  0
 10 11  2  0  0  0
 10 15  1  0  0  0
 11 12  1  0  0  0
 11 16  1  0  0  0
 12 13  2  0  0  0
 13 14  1  0  0  0
 14 15  2  0  0  0
 14  1  1  0  0  0
  1  2  1  0  0  0
  1  5  2  0  0  0
  2  3  1  0  0  0
  2  8  1  0  0  0
  3  4  2  0  0  0
  3  6  1  0  0  0
  4  5  1  0  0  0
  4 17  1  0  0  0
 17 18  1  0  0  0
 18 19  2  0  0  0
 18 20  1  0  0  0
 20 21  2  0  0  0
 20 25  1  0  0  0
 21 22  1  0  0  0
 22 23  2  0  0  0
 22 26  1  0  0  0
 23 24  1  0  0  0
 24 25  2  0  0  0
 26 27  2  0  0  0
 26 28  1  0  0  0
  6  7  1  0  0  0
  7  8  1  0  0  0
M  CHG 1  28  -1
M  END
> <minimizedAffinity>
-7.37707

$$$$
1536


 31 34  0  0  0  0  0  0  0  0999 V2000
   91.4236  100.7026  -43.4643 S   0  0  0  0  0  0  0  0  0  0  0  0
   92.2159  100.9932  -42.1855 O   0  0  0  0  0  0  0  0  0  0  0  0
   92.2876  101.3343  -44.5585 O   0  0  0  0  0  0  0  0  0  0  0  0
   91.4239   98.9708  -43.6283 C   0  0  0  0  0  0  0  0  0  0  0  0
   91.6268   98.1748  -42.4880 C   0  0  0  0  0  0  0  0  0  0  0  0
   91.6901   96.8069  -42.5452 C   0  0  0  0  0  0  0  0  0  0  0  0
   91.5524   96.1760  -43.7432 C   0  0  0  0  0  0  0  0  0  0  0  0
   91.3511   96.9005  -44.8903 C   0  0  0  0  0  0  0  0  0  0  0  0
   91.2890   98.2928  -44.8046 C   0  0  0  0  0  0  0  0  0  0  0  0
   90.9517   99.1648  -46.2904 Cl  0  0  0  0  0  0  0  0  0  0  0  0
   91.6268   94.7405  -43.7844 N   0  0  0  0  0  0  0  0  0  0  0  0
   91.8408   94.0176  -42.5844 C   0  0  0  0  0  0  0  0  0  0  0  0
   91.5445   92.8088  -42.4850 O   0  0  0  0  0  0  0  0  0  0  0  0
   92.4352   94.7534  -41.4378 C   0  0  0  0  0  0  0  0  0  0  0  0
   91.8941   96.0467  -41.3864 O   0  0  0  0  0  0  0  0  0  0  0  0
   91.5221   94.2502  -44.6948 H   0  0  0  0  0  0  0  0  0  0  0  0
   89.9758  101.4945  -43.3703 N   0  0  0  0  0  0  0  0  0  0  0  0
   89.0712  101.3589  -42.3234 C   0  0  0  0  0  0  0  0  0  0  0  0
   88.0063  100.3223  -42.4850 C   0  0  0  0  0  0  0  0  0  0  0  0
   87.8139  100.0347  -43.9723 C   0  0  0  0  0  0  0  0  0  0  0  0
   87.8741  101.4283  -44.6185 C   0  0  0  0  0  0  0  0  0  0  0  0
   89.3524  101.7817  -44.6566 C   0  0  0  0  0  0  0  0  0  0  0  0
   86.5551   99.3629  -44.2460 C   0  0  0  0  0  0  0  0  0  0  0  0
   85.5030   99.7599  -43.6801 O   0  0  0  0  0  0  0  0  0  0  0  0
   86.4779   98.2811  -45.1291 N   0  0  0  0  0  0  0  0  0  0  0  0
   85.2173   97.6056  -45.4575 C   0  0  0  0  0  0  0  0  0  0  0  0
   85.5889   96.3806  -46.2662 C   0  0  0  0  0  0  0  0  0  0  0  0
   86.2388   96.7705  -47.5026 N   0  0  0  0  0  0  0  0  0  0  0  0
   87.4484   97.5322  -47.2468 C   0  0  0  0  0  0  0  0  0  0  0  0
   87.6536   97.7471  -45.7573 C   0  0  0  0  0  0  0  0  0  0  0  0
   86.5249   95.6154  -48.3258 C   0  0  0  0  0  0  0  0  0  0  0  0
  1  2  2  0  0  0
  1  3  2  0  0  0
  1 17  1  0  0  0
  1  4  1  0  0  0
 17 18  1  0  0  0
 17 22  1  0  0  0
 18 19  1  0  0  0
 19 20  1  0  0  0
 20 21  1  0  0  0
 20 23  1  0  0  0
 21 22  1  0  0  0
 23 24  2  0  0  0
 23 25  1  0  0  0
 25 26  1  0  0  0
 25 30  1  0  0  0
 26 27  1  0  0  0
 27 28  1  0  0  0
 28 29  1  0  0  0
 28 31  1  0  0  0
 29 30  1  0  0  0
  4  5  2  0  0  0
  4  9  1  0  0  0
  5  6  1  0  0  0
  6  7  2  0  0  0
  6 15  1  0  0  0
  7  8  1  0  0  0
  7 11  1  0  0  0
  8  9  2  0  0  0
  9 10  1  0  0  0
 11 12  1  0  0  0
 12 13  2  0  0  0
 12 14  1  0  0  0
 14 15  1  0  0  0
 11 16  1  0  0  0
M  END
> <minimizedAffinity>
-6.04534

$$$$
1539


 34 37  0  0  0  0  0  0  0  0999 V2000
   90.0743   98.6304  -44.5591 C   0  0  0  0  0  0  0  0  0  0  0  0
   90.4125   98.9883  -45.9427 N   0  0  0  0  0  0  0  0  0  0  0  0
   91.8049   99.2681  -45.9192 C   0  0  0  0  0  0  0  0  0  0  0  0
   92.6038   99.1512  -46.8628 O   0  0  0  0  0  0  0  0  0  0  0  0
   92.1072   99.7204  -44.5649 C   0  0  0  0  0  0  0  0  0  0  0  0
   93.2040  100.0835  -44.0455 O   0  0  0  0  0  0  0  0  0  0  0  0
   90.8349   99.6857  -43.8289 C   0  0  0  0  0  0  0  0  0  0  0  0
   90.5148  100.4097  -42.7742 C   0  0  0  0  0  0  0  0  0  0  0  0
   89.2656  100.2043  -42.1823 O   0  0  0  0  0  0  0  0  0  0  0  0
   92.5288   93.1620  -43.5805 Cl  0  0  0  0  0  0  0  0  0  0  0  0
   91.8160   94.7482  -43.8673 C   0  0  0  0  0  0  0  0  0  0  0  0
   91.7784   95.7078  -42.8719 C   0  0  0  0  0  0  0  0  0  0  0  0
   91.2168   96.9437  -43.1120 C   0  0  0  0  0  0  0  0  0  0  0  0
   90.6719   97.2925  -44.3292 C   0  0  0  0  0  0  0  0  0  0  0  0
   90.7192   96.3085  -45.3247 C   0  0  0  0  0  0  0  0  0  0  0  0
   91.2790   95.0743  -45.0881 C   0  0  0  0  0  0  0  0  0  0  0  0
   91.4005  101.4137  -42.2034 C   0  0  0  0  0  0  0  0  0  0  0  0
   92.2447  101.1359  -41.1409 C   0  0  0  0  0  0  0  0  0  0  0  0
   93.0630  102.0977  -40.5859 C   0  0  0  0  0  0  0  0  0  0  0  0
   93.0688  103.3947  -41.0795 C   0  0  0  0  0  0  0  0  0  0  0  0
   92.2345  103.6839  -42.1348 C   0  0  0  0  0  0  0  0  0  0  0  0
   91.4093  102.7007  -42.6890 C   0  0  0  0  0  0  0  0  0  0  0  0
   93.9483  101.7548  -39.4510 C   0  0  0  0  0  0  0  0  0  0  0  0
   93.8895  104.3768  -40.5311 O   0  0  0  0  0  0  0  0  0  0  0  0
   93.3021  105.4930  -39.9233 C   0  0  0  0  0  0  0  0  0  0  0  0
   89.5039   99.0376  -47.0887 C   0  0  0  0  0  0  0  0  0  0  0  0
   88.1117   99.2090  -46.5265 C   0  0  0  0  0  0  0  0  0  0  0  0
   87.1871   98.2312  -47.0333 N   0  0  0  0  0  0  0  0  0  0  0  0
   85.9152   98.8195  -47.3007 C   0  0  0  0  0  0  0  0  0  0  0  0
   84.8887   98.6800  -46.2263 C   0  0  0  0  0  0  0  0  0  0  0  0
   84.9674   97.5299  -45.4883 O   0  0  0  0  0  0  0  0  0  0  0  0
   86.2313   97.3017  -44.9602 C   0  0  0  0  0  0  0  0  0  0  0  0
   87.1623   97.1151  -46.1296 C   0  0  0  0  0  0  0  0  0  0  0  0
   87.5902   97.9151  -47.9609 H   0  0  0  0  0  0  0  0  0  0  0  0
 10 11  1  0  0  0
 11 12  2  0  0  0
 11 16  1  0  0  0
 12 13  1  0  0  0
 13 14  2  0  0  0
 14 15  1  0  0  0
 14  1  1  0  0  0
 15 16  2  0  0  0
  1  2  1  0  0  0
  1  7  1  0  0  0
  2  3  1  0  0  0
  2 26  1  0  0  0
  3  4  2  0  0  0
  3  5  1  0  0  0
  5  6  2  0  0  0
  5  7  1  0  0  0
  7  8  2  0  0  0
  8  9  1  0  0  0
  8 17  1  0  0  0
 17 18  2  0  0  0
 17 22  1  0  0  0
 18 19  1  0  0  0
 19 20  2  0  0  0
 19 23  1  0  0  0
 20 21  1  0  0  0
 20 24  1  0  0  0
 21 22  2  0  0  0
 24 25  1  0  0  0
 26 27  1  0  0  0
 27 28  1  0  0  0
 28 29  1  0  0  0
 28 33  1  0  0  0
 29 30  1  0  0  0
 30 31  1  0  0  0
 31 32  1  0  0  0
 32 33  1  0  0  0
 28 34  1  0  0  0
M  CHG 1   9  -1
M  CHG 1  28   1
M  END
> <minimizedAffinity>
-5.95832

$$$$
1548


 24 27  0  0  0  0  0  0  0  0999 V2000
   93.6680  105.2335  -40.4594 Cl  0  0  0  0  0  0  0  0  0  0  0  0
   92.6602  103.8400  -40.8218 C   0  0  0  0  0  0  0  0  0  0  0  0
   92.6718  103.2275  -42.0559 C   0  0  0  0  0  0  0  0  0  0  0  0
   91.8874  102.1453  -42.3350 N   0  0  0  0  0  0  0  0  0  0  0  0
   91.0609  101.6213  -41.4117 C   0  0  0  0  0  0  0  0  0  0  0  0
   90.2805  100.5463  -41.6868 N   0  0  0  0  0  0  0  0  0  0  0  0
   90.2974   99.9512  -42.8985 C   0  0  0  0  0  0  0  0  0  0  0  0
   91.1246  100.4567  -43.8589 C   0  0  0  0  0  0  0  0  0  0  0  0
   91.1835   99.8346  -45.2208 C   0  0  0  0  0  0  0  0  0  0  0  0
   90.8173   98.4237  -45.0071 N   0  0  0  0  0  0  0  0  0  0  0  0
   89.4924   98.2385  -44.4873 C   0  0  0  0  0  0  0  0  0  0  0  0
   89.3963   98.7816  -43.0723 C   0  0  0  0  0  0  0  0  0  0  0  0
   91.7647   97.4535  -45.3204 C   0  0  0  0  0  0  0  0  0  0  0  0
   92.8973   97.8305  -45.7824 O   0  0  0  0  0  0  0  0  0  0  0  0
   91.9097  101.5577  -43.5447 C   0  0  0  0  0  0  0  0  0  0  0  0
   92.6686  102.0266  -44.4157 O   0  0  0  0  0  0  0  0  0  0  0  0
   91.0428  102.2316  -40.1669 C   0  0  0  0  0  0  0  0  0  0  0  0
   91.8227  103.3250  -39.8562 C   0  0  0  0  0  0  0  0  0  0  0  0
   91.5908   96.0038  -45.1706 C   0  0  0  0  0  0  0  0  0  0  0  0
   91.3305   95.2030  -46.2079 N   0  0  0  0  0  0  0  0  0  0  0  0
   91.1735   93.8839  -46.0624 C   0  0  0  0  0  0  0  0  0  0  0  0
   91.2711   93.2721  -44.8298 C   0  0  0  0  0  0  0  0  0  0  0  0
   91.5336   94.0929  -43.7980 N   0  0  0  0  0  0  0  0  0  0  0  0
   91.6939   95.4111  -43.9166 C   0  0  0  0  0  0  0  0  0  0  0  0
  1  2  1  0  0  0
  2  3  2  0  0  0
  2 18  1  0  0  0
  3  4  1  0  0  0
  4  5  1  0  0  0
  4 15  1  0  0  0
  5  6  2  0  0  0
  5 17  1  0  0  0
  6  7  1  0  0  0
  7  8  2  0  0  0
  7 12  1  0  0  0
  8  9  1  0  0  0
  8 15  1  0  0  0
  9 10  1  0  0  0
 10 11  1  0  0  0
 10 13  1  0  0  0
 11 12  1  0  0  0
 13 14  2  0  0  0
 13 19  1  0  0  0
 19 20  2  0  0  0
 19 24  1  0  0  0
 20 21  1  0  0  0
 21 22  2  0  0  0
 22 23  1  0  0  0
 23 24  2  0  0  0
 15 16  2  0  0  0
 17 18  2  0  0  0
M  END
> <minimizedAffinity>
-6.12933

$$$$
1553


 29 32  0  0  0  0  0  0  0  0999 V2000
   90.6755   97.7532  -45.5478 C   0  0  0  0  0  0  0  0  0  0  0  0
   90.8947   99.0007  -44.9193 N   0  0  0  0  0  0  0  0  0  0  0  0
   91.7389   99.0045  -43.7603 C   0  0  0  0  0  0  0  0  0  0  0  0
   91.1982   97.9836  -42.7449 C   0  0  0  0  0  0  0  0  0  0  0  0
   91.3564   96.6870  -43.4310 C   0  0  0  0  0  0  0  0  0  0  0  0
   91.7473   95.4422  -42.9646 C   0  0  0  0  0  0  0  0  0  0  0  0
   91.7263   94.5949  -44.0500 C   0  0  0  0  0  0  0  0  0  0  0  0
   91.3421   95.2740  -45.1418 N   0  0  0  0  0  0  0  0  0  0  0  0
   91.1111   96.5743  -44.7639 C   0  0  0  0  0  0  0  0  0  0  0  0
   92.0837   93.2747  -43.8447 C   0  0  0  0  0  0  0  0  0  0  0  0
   92.4387   92.8707  -42.5817 C   0  0  0  0  0  0  0  0  0  0  0  0
   92.4590   93.7200  -41.4985 C   0  0  0  0  0  0  0  0  0  0  0  0
   92.1015   95.0526  -41.6908 C   0  0  0  0  0  0  0  0  0  0  0  0
   91.3548   99.6462  -45.6379 H   0  0  0  0  0  0  0  0  0  0  0  0
   90.0157   99.5080  -44.6466 H   0  0  0  0  0  0  0  0  0  0  0  0
   91.2209   94.9292  -46.1290 H   0  0  0  0  0  0  0  0  0  0  0  0
   86.7058   95.6355  -48.5372 Br  0  0  0  0  0  0  0  0  0  0  0  0
   87.3470   96.6763  -47.0658 C   0  0  0  0  0  0  0  0  0  0  0  0
   88.7219   96.8274  -46.8588 C   0  0  0  0  0  0  0  0  0  0  0  0
   89.1983   97.5802  -45.8004 C   0  0  0  0  0  0  0  0  0  0  0  0
   88.2730   98.1713  -44.9646 C   0  0  0  0  0  0  0  0  0  0  0  0
   86.9092   98.0168  -45.1778 C   0  0  0  0  0  0  0  0  0  0  0  0
   86.4386   97.2680  -46.2312 C   0  0  0  0  0  0  0  0  0  0  0  0
   85.6629   98.8675  -43.9813 Br  0  0  0  0  0  0  0  0  0  0  0  0
   89.5415   96.1936  -47.7552 O   0  0  0  0  0  0  0  0  0  0  0  0
   90.5246   96.1987  -47.7614 H   0  0  0  0  0  0  0  0  0  0  0  0
   91.7774  100.3589  -43.1728 C   0  0  0  0  0  0  0  0  0  0  0  0
   92.7432  101.1163  -43.4497 O   0  0  0  0  0  0  0  0  0  0  0  0
   90.7560  100.7677  -42.3315 O   0  0  0  0  0  0  0  0  0  0  0  0
 17 18  1  0  0  0
 18 19  2  0  0  0
 18 23  1  0  0  0
 19 20  1  0  0  0
 19 25  1  0  0  0
 20 21  2  0  0  0
 20  1  1  0  0  0
 21 22  1  0  0  0
 22 23  2  0  0  0
 22 24  1  0  0  0
  1  2  1  0  0  0
  1  9  1  0  0  0
  2  3  1  0  0  0
  3  4  1  0  0  0
  3 27  1  0  0  0
  4  5  1  0  0  0
  5  6  1  0  0  0
  5  9  2  0  0  0
  6  7  2  0  0  0
  6 13  1  0  0  0
  7  8  1  0  0  0
  7 10  1  0  0  0
  8  9  1  0  0  0
 10 11  2  0  0  0
 11 12  1  0  0  0
 12 13  2  0  0  0
 27 28  2  0  0  0
 27 29  1  0  0  0
  2 14  1  0  0  0
  2 15  1  0  0  0
  8 16  1  0  0  0
 25 26  1  0  0  0
M  CHG 1   2   1
M  END
> <minimizedAffinity>
-7.15905

$$$$
1571


 28 31  0  0  0  0  0  0  0  0999 V2000
   91.5763   91.3777  -47.2269 O   0  0  0  0  0  0  0  0  0  0  0  0
   92.2757   90.5077  -48.0311 C   0  0  0  0  0  0  0  0  0  0  0  0
   93.3745   90.0894  -47.5674 O   0  0  0  0  0  0  0  0  0  0  0  0
   91.7853   90.0740  -49.3670 C   0  0  0  0  0  0  0  0  0  0  0  0
   90.8773   88.9307  -49.2597 N   0  0  0  0  0  0  0  0  0  0  0  0
   89.4535   88.9595  -49.2099 C   0  0  0  0  0  0  0  0  0  0  0  0
   88.7217   89.9569  -49.4291 O   0  0  0  0  0  0  0  0  0  0  0  0
   88.9849   87.6000  -48.8536 C   0  0  0  0  0  0  0  0  0  0  0  0
   90.0712   86.7619  -49.4860 C   0  0  0  0  0  0  0  0  0  0  0  0
   89.9329   86.6560  -50.9922 C   0  0  0  0  0  0  0  0  0  0  0  0
   88.6506   87.2513  -51.5105 C   0  0  0  0  0  0  0  0  0  0  0  0
   87.4736   86.7990  -50.6935 C   0  0  0  0  0  0  0  0  0  0  0  0
   87.6147   87.2815  -49.2936 C   0  0  0  0  0  0  0  0  0  0  0  0
   91.2713   87.5724  -49.1752 C   0  0  0  0  0  0  0  0  0  0  0  0
   92.4365   87.1558  -48.8862 O   0  0  0  0  0  0  0  0  0  0  0  0
   91.7382   91.5159  -45.8430 C   0  0  0  0  0  0  0  0  0  0  0  0
   91.1896   99.0068  -42.2373 Br  0  0  0  0  0  0  0  0  0  0  0  0
   91.4011   97.1839  -42.8258 C   0  0  0  0  0  0  0  0  0  0  0  0
   91.1202   96.8212  -44.1216 C   0  0  0  0  0  0  0  0  0  0  0  0
   91.2572   95.5625  -44.5615 N   0  0  0  0  0  0  0  0  0  0  0  0
   91.6880   94.5782  -43.7318 C   0  0  0  0  0  0  0  0  0  0  0  0
   91.8423   93.3106  -44.1213 N   0  0  0  0  0  0  0  0  0  0  0  0
   91.5767   92.9152  -45.3817 C   0  0  0  0  0  0  0  0  0  0  0  0
   91.1361   93.8886  -46.2543 C   0  0  0  0  0  0  0  0  0  0  0  0
   90.9810   95.1962  -45.8394 C   0  0  0  0  0  0  0  0  0  0  0  0
   90.5813   96.1171  -46.6051 O   0  0  0  0  0  0  0  0  0  0  0  0
   91.9839   94.9075  -42.4106 C   0  0  0  0  0  0  0  0  0  0  0  0
   91.8382   96.2055  -41.9699 C   0  0  0  0  0  0  0  0  0  0  0  0
 17 18  1  0  0  0
 18 19  2  0  0  0
 18 28  1  0  0  0
 19 20  1  0  0  0
 20 21  1  0  0  0
 20 25  1  0  0  0
 21 22  2  0  0  0
 21 27  1  0  0  0
 22 23  1  0  0  0
 23 24  2  0  0  0
 23 16  1  0  0  0
 24 25  1  0  0  0
 25 26  2  0  0  0
 16  1  1  0  0  0
  1  2  1  0  0  0
  2  3  2  0  0  0
  2  4  1  0  0  0
  4  5  1  0  0  0
  5  6  1  0  0  0
  5 14  1  0  0  0
  6  7  2  0  0  0
  6  8  1  0  0  0
  8  9  1  0  0  0
  8 13  1  0  0  0
  9 10  1  0  0  0
  9 14  1  0  0  0
 10 11  1  0  0  0
 11 12  1  0  0  0
 12 13  1  0  0  0
 14 15  2  0  0  0
 27 28  2  0  0  0
M  END
> <minimizedAffinity>
-7.63982

$$$$
1576


 30 33  0  0  0  0  0  0  0  0999 V2000
   86.9937   98.2248  -46.7804 N   0  0  0  0  0  0  0  0  0  0  0  0
   86.1549   98.1759  -45.6023 C   0  0  0  0  0  0  0  0  0  0  0  0
   86.2677   99.5126  -44.8732 C   0  0  0  0  0  0  0  0  0  0  0  0
   87.6518   99.9581  -44.8937 N   0  0  0  0  0  0  0  0  0  0  0  0
   88.3030  100.1228  -46.1720 C   0  0  0  0  0  0  0  0  0  0  0  0
   87.3885   99.5665  -47.2372 C   0  0  0  0  0  0  0  0  0  0  0  0
   88.3663  100.2324  -43.6944 C   0  0  0  0  0  0  0  0  0  0  0  0
   87.7610  100.0818  -42.5878 O   0  0  0  0  0  0  0  0  0  0  0  0
   89.6617   97.0328  -45.9926 Cl  0  0  0  0  0  0  0  0  0  0  0  0
   88.6423   96.4694  -47.2676 C   0  0  0  0  0  0  0  0  0  0  0  0
   87.4522   97.1229  -47.5048 C   0  0  0  0  0  0  0  0  0  0  0  0
   86.6786   96.6192  -48.5480 C   0  0  0  0  0  0  0  0  0  0  0  0
   87.0888   95.5303  -49.2918 C   0  0  0  0  0  0  0  0  0  0  0  0
   88.2805   94.9122  -49.0190 C   0  0  0  0  0  0  0  0  0  0  0  0
   89.0592   95.3799  -48.0072 C   0  0  0  0  0  0  0  0  0  0  0  0
   89.7629  100.6808  -43.6538 C   0  0  0  0  0  0  0  0  0  0  0  0
   90.7188   99.5913  -43.4650 N   0  0  0  0  0  0  0  0  0  0  0  0
   90.7240   98.6305  -42.5629 N   0  0  0  0  0  0  0  0  0  0  0  0
   91.7615   97.8010  -42.6933 C   0  0  0  0  0  0  0  0  0  0  0  0
   92.4918   98.2629  -43.7734 C   0  0  0  0  0  0  0  0  0  0  0  0
   91.8222   99.3748  -44.2331 C   0  0  0  0  0  0  0  0  0  0  0  0
   92.2463  100.1988  -45.3842 C   0  0  0  0  0  0  0  0  0  0  0  0
   92.0661   96.6263  -41.8560 C   0  0  0  0  0  0  0  0  0  0  0  0
   92.4731   96.7788  -40.6869 O   0  0  0  0  0  0  0  0  0  0  0  0
   91.8865   95.3356  -42.3998 N   0  0  0  0  0  0  0  0  0  0  0  0
   91.4216   95.0849  -43.7349 C   0  0  0  0  0  0  0  0  0  0  0  0
   91.5206   93.5692  -43.9484 C   0  0  0  0  0  0  0  0  0  0  0  0
   92.7846   93.1073  -43.6550 O   0  0  0  0  0  0  0  0  0  0  0  0
   93.1645   93.3004  -42.3479 C   0  0  0  0  0  0  0  0  0  0  0  0
   92.1844   94.1596  -41.5769 C   0  0  0  0  0  0  0  0  0  0  0  0
  9 10  1  0  0  0
 10 11  2  0  0  0
 10 15  1  0  0  0
 11 12  1  0  0  0
 11  1  1  0  0  0
 12 13  2  0  0  0
 13 14  1  0  0  0
 14 15  2  0  0  0
  1  2  1  0  0  0
  1  6  1  0  0  0
  2  3  1  0  0  0
  3  4  1  0  0  0
  4  5  1  0  0  0
  4  7  1  0  0  0
  5  6  1  0  0  0
  7  8  2  0  0  0
  7 16  1  0  0  0
 16 17  1  0  0  0
 17 18  1  0  0  0
 17 21  1  0  0  0
 18 19  2  0  0  0
 19 20  1  0  0  0
 19 23  1  0  0  0
 20 21  2  0  0  0
 21 22  1  0  0  0
 23 24  2  0  0  0
 23 25  1  0  0  0
 25 26  1  0  0  0
 25 30  1  0  0  0
 26 27  1  0  0  0
 27 28  1  0  0  0
 28 29  1  0  0  0
 29 30  1  0  0  0
M  END
> <minimizedAffinity>
-6.09818

$$$$
1581


 27 30  0  0  0  0  0  0  0  0999 V2000
   90.1950  101.3238  -43.3486 N   0  0  0  0  0  0  0  0  0  0  0  0
   89.7155  101.9529  -44.5076 C   0  0  0  0  0  0  0  0  0  0  0  0
   88.8065  101.1359  -45.3645 C   0  0  0  0  0  0  0  0  0  0  0  0
   88.0717  100.1429  -44.5943 N   0  0  0  0  0  0  0  0  0  0  0  0
   87.1435   99.3119  -45.0662 N   0  0  0  0  0  0  0  0  0  0  0  0
   86.6903   98.5466  -44.0691 C   0  0  0  0  0  0  0  0  0  0  0  0
   87.3675   98.9212  -42.9360 C   0  0  0  0  0  0  0  0  0  0  0  0
   88.2536   99.9472  -43.2790 C   0  0  0  0  0  0  0  0  0  0  0  0
   89.2311  100.7360  -42.4883 C   0  0  0  0  0  0  0  0  0  0  0  0
   85.6424   97.4842  -44.1787 C   0  0  0  0  0  0  0  0  0  0  0  0
   84.7514   97.6516  -43.1059 O   0  0  0  0  0  0  0  0  0  0  0  0
   84.9450   98.5033  -42.6172 H   0  0  0  0  0  0  0  0  0  0  0  0
   84.8134   97.6978  -45.4426 C   0  0  0  0  0  0  0  0  0  0  0  0
   85.0099   96.4943  -46.3524 C   0  0  0  0  0  0  0  0  0  0  0  0
   91.4717  100.7425  -43.3784 C   0  0  0  0  0  0  0  0  0  0  0  0
   91.8960   92.6664  -42.7941 Cl  0  0  0  0  0  0  0  0  0  0  0  0
   91.8401   94.4180  -42.6581 C   0  0  0  0  0  0  0  0  0  0  0  0
   91.6517   95.1435  -43.8125 C   0  0  0  0  0  0  0  0  0  0  0  0
   91.6090   96.4952  -43.7037 N   0  0  0  0  0  0  0  0  0  0  0  0
   91.7423   97.1221  -42.5240 C   0  0  0  0  0  0  0  0  0  0  0  0
   91.7003   98.4624  -42.4072 N   0  0  0  0  0  0  0  0  0  0  0  0
   91.5219   99.2763  -43.4633 C   0  0  0  0  0  0  0  0  0  0  0  0
   91.3845   98.6312  -44.6800 C   0  0  0  0  0  0  0  0  0  0  0  0
   91.4279   97.2607  -44.7988 C   0  0  0  0  0  0  0  0  0  0  0  0
   91.2967   96.7110  -45.9363 O   0  0  0  0  0  0  0  0  0  0  0  0
   91.9330   96.3900  -41.3477 C   0  0  0  0  0  0  0  0  0  0  0  0
   91.9812   95.0203  -41.4250 C   0  0  0  0  0  0  0  0  0  0  0  0
 16 17  1  0  0  0
 17 18  2  0  0  0
 17 27  1  0  0  0
 18 19  1  0  0  0
 19 20  1  0  0  0
 19 24  1  0  0  0
 20 21  2  0  0  0
 20 26  1  0  0  0
 21 22  1  0  0  0
 22 23  2  0  0  0
 22 15  1  0  0  0
 23 24  1  0  0  0
 24 25  2  0  0  0
 15  1  1  0  0  0
  1  2  1  0  0  0
  1  9  1  0  0  0
  2  3  1  0  0  0
  3  4  1  0  0  0
  4  5  1  0  0  0
  4  8  1  0  0  0
  5  6  2  0  0  0
  6  7  1  0  0  0
  6 10  1  0  0  0
  7  8  2  0  0  0
  8  9  1  0  0  0
 10 11  1  0  0  0
 10 13  1  0  0  0
 13 14  1  0  0  0
 26 27  2  0  0  0
 11 12  1  0  0  0
M  END
> <minimizedAffinity>
-6.31915

$$$$
1586


 29 32  0  0  0  0  0  0  0  0999 V2000
   92.6993  102.8306  -42.0790 C   0  0  0  0  0  0  0  0  0  0  0  0
   93.2721  103.8743  -42.6574 O   0  0  0  0  0  0  0  0  0  0  0  0
   92.0778  101.9196  -42.9490 N   0  0  0  0  0  0  0  0  0  0  0  0
   91.3833  100.7518  -42.5382 C   0  0  0  0  0  0  0  0  0  0  0  0
   90.6604  100.1493  -43.7550 C   0  0  0  0  0  0  0  0  0  0  0  0
   91.6931   99.8782  -44.7212 N   0  0  0  0  0  0  0  0  0  0  0  0
   92.4562  100.9838  -45.1950 C   0  0  0  0  0  0  0  0  0  0  0  0
   92.1879  102.2287  -44.3745 C   0  0  0  0  0  0  0  0  0  0  0  0
   91.9343   98.5697  -45.1741 C   0  0  0  0  0  0  0  0  0  0  0  0
   92.5340   98.4072  -46.2517 O   0  0  0  0  0  0  0  0  0  0  0  0
   91.4674   97.4332  -44.3537 C   0  0  0  0  0  0  0  0  0  0  0  0
   90.1142   97.7202  -43.9785 N   0  0  0  0  0  0  0  0  0  0  0  0
   89.8435   98.9881  -43.4073 C   0  0  0  0  0  0  0  0  0  0  0  0
   88.8905   99.1570  -42.5835 O   0  0  0  0  0  0  0  0  0  0  0  0
   89.3323   97.0316  -44.1099 H   0  0  0  0  0  0  0  0  0  0  0  0
   93.6514  102.9141  -36.1155 Cl  0  0  0  0  0  0  0  0  0  0  0  0
   93.3293  102.8925  -37.8559 C   0  0  0  0  0  0  0  0  0  0  0  0
   92.1142  103.2468  -38.3454 C   0  0  0  0  0  0  0  0  0  0  0  0
   91.8923  103.2192  -39.7229 C   0  0  0  0  0  0  0  0  0  0  0  0
   92.8371  102.8522  -40.6492 C   0  0  0  0  0  0  0  0  0  0  0  0
   94.0744  102.4947  -40.0852 C   0  0  0  0  0  0  0  0  0  0  0  0
   94.3168  102.5139  -38.7277 C   0  0  0  0  0  0  0  0  0  0  0  0
   91.6808   96.1078  -44.9788 C   0  0  0  0  0  0  0  0  0  0  0  0
   91.6649   95.0550  -43.9502 C   0  0  0  0  0  0  0  0  0  0  0  0
   91.7011   95.1854  -42.6220 N   0  0  0  0  0  0  0  0  0  0  0  0
   91.6674   93.9470  -42.0475 C   0  0  0  0  0  0  0  0  0  0  0  0
   91.6112   93.0292  -43.0150 N   0  0  0  0  0  0  0  0  0  0  0  0
   91.6086   93.6800  -44.1830 C   0  0  0  0  0  0  0  0  0  0  0  0
   91.5769   92.0138  -42.8913 H   0  0  0  0  0  0  0  0  0  0  0  0
 16 17  1  0  0  0
 17 18  2  0  0  0
 17 22  1  0  0  0
 18 19  1  0  0  0
 19 20  2  0  0  0
 20 21  1  0  0  0
 20  1  1  0  0  0
 21 22  2  0  0  0
  1  2  2  0  0  0
  1  3  1  0  0  0
  3  4  1  0  0  0
  3  8  1  0  0  0
  4  5  1  0  0  0
  5  6  1  0  0  0
  5 13  1  0  0  0
  6  7  1  0  0  0
  6  9  1  0  0  0
  7  8  1  0  0  0
  9 10  2  0  0  0
  9 11  1  0  0  0
 11 12  1  0  0  0
 11 23  1  0  0  0
 12 13  1  0  0  0
 13 14  2  0  0  0
 23 24  1  0  0  0
 24 25  1  0  0  0
 24 28  2  0  0  0
 25 26  2  0  0  0
 26 27  1  0  0  0
 27 28  1  0  0  0
 12 15  1  0  0  0
 27 29  1  0  0  0
M  END
> <minimizedAffinity>
-6.60609

$$$$
1591


 26 29  0  0  0  0  0  0  0  0999 V2000
   89.0395  100.0401  -44.7496 Cl  0  0  0  0  0  0  0  0  0  0  0  0
   90.2536   99.0229  -44.0071 C   0  0  0  0  0  0  0  0  0  0  0  0
   91.0827   99.5289  -43.0463 C   0  0  0  0  0  0  0  0  0  0  0  0
   92.0223   98.6293  -42.5354 C   0  0  0  0  0  0  0  0  0  0  0  0
   92.0765   97.3643  -42.9808 N   0  0  0  0  0  0  0  0  0  0  0  0
   91.2892   96.8581  -43.9030 N   0  0  0  0  0  0  0  0  0  0  0  0
   90.3720   97.6851  -44.4216 C   0  0  0  0  0  0  0  0  0  0  0  0
   89.5721   97.2939  -45.3094 O   0  0  0  0  0  0  0  0  0  0  0  0
   91.4139   95.5017  -44.3189 C   0  0  0  0  0  0  0  0  0  0  0  0
   91.2905   95.1118  -45.6376 C   0  0  0  0  0  0  0  0  0  0  0  0
   91.4140   93.7959  -46.0294 C   0  0  0  0  0  0  0  0  0  0  0  0
   91.6683   92.8072  -45.1002 C   0  0  0  0  0  0  0  0  0  0  0  0
   91.7932   93.1904  -43.7815 C   0  0  0  0  0  0  0  0  0  0  0  0
   91.6689   94.5108  -43.3933 C   0  0  0  0  0  0  0  0  0  0  0  0
   91.0033  100.8578  -42.5670 N   0  0  0  0  0  0  0  0  0  0  0  0
   91.7342  101.9589  -43.1720 C   0  0  0  0  0  0  0  0  0  0  0  0
   92.7323  102.5568  -42.2144 C   0  0  0  0  0  0  0  0  0  0  0  0
   92.0914  102.6078  -40.9232 N   0  0  0  0  0  0  0  0  0  0  0  0
   90.6521  102.6141  -40.8840 C   0  0  0  0  0  0  0  0  0  0  0  0
   90.2016  101.2327  -41.4073 C   0  0  0  0  0  0  0  0  0  0  0  0
   92.8493  102.6514  -39.7283 C   0  0  0  0  0  0  0  0  0  0  0  0
   94.1367  102.2377  -39.5492 N   0  0  0  0  0  0  0  0  0  0  0  0
   94.4894  102.4428  -38.2959 N   0  0  0  0  0  0  0  0  0  0  0  0
   93.4528  102.9804  -37.6656 C   0  0  0  0  0  0  0  0  0  0  0  0
   92.4872  103.0951  -38.5392 O   0  0  0  0  0  0  0  0  0  0  0  0
   93.3375  103.3998  -36.2313 C   0  0  0  0  0  0  0  0  0  0  0  0
  1  2  1  0  0  0
  2  3  2  0  0  0
  2  7  1  0  0  0
  3  4  1  0  0  0
  3 15  1  0  0  0
  4  5  2  0  0  0
  5  6  1  0  0  0
  6  7  1  0  0  0
  6  9  1  0  0  0
  7  8  2  0  0  0
  9 10  2  0  0  0
  9 14  1  0  0  0
 10 11  1  0  0  0
 11 12  2  0  0  0
 12 13  1  0  0  0
 13 14  2  0  0  0
 15 16  1  0  0  0
 15 20  1  0  0  0
 16 17  1  0  0  0
 17 18  1  0  0  0
 18 19  1  0  0  0
 18 21  1  0  0  0
 19 20  1  0  0  0
 21 22  2  0  0  0
 21 25  1  0  0  0
 22 23  1  0  0  0
 23 24  2  0  0  0
 24 25  1  0  0  0
 24 26  1  0  0  0
M  END
> <minimizedAffinity>
-6.50828

$$$$
1594


 27 30  0  0  0  0  0  0  0  0999 V2000
   92.1697   99.3896  -44.7167 C   0  0  0  0  0  0  0  0  0  0  0  0
   92.9068   99.7911  -43.7424 O   0  0  0  0  0  0  0  0  0  0  0  0
   91.2533   98.3967  -44.4292 N   0  0  0  0  0  0  0  0  0  0  0  0
   90.3431   97.8352  -45.3983 C   0  0  0  0  0  0  0  0  0  0  0  0
   90.7068   96.3998  -45.7141 C   0  0  0  0  0  0  0  0  0  0  0  0
   91.1864   95.7207  -44.4633 C   0  0  0  0  0  0  0  0  0  0  0  0
   91.3828   96.3452  -43.2621 C   0  0  0  0  0  0  0  0  0  0  0  0
   91.8128   95.3744  -42.4150 N   0  0  0  0  0  0  0  0  0  0  0  0
   91.8864   94.2156  -43.0294 N   0  0  0  0  0  0  0  0  0  0  0  0
   91.5100   94.3641  -44.3058 C   0  0  0  0  0  0  0  0  0  0  0  0
   91.4463   93.4782  -45.2178 O   0  0  0  0  0  0  0  0  0  0  0  0
   91.1304   97.8032  -43.0755 C   0  0  0  0  0  0  0  0  0  0  0  0
   92.0425   95.5765  -41.4120 H   0  0  0  0  0  0  0  0  0  0  0  0
   92.7183  103.9853  -50.7461 Cl  0  0  0  0  0  0  0  0  0  0  0  0
   92.7841  102.5893  -49.6866 C   0  0  0  0  0  0  0  0  0  0  0  0
   92.3666  102.6772  -48.3780 C   0  0  0  0  0  0  0  0  0  0  0  0
   92.4318  101.5725  -47.5840 N   0  0  0  0  0  0  0  0  0  0  0  0
   92.8985  100.4251  -48.0885 C   0  0  0  0  0  0  0  0  0  0  0  0
   92.8681   99.4874  -47.1282 N   0  0  0  0  0  0  0  0  0  0  0  0
   92.3840  100.0219  -46.0070 C   0  0  0  0  0  0  0  0  0  0  0  0
   92.1033  101.3655  -46.3018 C   0  0  0  0  0  0  0  0  0  0  0  0
   93.3312  100.3065  -49.4207 C   0  0  0  0  0  0  0  0  0  0  0  0
   93.2682  101.4067  -50.2185 C   0  0  0  0  0  0  0  0  0  0  0  0
   92.3064   92.9237  -42.4675 C   0  0  0  0  0  0  0  0  0  0  0  0
   93.6964   93.0200  -41.8824 C   0  0  0  0  0  0  0  0  0  0  0  0
   93.7973   94.0241  -40.9269 O   0  0  0  0  0  0  0  0  0  0  0  0
   94.6829   94.4941  -40.9666 H   0  0  0  0  0  0  0  0  0  0  0  0
 14 15  1  0  0  0
 15 16  2  0  0  0
 15 23  1  0  0  0
 16 17  1  0  0  0
 17 18  1  0  0  0
 17 21  1  0  0  0
 18 19  2  0  0  0
 18 22  1  0  0  0
 19 20  1  0  0  0
 20 21  2  0  0  0
 20  1  1  0  0  0
  1  2  2  0  0  0
  1  3  1  0  0  0
  3  4  1  0  0  0
  3 12  1  0  0  0
  4  5  1  0  0  0
  5  6  1  0  0  0
  6  7  2  0  0  0
  6 10  1  0  0  0
  7  8  1  0  0  0
  7 12  1  0  0  0
  8  9  1  0  0  0
  9 10  1  0  0  0
  9 24  1  0  0  0
 10 11  2  0  0  0
 24 25  1  0  0  0
 25 26  1  0  0  0
 22 23  2  0  0  0
  8 13  1  0  0  0
 26 27  1  0  0  0
M  END
> <minimizedAffinity>
-6.11285

$$$$
1599


 30 33  0  0  0  0  0  0  0  0999 V2000
   90.4415   99.0334  -43.7430 C   0  0  0  0  0  0  0  0  0  0  0  0
   90.7436   98.4098  -42.6651 O   0  0  0  0  0  0  0  0  0  0  0  0
   89.3920   99.9613  -43.7804 N   0  0  0  0  0  0  0  0  0  0  0  0
   89.0244  100.6712  -44.9635 C   0  0  0  0  0  0  0  0  0  0  0  0
   87.5423  100.8925  -45.0711 C   0  0  0  0  0  0  0  0  0  0  0  0
   86.6964   99.9367  -44.2587 C   0  0  0  0  0  0  0  0  0  0  0  0
   85.3683  100.5338  -44.2945 N   0  0  0  0  0  0  0  0  0  0  0  0
   84.3152   99.7413  -43.7856 C   0  0  0  0  0  0  0  0  0  0  0  0
   84.5476   98.2816  -43.6458 C   0  0  0  0  0  0  0  0  0  0  0  0
   85.5609   97.7855  -44.6284 C   0  0  0  0  0  0  0  0  0  0  0  0
   85.6534   96.6447  -45.3106 N   0  0  0  0  0  0  0  0  0  0  0  0
   86.7785   96.7479  -46.0485 C   0  0  0  0  0  0  0  0  0  0  0  0
   87.3773   97.9383  -45.8257 N   0  0  0  0  0  0  0  0  0  0  0  0
   86.6137   98.6151  -44.9198 C   0  0  0  0  0  0  0  0  0  0  0  0
   87.1596   99.7708  -42.8341 C   0  0  0  0  0  0  0  0  0  0  0  0
   88.5817  100.2480  -42.6021 C   0  0  0  0  0  0  0  0  0  0  0  0
   85.4814  101.4348  -43.7466 H   0  0  0  0  0  0  0  0  0  0  0  0
   88.2539   98.2648  -46.2659 H   0  0  0  0  0  0  0  0  0  0  0  0
   91.3000   98.6807  -44.9307 C   0  0  0  0  0  0  0  0  0  0  0  0
   90.5579   96.3181  -46.0286 C   0  0  0  0  0  0  0  0  0  0  0  0
   89.8127   96.1105  -47.0501 O   0  0  0  0  0  0  0  0  0  0  0  0
   90.9202   97.4718  -45.4923 N   0  0  0  0  0  0  0  0  0  0  0  0
   90.1863   98.1595  -46.4423 H   0  0  0  0  0  0  0  0  0  0  0  0
   92.5398   93.8597  -41.7243 Br  0  0  0  0  0  0  0  0  0  0  0  0
   91.9736   93.8543  -43.5243 C   0  0  0  0  0  0  0  0  0  0  0  0
   91.4828   95.0213  -44.0897 C   0  0  0  0  0  0  0  0  0  0  0  0
   91.0594   95.0491  -45.3919 C   0  0  0  0  0  0  0  0  0  0  0  0
   91.0964   93.9477  -46.1932 C   0  0  0  0  0  0  0  0  0  0  0  0
   91.5908   92.7667  -45.6310 C   0  0  0  0  0  0  0  0  0  0  0  0
   92.0198   92.7345  -44.3173 C   0  0  0  0  0  0  0  0  0  0  0  0
 24 25  1  0  0  0
 25 26  2  0  0  0
 25 30  1  0  0  0
 26 27  1  0  0  0
 27 28  2  0  0  0
 27 20  1  0  0  0
 28 29  1  0  0  0
 29 30  2  0  0  0
 20 21  2  0  0  0
 20 22  1  0  0  0
 22 19  1  0  0  0
 19  1  1  0  0  0
  1  2  2  0  0  0
  1  3  1  0  0  0
  3  4  1  0  0  0
  3 16  1  0  0  0
  4  5  1  0  0  0
  5  6  1  0  0  0
  6  7  1  0  0  0
  6 14  1  0  0  0
  6 15  1  0  0  0
  7  8  1  0  0  0
  8  9  1  0  0  0
  9 10  1  0  0  0
 10 11  1  0  0  0
 10 14  2  0  0  0
 11 12  2  0  0  0
 12 13  1  0  0  0
 13 14  1  0  0  0
 15 16  1  0  0  0
 22 23  1  0  0  0
  7 17  1  0  0  0
 13 18  1  0  0  0
M  END
> <minimizedAffinity>
-6.53030

$$$$
1609


 26 29  0  0  0  0  0  0  0  0999 V2000
   91.3931   99.0187  -43.6900 N   0  0  0  0  0  0  0  0  0  0  0  0
   90.8061  100.2153  -43.1484 C   0  0  0  0  0  0  0  0  0  0  0  0
   91.2000  101.2426  -44.1911 C   0  0  0  0  0  0  0  0  0  0  0  0
   92.5530  100.8747  -44.4252 O   0  0  0  0  0  0  0  0  0  0  0  0
   92.5132   99.4655  -44.4455 C   0  0  0  0  0  0  0  0  0  0  0  0
   93.3707   98.7551  -45.0594 O   0  0  0  0  0  0  0  0  0  0  0  0
   91.0302  102.4832  -43.3925 C   0  0  0  0  0  0  0  0  0  0  0  0
   91.8120  102.1470  -42.1806 N   0  0  0  0  0  0  0  0  0  0  0  0
   91.6335  100.7448  -41.9635 C   0  0  0  0  0  0  0  0  0  0  0  0
   92.5325  103.1324  -41.4999 C   0  0  0  0  0  0  0  0  0  0  0  0
   92.5236  104.3557  -41.9364 O   0  0  0  0  0  0  0  0  0  0  0  0
   93.3307  102.9411  -40.3031 C   0  0  0  0  0  0  0  0  0  0  0  0
   92.8844  102.9085  -39.0183 N   0  0  0  0  0  0  0  0  0  0  0  0
   93.9240  102.7071  -38.2123 C   0  0  0  0  0  0  0  0  0  0  0  0
   95.0314  102.6091  -38.9504 N   0  0  0  0  0  0  0  0  0  0  0  0
   94.6799  102.7514  -40.2480 C   0  0  0  0  0  0  0  0  0  0  0  0
   91.5100  103.0684  -38.6209 C   0  0  0  0  0  0  0  0  0  0  0  0
   91.0180   97.6296  -43.5595 C   0  0  0  0  0  0  0  0  0  0  0  0
   91.4643   97.0020  -42.2673 C   0  0  0  0  0  0  0  0  0  0  0  0
   91.5868   92.7849  -45.3349 Cl  0  0  0  0  0  0  0  0  0  0  0  0
   91.9363   93.5919  -43.8034 C   0  0  0  0  0  0  0  0  0  0  0  0
   91.5862   94.9099  -43.6322 C   0  0  0  0  0  0  0  0  0  0  0  0
   91.8456   95.5807  -42.4369 C   0  0  0  0  0  0  0  0  0  0  0  0
   92.4686   94.8510  -41.4444 C   0  0  0  0  0  0  0  0  0  0  0  0
   92.8165   93.5250  -41.6261 C   0  0  0  0  0  0  0  0  0  0  0  0
   92.5581   92.8666  -42.8096 C   0  0  0  0  0  0  0  0  0  0  0  0
 20 21  1  0  0  0
 21 22  2  0  0  0
 21 26  1  0  0  0
 22 23  1  0  0  0
 23 24  2  0  0  0
 23 19  1  0  0  0
 24 25  1  0  0  0
 25 26  2  0  0  0
 19 18  1  0  0  0
 18  1  1  0  0  0
  1  2  1  0  0  0
  1  5  1  0  0  0
  2  3  1  0  0  0
  2  9  1  0  0  0
  3  4  1  0  0  0
  3  7  1  0  0  0
  4  5  1  0  0  0
  5  6  2  0  0  0
  7  8  1  0  0  0
  8  9  1  0  0  0
  8 10  1  0  0  0
 10 11  2  0  0  0
 10 12  1  0  0  0
 12 13  1  0  0  0
 12 16  2  0  0  0
 13 14  1  0  0  0
 13 17  1  0  0  0
 14 15  2  0  0  0
 15 16  1  0  0  0
M  END
> <minimizedAffinity>
-6.43459

$$$$
1612


 31 34  0  0  0  0  0  0  0  0999 V2000
   90.8364   97.8377  -44.4742 N   0  0  0  0  0  0  0  0  0  0  0  0
   91.1158   96.5209  -44.3856 C   0  0  0  0  0  0  0  0  0  0  0  0
   91.4899   96.2770  -43.0853 C   0  0  0  0  0  0  0  0  0  0  0  0
   91.4286   97.4239  -42.4379 N   0  0  0  0  0  0  0  0  0  0  0  0
   91.0235   98.4069  -43.2799 C   0  0  0  0  0  0  0  0  0  0  0  0
   91.8225   94.9993  -42.7473 N   0  0  0  0  0  0  0  0  0  0  0  0
   91.7905   94.0038  -43.6407 C   0  0  0  0  0  0  0  0  0  0  0  0
   92.1069   92.8367  -43.2777 O   0  0  0  0  0  0  0  0  0  0  0  0
   91.4318   94.1978  -44.9163 N   0  0  0  0  0  0  0  0  0  0  0  0
   91.0956   95.4578  -45.2821 C   0  0  0  0  0  0  0  0  0  0  0  0
   90.7587   95.6447  -46.4718 O   0  0  0  0  0  0  0  0  0  0  0  0
   92.2176   94.7182  -41.3690 C   0  0  0  0  0  0  0  0  0  0  0  0
   91.4200   93.3924  -45.5810 H   0  0  0  0  0  0  0  0  0  0  0  0
   90.7858   99.7661  -42.8827 N   0  0  0  0  0  0  0  0  0  0  0  0
   91.8700  100.7454  -43.1002 C   0  0  0  0  0  0  0  0  0  0  0  0
   91.4152  101.9031  -43.9291 C   0  0  0  0  0  0  0  0  0  0  0  0
   89.9823  102.0713  -43.8533 N   0  0  0  0  0  0  0  0  0  0  0  0
   89.3361  101.7166  -42.6070 C   0  0  0  0  0  0  0  0  0  0  0  0
   89.5840  100.2493  -42.3043 C   0  0  0  0  0  0  0  0  0  0  0  0
   89.2473  102.5737  -44.9605 C   0  0  0  0  0  0  0  0  0  0  0  0
   89.8346  102.8926  -46.0172 O   0  0  0  0  0  0  0  0  0  0  0  0
   87.7750  102.7332  -44.8986 C   0  0  0  0  0  0  0  0  0  0  0  0
   87.1705  101.7208  -45.8679 C   0  0  0  0  0  0  0  0  0  0  0  0
   90.3620   98.4495  -45.6742 C   0  0  0  0  0  0  0  0  0  0  0  0
   85.5367   97.7334  -43.8969 Cl  0  0  0  0  0  0  0  0  0  0  0  0
   86.6633   98.0161  -45.2233 C   0  0  0  0  0  0  0  0  0  0  0  0
   88.0107   98.1345  -44.9073 C   0  0  0  0  0  0  0  0  0  0  0  0
   88.9028   98.3566  -45.9175 C   0  0  0  0  0  0  0  0  0  0  0  0
   88.4258   98.4577  -47.2391 C   0  0  0  0  0  0  0  0  0  0  0  0
   87.0954   98.3368  -47.5206 C   0  0  0  0  0  0  0  0  0  0  0  0
   86.1780   98.1122  -46.5088 C   0  0  0  0  0  0  0  0  0  0  0  0
 25 26  1  0  0  0
 26 27  2  0  0  0
 26 31  1  0  0  0
 27 28  1  0  0  0
 28 29  2  0  0  0
 28 24  1  0  0  0
 29 30  1  0  0  0
 30 31  2  0  0  0
 24  1  1  0  0  0
  1  2  1  0  0  0
  1  5  1  0  0  0
  2  3  2  0  0  0
  2 10  1  0  0  0
  3  4  1  0  0  0
  3  6  1  0  0  0
  4  5  2  0  0  0
  5 14  1  0  0  0
 14 15  1  0  0  0
 14 19  1  0  0  0
 15 16  1  0  0  0
 16 17  1  0  0  0
 17 18  1  0  0  0
 17 20  1  0  0  0
 18 19  1  0  0  0
 20 21  2  0  0  0
 20 22  1  0  0  0
 22 23  1  0  0  0
  6  7  1  0  0  0
  6 12  1  0  0  0
  7  8  2  0  0  0
  7  9  1  0  0  0
  9 10  1  0  0  0
 10 11  2  0  0  0
  9 13  1  0  0  0
M  END
> <minimizedAffinity>
-6.13401

$$$$
1622


 28 31  0  0  0  0  0  0  0  0999 V2000
   89.8386   98.0672  -44.9501 C   0  0  0  0  0  0  0  0  0  0  0  0
   88.6759   98.2073  -44.4911 O   0  0  0  0  0  0  0  0  0  0  0  0
   90.6701   99.1760  -45.2641 N   0  0  0  0  0  0  0  0  0  0  0  0
   90.1588  100.5114  -45.0461 C   0  0  0  0  0  0  0  0  0  0  0  0
   91.3590  101.4095  -44.8091 C   0  0  0  0  0  0  0  0  0  0  0  0
   92.4582  100.6971  -44.0518 C   0  0  0  0  0  0  0  0  0  0  0  0
   93.4407  101.6929  -43.6902 N   0  0  0  0  0  0  0  0  0  0  0  0
   93.0475  102.2809  -42.4594 C   0  0  0  0  0  0  0  0  0  0  0  0
   93.4143  103.3960  -41.9714 O   0  0  0  0  0  0  0  0  0  0  0  0
   92.1372  101.3562  -41.8567 N   0  0  0  0  0  0  0  0  0  0  0  0
   91.9910  100.2293  -42.7219 C   0  0  0  0  0  0  0  0  0  0  0  0
   91.5531   99.0957  -42.3853 O   0  0  0  0  0  0  0  0  0  0  0  0
   91.4454  101.4931  -40.5729 C   0  0  0  0  0  0  0  0  0  0  0  0
   93.0478   99.5640  -44.8384 C   0  0  0  0  0  0  0  0  0  0  0  0
   92.0100   99.0570  -45.7923 C   0  0  0  0  0  0  0  0  0  0  0  0
   94.2820  101.9218  -44.2522 H   0  0  0  0  0  0  0  0  0  0  0  0
   88.9939   96.8204  -47.5255 Cl  0  0  0  0  0  0  0  0  0  0  0  0
   89.9661   96.0008  -46.2956 C   0  0  0  0  0  0  0  0  0  0  0  0
   90.2913   96.6865  -45.1456 C   0  0  0  0  0  0  0  0  0  0  0  0
   91.0477   96.0595  -44.1800 C   0  0  0  0  0  0  0  0  0  0  0  0
   91.4819   94.7616  -44.3476 C   0  0  0  0  0  0  0  0  0  0  0  0
   91.1306   94.1108  -45.5192 C   0  0  0  0  0  0  0  0  0  0  0  0
   90.3775   94.7008  -46.5070 C   0  0  0  0  0  0  0  0  0  0  0  0
   92.2662   94.0913  -43.3621 N   0  0  0  0  0  0  0  0  0  0  0  0
   93.1594   93.1475  -43.5309 N   0  0  0  0  0  0  0  0  0  0  0  0
   93.6768   92.7839  -42.3212 C   0  0  0  0  0  0  0  0  0  0  0  0
   93.0675   93.5480  -41.3507 C   0  0  0  0  0  0  0  0  0  0  0  0
   92.1768   94.3677  -42.0496 C   0  0  0  0  0  0  0  0  0  0  0  0
 17 18  1  0  0  0
 18 19  2  0  0  0
 18 23  1  0  0  0
 19 20  1  0  0  0
 19  1  1  0  0  0
 20 21  2  0  0  0
 21 22  1  0  0  0
 21 24  1  0  0  0
 22 23  2  0  0  0
 24 25  1  0  0  0
 24 28  1  0  0  0
 25 26  2  0  0  0
 26 27  1  0  0  0
 27 28  2  0  0  0
  1  2  2  0  0  0
  1  3  1  0  0  0
  3  4  1  0  0  0
  3 15  1  0  0  0
  4  5  1  0  0  0
  5  6  1  0  0  0
  6  7  1  0  0  0
  6 11  1  0  0  0
  6 14  1  0  0  0
  7  8  1  0  0  0
  8  9  2  0  0  0
  8 10  1  0  0  0
 10 11  1  0  0  0
 10 13  1  0  0  0
 11 12  2  0  0  0
 14 15  1  0  0  0
  7 16  1  0  0  0
M  END
> <minimizedAffinity>
-6.81947

$$$$
1624


 32 35  0  0  0  0  0  0  0  0999 V2000
   90.8217   98.6986  -43.6047 C   0  0  0  0  0  0  0  0  0  0  0  0
   91.8669   99.3130  -44.4436 N   0  0  0  0  0  0  0  0  0  0  0  0
   91.7115   98.8296  -45.7712 C   0  0  0  0  0  0  0  0  0  0  0  0
   92.5597   98.8130  -46.6656 O   0  0  0  0  0  0  0  0  0  0  0  0
   90.3248   98.3403  -45.8989 C   0  0  0  0  0  0  0  0  0  0  0  0
   89.7689   97.8226  -46.9203 O   0  0  0  0  0  0  0  0  0  0  0  0
   89.7090   98.5676  -44.6018 C   0  0  0  0  0  0  0  0  0  0  0  0
   88.4157   98.6077  -44.3981 C   0  0  0  0  0  0  0  0  0  0  0  0
   87.9658   98.7889  -43.0937 O   0  0  0  0  0  0  0  0  0  0  0  0
   92.7898   93.4617  -41.4391 Cl  0  0  0  0  0  0  0  0  0  0  0  0
   92.2078   94.9668  -42.0948 C   0  0  0  0  0  0  0  0  0  0  0  0
   91.7220   95.0518  -43.3661 C   0  0  0  0  0  0  0  0  0  0  0  0
   91.2717   96.2754  -43.8399 C   0  0  0  0  0  0  0  0  0  0  0  0
   91.2882   97.4137  -43.0993 C   0  0  0  0  0  0  0  0  0  0  0  0
   91.7858   97.3226  -41.7996 C   0  0  0  0  0  0  0  0  0  0  0  0
   92.2383   96.1198  -41.3071 C   0  0  0  0  0  0  0  0  0  0  0  0
   87.3835   98.4829  -45.4218 C   0  0  0  0  0  0  0  0  0  0  0  0
   86.8159   97.2224  -45.5696 C   0  0  0  0  0  0  0  0  0  0  0  0
   85.8246   97.0374  -46.4916 C   0  0  0  0  0  0  0  0  0  0  0  0
   85.3759   98.0786  -47.2812 C   0  0  0  0  0  0  0  0  0  0  0  0
   85.9420   99.3263  -47.1305 C   0  0  0  0  0  0  0  0  0  0  0  0
   86.9419   99.5011  -46.1952 C   0  0  0  0  0  0  0  0  0  0  0  0
   84.1167   97.7957  -48.4377 Cl  0  0  0  0  0  0  0  0  0  0  0  0
   92.8205  100.2430  -43.8949 C   0  0  0  0  0  0  0  0  0  0  0  0
   92.3593  101.0310  -42.7288 C   0  0  0  0  0  0  0  0  0  0  0  0
   93.1271  101.0074  -41.5395 N   0  0  0  0  0  0  0  0  0  0  0  0
   92.3441  101.1347  -40.3287 C   0  0  0  0  0  0  0  0  0  0  0  0
   92.7773  102.2786  -39.4435 C   0  0  0  0  0  0  0  0  0  0  0  0
   94.1252  102.3415  -39.2021 O   0  0  0  0  0  0  0  0  0  0  0  0
   94.8995  102.1995  -40.3384 C   0  0  0  0  0  0  0  0  0  0  0  0
   94.0118  102.1916  -41.5460 C   0  0  0  0  0  0  0  0  0  0  0  0
   93.7835  100.2113  -41.4861 H   0  0  0  0  0  0  0  0  0  0  0  0
 10 11  1  0  0  0
 11 12  2  0  0  0
 11 16  1  0  0  0
 12 13  1  0  0  0
 13 14  2  0  0  0
 14 15  1  0  0  0
 14  1  1  0  0  0
 15 16  2  0  0  0
  1  2  1  0  0  0
  1  7  1  0  0  0
  2  3  1  0  0  0
  2 24  1  0  0  0
  3  4  2  0  0  0
  3  5  1  0  0  0
  5  6  2  0  0  0
  5  7  1  0  0  0
  7  8  2  0  0  0
  8  9  1  0  0  0
  8 17  1  0  0  0
 17 18  2  0  0  0
 17 22  1  0  0  0
 18 19  1  0  0  0
 19 20  2  0  0  0
 20 21  1  0  0  0
 20 23  1  0  0  0
 21 22  2  0  0  0
 24 25  1  0  0  0
 25 26  1  0  0  0
 26 27  1  0  0  0
 26 31  1  0  0  0
 27 28  1  0  0  0
 28 29  1  0  0  0
 29 30  1  0  0  0
 30 31  1  0  0  0
 26 32  1  0  0  0
M  CHG 1   9  -1
M  CHG 1  26   1
M  END
> <minimizedAffinity>
-6.79393

$$$$
1630


 39 43  0  0  0  0  0  0  0  0999 V2000
   92.9199   93.9737  -41.3256 Cl  0  0  0  0  0  0  0  0  0  0  0  0
   92.1043   95.0914  -42.4299 C   0  0  0  0  0  0  0  0  0  0  0  0
   91.7316   94.6706  -43.6832 C   0  0  0  0  0  0  0  0  0  0  0  0
   91.0911   95.5451  -44.5513 C   0  0  0  0  0  0  0  0  0  0  0  0
   90.7973   96.8420  -44.2282 C   0  0  0  0  0  0  0  0  0  0  0  0
   91.1889   97.2442  -42.9417 C   0  0  0  0  0  0  0  0  0  0  0  0
   91.8248   96.3851  -42.0727 C   0  0  0  0  0  0  0  0  0  0  0  0
   90.1323   97.4830  -45.3508 C   0  0  0  0  0  0  0  0  0  0  0  0
   88.7896   97.8610  -44.9191 N   0  0  0  0  0  0  0  0  0  0  0  0
   88.8995   99.2800  -44.7177 C   0  0  0  0  0  0  0  0  0  0  0  0
   89.6856   99.7091  -45.9356 C   0  0  0  0  0  0  0  0  0  0  0  0
   90.8031   98.6891  -45.9099 C   0  0  0  0  0  0  0  0  0  0  0  0
   91.8422   99.3060  -45.1105 C   0  0  0  0  0  0  0  0  0  0  0  0
   92.8273   98.7352  -44.5925 O   0  0  0  0  0  0  0  0  0  0  0  0
   91.5749  100.6967  -44.9936 N   0  0  0  0  0  0  0  0  0  0  0  0
   90.3784  101.0032  -45.7116 C   0  0  0  0  0  0  0  0  0  0  0  0
   89.9403  102.1106  -46.1039 O   0  0  0  0  0  0  0  0  0  0  0  0
   90.0422   96.4344  -46.3944 C   0  0  0  0  0  0  0  0  0  0  0  0
   89.5318   96.5303  -47.5496 O   0  0  0  0  0  0  0  0  0  0  0  0
   90.6404   95.2694  -45.8718 N   0  0  0  0  0  0  0  0  0  0  0  0
   92.0299   93.2673  -44.0826 C   0  0  0  0  0  0  0  0  0  0  0  0
   88.5298   97.3202  -44.0671 H   0  0  0  0  0  0  0  0  0  0  0  0
   90.7286   94.3541  -46.3897 H   0  0  0  0  0  0  0  0  0  0  0  0
   92.3338  101.7123  -44.2882 C   0  0  0  0  0  0  0  0  0  0  0  0
   92.0606  101.7061  -42.8400 C   0  0  0  0  0  0  0  0  0  0  0  0
   93.1230  101.8967  -41.9826 C   0  0  0  0  0  0  0  0  0  0  0  0
   92.8591  101.8895  -40.6198 C   0  0  0  0  0  0  0  0  0  0  0  0
   91.5948  101.7014  -40.1369 C   0  0  0  0  0  0  0  0  0  0  0  0
   90.5616  101.5158  -41.0245 C   0  0  0  0  0  0  0  0  0  0  0  0
   90.7586  101.5117  -42.3879 C   0  0  0  0  0  0  0  0  0  0  0  0
   94.3903  102.0846  -42.4928 O   0  0  0  0  0  0  0  0  0  0  0  0
   95.2041  103.1828  -42.2245 C   0  0  0  0  0  0  0  0  0  0  0  0
   87.5391   99.9380  -44.6579 C   0  0  0  0  0  0  0  0  0  0  0  0
   86.7656   99.2414  -43.5581 C   0  0  0  0  0  0  0  0  0  0  0  0
   85.5093   98.6372  -44.0668 C   0  0  0  0  0  0  0  0  0  0  0  0
   85.1039   98.9330  -45.2266 O   0  0  0  0  0  0  0  0  0  0  0  0
   84.8200   97.7425  -43.2047 N   0  0  0  0  0  0  0  0  0  0  0  0
   85.3795   97.1119  -42.6064 H   0  0  0  0  0  0  0  0  0  0  0  0
   83.7694   97.7731  -43.2260 H   0  0  0  0  0  0  0  0  0  0  0  0
  1  2  1  0  0  0
  2  3  2  0  0  0
  2  7  1  0  0  0
  3  4  1  0  0  0
  3 21  1  0  0  0
  4  5  2  0  0  0
  4 20  1  0  0  0
  5  6  1  0  0  0
  5  8  1  0  0  0
  6  7  2  0  0  0
  8  9  1  0  0  0
  8 12  1  0  0  0
  8 18  1  0  0  0
  9 10  1  0  0  0
 10 11  1  0  0  0
 10 33  1  0  0  0
 11 12  1  0  0  0
 11 16  1  0  0  0
 12 13  1  0  0  0
 13 14  2  0  0  0
 13 15  1  0  0  0
 15 16  1  0  0  0
 15 24  1  0  0  0
 16 17  2  0  0  0
 24 25  1  0  0  0
 25 26  2  0  0  0
 25 30  1  0  0  0
 26 27  1  0  0  0
 26 31  1  0  0  0
 27 28  2  0  0  0
 28 29  1  0  0  0
 29 30  2  0  0  0
 31 32  1  0  0  0
 33 34  1  0  0  0
 34 35  1  0  0  0
 35 36  2  0  0  0
 35 37  1  0  0  0
 18 19  2  0  0  0
 18 20  1  0  0  0
  9 22  1  0  0  0
 37 38  1  0  0  0
 37 39  1  0  0  0
 20 23  1  0  0  0
M  END
> <minimizedAffinity>
-7.27864

$$$$
1631


 29 32  0  0  0  0  0  0  0  0999 V2000
   90.6711   97.4886  -45.4292 C   0  0  0  0  0  0  0  0  0  0  0  0
   89.2692   97.5737  -45.7242 N   0  0  0  0  0  0  0  0  0  0  0  0
   88.5594   98.1418  -44.6282 C   0  0  0  0  0  0  0  0  0  0  0  0
   87.3110   98.1147  -44.4243 O   0  0  0  0  0  0  0  0  0  0  0  0
   89.5498   98.7874  -43.7414 C   0  0  0  0  0  0  0  0  0  0  0  0
   89.2795   99.3854  -42.6754 O   0  0  0  0  0  0  0  0  0  0  0  0
   90.8368   98.5586  -44.3848 C   0  0  0  0  0  0  0  0  0  0  0  0
   91.9458   99.1827  -44.0491 C   0  0  0  0  0  0  0  0  0  0  0  0
   93.1210   98.8113  -44.7338 O   0  0  0  0  0  0  0  0  0  0  0  0
   92.1544   94.4969  -41.3855 Cl  0  0  0  0  0  0  0  0  0  0  0  0
   91.7933   94.7300  -43.0818 C   0  0  0  0  0  0  0  0  0  0  0  0
   91.3946   95.9447  -43.5872 C   0  0  0  0  0  0  0  0  0  0  0  0
   91.0988   96.1585  -44.9275 C   0  0  0  0  0  0  0  0  0  0  0  0
   91.2229   95.0648  -45.7785 C   0  0  0  0  0  0  0  0  0  0  0  0
   91.6199   93.8370  -45.2990 C   0  0  0  0  0  0  0  0  0  0  0  0
   91.9028   93.6734  -43.9589 C   0  0  0  0  0  0  0  0  0  0  0  0
   88.6600   97.1539  -46.9265 C   0  0  0  0  0  0  0  0  0  0  0  0
   87.4169   96.6167  -46.8076 N   0  0  0  0  0  0  0  0  0  0  0  0
   86.7359   96.1837  -47.8676 C   0  0  0  0  0  0  0  0  0  0  0  0
   87.3244   96.2949  -49.1064 C   0  0  0  0  0  0  0  0  0  0  0  0
   88.5855   96.8441  -49.2032 C   0  0  0  0  0  0  0  0  0  0  0  0
   89.2665   97.2772  -48.1276 N   0  0  0  0  0  0  0  0  0  0  0  0
   86.9557   96.5306  -45.8603 H   0  0  0  0  0  0  0  0  0  0  0  0
   92.0311  100.2218  -43.0321 C   0  0  0  0  0  0  0  0  0  0  0  0
   91.8266  101.5611  -43.3934 C   0  0  0  0  0  0  0  0  0  0  0  0
   91.8727  102.5618  -42.4478 C   0  0  0  0  0  0  0  0  0  0  0  0
   92.1171  102.3056  -41.1148 C   0  0  0  0  0  0  0  0  0  0  0  0
   92.3196  100.9970  -40.7393 C   0  0  0  0  0  0  0  0  0  0  0  0
   92.2731   99.9846  -41.6988 C   0  0  0  0  0  0  0  0  0  0  0  0
 10 11  1  0  0  0
 11 12  2  0  0  0
 11 16  1  0  0  0
 12 13  1  0  0  0
 13 14  2  0  0  0
 13  1  1  0  0  0
 14 15  1  0  0  0
 15 16  2  0  0  0
  1  2  1  0  0  0
  1  7  1  0  0  0
  2  3  1  0  0  0
  2 17  1  0  0  0
  3  4  2  0  0  0
  3  5  1  0  0  0
  5  6  2  0  0  0
  5  7  1  0  0  0
  7  8  2  0  0  0
  8  9  1  0  0  0
  8 24  1  0  0  0
 24 25  2  0  0  0
 24 29  1  0  0  0
 25 26  1  0  0  0
 26 27  2  0  0  0
 27 28  1  0  0  0
 28 29  2  0  0  0
 17 18  2  0  0  0
 17 22  1  0  0  0
 18 19  1  0  0  0
 19 20  2  0  0  0
 20 21  1  0  0  0
 21 22  2  0  0  0
 18 23  1  0  0  0
M  CHG 1   9  -1
M  END
> <minimizedAffinity>
-6.84060

$$$$
1637


 29 32  0  0  0  0  0  0  0  0999 V2000
   93.3432  102.9449  -42.5244 C   0  0  0  0  0  0  0  0  0  0  0  0
   92.3175  102.9559  -43.3832 N   0  0  0  0  0  0  0  0  0  0  0  0
   91.2391  102.1858  -43.2745 C   0  0  0  0  0  0  0  0  0  0  0  0
   91.1930  101.3008  -42.1852 C   0  0  0  0  0  0  0  0  0  0  0  0
   92.2302  101.2940  -41.3217 C   0  0  0  0  0  0  0  0  0  0  0  0
   93.3004  102.1197  -41.4945 N   0  0  0  0  0  0  0  0  0  0  0  0
   92.1812  100.4302  -40.2376 O   0  0  0  0  0  0  0  0  0  0  0  0
   90.0557  100.3771  -42.1873 C   0  0  0  0  0  0  0  0  0  0  0  0
   90.0361   99.7942  -43.4935 N   0  0  0  0  0  0  0  0  0  0  0  0
   89.3639  100.8818  -44.3333 C   0  0  0  0  0  0  0  0  0  0  0  0
   90.0993  102.1712  -44.2289 C   0  0  0  0  0  0  0  0  0  0  0  0
   91.3261  100.2196  -39.7131 H   0  0  0  0  0  0  0  0  0  0  0  0
   94.7485  103.9671  -42.8783 S   0  0  0  0  0  0  0  0  0  0  0  0
   94.9015  104.2238  -44.2931 O   0  0  0  0  0  0  0  0  0  0  0  0
   95.9405  103.2638  -42.3022 O   0  0  0  0  0  0  0  0  0  0  0  0
   94.4974  105.4760  -41.9108 C   0  0  0  0  0  0  0  0  0  0  0  0
   91.3549   99.6914  -44.2167 C   0  0  0  0  0  0  0  0  0  0  0  0
   91.3191   98.2017  -44.5687 C   0  0  0  0  0  0  0  0  0  0  0  0
   91.6079   97.1914  -43.7370 C   0  0  0  0  0  0  0  0  0  0  0  0
   91.5583   95.8201  -44.1073 C   0  0  0  0  0  0  0  0  0  0  0  0
   91.1716   95.5934  -45.4314 C   0  0  0  0  0  0  0  0  0  0  0  0
   91.1060   94.2952  -45.8446 C   0  0  0  0  0  0  0  0  0  0  0  0
   91.4021   93.1833  -45.0254 C   0  0  0  0  0  0  0  0  0  0  0  0
   91.7807   93.4624  -43.6994 C   0  0  0  0  0  0  0  0  0  0  0  0
   91.8430   94.7688  -43.3039 C   0  0  0  0  0  0  0  0  0  0  0  0
   90.8808   96.5578  -46.2349 O   0  0  0  0  0  0  0  0  0  0  0  0
   90.9393   97.8451  -45.8606 C   0  0  0  0  0  0  0  0  0  0  0  0
   90.6560   98.8002  -46.6809 O   0  0  0  0  0  0  0  0  0  0  0  0
   92.0089   97.5707  -42.0963 Cl  0  0  0  0  0  0  0  0  0  0  0  0
 13 14  2  0  0  0
 13 15  2  0  0  0
 13 16  1  0  0  0
 13  1  1  0  0  0
  1  2  2  0  0  0
  1  6  1  0  0  0
  2  3  1  0  0  0
  3  4  2  0  0  0
  3 11  1  0  0  0
  4  5  1  0  0  0
  4  8  1  0  0  0
  5  6  2  0  0  0
  5  7  1  0  0  0
  8  9  1  0  0  0
  9 10  1  0  0  0
  9 17  1  0  0  0
 10 11  1  0  0  0
 17 18  1  0  0  0
 18 19  2  0  0  0
 18 27  1  0  0  0
 19 20  1  0  0  0
 19 29  1  0  0  0
 20 21  2  0  0  0
 20 25  1  0  0  0
 21 22  1  0  0  0
 21 26  1  0  0  0
 22 23  2  0  0  0
 23 24  1  0  0  0
 24 25  2  0  0  0
 26 27  1  0  0  0
 27 28  2  0  0  0
  7 12  1  0  0  0
M  END
> <minimizedAffinity>
-6.61001

$$$$
1638


 38 41  0  0  0  0  0  0  0  0999 V2000
   90.8643   99.4095  -43.8627 C   0  0  0  0  0  0  0  0  0  0  0  0
   92.1063   99.9500  -43.5572 C   0  0  0  0  0  0  0  0  0  0  0  0
   92.2154  100.8644  -42.5558 N   0  0  0  0  0  0  0  0  0  0  0  0
   91.1646  101.2784  -41.8350 C   0  0  0  0  0  0  0  0  0  0  0  0
   89.9590  100.7595  -42.1264 N   0  0  0  0  0  0  0  0  0  0  0  0
   89.8010   99.8532  -43.1059 C   0  0  0  0  0  0  0  0  0  0  0  0
   93.2063   99.5114  -44.3162 N   0  0  0  0  0  0  0  0  0  0  0  0
   93.8116  100.1471  -44.8756 H   0  0  0  0  0  0  0  0  0  0  0  0
   93.4404   98.4974  -44.3288 H   0  0  0  0  0  0  0  0  0  0  0  0
   91.2815  102.2336  -40.7829 N   0  0  0  0  0  0  0  0  0  0  0  0
   91.7697  101.8786  -39.4726 C   0  0  0  0  0  0  0  0  0  0  0  0
   92.9280  102.7106  -38.9966 C   0  0  0  0  0  0  0  0  0  0  0  0
   92.9657  104.0767  -39.6617 C   0  0  0  0  0  0  0  0  0  0  0  0
   91.4795  104.4197  -39.8616 C   0  0  0  0  0  0  0  0  0  0  0  0
   90.9063  103.6215  -40.9845 C   0  0  0  0  0  0  0  0  0  0  0  0
   93.6076  104.1188  -40.8873 N   0  0  0  0  0  0  0  0  0  0  0  0
   94.8068  103.4157  -41.1290 C   0  0  0  0  0  0  0  0  0  0  0  0
   94.8017  103.0025  -42.6105 C   0  0  0  0  0  0  0  0  0  0  0  0
   93.8936  103.9463  -43.3511 C   0  0  0  0  0  0  0  0  0  0  0  0
   94.0225  105.3692  -42.8701 C   0  0  0  0  0  0  0  0  0  0  0  0
   93.8043  105.4587  -41.3687 C   0  0  0  0  0  0  0  0  0  0  0  0
   93.4705  105.0497  -38.6664 C   0  0  0  0  0  0  0  0  0  0  0  0
   92.8111  106.1104  -38.3988 O   0  0  0  0  0  0  0  0  0  0  0  0
   94.6706  104.8841  -37.9664 N   0  0  0  0  0  0  0  0  0  0  0  0
   95.4998  105.4737  -38.2515 H   0  0  0  0  0  0  0  0  0  0  0  0
   94.8441  104.2359  -37.1724 H   0  0  0  0  0  0  0  0  0  0  0  0
   90.6741   98.2276  -45.1412 S   0  0  0  0  0  0  0  0  0  0  0  0
   89.2763   98.2017  -45.6679 O   0  0  0  0  0  0  0  0  0  0  0  0
   91.6751   98.5621  -46.2179 O   0  0  0  0  0  0  0  0  0  0  0  0
   91.1092   96.6449  -44.4791 C   0  0  0  0  0  0  0  0  0  0  0  0
   91.0933   95.5288  -45.2905 C   0  0  0  0  0  0  0  0  0  0  0  0
   91.4398   94.3164  -44.7323 C   0  0  0  0  0  0  0  0  0  0  0  0
   91.7967   94.2049  -43.3924 C   0  0  0  0  0  0  0  0  0  0  0  0
   91.8007   95.3427  -42.6148 C   0  0  0  0  0  0  0  0  0  0  0  0
   91.4588   96.5703  -43.1442 C   0  0  0  0  0  0  0  0  0  0  0  0
   92.2518   95.2196  -40.9088 Cl  0  0  0  0  0  0  0  0  0  0  0  0
   90.7366   95.6768  -46.6021 O   0  0  0  0  0  0  0  0  0  0  0  0
   89.6166   95.0962  -47.2096 C   0  0  0  0  0  0  0  0  0  0  0  0
 27 28  2  0  0  0
 27 29  2  0  0  0
 27  1  1  0  0  0
 27 30  1  0  0  0
  1  2  2  0  0  0
  1  6  1  0  0  0
  2  3  1  0  0  0
  2  7  1  0  0  0
  3  4  2  0  0  0
  4  5  1  0  0  0
  4 10  1  0  0  0
  5  6  2  0  0  0
 10 11  1  0  0  0
 10 15  1  0  0  0
 11 12  1  0  0  0
 12 13  1  0  0  0
 13 14  1  0  0  0
 13 16  1  0  0  0
 13 22  1  0  0  0
 14 15  1  0  0  0
 16 17  1  0  0  0
 16 21  1  0  0  0
 17 18  1  0  0  0
 18 19  1  0  0  0
 19 20  1  0  0  0
 20 21  1  0  0  0
 22 23  2  0  0  0
 22 24  1  0  0  0
 30 31  2  0  0  0
 30 35  1  0  0  0
 31 32  1  0  0  0
 31 37  1  0  0  0
 32 33  2  0  0  0
 33 34  1  0  0  0
 34 35  2  0  0  0
 34 36  1  0  0  0
 37 38  1  0  0  0
 24 25  1  0  0  0
 24 26  1  0  0  0
  7  8  1  0  0  0
  7  9  1  0  0  0
M  END
> <minimizedAffinity>
-6.14141

$$$$
1651


 23 26  0  0  0  0  0  0  0  0999 V2000
   91.6512   92.0434  -46.9725 Cl  0  0  0  0  0  0  0  0  0  0  0  0
   91.6686   93.2092  -45.6462 C   0  0  0  0  0  0  0  0  0  0  0  0
   91.5155   94.5560  -45.8669 C   0  0  0  0  0  0  0  0  0  0  0  0
   91.5330   95.4628  -44.7959 C   0  0  0  0  0  0  0  0  0  0  0  0
   91.7011   95.0407  -43.5077 C   0  0  0  0  0  0  0  0  0  0  0  0
   91.8584   93.6624  -43.2732 C   0  0  0  0  0  0  0  0  0  0  0  0
   91.8368   92.8030  -44.3439 C   0  0  0  0  0  0  0  0  0  0  0  0
   91.6867   96.1173  -42.5844 N   0  0  0  0  0  0  0  0  0  0  0  0
   91.4972   97.2962  -43.3471 C   0  0  0  0  0  0  0  0  0  0  0  0
   91.4336   98.4567  -42.8454 O   0  0  0  0  0  0  0  0  0  0  0  0
   91.3899   96.9389  -44.7788 C   0  0  0  0  0  0  0  0  0  0  0  0
   92.5452   97.6166  -45.4850 C   0  0  0  0  0  0  0  0  0  0  0  0
   92.2021   99.0787  -45.4805 C   0  0  0  0  0  0  0  0  0  0  0  0
   92.9660   99.9575  -45.0408 O   0  0  0  0  0  0  0  0  0  0  0  0
   90.9211   99.4280  -46.0184 N   0  0  0  0  0  0  0  0  0  0  0  0
   89.8508   98.4959  -45.9368 C   0  0  0  0  0  0  0  0  0  0  0  0
   88.5558   98.5336  -46.3525 N   0  0  0  0  0  0  0  0  0  0  0  0
   87.9900   97.3951  -46.0333 N   0  0  0  0  0  0  0  0  0  0  0  0
   88.8589   96.5819  -45.4126 C   0  0  0  0  0  0  0  0  0  0  0  0
   90.0709   97.2801  -45.3408 C   0  0  0  0  0  0  0  0  0  0  0  0
   91.8410   96.0091  -41.1302 C   0  0  0  0  0  0  0  0  0  0  0  0
   90.7607  100.3554  -46.4694 H   0  0  0  0  0  0  0  0  0  0  0  0
   88.1385   99.3602  -46.8400 H   0  0  0  0  0  0  0  0  0  0  0  0
  1  2  1  0  0  0
  2  3  2  0  0  0
  2  7  1  0  0  0
  3  4  1  0  0  0
  4  5  2  0  0  0
  4 11  1  0  0  0
  5  6  1  0  0  0
  5  8  1  0  0  0
  6  7  2  0  0  0
  8  9  1  0  0  0
  8 21  1  0  0  0
  9 10  2  0  0  0
  9 11  1  0  0  0
 11 12  1  0  0  0
 11 20  1  0  0  0
 12 13  1  0  0  0
 13 14  2  0  0  0
 13 15  1  0  0  0
 15 16  1  0  0  0
 16 17  1  0  0  0
 16 20  2  0  0  0
 17 18  1  0  0  0
 18 19  2  0  0  0
 19 20  1  0  0  0
 15 22  1  0  0  0
 17 23  1  0  0  0
M  END
> <minimizedAffinity>
-6.55048

$$$$
1657


 33 36  0  0  0  0  0  0  0  0999 V2000
   92.1190   93.6854  -41.4754 Cl  0  0  0  0  0  0  0  0  0  0  0  0
   91.8579   95.2449  -42.2669 C   0  0  0  0  0  0  0  0  0  0  0  0
   91.5046   95.2964  -43.5980 C   0  0  0  0  0  0  0  0  0  0  0  0
   91.3029   96.4949  -44.2016 C   0  0  0  0  0  0  0  0  0  0  0  0
   91.4532   97.6870  -43.4801 C   0  0  0  0  0  0  0  0  0  0  0  0
   91.8065   97.6116  -42.1541 C   0  0  0  0  0  0  0  0  0  0  0  0
   92.0158   96.3935  -41.5207 C   0  0  0  0  0  0  0  0  0  0  0  0
   91.2424   98.9482  -44.1062 N   0  0  0  0  0  0  0  0  0  0  0  0
   90.3513   99.0238  -45.2541 C   0  0  0  0  0  0  0  0  0  0  0  0
   90.7404   97.9537  -46.1427 N   0  0  0  0  0  0  0  0  0  0  0  0
   90.9273   96.6549  -45.6044 C   0  0  0  0  0  0  0  0  0  0  0  0
   90.7847   95.6036  -46.2808 O   0  0  0  0  0  0  0  0  0  0  0  0
   90.5479  100.3445  -45.9196 C   0  0  0  0  0  0  0  0  0  0  0  0
   89.6947  101.4455  -45.3328 C   0  0  0  0  0  0  0  0  0  0  0  0
   89.7596  101.4703  -43.8864 N   0  0  0  0  0  0  0  0  0  0  0  0
   89.3332  100.3605  -43.0578 C   0  0  0  0  0  0  0  0  0  0  0  0
   89.5841  100.4803  -41.8366 O   0  0  0  0  0  0  0  0  0  0  0  0
   88.6504   99.1098  -43.4274 C   0  0  0  0  0  0  0  0  0  0  0  0
   88.9164   98.7419  -44.8564 C   0  0  0  0  0  0  0  0  0  0  0  0
   91.7453   99.7663  -43.7039 H   0  0  0  0  0  0  0  0  0  0  0  0
   90.8910   98.0860  -47.1620 H   0  0  0  0  0  0  0  0  0  0  0  0
   90.2715  102.5862  -43.2011 C   0  0  0  0  0  0  0  0  0  0  0  0
   91.6672  102.9568  -43.2616 C   0  0  0  0  0  0  0  0  0  0  0  0
   91.8434  104.0391  -44.0208 O   0  0  0  0  0  0  0  0  0  0  0  0
   92.7801  102.3919  -42.6808 N   0  0  0  0  0  0  0  0  0  0  0  0
   94.1056  103.0124  -42.9371 C   0  0  0  0  0  0  0  0  0  0  0  0
   94.7687  103.0587  -41.5514 C   0  0  0  0  0  0  0  0  0  0  0  0
   93.8002  102.9972  -40.5086 N   0  0  0  0  0  0  0  0  0  0  0  0
   93.1049  101.7521  -40.3738 C   0  0  0  0  0  0  0  0  0  0  0  0
   92.8259  101.2715  -41.8262 C   0  0  0  0  0  0  0  0  0  0  0  0
   94.1623  103.6151  -39.2785 C   0  0  0  0  0  0  0  0  0  0  0  0
   94.0303  102.7037  -38.0755 C   0  0  0  0  0  0  0  0  0  0  0  0
   95.5401  104.2192  -39.2905 C   0  0  0  0  0  0  0  0  0  0  0  0
  1  2  1  0  0  0
  2  3  2  0  0  0
  2  7  1  0  0  0
  3  4  1  0  0  0
  4  5  2  0  0  0
  4 11  1  0  0  0
  5  6  1  0  0  0
  5  8  1  0  0  0
  6  7  2  0  0  0
  8  9  1  0  0  0
  9 10  1  0  0  0
  9 13  1  0  0  0
  9 19  1  0  0  0
 10 11  1  0  0  0
 11 12  2  0  0  0
 13 14  1  0  0  0
 14 15  1  0  0  0
 15 16  1  0  0  0
 15 22  1  0  0  0
 16 17  2  0  0  0
 16 18  1  0  0  0
 18 19  1  0  0  0
 22 23  1  0  0  0
 23 24  2  0  0  0
 23 25  1  0  0  0
 25 26  1  0  0  0
 25 30  1  0  0  0
 26 27  1  0  0  0
 27 28  1  0  0  0
 28 29  1  0  0  0
 28 31  1  0  0  0
 29 30  1  0  0  0
 31 32  1  0  0  0
 31 33  1  0  0  0
  8 20  1  0  0  0
 10 21  1  0  0  0
M  END
> <minimizedAffinity>
-6.63349

$$$$
1660


 31 34  0  0  0  0  0  0  0  0999 V2000
   91.4465   95.7269  -43.9439 N   0  0  0  0  0  0  0  0  0  0  0  0
   91.7466   95.6560  -42.6753 N   0  0  0  0  0  0  0  0  0  0  0  0
   91.7228   96.8497  -42.0729 C   0  0  0  0  0  0  0  0  0  0  0  0
   91.3746   97.7792  -43.0436 C   0  0  0  0  0  0  0  0  0  0  0  0
   91.2098   97.0326  -44.2059 C   0  0  0  0  0  0  0  0  0  0  0  0
   90.8716   97.7144  -45.3036 N   0  0  0  0  0  0  0  0  0  0  0  0
   90.6987   99.0542  -45.2820 C   0  0  0  0  0  0  0  0  0  0  0  0
   90.8504   99.8007  -44.1768 N   0  0  0  0  0  0  0  0  0  0  0  0
   91.1953   99.1428  -43.0397 C   0  0  0  0  0  0  0  0  0  0  0  0
   91.3500   99.8002  -41.9802 O   0  0  0  0  0  0  0  0  0  0  0  0
   91.1720   90.9673  -47.5463 Cl  0  0  0  0  0  0  0  0  0  0  0  0
   91.2337   92.3852  -46.5496 C   0  0  0  0  0  0  0  0  0  0  0  0
   90.7216   93.6083  -46.9186 C   0  0  0  0  0  0  0  0  0  0  0  0
   90.7772   94.7252  -46.1079 C   0  0  0  0  0  0  0  0  0  0  0  0
   91.3616   94.6555  -44.8699 C   0  0  0  0  0  0  0  0  0  0  0  0
   91.8737   93.4201  -44.5108 C   0  0  0  0  0  0  0  0  0  0  0  0
   91.8280   92.2947  -45.3045 C   0  0  0  0  0  0  0  0  0  0  0  0
   90.6498  101.2528  -44.1448 C   0  0  0  0  0  0  0  0  0  0  0  0
   91.9218  101.9897  -44.2461 C   0  0  0  0  0  0  0  0  0  0  0  0
   92.5153  101.8770  -45.3763 O   0  0  0  0  0  0  0  0  0  0  0  0
   92.5195  102.7736  -43.2622 N   0  0  0  0  0  0  0  0  0  0  0  0
   93.8306  103.4029  -43.4852 C   0  0  0  0  0  0  0  0  0  0  0  0
   94.7535  102.7172  -42.4691 C   0  0  0  0  0  0  0  0  0  0  0  0
   94.1832  102.7847  -41.1494 N   0  0  0  0  0  0  0  0  0  0  0  0
   92.9374  103.5125  -40.9956 C   0  0  0  0  0  0  0  0  0  0  0  0
   91.8996  103.0496  -41.9853 C   0  0  0  0  0  0  0  0  0  0  0  0
   94.7962  102.1468  -40.0489 C   0  0  0  0  0  0  0  0  0  0  0  0
   95.8683  101.4725  -40.2768 O   0  0  0  0  0  0  0  0  0  0  0  0
   94.3591  102.1761  -38.7438 O   0  0  0  0  0  0  0  0  0  0  0  0
   94.6662  103.2931  -37.8875 C   0  0  0  0  0  0  0  0  0  0  0  0
   94.0499  102.9730  -36.5375 C   0  0  0  0  0  0  0  0  0  0  0  0
 11 12  1  0  0  0
 12 13  2  0  0  0
 12 17  1  0  0  0
 13 14  1  0  0  0
 14 15  2  0  0  0
 15 16  1  0  0  0
 15  1  1  0  0  0
 16 17  2  0  0  0
  1  2  1  0  0  0
  1  5  1  0  0  0
  2  3  2  0  0  0
  3  4  1  0  0  0
  4  5  2  0  0  0
  4  9  1  0  0  0
  5  6  1  0  0  0
  6  7  2  0  0  0
  7  8  1  0  0  0
  8  9  1  0  0  0
  8 18  1  0  0  0
  9 10  2  0  0  0
 18 19  1  0  0  0
 19 20  2  0  0  0
 19 21  1  0  0  0
 21 22  1  0  0  0
 21 26  1  0  0  0
 22 23  1  0  0  0
 23 24  1  0  0  0
 24 25  1  0  0  0
 24 27  1  0  0  0
 25 26  1  0  0  0
 27 28  2  0  0  0
 27 29  1  0  0  0
 29 30  1  0  0  0
 30 31  1  0  0  0
M  END
> <minimizedAffinity>
-7.27314

$$$$
1666


 30 34  0  0  0  0  0  0  0  0999 V2000
   91.6758   98.6272  -45.9285 N   0  0  0  0  0  0  0  0  0  0  0  0
   91.1199   99.8972  -46.3150 C   0  0  0  0  0  0  0  0  0  0  0  0
   91.8998  101.0501  -45.7259 C   0  0  0  0  0  0  0  0  0  0  0  0
   91.9948  100.8981  -44.2523 N   0  0  0  0  0  0  0  0  0  0  0  0
   92.7699   99.6948  -43.9863 C   0  0  0  0  0  0  0  0  0  0  0  0
   92.8949   98.7857  -45.1965 C   0  0  0  0  0  0  0  0  0  0  0  0
   90.5925   97.4568  -45.4029 S   0  0  0  0  0  0  0  0  0  0  0  0
   89.4439   98.1657  -44.6965 O   0  0  0  0  0  0  0  0  0  0  0  0
   89.9356   96.8448  -46.6409 O   0  0  0  0  0  0  0  0  0  0  0  0
   91.2193   96.1616  -44.4656 C   0  0  0  0  0  0  0  0  0  0  0  0
   91.5439   94.9619  -45.0509 C   0  0  0  0  0  0  0  0  0  0  0  0
   92.0561   93.9445  -44.2659 C   0  0  0  0  0  0  0  0  0  0  0  0
   92.2560   94.0852  -42.9046 C   0  0  0  0  0  0  0  0  0  0  0  0
   91.9290   95.2914  -42.3216 C   0  0  0  0  0  0  0  0  0  0  0  0
   91.4142   96.3134  -43.1114 C   0  0  0  0  0  0  0  0  0  0  0  0
   92.9598   92.6834  -41.8208 Br  0  0  0  0  0  0  0  0  0  0  0  0
   92.7489  102.0609  -43.8357 C   0  0  0  0  0  0  0  0  0  0  0  0
   93.7490  101.8880  -42.7733 C   0  0  0  0  0  0  0  0  0  0  0  0
   93.4336  102.2605  -41.4360 N   0  0  0  0  0  0  0  0  0  0  0  0
   92.2440  102.8092  -40.8801 C   0  0  0  0  0  0  0  0  0  0  0  0
   91.4022  103.4734  -41.5021 O   0  0  0  0  0  0  0  0  0  0  0  0
   92.1816  102.4559  -39.4415 C   0  0  0  0  0  0  0  0  0  0  0  0
   93.6892  102.3779  -39.1087 C   0  0  0  0  0  0  0  0  0  0  0  0
   94.0269  103.6792  -38.4844 C   0  0  0  0  0  0  0  0  0  0  0  0
   92.9259  104.5996  -39.0376 C   0  0  0  0  0  0  0  0  0  0  0  0
   91.7896  103.6426  -38.6363 C   0  0  0  0  0  0  0  0  0  0  0  0
   92.2084  103.3624  -37.2220 C   0  0  0  0  0  0  0  0  0  0  0  0
   93.5075  103.6157  -37.0632 C   0  0  0  0  0  0  0  0  0  0  0  0
   94.3712  102.0601  -40.3551 C   0  0  0  0  0  0  0  0  0  0  0  0
   95.5663  101.6815  -40.4393 O   0  0  0  0  0  0  0  0  0  0  0  0
  7  8  2  0  0  0
  7  9  2  0  0  0
  7  1  1  0  0  0
  7 10  1  0  0  0
  1  2  1  0  0  0
  1  6  1  0  0  0
  2  3  1  0  0  0
  3  4  1  0  0  0
  4  5  1  0  0  0
  4 17  1  0  0  0
  5  6  1  0  0  0
 17 18  1  0  0  0
 18 19  1  0  0  0
 19 20  1  0  0  0
 19 29  1  0  0  0
 20 21  2  0  0  0
 20 22  1  0  0  0
 22 23  1  0  0  0
 22 26  1  0  0  0
 23 24  1  0  0  0
 23 29  1  0  0  0
 24 25  1  0  0  0
 24 28  1  0  0  0
 25 26  1  0  0  0
 26 27  1  0  0  0
 27 28  2  0  0  0
 29 30  2  0  0  0
 10 11  2  0  0  0
 10 15  1  0  0  0
 11 12  1  0  0  0
 12 13  2  0  0  0
 13 14  1  0  0  0
 13 16  1  0  0  0
 14 15  2  0  0  0
M  END
> <minimizedAffinity>
-6.56942

$$$$
1673


 35 38  0  0  0  0  0  0  0  0999 V2000
   89.9115   98.5707  -45.7971 C   0  0  0  0  0  0  0  0  0  0  0  0
   91.2082   98.1830  -45.1386 C   0  0  0  0  0  0  0  0  0  0  0  0
   91.6111   99.2660  -44.3578 N   0  0  0  0  0  0  0  0  0  0  0  0
   91.2640  100.4141  -45.2301 C   0  0  0  0  0  0  0  0  0  0  0  0
   91.8738  101.5138  -45.3170 O   0  0  0  0  0  0  0  0  0  0  0  0
   90.0738  100.0313  -45.9724 C   0  0  0  0  0  0  0  0  0  0  0  0
   89.3362  100.8152  -46.6346 O   0  0  0  0  0  0  0  0  0  0  0  0
   91.3580   96.7863  -44.8160 C   0  0  0  0  0  0  0  0  0  0  0  0
   91.4571   96.2678  -43.5635 C   0  0  0  0  0  0  0  0  0  0  0  0
   91.5795   94.9025  -43.3580 C   0  0  0  0  0  0  0  0  0  0  0  0
   91.6029   94.0436  -44.4674 C   0  0  0  0  0  0  0  0  0  0  0  0
   91.5034   94.5663  -45.7249 C   0  0  0  0  0  0  0  0  0  0  0  0
   91.3818   95.9059  -45.9250 C   0  0  0  0  0  0  0  0  0  0  0  0
   91.7239   92.6763  -44.3186 O   0  0  0  0  0  0  0  0  0  0  0  0
   91.6777   94.3543  -42.1197 O   0  0  0  0  0  0  0  0  0  0  0  0
   92.8294   94.3799  -41.3406 C   0  0  0  0  0  0  0  0  0  0  0  0
   93.6827   93.1308  -41.4703 C   0  0  0  0  0  0  0  0  0  0  0  0
   88.7098   98.2601  -45.0227 C   0  0  0  0  0  0  0  0  0  0  0  0
   88.6400   98.6211  -43.7969 O   0  0  0  0  0  0  0  0  0  0  0  0
   83.6054   95.4068  -47.0403 Br  0  0  0  0  0  0  0  0  0  0  0  0
   85.1977   96.2884  -46.4047 C   0  0  0  0  0  0  0  0  0  0  0  0
   86.3600   96.2696  -47.1313 C   0  0  0  0  0  0  0  0  0  0  0  0
   87.5356   96.8882  -46.7189 C   0  0  0  0  0  0  0  0  0  0  0  0
   87.5339   97.5577  -45.5162 C   0  0  0  0  0  0  0  0  0  0  0  0
   86.3524   97.5696  -44.7906 C   0  0  0  0  0  0  0  0  0  0  0  0
   85.1908   96.9572  -45.1988 C   0  0  0  0  0  0  0  0  0  0  0  0
   92.3075   99.5854  -43.1509 C   0  0  0  0  0  0  0  0  0  0  0  0
   91.5834  100.3939  -42.1422 C   0  0  0  0  0  0  0  0  0  0  0  0
   91.6511  101.7928  -42.1107 N   0  0  0  0  0  0  0  0  0  0  0  0
   90.9737  102.3722  -40.9434 C   0  0  0  0  0  0  0  0  0  0  0  0
   91.6052  101.9732  -39.6520 C   0  0  0  0  0  0  0  0  0  0  0  0
   92.7850  101.3082  -39.8965 O   0  0  0  0  0  0  0  0  0  0  0  0
   93.5902  102.1429  -40.6890 C   0  0  0  0  0  0  0  0  0  0  0  0
   93.0609  102.2227  -42.1053 C   0  0  0  0  0  0  0  0  0  0  0  0
   91.2326  102.2268  -42.9296 H   0  0  0  0  0  0  0  0  0  0  0  0
 20 21  1  0  0  0
 21 22  2  0  0  0
 21 26  1  0  0  0
 22 23  1  0  0  0
 23 24  2  0  0  0
 24 25  1  0  0  0
 24 18  1  0  0  0
 25 26  2  0  0  0
 18 19  2  0  0  0
 18  1  1  0  0  0
  1  2  1  0  0  0
  1  6  1  0  0  0
  2  3  1  0  0  0
  2  8  1  0  0  0
  3  4  1  0  0  0
  3 27  1  0  0  0
  4  5  2  0  0  0
  4  6  1  0  0  0
  6  7  2  0  0  0
 27 28  1  0  0  0
 28 29  1  0  0  0
 29 30  1  0  0  0
 29 34  1  0  0  0
 30 31  1  0  0  0
 31 32  1  0  0  0
 32 33  1  0  0  0
 33 34  1  0  0  0
  8  9  2  0  0  0
  8 13  1  0  0  0
  9 10  1  0  0  0
 10 11  2  0  0  0
 10 15  1  0  0  0
 11 12  1  0  0  0
 11 14  1  0  0  0
 12 13  2  0  0  0
 15 16  1  0  0  0
 16 17  1  0  0  0
 29 35  1  0  0  0
M  CHG 1  14  -1
M  CHG 1  29   1
M  END
> <minimizedAffinity>
-6.28281

$$$$
1676


 25 28  0  0  0  0  0  0  0  0999 V2000
   91.8951  100.8241  -41.4572 C   0  0  0  0  0  0  0  0  0  0  0  0
   91.1616  101.3285  -42.3289 O   0  0  0  0  0  0  0  0  0  0  0  0
   92.2418   99.4535  -41.5650 N   0  0  0  0  0  0  0  0  0  0  0  0
   92.8490   99.0224  -40.8491 H   0  0  0  0  0  0  0  0  0  0  0  0
   90.7238  103.7617  -37.1748 Br  0  0  0  0  0  0  0  0  0  0  0  0
   91.9409  103.0012  -38.4377 C   0  0  0  0  0  0  0  0  0  0  0  0
   93.2948  103.2393  -38.3372 C   0  0  0  0  0  0  0  0  0  0  0  0
   94.1873  102.7015  -39.2352 C   0  0  0  0  0  0  0  0  0  0  0  0
   95.5330  102.7614  -39.3799 N   0  0  0  0  0  0  0  0  0  0  0  0
   95.8501  102.0384  -40.4384 N   0  0  0  0  0  0  0  0  0  0  0  0
   94.7940  101.5113  -40.9925 N   0  0  0  0  0  0  0  0  0  0  0  0
   93.7217  101.9104  -40.2567 C   0  0  0  0  0  0  0  0  0  0  0  0
   92.3632  101.6684  -40.3636 C   0  0  0  0  0  0  0  0  0  0  0  0
   91.4686  102.2130  -39.4543 C   0  0  0  0  0  0  0  0  0  0  0  0
   94.6817  100.8978  -41.8255 H   0  0  0  0  0  0  0  0  0  0  0  0
   91.7633   98.6426  -42.6576 C   0  0  0  0  0  0  0  0  0  0  0  0
   91.9003   97.1918  -42.2837 C   0  0  0  0  0  0  0  0  0  0  0  0
   91.5762   96.1282  -43.0363 N   0  0  0  0  0  0  0  0  0  0  0  0
   91.8359   94.9795  -42.3758 C   0  0  0  0  0  0  0  0  0  0  0  0
   92.3325   95.3428  -41.1869 N   0  0  0  0  0  0  0  0  0  0  0  0
   92.3719   96.6828  -41.1285 N   0  0  0  0  0  0  0  0  0  0  0  0
   91.5221   93.7164  -43.0986 C   0  0  0  0  0  0  0  0  0  0  0  0
   92.2707   93.8362  -44.4340 C   0  0  0  0  0  0  0  0  0  0  0  0
   91.9334   95.0910  -45.1705 C   0  0  0  0  0  0  0  0  0  0  0  0
   91.0240   95.9943  -44.3660 C   0  0  0  0  0  0  0  0  0  0  0  0
  5  6  1  0  0  0
  6  7  2  0  0  0
  6 14  1  0  0  0
  7  8  1  0  0  0
  8  9  1  0  0  0
  8 12  2  0  0  0
  9 10  2  0  0  0
 10 11  1  0  0  0
 11 12  1  0  0  0
 12 13  1  0  0  0
 13 14  2  0  0  0
 13  1  1  0  0  0
  1  2  2  0  0  0
  1  3  1  0  0  0
  3 16  1  0  0  0
 16 17  1  0  0  0
 17 18  1  0  0  0
 17 21  2  0  0  0
 18 19  1  0  0  0
 18 25  1  0  0  0
 19 20  2  0  0  0
 19 22  1  0  0  0
 20 21  1  0  0  0
 22 23  1  0  0  0
 23 24  1  0  0  0
 24 25  1  0  0  0
 11 15  1  0  0  0
  3  4  1  0  0  0
M  END
> <minimizedAffinity>
-7.51157

$$$$
1687


 27 30  0  0  0  0  0  0  0  0999 V2000
   91.7021   93.7216  -44.8953 N   0  0  0  0  0  0  0  0  0  0  0  0
   91.7033   93.7338  -43.5433 C   0  0  0  0  0  0  0  0  0  0  0  0
   91.6870   94.9064  -42.8206 C   0  0  0  0  0  0  0  0  0  0  0  0
   91.6671   96.1834  -43.5234 C   0  0  0  0  0  0  0  0  0  0  0  0
   91.6543   97.1326  -42.5768 N   0  0  0  0  0  0  0  0  0  0  0  0
   91.6637   96.5741  -41.3564 N   0  0  0  0  0  0  0  0  0  0  0  0
   91.6830   95.2381  -41.4830 C   0  0  0  0  0  0  0  0  0  0  0  0
   91.6963   94.4417  -40.5171 O   0  0  0  0  0  0  0  0  0  0  0  0
   91.6670   96.1338  -44.9074 C   0  0  0  0  0  0  0  0  0  0  0  0
   91.6836   94.9096  -45.5165 C   0  0  0  0  0  0  0  0  0  0  0  0
   91.6564   97.1476  -40.4752 H   0  0  0  0  0  0  0  0  0  0  0  0
   91.6473   97.3919  -45.6452 C   0  0  0  0  0  0  0  0  0  0  0  0
   92.7222   98.0245  -45.8022 O   0  0  0  0  0  0  0  0  0  0  0  0
   90.4895   97.9016  -46.1699 O   0  0  0  0  0  0  0  0  0  0  0  0
   89.6467   98.7596  -45.4178 C   0  0  0  0  0  0  0  0  0  0  0  0
   91.7197   92.4609  -45.6289 C   0  0  0  0  0  0  0  0  0  0  0  0
   91.0649   92.6951  -46.9727 C   0  0  0  0  0  0  0  0  0  0  0  0
   88.7910   89.5629  -52.8240 Cl  0  0  0  0  0  0  0  0  0  0  0  0
   89.5108   90.1919  -51.3424 C   0  0  0  0  0  0  0  0  0  0  0  0
   90.5810   89.5753  -50.7292 C   0  0  0  0  0  0  0  0  0  0  0  0
   91.1044   90.1125  -49.5702 C   0  0  0  0  0  0  0  0  0  0  0  0
   92.1291   89.7458  -48.7532 N   0  0  0  0  0  0  0  0  0  0  0  0
   92.2204   90.6289  -47.7435 C   0  0  0  0  0  0  0  0  0  0  0  0
   91.2720   91.5808  -47.8728 N   0  0  0  0  0  0  0  0  0  0  0  0
   90.5963   91.2575  -48.9898 C   0  0  0  0  0  0  0  0  0  0  0  0
   89.5294   91.8803  -49.5942 C   0  0  0  0  0  0  0  0  0  0  0  0
   89.0113   91.3371  -50.7523 C   0  0  0  0  0  0  0  0  0  0  0  0
 18 19  1  0  0  0
 19 20  2  0  0  0
 19 27  1  0  0  0
 20 21  1  0  0  0
 21 22  1  0  0  0
 21 25  2  0  0  0
 22 23  2  0  0  0
 23 24  1  0  0  0
 24 25  1  0  0  0
 24 17  1  0  0  0
 25 26  1  0  0  0
 26 27  2  0  0  0
 17 16  1  0  0  0
 16  1  1  0  0  0
  1  2  1  0  0  0
  1 10  1  0  0  0
  2  3  2  0  0  0
  3  4  1  0  0  0
  3  7  1  0  0  0
  4  5  2  0  0  0
  4  9  1  0  0  0
  5  6  1  0  0  0
  6  7  1  0  0  0
  7  8  2  0  0  0
  9 10  2  0  0  0
  9 12  1  0  0  0
 12 13  2  0  0  0
 12 14  1  0  0  0
 14 15  1  0  0  0
  6 11  1  0  0  0
M  END
> <minimizedAffinity>
-6.94189

$$$$
1689


 32 35  0  0  0  0  0  0  0  0999 V2000
   88.4485   98.7435  -44.1087 C   0  0  0  0  0  0  0  0  0  0  0  0
   87.2337   98.8340  -44.4122 O   0  0  0  0  0  0  0  0  0  0  0  0
   89.3179   98.0905  -45.0076 N   0  0  0  0  0  0  0  0  0  0  0  0
   90.7402   97.8290  -44.9258 C   0  0  0  0  0  0  0  0  0  0  0  0
   90.8696   96.4764  -45.4680 C   0  0  0  0  0  0  0  0  0  0  0  0
   89.5307   96.1187  -46.1171 C   0  0  0  0  0  0  0  0  0  0  0  0
   88.9182   97.5269  -46.2706 C   0  0  0  0  0  0  0  0  0  0  0  0
   89.6691   95.5089  -47.3387 O   0  0  0  0  0  0  0  0  0  0  0  0
   89.6790   96.2118  -48.0359 H   0  0  0  0  0  0  0  0  0  0  0  0
   91.3669   95.4103  -44.6889 N   0  0  0  0  0  0  0  0  0  0  0  0
   91.4344   95.5951  -43.3427 C   0  0  0  0  0  0  0  0  0  0  0  0
   91.9019   94.6147  -42.4967 C   0  0  0  0  0  0  0  0  0  0  0  0
   92.3175   93.4048  -43.0010 C   0  0  0  0  0  0  0  0  0  0  0  0
   92.7522   92.4849  -42.2447 O   0  0  0  0  0  0  0  0  0  0  0  0
   92.2506   93.2223  -44.3286 N   0  0  0  0  0  0  0  0  0  0  0  0
   91.7881   94.2097  -45.0992 C   0  0  0  0  0  0  0  0  0  0  0  0
   91.7457   93.9842  -46.3257 O   0  0  0  0  0  0  0  0  0  0  0  0
   91.9693   94.8333  -41.0145 C   0  0  0  0  0  0  0  0  0  0  0  0
   92.5689   92.2937  -44.7462 H   0  0  0  0  0  0  0  0  0  0  0  0
   88.8955   99.3252  -42.8260 C   0  0  0  0  0  0  0  0  0  0  0  0
   89.3285  100.7468  -43.0185 C   0  0  0  0  0  0  0  0  0  0  0  0
   93.1906  103.8244  -37.1553 Cl  0  0  0  0  0  0  0  0  0  0  0  0
   92.8101  102.8793  -38.5747 C   0  0  0  0  0  0  0  0  0  0  0  0
   91.5313  102.9200  -39.1142 C   0  0  0  0  0  0  0  0  0  0  0  0
   91.2139  102.1789  -40.2400 C   0  0  0  0  0  0  0  0  0  0  0  0
   90.1052  102.0084  -40.9768 N   0  0  0  0  0  0  0  0  0  0  0  0
   90.3261  101.1483  -42.0087 C   0  0  0  0  0  0  0  0  0  0  0  0
   91.6311  100.7896  -41.8781 N   0  0  0  0  0  0  0  0  0  0  0  0
   92.1835  101.3976  -40.8207 C   0  0  0  0  0  0  0  0  0  0  0  0
   93.4513  101.3612  -40.2806 C   0  0  0  0  0  0  0  0  0  0  0  0
   93.7862  102.0977  -39.1535 C   0  0  0  0  0  0  0  0  0  0  0  0
   89.2088  102.5017  -40.7399 H   0  0  0  0  0  0  0  0  0  0  0  0
 22 23  1  0  0  0
 23 24  2  0  0  0
 23 31  1  0  0  0
 24 25  1  0  0  0
 25 26  1  0  0  0
 25 29  2  0  0  0
 26 27  1  0  0  0
 27 28  2  0  0  0
 27 21  1  0  0  0
 28 29  1  0  0  0
 29 30  1  0  0  0
 30 31  2  0  0  0
 21 20  1  0  0  0
 20  1  1  0  0  0
  1  2  2  0  0  0
  1  3  1  0  0  0
  3  4  1  0  0  0
  3  7  1  0  0  0
  4  5  1  0  0  0
  5  6  1  0  0  0
  5 10  1  0  0  0
  6  7  1  0  0  0
  6  8  1  0  0  0
 10 11  1  0  0  0
 10 16  1  0  0  0
 11 12  2  0  0  0
 12 13  1  0  0  0
 12 18  1  0  0  0
 13 14  2  0  0  0
 13 15  1  0  0  0
 15 16  1  0  0  0
 16 17  2  0  0  0
 26 32  1  0  0  0
  8  9  1  0  0  0
 15 19  1  0  0  0
M  END
> <minimizedAffinity>
-7.17635

$$$$
1690


 34 37  0  0  0  0  0  0  0  0999 V2000
   87.3777   98.1208  -45.4083 C   0  0  0  0  0  0  0  0  0  0  0  0
   86.6624   97.2656  -44.8263 O   0  0  0  0  0  0  0  0  0  0  0  0
   87.6143   99.3995  -44.8211 N   0  0  0  0  0  0  0  0  0  0  0  0
   88.4235  100.4307  -45.4313 C   0  0  0  0  0  0  0  0  0  0  0  0
   89.2197  101.1919  -44.3574 C   0  0  0  0  0  0  0  0  0  0  0  0
   89.3955  100.2486  -43.2171 C   0  0  0  0  0  0  0  0  0  0  0  0
   88.0705  100.0660  -42.5130 C   0  0  0  0  0  0  0  0  0  0  0  0
   87.0167   99.6994  -43.5375 C   0  0  0  0  0  0  0  0  0  0  0  0
   90.4370  101.5232  -44.9707 O   0  0  0  0  0  0  0  0  0  0  0  0
   88.4511  102.4374  -44.0476 C   0  0  0  0  0  0  0  0  0  0  0  0
   90.3423  102.4251  -45.4160 H   0  0  0  0  0  0  0  0  0  0  0  0
   90.4719  100.5285  -42.3338 N   0  0  0  0  0  0  0  0  0  0  0  0
   90.3959  101.4055  -41.3219 C   0  0  0  0  0  0  0  0  0  0  0  0
   91.4706  101.6539  -40.4773 C   0  0  0  0  0  0  0  0  0  0  0  0
   92.6517  100.9798  -40.6833 C   0  0  0  0  0  0  0  0  0  0  0  0
   93.6374  101.2030  -39.9133 O   0  0  0  0  0  0  0  0  0  0  0  0
   92.7251  100.1043  -41.6957 N   0  0  0  0  0  0  0  0  0  0  0  0
   91.6564   99.8988  -42.4846 C   0  0  0  0  0  0  0  0  0  0  0  0
   91.7312   99.0610  -43.4513 O   0  0  0  0  0  0  0  0  0  0  0  0
   91.3244  102.6481  -39.3588 C   0  0  0  0  0  0  0  0  0  0  0  0
   93.6134   99.5873  -41.8616 H   0  0  0  0  0  0  0  0  0  0  0  0
   87.9896   97.8256  -46.7154 C   0  0  0  0  0  0  0  0  0  0  0  0
   89.4746   98.0306  -46.6314 C   0  0  0  0  0  0  0  0  0  0  0  0
   93.0284   92.8331  -42.2415 Cl  0  0  0  0  0  0  0  0  0  0  0  0
   92.2037   93.5907  -43.5845 C   0  0  0  0  0  0  0  0  0  0  0  0
   91.7942   94.9125  -43.5524 C   0  0  0  0  0  0  0  0  0  0  0  0
   91.1466   95.4994  -44.6133 C   0  0  0  0  0  0  0  0  0  0  0  0
   90.6597   96.7283  -44.8288 N   0  0  0  0  0  0  0  0  0  0  0  0
   90.0968   96.8097  -46.0656 C   0  0  0  0  0  0  0  0  0  0  0  0
   90.2546   95.6040  -46.5907 N   0  0  0  0  0  0  0  0  0  0  0  0
   90.8832   94.7766  -45.7507 C   0  0  0  0  0  0  0  0  0  0  0  0
   91.2803   93.4591  -45.8070 C   0  0  0  0  0  0  0  0  0  0  0  0
   91.9355   92.8684  -44.7336 C   0  0  0  0  0  0  0  0  0  0  0  0
   90.6910   97.5433  -44.1567 H   0  0  0  0  0  0  0  0  0  0  0  0
 24 25  1  0  0  0
 25 26  2  0  0  0
 25 33  1  0  0  0
 26 27  1  0  0  0
 27 28  1  0  0  0
 27 31  2  0  0  0
 28 29  1  0  0  0
 29 30  2  0  0  0
 29 23  1  0  0  0
 30 31  1  0  0  0
 31 32  1  0  0  0
 32 33  2  0  0  0
 23 22  1  0  0  0
 22  1  1  0  0  0
  1  2  2  0  0  0
  1  3  1  0  0  0
  3  4  1  0  0  0
  3  8  1  0  0  0
  4  5  1  0  0  0
  5  6  1  0  0  0
  5  9  1  0  0  0
  5 10  1  0  0  0
  6  7  1  0  0  0
  6 12  1  0  0  0
  7  8  1  0  0  0
 12 13  1  0  0  0
 12 18  1  0  0  0
 13 14  2  0  0  0
 14 15  1  0  0  0
 14 20  1  0  0  0
 15 16  2  0  0  0
 15 17  1  0  0  0
 17 18  1  0  0  0
 18 19  2  0  0  0
 28 34  1  0  0  0
 17 21  1  0  0  0
  9 11  1  0  0  0
M  END
> <minimizedAffinity>
-7.33869

$$$$
1691


 35 39  0  0  0  0  0  0  0  0999 V2000
   87.3142   99.4734  -44.4711 C   0  0  0  0  0  0  0  0  0  0  0  0
   86.6020   98.6664  -43.8435 O   0  0  0  0  0  0  0  0  0  0  0  0
   88.2621   99.0065  -45.3959 N   0  0  0  0  0  0  0  0  0  0  0  0
   88.6239   97.6855  -45.8017 C   0  0  0  0  0  0  0  0  0  0  0  0
   90.1673   97.7242  -45.9105 C   0  0  0  0  0  0  0  0  0  0  0  0
   90.3501   99.1190  -46.3945 C   0  0  0  0  0  0  0  0  0  0  0  0
   89.0942   99.8950  -46.1840 C   0  0  0  0  0  0  0  0  0  0  0  0
   90.6522   99.1967  -47.7536 O   0  0  0  0  0  0  0  0  0  0  0  0
   90.5658   98.3083  -48.2006 H   0  0  0  0  0  0  0  0  0  0  0  0
   90.7246   97.4668  -44.6131 N   0  0  0  0  0  0  0  0  0  0  0  0
   91.1732   96.3003  -44.1207 C   0  0  0  0  0  0  0  0  0  0  0  0
   91.6347   96.5145  -42.8059 C   0  0  0  0  0  0  0  0  0  0  0  0
   91.4417   97.8192  -42.5537 N   0  0  0  0  0  0  0  0  0  0  0  0
   90.9000   98.4019  -43.6205 C   0  0  0  0  0  0  0  0  0  0  0  0
   92.1533   95.4844  -42.0540 C   0  0  0  0  0  0  0  0  0  0  0  0
   92.5580   95.7070  -40.8815 O   0  0  0  0  0  0  0  0  0  0  0  0
   92.2065   94.2711  -42.6156 N   0  0  0  0  0  0  0  0  0  0  0  0
   91.7680   94.0770  -43.8602 C   0  0  0  0  0  0  0  0  0  0  0  0
   91.8242   92.9285  -44.3739 O   0  0  0  0  0  0  0  0  0  0  0  0
   91.2435   95.0629  -44.6506 N   0  0  0  0  0  0  0  0  0  0  0  0
   90.7912   94.7823  -45.9763 C   0  0  0  0  0  0  0  0  0  0  0  0
   92.7536   93.1548  -41.8411 C   0  0  0  0  0  0  0  0  0  0  0  0
   87.1520  100.9160  -44.2330 C   0  0  0  0  0  0  0  0  0  0  0  0
   87.4031  101.2438  -42.7782 C   0  0  0  0  0  0  0  0  0  0  0  0
   94.6055  101.5865  -40.1043 Cl  0  0  0  0  0  0  0  0  0  0  0  0
   93.1880  101.7428  -41.1351 C   0  0  0  0  0  0  0  0  0  0  0  0
   91.9495  101.3011  -40.7320 C   0  0  0  0  0  0  0  0  0  0  0  0
   90.8500  101.4433  -41.5794 C   0  0  0  0  0  0  0  0  0  0  0  0
   89.5511  101.1194  -41.4676 N   0  0  0  0  0  0  0  0  0  0  0  0
   88.8724  101.4660  -42.5754 C   0  0  0  0  0  0  0  0  0  0  0  0
   89.7680  102.0176  -43.3947 N   0  0  0  0  0  0  0  0  0  0  0  0
   90.9894  102.0233  -42.8218 C   0  0  0  0  0  0  0  0  0  0  0  0
   92.2316  102.4646  -43.2257 C   0  0  0  0  0  0  0  0  0  0  0  0
   93.3223  102.3165  -42.3687 C   0  0  0  0  0  0  0  0  0  0  0  0
   89.1501  100.6539  -40.6096 H   0  0  0  0  0  0  0  0  0  0  0  0
 25 26  1  0  0  0
 26 27  2  0  0  0
 26 34  1  0  0  0
 27 28  1  0  0  0
 28 29  1  0  0  0
 28 32  2  0  0  0
 29 30  1  0  0  0
 30 31  2  0  0  0
 30 24  1  0  0  0
 31 32  1  0  0  0
 32 33  1  0  0  0
 33 34  2  0  0  0
 24 23  1  0  0  0
 23  1  1  0  0  0
  1  2  2  0  0  0
  1  3  1  0  0  0
  3  4  1  0  0  0
  3  7  1  0  0  0
  4  5  1  0  0  0
  5  6  1  0  0  0
  5 10  1  0  0  0
  6  7  1  0  0  0
  6  8  1  0  0  0
 10 11  1  0  0  0
 10 14  1  0  0  0
 11 12  2  0  0  0
 11 20  1  0  0  0
 12 13  1  0  0  0
 12 15  1  0  0  0
 13 14  2  0  0  0
 15 16  2  0  0  0
 15 17  1  0  0  0
 17 18  1  0  0  0
 17 22  1  0  0  0
 18 19  2  0  0  0
 18 20  1  0  0  0
 20 21  1  0  0  0
 29 35  1  0  0  0
  8  9  1  0  0  0
M  END
> <minimizedAffinity>
-7.25587

$$$$
1699


 31 34  0  0  0  0  0  0  0  0999 V2000
   91.5800   93.7011  -42.0657 Cl  0  0  0  0  0  0  0  0  0  0  0  0
   91.6073   94.9779  -43.2381 C   0  0  0  0  0  0  0  0  0  0  0  0
   91.4661   96.3029  -42.8518 C   0  0  0  0  0  0  0  0  0  0  0  0
   91.4861   97.3299  -43.7734 C   0  0  0  0  0  0  0  0  0  0  0  0
   91.6501   97.0066  -45.0914 C   0  0  0  0  0  0  0  0  0  0  0  0
   91.7969   95.6840  -45.5208 C   0  0  0  0  0  0  0  0  0  0  0  0
   91.7727   94.6837  -44.5743 C   0  0  0  0  0  0  0  0  0  0  0  0
   91.6235   98.1874  -45.8823 N   0  0  0  0  0  0  0  0  0  0  0  0
   91.4310   99.2946  -45.0155 C   0  0  0  0  0  0  0  0  0  0  0  0
   91.3341  100.4806  -45.4692 O   0  0  0  0  0  0  0  0  0  0  0  0
   91.3814   98.7826  -43.6522 C   0  0  0  0  0  0  0  0  0  0  0  0
   92.4490   99.3380  -42.8161 N   0  0  0  0  0  0  0  0  0  0  0  0
   91.9419  100.6682  -42.5641 C   0  0  0  0  0  0  0  0  0  0  0  0
   90.4702  100.5231  -42.3493 C   0  0  0  0  0  0  0  0  0  0  0  0
   90.1756   99.1443  -42.8583 C   0  0  0  0  0  0  0  0  0  0  0  0
   88.9153   99.2081  -43.6384 C   0  0  0  0  0  0  0  0  0  0  0  0
   88.3646   98.1651  -44.0779 O   0  0  0  0  0  0  0  0  0  0  0  0
   88.5431  100.5726  -43.7441 N   0  0  0  0  0  0  0  0  0  0  0  0
   89.6565  101.3535  -43.2946 C   0  0  0  0  0  0  0  0  0  0  0  0
   89.9418  102.5156  -43.6010 O   0  0  0  0  0  0  0  0  0  0  0  0
   91.7315   98.2397  -46.9384 H   0  0  0  0  0  0  0  0  0  0  0  0
   92.4006   98.8058  -41.9184 H   0  0  0  0  0  0  0  0  0  0  0  0
   92.6437  101.3444  -41.4144 C   0  0  0  0  0  0  0  0  0  0  0  0
   93.0890  100.3535  -40.5484 O   0  0  0  0  0  0  0  0  0  0  0  0
   93.8001  102.1998  -41.8636 C   0  0  0  0  0  0  0  0  0  0  0  0
   94.0632  100.1878  -40.6257 H   0  0  0  0  0  0  0  0  0  0  0  0
   87.3040  101.0781  -44.2002 C   0  0  0  0  0  0  0  0  0  0  0  0
   86.1532  101.1133  -43.2735 C   0  0  0  0  0  0  0  0  0  0  0  0
   84.9854  100.2594  -43.5865 C   0  0  0  0  0  0  0  0  0  0  0  0
   85.2202   99.1939  -44.4421 O   0  0  0  0  0  0  0  0  0  0  0  0
   84.8453   98.0126  -43.7573 C   0  0  0  0  0  0  0  0  0  0  0  0
  1  2  1  0  0  0
  2  3  2  0  0  0
  2  7  1  0  0  0
  3  4  1  0  0  0
  4  5  2  0  0  0
  4 11  1  0  0  0
  5  6  1  0  0  0
  5  8  1  0  0  0
  6  7  2  0  0  0
  8  9  1  0  0  0
  9 10  2  0  0  0
  9 11  1  0  0  0
 11 12  1  0  0  0
 11 15  1  0  0  0
 12 13  1  0  0  0
 13 14  1  0  0  0
 13 23  1  0  0  0
 14 15  1  0  0  0
 14 19  1  0  0  0
 15 16  1  0  0  0
 16 17  2  0  0  0
 16 18  1  0  0  0
 18 19  1  0  0  0
 18 27  1  0  0  0
 19 20  2  0  0  0
 27 28  1  0  0  0
 28 29  1  0  0  0
 29 30  1  0  0  0
 30 31  1  0  0  0
 23 24  1  0  0  0
 23 25  1  0  0  0
  8 21  1  0  0  0
 12 22  1  0  0  0
 24 26  1  0  0  0
M  END
> <minimizedAffinity>
-6.15953

$$$$
1706


 25 28  0  0  0  0  0  0  0  0999 V2000
   92.0910   92.7461  -43.5949 F   0  0  0  0  0  0  0  0  0  0  0  0
   91.6987   93.9805  -44.0570 C   0  0  0  0  0  0  0  0  0  0  0  0
   91.7948   95.0803  -43.1951 C   0  0  0  0  0  0  0  0  0  0  0  0
   91.4116   96.3114  -43.6334 C   0  0  0  0  0  0  0  0  0  0  0  0
   90.9247   96.4769  -44.9374 C   0  0  0  0  0  0  0  0  0  0  0  0
   90.8417   95.3860  -45.7580 C   0  0  0  0  0  0  0  0  0  0  0  0
   91.2223   94.1348  -45.3361 C   0  0  0  0  0  0  0  0  0  0  0  0
   91.1131   92.7276  -46.4020 Cl  0  0  0  0  0  0  0  0  0  0  0  0
   91.6143   97.2907  -42.5337 C   0  0  0  0  0  0  0  0  0  0  0  0
   90.3664   97.9105  -42.2166 N   0  0  0  0  0  0  0  0  0  0  0  0
   89.9258   99.0574  -42.9098 C   0  0  0  0  0  0  0  0  0  0  0  0
   88.6319   99.4694  -42.8731 N   0  0  0  0  0  0  0  0  0  0  0  0
   88.1631  100.5465  -43.5109 C   0  0  0  0  0  0  0  0  0  0  0  0
   89.0368  101.3176  -44.2696 C   0  0  0  0  0  0  0  0  0  0  0  0
   90.3559  100.9717  -44.3593 C   0  0  0  0  0  0  0  0  0  0  0  0
   90.7699   99.8490  -43.6758 C   0  0  0  0  0  0  0  0  0  0  0  0
   92.1632   99.3938  -43.7072 C   0  0  0  0  0  0  0  0  0  0  0  0
   92.9772  100.0929  -44.4015 O   0  0  0  0  0  0  0  0  0  0  0  0
   92.5947   98.2495  -43.0125 N   0  0  0  0  0  0  0  0  0  0  0  0
   92.1491   96.4924  -41.4250 C   0  0  0  0  0  0  0  0  0  0  0  0
   92.4788   96.9113  -40.2548 O   0  0  0  0  0  0  0  0  0  0  0  0
   92.2550   95.1548  -41.8391 N   0  0  0  0  0  0  0  0  0  0  0  0
   89.7454   97.5310  -41.4608 H   0  0  0  0  0  0  0  0  0  0  0  0
   93.6241   98.1332  -42.8679 H   0  0  0  0  0  0  0  0  0  0  0  0
   92.5994   94.3154  -41.3019 H   0  0  0  0  0  0  0  0  0  0  0  0
  1  2  1  0  0  0
  2  3  2  0  0  0
  2  7  1  0  0  0
  3  4  1  0  0  0
  3 22  1  0  0  0
  4  5  2  0  0  0
  4  9  1  0  0  0
  5  6  1  0  0  0
  6  7  2  0  0  0
  7  8  1  0  0  0
  9 10  1  0  0  0
  9 19  1  0  0  0
  9 20  1  0  0  0
 10 11  1  0  0  0
 11 12  2  0  0  0
 11 16  1  0  0  0
 12 13  1  0  0  0
 13 14  2  0  0  0
 14 15  1  0  0  0
 15 16  2  0  0  0
 16 17  1  0  0  0
 17 18  2  0  0  0
 17 19  1  0  0  0
 20 21  2  0  0  0
 20 22  1  0  0  0
 10 23  1  0  0  0
 19 24  1  0  0  0
 22 25  1  0  0  0
M  END
> <minimizedAffinity>
-7.27134

$$$$
1711


 30 33  0  0  0  0  0  0  0  0999 V2000
   91.5605  102.2323  -43.2748 N   0  0  0  0  0  0  0  0  0  0  0  0
   92.7113  102.0946  -44.0967 C   0  0  0  0  0  0  0  0  0  0  0  0
   92.4372  101.3766  -45.3940 C   0  0  0  0  0  0  0  0  0  0  0  0
   91.4080  100.3781  -45.2654 N   0  0  0  0  0  0  0  0  0  0  0  0
   90.1567  100.7299  -44.6384 C   0  0  0  0  0  0  0  0  0  0  0  0
   90.3243  102.0443  -43.9411 C   0  0  0  0  0  0  0  0  0  0  0  0
   91.5776   99.0523  -45.7351 C   0  0  0  0  0  0  0  0  0  0  0  0
   92.6550   98.7398  -46.2780 O   0  0  0  0  0  0  0  0  0  0  0  0
   91.6863  101.6727  -41.6972 S   0  0  0  0  0  0  0  0  0  0  0  0
   90.2876  101.3721  -41.1761 O   0  0  0  0  0  0  0  0  0  0  0  0
   92.3946  100.3315  -41.7177 O   0  0  0  0  0  0  0  0  0  0  0  0
   92.5382  102.6951  -40.6035 C   0  0  0  0  0  0  0  0  0  0  0  0
   93.0670  102.1675  -39.4373 C   0  0  0  0  0  0  0  0  0  0  0  0
   93.7583  102.9412  -38.5274 C   0  0  0  0  0  0  0  0  0  0  0  0
   93.9176  104.2856  -38.8099 C   0  0  0  0  0  0  0  0  0  0  0  0
   93.3849  104.7976  -39.9753 C   0  0  0  0  0  0  0  0  0  0  0  0
   92.6921  104.0359  -40.8936 C   0  0  0  0  0  0  0  0  0  0  0  0
   94.8724  105.4229  -37.5831 Br  0  0  0  0  0  0  0  0  0  0  0  0
   90.5149   98.0313  -45.5997 C   0  0  0  0  0  0  0  0  0  0  0  0
   90.9612   96.9179  -44.8141 N   0  0  0  0  0  0  0  0  0  0  0  0
   91.2802   95.5923  -45.2154 C   0  0  0  0  0  0  0  0  0  0  0  0
   91.2131   95.1796  -46.3940 O   0  0  0  0  0  0  0  0  0  0  0  0
   91.6843   94.8411  -44.0386 C   0  0  0  0  0  0  0  0  0  0  0  0
   91.6217   95.6632  -42.9384 C   0  0  0  0  0  0  0  0  0  0  0  0
   91.9650   95.1599  -41.6907 C   0  0  0  0  0  0  0  0  0  0  0  0
   92.3655   93.8627  -41.5264 C   0  0  0  0  0  0  0  0  0  0  0  0
   92.4338   93.0178  -42.6338 C   0  0  0  0  0  0  0  0  0  0  0  0
   92.0869   93.5404  -43.8708 C   0  0  0  0  0  0  0  0  0  0  0  0
   91.1709   96.9705  -43.3983 C   0  0  0  0  0  0  0  0  0  0  0  0
   91.0141   97.9449  -42.6168 O   0  0  0  0  0  0  0  0  0  0  0  0
  9 10  2  0  0  0
  9 11  2  0  0  0
  9  1  1  0  0  0
  9 12  1  0  0  0
  1  2  1  0  0  0
  1  6  1  0  0  0
  2  3  1  0  0  0
  3  4  1  0  0  0
  4  5  1  0  0  0
  4  7  1  0  0  0
  5  6  1  0  0  0
  7  8  2  0  0  0
  7 19  1  0  0  0
 19 20  1  0  0  0
 20 21  1  0  0  0
 20 29  1  0  0  0
 21 22  2  0  0  0
 21 23  1  0  0  0
 23 24  2  0  0  0
 23 28  1  0  0  0
 24 25  1  0  0  0
 24 29  1  0  0  0
 25 26  2  0  0  0
 26 27  1  0  0  0
 27 28  2  0  0  0
 29 30  2  0  0  0
 12 13  2  0  0  0
 12 17  1  0  0  0
 13 14  1  0  0  0
 14 15  2  0  0  0
 15 16  1  0  0  0
 15 18  1  0  0  0
 16 17  2  0  0  0
M  END
> <minimizedAffinity>
-7.11165

$$$$
1718


 34 38  0  0  0  0  0  0  0  0999 V2000
   91.7807   92.9343  -44.6080 Cl  0  0  0  0  0  0  0  0  0  0  0  0
   91.7739   94.3107  -43.5290 C   0  0  0  0  0  0  0  0  0  0  0  0
   91.3358   95.5278  -44.0523 C   0  0  0  0  0  0  0  0  0  0  0  0
   91.3157   96.6353  -43.2341 C   0  0  0  0  0  0  0  0  0  0  0  0
   91.7387   96.4819  -41.9125 C   0  0  0  0  0  0  0  0  0  0  0  0
   92.1704   95.2757  -41.4046 C   0  0  0  0  0  0  0  0  0  0  0  0
   92.1893   94.1669  -42.2245 C   0  0  0  0  0  0  0  0  0  0  0  0
   90.8311   97.8091  -43.9603 C   0  0  0  0  0  0  0  0  0  0  0  0
   89.6743   98.4221  -43.3353 N   0  0  0  0  0  0  0  0  0  0  0  0
   89.6529   99.7911  -43.8329 C   0  0  0  0  0  0  0  0  0  0  0  0
   91.0896  100.1935  -44.0213 C   0  0  0  0  0  0  0  0  0  0  0  0
   91.8690   98.9028  -44.0769 C   0  0  0  0  0  0  0  0  0  0  0  0
   92.5345   98.8870  -45.4038 C   0  0  0  0  0  0  0  0  0  0  0  0
   93.1609   97.8719  -45.8174 O   0  0  0  0  0  0  0  0  0  0  0  0
   92.3380  100.1347  -46.0476 N   0  0  0  0  0  0  0  0  0  0  0  0
   91.2484  100.7736  -45.3994 C   0  0  0  0  0  0  0  0  0  0  0  0
   90.4941  101.6844  -45.8440 O   0  0  0  0  0  0  0  0  0  0  0  0
   90.5421   97.3146  -45.3158 C   0  0  0  0  0  0  0  0  0  0  0  0
   90.0846   97.9869  -46.3110 O   0  0  0  0  0  0  0  0  0  0  0  0
   90.8630   95.9344  -45.3300 N   0  0  0  0  0  0  0  0  0  0  0  0
   89.7326   98.3952  -42.2926 H   0  0  0  0  0  0  0  0  0  0  0  0
   90.7695   95.2908  -46.1621 H   0  0  0  0  0  0  0  0  0  0  0  0
   93.0915  100.6496  -47.1325 C   0  0  0  0  0  0  0  0  0  0  0  0
   92.5412  100.4634  -48.4906 C   0  0  0  0  0  0  0  0  0  0  0  0
   93.3266   99.7102  -49.3497 O   0  0  0  0  0  0  0  0  0  0  0  0
   92.4976   99.6316  -50.4693 C   0  0  0  0  0  0  0  0  0  0  0  0
   91.9706  101.0588  -50.6653 C   0  0  0  0  0  0  0  0  0  0  0  0
   92.2518  101.6816  -49.2874 C   0  0  0  0  0  0  0  0  0  0  0  0
   88.9412  100.6603  -42.8383 C   0  0  0  0  0  0  0  0  0  0  0  0
   87.4747  100.5353  -43.1155 C   0  0  0  0  0  0  0  0  0  0  0  0
   87.1517   99.9878  -44.2008 O   0  0  0  0  0  0  0  0  0  0  0  0
   86.4842  101.0033  -42.2150 N   0  0  0  0  0  0  0  0  0  0  0  0
   86.3167  100.4582  -41.3467 H   0  0  0  0  0  0  0  0  0  0  0  0
   85.9145  101.8585  -42.3676 H   0  0  0  0  0  0  0  0  0  0  0  0
  1  2  1  0  0  0
  2  3  2  0  0  0
  2  7  1  0  0  0
  3  4  1  0  0  0
  3 20  1  0  0  0
  4  5  2  0  0  0
  4  8  1  0  0  0
  5  6  1  0  0  0
  6  7  2  0  0  0
  8  9  1  0  0  0
  8 12  1  0  0  0
  8 18  1  0  0  0
  9 10  1  0  0  0
 10 11  1  0  0  0
 10 29  1  0  0  0
 11 12  1  0  0  0
 11 16  1  0  0  0
 12 13  1  0  0  0
 13 14  2  0  0  0
 13 15  1  0  0  0
 15 16  1  0  0  0
 15 23  1  0  0  0
 16 17  2  0  0  0
 23 24  1  0  0  0
 24 25  1  0  0  0
 24 28  1  0  0  0
 25 26  1  0  0  0
 26 27  1  0  0  0
 27 28  1  0  0  0
 29 30  1  0  0  0
 30 31  2  0  0  0
 30 32  1  0  0  0
 18 19  2  0  0  0
 18 20  1  0  0  0
  9 21  1  0  0  0
 32 33  1  0  0  0
 32 34  1  0  0  0
 20 22  1  0  0  0
M  END
> <minimizedAffinity>
-7.23929

$$$$
1721


 28 31  0  0  0  0  0  0  0  0999 V2000
   90.9299  101.5616  -42.8374 C   0  0  0  0  0  0  0  0  0  0  0  0
   91.8025  100.7018  -43.6217 C   0  0  0  0  0  0  0  0  0  0  0  0
   93.1096  100.9694  -43.4108 O   0  0  0  0  0  0  0  0  0  0  0  0
   91.5425   99.6985  -44.5134 N   0  0  0  0  0  0  0  0  0  0  0  0
   90.2839   99.2678  -45.0188 C   0  0  0  0  0  0  0  0  0  0  0  0
   89.9629   97.8359  -44.5964 C   0  0  0  0  0  0  0  0  0  0  0  0
   91.2317   97.1741  -44.4936 N   0  0  0  0  0  0  0  0  0  0  0  0
   92.2559   97.5423  -45.4274 C   0  0  0  0  0  0  0  0  0  0  0  0
   92.7480   98.9324  -45.0107 C   0  0  0  0  0  0  0  0  0  0  0  0
   91.4985   96.1899  -43.5253 C   0  0  0  0  0  0  0  0  0  0  0  0
   91.6719   96.5040  -42.2084 N   0  0  0  0  0  0  0  0  0  0  0  0
   91.9254   95.6299  -41.2507 C   0  0  0  0  0  0  0  0  0  0  0  0
   92.0399   94.2935  -41.5126 C   0  0  0  0  0  0  0  0  0  0  0  0
   91.8749   93.9041  -42.8337 C   0  0  0  0  0  0  0  0  0  0  0  0
   91.6084   94.8395  -43.8214 C   0  0  0  0  0  0  0  0  0  0  0  0
   90.7366  101.1915  -41.4861 N   0  0  0  0  0  0  0  0  0  0  0  0
   90.2142  100.3465  -41.2390 H   0  0  0  0  0  0  0  0  0  0  0  0
   90.1416  105.0083  -38.1238 Cl  0  0  0  0  0  0  0  0  0  0  0  0
   91.0851  103.7526  -38.8820 C   0  0  0  0  0  0  0  0  0  0  0  0
   92.3391  103.5104  -38.5243 N   0  0  0  0  0  0  0  0  0  0  0  0
   93.1307  102.5701  -39.0509 C   0  0  0  0  0  0  0  0  0  0  0  0
   94.3930  102.1574  -38.8528 N   0  0  0  0  0  0  0  0  0  0  0  0
   94.6640  101.1442  -39.6927 C   0  0  0  0  0  0  0  0  0  0  0  0
   93.5474  100.9352  -40.4153 N   0  0  0  0  0  0  0  0  0  0  0  0
   92.5747  101.7872  -40.0590 C   0  0  0  0  0  0  0  0  0  0  0  0
   91.2758  102.0294  -40.4369 C   0  0  0  0  0  0  0  0  0  0  0  0
   90.5441  102.9923  -39.8604 N   0  0  0  0  0  0  0  0  0  0  0  0
   93.4004  100.2153  -41.1721 H   0  0  0  0  0  0  0  0  0  0  0  0
 18 19  1  0  0  0
 19 20  2  0  0  0
 19 27  1  0  0  0
 20 21  1  0  0  0
 21 22  1  0  0  0
 21 25  2  0  0  0
 22 23  2  0  0  0
 23 24  1  0  0  0
 24 25  1  0  0  0
 25 26  1  0  0  0
 26 27  2  0  0  0
 26 16  1  0  0  0
 16  1  1  0  0  0
  1  2  1  0  0  0
  2  3  2  0  0  0
  2  4  1  0  0  0
  4  5  1  0  0  0
  4  9  1  0  0  0
  5  6  1  0  0  0
  6  7  1  0  0  0
  7  8  1  0  0  0
  7 10  1  0  0  0
  8  9  1  0  0  0
 10 11  2  0  0  0
 10 15  1  0  0  0
 11 12  1  0  0  0
 12 13  2  0  0  0
 13 14  1  0  0  0
 14 15  2  0  0  0
 24 28  1  0  0  0
 16 17  1  0  0  0
M  END
> <minimizedAffinity>
-6.26508

$$$$
1726


 30 33  0  0  0  0  0  0  0  0999 V2000
   91.8303   99.3518  -42.5455 C   0  0  0  0  0  0  0  0  0  0  0  0
   90.5998  100.0671  -42.2689 N   0  0  0  0  0  0  0  0  0  0  0  0
   90.6643  101.3042  -42.9723 C   0  0  0  0  0  0  0  0  0  0  0  0
   89.4698  101.6250  -43.8140 C   0  0  0  0  0  0  0  0  0  0  0  0
   89.3527  100.8135  -45.0553 C   0  0  0  0  0  0  0  0  0  0  0  0
   88.2354   99.9120  -45.0873 N   0  0  0  0  0  0  0  0  0  0  0  0
   87.6004   99.4422  -43.9971 C   0  0  0  0  0  0  0  0  0  0  0  0
   86.5387   98.5846  -44.0269 C   0  0  0  0  0  0  0  0  0  0  0  0
   86.0672   98.1583  -45.2520 C   0  0  0  0  0  0  0  0  0  0  0  0
   86.7098   98.6335  -46.3703 C   0  0  0  0  0  0  0  0  0  0  0  0
   87.7774   99.4963  -46.3033 C   0  0  0  0  0  0  0  0  0  0  0  0
   88.3412   99.9104  -47.3495 O   0  0  0  0  0  0  0  0  0  0  0  0
   88.1662   99.9462  -42.6886 C   0  0  0  0  0  0  0  0  0  0  0  0
   89.4596   99.2624  -42.4852 C   0  0  0  0  0  0  0  0  0  0  0  0
   88.2640  101.4393  -42.8851 C   0  0  0  0  0  0  0  0  0  0  0  0
   90.6418  100.2926  -41.2284 H   0  0  0  0  0  0  0  0  0  0  0  0
   91.7999   97.9136  -42.1382 C   0  0  0  0  0  0  0  0  0  0  0  0
   92.7134   97.6938  -41.1088 O   0  0  0  0  0  0  0  0  0  0  0  0
   93.6111   97.6473  -41.5449 H   0  0  0  0  0  0  0  0  0  0  0  0
   92.1565   97.0990  -43.3811 C   0  0  0  0  0  0  0  0  0  0  0  0
   91.4386   95.9023  -43.2947 O   0  0  0  0  0  0  0  0  0  0  0  0
   90.0218   96.6014  -45.8568 Br  0  0  0  0  0  0  0  0  0  0  0  0
   90.8656   94.9583  -45.3910 C   0  0  0  0  0  0  0  0  0  0  0  0
   91.4603   94.8551  -44.1536 C   0  0  0  0  0  0  0  0  0  0  0  0
   92.0658   93.6608  -43.8318 C   0  0  0  0  0  0  0  0  0  0  0  0
   92.0748   92.5919  -44.7334 C   0  0  0  0  0  0  0  0  0  0  0  0
   91.4695   92.7272  -45.9680 C   0  0  0  0  0  0  0  0  0  0  0  0
   90.8657   93.9038  -46.3016 C   0  0  0  0  0  0  0  0  0  0  0  0
   91.4657   91.5990  -46.9505 C   0  0  0  0  0  0  0  0  0  0  0  0
   92.8967   93.4852  -42.1287 Br  0  0  0  0  0  0  0  0  0  0  0  0
 22 23  1  0  0  0
 23 24  2  0  0  0
 23 28  1  0  0  0
 24 25  1  0  0  0
 24 21  1  0  0  0
 25 26  2  0  0  0
 25 30  1  0  0  0
 26 27  1  0  0  0
 27 28  2  0  0  0
 27 29  1  0  0  0
 21 20  1  0  0  0
 20 17  1  0  0  0
 17 18  1  0  0  0
 17  1  1  0  0  0
  1  2  1  0  0  0
  2  3  1  0  0  0
  2 14  1  0  0  0
  3  4  1  0  0  0
  4  5  1  0  0  0
  4 15  1  0  0  0
  5  6  1  0  0  0
  6  7  1  0  0  0
  6 11  1  0  0  0
  7  8  2  0  0  0
  7 13  1  0  0  0
  8  9  1  0  0  0
  9 10  2  0  0  0
 10 11  1  0  0  0
 11 12  2  0  0  0
 13 14  1  0  0  0
 13 15  1  0  0  0
 18 19  1  0  0  0
  2 16  1  0  0  0
M  CHG 1   2   1
M  END
> <minimizedAffinity>
-6.66370

$$$$
1732


 28 31  0  0  0  0  0  0  0  0999 V2000
   90.0079   99.2000  -43.9508 N   0  0  0  0  0  0  0  0  0  0  0  0
   89.7657   99.3532  -42.6595 N   0  0  0  0  0  0  0  0  0  0  0  0
   88.4567   99.3126  -42.4369 N   0  0  0  0  0  0  0  0  0  0  0  0
   87.8355   99.1279  -43.6207 C   0  0  0  0  0  0  0  0  0  0  0  0
   88.8253   99.0634  -44.5264 N   0  0  0  0  0  0  0  0  0  0  0  0
   86.4023   99.0226  -43.8516 C   0  0  0  0  0  0  0  0  0  0  0  0
   85.6888  100.1847  -44.0310 C   0  0  0  0  0  0  0  0  0  0  0  0
   84.3249  100.0836  -44.2500 C   0  0  0  0  0  0  0  0  0  0  0  0
   83.6790   98.8739  -44.2913 C   0  0  0  0  0  0  0  0  0  0  0  0
   84.3932   97.7065  -44.1111 C   0  0  0  0  0  0  0  0  0  0  0  0
   85.7558   97.8096  -43.8928 C   0  0  0  0  0  0  0  0  0  0  0  0
   86.2895  101.4787  -44.0016 N   0  0  0  0  0  0  0  0  0  0  0  0
   86.3750  102.2335  -42.9135 N   0  0  0  0  0  0  0  0  0  0  0  0
   86.9803  103.3580  -43.2250 N   0  0  0  0  0  0  0  0  0  0  0  0
   87.2811  103.3182  -44.5209 N   0  0  0  0  0  0  0  0  0  0  0  0
   86.8467  102.1370  -45.0079 C   0  0  0  0  0  0  0  0  0  0  0  0
   91.3219   99.1831  -44.6135 C   0  0  0  0  0  0  0  0  0  0  0  0
   91.0352   96.6871  -44.4890 N   0  0  0  0  0  0  0  0  0  0  0  0
   91.6868   97.8004  -45.0199 C   0  0  0  0  0  0  0  0  0  0  0  0
   92.6022   97.6861  -45.8556 O   0  0  0  0  0  0  0  0  0  0  0  0
   90.2688   96.8977  -43.7821 H   0  0  0  0  0  0  0  0  0  0  0  0
   91.9285   95.1655  -42.0149 Br  0  0  0  0  0  0  0  0  0  0  0  0
   91.6704   94.4532  -43.7500 C   0  0  0  0  0  0  0  0  0  0  0  0
   91.2553   95.3204  -44.7615 C   0  0  0  0  0  0  0  0  0  0  0  0
   91.0870   94.7315  -46.0007 C   0  0  0  0  0  0  0  0  0  0  0  0
   91.3155   93.3724  -46.2286 C   0  0  0  0  0  0  0  0  0  0  0  0
   91.7234   92.5700  -45.1927 C   0  0  0  0  0  0  0  0  0  0  0  0
   91.9031   93.1131  -43.9402 C   0  0  0  0  0  0  0  0  0  0  0  0
 22 23  1  0  0  0
 23 24  2  0  0  0
 23 28  1  0  0  0
 24 25  1  0  0  0
 24 18  1  0  0  0
 25 26  2  0  0  0
 26 27  1  0  0  0
 27 28  2  0  0  0
 18 19  1  0  0  0
 19 20  2  0  0  0
 19 17  1  0  0  0
 17  1  1  0  0  0
  1  2  1  0  0  0
  1  5  1  0  0  0
  2  3  2  0  0  0
  3  4  1  0  0  0
  4  5  2  0  0  0
  4  6  1  0  0  0
  6  7  1  0  0  0
  6 11  2  0  0  0
  7  8  2  0  0  0
  7 12  1  0  0  0
  8  9  1  0  0  0
  9 10  2  0  0  0
 10 11  1  0  0  0
 12 13  1  0  0  0
 12 16  1  0  0  0
 13 14  2  0  0  0
 14 15  1  0  0  0
 15 16  2  0  0  0
 18 21  1  0  0  0
M  END
> <minimizedAffinity>
-6.44322

$$$$
1736


 35 39  0  0  0  0  0  0  0  0999 V2000
   89.6171  102.7401  -46.9764 Cl  0  0  0  0  0  0  0  0  0  0  0  0
   88.4782  101.9621  -45.8655 C   0  0  0  0  0  0  0  0  0  0  0  0
   88.1420  100.6394  -46.0125 C   0  0  0  0  0  0  0  0  0  0  0  0
   87.2607  100.0455  -45.1489 C   0  0  0  0  0  0  0  0  0  0  0  0
   86.7138  100.7864  -44.1317 C   0  0  0  0  0  0  0  0  0  0  0  0
   87.0366  102.1319  -43.9567 C   0  0  0  0  0  0  0  0  0  0  0  0
   87.9256  102.6996  -44.8414 C   0  0  0  0  0  0  0  0  0  0  0  0
   85.8289  100.0066  -43.3492 N   0  0  0  0  0  0  0  0  0  0  0  0
   85.8276   98.7050  -43.9166 C   0  0  0  0  0  0  0  0  0  0  0  0
   85.1610   97.7318  -43.5039 O   0  0  0  0  0  0  0  0  0  0  0  0
   86.7359   98.6627  -45.0782 C   0  0  0  0  0  0  0  0  0  0  0  0
   86.0642   98.2676  -46.2920 N   0  0  0  0  0  0  0  0  0  0  0  0
   86.9717   97.4660  -47.0514 C   0  0  0  0  0  0  0  0  0  0  0  0
   87.8299   96.7154  -46.0599 C   0  0  0  0  0  0  0  0  0  0  0  0
   87.7863   97.6342  -44.8657 C   0  0  0  0  0  0  0  0  0  0  0  0
   89.1564   98.1800  -44.7051 C   0  0  0  0  0  0  0  0  0  0  0  0
   89.5305   99.2147  -44.0973 O   0  0  0  0  0  0  0  0  0  0  0  0
   90.0271   97.2665  -45.4037 N   0  0  0  0  0  0  0  0  0  0  0  0
   89.2597   96.6475  -46.4566 C   0  0  0  0  0  0  0  0  0  0  0  0
   89.6976   96.1378  -47.5205 O   0  0  0  0  0  0  0  0  0  0  0  0
   85.2583  100.2931  -42.5005 H   0  0  0  0  0  0  0  0  0  0  0  0
   85.7412   99.0934  -46.8061 H   0  0  0  0  0  0  0  0  0  0  0  0
   86.2446   96.5245  -47.9875 C   0  0  0  0  0  0  0  0  0  0  0  0
   87.1052   96.2329  -49.0420 O   0  0  0  0  0  0  0  0  0  0  0  0
   85.0866   97.3169  -48.5851 C   0  0  0  0  0  0  0  0  0  0  0  0
   87.1346   96.9948  -49.6638 H   0  0  0  0  0  0  0  0  0  0  0  0
   91.4212   97.0030  -45.1167 C   0  0  0  0  0  0  0  0  0  0  0  0
   91.5423   96.1871  -43.8714 C   0  0  0  0  0  0  0  0  0  0  0  0
   91.5200   94.8095  -43.9248 C   0  0  0  0  0  0  0  0  0  0  0  0
   91.6346   94.0758  -42.7564 C   0  0  0  0  0  0  0  0  0  0  0  0
   91.7731   94.6815  -41.5229 C   0  0  0  0  0  0  0  0  0  0  0  0
   91.7961   96.0571  -41.4583 C   0  0  0  0  0  0  0  0  0  0  0  0
   91.6817   96.7748  -42.6267 C   0  0  0  0  0  0  0  0  0  0  0  0
   91.3798   94.1980  -45.1746 O   0  0  0  0  0  0  0  0  0  0  0  0
   91.7528   92.8218  -45.3024 C   0  0  0  0  0  0  0  0  0  0  0  0
  1  2  1  0  0  0
  2  3  2  0  0  0
  2  7  1  0  0  0
  3  4  1  0  0  0
  4  5  2  0  0  0
  4 11  1  0  0  0
  5  6  1  0  0  0
  5  8  1  0  0  0
  6  7  2  0  0  0
  8  9  1  0  0  0
  9 10  2  0  0  0
  9 11  1  0  0  0
 11 12  1  0  0  0
 11 15  1  0  0  0
 12 13  1  0  0  0
 13 14  1  0  0  0
 13 23  1  0  0  0
 14 15  1  0  0  0
 14 19  1  0  0  0
 15 16  1  0  0  0
 16 17  2  0  0  0
 16 18  1  0  0  0
 18 19  1  0  0  0
 18 27  1  0  0  0
 19 20  2  0  0  0
 27 28  1  0  0  0
 28 29  2  0  0  0
 28 33  1  0  0  0
 29 30  1  0  0  0
 29 34  1  0  0  0
 30 31  2  0  0  0
 31 32  1  0  0  0
 32 33  2  0  0  0
 34 35  1  0  0  0
 23 24  1  0  0  0
 23 25  1  0  0  0
  8 21  1  0  0  0
 12 22  1  0  0  0
 24 26  1  0  0  0
M  END
> <minimizedAffinity>
-6.58713

$$$$
1741


 28 31  0  0  0  0  0  0  0  0999 V2000
   90.4440   98.7488  -43.3442 C   0  0  0  0  0  0  0  0  0  0  0  0
   89.3704   98.4621  -42.7788 O   0  0  0  0  0  0  0  0  0  0  0  0
   90.4423   99.4872  -44.5364 N   0  0  0  0  0  0  0  0  0  0  0  0
   89.2352   99.9623  -45.1760 C   0  0  0  0  0  0  0  0  0  0  0  0
   89.4184  101.4520  -45.4139 C   0  0  0  0  0  0  0  0  0  0  0  0
   90.5906  101.9346  -44.8117 N   0  0  0  0  0  0  0  0  0  0  0  0
   91.8333  101.3592  -45.1260 C   0  0  0  0  0  0  0  0  0  0  0  0
   91.6845   99.8459  -45.2374 C   0  0  0  0  0  0  0  0  0  0  0  0
   91.7315   98.2872  -42.7219 C   0  0  0  0  0  0  0  0  0  0  0  0
   91.5207   92.1032  -46.2628 Br  0  0  0  0  0  0  0  0  0  0  0  0
   91.5870   93.6571  -45.1406 C   0  0  0  0  0  0  0  0  0  0  0  0
   91.6661   93.5092  -43.7541 C   0  0  0  0  0  0  0  0  0  0  0  0
   91.7139   94.6512  -42.9610 C   0  0  0  0  0  0  0  0  0  0  0  0
   91.6850   95.9152  -43.5021 C   0  0  0  0  0  0  0  0  0  0  0  0
   91.7444   96.8547  -42.5148 N   0  0  0  0  0  0  0  0  0  0  0  0
   91.8091   96.1668  -41.3683 C   0  0  0  0  0  0  0  0  0  0  0  0
   91.7931   94.8052  -41.5940 C   0  0  0  0  0  0  0  0  0  0  0  0
   91.6077   96.0684  -44.8669 C   0  0  0  0  0  0  0  0  0  0  0  0
   91.5593   94.9310  -45.6662 C   0  0  0  0  0  0  0  0  0  0  0  0
   90.5025  102.8722  -43.7705 C   0  0  0  0  0  0  0  0  0  0  0  0
   90.6367  102.2926  -42.4080 C   0  0  0  0  0  0  0  0  0  0  0  0
   89.6305  101.6946  -41.9507 O   0  0  0  0  0  0  0  0  0  0  0  0
   91.8023  102.3815  -41.6318 N   0  0  0  0  0  0  0  0  0  0  0  0
   91.8466  101.7960  -40.3067 C   0  0  0  0  0  0  0  0  0  0  0  0
   93.0484  100.8755  -40.2665 C   0  0  0  0  0  0  0  0  0  0  0  0
   94.1658  101.7137  -40.3936 O   0  0  0  0  0  0  0  0  0  0  0  0
   94.2294  102.2904  -41.6395 C   0  0  0  0  0  0  0  0  0  0  0  0
   93.0169  103.0414  -42.0675 C   0  0  0  0  0  0  0  0  0  0  0  0
 10 11  1  0  0  0
 11 12  2  0  0  0
 11 19  1  0  0  0
 12 13  1  0  0  0
 13 14  2  0  0  0
 13 17  1  0  0  0
 14 15  1  0  0  0
 14 18  1  0  0  0
 15 16  1  0  0  0
 15  9  1  0  0  0
 16 17  2  0  0  0
  9  1  1  0  0  0
  1  2  2  0  0  0
  1  3  1  0  0  0
  3  4  1  0  0  0
  3  8  1  0  0  0
  4  5  1  0  0  0
  5  6  1  0  0  0
  6  7  1  0  0  0
  6 20  1  0  0  0
  7  8  1  0  0  0
 20 21  1  0  0  0
 21 22  2  0  0  0
 21 23  1  0  0  0
 23 24  1  0  0  0
 23 28  1  0  0  0
 24 25  1  0  0  0
 25 26  1  0  0  0
 26 27  1  0  0  0
 27 28  1  0  0  0
 18 19  2  0  0  0
M  END
> <minimizedAffinity>
-6.68663

$$$$
1744


 34 37  0  0  0  0  0  0  0  0999 V2000
   90.9891   98.3351  -44.7573 N   0  0  0  0  0  0  0  0  0  0  0  0
   91.8840   98.9580  -45.6773 C   0  0  0  0  0  0  0  0  0  0  0  0
   92.7805   98.3400  -46.3020 O   0  0  0  0  0  0  0  0  0  0  0  0
   91.7520  100.3600  -45.9018 N   0  0  0  0  0  0  0  0  0  0  0  0
   90.7347  101.0929  -45.2020 C   0  0  0  0  0  0  0  0  0  0  0  0
   90.5167  102.2783  -45.6222 O   0  0  0  0  0  0  0  0  0  0  0  0
   89.9828  100.5245  -44.0683 C   0  0  0  0  0  0  0  0  0  0  0  0
   89.9723   99.0411  -44.0586 C   0  0  0  0  0  0  0  0  0  0  0  0
   89.0587   98.4563  -43.4264 O   0  0  0  0  0  0  0  0  0  0  0  0
   92.3786  100.8831  -46.5663 H   0  0  0  0  0  0  0  0  0  0  0  0
   92.2469   94.5334  -41.5002 Cl  0  0  0  0  0  0  0  0  0  0  0  0
   91.7161   95.1055  -43.0590 C   0  0  0  0  0  0  0  0  0  0  0  0
   91.5649   96.4466  -43.3106 C   0  0  0  0  0  0  0  0  0  0  0  0
   91.1501   96.9387  -44.5361 C   0  0  0  0  0  0  0  0  0  0  0  0
   90.8846   96.0452  -45.5288 C   0  0  0  0  0  0  0  0  0  0  0  0
   91.0214   94.6754  -45.3258 C   0  0  0  0  0  0  0  0  0  0  0  0
   91.4366   94.2252  -44.0889 C   0  0  0  0  0  0  0  0  0  0  0  0
   90.5259  101.0440  -42.7580 C   0  0  0  0  0  0  0  0  0  0  0  0
   90.4106  102.2954  -42.3529 C   0  0  0  0  0  0  0  0  0  0  0  0
   91.0843  102.3416  -41.0361 C   0  0  0  0  0  0  0  0  0  0  0  0
   90.9074  100.9809  -40.5615 N   0  0  0  0  0  0  0  0  0  0  0  0
   91.2073  100.2858  -41.7590 N   0  0  0  0  0  0  0  0  0  0  0  0
   91.4939  100.7147  -39.7665 H   0  0  0  0  0  0  0  0  0  0  0  0
   91.7598   99.4496  -41.9483 H   0  0  0  0  0  0  0  0  0  0  0  0
   92.5308  102.6604  -41.1942 C   0  0  0  0  0  0  0  0  0  0  0  0
   93.5584  101.9040  -40.7072 C   0  0  0  0  0  0  0  0  0  0  0  0
   94.8855  102.2236  -40.9152 C   0  0  0  0  0  0  0  0  0  0  0  0
   95.2266  103.3498  -41.6418 C   0  0  0  0  0  0  0  0  0  0  0  0
   94.1656  104.1235  -42.1396 C   0  0  0  0  0  0  0  0  0  0  0  0
   92.8494  103.7907  -41.9218 C   0  0  0  0  0  0  0  0  0  0  0  0
   95.9064  101.4117  -40.3904 O   0  0  0  0  0  0  0  0  0  0  0  0
   95.6366  100.5891  -39.8610 H   0  0  0  0  0  0  0  0  0  0  0  0
   96.5359  103.6966  -41.8731 O   0  0  0  0  0  0  0  0  0  0  0  0
   96.9075  104.5310  -42.9504 C   0  0  0  0  0  0  0  0  0  0  0  0
 11 12  1  0  0  0
 12 13  2  0  0  0
 12 17  1  0  0  0
 13 14  1  0  0  0
 14 15  2  0  0  0
 14  1  1  0  0  0
 15 16  1  0  0  0
 16 17  2  0  0  0
  1  2  1  0  0  0
  1  8  1  0  0  0
  2  3  2  0  0  0
  2  4  1  0  0  0
  4  5  1  0  0  0
  5  6  2  0  0  0
  5  7  1  0  0  0
  7  8  1  0  0  0
  7 18  1  0  0  0
  8  9  2  0  0  0
 18 19  2  0  0  0
 18 22  1  0  0  0
 19 20  1  0  0  0
 20 21  1  0  0  0
 20 25  1  0  0  0
 21 22  1  0  0  0
 25 26  2  0  0  0
 25 30  1  0  0  0
 26 27  1  0  0  0
 27 28  2  0  0  0
 27 31  1  0  0  0
 28 29  1  0  0  0
 28 33  1  0  0  0
 29 30  2  0  0  0
 33 34  1  0  0  0
  4 10  1  0  0  0
 21 23  1  0  0  0
 22 24  1  0  0  0
 31 32  1  0  0  0
M  END
> <minimizedAffinity>
-7.36455

$$$$
1745


 34 37  0  0  0  0  0  0  0  0999 V2000
   91.2143   98.3529  -44.2292 N   0  0  0  0  0  0  0  0  0  0  0  0
   92.1826   98.9759  -45.0576 C   0  0  0  0  0  0  0  0  0  0  0  0
   93.3449   98.5535  -45.1240 O   0  0  0  0  0  0  0  0  0  0  0  0
   91.8239  100.1234  -45.8408 N   0  0  0  0  0  0  0  0  0  0  0  0
   90.4995  100.6518  -45.8047 C   0  0  0  0  0  0  0  0  0  0  0  0
   90.0299  101.3329  -46.7326 O   0  0  0  0  0  0  0  0  0  0  0  0
   89.6523  100.3670  -44.5925 C   0  0  0  0  0  0  0  0  0  0  0  0
   89.9004   98.9522  -44.2435 C   0  0  0  0  0  0  0  0  0  0  0  0
   88.9321   98.1708  -43.9283 O   0  0  0  0  0  0  0  0  0  0  0  0
   92.5411  100.5603  -46.4336 H   0  0  0  0  0  0  0  0  0  0  0  0
   91.5597   93.2707  -44.2955 Cl  0  0  0  0  0  0  0  0  0  0  0  0
   91.6212   94.7700  -43.4090 C   0  0  0  0  0  0  0  0  0  0  0  0
   91.4193   95.9523  -44.0861 C   0  0  0  0  0  0  0  0  0  0  0  0
   91.4502   97.1944  -43.4412 C   0  0  0  0  0  0  0  0  0  0  0  0
   91.6935   97.1691  -42.0933 C   0  0  0  0  0  0  0  0  0  0  0  0
   91.8975   95.9908  -41.4080 C   0  0  0  0  0  0  0  0  0  0  0  0
   91.8630   94.7556  -42.0609 C   0  0  0  0  0  0  0  0  0  0  0  0
   90.0244  101.3154  -43.5003 C   0  0  0  0  0  0  0  0  0  0  0  0
   89.7776  101.2328  -42.2091 C   0  0  0  0  0  0  0  0  0  0  0  0
   90.3567  102.4282  -41.5369 C   0  0  0  0  0  0  0  0  0  0  0  0
   90.3909  103.3881  -42.6698 N   0  0  0  0  0  0  0  0  0  0  0  0
   90.7293  102.5420  -43.7338 N   0  0  0  0  0  0  0  0  0  0  0  0
   89.4562  103.8271  -42.7868 H   0  0  0  0  0  0  0  0  0  0  0  0
   91.3422  102.7323  -44.5193 H   0  0  0  0  0  0  0  0  0  0  0  0
   91.7811  102.1548  -41.2040 C   0  0  0  0  0  0  0  0  0  0  0  0
   92.8065  103.0583  -41.5561 C   0  0  0  0  0  0  0  0  0  0  0  0
   94.1167  102.8680  -41.2432 C   0  0  0  0  0  0  0  0  0  0  0  0
   94.4909  101.7372  -40.5419 C   0  0  0  0  0  0  0  0  0  0  0  0
   93.5172  100.8339  -40.1827 C   0  0  0  0  0  0  0  0  0  0  0  0
   92.1944  101.0397  -40.5066 C   0  0  0  0  0  0  0  0  0  0  0  0
   95.8259  101.5273  -40.2120 O   0  0  0  0  0  0  0  0  0  0  0  0
   96.5137  102.2144  -40.4912 H   0  0  0  0  0  0  0  0  0  0  0  0
   95.0970  103.7966  -41.6215 O   0  0  0  0  0  0  0  0  0  0  0  0
   95.6787  103.7069  -42.9038 C   0  0  0  0  0  0  0  0  0  0  0  0
 11 12  1  0  0  0
 12 13  2  0  0  0
 12 17  1  0  0  0
 13 14  1  0  0  0
 14 15  2  0  0  0
 14  1  1  0  0  0
 15 16  1  0  0  0
 16 17  2  0  0  0
  1  2  1  0  0  0
  1  8  1  0  0  0
  2  3  2  0  0  0
  2  4  1  0  0  0
  4  5  1  0  0  0
  5  6  2  0  0  0
  5  7  1  0  0  0
  7  8  1  0  0  0
  7 18  1  0  0  0
  8  9  2  0  0  0
 18 19  2  0  0  0
 18 22  1  0  0  0
 19 20  1  0  0  0
 20 21  1  0  0  0
 20 25  1  0  0  0
 21 22  1  0  0  0
 25 26  2  0  0  0
 25 30  1  0  0  0
 26 27  1  0  0  0
 27 28  2  0  0  0
 27 33  1  0  0  0
 28 29  1  0  0  0
 28 31  1  0  0  0
 29 30  2  0  0  0
 33 34  1  0  0  0
  4 10  1  0  0  0
 21 23  1  0  0  0
 22 24  1  0  0  0
 31 32  1  0  0  0
M  END
> <minimizedAffinity>
-6.86894

$$$$
1750


 27 30  0  0  0  0  0  0  0  0999 V2000
   88.0553  101.4397  -44.8634 N   0  0  0  0  0  0  0  0  0  0  0  0
   88.3398  100.5266  -45.9277 C   0  0  0  0  0  0  0  0  0  0  0  0
   89.3650   99.4788  -45.5384 C   0  0  0  0  0  0  0  0  0  0  0  0
   90.4849  100.1302  -44.9132 N   0  0  0  0  0  0  0  0  0  0  0  0
   90.5039  101.5792  -44.8865 C   0  0  0  0  0  0  0  0  0  0  0  0
   89.2015  102.0345  -44.2650 C   0  0  0  0  0  0  0  0  0  0  0  0
   91.5664   99.4139  -44.3243 C   0  0  0  0  0  0  0  0  0  0  0  0
   92.5300  100.0050  -43.7844 O   0  0  0  0  0  0  0  0  0  0  0  0
   91.5828   97.9494  -44.3339 C   0  0  0  0  0  0  0  0  0  0  0  0
   91.5718   97.1349  -43.2431 N   0  0  0  0  0  0  0  0  0  0  0  0
   91.5939   95.8570  -43.6526 C   0  0  0  0  0  0  0  0  0  0  0  0
   91.6192   95.8709  -44.9849 N   0  0  0  0  0  0  0  0  0  0  0  0
   91.6134   97.1360  -45.4260 C   0  0  0  0  0  0  0  0  0  0  0  0
   91.6453   94.6970  -45.6451 C   0  0  0  0  0  0  0  0  0  0  0  0
   91.6474   93.4742  -45.0328 C   0  0  0  0  0  0  0  0  0  0  0  0
   91.6216   93.4395  -43.6431 C   0  0  0  0  0  0  0  0  0  0  0  0
   91.5953   94.6454  -42.9792 C   0  0  0  0  0  0  0  0  0  0  0  0
   91.6823   91.9590  -45.9283 Cl  0  0  0  0  0  0  0  0  0  0  0  0
   86.8527  100.9497  -43.7820 S   0  0  0  0  0  0  0  0  0  0  0  0
   87.4632  100.5935  -42.4656 O   0  0  0  0  0  0  0  0  0  0  0  0
   85.9026  102.0947  -43.5700 O   0  0  0  0  0  0  0  0  0  0  0  0
   85.9265   99.6107  -44.3307 N   0  0  0  0  0  0  0  0  0  0  0  0
   84.5361   99.6978  -43.9246 C   0  0  0  0  0  0  0  0  0  0  0  0
   83.9809   98.2934  -43.9291 C   0  0  0  0  0  0  0  0  0  0  0  0
   84.5547   97.5162  -44.9296 O   0  0  0  0  0  0  0  0  0  0  0  0
   85.9034   97.2543  -44.6992 C   0  0  0  0  0  0  0  0  0  0  0  0
   86.4300   98.3565  -43.8021 C   0  0  0  0  0  0  0  0  0  0  0  0
 19 20  2  0  0  0
 19 21  2  0  0  0
 19  1  1  0  0  0
 19 22  1  0  0  0
  1  2  1  0  0  0
  1  6  1  0  0  0
  2  3  1  0  0  0
  3  4  1  0  0  0
  4  5  1  0  0  0
  4  7  1  0  0  0
  5  6  1  0  0  0
  7  8  2  0  0  0
  7  9  1  0  0  0
  9 10  1  0  0  0
  9 13  2  0  0  0
 10 11  2  0  0  0
 11 12  1  0  0  0
 11 17  1  0  0  0
 12 13  1  0  0  0
 12 14  1  0  0  0
 14 15  2  0  0  0
 15 16  1  0  0  0
 15 18  1  0  0  0
 16 17  2  0  0  0
 22 23  1  0  0  0
 22 27  1  0  0  0
 23 24  1  0  0  0
 24 25  1  0  0  0
 25 26  1  0  0  0
 26 27  1  0  0  0
M  END
> <minimizedAffinity>
-5.95388

$$$$
1758


 28 32  0  0  0  0  0  0  0  0999 V2000
   91.4566   93.7627  -44.7810 N   0  0  0  0  0  0  0  0  0  0  0  0
   91.5608   93.3797  -43.5215 N   0  0  0  0  0  0  0  0  0  0  0  0
   91.6129   94.4330  -42.6811 C   0  0  0  0  0  0  0  0  0  0  0  0
   91.7156   94.4457  -41.3735 C   0  0  0  0  0  0  0  0  0  0  0  0
   91.5364   95.5644  -43.4691 C   0  0  0  0  0  0  0  0  0  0  0  0
   91.5529   96.8341  -43.0360 C   0  0  0  0  0  0  0  0  0  0  0  0
   91.4400   95.1063  -44.7650 C   0  0  0  0  0  0  0  0  0  0  0  0
   91.3501   95.8318  -45.7877 O   0  0  0  0  0  0  0  0  0  0  0  0
   91.6000   92.3862  -43.1922 H   0  0  0  0  0  0  0  0  0  0  0  0
   90.9063   90.2448  -50.0126 I   0  0  0  0  0  0  0  0  0  0  0  0
   91.1106   91.3888  -48.2568 C   0  0  0  0  0  0  0  0  0  0  0  0
   91.8486   90.9395  -47.1808 C   0  0  0  0  0  0  0  0  0  0  0  0
   91.9857   91.6951  -46.0155 C   0  0  0  0  0  0  0  0  0  0  0  0
   91.3765   92.9067  -45.9378 C   0  0  0  0  0  0  0  0  0  0  0  0
   90.6393   93.3465  -47.0226 C   0  0  0  0  0  0  0  0  0  0  0  0
   90.4918   92.6158  -48.1816 C   0  0  0  0  0  0  0  0  0  0  0  0
   91.4615   97.8434  -44.0331 N   0  0  0  0  0  0  0  0  0  0  0  0
   91.7668   97.7181  -45.0183 H   0  0  0  0  0  0  0  0  0  0  0  0
   90.9083   99.1370  -43.6666 C   0  0  0  0  0  0  0  0  0  0  0  0
   91.8727   99.8719  -42.7479 C   0  0  0  0  0  0  0  0  0  0  0  0
   91.3373  101.1705  -42.4455 N   0  0  0  0  0  0  0  0  0  0  0  0
   90.0611  100.9682  -41.7678 C   0  0  0  0  0  0  0  0  0  0  0  0
   89.1082  100.3150  -42.6206 N   0  0  0  0  0  0  0  0  0  0  0  0
   88.9352  101.0547  -43.8511 C   0  0  0  0  0  0  0  0  0  0  0  0
   90.1793  101.2470  -44.5471 N   0  0  0  0  0  0  0  0  0  0  0  0
   91.1606  101.8955  -43.6831 C   0  0  0  0  0  0  0  0  0  0  0  0
   90.7148   99.9587  -44.9222 C   0  0  0  0  0  0  0  0  0  0  0  0
   89.6043   99.0001  -42.9396 C   0  0  0  0  0  0  0  0  0  0  0  0
 10 11  1  0  0  0
 11 12  2  0  0  0
 11 16  1  0  0  0
 12 13  1  0  0  0
 13 14  2  0  0  0
 14 15  1  0  0  0
 14  1  1  0  0  0
 15 16  2  0  0  0
  1  2  1  0  0  0
  1  7  1  0  0  0
  2  3  1  0  0  0
  3  4  2  0  0  0
  3  5  1  0  0  0
  5  6  2  0  0  0
  5  7  1  0  0  0
  6 17  1  0  0  0
 17 19  1  0  0  0
 19 20  1  0  0  0
 19 27  1  0  0  0
 19 28  1  0  0  0
 20 21  1  0  0  0
 21 22  1  0  0  0
 21 26  1  0  0  0
 22 23  1  0  0  0
 23 24  1  0  0  0
 23 28  1  0  0  0
 24 25  1  0  0  0
 25 26  1  0  0  0
 25 27  1  0  0  0
  7  8  2  0  0  0
  2  9  1  0  0  0
 17 18  1  0  0  0
M  END
> <minimizedAffinity>
-6.75713

$$$$
1764


 34 37  0  0  0  0  0  0  0  0999 V2000
   89.9975   99.8030  -45.5050 N   0  0  0  0  0  0  0  0  0  0  0  0
   90.5572  100.8565  -46.2017 C   0  0  0  0  0  0  0  0  0  0  0  0
   89.4741  101.9435  -46.2431 C   0  0  0  0  0  0  0  0  0  0  0  0
   88.8350  101.7866  -44.8809 C   0  0  0  0  0  0  0  0  0  0  0  0
   89.0297  100.3273  -44.5458 C   0  0  0  0  0  0  0  0  0  0  0  0
   91.7352  101.3898  -45.4042 C   0  0  0  0  0  0  0  0  0  0  0  0
   92.3834  100.5446  -44.7730 O   0  0  0  0  0  0  0  0  0  0  0  0
   92.0197  102.7662  -45.4243 N   0  0  0  0  0  0  0  0  0  0  0  0
   91.4457  103.4520  -45.9553 H   0  0  0  0  0  0  0  0  0  0  0  0
   93.1408  103.2873  -44.6810 C   0  0  0  0  0  0  0  0  0  0  0  0
   92.8139  103.9275  -43.3867 C   0  0  0  0  0  0  0  0  0  0  0  0
   93.0098  103.1402  -42.2214 N   0  0  0  0  0  0  0  0  0  0  0  0
   94.1231  102.2487  -42.2554 C   0  0  0  0  0  0  0  0  0  0  0  0
   94.7657  102.2564  -40.8829 C   0  0  0  0  0  0  0  0  0  0  0  0
   93.6974  101.9910  -39.8421 C   0  0  0  0  0  0  0  0  0  0  0  0
   92.8667  100.8237  -40.3031 C   0  0  0  0  0  0  0  0  0  0  0  0
   91.8382  101.1592  -41.3176 C   0  0  0  0  0  0  0  0  0  0  0  0
   91.7874  102.5752  -41.7529 C   0  0  0  0  0  0  0  0  0  0  0  0
   89.5841   98.3288  -46.1467 S   0  0  0  0  0  0  0  0  0  0  0  0
   89.8917   98.2284  -47.6396 O   0  0  0  0  0  0  0  0  0  0  0  0
   88.0619   98.1865  -46.0859 O   0  0  0  0  0  0  0  0  0  0  0  0
   90.2580   96.9473  -45.3340 C   0  0  0  0  0  0  0  0  0  0  0  0
   90.8171   97.1213  -44.0568 C   0  0  0  0  0  0  0  0  0  0  0  0
   91.4272   96.1234  -43.3521 C   0  0  0  0  0  0  0  0  0  0  0  0
   91.4877   94.8764  -43.9474 C   0  0  0  0  0  0  0  0  0  0  0  0
   90.9652   94.6369  -45.1827 C   0  0  0  0  0  0  0  0  0  0  0  0
   90.3545   95.6885  -45.8560 C   0  0  0  0  0  0  0  0  0  0  0  0
   89.6171   95.2771  -47.3883 Cl  0  0  0  0  0  0  0  0  0  0  0  0
   92.1214   93.8164  -43.2149 N   0  0  0  0  0  0  0  0  0  0  0  0
   92.6574   94.0798  -41.9203 C   0  0  0  0  0  0  0  0  0  0  0  0
   93.5676   93.3649  -41.4650 O   0  0  0  0  0  0  0  0  0  0  0  0
   92.0841   95.2225  -41.1663 C   0  0  0  0  0  0  0  0  0  0  0  0
   91.9769   96.3009  -42.0918 O   0  0  0  0  0  0  0  0  0  0  0  0
   92.1748   92.8644  -43.6542 H   0  0  0  0  0  0  0  0  0  0  0  0
 19 20  2  0  0  0
 19 21  2  0  0  0
 19  1  1  0  0  0
 19 22  1  0  0  0
  1  2  1  0  0  0
  1  5  1  0  0  0
  2  3  1  0  0  0
  2  6  1  0  0  0
  3  4  1  0  0  0
  4  5  1  0  0  0
  6  7  2  0  0  0
  6  8  1  0  0  0
  8 10  1  0  0  0
 10 11  1  0  0  0
 11 12  1  0  0  0
 12 13  1  0  0  0
 12 18  1  0  0  0
 13 14  1  0  0  0
 14 15  1  0  0  0
 15 16  1  0  0  0
 16 17  1  0  0  0
 17 18  1  0  0  0
 22 23  2  0  0  0
 22 27  1  0  0  0
 23 24  1  0  0  0
 24 25  2  0  0  0
 24 33  1  0  0  0
 25 26  1  0  0  0
 25 29  1  0  0  0
 26 27  2  0  0  0
 27 28  1  0  0  0
 29 30  1  0  0  0
 30 31  2  0  0  0
 30 32  1  0  0  0
 32 33  1  0  0  0
  8  9  1  0  0  0
 29 34  1  0  0  0
M  END
> <minimizedAffinity>
-6.04133

$$$$
1781


 24 27  0  0  0  0  0  0  0  0999 V2000
   89.6429   98.5440  -44.7876 C   0  0  0  0  0  0  0  0  0  0  0  0
   88.6129   98.5187  -43.9791 O   0  0  0  0  0  0  0  0  0  0  0  0
   90.0500   99.8130  -45.1704 N   0  0  0  0  0  0  0  0  0  0  0  0
   91.0714  100.2451  -46.0650 C   0  0  0  0  0  0  0  0  0  0  0  0
   92.2465  100.6608  -45.1570 C   0  0  0  0  0  0  0  0  0  0  0  0
   91.6688  101.3828  -44.0082 N   0  0  0  0  0  0  0  0  0  0  0  0
   90.3991  102.0251  -44.1910 C   0  0  0  0  0  0  0  0  0  0  0  0
   89.3568  100.9697  -44.5102 C   0  0  0  0  0  0  0  0  0  0  0  0
   92.3826  101.4215  -42.7752 C   0  0  0  0  0  0  0  0  0  0  0  0
   93.5350  102.1172  -42.6560 N   0  0  0  0  0  0  0  0  0  0  0  0
   94.2243  102.1739  -41.5305 N   0  0  0  0  0  0  0  0  0  0  0  0
   93.8315  101.5432  -40.4148 C   0  0  0  0  0  0  0  0  0  0  0  0
   94.7165  101.7671  -39.4124 N   0  0  0  0  0  0  0  0  0  0  0  0
   95.6658  102.5416  -39.9043 N   0  0  0  0  0  0  0  0  0  0  0  0
   95.3865  102.8013  -41.1941 C   0  0  0  0  0  0  0  0  0  0  0  0
   92.6588  100.8087  -40.4565 C   0  0  0  0  0  0  0  0  0  0  0  0
   91.9605  100.7657  -41.6405 C   0  0  0  0  0  0  0  0  0  0  0  0
   91.4842   92.9804  -46.2985 Cl  0  0  0  0  0  0  0  0  0  0  0  0
   90.9731   94.6123  -45.8448 C   0  0  0  0  0  0  0  0  0  0  0  0
   89.9500   95.2422  -46.5092 C   0  0  0  0  0  0  0  0  0  0  0  0
   89.5559   96.5115  -46.1542 C   0  0  0  0  0  0  0  0  0  0  0  0
   90.1484   97.2417  -45.1173 C   0  0  0  0  0  0  0  0  0  0  0  0
   91.1701   96.5862  -44.4687 C   0  0  0  0  0  0  0  0  0  0  0  0
   91.5836   95.2888  -44.8214 C   0  0  0  0  0  0  0  0  0  0  0  0
 18 19  1  0  0  0
 19 20  2  0  0  0
 19 24  1  0  0  0
 20 21  1  0  0  0
 21 22  2  0  0  0
 22 23  1  0  0  0
 22  1  1  0  0  0
 23 24  2  0  0  0
  1  2  2  0  0  0
  1  3  1  0  0  0
  3  4  1  0  0  0
  3  8  1  0  0  0
  4  5  1  0  0  0
  5  6  1  0  0  0
  6  7  1  0  0  0
  6  9  1  0  0  0
  7  8  1  0  0  0
  9 10  2  0  0  0
  9 17  1  0  0  0
 10 11  1  0  0  0
 11 12  1  0  0  0
 11 15  1  0  0  0
 12 13  2  0  0  0
 12 16  1  0  0  0
 13 14  1  0  0  0
 14 15  2  0  0  0
 16 17  2  0  0  0
M  END
> <minimizedAffinity>
-6.44932

$$$$
1788


 30 33  0  0  0  0  0  0  0  0999 V2000
   92.0414  100.1304  -41.7071 N   0  0  0  0  0  0  0  0  0  0  0  0
   92.0810   98.8508  -41.5886 N   0  0  0  0  0  0  0  0  0  0  0  0
   91.7080   98.2193  -42.7644 C   0  0  0  0  0  0  0  0  0  0  0  0
   91.4314   99.1829  -43.6227 N   0  0  0  0  0  0  0  0  0  0  0  0
   91.6440  100.3697  -42.9589 C   0  0  0  0  0  0  0  0  0  0  0  0
   91.4757  101.4889  -43.4885 O   0  0  0  0  0  0  0  0  0  0  0  0
   93.3324  104.1141  -37.3961 Cl  0  0  0  0  0  0  0  0  0  0  0  0
   92.9479  102.9524  -38.6519 C   0  0  0  0  0  0  0  0  0  0  0  0
   91.6557  102.7185  -39.0832 C   0  0  0  0  0  0  0  0  0  0  0  0
   91.3623  101.8004  -40.0768 C   0  0  0  0  0  0  0  0  0  0  0  0
   92.3631  101.0699  -40.6864 C   0  0  0  0  0  0  0  0  0  0  0  0
   93.6568  101.2942  -40.2648 C   0  0  0  0  0  0  0  0  0  0  0  0
   93.9510  102.2183  -39.2656 C   0  0  0  0  0  0  0  0  0  0  0  0
   91.6614   96.7602  -42.8306 C   0  0  0  0  0  0  0  0  0  0  0  0
   91.8190   96.0423  -41.6381 C   0  0  0  0  0  0  0  0  0  0  0  0
   91.8564   94.6771  -41.5676 C   0  0  0  0  0  0  0  0  0  0  0  0
   91.7357   93.9083  -42.7176 C   0  0  0  0  0  0  0  0  0  0  0  0
   91.5834   94.5980  -43.8877 C   0  0  0  0  0  0  0  0  0  0  0  0
   91.5465   95.9938  -43.9536 C   0  0  0  0  0  0  0  0  0  0  0  0
   90.9046   99.0957  -44.9482 C   0  0  0  0  0  0  0  0  0  0  0  0
   91.8708   99.3575  -46.0319 C   0  0  0  0  0  0  0  0  0  0  0  0
   92.8409   98.4915  -46.0718 O   0  0  0  0  0  0  0  0  0  0  0  0
   91.9181  100.3451  -46.9903 N   0  0  0  0  0  0  0  0  0  0  0  0
   90.9858  101.4329  -47.1189 C   0  0  0  0  0  0  0  0  0  0  0  0
   91.3606  102.3893  -48.2651 C   0  0  0  0  0  0  0  0  0  0  0  0
   91.5273  101.6136  -49.4979 N   0  0  0  0  0  0  0  0  0  0  0  0
   92.3277  100.4248  -49.3185 C   0  0  0  0  0  0  0  0  0  0  0  0
   92.4190   99.5799  -50.2381 O   0  0  0  0  0  0  0  0  0  0  0  0
   92.9927  100.3164  -47.9977 C   0  0  0  0  0  0  0  0  0  0  0  0
   91.1198  101.8822  -50.3974 H   0  0  0  0  0  0  0  0  0  0  0  0
  7  8  1  0  0  0
  8  9  2  0  0  0
  8 13  1  0  0  0
  9 10  1  0  0  0
 10 11  2  0  0  0
 11 12  1  0  0  0
 11  1  1  0  0  0
 12 13  2  0  0  0
  1  2  1  0  0  0
  1  5  1  0  0  0
  2  3  2  0  0  0
  3  4  1  0  0  0
  3 14  1  0  0  0
  4  5  1  0  0  0
  4 20  1  0  0  0
  5  6  2  0  0  0
 20 21  1  0  0  0
 21 22  2  0  0  0
 21 23  1  0  0  0
 23 24  1  0  0  0
 23 29  1  0  0  0
 24 25  1  0  0  0
 25 26  1  0  0  0
 26 27  1  0  0  0
 27 28  2  0  0  0
 27 29  1  0  0  0
 14 15  2  0  0  0
 14 19  1  0  0  0
 15 16  1  0  0  0
 16 17  2  0  0  0
 17 18  1  0  0  0
 18 19  2  0  0  0
 26 30  1  0  0  0
M  END
> <minimizedAffinity>
-6.84246

$$$$
1789


 29 32  0  0  0  0  0  0  0  0999 V2000
   91.6865   92.8540  -44.8366 N   0  0  0  0  0  0  0  0  0  0  0  0
   91.8651   92.1699  -43.7316 N   0  0  0  0  0  0  0  0  0  0  0  0
   91.9002   93.0525  -42.7380 N   0  0  0  0  0  0  0  0  0  0  0  0
   91.7434   94.3062  -43.2046 C   0  0  0  0  0  0  0  0  0  0  0  0
   91.6097   94.1610  -44.5269 C   0  0  0  0  0  0  0  0  0  0  0  0
   91.4489   95.4513  -45.0114 C   0  0  0  0  0  0  0  0  0  0  0  0
   91.2918   95.7275  -46.2220 O   0  0  0  0  0  0  0  0  0  0  0  0
   91.4801   96.3626  -44.0275 N   0  0  0  0  0  0  0  0  0  0  0  0
   91.6637   95.6499  -42.9005 C   0  0  0  0  0  0  0  0  0  0  0  0
   91.7506   96.1386  -41.7347 O   0  0  0  0  0  0  0  0  0  0  0  0
   91.9639   91.1155  -43.6399 H   0  0  0  0  0  0  0  0  0  0  0  0
   92.0333   92.7767  -41.7357 H   0  0  0  0  0  0  0  0  0  0  0  0
   91.3435   90.4717  -50.2892 Cl  0  0  0  0  0  0  0  0  0  0  0  0
   91.4300   91.1900  -48.6793 C   0  0  0  0  0  0  0  0  0  0  0  0
   90.6236   92.2204  -48.2872 C   0  0  0  0  0  0  0  0  0  0  0  0
   90.6617   92.8071  -47.0393 C   0  0  0  0  0  0  0  0  0  0  0  0
   91.5896   92.3039  -46.1328 C   0  0  0  0  0  0  0  0  0  0  0  0
   92.4205   91.2475  -46.5281 C   0  0  0  0  0  0  0  0  0  0  0  0
   92.3429   90.7006  -47.7778 C   0  0  0  0  0  0  0  0  0  0  0  0
   91.3514   97.7790  -44.1081 C   0  0  0  0  0  0  0  0  0  0  0  0
   90.1497   98.4357  -43.9290 C   0  0  0  0  0  0  0  0  0  0  0  0
   90.0336   99.8079  -44.0077 C   0  0  0  0  0  0  0  0  0  0  0  0
   91.1321  100.5980  -44.2760 C   0  0  0  0  0  0  0  0  0  0  0  0
   92.3392   99.9565  -44.4574 C   0  0  0  0  0  0  0  0  0  0  0  0
   92.4455   98.5797  -44.3755 C   0  0  0  0  0  0  0  0  0  0  0  0
   91.0050  101.9826  -44.3541 O   0  0  0  0  0  0  0  0  0  0  0  0
   91.4867  102.8602  -43.3833 C   0  0  0  0  0  0  0  0  0  0  0  0
   88.8227  100.4689  -43.8276 O   0  0  0  0  0  0  0  0  0  0  0  0
   88.1716  100.3049  -42.5813 C   0  0  0  0  0  0  0  0  0  0  0  0
 13 14  1  0  0  0
 14 15  2  0  0  0
 14 19  1  0  0  0
 15 16  1  0  0  0
 16 17  2  0  0  0
 17 18  1  0  0  0
 17  1  1  0  0  0
 18 19  2  0  0  0
  1  2  1  0  0  0
  1  5  1  0  0  0
  2  3  1  0  0  0
  3  4  1  0  0  0
  4  5  2  0  0  0
  4  9  1  0  0  0
  5  6  1  0  0  0
  6  7  2  0  0  0
  6  8  1  0  0  0
  8  9  1  0  0  0
  8 20  1  0  0  0
  9 10  2  0  0  0
 20 21  2  0  0  0
 20 25  1  0  0  0
 21 22  1  0  0  0
 22 23  2  0  0  0
 22 28  1  0  0  0
 23 24  1  0  0  0
 23 26  1  0  0  0
 24 25  2  0  0  0
 26 27  1  0  0  0
 28 29  1  0  0  0
  2 11  1  0  0  0
  3 12  1  0  0  0
M  END
> <minimizedAffinity>
-6.78073

$$$$
1790


 29 32  0  0  0  0  0  0  0  0999 V2000
   91.7132   92.7338  -44.8620 N   0  0  0  0  0  0  0  0  0  0  0  0
   91.9637   92.0301  -43.7759 N   0  0  0  0  0  0  0  0  0  0  0  0
   91.9859   92.8996  -42.7737 N   0  0  0  0  0  0  0  0  0  0  0  0
   91.7533   94.1518  -43.2034 C   0  0  0  0  0  0  0  0  0  0  0  0
   91.5818   94.0339  -44.5308 C   0  0  0  0  0  0  0  0  0  0  0  0
   91.3429   95.3223  -44.9699 C   0  0  0  0  0  0  0  0  0  0  0  0
   91.1328   95.5951  -46.1891 O   0  0  0  0  0  0  0  0  0  0  0  0
   91.3637   96.2083  -43.9604 N   0  0  0  0  0  0  0  0  0  0  0  0
   91.6188   95.4808  -42.8600 C   0  0  0  0  0  0  0  0  0  0  0  0
   91.7176   95.9664  -41.6937 O   0  0  0  0  0  0  0  0  0  0  0  0
   92.1122   90.9933  -43.7370 H   0  0  0  0  0  0  0  0  0  0  0  0
   92.1620   92.6475  -41.7772 H   0  0  0  0  0  0  0  0  0  0  0  0
   91.2642   90.5160  -50.4135 Cl  0  0  0  0  0  0  0  0  0  0  0  0
   91.4151   91.1539  -48.7711 C   0  0  0  0  0  0  0  0  0  0  0  0
   90.6057   92.1922  -48.3580 C   0  0  0  0  0  0  0  0  0  0  0  0
   90.6882   92.7162  -47.0947 C   0  0  0  0  0  0  0  0  0  0  0  0
   91.5992   92.2166  -46.1766 C   0  0  0  0  0  0  0  0  0  0  0  0
   92.4032   91.1747  -46.6086 C   0  0  0  0  0  0  0  0  0  0  0  0
   92.3227   90.6446  -47.8794 C   0  0  0  0  0  0  0  0  0  0  0  0
   91.1516   97.6125  -44.0885 C   0  0  0  0  0  0  0  0  0  0  0  0
   89.8974   98.1527  -44.2890 C   0  0  0  0  0  0  0  0  0  0  0  0
   89.6672   99.5073  -44.4151 C   0  0  0  0  0  0  0  0  0  0  0  0
   90.7453  100.3639  -44.3381 C   0  0  0  0  0  0  0  0  0  0  0  0
   92.0218   99.8795  -44.1392 C   0  0  0  0  0  0  0  0  0  0  0  0
   92.2038   98.5052  -44.0182 C   0  0  0  0  0  0  0  0  0  0  0  0
   93.0825  100.7729  -44.0673 O   0  0  0  0  0  0  0  0  0  0  0  0
   93.2101  101.6908  -43.0162 C   0  0  0  0  0  0  0  0  0  0  0  0
   88.3668  100.0080  -44.6187 O   0  0  0  0  0  0  0  0  0  0  0  0
   87.3201   99.5443  -43.7977 C   0  0  0  0  0  0  0  0  0  0  0  0
 13 14  1  0  0  0
 14 15  2  0  0  0
 14 19  1  0  0  0
 15 16  1  0  0  0
 16 17  2  0  0  0
 17 18  1  0  0  0
 17  1  1  0  0  0
 18 19  2  0  0  0
  1  2  1  0  0  0
  1  5  1  0  0  0
  2  3  1  0  0  0
  3  4  1  0  0  0
  4  5  2  0  0  0
  4  9  1  0  0  0
  5  6  1  0  0  0
  6  7  2  0  0  0
  6  8  1  0  0  0
  8  9  1  0  0  0
  8 20  1  0  0  0
  9 10  2  0  0  0
 20 21  2  0  0  0
 20 25  1  0  0  0
 21 22  1  0  0  0
 22 23  2  0  0  0
 22 28  1  0  0  0
 23 24  1  0  0  0
 24 25  2  0  0  0
 24 26  1  0  0  0
 26 27  1  0  0  0
 28 29  1  0  0  0
  2 11  1  0  0  0
  3 12  1  0  0  0
M  END
> <minimizedAffinity>
-6.86921

$$$$
1801


 26 29  0  0  0  0  0  0  0  0999 V2000
   90.7910   91.9745  -48.1450 Cl  0  0  0  0  0  0  0  0  0  0  0  0
   91.0855   92.8600  -46.6487 C   0  0  0  0  0  0  0  0  0  0  0  0
   90.7418   94.1965  -46.5481 C   0  0  0  0  0  0  0  0  0  0  0  0
   90.9642   94.8945  -45.3932 C   0  0  0  0  0  0  0  0  0  0  0  0
   91.5403   94.2083  -44.3511 C   0  0  0  0  0  0  0  0  0  0  0  0
   91.8896   92.8851  -44.4240 C   0  0  0  0  0  0  0  0  0  0  0  0
   91.6585   92.1902  -45.5995 C   0  0  0  0  0  0  0  0  0  0  0  0
   91.7957   94.9297  -43.0885 C   0  0  0  0  0  0  0  0  0  0  0  0
   92.3076   94.5737  -41.9632 N   0  0  0  0  0  0  0  0  0  0  0  0
   92.3454   95.6530  -41.0190 C   0  0  0  0  0  0  0  0  0  0  0  0
   91.7500   96.8155  -41.7435 C   0  0  0  0  0  0  0  0  0  0  0  0
   91.4211   96.2963  -43.0499 N   0  0  0  0  0  0  0  0  0  0  0  0
   90.8221   96.9642  -44.1696 C   0  0  0  0  0  0  0  0  0  0  0  0
   90.3964   98.2221  -44.3567 N   0  0  0  0  0  0  0  0  0  0  0  0
   89.9112   98.3606  -45.5779 N   0  0  0  0  0  0  0  0  0  0  0  0
   90.0428   97.1553  -46.1580 C   0  0  0  0  0  0  0  0  0  0  0  0
   89.6855   96.9013  -47.3337 O   0  0  0  0  0  0  0  0  0  0  0  0
   90.6094   96.2657  -45.2991 N   0  0  0  0  0  0  0  0  0  0  0  0
   89.3464   99.5571  -46.1938 C   0  0  0  0  0  0  0  0  0  0  0  0
   87.8838   99.5734  -45.9564 C   0  0  0  0  0  0  0  0  0  0  0  0
   87.1271  100.0309  -46.8586 O   0  0  0  0  0  0  0  0  0  0  0  0
   87.2949   99.0957  -44.7564 N   0  0  0  0  0  0  0  0  0  0  0  0
   87.9329   98.7223  -44.0245 H   0  0  0  0  0  0  0  0  0  0  0  0
   85.8618   99.1329  -44.5702 C   0  0  0  0  0  0  0  0  0  0  0  0
   85.3818   97.8731  -43.8444 C   0  0  0  0  0  0  0  0  0  0  0  0
   85.5749  100.2905  -43.6237 C   0  0  0  0  0  0  0  0  0  0  0  0
  1  2  1  0  0  0
  2  3  2  0  0  0
  2  7  1  0  0  0
  3  4  1  0  0  0
  4  5  2  0  0  0
  4 18  1  0  0  0
  5  6  1  0  0  0
  5  8  1  0  0  0
  6  7  2  0  0  0
  8  9  2  0  0  0
  8 12  1  0  0  0
  9 10  1  0  0  0
 10 11  1  0  0  0
 11 12  1  0  0  0
 12 13  1  0  0  0
 13 14  2  0  0  0
 13 18  1  0  0  0
 14 15  1  0  0  0
 15 16  1  0  0  0
 15 19  1  0  0  0
 16 17  2  0  0  0
 16 18  1  0  0  0
 19 20  1  0  0  0
 20 21  2  0  0  0
 20 22  1  0  0  0
 22 24  1  0  0  0
 24 25  1  0  0  0
 24 26  1  0  0  0
 22 23  1  0  0  0
M  END
> <minimizedAffinity>
-6.40537

$$$$
1802


 27 30  0  0  0  0  0  0  0  0999 V2000
   93.3161   92.8065  -42.6342 Cl  0  0  0  0  0  0  0  0  0  0  0  0
   92.3052   93.5868  -43.8535 C   0  0  0  0  0  0  0  0  0  0  0  0
   91.8857   94.8993  -43.6220 C   0  0  0  0  0  0  0  0  0  0  0  0
   91.1010   95.5721  -44.5366 C   0  0  0  0  0  0  0  0  0  0  0  0
   90.7553   94.8819  -45.6815 C   0  0  0  0  0  0  0  0  0  0  0  0
   91.1401   93.6090  -45.9449 C   0  0  0  0  0  0  0  0  0  0  0  0
   91.9386   92.9341  -45.0089 C   0  0  0  0  0  0  0  0  0  0  0  0
   89.9144   95.6227  -46.6559 C   0  0  0  0  0  0  0  0  0  0  0  0
   89.4238   95.2734  -47.8063 N   0  0  0  0  0  0  0  0  0  0  0  0
   88.6617   96.3567  -48.3833 C   0  0  0  0  0  0  0  0  0  0  0  0
   88.7398   97.5102  -47.4140 C   0  0  0  0  0  0  0  0  0  0  0  0
   89.5416   96.9399  -46.3439 N   0  0  0  0  0  0  0  0  0  0  0  0
   89.9409   97.5837  -45.1353 C   0  0  0  0  0  0  0  0  0  0  0  0
   89.7053   98.8217  -44.6530 N   0  0  0  0  0  0  0  0  0  0  0  0
   90.3097   98.9512  -43.4739 N   0  0  0  0  0  0  0  0  0  0  0  0
   90.9090   97.7831  -43.2553 C   0  0  0  0  0  0  0  0  0  0  0  0
   91.5960   97.5024  -42.2337 O   0  0  0  0  0  0  0  0  0  0  0  0
   90.6959   96.9060  -44.2753 N   0  0  0  0  0  0  0  0  0  0  0  0
   90.3146  100.1443  -42.6227 C   0  0  0  0  0  0  0  0  0  0  0  0
   91.6761  100.8149  -42.9843 C   0  0  0  0  0  0  0  0  0  0  0  0
   92.2153  101.2197  -41.8948 O   0  0  0  0  0  0  0  0  0  0  0  0
   92.0857  100.8927  -44.2577 N   0  0  0  0  0  0  0  0  0  0  0  0
   93.2622  101.4329  -43.8486 H   0  0  0  0  0  0  0  0  0  0  0  0
   92.5070  100.9732  -45.5668 C   0  0  0  0  0  0  0  0  0  0  0  0
   92.8620   99.6023  -46.1548 C   0  0  0  0  0  0  0  0  0  0  0  0
   92.5224   99.5216  -47.4841 O   0  0  0  0  0  0  0  0  0  0  0  0
   91.4284  100.2477  -47.8566 C   0  0  0  0  0  0  0  0  0  0  0  0
  1  2  1  0  0  0
  2  3  2  0  0  0
  2  7  1  0  0  0
  3  4  1  0  0  0
  4  5  2  0  0  0
  4 18  1  0  0  0
  5  6  1  0  0  0
  5  8  1  0  0  0
  6  7  2  0  0  0
  8  9  2  0  0  0
  8 12  1  0  0  0
  9 10  1  0  0  0
 10 11  1  0  0  0
 11 12  1  0  0  0
 12 13  1  0  0  0
 13 14  2  0  0  0
 13 18  1  0  0  0
 14 15  1  0  0  0
 15 16  1  0  0  0
 15 19  1  0  0  0
 16 17  2  0  0  0
 16 18  1  0  0  0
 19 20  1  0  0  0
 20 21  2  0  0  0
 20 22  1  0  0  0
 22 24  1  0  0  0
 24 25  1  0  0  0
 25 26  1  0  0  0
 26 27  1  0  0  0
 22 23  1  0  0  0
M  END
> <minimizedAffinity>
-5.97052

$$$$
1804


 26 30  0  0  0  0  0  0  0  0999 V2000
   90.6323   91.6750  -48.9845 Cl  0  0  0  0  0  0  0  0  0  0  0  0
   91.0903   92.2150  -47.3838 C   0  0  0  0  0  0  0  0  0  0  0  0
   90.8695   93.5054  -46.9320 C   0  0  0  0  0  0  0  0  0  0  0  0
   91.2337   93.9171  -45.6714 C   0  0  0  0  0  0  0  0  0  0  0  0
   91.8351   92.9800  -44.8667 C   0  0  0  0  0  0  0  0  0  0  0  0
   92.0787   91.6860  -45.2627 C   0  0  0  0  0  0  0  0  0  0  0  0
   91.6967   91.2994  -46.5496 C   0  0  0  0  0  0  0  0  0  0  0  0
   92.2408   93.3860  -43.5073 C   0  0  0  0  0  0  0  0  0  0  0  0
   92.8099   92.7356  -42.5590 N   0  0  0  0  0  0  0  0  0  0  0  0
   93.0143   93.5495  -41.3907 C   0  0  0  0  0  0  0  0  0  0  0  0
   92.4573   94.8853  -41.7666 C   0  0  0  0  0  0  0  0  0  0  0  0
   91.9838   94.7186  -43.1155 N   0  0  0  0  0  0  0  0  0  0  0  0
   91.3477   95.6600  -44.0043 C   0  0  0  0  0  0  0  0  0  0  0  0
   91.0077   96.9551  -43.8570 N   0  0  0  0  0  0  0  0  0  0  0  0
   90.4408   97.3884  -44.9701 N   0  0  0  0  0  0  0  0  0  0  0  0
   90.4383   96.3368  -45.8056 C   0  0  0  0  0  0  0  0  0  0  0  0
   89.9650   96.3945  -46.9763 O   0  0  0  0  0  0  0  0  0  0  0  0
   90.9961   95.2482  -45.2335 N   0  0  0  0  0  0  0  0  0  0  0  0
   89.9198   98.7352  -45.2473 C   0  0  0  0  0  0  0  0  0  0  0  0
   88.7926   98.9951  -44.3135 C   0  0  0  0  0  0  0  0  0  0  0  0
   89.0634   99.6386  -43.2685 O   0  0  0  0  0  0  0  0  0  0  0  0
   87.4731   98.5408  -44.5802 N   0  0  0  0  0  0  0  0  0  0  0  0
   86.3352   98.7621  -43.7083 C   0  0  0  0  0  0  0  0  0  0  0  0
   85.2008   97.9532  -44.2776 C   0  0  0  0  0  0  0  0  0  0  0  0
   85.9361   96.9240  -45.1111 C   0  0  0  0  0  0  0  0  0  0  0  0
   87.0288   97.7979  -45.7360 C   0  0  0  0  0  0  0  0  0  0  0  0
  1  2  1  0  0  0
  2  3  2  0  0  0
  2  7  1  0  0  0
  3  4  1  0  0  0
  4  5  2  0  0  0
  4 18  1  0  0  0
  5  6  1  0  0  0
  5  8  1  0  0  0
  6  7  2  0  0  0
  8  9  2  0  0  0
  8 12  1  0  0  0
  9 10  1  0  0  0
 10 11  1  0  0  0
 11 12  1  0  0  0
 12 13  1  0  0  0
 13 14  2  0  0  0
 13 18  1  0  0  0
 14 15  1  0  0  0
 15 16  1  0  0  0
 15 19  1  0  0  0
 16 17  2  0  0  0
 16 18  1  0  0  0
 19 20  1  0  0  0
 20 21  2  0  0  0
 20 22  1  0  0  0
 22 23  1  0  0  0
 22 26  1  0  0  0
 23 24  1  0  0  0
 24 25  1  0  0  0
 25 26  1  0  0  0
M  END
> <minimizedAffinity>
-6.99458

$$$$
1806


 32 35  0  0  0  0  0  0  0  0999 V2000
   91.3799   99.5276  -42.8491 N   0  0  0  0  0  0  0  0  0  0  0  0
   92.3346  100.0980  -43.7770 C   0  0  0  0  0  0  0  0  0  0  0  0
   91.5552  100.5042  -45.0382 C   0  0  0  0  0  0  0  0  0  0  0  0
   90.2052  100.0570  -44.9997 N   0  0  0  0  0  0  0  0  0  0  0  0
   89.4138  100.6192  -43.9066 C   0  0  0  0  0  0  0  0  0  0  0  0
   90.1392  100.2472  -42.6356 C   0  0  0  0  0  0  0  0  0  0  0  0
   91.5545   91.2566  -46.1652 Cl  0  0  0  0  0  0  0  0  0  0  0  0
   91.5290   92.8752  -45.4676 C   0  0  0  0  0  0  0  0  0  0  0  0
   91.7385   93.1061  -44.1428 C   0  0  0  0  0  0  0  0  0  0  0  0
   91.7091   94.3922  -43.6405 C   0  0  0  0  0  0  0  0  0  0  0  0
   91.4691   95.4598  -44.4673 C   0  0  0  0  0  0  0  0  0  0  0  0
   91.2580   95.2248  -45.8012 C   0  0  0  0  0  0  0  0  0  0  0  0
   91.2870   93.9377  -46.3082 C   0  0  0  0  0  0  0  0  0  0  0  0
   91.4298   96.8193  -43.9768 N   0  0  0  0  0  0  0  0  0  0  0  0
   91.6418   97.1075  -42.6086 C   0  0  0  0  0  0  0  0  0  0  0  0
   91.6145   98.3273  -42.1255 C   0  0  0  0  0  0  0  0  0  0  0  0
   91.8969   95.9971  -41.7194 N   0  0  0  0  0  0  0  0  0  0  0  0
   91.9280   94.6763  -42.2295 C   0  0  0  0  0  0  0  0  0  0  0  0
   92.1517   93.6781  -41.4624 O   0  0  0  0  0  0  0  0  0  0  0  0
   91.2447   97.5856  -44.6472 H   0  0  0  0  0  0  0  0  0  0  0  0
   92.0566   96.1715  -40.7075 H   0  0  0  0  0  0  0  0  0  0  0  0
   89.5404   99.1412  -45.8528 C   0  0  0  0  0  0  0  0  0  0  0  0
   88.8625   98.0836  -45.2707 N   0  0  0  0  0  0  0  0  0  0  0  0
   88.2112   97.1491  -45.9600 C   0  0  0  0  0  0  0  0  0  0  0  0
   88.2096   97.2367  -47.3243 C   0  0  0  0  0  0  0  0  0  0  0  0
   88.8675   98.2675  -47.9339 C   0  0  0  0  0  0  0  0  0  0  0  0
   89.5578   99.2603  -47.2102 C   0  0  0  0  0  0  0  0  0  0  0  0
   90.2103  100.3437  -47.8803 C   0  0  0  0  0  0  0  0  0  0  0  0
   89.7998  101.5004  -47.9437 O   0  0  0  0  0  0  0  0  0  0  0  0
   91.4438  100.0870  -48.5399 N   0  0  0  0  0  0  0  0  0  0  0  0
   92.3040   99.8574  -47.9932 H   0  0  0  0  0  0  0  0  0  0  0  0
   91.5603  100.1120  -49.5770 H   0  0  0  0  0  0  0  0  0  0  0  0
  7  8  1  0  0  0
  8  9  2  0  0  0
  8 13  1  0  0  0
  9 10  1  0  0  0
 10 11  2  0  0  0
 10 18  1  0  0  0
 11 12  1  0  0  0
 11 14  1  0  0  0
 12 13  2  0  0  0
 14 15  1  0  0  0
 15 16  2  0  0  0
 15 17  1  0  0  0
 16  1  1  0  0  0
  1  2  1  0  0  0
  1  6  1  0  0  0
  2  3  1  0  0  0
  3  4  1  0  0  0
  4  5  1  0  0  0
  4 22  1  0  0  0
  5  6  1  0  0  0
 22 23  2  0  0  0
 22 27  1  0  0  0
 23 24  1  0  0  0
 24 25  2  0  0  0
 25 26  1  0  0  0
 26 27  2  0  0  0
 27 28  1  0  0  0
 28 29  2  0  0  0
 28 30  1  0  0  0
 17 18  1  0  0  0
 18 19  2  0  0  0
 14 20  1  0  0  0
 30 31  1  0  0  0
 30 32  1  0  0  0
 17 21  1  0  0  0
M  END
> <minimizedAffinity>
-6.80176

$$$$
1808


 24 28  0  0  0  0  0  0  0  0999 V2000
   90.2660   97.9103  -45.3302 N   0  0  0  0  0  0  0  0  0  0  0  0
   91.1662   98.9580  -45.6554 C   0  0  0  0  0  0  0  0  0  0  0  0
   92.1363   98.8347  -46.4411 O   0  0  0  0  0  0  0  0  0  0  0  0
   90.7654  100.1887  -44.9221 C   0  0  0  0  0  0  0  0  0  0  0  0
   91.5059  100.3438  -43.6297 C   0  0  0  0  0  0  0  0  0  0  0  0
   90.5289  101.0061  -42.8536 O   0  0  0  0  0  0  0  0  0  0  0  0
   89.5352   99.9982  -42.9346 C   0  0  0  0  0  0  0  0  0  0  0  0
   89.3555   99.8912  -44.4097 C   0  0  0  0  0  0  0  0  0  0  0  0
   89.0729   98.4824  -44.7951 C   0  0  0  0  0  0  0  0  0  0  0  0
   87.9811   97.9226  -44.6647 O   0  0  0  0  0  0  0  0  0  0  0  0
   90.3341   98.8337  -42.4715 C   0  0  0  0  0  0  0  0  0  0  0  0
   91.5519   99.0305  -42.9677 C   0  0  0  0  0  0  0  0  0  0  0  0
   91.5750   92.0292  -46.2362 Br  0  0  0  0  0  0  0  0  0  0  0  0
   91.1732   93.8601  -45.9457 C   0  0  0  0  0  0  0  0  0  0  0  0
   91.8165   94.5435  -44.9424 C   0  0  0  0  0  0  0  0  0  0  0  0
   91.5061   95.8723  -44.7548 C   0  0  0  0  0  0  0  0  0  0  0  0
   90.5782   96.5265  -45.5346 C   0  0  0  0  0  0  0  0  0  0  0  0
   89.9279   95.8375  -46.5492 C   0  0  0  0  0  0  0  0  0  0  0  0
   90.2461   94.4909  -46.7370 C   0  0  0  0  0  0  0  0  0  0  0  0
   92.7723  101.0824  -43.7078 C   0  0  0  0  0  0  0  0  0  0  0  0
   93.1626  101.6464  -42.5242 O   0  0  0  0  0  0  0  0  0  0  0  0
   93.0522  103.0105  -42.6274 C   0  0  0  0  0  0  0  0  0  0  0  0
   92.5568  103.2911  -44.0079 C   0  0  0  0  0  0  0  0  0  0  0  0
   92.7298  102.0788  -44.6663 O   0  0  0  0  0  0  0  0  0  0  0  0
 13 14  1  0  0  0
 14 15  2  0  0  0
 14 19  1  0  0  0
 15 16  1  0  0  0
 16 17  2  0  0  0
 17 18  1  0  0  0
 17  1  1  0  0  0
 18 19  2  0  0  0
  1  2  1  0  0  0
  1  9  1  0  0  0
  2  3  2  0  0  0
  2  4  1  0  0  0
  4  5  1  0  0  0
  4  8  1  0  0  0
  5  6  1  0  0  0
  5 12  1  0  0  0
  5 20  1  0  0  0
  6  7  1  0  0  0
  7  8  1  0  0  0
  7 11  1  0  0  0
  8  9  1  0  0  0
  9 10  2  0  0  0
 11 12  2  0  0  0
 20 21  1  0  0  0
 20 24  1  0  0  0
 21 22  1  0  0  0
 22 23  1  0  0  0
 23 24  1  0  0  0
M  END
> <minimizedAffinity>
-5.79890

$$$$
1810


 32 35  0  0  0  0  0  0  0  0999 V2000
   91.3900   97.8461  -44.4526 N   0  0  0  0  0  0  0  0  0  0  0  0
   90.0686   98.2301  -44.0242 C   0  0  0  0  0  0  0  0  0  0  0  0
   90.1723   99.5887  -43.3715 C   0  0  0  0  0  0  0  0  0  0  0  0
   91.4684  100.1535  -43.6463 N   0  0  0  0  0  0  0  0  0  0  0  0
   92.0856  100.0479  -44.9634 C   0  0  0  0  0  0  0  0  0  0  0  0
   91.7503   98.6864  -45.5766 C   0  0  0  0  0  0  0  0  0  0  0  0
   92.1724  100.8173  -42.6256 C   0  0  0  0  0  0  0  0  0  0  0  0
   93.3046  101.3484  -42.8978 O   0  0  0  0  0  0  0  0  0  0  0  0
   91.6127  100.8985  -41.2490 C   0  0  0  0  0  0  0  0  0  0  0  0
   92.6549  101.2163  -40.2157 C   0  0  0  0  0  0  0  0  0  0  0  0
   92.4592  102.6243  -39.8843 N   0  0  0  0  0  0  0  0  0  0  0  0
   91.4348  103.1680  -40.6957 C   0  0  0  0  0  0  0  0  0  0  0  0
   91.3034  104.3887  -40.9535 O   0  0  0  0  0  0  0  0  0  0  0  0
   90.6146  102.0170  -41.1302 C   0  0  0  0  0  0  0  0  0  0  0  0
   93.2105  103.3428  -38.8806 C   0  0  0  0  0  0  0  0  0  0  0  0
   92.5290  103.3259  -37.5645 C   0  0  0  0  0  0  0  0  0  0  0  0
   93.2932  103.2887  -36.4076 C   0  0  0  0  0  0  0  0  0  0  0  0
   92.7278  103.2698  -35.1438 C   0  0  0  0  0  0  0  0  0  0  0  0
   91.3500  103.2883  -35.0692 C   0  0  0  0  0  0  0  0  0  0  0  0
   90.5573  103.3256  -36.2033 C   0  0  0  0  0  0  0  0  0  0  0  0
   91.1542  103.3442  -37.4630 C   0  0  0  0  0  0  0  0  0  0  0  0
   95.0282  103.2663  -36.5687 Cl  0  0  0  0  0  0  0  0  0  0  0  0
   91.4596   96.1741  -44.8459 S   0  0  0  0  0  0  0  0  0  0  0  0
   92.4819   95.8974  -45.9113 O   0  0  0  0  0  0  0  0  0  0  0  0
   90.1210   95.8147  -45.4550 O   0  0  0  0  0  0  0  0  0  0  0  0
   91.7145   95.1931  -43.4348 C   0  0  0  0  0  0  0  0  0  0  0  0
   91.8957   95.5422  -42.1154 C   0  0  0  0  0  0  0  0  0  0  0  0
   92.0638   94.3869  -41.4019 N   0  0  0  0  0  0  0  0  0  0  0  0
   91.9903   93.4089  -42.2236 O   0  0  0  0  0  0  0  0  0  0  0  0
   91.7834   93.8131  -43.4541 C   0  0  0  0  0  0  0  0  0  0  0  0
   91.6562   92.8935  -44.6058 C   0  0  0  0  0  0  0  0  0  0  0  0
   91.8950   96.9214  -41.5918 C   0  0  0  0  0  0  0  0  0  0  0  0
 23 24  2  0  0  0
 23 25  2  0  0  0
 23  1  1  0  0  0
 23 26  1  0  0  0
  1  2  1  0  0  0
  1  6  1  0  0  0
  2  3  1  0  0  0
  3  4  1  0  0  0
  4  5  1  0  0  0
  4  7  1  0  0  0
  5  6  1  0  0  0
  7  8  2  0  0  0
  7  9  1  0  0  0
  9 10  1  0  0  0
  9 14  1  0  0  0
 10 11  1  0  0  0
 11 12  1  0  0  0
 11 15  1  0  0  0
 12 13  2  0  0  0
 12 14  1  0  0  0
 15 16  1  0  0  0
 16 17  2  0  0  0
 16 21  1  0  0  0
 17 18  1  0  0  0
 17 22  1  0  0  0
 18 19  2  0  0  0
 19 20  1  0  0  0
 20 21  2  0  0  0
 26 27  1  0  0  0
 26 30  2  0  0  0
 27 28  2  0  0  0
 27 32  1  0  0  0
 28 29  1  0  0  0
 29 30  1  0  0  0
 30 31  1  0  0  0
M  END
> <minimizedAffinity>
-6.88289

$$$$
1816


 36 39  0  0  0  0  0  0  0  0999 V2000
   91.6228   97.0684  -44.9872 C   0  0  0  0  0  0  0  0  0  0  0  0
   92.5963   96.9638  -45.8105 O   0  0  0  0  0  0  0  0  0  0  0  0
   91.2190   98.3422  -44.6287 N   0  0  0  0  0  0  0  0  0  0  0  0
   91.8338   99.5319  -45.1294 C   0  0  0  0  0  0  0  0  0  0  0  0
   92.3796  100.3169  -43.9349 C   0  0  0  0  0  0  0  0  0  0  0  0
   91.3289  100.5551  -43.0042 N   0  0  0  0  0  0  0  0  0  0  0  0
   90.0036   99.9961  -43.3463 C   0  0  0  0  0  0  0  0  0  0  0  0
   90.1244   98.5316  -43.7047 C   0  0  0  0  0  0  0  0  0  0  0  0
   91.4490  101.2671  -41.7921 C   0  0  0  0  0  0  0  0  0  0  0  0
   90.3086  101.3519  -41.1148 O   0  0  0  0  0  0  0  0  0  0  0  0
   92.5657  101.9084  -41.1660 C   0  0  0  0  0  0  0  0  0  0  0  0
   92.4178  103.2255  -40.6618 C   0  0  0  0  0  0  0  0  0  0  0  0
   93.4627  103.8754  -40.0611 C   0  0  0  0  0  0  0  0  0  0  0  0
   93.3048  105.0449  -39.6220 O   0  0  0  0  0  0  0  0  0  0  0  0
   94.6722  103.3188  -39.9144 N   0  0  0  0  0  0  0  0  0  0  0  0
   94.8117  102.0802  -40.3886 C   0  0  0  0  0  0  0  0  0  0  0  0
   95.9438  101.5059  -40.2740 O   0  0  0  0  0  0  0  0  0  0  0  0
   93.7803  101.3976  -40.9983 N   0  0  0  0  0  0  0  0  0  0  0  0
   95.7630  104.0219  -39.2797 C   0  0  0  0  0  0  0  0  0  0  0  0
   93.9916  100.4359  -41.3293 H   0  0  0  0  0  0  0  0  0  0  0  0
   91.0120   95.8052  -44.4885 C   0  0  0  0  0  0  0  0  0  0  0  0
   93.0007   89.1842  -47.9106 Cl  0  0  0  0  0  0  0  0  0  0  0  0
   92.0784   90.6661  -47.8038 C   0  0  0  0  0  0  0  0  0  0  0  0
   92.2382   91.5626  -46.7515 C   0  0  0  0  0  0  0  0  0  0  0  0
   91.5107   92.7252  -46.6691 C   0  0  0  0  0  0  0  0  0  0  0  0
   90.6003   93.0039  -47.6619 C   0  0  0  0  0  0  0  0  0  0  0  0
   90.4430   92.0990  -48.7201 C   0  0  0  0  0  0  0  0  0  0  0  0
   91.1705   90.9340  -48.8023 C   0  0  0  0  0  0  0  0  0  0  0  0
   89.9000   94.1102  -47.5965 O   0  0  0  0  0  0  0  0  0  0  0  0
   90.0253   94.9738  -46.6184 C   0  0  0  0  0  0  0  0  0  0  0  0
   89.3252   96.0407  -46.5900 O   0  0  0  0  0  0  0  0  0  0  0  0
   90.9167   94.7908  -45.5626 C   0  0  0  0  0  0  0  0  0  0  0  0
   91.6611   93.6341  -45.6170 C   0  0  0  0  0  0  0  0  0  0  0  0
   92.6323   93.3316  -44.5705 C   0  0  0  0  0  0  0  0  0  0  0  0
   91.0052   90.0309  -49.8687 O   0  0  0  0  0  0  0  0  0  0  0  0
   90.3678   90.4019  -51.0660 C   0  0  0  0  0  0  0  0  0  0  0  0
 22 23  1  0  0  0
 23 24  2  0  0  0
 23 28  1  0  0  0
 24 25  1  0  0  0
 25 26  2  0  0  0
 25 33  1  0  0  0
 26 27  1  0  0  0
 26 29  1  0  0  0
 27 28  2  0  0  0
 28 35  1  0  0  0
 35 36  1  0  0  0
 29 30  1  0  0  0
 30 31  2  0  0  0
 30 32  1  0  0  0
 32 33  2  0  0  0
 32 21  1  0  0  0
 33 34  1  0  0  0
 21  1  1  0  0  0
  1  2  2  0  0  0
  1  3  1  0  0  0
  3  4  1  0  0  0
  3  8  1  0  0  0
  4  5  1  0  0  0
  5  6  1  0  0  0
  6  7  1  0  0  0
  6  9  1  0  0  0
  7  8  1  0  0  0
  9 10  2  0  0  0
  9 11  1  0  0  0
 11 12  2  0  0  0
 11 18  1  0  0  0
 12 13  1  0  0  0
 13 14  2  0  0  0
 13 15  1  0  0  0
 15 16  1  0  0  0
 15 19  1  0  0  0
 16 17  2  0  0  0
 16 18  1  0  0  0
 18 20  1  0  0  0
M  END
> <minimizedAffinity>
-7.82823

$$$$
1822


 24 27  0  0  0  0  0  0  0  0999 V2000
   91.7083   92.7546  -45.4159 Cl  0  0  0  0  0  0  0  0  0  0  0  0
   91.6368   94.2226  -44.4466 C   0  0  0  0  0  0  0  0  0  0  0  0
   91.8979   94.1299  -43.0979 C   0  0  0  0  0  0  0  0  0  0  0  0
   91.8409   95.2553  -42.3684 N   0  0  0  0  0  0  0  0  0  0  0  0
   91.5397   96.4654  -42.9078 C   0  0  0  0  0  0  0  0  0  0  0  0
   91.2840   96.5678  -44.2229 N   0  0  0  0  0  0  0  0  0  0  0  0
   91.0179   97.8389  -44.5084 N   0  0  0  0  0  0  0  0  0  0  0  0
   91.0944   98.5911  -43.3921 C   0  0  0  0  0  0  0  0  0  0  0  0
   91.4204   97.7105  -42.4129 N   0  0  0  0  0  0  0  0  0  0  0  0
   91.3319   95.4511  -44.9898 C   0  0  0  0  0  0  0  0  0  0  0  0
   91.0906   95.5457  -46.2349 O   0  0  0  0  0  0  0  0  0  0  0  0
   92.2321   92.7996  -42.4859 C   0  0  0  0  0  0  0  0  0  0  0  0
   92.0378   95.1912  -41.3415 H   0  0  0  0  0  0  0  0  0  0  0  0
   90.8798   99.9942  -43.2658 N   0  0  0  0  0  0  0  0  0  0  0  0
   89.6781  100.6180  -42.8347 C   0  0  0  0  0  0  0  0  0  0  0  0
   88.7291  100.1126  -42.1811 O   0  0  0  0  0  0  0  0  0  0  0  0
   89.6798  102.0517  -43.2843 C   0  0  0  0  0  0  0  0  0  0  0  0
   91.0697  102.3282  -43.7344 C   0  0  0  0  0  0  0  0  0  0  0  0
   91.8042  103.3659  -42.9042 C   0  0  0  0  0  0  0  0  0  0  0  0
   91.6257  102.9663  -41.4713 C   0  0  0  0  0  0  0  0  0  0  0  0
   90.3771  102.7541  -41.0964 C   0  0  0  0  0  0  0  0  0  0  0  0
   89.3095  102.9312  -42.1095 C   0  0  0  0  0  0  0  0  0  0  0  0
   91.7851  101.0540  -43.5330 C   0  0  0  0  0  0  0  0  0  0  0  0
   93.0493  100.9057  -43.5889 O   0  0  0  0  0  0  0  0  0  0  0  0
  1  2  1  0  0  0
  2  3  2  0  0  0
  2 10  1  0  0  0
  3  4  1  0  0  0
  3 12  1  0  0  0
  4  5  1  0  0  0
  5  6  1  0  0  0
  5  9  2  0  0  0
  6  7  1  0  0  0
  6 10  1  0  0  0
  7  8  2  0  0  0
  8  9  1  0  0  0
  8 14  1  0  0  0
 14 15  1  0  0  0
 14 23  1  0  0  0
 15 16  2  0  0  0
 15 17  1  0  0  0
 17 18  1  0  0  0
 17 22  1  0  0  0
 18 19  1  0  0  0
 18 23  1  0  0  0
 19 20  1  0  0  0
 20 21  2  0  0  0
 21 22  1  0  0  0
 23 24  2  0  0  0
 10 11  2  0  0  0
  4 13  1  0  0  0
M  END
> <minimizedAffinity>
-6.24004

$$$$
1825


 29 32  0  0  0  0  0  0  0  0999 V2000
   91.1831   96.9582  -44.2794 N   0  0  0  0  0  0  0  0  0  0  0  0
   91.5272   96.1974  -43.1977 C   0  0  0  0  0  0  0  0  0  0  0  0
   91.6139   94.9109  -43.5745 N   0  0  0  0  0  0  0  0  0  0  0  0
   91.3400   94.7878  -44.8794 C   0  0  0  0  0  0  0  0  0  0  0  0
   91.0720   96.1002  -45.2956 C   0  0  0  0  0  0  0  0  0  0  0  0
   91.9729   94.1052  -42.4076 C   0  0  0  0  0  0  0  0  0  0  0  0
   91.6962   94.9950  -41.2106 C   0  0  0  0  0  0  0  0  0  0  0  0
   91.8444   96.3700  -41.7574 C   0  0  0  0  0  0  0  0  0  0  0  0
   91.2886   93.6366  -45.7659 C   0  0  0  0  0  0  0  0  0  0  0  0
   91.8267   92.4238  -45.4347 C   0  0  0  0  0  0  0  0  0  0  0  0
   91.7682   91.3152  -46.2590 C   0  0  0  0  0  0  0  0  0  0  0  0
   91.1454   91.3839  -47.4959 C   0  0  0  0  0  0  0  0  0  0  0  0
   90.6034   92.6015  -47.8299 C   0  0  0  0  0  0  0  0  0  0  0  0
   90.6619   93.7088  -47.0068 C   0  0  0  0  0  0  0  0  0  0  0  0
   91.0681   90.2952  -48.3479 O   0  0  0  0  0  0  0  0  0  0  0  0
   89.8490   89.8449  -48.9093 C   0  0  0  0  0  0  0  0  0  0  0  0
   90.9738   98.4131  -44.2498 C   0  0  0  0  0  0  0  0  0  0  0  0
   88.4950   98.6855  -44.6977 N   0  0  0  0  0  0  0  0  0  0  0  0
   89.5518   98.6803  -43.8015 C   0  0  0  0  0  0  0  0  0  0  0  0
   89.4181   98.8931  -42.5916 O   0  0  0  0  0  0  0  0  0  0  0  0
   88.7368   98.4843  -45.7154 H   0  0  0  0  0  0  0  0  0  0  0  0
   83.6428   96.9761  -45.0008 Cl  0  0  0  0  0  0  0  0  0  0  0  0
   84.8442   98.1559  -44.5206 C   0  0  0  0  0  0  0  0  0  0  0  0
   86.1829   97.9764  -44.7850 C   0  0  0  0  0  0  0  0  0  0  0  0
   87.1429   98.9329  -44.3889 C   0  0  0  0  0  0  0  0  0  0  0  0
   86.6604  100.0309  -43.7387 C   0  0  0  0  0  0  0  0  0  0  0  0
   85.2904  100.2188  -43.4665 C   0  0  0  0  0  0  0  0  0  0  0  0
   84.3816   99.2714  -43.8622 C   0  0  0  0  0  0  0  0  0  0  0  0
   86.6162   96.7617  -45.4975 C   0  0  0  0  0  0  0  0  0  0  0  0
 22 23  1  0  0  0
 23 24  2  0  0  0
 23 28  1  0  0  0
 24 25  1  0  0  0
 24 29  1  0  0  0
 25 26  2  0  0  0
 25 18  1  0  0  0
 26 27  1  0  0  0
 27 28  2  0  0  0
 18 19  1  0  0  0
 19 20  2  0  0  0
 19 17  1  0  0  0
 17  1  1  0  0  0
  1  2  1  0  0  0
  1  5  1  0  0  0
  2  3  2  0  0  0
  2  8  1  0  0  0
  3  4  1  0  0  0
  3  6  1  0  0  0
  4  5  2  0  0  0
  4  9  1  0  0  0
  9 10  2  0  0  0
  9 14  1  0  0  0
 10 11  1  0  0  0
 11 12  2  0  0  0
 12 13  1  0  0  0
 12 15  1  0  0  0
 13 14  2  0  0  0
 15 16  1  0  0  0
  6  7  1  0  0  0
  7  8  1  0  0  0
 18 21  1  0  0  0
M  END
> <minimizedAffinity>
-6.92535

$$$$
1835


 36 39  0  0  0  0  0  0  0  0999 V2000
   91.5288   99.8982  -43.7391 C   0  0  0  0  0  0  0  0  0  0  0  0
   90.4235  100.5382  -43.3265 N   0  0  0  0  0  0  0  0  0  0  0  0
   90.8203  101.3717  -42.3494 C   0  0  0  0  0  0  0  0  0  0  0  0
   90.1577  102.2589  -41.5683 N   0  0  0  0  0  0  0  0  0  0  0  0
   90.7916  102.9969  -40.6362 C   0  0  0  0  0  0  0  0  0  0  0  0
   92.1238  102.8642  -40.4588 N   0  0  0  0  0  0  0  0  0  0  0  0
   92.8516  102.0038  -41.1952 C   0  0  0  0  0  0  0  0  0  0  0  0
   92.1789  101.2590  -42.1444 C   0  0  0  0  0  0  0  0  0  0  0  0
   92.6000  100.3262  -43.0300 N   0  0  0  0  0  0  0  0  0  0  0  0
   94.2448  101.8871  -40.9855 N   0  0  0  0  0  0  0  0  0  0  0  0
   94.8879  102.6847  -41.1291 H   0  0  0  0  0  0  0  0  0  0  0  0
   94.6331  100.9768  -40.6807 H   0  0  0  0  0  0  0  0  0  0  0  0
   89.0658  100.4229  -43.7731 C   0  0  0  0  0  0  0  0  0  0  0  0
   88.9470   99.6807  -44.9453 O   0  0  0  0  0  0  0  0  0  0  0  0
   87.5748   99.4353  -44.9772 C   0  0  0  0  0  0  0  0  0  0  0  0
   87.3644   98.7995  -43.6111 C   0  0  0  0  0  0  0  0  0  0  0  0
   88.2068   99.7111  -42.7427 C   0  0  0  0  0  0  0  0  0  0  0  0
   87.3314  100.5965  -42.1101 O   0  0  0  0  0  0  0  0  0  0  0  0
   86.0286   98.8137  -43.2349 O   0  0  0  0  0  0  0  0  0  0  0  0
   87.2984  101.4656  -42.5579 H   0  0  0  0  0  0  0  0  0  0  0  0
   85.5432   99.3897  -43.8850 H   0  0  0  0  0  0  0  0  0  0  0  0
   87.1764   98.5083  -46.0936 C   0  0  0  0  0  0  0  0  0  0  0  0
   86.3269   97.5089  -45.6879 O   0  0  0  0  0  0  0  0  0  0  0  0
   86.3544   97.3723  -44.7159 H   0  0  0  0  0  0  0  0  0  0  0  0
   91.5809   98.9173  -44.7649 N   0  0  0  0  0  0  0  0  0  0  0  0
   91.3168   99.1493  -45.7520 H   0  0  0  0  0  0  0  0  0  0  0  0
   91.2511   96.8715  -43.7576 C   0  0  0  0  0  0  0  0  0  0  0  0
   91.9800   97.6016  -44.5191 N   0  0  0  0  0  0  0  0  0  0  0  0
   92.2160   96.3675  -40.9848 Cl  0  0  0  0  0  0  0  0  0  0  0  0
   92.0529   95.1188  -42.1976 C   0  0  0  0  0  0  0  0  0  0  0  0
   91.5947   95.4811  -43.4457 C   0  0  0  0  0  0  0  0  0  0  0  0
   91.4681   94.4935  -44.3985 C   0  0  0  0  0  0  0  0  0  0  0  0
   91.7871   93.1710  -44.1229 C   0  0  0  0  0  0  0  0  0  0  0  0
   92.2470   92.7997  -42.8761 C   0  0  0  0  0  0  0  0  0  0  0  0
   92.3735   93.7874  -41.9233 C   0  0  0  0  0  0  0  0  0  0  0  0
   90.8832   94.9504  -45.9943 Cl  0  0  0  0  0  0  0  0  0  0  0  0
 29 30  1  0  0  0
 30 31  2  0  0  0
 30 35  1  0  0  0
 31 32  1  0  0  0
 31 27  1  0  0  0
 32 33  2  0  0  0
 32 36  1  0  0  0
 33 34  1  0  0  0
 34 35  2  0  0  0
 27 28  2  0  0  0
 28 25  1  0  0  0
 25  1  1  0  0  0
  1  2  1  0  0  0
  1  9  2  0  0  0
  2  3  1  0  0  0
  2 13  1  0  0  0
  3  4  2  0  0  0
  3  8  1  0  0  0
  4  5  1  0  0  0
  5  6  2  0  0  0
  6  7  1  0  0  0
  7  8  2  0  0  0
  7 10  1  0  0  0
  8  9  1  0  0  0
 13 14  1  0  0  0
 13 17  1  0  0  0
 14 15  1  0  0  0
 15 16  1  0  0  0
 15 22  1  0  0  0
 16 17  1  0  0  0
 16 19  1  0  0  0
 17 18  1  0  0  0
 22 23  1  0  0  0
 25 26  1  0  0  0
 10 11  1  0  0  0
 10 12  1  0  0  0
 18 20  1  0  0  0
 19 21  1  0  0  0
 23 24  1  0  0  0
M  END
> <minimizedAffinity>
-6.95222

$$$$
1837


 29 32  0  0  0  0  0  0  0  0999 V2000
   90.7598   99.3639  -45.3734 N   0  0  0  0  0  0  0  0  0  0  0  0
   91.7785  100.1626  -44.6603 C   0  0  0  0  0  0  0  0  0  0  0  0
   92.3970   99.1219  -43.7039 C   0  0  0  0  0  0  0  0  0  0  0  0
   91.2418   98.2927  -43.3280 N   0  0  0  0  0  0  0  0  0  0  0  0
   90.0240   99.0118  -43.1251 C   0  0  0  0  0  0  0  0  0  0  0  0
   89.5494   99.4455  -44.5215 C   0  0  0  0  0  0  0  0  0  0  0  0
   91.4151   96.9056  -43.2185 C   0  0  0  0  0  0  0  0  0  0  0  0
   91.6314   96.3307  -41.9957 N   0  0  0  0  0  0  0  0  0  0  0  0
   91.8178   95.0242  -41.8120 C   0  0  0  0  0  0  0  0  0  0  0  0
   91.7983   94.2021  -42.8668 N   0  0  0  0  0  0  0  0  0  0  0  0
   91.5961   94.6413  -44.1047 C   0  0  0  0  0  0  0  0  0  0  0  0
   91.5333   94.0473  -45.3132 N   0  0  0  0  0  0  0  0  0  0  0  0
   91.3117   94.9981  -46.1851 N   0  0  0  0  0  0  0  0  0  0  0  0
   91.2316   96.1742  -45.5820 N   0  0  0  0  0  0  0  0  0  0  0  0
   91.4026   96.0148  -44.2832 C   0  0  0  0  0  0  0  0  0  0  0  0
   91.6777   92.6411  -45.6388 C   0  0  0  0  0  0  0  0  0  0  0  0
   91.0949   92.3278  -46.9995 C   0  0  0  0  0  0  0  0  0  0  0  0
   90.4598   99.9543  -46.6651 C   0  0  0  0  0  0  0  0  0  0  0  0
   89.4635   97.6997  -47.2952 N   0  0  0  0  0  0  0  0  0  0  0  0
   89.3827   99.0952  -47.2859 C   0  0  0  0  0  0  0  0  0  0  0  0
   88.3932   99.6692  -47.8075 O   0  0  0  0  0  0  0  0  0  0  0  0
   90.3492   97.2782  -46.8727 H   0  0  0  0  0  0  0  0  0  0  0  0
   85.4343   93.8455  -49.4781 Cl  0  0  0  0  0  0  0  0  0  0  0  0
   86.6109   94.9712  -48.8350 C   0  0  0  0  0  0  0  0  0  0  0  0
   86.2660   95.9047  -47.8681 C   0  0  0  0  0  0  0  0  0  0  0  0
   87.2068   96.7752  -47.3822 C   0  0  0  0  0  0  0  0  0  0  0  0
   88.5389   96.7738  -47.8225 C   0  0  0  0  0  0  0  0  0  0  0  0
   88.8541   95.8466  -48.7759 C   0  0  0  0  0  0  0  0  0  0  0  0
   87.9112   94.9576  -49.2770 C   0  0  0  0  0  0  0  0  0  0  0  0
 23 24  1  0  0  0
 24 25  2  0  0  0
 24 29  1  0  0  0
 25 26  1  0  0  0
 26 27  2  0  0  0
 27 28  1  0  0  0
 27 19  1  0  0  0
 28 29  2  0  0  0
 19 20  1  0  0  0
 20 21  2  0  0  0
 20 18  1  0  0  0
 18  1  1  0  0  0
  1  2  1  0  0  0
  1  6  1  0  0  0
  2  3  1  0  0  0
  3  4  1  0  0  0
  4  5  1  0  0  0
  4  7  1  0  0  0
  5  6  1  0  0  0
  7  8  2  0  0  0
  7 15  1  0  0  0
  8  9  1  0  0  0
  9 10  2  0  0  0
 10 11  1  0  0  0
 11 12  1  0  0  0
 11 15  2  0  0  0
 12 13  1  0  0  0
 12 16  1  0  0  0
 13 14  2  0  0  0
 14 15  1  0  0  0
 16 17  1  0  0  0
 19 22  1  0  0  0
M  END
> <minimizedAffinity>
-6.34653

$$$$
1846


 31 34  0  0  0  0  0  0  0  0999 V2000
   91.3729   95.7826  -44.0020 N   0  0  0  0  0  0  0  0  0  0  0  0
   90.8785   96.2945  -45.1506 C   0  0  0  0  0  0  0  0  0  0  0  0
   90.7093   95.5071  -46.2336 N   0  0  0  0  0  0  0  0  0  0  0  0
   91.0114   94.2036  -46.2383 C   0  0  0  0  0  0  0  0  0  0  0  0
   90.8464   93.4116  -47.3105 N   0  0  0  0  0  0  0  0  0  0  0  0
   91.1420   92.1011  -47.3419 C   0  0  0  0  0  0  0  0  0  0  0  0
   91.6411   91.5659  -46.1945 N   0  0  0  0  0  0  0  0  0  0  0  0
   91.8217   92.3214  -45.0997 C   0  0  0  0  0  0  0  0  0  0  0  0
   91.5149   93.6658  -45.0787 C   0  0  0  0  0  0  0  0  0  0  0  0
   91.6935   94.4591  -43.9639 C   0  0  0  0  0  0  0  0  0  0  0  0
   92.1575   93.9096  -42.9345 O   0  0  0  0  0  0  0  0  0  0  0  0
   90.9542   91.3008  -48.4937 N   0  0  0  0  0  0  0  0  0  0  0  0
   91.8386   90.1785  -48.7044 C   0  0  0  0  0  0  0  0  0  0  0  0
   91.0250   89.0059  -49.2487 C   0  0  0  0  0  0  0  0  0  0  0  0
   90.2149   89.3905  -50.3149 O   0  0  0  0  0  0  0  0  0  0  0  0
   89.2295   90.2244  -49.7861 C   0  0  0  0  0  0  0  0  0  0  0  0
   89.9200   91.5516  -49.4705 C   0  0  0  0  0  0  0  0  0  0  0  0
   91.5831   96.5462  -42.8129 C   0  0  0  0  0  0  0  0  0  0  0  0
   92.5181   98.8084  -43.4634 N   0  0  0  0  0  0  0  0  0  0  0  0
   91.4317   98.0239  -43.0446 C   0  0  0  0  0  0  0  0  0  0  0  0
   90.3008   98.4939  -42.8447 O   0  0  0  0  0  0  0  0  0  0  0  0
   93.4659   98.3237  -43.6142 H   0  0  0  0  0  0  0  0  0  0  0  0
   92.7677  103.4250  -41.2843 Cl  0  0  0  0  0  0  0  0  0  0  0  0
   92.5498  102.4417  -42.7171 C   0  0  0  0  0  0  0  0  0  0  0  0
   92.3324  103.0337  -43.9379 C   0  0  0  0  0  0  0  0  0  0  0  0
   92.1704  102.1909  -45.0096 C   0  0  0  0  0  0  0  0  0  0  0  0
   92.2184  100.7991  -44.9056 C   0  0  0  0  0  0  0  0  0  0  0  0
   92.4349  100.1991  -43.6921 C   0  0  0  0  0  0  0  0  0  0  0  0
   92.5985  101.0752  -42.6028 C   0  0  0  0  0  0  0  0  0  0  0  0
   92.2776  104.4269  -44.0813 O   0  0  0  0  0  0  0  0  0  0  0  0
   93.4246  105.1361  -44.4899 C   0  0  0  0  0  0  0  0  0  0  0  0
 23 24  1  0  0  0
 24 25  2  0  0  0
 24 29  1  0  0  0
 25 26  1  0  0  0
 25 30  1  0  0  0
 26 27  2  0  0  0
 27 28  1  0  0  0
 28 29  2  0  0  0
 28 19  1  0  0  0
 19 20  1  0  0  0
 20 21  2  0  0  0
 20 18  1  0  0  0
 18  1  1  0  0  0
  1  2  1  0  0  0
  1 10  1  0  0  0
  2  3  2  0  0  0
  3  4  1  0  0  0
  4  5  2  0  0  0
  4  9  1  0  0  0
  5  6  1  0  0  0
  6  7  2  0  0  0
  6 12  1  0  0  0
  7  8  1  0  0  0
  8  9  2  0  0  0
  9 10  1  0  0  0
 10 11  2  0  0  0
 12 13  1  0  0  0
 12 17  1  0  0  0
 13 14  1  0  0  0
 14 15  1  0  0  0
 15 16  1  0  0  0
 16 17  1  0  0  0
 30 31  1  0  0  0
 19 22  1  0  0  0
M  END
> <minimizedAffinity>
-6.60112

$$$$
1850


 24 27  0  0  0  0  0  0  0  0999 V2000
   91.3625   93.7549  -45.3615 Cl  0  0  0  0  0  0  0  0  0  0  0  0
   91.5704   94.5415  -43.8030 C   0  0  0  0  0  0  0  0  0  0  0  0
   91.6000   95.9188  -43.7122 C   0  0  0  0  0  0  0  0  0  0  0  0
   91.7615   96.5312  -42.5013 C   0  0  0  0  0  0  0  0  0  0  0  0
   91.8938   95.7419  -41.3815 C   0  0  0  0  0  0  0  0  0  0  0  0
   91.8679   94.3660  -41.4496 C   0  0  0  0  0  0  0  0  0  0  0  0
   91.7038   93.7574  -42.6774 C   0  0  0  0  0  0  0  0  0  0  0  0
   91.8028   98.0022  -42.3225 C   0  0  0  0  0  0  0  0  0  0  0  0
   91.4523   98.5956  -43.5898 N   0  0  0  0  0  0  0  0  0  0  0  0
   92.0925   98.0485  -44.7629 C   0  0  0  0  0  0  0  0  0  0  0  0
   91.4479   96.6756  -44.9883 C   0  0  0  0  0  0  0  0  0  0  0  0
   90.5292   99.6609  -43.7075 C   0  0  0  0  0  0  0  0  0  0  0  0
   90.2666  100.1339  -44.8445 O   0  0  0  0  0  0  0  0  0  0  0  0
   89.8364  100.2697  -42.5477 C   0  0  0  0  0  0  0  0  0  0  0  0
   90.3835  101.5018  -42.1937 O   0  0  0  0  0  0  0  0  0  0  0  0
   91.6483  101.6637  -41.6436 C   0  0  0  0  0  0  0  0  0  0  0  0
   92.6048  102.2804  -42.3640 N   0  0  0  0  0  0  0  0  0  0  0  0
   93.8355  102.4661  -41.8941 N   0  0  0  0  0  0  0  0  0  0  0  0
   94.2062  102.0540  -40.6746 C   0  0  0  0  0  0  0  0  0  0  0  0
   95.4989  102.3763  -40.4732 N   0  0  0  0  0  0  0  0  0  0  0  0
   95.9122  102.9792  -41.5613 N   0  0  0  0  0  0  0  0  0  0  0  0
   94.9107  103.0499  -42.4538 C   0  0  0  0  0  0  0  0  0  0  0  0
   93.2444  101.4130  -39.9018 C   0  0  0  0  0  0  0  0  0  0  0  0
   91.9730  101.2205  -40.3856 C   0  0  0  0  0  0  0  0  0  0  0  0
  1  2  1  0  0  0
  2  3  2  0  0  0
  2  7  1  0  0  0
  3  4  1  0  0  0
  3 11  1  0  0  0
  4  5  2  0  0  0
  4  8  1  0  0  0
  5  6  1  0  0  0
  6  7  2  0  0  0
  8  9  1  0  0  0
  9 10  1  0  0  0
  9 12  1  0  0  0
 10 11  1  0  0  0
 12 13  2  0  0  0
 12 14  1  0  0  0
 14 15  1  0  0  0
 15 16  1  0  0  0
 16 17  2  0  0  0
 16 24  1  0  0  0
 17 18  1  0  0  0
 18 19  1  0  0  0
 18 22  1  0  0  0
 19 20  2  0  0  0
 19 23  1  0  0  0
 20 21  1  0  0  0
 21 22  2  0  0  0
 23 24  2  0  0  0
M  END
> <minimizedAffinity>
-7.03822

$$$$
1852


 26 29  0  0  0  0  0  0  0  0999 V2000
   91.5608   99.9557  -42.9691 S   0  0  0  0  0  0  0  0  0  0  0  0
   92.1871  100.0988  -41.6235 O   0  0  0  0  0  0  0  0  0  0  0  0
   92.3891  100.7137  -43.9730 O   0  0  0  0  0  0  0  0  0  0  0  0
   91.5235   98.2693  -43.4284 C   0  0  0  0  0  0  0  0  0  0  0  0
   91.6905   97.2818  -42.4780 C   0  0  0  0  0  0  0  0  0  0  0  0
   91.6699   95.9330  -42.7891 C   0  0  0  0  0  0  0  0  0  0  0  0
   91.4744   95.5330  -44.0983 C   0  0  0  0  0  0  0  0  0  0  0  0
   91.3085   96.5193  -45.0364 C   0  0  0  0  0  0  0  0  0  0  0  0
   91.3284   97.8631  -44.7305 C   0  0  0  0  0  0  0  0  0  0  0  0
   91.4592   94.1731  -44.3652 O   0  0  0  0  0  0  0  0  0  0  0  0
   92.1100   93.2111  -43.5541 C   0  0  0  0  0  0  0  0  0  0  0  0
   92.1860   93.6119  -42.1048 C   0  0  0  0  0  0  0  0  0  0  0  0
   91.8350   94.9406  -41.8509 O   0  0  0  0  0  0  0  0  0  0  0  0
   89.9859  100.6506  -42.9660 N   0  0  0  0  0  0  0  0  0  0  0  0
   88.9874   99.7475  -42.4872 C   0  0  0  0  0  0  0  0  0  0  0  0
   87.8434   99.7565  -43.4864 C   0  0  0  0  0  0  0  0  0  0  0  0
   88.5588  100.1228  -44.7703 C   0  0  0  0  0  0  0  0  0  0  0  0
   89.5841  101.1361  -44.2480 C   0  0  0  0  0  0  0  0  0  0  0  0
   87.3679   98.4264  -43.6070 O   0  0  0  0  0  0  0  0  0  0  0  0
   86.4464   98.0601  -44.5747 C   0  0  0  0  0  0  0  0  0  0  0  0
   86.8721   97.1344  -45.4822 N   0  0  0  0  0  0  0  0  0  0  0  0
   86.0000   96.7591  -46.4322 C   0  0  0  0  0  0  0  0  0  0  0  0
   84.7211   97.2728  -46.5109 C   0  0  0  0  0  0  0  0  0  0  0  0
   84.3452   98.2072  -45.5649 C   0  0  0  0  0  0  0  0  0  0  0  0
   85.2222   98.5834  -44.6095 N   0  0  0  0  0  0  0  0  0  0  0  0
   83.5945   96.7747  -47.7563 Cl  0  0  0  0  0  0  0  0  0  0  0  0
  1  2  2  0  0  0
  1  3  2  0  0  0
  1 14  1  0  0  0
  1  4  1  0  0  0
 14 15  1  0  0  0
 14 18  1  0  0  0
 15 16  1  0  0  0
 16 17  1  0  0  0
 16 19  1  0  0  0
 17 18  1  0  0  0
 19 20  1  0  0  0
 20 21  2  0  0  0
 20 25  1  0  0  0
 21 22  1  0  0  0
 22 23  2  0  0  0
 23 24  1  0  0  0
 23 26  1  0  0  0
 24 25  2  0  0  0
  4  5  2  0  0  0
  4  9  1  0  0  0
  5  6  1  0  0  0
  6  7  2  0  0  0
  6 13  1  0  0  0
  7  8  1  0  0  0
  7 10  1  0  0  0
  8  9  2  0  0  0
 10 11  1  0  0  0
 11 12  1  0  0  0
 12 13  1  0  0  0
M  END
> <minimizedAffinity>
-5.72537

$$$$
1856


 31 34  0  0  0  0  0  0  0  0999 V2000
   92.0011   99.6405  -43.6735 C   0  0  0  0  0  0  0  0  0  0  0  0
   90.7395   99.9880  -43.9707 N   0  0  0  0  0  0  0  0  0  0  0  0
   89.7051   99.1085  -44.0312 C   0  0  0  0  0  0  0  0  0  0  0  0
   90.0338   97.8164  -43.7649 N   0  0  0  0  0  0  0  0  0  0  0  0
   91.2763   97.4092  -43.4627 C   0  0  0  0  0  0  0  0  0  0  0  0
   92.2320   98.3287  -43.4228 N   0  0  0  0  0  0  0  0  0  0  0  0
   91.5466   96.0469  -43.1964 N   0  0  0  0  0  0  0  0  0  0  0  0
   91.4372   95.0063  -44.1985 C   0  0  0  0  0  0  0  0  0  0  0  0
   92.4230   93.8989  -43.8956 C   0  0  0  0  0  0  0  0  0  0  0  0
   92.2795   93.3596  -42.6454 O   0  0  0  0  0  0  0  0  0  0  0  0
   91.5110   94.1340  -41.7857 C   0  0  0  0  0  0  0  0  0  0  0  0
   91.9625   95.5895  -41.8668 C   0  0  0  0  0  0  0  0  0  0  0  0
   88.3920   99.5066  -44.3455 N   0  0  0  0  0  0  0  0  0  0  0  0
   87.4468   98.5606  -44.8582 C   0  0  0  0  0  0  0  0  0  0  0  0
   86.2142   98.6347  -43.9728 C   0  0  0  0  0  0  0  0  0  0  0  0
   85.7517   99.9583  -44.0303 O   0  0  0  0  0  0  0  0  0  0  0  0
   86.6484  100.8096  -43.3842 C   0  0  0  0  0  0  0  0  0  0  0  0
   87.9690  100.8619  -44.1621 C   0  0  0  0  0  0  0  0  0  0  0  0
   93.0484  100.5983  -43.6228 N   0  0  0  0  0  0  0  0  0  0  0  0
   93.6687  100.7610  -44.4404 H   0  0  0  0  0  0  0  0  0  0  0  0
   92.6108  101.0381  -41.3884 C   0  0  0  0  0  0  0  0  0  0  0  0
   93.2814  101.3554  -42.4746 N   0  0  0  0  0  0  0  0  0  0  0  0
   90.5346  104.3569  -37.8002 Br  0  0  0  0  0  0  0  0  0  0  0  0
   91.9554  103.2992  -38.5083 C   0  0  0  0  0  0  0  0  0  0  0  0
   91.7749  102.5775  -39.6502 C   0  0  0  0  0  0  0  0  0  0  0  0
   92.8229  101.8012  -40.1685 C   0  0  0  0  0  0  0  0  0  0  0  0
   94.0190  101.7858  -39.5038 C   0  0  0  0  0  0  0  0  0  0  0  0
   94.1980  102.5315  -38.3272 C   0  0  0  0  0  0  0  0  0  0  0  0
   93.1594  103.2832  -37.8400 C   0  0  0  0  0  0  0  0  0  0  0  0
   95.0848  101.0401  -39.9674 O   0  0  0  0  0  0  0  0  0  0  0  0
   95.0677  100.4746  -40.7911 H   0  0  0  0  0  0  0  0  0  0  0  0
 23 24  1  0  0  0
 24 25  2  0  0  0
 24 29  1  0  0  0
 25 26  1  0  0  0
 26 27  2  0  0  0
 26 21  1  0  0  0
 27 28  1  0  0  0
 27 30  1  0  0  0
 28 29  2  0  0  0
 21 22  2  0  0  0
 22 19  1  0  0  0
 19  1  1  0  0  0
  1  2  2  0  0  0
  1  6  1  0  0  0
  2  3  1  0  0  0
  3  4  2  0  0  0
  3 13  1  0  0  0
  4  5  1  0  0  0
  5  6  2  0  0  0
  5  7  1  0  0  0
  7  8  1  0  0  0
  7 12  1  0  0  0
  8  9  1  0  0  0
  9 10  1  0  0  0
 10 11  1  0  0  0
 11 12  1  0  0  0
 13 14  1  0  0  0
 13 18  1  0  0  0
 14 15  1  0  0  0
 15 16  1  0  0  0
 16 17  1  0  0  0
 17 18  1  0  0  0
 30 31  1  0  0  0
 19 20  1  0  0  0
M  END
> <minimizedAffinity>
-6.63153

$$$$
1863


 33 36  0  0  0  0  0  0  0  0999 V2000
   90.7656   97.6832  -44.6530 N   0  0  0  0  0  0  0  0  0  0  0  0
   91.0752   96.3756  -44.4343 C   0  0  0  0  0  0  0  0  0  0  0  0
   91.4752   96.2573  -43.1293 C   0  0  0  0  0  0  0  0  0  0  0  0
   91.3965   97.4803  -42.6065 N   0  0  0  0  0  0  0  0  0  0  0  0
   90.9617   98.3788  -43.5301 C   0  0  0  0  0  0  0  0  0  0  0  0
   91.8496   95.0463  -42.6818 N   0  0  0  0  0  0  0  0  0  0  0  0
   91.8410   93.9524  -43.4903 C   0  0  0  0  0  0  0  0  0  0  0  0
   92.1936   92.8033  -43.0761 O   0  0  0  0  0  0  0  0  0  0  0  0
   91.4550   94.0379  -44.7745 N   0  0  0  0  0  0  0  0  0  0  0  0
   91.0773   95.2374  -45.2375 C   0  0  0  0  0  0  0  0  0  0  0  0
   90.7255   95.2839  -46.4373 O   0  0  0  0  0  0  0  0  0  0  0  0
   92.2822   94.8717  -41.3201 C   0  0  0  0  0  0  0  0  0  0  0  0
   91.4490   93.1792  -45.4037 H   0  0  0  0  0  0  0  0  0  0  0  0
   90.8127   99.7926  -43.2839 N   0  0  0  0  0  0  0  0  0  0  0  0
   89.6669  100.1619  -42.4852 C   0  0  0  0  0  0  0  0  0  0  0  0
   89.5921  101.6355  -42.1771 C   0  0  0  0  0  0  0  0  0  0  0  0
   90.8759  102.0575  -41.7494 N   0  0  0  0  0  0  0  0  0  0  0  0
   91.8511  101.9505  -42.7827 C   0  0  0  0  0  0  0  0  0  0  0  0
   91.6761  100.8209  -43.7544 C   0  0  0  0  0  0  0  0  0  0  0  0
   91.2417  101.4207  -40.5235 C   0  0  0  0  0  0  0  0  0  0  0  0
   92.6852  101.0521  -40.4369 C   0  0  0  0  0  0  0  0  0  0  0  0
   93.6024  101.8630  -40.2337 O   0  0  0  0  0  0  0  0  0  0  0  0
   92.9655   99.6558  -40.6099 N   0  0  0  0  0  0  0  0  0  0  0  0
   93.0426   99.2239  -41.5583 H   0  0  0  0  0  0  0  0  0  0  0  0
   93.0911   99.0777  -39.7818 H   0  0  0  0  0  0  0  0  0  0  0  0
   90.2823   98.1735  -45.9003 C   0  0  0  0  0  0  0  0  0  0  0  0
   85.4497   96.1832  -46.0148 Cl  0  0  0  0  0  0  0  0  0  0  0  0
   86.5776   97.5362  -46.0168 C   0  0  0  0  0  0  0  0  0  0  0  0
   87.9344   97.3849  -45.9612 C   0  0  0  0  0  0  0  0  0  0  0  0
   88.8262   98.4683  -45.9557 C   0  0  0  0  0  0  0  0  0  0  0  0
   88.2906   99.7190  -46.0113 C   0  0  0  0  0  0  0  0  0  0  0  0
   86.9138   99.8777  -46.0687 C   0  0  0  0  0  0  0  0  0  0  0  0
   86.0442   98.8058  -46.0735 C   0  0  0  0  0  0  0  0  0  0  0  0
 27 28  1  0  0  0
 28 29  2  0  0  0
 28 33  1  0  0  0
 29 30  1  0  0  0
 30 31  2  0  0  0
 30 26  1  0  0  0
 31 32  1  0  0  0
 32 33  2  0  0  0
 26  1  1  0  0  0
  1  2  1  0  0  0
  1  5  1  0  0  0
  2  3  2  0  0  0
  2 10  1  0  0  0
  3  4  1  0  0  0
  3  6  1  0  0  0
  4  5  2  0  0  0
  5 14  1  0  0  0
 14 15  1  0  0  0
 14 19  1  0  0  0
 15 16  1  0  0  0
 16 17  1  0  0  0
 17 18  1  0  0  0
 17 20  1  0  0  0
 18 19  1  0  0  0
 20 21  1  0  0  0
 21 22  2  0  0  0
 21 23  1  0  0  0
  6  7  1  0  0  0
  6 12  1  0  0  0
  7  8  2  0  0  0
  7  9  1  0  0  0
  9 10  1  0  0  0
 10 11  2  0  0  0
 23 24  1  0  0  0
 23 25  1  0  0  0
  9 13  1  0  0  0
M  END
> <minimizedAffinity>
-6.62172

$$$$
1865


 29 32  0  0  0  0  0  0  0  0999 V2000
   90.2731   97.4862  -44.9082 N   0  0  0  0  0  0  0  0  0  0  0  0
   89.0984   97.3070  -45.7136 C   0  0  0  0  0  0  0  0  0  0  0  0
   89.0415   96.5887  -46.7658 O   0  0  0  0  0  0  0  0  0  0  0  0
   88.0264   98.0544  -45.1449 N   0  0  0  0  0  0  0  0  0  0  0  0
   88.6509   99.0626  -44.3176 C   0  0  0  0  0  0  0  0  0  0  0  0
   89.1176  100.1684  -45.2457 C   0  0  0  0  0  0  0  0  0  0  0  0
   90.1364  100.9814  -44.4551 C   0  0  0  0  0  0  0  0  0  0  0  0
   89.6074  101.2991  -43.1424 N   0  0  0  0  0  0  0  0  0  0  0  0
   88.2450  100.9640  -42.8221 C   0  0  0  0  0  0  0  0  0  0  0  0
   87.8043   99.6012  -43.2456 C   0  0  0  0  0  0  0  0  0  0  0  0
   90.4346  101.9425  -42.1857 C   0  0  0  0  0  0  0  0  0  0  0  0
   89.9660  102.2143  -41.0340 O   0  0  0  0  0  0  0  0  0  0  0  0
   89.8701   98.3552  -43.8531 C   0  0  0  0  0  0  0  0  0  0  0  0
   90.4897   98.4474  -42.7593 O   0  0  0  0  0  0  0  0  0  0  0  0
   87.0098   97.9102  -45.2915 H   0  0  0  0  0  0  0  0  0  0  0  0
   91.8137  102.3207  -42.4423 C   0  0  0  0  0  0  0  0  0  0  0  0
   92.1479  103.4437  -43.1080 N   0  0  0  0  0  0  0  0  0  0  0  0
   93.4453  103.7323  -43.3104 C   0  0  0  0  0  0  0  0  0  0  0  0
   94.4632  102.9189  -42.8604 C   0  0  0  0  0  0  0  0  0  0  0  0
   94.1346  101.7999  -42.1974 N   0  0  0  0  0  0  0  0  0  0  0  0
   92.8230  101.5036  -41.9898 C   0  0  0  0  0  0  0  0  0  0  0  0
   91.5863   96.9183  -45.1057 C   0  0  0  0  0  0  0  0  0  0  0  0
   91.5759   91.8200  -46.3157 Cl  0  0  0  0  0  0  0  0  0  0  0  0
   91.6759   93.1444  -45.1725 C   0  0  0  0  0  0  0  0  0  0  0  0
   91.5979   94.4684  -45.5516 C   0  0  0  0  0  0  0  0  0  0  0  0
   91.6758   95.5121  -44.6584 C   0  0  0  0  0  0  0  0  0  0  0  0
   91.8401   95.2471  -43.3182 C   0  0  0  0  0  0  0  0  0  0  0  0
   91.9210   93.9243  -42.9194 C   0  0  0  0  0  0  0  0  0  0  0  0
   91.8413   92.8874  -43.8260 C   0  0  0  0  0  0  0  0  0  0  0  0
 23 24  1  0  0  0
 24 25  2  0  0  0
 24 29  1  0  0  0
 25 26  1  0  0  0
 26 27  2  0  0  0
 26 22  1  0  0  0
 27 28  1  0  0  0
 28 29  2  0  0  0
 22  1  1  0  0  0
  1  2  1  0  0  0
  1 13  1  0  0  0
  2  3  2  0  0  0
  2  4  1  0  0  0
  4  5  1  0  0  0
  5  6  1  0  0  0
  5 10  1  0  0  0
  5 13  1  0  0  0
  6  7  1  0  0  0
  7  8  1  0  0  0
  8  9  1  0  0  0
  8 11  1  0  0  0
  9 10  1  0  0  0
 11 12  2  0  0  0
 11 16  1  0  0  0
 16 17  2  0  0  0
 16 21  1  0  0  0
 17 18  1  0  0  0
 18 19  2  0  0  0
 19 20  1  0  0  0
 20 21  2  0  0  0
 13 14  2  0  0  0
  4 15  1  0  0  0
M  END
> <minimizedAffinity>
-6.32041

$$$$
1871


 28 31  0  0  0  0  0  0  0  0999 V2000
   89.8619   97.9264  -46.0686 C   0  0  0  0  0  0  0  0  0  0  0  0
   91.0368   98.0817  -45.3033 N   0  0  0  0  0  0  0  0  0  0  0  0
   91.3680   99.4378  -45.1768 C   0  0  0  0  0  0  0  0  0  0  0  0
   92.3097  100.2243  -44.7164 C   0  0  0  0  0  0  0  0  0  0  0  0
   92.2087  101.6849  -44.8128 C   0  0  0  0  0  0  0  0  0  0  0  0
   90.9267  102.3175  -45.0970 C   0  0  0  0  0  0  0  0  0  0  0  0
   89.7934  101.3719  -45.4082 C   0  0  0  0  0  0  0  0  0  0  0  0
   90.2772  100.1167  -45.8610 N   0  0  0  0  0  0  0  0  0  0  0  0
   89.9664   99.1891  -46.9412 C   0  0  0  0  0  0  0  0  0  0  0  0
   88.7354   99.5865  -47.6418 C   0  0  0  0  0  0  0  0  0  0  0  0
   90.0037   96.8694  -46.9380 O   0  0  0  0  0  0  0  0  0  0  0  0
   91.8186   97.7684  -46.0392 H   0  0  0  0  0  0  0  0  0  0  0  0
   89.1914   96.3960  -47.1955 H   0  0  0  0  0  0  0  0  0  0  0  0
   84.5440   97.9213  -43.3047 Cl  0  0  0  0  0  0  0  0  0  0  0  0
   86.0876   97.8897  -44.1362 C   0  0  0  0  0  0  0  0  0  0  0  0
   86.3022   97.0908  -45.2505 C   0  0  0  0  0  0  0  0  0  0  0  0
   87.5570   97.1235  -45.8560 C   0  0  0  0  0  0  0  0  0  0  0  0
   88.5714   97.9142  -45.3837 C   0  0  0  0  0  0  0  0  0  0  0  0
   88.3625   98.7122  -44.2723 C   0  0  0  0  0  0  0  0  0  0  0  0
   87.1202   98.6806  -43.6717 C   0  0  0  0  0  0  0  0  0  0  0  0
   91.2844   97.1595  -44.2917 C   0  0  0  0  0  0  0  0  0  0  0  0
   91.4316   95.8342  -44.6671 C   0  0  0  0  0  0  0  0  0  0  0  0
   91.6674   94.8249  -43.7652 C   0  0  0  0  0  0  0  0  0  0  0  0
   91.7768   95.0723  -42.3930 C   0  0  0  0  0  0  0  0  0  0  0  0
   91.6257   96.3928  -42.0494 C   0  0  0  0  0  0  0  0  0  0  0  0
   91.3903   97.3961  -42.9567 C   0  0  0  0  0  0  0  0  0  0  0  0
   92.0181   94.0501  -41.4956 O   0  0  0  0  0  0  0  0  0  0  0  0
   93.2455   93.3666  -41.5360 C   0  0  0  0  0  0  0  0  0  0  0  0
 14 15  1  0  0  0
 15 16  2  0  0  0
 15 20  1  0  0  0
 16 17  1  0  0  0
 17 18  2  0  0  0
 18 19  1  0  0  0
 18  1  1  0  0  0
 19 20  2  0  0  0
  1  2  1  0  0  0
  1  9  1  0  0  0
  1 11  1  0  0  0
  2  3  1  0  0  0
  2 21  1  0  0  0
  3  4  2  0  0  0
  3  8  1  0  0  0
  4  5  1  0  0  0
  5  6  1  0  0  0
  6  7  1  0  0  0
  7  8  1  0  0  0
  8  9  1  0  0  0
  9 10  1  0  0  0
 21 22  2  0  0  0
 21 26  1  0  0  0
 22 23  1  0  0  0
 23 24  2  0  0  0
 24 25  1  0  0  0
 24 27  1  0  0  0
 25 26  2  0  0  0
 27 28  1  0  0  0
  2 12  1  0  0  0
 11 13  1  0  0  0
M  CHG 1   2   1
M  END
> <minimizedAffinity>
-6.53144

$$$$
1893


 28 31  0  0  0  0  0  0  0  0999 V2000
   91.6714  100.8508  -42.6504 N   0  0  0  0  0  0  0  0  0  0  0  0
   90.9817   99.7587  -43.0558 C   0  0  0  0  0  0  0  0  0  0  0  0
   89.9381   99.3373  -42.4919 O   0  0  0  0  0  0  0  0  0  0  0  0
   91.5782   99.1783  -44.1627 C   0  0  0  0  0  0  0  0  0  0  0  0
   92.6399   99.9200  -44.4352 C   0  0  0  0  0  0  0  0  0  0  0  0
   93.2187   99.3516  -45.5142 N   0  0  0  0  0  0  0  0  0  0  0  0
   92.5012   98.2788  -45.8745 N   0  0  0  0  0  0  0  0  0  0  0  0
   91.4806   98.1638  -45.0405 N   0  0  0  0  0  0  0  0  0  0  0  0
   92.6988  100.9432  -43.5120 C   0  0  0  0  0  0  0  0  0  0  0  0
   93.5929  101.8179  -43.5041 O   0  0  0  0  0  0  0  0  0  0  0  0
   94.0785   99.6947  -45.9807 H   0  0  0  0  0  0  0  0  0  0  0  0
   92.6769   97.6217  -46.6639 H   0  0  0  0  0  0  0  0  0  0  0  0
   90.3357  104.4298  -38.0736 Cl  0  0  0  0  0  0  0  0  0  0  0  0
   90.7515  103.3513  -39.4109 C   0  0  0  0  0  0  0  0  0  0  0  0
   91.6172  102.2939  -39.2249 C   0  0  0  0  0  0  0  0  0  0  0  0
   91.9044  101.4847  -40.3089 C   0  0  0  0  0  0  0  0  0  0  0  0
   91.3627  101.6921  -41.5601 C   0  0  0  0  0  0  0  0  0  0  0  0
   90.5002  102.7601  -41.7064 C   0  0  0  0  0  0  0  0  0  0  0  0
   90.1827  103.6007  -40.6434 C   0  0  0  0  0  0  0  0  0  0  0  0
   90.4513   97.1462  -45.0632 C   0  0  0  0  0  0  0  0  0  0  0  0
   90.9743   95.7848  -44.7891 C   0  0  0  0  0  0  0  0  0  0  0  0
   91.4161   95.3603  -43.5558 C   0  0  0  0  0  0  0  0  0  0  0  0
   91.9009   94.0922  -43.3048 C   0  0  0  0  0  0  0  0  0  0  0  0
   91.9531   93.1880  -44.3378 C   0  0  0  0  0  0  0  0  0  0  0  0
   91.5218   93.5691  -45.5868 C   0  0  0  0  0  0  0  0  0  0  0  0
   91.0399   94.8482  -45.8109 C   0  0  0  0  0  0  0  0  0  0  0  0
   92.3259   93.7635  -42.0115 O   0  0  0  0  0  0  0  0  0  0  0  0
   93.5293   93.0572  -41.7870 C   0  0  0  0  0  0  0  0  0  0  0  0
 13 14  1  0  0  0
 14 15  2  0  0  0
 14 19  1  0  0  0
 15 16  1  0  0  0
 16 17  2  0  0  0
 17 18  1  0  0  0
 17  1  1  0  0  0
 18 19  2  0  0  0
  1  2  1  0  0  0
  1  9  1  0  0  0
  2  3  2  0  0  0
  2  4  1  0  0  0
  4  5  2  0  0  0
  4  8  1  0  0  0
  5  6  1  0  0  0
  5  9  1  0  0  0
  6  7  1  0  0  0
  7  8  1  0  0  0
  8 20  1  0  0  0
 20 21  1  0  0  0
 21 22  2  0  0  0
 21 26  1  0  0  0
 22 23  1  0  0  0
 23 24  2  0  0  0
 23 27  1  0  0  0
 24 25  1  0  0  0
 25 26  2  0  0  0
 27 28  1  0  0  0
  9 10  2  0  0  0
  6 11  1  0  0  0
  7 12  1  0  0  0
M  END
> <minimizedAffinity>
-6.78152

$$$$
1894


 26 29  0  0  0  0  0  0  0  0999 V2000
   91.3950   96.2984  -43.9859 N   0  0  0  0  0  0  0  0  0  0  0  0
   91.1770   95.6737  -45.1650 C   0  0  0  0  0  0  0  0  0  0  0  0
   90.8777   96.2633  -46.2245 O   0  0  0  0  0  0  0  0  0  0  0  0
   91.3300   94.3036  -45.0361 C   0  0  0  0  0  0  0  0  0  0  0  0
   91.6482   94.0910  -43.7510 C   0  0  0  0  0  0  0  0  0  0  0  0
   91.7963   92.7593  -43.6373 N   0  0  0  0  0  0  0  0  0  0  0  0
   91.5763   92.1873  -44.8071 N   0  0  0  0  0  0  0  0  0  0  0  0
   91.2869   93.1266  -45.6817 N   0  0  0  0  0  0  0  0  0  0  0  0
   91.6844   95.3175  -43.1221 C   0  0  0  0  0  0  0  0  0  0  0  0
   91.9529   95.4895  -41.9015 O   0  0  0  0  0  0  0  0  0  0  0  0
   92.0453   92.2278  -42.7777 H   0  0  0  0  0  0  0  0  0  0  0  0
   91.6225   91.1465  -45.0164 H   0  0  0  0  0  0  0  0  0  0  0  0
   91.1016  102.1939  -42.8522 Cl  0  0  0  0  0  0  0  0  0  0  0  0
   91.1937  100.4669  -43.1872 C   0  0  0  0  0  0  0  0  0  0  0  0
   90.1590   99.6195  -42.8519 C   0  0  0  0  0  0  0  0  0  0  0  0
   90.2292   98.2643  -43.1138 C   0  0  0  0  0  0  0  0  0  0  0  0
   91.3308   97.6982  -43.7196 C   0  0  0  0  0  0  0  0  0  0  0  0
   92.3631   98.5561  -44.0529 C   0  0  0  0  0  0  0  0  0  0  0  0
   92.3015   99.9119  -43.7944 C   0  0  0  0  0  0  0  0  0  0  0  0
   90.9725   92.9481  -47.0798 C   0  0  0  0  0  0  0  0  0  0  0  0
   91.4421   91.6612  -47.6365 C   0  0  0  0  0  0  0  0  0  0  0  0
   90.6254   90.9454  -48.4771 C   0  0  0  0  0  0  0  0  0  0  0  0
   91.0807   89.7489  -48.9808 C   0  0  0  0  0  0  0  0  0  0  0  0
   92.3338   89.2595  -48.6588 C   0  0  0  0  0  0  0  0  0  0  0  0
   93.1531   89.9757  -47.8159 C   0  0  0  0  0  0  0  0  0  0  0  0
   92.6859   91.1631  -47.3242 C   0  0  0  0  0  0  0  0  0  0  0  0
 13 14  1  0  0  0
 14 15  2  0  0  0
 14 19  1  0  0  0
 15 16  1  0  0  0
 16 17  2  0  0  0
 17 18  1  0  0  0
 17  1  1  0  0  0
 18 19  2  0  0  0
  1  2  1  0  0  0
  1  9  1  0  0  0
  2  3  2  0  0  0
  2  4  1  0  0  0
  4  5  2  0  0  0
  4  8  1  0  0  0
  5  6  1  0  0  0
  5  9  1  0  0  0
  6  7  1  0  0  0
  7  8  1  0  0  0
  8 20  1  0  0  0
 20 21  1  0  0  0
 21 22  2  0  0  0
 21 26  1  0  0  0
 22 23  1  0  0  0
 23 24  2  0  0  0
 24 25  1  0  0  0
 25 26  2  0  0  0
  9 10  2  0  0  0
  6 11  1  0  0  0
  7 12  1  0  0  0
M  END
> <minimizedAffinity>
-7.35851

$$$$
1895


 32 35  0  0  0  0  0  0  0  0999 V2000
   89.8571  100.8199  -43.0343 N   0  0  0  0  0  0  0  0  0  0  0  0
   88.8300   99.9291  -43.4119 C   0  0  0  0  0  0  0  0  0  0  0  0
   87.5564  100.3454  -42.6466 C   0  0  0  0  0  0  0  0  0  0  0  0
   87.2010  101.6029  -43.2530 N   0  0  0  0  0  0  0  0  0  0  0  0
   88.1966  102.6607  -42.9734 C   0  0  0  0  0  0  0  0  0  0  0  0
   89.5948  102.1970  -43.0001 C   0  0  0  0  0  0  0  0  0  0  0  0
   86.0918  101.9292  -44.0309 C   0  0  0  0  0  0  0  0  0  0  0  0
   86.0958  103.1866  -44.4295 O   0  0  0  0  0  0  0  0  0  0  0  0
   91.4179  100.3836  -43.5721 S   0  0  0  0  0  0  0  0  0  0  0  0
   91.8546  101.0689  -44.8061 O   0  0  0  0  0  0  0  0  0  0  0  0
   92.3987  100.7029  -42.4692 O   0  0  0  0  0  0  0  0  0  0  0  0
   91.4149   98.6298  -43.8256 C   0  0  0  0  0  0  0  0  0  0  0  0
   91.2949   97.7359  -45.2702 S   0  0  0  0  0  0  0  0  0  0  0  0
   91.3699   96.1621  -44.6257 C   0  0  0  0  0  0  0  0  0  0  0  0
   91.4884   96.3810  -43.2782 C   0  0  0  0  0  0  0  0  0  0  0  0
   91.5110   97.6619  -42.8698 C   0  0  0  0  0  0  0  0  0  0  0  0
   91.3090   94.6164  -45.4869 Cl  0  0  0  0  0  0  0  0  0  0  0  0
   84.9388  101.2081  -44.5050 C   0  0  0  0  0  0  0  0  0  0  0  0
   84.9973   99.7786  -44.5440 N   0  0  0  0  0  0  0  0  0  0  0  0
   84.3988   98.8947  -43.5946 C   0  0  0  0  0  0  0  0  0  0  0  0
   83.7455   99.2940  -42.5716 O   0  0  0  0  0  0  0  0  0  0  0  0
   84.6641   97.5685  -43.9988 N   0  0  0  0  0  0  0  0  0  0  0  0
   85.0781   97.5933  -45.3931 C   0  0  0  0  0  0  0  0  0  0  0  0
   86.1387   96.6060  -45.7336 C   0  0  0  0  0  0  0  0  0  0  0  0
   85.9001   96.1510  -47.1775 C   0  0  0  0  0  0  0  0  0  0  0  0
   84.6855   95.2438  -47.1343 C   0  0  0  0  0  0  0  0  0  0  0  0
   83.5911   95.9184  -46.3439 C   0  0  0  0  0  0  0  0  0  0  0  0
   83.8276   97.4170  -46.2246 C   0  0  0  0  0  0  0  0  0  0  0  0
   87.5408   97.1683  -45.6980 C   0  0  0  0  0  0  0  0  0  0  0  0
   85.6350   98.9717  -45.5367 C   0  0  0  0  0  0  0  0  0  0  0  0
   86.4892   99.3509  -46.3610 O   0  0  0  0  0  0  0  0  0  0  0  0
   84.5855   96.7146  -43.4256 H   0  0  0  0  0  0  0  0  0  0  0  0
  9 10  2  0  0  0
  9 11  2  0  0  0
  9  1  1  0  0  0
  9 12  1  0  0  0
  1  2  1  0  0  0
  1  6  1  0  0  0
  2  3  1  0  0  0
  3  4  1  0  0  0
  4  5  1  0  0  0
  4  7  1  0  0  0
  5  6  1  0  0  0
  7  8  2  0  0  0
  7 18  1  0  0  0
 18 19  1  0  0  0
 19 20  1  0  0  0
 19 30  1  0  0  0
 20 21  2  0  0  0
 20 22  1  0  0  0
 22 23  1  0  0  0
 23 24  1  0  0  0
 23 28  1  0  0  0
 23 30  1  0  0  0
 24 25  1  0  0  0
 24 29  1  0  0  0
 25 26  1  0  0  0
 26 27  1  0  0  0
 27 28  1  0  0  0
 30 31  2  0  0  0
 12 13  1  0  0  0
 12 16  2  0  0  0
 13 14  1  0  0  0
 14 15  2  0  0  0
 14 17  1  0  0  0
 15 16  1  0  0  0
 22 32  1  0  0  0
M  END
> <minimizedAffinity>
-5.99753

$$$$
1906


 33 36  0  0  0  0  0  0  0  0999 V2000
   91.3512   99.1725  -42.9660 C   0  0  0  0  0  0  0  0  0  0  0  0
   92.3901   99.6122  -43.7992 O   0  0  0  0  0  0  0  0  0  0  0  0
   92.5021   98.9284  -44.9787 C   0  0  0  0  0  0  0  0  0  0  0  0
   91.3804   99.2002  -45.9606 C   0  0  0  0  0  0  0  0  0  0  0  0
   90.1705   99.2873  -45.1027 N   0  0  0  0  0  0  0  0  0  0  0  0
   90.2633   98.5830  -43.8826 C   0  0  0  0  0  0  0  0  0  0  0  0
   89.0991  100.0246  -45.5623 C   0  0  0  0  0  0  0  0  0  0  0  0
   89.1604  100.6195  -46.7167 O   0  0  0  0  0  0  0  0  0  0  0  0
   87.8658  100.2084  -44.8602 C   0  0  0  0  0  0  0  0  0  0  0  0
   87.6840  101.1226  -43.9070 N   0  0  0  0  0  0  0  0  0  0  0  0
   86.5255  101.3018  -43.2422 C   0  0  0  0  0  0  0  0  0  0  0  0
   85.4366  100.5005  -43.5466 C   0  0  0  0  0  0  0  0  0  0  0  0
   85.5793   99.5823  -44.4883 N   0  0  0  0  0  0  0  0  0  0  0  0
   86.7436   99.4207  -45.1383 C   0  0  0  0  0  0  0  0  0  0  0  0
   84.1872  100.7415  -42.7836 C   0  0  0  0  0  0  0  0  0  0  0  0
   91.9086   98.0095  -42.1960 C   0  0  0  0  0  0  0  0  0  0  0  0
   91.5439   96.7764  -42.4650 O   0  0  0  0  0  0  0  0  0  0  0  0
   91.6227   92.6196  -45.3938 Cl  0  0  0  0  0  0  0  0  0  0  0  0
   91.9065   93.4861  -43.8841 C   0  0  0  0  0  0  0  0  0  0  0  0
   91.5963   94.8164  -43.8034 C   0  0  0  0  0  0  0  0  0  0  0  0
   91.8069   95.5150  -42.6422 C   0  0  0  0  0  0  0  0  0  0  0  0
   92.3525   94.8110  -41.5507 C   0  0  0  0  0  0  0  0  0  0  0  0
   92.6537   93.4931  -41.6491 C   0  0  0  0  0  0  0  0  0  0  0  0
   92.4406   92.7978  -42.8107 C   0  0  0  0  0  0  0  0  0  0  0  0
   90.8705  100.3109  -42.1887 C   0  0  0  0  0  0  0  0  0  0  0  0
   91.4385  101.6334  -42.4571 C   0  0  0  0  0  0  0  0  0  0  0  0
   91.0289  102.3265  -43.4074 O   0  0  0  0  0  0  0  0  0  0  0  0
   92.4764  102.1740  -41.6453 N   0  0  0  0  0  0  0  0  0  0  0  0
   93.0206  101.4343  -40.5117 C   0  0  0  0  0  0  0  0  0  0  0  0
   93.0683  102.3907  -39.3389 C   0  0  0  0  0  0  0  0  0  0  0  0
   93.8503  103.4956  -39.6895 O   0  0  0  0  0  0  0  0  0  0  0  0
   93.1534  104.2517  -40.6311 C   0  0  0  0  0  0  0  0  0  0  0  0
   93.0434  103.4806  -41.9063 C   0  0  0  0  0  0  0  0  0  0  0  0
 18 19  1  0  0  0
 19 20  2  0  0  0
 19 24  1  0  0  0
 20 21  1  0  0  0
 21 22  2  0  0  0
 21 17  1  0  0  0
 22 23  1  0  0  0
 23 24  2  0  0  0
 17 16  1  0  0  0
 16  1  1  0  0  0
  1  2  1  0  0  0
  1  6  1  0  0  0
  1 25  1  0  0  0
  2  3  1  0  0  0
  3  4  1  0  0  0
  4  5  1  0  0  0
  5  6  1  0  0  0
  5  7  1  0  0  0
  7  8  2  0  0  0
  7  9  1  0  0  0
  9 10  2  0  0  0
  9 14  1  0  0  0
 10 11  1  0  0  0
 11 12  2  0  0  0
 12 13  1  0  0  0
 12 15  1  0  0  0
 13 14  2  0  0  0
 25 26  1  0  0  0
 26 27  2  0  0  0
 26 28  1  0  0  0
 28 29  1  0  0  0
 28 33  1  0  0  0
 29 30  1  0  0  0
 30 31  1  0  0  0
 31 32  1  0  0  0
 32 33  1  0  0  0
M  END
> <minimizedAffinity>
-6.35738

$$$$
1913


 29 32  0  0  0  0  0  0  0  0999 V2000
   91.3703   97.3410  -44.9435 N   0  0  0  0  0  0  0  0  0  0  0  0
   90.0742   97.9749  -44.8663 C   0  0  0  0  0  0  0  0  0  0  0  0
   90.0594   99.3743  -45.4201 C   0  0  0  0  0  0  0  0  0  0  0  0
   91.2465  100.1202  -44.9177 C   0  0  0  0  0  0  0  0  0  0  0  0
   92.4947   99.4918  -45.4344 C   0  0  0  0  0  0  0  0  0  0  0  0
   92.5540   98.0090  -45.3893 C   0  0  0  0  0  0  0  0  0  0  0  0
   91.3283   92.4435  -46.2879 Cl  0  0  0  0  0  0  0  0  0  0  0  0
   91.4479   93.6965  -45.0963 C   0  0  0  0  0  0  0  0  0  0  0  0
   91.6107   93.3799  -43.8103 N   0  0  0  0  0  0  0  0  0  0  0  0
   91.7080   94.3053  -42.8515 C   0  0  0  0  0  0  0  0  0  0  0  0
   91.8766   94.2273  -41.5374 N   0  0  0  0  0  0  0  0  0  0  0  0
   91.9077   95.4951  -41.1065 C   0  0  0  0  0  0  0  0  0  0  0  0
   91.7650   96.3693  -42.1111 N   0  0  0  0  0  0  0  0  0  0  0  0
   91.6338   95.6512  -43.2381 C   0  0  0  0  0  0  0  0  0  0  0  0
   91.4668   95.9889  -44.5548 C   0  0  0  0  0  0  0  0  0  0  0  0
   91.3761   94.9779  -45.4682 N   0  0  0  0  0  0  0  0  0  0  0  0
   91.7567   97.4156  -42.0741 H   0  0  0  0  0  0  0  0  0  0  0  0
   91.2141  100.3292  -43.4692 C   0  0  0  0  0  0  0  0  0  0  0  0
   92.0200   99.6857  -42.7537 O   0  0  0  0  0  0  0  0  0  0  0  0
   90.3206  101.2183  -42.8371 N   0  0  0  0  0  0  0  0  0  0  0  0
   89.6396  101.7634  -43.4417 H   0  0  0  0  0  0  0  0  0  0  0  0
   90.2775  101.4343  -41.4094 C   0  0  0  0  0  0  0  0  0  0  0  0
   90.6282  102.8361  -41.0008 C   0  0  0  0  0  0  0  0  0  0  0  0
   91.9858  102.9071  -40.4909 N   0  0  0  0  0  0  0  0  0  0  0  0
   92.8815  103.5689  -41.3784 C   0  0  0  0  0  0  0  0  0  0  0  0
   93.8450  102.5761  -41.9970 C   0  0  0  0  0  0  0  0  0  0  0  0
   94.6087  102.0472  -40.9866 O   0  0  0  0  0  0  0  0  0  0  0  0
   93.9240  101.4919  -39.9385 C   0  0  0  0  0  0  0  0  0  0  0  0
   92.4469  101.6820  -39.9435 C   0  0  0  0  0  0  0  0  0  0  0  0
  7  8  1  0  0  0
  8  9  2  0  0  0
  8 16  1  0  0  0
  9 10  1  0  0  0
 10 11  1  0  0  0
 10 14  2  0  0  0
 11 12  2  0  0  0
 12 13  1  0  0  0
 13 14  1  0  0  0
 14 15  1  0  0  0
 15 16  2  0  0  0
 15  1  1  0  0  0
  1  2  1  0  0  0
  1  6  1  0  0  0
  2  3  1  0  0  0
  3  4  1  0  0  0
  4  5  1  0  0  0
  4 18  1  0  0  0
  5  6  1  0  0  0
 18 19  2  0  0  0
 18 20  1  0  0  0
 20 22  1  0  0  0
 22 23  1  0  0  0
 23 24  1  0  0  0
 24 25  1  0  0  0
 24 29  1  0  0  0
 25 26  1  0  0  0
 26 27  1  0  0  0
 27 28  1  0  0  0
 28 29  1  0  0  0
 13 17  1  0  0  0
 20 21  1  0  0  0
M  END
> <minimizedAffinity>
-6.30306

$$$$
1927


 36 39  0  0  0  0  0  0  0  0999 V2000
   91.3448   95.4419  -45.0903 C   0  0  0  0  0  0  0  0  0  0  0  0
   91.5781   99.9813  -42.5107 C   0  0  0  0  0  0  0  0  0  0  0  0
   92.0688   98.5491  -42.3118 C   0  0  0  0  0  0  0  0  0  0  0  0
   90.9345   97.7006  -42.8484 C   0  0  0  0  0  0  0  0  0  0  0  0
   90.8263   97.8552  -44.2562 N   0  0  0  0  0  0  0  0  0  0  0  0
   90.6134   99.2441  -44.7408 C   0  0  0  0  0  0  0  0  0  0  0  0
   91.3318  100.2785  -43.9426 C   0  0  0  0  0  0  0  0  0  0  0  0
   90.9149   96.8438  -45.2037 C   0  0  0  0  0  0  0  0  0  0  0  0
   90.5497   97.1646  -46.4183 O   0  0  0  0  0  0  0  0  0  0  0  0
   90.2997   99.9790  -41.8666 O   0  0  0  0  0  0  0  0  0  0  0  0
   89.7119  100.5552  -42.4154 H   0  0  0  0  0  0  0  0  0  0  0  0
   95.3229  103.9268  -39.8081 Cl  0  0  0  0  0  0  0  0  0  0  0  0
   94.2020  102.7715  -40.5750 C   0  0  0  0  0  0  0  0  0  0  0  0
   94.0746  102.7101  -41.9416 C   0  0  0  0  0  0  0  0  0  0  0  0
   93.2027  101.8000  -42.5389 C   0  0  0  0  0  0  0  0  0  0  0  0
   92.4239  100.9119  -41.7853 C   0  0  0  0  0  0  0  0  0  0  0  0
   92.5787  101.0020  -40.4227 C   0  0  0  0  0  0  0  0  0  0  0  0
   93.4377  101.8991  -39.8177 C   0  0  0  0  0  0  0  0  0  0  0  0
   90.9760   94.5594  -46.1082 N   0  0  0  0  0  0  0  0  0  0  0  0
   91.3601   93.1851  -46.1821 C   0  0  0  0  0  0  0  0  0  0  0  0
   92.1068   92.7915  -45.2476 O   0  0  0  0  0  0  0  0  0  0  0  0
   90.3086   94.8500  -46.8718 H   0  0  0  0  0  0  0  0  0  0  0  0
   90.9068   92.3414  -47.2535 C   0  0  0  0  0  0  0  0  0  0  0  0
   91.3454   91.2052  -47.6852 C   0  0  0  0  0  0  0  0  0  0  0  0
   92.4733   90.5330  -47.1202 N   0  0  0  0  0  0  0  0  0  0  0  0
   92.9169   89.2817  -47.5968 N   0  0  0  0  0  0  0  0  0  0  0  0
   92.2574   88.6351  -48.6614 C   0  0  0  0  0  0  0  0  0  0  0  0
   92.6867   87.5119  -49.0565 O   0  0  0  0  0  0  0  0  0  0  0  0
   91.1076   89.2813  -49.2636 C   0  0  0  0  0  0  0  0  0  0  0  0
   90.6691   90.5020  -48.8043 C   0  0  0  0  0  0  0  0  0  0  0  0
   89.5635   91.0322  -49.4052 C   0  0  0  0  0  0  0  0  0  0  0  0
   88.8806   90.3886  -50.4440 C   0  0  0  0  0  0  0  0  0  0  0  0
   89.3561   89.1770  -50.8646 C   0  0  0  0  0  0  0  0  0  0  0  0
   90.4806   88.5960  -50.2839 C   0  0  0  0  0  0  0  0  0  0  0  0
   93.0106   90.9570  -46.3264 H   0  0  0  0  0  0  0  0  0  0  0  0
   93.7433   88.8125  -47.1582 H   0  0  0  0  0  0  0  0  0  0  0  0
 12 13  1  0  0  0
 13 14  2  0  0  0
 13 18  1  0  0  0
 14 15  1  0  0  0
 15 16  2  0  0  0
 16 17  1  0  0  0
 16  2  1  0  0  0
 17 18  2  0  0  0
  2  3  1  0  0  0
  2  7  1  0  0  0
  2 10  1  0  0  0
  3  4  1  0  0  0
  4  5  1  0  0  0
  5  6  1  0  0  0
  5  8  1  0  0  0
  6  7  1  0  0  0
  8  9  2  0  0  0
  8  1  1  0  0  0
  1 19  1  0  0  0
 19 20  1  0  0  0
 20 21  2  0  0  0
 20 23  1  0  0  0
 23 24  2  0  0  0
 24 25  1  0  0  0
 24 30  1  0  0  0
 25 26  1  0  0  0
 26 27  1  0  0  0
 27 28  2  0  0  0
 27 29  1  0  0  0
 29 30  2  0  0  0
 29 34  1  0  0  0
 30 31  1  0  0  0
 31 32  2  0  0  0
 32 33  1  0  0  0
 33 34  2  0  0  0
 19 22  1  0  0  0
 25 35  1  0  0  0
 26 36  1  0  0  0
 10 11  1  0  0  0
M  END
> <minimizedAffinity>
-8.67202

$$$$
1928


 28 31  0  0  0  0  0  0  0  0999 V2000
   91.1247   96.4919  -44.8692 N   0  0  0  0  0  0  0  0  0  0  0  0
   91.0263   95.5124  -45.7918 C   0  0  0  0  0  0  0  0  0  0  0  0
   91.2704   94.2045  -45.4578 C   0  0  0  0  0  0  0  0  0  0  0  0
   91.6423   93.8752  -44.0774 C   0  0  0  0  0  0  0  0  0  0  0  0
   91.8190   92.5368  -44.0373 N   0  0  0  0  0  0  0  0  0  0  0  0
   91.5968   92.0307  -45.2331 N   0  0  0  0  0  0  0  0  0  0  0  0
   91.2649   92.9790  -46.1215 C   0  0  0  0  0  0  0  0  0  0  0  0
   90.9925   92.8329  -47.3373 O   0  0  0  0  0  0  0  0  0  0  0  0
   91.7297   94.9096  -43.1698 C   0  0  0  0  0  0  0  0  0  0  0  0
   91.4636   96.1720  -43.6219 C   0  0  0  0  0  0  0  0  0  0  0  0
   91.6689   91.0213  -45.4570 H   0  0  0  0  0  0  0  0  0  0  0  0
   92.0980   94.6200  -41.7843 C   0  0  0  0  0  0  0  0  0  0  0  0
   91.2339   94.5581  -40.8987 O   0  0  0  0  0  0  0  0  0  0  0  0
   93.4187   94.4088  -41.4255 O   0  0  0  0  0  0  0  0  0  0  0  0
   94.0114   93.1344  -41.3435 C   0  0  0  0  0  0  0  0  0  0  0  0
   90.8535   97.8700  -45.2823 C   0  0  0  0  0  0  0  0  0  0  0  0
   90.8090  100.0637  -42.3910 C   0  0  0  0  0  0  0  0  0  0  0  0
   89.5399   99.6449  -42.5077 N   0  0  0  0  0  0  0  0  0  0  0  0
   89.4236   98.8416  -43.5222 O   0  0  0  0  0  0  0  0  0  0  0  0
   90.5947   98.7080  -44.0952 C   0  0  0  0  0  0  0  0  0  0  0  0
   91.4740   99.4716  -43.3933 N   0  0  0  0  0  0  0  0  0  0  0  0
   92.8703  103.8347  -38.1671 Cl  0  0  0  0  0  0  0  0  0  0  0  0
   92.2752  102.7323  -39.3968 C   0  0  0  0  0  0  0  0  0  0  0  0
   93.0429  101.6706  -39.8401 C   0  0  0  0  0  0  0  0  0  0  0  0
   92.5567  100.8139  -40.8096 C   0  0  0  0  0  0  0  0  0  0  0  0
   91.3110  100.9726  -41.3700 C   0  0  0  0  0  0  0  0  0  0  0  0
   90.5409  102.0307  -40.9323 C   0  0  0  0  0  0  0  0  0  0  0  0
   91.0178  102.8958  -39.9603 C   0  0  0  0  0  0  0  0  0  0  0  0
 22 23  1  0  0  0
 23 24  2  0  0  0
 23 28  1  0  0  0
 24 25  1  0  0  0
 25 26  2  0  0  0
 26 27  1  0  0  0
 26 17  1  0  0  0
 27 28  2  0  0  0
 17 18  2  0  0  0
 17 21  1  0  0  0
 18 19  1  0  0  0
 19 20  1  0  0  0
 20 21  2  0  0  0
 20 16  1  0  0  0
 16  1  1  0  0  0
  1  2  1  0  0  0
  1 10  1  0  0  0
  2  3  2  0  0  0
  3  4  1  0  0  0
  3  7  1  0  0  0
  4  5  2  0  0  0
  4  9  1  0  0  0
  5  6  1  0  0  0
  6  7  1  0  0  0
  7  8  2  0  0  0
  9 10  2  0  0  0
  9 12  1  0  0  0
 12 13  2  0  0  0
 12 14  1  0  0  0
 14 15  1  0  0  0
  6 11  1  0  0  0
M  END
> <minimizedAffinity>
-6.99216

$$$$
1930


 34 37  0  0  0  0  0  0  0  0999 V2000
   91.9355   99.3080  -43.7363 C   0  0  0  0  0  0  0  0  0  0  0  0
   93.0174   99.1393  -44.3554 O   0  0  0  0  0  0  0  0  0  0  0  0
   91.6966  100.5255  -43.0729 N   0  0  0  0  0  0  0  0  0  0  0  0
   92.6649  101.6226  -43.0711 C   0  0  0  0  0  0  0  0  0  0  0  0
   93.0965  101.7747  -41.6261 C   0  0  0  0  0  0  0  0  0  0  0  0
   91.9025  101.9908  -40.7261 C   0  0  0  0  0  0  0  0  0  0  0  0
   90.6178  102.0860  -41.5575 C   0  0  0  0  0  0  0  0  0  0  0  0
   90.4714  100.7915  -42.3394 C   0  0  0  0  0  0  0  0  0  0  0  0
   91.6781  100.8873  -39.8670 O   0  0  0  0  0  0  0  0  0  0  0  0
   92.0247  103.1904  -39.8359 C   0  0  0  0  0  0  0  0  0  0  0  0
   91.0082  101.1926  -39.2073 H   0  0  0  0  0  0  0  0  0  0  0  0
   94.1661  102.6866  -41.4221 N   0  0  0  0  0  0  0  0  0  0  0  0
   94.2709  103.8399  -42.1456 C   0  0  0  0  0  0  0  0  0  0  0  0
   95.3091  104.7258  -41.9497 C   0  0  0  0  0  0  0  0  0  0  0  0
   96.2685  104.4475  -41.0017 C   0  0  0  0  0  0  0  0  0  0  0  0
   97.2462  105.2425  -40.7898 O   0  0  0  0  0  0  0  0  0  0  0  0
   96.1588  103.3099  -40.2938 N   0  0  0  0  0  0  0  0  0  0  0  0
   95.1133  102.4636  -40.5234 C   0  0  0  0  0  0  0  0  0  0  0  0
   95.0634  101.4204  -39.8341 O   0  0  0  0  0  0  0  0  0  0  0  0
   95.4522  105.9875  -42.7180 C   0  0  0  0  0  0  0  0  0  0  0  0
   96.8786  103.0965  -39.5787 H   0  0  0  0  0  0  0  0  0  0  0  0
   90.9385   98.2101  -43.7231 C   0  0  0  0  0  0  0  0  0  0  0  0
   91.4424   96.9519  -43.0950 C   0  0  0  0  0  0  0  0  0  0  0  0
   90.7235   91.6342  -48.6409 Cl  0  0  0  0  0  0  0  0  0  0  0  0
   91.0485   92.4536  -47.1209 C   0  0  0  0  0  0  0  0  0  0  0  0
   90.8378   93.7964  -46.9371 C   0  0  0  0  0  0  0  0  0  0  0  0
   91.0969   94.4353  -45.7344 C   0  0  0  0  0  0  0  0  0  0  0  0
   90.9938   95.6927  -45.2727 N   0  0  0  0  0  0  0  0  0  0  0  0
   91.3911   95.7705  -43.9911 C   0  0  0  0  0  0  0  0  0  0  0  0
   91.7541   94.4985  -43.6563 N   0  0  0  0  0  0  0  0  0  0  0  0
   91.5851   93.6716  -44.6947 C   0  0  0  0  0  0  0  0  0  0  0  0
   91.8111   92.3188  -44.8364 C   0  0  0  0  0  0  0  0  0  0  0  0
   91.5376   91.7193  -46.0612 C   0  0  0  0  0  0  0  0  0  0  0  0
   92.2508   94.1622  -42.3233 C   0  0  0  0  0  0  0  0  0  0  0  0
 24 25  1  0  0  0
 25 26  2  0  0  0
 25 33  1  0  0  0
 26 27  1  0  0  0
 27 28  1  0  0  0
 27 31  2  0  0  0
 28 29  2  0  0  0
 29 30  1  0  0  0
 29 23  1  0  0  0
 30 31  1  0  0  0
 30 34  1  0  0  0
 31 32  1  0  0  0
 32 33  2  0  0  0
 23 22  1  0  0  0
 22  1  1  0  0  0
  1  2  2  0  0  0
  1  3  1  0  0  0
  3  4  1  0  0  0
  3  8  1  0  0  0
  4  5  1  0  0  0
  5  6  1  0  0  0
  5 12  1  0  0  0
  6  7  1  0  0  0
  6  9  1  0  0  0
  6 10  1  0  0  0
  7  8  1  0  0  0
 12 13  1  0  0  0
 12 18  1  0  0  0
 13 14  2  0  0  0
 14 15  1  0  0  0
 14 20  1  0  0  0
 15 16  2  0  0  0
 15 17  1  0  0  0
 17 18  1  0  0  0
 18 19  2  0  0  0
  9 11  1  0  0  0
 17 21  1  0  0  0
M  END
> <minimizedAffinity>
-7.28012

$$$$
1936


 25 28  0  0  0  0  0  0  0  0999 V2000
   90.0412  100.1297  -43.6399 N   0  0  0  0  0  0  0  0  0  0  0  0
   88.6936  100.0570  -43.2385 C   0  0  0  0  0  0  0  0  0  0  0  0
   88.4487   99.5594  -42.1263 O   0  0  0  0  0  0  0  0  0  0  0  0
   90.2699  100.5445  -44.5733 H   0  0  0  0  0  0  0  0  0  0  0  0
   87.5819  100.5411  -44.0753 C   0  0  0  0  0  0  0  0  0  0  0  0
   86.9146  101.7809  -43.6232 C   0  0  0  0  0  0  0  0  0  0  0  0
   87.8440  101.9238  -44.7629 C   0  0  0  0  0  0  0  0  0  0  0  0
   86.9189   99.6381  -44.9678 N   0  0  0  0  0  0  0  0  0  0  0  0
   85.5964   99.2830  -44.6337 C   0  0  0  0  0  0  0  0  0  0  0  0
   85.6447   97.9404  -43.9143 C   0  0  0  0  0  0  0  0  0  0  0  0
   86.0075   96.9476  -44.7932 O   0  0  0  0  0  0  0  0  0  0  0  0
   86.8364   97.3476  -45.8117 C   0  0  0  0  0  0  0  0  0  0  0  0
   87.6758   98.5543  -45.4439 C   0  0  0  0  0  0  0  0  0  0  0  0
   91.1336   99.6497  -42.8135 C   0  0  0  0  0  0  0  0  0  0  0  0
   91.7514   92.3425  -45.2668 Cl  0  0  0  0  0  0  0  0  0  0  0  0
   91.7041   93.7609  -44.2222 C   0  0  0  0  0  0  0  0  0  0  0  0
   91.4757   95.0332  -44.7187 C   0  0  0  0  0  0  0  0  0  0  0  0
   91.4318   96.1675  -43.9376 C   0  0  0  0  0  0  0  0  0  0  0  0
   91.2356   97.4803  -44.1526 N   0  0  0  0  0  0  0  0  0  0  0  0
   91.2996   98.1667  -42.9962 C   0  0  0  0  0  0  0  0  0  0  0  0
   91.5427   97.2506  -42.0451 N   0  0  0  0  0  0  0  0  0  0  0  0
   91.6323   96.0096  -42.5631 C   0  0  0  0  0  0  0  0  0  0  0  0
   91.8605   94.7516  -42.0563 C   0  0  0  0  0  0  0  0  0  0  0  0
   91.9004   93.6340  -42.8503 C   0  0  0  0  0  0  0  0  0  0  0  0
   91.6469   97.4758  -41.0298 H   0  0  0  0  0  0  0  0  0  0  0  0
 15 16  1  0  0  0
 16 17  2  0  0  0
 16 24  1  0  0  0
 17 18  1  0  0  0
 18 19  1  0  0  0
 18 22  2  0  0  0
 19 20  2  0  0  0
 20 21  1  0  0  0
 20 14  1  0  0  0
 21 22  1  0  0  0
 22 23  1  0  0  0
 23 24  2  0  0  0
 14  1  1  0  0  0
  1  2  1  0  0  0
  2  3  2  0  0  0
  2  5  1  0  0  0
  5  6  1  0  0  0
  5  7  1  0  0  0
  5  8  1  0  0  0
  6  7  1  0  0  0
  8  9  1  0  0  0
  8 13  1  0  0  0
  9 10  1  0  0  0
 10 11  1  0  0  0
 11 12  1  0  0  0
 12 13  1  0  0  0
 21 25  1  0  0  0
  1  4  1  0  0  0
M  END
> <minimizedAffinity>
-5.72255

$$$$
1937


 31 34  0  0  0  0  0  0  0  0999 V2000
   88.5372  100.0425  -44.2752 N   0  0  0  0  0  0  0  0  0  0  0  0
   88.3705  101.2935  -44.8548 C   0  0  0  0  0  0  0  0  0  0  0  0
   88.9651  102.3612  -43.8414 C   0  0  0  0  0  0  0  0  0  0  0  0
   89.9853  101.5764  -43.1983 N   0  0  0  0  0  0  0  0  0  0  0  0
   89.3984  100.7347  -42.1152 C   0  0  0  0  0  0  0  0  0  0  0  0
   88.2214  100.1037  -42.8044 C   0  0  0  0  0  0  0  0  0  0  0  0
   91.3204  101.6444  -43.4630 C   0  0  0  0  0  0  0  0  0  0  0  0
   92.0314  100.6173  -43.1899 O   0  0  0  0  0  0  0  0  0  0  0  0
   92.0905  102.7990  -44.0235 C   0  0  0  0  0  0  0  0  0  0  0  0
   91.7556  103.9133  -43.1328 O   0  0  0  0  0  0  0  0  0  0  0  0
   91.6239  103.4503  -41.7914 C   0  0  0  0  0  0  0  0  0  0  0  0
   92.4482  102.4309  -41.3942 C   0  0  0  0  0  0  0  0  0  0  0  0
   92.3883  101.9072  -40.1073 C   0  0  0  0  0  0  0  0  0  0  0  0
   91.4508  102.4760  -39.2529 C   0  0  0  0  0  0  0  0  0  0  0  0
   90.6136  103.5073  -39.6177 C   0  0  0  0  0  0  0  0  0  0  0  0
   90.7063  104.0011  -40.9038 C   0  0  0  0  0  0  0  0  0  0  0  0
   93.3714  101.9052  -42.3050 O   0  0  0  0  0  0  0  0  0  0  0  0
   93.5584  102.5058  -43.6113 C   0  0  0  0  0  0  0  0  0  0  0  0
   87.8974   98.8494  -44.7752 C   0  0  0  0  0  0  0  0  0  0  0  0
   90.2991   98.1489  -44.6588 N   0  0  0  0  0  0  0  0  0  0  0  0
   89.0173   97.8677  -45.1364 C   0  0  0  0  0  0  0  0  0  0  0  0
   88.7646   96.8936  -45.7962 O   0  0  0  0  0  0  0  0  0  0  0  0
   90.4289   99.1588  -44.2939 H   0  0  0  0  0  0  0  0  0  0  0  0
   91.4389   97.3061  -44.6994 C   0  0  0  0  0  0  0  0  0  0  0  0
   91.3259   94.4724  -45.4669 Cl  0  0  0  0  0  0  0  0  0  0  0  0
   91.5879   95.0045  -43.8233 C   0  0  0  0  0  0  0  0  0  0  0  0
   91.5076   96.3652  -43.5507 C   0  0  0  0  0  0  0  0  0  0  0  0
   91.6657   96.7360  -42.2416 C   0  0  0  0  0  0  0  0  0  0  0  0
   91.9060   95.7932  -41.2491 C   0  0  0  0  0  0  0  0  0  0  0  0
   91.9878   94.4122  -41.5220 C   0  0  0  0  0  0  0  0  0  0  0  0
   91.8082   94.0847  -42.8508 C   0  0  0  0  0  0  0  0  0  0  0  0
 25 26  1  0  0  0
 26 27  2  0  0  0
 26 31  1  0  0  0
 27 28  1  0  0  0
 27 24  1  0  0  0
 28 29  2  0  0  0
 29 30  1  0  0  0
 30 31  2  0  0  0
 24 20  1  0  0  0
 20 21  1  0  0  0
 21 22  2  0  0  0
 21 19  1  0  0  0
 19  1  1  0  0  0
  1  2  1  0  0  0
  1  6  1  0  0  0
  2  3  1  0  0  0
  3  4  1  0  0  0
  4  5  1  0  0  0
  4  7  1  0  0  0
  5  6  1  0  0  0
  7  8  2  0  0  0
  7  9  1  0  0  0
  9 10  1  0  0  0
  9 18  1  0  0  0
 10 11  1  0  0  0
 11 12  2  0  0  0
 11 16  1  0  0  0
 12 13  1  0  0  0
 12 17  1  0  0  0
 13 14  2  0  0  0
 14 15  1  0  0  0
 15 16  2  0  0  0
 17 18  1  0  0  0
 20 23  1  0  0  0
M  END
> <minimizedAffinity>
-6.15749

$$$$
1939


 28 31  0  0  0  0  0  0  0  0999 V2000
   90.8055   97.6742  -44.6339 N   0  0  0  0  0  0  0  0  0  0  0  0
   91.0992   96.3552  -44.4234 C   0  0  0  0  0  0  0  0  0  0  0  0
   91.5021   96.1680  -43.1298 C   0  0  0  0  0  0  0  0  0  0  0  0
   91.4441   97.3769  -42.5870 N   0  0  0  0  0  0  0  0  0  0  0  0
   91.0199   98.3215  -43.4876 C   0  0  0  0  0  0  0  0  0  0  0  0
   91.8565   94.9548  -42.6679 N   0  0  0  0  0  0  0  0  0  0  0  0
   91.8184   93.8801  -43.4986 C   0  0  0  0  0  0  0  0  0  0  0  0
   92.1562   92.7719  -43.0252 O   0  0  0  0  0  0  0  0  0  0  0  0
   91.4295   94.0134  -44.7781 N   0  0  0  0  0  0  0  0  0  0  0  0
   91.0791   95.2277  -45.2277 C   0  0  0  0  0  0  0  0  0  0  0  0
   90.7266   95.2998  -46.4256 O   0  0  0  0  0  0  0  0  0  0  0  0
   92.2708   94.8462  -41.2803 C   0  0  0  0  0  0  0  0  0  0  0  0
   91.4179   93.1587  -45.3728 H   0  0  0  0  0  0  0  0  0  0  0  0
   90.8882   99.6864  -43.1497 N   0  0  0  0  0  0  0  0  0  0  0  0
   89.5833  100.1496  -42.6971 C   0  0  0  0  0  0  0  0  0  0  0  0
   89.9297  101.2037  -41.6297 C   0  0  0  0  0  0  0  0  0  0  0  0
   91.1424  100.8633  -40.9197 N   0  0  0  0  0  0  0  0  0  0  0  0
   92.3346  100.9050  -41.7389 C   0  0  0  0  0  0  0  0  0  0  0  0
   91.8692  100.7080  -43.1742 C   0  0  0  0  0  0  0  0  0  0  0  0
   91.2546  101.5654  -40.1694 H   0  0  0  0  0  0  0  0  0  0  0  0
   90.3559   98.1755  -45.9057 C   0  0  0  0  0  0  0  0  0  0  0  0
   84.4663   99.4156  -46.2035 Cl  0  0  0  0  0  0  0  0  0  0  0  0
   86.1698   99.0224  -46.1262 C   0  0  0  0  0  0  0  0  0  0  0  0
   87.0800  100.0157  -46.3310 C   0  0  0  0  0  0  0  0  0  0  0  0
   88.4502   99.7420  -46.2774 C   0  0  0  0  0  0  0  0  0  0  0  0
   88.9372   98.5020  -46.0246 C   0  0  0  0  0  0  0  0  0  0  0  0
   87.9736   97.5029  -45.8178 C   0  0  0  0  0  0  0  0  0  0  0  0
   86.6214   97.7490  -45.8663 C   0  0  0  0  0  0  0  0  0  0  0  0
 22 23  1  0  0  0
 23 24  2  0  0  0
 23 28  1  0  0  0
 24 25  1  0  0  0
 25 26  2  0  0  0
 26 27  1  0  0  0
 26 21  1  0  0  0
 27 28  2  0  0  0
 21  1  1  0  0  0
  1  2  1  0  0  0
  1  5  1  0  0  0
  2  3  2  0  0  0
  2 10  1  0  0  0
  3  4  1  0  0  0
  3  6  1  0  0  0
  4  5  2  0  0  0
  5 14  1  0  0  0
 14 15  1  0  0  0
 14 19  1  0  0  0
 15 16  1  0  0  0
 16 17  1  0  0  0
 17 18  1  0  0  0
 18 19  1  0  0  0
  6  7  1  0  0  0
  6 12  1  0  0  0
  7  8  2  0  0  0
  7  9  1  0  0  0
  9 10  1  0  0  0
 10 11  2  0  0  0
 17 20  1  0  0  0
  9 13  1  0  0  0
M  END
> <minimizedAffinity>
-6.42201

$$$$
1940


 30 33  0  0  0  0  0  0  0  0999 V2000
   90.2585   98.0862  -44.2705 C   0  0  0  0  0  0  0  0  0  0  0  0
   91.5030   98.6706  -43.7548 N   0  0  0  0  0  0  0  0  0  0  0  0
   92.3092   98.9055  -44.8949 C   0  0  0  0  0  0  0  0  0  0  0  0
   93.5623   98.9127  -44.9367 O   0  0  0  0  0  0  0  0  0  0  0  0
   91.3931   99.1403  -46.0269 C   0  0  0  0  0  0  0  0  0  0  0  0
   91.6914   99.3847  -47.2179 O   0  0  0  0  0  0  0  0  0  0  0  0
   90.0604   99.0211  -45.4520 C   0  0  0  0  0  0  0  0  0  0  0  0
   88.9802   99.5926  -45.8576 C   0  0  0  0  0  0  0  0  0  0  0  0
   87.7697   99.3961  -45.1953 O   0  0  0  0  0  0  0  0  0  0  0  0
   91.2139   92.6795  -46.7659 Cl  0  0  0  0  0  0  0  0  0  0  0  0
   90.9743   94.2358  -46.0121 C   0  0  0  0  0  0  0  0  0  0  0  0
   91.6621   94.6257  -44.8832 C   0  0  0  0  0  0  0  0  0  0  0  0
   91.4217   95.8715  -44.3373 C   0  0  0  0  0  0  0  0  0  0  0  0
   90.5178   96.7545  -44.8719 C   0  0  0  0  0  0  0  0  0  0  0  0
   89.8305   96.3434  -46.0143 C   0  0  0  0  0  0  0  0  0  0  0  0
   90.0656   95.1022  -46.5637 C   0  0  0  0  0  0  0  0  0  0  0  0
   88.9907  100.4642  -47.0283 C   0  0  0  0  0  0  0  0  0  0  0  0
   89.3727  101.6804  -47.1938 O   0  0  0  0  0  0  0  0  0  0  0  0
   89.1967  102.0621  -48.4263 C   0  0  0  0  0  0  0  0  0  0  0  0
   88.6567  101.0279  -49.1473 C   0  0  0  0  0  0  0  0  0  0  0  0
   88.5186   99.9957  -48.2617 C   0  0  0  0  0  0  0  0  0  0  0  0
   91.8157   98.9313  -42.3569 C   0  0  0  0  0  0  0  0  0  0  0  0
   91.8269  100.3828  -41.9891 C   0  0  0  0  0  0  0  0  0  0  0  0
   90.7180  100.8472  -41.2285 N   0  0  0  0  0  0  0  0  0  0  0  0
   90.8470  102.1322  -40.6200 C   0  0  0  0  0  0  0  0  0  0  0  0
   90.9825  103.2645  -41.6123 C   0  0  0  0  0  0  0  0  0  0  0  0
   89.9035  103.2862  -42.4895 O   0  0  0  0  0  0  0  0  0  0  0  0
   89.6763  102.0434  -43.0715 C   0  0  0  0  0  0  0  0  0  0  0  0
   89.5023  100.9377  -42.0633 C   0  0  0  0  0  0  0  0  0  0  0  0
   90.5284  100.1556  -40.4702 H   0  0  0  0  0  0  0  0  0  0  0  0
 10 11  1  0  0  0
 11 12  2  0  0  0
 11 16  1  0  0  0
 12 13  1  0  0  0
 13 14  2  0  0  0
 14 15  1  0  0  0
 14  1  1  0  0  0
 15 16  2  0  0  0
  1  2  1  0  0  0
  1  7  1  0  0  0
  2  3  1  0  0  0
  2 22  1  0  0  0
  3  4  2  0  0  0
  3  5  1  0  0  0
  5  6  2  0  0  0
  5  7  1  0  0  0
  7  8  2  0  0  0
  8  9  1  0  0  0
  8 17  1  0  0  0
 17 18  1  0  0  0
 17 21  2  0  0  0
 18 19  1  0  0  0
 19 20  2  0  0  0
 20 21  1  0  0  0
 22 23  1  0  0  0
 23 24  1  0  0  0
 24 25  1  0  0  0
 24 29  1  0  0  0
 25 26  1  0  0  0
 26 27  1  0  0  0
 27 28  1  0  0  0
 28 29  1  0  0  0
 24 30  1  0  0  0
M  CHG 1   9  -1
M  CHG 1  24   1
M  END
> <minimizedAffinity>
-5.57879

$$$$
1941


 22 25  0  0  0  0  0  0  0  0999 V2000
   91.1456   97.9015  -44.1158 N   0  0  0  0  0  0  0  0  0  0  0  0
   90.0768   98.5896  -43.4499 C   0  0  0  0  0  0  0  0  0  0  0  0
   88.8491   98.3446  -43.7143 O   0  0  0  0  0  0  0  0  0  0  0  0
   90.6369   99.5499  -42.4853 C   0  0  0  0  0  0  0  0  0  0  0  0
   92.0498   99.7424  -42.9810 C   0  0  0  0  0  0  0  0  0  0  0  0
   92.2290  101.1831  -43.4082 C   0  0  0  0  0  0  0  0  0  0  0  0
   92.1387  102.0051  -42.1141 C   0  0  0  0  0  0  0  0  0  0  0  0
   90.7361  101.8058  -41.6165 C   0  0  0  0  0  0  0  0  0  0  0  0
   90.3410  102.4012  -40.6507 O   0  0  0  0  0  0  0  0  0  0  0  0
   89.8873  100.8344  -42.3901 C   0  0  0  0  0  0  0  0  0  0  0  0
   89.7168  101.4584  -43.7798 C   0  0  0  0  0  0  0  0  0  0  0  0
   91.1141  101.6469  -44.3045 C   0  0  0  0  0  0  0  0  0  0  0  0
   91.2884  102.1450  -45.3824 O   0  0  0  0  0  0  0  0  0  0  0  0
   92.2706   98.7666  -44.0470 C   0  0  0  0  0  0  0  0  0  0  0  0
   93.2844   98.7033  -44.7784 O   0  0  0  0  0  0  0  0  0  0  0  0
   91.0910   92.4246  -46.5722 Cl  0  0  0  0  0  0  0  0  0  0  0  0
   91.1013   94.0336  -45.8598 C   0  0  0  0  0  0  0  0  0  0  0  0
   91.8385   94.3125  -44.7354 C   0  0  0  0  0  0  0  0  0  0  0  0
   91.8410   95.5737  -44.1842 C   0  0  0  0  0  0  0  0  0  0  0  0
   91.1110   96.6160  -44.7243 C   0  0  0  0  0  0  0  0  0  0  0  0
   90.3788   96.3170  -45.8520 C   0  0  0  0  0  0  0  0  0  0  0  0
   90.3622   95.0634  -46.4184 C   0  0  0  0  0  0  0  0  0  0  0  0
 16 17  1  0  0  0
 17 18  2  0  0  0
 17 22  1  0  0  0
 18 19  1  0  0  0
 19 20  2  0  0  0
 20 21  1  0  0  0
 20  1  1  0  0  0
 21 22  2  0  0  0
  1  2  1  0  0  0
  1 14  1  0  0  0
  2  3  2  0  0  0
  2  4  1  0  0  0
  4  5  1  0  0  0
  4 10  1  0  0  0
  5  6  1  0  0  0
  5 14  1  0  0  0
  6  7  1  0  0  0
  6 12  1  0  0  0
  7  8  1  0  0  0
  8  9  2  0  0  0
  8 10  1  0  0  0
 10 11  1  0  0  0
 11 12  1  0  0  0
 12 13  2  0  0  0
 14 15  2  0  0  0
M  END
> <minimizedAffinity>
-5.83692

$$$$
1943


 34 38  0  0  0  0  0  0  0  0999 V2000
   87.8460   99.8401  -44.5944 N   0  0  0  0  0  0  0  0  0  0  0  0
   88.7057   99.1171  -43.6866 C   0  0  0  0  0  0  0  0  0  0  0  0
   88.8180   99.3237  -42.4748 O   0  0  0  0  0  0  0  0  0  0  0  0
   89.4380   98.0801  -44.4254 C   0  0  0  0  0  0  0  0  0  0  0  0
   90.9208   98.0047  -44.1492 C   0  0  0  0  0  0  0  0  0  0  0  0
   91.5930   98.8331  -45.1209 N   0  0  0  0  0  0  0  0  0  0  0  0
   90.5644   99.6387  -45.7485 C   0  0  0  0  0  0  0  0  0  0  0  0
   89.4233   98.6447  -45.8267 C   0  0  0  0  0  0  0  0  0  0  0  0
   88.0921   99.2755  -45.8930 C   0  0  0  0  0  0  0  0  0  0  0  0
   87.3802   99.2781  -46.9005 O   0  0  0  0  0  0  0  0  0  0  0  0
   91.2713   96.5525  -44.3240 C   0  0  0  0  0  0  0  0  0  0  0  0
   91.5721   96.0492  -43.0902 C   0  0  0  0  0  0  0  0  0  0  0  0
   91.8849   94.6938  -42.9014 C   0  0  0  0  0  0  0  0  0  0  0  0
   91.8980   93.8301  -43.9767 C   0  0  0  0  0  0  0  0  0  0  0  0
   91.5997   94.3341  -45.2143 C   0  0  0  0  0  0  0  0  0  0  0  0
   91.2931   95.6683  -45.3828 C   0  0  0  0  0  0  0  0  0  0  0  0
   91.5969   97.0772  -42.1131 N   0  0  0  0  0  0  0  0  0  0  0  0
   91.3007   98.2940  -42.7812 C   0  0  0  0  0  0  0  0  0  0  0  0
   91.3746   99.4135  -42.2321 O   0  0  0  0  0  0  0  0  0  0  0  0
   92.2867   99.4268  -44.6073 H   0  0  0  0  0  0  0  0  0  0  0  0
   91.8007   96.9587  -41.0736 H   0  0  0  0  0  0  0  0  0  0  0  0
   83.9259  104.1820  -43.4152 Cl  0  0  0  0  0  0  0  0  0  0  0  0
   85.0785  102.9029  -43.7530 C   0  0  0  0  0  0  0  0  0  0  0  0
   86.3175  103.2156  -44.2574 C   0  0  0  0  0  0  0  0  0  0  0  0
   87.2192  102.1931  -44.5289 C   0  0  0  0  0  0  0  0  0  0  0  0
   86.9409  100.8705  -44.3184 C   0  0  0  0  0  0  0  0  0  0  0  0
   85.6955  100.5886  -43.8123 C   0  0  0  0  0  0  0  0  0  0  0  0
   84.7680  101.5968  -43.5300 C   0  0  0  0  0  0  0  0  0  0  0  0
   90.9687  100.1158  -47.1188 C   0  0  0  0  0  0  0  0  0  0  0  0
   92.4087  100.2717  -47.2994 C   0  0  0  0  0  0  0  0  0  0  0  0
   93.0325   99.5339  -48.0857 O   0  0  0  0  0  0  0  0  0  0  0  0
   93.1082  101.2669  -46.5778 N   0  0  0  0  0  0  0  0  0  0  0  0
   92.6734  101.8896  -45.8548 H   0  0  0  0  0  0  0  0  0  0  0  0
   94.1432  101.4574  -46.7176 H   0  0  0  0  0  0  0  0  0  0  0  0
 22 23  1  0  0  0
 23 24  2  0  0  0
 23 28  1  0  0  0
 24 25  1  0  0  0
 25 26  2  0  0  0
 26 27  1  0  0  0
 26  1  1  0  0  0
 27 28  2  0  0  0
  1  2  1  0  0  0
  1  9  1  0  0  0
  2  3  2  0  0  0
  2  4  1  0  0  0
  4  5  1  0  0  0
  4  8  1  0  0  0
  5  6  1  0  0  0
  5 11  1  0  0  0
  5 18  1  0  0  0
  6  7  1  0  0  0
  7  8  1  0  0  0
  7 29  1  0  0  0
  8  9  1  0  0  0
  9 10  2  0  0  0
 29 30  1  0  0  0
 30 31  2  0  0  0
 30 32  1  0  0  0
 11 12  1  0  0  0
 11 16  2  0  0  0
 12 13  2  0  0  0
 12 17  1  0  0  0
 13 14  1  0  0  0
 14 15  2  0  0  0
 15 16  1  0  0  0
 17 18  1  0  0  0
 18 19  2  0  0  0
  6 20  1  0  0  0
 32 33  1  0  0  0
 32 34  1  0  0  0
 17 21  1  0  0  0
M  END
> <minimizedAffinity>
-6.77458

$$$$
1945


 24 27  0  0  0  0  0  0  0  0999 V2000
   90.9118   91.8823  -47.8234 Cl  0  0  0  0  0  0  0  0  0  0  0  0
   91.1550   92.8971  -46.4156 C   0  0  0  0  0  0  0  0  0  0  0  0
   90.8018   94.2271  -46.4097 C   0  0  0  0  0  0  0  0  0  0  0  0
   91.0020   95.0255  -45.2803 C   0  0  0  0  0  0  0  0  0  0  0  0
   91.5680   94.4420  -44.1565 C   0  0  0  0  0  0  0  0  0  0  0  0
   91.9256   93.1149  -44.1470 C   0  0  0  0  0  0  0  0  0  0  0  0
   91.7254   92.3425  -45.2624 C   0  0  0  0  0  0  0  0  0  0  0  0
   91.7969   95.2445  -42.9417 C   0  0  0  0  0  0  0  0  0  0  0  0
   92.2942   94.9593  -41.7867 N   0  0  0  0  0  0  0  0  0  0  0  0
   92.3146   96.0912  -40.9012 C   0  0  0  0  0  0  0  0  0  0  0  0
   91.7214   97.2024  -41.7108 C   0  0  0  0  0  0  0  0  0  0  0  0
   91.4168   96.6060  -42.9839 N   0  0  0  0  0  0  0  0  0  0  0  0
   90.8383   97.1750  -44.1515 C   0  0  0  0  0  0  0  0  0  0  0  0
   90.4907   98.3884  -44.2093 O   0  0  0  0  0  0  0  0  0  0  0  0
   90.6137   96.3933  -45.3389 N   0  0  0  0  0  0  0  0  0  0  0  0
   90.0193   96.9976  -46.5232 C   0  0  0  0  0  0  0  0  0  0  0  0
   88.5433   96.8817  -46.4988 C   0  0  0  0  0  0  0  0  0  0  0  0
   87.9861   96.2199  -47.4083 O   0  0  0  0  0  0  0  0  0  0  0  0
   87.7363   97.4788  -45.5010 N   0  0  0  0  0  0  0  0  0  0  0  0
   88.2131   98.0228  -44.7538 H   0  0  0  0  0  0  0  0  0  0  0  0
   86.2991   97.3498  -45.5001 C   0  0  0  0  0  0  0  0  0  0  0  0
   85.7396   97.8194  -44.1834 C   0  0  0  0  0  0  0  0  0  0  0  0
   84.2656   97.8483  -43.9836 C   0  0  0  0  0  0  0  0  0  0  0  0
   84.9950   99.1214  -44.1854 C   0  0  0  0  0  0  0  0  0  0  0  0
  1  2  1  0  0  0
  2  3  2  0  0  0
  2  7  1  0  0  0
  3  4  1  0  0  0
  4  5  2  0  0  0
  4 15  1  0  0  0
  5  6  1  0  0  0
  5  8  1  0  0  0
  6  7  2  0  0  0
  8  9  2  0  0  0
  8 12  1  0  0  0
  9 10  1  0  0  0
 10 11  1  0  0  0
 11 12  1  0  0  0
 12 13  1  0  0  0
 13 14  2  0  0  0
 13 15  1  0  0  0
 15 16  1  0  0  0
 16 17  1  0  0  0
 17 18  2  0  0  0
 17 19  1  0  0  0
 19 21  1  0  0  0
 21 22  1  0  0  0
 22 23  1  0  0  0
 22 24  1  0  0  0
 23 24  1  0  0  0
 19 20  1  0  0  0
M  END
> <minimizedAffinity>
-5.87189

$$$$
1956


 35 38  0  0  0  0  0  0  0  0999 V2000
   88.4167   98.4548  -44.6637 C   0  0  0  0  0  0  0  0  0  0  0  0
   89.6503   98.6923  -45.0769 C   0  0  0  0  0  0  0  0  0  0  0  0
   90.8352   98.9559  -44.1822 C   0  0  0  0  0  0  0  0  0  0  0  0
   91.8609   99.4671  -45.0448 N   0  0  0  0  0  0  0  0  0  0  0  0
   91.5067   99.2857  -46.4080 C   0  0  0  0  0  0  0  0  0  0  0  0
   92.2219   99.4926  -47.3992 O   0  0  0  0  0  0  0  0  0  0  0  0
   90.1080   98.7977  -46.4257 C   0  0  0  0  0  0  0  0  0  0  0  0
   89.4651   98.5348  -47.4692 O   0  0  0  0  0  0  0  0  0  0  0  0
   88.2203   98.4605  -43.2622 O   0  0  0  0  0  0  0  0  0  0  0  0
   83.7154   97.5458  -48.3242 Cl  0  0  0  0  0  0  0  0  0  0  0  0
   85.0816   97.8383  -47.2724 C   0  0  0  0  0  0  0  0  0  0  0  0
   85.4385   99.0936  -46.8414 C   0  0  0  0  0  0  0  0  0  0  0  0
   86.5263   99.2698  -46.0119 C   0  0  0  0  0  0  0  0  0  0  0  0
   87.3177   98.2012  -45.5685 C   0  0  0  0  0  0  0  0  0  0  0  0
   86.9359   96.9579  -46.0139 C   0  0  0  0  0  0  0  0  0  0  0  0
   85.8314   96.7752  -46.8568 C   0  0  0  0  0  0  0  0  0  0  0  0
   91.1805   97.6554  -43.5464 C   0  0  0  0  0  0  0  0  0  0  0  0
   91.4743   97.6026  -42.2142 C   0  0  0  0  0  0  0  0  0  0  0  0
   91.7774   96.4029  -41.6364 C   0  0  0  0  0  0  0  0  0  0  0  0
   91.7969   95.2316  -42.3621 C   0  0  0  0  0  0  0  0  0  0  0  0
   91.5002   95.2831  -43.7115 C   0  0  0  0  0  0  0  0  0  0  0  0
   91.1925   96.5040  -44.2932 C   0  0  0  0  0  0  0  0  0  0  0  0
   92.1072   94.0136  -41.7661 O   0  0  0  0  0  0  0  0  0  0  0  0
   93.4705   93.7736  -41.3885 C   0  0  0  0  0  0  0  0  0  0  0  0
   93.9177   92.4432  -41.9892 C   0  0  0  0  0  0  0  0  0  0  0  0
   95.1952   92.0385  -41.2676 C   0  0  0  0  0  0  0  0  0  0  0  0
   93.0960  100.1028  -44.5977 C   0  0  0  0  0  0  0  0  0  0  0  0
   92.7751  101.2887  -43.7550 C   0  0  0  0  0  0  0  0  0  0  0  0
   93.3864  101.1828  -42.4199 N   0  0  0  0  0  0  0  0  0  0  0  0
   92.3322  101.1319  -41.4544 C   0  0  0  0  0  0  0  0  0  0  0  0
   92.8387  101.4179  -40.0426 C   0  0  0  0  0  0  0  0  0  0  0  0
   93.4414  102.6878  -40.0939 O   0  0  0  0  0  0  0  0  0  0  0  0
   94.6063  102.5577  -40.8209 C   0  0  0  0  0  0  0  0  0  0  0  0
   94.2551  102.3308  -42.2776 C   0  0  0  0  0  0  0  0  0  0  0  0
   93.9634  100.3042  -42.3499 H   0  0  0  0  0  0  0  0  0  0  0  0
 10 11  1  0  0  0
 11 12  2  0  0  0
 11 16  1  0  0  0
 12 13  1  0  0  0
 13 14  2  0  0  0
 14 15  1  0  0  0
 14  1  1  0  0  0
 15 16  2  0  0  0
  1  2  2  0  0  0
  1  9  1  0  0  0
  2  3  1  0  0  0
  2  7  1  0  0  0
  3  4  1  0  0  0
  3 17  1  0  0  0
  4  5  1  0  0  0
  4 27  1  0  0  0
  5  6  2  0  0  0
  5  7  1  0  0  0
  7  8  2  0  0  0
 27 28  1  0  0  0
 28 29  1  0  0  0
 29 30  1  0  0  0
 29 34  1  0  0  0
 30 31  1  0  0  0
 31 32  1  0  0  0
 32 33  1  0  0  0
 33 34  1  0  0  0
 17 18  2  0  0  0
 17 22  1  0  0  0
 18 19  1  0  0  0
 19 20  2  0  0  0
 20 21  1  0  0  0
 20 23  1  0  0  0
 21 22  2  0  0  0
 23 24  1  0  0  0
 24 25  1  0  0  0
 25 26  1  0  0  0
 29 35  1  0  0  0
M  CHG 1   9  -1
M  CHG 1  29   1
M  END
> <minimizedAffinity>
-6.32888

$$$$
1957


 36 40  0  0  0  0  0  0  0  0999 V2000
   91.4890   98.1509  -43.2324 C   0  0  0  0  0  0  0  0  0  0  0  0
   92.5579   98.9765  -42.6852 N   0  0  0  0  0  0  0  0  0  0  0  0
   92.0734  100.3425  -42.6900 C   0  0  0  0  0  0  0  0  0  0  0  0
   90.6041  100.1689  -42.4349 C   0  0  0  0  0  0  0  0  0  0  0  0
   90.2231   98.9191  -43.1633 C   0  0  0  0  0  0  0  0  0  0  0  0
   89.7257   99.3588  -44.4960 C   0  0  0  0  0  0  0  0  0  0  0  0
   89.5467   98.6339  -45.5033 O   0  0  0  0  0  0  0  0  0  0  0  0
   89.4917  100.7807  -44.3945 N   0  0  0  0  0  0  0  0  0  0  0  0
   89.7517  101.1903  -43.0680 C   0  0  0  0  0  0  0  0  0  0  0  0
   89.3436  102.2343  -42.5028 O   0  0  0  0  0  0  0  0  0  0  0  0
   92.7187  101.1656  -41.6382 C   0  0  0  0  0  0  0  0  0  0  0  0
   93.3949  102.1729  -42.2847 C   0  0  0  0  0  0  0  0  0  0  0  0
   94.0949  103.1031  -41.5284 C   0  0  0  0  0  0  0  0  0  0  0  0
   94.0927  102.9933  -40.1579 C   0  0  0  0  0  0  0  0  0  0  0  0
   93.4141  101.9833  -39.4974 C   0  0  0  0  0  0  0  0  0  0  0  0
   92.7236  101.0656  -40.2611 C   0  0  0  0  0  0  0  0  0  0  0  0
   93.2444  102.0628  -43.7117 N   0  0  0  0  0  0  0  0  0  0  0  0
   92.4337  100.9306  -43.9680 C   0  0  0  0  0  0  0  0  0  0  0  0
   92.1173  100.5498  -45.1069 O   0  0  0  0  0  0  0  0  0  0  0  0
   93.4157   98.8706  -43.2375 H   0  0  0  0  0  0  0  0  0  0  0  0
   93.6808  102.7329  -44.3852 H   0  0  0  0  0  0  0  0  0  0  0  0
   91.4956   96.8824  -42.4223 C   0  0  0  0  0  0  0  0  0  0  0  0
   92.4812   96.8329  -41.4711 O   0  0  0  0  0  0  0  0  0  0  0  0
   92.2642   97.4979  -40.7687 H   0  0  0  0  0  0  0  0  0  0  0  0
   91.7081   91.9148  -45.9026 Cl  0  0  0  0  0  0  0  0  0  0  0  0
   91.6520   93.3558  -44.9013 C   0  0  0  0  0  0  0  0  0  0  0  0
   91.3962   94.6067  -45.4284 C   0  0  0  0  0  0  0  0  0  0  0  0
   91.3547   95.7252  -44.6378 C   0  0  0  0  0  0  0  0  0  0  0  0
   91.5683   95.6531  -43.2621 C   0  0  0  0  0  0  0  0  0  0  0  0
   91.8230   94.4147  -42.7259 C   0  0  0  0  0  0  0  0  0  0  0  0
   91.8593   93.3085  -43.5410 C   0  0  0  0  0  0  0  0  0  0  0  0
   89.0765  101.6275  -45.4738 C   0  0  0  0  0  0  0  0  0  0  0  0
   87.6526  102.0407  -45.4657 C   0  0  0  0  0  0  0  0  0  0  0  0
   86.6385  100.9520  -45.4261 C   0  0  0  0  0  0  0  0  0  0  0  0
   86.1321  100.7169  -44.1546 O   0  0  0  0  0  0  0  0  0  0  0  0
   86.1030   99.3271  -43.9140 C   0  0  0  0  0  0  0  0  0  0  0  0
 25 26  1  0  0  0
 26 27  2  0  0  0
 26 31  1  0  0  0
 27 28  1  0  0  0
 28 29  2  0  0  0
 29 30  1  0  0  0
 29 22  1  0  0  0
 30 31  2  0  0  0
 22 23  1  0  0  0
 22  1  1  0  0  0
  1  2  1  0  0  0
  1  5  1  0  0  0
  2  3  1  0  0  0
  3  4  1  0  0  0
  3 11  1  0  0  0
  3 18  1  0  0  0
  4  5  1  0  0  0
  4  9  1  0  0  0
  5  6  1  0  0  0
  6  7  2  0  0  0
  6  8  1  0  0  0
  8  9  1  0  0  0
  8 32  1  0  0  0
  9 10  2  0  0  0
 32 33  1  0  0  0
 33 34  1  0  0  0
 34 35  1  0  0  0
 35 36  1  0  0  0
 11 12  1  0  0  0
 11 16  2  0  0  0
 12 13  2  0  0  0
 12 17  1  0  0  0
 13 14  1  0  0  0
 14 15  2  0  0  0
 15 16  1  0  0  0
 17 18  1  0  0  0
 18 19  2  0  0  0
 23 24  1  0  0  0
  2 20  1  0  0  0
 17 21  1  0  0  0
M  END
> <minimizedAffinity>
-7.18645

$$$$
1958


 28 31  0  0  0  0  0  0  0  0999 V2000
   90.5132   98.8208  -44.6356 C   0  0  0  0  0  0  0  0  0  0  0  0
   91.0912   98.5961  -45.7550 O   0  0  0  0  0  0  0  0  0  0  0  0
   89.1865   99.2690  -44.5642 N   0  0  0  0  0  0  0  0  0  0  0  0
   88.5352   99.5218  -43.3182 C   0  0  0  0  0  0  0  0  0  0  0  0
   87.0402   99.3736  -43.3585 C   0  0  0  0  0  0  0  0  0  0  0  0
   86.6466   98.4625  -44.4602 C   0  0  0  0  0  0  0  0  0  0  0  0
   87.3116   98.4898  -45.6720 C   0  0  0  0  0  0  0  0  0  0  0  0
   86.9601   97.6763  -46.6740 N   0  0  0  0  0  0  0  0  0  0  0  0
   85.9495   96.7869  -46.5722 C   0  0  0  0  0  0  0  0  0  0  0  0
   85.2951   96.7563  -45.3864 N   0  0  0  0  0  0  0  0  0  0  0  0
   85.6107   97.5532  -44.3511 C   0  0  0  0  0  0  0  0  0  0  0  0
   84.9195   97.4962  -43.1495 O   0  0  0  0  0  0  0  0  0  0  0  0
   88.4454   99.4824  -45.7761 C   0  0  0  0  0  0  0  0  0  0  0  0
   84.9519   96.6736  -42.5416 H   0  0  0  0  0  0  0  0  0  0  0  0
   85.6217   95.9525  -47.6545 N   0  0  0  0  0  0  0  0  0  0  0  0
   84.5681   94.9882  -47.5416 C   0  0  0  0  0  0  0  0  0  0  0  0
   84.1001   94.6939  -48.9742 C   0  0  0  0  0  0  0  0  0  0  0  0
   85.1088   94.1393  -49.7215 O   0  0  0  0  0  0  0  0  0  0  0  0
   86.3251   94.7624  -49.6505 C   0  0  0  0  0  0  0  0  0  0  0  0
   86.3431   96.0582  -48.8877 C   0  0  0  0  0  0  0  0  0  0  0  0
   91.3284   98.5801  -43.4019 C   0  0  0  0  0  0  0  0  0  0  0  0
   92.1627   92.7118  -42.2843 Cl  0  0  0  0  0  0  0  0  0  0  0  0
   91.9193   94.4121  -42.6193 C   0  0  0  0  0  0  0  0  0  0  0  0
   91.6737   94.8513  -43.9162 C   0  0  0  0  0  0  0  0  0  0  0  0
   91.4835   96.1929  -44.1669 C   0  0  0  0  0  0  0  0  0  0  0  0
   91.5289   97.1412  -43.1676 C   0  0  0  0  0  0  0  0  0  0  0  0
   91.7715   96.7140  -41.8805 C   0  0  0  0  0  0  0  0  0  0  0  0
   91.9611   95.3739  -41.6280 C   0  0  0  0  0  0  0  0  0  0  0  0
 22 23  1  0  0  0
 23 24  2  0  0  0
 23 28  1  0  0  0
 24 25  1  0  0  0
 25 26  2  0  0  0
 26 27  1  0  0  0
 26 21  1  0  0  0
 27 28  2  0  0  0
 21  1  1  0  0  0
  1  2  2  0  0  0
  1  3  1  0  0  0
  3  4  1  0  0  0
  3 13  1  0  0  0
  4  5  1  0  0  0
  5  6  1  0  0  0
  6  7  2  0  0  0
  6 11  1  0  0  0
  7  8  1  0  0  0
  7 13  1  0  0  0
  8  9  2  0  0  0
  9 10  1  0  0  0
  9 15  1  0  0  0
 10 11  2  0  0  0
 11 12  1  0  0  0
 15 16  1  0  0  0
 15 20  1  0  0  0
 16 17  1  0  0  0
 17 18  1  0  0  0
 18 19  1  0  0  0
 19 20  1  0  0  0
 12 14  1  0  0  0
M  END
> <minimizedAffinity>
-6.32354

$$$$
1960


 28 31  0  0  0  0  0  0  0  0999 V2000
   92.0273  100.9307  -42.3997 C   0  0  0  0  0  0  0  0  0  0  0  0
   92.9973  101.2638  -43.1303 O   0  0  0  0  0  0  0  0  0  0  0  0
   90.7235  101.1232  -42.8832 N   0  0  0  0  0  0  0  0  0  0  0  0
   90.4849  101.7038  -44.2163 C   0  0  0  0  0  0  0  0  0  0  0  0
   89.2934  100.9897  -44.8360 C   0  0  0  0  0  0  0  0  0  0  0  0
   89.2539   99.6638  -44.2525 N   0  0  0  0  0  0  0  0  0  0  0  0
   88.8191   99.6066  -42.8673 C   0  0  0  0  0  0  0  0  0  0  0  0
   89.5111  100.7803  -42.1531 C   0  0  0  0  0  0  0  0  0  0  0  0
   89.6301   98.5075  -44.9838 C   0  0  0  0  0  0  0  0  0  0  0  0
   89.2279   98.3576  -46.2983 C   0  0  0  0  0  0  0  0  0  0  0  0
   89.5927   97.2296  -46.9748 N   0  0  0  0  0  0  0  0  0  0  0  0
   90.3141   96.2687  -46.4314 N   0  0  0  0  0  0  0  0  0  0  0  0
   90.7465   96.3515  -45.1351 C   0  0  0  0  0  0  0  0  0  0  0  0
   90.3802   97.4789  -44.4643 C   0  0  0  0  0  0  0  0  0  0  0  0
   91.5130   95.2850  -44.6157 N   0  0  0  0  0  0  0  0  0  0  0  0
   92.0274   94.2431  -45.4847 C   0  0  0  0  0  0  0  0  0  0  0  0
   91.8056   92.8659  -44.8577 C   0  0  0  0  0  0  0  0  0  0  0  0
   92.1899   92.8425  -43.5317 O   0  0  0  0  0  0  0  0  0  0  0  0
   91.3858   93.7325  -42.8362 C   0  0  0  0  0  0  0  0  0  0  0  0
   91.8242   95.1583  -43.2153 C   0  0  0  0  0  0  0  0  0  0  0  0
   92.3376  100.3562  -41.0768 C   0  0  0  0  0  0  0  0  0  0  0  0
   93.6562  104.6655  -37.0680 Cl  0  0  0  0  0  0  0  0  0  0  0  0
   93.2853  103.4232  -38.2241 C   0  0  0  0  0  0  0  0  0  0  0  0
   91.9630  103.1447  -38.5738 C   0  0  0  0  0  0  0  0  0  0  0  0
   91.6752  102.1539  -39.4946 C   0  0  0  0  0  0  0  0  0  0  0  0
   92.6918  101.4138  -40.0928 C   0  0  0  0  0  0  0  0  0  0  0  0
   93.9885  101.6831  -39.7528 C   0  0  0  0  0  0  0  0  0  0  0  0
   94.2768  102.6832  -38.8246 C   0  0  0  0  0  0  0  0  0  0  0  0
 22 23  1  0  0  0
 23 24  2  0  0  0
 23 28  1  0  0  0
 24 25  1  0  0  0
 25 26  2  0  0  0
 26 27  1  0  0  0
 26 21  1  0  0  0
 27 28  2  0  0  0
 21  1  1  0  0  0
  1  2  2  0  0  0
  1  3  1  0  0  0
  3  4  1  0  0  0
  3  8  1  0  0  0
  4  5  1  0  0  0
  5  6  1  0  0  0
  6  7  1  0  0  0
  6  9  1  0  0  0
  7  8  1  0  0  0
  9 10  2  0  0  0
  9 14  1  0  0  0
 10 11  1  0  0  0
 11 12  2  0  0  0
 12 13  1  0  0  0
 13 14  2  0  0  0
 13 15  1  0  0  0
 15 16  1  0  0  0
 15 20  1  0  0  0
 16 17  1  0  0  0
 17 18  1  0  0  0
 18 19  1  0  0  0
 19 20  1  0  0  0
M  END
> <minimizedAffinity>
-6.47312

$$$$
1966


 27 30  0  0  0  0  0  0  0  0999 V2000
   91.8190   94.3961  -43.6620 C   0  0  0  0  0  0  0  0  0  0  0  0
   92.1935   93.6411  -42.6824 O   0  0  0  0  0  0  0  0  0  0  0  0
   91.6458   95.7538  -43.5652 N   0  0  0  0  0  0  0  0  0  0  0  0
   91.9948   95.7187  -42.2439 H   0  0  0  0  0  0  0  0  0  0  0  0
   90.1593   95.0111  -46.2440 F   0  0  0  0  0  0  0  0  0  0  0  0
   90.8757   93.8844  -46.0102 C   0  0  0  0  0  0  0  0  0  0  0  0
   90.9431   92.8650  -46.9200 N   0  0  0  0  0  0  0  0  0  0  0  0
   91.7248   91.9336  -46.3511 C   0  0  0  0  0  0  0  0  0  0  0  0
   92.1209   92.3627  -45.1417 N   0  0  0  0  0  0  0  0  0  0  0  0
   91.6094   93.5835  -44.8902 C   0  0  0  0  0  0  0  0  0  0  0  0
   91.9574   90.7853  -47.0677 C   0  0  0  0  0  0  0  0  0  0  0  0
   91.4167   90.5709  -48.3369 C   0  0  0  0  0  0  0  0  0  0  0  0
   90.6244   91.5441  -48.8848 C   0  0  0  0  0  0  0  0  0  0  0  0
   90.4038   92.6965  -48.1388 C   0  0  0  0  0  0  0  0  0  0  0  0
   89.9124   91.3430  -50.4855 Cl  0  0  0  0  0  0  0  0  0  0  0  0
   91.4725   97.1032  -43.4686 C   0  0  0  0  0  0  0  0  0  0  0  0
   91.6154   97.8733  -44.7574 C   0  0  0  0  0  0  0  0  0  0  0  0
   90.6258   98.4808  -45.4169 N   0  0  0  0  0  0  0  0  0  0  0  0
   91.1462   99.0474  -46.4922 N   0  0  0  0  0  0  0  0  0  0  0  0
   92.4411   98.8201  -46.5381 N   0  0  0  0  0  0  0  0  0  0  0  0
   92.7238   98.0911  -45.4581 N   0  0  0  0  0  0  0  0  0  0  0  0
   89.2727   98.4771  -44.9581 C   0  0  0  0  0  0  0  0  0  0  0  0
   88.9352   99.3246  -43.9082 C   0  0  0  0  0  0  0  0  0  0  0  0
   87.6413   99.3564  -43.4029 C   0  0  0  0  0  0  0  0  0  0  0  0
   86.6511   98.5490  -43.9253 C   0  0  0  0  0  0  0  0  0  0  0  0
   86.9928   97.7121  -44.9660 C   0  0  0  0  0  0  0  0  0  0  0  0
   88.2803   97.6774  -45.4710 C   0  0  0  0  0  0  0  0  0  0  0  0
  5  6  1  0  0  0
  6  7  1  0  0  0
  6 10  2  0  0  0
  7  8  1  0  0  0
  7 14  1  0  0  0
  8  9  2  0  0  0
  8 11  1  0  0  0
  9 10  1  0  0  0
 10  1  1  0  0  0
  1  2  2  0  0  0
  1  3  1  0  0  0
  3 16  1  0  0  0
 16 17  1  0  0  0
 17 18  1  0  0  0
 17 21  2  0  0  0
 18 19  1  0  0  0
 18 22  1  0  0  0
 19 20  2  0  0  0
 20 21  1  0  0  0
 22 23  2  0  0  0
 22 27  1  0  0  0
 23 24  1  0  0  0
 24 25  2  0  0  0
 25 26  1  0  0  0
 26 27  2  0  0  0
 11 12  2  0  0  0
 12 13  1  0  0  0
 13 14  2  0  0  0
 13 15  1  0  0  0
  3  4  1  0  0  0
M  END
> <minimizedAffinity>
-6.74587

$$$$
1969


 26 29  0  0  0  0  0  0  0  0999 V2000
   91.4644   96.0489  -44.6351 C   0  0  0  0  0  0  0  0  0  0  0  0
   91.7452   96.1157  -45.9961 O   0  0  0  0  0  0  0  0  0  0  0  0
   91.1636   97.2730  -44.1392 N   0  0  0  0  0  0  0  0  0  0  0  0
   90.7193   97.6987  -42.8452 C   0  0  0  0  0  0  0  0  0  0  0  0
   89.9355   99.0200  -42.9858 C   0  0  0  0  0  0  0  0  0  0  0  0
   89.2879   98.9050  -44.3002 N   0  0  0  0  0  0  0  0  0  0  0  0
   90.0928   99.0022  -45.4725 C   0  0  0  0  0  0  0  0  0  0  0  0
   91.4089   98.4079  -45.0856 C   0  0  0  0  0  0  0  0  0  0  0  0
   87.9359   98.5899  -44.3723 C   0  0  0  0  0  0  0  0  0  0  0  0
   87.4790   97.5649  -45.2087 N   0  0  0  0  0  0  0  0  0  0  0  0
   86.2589   97.1763  -45.3310 C   0  0  0  0  0  0  0  0  0  0  0  0
   85.2171   97.7612  -44.5945 C   0  0  0  0  0  0  0  0  0  0  0  0
   85.6597   98.7844  -43.7664 C   0  0  0  0  0  0  0  0  0  0  0  0
   86.8901   99.1288  -43.6923 N   0  0  0  0  0  0  0  0  0  0  0  0
   91.6246   92.8445  -46.0158 N   0  0  0  0  0  0  0  0  0  0  0  0
   91.7870   92.4533  -44.7701 N   0  0  0  0  0  0  0  0  0  0  0  0
   91.7663   93.4486  -44.1266 N   0  0  0  0  0  0  0  0  0  0  0  0
   91.6281   94.6329  -44.3589 C   0  0  0  0  0  0  0  0  0  0  0  0
   91.4982   94.1440  -45.9698 C   0  0  0  0  0  0  0  0  0  0  0  0
   89.5773   90.7982  -50.3901 Cl  0  0  0  0  0  0  0  0  0  0  0  0
   90.7301   90.9068  -49.0970 C   0  0  0  0  0  0  0  0  0  0  0  0
   90.6780   91.8572  -48.0854 C   0  0  0  0  0  0  0  0  0  0  0  0
   91.6006   91.8855  -47.0980 C   0  0  0  0  0  0  0  0  0  0  0  0
   92.5911   90.9255  -47.1496 C   0  0  0  0  0  0  0  0  0  0  0  0
   92.6934   89.9752  -48.1085 C   0  0  0  0  0  0  0  0  0  0  0  0
   91.7771   89.9290  -49.1014 C   0  0  0  0  0  0  0  0  0  0  0  0
 20 21  1  0  0  0
 21 22  2  0  0  0
 21 26  1  0  0  0
 22 23  1  0  0  0
 23 24  2  0  0  0
 23 15  1  0  0  0
 24 25  1  0  0  0
 25 26  2  0  0  0
 15 16  1  0  0  0
 15 19  1  0  0  0
 16 17  2  0  0  0
 17 18  1  0  0  0
 18 19  2  0  0  0
 18  1  1  0  0  0
  1  2  2  0  0  0
  1  3  1  0  0  0
  3  4  1  0  0  0
  3  8  1  0  0  0
  4  5  1  0  0  0
  5  6  1  0  0  0
  6  7  1  0  0  0
  6  9  1  0  0  0
  7  8  1  0  0  0
  9 10  2  0  0  0
  9 14  1  0  0  0
 10 11  1  0  0  0
 11 12  2  0  0  0
 12 13  1  0  0  0
 13 14  2  0  0  0
M  END
> <minimizedAffinity>
-7.21485

$$$$
1971


 22 25  0  0  0  0  0  0  0  0999 V2000
   91.0867   98.2672  -44.3625 N   0  0  0  0  0  0  0  0  0  0  0  0
   92.1038   99.2622  -44.5832 C   0  0  0  0  0  0  0  0  0  0  0  0
   93.3292   99.0177  -44.6837 O   0  0  0  0  0  0  0  0  0  0  0  0
   91.4891  100.5841  -44.6699 C   0  0  0  0  0  0  0  0  0  0  0  0
   91.7240  101.4759  -43.4957 C   0  0  0  0  0  0  0  0  0  0  0  0
   90.5748  102.3024  -43.5768 O   0  0  0  0  0  0  0  0  0  0  0  0
   89.6191  101.2663  -43.4136 C   0  0  0  0  0  0  0  0  0  0  0  0
   89.9712  100.3627  -44.5694 C   0  0  0  0  0  0  0  0  0  0  0  0
   89.8552   98.9562  -44.1784 C   0  0  0  0  0  0  0  0  0  0  0  0
   88.8157   98.4075  -43.7378 O   0  0  0  0  0  0  0  0  0  0  0  0
   90.1170  100.6308  -42.1756 C   0  0  0  0  0  0  0  0  0  0  0  0
   91.4593  100.7956  -42.2085 C   0  0  0  0  0  0  0  0  0  0  0  0
   92.1711   93.9713  -41.6551 Cl  0  0  0  0  0  0  0  0  0  0  0  0
   91.7249   94.8079  -43.1261 C   0  0  0  0  0  0  0  0  0  0  0  0
   91.5849   96.1788  -43.1637 C   0  0  0  0  0  0  0  0  0  0  0  0
   91.2329   96.8529  -44.3223 C   0  0  0  0  0  0  0  0  0  0  0  0
   91.0241   96.0865  -45.4517 C   0  0  0  0  0  0  0  0  0  0  0  0
   91.1648   94.7054  -45.4147 C   0  0  0  0  0  0  0  0  0  0  0  0
   91.5171   94.0432  -44.2560 C   0  0  0  0  0  0  0  0  0  0  0  0
   92.9827  102.2678  -43.5400 C   0  0  0  0  0  0  0  0  0  0  0  0
   94.0012  101.5500  -42.9264 O   0  0  0  0  0  0  0  0  0  0  0  0
   93.6553  100.6970  -42.5755 H   0  0  0  0  0  0  0  0  0  0  0  0
 13 14  1  0  0  0
 14 15  2  0  0  0
 14 19  1  0  0  0
 15 16  1  0  0  0
 16 17  2  0  0  0
 16  1  1  0  0  0
 17 18  1  0  0  0
 18 19  2  0  0  0
  1  2  1  0  0  0
  1  9  1  0  0  0
  2  3  2  0  0  0
  2  4  1  0  0  0
  4  5  1  0  0  0
  4  8  1  0  0  0
  5  6  1  0  0  0
  5 12  1  0  0  0
  5 20  1  0  0  0
  6  7  1  0  0  0
  7  8  1  0  0  0
  7 11  1  0  0  0
  8  9  1  0  0  0
  9 10  2  0  0  0
 11 12  2  0  0  0
 20 21  1  0  0  0
 21 22  1  0  0  0
M  END
> <minimizedAffinity>
-5.76116

$$$$
1973


 24 27  0  0  0  0  0  0  0  0999 V2000
   91.4508   91.3489  -46.8921 Cl  0  0  0  0  0  0  0  0  0  0  0  0
   91.4665   92.7643  -45.8408 C   0  0  0  0  0  0  0  0  0  0  0  0
   90.9288   93.9726  -46.2335 C   0  0  0  0  0  0  0  0  0  0  0  0
   90.9307   95.0709  -45.4401 N   0  0  0  0  0  0  0  0  0  0  0  0
   91.4653   95.0481  -44.2051 C   0  0  0  0  0  0  0  0  0  0  0  0
   91.4770   96.1392  -43.3950 N   0  0  0  0  0  0  0  0  0  0  0  0
   90.9550   97.3212  -43.7703 C   0  0  0  0  0  0  0  0  0  0  0  0
   90.3984   97.3615  -45.0445 C   0  0  0  0  0  0  0  0  0  0  0  0
   89.8217   98.6665  -45.4609 C   0  0  0  0  0  0  0  0  0  0  0  0
   90.8186   99.6700  -45.0703 N   0  0  0  0  0  0  0  0  0  0  0  0
   91.1227   99.7953  -43.6728 C   0  0  0  0  0  0  0  0  0  0  0  0
   90.9592   98.5205  -42.8941 C   0  0  0  0  0  0  0  0  0  0  0  0
   91.4534  100.4708  -46.0451 C   0  0  0  0  0  0  0  0  0  0  0  0
   91.1235  100.2702  -47.2628 O   0  0  0  0  0  0  0  0  0  0  0  0
   90.4006   96.2395  -45.8435 C   0  0  0  0  0  0  0  0  0  0  0  0
   89.8846   96.3027  -47.0060 O   0  0  0  0  0  0  0  0  0  0  0  0
   92.0114   93.8441  -43.7917 C   0  0  0  0  0  0  0  0  0  0  0  0
   92.0214   92.7122  -44.5800 C   0  0  0  0  0  0  0  0  0  0  0  0
   92.4567  101.5049  -45.7079 C   0  0  0  0  0  0  0  0  0  0  0  0
   91.8817  102.5963  -44.8322 C   0  0  0  0  0  0  0  0  0  0  0  0
   90.5015  102.8989  -45.4011 C   0  0  0  0  0  0  0  0  0  0  0  0
   90.5329  102.8409  -46.7934 O   0  0  0  0  0  0  0  0  0  0  0  0
   91.7826  103.2302  -47.2945 C   0  0  0  0  0  0  0  0  0  0  0  0
   92.8626  102.2024  -47.0148 C   0  0  0  0  0  0  0  0  0  0  0  0
  1  2  1  0  0  0
  2  3  2  0  0  0
  2 18  1  0  0  0
  3  4  1  0  0  0
  4  5  1  0  0  0
  4 15  1  0  0  0
  5  6  2  0  0  0
  5 17  1  0  0  0
  6  7  1  0  0  0
  7  8  2  0  0  0
  7 12  1  0  0  0
  8  9  1  0  0  0
  8 15  1  0  0  0
  9 10  1  0  0  0
 10 11  1  0  0  0
 10 13  1  0  0  0
 11 12  1  0  0  0
 13 14  2  0  0  0
 13 19  1  0  0  0
 19 20  1  0  0  0
 19 24  1  0  0  0
 20 21  1  0  0  0
 21 22  1  0  0  0
 22 23  1  0  0  0
 23 24  1  0  0  0
 15 16  2  0  0  0
 17 18  2  0  0  0
M  END
> <minimizedAffinity>
-6.11713

$$$$
1974


 26 29  0  0  0  0  0  0  0  0999 V2000
   92.2738   95.7016  -40.9298 F   0  0  0  0  0  0  0  0  0  0  0  0
   92.1046   94.9303  -42.0306 C   0  0  0  0  0  0  0  0  0  0  0  0
   91.6711   95.5364  -43.1999 C   0  0  0  0  0  0  0  0  0  0  0  0
   91.4766   94.8160  -44.3578 C   0  0  0  0  0  0  0  0  0  0  0  0
   91.7288   93.4552  -44.3174 C   0  0  0  0  0  0  0  0  0  0  0  0
   92.1592   92.8526  -43.1586 C   0  0  0  0  0  0  0  0  0  0  0  0
   92.3513   93.5778  -42.0056 C   0  0  0  0  0  0  0  0  0  0  0  0
   91.4826   92.5328  -45.7896 Cl  0  0  0  0  0  0  0  0  0  0  0  0
   91.0241   95.6680  -45.4381 C   0  0  0  0  0  0  0  0  0  0  0  0
   90.7514   95.3520  -46.6186 O   0  0  0  0  0  0  0  0  0  0  0  0
   90.9450   97.0069  -44.8682 C   0  0  0  0  0  0  0  0  0  0  0  0
   90.5849   98.0518  -45.4953 O   0  0  0  0  0  0  0  0  0  0  0  0
   91.3412   96.9068  -43.5094 N   0  0  0  0  0  0  0  0  0  0  0  0
   91.4164   97.9840  -42.5440 C   0  0  0  0  0  0  0  0  0  0  0  0
   90.9389   99.2503  -43.0580 N   0  0  0  0  0  0  0  0  0  0  0  0
   89.6526   99.5619  -42.5362 C   0  0  0  0  0  0  0  0  0  0  0  0
   89.4627  100.9690  -42.0906 C   0  0  0  0  0  0  0  0  0  0  0  0
   90.6149  101.5289  -41.4337 N   0  0  0  0  0  0  0  0  0  0  0  0
   91.8918  100.8763  -41.6060 C   0  0  0  0  0  0  0  0  0  0  0  0
   91.9005  100.2986  -43.0053 C   0  0  0  0  0  0  0  0  0  0  0  0
   90.5403  102.6900  -40.6313 C   0  0  0  0  0  0  0  0  0  0  0  0
   89.8153  103.7560  -41.0090 N   0  0  0  0  0  0  0  0  0  0  0  0
   89.7289  104.8744  -40.2624 C   0  0  0  0  0  0  0  0  0  0  0  0
   90.3980  104.9634  -39.0568 C   0  0  0  0  0  0  0  0  0  0  0  0
   91.1236  103.9007  -38.6734 N   0  0  0  0  0  0  0  0  0  0  0  0
   91.2113  102.7824  -39.4184 C   0  0  0  0  0  0  0  0  0  0  0  0
  1  2  1  0  0  0
  2  3  2  0  0  0
  2  7  1  0  0  0
  3  4  1  0  0  0
  3 13  1  0  0  0
  4  5  2  0  0  0
  4  9  1  0  0  0
  5  6  1  0  0  0
  5  8  1  0  0  0
  6  7  2  0  0  0
  9 10  2  0  0  0
  9 11  1  0  0  0
 11 12  2  0  0  0
 11 13  1  0  0  0
 13 14  1  0  0  0
 14 15  1  0  0  0
 15 16  1  0  0  0
 15 20  1  0  0  0
 16 17  1  0  0  0
 17 18  1  0  0  0
 18 19  1  0  0  0
 18 21  1  0  0  0
 19 20  1  0  0  0
 21 22  2  0  0  0
 21 26  1  0  0  0
 22 23  1  0  0  0
 23 24  2  0  0  0
 24 25  1  0  0  0
 25 26  2  0  0  0
M  END
> <minimizedAffinity>
-6.93358

$$$$
1976


 26 29  0  0  0  0  0  0  0  0999 V2000
   91.0933   93.4350  -46.2468 C   0  0  0  0  0  0  0  0  0  0  0  0
   90.4314   94.4427  -46.6772 O   0  0  0  0  0  0  0  0  0  0  0  0
   91.1201   92.2028  -46.9515 N   0  0  0  0  0  0  0  0  0  0  0  0
   91.8756   91.1197  -46.4282 C   0  0  0  0  0  0  0  0  0  0  0  0
   92.7313   90.5453  -47.5642 C   0  0  0  0  0  0  0  0  0  0  0  0
   91.6902   90.0228  -48.5312 C   0  0  0  0  0  0  0  0  0  0  0  0
   90.5655   90.7794  -48.7880 C   0  0  0  0  0  0  0  0  0  0  0  0
   89.6343   90.2843  -49.6524 N   0  0  0  0  0  0  0  0  0  0  0  0
   89.7688   89.0953  -50.2607 C   0  0  0  0  0  0  0  0  0  0  0  0
   90.8711   88.3707  -49.9986 N   0  0  0  0  0  0  0  0  0  0  0  0
   91.8404   88.8118  -49.1428 C   0  0  0  0  0  0  0  0  0  0  0  0
   92.9748   88.0685  -48.8716 O   0  0  0  0  0  0  0  0  0  0  0  0
   90.3711   92.1000  -48.1581 C   0  0  0  0  0  0  0  0  0  0  0  0
   93.8666   88.4283  -49.1904 H   0  0  0  0  0  0  0  0  0  0  0  0
   91.8446   93.6080  -44.9619 C   0  0  0  0  0  0  0  0  0  0  0  0
   91.3750   94.1638  -42.0431 Cl  0  0  0  0  0  0  0  0  0  0  0  0
   91.6156   95.4225  -43.2251 C   0  0  0  0  0  0  0  0  0  0  0  0
   91.6045   96.7623  -42.8707 C   0  0  0  0  0  0  0  0  0  0  0  0
   91.7927   97.7725  -43.7955 C   0  0  0  0  0  0  0  0  0  0  0  0
   91.9992   97.4058  -45.1120 C   0  0  0  0  0  0  0  0  0  0  0  0
   92.0072   96.0649  -45.4476 C   0  0  0  0  0  0  0  0  0  0  0  0
   91.8203   95.0405  -44.5365 C   0  0  0  0  0  0  0  0  0  0  0  0
   92.1880   98.4142  -46.0341 O   0  0  0  0  0  0  0  0  0  0  0  0
   92.5642   99.7394  -45.7190 C   0  0  0  0  0  0  0  0  0  0  0  0
   92.3647  100.1130  -44.2928 C   0  0  0  0  0  0  0  0  0  0  0  0
   91.7908   99.1120  -43.4966 O   0  0  0  0  0  0  0  0  0  0  0  0
 16 17  1  0  0  0
 17 18  2  0  0  0
 17 22  1  0  0  0
 18 19  1  0  0  0
 19 20  2  0  0  0
 19 26  1  0  0  0
 20 21  1  0  0  0
 20 23  1  0  0  0
 21 22  2  0  0  0
 22 15  1  0  0  0
 15  1  1  0  0  0
  1  2  2  0  0  0
  1  3  1  0  0  0
  3  4  1  0  0  0
  3 13  1  0  0  0
  4  5  1  0  0  0
  5  6  1  0  0  0
  6  7  2  0  0  0
  6 11  1  0  0  0
  7  8  1  0  0  0
  7 13  1  0  0  0
  8  9  2  0  0  0
  9 10  1  0  0  0
 10 11  2  0  0  0
 11 12  1  0  0  0
 23 24  1  0  0  0
 24 25  1  0  0  0
 25 26  1  0  0  0
 12 14  1  0  0  0
M  END
> <minimizedAffinity>
-7.91908

$$$$
1982


 25 28  0  0  0  0  0  0  0  0999 V2000
   90.5631   91.6694  -49.0147 Cl  0  0  0  0  0  0  0  0  0  0  0  0
   91.0123   92.2136  -47.4125 C   0  0  0  0  0  0  0  0  0  0  0  0
   90.8123   93.5087  -46.9820 C   0  0  0  0  0  0  0  0  0  0  0  0
   91.1623   93.9514  -45.7226 C   0  0  0  0  0  0  0  0  0  0  0  0
   91.7406   93.0377  -44.8624 C   0  0  0  0  0  0  0  0  0  0  0  0
   91.9452   91.7393  -45.2810 C   0  0  0  0  0  0  0  0  0  0  0  0
   91.5957   91.2974  -46.5408 C   0  0  0  0  0  0  0  0  0  0  0  0
   92.1230   93.4890  -43.5067 C   0  0  0  0  0  0  0  0  0  0  0  0
   92.6586   92.8661  -42.5429 N   0  0  0  0  0  0  0  0  0  0  0  0
   92.8707   93.6866  -41.3693 C   0  0  0  0  0  0  0  0  0  0  0  0
   92.3525   95.0357  -41.7468 C   0  0  0  0  0  0  0  0  0  0  0  0
   91.8971   94.8342  -43.1091 N   0  0  0  0  0  0  0  0  0  0  0  0
   91.2945   95.7140  -44.0583 C   0  0  0  0  0  0  0  0  0  0  0  0
   90.9665   97.0151  -43.9642 N   0  0  0  0  0  0  0  0  0  0  0  0
   90.4232   97.4479  -45.0890 N   0  0  0  0  0  0  0  0  0  0  0  0
   90.4147   96.3710  -45.9127 C   0  0  0  0  0  0  0  0  0  0  0  0
   89.9671   96.4063  -47.0794 O   0  0  0  0  0  0  0  0  0  0  0  0
   90.9434   95.2973  -45.3027 N   0  0  0  0  0  0  0  0  0  0  0  0
   89.9421   98.7858  -45.3759 C   0  0  0  0  0  0  0  0  0  0  0  0
   91.0443   99.8007  -45.0416 C   0  0  0  0  0  0  0  0  0  0  0  0
   92.3421   99.3474  -45.6020 C   0  0  0  0  0  0  0  0  0  0  0  0
   92.5663   99.1808  -46.8271 O   0  0  0  0  0  0  0  0  0  0  0  0
   93.4001   99.0842  -44.6946 N   0  0  0  0  0  0  0  0  0  0  0  0
   93.2630   98.6448  -43.7663 H   0  0  0  0  0  0  0  0  0  0  0  0
   94.3641   99.3504  -44.9832 H   0  0  0  0  0  0  0  0  0  0  0  0
  1  2  1  0  0  0
  2  3  2  0  0  0
  2  7  1  0  0  0
  3  4  1  0  0  0
  4  5  2  0  0  0
  4 18  1  0  0  0
  5  6  1  0  0  0
  5  8  1  0  0  0
  6  7  2  0  0  0
  8  9  2  0  0  0
  8 12  1  0  0  0
  9 10  1  0  0  0
 10 11  1  0  0  0
 11 12  1  0  0  0
 12 13  1  0  0  0
 13 14  2  0  0  0
 13 18  1  0  0  0
 14 15  1  0  0  0
 15 16  1  0  0  0
 15 19  1  0  0  0
 16 17  2  0  0  0
 16 18  1  0  0  0
 19 20  1  0  0  0
 20 21  1  0  0  0
 21 22  2  0  0  0
 21 23  1  0  0  0
 23 24  1  0  0  0
 23 25  1  0  0  0
M  END
> <minimizedAffinity>
-6.68136

$$$$
1986


 30 33  0  0  0  0  0  0  0  0999 V2000
   91.5719   93.3202  -42.4886 Cl  0  0  0  0  0  0  0  0  0  0  0  0
   91.7369   95.0618  -42.3488 C   0  0  0  0  0  0  0  0  0  0  0  0
   91.4319   95.8916  -43.4091 C   0  0  0  0  0  0  0  0  0  0  0  0
   91.5641   97.2819  -43.2986 C   0  0  0  0  0  0  0  0  0  0  0  0
   92.0071   97.7650  -42.0943 C   0  0  0  0  0  0  0  0  0  0  0  0
   92.3160   96.9189  -41.0202 C   0  0  0  0  0  0  0  0  0  0  0  0
   92.1826   95.5527  -41.1390 C   0  0  0  0  0  0  0  0  0  0  0  0
   92.1459   99.1433  -41.9583 O   0  0  0  0  0  0  0  0  0  0  0  0
   91.8607  100.0391  -42.9745 C   0  0  0  0  0  0  0  0  0  0  0  0
   91.4135   99.5490  -44.1914 C   0  0  0  0  0  0  0  0  0  0  0  0
   91.2261   98.1199  -44.4657 C   0  0  0  0  0  0  0  0  0  0  0  0
   91.1406  100.4814  -45.1725 C   0  0  0  0  0  0  0  0  0  0  0  0
   90.7268  100.0908  -46.3101 O   0  0  0  0  0  0  0  0  0  0  0  0
   91.2823  101.8072  -45.0182 N   0  0  0  0  0  0  0  0  0  0  0  0
   91.7220  102.2401  -43.8115 C   0  0  0  0  0  0  0  0  0  0  0  0
   91.8480  103.4883  -43.6882 O   0  0  0  0  0  0  0  0  0  0  0  0
   92.0003  101.3675  -42.8257 N   0  0  0  0  0  0  0  0  0  0  0  0
   92.4666  101.9089  -41.5650 C   0  0  0  0  0  0  0  0  0  0  0  0
   90.9765  102.7530  -46.0919 C   0  0  0  0  0  0  0  0  0  0  0  0
   89.7960   97.8719  -44.8425 C   0  0  0  0  0  0  0  0  0  0  0  0
   89.4779   97.1225  -45.9537 C   0  0  0  0  0  0  0  0  0  0  0  0
   88.1762   96.9061  -46.2864 N   0  0  0  0  0  0  0  0  0  0  0  0
   87.1773   97.4259  -45.5298 C   0  0  0  0  0  0  0  0  0  0  0  0
   85.9811   97.2051  -45.8695 O   0  0  0  0  0  0  0  0  0  0  0  0
   87.4564   98.1605  -44.4415 N   0  0  0  0  0  0  0  0  0  0  0  0
   88.7425   98.3779  -44.1075 C   0  0  0  0  0  0  0  0  0  0  0  0
   88.9840   99.0580  -43.1000 O   0  0  0  0  0  0  0  0  0  0  0  0
   86.3573   98.7057  -43.6506 C   0  0  0  0  0  0  0  0  0  0  0  0
   87.9051   96.1018  -47.4737 C   0  0  0  0  0  0  0  0  0  0  0  0
   90.4814   96.5964  -46.7186 O   0  0  0  0  0  0  0  0  0  0  0  0
  1  2  1  0  0  0
  2  3  2  0  0  0
  2  7  1  0  0  0
  3  4  1  0  0  0
  4  5  2  0  0  0
  4 11  1  0  0  0
  5  6  1  0  0  0
  5  8  1  0  0  0
  6  7  2  0  0  0
  8  9  1  0  0  0
  9 10  2  0  0  0
  9 17  1  0  0  0
 10 11  1  0  0  0
 10 12  1  0  0  0
 11 20  1  0  0  0
 20 21  2  0  0  0
 20 26  1  0  0  0
 21 22  1  0  0  0
 21 30  1  0  0  0
 22 23  1  0  0  0
 22 29  1  0  0  0
 23 24  2  0  0  0
 23 25  1  0  0  0
 25 26  1  0  0  0
 25 28  1  0  0  0
 26 27  2  0  0  0
 12 13  2  0  0  0
 12 14  1  0  0  0
 14 15  1  0  0  0
 14 19  1  0  0  0
 15 16  2  0  0  0
 15 17  1  0  0  0
 17 18  1  0  0  0
M  CHG 1  30  -1
M  END
> <minimizedAffinity>
-7.00586

$$$$
1991


 31 34  0  0  0  0  0  0  0  0999 V2000
   93.8199  104.2442  -39.4032 Cl  0  0  0  0  0  0  0  0  0  0  0  0
   93.0752  102.9845  -40.3577 C   0  0  0  0  0  0  0  0  0  0  0  0
   92.3708  103.2849  -41.5022 C   0  0  0  0  0  0  0  0  0  0  0  0
   91.7925  102.2839  -42.2383 C   0  0  0  0  0  0  0  0  0  0  0  0
   91.9231  100.9539  -41.8205 C   0  0  0  0  0  0  0  0  0  0  0  0
   92.6297  100.6424  -40.6700 C   0  0  0  0  0  0  0  0  0  0  0  0
   93.1911  101.6700  -39.9629 C   0  0  0  0  0  0  0  0  0  0  0  0
   91.4008   99.8342  -42.4492 O   0  0  0  0  0  0  0  0  0  0  0  0
   91.0449   99.6926  -43.8039 C   0  0  0  0  0  0  0  0  0  0  0  0
   89.9025  100.5756  -44.1883 C   0  0  0  0  0  0  0  0  0  0  0  0
   89.9352  101.8964  -43.6365 N   0  0  0  0  0  0  0  0  0  0  0  0
   91.0685  102.7634  -43.4431 C   0  0  0  0  0  0  0  0  0  0  0  0
   88.6915  102.4702  -43.2022 C   0  0  0  0  0  0  0  0  0  0  0  0
   88.7388  103.6310  -42.7251 O   0  0  0  0  0  0  0  0  0  0  0  0
   92.2714   99.9073  -44.6768 C   0  0  0  0  0  0  0  0  0  0  0  0
   92.9688   98.5839  -44.9376 C   0  0  0  0  0  0  0  0  0  0  0  0
   92.2085   97.7292  -45.7114 O   0  0  0  0  0  0  0  0  0  0  0  0
   90.8515   97.9745  -45.5357 C   0  0  0  0  0  0  0  0  0  0  0  0
   90.5995   98.2516  -44.0663 C   0  0  0  0  0  0  0  0  0  0  0  0
   87.4294  101.7405  -43.3091 C   0  0  0  0  0  0  0  0  0  0  0  0
   86.4786  102.2019  -44.2530 N   0  0  0  0  0  0  0  0  0  0  0  0
   85.1110  102.1257  -43.7326 C   0  0  0  0  0  0  0  0  0  0  0  0
   84.8069  100.7065  -43.4296 C   0  0  0  0  0  0  0  0  0  0  0  0
   85.1720   99.7073  -44.4758 C   0  0  0  0  0  0  0  0  0  0  0  0
   86.0589  100.1626  -45.5664 C   0  0  0  0  0  0  0  0  0  0  0  0
   86.5096  101.5738  -45.5507 C   0  0  0  0  0  0  0  0  0  0  0  0
   85.6731   98.4468  -43.8752 C   0  0  0  0  0  0  0  0  0  0  0  0
   86.8786   98.1488  -43.9957 O   0  0  0  0  0  0  0  0  0  0  0  0
   84.7890   97.5964  -43.1773 N   0  0  0  0  0  0  0  0  0  0  0  0
   84.8856   97.6023  -42.1192 H   0  0  0  0  0  0  0  0  0  0  0  0
   84.0750   96.9846  -43.5901 H   0  0  0  0  0  0  0  0  0  0  0  0
  1  2  1  0  0  0
  2  3  2  0  0  0
  2  7  1  0  0  0
  3  4  1  0  0  0
  4  5  2  0  0  0
  4 12  1  0  0  0
  5  6  1  0  0  0
  5  8  1  0  0  0
  6  7  2  0  0  0
  8  9  1  0  0  0
  9 10  1  0  0  0
  9 15  1  0  0  0
  9 19  1  0  0  0
 10 11  1  0  0  0
 11 12  1  0  0  0
 11 13  1  0  0  0
 13 14  2  0  0  0
 13 20  1  0  0  0
 20 21  1  0  0  0
 21 22  1  0  0  0
 21 26  1  0  0  0
 22 23  1  0  0  0
 23 24  1  0  0  0
 24 25  1  0  0  0
 24 27  1  0  0  0
 25 26  1  0  0  0
 27 28  2  0  0  0
 27 29  1  0  0  0
 15 16  1  0  0  0
 16 17  1  0  0  0
 17 18  1  0  0  0
 18 19  1  0  0  0
 29 30  1  0  0  0
 29 31  1  0  0  0
M  END
> <minimizedAffinity>
-5.90206

$$$$
2003


 28 31  0  0  0  0  0  0  0  0999 V2000
   93.0422  101.8054  -41.7637 N   0  0  0  0  0  0  0  0  0  0  0  0
   93.2290  101.2970  -43.0880 C   0  0  0  0  0  0  0  0  0  0  0  0
   92.3426  100.1222  -43.4069 C   0  0  0  0  0  0  0  0  0  0  0  0
   91.0359  100.2387  -42.8015 N   0  0  0  0  0  0  0  0  0  0  0  0
   90.6227  101.3695  -42.0137 C   0  0  0  0  0  0  0  0  0  0  0  0
   91.7150  102.1827  -41.4309 C   0  0  0  0  0  0  0  0  0  0  0  0
   90.1093   99.1791  -42.9974 C   0  0  0  0  0  0  0  0  0  0  0  0
   88.9393   99.2223  -42.4896 O   0  0  0  0  0  0  0  0  0  0  0  0
   90.4692   98.0025  -43.7885 C   0  0  0  0  0  0  0  0  0  0  0  0
   90.2764   97.9211  -45.1531 C   0  0  0  0  0  0  0  0  0  0  0  0
   90.6334   96.8058  -45.8167 N   0  0  0  0  0  0  0  0  0  0  0  0
   91.1827   95.7328  -45.2193 C   0  0  0  0  0  0  0  0  0  0  0  0
   91.3780   95.7966  -43.8895 N   0  0  0  0  0  0  0  0  0  0  0  0
   91.9282   94.7316  -43.2726 C   0  0  0  0  0  0  0  0  0  0  0  0
   92.2912   93.5906  -43.9592 C   0  0  0  0  0  0  0  0  0  0  0  0
   92.1042   93.4941  -45.3247 C   0  0  0  0  0  0  0  0  0  0  0  0
   91.5387   94.5986  -45.9377 C   0  0  0  0  0  0  0  0  0  0  0  0
   91.0342   96.8945  -43.1895 C   0  0  0  0  0  0  0  0  0  0  0  0
   91.2160   96.9543  -41.9488 O   0  0  0  0  0  0  0  0  0  0  0  0
   94.2525  102.8656  -41.2368 S   0  0  0  0  0  0  0  0  0  0  0  0
   95.5938  102.2504  -41.3564 O   0  0  0  0  0  0  0  0  0  0  0  0
   94.1912  104.1251  -42.0714 O   0  0  0  0  0  0  0  0  0  0  0  0
   93.9351  103.2962  -39.5477 C   0  0  0  0  0  0  0  0  0  0  0  0
   93.3205  104.7466  -38.8966 S   0  0  0  0  0  0  0  0  0  0  0  0
   93.3314  104.3268  -37.2440 C   0  0  0  0  0  0  0  0  0  0  0  0
   93.8210  103.0501  -37.2523 C   0  0  0  0  0  0  0  0  0  0  0  0
   94.1333  102.5163  -38.4370 C   0  0  0  0  0  0  0  0  0  0  0  0
   92.8378  105.2786  -35.8288 Cl  0  0  0  0  0  0  0  0  0  0  0  0
 20 21  2  0  0  0
 20 22  2  0  0  0
 20  1  1  0  0  0
 20 23  1  0  0  0
  1  2  1  0  0  0
  1  6  1  0  0  0
  2  3  1  0  0  0
  3  4  1  0  0  0
  4  5  1  0  0  0
  4  7  1  0  0  0
  5  6  1  0  0  0
  7  8  2  0  0  0
  7  9  1  0  0  0
  9 10  2  0  0  0
  9 18  1  0  0  0
 10 11  1  0  0  0
 11 12  2  0  0  0
 12 13  1  0  0  0
 12 17  1  0  0  0
 13 14  1  0  0  0
 13 18  1  0  0  0
 14 15  2  0  0  0
 15 16  1  0  0  0
 16 17  2  0  0  0
 18 19  2  0  0  0
 23 24  1  0  0  0
 23 27  2  0  0  0
 24 25  1  0  0  0
 25 26  2  0  0  0
 25 28  1  0  0  0
 26 27  1  0  0  0
M  END
> <minimizedAffinity>
-6.35312

$$$$
2004


 29 32  0  0  0  0  0  0  0  0999 V2000
   91.2598   97.6092  -44.6995 S   0  0  0  0  0  0  0  0  0  0  0  0
   91.4518   96.3661  -43.8440 O   0  0  0  0  0  0  0  0  0  0  0  0
   92.2261   97.4065  -45.8654 O   0  0  0  0  0  0  0  0  0  0  0  0
   89.6462   97.5611  -45.3751 C   0  0  0  0  0  0  0  0  0  0  0  0
   88.7688   98.6311  -45.1079 C   0  0  0  0  0  0  0  0  0  0  0  0
   87.4693   98.6233  -45.5614 C   0  0  0  0  0  0  0  0  0  0  0  0
   86.9480   97.5823  -46.2955 C   0  0  0  0  0  0  0  0  0  0  0  0
   87.7994   96.5385  -46.5603 C   0  0  0  0  0  0  0  0  0  0  0  0
   89.1272   96.5277  -46.1084 C   0  0  0  0  0  0  0  0  0  0  0  0
   90.1684   95.1968  -46.5525 Cl  0  0  0  0  0  0  0  0  0  0  0  0
   85.6018   97.6346  -46.7298 N   0  0  0  0  0  0  0  0  0  0  0  0
   84.7490   98.7336  -46.4346 C   0  0  0  0  0  0  0  0  0  0  0  0
   83.6579   98.9606  -46.9917 O   0  0  0  0  0  0  0  0  0  0  0  0
   85.2240   99.6636  -45.3764 C   0  0  0  0  0  0  0  0  0  0  0  0
   86.6214   99.6959  -45.2832 O   0  0  0  0  0  0  0  0  0  0  0  0
   84.6678   99.2688  -44.0270 C   0  0  0  0  0  0  0  0  0  0  0  0
   85.2112   96.8402  -47.2880 H   0  0  0  0  0  0  0  0  0  0  0  0
   91.6855   98.9987  -43.8692 N   0  0  0  0  0  0  0  0  0  0  0  0
   92.7551   99.7568  -44.3513 C   0  0  0  0  0  0  0  0  0  0  0  0
   92.8682  101.1290  -43.6713 C   0  0  0  0  0  0  0  0  0  0  0  0
   92.5633  101.0510  -42.2739 N   0  0  0  0  0  0  0  0  0  0  0  0
   91.4086  100.2781  -41.8717 C   0  0  0  0  0  0  0  0  0  0  0  0
   91.6059   98.8834  -42.4321 C   0  0  0  0  0  0  0  0  0  0  0  0
   93.3664  101.7075  -41.3339 C   0  0  0  0  0  0  0  0  0  0  0  0
   94.3655  102.3729  -41.7071 O   0  0  0  0  0  0  0  0  0  0  0  0
   93.0872  101.6552  -39.8641 C   0  0  0  0  0  0  0  0  0  0  0  0
   92.0084  102.6138  -39.4181 C   0  0  0  0  0  0  0  0  0  0  0  0
   93.1135  103.6378  -39.1705 C   0  0  0  0  0  0  0  0  0  0  0  0
   94.0888  102.4608  -39.0758 C   0  0  0  0  0  0  0  0  0  0  0  0
  1  2  2  0  0  0
  1  3  2  0  0  0
  1 18  1  0  0  0
  1  4  1  0  0  0
 18 19  1  0  0  0
 18 23  1  0  0  0
 19 20  1  0  0  0
 20 21  1  0  0  0
 21 22  1  0  0  0
 21 24  1  0  0  0
 22 23  1  0  0  0
 24 25  2  0  0  0
 24 26  1  0  0  0
 26 27  1  0  0  0
 26 29  1  0  0  0
 27 28  1  0  0  0
 28 29  1  0  0  0
  4  5  2  0  0  0
  4  9  1  0  0  0
  5  6  1  0  0  0
  6  7  2  0  0  0
  6 15  1  0  0  0
  7  8  1  0  0  0
  7 11  1  0  0  0
  8  9  2  0  0  0
  9 10  1  0  0  0
 11 12  1  0  0  0
 12 13  2  0  0  0
 12 14  1  0  0  0
 14 15  1  0  0  0
 14 16  1  0  0  0
 11 17  1  0  0  0
M  END
> <minimizedAffinity>
-5.96196

$$$$
2012


 25 28  0  0  0  0  0  0  0  0999 V2000
   88.7770   99.5425  -43.7162 N   0  0  0  0  0  0  0  0  0  0  0  0
   89.7363  100.0152  -42.7772 C   0  0  0  0  0  0  0  0  0  0  0  0
   89.4803  100.7914  -41.8413 O   0  0  0  0  0  0  0  0  0  0  0  0
   91.0537   99.4413  -43.0990 C   0  0  0  0  0  0  0  0  0  0  0  0
   91.8792   99.1175  -42.0708 O   0  0  0  0  0  0  0  0  0  0  0  0
   92.5088   97.9786  -42.5382 N   0  0  0  0  0  0  0  0  0  0  0  0
   91.5449   97.2006  -43.2524 C   0  0  0  0  0  0  0  0  0  0  0  0
   90.6277   98.0944  -43.6047 C   0  0  0  0  0  0  0  0  0  0  0  0
   89.3419   98.3161  -44.2493 C   0  0  0  0  0  0  0  0  0  0  0  0
   88.8534   97.5452  -45.1141 O   0  0  0  0  0  0  0  0  0  0  0  0
   93.5082   97.7696  -42.3835 H   0  0  0  0  0  0  0  0  0  0  0  0
   83.5954   99.2564  -43.8562 Cl  0  0  0  0  0  0  0  0  0  0  0  0
   85.1412  100.0188  -44.2185 C   0  0  0  0  0  0  0  0  0  0  0  0
   86.3312   99.4323  -43.7964 C   0  0  0  0  0  0  0  0  0  0  0  0
   87.5127  100.0639  -44.1072 C   0  0  0  0  0  0  0  0  0  0  0  0
   87.5182  101.2678  -44.8292 C   0  0  0  0  0  0  0  0  0  0  0  0
   86.3496  101.8364  -45.2389 C   0  0  0  0  0  0  0  0  0  0  0  0
   85.1590  101.2005  -44.9293 C   0  0  0  0  0  0  0  0  0  0  0  0
   91.5757   95.7871  -43.5719 C   0  0  0  0  0  0  0  0  0  0  0  0
   91.4699   95.3285  -44.8882 C   0  0  0  0  0  0  0  0  0  0  0  0
   91.5129   93.9882  -44.9028 N   0  0  0  0  0  0  0  0  0  0  0  0
   91.6418   93.5673  -43.6432 N   0  0  0  0  0  0  0  0  0  0  0  0
   91.6802   94.6473  -42.8287 C   0  0  0  0  0  0  0  0  0  0  0  0
   91.7991   94.6082  -41.3494 C   0  0  0  0  0  0  0  0  0  0  0  0
   91.4363   93.0779  -46.0401 C   0  0  0  0  0  0  0  0  0  0  0  0
 12 13  1  0  0  0
 13 14  2  0  0  0
 13 18  1  0  0  0
 14 15  1  0  0  0
 15 16  2  0  0  0
 15  1  1  0  0  0
 16 17  1  0  0  0
 17 18  2  0  0  0
  1  2  1  0  0  0
  1  9  1  0  0  0
  2  3  2  0  0  0
  2  4  1  0  0  0
  4  5  1  0  0  0
  4  8  1  0  0  0
  5  6  1  0  0  0
  6  7  1  0  0  0
  7  8  2  0  0  0
  7 19  1  0  0  0
  8  9  1  0  0  0
  9 10  2  0  0  0
 19 20  2  0  0  0
 19 23  1  0  0  0
 20 21  1  0  0  0
 21 22  1  0  0  0
 21 25  1  0  0  0
 22 23  2  0  0  0
 23 24  1  0  0  0
  6 11  1  0  0  0
M  END
> <minimizedAffinity>
-6.39478

$$$$
2014


 26 29  0  0  0  0  0  0  0  0999 V2000
   90.0154   97.6335  -45.6150 C   0  0  0  0  0  0  0  0  0  0  0  0
   90.5530   96.5000  -45.1737 N   0  0  0  0  0  0  0  0  0  0  0  0
   90.4563   95.5344  -46.1338 C   0  0  0  0  0  0  0  0  0  0  0  0
   89.8396   96.1353  -47.1781 N   0  0  0  0  0  0  0  0  0  0  0  0
   89.5723   97.3789  -46.8857 N   0  0  0  0  0  0  0  0  0  0  0  0
   90.9973   94.3841  -45.7044 N   0  0  0  0  0  0  0  0  0  0  0  0
   91.4585   94.5593  -44.4718 C   0  0  0  0  0  0  0  0  0  0  0  0
   91.1810   95.8945  -44.1344 C   0  0  0  0  0  0  0  0  0  0  0  0
   91.5506   96.3626  -42.9354 N   0  0  0  0  0  0  0  0  0  0  0  0
   92.1839   95.5108  -42.0845 C   0  0  0  0  0  0  0  0  0  0  0  0
   92.5210   95.9814  -40.9536 O   0  0  0  0  0  0  0  0  0  0  0  0
   92.4677   94.2394  -42.3542 N   0  0  0  0  0  0  0  0  0  0  0  0
   92.1036   93.7698  -43.5487 C   0  0  0  0  0  0  0  0  0  0  0  0
   92.3477   92.5745  -43.8557 O   0  0  0  0  0  0  0  0  0  0  0  0
   93.1568   93.3815  -41.3746 C   0  0  0  0  0  0  0  0  0  0  0  0
   91.3324   97.7237  -42.5403 C   0  0  0  0  0  0  0  0  0  0  0  0
   91.0777   93.1404  -46.4431 C   0  0  0  0  0  0  0  0  0  0  0  0
   91.9078  102.5904  -45.0289 Br  0  0  0  0  0  0  0  0  0  0  0  0
   90.6068  101.2101  -44.7425 C   0  0  0  0  0  0  0  0  0  0  0  0
   90.8069   99.9512  -45.2386 C   0  0  0  0  0  0  0  0  0  0  0  0
   89.8551   98.9578  -45.0238 C   0  0  0  0  0  0  0  0  0  0  0  0
   88.7347   99.3134  -44.3021 C   0  0  0  0  0  0  0  0  0  0  0  0
   88.5454  100.5716  -43.8117 C   0  0  0  0  0  0  0  0  0  0  0  0
   89.4839  101.5691  -44.0179 C   0  0  0  0  0  0  0  0  0  0  0  0
   87.7854   98.2872  -44.0992 O   0  0  0  0  0  0  0  0  0  0  0  0
   86.4128   98.5907  -43.9323 C   0  0  0  0  0  0  0  0  0  0  0  0
 18 19  1  0  0  0
 19 20  2  0  0  0
 19 24  1  0  0  0
 20 21  1  0  0  0
 21 22  2  0  0  0
 21  1  1  0  0  0
 22 23  1  0  0  0
 22 25  1  0  0  0
 23 24  2  0  0  0
 25 26  1  0  0  0
  1  2  1  0  0  0
  1  5  2  0  0  0
  2  3  1  0  0  0
  2  8  1  0  0  0
  3  4  2  0  0  0
  3  6  1  0  0  0
  4  5  1  0  0  0
  6  7  1  0  0  0
  6 17  1  0  0  0
  7  8  2  0  0  0
  7 13  1  0  0  0
  8  9  1  0  0  0
  9 10  1  0  0  0
  9 16  1  0  0  0
 10 11  2  0  0  0
 10 12  1  0  0  0
 12 13  1  0  0  0
 12 15  1  0  0  0
 13 14  2  0  0  0
M  END
> <minimizedAffinity>
-6.59097

$$$$
2017


 24 27  0  0  0  0  0  0  0  0999 V2000
   90.9785   91.4381  -47.6498 Cl  0  0  0  0  0  0  0  0  0  0  0  0
   91.1774   92.6881  -46.4333 C   0  0  0  0  0  0  0  0  0  0  0  0
   90.6993   93.9727  -46.6077 C   0  0  0  0  0  0  0  0  0  0  0  0
   90.8589   94.9328  -45.6598 N   0  0  0  0  0  0  0  0  0  0  0  0
   91.4878   94.7005  -44.4948 C   0  0  0  0  0  0  0  0  0  0  0  0
   91.6512   95.6450  -43.5499 N   0  0  0  0  0  0  0  0  0  0  0  0
   91.1898   96.8979  -43.7116 C   0  0  0  0  0  0  0  0  0  0  0  0
   90.5339   97.1485  -44.9181 C   0  0  0  0  0  0  0  0  0  0  0  0
   90.3732   96.1735  -45.8789 C   0  0  0  0  0  0  0  0  0  0  0  0
   89.7751   96.4077  -46.9780 O   0  0  0  0  0  0  0  0  0  0  0  0
   91.9782   93.4169  -44.2934 C   0  0  0  0  0  0  0  0  0  0  0  0
   91.8261   92.4281  -45.2444 C   0  0  0  0  0  0  0  0  0  0  0  0
   91.3449   97.9737  -42.6983 C   0  0  0  0  0  0  0  0  0  0  0  0
   91.3198   99.2327  -43.3458 N   0  0  0  0  0  0  0  0  0  0  0  0
   92.5174   99.6945  -43.9401 C   0  0  0  0  0  0  0  0  0  0  0  0
   92.6523  101.2086  -43.9849 C   0  0  0  0  0  0  0  0  0  0  0  0
   92.3520  101.6852  -42.6088 C   0  0  0  0  0  0  0  0  0  0  0  0
   91.2125  101.1672  -42.0295 C   0  0  0  0  0  0  0  0  0  0  0  0
   90.9005  101.5668  -40.7876 N   0  0  0  0  0  0  0  0  0  0  0  0
   91.6973  102.4614  -40.1260 C   0  0  0  0  0  0  0  0  0  0  0  0
   92.8090  102.9481  -40.7270 N   0  0  0  0  0  0  0  0  0  0  0  0
   93.1781  102.5850  -41.9754 C   0  0  0  0  0  0  0  0  0  0  0  0
   91.3626  102.9110  -38.7499 C   0  0  0  0  0  0  0  0  0  0  0  0
   90.4170  100.2055  -42.8308 C   0  0  0  0  0  0  0  0  0  0  0  0
  1  2  1  0  0  0
  2  3  2  0  0  0
  2 12  1  0  0  0
  3  4  1  0  0  0
  4  5  1  0  0  0
  4  9  1  0  0  0
  5  6  2  0  0  0
  5 11  1  0  0  0
  6  7  1  0  0  0
  7  8  2  0  0  0
  7 13  1  0  0  0
  8  9  1  0  0  0
  9 10  2  0  0  0
 13 14  1  0  0  0
 14 15  1  0  0  0
 14 24  1  0  0  0
 15 16  1  0  0  0
 16 17  1  0  0  0
 17 18  2  0  0  0
 17 22  1  0  0  0
 18 19  1  0  0  0
 18 24  1  0  0  0
 19 20  2  0  0  0
 20 21  1  0  0  0
 20 23  1  0  0  0
 21 22  2  0  0  0
 11 12  2  0  0  0
M  END
> <minimizedAffinity>
-6.70411

$$$$
2020


 22 24  0  0  0  0  0  0  0  0999 V2000
   90.1923   98.0512  -44.0395 C   0  0  0  0  0  0  0  0  0  0  0  0
   90.7522   98.6959  -45.3378 C   0  0  0  0  0  0  0  0  0  0  0  0
   92.2415   98.3846  -45.0938 C   0  0  0  0  0  0  0  0  0  0  0  0
   92.9763   97.8891  -45.9287 O   0  0  0  0  0  0  0  0  0  0  0  0
   92.6263   98.7632  -43.7524 N   0  0  0  0  0  0  0  0  0  0  0  0
   91.7116   99.7298  -43.1172 C   0  0  0  0  0  0  0  0  0  0  0  0
   91.5032  100.7342  -44.1696 N   0  0  0  0  0  0  0  0  0  0  0  0
   90.7568  100.1896  -45.2761 C   0  0  0  0  0  0  0  0  0  0  0  0
   90.1635  100.8886  -46.1178 O   0  0  0  0  0  0  0  0  0  0  0  0
   90.3442   99.0067  -42.9807 C   0  0  0  0  0  0  0  0  0  0  0  0
   92.1648  100.2910  -41.8423 C   0  0  0  0  0  0  0  0  0  0  0  0
   93.4453   98.3890  -43.2662 H   0  0  0  0  0  0  0  0  0  0  0  0
   91.8556  101.6963  -44.1091 H   0  0  0  0  0  0  0  0  0  0  0  0
   90.9904   93.6349  -46.8366 Br  0  0  0  0  0  0  0  0  0  0  0  0
   91.1979   94.6618  -45.2491 C   0  0  0  0  0  0  0  0  0  0  0  0
   90.6995   95.9650  -45.1897 C   0  0  0  0  0  0  0  0  0  0  0  0
   90.8313   96.7402  -44.0303 C   0  0  0  0  0  0  0  0  0  0  0  0
   91.4803   96.1346  -42.9689 C   0  0  0  0  0  0  0  0  0  0  0  0
   91.9665   94.8411  -43.0480 C   0  0  0  0  0  0  0  0  0  0  0  0
   91.8306   94.0987  -44.1872 C   0  0  0  0  0  0  0  0  0  0  0  0
   91.6100   96.9070  -41.8500 O   0  0  0  0  0  0  0  0  0  0  0  0
   92.3376   96.4299  -40.7505 C   0  0  0  0  0  0  0  0  0  0  0  0
 14 15  1  0  0  0
 15 16  2  0  0  0
 15 20  1  0  0  0
 16 17  1  0  0  0
 17 18  2  0  0  0
 17  1  1  0  0  0
 18 19  1  0  0  0
 18 21  1  0  0  0
 19 20  2  0  0  0
 21 22  1  0  0  0
  1  2  1  0  0  0
  1 10  1  0  0  0
  2  3  1  0  0  0
  2  8  1  0  0  0
  3  4  2  0  0  0
  3  5  1  0  0  0
  5  6  1  0  0  0
  6  7  1  0  0  0
  6 10  1  0  0  0
  6 11  1  0  0  0
  7  8  1  0  0  0
  8  9  2  0  0  0
  5 12  1  0  0  0
  7 13  1  0  0  0
M  END
> <minimizedAffinity>
-5.38306

$$$$
2028


 31 34  0  0  0  0  0  0  0  0999 V2000
   91.6139   93.3125  -45.8825 Cl  0  0  0  0  0  0  0  0  0  0  0  0
   91.6730   94.4161  -44.5106 C   0  0  0  0  0  0  0  0  0  0  0  0
   91.7577   95.7953  -44.7741 C   0  0  0  0  0  0  0  0  0  0  0  0
   91.7978   96.6463  -43.7099 C   0  0  0  0  0  0  0  0  0  0  0  0
   91.7644   96.1860  -42.4010 C   0  0  0  0  0  0  0  0  0  0  0  0
   91.6836   94.8311  -42.1746 C   0  0  0  0  0  0  0  0  0  0  0  0
   91.6356   93.9366  -43.2202 C   0  0  0  0  0  0  0  0  0  0  0  0
   91.6494   94.3594  -40.7458 C   0  0  0  0  0  0  0  0  0  0  0  0
   91.7559   98.0372  -44.2576 C   0  0  0  0  0  0  0  0  0  0  0  0
   92.5428   98.9775  -43.5652 N   0  0  0  0  0  0  0  0  0  0  0  0
   91.7170   99.5250  -42.5265 C   0  0  0  0  0  0  0  0  0  0  0  0
   90.3230   99.0931  -42.7359 C   0  0  0  0  0  0  0  0  0  0  0  0
   90.3700   98.5977  -44.1836 C   0  0  0  0  0  0  0  0  0  0  0  0
   90.2023   99.8450  -44.9066 C   0  0  0  0  0  0  0  0  0  0  0  0
   90.6936  100.3007  -45.9625 O   0  0  0  0  0  0  0  0  0  0  0  0
   89.2445  100.6012  -44.1197 N   0  0  0  0  0  0  0  0  0  0  0  0
   89.2928  100.1233  -42.7838 C   0  0  0  0  0  0  0  0  0  0  0  0
   88.5794  100.5264  -41.8546 O   0  0  0  0  0  0  0  0  0  0  0  0
   92.1012   97.8554  -45.6656 C   0  0  0  0  0  0  0  0  0  0  0  0
   92.4995   98.6837  -46.5440 O   0  0  0  0  0  0  0  0  0  0  0  0
   91.9316   96.4975  -45.9989 N   0  0  0  0  0  0  0  0  0  0  0  0
   93.4284   98.5696  -43.1794 H   0  0  0  0  0  0  0  0  0  0  0  0
   91.9245   96.0326  -46.9419 H   0  0  0  0  0  0  0  0  0  0  0  0
   91.9238  101.0183  -42.3566 C   0  0  0  0  0  0  0  0  0  0  0  0
   91.9616  101.4558  -41.0661 O   0  0  0  0  0  0  0  0  0  0  0  0
   93.0398  101.4657  -43.2421 C   0  0  0  0  0  0  0  0  0  0  0  0
   92.6765  102.1143  -40.8733 H   0  0  0  0  0  0  0  0  0  0  0  0
   88.3661  101.6513  -44.5633 C   0  0  0  0  0  0  0  0  0  0  0  0
   87.0526  101.2115  -45.0942 C   0  0  0  0  0  0  0  0  0  0  0  0
   86.0930  100.8481  -44.1984 O   0  0  0  0  0  0  0  0  0  0  0  0
   85.7733   99.5062  -44.1895 C   0  0  0  0  0  0  0  0  0  0  0  0
  1  2  1  0  0  0
  2  3  2  0  0  0
  2  7  1  0  0  0
  3  4  1  0  0  0
  3 21  1  0  0  0
  4  5  2  0  0  0
  4  9  1  0  0  0
  5  6  1  0  0  0
  6  7  2  0  0  0
  6  8  1  0  0  0
  9 10  1  0  0  0
  9 13  1  0  0  0
  9 19  1  0  0  0
 10 11  1  0  0  0
 11 12  1  0  0  0
 11 24  1  0  0  0
 12 13  1  0  0  0
 12 17  1  0  0  0
 13 14  1  0  0  0
 14 15  2  0  0  0
 14 16  1  0  0  0
 16 17  1  0  0  0
 16 28  1  0  0  0
 17 18  2  0  0  0
 28 29  1  0  0  0
 29 30  1  0  0  0
 30 31  1  0  0  0
 24 25  1  0  0  0
 24 26  1  0  0  0
 19 20  2  0  0  0
 19 21  1  0  0  0
 10 22  1  0  0  0
 25 27  1  0  0  0
 21 23  1  0  0  0
M  END
> <minimizedAffinity>
-5.90304

$$$$
2032


 31 34  0  0  0  0  0  0  0  0999 V2000
   91.3097   97.1357  -44.9024 C   0  0  0  0  0  0  0  0  0  0  0  0
   90.2021   97.7614  -45.1386 C   0  0  0  0  0  0  0  0  0  0  0  0
   88.9485   97.2184  -45.1772 O   0  0  0  0  0  0  0  0  0  0  0  0
   88.0250   98.2246  -45.4535 C   0  0  0  0  0  0  0  0  0  0  0  0
   88.6183   99.4361  -45.6092 C   0  0  0  0  0  0  0  0  0  0  0  0
   87.8629  100.5838  -45.8751 C   0  0  0  0  0  0  0  0  0  0  0  0
   86.4982  100.5472  -45.9951 C   0  0  0  0  0  0  0  0  0  0  0  0
   85.9311   99.2705  -45.8314 C   0  0  0  0  0  0  0  0  0  0  0  0
   86.6324   98.1436  -45.5685 C   0  0  0  0  0  0  0  0  0  0  0  0
   84.5283   99.2837  -45.9817 O   0  0  0  0  0  0  0  0  0  0  0  0
   90.0515   99.1913  -45.4140 C   0  0  0  0  0  0  0  0  0  0  0  0
   90.9741  100.0555  -45.4713 O   0  0  0  0  0  0  0  0  0  0  0  0
   91.4583   92.1265  -46.7619 Br  0  0  0  0  0  0  0  0  0  0  0  0
   91.5299   93.4248  -45.3795 C   0  0  0  0  0  0  0  0  0  0  0  0
   91.4120   94.8011  -45.6439 C   0  0  0  0  0  0  0  0  0  0  0  0
   91.4730   95.7158  -44.6251 C   0  0  0  0  0  0  0  0  0  0  0  0
   91.6474   95.2791  -43.3323 C   0  0  0  0  0  0  0  0  0  0  0  0
   91.7634   93.9055  -43.0711 C   0  0  0  0  0  0  0  0  0  0  0  0
   91.7063   93.0008  -44.0812 C   0  0  0  0  0  0  0  0  0  0  0  0
   91.6959   96.2274  -42.3699 O   0  0  0  0  0  0  0  0  0  0  0  0
   92.1116   96.0790  -41.0561 C   0  0  0  0  0  0  0  0  0  0  0  0
   86.0456   96.7958  -45.4470 C   0  0  0  0  0  0  0  0  0  0  0  0
   85.5001   96.3393  -46.7033 N   0  0  0  0  0  0  0  0  0  0  0  0
   84.3207   95.5319  -46.4477 C   0  0  0  0  0  0  0  0  0  0  0  0
   84.1751   94.3524  -47.3124 C   0  0  0  0  0  0  0  0  0  0  0  0
   84.7092   94.4662  -48.6320 N   0  0  0  0  0  0  0  0  0  0  0  0
   85.4863   95.5812  -48.9331 C   0  0  0  0  0  0  0  0  0  0  0  0
   86.3649   95.9523  -47.7092 C   0  0  0  0  0  0  0  0  0  0  0  0
   85.0496   97.2926  -47.0841 H   0  0  0  0  0  0  0  0  0  0  0  0
   84.9762   93.2597  -49.3179 C   0  0  0  0  0  0  0  0  0  0  0  0
   86.1568   93.2823  -50.2238 C   0  0  0  0  0  0  0  0  0  0  0  0
 13 14  1  0  0  0
 14 15  2  0  0  0
 14 19  1  0  0  0
 15 16  1  0  0  0
 16 17  2  0  0  0
 16  1  1  0  0  0
 17 18  1  0  0  0
 17 20  1  0  0  0
 18 19  2  0  0  0
 20 21  1  0  0  0
  1  2  2  0  0  0
  2  3  1  0  0  0
  2 11  1  0  0  0
  3  4  1  0  0  0
  4  5  2  0  0  0
  4  9  1  0  0  0
  5  6  1  0  0  0
  5 11  1  0  0  0
  6  7  2  0  0  0
  7  8  1  0  0  0
  8  9  2  0  0  0
  8 10  1  0  0  0
  9 22  1  0  0  0
 22 23  1  0  0  0
 23 24  1  0  0  0
 23 28  1  0  0  0
 24 25  1  0  0  0
 25 26  1  0  0  0
 26 27  1  0  0  0
 26 30  1  0  0  0
 27 28  1  0  0  0
 30 31  1  0  0  0
 11 12  2  0  0  0
 23 29  1  0  0  0
M  CHG 1  10  -1
M  CHG 1  23   1
M  END
> <minimizedAffinity>
-6.08399

$$$$
2033


 29 32  0  0  0  0  0  0  0  0999 V2000
   91.6745   98.9713  -42.1881 C   0  0  0  0  0  0  0  0  0  0  0  0
   91.6952   97.7293  -42.5860 C   0  0  0  0  0  0  0  0  0  0  0  0
   91.2691   97.2969  -43.8321 O   0  0  0  0  0  0  0  0  0  0  0  0
   91.4047   95.9288  -43.9765 C   0  0  0  0  0  0  0  0  0  0  0  0
   91.9283   95.3714  -42.8323 C   0  0  0  0  0  0  0  0  0  0  0  0
   92.1458   94.0115  -42.7611 C   0  0  0  0  0  0  0  0  0  0  0  0
   91.8328   93.2178  -43.8441 C   0  0  0  0  0  0  0  0  0  0  0  0
   91.2974   93.8131  -45.0033 C   0  0  0  0  0  0  0  0  0  0  0  0
   91.0757   95.1527  -45.0970 C   0  0  0  0  0  0  0  0  0  0  0  0
   91.0272   92.8843  -46.0209 O   0  0  0  0  0  0  0  0  0  0  0  0
   92.1286   96.4993  -41.9162 C   0  0  0  0  0  0  0  0  0  0  0  0
   92.5900   96.4384  -40.7552 O   0  0  0  0  0  0  0  0  0  0  0  0
   92.8057  103.3147  -45.1743 Br  0  0  0  0  0  0  0  0  0  0  0  0
   91.6508  102.0809  -44.2954 C   0  0  0  0  0  0  0  0  0  0  0  0
   92.0654  100.9930  -43.5826 C   0  0  0  0  0  0  0  0  0  0  0  0
   91.2096  100.1147  -42.9549 C   0  0  0  0  0  0  0  0  0  0  0  0
   89.8406  100.3755  -43.0688 C   0  0  0  0  0  0  0  0  0  0  0  0
   89.3676  101.4497  -43.7709 C   0  0  0  0  0  0  0  0  0  0  0  0
   90.2793  102.3014  -44.3834 C   0  0  0  0  0  0  0  0  0  0  0  0
   88.9610   99.5127  -42.4444 O   0  0  0  0  0  0  0  0  0  0  0  0
   87.7381   99.1850  -43.0501 C   0  0  0  0  0  0  0  0  0  0  0  0
   90.5511   95.8161  -46.2589 C   0  0  0  0  0  0  0  0  0  0  0  0
   89.1759   95.8917  -46.5391 N   0  0  0  0  0  0  0  0  0  0  0  0
   88.5003   97.0633  -46.0515 C   0  0  0  0  0  0  0  0  0  0  0  0
   88.6465   98.2737  -46.9402 C   0  0  0  0  0  0  0  0  0  0  0  0
   89.5095   98.0764  -48.0094 O   0  0  0  0  0  0  0  0  0  0  0  0
   88.9900   97.0136  -48.7405 C   0  0  0  0  0  0  0  0  0  0  0  0
   88.8859   95.7349  -47.9760 C   0  0  0  0  0  0  0  0  0  0  0  0
   88.6980   95.0641  -46.1268 H   0  0  0  0  0  0  0  0  0  0  0  0
 13 14  1  0  0  0
 14 15  2  0  0  0
 14 19  1  0  0  0
 15 16  1  0  0  0
 16 17  2  0  0  0
 16  1  1  0  0  0
 17 18  1  0  0  0
 17 20  1  0  0  0
 18 19  2  0  0  0
 20 21  1  0  0  0
  1  2  2  0  0  0
  2  3  1  0  0  0
  2 11  1  0  0  0
  3  4  1  0  0  0
  4  5  2  0  0  0
  4  9  1  0  0  0
  5  6  1  0  0  0
  5 11  1  0  0  0
  6  7  2  0  0  0
  7  8  1  0  0  0
  8  9  2  0  0  0
  8 10  1  0  0  0
  9 22  1  0  0  0
 22 23  1  0  0  0
 23 24  1  0  0  0
 23 28  1  0  0  0
 24 25  1  0  0  0
 25 26  1  0  0  0
 26 27  1  0  0  0
 27 28  1  0  0  0
 11 12  2  0  0  0
 23 29  1  0  0  0
M  CHG 1  10  -1
M  CHG 1  23   1
M  END
> <minimizedAffinity>
-6.03448

$$$$
2041


 30 33  0  0  0  0  0  0  0  0999 V2000
   87.3310  100.6614  -42.8043 N   0  0  0  0  0  0  0  0  0  0  0  0
   88.2864  101.7506  -42.7788 C   0  0  0  0  0  0  0  0  0  0  0  0
   89.5894  101.2976  -42.1321 C   0  0  0  0  0  0  0  0  0  0  0  0
   90.1255  100.1985  -42.9345 N   0  0  0  0  0  0  0  0  0  0  0  0
   89.2249   99.6699  -43.9156 C   0  0  0  0  0  0  0  0  0  0  0  0
   87.9012   99.4230  -43.2408 C   0  0  0  0  0  0  0  0  0  0  0  0
   91.4352   99.7631  -42.7095 C   0  0  0  0  0  0  0  0  0  0  0  0
   92.1407  100.3555  -41.7951 O   0  0  0  0  0  0  0  0  0  0  0  0
   85.9744  101.0905  -43.7697 S   0  0  0  0  0  0  0  0  0  0  0  0
   84.9786  101.7605  -42.8517 O   0  0  0  0  0  0  0  0  0  0  0  0
   86.3265  102.0789  -44.8291 O   0  0  0  0  0  0  0  0  0  0  0  0
   85.2713   99.6481  -44.4664 C   0  0  0  0  0  0  0  0  0  0  0  0
   84.3792   98.8282  -43.8139 C   0  0  0  0  0  0  0  0  0  0  0  0
   83.8682   97.7020  -44.4125 C   0  0  0  0  0  0  0  0  0  0  0  0
   84.2498   97.3667  -45.7115 C   0  0  0  0  0  0  0  0  0  0  0  0
   85.1567   98.1908  -46.3868 C   0  0  0  0  0  0  0  0  0  0  0  0
   85.6547   99.3150  -45.7654 C   0  0  0  0  0  0  0  0  0  0  0  0
   83.5925   95.9350  -46.4587 Cl  0  0  0  0  0  0  0  0  0  0  0  0
   92.1693   98.6888  -43.3856 C   0  0  0  0  0  0  0  0  0  0  0  0
   91.5495   97.0446  -43.0550 S   0  0  0  0  0  0  0  0  0  0  0  0
   91.0340   96.1513  -44.5107 C   0  0  0  0  0  0  0  0  0  0  0  0
   90.3187   96.7375  -45.4621 N   0  0  0  0  0  0  0  0  0  0  0  0
   89.9238   96.1188  -46.5780 C   0  0  0  0  0  0  0  0  0  0  0  0
   90.2756   94.8066  -46.7479 N   0  0  0  0  0  0  0  0  0  0  0  0
   90.9957   94.1863  -45.8075 C   0  0  0  0  0  0  0  0  0  0  0  0
   91.4763   92.9108  -45.7376 N   0  0  0  0  0  0  0  0  0  0  0  0
   92.1392   92.7793  -44.6070 N   0  0  0  0  0  0  0  0  0  0  0  0
   92.1182   93.9234  -43.9196 C   0  0  0  0  0  0  0  0  0  0  0  0
   91.4022   94.8311  -44.6539 C   0  0  0  0  0  0  0  0  0  0  0  0
   91.2952   91.8961  -46.7338 C   0  0  0  0  0  0  0  0  0  0  0  0
  9 10  2  0  0  0
  9 11  2  0  0  0
  9  1  1  0  0  0
  9 12  1  0  0  0
  1  2  1  0  0  0
  1  6  1  0  0  0
  2  3  1  0  0  0
  3  4  1  0  0  0
  4  5  1  0  0  0
  4  7  1  0  0  0
  5  6  1  0  0  0
  7  8  2  0  0  0
  7 19  1  0  0  0
 19 20  1  0  0  0
 20 21  1  0  0  0
 21 22  2  0  0  0
 21 29  1  0  0  0
 22 23  1  0  0  0
 23 24  2  0  0  0
 24 25  1  0  0  0
 25 26  1  0  0  0
 25 29  2  0  0  0
 26 27  1  0  0  0
 26 30  1  0  0  0
 27 28  2  0  0  0
 28 29  1  0  0  0
 12 13  2  0  0  0
 12 17  1  0  0  0
 13 14  1  0  0  0
 14 15  2  0  0  0
 15 16  1  0  0  0
 15 18  1  0  0  0
 16 17  2  0  0  0
M  END
> <minimizedAffinity>
-6.08936

$$$$
2043


 32 35  0  0  0  0  0  0  0  0999 V2000
   90.6889  102.1284  -41.9578 N   0  0  0  0  0  0  0  0  0  0  0  0
   89.7277  101.0617  -41.8237 C   0  0  0  0  0  0  0  0  0  0  0  0
   89.2658  100.6699  -43.2257 C   0  0  0  0  0  0  0  0  0  0  0  0
   90.3758  100.6495  -44.1015 N   0  0  0  0  0  0  0  0  0  0  0  0
   90.8048  102.0785  -44.4412 C   0  0  0  0  0  0  0  0  0  0  0  0
   90.6478  102.8460  -43.1777 C   0  0  0  0  0  0  0  0  0  0  0  0
   91.1200   99.6313  -44.6223 C   0  0  0  0  0  0  0  0  0  0  0  0
   91.9887  100.1309  -45.5671 O   0  0  0  0  0  0  0  0  0  0  0  0
   91.2990   98.2363  -44.5212 C   0  0  0  0  0  0  0  0  0  0  0  0
   91.4608   97.3017  -43.6439 C   0  0  0  0  0  0  0  0  0  0  0  0
   91.5170   97.5277  -42.2605 N   0  0  0  0  0  0  0  0  0  0  0  0
   91.6329   96.5144  -41.2827 N   0  0  0  0  0  0  0  0  0  0  0  0
   91.7000   95.1802  -41.6957 C   0  0  0  0  0  0  0  0  0  0  0  0
   91.8039   94.2672  -40.8354 O   0  0  0  0  0  0  0  0  0  0  0  0
   91.6475   94.8803  -43.1374 C   0  0  0  0  0  0  0  0  0  0  0  0
   91.5332   95.8770  -44.0887 C   0  0  0  0  0  0  0  0  0  0  0  0
   91.4910   95.5131  -45.3962 C   0  0  0  0  0  0  0  0  0  0  0  0
   91.5620   94.1614  -45.7479 C   0  0  0  0  0  0  0  0  0  0  0  0
   91.6761   93.1677  -44.8085 C   0  0  0  0  0  0  0  0  0  0  0  0
   91.7186   93.5421  -43.4829 C   0  0  0  0  0  0  0  0  0  0  0  0
   91.5157   98.4781  -41.8841 H   0  0  0  0  0  0  0  0  0  0  0  0
   91.6646   96.8101  -40.2619 H   0  0  0  0  0  0  0  0  0  0  0  0
   92.1985  101.8307  -41.2846 S   0  0  0  0  0  0  0  0  0  0  0  0
   92.4715  100.3366  -41.3984 O   0  0  0  0  0  0  0  0  0  0  0  0
   93.2522  102.4813  -42.1735 O   0  0  0  0  0  0  0  0  0  0  0  0
   92.4308  102.4063  -39.6813 C   0  0  0  0  0  0  0  0  0  0  0  0
   91.3939  102.9306  -38.9512 C   0  0  0  0  0  0  0  0  0  0  0  0
   91.6051  103.3873  -37.6628 C   0  0  0  0  0  0  0  0  0  0  0  0
   92.8454  103.3384  -37.0666 C   0  0  0  0  0  0  0  0  0  0  0  0
   93.8968  102.8109  -37.7988 C   0  0  0  0  0  0  0  0  0  0  0  0
   93.6697  102.3536  -39.0952 C   0  0  0  0  0  0  0  0  0  0  0  0
   93.0603  103.9314  -35.4318 Cl  0  0  0  0  0  0  0  0  0  0  0  0
 23 24  2  0  0  0
 23 25  2  0  0  0
 23  1  1  0  0  0
 23 26  1  0  0  0
  1  2  1  0  0  0
  1  6  1  0  0  0
  2  3  1  0  0  0
  3  4  1  0  0  0
  4  5  1  0  0  0
  4  7  1  0  0  0
  5  6  1  0  0  0
  7  8  2  0  0  0
  7  9  1  0  0  0
  9 10  2  0  0  0
 10 11  1  0  0  0
 10 16  1  0  0  0
 11 12  1  0  0  0
 12 13  1  0  0  0
 13 14  2  0  0  0
 13 15  1  0  0  0
 15 16  2  0  0  0
 15 20  1  0  0  0
 16 17  1  0  0  0
 17 18  2  0  0  0
 18 19  1  0  0  0
 19 20  2  0  0  0
 26 27  2  0  0  0
 26 31  1  0  0  0
 27 28  1  0  0  0
 28 29  2  0  0  0
 29 30  1  0  0  0
 29 32  1  0  0  0
 30 31  2  0  0  0
 11 21  1  0  0  0
 12 22  1  0  0  0
M  END
> <minimizedAffinity>
-8.02156

$$$$
2046


 26 29  0  0  0  0  0  0  0  0999 V2000
   91.8047  104.6065  -41.2288 Cl  0  0  0  0  0  0  0  0  0  0  0  0
   91.5165  102.9288  -41.5704 C   0  0  0  0  0  0  0  0  0  0  0  0
   92.5369  102.0128  -41.5435 C   0  0  0  0  0  0  0  0  0  0  0  0
   92.2444  100.6973  -41.8245 C   0  0  0  0  0  0  0  0  0  0  0  0
   90.9772  100.2512  -42.1315 C   0  0  0  0  0  0  0  0  0  0  0  0
   89.9652  101.1838  -42.1541 C   0  0  0  0  0  0  0  0  0  0  0  0
   90.2484  102.5033  -41.8749 C   0  0  0  0  0  0  0  0  0  0  0  0
   93.8650  102.3693  -41.2505 N   0  0  0  0  0  0  0  0  0  0  0  0
   94.7643  102.7101  -42.1510 N   0  0  0  0  0  0  0  0  0  0  0  0
   95.9096  102.9988  -41.5625 N   0  0  0  0  0  0  0  0  0  0  0  0
   95.7152  102.8317  -40.2700 N   0  0  0  0  0  0  0  0  0  0  0  0
   94.4261  102.4338  -40.0505 C   0  0  0  0  0  0  0  0  0  0  0  0
   93.9064  102.1563  -38.7124 C   0  0  0  0  0  0  0  0  0  0  0  0
   94.3260  102.8170  -37.4825 C   0  0  0  0  0  0  0  0  0  0  0  0
   93.0048  103.2788  -38.1198 C   0  0  0  0  0  0  0  0  0  0  0  0
   90.6990   98.8587  -42.4227 N   0  0  0  0  0  0  0  0  0  0  0  0
   89.7481   98.4822  -42.3644 H   0  0  0  0  0  0  0  0  0  0  0  0
   91.8119   98.0546  -42.7909 C   0  0  0  0  0  0  0  0  0  0  0  0
   91.7496   96.6197  -42.5293 C   0  0  0  0  0  0  0  0  0  0  0  0
   91.9955   96.3291  -41.2753 O   0  0  0  0  0  0  0  0  0  0  0  0
   91.4853   95.5442  -43.3400 N   0  0  0  0  0  0  0  0  0  0  0  0
   91.0908   95.5939  -44.7116 C   0  0  0  0  0  0  0  0  0  0  0  0
   92.1216   94.8281  -45.5362 C   0  0  0  0  0  0  0  0  0  0  0  0
   92.0240   93.4945  -45.0821 O   0  0  0  0  0  0  0  0  0  0  0  0
   92.5439   93.4332  -43.8075 C   0  0  0  0  0  0  0  0  0  0  0  0
   91.6405   94.1707  -42.8131 C   0  0  0  0  0  0  0  0  0  0  0  0
  1  2  1  0  0  0
  2  3  2  0  0  0
  2  7  1  0  0  0
  3  4  1  0  0  0
  3  8  1  0  0  0
  4  5  2  0  0  0
  5  6  1  0  0  0
  5 16  1  0  0  0
  6  7  2  0  0  0
 16 18  1  0  0  0
 18 19  1  0  0  0
 19 20  2  0  0  0
 19 21  1  0  0  0
 21 22  1  0  0  0
 21 26  1  0  0  0
 22 23  1  0  0  0
 23 24  1  0  0  0
 24 25  1  0  0  0
 25 26  1  0  0  0
  8  9  1  0  0  0
  8 12  1  0  0  0
  9 10  2  0  0  0
 10 11  1  0  0  0
 11 12  2  0  0  0
 12 13  1  0  0  0
 13 14  1  0  0  0
 13 15  1  0  0  0
 14 15  1  0  0  0
 16 17  1  0  0  0
M  END
> <minimizedAffinity>
-5.91218

$$$$
2063


 34 37  0  0  0  0  0  0  0  0999 V2000
   91.1060   97.8754  -43.9653 C   0  0  0  0  0  0  0  0  0  0  0  0
   90.9098   97.7541  -45.3378 C   0  0  0  0  0  0  0  0  0  0  0  0
   91.0167   96.6082  -45.9677 O   0  0  0  0  0  0  0  0  0  0  0  0
   91.3176   95.4862  -45.3577 C   0  0  0  0  0  0  0  0  0  0  0  0
   91.5300   95.5067  -43.9993 C   0  0  0  0  0  0  0  0  0  0  0  0
   91.8419   94.3096  -43.4023 C   0  0  0  0  0  0  0  0  0  0  0  0
   91.9474   93.1277  -44.0904 C   0  0  0  0  0  0  0  0  0  0  0  0
   91.7327   93.0843  -45.4830 C   0  0  0  0  0  0  0  0  0  0  0  0
   91.4214   94.2863  -46.0734 C   0  0  0  0  0  0  0  0  0  0  0  0
   91.4255   96.6938  -43.3070 C   0  0  0  0  0  0  0  0  0  0  0  0
   91.6198   96.7142  -42.0623 O   0  0  0  0  0  0  0  0  0  0  0  0
   90.3899  103.2779  -41.0552 Br  0  0  0  0  0  0  0  0  0  0  0  0
   90.6311  101.6096  -41.9594 C   0  0  0  0  0  0  0  0  0  0  0  0
   91.8488  101.2396  -42.4815 C   0  0  0  0  0  0  0  0  0  0  0  0
   92.0353  100.0300  -43.1403 C   0  0  0  0  0  0  0  0  0  0  0  0
   90.9830   99.1510  -43.2911 C   0  0  0  0  0  0  0  0  0  0  0  0
   89.7585   99.5254  -42.7644 C   0  0  0  0  0  0  0  0  0  0  0  0
   89.5723  100.7258  -42.1099 C   0  0  0  0  0  0  0  0  0  0  0  0
   91.8479   91.8757  -46.1382 O   0  0  0  0  0  0  0  0  0  0  0  0
   91.6143   91.6420  -47.4614 C   0  0  0  0  0  0  0  0  0  0  0  0
   90.3030   92.0037  -47.8714 O   0  0  0  0  0  0  0  0  0  0  0  0
   90.3878   92.2135  -49.2306 C   0  0  0  0  0  0  0  0  0  0  0  0
   90.7378   90.9948  -50.0266 C   0  0  0  0  0  0  0  0  0  0  0  0
   91.8406   90.1856  -49.3874 C   0  0  0  0  0  0  0  0  0  0  0  0
   91.7391   90.1874  -47.8762 C   0  0  0  0  0  0  0  0  0  0  0  0
   92.8941   89.6053  -47.3680 O   0  0  0  0  0  0  0  0  0  0  0  0
   91.8423   88.9019  -49.9175 O   0  0  0  0  0  0  0  0  0  0  0  0
   91.2320   91.4367  -51.2646 O   0  0  0  0  0  0  0  0  0  0  0  0
   92.7262   88.6736  -47.0924 H   0  0  0  0  0  0  0  0  0  0  0  0
   91.2541   88.8269  -50.7303 H   0  0  0  0  0  0  0  0  0  0  0  0
   91.8743   92.1791  -51.1396 H   0  0  0  0  0  0  0  0  0  0  0  0
   89.1536   92.8618  -49.8051 C   0  0  0  0  0  0  0  0  0  0  0  0
   88.5464   92.0648  -50.7730 O   0  0  0  0  0  0  0  0  0  0  0  0
   87.6662   92.5134  -50.9727 H   0  0  0  0  0  0  0  0  0  0  0  0
 12 13  1  0  0  0
 13 14  2  0  0  0
 13 18  1  0  0  0
 14 15  1  0  0  0
 15 16  2  0  0  0
 16 17  1  0  0  0
 16  1  1  0  0  0
 17 18  2  0  0  0
  1  2  2  0  0  0
  1 10  1  0  0  0
  2  3  1  0  0  0
  3  4  1  0  0  0
  4  5  2  0  0  0
  4  9  1  0  0  0
  5  6  1  0  0  0
  5 10  1  0  0  0
  6  7  2  0  0  0
  7  8  1  0  0  0
  8  9  2  0  0  0
  8 19  1  0  0  0
 19 20  1  0  0  0
 20 21  1  0  0  0
 20 25  1  0  0  0
 21 22  1  0  0  0
 22 23  1  0  0  0
 22 32  1  0  0  0
 23 24  1  0  0  0
 23 28  1  0  0  0
 24 25  1  0  0  0
 24 27  1  0  0  0
 25 26  1  0  0  0
 32 33  1  0  0  0
 10 11  2  0  0  0
 26 29  1  0  0  0
 27 30  1  0  0  0
 28 31  1  0  0  0
 33 34  1  0  0  0
M  END
> <minimizedAffinity>
-7.39753

$$$$
2072


 27 30  0  0  0  0  0  0  0  0999 V2000
   91.4883  102.0970  -43.1488 N   0  0  0  0  0  0  0  0  0  0  0  0
   91.0027  102.3208  -44.4613 C   0  0  0  0  0  0  0  0  0  0  0  0
   91.3851  101.3282  -45.5220 C   0  0  0  0  0  0  0  0  0  0  0  0
   91.5089  100.0364  -44.9316 N   0  0  0  0  0  0  0  0  0  0  0  0
   92.6526  100.1154  -44.0234 C   0  0  0  0  0  0  0  0  0  0  0  0
   92.2746  100.9692  -42.8715 C   0  0  0  0  0  0  0  0  0  0  0  0
   90.1766  102.1865  -42.0354 S   0  0  0  0  0  0  0  0  0  0  0  0
   90.6417  101.6414  -40.7037 O   0  0  0  0  0  0  0  0  0  0  0  0
   89.7271  103.5833  -41.8223 O   0  0  0  0  0  0  0  0  0  0  0  0
   88.7977  101.2563  -42.6404 C   0  0  0  0  0  0  0  0  0  0  0  0
   88.6208   99.5687  -42.8035 S   0  0  0  0  0  0  0  0  0  0  0  0
   87.0424   99.5166  -43.4387 C   0  0  0  0  0  0  0  0  0  0  0  0
   86.6915  100.8384  -43.5068 C   0  0  0  0  0  0  0  0  0  0  0  0
   87.5960  101.7349  -43.0953 C   0  0  0  0  0  0  0  0  0  0  0  0
   85.9790   97.9916  -43.9473 Br  0  0  0  0  0  0  0  0  0  0  0  0
   91.6535   98.9598  -45.8508 C   0  0  0  0  0  0  0  0  0  0  0  0
   90.6035   97.9189  -45.6617 C   0  0  0  0  0  0  0  0  0  0  0  0
   91.0346   96.8529  -44.7822 N   0  0  0  0  0  0  0  0  0  0  0  0
   91.2092   96.9147  -43.4628 N   0  0  0  0  0  0  0  0  0  0  0  0
   91.6019   95.7249  -42.9869 C   0  0  0  0  0  0  0  0  0  0  0  0
   91.6792   94.8886  -44.0291 N   0  0  0  0  0  0  0  0  0  0  0  0
   92.0552   93.5971  -43.8675 C   0  0  0  0  0  0  0  0  0  0  0  0
   92.3753   93.0765  -42.6340 C   0  0  0  0  0  0  0  0  0  0  0  0
   92.3042   93.9173  -41.5407 C   0  0  0  0  0  0  0  0  0  0  0  0
   91.9186   95.2255  -41.7369 C   0  0  0  0  0  0  0  0  0  0  0  0
   91.3248   95.6007  -45.1389 C   0  0  0  0  0  0  0  0  0  0  0  0
   91.3070   95.0731  -46.2764 O   0  0  0  0  0  0  0  0  0  0  0  0
  7  8  2  0  0  0
  7  9  2  0  0  0
  7  1  1  0  0  0
  7 10  1  0  0  0
  1  2  1  0  0  0
  1  6  1  0  0  0
  2  3  1  0  0  0
  3  4  1  0  0  0
  4  5  1  0  0  0
  4 16  1  0  0  0
  5  6  1  0  0  0
 16 17  1  0  0  0
 17 18  1  0  0  0
 18 19  1  0  0  0
 18 26  1  0  0  0
 19 20  2  0  0  0
 20 21  1  0  0  0
 20 25  1  0  0  0
 21 22  1  0  0  0
 21 26  1  0  0  0
 22 23  2  0  0  0
 23 24  1  0  0  0
 24 25  2  0  0  0
 26 27  2  0  0  0
 10 11  1  0  0  0
 10 14  2  0  0  0
 11 12  1  0  0  0
 12 13  2  0  0  0
 12 15  1  0  0  0
 13 14  1  0  0  0
M  END
> <minimizedAffinity>
-5.99678

$$$$
2079


 31 34  0  0  0  0  0  0  0  0999 V2000
   91.4419   93.2777  -45.9054 C   0  0  0  0  0  0  0  0  0  0  0  0
   91.9292   92.8349  -44.6973 C   0  0  0  0  0  0  0  0  0  0  0  0
   92.0407   93.7489  -43.6400 C   0  0  0  0  0  0  0  0  0  0  0  0
   91.6789   95.0695  -43.7912 C   0  0  0  0  0  0  0  0  0  0  0  0
   91.7511   96.0492  -42.8004 C   0  0  0  0  0  0  0  0  0  0  0  0
   92.2381   95.5605  -41.5619 C   0  0  0  0  0  0  0  0  0  0  0  0
   92.6092   94.2334  -41.3674 C   0  0  0  0  0  0  0  0  0  0  0  0
   92.5025   93.3346  -42.4167 C   0  0  0  0  0  0  0  0  0  0  0  0
   92.3844   96.3618  -40.4466 O   0  0  0  0  0  0  0  0  0  0  0  0
   91.2342   95.4347  -44.9251 O   0  0  0  0  0  0  0  0  0  0  0  0
   91.0886   94.6404  -45.9892 C   0  0  0  0  0  0  0  0  0  0  0  0
   90.6549   95.0666  -47.0659 O   0  0  0  0  0  0  0  0  0  0  0  0
   90.3876   89.1669  -50.2533 Cl  0  0  0  0  0  0  0  0  0  0  0  0
   90.7572   90.4038  -49.0269 C   0  0  0  0  0  0  0  0  0  0  0  0
   91.6897   90.2036  -48.0158 C   0  0  0  0  0  0  0  0  0  0  0  0
   91.9147   91.1451  -47.0276 C   0  0  0  0  0  0  0  0  0  0  0  0
   91.1855   92.3496  -47.0248 C   0  0  0  0  0  0  0  0  0  0  0  0
   90.2932   92.5192  -48.0221 C   0  0  0  0  0  0  0  0  0  0  0  0
   90.0490   91.5925  -49.0197 C   0  0  0  0  0  0  0  0  0  0  0  0
   91.2499   97.3781  -42.8327 C   0  0  0  0  0  0  0  0  0  0  0  0
   92.0640   98.5652  -42.7760 N   0  0  0  0  0  0  0  0  0  0  0  0
   92.3858   99.0745  -44.1384 C   0  0  0  0  0  0  0  0  0  0  0  0
   91.1932   98.9533  -45.0187 C   0  0  0  0  0  0  0  0  0  0  0  0
   90.0289   99.6924  -44.5872 N   0  0  0  0  0  0  0  0  0  0  0  0
   89.9668   99.8601  -43.1750 C   0  0  0  0  0  0  0  0  0  0  0  0
   91.1569   99.6815  -42.3559 C   0  0  0  0  0  0  0  0  0  0  0  0
   92.8388   98.6180  -42.1556 H   0  0  0  0  0  0  0  0  0  0  0  0
   88.8038   99.0429  -45.0778 C   0  0  0  0  0  0  0  0  0  0  0  0
   89.0883   98.0516  -46.1826 C   0  0  0  0  0  0  0  0  0  0  0  0
   88.5433   96.8009  -45.9334 O   0  0  0  0  0  0  0  0  0  0  0  0
   87.6140   96.7802  -46.3272 H   0  0  0  0  0  0  0  0  0  0  0  0
 13 14  1  0  0  0
 14 15  2  0  0  0
 14 19  1  0  0  0
 15 16  1  0  0  0
 16 17  2  0  0  0
 17 18  1  0  0  0
 17  1  1  0  0  0
 18 19  2  0  0  0
  1  2  2  0  0  0
  1 11  1  0  0  0
  2  3  1  0  0  0
  3  4  2  0  0  0
  3  8  1  0  0  0
  4  5  1  0  0  0
  4 10  1  0  0  0
  5  6  2  0  0  0
  5 20  1  0  0  0
  6  7  1  0  0  0
  6  9  1  0  0  0
  7  8  2  0  0  0
 20 21  1  0  0  0
 21 22  1  0  0  0
 21 26  1  0  0  0
 22 23  1  0  0  0
 23 24  1  0  0  0
 24 25  1  0  0  0
 24 28  1  0  0  0
 25 26  1  0  0  0
 28 29  1  0  0  0
 29 30  1  0  0  0
 10 11  1  0  0  0
 11 12  2  0  0  0
 21 27  1  0  0  0
 30 31  1  0  0  0
M  CHG 1   9  -1
M  CHG 1  21   1
M  END
> <minimizedAffinity>
-7.40296

$$$$
2087


 32 35  0  0  0  0  0  0  0  0999 V2000
   90.7806   98.0583  -44.6754 N   0  0  0  0  0  0  0  0  0  0  0  0
   91.1031   96.7719  -44.3202 C   0  0  0  0  0  0  0  0  0  0  0  0
   91.4500   96.7354  -42.9842 C   0  0  0  0  0  0  0  0  0  0  0  0
   91.3345   97.9960  -42.5559 N   0  0  0  0  0  0  0  0  0  0  0  0
   90.9294   98.8083  -43.5833 C   0  0  0  0  0  0  0  0  0  0  0  0
   91.8163   95.5815  -42.3934 N   0  0  0  0  0  0  0  0  0  0  0  0
   91.8372   94.4666  -43.1376 C   0  0  0  0  0  0  0  0  0  0  0  0
   92.1807   93.3963  -42.5758 O   0  0  0  0  0  0  0  0  0  0  0  0
   91.5103   94.4624  -44.4342 N   0  0  0  0  0  0  0  0  0  0  0  0
   91.1328   95.6135  -45.0674 C   0  0  0  0  0  0  0  0  0  0  0  0
   90.8351   95.5763  -46.2856 O   0  0  0  0  0  0  0  0  0  0  0  0
   92.1674   95.5866  -40.9851 C   0  0  0  0  0  0  0  0  0  0  0  0
   91.5347   93.5784  -45.0038 H   0  0  0  0  0  0  0  0  0  0  0  0
   90.8246  100.1995  -43.4260 N   0  0  0  0  0  0  0  0  0  0  0  0
   91.7020  101.2338  -43.8438 C   0  0  0  0  0  0  0  0  0  0  0  0
   91.6125  102.4697  -42.9420 C   0  0  0  0  0  0  0  0  0  0  0  0
   91.1533  102.2374  -41.6349 N   0  0  0  0  0  0  0  0  0  0  0  0
   90.0001  101.4407  -41.4829 C   0  0  0  0  0  0  0  0  0  0  0  0
   89.6020  100.6946  -42.7359 C   0  0  0  0  0  0  0  0  0  0  0  0
   92.0177  102.4040  -40.5408 C   0  0  0  0  0  0  0  0  0  0  0  0
   93.1140  101.4357  -40.3885 C   0  0  0  0  0  0  0  0  0  0  0  0
   92.9189  100.1930  -40.3181 O   0  0  0  0  0  0  0  0  0  0  0  0
   94.4162  101.8818  -40.3170 O   0  0  0  0  0  0  0  0  0  0  0  0
   94.9884  102.7051  -41.2959 C   0  0  0  0  0  0  0  0  0  0  0  0
   90.3432   98.4432  -45.9929 C   0  0  0  0  0  0  0  0  0  0  0  0
   84.2620   99.5180  -45.9377 Br  0  0  0  0  0  0  0  0  0  0  0  0
   86.1390   99.1809  -45.9671 C   0  0  0  0  0  0  0  0  0  0  0  0
   86.6356   97.9097  -45.7832 C   0  0  0  0  0  0  0  0  0  0  0  0
   88.0122   97.6815  -45.8065 C   0  0  0  0  0  0  0  0  0  0  0  0
   88.8537   98.7345  -46.0138 C   0  0  0  0  0  0  0  0  0  0  0  0
   88.3777  100.0006  -46.1977 C   0  0  0  0  0  0  0  0  0  0  0  0
   87.0233  100.2261  -46.1755 C   0  0  0  0  0  0  0  0  0  0  0  0
 26 27  1  0  0  0
 27 28  2  0  0  0
 27 32  1  0  0  0
 28 29  1  0  0  0
 29 30  2  0  0  0
 30 31  1  0  0  0
 30 25  1  0  0  0
 31 32  2  0  0  0
 25  1  1  0  0  0
  1  2  1  0  0  0
  1  5  1  0  0  0
  2  3  2  0  0  0
  2 10  1  0  0  0
  3  4  1  0  0  0
  3  6  1  0  0  0
  4  5  2  0  0  0
  5 14  1  0  0  0
 14 15  1  0  0  0
 14 19  1  0  0  0
 15 16  1  0  0  0
 16 17  1  0  0  0
 17 18  1  0  0  0
 17 20  1  0  0  0
 18 19  1  0  0  0
 20 21  1  0  0  0
 21 22  2  0  0  0
 21 23  1  0  0  0
 23 24  1  0  0  0
  6  7  1  0  0  0
  6 12  1  0  0  0
  7  8  2  0  0  0
  7  9  1  0  0  0
  9 10  1  0  0  0
 10 11  2  0  0  0
  9 13  1  0  0  0
M  END
> <minimizedAffinity>
-5.96603

$$$$
2091


 28 31  0  0  0  0  0  0  0  0999 V2000
   90.7831   97.6414  -44.6359 N   0  0  0  0  0  0  0  0  0  0  0  0
   91.0931   96.3516  -44.4390 C   0  0  0  0  0  0  0  0  0  0  0  0
   91.5156   96.1872  -43.1387 C   0  0  0  0  0  0  0  0  0  0  0  0
   91.4493   97.3869  -42.5823 N   0  0  0  0  0  0  0  0  0  0  0  0
   91.0068   98.2915  -43.4669 C   0  0  0  0  0  0  0  0  0  0  0  0
   91.8939   94.9934  -42.6172 N   0  0  0  0  0  0  0  0  0  0  0  0
   91.8409   93.9300  -43.4352 C   0  0  0  0  0  0  0  0  0  0  0  0
   92.1963   92.8325  -42.9363 O   0  0  0  0  0  0  0  0  0  0  0  0
   91.4341   94.0249  -44.7130 N   0  0  0  0  0  0  0  0  0  0  0  0
   91.0575   95.2046  -45.2406 C   0  0  0  0  0  0  0  0  0  0  0  0
   90.6754   95.3258  -46.4125 O   0  0  0  0  0  0  0  0  0  0  0  0
   92.3276   94.9183  -41.2380 C   0  0  0  0  0  0  0  0  0  0  0  0
   91.3937   93.1928  -45.3401 H   0  0  0  0  0  0  0  0  0  0  0  0
   90.8047   99.6923  -43.2374 N   0  0  0  0  0  0  0  0  0  0  0  0
   91.6573  100.6207  -43.9465 C   0  0  0  0  0  0  0  0  0  0  0  0
   92.5051  101.3526  -42.9164 C   0  0  0  0  0  0  0  0  0  0  0  0
   91.9158  101.3641  -41.6192 N   0  0  0  0  0  0  0  0  0  0  0  0
   90.4912  101.3646  -41.5774 C   0  0  0  0  0  0  0  0  0  0  0  0
   89.8260  100.2486  -42.3414 C   0  0  0  0  0  0  0  0  0  0  0  0
   92.5910  100.6746  -40.5864 C   0  0  0  0  0  0  0  0  0  0  0  0
   90.3099   98.2376  -45.8615 C   0  0  0  0  0  0  0  0  0  0  0  0
   84.3182   99.6505  -46.3077 Br  0  0  0  0  0  0  0  0  0  0  0  0
   86.1544   99.1532  -46.1914 C   0  0  0  0  0  0  0  0  0  0  0  0
   86.5519   97.8219  -46.1206 C   0  0  0  0  0  0  0  0  0  0  0  0
   87.9101   97.5237  -46.0264 C   0  0  0  0  0  0  0  0  0  0  0  0
   88.8863   98.4706  -45.9988 C   0  0  0  0  0  0  0  0  0  0  0  0
   88.4363   99.8030  -46.0735 C   0  0  0  0  0  0  0  0  0  0  0  0
   87.1073  100.1446  -46.1663 C   0  0  0  0  0  0  0  0  0  0  0  0
 22 23  1  0  0  0
 23 24  2  0  0  0
 23 28  1  0  0  0
 24 25  1  0  0  0
 25 26  2  0  0  0
 26 27  1  0  0  0
 26 21  1  0  0  0
 27 28  2  0  0  0
 21  1  1  0  0  0
  1  2  1  0  0  0
  1  5  1  0  0  0
  2  3  2  0  0  0
  2 10  1  0  0  0
  3  4  1  0  0  0
  3  6  1  0  0  0
  4  5  2  0  0  0
  5 14  1  0  0  0
 14 15  1  0  0  0
 14 19  1  0  0  0
 15 16  1  0  0  0
 16 17  1  0  0  0
 17 18  1  0  0  0
 17 20  1  0  0  0
 18 19  1  0  0  0
  6  7  1  0  0  0
  6 12  1  0  0  0
  7  8  2  0  0  0
  7  9  1  0  0  0
  9 10  1  0  0  0
 10 11  2  0  0  0
  9 13  1  0  0  0
M  END
> <minimizedAffinity>
-6.31235

$$$$
2103


 29 32  0  0  0  0  0  0  0  0999 V2000
   91.2723   95.4426  -44.5544 C   0  0  0  0  0  0  0  0  0  0  0  0
   91.7393   94.5822  -43.4982 C   0  0  0  0  0  0  0  0  0  0  0  0
   92.1019   95.1096  -42.3134 C   0  0  0  0  0  0  0  0  0  0  0  0
   92.0331   96.4958  -42.0831 C   0  0  0  0  0  0  0  0  0  0  0  0
   91.5920   97.3314  -43.0802 C   0  0  0  0  0  0  0  0  0  0  0  0
   91.2139   96.7931  -44.3206 C   0  0  0  0  0  0  0  0  0  0  0  0
   90.8254   97.6895  -45.4398 C   0  0  0  0  0  0  0  0  0  0  0  0
   91.2728   99.1349  -45.2491 C   0  0  0  0  0  0  0  0  0  0  0  0
   90.9800   99.6137  -43.9185 N   0  0  0  0  0  0  0  0  0  0  0  0
   91.4745   98.7709  -42.8685 C   0  0  0  0  0  0  0  0  0  0  0  0
   91.7847   99.3371  -41.8001 O   0  0  0  0  0  0  0  0  0  0  0  0
   90.2497  100.8378  -43.6688 C   0  0  0  0  0  0  0  0  0  0  0  0
   92.4120   96.9442  -40.8728 O   0  0  0  0  0  0  0  0  0  0  0  0
   92.5080   94.0452  -41.4938 O   0  0  0  0  0  0  0  0  0  0  0  0
   92.1557   92.8165  -42.0933 C   0  0  0  0  0  0  0  0  0  0  0  0
   91.9111   93.1962  -43.4332 O   0  0  0  0  0  0  0  0  0  0  0  0
   92.4484   97.8307  -40.5018 H   0  0  0  0  0  0  0  0  0  0  0  0
   90.9216   94.6839  -45.7360 C   0  0  0  0  0  0  0  0  0  0  0  0
   90.8696   92.8265  -47.3051 C   0  0  0  0  0  0  0  0  0  0  0  0
   89.9673   93.4359  -47.9035 O   0  0  0  0  0  0  0  0  0  0  0  0
   91.4554   93.4447  -46.0979 N   0  0  0  0  0  0  0  0  0  0  0  0
   92.2173   92.8665  -45.7146 H   0  0  0  0  0  0  0  0  0  0  0  0
   90.1521   88.3776  -50.1555 Br  0  0  0  0  0  0  0  0  0  0  0  0
   91.1561   89.5224  -49.0028 C   0  0  0  0  0  0  0  0  0  0  0  0
   92.3941   89.1597  -48.5759 C   0  0  0  0  0  0  0  0  0  0  0  0
   93.1059   89.9481  -47.7718 N   0  0  0  0  0  0  0  0  0  0  0  0
   92.5973   91.1227  -47.3723 C   0  0  0  0  0  0  0  0  0  0  0  0
   91.3361   91.5448  -47.7780 C   0  0  0  0  0  0  0  0  0  0  0  0
   90.5947   90.7363  -48.6090 C   0  0  0  0  0  0  0  0  0  0  0  0
 23 24  1  0  0  0
 24 25  2  0  0  0
 24 29  1  0  0  0
 25 26  1  0  0  0
 26 27  2  0  0  0
 27 28  1  0  0  0
 28 29  2  0  0  0
 28 19  1  0  0  0
 19 20  2  0  0  0
 19 21  1  0  0  0
 21 18  1  0  0  0
 18  1  1  0  0  0
  1  2  2  0  0  0
  1  6  1  0  0  0
  2  3  1  0  0  0
  2 16  1  0  0  0
  3  4  2  0  0  0
  3 14  1  0  0  0
  4  5  1  0  0  0
  4 13  1  0  0  0
  5  6  2  0  0  0
  5 10  1  0  0  0
  6  7  1  0  0  0
  7  8  1  0  0  0
  8  9  1  0  0  0
  9 10  1  0  0  0
  9 12  1  0  0  0
 10 11  2  0  0  0
 14 15  1  0  0  0
 15 16  1  0  0  0
 21 22  1  0  0  0
 13 17  1  0  0  0
M  END
> <minimizedAffinity>
-7.09454

$$$$
2105


 29 32  0  0  0  0  0  0  0  0999 V2000
   88.7432  100.1916  -47.9701 Cl  0  0  0  0  0  0  0  0  0  0  0  0
   88.6926   99.3508  -46.4347 C   0  0  0  0  0  0  0  0  0  0  0  0
   89.8580   98.8310  -45.8710 C   0  0  0  0  0  0  0  0  0  0  0  0
   89.8609   98.1699  -44.6787 C   0  0  0  0  0  0  0  0  0  0  0  0
   88.6349   98.0369  -44.0411 C   0  0  0  0  0  0  0  0  0  0  0  0
   87.4733   98.5443  -44.5812 C   0  0  0  0  0  0  0  0  0  0  0  0
   87.4909   99.2084  -45.7870 C   0  0  0  0  0  0  0  0  0  0  0  0
   91.2420   97.7491  -44.3656 C   0  0  0  0  0  0  0  0  0  0  0  0
   91.3285   96.2449  -44.3074 C   0  0  0  0  0  0  0  0  0  0  0  0
   91.7723   95.5896  -43.2713 C   0  0  0  0  0  0  0  0  0  0  0  0
   92.2162   96.2588  -42.0931 N   0  0  0  0  0  0  0  0  0  0  0  0
   92.1685   97.6740  -42.0625 C   0  0  0  0  0  0  0  0  0  0  0  0
   91.7241   98.3446  -43.1009 C   0  0  0  0  0  0  0  0  0  0  0  0
   92.5976   98.4159  -40.9168 N   0  0  0  0  0  0  0  0  0  0  0  0
   91.7174   94.1424  -43.5617 C   0  0  0  0  0  0  0  0  0  0  0  0
   91.2110   94.0342  -44.8342 O   0  0  0  0  0  0  0  0  0  0  0  0
   90.9550   95.2872  -45.3407 C   0  0  0  0  0  0  0  0  0  0  0  0
   90.4806   95.5892  -46.4911 O   0  0  0  0  0  0  0  0  0  0  0  0
   90.8846   93.4584  -42.5004 C   0  0  0  0  0  0  0  0  0  0  0  0
   93.0964   93.5085  -43.5377 C   0  0  0  0  0  0  0  0  0  0  0  0
   92.0447   98.2395  -45.5104 C   0  0  0  0  0  0  0  0  0  0  0  0
   93.3101   98.1013  -45.6711 O   0  0  0  0  0  0  0  0  0  0  0  0
   91.1700   98.8899  -46.4043 N   0  0  0  0  0  0  0  0  0  0  0  0
   92.5716   95.7413  -41.2614 H   0  0  0  0  0  0  0  0  0  0  0  0
   92.2435   98.1869  -39.9787 H   0  0  0  0  0  0  0  0  0  0  0  0
   93.2671   99.1825  -41.0536 H   0  0  0  0  0  0  0  0  0  0  0  0
   91.4839   99.3398  -47.3174 H   0  0  0  0  0  0  0  0  0  0  0  0
   91.6920   99.7987  -43.0273 C   0  0  0  0  0  0  0  0  0  0  0  0
   91.6797  100.9535  -42.9580 N   0  0  0  0  0  0  0  0  0  0  0  0
  1  2  1  0  0  0
  2  3  2  0  0  0
  2  7  1  0  0  0
  3  4  1  0  0  0
  3 23  1  0  0  0
  4  5  2  0  0  0
  4  8  1  0  0  0
  5  6  1  0  0  0
  6  7  2  0  0  0
  8  9  1  0  0  0
  8 13  1  0  0  0
  8 21  1  0  0  0
  9 10  2  0  0  0
  9 17  1  0  0  0
 10 11  1  0  0  0
 10 15  1  0  0  0
 11 12  1  0  0  0
 12 13  2  0  0  0
 12 14  1  0  0  0
 13 28  1  0  0  0
 28 29  3  0  0  0
 15 16  1  0  0  0
 15 19  1  0  0  0
 15 20  1  0  0  0
 16 17  1  0  0  0
 17 18  2  0  0  0
 21 22  2  0  0  0
 21 23  1  0  0  0
 11 24  1  0  0  0
 14 25  1  0  0  0
 14 26  1  0  0  0
 23 27  1  0  0  0
M  END
> <minimizedAffinity>
-6.23843

$$$$
2109


 21 24  0  0  0  0  0  0  0  0999 V2000
   91.7436   96.7765  -44.1836 N   0  0  0  0  0  0  0  0  0  0  0  0
   92.2075   97.9851  -44.8033 C   0  0  0  0  0  0  0  0  0  0  0  0
   92.6213   98.1019  -45.9835 O   0  0  0  0  0  0  0  0  0  0  0  0
   92.1334   99.1065  -43.8391 C   0  0  0  0  0  0  0  0  0  0  0  0
   91.4665  100.2121  -44.3550 O   0  0  0  0  0  0  0  0  0  0  0  0
   90.1989   99.8796  -44.5351 N   0  0  0  0  0  0  0  0  0  0  0  0
   89.8271   98.8249  -43.6992 C   0  0  0  0  0  0  0  0  0  0  0  0
   91.0856   98.5751  -42.8666 C   0  0  0  0  0  0  0  0  0  0  0  0
   91.4336   97.1344  -42.8374 C   0  0  0  0  0  0  0  0  0  0  0  0
   91.4681   96.3299  -41.8589 O   0  0  0  0  0  0  0  0  0  0  0  0
   88.6140   98.9456  -42.8790 C   0  0  0  0  0  0  0  0  0  0  0  0
   87.7932  100.1660  -43.0259 C   0  0  0  0  0  0  0  0  0  0  0  0
   87.8652  100.6311  -44.4637 C   0  0  0  0  0  0  0  0  0  0  0  0
   89.3122  100.9494  -44.7371 C   0  0  0  0  0  0  0  0  0  0  0  0
   91.1424   91.3548  -46.7082 Cl  0  0  0  0  0  0  0  0  0  0  0  0
   91.3190   92.9367  -45.9698 C   0  0  0  0  0  0  0  0  0  0  0  0
   92.0794   93.1000  -44.8305 C   0  0  0  0  0  0  0  0  0  0  0  0
   92.2127   94.3524  -44.2545 C   0  0  0  0  0  0  0  0  0  0  0  0
   91.6119   95.4806  -44.7704 C   0  0  0  0  0  0  0  0  0  0  0  0
   90.8492   95.3063  -45.9163 C   0  0  0  0  0  0  0  0  0  0  0  0
   90.7130   94.0589  -46.4953 C   0  0  0  0  0  0  0  0  0  0  0  0
 15 16  1  0  0  0
 16 17  2  0  0  0
 16 21  1  0  0  0
 17 18  1  0  0  0
 18 19  2  0  0  0
 19 20  1  0  0  0
 19  1  1  0  0  0
 20 21  2  0  0  0
  1  2  1  0  0  0
  1  9  1  0  0  0
  2  3  2  0  0  0
  2  4  1  0  0  0
  4  5  1  0  0  0
  4  8  1  0  0  0
  5  6  1  0  0  0
  6  7  1  0  0  0
  6 14  1  0  0  0
  7  8  1  0  0  0
  7 11  1  0  0  0
  8  9  1  0  0  0
  9 10  2  0  0  0
 11 12  1  0  0  0
 12 13  1  0  0  0
 13 14  1  0  0  0
M  END
> <minimizedAffinity>
-6.78109

$$$$
2116


 33 36  0  0  0  0  0  0  0  0999 V2000
   90.6833   94.7870  -46.1777 C   0  0  0  0  0  0  0  0  0  0  0  0
   90.8685   93.7669  -47.0004 N   0  0  0  0  0  0  0  0  0  0  0  0
   91.3784   92.5789  -46.6316 C   0  0  0  0  0  0  0  0  0  0  0  0
   91.7153   92.4422  -45.3306 N   0  0  0  0  0  0  0  0  0  0  0  0
   91.5482   93.4534  -44.4368 C   0  0  0  0  0  0  0  0  0  0  0  0
   91.0273   94.6235  -44.8827 N   0  0  0  0  0  0  0  0  0  0  0  0
   91.9189   93.3024  -43.0855 N   0  0  0  0  0  0  0  0  0  0  0  0
   92.7919   92.2380  -42.6618 C   0  0  0  0  0  0  0  0  0  0  0  0
   93.9204   92.9267  -41.8803 C   0  0  0  0  0  0  0  0  0  0  0  0
   93.3651   93.7247  -40.9008 O   0  0  0  0  0  0  0  0  0  0  0  0
   92.7261   94.8248  -41.4711 C   0  0  0  0  0  0  0  0  0  0  0  0
   91.4431   94.2368  -42.0971 C   0  0  0  0  0  0  0  0  0  0  0  0
   91.5653   91.5007  -47.5634 N   0  0  0  0  0  0  0  0  0  0  0  0
   92.7089   90.6370  -47.4873 C   0  0  0  0  0  0  0  0  0  0  0  0
   92.6777   89.4173  -48.3232 C   0  0  0  0  0  0  0  0  0  0  0  0
   91.7315   89.4370  -49.3384 O   0  0  0  0  0  0  0  0  0  0  0  0
   90.4812   89.8295  -48.8805 C   0  0  0  0  0  0  0  0  0  0  0  0
   90.5729   91.3054  -48.5792 C   0  0  0  0  0  0  0  0  0  0  0  0
   90.1668   96.0188  -46.6661 N   0  0  0  0  0  0  0  0  0  0  0  0
   89.8366   96.0775  -47.6366 H   0  0  0  0  0  0  0  0  0  0  0  0
   89.0317   97.5666  -45.2884 C   0  0  0  0  0  0  0  0  0  0  0  0
   90.1099   97.1325  -45.8451 N   0  0  0  0  0  0  0  0  0  0  0  0
   87.0379  102.3917  -44.0504 Br  0  0  0  0  0  0  0  0  0  0  0  0
   88.2035  100.9177  -43.7616 C   0  0  0  0  0  0  0  0  0  0  0  0
   89.0689  100.9698  -42.6803 C   0  0  0  0  0  0  0  0  0  0  0  0
   89.9100   99.8893  -42.4945 C   0  0  0  0  0  0  0  0  0  0  0  0
   89.8855   98.8158  -43.3467 C   0  0  0  0  0  0  0  0  0  0  0  0
   89.0224   98.7401  -44.4393 C   0  0  0  0  0  0  0  0  0  0  0  0
   88.1919   99.8262  -44.6092 C   0  0  0  0  0  0  0  0  0  0  0  0
   90.7410   97.7260  -43.1535 O   0  0  0  0  0  0  0  0  0  0  0  0
   89.1029  102.0560  -41.8084 O   0  0  0  0  0  0  0  0  0  0  0  0
   91.3824   97.7523  -42.3665 H   0  0  0  0  0  0  0  0  0  0  0  0
   88.5065  102.8649  -41.8974 H   0  0  0  0  0  0  0  0  0  0  0  0
 23 24  1  0  0  0
 24 25  2  0  0  0
 24 29  1  0  0  0
 25 26  1  0  0  0
 25 31  1  0  0  0
 26 27  2  0  0  0
 27 28  1  0  0  0
 27 30  1  0  0  0
 28 29  2  0  0  0
 28 21  1  0  0  0
 21 22  2  0  0  0
 22 19  1  0  0  0
 19  1  1  0  0  0
  1  2  2  0  0  0
  1  6  1  0  0  0
  2  3  1  0  0  0
  3  4  2  0  0  0
  3 13  1  0  0  0
  4  5  1  0  0  0
  5  6  2  0  0  0
  5  7  1  0  0  0
  7  8  1  0  0  0
  7 12  1  0  0  0
  8  9  1  0  0  0
  9 10  1  0  0  0
 10 11  1  0  0  0
 11 12  1  0  0  0
 13 14  1  0  0  0
 13 18  1  0  0  0
 14 15  1  0  0  0
 15 16  1  0  0  0
 16 17  1  0  0  0
 17 18  1  0  0  0
 19 20  1  0  0  0
 30 32  1  0  0  0
 31 33  1  0  0  0
M  END
> <minimizedAffinity>
-6.82036

$$$$
2121


 31 34  0  0  0  0  0  0  0  0999 V2000
   89.9614   98.5174  -45.6041 C   0  0  0  0  0  0  0  0  0  0  0  0
   89.6296   98.8007  -46.8708 O   0  0  0  0  0  0  0  0  0  0  0  0
   89.8017   99.5868  -44.7488 N   0  0  0  0  0  0  0  0  0  0  0  0
   89.2549  100.7756  -45.4612 C   0  0  0  0  0  0  0  0  0  0  0  0
   87.7401  100.7320  -45.4028 C   0  0  0  0  0  0  0  0  0  0  0  0
   87.3545   99.8736  -44.2593 C   0  0  0  0  0  0  0  0  0  0  0  0
   87.8990  100.4064  -42.9739 C   0  0  0  0  0  0  0  0  0  0  0  0
   88.9001   99.3530  -42.4684 C   0  0  0  0  0  0  0  0  0  0  0  0
   90.1338   99.5636  -43.3663 C   0  0  0  0  0  0  0  0  0  0  0  0
   86.9253  100.6761  -42.0144 O   0  0  0  0  0  0  0  0  0  0  0  0
   86.1079  100.9688  -42.5337 H   0  0  0  0  0  0  0  0  0  0  0  0
   91.5434   91.1354  -46.4743 Cl  0  0  0  0  0  0  0  0  0  0  0  0
   91.4661   92.7572  -45.7805 C   0  0  0  0  0  0  0  0  0  0  0  0
   90.7989   93.7215  -46.4645 C   0  0  0  0  0  0  0  0  0  0  0  0
   90.7570   94.9969  -45.8906 C   0  0  0  0  0  0  0  0  0  0  0  0
   91.3476   95.2783  -44.7079 C   0  0  0  0  0  0  0  0  0  0  0  0
   91.1197   96.6020  -44.4495 N   0  0  0  0  0  0  0  0  0  0  0  0
   90.4066   97.1619  -45.4294 C   0  0  0  0  0  0  0  0  0  0  0  0
   90.1643   96.1526  -46.3597 C   0  0  0  0  0  0  0  0  0  0  0  0
   92.0164   94.2949  -44.0306 C   0  0  0  0  0  0  0  0  0  0  0  0
   92.0774   93.0195  -44.5714 C   0  0  0  0  0  0  0  0  0  0  0  0
   91.4690   97.0335  -43.5844 H   0  0  0  0  0  0  0  0  0  0  0  0
   85.9765   99.5281  -44.1105 N   0  0  0  0  0  0  0  0  0  0  0  0
   85.7192   98.1248  -43.9071 C   0  0  0  0  0  0  0  0  0  0  0  0
   86.1131   97.3133  -45.0824 C   0  0  0  0  0  0  0  0  0  0  0  0
   85.3957   97.8711  -46.2343 N   0  0  0  0  0  0  0  0  0  0  0  0
   84.5173   98.9761  -45.9504 C   0  0  0  0  0  0  0  0  0  0  0  0
   85.1296  100.0759  -45.1351 C   0  0  0  0  0  0  0  0  0  0  0  0
   85.5775   97.3030  -47.5318 C   0  0  0  0  0  0  0  0  0  0  0  0
   84.9780   97.7899  -48.4995 O   0  0  0  0  0  0  0  0  0  0  0  0
   86.4941   96.1279  -47.6731 C   0  0  0  0  0  0  0  0  0  0  0  0
 12 13  1  0  0  0
 13 14  2  0  0  0
 13 21  1  0  0  0
 14 15  1  0  0  0
 15 16  2  0  0  0
 15 19  1  0  0  0
 16 17  1  0  0  0
 16 20  1  0  0  0
 17 18  1  0  0  0
 18 19  2  0  0  0
 18  1  1  0  0  0
  1  2  2  0  0  0
  1  3  1  0  0  0
  3  4  1  0  0  0
  3  9  1  0  0  0
  4  5  1  0  0  0
  5  6  1  0  0  0
  6  7  1  0  0  0
  6 23  1  0  0  0
  7  8  1  0  0  0
  7 10  1  0  0  0
  8  9  1  0  0  0
 23 24  1  0  0  0
 23 28  1  0  0  0
 24 25  1  0  0  0
 25 26  1  0  0  0
 26 27  1  0  0  0
 26 29  1  0  0  0
 27 28  1  0  0  0
 29 30  2  0  0  0
 29 31  1  0  0  0
 20 21  2  0  0  0
 17 22  1  0  0  0
 10 11  1  0  0  0
M  END
> <minimizedAffinity>
-7.32205

$$$$
2122


 29 32  0  0  0  0  0  0  0  0999 V2000
   89.7862   97.6776  -45.7750 C   0  0  0  0  0  0  0  0  0  0  0  0
   89.4705   97.4659  -47.0643 N   0  0  0  0  0  0  0  0  0  0  0  0
   88.1810   97.3444  -47.2041 O   0  0  0  0  0  0  0  0  0  0  0  0
   87.6470   97.4746  -46.0065 C   0  0  0  0  0  0  0  0  0  0  0  0
   88.6206   97.6798  -45.1149 N   0  0  0  0  0  0  0  0  0  0  0  0
   86.1623   97.3912  -45.7983 C   0  0  0  0  0  0  0  0  0  0  0  0
   85.6441   96.5340  -46.5945 O   0  0  0  0  0  0  0  0  0  0  0  0
   85.5602   98.1571  -44.8704 N   0  0  0  0  0  0  0  0  0  0  0  0
   84.3631   97.5541  -45.1623 H   0  0  0  0  0  0  0  0  0  0  0  0
   84.9259   98.9361  -43.9214 C   0  0  0  0  0  0  0  0  0  0  0  0
   85.4908  100.3582  -43.8234 C   0  0  0  0  0  0  0  0  0  0  0  0
   86.8782  100.4640  -44.0460 N   0  0  0  0  0  0  0  0  0  0  0  0
   87.5945  100.4657  -42.8309 C   0  0  0  0  0  0  0  0  0  0  0  0
   88.9057  101.1713  -42.9196 C   0  0  0  0  0  0  0  0  0  0  0  0
   89.5061  100.8508  -44.1099 O   0  0  0  0  0  0  0  0  0  0  0  0
   88.8449  101.3368  -45.2218 C   0  0  0  0  0  0  0  0  0  0  0  0
   87.3519  101.2273  -45.1264 C   0  0  0  0  0  0  0  0  0  0  0  0
   91.1620   97.8942  -45.2490 C   0  0  0  0  0  0  0  0  0  0  0  0
   91.6546   92.1314  -45.7468 Cl  0  0  0  0  0  0  0  0  0  0  0  0
   91.6941   93.4136  -44.5468 C   0  0  0  0  0  0  0  0  0  0  0  0
   91.5069   94.7265  -44.9689 C   0  0  0  0  0  0  0  0  0  0  0  0
   91.5378   95.7360  -44.0169 C   0  0  0  0  0  0  0  0  0  0  0  0
   91.7551   95.3815  -42.6832 C   0  0  0  0  0  0  0  0  0  0  0  0
   91.9376   94.0889  -42.2858 C   0  0  0  0  0  0  0  0  0  0  0  0
   91.9080   93.0969  -43.2173 C   0  0  0  0  0  0  0  0  0  0  0  0
   91.7332   96.5114  -42.0453 O   0  0  0  0  0  0  0  0  0  0  0  0
   91.5265   97.5234  -42.8489 C   0  0  0  0  0  0  0  0  0  0  0  0
   91.4641   98.7215  -42.4631 O   0  0  0  0  0  0  0  0  0  0  0  0
   91.3979   97.0616  -44.1051 N   0  0  0  0  0  0  0  0  0  0  0  0
 19 20  1  0  0  0
 20 21  2  0  0  0
 20 25  1  0  0  0
 21 22  1  0  0  0
 22 23  2  0  0  0
 22 29  1  0  0  0
 23 24  1  0  0  0
 23 26  1  0  0  0
 24 25  2  0  0  0
 26 27  1  0  0  0
 27 28  2  0  0  0
 27 29  1  0  0  0
 29 18  1  0  0  0
 18  1  1  0  0  0
  1  2  2  0  0  0
  1  5  1  0  0  0
  2  3  1  0  0  0
  3  4  1  0  0  0
  4  5  2  0  0  0
  4  6  1  0  0  0
  6  7  2  0  0  0
  6  8  1  0  0  0
  8 10  1  0  0  0
 10 11  1  0  0  0
 11 12  1  0  0  0
 12 13  1  0  0  0
 12 17  1  0  0  0
 13 14  1  0  0  0
 14 15  1  0  0  0
 15 16  1  0  0  0
 16 17  1  0  0  0
  8  9  1  0  0  0
M  END
> <minimizedAffinity>
-5.80374

$$$$
2124


 25 29  0  0  0  0  0  0  0  0999 V2000
   91.1968   98.6920  -43.4555 N   0  0  0  0  0  0  0  0  0  0  0  0
   90.0605   99.4915  -43.1626 C   0  0  0  0  0  0  0  0  0  0  0  0
   89.0536   99.1120  -42.5081 O   0  0  0  0  0  0  0  0  0  0  0  0
   90.2212  100.8655  -43.7448 C   0  0  0  0  0  0  0  0  0  0  0  0
   90.1071  101.9142  -42.6896 C   0  0  0  0  0  0  0  0  0  0  0  0
   91.2543  102.7265  -42.8678 O   0  0  0  0  0  0  0  0  0  0  0  0
   92.2015  101.6718  -42.8179 C   0  0  0  0  0  0  0  0  0  0  0  0
   91.7272  100.8972  -44.0434 C   0  0  0  0  0  0  0  0  0  0  0  0
   92.1772   99.5134  -44.0768 C   0  0  0  0  0  0  0  0  0  0  0  0
   93.2648   99.1326  -44.5809 O   0  0  0  0  0  0  0  0  0  0  0  0
   91.8032  101.0130  -41.5514 C   0  0  0  0  0  0  0  0  0  0  0  0
   90.4884  101.2694  -41.3925 C   0  0  0  0  0  0  0  0  0  0  0  0
   93.6034  102.1144  -42.8814 C   0  0  0  0  0  0  0  0  0  0  0  0
   92.1285   92.8219  -42.5589 Cl  0  0  0  0  0  0  0  0  0  0  0  0
   91.8551   94.5510  -42.7952 C   0  0  0  0  0  0  0  0  0  0  0  0
   91.9354   95.4411  -41.7515 C   0  0  0  0  0  0  0  0  0  0  0  0
   91.7193   96.7897  -41.9733 C   0  0  0  0  0  0  0  0  0  0  0  0
   91.4202   97.3001  -43.2135 C   0  0  0  0  0  0  0  0  0  0  0  0
   91.3398   96.4064  -44.2655 C   0  0  0  0  0  0  0  0  0  0  0  0
   91.5579   95.0483  -44.0442 C   0  0  0  0  0  0  0  0  0  0  0  0
   88.8563  102.6812  -42.6396 C   0  0  0  0  0  0  0  0  0  0  0  0
   89.1645  104.0393  -42.7413 O   0  0  0  0  0  0  0  0  0  0  0  0
   89.2057  104.3713  -44.0720 C   0  0  0  0  0  0  0  0  0  0  0  0
   88.2716  103.3672  -44.6939 C   0  0  0  0  0  0  0  0  0  0  0  0
   88.0767  102.3781  -43.7562 O   0  0  0  0  0  0  0  0  0  0  0  0
 14 15  1  0  0  0
 15 16  2  0  0  0
 15 20  1  0  0  0
 16 17  1  0  0  0
 17 18  2  0  0  0
 18 19  1  0  0  0
 18  1  1  0  0  0
 19 20  2  0  0  0
  1  2  1  0  0  0
  1  9  1  0  0  0
  2  3  2  0  0  0
  2  4  1  0  0  0
  4  5  1  0  0  0
  4  8  1  0  0  0
  5  6  1  0  0  0
  5 12  1  0  0  0
  5 21  1  0  0  0
  6  7  1  0  0  0
  7  8  1  0  0  0
  7 11  1  0  0  0
  7 13  1  0  0  0
  8  9  1  0  0  0
  9 10  2  0  0  0
 11 12  2  0  0  0
 21 22  1  0  0  0
 21 25  1  0  0  0
 22 23  1  0  0  0
 23 24  1  0  0  0
 24 25  1  0  0  0
M  END
> <minimizedAffinity>
-5.92131

$$$$
2134


 36 39  0  0  0  0  0  0  0  0999 V2000
   90.9040   96.1436  -44.6074 C   0  0  0  0  0  0  0  0  0  0  0  0
   90.6371   97.4104  -44.4024 N   0  0  0  0  0  0  0  0  0  0  0  0
   91.0072   97.8314  -43.1505 N   0  0  0  0  0  0  0  0  0  0  0  0
   91.5716   96.6876  -42.5078 C   0  0  0  0  0  0  0  0  0  0  0  0
   92.0837   96.5007  -41.3276 N   0  0  0  0  0  0  0  0  0  0  0  0
   92.5864   95.2368  -40.9205 N   0  0  0  0  0  0  0  0  0  0  0  0
   92.5590   94.1157  -41.7695 C   0  0  0  0  0  0  0  0  0  0  0  0
   93.0168   92.9269  -41.4002 C   0  0  0  0  0  0  0  0  0  0  0  0
   91.9904   94.3046  -43.0996 C   0  0  0  0  0  0  0  0  0  0  0  0
   91.9575   93.3337  -43.8621 O   0  0  0  0  0  0  0  0  0  0  0  0
   91.5068   95.6060  -43.4358 N   0  0  0  0  0  0  0  0  0  0  0  0
   92.9762   95.1958  -39.9518 H   0  0  0  0  0  0  0  0  0  0  0  0
   90.8105   99.1320  -42.6035 C   0  0  0  0  0  0  0  0  0  0  0  0
   91.8644   99.8828  -42.1434 C   0  0  0  0  0  0  0  0  0  0  0  0
   91.7340  101.1699  -41.6400 C   0  0  0  0  0  0  0  0  0  0  0  0
   90.4885  101.7623  -41.5829 C   0  0  0  0  0  0  0  0  0  0  0  0
   89.4138  101.0267  -42.0363 C   0  0  0  0  0  0  0  0  0  0  0  0
   89.5753   99.7353  -42.5364 C   0  0  0  0  0  0  0  0  0  0  0  0
   90.3076  103.1596  -41.0838 C   0  0  0  0  0  0  0  0  0  0  0  0
   91.1989   94.1564  -46.0510 N   0  0  0  0  0  0  0  0  0  0  0  0
   90.6211   95.4306  -45.8376 C   0  0  0  0  0  0  0  0  0  0  0  0
   89.8688   95.9301  -46.7339 O   0  0  0  0  0  0  0  0  0  0  0  0
   91.7981   93.6908  -45.3534 H   0  0  0  0  0  0  0  0  0  0  0  0
   90.6436   91.5106  -48.7058 N   0  0  0  0  0  0  0  0  0  0  0  0
   90.9176   92.1094  -47.4638 C   0  0  0  0  0  0  0  0  0  0  0  0
   91.1554   91.3482  -46.4871 O   0  0  0  0  0  0  0  0  0  0  0  0
   90.9377   93.5010  -47.2489 N   0  0  0  0  0  0  0  0  0  0  0  0
   90.4494   92.1184  -49.5403 H   0  0  0  0  0  0  0  0  0  0  0  0
   90.7461   94.1636  -48.0692 H   0  0  0  0  0  0  0  0  0  0  0  0
   90.3982   85.6776  -49.7466 Cl  0  0  0  0  0  0  0  0  0  0  0  0
   90.5263   87.4142  -49.4395 C   0  0  0  0  0  0  0  0  0  0  0  0
   91.7538   88.0092  -49.3033 C   0  0  0  0  0  0  0  0  0  0  0  0
   91.7692   89.3649  -49.0607 C   0  0  0  0  0  0  0  0  0  0  0  0
   90.5969   90.1098  -48.9568 C   0  0  0  0  0  0  0  0  0  0  0  0
   89.3785   89.4620  -49.1025 C   0  0  0  0  0  0  0  0  0  0  0  0
   89.3496   88.1073  -49.3443 C   0  0  0  0  0  0  0  0  0  0  0  0
 30 31  1  0  0  0
 31 32  2  0  0  0
 31 36  1  0  0  0
 32 33  1  0  0  0
 33 34  2  0  0  0
 34 35  1  0  0  0
 34 24  1  0  0  0
 35 36  2  0  0  0
 24 25  1  0  0  0
 25 26  2  0  0  0
 25 27  1  0  0  0
 27 20  1  0  0  0
 20 21  1  0  0  0
 21 22  2  0  0  0
 21  1  1  0  0  0
  1  2  2  0  0  0
  1 11  1  0  0  0
  2  3  1  0  0  0
  3  4  1  0  0  0
  3 13  1  0  0  0
  4  5  2  0  0  0
  4 11  1  0  0  0
  5  6  1  0  0  0
  6  7  1  0  0  0
  7  8  2  0  0  0
  7  9  1  0  0  0
  9 10  2  0  0  0
  9 11  1  0  0  0
 13 14  2  0  0  0
 13 18  1  0  0  0
 14 15  1  0  0  0
 15 16  2  0  0  0
 16 17  1  0  0  0
 16 19  1  0  0  0
 17 18  2  0  0  0
 24 28  1  0  0  0
 27 29  1  0  0  0
 20 23  1  0  0  0
  6 12  1  0  0  0
M  END
> <minimizedAffinity>
-8.44277

$$$$
2136


 33 37  0  0  0  0  0  0  0  0999 V2000
   94.6330  101.9614  -42.1110 Cl  0  0  0  0  0  0  0  0  0  0  0  0
   92.9463  101.4938  -42.1621 C   0  0  0  0  0  0  0  0  0  0  0  0
   92.4439  100.6163  -43.1010 C   0  0  0  0  0  0  0  0  0  0  0  0
   91.0980  100.2667  -43.1133 C   0  0  0  0  0  0  0  0  0  0  0  0
   90.3074  100.8344  -42.1523 C   0  0  0  0  0  0  0  0  0  0  0  0
   90.7897  101.7098  -41.2085 C   0  0  0  0  0  0  0  0  0  0  0  0
   92.1094  102.0497  -41.2001 C   0  0  0  0  0  0  0  0  0  0  0  0
   90.8822   99.3270  -44.2199 C   0  0  0  0  0  0  0  0  0  0  0  0
   89.9011   99.8091  -45.1754 N   0  0  0  0  0  0  0  0  0  0  0  0
   89.5878   98.5916  -45.9277 C   0  0  0  0  0  0  0  0  0  0  0  0
   89.6330   97.4688  -44.9626 C   0  0  0  0  0  0  0  0  0  0  0  0
   90.2479   98.0521  -43.7306 C   0  0  0  0  0  0  0  0  0  0  0  0
   91.2191   97.0938  -43.1955 C   0  0  0  0  0  0  0  0  0  0  0  0
   91.7091   97.1630  -42.0405 O   0  0  0  0  0  0  0  0  0  0  0  0
   91.4571   96.1359  -44.2192 N   0  0  0  0  0  0  0  0  0  0  0  0
   90.6569   96.4307  -45.3561 C   0  0  0  0  0  0  0  0  0  0  0  0
   90.7284   95.9505  -46.5201 O   0  0  0  0  0  0  0  0  0  0  0  0
   92.1872   99.1397  -44.8741 C   0  0  0  0  0  0  0  0  0  0  0  0
   92.4711   98.4337  -45.8522 O   0  0  0  0  0  0  0  0  0  0  0  0
   93.1129   99.9440  -44.1576 N   0  0  0  0  0  0  0  0  0  0  0  0
   90.3024  100.5524  -45.8104 H   0  0  0  0  0  0  0  0  0  0  0  0
   94.1445  100.0464  -44.3563 H   0  0  0  0  0  0  0  0  0  0  0  0
   92.3906   95.0181  -44.1052 C   0  0  0  0  0  0  0  0  0  0  0  0
   91.6121   93.8078  -43.6104 C   0  0  0  0  0  0  0  0  0  0  0  0
   91.6431   93.7319  -42.2270 O   0  0  0  0  0  0  0  0  0  0  0  0
   92.9456   93.5496  -41.8052 C   0  0  0  0  0  0  0  0  0  0  0  0
   88.2466   98.6925  -46.5897 C   0  0  0  0  0  0  0  0  0  0  0  0
   87.1021   98.4429  -45.6981 C   0  0  0  0  0  0  0  0  0  0  0  0
   86.4863   97.1952  -45.7720 C   0  0  0  0  0  0  0  0  0  0  0  0
   85.4311   96.9245  -44.9398 C   0  0  0  0  0  0  0  0  0  0  0  0
   84.9473   97.8320  -44.0279 C   0  0  0  0  0  0  0  0  0  0  0  0
   85.5828   99.0540  -43.9851 C   0  0  0  0  0  0  0  0  0  0  0  0
   86.6482   99.3783  -44.7985 C   0  0  0  0  0  0  0  0  0  0  0  0
  1  2  1  0  0  0
  2  3  2  0  0  0
  2  7  1  0  0  0
  3  4  1  0  0  0
  3 20  1  0  0  0
  4  5  2  0  0  0
  4  8  1  0  0  0
  5  6  1  0  0  0
  6  7  2  0  0  0
  8  9  1  0  0  0
  8 12  1  0  0  0
  8 18  1  0  0  0
  9 10  1  0  0  0
 10 11  1  0  0  0
 10 27  1  0  0  0
 11 12  1  0  0  0
 11 16  1  0  0  0
 12 13  1  0  0  0
 13 14  2  0  0  0
 13 15  1  0  0  0
 15 16  1  0  0  0
 15 23  1  0  0  0
 16 17  2  0  0  0
 23 24  1  0  0  0
 24 25  1  0  0  0
 25 26  1  0  0  0
 27 28  1  0  0  0
 28 29  2  0  0  0
 28 33  1  0  0  0
 29 30  1  0  0  0
 30 31  2  0  0  0
 31 32  1  0  0  0
 32 33  2  0  0  0
 18 19  2  0  0  0
 18 20  1  0  0  0
  9 21  1  0  0  0
 20 22  1  0  0  0
M  END
> <minimizedAffinity>
-6.72815

$$$$
2139


 27 30  0  0  0  0  0  0  0  0999 V2000
   91.6766  100.6358  -42.4620 N   0  0  0  0  0  0  0  0  0  0  0  0
   92.5179  100.6872  -43.5905 C   0  0  0  0  0  0  0  0  0  0  0  0
   92.5519   99.4580  -44.4577 C   0  0  0  0  0  0  0  0  0  0  0  0
   91.2826   98.7328  -44.1883 N   0  0  0  0  0  0  0  0  0  0  0  0
   90.1639   99.5819  -44.0265 C   0  0  0  0  0  0  0  0  0  0  0  0
   90.3062  100.2722  -42.6872 C   0  0  0  0  0  0  0  0  0  0  0  0
   91.3550   97.3239  -44.1626 C   0  0  0  0  0  0  0  0  0  0  0  0
   91.1440   96.6248  -45.3184 N   0  0  0  0  0  0  0  0  0  0  0  0
   91.1483   95.3020  -45.4223 C   0  0  0  0  0  0  0  0  0  0  0  0
   91.3770   94.5738  -44.3164 N   0  0  0  0  0  0  0  0  0  0  0  0
   91.5937   95.2100  -43.1431 C   0  0  0  0  0  0  0  0  0  0  0  0
   91.8559   94.7558  -41.9037 N   0  0  0  0  0  0  0  0  0  0  0  0
   92.0054   95.7922  -41.0786 C   0  0  0  0  0  0  0  0  0  0  0  0
   91.8462   96.9434  -41.7553 N   0  0  0  0  0  0  0  0  0  0  0  0
   91.5901   96.6015  -43.0280 C   0  0  0  0  0  0  0  0  0  0  0  0
   90.9179   94.6273  -46.6770 N   0  0  0  0  0  0  0  0  0  0  0  0
   91.9269   97.8898  -41.3259 H   0  0  0  0  0  0  0  0  0  0  0  0
   90.1228   93.9888  -46.8162 H   0  0  0  0  0  0  0  0  0  0  0  0
   91.5681   94.7841  -47.4726 H   0  0  0  0  0  0  0  0  0  0  0  0
   92.2381  100.2210  -41.2347 C   0  0  0  0  0  0  0  0  0  0  0  0
   93.4327  104.5171  -37.2311 Cl  0  0  0  0  0  0  0  0  0  0  0  0
   93.0941  103.2594  -38.4027 C   0  0  0  0  0  0  0  0  0  0  0  0
   94.1286  102.5043  -38.9134 C   0  0  0  0  0  0  0  0  0  0  0  0
   93.7976  101.5208  -39.8388 C   0  0  0  0  0  0  0  0  0  0  0  0
   92.5148  101.2728  -40.2580 C   0  0  0  0  0  0  0  0  0  0  0  0
   91.5003  102.0348  -39.7362 C   0  0  0  0  0  0  0  0  0  0  0  0
   91.8062  103.0119  -38.8202 C   0  0  0  0  0  0  0  0  0  0  0  0
 21 22  1  0  0  0
 22 23  2  0  0  0
 22 27  1  0  0  0
 23 24  1  0  0  0
 24 25  2  0  0  0
 25 26  1  0  0  0
 25 20  1  0  0  0
 26 27  2  0  0  0
 20  1  1  0  0  0
  1  2  1  0  0  0
  1  6  1  0  0  0
  2  3  1  0  0  0
  3  4  1  0  0  0
  4  5  1  0  0  0
  4  7  1  0  0  0
  5  6  1  0  0  0
  7  8  2  0  0  0
  7 15  1  0  0  0
  8  9  1  0  0  0
  9 10  2  0  0  0
  9 16  1  0  0  0
 10 11  1  0  0  0
 11 12  1  0  0  0
 11 15  2  0  0  0
 12 13  2  0  0  0
 13 14  1  0  0  0
 14 15  1  0  0  0
 14 17  1  0  0  0
 16 18  1  0  0  0
 16 19  1  0  0  0
M  END
> <minimizedAffinity>
-6.46172

$$$$
2149


 24 27  0  0  0  0  0  0  0  0999 V2000
   91.4810   97.2452  -45.0958 N   0  0  0  0  0  0  0  0  0  0  0  0
   92.5979   97.6848  -45.6444 N   0  0  0  0  0  0  0  0  0  0  0  0
   92.8441   98.9329  -45.2912 N   0  0  0  0  0  0  0  0  0  0  0  0
   91.8676   99.3455  -44.4837 C   0  0  0  0  0  0  0  0  0  0  0  0
   91.0037   98.2793  -44.3582 C   0  0  0  0  0  0  0  0  0  0  0  0
   89.9203   98.4392  -43.5846 N   0  0  0  0  0  0  0  0  0  0  0  0
   89.6875   99.6026  -42.9528 C   0  0  0  0  0  0  0  0  0  0  0  0
   90.5449  100.6294  -43.0906 N   0  0  0  0  0  0  0  0  0  0  0  0
   91.6692  100.5668  -43.8510 C   0  0  0  0  0  0  0  0  0  0  0  0
   92.5690  101.6375  -43.9978 N   0  0  0  0  0  0  0  0  0  0  0  0
   92.6419  102.5559  -45.1027 C   0  0  0  0  0  0  0  0  0  0  0  0
   92.4261  103.9289  -44.5837 C   0  0  0  0  0  0  0  0  0  0  0  0
   92.5762  104.1491  -43.2074 N   0  0  0  0  0  0  0  0  0  0  0  0
   93.2958  103.2452  -42.4157 C   0  0  0  0  0  0  0  0  0  0  0  0
   93.5452  101.8920  -42.9674 C   0  0  0  0  0  0  0  0  0  0  0  0
   91.2713  104.3783  -42.6133 C   0  0  0  0  0  0  0  0  0  0  0  0
   90.8528   95.9319  -45.2270 C   0  0  0  0  0  0  0  0  0  0  0  0
   93.7801   92.2452  -41.4837 Cl  0  0  0  0  0  0  0  0  0  0  0  0
   92.9296   93.3124  -42.5959 C   0  0  0  0  0  0  0  0  0  0  0  0
   92.2371   94.3943  -42.1136 C   0  0  0  0  0  0  0  0  0  0  0  0
   91.5734   95.2238  -43.0029 C   0  0  0  0  0  0  0  0  0  0  0  0
   91.5934   94.9889  -44.3502 C   0  0  0  0  0  0  0  0  0  0  0  0
   92.2867   93.9062  -44.8366 C   0  0  0  0  0  0  0  0  0  0  0  0
   92.9439   93.0839  -43.9568 C   0  0  0  0  0  0  0  0  0  0  0  0
 18 19  1  0  0  0
 19 20  2  0  0  0
 19 24  1  0  0  0
 20 21  1  0  0  0
 21 22  2  0  0  0
 22 23  1  0  0  0
 22 17  1  0  0  0
 23 24  2  0  0  0
 17  1  1  0  0  0
  1  2  1  0  0  0
  1  5  1  0  0  0
  2  3  2  0  0  0
  3  4  1  0  0  0
  4  5  2  0  0  0
  4  9  1  0  0  0
  5  6  1  0  0  0
  6  7  2  0  0  0
  7  8  1  0  0  0
  8  9  2  0  0  0
  9 10  1  0  0  0
 10 11  1  0  0  0
 10 15  1  0  0  0
 11 12  1  0  0  0
 12 13  1  0  0  0
 13 14  1  0  0  0
 13 16  1  0  0  0
 14 15  1  0  0  0
M  END
> <minimizedAffinity>
-5.92809

$$$$
2163


 31 34  0  0  0  0  0  0  0  0999 V2000
   91.5725   99.7876  -45.1553 C   0  0  0  0  0  0  0  0  0  0  0  0
   92.3017  100.3691  -44.1785 N   0  0  0  0  0  0  0  0  0  0  0  0
   91.7669  101.2674  -43.3435 C   0  0  0  0  0  0  0  0  0  0  0  0
   90.4724  101.5883  -43.4933 N   0  0  0  0  0  0  0  0  0  0  0  0
   89.6794  101.0422  -44.4536 C   0  0  0  0  0  0  0  0  0  0  0  0
   90.2906  100.1370  -45.2665 N   0  0  0  0  0  0  0  0  0  0  0  0
   92.5343  101.8801  -42.3165 N   0  0  0  0  0  0  0  0  0  0  0  0
   93.7008  102.6873  -42.5976 C   0  0  0  0  0  0  0  0  0  0  0  0
   94.8278  102.3860  -41.6212 C   0  0  0  0  0  0  0  0  0  0  0  0
   94.3382  102.3225  -40.3118 O   0  0  0  0  0  0  0  0  0  0  0  0
   93.4091  101.3207  -40.1637 C   0  0  0  0  0  0  0  0  0  0  0  0
   92.1633  101.7108  -40.9294 C   0  0  0  0  0  0  0  0  0  0  0  0
   88.3232  101.3828  -44.6056 N   0  0  0  0  0  0  0  0  0  0  0  0
   87.7408  102.4693  -43.8758 C   0  0  0  0  0  0  0  0  0  0  0  0
   86.5049  101.9190  -43.1672 C   0  0  0  0  0  0  0  0  0  0  0  0
   85.6934  101.3635  -44.1412 O   0  0  0  0  0  0  0  0  0  0  0  0
   86.2393  100.2428  -44.7213 C   0  0  0  0  0  0  0  0  0  0  0  0
   87.4928  100.6353  -45.5037 C   0  0  0  0  0  0  0  0  0  0  0  0
   92.1087   98.8292  -46.0594 N   0  0  0  0  0  0  0  0  0  0  0  0
   92.4310   99.1131  -47.0241 H   0  0  0  0  0  0  0  0  0  0  0  0
   91.3321   96.7901  -45.1539 C   0  0  0  0  0  0  0  0  0  0  0  0
   92.2407   97.4778  -45.7358 N   0  0  0  0  0  0  0  0  0  0  0  0
   91.5882   91.7265  -46.8158 Br  0  0  0  0  0  0  0  0  0  0  0  0
   91.6159   93.0752  -45.4693 C   0  0  0  0  0  0  0  0  0  0  0  0
   91.4686   94.4056  -45.7935 C   0  0  0  0  0  0  0  0  0  0  0  0
   91.4876   95.3780  -44.8232 C   0  0  0  0  0  0  0  0  0  0  0  0
   91.6584   94.9846  -43.5137 C   0  0  0  0  0  0  0  0  0  0  0  0
   91.8097   93.6386  -43.1712 C   0  0  0  0  0  0  0  0  0  0  0  0
   91.7891   92.6625  -44.1542 C   0  0  0  0  0  0  0  0  0  0  0  0
   91.6745   95.9886  -42.5526 O   0  0  0  0  0  0  0  0  0  0  0  0
   91.9454   95.7639  -41.1886 C   0  0  0  0  0  0  0  0  0  0  0  0
 23 24  1  0  0  0
 24 25  2  0  0  0
 24 29  1  0  0  0
 25 26  1  0  0  0
 26 27  2  0  0  0
 26 21  1  0  0  0
 27 28  1  0  0  0
 27 30  1  0  0  0
 28 29  2  0  0  0
 30 31  1  0  0  0
 21 22  2  0  0  0
 22 19  1  0  0  0
 19  1  1  0  0  0
  1  2  2  0  0  0
  1  6  1  0  0  0
  2  3  1  0  0  0
  3  4  2  0  0  0
  3  7  1  0  0  0
  4  5  1  0  0  0
  5  6  2  0  0  0
  5 13  1  0  0  0
 13 14  1  0  0  0
 13 18  1  0  0  0
 14 15  1  0  0  0
 15 16  1  0  0  0
 16 17  1  0  0  0
 17 18  1  0  0  0
  7  8  1  0  0  0
  7 12  1  0  0  0
  8  9  1  0  0  0
  9 10  1  0  0  0
 10 11  1  0  0  0
 11 12  1  0  0  0
 19 20  1  0  0  0
M  END
> <minimizedAffinity>
-6.42032

$$$$
2164


 25 28  0  0  0  0  0  0  0  0999 V2000
   91.1114  100.9063  -44.0382 C   0  0  0  0  0  0  0  0  0  0  0  0
   90.1955   99.7977  -43.5892 C   0  0  0  0  0  0  0  0  0  0  0  0
   91.2383   98.7931  -43.8450 N   0  0  0  0  0  0  0  0  0  0  0  0
   91.8862   99.7907  -44.6764 C   0  0  0  0  0  0  0  0  0  0  0  0
   91.4371   97.4514  -43.4181 C   0  0  0  0  0  0  0  0  0  0  0  0
   91.6333   97.1303  -42.1129 N   0  0  0  0  0  0  0  0  0  0  0  0
   91.8213   95.8337  -41.7288 C   0  0  0  0  0  0  0  0  0  0  0  0
   91.8185   94.8394  -42.6220 N   0  0  0  0  0  0  0  0  0  0  0  0
   91.6317   95.0830  -43.9204 C   0  0  0  0  0  0  0  0  0  0  0  0
   91.5872   94.2730  -44.9970 N   0  0  0  0  0  0  0  0  0  0  0  0
   91.3748   95.0497  -46.0370 N   0  0  0  0  0  0  0  0  0  0  0  0
   91.2831   96.3288  -45.6557 N   0  0  0  0  0  0  0  0  0  0  0  0
   91.4421   96.3943  -44.3065 C   0  0  0  0  0  0  0  0  0  0  0  0
   91.7390   92.8208  -45.0389 C   0  0  0  0  0  0  0  0  0  0  0  0
   91.6585  101.1253  -41.6009 N   0  0  0  0  0  0  0  0  0  0  0  0
   91.8277  101.5991  -42.9111 C   0  0  0  0  0  0  0  0  0  0  0  0
   92.5293  102.5639  -43.2480 O   0  0  0  0  0  0  0  0  0  0  0  0
   91.0131  100.2679  -41.4384 H   0  0  0  0  0  0  0  0  0  0  0  0
   90.9021  104.0443  -37.2596 Br  0  0  0  0  0  0  0  0  0  0  0  0
   91.9949  103.0095  -38.4284 C   0  0  0  0  0  0  0  0  0  0  0  0
   91.4855  102.4391  -39.5713 C   0  0  0  0  0  0  0  0  0  0  0  0
   92.2628  101.6725  -40.4524 C   0  0  0  0  0  0  0  0  0  0  0  0
   93.5777  101.5150  -40.1147 C   0  0  0  0  0  0  0  0  0  0  0  0
   94.0861  102.0989  -38.9519 C   0  0  0  0  0  0  0  0  0  0  0  0
   93.3106  102.8369  -38.1160 C   0  0  0  0  0  0  0  0  0  0  0  0
 19 20  1  0  0  0
 20 21  2  0  0  0
 20 25  1  0  0  0
 21 22  1  0  0  0
 22 23  2  0  0  0
 22 15  1  0  0  0
 23 24  1  0  0  0
 24 25  2  0  0  0
 15 16  1  0  0  0
 16 17  2  0  0  0
 16  1  1  0  0  0
  1  2  1  0  0  0
  1  4  1  0  0  0
  2  3  1  0  0  0
  3  4  1  0  0  0
  3  5  1  0  0  0
  5  6  2  0  0  0
  5 13  1  0  0  0
  6  7  1  0  0  0
  7  8  2  0  0  0
  8  9  1  0  0  0
  9 10  1  0  0  0
  9 13  2  0  0  0
 10 11  1  0  0  0
 10 14  1  0  0  0
 11 12  2  0  0  0
 12 13  1  0  0  0
 15 18  1  0  0  0
M  END
> <minimizedAffinity>
-6.36702

$$$$
2170


 32 36  0  0  0  0  0  0  0  0999 V2000
   90.2976   99.6401  -43.3162 N   0  0  0  0  0  0  0  0  0  0  0  0
   88.9867   99.7301  -43.3880 N   0  0  0  0  0  0  0  0  0  0  0  0
   88.5149  100.7379  -42.6400 C   0  0  0  0  0  0  0  0  0  0  0  0
   87.1774  100.8116  -42.7258 N   0  0  0  0  0  0  0  0  0  0  0  0
   86.7368   99.8337  -43.5467 C   0  0  0  0  0  0  0  0  0  0  0  0
   87.8916   99.1587  -43.9574 C   0  0  0  0  0  0  0  0  0  0  0  0
   87.6763   98.0969  -44.8102 C   0  0  0  0  0  0  0  0  0  0  0  0
   88.6932   97.4523  -45.2068 O   0  0  0  0  0  0  0  0  0  0  0  0
   86.4450   97.7123  -45.2401 N   0  0  0  0  0  0  0  0  0  0  0  0
   85.3884   98.4130  -44.8015 C   0  0  0  0  0  0  0  0  0  0  0  0
   84.2429   98.0364  -45.2160 O   0  0  0  0  0  0  0  0  0  0  0  0
   85.5191   99.4556  -43.9695 N   0  0  0  0  0  0  0  0  0  0  0  0
   84.3451  100.1638  -43.5352 C   0  0  0  0  0  0  0  0  0  0  0  0
   86.3056   96.5877  -46.1369 C   0  0  0  0  0  0  0  0  0  0  0  0
   89.6116  101.2998  -42.0713 N   0  0  0  0  0  0  0  0  0  0  0  0
   90.7051  100.6391  -42.4744 C   0  0  0  0  0  0  0  0  0  0  0  0
   92.0644  100.8849  -42.1260 N   0  0  0  0  0  0  0  0  0  0  0  0
   92.5825  100.5815  -40.8028 C   0  0  0  0  0  0  0  0  0  0  0  0
   93.5338  101.6878  -40.4181 C   0  0  0  0  0  0  0  0  0  0  0  0
   94.5321  101.8245  -41.3959 O   0  0  0  0  0  0  0  0  0  0  0  0
   94.0270  102.3247  -42.5758 C   0  0  0  0  0  0  0  0  0  0  0  0
   92.9540  101.4429  -43.1099 C   0  0  0  0  0  0  0  0  0  0  0  0
   91.2059   98.7119  -43.9487 C   0  0  0  0  0  0  0  0  0  0  0  0
   91.4816   97.5105  -43.1414 C   0  0  0  0  0  0  0  0  0  0  0  0
   91.6787   97.5568  -41.9066 O   0  0  0  0  0  0  0  0  0  0  0  0
   91.6660   92.1474  -45.8997 Cl  0  0  0  0  0  0  0  0  0  0  0  0
   91.6110   93.7136  -45.1087 C   0  0  0  0  0  0  0  0  0  0  0  0
   91.5475   94.8931  -45.8385 C   0  0  0  0  0  0  0  0  0  0  0  0
   91.5051   96.1148  -45.1972 C   0  0  0  0  0  0  0  0  0  0  0  0
   91.5246   96.2232  -43.8229 C   0  0  0  0  0  0  0  0  0  0  0  0
   91.5884   95.0257  -43.1004 C   0  0  0  0  0  0  0  0  0  0  0  0
   91.6304   93.8009  -43.7323 C   0  0  0  0  0  0  0  0  0  0  0  0
 26 27  1  0  0  0
 27 28  2  0  0  0
 27 32  1  0  0  0
 28 29  1  0  0  0
 29 30  2  0  0  0
 30 31  1  0  0  0
 30 24  1  0  0  0
 31 32  2  0  0  0
 24 25  2  0  0  0
 24 23  1  0  0  0
 23  1  1  0  0  0
  1  2  1  0  0  0
  1 16  1  0  0  0
  2  3  1  0  0  0
  2  6  1  0  0  0
  3  4  2  0  0  0
  3 15  1  0  0  0
  4  5  1  0  0  0
  5  6  2  0  0  0
  5 12  1  0  0  0
  6  7  1  0  0  0
  7  8  2  0  0  0
  7  9  1  0  0  0
  9 10  1  0  0  0
  9 14  1  0  0  0
 10 11  2  0  0  0
 10 12  1  0  0  0
 12 13  1  0  0  0
 15 16  2  0  0  0
 16 17  1  0  0  0
 17 18  1  0  0  0
 17 22  1  0  0  0
 18 19  1  0  0  0
 19 20  1  0  0  0
 20 21  1  0  0  0
 21 22  1  0  0  0
M  END
> <minimizedAffinity>
-7.23958

$$$$
2177


 31 35  0  0  0  0  0  0  0  0999 V2000
   90.2291   99.6484  -44.0258 N   0  0  0  0  0  0  0  0  0  0  0  0
   91.4033  100.4834  -44.1164 C   0  0  0  0  0  0  0  0  0  0  0  0
   91.0848  101.8132  -43.4839 C   0  0  0  0  0  0  0  0  0  0  0  0
   90.3822  101.6939  -42.2215 N   0  0  0  0  0  0  0  0  0  0  0  0
   89.2287  100.8199  -42.1448 C   0  0  0  0  0  0  0  0  0  0  0  0
   89.6035   99.4847  -42.7332 C   0  0  0  0  0  0  0  0  0  0  0  0
   91.7076   91.2101  -46.3652 Cl  0  0  0  0  0  0  0  0  0  0  0  0
   91.4484   92.8781  -45.8445 C   0  0  0  0  0  0  0  0  0  0  0  0
   90.7151   93.7316  -46.6386 C   0  0  0  0  0  0  0  0  0  0  0  0
   90.4955   95.0346  -46.2626 C   0  0  0  0  0  0  0  0  0  0  0  0
   91.0002   95.5316  -45.0780 C   0  0  0  0  0  0  0  0  0  0  0  0
   91.7322   94.6631  -44.2962 C   0  0  0  0  0  0  0  0  0  0  0  0
   91.9609   93.3557  -44.6595 C   0  0  0  0  0  0  0  0  0  0  0  0
   90.7397   96.8860  -44.7438 N   0  0  0  0  0  0  0  0  0  0  0  0
   89.9841   97.7804  -45.5541 C   0  0  0  0  0  0  0  0  0  0  0  0
   89.7602   99.0288  -45.2156 C   0  0  0  0  0  0  0  0  0  0  0  0
   89.4599   97.2774  -46.7736 N   0  0  0  0  0  0  0  0  0  0  0  0
   89.7062   95.9367  -47.1250 C   0  0  0  0  0  0  0  0  0  0  0  0
   89.2686   95.4176  -48.2032 O   0  0  0  0  0  0  0  0  0  0  0  0
   91.1171   97.2700  -43.8515 H   0  0  0  0  0  0  0  0  0  0  0  0
   88.8951   97.8714  -47.4221 H   0  0  0  0  0  0  0  0  0  0  0  0
   90.8309  102.4323  -41.0833 C   0  0  0  0  0  0  0  0  0  0  0  0
   90.0865  103.4666  -40.6451 N   0  0  0  0  0  0  0  0  0  0  0  0
   90.4773  104.1974  -39.5635 C   0  0  0  0  0  0  0  0  0  0  0  0
   91.6207  103.9013  -38.9073 N   0  0  0  0  0  0  0  0  0  0  0  0
   92.4011  102.8869  -39.2943 C   0  0  0  0  0  0  0  0  0  0  0  0
   93.5619  102.3851  -38.8352 N   0  0  0  0  0  0  0  0  0  0  0  0
   93.8860  101.3664  -39.6114 N   0  0  0  0  0  0  0  0  0  0  0  0
   92.9417  101.1969  -40.5794 C   0  0  0  0  0  0  0  0  0  0  0  0
   91.9862  102.1484  -40.4039 C   0  0  0  0  0  0  0  0  0  0  0  0
   94.3460  102.8571  -37.6898 C   0  0  0  0  0  0  0  0  0  0  0  0
  7  8  1  0  0  0
  8  9  2  0  0  0
  8 13  1  0  0  0
  9 10  1  0  0  0
 10 11  2  0  0  0
 10 18  1  0  0  0
 11 12  1  0  0  0
 11 14  1  0  0  0
 12 13  2  0  0  0
 14 15  1  0  0  0
 15 16  2  0  0  0
 15 17  1  0  0  0
 16  1  1  0  0  0
  1  2  1  0  0  0
  1  6  1  0  0  0
  2  3  1  0  0  0
  3  4  1  0  0  0
  4  5  1  0  0  0
  4 22  1  0  0  0
  5  6  1  0  0  0
 22 23  2  0  0  0
 22 30  1  0  0  0
 23 24  1  0  0  0
 24 25  2  0  0  0
 25 26  1  0  0  0
 26 27  1  0  0  0
 26 30  2  0  0  0
 27 28  1  0  0  0
 27 31  1  0  0  0
 28 29  2  0  0  0
 29 30  1  0  0  0
 17 18  1  0  0  0
 18 19  2  0  0  0
 14 20  1  0  0  0
 17 21  1  0  0  0
M  END
> <minimizedAffinity>
-6.98434

$$$$
2184


 29 32  0  0  0  0  0  0  0  0999 V2000
   91.3945   98.5986  -45.6953 N   0  0  0  0  0  0  0  0  0  0  0  0
   92.5897   99.0394  -45.1597 C   0  0  0  0  0  0  0  0  0  0  0  0
   92.6119  100.6050  -45.0791 C   0  0  0  0  0  0  0  0  0  0  0  0
   91.5945  100.7711  -43.9340 N   0  0  0  0  0  0  0  0  0  0  0  0
   90.3184  100.4217  -44.3280 C   0  0  0  0  0  0  0  0  0  0  0  0
   90.4564   99.7585  -45.7165 C   0  0  0  0  0  0  0  0  0  0  0  0
   91.5525   98.4450  -46.7434 H   0  0  0  0  0  0  0  0  0  0  0  0
   92.2040  101.1729  -42.7256 C   0  0  0  0  0  0  0  0  0  0  0  0
   91.8848  100.7504  -41.4826 C   0  0  0  0  0  0  0  0  0  0  0  0
   92.7180  101.0228  -40.3601 C   0  0  0  0  0  0  0  0  0  0  0  0
   93.8849  101.7276  -40.4879 C   0  0  0  0  0  0  0  0  0  0  0  0
   94.2186  102.1747  -41.7625 C   0  0  0  0  0  0  0  0  0  0  0  0
   93.3985  101.9080  -42.8487 C   0  0  0  0  0  0  0  0  0  0  0  0
   94.6631  101.9699  -39.3628 O   0  0  0  0  0  0  0  0  0  0  0  0
   94.0933  102.5607  -38.1846 C   0  0  0  0  0  0  0  0  0  0  0  0
   90.6644   97.4912  -45.2558 C   0  0  0  0  0  0  0  0  0  0  0  0
   90.6286   93.0168  -47.8327 Cl  0  0  0  0  0  0  0  0  0  0  0  0
   91.1203   93.5966  -46.2375 C   0  0  0  0  0  0  0  0  0  0  0  0
   90.9714   94.8923  -45.8208 C   0  0  0  0  0  0  0  0  0  0  0  0
   91.3203   95.2676  -44.5707 C   0  0  0  0  0  0  0  0  0  0  0  0
   91.8324   94.3661  -43.6792 C   0  0  0  0  0  0  0  0  0  0  0  0
   91.9906   93.0261  -44.1074 C   0  0  0  0  0  0  0  0  0  0  0  0
   91.6468   92.6334  -45.3703 C   0  0  0  0  0  0  0  0  0  0  0  0
   91.8398   91.2930  -45.7738 O   0  0  0  0  0  0  0  0  0  0  0  0
   92.1557   94.6853  -42.4584 O   0  0  0  0  0  0  0  0  0  0  0  0
   91.9915   95.9319  -42.0304 C   0  0  0  0  0  0  0  0  0  0  0  0
   92.3048   96.2125  -40.8667 O   0  0  0  0  0  0  0  0  0  0  0  0
   91.4674   96.9220  -42.8860 C   0  0  0  0  0  0  0  0  0  0  0  0
   91.1252   96.6241  -44.1591 C   0  0  0  0  0  0  0  0  0  0  0  0
 17 18  1  0  0  0
 18 19  2  0  0  0
 18 23  1  0  0  0
 19 20  1  0  0  0
 20 21  2  0  0  0
 20 29  1  0  0  0
 21 22  1  0  0  0
 21 25  1  0  0  0
 22 23  2  0  0  0
 23 24  1  0  0  0
 25 26  1  0  0  0
 26 27  2  0  0  0
 26 28  1  0  0  0
 28 29  2  0  0  0
 29 16  1  0  0  0
 16  1  1  0  0  0
  1  2  1  0  0  0
  1  6  1  0  0  0
  2  3  1  0  0  0
  3  4  1  0  0  0
  4  5  1  0  0  0
  4  8  1  0  0  0
  5  6  1  0  0  0
  8  9  2  0  0  0
  8 13  1  0  0  0
  9 10  1  0  0  0
 10 11  2  0  0  0
 11 12  1  0  0  0
 11 14  1  0  0  0
 12 13  2  0  0  0
 14 15  1  0  0  0
  1  7  1  0  0  0
M  CHG 1   1   1
M  CHG 1  24  -1
M  END
> <minimizedAffinity>
-7.07457

$$$$
2195


 29 32  0  0  0  0  0  0  0  0999 V2000
   88.1583   99.1539  -43.9809 C   0  0  0  0  0  0  0  0  0  0  0  0
   89.2529   98.4388  -44.2319 N   0  0  0  0  0  0  0  0  0  0  0  0
   89.2956   97.5293  -45.2210 C   0  0  0  0  0  0  0  0  0  0  0  0
   90.2582   96.6842  -45.6820 N   0  0  0  0  0  0  0  0  0  0  0  0
   89.7215   96.0210  -46.6843 N   0  0  0  0  0  0  0  0  0  0  0  0
   88.4722   96.3905  -46.8941 N   0  0  0  0  0  0  0  0  0  0  0  0
   88.1622   97.3348  -45.9989 C   0  0  0  0  0  0  0  0  0  0  0  0
   87.0170   98.0716  -45.7492 C   0  0  0  0  0  0  0  0  0  0  0  0
   87.0775   98.9515  -44.7408 N   0  0  0  0  0  0  0  0  0  0  0  0
   85.8741   97.8917  -46.5156 O   0  0  0  0  0  0  0  0  0  0  0  0
   85.8968   98.0714  -47.5079 H   0  0  0  0  0  0  0  0  0  0  0  0
   90.0686  101.5378  -42.2971 N   0  0  0  0  0  0  0  0  0  0  0  0
   89.3125  100.3783  -42.1414 C   0  0  0  0  0  0  0  0  0  0  0  0
   88.0770  100.1741  -42.9000 C   0  0  0  0  0  0  0  0  0  0  0  0
   87.5842  101.4664  -43.4980 C   0  0  0  0  0  0  0  0  0  0  0  0
   88.6962  102.0892  -44.2635 C   0  0  0  0  0  0  0  0  0  0  0  0
   89.8260  102.4276  -43.3344 C   0  0  0  0  0  0  0  0  0  0  0  0
   91.6500  101.4376  -41.6964 S   0  0  0  0  0  0  0  0  0  0  0  0
   92.5981  102.3625  -42.3755 O   0  0  0  0  0  0  0  0  0  0  0  0
   92.1151  100.0023  -41.8356 O   0  0  0  0  0  0  0  0  0  0  0  0
   91.6906  101.7782  -39.9303 C   0  0  0  0  0  0  0  0  0  0  0  0
   91.5864   96.5519  -45.1700 C   0  0  0  0  0  0  0  0  0  0  0  0
   91.6544   95.8427  -43.8696 C   0  0  0  0  0  0  0  0  0  0  0  0
   91.7024   94.4714  -43.8736 C   0  0  0  0  0  0  0  0  0  0  0  0
   91.7673   93.7273  -42.6977 C   0  0  0  0  0  0  0  0  0  0  0  0
   91.7848   94.3690  -41.4780 C   0  0  0  0  0  0  0  0  0  0  0  0
   91.7376   95.7453  -41.4660 C   0  0  0  0  0  0  0  0  0  0  0  0
   91.6728   96.4791  -42.6485 C   0  0  0  0  0  0  0  0  0  0  0  0
   91.6830   93.5936  -45.3889 Cl  0  0  0  0  0  0  0  0  0  0  0  0
 18 19  2  0  0  0
 18 20  2  0  0  0
 18 12  1  0  0  0
 18 21  1  0  0  0
 12 13  1  0  0  0
 12 17  1  0  0  0
 13 14  1  0  0  0
 14 15  1  0  0  0
 14  1  1  0  0  0
 15 16  1  0  0  0
 16 17  1  0  0  0
  1  2  2  0  0  0
  1  9  1  0  0  0
  2  3  1  0  0  0
  3  4  1  0  0  0
  3  7  2  0  0  0
  4  5  1  0  0  0
  4 22  1  0  0  0
  5  6  2  0  0  0
  6  7  1  0  0  0
  7  8  1  0  0  0
  8  9  2  0  0  0
  8 10  1  0  0  0
 22 23  1  0  0  0
 23 24  2  0  0  0
 23 28  1  0  0  0
 24 25  1  0  0  0
 24 29  1  0  0  0
 25 26  2  0  0  0
 26 27  1  0  0  0
 27 28  2  0  0  0
 10 11  1  0  0  0
M  END
> <minimizedAffinity>
-6.51519

$$$$
2197


 28 31  0  0  0  0  0  0  0  0999 V2000
   91.2191   98.7771  -43.2186 N   0  0  0  0  0  0  0  0  0  0  0  0
   89.8267   99.1915  -42.9500 C   0  0  0  0  0  0  0  0  0  0  0  0
   89.2699   99.7117  -44.2231 C   0  0  0  0  0  0  0  0  0  0  0  0
   89.9954  100.5899  -44.9392 O   0  0  0  0  0  0  0  0  0  0  0  0
   91.3080  100.7343  -44.7050 C   0  0  0  0  0  0  0  0  0  0  0  0
   91.8892   99.9770  -43.5615 C   0  0  0  0  0  0  0  0  0  0  0  0
   87.9453  100.3208  -43.9038 C   0  0  0  0  0  0  0  0  0  0  0  0
   87.9315  101.5478  -43.6177 O   0  0  0  0  0  0  0  0  0  0  0  0
   86.7212   99.6269  -43.8999 N   0  0  0  0  0  0  0  0  0  0  0  0
   86.5811   98.2160  -44.2074 C   0  0  0  0  0  0  0  0  0  0  0  0
   85.1302   97.8471  -43.9706 C   0  0  0  0  0  0  0  0  0  0  0  0
   84.2183   98.5875  -44.8225 N   0  0  0  0  0  0  0  0  0  0  0  0
   84.5308   99.9796  -44.7573 C   0  0  0  0  0  0  0  0  0  0  0  0
   85.4547  100.3007  -43.5756 C   0  0  0  0  0  0  0  0  0  0  0  0
   84.2585   98.0134  -46.1285 C   0  0  0  0  0  0  0  0  0  0  0  0
   84.1064   96.5169  -46.1412 C   0  0  0  0  0  0  0  0  0  0  0  0
   85.0774   95.8229  -47.0952 C   0  0  0  0  0  0  0  0  0  0  0  0
   83.5953   95.7847  -47.3016 C   0  0  0  0  0  0  0  0  0  0  0  0
   91.2824   97.4643  -44.2707 S   0  0  0  0  0  0  0  0  0  0  0  0
   89.8927   97.3198  -44.9054 O   0  0  0  0  0  0  0  0  0  0  0  0
   92.2008   97.6798  -45.4490 O   0  0  0  0  0  0  0  0  0  0  0  0
   91.5948   95.9493  -43.4858 C   0  0  0  0  0  0  0  0  0  0  0  0
   91.6045   94.7590  -44.1792 C   0  0  0  0  0  0  0  0  0  0  0  0
   91.7947   93.5422  -43.5527 C   0  0  0  0  0  0  0  0  0  0  0  0
   91.9847   93.5030  -42.1942 C   0  0  0  0  0  0  0  0  0  0  0  0
   91.9805   94.6919  -41.4795 C   0  0  0  0  0  0  0  0  0  0  0  0
   91.7901   95.8920  -42.1045 C   0  0  0  0  0  0  0  0  0  0  0  0
   91.4555   94.7412  -45.9468 Cl  0  0  0  0  0  0  0  0  0  0  0  0
 19 20  2  0  0  0
 19 21  2  0  0  0
 19  1  1  0  0  0
 19 22  1  0  0  0
  1  2  1  0  0  0
  1  6  1  0  0  0
  2  3  1  0  0  0
  3  4  1  0  0  0
  3  7  1  0  0  0
  4  5  1  0  0  0
  5  6  1  0  0  0
  7  8  2  0  0  0
  7  9  1  0  0  0
  9 10  1  0  0  0
  9 14  1  0  0  0
 10 11  1  0  0  0
 11 12  1  0  0  0
 12 13  1  0  0  0
 12 15  1  0  0  0
 13 14  1  0  0  0
 15 16  1  0  0  0
 16 17  1  0  0  0
 16 18  1  0  0  0
 17 18  1  0  0  0
 22 23  2  0  0  0
 22 27  1  0  0  0
 23 24  1  0  0  0
 23 28  1  0  0  0
 24 25  2  0  0  0
 25 26  1  0  0  0
 26 27  2  0  0  0
M  END
> <minimizedAffinity>
-6.15093

$$$$
2210


 33 36  0  0  0  0  0  0  0  0999 V2000
   90.8371   96.5362  -45.7660 C   0  0  0  0  0  0  0  0  0  0  0  0
   89.5402   96.5460  -46.1000 C   0  0  0  0  0  0  0  0  0  0  0  0
   88.5408   97.1197  -45.3226 O   0  0  0  0  0  0  0  0  0  0  0  0
   87.3152   96.9741  -45.9870 C   0  0  0  0  0  0  0  0  0  0  0  0
   87.4427   96.3231  -47.1755 C   0  0  0  0  0  0  0  0  0  0  0  0
   86.3659   96.0942  -47.9997 C   0  0  0  0  0  0  0  0  0  0  0  0
   85.1014   96.5346  -47.6236 C   0  0  0  0  0  0  0  0  0  0  0  0
   84.9771   97.1996  -46.4025 C   0  0  0  0  0  0  0  0  0  0  0  0
   86.0428   97.4203  -45.5910 C   0  0  0  0  0  0  0  0  0  0  0  0
   83.6787   97.6073  -46.0982 O   0  0  0  0  0  0  0  0  0  0  0  0
   88.8995   96.0172  -47.2857 C   0  0  0  0  0  0  0  0  0  0  0  0
   89.4592   95.4183  -48.2135 O   0  0  0  0  0  0  0  0  0  0  0  0
   91.6171  101.0703  -43.1285 Br  0  0  0  0  0  0  0  0  0  0  0  0
   91.5776   99.1688  -43.2386 C   0  0  0  0  0  0  0  0  0  0  0  0
   91.1790   98.5494  -44.4354 C   0  0  0  0  0  0  0  0  0  0  0  0
   91.1572   97.2015  -44.4911 C   0  0  0  0  0  0  0  0  0  0  0  0
   91.5177   96.4245  -43.4128 C   0  0  0  0  0  0  0  0  0  0  0  0
   91.9156   97.0637  -42.2296 C   0  0  0  0  0  0  0  0  0  0  0  0
   91.9450   98.4407  -42.1345 C   0  0  0  0  0  0  0  0  0  0  0  0
   91.4889   95.0411  -43.5109 O   0  0  0  0  0  0  0  0  0  0  0  0
   91.7768   94.1374  -42.5016 C   0  0  0  0  0  0  0  0  0  0  0  0
   85.9568   97.9417  -44.2101 C   0  0  0  0  0  0  0  0  0  0  0  0
   86.5697   99.1734  -44.0353 N   0  0  0  0  0  0  0  0  0  0  0  0
   86.4555  100.0385  -45.2516 C   0  0  0  0  0  0  0  0  0  0  0  0
   85.9657  101.3998  -44.6977 C   0  0  0  0  0  0  0  0  0  0  0  0
   86.1613  101.4314  -43.2828 N   0  0  0  0  0  0  0  0  0  0  0  0
   87.4310  101.0146  -42.8325 C   0  0  0  0  0  0  0  0  0  0  0  0
   87.7222   99.5415  -43.3578 C   0  0  0  0  0  0  0  0  0  0  0  0
   85.7287   99.6744  -43.4375 H   0  0  0  0  0  0  0  0  0  0  0  0
   85.1274  101.8381  -42.4691 C   0  0  0  0  0  0  0  0  0  0  0  0
   83.8296  101.0952  -42.4616 C   0  0  0  0  0  0  0  0  0  0  0  0
   84.0361   99.7226  -42.2479 O   0  0  0  0  0  0  0  0  0  0  0  0
   83.3345   99.3866  -41.5990 H   0  0  0  0  0  0  0  0  0  0  0  0
 13 14  1  0  0  0
 14 15  2  0  0  0
 14 19  1  0  0  0
 15 16  1  0  0  0
 16 17  2  0  0  0
 16  1  1  0  0  0
 17 18  1  0  0  0
 17 20  1  0  0  0
 18 19  2  0  0  0
 20 21  1  0  0  0
  1  2  2  0  0  0
  2  3  1  0  0  0
  2 11  1  0  0  0
  3  4  1  0  0  0
  4  5  2  0  0  0
  4  9  1  0  0  0
  5  6  1  0  0  0
  5 11  1  0  0  0
  6  7  2  0  0  0
  7  8  1  0  0  0
  8  9  2  0  0  0
  8 10  1  0  0  0
  9 22  1  0  0  0
 22 23  1  0  0  0
 23 24  1  0  0  0
 23 28  1  0  0  0
 24 25  1  0  0  0
 25 26  1  0  0  0
 26 27  1  0  0  0
 26 30  1  0  0  0
 27 28  1  0  0  0
 30 31  1  0  0  0
 31 32  1  0  0  0
 11 12  2  0  0  0
 23 29  1  0  0  0
 32 33  1  0  0  0
M  CHG 1  10  -1
M  CHG 1  23   1
M  END
> <minimizedAffinity>
-6.02989

$$$$
2213


 31 34  0  0  0  0  0  0  0  0999 V2000
   92.4423   96.2801  -40.6542 Cl  0  0  0  0  0  0  0  0  0  0  0  0
   91.9067   96.3181  -42.3197 C   0  0  0  0  0  0  0  0  0  0  0  0
   91.6407   97.5669  -42.9006 C   0  0  0  0  0  0  0  0  0  0  0  0
   91.2189   97.6296  -44.2028 C   0  0  0  0  0  0  0  0  0  0  0  0
   91.0778   96.4177  -44.8880 C   0  0  0  0  0  0  0  0  0  0  0  0
   91.3416   95.1974  -44.3071 C   0  0  0  0  0  0  0  0  0  0  0  0
   91.7673   95.1292  -42.9931 C   0  0  0  0  0  0  0  0  0  0  0  0
   91.1562   93.6870  -45.1898 Cl  0  0  0  0  0  0  0  0  0  0  0  0
   90.9172   98.8935  -44.8917 C   0  0  0  0  0  0  0  0  0  0  0  0
   91.1301  100.0463  -44.0004 C   0  0  0  0  0  0  0  0  0  0  0  0
   91.5490   99.9622  -42.7099 C   0  0  0  0  0  0  0  0  0  0  0  0
   91.7305  101.0644  -41.9253 N   0  0  0  0  0  0  0  0  0  0  0  0
   91.4805  102.2535  -42.4677 C   0  0  0  0  0  0  0  0  0  0  0  0
   91.6349  103.3089  -41.7756 O   0  0  0  0  0  0  0  0  0  0  0  0
   91.0634  102.3832  -43.7434 N   0  0  0  0  0  0  0  0  0  0  0  0
   90.8832  101.3103  -44.5214 C   0  0  0  0  0  0  0  0  0  0  0  0
   90.4943  101.4302  -45.7114 O   0  0  0  0  0  0  0  0  0  0  0  0
   90.8089  103.7130  -44.2793 C   0  0  0  0  0  0  0  0  0  0  0  0
   92.1769  100.9392  -40.5545 C   0  0  0  0  0  0  0  0  0  0  0  0
   91.8005   98.7300  -42.1708 O   0  0  0  0  0  0  0  0  0  0  0  0
   89.5291   98.8877  -45.4619 C   0  0  0  0  0  0  0  0  0  0  0  0
   88.4136   98.9092  -44.6605 C   0  0  0  0  0  0  0  0  0  0  0  0
   87.1603   98.8941  -45.1406 N   0  0  0  0  0  0  0  0  0  0  0  0
   86.9932   98.8548  -46.4765 C   0  0  0  0  0  0  0  0  0  0  0  0
   85.8070   98.8396  -46.9185 O   0  0  0  0  0  0  0  0  0  0  0  0
   88.0570   98.8319  -47.2986 N   0  0  0  0  0  0  0  0  0  0  0  0
   89.3160   98.8478  -46.8390 C   0  0  0  0  0  0  0  0  0  0  0  0
   90.3272   98.8279  -47.5807 O   0  0  0  0  0  0  0  0  0  0  0  0
   87.8252   98.7884  -48.7240 C   0  0  0  0  0  0  0  0  0  0  0  0
   86.0020   98.9218  -44.2678 C   0  0  0  0  0  0  0  0  0  0  0  0
   88.5863   98.9490  -43.2921 O   0  0  0  0  0  0  0  0  0  0  0  0
  1  2  1  0  0  0
  2  3  2  0  0  0
  2  7  1  0  0  0
  3  4  1  0  0  0
  3 20  1  0  0  0
  4  5  2  0  0  0
  4  9  1  0  0  0
  5  6  1  0  0  0
  6  7  2  0  0  0
  6  8  1  0  0  0
  9 10  1  0  0  0
  9 21  1  0  0  0
 10 11  2  0  0  0
 10 16  1  0  0  0
 11 12  1  0  0  0
 11 20  1  0  0  0
 12 13  1  0  0  0
 12 19  1  0  0  0
 13 14  2  0  0  0
 13 15  1  0  0  0
 15 16  1  0  0  0
 15 18  1  0  0  0
 16 17  2  0  0  0
 21 22  2  0  0  0
 21 27  1  0  0  0
 22 23  1  0  0  0
 22 31  1  0  0  0
 23 24  1  0  0  0
 23 30  1  0  0  0
 24 25  2  0  0  0
 24 26  1  0  0  0
 26 27  1  0  0  0
 26 29  1  0  0  0
 27 28  2  0  0  0
M  CHG 1  31  -1
M  END
> <minimizedAffinity>
-6.70822

$$$$
2214


 34 38  0  0  0  0  0  0  0  0999 V2000
   93.4077  102.1259  -39.1678 Cl  0  0  0  0  0  0  0  0  0  0  0  0
   93.1943  102.0165  -40.9020 C   0  0  0  0  0  0  0  0  0  0  0  0
   92.5879  100.9443  -41.4977 C   0  0  0  0  0  0  0  0  0  0  0  0
   92.4386  100.8976  -42.8863 C   0  0  0  0  0  0  0  0  0  0  0  0
   92.9130  101.9464  -43.6163 C   0  0  0  0  0  0  0  0  0  0  0  0
   93.5360  103.0484  -43.0075 C   0  0  0  0  0  0  0  0  0  0  0  0
   93.6823  103.0937  -41.6501 C   0  0  0  0  0  0  0  0  0  0  0  0
   92.6608  101.6935  -44.9949 N   0  0  0  0  0  0  0  0  0  0  0  0
   92.0104  100.4534  -45.1343 C   0  0  0  0  0  0  0  0  0  0  0  0
   91.6586   99.9559  -46.2503 O   0  0  0  0  0  0  0  0  0  0  0  0
   91.8401   99.8986  -43.7875 C   0  0  0  0  0  0  0  0  0  0  0  0
   92.5799   98.6708  -43.5970 N   0  0  0  0  0  0  0  0  0  0  0  0
   91.6784   97.5868  -43.3675 C   0  0  0  0  0  0  0  0  0  0  0  0
   90.3312   98.1253  -43.6460 C   0  0  0  0  0  0  0  0  0  0  0  0
   90.3953   99.6149  -43.4523 C   0  0  0  0  0  0  0  0  0  0  0  0
   89.4600  100.1149  -44.4837 C   0  0  0  0  0  0  0  0  0  0  0  0
   88.8945  101.2351  -44.5480 O   0  0  0  0  0  0  0  0  0  0  0  0
   89.2514   99.0982  -45.4870 N   0  0  0  0  0  0  0  0  0  0  0  0
   90.0662   97.9908  -45.1213 C   0  0  0  0  0  0  0  0  0  0  0  0
   90.4617   97.0988  -45.9078 O   0  0  0  0  0  0  0  0  0  0  0  0
   92.9144  102.3288  -45.8105 H   0  0  0  0  0  0  0  0  0  0  0  0
   93.2398   98.7129  -42.7891 H   0  0  0  0  0  0  0  0  0  0  0  0
   88.3788   99.2087  -46.6369 C   0  0  0  0  0  0  0  0  0  0  0  0
   86.9394   98.9081  -46.3191 C   0  0  0  0  0  0  0  0  0  0  0  0
   86.3417   98.2832  -47.4105 O   0  0  0  0  0  0  0  0  0  0  0  0
   86.4845   96.9261  -47.2315 C   0  0  0  0  0  0  0  0  0  0  0  0
   86.5598   96.6537  -45.7451 C   0  0  0  0  0  0  0  0  0  0  0  0
   86.7361   98.0303  -45.1349 C   0  0  0  0  0  0  0  0  0  0  0  0
   91.8365   96.9740  -42.0017 C   0  0  0  0  0  0  0  0  0  0  0  0
   91.7970   95.5239  -41.9730 C   0  0  0  0  0  0  0  0  0  0  0  0
   91.6949   94.8771  -43.0369 O   0  0  0  0  0  0  0  0  0  0  0  0
   91.8719   94.8176  -40.7523 N   0  0  0  0  0  0  0  0  0  0  0  0
   92.5851   94.0594  -40.6416 H   0  0  0  0  0  0  0  0  0  0  0  0
   91.2585   94.9957  -39.9352 H   0  0  0  0  0  0  0  0  0  0  0  0
  1  2  1  0  0  0
  2  3  2  0  0  0
  2  7  1  0  0  0
  3  4  1  0  0  0
  4  5  2  0  0  0
  4 11  1  0  0  0
  5  6  1  0  0  0
  5  8  1  0  0  0
  6  7  2  0  0  0
  8  9  1  0  0  0
  9 10  2  0  0  0
  9 11  1  0  0  0
 11 12  1  0  0  0
 11 15  1  0  0  0
 12 13  1  0  0  0
 13 14  1  0  0  0
 13 29  1  0  0  0
 14 15  1  0  0  0
 14 19  1  0  0  0
 15 16  1  0  0  0
 16 17  2  0  0  0
 16 18  1  0  0  0
 18 19  1  0  0  0
 18 23  1  0  0  0
 19 20  2  0  0  0
 23 24  1  0  0  0
 24 25  1  0  0  0
 24 28  1  0  0  0
 25 26  1  0  0  0
 26 27  1  0  0  0
 27 28  1  0  0  0
 29 30  1  0  0  0
 30 31  2  0  0  0
 30 32  1  0  0  0
  8 21  1  0  0  0
 12 22  1  0  0  0
 32 33  1  0  0  0
 32 34  1  0  0  0
M  END
> <minimizedAffinity>
-6.54474

$$$$
2225


 29 32  0  0  0  0  0  0  0  0999 V2000
   91.1616   91.6399  -47.6880 C   0  0  0  0  0  0  0  0  0  0  0  0
   90.3922   92.6885  -47.7853 O   0  0  0  0  0  0  0  0  0  0  0  0
   91.2914   90.8777  -48.8379 N   0  0  0  0  0  0  0  0  0  0  0  0
   90.5351   91.3189  -50.0498 C   0  0  0  0  0  0  0  0  0  0  0  0
   89.9916   90.0598  -50.6767 C   0  0  0  0  0  0  0  0  0  0  0  0
   89.9232   88.9447  -49.7498 N   0  0  0  0  0  0  0  0  0  0  0  0
   91.1624   88.4816  -49.1850 C   0  0  0  0  0  0  0  0  0  0  0  0
   92.0745   89.6919  -49.0659 C   0  0  0  0  0  0  0  0  0  0  0  0
   88.6780   88.3623  -49.4321 C   0  0  0  0  0  0  0  0  0  0  0  0
   87.5563   89.1229  -49.2965 N   0  0  0  0  0  0  0  0  0  0  0  0
   86.3645   88.6220  -49.0023 C   0  0  0  0  0  0  0  0  0  0  0  0
   86.2781   87.2776  -48.8303 N   0  0  0  0  0  0  0  0  0  0  0  0
   87.3203   86.4747  -48.9451 C   0  0  0  0  0  0  0  0  0  0  0  0
   88.5683   87.0068  -49.2536 C   0  0  0  0  0  0  0  0  0  0  0  0
   85.1890   89.3992  -48.8575 N   0  0  0  0  0  0  0  0  0  0  0  0
   84.8181   90.3563  -49.8941 C   0  0  0  0  0  0  0  0  0  0  0  0
   84.6149   91.6842  -49.1581 C   0  0  0  0  0  0  0  0  0  0  0  0
   83.6167   91.5587  -48.2291 O   0  0  0  0  0  0  0  0  0  0  0  0
   83.8745   90.6639  -47.2184 C   0  0  0  0  0  0  0  0  0  0  0  0
   84.3104   89.3048  -47.7179 C   0  0  0  0  0  0  0  0  0  0  0  0
   91.7595   91.4612  -46.3506 C   0  0  0  0  0  0  0  0  0  0  0  0
   91.7840   92.3652  -45.4384 O   0  0  0  0  0  0  0  0  0  0  0  0
   91.9479   96.2495  -41.0288 Cl  0  0  0  0  0  0  0  0  0  0  0  0
   91.8949   95.1090  -42.3495 C   0  0  0  0  0  0  0  0  0  0  0  0
   91.5931   95.5012  -43.6331 C   0  0  0  0  0  0  0  0  0  0  0  0
   91.5498   94.6223  -44.6725 C   0  0  0  0  0  0  0  0  0  0  0  0
   91.8115   93.2468  -44.4919 C   0  0  0  0  0  0  0  0  0  0  0  0
   92.1186   92.8641  -43.1691 C   0  0  0  0  0  0  0  0  0  0  0  0
   92.1540   93.7717  -42.1528 C   0  0  0  0  0  0  0  0  0  0  0  0
 23 24  1  0  0  0
 24 25  2  0  0  0
 24 29  1  0  0  0
 25 26  1  0  0  0
 26 27  2  0  0  0
 27 28  1  0  0  0
 27 22  1  0  0  0
 28 29  2  0  0  0
 22 21  1  0  0  0
 21  1  1  0  0  0
  1  2  2  0  0  0
  1  3  1  0  0  0
  3  4  1  0  0  0
  3  8  1  0  0  0
  4  5  1  0  0  0
  5  6  1  0  0  0
  6  7  1  0  0  0
  6  9  1  0  0  0
  7  8  1  0  0  0
  9 10  2  0  0  0
  9 14  1  0  0  0
 10 11  1  0  0  0
 11 12  2  0  0  0
 11 15  1  0  0  0
 12 13  1  0  0  0
 13 14  2  0  0  0
 15 16  1  0  0  0
 15 20  1  0  0  0
 16 17  1  0  0  0
 17 18  1  0  0  0
 18 19  1  0  0  0
 19 20  1  0  0  0
M  END
> <minimizedAffinity>
-6.35684

$$$$
2231


 27 31  0  0  0  0  0  0  0  0999 V2000
   91.6037   96.4935  -44.1118 N   0  0  0  0  0  0  0  0  0  0  0  0
   91.3526   96.7410  -42.8384 N   0  0  0  0  0  0  0  0  0  0  0  0
   91.5495   98.0103  -42.5392 N   0  0  0  0  0  0  0  0  0  0  0  0
   91.9501   98.6664  -43.6416 C   0  0  0  0  0  0  0  0  0  0  0  0
   91.9785   97.6942  -44.6213 C   0  0  0  0  0  0  0  0  0  0  0  0
   92.3539   98.0668  -45.8657 N   0  0  0  0  0  0  0  0  0  0  0  0
   92.6805   99.3513  -46.1001 C   0  0  0  0  0  0  0  0  0  0  0  0
   92.6513  100.3015  -45.1333 N   0  0  0  0  0  0  0  0  0  0  0  0
   92.2851   99.9845  -43.8778 C   0  0  0  0  0  0  0  0  0  0  0  0
   92.2476  100.9719  -42.8475 N   0  0  0  0  0  0  0  0  0  0  0  0
   93.4747  101.7090  -42.6127 C   0  0  0  0  0  0  0  0  0  0  0  0
   93.1821  103.0637  -41.9720 C   0  0  0  0  0  0  0  0  0  0  0  0
   92.0959  102.9841  -41.0630 N   0  0  0  0  0  0  0  0  0  0  0  0
   90.8100  102.6010  -41.7234 C   0  0  0  0  0  0  0  0  0  0  0  0
   91.0212  101.1566  -42.1369 C   0  0  0  0  0  0  0  0  0  0  0  0
   92.1404  103.2123  -39.6983 C   0  0  0  0  0  0  0  0  0  0  0  0
   90.9758  103.0703  -39.0884 O   0  0  0  0  0  0  0  0  0  0  0  0
   93.2161  103.5778  -38.7893 C   0  0  0  0  0  0  0  0  0  0  0  0
   92.9871  103.4601  -37.3305 C   0  0  0  0  0  0  0  0  0  0  0  0
   94.0803  102.6833  -38.0264 C   0  0  0  0  0  0  0  0  0  0  0  0
   91.2846   91.1926  -46.7825 Cl  0  0  0  0  0  0  0  0  0  0  0  0
   91.3732   92.7447  -46.0085 C   0  0  0  0  0  0  0  0  0  0  0  0
   90.7932   93.8377  -46.6014 C   0  0  0  0  0  0  0  0  0  0  0  0
   90.8618   95.0707  -45.9920 C   0  0  0  0  0  0  0  0  0  0  0  0
   91.5016   95.2492  -44.7875 C   0  0  0  0  0  0  0  0  0  0  0  0
   92.0743   94.1345  -44.2168 C   0  0  0  0  0  0  0  0  0  0  0  0
   92.0164   92.8889  -44.8136 C   0  0  0  0  0  0  0  0  0  0  0  0
 21 22  1  0  0  0
 22 23  2  0  0  0
 22 27  1  0  0  0
 23 24  1  0  0  0
 24 25  2  0  0  0
 25 26  1  0  0  0
 25  1  1  0  0  0
 26 27  2  0  0  0
  1  2  1  0  0  0
  1  5  1  0  0  0
  2  3  2  0  0  0
  3  4  1  0  0  0
  4  5  2  0  0  0
  4  9  1  0  0  0
  5  6  1  0  0  0
  6  7  2  0  0  0
  7  8  1  0  0  0
  8  9  2  0  0  0
  9 10  1  0  0  0
 10 11  1  0  0  0
 10 15  1  0  0  0
 11 12  1  0  0  0
 12 13  1  0  0  0
 13 14  1  0  0  0
 13 16  1  0  0  0
 14 15  1  0  0  0
 16 17  2  0  0  0
 16 18  1  0  0  0
 18 19  1  0  0  0
 18 20  1  0  0  0
 19 20  1  0  0  0
M  END
> <minimizedAffinity>
-7.23024

$$$$
2242


 32 35  0  0  0  0  0  0  0  0999 V2000
   90.6689   95.7099  -44.3868 N   0  0  0  0  0  0  0  0  0  0  0  0
   91.2522   96.9551  -44.6333 C   0  0  0  0  0  0  0  0  0  0  0  0
   92.1384   97.1309  -45.4817 O   0  0  0  0  0  0  0  0  0  0  0  0
   89.9130   95.6562  -43.6331 H   0  0  0  0  0  0  0  0  0  0  0  0
   92.2221   93.8884  -42.6983 Cl  0  0  0  0  0  0  0  0  0  0  0  0
   91.7356   93.5651  -44.3483 C   0  0  0  0  0  0  0  0  0  0  0  0
   92.0953   92.3734  -44.9116 C   0  0  0  0  0  0  0  0  0  0  0  0
   91.7520   92.0511  -46.1945 C   0  0  0  0  0  0  0  0  0  0  0  0
   91.0280   92.9623  -46.9165 C   0  0  0  0  0  0  0  0  0  0  0  0
   90.6607   94.1867  -46.3321 C   0  0  0  0  0  0  0  0  0  0  0  0
   90.9982   94.5219  -45.0509 C   0  0  0  0  0  0  0  0  0  0  0  0
   90.6380   92.7139  -48.2298 O   0  0  0  0  0  0  0  0  0  0  0  0
   90.6283   91.3918  -48.7885 C   0  0  0  0  0  0  0  0  0  0  0  0
   91.6903   90.5627  -48.1456 C   0  0  0  0  0  0  0  0  0  0  0  0
   92.2129   89.6412  -48.8140 O   0  0  0  0  0  0  0  0  0  0  0  0
   92.1070   90.8051  -46.8057 N   0  0  0  0  0  0  0  0  0  0  0  0
   92.6568   90.0956  -46.2826 H   0  0  0  0  0  0  0  0  0  0  0  0
   90.8203   98.1567  -43.8671 C   0  0  0  0  0  0  0  0  0  0  0  0
   91.7256   98.8849  -43.2909 N   0  0  0  0  0  0  0  0  0  0  0  0
   91.4070  100.0246  -42.5551 N   0  0  0  0  0  0  0  0  0  0  0  0
   90.0540  100.4017  -42.4324 C   0  0  0  0  0  0  0  0  0  0  0  0
   89.8178  101.5004  -41.8241 O   0  0  0  0  0  0  0  0  0  0  0  0
   88.9465   99.5861  -42.9703 C   0  0  0  0  0  0  0  0  0  0  0  0
   89.4535   98.5167  -43.7568 N   0  0  0  0  0  0  0  0  0  0  0  0
   88.7726   97.9316  -44.3077 H   0  0  0  0  0  0  0  0  0  0  0  0
   92.4451  100.8106  -41.9208 C   0  0  0  0  0  0  0  0  0  0  0  0
   92.7148  100.6963  -40.5788 C   0  0  0  0  0  0  0  0  0  0  0  0
   93.7256  101.4635  -39.9905 C   0  0  0  0  0  0  0  0  0  0  0  0
   94.4697  102.3501  -40.7421 C   0  0  0  0  0  0  0  0  0  0  0  0
   94.1867  102.4538  -42.0845 C   0  0  0  0  0  0  0  0  0  0  0  0
   93.2005  101.7024  -42.6515 C   0  0  0  0  0  0  0  0  0  0  0  0
   95.5615  103.1889  -40.1634 C   0  0  0  0  0  0  0  0  0  0  0  0
  5  6  1  0  0  0
  6  7  2  0  0  0
  6 11  1  0  0  0
  7  8  1  0  0  0
  8  9  2  0  0  0
  8 16  1  0  0  0
  9 10  1  0  0  0
  9 12  1  0  0  0
 10 11  2  0  0  0
 11  1  1  0  0  0
  1  2  1  0  0  0
  2  3  2  0  0  0
  2 18  1  0  0  0
 18 19  2  0  0  0
 18 24  1  0  0  0
 19 20  1  0  0  0
 20 21  1  0  0  0
 20 26  1  0  0  0
 21 22  2  0  0  0
 21 23  1  0  0  0
 23 24  1  0  0  0
 26 27  2  0  0  0
 26 31  1  0  0  0
 27 28  1  0  0  0
 28 29  2  0  0  0
 29 30  1  0  0  0
 29 32  1  0  0  0
 30 31  2  0  0  0
 12 13  1  0  0  0
 13 14  1  0  0  0
 14 15  2  0  0  0
 14 16  1  0  0  0
  1  4  1  0  0  0
 24 25  1  0  0  0
 16 17  1  0  0  0
M  END
> <minimizedAffinity>
-7.34666

$$$$
2266


 27 30  0  0  0  0  0  0  0  0999 V2000
   89.9430   98.5469  -44.7884 N   0  0  0  0  0  0  0  0  0  0  0  0
   89.2440   98.5892  -43.5671 C   0  0  0  0  0  0  0  0  0  0  0  0
   87.7962   99.0181  -43.7021 C   0  0  0  0  0  0  0  0  0  0  0  0
   87.1987   98.1279  -44.7420 C   0  0  0  0  0  0  0  0  0  0  0  0
   87.9292   97.9541  -45.8994 C   0  0  0  0  0  0  0  0  0  0  0  0
   87.4505   97.1715  -46.8667 N   0  0  0  0  0  0  0  0  0  0  0  0
   86.2578   96.5727  -46.6745 C   0  0  0  0  0  0  0  0  0  0  0  0
   85.5269   96.7249  -45.5563 N   0  0  0  0  0  0  0  0  0  0  0  0
   84.3887   96.0118  -45.6467 N   0  0  0  0  0  0  0  0  0  0  0  0
   84.3399   95.3718  -46.8241 C   0  0  0  0  0  0  0  0  0  0  0  0
   85.5001   95.7107  -47.4793 C   0  0  0  0  0  0  0  0  0  0  0  0
   85.9814   97.5112  -44.5554 C   0  0  0  0  0  0  0  0  0  0  0  0
   85.3435   97.6928  -43.4869 O   0  0  0  0  0  0  0  0  0  0  0  0
   89.2254   98.6678  -45.9894 C   0  0  0  0  0  0  0  0  0  0  0  0
   83.6663   95.9803  -44.8917 H   0  0  0  0  0  0  0  0  0  0  0  0
   91.4581   97.8272  -44.8052 S   0  0  0  0  0  0  0  0  0  0  0  0
   92.1790   98.0503  -46.1270 O   0  0  0  0  0  0  0  0  0  0  0  0
   92.3284   98.5442  -43.7778 O   0  0  0  0  0  0  0  0  0  0  0  0
   91.5159   96.1388  -44.4746 C   0  0  0  0  0  0  0  0  0  0  0  0
   91.6125   95.6710  -43.1661 C   0  0  0  0  0  0  0  0  0  0  0  0
   91.6594   94.3133  -42.9371 C   0  0  0  0  0  0  0  0  0  0  0  0
   91.6137   93.4065  -43.9452 C   0  0  0  0  0  0  0  0  0  0  0  0
   91.5187   93.8335  -45.2399 C   0  0  0  0  0  0  0  0  0  0  0  0
   91.4721   95.1923  -45.4705 C   0  0  0  0  0  0  0  0  0  0  0  0
   91.4572   92.6743  -46.5722 Cl  0  0  0  0  0  0  0  0  0  0  0  0
   91.6637   96.5221  -42.0875 O   0  0  0  0  0  0  0  0  0  0  0  0
   92.2511   96.0736  -40.8871 C   0  0  0  0  0  0  0  0  0  0  0  0
 16 17  2  0  0  0
 16 18  2  0  0  0
 16  1  1  0  0  0
 16 19  1  0  0  0
  1  2  1  0  0  0
  1 14  1  0  0  0
  2  3  1  0  0  0
  3  4  1  0  0  0
  4  5  2  0  0  0
  4 12  1  0  0  0
  5  6  1  0  0  0
  5 14  1  0  0  0
  6  7  2  0  0  0
  7  8  1  0  0  0
  7 11  1  0  0  0
  8  9  1  0  0  0
  8 12  1  0  0  0
  9 10  1  0  0  0
 10 11  2  0  0  0
 12 13  2  0  0  0
 19 20  2  0  0  0
 19 24  1  0  0  0
 20 21  1  0  0  0
 20 26  1  0  0  0
 21 22  2  0  0  0
 22 23  1  0  0  0
 23 24  2  0  0  0
 23 25  1  0  0  0
 26 27  1  0  0  0
  9 15  1  0  0  0
M  END
> <minimizedAffinity>
-7.16222

$$$$
2267


 27 30  0  0  0  0  0  0  0  0999 V2000
   90.1468   99.9847  -43.3867 N   0  0  0  0  0  0  0  0  0  0  0  0
   89.0999   99.8930  -42.4715 C   0  0  0  0  0  0  0  0  0  0  0  0
   87.7563   99.6264  -43.1088 C   0  0  0  0  0  0  0  0  0  0  0  0
   87.8453   98.8947  -44.3940 C   0  0  0  0  0  0  0  0  0  0  0  0
   88.9073   99.1983  -45.2108 C   0  0  0  0  0  0  0  0  0  0  0  0
   89.0684   98.5892  -46.3914 N   0  0  0  0  0  0  0  0  0  0  0  0
   88.1554   97.6445  -46.7910 C   0  0  0  0  0  0  0  0  0  0  0  0
   87.1192   97.3597  -45.9756 N   0  0  0  0  0  0  0  0  0  0  0  0
   86.3877   96.4233  -46.5858 N   0  0  0  0  0  0  0  0  0  0  0  0
   86.9271   96.1085  -47.7568 C   0  0  0  0  0  0  0  0  0  0  0  0
   88.0769   96.8762  -47.9326 C   0  0  0  0  0  0  0  0  0  0  0  0
   86.9097   97.9376  -44.7858 C   0  0  0  0  0  0  0  0  0  0  0  0
   85.9455   97.6712  -44.0285 O   0  0  0  0  0  0  0  0  0  0  0  0
   89.8734  100.2122  -44.7566 C   0  0  0  0  0  0  0  0  0  0  0  0
   85.5139   95.9909  -46.2078 H   0  0  0  0  0  0  0  0  0  0  0  0
   91.6483   99.3847  -42.9770 S   0  0  0  0  0  0  0  0  0  0  0  0
   92.6468   99.7500  -44.0518 O   0  0  0  0  0  0  0  0  0  0  0  0
   92.1496   99.9892  -41.6990 O   0  0  0  0  0  0  0  0  0  0  0  0
   91.7127   97.6446  -42.8051 C   0  0  0  0  0  0  0  0  0  0  0  0
   91.4746   96.7767  -43.8568 C   0  0  0  0  0  0  0  0  0  0  0  0
   91.5389   95.4053  -43.6626 C   0  0  0  0  0  0  0  0  0  0  0  0
   91.8377   94.8489  -42.4403 C   0  0  0  0  0  0  0  0  0  0  0  0
   92.0751   95.7122  -41.3925 C   0  0  0  0  0  0  0  0  0  0  0  0
   92.0112   97.0744  -41.5853 C   0  0  0  0  0  0  0  0  0  0  0  0
   91.2343   94.3210  -45.0053 Cl  0  0  0  0  0  0  0  0  0  0  0  0
   91.8982   93.4568  -42.2664 O   0  0  0  0  0  0  0  0  0  0  0  0
   93.1321   92.8443  -41.9428 C   0  0  0  0  0  0  0  0  0  0  0  0
 16 17  2  0  0  0
 16 18  2  0  0  0
 16  1  1  0  0  0
 16 19  1  0  0  0
  1  2  1  0  0  0
  1 14  1  0  0  0
  2  3  1  0  0  0
  3  4  1  0  0  0
  4  5  2  0  0  0
  4 12  1  0  0  0
  5  6  1  0  0  0
  5 14  1  0  0  0
  6  7  2  0  0  0
  7  8  1  0  0  0
  7 11  1  0  0  0
  8  9  1  0  0  0
  8 12  1  0  0  0
  9 10  1  0  0  0
 10 11  2  0  0  0
 12 13  2  0  0  0
 19 20  2  0  0  0
 19 24  1  0  0  0
 20 21  1  0  0  0
 21 22  2  0  0  0
 21 25  1  0  0  0
 22 23  1  0  0  0
 22 26  1  0  0  0
 23 24  2  0  0  0
 26 27  1  0  0  0
  9 15  1  0  0  0
M  END
> <minimizedAffinity>
-6.49182

$$$$
2270


 22 24  0  0  0  0  0  0  0  0999 V2000
   91.5217   91.8525  -46.8567 C   0  0  0  0  0  0  0  0  0  0  0  0
   92.2639   90.8973  -46.4915 O   0  0  0  0  0  0  0  0  0  0  0  0
   90.7550   91.7805  -48.0600 N   0  0  0  0  0  0  0  0  0  0  0  0
   90.1711   92.5771  -48.3123 H   0  0  0  0  0  0  0  0  0  0  0  0
   91.3543   96.5802  -43.1688 Cl  0  0  0  0  0  0  0  0  0  0  0  0
   91.3929   95.2113  -44.2772 C   0  0  0  0  0  0  0  0  0  0  0  0
   91.8276   93.9847  -43.8221 C   0  0  0  0  0  0  0  0  0  0  0  0
   91.8506   92.9270  -44.7027 C   0  0  0  0  0  0  0  0  0  0  0  0
   91.4527   93.0370  -46.0392 C   0  0  0  0  0  0  0  0  0  0  0  0
   91.0236   94.2552  -46.4806 C   0  0  0  0  0  0  0  0  0  0  0  0
   90.9934   95.3420  -45.5992 C   0  0  0  0  0  0  0  0  0  0  0  0
   92.2285   93.8449  -42.5004 O   0  0  0  0  0  0  0  0  0  0  0  0
   93.2850   92.9767  -42.1388 C   0  0  0  0  0  0  0  0  0  0  0  0
   90.8505   90.5851  -48.8447 C   0  0  0  0  0  0  0  0  0  0  0  0
   89.5984   89.8485  -49.1087 C   0  0  0  0  0  0  0  0  0  0  0  0
   89.6865   88.4270  -49.2447 N   0  0  0  0  0  0  0  0  0  0  0  0
   88.4557   87.9015  -48.6053 C   0  0  0  0  0  0  0  0  0  0  0  0
   87.3389   88.7813  -49.1810 C   0  0  0  0  0  0  0  0  0  0  0  0
   87.7122   89.3776  -50.4477 N   0  0  0  0  0  0  0  0  0  0  0  0
   88.7959   90.3518  -50.2974 C   0  0  0  0  0  0  0  0  0  0  0  0
   88.2690   88.3129  -51.2641 C   0  0  0  0  0  0  0  0  0  0  0  0
   89.5897   87.9360  -50.6042 C   0  0  0  0  0  0  0  0  0  0  0  0
  5  6  1  0  0  0
  6  7  2  0  0  0
  6 11  1  0  0  0
  7  8  1  0  0  0
  7 12  1  0  0  0
  8  9  2  0  0  0
  9 10  1  0  0  0
  9  1  1  0  0  0
 10 11  2  0  0  0
  1  2  2  0  0  0
  1  3  1  0  0  0
  3 14  1  0  0  0
 14 15  1  0  0  0
 15 16  1  0  0  0
 15 20  1  0  0  0
 16 17  1  0  0  0
 16 22  1  0  0  0
 17 18  1  0  0  0
 18 19  1  0  0  0
 19 20  1  0  0  0
 19 21  1  0  0  0
 21 22  1  0  0  0
 12 13  1  0  0  0
  3  4  1  0  0  0
M  END
> <minimizedAffinity>
-5.84195

$$$$
2271


 27 30  0  0  0  0  0  0  0  0999 V2000
   89.7450   97.5732  -46.2650 C   0  0  0  0  0  0  0  0  0  0  0  0
   90.9670   97.4126  -45.6509 N   0  0  0  0  0  0  0  0  0  0  0  0
   91.2553   98.6965  -45.0463 C   0  0  0  0  0  0  0  0  0  0  0  0
   91.7299   99.1038  -43.9141 C   0  0  0  0  0  0  0  0  0  0  0  0
   91.9206  100.5227  -43.5626 C   0  0  0  0  0  0  0  0  0  0  0  0
   91.5082  101.5057  -44.5997 C   0  0  0  0  0  0  0  0  0  0  0  0
   91.4518  100.9593  -45.9863 C   0  0  0  0  0  0  0  0  0  0  0  0
   90.8778   99.6317  -46.0409 N   0  0  0  0  0  0  0  0  0  0  0  0
   89.9339   98.9652  -46.9337 C   0  0  0  0  0  0  0  0  0  0  0  0
   89.5990   96.7118  -47.3890 O   0  0  0  0  0  0  0  0  0  0  0  0
   91.7030   97.3950  -46.4485 H   0  0  0  0  0  0  0  0  0  0  0  0
   90.3173   96.9759  -48.0198 H   0  0  0  0  0  0  0  0  0  0  0  0
   84.4724   97.9293  -43.4272 Cl  0  0  0  0  0  0  0  0  0  0  0  0
   86.0035   97.8123  -44.2569 C   0  0  0  0  0  0  0  0  0  0  0  0
   86.2171   96.9602  -45.3331 C   0  0  0  0  0  0  0  0  0  0  0  0
   87.4218   96.8838  -45.9676 C   0  0  0  0  0  0  0  0  0  0  0  0
   88.4854   97.6627  -45.5545 C   0  0  0  0  0  0  0  0  0  0  0  0
   88.2811   98.5072  -44.4920 C   0  0  0  0  0  0  0  0  0  0  0  0
   87.0575   98.5828  -43.8493 C   0  0  0  0  0  0  0  0  0  0  0  0
   91.3015   96.3407  -44.8378 C   0  0  0  0  0  0  0  0  0  0  0  0
   91.3496   96.3247  -43.4853 C   0  0  0  0  0  0  0  0  0  0  0  0
   91.6937   95.1582  -42.8043 C   0  0  0  0  0  0  0  0  0  0  0  0
   91.9977   93.9767  -43.4591 C   0  0  0  0  0  0  0  0  0  0  0  0
   91.9400   94.0236  -44.8362 C   0  0  0  0  0  0  0  0  0  0  0  0
   91.6060   95.1536  -45.5343 C   0  0  0  0  0  0  0  0  0  0  0  0
   92.3355   92.8395  -42.7435 O   0  0  0  0  0  0  0  0  0  0  0  0
   93.4012   92.8914  -41.8304 C   0  0  0  0  0  0  0  0  0  0  0  0
 13 14  1  0  0  0
 14 15  2  0  0  0
 14 19  1  0  0  0
 15 16  1  0  0  0
 16 17  2  0  0  0
 17 18  1  0  0  0
 17  1  1  0  0  0
 18 19  2  0  0  0
  1  2  1  0  0  0
  1  9  1  0  0  0
  1 10  1  0  0  0
  2  3  1  0  0  0
  2 20  1  0  0  0
  3  4  2  0  0  0
  3  8  1  0  0  0
  4  5  1  0  0  0
  5  6  1  0  0  0
  6  7  1  0  0  0
  7  8  1  0  0  0
  8  9  1  0  0  0
 20 21  2  0  0  0
 20 25  1  0  0  0
 21 22  1  0  0  0
 22 23  2  0  0  0
 23 24  1  0  0  0
 23 26  1  0  0  0
 24 25  2  0  0  0
 26 27  1  0  0  0
  2 11  1  0  0  0
 10 12  1  0  0  0
M  CHG 1   2   1
M  END
> <minimizedAffinity>
-6.76740

$$$$
2272


 29 32  0  0  0  0  0  0  0  0999 V2000
   91.8987  100.2123  -42.9735 C   0  0  0  0  0  0  0  0  0  0  0  0
   91.4684  100.7737  -44.0525 O   0  0  0  0  0  0  0  0  0  0  0  0
   92.0381  101.0553  -41.8692 N   0  0  0  0  0  0  0  0  0  0  0  0
   92.7089  100.6793  -40.6105 C   0  0  0  0  0  0  0  0  0  0  0  0
   93.9804  101.5743  -40.7493 C   0  0  0  0  0  0  0  0  0  0  0  0
   93.5515  102.9626  -40.6539 N   0  0  0  0  0  0  0  0  0  0  0  0
   92.2830  103.3256  -40.9778 C   0  0  0  0  0  0  0  0  0  0  0  0
   91.4842  102.3807  -41.8297 C   0  0  0  0  0  0  0  0  0  0  0  0
   92.1425   98.7948  -43.0861 C   0  0  0  0  0  0  0  0  0  0  0  0
   91.1185   97.8019  -42.7736 C   0  0  0  0  0  0  0  0  0  0  0  0
   91.5369   91.9139  -46.6095 Cl  0  0  0  0  0  0  0  0  0  0  0  0
   91.4904   93.2861  -45.5303 C   0  0  0  0  0  0  0  0  0  0  0  0
   91.8767   93.1569  -44.2248 C   0  0  0  0  0  0  0  0  0  0  0  0
   91.8410   94.2777  -43.3852 C   0  0  0  0  0  0  0  0  0  0  0  0
   91.4281   95.5119  -43.8284 C   0  0  0  0  0  0  0  0  0  0  0  0
   91.0301   95.6593  -45.1690 C   0  0  0  0  0  0  0  0  0  0  0  0
   91.0782   94.5306  -45.9702 C   0  0  0  0  0  0  0  0  0  0  0  0
   91.5016   96.4024  -42.8428 N   0  0  0  0  0  0  0  0  0  0  0  0
   91.9710   95.6966  -41.7591 C   0  0  0  0  0  0  0  0  0  0  0  0
   92.1802   96.1818  -40.6099 O   0  0  0  0  0  0  0  0  0  0  0  0
   92.1554   94.4535  -42.1290 O   0  0  0  0  0  0  0  0  0  0  0  0
   94.6853  103.7585  -40.6363 C   0  0  0  0  0  0  0  0  0  0  0  0
   95.4563  103.6244  -39.3224 C   0  0  0  0  0  0  0  0  0  0  0  0
   96.6943  103.2995  -39.4850 O   0  0  0  0  0  0  0  0  0  0  0  0
   94.8652  103.8241  -38.1502 N   0  0  0  0  0  0  0  0  0  0  0  0
   96.0532  103.7568  -37.4953 H   0  0  0  0  0  0  0  0  0  0  0  0
   94.2352  104.0362  -36.9028 C   0  0  0  0  0  0  0  0  0  0  0  0
   94.1283  102.7526  -35.9939 C   0  0  0  0  0  0  0  0  0  0  0  0
   92.9416  103.2997  -36.6239 C   0  0  0  0  0  0  0  0  0  0  0  0
 11 12  1  0  0  0
 12 13  2  0  0  0
 12 17  1  0  0  0
 13 14  1  0  0  0
 14 15  2  0  0  0
 14 21  1  0  0  0
 15 16  1  0  0  0
 15 18  1  0  0  0
 16 17  2  0  0  0
 18 19  1  0  0  0
 18 10  1  0  0  0
 19 20  2  0  0  0
 19 21  1  0  0  0
 10  9  1  0  0  0
  9  1  1  0  0  0
  1  2  2  0  0  0
  1  3  1  0  0  0
  3  4  1  0  0  0
  3  8  1  0  0  0
  4  5  1  0  0  0
  5  6  1  0  0  0
  6  7  1  0  0  0
  6 22  1  0  0  0
  7  8  1  0  0  0
 22 23  1  0  0  0
 23 24  2  0  0  0
 23 25  1  0  0  0
 25 27  1  0  0  0
 27 28  1  0  0  0
 27 29  1  0  0  0
 28 29  1  0  0  0
 25 26  1  0  0  0
M  END
> <minimizedAffinity>
-6.52187

$$$$
2275


 21 23  0  0  0  0  0  0  0  0999 V2000
   91.2481   92.8423  -45.3951 Cl  0  0  0  0  0  0  0  0  0  0  0  0
   91.3202   94.4097  -44.6205 C   0  0  0  0  0  0  0  0  0  0  0  0
   91.6281   94.5043  -43.2790 C   0  0  0  0  0  0  0  0  0  0  0  0
   91.6719   95.7698  -42.7372 C   0  0  0  0  0  0  0  0  0  0  0  0
   91.9452   95.9706  -41.5143 O   0  0  0  0  0  0  0  0  0  0  0  0
   91.4205   96.8384  -43.5082 N   0  0  0  0  0  0  0  0  0  0  0  0
   91.1232   96.7946  -44.7919 N   0  0  0  0  0  0  0  0  0  0  0  0
   90.8584   97.9794  -45.5907 C   0  0  0  0  0  0  0  0  0  0  0  0
   89.5191   98.6065  -45.2659 C   0  0  0  0  0  0  0  0  0  0  0  0
   89.6275   99.4805  -44.0285 C   0  0  0  0  0  0  0  0  0  0  0  0
   90.0520   98.6751  -42.8220 C   0  0  0  0  0  0  0  0  0  0  0  0
   91.4718   98.1802  -42.9071 C   0  0  0  0  0  0  0  0  0  0  0  0
   92.2043   99.0385  -43.8758 C   0  0  0  0  0  0  0  0  0  0  0  0
   91.8979   98.9904  -45.1675 C   0  0  0  0  0  0  0  0  0  0  0  0
   91.0730   95.5505  -45.3535 C   0  0  0  0  0  0  0  0  0  0  0  0
   90.7870   95.4765  -46.5964 O   0  0  0  0  0  0  0  0  0  0  0  0
   91.8908   93.3695  -42.4592 N   0  0  0  0  0  0  0  0  0  0  0  0
   91.0338   92.9926  -41.9522 H   0  0  0  0  0  0  0  0  0  0  0  0
   93.1816   92.7562  -42.3036 C   0  0  0  0  0  0  0  0  0  0  0  0
   94.0109   92.8500  -43.5728 C   0  0  0  0  0  0  0  0  0  0  0  0
   93.9959   93.3038  -41.1795 C   0  0  0  0  0  0  0  0  0  0  0  0
  1  2  1  0  0  0
  2  3  2  0  0  0
  2 15  1  0  0  0
  3  4  1  0  0  0
  3 17  1  0  0  0
  4  5  2  0  0  0
  4  6  1  0  0  0
  6  7  1  0  0  0
  6 12  1  0  0  0
  7  8  1  0  0  0
  7 15  1  0  0  0
  8  9  1  0  0  0
  8 14  1  0  0  0
  9 10  1  0  0  0
 10 11  1  0  0  0
 11 12  1  0  0  0
 12 13  1  0  0  0
 13 14  2  0  0  0
 15 16  2  0  0  0
 17 19  1  0  0  0
 19 20  1  0  0  0
 19 21  1  0  0  0
 17 18  1  0  0  0
M  END
> <minimizedAffinity>
-5.78127

$$$$
2276


 21 24  0  0  0  0  0  0  0  0999 V2000
   85.6637   98.9474  -44.2910 Cl  0  0  0  0  0  0  0  0  0  0  0  0
   87.3609   99.1085  -43.8850 C   0  0  0  0  0  0  0  0  0  0  0  0
   87.7127  100.0460  -42.9366 C   0  0  0  0  0  0  0  0  0  0  0  0
   89.0847  100.1245  -42.6657 C   0  0  0  0  0  0  0  0  0  0  0  0
   89.4589  100.9557  -41.8159 O   0  0  0  0  0  0  0  0  0  0  0  0
   89.9640   99.3357  -43.2949 N   0  0  0  0  0  0  0  0  0  0  0  0
   89.6189   98.4376  -44.2048 N   0  0  0  0  0  0  0  0  0  0  0  0
   90.7007   97.6572  -44.7882 C   0  0  0  0  0  0  0  0  0  0  0  0
   91.6768   98.6537  -45.3859 C   0  0  0  0  0  0  0  0  0  0  0  0
   92.0339   99.6852  -44.4049 C   0  0  0  0  0  0  0  0  0  0  0  0
   91.4037   99.4047  -43.0339 C   0  0  0  0  0  0  0  0  0  0  0  0
   91.7830   97.9906  -42.6923 C   0  0  0  0  0  0  0  0  0  0  0  0
   91.4247   97.0883  -43.5899 C   0  0  0  0  0  0  0  0  0  0  0  0
   93.0831   98.6885  -44.9164 C   0  0  0  0  0  0  0  0  0  0  0  0
   88.3288   98.3212  -44.5018 C   0  0  0  0  0  0  0  0  0  0  0  0
   87.9907   97.4709  -45.3645 O   0  0  0  0  0  0  0  0  0  0  0  0
   86.7877  100.8888  -42.2553 N   0  0  0  0  0  0  0  0  0  0  0  0
   86.6298  100.6546  -41.2524 H   0  0  0  0  0  0  0  0  0  0  0  0
   86.0936  101.9825  -42.8306 C   0  0  0  0  0  0  0  0  0  0  0  0
   84.7795  102.3111  -42.1710 C   0  0  0  0  0  0  0  0  0  0  0  0
   86.9057  103.2701  -42.8399 C   0  0  0  0  0  0  0  0  0  0  0  0
  1  2  1  0  0  0
  2  3  2  0  0  0
  2 15  1  0  0  0
  3  4  1  0  0  0
  3 17  1  0  0  0
  4  5  2  0  0  0
  4  6  1  0  0  0
  6  7  1  0  0  0
  6 11  1  0  0  0
  7  8  1  0  0  0
  7 15  1  0  0  0
  8  9  1  0  0  0
  8 13  1  0  0  0
  9 10  1  0  0  0
  9 14  1  0  0  0
 10 11  1  0  0  0
 10 14  1  0  0  0
 11 12  1  0  0  0
 12 13  2  0  0  0
 15 16  2  0  0  0
 17 19  1  0  0  0
 19 20  1  0  0  0
 19 21  1  0  0  0
 17 18  1  0  0  0
M  END
> <minimizedAffinity>
-5.23097

$$$$
2281


 34 37  0  0  0  0  0  0  0  0999 V2000
   91.4843  102.9625  -43.0513 N   0  0  0  0  0  0  0  0  0  0  0  0
   90.4697  102.5487  -43.9254 C   0  0  0  0  0  0  0  0  0  0  0  0
   90.8942  101.1430  -44.4890 C   0  0  0  0  0  0  0  0  0  0  0  0
   91.9564  100.5119  -43.8805 N   0  0  0  0  0  0  0  0  0  0  0  0
   92.9664  101.2990  -43.2272 C   0  0  0  0  0  0  0  0  0  0  0  0
   92.8587  102.7894  -43.6883 C   0  0  0  0  0  0  0  0  0  0  0  0
   92.6625  105.6850  -42.2827 Cl  0  0  0  0  0  0  0  0  0  0  0  0
   92.1947  104.3320  -41.1757 C   0  0  0  0  0  0  0  0  0  0  0  0
   91.5435  103.3086  -41.7104 C   0  0  0  0  0  0  0  0  0  0  0  0
   91.1415  102.2546  -40.7474 C   0  0  0  0  0  0  0  0  0  0  0  0
   91.4747  102.4098  -39.5216 N   0  0  0  0  0  0  0  0  0  0  0  0
   92.1599  103.4693  -39.0172 N   0  0  0  0  0  0  0  0  0  0  0  0
   92.5208  104.4301  -39.8225 C   0  0  0  0  0  0  0  0  0  0  0  0
   93.1772  105.4620  -39.4526 O   0  0  0  0  0  0  0  0  0  0  0  0
   92.6776  103.3304  -37.6570 C   0  0  0  0  0  0  0  0  0  0  0  0
   91.9132  103.5385  -36.5544 C   0  0  0  0  0  0  0  0  0  0  0  0
   92.3942  103.2820  -35.2887 C   0  0  0  0  0  0  0  0  0  0  0  0
   93.6879  102.7967  -35.1045 C   0  0  0  0  0  0  0  0  0  0  0  0
   94.4522  102.6006  -36.2545 C   0  0  0  0  0  0  0  0  0  0  0  0
   93.9646  102.8569  -37.4767 C   0  0  0  0  0  0  0  0  0  0  0  0
   92.7779   99.6362  -44.7816 C   0  0  0  0  0  0  0  0  0  0  0  0
   92.1620   98.3215  -44.8834 C   0  0  0  0  0  0  0  0  0  0  0  0
   91.9650   97.5933  -45.7073 O   0  0  0  0  0  0  0  0  0  0  0  0
   91.6352   97.8083  -43.3416 N   0  0  0  0  0  0  0  0  0  0  0  0
   91.4292   96.3759  -43.7569 C   0  0  0  0  0  0  0  0  0  0  0  0
   91.0928   96.0051  -44.8477 O   0  0  0  0  0  0  0  0  0  0  0  0
   91.7122   95.4910  -42.6504 N   0  0  0  0  0  0  0  0  0  0  0  0
   91.7410   98.5458  -43.1341 H   0  0  0  0  0  0  0  0  0  0  0  0
   91.9662   95.9808  -41.7289 H   0  0  0  0  0  0  0  0  0  0  0  0
   91.6681   94.0775  -42.6426 C   0  0  0  0  0  0  0  0  0  0  0  0
   92.1885   93.3230  -43.7968 C   0  0  0  0  0  0  0  0  0  0  0  0
   93.6615   93.0104  -43.5147 C   0  0  0  0  0  0  0  0  0  0  0  0
   93.6399   92.8273  -42.0152 C   0  0  0  0  0  0  0  0  0  0  0  0
   92.5695   93.6604  -41.4620 C   0  0  0  0  0  0  0  0  0  0  0  0
  7  8  1  0  0  0
  8  9  2  0  0  0
  8 13  1  0  0  0
  9 10  1  0  0  0
  9  1  1  0  0  0
 10 11  2  0  0  0
 11 12  1  0  0  0
 12 13  1  0  0  0
 12 15  1  0  0  0
 13 14  2  0  0  0
 15 16  2  0  0  0
 15 20  1  0  0  0
 16 17  1  0  0  0
 17 18  2  0  0  0
 18 19  1  0  0  0
 19 20  2  0  0  0
  1  2  1  0  0  0
  1  6  1  0  0  0
  2  3  1  0  0  0
  3  4  1  0  0  0
  4  5  1  0  0  0
  4 21  1  0  0  0
  5  6  1  0  0  0
 21 22  1  0  0  0
 22 23  2  0  0  0
 22 24  1  0  0  0
 24 25  1  0  0  0
 25 26  2  0  0  0
 25 27  1  0  0  0
 27 30  1  0  0  0
 30 31  1  0  0  0
 30 34  1  0  0  0
 31 32  1  0  0  0
 32 33  1  0  0  0
 33 34  1  0  0  0
 24 28  1  0  0  0
 27 29  1  0  0  0
M  END
> <minimizedAffinity>
-6.62543

$$$$
2282


 31 34  0  0  0  0  0  0  0  0999 V2000
   89.2500   99.3023  -45.1970 N   0  0  0  0  0  0  0  0  0  0  0  0
   88.1227   98.5277  -44.7360 C   0  0  0  0  0  0  0  0  0  0  0  0
   87.9916   97.2808  -45.5533 C   0  0  0  0  0  0  0  0  0  0  0  0
   89.1957   97.1512  -46.3356 N   0  0  0  0  0  0  0  0  0  0  0  0
   89.2057   98.1609  -47.3317 C   0  0  0  0  0  0  0  0  0  0  0  0
   89.4345   99.4944  -46.6135 C   0  0  0  0  0  0  0  0  0  0  0  0
   88.6819  102.1103  -44.4463 Cl  0  0  0  0  0  0  0  0  0  0  0  0
   90.0581  101.2003  -43.8606 C   0  0  0  0  0  0  0  0  0  0  0  0
   90.1891   99.8893  -44.3095 C   0  0  0  0  0  0  0  0  0  0  0  0
   91.2836   99.2025  -43.8296 C   0  0  0  0  0  0  0  0  0  0  0  0
   92.1450   99.7952  -42.9843 N   0  0  0  0  0  0  0  0  0  0  0  0
   92.0390  101.0376  -42.5469 N   0  0  0  0  0  0  0  0  0  0  0  0
   90.9831  101.7449  -42.9914 C   0  0  0  0  0  0  0  0  0  0  0  0
   90.8597  102.9354  -42.5878 O   0  0  0  0  0  0  0  0  0  0  0  0
   92.9968  101.6024  -41.6420 C   0  0  0  0  0  0  0  0  0  0  0  0
   92.8632  101.4094  -40.2864 C   0  0  0  0  0  0  0  0  0  0  0  0
   93.7923  101.9555  -39.3939 C   0  0  0  0  0  0  0  0  0  0  0  0
   94.8617  102.6977  -39.8403 C   0  0  0  0  0  0  0  0  0  0  0  0
   95.0037  102.8953  -41.1962 C   0  0  0  0  0  0  0  0  0  0  0  0
   94.0731  102.3480  -42.0731 C   0  0  0  0  0  0  0  0  0  0  0  0
   89.5724   95.8428  -46.6948 C   0  0  0  0  0  0  0  0  0  0  0  0
   90.7389   95.3193  -45.9762 C   0  0  0  0  0  0  0  0  0  0  0  0
   91.7368   96.1109  -45.8766 O   0  0  0  0  0  0  0  0  0  0  0  0
   90.8552   94.0358  -45.3900 N   0  0  0  0  0  0  0  0  0  0  0  0
   90.0369   93.3983  -45.4641 H   0  0  0  0  0  0  0  0  0  0  0  0
   92.0248   93.5662  -44.6913 C   0  0  0  0  0  0  0  0  0  0  0  0
   91.7338   93.4873  -43.2245 C   0  0  0  0  0  0  0  0  0  0  0  0
   92.6990   92.7363  -42.6083 O   0  0  0  0  0  0  0  0  0  0  0  0
   93.3168   93.4493  -41.6177 C   0  0  0  0  0  0  0  0  0  0  0  0
   92.2505   94.4293  -41.1761 C   0  0  0  0  0  0  0  0  0  0  0  0
   91.7584   94.8603  -42.5684 C   0  0  0  0  0  0  0  0  0  0  0  0
  7  8  1  0  0  0
  8  9  2  0  0  0
  8 13  1  0  0  0
  9 10  1  0  0  0
  9  1  1  0  0  0
 10 11  2  0  0  0
 11 12  1  0  0  0
 12 13  1  0  0  0
 12 15  1  0  0  0
 13 14  2  0  0  0
 15 16  2  0  0  0
 15 20  1  0  0  0
 16 17  1  0  0  0
 17 18  2  0  0  0
 18 19  1  0  0  0
 19 20  2  0  0  0
  1  2  1  0  0  0
  1  6  1  0  0  0
  2  3  1  0  0  0
  3  4  1  0  0  0
  4  5  1  0  0  0
  4 21  1  0  0  0
  5  6  1  0  0  0
 21 22  1  0  0  0
 22 23  2  0  0  0
 22 24  1  0  0  0
 24 26  1  0  0  0
 26 27  1  0  0  0
 27 28  1  0  0  0
 27 31  1  0  0  0
 28 29  1  0  0  0
 29 30  1  0  0  0
 30 31  1  0  0  0
 24 25  1  0  0  0
M  END
> <minimizedAffinity>
-6.15724

$$$$
2284


 33 37  0  0  0  0  0  0  0  0999 V2000
   91.4537   96.8120  -42.9976 C   0  0  0  0  0  0  0  0  0  0  0  0
   91.8224   95.6884  -42.2847 C   0  0  0  0  0  0  0  0  0  0  0  0
   91.9492   94.4320  -42.8203 C   0  0  0  0  0  0  0  0  0  0  0  0
   92.2972   93.4700  -42.0599 O   0  0  0  0  0  0  0  0  0  0  0  0
   91.7022   94.2393  -44.1501 N   0  0  0  0  0  0  0  0  0  0  0  0
   91.7837   93.1292  -44.7687 N   0  0  0  0  0  0  0  0  0  0  0  0
   91.5345   93.0161  -46.0397 C   0  0  0  0  0  0  0  0  0  0  0  0
   91.1407   94.6578  -46.4043 S   0  0  0  0  0  0  0  0  0  0  0  0
   91.3465   95.3271  -44.8365 C   0  0  0  0  0  0  0  0  0  0  0  0
   91.2220   96.5630  -44.3046 N   0  0  0  0  0  0  0  0  0  0  0  0
   91.5623   91.8624  -46.9467 C   0  0  0  0  0  0  0  0  0  0  0  0
   90.4877   91.6533  -47.7841 C   0  0  0  0  0  0  0  0  0  0  0  0
   90.4535   90.5810  -48.6648 C   0  0  0  0  0  0  0  0  0  0  0  0
   91.5137   89.6996  -48.7119 C   0  0  0  0  0  0  0  0  0  0  0  0
   92.6041   89.8894  -47.8803 C   0  0  0  0  0  0  0  0  0  0  0  0
   92.5917   90.9664  -47.0237 C   0  0  0  0  0  0  0  0  0  0  0  0
   91.4850   88.3557  -49.8071 Cl  0  0  0  0  0  0  0  0  0  0  0  0
   91.3306   98.1488  -42.3687 C   0  0  0  0  0  0  0  0  0  0  0  0
   88.4416  100.5127  -44.1749 N   0  0  0  0  0  0  0  0  0  0  0  0
   89.7408  100.5604  -44.6876 C   0  0  0  0  0  0  0  0  0  0  0  0
   90.7592  100.1288  -43.6272 C   0  0  0  0  0  0  0  0  0  0  0  0
   90.3446   98.9006  -43.0768 N   0  0  0  0  0  0  0  0  0  0  0  0
   89.0546   98.9189  -42.4996 C   0  0  0  0  0  0  0  0  0  0  0  0
   88.3688  100.2323  -42.8022 C   0  0  0  0  0  0  0  0  0  0  0  0
   87.1300  100.2721  -45.1620 S   0  0  0  0  0  0  0  0  0  0  0  0
   87.5588   99.3982  -46.3366 O   0  0  0  0  0  0  0  0  0  0  0  0
   86.5475  101.5626  -45.6777 O   0  0  0  0  0  0  0  0  0  0  0  0
   85.8779   99.3655  -44.3427 C   0  0  0  0  0  0  0  0  0  0  0  0
   84.7008   99.8528  -43.8609 N   0  0  0  0  0  0  0  0  0  0  0  0
   83.9939   98.8743  -43.2928 C   0  0  0  0  0  0  0  0  0  0  0  0
   84.6729   97.7222  -43.3815 N   0  0  0  0  0  0  0  0  0  0  0  0
   85.8309   98.0289  -44.0278 C   0  0  0  0  0  0  0  0  0  0  0  0
   84.3751   96.7973  -43.0304 H   0  0  0  0  0  0  0  0  0  0  0  0
 25 26  2  0  0  0
 25 27  2  0  0  0
 25 19  1  0  0  0
 25 28  1  0  0  0
 19 20  1  0  0  0
 19 24  1  0  0  0
 20 21  1  0  0  0
 21 22  1  0  0  0
 22 23  1  0  0  0
 22 18  1  0  0  0
 23 24  1  0  0  0
 18  1  1  0  0  0
  1  2  2  0  0  0
  1 10  1  0  0  0
  2  3  1  0  0  0
  3  4  2  0  0  0
  3  5  1  0  0  0
  5  6  1  0  0  0
  5  9  1  0  0  0
  6  7  2  0  0  0
  7  8  1  0  0  0
  7 11  1  0  0  0
  8  9  1  0  0  0
  9 10  2  0  0  0
 11 12  2  0  0  0
 11 16  1  0  0  0
 12 13  1  0  0  0
 13 14  2  0  0  0
 14 15  1  0  0  0
 14 17  1  0  0  0
 15 16  2  0  0  0
 28 29  1  0  0  0
 28 32  2  0  0  0
 29 30  2  0  0  0
 30 31  1  0  0  0
 31 32  1  0  0  0
 31 33  1  0  0  0
M  END
> <minimizedAffinity>
-6.93183

$$$$
2285


 32 35  0  0  0  0  0  0  0  0999 V2000
   85.5101   99.6815  -44.6673 N   0  0  0  0  0  0  0  0  0  0  0  0
   85.9868   99.7928  -46.0136 C   0  0  0  0  0  0  0  0  0  0  0  0
   85.9520   98.4712  -46.8032 C   0  0  0  0  0  0  0  0  0  0  0  0
   86.6988   97.5218  -46.0389 N   0  0  0  0  0  0  0  0  0  0  0  0
   85.9623   97.2469  -44.8365 C   0  0  0  0  0  0  0  0  0  0  0  0
   86.1392   98.4862  -44.0031 C   0  0  0  0  0  0  0  0  0  0  0  0
   86.2598  101.0324  -43.7844 S   0  0  0  0  0  0  0  0  0  0  0  0
   86.1536  102.2553  -44.6757 O   0  0  0  0  0  0  0  0  0  0  0  0
   85.4949  101.2583  -42.5292 O   0  0  0  0  0  0  0  0  0  0  0  0
   87.9187  100.7371  -43.4402 C   0  0  0  0  0  0  0  0  0  0  0  0
   88.7997  100.9850  -44.5014 C   0  0  0  0  0  0  0  0  0  0  0  0
   90.1892  100.8951  -44.3848 C   0  0  0  0  0  0  0  0  0  0  0  0
   90.7214  100.5414  -43.1485 C   0  0  0  0  0  0  0  0  0  0  0  0
   89.8387  100.2936  -42.1132 C   0  0  0  0  0  0  0  0  0  0  0  0
   88.4589  100.3899  -42.2402 C   0  0  0  0  0  0  0  0  0  0  0  0
   92.1016  100.4770  -43.1030 O   0  0  0  0  0  0  0  0  0  0  0  0
   92.8408  101.4855  -43.8434 C   0  0  0  0  0  0  0  0  0  0  0  0
   92.2661  101.7566  -45.1940 C   0  0  0  0  0  0  0  0  0  0  0  0
   91.0281  101.1429  -45.4579 O   0  0  0  0  0  0  0  0  0  0  0  0
   87.4590   96.5690  -46.6940 C   0  0  0  0  0  0  0  0  0  0  0  0
   88.8906   96.5157  -46.3894 C   0  0  0  0  0  0  0  0  0  0  0  0
   89.5898   95.9626  -47.3483 O   0  0  0  0  0  0  0  0  0  0  0  0
   89.6154   96.9382  -45.3122 N   0  0  0  0  0  0  0  0  0  0  0  0
   89.1900   97.3742  -44.4281 H   0  0  0  0  0  0  0  0  0  0  0  0
   91.0767   96.9078  -45.2204 C   0  0  0  0  0  0  0  0  0  0  0  0
   91.4654   96.2377  -43.9630 C   0  0  0  0  0  0  0  0  0  0  0  0
   91.6237   94.8338  -43.9055 C   0  0  0  0  0  0  0  0  0  0  0  0
   91.8402   94.1709  -42.7586 C   0  0  0  0  0  0  0  0  0  0  0  0
   91.9246   94.8791  -41.5190 C   0  0  0  0  0  0  0  0  0  0  0  0
   91.7678   96.2060  -41.5541 C   0  0  0  0  0  0  0  0  0  0  0  0
   91.5370   96.9215  -42.7355 C   0  0  0  0  0  0  0  0  0  0  0  0
   91.5494   93.9244  -45.4352 Cl  0  0  0  0  0  0  0  0  0  0  0  0
  7  8  2  0  0  0
  7  9  2  0  0  0
  7  1  1  0  0  0
  7 10  1  0  0  0
  1  2  1  0  0  0
  1  6  1  0  0  0
  2  3  1  0  0  0
  3  4  1  0  0  0
  4  5  1  0  0  0
  4 20  1  0  0  0
  5  6  1  0  0  0
 20 21  1  0  0  0
 21 22  2  0  0  0
 21 23  1  0  0  0
 23 25  1  0  0  0
 25 26  1  0  0  0
 26 27  2  0  0  0
 26 31  1  0  0  0
 27 28  1  0  0  0
 27 32  1  0  0  0
 28 29  2  0  0  0
 29 30  1  0  0  0
 30 31  2  0  0  0
 10 11  2  0  0  0
 10 15  1  0  0  0
 11 12  1  0  0  0
 12 13  2  0  0  0
 12 19  1  0  0  0
 13 14  1  0  0  0
 13 16  1  0  0  0
 14 15  2  0  0  0
 16 17  1  0  0  0
 17 18  1  0  0  0
 18 19  1  0  0  0
 23 24  1  0  0  0
M  END
> <minimizedAffinity>
-6.10692

$$$$
2286


 31 34  0  0  0  0  0  0  0  0999 V2000
   90.3750   97.6262  -45.9692 N   0  0  0  0  0  0  0  0  0  0  0  0
   89.0495   97.2707  -45.6131 C   0  0  0  0  0  0  0  0  0  0  0  0
   88.4701   98.0912  -44.4914 C   0  0  0  0  0  0  0  0  0  0  0  0
   88.8465   99.4860  -44.5833 N   0  0  0  0  0  0  0  0  0  0  0  0
   89.4638   99.9010  -45.8287 C   0  0  0  0  0  0  0  0  0  0  0  0
   90.6181   99.0049  -46.2043 C   0  0  0  0  0  0  0  0  0  0  0  0
   88.6070  100.3439  -43.5027 C   0  0  0  0  0  0  0  0  0  0  0  0
   88.0659   99.8863  -42.4682 O   0  0  0  0  0  0  0  0  0  0  0  0
   91.5984   96.8401  -45.0674 S   0  0  0  0  0  0  0  0  0  0  0  0
   91.4130   97.1452  -43.6127 O   0  0  0  0  0  0  0  0  0  0  0  0
   92.9640   97.3111  -45.4720 O   0  0  0  0  0  0  0  0  0  0  0  0
   91.5728   95.0874  -45.3246 C   0  0  0  0  0  0  0  0  0  0  0  0
   91.0636   94.2226  -46.6955 S   0  0  0  0  0  0  0  0  0  0  0  0
   91.3521   92.6391  -46.1468 C   0  0  0  0  0  0  0  0  0  0  0  0
   91.8477   92.8270  -44.8842 C   0  0  0  0  0  0  0  0  0  0  0  0
   91.9630   94.1047  -44.4561 C   0  0  0  0  0  0  0  0  0  0  0  0
   91.0867   91.0922  -46.9796 Cl  0  0  0  0  0  0  0  0  0  0  0  0
   88.9694  101.7844  -43.5339 C   0  0  0  0  0  0  0  0  0  0  0  0
   90.0161  102.0998  -42.6018 N   0  0  0  0  0  0  0  0  0  0  0  0
   89.9682  103.1718  -41.6726 C   0  0  0  0  0  0  0  0  0  0  0  0
   88.9917  103.9858  -41.5522 O   0  0  0  0  0  0  0  0  0  0  0  0
   91.1492  103.2347  -40.8835 N   0  0  0  0  0  0  0  0  0  0  0  0
   92.0949  102.3044  -41.4714 C   0  0  0  0  0  0  0  0  0  0  0  0
   92.7127  101.3967  -40.4475 C   0  0  0  0  0  0  0  0  0  0  0  0
   93.9046  101.9878  -39.7544 C   0  0  0  0  0  0  0  0  0  0  0  0
   94.9274  102.5582  -40.6924 C   0  0  0  0  0  0  0  0  0  0  0  0
   94.4847  102.4973  -42.1379 C   0  0  0  0  0  0  0  0  0  0  0  0
   93.1119  103.1260  -42.2274 C   0  0  0  0  0  0  0  0  0  0  0  0
   91.2719  101.4710  -42.3832 C   0  0  0  0  0  0  0  0  0  0  0  0
   91.5981  100.3771  -42.9018 O   0  0  0  0  0  0  0  0  0  0  0  0
   91.3457  104.0825  -39.7081 C   0  0  0  0  0  0  0  0  0  0  0  0
  9 10  2  0  0  0
  9 11  2  0  0  0
  9  1  1  0  0  0
  9 12  1  0  0  0
  1  2  1  0  0  0
  1  6  1  0  0  0
  2  3  1  0  0  0
  3  4  1  0  0  0
  4  5  1  0  0  0
  4  7  1  0  0  0
  5  6  1  0  0  0
  7  8  2  0  0  0
  7 18  1  0  0  0
 18 19  1  0  0  0
 19 20  1  0  0  0
 19 29  1  0  0  0
 20 21  2  0  0  0
 20 22  1  0  0  0
 22 23  1  0  0  0
 22 31  1  0  0  0
 23 24  1  0  0  0
 23 28  1  0  0  0
 23 29  1  0  0  0
 24 25  1  0  0  0
 25 26  1  0  0  0
 26 27  1  0  0  0
 27 28  1  0  0  0
 29 30  2  0  0  0
 12 13  1  0  0  0
 12 16  2  0  0  0
 13 14  1  0  0  0
 14 15  2  0  0  0
 14 17  1  0  0  0
 15 16  1  0  0  0
M  END
> <minimizedAffinity>
-6.27916

$$$$
2298


 34 37  0  0  0  0  0  0  0  0999 V2000
   86.9307   98.4126  -43.9297 C   0  0  0  0  0  0  0  0  0  0  0  0
   87.2794   97.5669  -47.3194 N   0  0  0  0  0  0  0  0  0  0  0  0
   87.2914   98.9442  -47.3909 C   0  0  0  0  0  0  0  0  0  0  0  0
   87.2481   99.5501  -46.0140 C   0  0  0  0  0  0  0  0  0  0  0  0
   86.3271   98.9612  -45.1092 N   0  0  0  0  0  0  0  0  0  0  0  0
   85.4708   98.0265  -45.7661 C   0  0  0  0  0  0  0  0  0  0  0  0
   86.2995   96.9832  -46.5096 C   0  0  0  0  0  0  0  0  0  0  0  0
   88.3566   96.5960  -48.1316 S   0  0  0  0  0  0  0  0  0  0  0  0
   87.7077   95.4438  -48.8586 O   0  0  0  0  0  0  0  0  0  0  0  0
   89.1779   97.3196  -49.1751 O   0  0  0  0  0  0  0  0  0  0  0  0
   89.4823   95.8668  -46.9903 C   0  0  0  0  0  0  0  0  0  0  0  0
   89.9578   94.5980  -47.1744 C   0  0  0  0  0  0  0  0  0  0  0  0
   90.8338   94.0263  -46.2895 C   0  0  0  0  0  0  0  0  0  0  0  0
   91.2394   94.7515  -45.1906 C   0  0  0  0  0  0  0  0  0  0  0  0
   90.7604   96.0340  -45.0012 C   0  0  0  0  0  0  0  0  0  0  0  0
   89.8843   96.5965  -45.8941 C   0  0  0  0  0  0  0  0  0  0  0  0
   92.3615   93.9914  -44.0760 Cl  0  0  0  0  0  0  0  0  0  0  0  0
   87.8926   99.3858  -43.3108 C   0  0  0  0  0  0  0  0  0  0  0  0
   87.4150  100.4600  -42.8852 O   0  0  0  0  0  0  0  0  0  0  0  0
   89.2767   99.0952  -43.2152 N   0  0  0  0  0  0  0  0  0  0  0  0
   89.6139   98.1692  -43.5918 H   0  0  0  0  0  0  0  0  0  0  0  0
   90.1220  100.0830  -42.6099 C   0  0  0  0  0  0  0  0  0  0  0  0
   91.4520  100.2879  -43.2264 C   0  0  0  0  0  0  0  0  0  0  0  0
   91.2976  101.0740  -44.5053 C   0  0  0  0  0  0  0  0  0  0  0  0
   91.1257  100.1645  -45.7262 C   0  0  0  0  0  0  0  0  0  0  0  0
   92.4079   99.4020  -45.9947 C   0  0  0  0  0  0  0  0  0  0  0  0
   93.0754   99.1541  -44.6544 C   0  0  0  0  0  0  0  0  0  0  0  0
   91.9537   98.8994  -43.6697 C   0  0  0  0  0  0  0  0  0  0  0  0
   92.4770  100.8418  -42.4284 N   0  0  0  0  0  0  0  0  0  0  0  0
   92.8079  102.2108  -42.6076 C   0  0  0  0  0  0  0  0  0  0  0  0
   94.1931  102.3987  -41.9619 C   0  0  0  0  0  0  0  0  0  0  0  0
   94.1229  102.1456  -40.6131 O   0  0  0  0  0  0  0  0  0  0  0  0
   92.8845  101.7520  -40.1726 C   0  0  0  0  0  0  0  0  0  0  0  0
   92.3138  100.6069  -41.0100 C   0  0  0  0  0  0  0  0  0  0  0  0
  8  9  2  0  0  0
  8 10  2  0  0  0
  8  2  1  0  0  0
  8 11  1  0  0  0
  2  3  1  0  0  0
  2  7  1  0  0  0
  3  4  1  0  0  0
  4  5  1  0  0  0
  5  6  1  0  0  0
  5  1  1  0  0  0
  6  7  1  0  0  0
  1 18  1  0  0  0
 18 19  2  0  0  0
 18 20  1  0  0  0
 20 22  1  0  0  0
 22 23  1  0  0  0
 23 24  1  0  0  0
 23 28  1  0  0  0
 23 29  1  0  0  0
 24 25  1  0  0  0
 25 26  1  0  0  0
 26 27  1  0  0  0
 27 28  1  0  0  0
 29 30  1  0  0  0
 29 34  1  0  0  0
 30 31  1  0  0  0
 31 32  1  0  0  0
 32 33  1  0  0  0
 33 34  1  0  0  0
 11 12  2  0  0  0
 11 16  1  0  0  0
 12 13  1  0  0  0
 13 14  2  0  0  0
 14 15  1  0  0  0
 14 17  1  0  0  0
 15 16  2  0  0  0
 20 21  1  0  0  0
M  END
> <minimizedAffinity>
-5.48405

$$$$
2301


 24 27  0  0  0  0  0  0  0  0999 V2000
   92.0612   99.0189  -43.7945 C   0  0  0  0  0  0  0  0  0  0  0  0
   91.7884   98.3343  -45.0929 C   0  0  0  0  0  0  0  0  0  0  0  0
   90.6073   97.3584  -44.9501 C   0  0  0  0  0  0  0  0  0  0  0  0
   91.1286   96.3558  -44.0097 N   0  0  0  0  0  0  0  0  0  0  0  0
   91.3693   96.8493  -42.6906 C   0  0  0  0  0  0  0  0  0  0  0  0
   92.2219   98.0840  -42.6549 C   0  0  0  0  0  0  0  0  0  0  0  0
   93.3003   99.6871  -43.9683 O   0  0  0  0  0  0  0  0  0  0  0  0
   94.0205   99.0086  -43.7830 H   0  0  0  0  0  0  0  0  0  0  0  0
   91.3429   95.0347  -44.4710 C   0  0  0  0  0  0  0  0  0  0  0  0
   90.8863   94.6731  -45.6823 N   0  0  0  0  0  0  0  0  0  0  0  0
   91.0322   93.4808  -46.2261 N   0  0  0  0  0  0  0  0  0  0  0  0
   90.6743   92.9192  -47.3840 N   0  0  0  0  0  0  0  0  0  0  0  0
   91.0756   91.6689  -47.4353 N   0  0  0  0  0  0  0  0  0  0  0  0
   91.6967   91.4117  -46.3169 N   0  0  0  0  0  0  0  0  0  0  0  0
   91.6777   92.5309  -45.5520 C   0  0  0  0  0  0  0  0  0  0  0  0
   92.1775   92.8292  -44.2959 C   0  0  0  0  0  0  0  0  0  0  0  0
   92.0149   94.0817  -43.7426 C   0  0  0  0  0  0  0  0  0  0  0  0
   88.1813  103.6125  -43.3193 Cl  0  0  0  0  0  0  0  0  0  0  0  0
   89.2962  102.2672  -43.4426 C   0  0  0  0  0  0  0  0  0  0  0  0
   89.3753  101.2814  -42.4680 C   0  0  0  0  0  0  0  0  0  0  0  0
   90.2382  100.2224  -42.5259 C   0  0  0  0  0  0  0  0  0  0  0  0
   91.0820  100.0993  -43.5919 C   0  0  0  0  0  0  0  0  0  0  0  0
   91.0251  101.0722  -44.5886 C   0  0  0  0  0  0  0  0  0  0  0  0
   90.1468  102.1358  -44.5116 C   0  0  0  0  0  0  0  0  0  0  0  0
 18 19  1  0  0  0
 19 20  2  0  0  0
 19 24  1  0  0  0
 20 21  1  0  0  0
 21 22  2  0  0  0
 22 23  1  0  0  0
 22  1  1  0  0  0
 23 24  2  0  0  0
  1  2  1  0  0  0
  1  6  1  0  0  0
  1  7  1  0  0  0
  2  3  1  0  0  0
  3  4  1  0  0  0
  4  5  1  0  0  0
  4  9  1  0  0  0
  5  6  1  0  0  0
  9 10  2  0  0  0
  9 17  1  0  0  0
 10 11  1  0  0  0
 11 12  1  0  0  0
 11 15  1  0  0  0
 12 13  2  0  0  0
 13 14  1  0  0  0
 14 15  2  0  0  0
 15 16  1  0  0  0
 16 17  2  0  0  0
  7  8  1  0  0  0
M  END
> <minimizedAffinity>
-6.18229

$$$$
2304


 28 31  0  0  0  0  0  0  0  0999 V2000
   92.2609   98.6359  -44.1299 N   0  0  0  0  0  0  0  0  0  0  0  0
   92.2455   99.8750  -43.4498 C   0  0  0  0  0  0  0  0  0  0  0  0
   92.8082  101.0346  -44.2289 C   0  0  0  0  0  0  0  0  0  0  0  0
   92.3905  101.0473  -45.6028 N   0  0  0  0  0  0  0  0  0  0  0  0
   91.7490   99.8569  -46.1020 C   0  0  0  0  0  0  0  0  0  0  0  0
   92.5176   98.6704  -45.5269 C   0  0  0  0  0  0  0  0  0  0  0  0
   92.6171  102.1825  -46.3984 C   0  0  0  0  0  0  0  0  0  0  0  0
   93.2008  103.1624  -45.8545 O   0  0  0  0  0  0  0  0  0  0  0  0
   92.2148  102.2987  -47.8271 C   0  0  0  0  0  0  0  0  0  0  0  0
   93.2585  101.9085  -48.7021 N   0  0  0  0  0  0  0  0  0  0  0  0
   94.1591  102.9342  -49.1173 C   0  0  0  0  0  0  0  0  0  0  0  0
   93.1114  104.4036  -49.1301 S   0  0  0  0  0  0  0  0  0  0  0  0
   91.7242  103.6728  -48.1738 C   0  0  0  0  0  0  0  0  0  0  0  0
   94.4359  102.5705  -50.5635 C   0  0  0  0  0  0  0  0  0  0  0  0
   94.7088  101.0712  -50.3844 C   0  0  0  0  0  0  0  0  0  0  0  0
   93.7392  100.7098  -49.3536 C   0  0  0  0  0  0  0  0  0  0  0  0
   93.3978   99.5155  -49.0996 O   0  0  0  0  0  0  0  0  0  0  0  0
   95.3962  103.0818  -48.3248 C   0  0  0  0  0  0  0  0  0  0  0  0
   91.1081   97.4997  -43.6206 S   0  0  0  0  0  0  0  0  0  0  0  0
   91.2712   97.1845  -42.1669 O   0  0  0  0  0  0  0  0  0  0  0  0
   89.7372   98.1094  -43.7800 O   0  0  0  0  0  0  0  0  0  0  0  0
   91.1179   96.0281  -44.5881 C   0  0  0  0  0  0  0  0  0  0  0  0
   91.8093   94.9159  -44.1622 C   0  0  0  0  0  0  0  0  0  0  0  0
   91.8386   93.7520  -44.8940 C   0  0  0  0  0  0  0  0  0  0  0  0
   91.1697   93.6446  -46.1000 C   0  0  0  0  0  0  0  0  0  0  0  0
   90.4841   94.7790  -46.5013 C   0  0  0  0  0  0  0  0  0  0  0  0
   90.4456   95.9469  -45.7811 C   0  0  0  0  0  0  0  0  0  0  0  0
   91.1860   92.1785  -47.0576 Cl  0  0  0  0  0  0  0  0  0  0  0  0
 19 20  2  0  0  0
 19 21  2  0  0  0
 19  1  1  0  0  0
 19 22  1  0  0  0
  1  2  1  0  0  0
  1  6  1  0  0  0
  2  3  1  0  0  0
  3  4  1  0  0  0
  4  5  1  0  0  0
  4  7  1  0  0  0
  5  6  1  0  0  0
  7  8  2  0  0  0
  7  9  1  0  0  0
  9 10  1  0  0  0
  9 13  1  0  0  0
 10 11  1  0  0  0
 10 16  1  0  0  0
 11 12  1  0  0  0
 11 14  1  0  0  0
 11 18  1  0  0  0
 12 13  1  0  0  0
 14 15  1  0  0  0
 15 16  1  0  0  0
 16 17  2  0  0  0
 22 23  2  0  0  0
 22 27  1  0  0  0
 23 24  1  0  0  0
 24 25  2  0  0  0
 25 26  1  0  0  0
 25 28  1  0  0  0
 26 27  2  0  0  0
M  END
> <minimizedAffinity>
-5.91706

$$$$
2319


 33 36  0  0  0  0  0  0  0  0999 V2000
   90.1420   99.0608  -46.2369 N   0  0  0  0  0  0  0  0  0  0  0  0
   91.0676   99.9379  -46.8449 C   0  0  0  0  0  0  0  0  0  0  0  0
   92.0831   99.4898  -47.4164 O   0  0  0  0  0  0  0  0  0  0  0  0
   89.2754   99.3639  -45.7435 H   0  0  0  0  0  0  0  0  0  0  0  0
   92.5016   93.6065  -41.7387 Br  0  0  0  0  0  0  0  0  0  0  0  0
   91.9202   94.0155  -43.5159 C   0  0  0  0  0  0  0  0  0  0  0  0
   91.5567   95.2949  -43.8834 C   0  0  0  0  0  0  0  0  0  0  0  0
   91.1368   95.6030  -45.1662 C   0  0  0  0  0  0  0  0  0  0  0  0
   91.0981   94.5610  -46.0669 C   0  0  0  0  0  0  0  0  0  0  0  0
   91.4519   93.2720  -45.7374 C   0  0  0  0  0  0  0  0  0  0  0  0
   91.8704   92.9803  -44.4495 C   0  0  0  0  0  0  0  0  0  0  0  0
   91.3762   91.8714  -47.0361 Br  0  0  0  0  0  0  0  0  0  0  0  0
   90.8178   97.0178  -45.2868 C   0  0  0  0  0  0  0  0  0  0  0  0
   90.4020   97.6883  -46.2949 N   0  0  0  0  0  0  0  0  0  0  0  0
   91.0715   97.5949  -43.9622 C   0  0  0  0  0  0  0  0  0  0  0  0
   90.9039   98.8122  -43.6827 O   0  0  0  0  0  0  0  0  0  0  0  0
   91.5127   96.5190  -43.1581 N   0  0  0  0  0  0  0  0  0  0  0  0
   91.7728   96.6075  -42.1612 H   0  0  0  0  0  0  0  0  0  0  0  0
   90.8860  101.4240  -46.8377 C   0  0  0  0  0  0  0  0  0  0  0  0
   90.9688  101.9693  -45.5107 N   0  0  0  0  0  0  0  0  0  0  0  0
   89.8431  102.0796  -44.6498 C   0  0  0  0  0  0  0  0  0  0  0  0
   88.7341  101.6831  -45.0695 O   0  0  0  0  0  0  0  0  0  0  0  0
   91.8778  102.3112  -45.1193 H   0  0  0  0  0  0  0  0  0  0  0  0
   89.9130  102.6466  -43.2697 C   0  0  0  0  0  0  0  0  0  0  0  0
   91.1807  103.1555  -42.9781 O   0  0  0  0  0  0  0  0  0  0  0  0
   92.0789  102.5877  -42.0771 C   0  0  0  0  0  0  0  0  0  0  0  0
   91.5669  101.7071  -41.1612 C   0  0  0  0  0  0  0  0  0  0  0  0
   92.4433  101.1240  -40.2458 C   0  0  0  0  0  0  0  0  0  0  0  0
   93.7910  101.4025  -40.2324 C   0  0  0  0  0  0  0  0  0  0  0  0
   94.2707  102.2954  -41.1709 C   0  0  0  0  0  0  0  0  0  0  0  0
   93.4115  102.8732  -42.0760 C   0  0  0  0  0  0  0  0  0  0  0  0
   90.2290  101.4239  -41.1659 O   0  0  0  0  0  0  0  0  0  0  0  0
   89.3782  101.7136  -42.2406 C   0  0  0  0  0  0  0  0  0  0  0  0
  5  6  1  0  0  0
  6  7  2  0  0  0
  6 11  1  0  0  0
  7  8  1  0  0  0
  7 17  1  0  0  0
  8  9  2  0  0  0
  8 13  1  0  0  0
  9 10  1  0  0  0
 10 11  2  0  0  0
 10 12  1  0  0  0
 13 14  2  0  0  0
 13 15  1  0  0  0
 14  1  1  0  0  0
  1  2  1  0  0  0
  2  3  2  0  0  0
  2 19  1  0  0  0
 19 20  1  0  0  0
 20 21  1  0  0  0
 21 22  2  0  0  0
 21 24  1  0  0  0
 24 25  1  0  0  0
 24 33  1  0  0  0
 25 26  1  0  0  0
 26 27  2  0  0  0
 26 31  1  0  0  0
 27 28  1  0  0  0
 27 32  1  0  0  0
 28 29  2  0  0  0
 29 30  1  0  0  0
 30 31  2  0  0  0
 32 33  1  0  0  0
 15 16  2  0  0  0
 15 17  1  0  0  0
  1  4  1  0  0  0
 20 23  1  0  0  0
 17 18  1  0  0  0
M  END
> <minimizedAffinity>
-7.05919

$$$$
2330


 28 31  0  0  0  0  0  0  0  0999 V2000
   92.4835  100.9571  -43.2447 C   0  0  0  0  0  0  0  0  0  0  0  0
   92.1984  101.7526  -44.1690 O   0  0  0  0  0  0  0  0  0  0  0  0
   92.6982   99.6103  -43.5428 N   0  0  0  0  0  0  0  0  0  0  0  0
   92.9490   99.0138  -42.6753 H   0  0  0  0  0  0  0  0  0  0  0  0
   89.9536  100.9502  -41.6539 Cl  0  0  0  0  0  0  0  0  0  0  0  0
   91.4804  101.5699  -41.0429 C   0  0  0  0  0  0  0  0  0  0  0  0
   92.5737  101.5130  -41.8820 C   0  0  0  0  0  0  0  0  0  0  0  0
   93.7616  102.0043  -41.3840 C   0  0  0  0  0  0  0  0  0  0  0  0
   93.9129  102.5337  -40.1290 C   0  0  0  0  0  0  0  0  0  0  0  0
   92.7743  102.5694  -39.3165 C   0  0  0  0  0  0  0  0  0  0  0  0
   91.5660  102.0957  -39.7559 C   0  0  0  0  0  0  0  0  0  0  0  0
   95.1775  103.0480  -39.6231 C   0  0  0  0  0  0  0  0  0  0  0  0
   96.3315  103.2488  -40.2661 N   0  0  0  0  0  0  0  0  0  0  0  0
   97.2333  103.7400  -39.4008 N   0  0  0  0  0  0  0  0  0  0  0  0
   96.6535  103.8487  -38.2185 N   0  0  0  0  0  0  0  0  0  0  0  0
   95.3945  103.4264  -38.3538 N   0  0  0  0  0  0  0  0  0  0  0  0
   98.2261  103.9975  -39.6055 H   0  0  0  0  0  0  0  0  0  0  0  0
   92.6431   98.9099  -44.7603 C   0  0  0  0  0  0  0  0  0  0  0  0
   91.5014   98.0466  -45.0885 C   0  0  0  0  0  0  0  0  0  0  0  0
   91.6016   96.6050  -44.8775 C   0  0  0  0  0  0  0  0  0  0  0  0
   91.6544   95.9501  -43.7128 N   0  0  0  0  0  0  0  0  0  0  0  0
   91.6977   94.6520  -43.9669 C   0  0  0  0  0  0  0  0  0  0  0  0
   91.6723   94.4963  -45.2971 N   0  0  0  0  0  0  0  0  0  0  0  0
   91.6141   95.6800  -45.8440 N   0  0  0  0  0  0  0  0  0  0  0  0
   91.7573   93.7030  -42.9687 C   0  0  0  0  0  0  0  0  0  0  0  0
   91.7712   94.1559  -41.6622 C   0  0  0  0  0  0  0  0  0  0  0  0
   91.7265   95.4999  -41.4093 C   0  0  0  0  0  0  0  0  0  0  0  0
   91.6673   96.3914  -42.4396 C   0  0  0  0  0  0  0  0  0  0  0  0
  5  6  1  0  0  0
  6  7  2  0  0  0
  6 11  1  0  0  0
  7  8  1  0  0  0
  7  1  1  0  0  0
  8  9  2  0  0  0
  9 10  1  0  0  0
  9 12  1  0  0  0
 10 11  2  0  0  0
 12 13  2  0  0  0
 12 16  1  0  0  0
 13 14  1  0  0  0
 14 15  1  0  0  0
 15 16  2  0  0  0
  1  2  2  0  0  0
  1  3  1  0  0  0
  3 18  1  0  0  0
 18 19  1  0  0  0
 19 20  1  0  0  0
 20 21  1  0  0  0
 20 24  2  0  0  0
 21 22  1  0  0  0
 21 28  1  0  0  0
 22 23  2  0  0  0
 22 25  1  0  0  0
 23 24  1  0  0  0
 25 26  2  0  0  0
 26 27  1  0  0  0
 27 28  2  0  0  0
 14 17  1  0  0  0
  3  4  1  0  0  0
M  END
> <minimizedAffinity>
-7.10653

$$$$
2334


 30 33  0  0  0  0  0  0  0  0999 V2000
   91.2748   97.4902  -45.2282 S   0  0  0  0  0  0  0  0  0  0  0  0
   90.2774   97.5766  -46.3859 O   0  0  0  0  0  0  0  0  0  0  0  0
   92.5974   97.9639  -45.8422 O   0  0  0  0  0  0  0  0  0  0  0  0
   91.4705   95.8576  -44.7477 C   0  0  0  0  0  0  0  0  0  0  0  0
   91.6244   95.4831  -43.4354 C   0  0  0  0  0  0  0  0  0  0  0  0
   91.7125   94.1392  -43.1041 C   0  0  0  0  0  0  0  0  0  0  0  0
   91.6509   93.1429  -44.0823 C   0  0  0  0  0  0  0  0  0  0  0  0
   91.4997   93.5045  -45.4022 C   0  0  0  0  0  0  0  0  0  0  0  0
   91.4137   94.8417  -45.7102 C   0  0  0  0  0  0  0  0  0  0  0  0
   91.8010   96.6263  -42.1213 Cl  0  0  0  0  0  0  0  0  0  0  0  0
   91.4344   92.4866  -46.4422 C   0  0  0  0  0  0  0  0  0  0  0  0
   92.1107   91.3256  -46.4584 N   0  0  0  0  0  0  0  0  0  0  0  0
   91.8153   90.6546  -47.5374 O   0  0  0  0  0  0  0  0  0  0  0  0
   90.9563   91.3409  -48.2431 C   0  0  0  0  0  0  0  0  0  0  0  0
   90.7109   92.4832  -47.5734 N   0  0  0  0  0  0  0  0  0  0  0  0
   90.3476   90.9431  -49.5599 C   0  0  0  0  0  0  0  0  0  0  0  0
   90.7490   98.5944  -44.0556 N   0  0  0  0  0  0  0  0  0  0  0  0
   91.0167   99.9661  -44.3046 C   0  0  0  0  0  0  0  0  0  0  0  0
   90.4861  100.8835  -43.2276 C   0  0  0  0  0  0  0  0  0  0  0  0
   89.0256  100.6643  -43.0301 C   0  0  0  0  0  0  0  0  0  0  0  0
   88.6963   99.1918  -42.8549 C   0  0  0  0  0  0  0  0  0  0  0  0
   89.2821   98.4286  -43.9910 C   0  0  0  0  0  0  0  0  0  0  0  0
   91.2902  100.8903  -41.9890 C   0  0  0  0  0  0  0  0  0  0  0  0
   92.0967   99.8967  -41.8578 O   0  0  0  0  0  0  0  0  0  0  0  0
   91.2723  101.8358  -40.9732 N   0  0  0  0  0  0  0  0  0  0  0  0
   92.1363  101.7396  -39.8385 C   0  0  0  0  0  0  0  0  0  0  0  0
   92.6299  103.0690  -39.3394 C   0  0  0  0  0  0  0  0  0  0  0  0
   91.8482  104.1382  -39.6473 O   0  0  0  0  0  0  0  0  0  0  0  0
   91.3142  104.1727  -40.9186 C   0  0  0  0  0  0  0  0  0  0  0  0
   90.3700  102.9611  -40.9956 C   0  0  0  0  0  0  0  0  0  0  0  0
  1  2  2  0  0  0
  1  3  2  0  0  0
  1 17  1  0  0  0
  1  4  1  0  0  0
 17 18  1  0  0  0
 17 22  1  0  0  0
 18 19  1  0  0  0
 19 20  1  0  0  0
 19 23  1  0  0  0
 20 21  1  0  0  0
 21 22  1  0  0  0
 23 24  2  0  0  0
 23 25  1  0  0  0
 25 26  1  0  0  0
 25 30  1  0  0  0
 26 27  1  0  0  0
 27 28  1  0  0  0
 28 29  1  0  0  0
 29 30  1  0  0  0
  4  5  2  0  0  0
  4  9  1  0  0  0
  5  6  1  0  0  0
  5 10  1  0  0  0
  6  7  2  0  0  0
  7  8  1  0  0  0
  8  9  2  0  0  0
  8 11  1  0  0  0
 11 12  2  0  0  0
 11 15  1  0  0  0
 12 13  1  0  0  0
 13 14  1  0  0  0
 14 15  2  0  0  0
 14 16  1  0  0  0
M  END
> <minimizedAffinity>
-7.72227

$$$$
2335


 35 38  0  0  0  0  0  0  0  0999 V2000
   89.7358   99.1393  -44.9566 N   0  0  0  0  0  0  0  0  0  0  0  0
   90.8044  100.0454  -45.1054 C   0  0  0  0  0  0  0  0  0  0  0  0
   91.8422   99.9448  -44.0085 C   0  0  0  0  0  0  0  0  0  0  0  0
   91.3138   99.4523  -42.7160 C   0  0  0  0  0  0  0  0  0  0  0  0
   89.8405   99.4835  -42.5321 C   0  0  0  0  0  0  0  0  0  0  0  0
   89.0234   99.1570  -43.7562 C   0  0  0  0  0  0  0  0  0  0  0  0
   92.5372  101.2432  -43.8155 C   0  0  0  0  0  0  0  0  0  0  0  0
   92.0939  102.2454  -44.4279 O   0  0  0  0  0  0  0  0  0  0  0  0
   93.6871  101.3356  -42.9447 N   0  0  0  0  0  0  0  0  0  0  0  0
   93.9713  100.4584  -42.5016 H   0  0  0  0  0  0  0  0  0  0  0  0
   94.2991  102.6066  -42.8061 C   0  0  0  0  0  0  0  0  0  0  0  0
   94.2308  103.2982  -41.4977 C   0  0  0  0  0  0  0  0  0  0  0  0
   94.8829  102.7272  -40.3785 N   0  0  0  0  0  0  0  0  0  0  0  0
   94.1159  102.0400  -39.4454 C   0  0  0  0  0  0  0  0  0  0  0  0
   94.0286  102.6407  -38.0721 C   0  0  0  0  0  0  0  0  0  0  0  0
   95.2350  103.1767  -37.6467 O   0  0  0  0  0  0  0  0  0  0  0  0
   95.5337  104.2205  -38.5220 C   0  0  0  0  0  0  0  0  0  0  0  0
   95.9100  103.5902  -39.8431 C   0  0  0  0  0  0  0  0  0  0  0  0
   89.4002   98.0441  -46.1608 S   0  0  0  0  0  0  0  0  0  0  0  0
   89.8347   98.6407  -47.4984 O   0  0  0  0  0  0  0  0  0  0  0  0
   87.8872   97.9277  -46.2992 O   0  0  0  0  0  0  0  0  0  0  0  0
   90.0498   96.4570  -45.9750 C   0  0  0  0  0  0  0  0  0  0  0  0
   90.7917   96.1341  -44.8490 C   0  0  0  0  0  0  0  0  0  0  0  0
   91.3191   94.8817  -44.6466 C   0  0  0  0  0  0  0  0  0  0  0  0
   91.1011   93.8932  -45.6136 C   0  0  0  0  0  0  0  0  0  0  0  0
   90.3746   94.2190  -46.7115 C   0  0  0  0  0  0  0  0  0  0  0  0
   89.8431   95.4819  -46.9135 C   0  0  0  0  0  0  0  0  0  0  0  0
   88.8292   95.8292  -48.5186 Br  0  0  0  0  0  0  0  0  0  0  0  0
   91.7525   92.6186  -45.2067 C   0  0  0  0  0  0  0  0  0  0  0  0
   92.7913   93.1095  -44.2191 C   0  0  0  0  0  0  0  0  0  0  0  0
   92.0879   94.2547  -43.6298 N   0  0  0  0  0  0  0  0  0  0  0  0
   92.1975   94.6115  -42.2873 C   0  0  0  0  0  0  0  0  0  0  0  0
   92.9054   93.8962  -41.4974 O   0  0  0  0  0  0  0  0  0  0  0  0
   91.5436   95.7759  -41.6938 C   0  0  0  0  0  0  0  0  0  0  0  0
   92.4690   96.5276  -40.7400 C   0  0  0  0  0  0  0  0  0  0  0  0
 19 20  2  0  0  0
 19 21  2  0  0  0
 19  1  1  0  0  0
 19 22  1  0  0  0
  1  2  1  0  0  0
  1  6  1  0  0  0
  2  3  1  0  0  0
  3  4  1  0  0  0
  3  7  1  0  0  0
  4  5  1  0  0  0
  5  6  1  0  0  0
  7  8  2  0  0  0
  7  9  1  0  0  0
  9 11  1  0  0  0
 11 12  1  0  0  0
 12 13  1  0  0  0
 13 14  1  0  0  0
 13 18  1  0  0  0
 14 15  1  0  0  0
 15 16  1  0  0  0
 16 17  1  0  0  0
 17 18  1  0  0  0
 22 23  2  0  0  0
 22 27  1  0  0  0
 23 24  1  0  0  0
 24 25  2  0  0  0
 24 31  1  0  0  0
 25 26  1  0  0  0
 25 29  1  0  0  0
 26 27  2  0  0  0
 27 28  1  0  0  0
 29 30  1  0  0  0
 30 31  1  0  0  0
 31 32  1  0  0  0
 32 33  2  0  0  0
 32 34  1  0  0  0
 34 35  1  0  0  0
  9 10  1  0  0  0
M  END
> <minimizedAffinity>
-6.79508

$$$$
2345


 27 30  0  0  0  0  0  0  0  0999 V2000
   91.6710  101.1528  -43.6296 C   0  0  0  0  0  0  0  0  0  0  0  0
   90.5583  101.7583  -43.3997 O   0  0  0  0  0  0  0  0  0  0  0  0
   91.5841   99.9498  -44.3381 N   0  0  0  0  0  0  0  0  0  0  0  0
   90.2896   99.4405  -44.7613 C   0  0  0  0  0  0  0  0  0  0  0  0
   90.0601   98.0370  -44.2094 C   0  0  0  0  0  0  0  0  0  0  0  0
   91.3116   97.3397  -44.1740 N   0  0  0  0  0  0  0  0  0  0  0  0
   92.3402   97.7253  -45.0914 C   0  0  0  0  0  0  0  0  0  0  0  0
   92.7397   99.1585  -44.6885 C   0  0  0  0  0  0  0  0  0  0  0  0
   93.0470  102.7669  -40.9650 N   0  0  0  0  0  0  0  0  0  0  0  0
   93.2069  101.5072  -41.6811 C   0  0  0  0  0  0  0  0  0  0  0  0
   92.8898  101.7944  -43.1222 C   0  0  0  0  0  0  0  0  0  0  0  0
   92.9671  103.2737  -43.3027 C   0  0  0  0  0  0  0  0  0  0  0  0
   93.2762  103.7965  -41.9514 C   0  0  0  0  0  0  0  0  0  0  0  0
   93.6842  104.9519  -41.6020 O   0  0  0  0  0  0  0  0  0  0  0  0
   91.7585  103.6121  -35.1686 Cl  0  0  0  0  0  0  0  0  0  0  0  0
   92.1314  103.3621  -36.8738 C   0  0  0  0  0  0  0  0  0  0  0  0
   91.1320  103.2995  -37.8081 C   0  0  0  0  0  0  0  0  0  0  0  0
   91.4383  103.1032  -39.1421 C   0  0  0  0  0  0  0  0  0  0  0  0
   92.7344  102.9649  -39.5898 C   0  0  0  0  0  0  0  0  0  0  0  0
   93.7300  103.0310  -38.6383 C   0  0  0  0  0  0  0  0  0  0  0  0
   93.4293  103.2290  -37.2830 C   0  0  0  0  0  0  0  0  0  0  0  0
   91.5351   96.2974  -43.2492 C   0  0  0  0  0  0  0  0  0  0  0  0
   91.6127   94.9663  -43.5258 N   0  0  0  0  0  0  0  0  0  0  0  0
   91.8410   94.2977  -42.3875 C   0  0  0  0  0  0  0  0  0  0  0  0
   91.9103   95.2089  -41.3604 C   0  0  0  0  0  0  0  0  0  0  0  0
   91.7221   96.3919  -41.9180 N   0  0  0  0  0  0  0  0  0  0  0  0
   91.4661   94.3640  -44.8575 C   0  0  0  0  0  0  0  0  0  0  0  0
 15 16  1  0  0  0
 16 17  2  0  0  0
 16 21  1  0  0  0
 17 18  1  0  0  0
 18 19  2  0  0  0
 19 20  1  0  0  0
 19  9  1  0  0  0
 20 21  2  0  0  0
  9 10  1  0  0  0
  9 13  1  0  0  0
 10 11  1  0  0  0
 11 12  1  0  0  0
 11  1  1  0  0  0
 12 13  1  0  0  0
 13 14  2  0  0  0
  1  2  2  0  0  0
  1  3  1  0  0  0
  3  4  1  0  0  0
  3  8  1  0  0  0
  4  5  1  0  0  0
  5  6  1  0  0  0
  6  7  1  0  0  0
  6 22  1  0  0  0
  7  8  1  0  0  0
 22 23  1  0  0  0
 22 26  2  0  0  0
 23 24  1  0  0  0
 23 27  1  0  0  0
 24 25  2  0  0  0
 25 26  1  0  0  0
M  END
> <minimizedAffinity>
-5.96326

$$$$
2349


 28 31  0  0  0  0  0  0  0  0999 V2000
   91.3945   99.9506  -46.6910 N   0  0  0  0  0  0  0  0  0  0  0  0
   90.0936   99.9740  -47.2964 C   0  0  0  0  0  0  0  0  0  0  0  0
   89.8877  100.7575  -48.2657 O   0  0  0  0  0  0  0  0  0  0  0  0
   89.1200   99.1001  -46.7522 N   0  0  0  0  0  0  0  0  0  0  0  0
   89.3043   98.3191  -45.7819 C   0  0  0  0  0  0  0  0  0  0  0  0
   90.5854   98.1669  -45.0094 C   0  0  0  0  0  0  0  0  0  0  0  0
   90.2566   98.6674  -43.6312 C   0  0  0  0  0  0  0  0  0  0  0  0
   91.0463   98.1934  -42.5616 N   0  0  0  0  0  0  0  0  0  0  0  0
   91.3994   96.8239  -42.6044 C   0  0  0  0  0  0  0  0  0  0  0  0
   91.3589   96.1468  -43.7807 C   0  0  0  0  0  0  0  0  0  0  0  0
   91.7150   94.8008  -43.7836 C   0  0  0  0  0  0  0  0  0  0  0  0
   92.0963   94.1865  -42.6080 C   0  0  0  0  0  0  0  0  0  0  0  0
   92.1364   94.8789  -41.4072 C   0  0  0  0  0  0  0  0  0  0  0  0
   91.7777   96.2256  -41.4186 C   0  0  0  0  0  0  0  0  0  0  0  0
   92.4748   92.7380  -42.5765 C   0  0  0  0  0  0  0  0  0  0  0  0
   90.9654   96.7378  -45.0782 C   0  0  0  0  0  0  0  0  0  0  0  0
   92.2207   98.9926  -42.2484 C   0  0  0  0  0  0  0  0  0  0  0  0
   91.6071   99.0566  -45.6134 C   0  0  0  0  0  0  0  0  0  0  0  0
   92.8096   99.0606  -45.1654 O   0  0  0  0  0  0  0  0  0  0  0  0
   88.2607   97.4896  -45.3309 O   0  0  0  0  0  0  0  0  0  0  0  0
   90.4450   98.2778  -41.6798 H   0  0  0  0  0  0  0  0  0  0  0  0
   95.4997  103.8323  -48.7691 Cl  0  0  0  0  0  0  0  0  0  0  0  0
   94.3061  102.6857  -48.1897 C   0  0  0  0  0  0  0  0  0  0  0  0
   93.4614  103.0105  -47.1278 C   0  0  0  0  0  0  0  0  0  0  0  0
   92.5296  102.1251  -46.6575 C   0  0  0  0  0  0  0  0  0  0  0  0
   92.3601  100.8492  -47.1991 C   0  0  0  0  0  0  0  0  0  0  0  0
   93.2027  100.5372  -48.2534 C   0  0  0  0  0  0  0  0  0  0  0  0
   94.1392  101.4243  -48.7272 C   0  0  0  0  0  0  0  0  0  0  0  0
 22 23  1  0  0  0
 23 24  2  0  0  0
 23 28  1  0  0  0
 24 25  1  0  0  0
 25 26  2  0  0  0
 26 27  1  0  0  0
 26  1  1  0  0  0
 27 28  2  0  0  0
  1  2  1  0  0  0
  1 18  1  0  0  0
  2  3  2  0  0  0
  2  4  1  0  0  0
  4  5  2  0  0  0
  5  6  1  0  0  0
  5 20  1  0  0  0
  6  7  1  0  0  0
  6 16  1  0  0  0
  6 18  1  0  0  0
  7  8  1  0  0  0
  8  9  1  0  0  0
  8 17  1  0  0  0
  9 10  2  0  0  0
  9 14  1  0  0  0
 10 11  1  0  0  0
 10 16  1  0  0  0
 11 12  2  0  0  0
 12 13  1  0  0  0
 12 15  1  0  0  0
 13 14  2  0  0  0
 18 19  2  0  0  0
  8 21  1  0  0  0
M  CHG 1   8   1
M  CHG 1  20  -1
M  END
> <minimizedAffinity>
-6.69598

$$$$
2350


 23 26  0  0  0  0  0  0  0  0999 V2000
   91.7122   96.7174  -44.2831 N   0  0  0  0  0  0  0  0  0  0  0  0
   92.0818   97.9513  -44.9201 C   0  0  0  0  0  0  0  0  0  0  0  0
   92.5828   98.0109  -46.0710 O   0  0  0  0  0  0  0  0  0  0  0  0
   91.7900   99.1072  -44.0360 C   0  0  0  0  0  0  0  0  0  0  0  0
   90.7506  100.0333  -44.5788 C   0  0  0  0  0  0  0  0  0  0  0  0
   89.8030   99.2051  -45.4211 C   0  0  0  0  0  0  0  0  0  0  0  0
   89.1681   98.3028  -44.3642 C   0  0  0  0  0  0  0  0  0  0  0  0
   89.6932   98.7869  -43.0326 C   0  0  0  0  0  0  0  0  0  0  0  0
   91.1360   98.4584  -42.8096 C   0  0  0  0  0  0  0  0  0  0  0  0
   91.4562   97.0147  -42.9197 C   0  0  0  0  0  0  0  0  0  0  0  0
   91.4872   96.2206  -41.9479 O   0  0  0  0  0  0  0  0  0  0  0  0
   89.8313  100.2883  -43.3725 C   0  0  0  0  0  0  0  0  0  0  0  0
   87.7868   98.4811  -44.3214 O   0  0  0  0  0  0  0  0  0  0  0  0
   88.8187  100.0436  -45.8981 O   0  0  0  0  0  0  0  0  0  0  0  0
   87.3815   97.8009  -44.9388 H   0  0  0  0  0  0  0  0  0  0  0  0
   89.1398  100.9035  -46.2564 H   0  0  0  0  0  0  0  0  0  0  0  0
   91.1722   91.2676  -46.7220 Cl  0  0  0  0  0  0  0  0  0  0  0  0
   91.3448   92.8647  -45.9970 C   0  0  0  0  0  0  0  0  0  0  0  0
   90.7091   93.9588  -46.5526 C   0  0  0  0  0  0  0  0  0  0  0  0
   90.8273   95.2125  -46.0021 C   0  0  0  0  0  0  0  0  0  0  0  0
   91.6002   95.4207  -44.8533 C   0  0  0  0  0  0  0  0  0  0  0  0
   92.2174   94.3094  -44.3287 C   0  0  0  0  0  0  0  0  0  0  0  0
   92.1163   93.0448  -44.8578 C   0  0  0  0  0  0  0  0  0  0  0  0
 17 18  1  0  0  0
 18 19  2  0  0  0
 18 23  1  0  0  0
 19 20  1  0  0  0
 20 21  2  0  0  0
 21 22  1  0  0  0
 21  1  1  0  0  0
 22 23  2  0  0  0
  1  2  1  0  0  0
  1 10  1  0  0  0
  2  3  2  0  0  0
  2  4  1  0  0  0
  4  5  1  0  0  0
  4  9  1  0  0  0
  5  6  1  0  0  0
  5 12  1  0  0  0
  6  7  1  0  0  0
  6 14  1  0  0  0
  7  8  1  0  0  0
  7 13  1  0  0  0
  8  9  1  0  0  0
  8 12  1  0  0  0
  9 10  1  0  0  0
 10 11  2  0  0  0
 13 15  1  0  0  0
 14 16  1  0  0  0
M  END
> <minimizedAffinity>
-6.94166

$$$$
2357


 36 39  0  0  0  0  0  0  0  0999 V2000
   91.1434   99.3648  -43.4849 C   0  0  0  0  0  0  0  0  0  0  0  0
   90.4406   98.4405  -42.8598 C   0  0  0  0  0  0  0  0  0  0  0  0
   91.3457   97.5393  -42.1033 C   0  0  0  0  0  0  0  0  0  0  0  0
   92.5497   98.3156  -41.9987 N   0  0  0  0  0  0  0  0  0  0  0  0
   92.5043   99.1090  -43.1551 N   0  0  0  0  0  0  0  0  0  0  0  0
   93.4082   97.7778  -41.8930 H   0  0  0  0  0  0  0  0  0  0  0  0
   93.3403   99.4461  -43.6728 H   0  0  0  0  0  0  0  0  0  0  0  0
   88.9276   99.3842  -45.8908 N   0  0  0  0  0  0  0  0  0  0  0  0
   89.9358   99.2416  -46.8812 C   0  0  0  0  0  0  0  0  0  0  0  0
   89.6422   98.5447  -47.9145 O   0  0  0  0  0  0  0  0  0  0  0  0
   91.1885   99.8421  -46.7216 N   0  0  0  0  0  0  0  0  0  0  0  0
   91.4822  100.6064  -45.5692 C   0  0  0  0  0  0  0  0  0  0  0  0
   92.4502  101.3911  -45.5570 O   0  0  0  0  0  0  0  0  0  0  0  0
   90.6354  100.4754  -44.3625 C   0  0  0  0  0  0  0  0  0  0  0  0
   89.2379  100.1544  -44.7390 C   0  0  0  0  0  0  0  0  0  0  0  0
   88.3150  100.5761  -44.0208 O   0  0  0  0  0  0  0  0  0  0  0  0
   91.9033   99.7042  -47.4933 H   0  0  0  0  0  0  0  0  0  0  0  0
   83.6105   96.7367  -46.6094 Cl  0  0  0  0  0  0  0  0  0  0  0  0
   85.1828   97.5186  -46.3973 C   0  0  0  0  0  0  0  0  0  0  0  0
   86.1782   96.9154  -45.6703 C   0  0  0  0  0  0  0  0  0  0  0  0
   87.3990   97.5401  -45.5154 C   0  0  0  0  0  0  0  0  0  0  0  0
   87.6611   98.7657  -46.0716 C   0  0  0  0  0  0  0  0  0  0  0  0
   86.6692   99.3666  -46.7952 C   0  0  0  0  0  0  0  0  0  0  0  0
   85.4237   98.7474  -46.9639 C   0  0  0  0  0  0  0  0  0  0  0  0
   91.4867   96.2903  -42.8426 C   0  0  0  0  0  0  0  0  0  0  0  0
   91.9176   95.1705  -42.1639 C   0  0  0  0  0  0  0  0  0  0  0  0
   92.0801   93.9423  -42.7722 C   0  0  0  0  0  0  0  0  0  0  0  0
   91.7903   93.8490  -44.1398 C   0  0  0  0  0  0  0  0  0  0  0  0
   91.3579   94.9404  -44.8612 C   0  0  0  0  0  0  0  0  0  0  0  0
   91.2185   96.1363  -44.1854 C   0  0  0  0  0  0  0  0  0  0  0  0
   91.9366   92.6455  -44.7918 O   0  0  0  0  0  0  0  0  0  0  0  0
   92.2523   91.8320  -44.2817 H   0  0  0  0  0  0  0  0  0  0  0  0
   91.0910   94.7963  -46.1899 O   0  0  0  0  0  0  0  0  0  0  0  0
   89.9248   95.1860  -46.8550 C   0  0  0  0  0  0  0  0  0  0  0  0
   92.5127   92.8081  -42.0973 O   0  0  0  0  0  0  0  0  0  0  0  0
   93.8514   92.8071  -41.6451 C   0  0  0  0  0  0  0  0  0  0  0  0
 18 19  1  0  0  0
 19 20  2  0  0  0
 19 24  1  0  0  0
 20 21  1  0  0  0
 21 22  2  0  0  0
 22 23  1  0  0  0
 22  8  1  0  0  0
 23 24  2  0  0  0
  8  9  1  0  0  0
  8 15  1  0  0  0
  9 10  2  0  0  0
  9 11  1  0  0  0
 11 12  1  0  0  0
 12 13  2  0  0  0
 12 14  1  0  0  0
 14 15  1  0  0  0
 14  1  1  0  0  0
 15 16  2  0  0  0
  1  2  2  0  0  0
  1  5  1  0  0  0
  2  3  1  0  0  0
  3  4  1  0  0  0
  3 25  1  0  0  0
  4  5  1  0  0  0
 25 26  2  0  0  0
 25 30  1  0  0  0
 26 27  1  0  0  0
 27 28  2  0  0  0
 27 35  1  0  0  0
 28 29  1  0  0  0
 28 31  1  0  0  0
 29 30  2  0  0  0
 29 33  1  0  0  0
 33 34  1  0  0  0
 35 36  1  0  0  0
 11 17  1  0  0  0
  4  6  1  0  0  0
  5  7  1  0  0  0
 31 32  1  0  0  0
M  END
> <minimizedAffinity>
-6.95279

$$$$
2358


 34 37  0  0  0  0  0  0  0  0999 V2000
   91.6329   95.0635  -44.0904 N   0  0  0  0  0  0  0  0  0  0  0  0
   91.6474   94.7602  -42.7024 C   0  0  0  0  0  0  0  0  0  0  0  0
   91.4933   93.5533  -42.3523 O   0  0  0  0  0  0  0  0  0  0  0  0
   91.8273   95.7665  -41.7268 N   0  0  0  0  0  0  0  0  0  0  0  0
   91.9998   97.1169  -42.1105 C   0  0  0  0  0  0  0  0  0  0  0  0
   92.3417   98.0129  -41.2619 O   0  0  0  0  0  0  0  0  0  0  0  0
   91.7971   97.5520  -43.4920 C   0  0  0  0  0  0  0  0  0  0  0  0
   91.8085   96.4292  -44.4384 C   0  0  0  0  0  0  0  0  0  0  0  0
   91.9892   96.6636  -45.6832 O   0  0  0  0  0  0  0  0  0  0  0  0
   91.8343   95.5208  -40.7027 H   0  0  0  0  0  0  0  0  0  0  0  0
   90.8626   90.9391  -48.3320 Cl  0  0  0  0  0  0  0  0  0  0  0  0
   91.1001   92.1392  -47.0754 C   0  0  0  0  0  0  0  0  0  0  0  0
   91.8490   91.8512  -45.9438 C   0  0  0  0  0  0  0  0  0  0  0  0
   92.0149   92.8044  -44.9849 C   0  0  0  0  0  0  0  0  0  0  0  0
   91.4573   94.0725  -45.0943 C   0  0  0  0  0  0  0  0  0  0  0  0
   90.7145   94.3542  -46.2192 C   0  0  0  0  0  0  0  0  0  0  0  0
   90.5298   93.3939  -47.2164 C   0  0  0  0  0  0  0  0  0  0  0  0
   90.5514   98.3679  -43.5994 C   0  0  0  0  0  0  0  0  0  0  0  0
   90.0462   98.9365  -44.6616 C   0  0  0  0  0  0  0  0  0  0  0  0
   88.8028   99.6269  -44.2399 C   0  0  0  0  0  0  0  0  0  0  0  0
   88.9364   99.7399  -42.8032 N   0  0  0  0  0  0  0  0  0  0  0  0
   89.7221   98.6301  -42.4726 N   0  0  0  0  0  0  0  0  0  0  0  0
   89.4025  100.6377  -42.5308 H   0  0  0  0  0  0  0  0  0  0  0  0
   89.6649   98.1269  -41.5495 H   0  0  0  0  0  0  0  0  0  0  0  0
   87.6060   98.8106  -44.5843 C   0  0  0  0  0  0  0  0  0  0  0  0
   86.5831   98.5916  -43.6901 C   0  0  0  0  0  0  0  0  0  0  0  0
   85.4684   97.8343  -43.9995 C   0  0  0  0  0  0  0  0  0  0  0  0
   85.3492   97.2639  -45.2463 C   0  0  0  0  0  0  0  0  0  0  0  0
   86.3590   97.4713  -46.1532 C   0  0  0  0  0  0  0  0  0  0  0  0
   87.4654   98.2272  -45.8348 C   0  0  0  0  0  0  0  0  0  0  0  0
   84.4734   97.6498  -43.0588 O   0  0  0  0  0  0  0  0  0  0  0  0
   84.5390   98.0546  -42.1461 H   0  0  0  0  0  0  0  0  0  0  0  0
   84.2447   96.5042  -45.5764 O   0  0  0  0  0  0  0  0  0  0  0  0
   84.3257   95.5820  -46.6388 C   0  0  0  0  0  0  0  0  0  0  0  0
 11 12  1  0  0  0
 12 13  2  0  0  0
 12 17  1  0  0  0
 13 14  1  0  0  0
 14 15  2  0  0  0
 15 16  1  0  0  0
 15  1  1  0  0  0
 16 17  2  0  0  0
  1  2  1  0  0  0
  1  8  1  0  0  0
  2  3  2  0  0  0
  2  4  1  0  0  0
  4  5  1  0  0  0
  5  6  2  0  0  0
  5  7  1  0  0  0
  7  8  1  0  0  0
  7 18  1  0  0  0
  8  9  2  0  0  0
 18 19  2  0  0  0
 18 22  1  0  0  0
 19 20  1  0  0  0
 20 21  1  0  0  0
 20 25  1  0  0  0
 21 22  1  0  0  0
 25 26  2  0  0  0
 25 30  1  0  0  0
 26 27  1  0  0  0
 27 28  2  0  0  0
 27 31  1  0  0  0
 28 29  1  0  0  0
 28 33  1  0  0  0
 29 30  2  0  0  0
 33 34  1  0  0  0
  4 10  1  0  0  0
 21 23  1  0  0  0
 22 24  1  0  0  0
 31 32  1  0  0  0
M  END
> <minimizedAffinity>
-8.03667

$$$$
2359


 32 35  0  0  0  0  0  0  0  0999 V2000
   91.6640   94.7599  -43.7637 N   0  0  0  0  0  0  0  0  0  0  0  0
   91.8967   94.0657  -42.5278 C   0  0  0  0  0  0  0  0  0  0  0  0
   91.9062   92.7973  -42.4729 O   0  0  0  0  0  0  0  0  0  0  0  0
   92.1149   94.8674  -41.3767 N   0  0  0  0  0  0  0  0  0  0  0  0
   92.0986   96.3098  -41.4681 C   0  0  0  0  0  0  0  0  0  0  0  0
   92.7164   96.9302  -40.5935 O   0  0  0  0  0  0  0  0  0  0  0  0
   91.3773   96.9455  -42.5536 C   0  0  0  0  0  0  0  0  0  0  0  0
   91.6589   96.1782  -43.8038 C   0  0  0  0  0  0  0  0  0  0  0  0
   91.8967   96.7150  -44.9156 O   0  0  0  0  0  0  0  0  0  0  0  0
   92.2848   94.3859  -40.4761 H   0  0  0  0  0  0  0  0  0  0  0  0
   90.7885   91.3335  -48.6069 Cl  0  0  0  0  0  0  0  0  0  0  0  0
   91.0174   92.3622  -47.2230 C   0  0  0  0  0  0  0  0  0  0  0  0
   91.7155   91.8540  -46.1363 C   0  0  0  0  0  0  0  0  0  0  0  0
   91.9102   92.6532  -45.0254 C   0  0  0  0  0  0  0  0  0  0  0  0
   91.4403   93.9493  -44.9394 C   0  0  0  0  0  0  0  0  0  0  0  0
   90.7487   94.4370  -46.0312 C   0  0  0  0  0  0  0  0  0  0  0  0
   90.5343   93.6668  -47.1596 C   0  0  0  0  0  0  0  0  0  0  0  0
   91.5254   98.3731  -42.7213 C   0  0  0  0  0  0  0  0  0  0  0  0
   90.6629   99.3325  -42.4755 C   0  0  0  0  0  0  0  0  0  0  0  0
   91.2337  100.6648  -42.7919 C   0  0  0  0  0  0  0  0  0  0  0  0
   92.6328  100.3702  -42.9987 N   0  0  0  0  0  0  0  0  0  0  0  0
   92.7228   98.9991  -43.2280 N   0  0  0  0  0  0  0  0  0  0  0  0
   93.2373  100.6984  -42.2149 H   0  0  0  0  0  0  0  0  0  0  0  0
   93.5435   98.5590  -43.6947 H   0  0  0  0  0  0  0  0  0  0  0  0
   91.1349  101.6150  -41.6778 C   0  0  0  0  0  0  0  0  0  0  0  0
   90.1367  102.5761  -41.7248 C   0  0  0  0  0  0  0  0  0  0  0  0
   90.0160  103.4810  -40.6965 C   0  0  0  0  0  0  0  0  0  0  0  0
   90.8631  103.4606  -39.6131 C   0  0  0  0  0  0  0  0  0  0  0  0
   91.8587  102.5142  -39.5517 C   0  0  0  0  0  0  0  0  0  0  0  0
   91.9783  101.5984  -40.5974 C   0  0  0  0  0  0  0  0  0  0  0  0
   89.0107  104.4564  -40.7314 O   0  0  0  0  0  0  0  0  0  0  0  0
   88.3828  104.4844  -41.5156 H   0  0  0  0  0  0  0  0  0  0  0  0
 11 12  1  0  0  0
 12 13  2  0  0  0
 12 17  1  0  0  0
 13 14  1  0  0  0
 14 15  2  0  0  0
 15 16  1  0  0  0
 15  1  1  0  0  0
 16 17  2  0  0  0
  1  2  1  0  0  0
  1  8  1  0  0  0
  2  3  2  0  0  0
  2  4  1  0  0  0
  4  5  1  0  0  0
  5  6  2  0  0  0
  5  7  1  0  0  0
  7  8  1  0  0  0
  7 18  1  0  0  0
  8  9  2  0  0  0
 18 19  2  0  0  0
 18 22  1  0  0  0
 19 20  1  0  0  0
 20 21  1  0  0  0
 20 25  1  0  0  0
 21 22  1  0  0  0
 25 26  2  0  0  0
 25 30  1  0  0  0
 26 27  1  0  0  0
 27 28  2  0  0  0
 27 31  1  0  0  0
 28 29  1  0  0  0
 29 30  2  0  0  0
  4 10  1  0  0  0
 21 23  1  0  0  0
 22 24  1  0  0  0
 31 32  1  0  0  0
M  END
> <minimizedAffinity>
-8.48078

$$$$
2361


 30 33  0  0  0  0  0  0  0  0999 V2000
   91.8690   98.0432  -44.5648 N   0  0  0  0  0  0  0  0  0  0  0  0
   92.4737   99.0581  -45.3449 C   0  0  0  0  0  0  0  0  0  0  0  0
   92.7696   98.8408  -46.5464 O   0  0  0  0  0  0  0  0  0  0  0  0
   92.7393  100.3350  -44.7386 N   0  0  0  0  0  0  0  0  0  0  0  0
   92.4055  100.5833  -43.3799 C   0  0  0  0  0  0  0  0  0  0  0  0
   92.9360  101.5516  -42.7803 O   0  0  0  0  0  0  0  0  0  0  0  0
   91.4440   99.7014  -42.6990 C   0  0  0  0  0  0  0  0  0  0  0  0
   91.5501   98.3251  -43.2133 C   0  0  0  0  0  0  0  0  0  0  0  0
   91.3484   97.3375  -42.4249 O   0  0  0  0  0  0  0  0  0  0  0  0
   93.1832  101.1107  -45.2758 H   0  0  0  0  0  0  0  0  0  0  0  0
   90.7589   92.6101  -46.9125 Cl  0  0  0  0  0  0  0  0  0  0  0  0
   91.0753   94.1958  -46.2296 C   0  0  0  0  0  0  0  0  0  0  0  0
   90.1251   95.1941  -46.2693 C   0  0  0  0  0  0  0  0  0  0  0  0
   90.3802   96.4490  -45.7285 C   0  0  0  0  0  0  0  0  0  0  0  0
   91.5884   96.7416  -45.1335 C   0  0  0  0  0  0  0  0  0  0  0  0
   92.5348   95.7416  -45.0953 C   0  0  0  0  0  0  0  0  0  0  0  0
   92.2819   94.4927  -45.6328 C   0  0  0  0  0  0  0  0  0  0  0  0
   90.0407  100.2080  -42.8680 C   0  0  0  0  0  0  0  0  0  0  0  0
   88.9332   99.7094  -42.3838 C   0  0  0  0  0  0  0  0  0  0  0  0
   87.7986  100.5416  -42.8141 C   0  0  0  0  0  0  0  0  0  0  0  0
   88.4136  101.7494  -43.2874 N   0  0  0  0  0  0  0  0  0  0  0  0
   89.7240  101.3693  -43.6175 N   0  0  0  0  0  0  0  0  0  0  0  0
   88.3992  102.4996  -42.5901 H   0  0  0  0  0  0  0  0  0  0  0  0
   90.3027  101.9024  -44.3060 H   0  0  0  0  0  0  0  0  0  0  0  0
   87.1377   99.8290  -43.9376 C   0  0  0  0  0  0  0  0  0  0  0  0
   86.4694  100.5359  -44.9083 C   0  0  0  0  0  0  0  0  0  0  0  0
   85.8609   99.8888  -45.9405 N   0  0  0  0  0  0  0  0  0  0  0  0
   85.8790   98.5520  -46.0649 C   0  0  0  0  0  0  0  0  0  0  0  0
   86.5394   97.8130  -45.1098 C   0  0  0  0  0  0  0  0  0  0  0  0
   87.1715   98.4638  -44.0403 C   0  0  0  0  0  0  0  0  0  0  0  0
 11 12  1  0  0  0
 12 13  2  0  0  0
 12 17  1  0  0  0
 13 14  1  0  0  0
 14 15  2  0  0  0
 15 16  1  0  0  0
 15  1  1  0  0  0
 16 17  2  0  0  0
  1  2  1  0  0  0
  1  8  1  0  0  0
  2  3  2  0  0  0
  2  4  1  0  0  0
  4  5  1  0  0  0
  5  6  2  0  0  0
  5  7  1  0  0  0
  7  8  1  0  0  0
  7 18  1  0  0  0
  8  9  2  0  0  0
 18 19  2  0  0  0
 18 22  1  0  0  0
 19 20  1  0  0  0
 20 21  1  0  0  0
 20 25  1  0  0  0
 21 22  1  0  0  0
 25 26  2  0  0  0
 25 30  1  0  0  0
 26 27  1  0  0  0
 27 28  2  0  0  0
 28 29  1  0  0  0
 29 30  2  0  0  0
  4 10  1  0  0  0
 21 23  1  0  0  0
 22 24  1  0  0  0
M  END
> <minimizedAffinity>
-6.45972

$$$$
2363


 33 36  0  0  0  0  0  0  0  0999 V2000
   91.3758   96.9488  -43.5894 N   0  0  0  0  0  0  0  0  0  0  0  0
   91.2495   96.4992  -44.9298 C   0  0  0  0  0  0  0  0  0  0  0  0
   91.3723   95.0593  -45.1020 C   0  0  0  0  0  0  0  0  0  0  0  0
   91.6811   94.2176  -44.0766 C   0  0  0  0  0  0  0  0  0  0  0  0
   91.8059   92.8369  -44.3211 C   0  0  0  0  0  0  0  0  0  0  0  0
   91.6283   92.2822  -45.5633 C   0  0  0  0  0  0  0  0  0  0  0  0
   91.3141   93.1530  -46.5938 C   0  0  0  0  0  0  0  0  0  0  0  0
   91.1928   94.4854  -46.3652 C   0  0  0  0  0  0  0  0  0  0  0  0
   91.8630   94.6875  -42.7312 N   0  0  0  0  0  0  0  0  0  0  0  0
   91.6989   96.0781  -42.5377 C   0  0  0  0  0  0  0  0  0  0  0  0
   91.8457   96.5744  -41.3737 O   0  0  0  0  0  0  0  0  0  0  0  0
   92.3684   97.0975  -45.6104 O   0  0  0  0  0  0  0  0  0  0  0  0
   92.1002   94.0184  -41.9776 H   0  0  0  0  0  0  0  0  0  0  0  0
   92.1297   97.2561  -46.5607 H   0  0  0  0  0  0  0  0  0  0  0  0
   90.4271  102.7412  -42.3068 Cl  0  0  0  0  0  0  0  0  0  0  0  0
   90.6978  101.0350  -42.6820 C   0  0  0  0  0  0  0  0  0  0  0  0
   91.9399  100.6348  -43.1198 C   0  0  0  0  0  0  0  0  0  0  0  0
   92.1596   99.2932  -43.4169 C   0  0  0  0  0  0  0  0  0  0  0  0
   91.1591   98.3683  -43.2793 C   0  0  0  0  0  0  0  0  0  0  0  0
   89.9265   98.7990  -42.8396 C   0  0  0  0  0  0  0  0  0  0  0  0
   89.6737  100.1249  -42.5352 C   0  0  0  0  0  0  0  0  0  0  0  0
   90.0458   97.0523  -45.6016 C   0  0  0  0  0  0  0  0  0  0  0  0
   88.9299   96.5953  -45.3467 O   0  0  0  0  0  0  0  0  0  0  0  0
   90.2281   98.1001  -46.5234 N   0  0  0  0  0  0  0  0  0  0  0  0
   91.1817   98.4984  -46.7484 H   0  0  0  0  0  0  0  0  0  0  0  0
   89.1135   98.7194  -47.2416 C   0  0  0  0  0  0  0  0  0  0  0  0
   88.7586  100.0522  -46.7036 C   0  0  0  0  0  0  0  0  0  0  0  0
   87.8178  100.1019  -45.6526 N   0  0  0  0  0  0  0  0  0  0  0  0
   87.4009  101.3548  -45.1736 C   0  0  0  0  0  0  0  0  0  0  0  0
   86.1980  101.1480  -44.2488 C   0  0  0  0  0  0  0  0  0  0  0  0
   86.3253   99.9354  -43.5479 O   0  0  0  0  0  0  0  0  0  0  0  0
   86.1374   98.8424  -44.3907 C   0  0  0  0  0  0  0  0  0  0  0  0
   86.7501   99.1631  -45.7269 C   0  0  0  0  0  0  0  0  0  0  0  0
 15 16  1  0  0  0
 16 17  2  0  0  0
 16 21  1  0  0  0
 17 18  1  0  0  0
 18 19  2  0  0  0
 19 20  1  0  0  0
 19  1  1  0  0  0
 20 21  2  0  0  0
  1  2  1  0  0  0
  1 10  1  0  0  0
  2  3  1  0  0  0
  2 12  1  0  0  0
  2 22  1  0  0  0
  3  4  1  0  0  0
  3  8  2  0  0  0
  4  5  2  0  0  0
  4  9  1  0  0  0
  5  6  1  0  0  0
  6  7  2  0  0  0
  7  8  1  0  0  0
  9 10  1  0  0  0
 10 11  2  0  0  0
 22 23  2  0  0  0
 22 24  1  0  0  0
 24 26  1  0  0  0
 26 27  1  0  0  0
 27 28  1  0  0  0
 28 29  1  0  0  0
 28 33  1  0  0  0
 29 30  1  0  0  0
 30 31  1  0  0  0
 31 32  1  0  0  0
 32 33  1  0  0  0
  9 13  1  0  0  0
 12 14  1  0  0  0
 24 25  1  0  0  0
M  END
> <minimizedAffinity>
-6.64860

$$$$
2364


 33 37  0  0  0  0  0  0  0  0999 V2000
   90.6867   96.9069  -45.6684 N   0  0  0  0  0  0  0  0  0  0  0  0
   89.2983   97.2151  -45.6636 C   0  0  0  0  0  0  0  0  0  0  0  0
   88.4555   96.3040  -45.9466 O   0  0  0  0  0  0  0  0  0  0  0  0
   88.7683   98.5448  -45.3450 C   0  0  0  0  0  0  0  0  0  0  0  0
   89.7457   99.5794  -45.2661 N   0  0  0  0  0  0  0  0  0  0  0  0
   91.0363   99.2011  -44.7896 C   0  0  0  0  0  0  0  0  0  0  0  0
   91.2273   99.2457  -43.2932 C   0  0  0  0  0  0  0  0  0  0  0  0
   92.1173  100.3512  -43.4446 N   0  0  0  0  0  0  0  0  0  0  0  0
   91.9691  100.3993  -44.8452 C   0  0  0  0  0  0  0  0  0  0  0  0
   91.5871   97.9847  -45.4416 C   0  0  0  0  0  0  0  0  0  0  0  0
   92.7897   97.8745  -45.7915 O   0  0  0  0  0  0  0  0  0  0  0  0
   89.8705  100.1797  -46.5631 C   0  0  0  0  0  0  0  0  0  0  0  0
   88.8713   99.5271  -47.4764 C   0  0  0  0  0  0  0  0  0  0  0  0
   87.8669   98.9524  -46.5190 C   0  0  0  0  0  0  0  0  0  0  0  0
   88.3013  100.4153  -48.3782 O   0  0  0  0  0  0  0  0  0  0  0  0
   88.8695  100.4183  -49.1864 H   0  0  0  0  0  0  0  0  0  0  0  0
   91.1795   95.5599  -45.8954 C   0  0  0  0  0  0  0  0  0  0  0  0
   92.0412   96.0413  -40.7639 Cl  0  0  0  0  0  0  0  0  0  0  0  0
   91.8958   95.0643  -42.2082 C   0  0  0  0  0  0  0  0  0  0  0  0
   91.6106   95.6444  -43.4273 C   0  0  0  0  0  0  0  0  0  0  0  0
   91.4900   94.9011  -44.5797 C   0  0  0  0  0  0  0  0  0  0  0  0
   91.6642   93.5377  -44.4904 C   0  0  0  0  0  0  0  0  0  0  0  0
   91.9449   92.9792  -43.2833 C   0  0  0  0  0  0  0  0  0  0  0  0
   92.0695   93.7037  -42.1198 C   0  0  0  0  0  0  0  0  0  0  0  0
   91.9305  101.5091  -42.6485 C   0  0  0  0  0  0  0  0  0  0  0  0
   93.0546  101.8883  -41.7849 C   0  0  0  0  0  0  0  0  0  0  0  0
   94.1415  102.5374  -42.3164 C   0  0  0  0  0  0  0  0  0  0  0  0
   95.2257  102.9103  -41.5169 C   0  0  0  0  0  0  0  0  0  0  0  0
   95.1968  102.6176  -40.1726 C   0  0  0  0  0  0  0  0  0  0  0  0
   94.1212  101.9693  -39.6146 C   0  0  0  0  0  0  0  0  0  0  0  0
   93.0570  101.6121  -40.4401 C   0  0  0  0  0  0  0  0  0  0  0  0
   96.3205  103.5628  -42.0478 O   0  0  0  0  0  0  0  0  0  0  0  0
   96.2408  104.0462  -43.3758 C   0  0  0  0  0  0  0  0  0  0  0  0
 18 19  1  0  0  0
 19 20  2  0  0  0
 19 24  1  0  0  0
 20 21  1  0  0  0
 21 22  2  0  0  0
 21 17  1  0  0  0
 22 23  1  0  0  0
 23 24  2  0  0  0
 17  1  1  0  0  0
  1  2  1  0  0  0
  1 10  1  0  0  0
  2  3  2  0  0  0
  2  4  1  0  0  0
  4  5  1  0  0  0
  4 14  1  0  0  0
  5  6  1  0  0  0
  5 12  1  0  0  0
  6  7  1  0  0  0
  6  9  1  0  0  0
  6 10  1  0  0  0
  7  8  1  0  0  0
  8  9  1  0  0  0
  8 25  1  0  0  0
 25 26  1  0  0  0
 26 27  2  0  0  0
 26 31  1  0  0  0
 27 28  1  0  0  0
 28 29  2  0  0  0
 28 32  1  0  0  0
 29 30  1  0  0  0
 30 31  2  0  0  0
 32 33  1  0  0  0
 10 11  2  0  0  0
 12 13  1  0  0  0
 13 14  1  0  0  0
 13 15  1  0  0  0
 15 16  1  0  0  0
M  END
> <minimizedAffinity>
-7.03374

$$$$
2365


 32 36  0  0  0  0  0  0  0  0999 V2000
   91.4580  100.3109  -41.3586 N   0  0  0  0  0  0  0  0  0  0  0  0
   92.0123  101.5648  -41.6567 C   0  0  0  0  0  0  0  0  0  0  0  0
   91.9448  101.9826  -42.8525 O   0  0  0  0  0  0  0  0  0  0  0  0
   91.5049   99.9521  -40.3741 H   0  0  0  0  0  0  0  0  0  0  0  0
   92.6775  102.4421  -40.6652 C   0  0  0  0  0  0  0  0  0  0  0  0
   91.8656  102.5174  -39.3880 C   0  0  0  0  0  0  0  0  0  0  0  0
   92.5298  103.4161  -38.3837 C   0  0  0  0  0  0  0  0  0  0  0  0
   93.8771  102.7802  -38.0351 C   0  0  0  0  0  0  0  0  0  0  0  0
   94.7128  102.6692  -39.2699 C   0  0  0  0  0  0  0  0  0  0  0  0
   94.0132  101.8257  -40.3106 C   0  0  0  0  0  0  0  0  0  0  0  0
   94.9574  104.0526  -39.8269 C   0  0  0  0  0  0  0  0  0  0  0  0
   93.6162  104.6582  -40.1698 C   0  0  0  0  0  0  0  0  0  0  0  0
   92.7958  104.7912  -38.9124 C   0  0  0  0  0  0  0  0  0  0  0  0
   92.9195  103.8300  -41.2163 C   0  0  0  0  0  0  0  0  0  0  0  0
   91.6937  103.4302  -37.1996 N   0  0  0  0  0  0  0  0  0  0  0  0
   90.3786  103.4948  -37.0887 N   0  0  0  0  0  0  0  0  0  0  0  0
   89.9932  103.4845  -35.8479 N   0  0  0  0  0  0  0  0  0  0  0  0
   91.0720  103.4119  -35.0886 C   0  0  0  0  0  0  0  0  0  0  0  0
   92.1399  103.3772  -35.9336 N   0  0  0  0  0  0  0  0  0  0  0  0
   91.2670   98.2453  -42.7070 C   0  0  0  0  0  0  0  0  0  0  0  0
   92.2514   97.6914  -42.1558 O   0  0  0  0  0  0  0  0  0  0  0  0
   90.8521   99.5444  -42.3286 N   0  0  0  0  0  0  0  0  0  0  0  0
   90.0147   99.9428  -42.8390 H   0  0  0  0  0  0  0  0  0  0  0  0
   90.5674   97.4641  -43.7678 C   0  0  0  0  0  0  0  0  0  0  0  0
   89.4970   98.2523  -44.4438 C   0  0  0  0  0  0  0  0  0  0  0  0
   91.5878   96.9427  -44.7535 C   0  0  0  0  0  0  0  0  0  0  0  0
   91.4076   91.8302  -46.6507 Br  0  0  0  0  0  0  0  0  0  0  0  0
   91.5348   93.3889  -45.5614 C   0  0  0  0  0  0  0  0  0  0  0  0
   91.4575   94.7180  -45.9266 C   0  0  0  0  0  0  0  0  0  0  0  0
   91.6029   95.5007  -44.8266 N   0  0  0  0  0  0  0  0  0  0  0  0
   91.7662   94.7018  -43.8077 N   0  0  0  0  0  0  0  0  0  0  0  0
   91.7356   93.4091  -44.1792 C   0  0  0  0  0  0  0  0  0  0  0  0
 27 28  1  0  0  0
 28 29  2  0  0  0
 28 32  1  0  0  0
 29 30  1  0  0  0
 30 31  1  0  0  0
 30 26  1  0  0  0
 31 32  2  0  0  0
 26 24  1  0  0  0
 24 25  1  0  0  0
 24 20  1  0  0  0
 20 21  2  0  0  0
 20 22  1  0  0  0
 22  1  1  0  0  0
  1  2  1  0  0  0
  2  3  2  0  0  0
  2  5  1  0  0  0
  5  6  1  0  0  0
  5 10  1  0  0  0
  5 14  1  0  0  0
  6  7  1  0  0  0
  7  8  1  0  0  0
  7 13  1  0  0  0
  7 15  1  0  0  0
  8  9  1  0  0  0
  9 10  1  0  0  0
  9 11  1  0  0  0
 11 12  1  0  0  0
 12 13  1  0  0  0
 12 14  1  0  0  0
 15 16  1  0  0  0
 15 19  1  0  0  0
 16 17  2  0  0  0
 17 18  1  0  0  0
 18 19  2  0  0  0
 22 23  1  0  0  0
  1  4  1  0  0  0
M  END
> <minimizedAffinity>
-6.67518

$$$$
2373


 28 31  0  0  0  0  0  0  0  0999 V2000
   89.4214   97.0880  -46.6234 N   0  0  0  0  0  0  0  0  0  0  0  0
   89.9161   98.0656  -45.8845 C   0  0  0  0  0  0  0  0  0  0  0  0
   90.7261   97.5752  -44.9079 N   0  0  0  0  0  0  0  0  0  0  0  0
   90.7438   96.2655  -45.0227 C   0  0  0  0  0  0  0  0  0  0  0  0
   89.9121   95.9573  -46.1199 C   0  0  0  0  0  0  0  0  0  0  0  0
   91.4461   98.4005  -43.9796 C   0  0  0  0  0  0  0  0  0  0  0  0
   90.4982   98.9671  -42.9249 C   0  0  0  0  0  0  0  0  0  0  0  0
   89.1910   99.2333  -43.6789 C   0  0  0  0  0  0  0  0  0  0  0  0
   89.4791  100.2303  -44.7671 C   0  0  0  0  0  0  0  0  0  0  0  0
   89.5784   99.5036  -46.1177 C   0  0  0  0  0  0  0  0  0  0  0  0
   91.4629   95.2475  -44.2509 C   0  0  0  0  0  0  0  0  0  0  0  0
   92.0529   94.1318  -44.7506 C   0  0  0  0  0  0  0  0  0  0  0  0
   92.6624   93.1647  -43.9522 C   0  0  0  0  0  0  0  0  0  0  0  0
   92.6928   93.3081  -42.5922 C   0  0  0  0  0  0  0  0  0  0  0  0
   92.1062   94.4283  -42.0550 C   0  0  0  0  0  0  0  0  0  0  0  0
   91.5065   95.3739  -42.8580 C   0  0  0  0  0  0  0  0  0  0  0  0
   93.3003   92.3490  -41.7636 O   0  0  0  0  0  0  0  0  0  0  0  0
   94.6565   92.4021  -41.4110 C   0  0  0  0  0  0  0  0  0  0  0  0
   88.5112   97.1091  -47.7728 C   0  0  0  0  0  0  0  0  0  0  0  0
   87.1483   96.8045  -47.2866 C   0  0  0  0  0  0  0  0  0  0  0  0
   86.5731   95.7759  -47.7756 O   0  0  0  0  0  0  0  0  0  0  0  0
   84.2237   99.9667  -43.0941 Cl  0  0  0  0  0  0  0  0  0  0  0  0
   85.0773   99.0208  -44.2860 C   0  0  0  0  0  0  0  0  0  0  0  0
   85.5439   97.7491  -44.0647 C   0  0  0  0  0  0  0  0  0  0  0  0
   86.2100   97.0471  -45.0378 C   0  0  0  0  0  0  0  0  0  0  0  0
   86.4449   97.5981  -46.3031 C   0  0  0  0  0  0  0  0  0  0  0  0
   85.9815   98.8612  -46.5246 C   0  0  0  0  0  0  0  0  0  0  0  0
   85.3146   99.5573  -45.5417 C   0  0  0  0  0  0  0  0  0  0  0  0
 22 23  1  0  0  0
 23 24  2  0  0  0
 23 28  1  0  0  0
 24 25  1  0  0  0
 25 26  2  0  0  0
 26 27  1  0  0  0
 26 20  1  0  0  0
 27 28  2  0  0  0
 20 21  2  0  0  0
 20 19  1  0  0  0
 19  1  1  0  0  0
  1  2  2  0  0  0
  1  5  1  0  0  0
  2  3  1  0  0  0
  2 10  1  0  0  0
  3  4  1  0  0  0
  3  6  1  0  0  0
  4  5  2  0  0  0
  4 11  1  0  0  0
 11 12  2  0  0  0
 11 16  1  0  0  0
 12 13  1  0  0  0
 13 14  2  0  0  0
 14 15  1  0  0  0
 14 17  1  0  0  0
 15 16  2  0  0  0
 17 18  1  0  0  0
  6  7  1  0  0  0
  7  8  1  0  0  0
  8  9  1  0  0  0
  9 10  1  0  0  0
M  END
> <minimizedAffinity>
-6.00082

$$$$
2375


 37 40  0  0  0  0  0  0  0  0999 V2000
   89.6983  100.4875  -44.3007 C   0  0  0  0  0  0  0  0  0  0  0  0
   89.2874  100.4882  -45.6741 C   0  0  0  0  0  0  0  0  0  0  0  0
   92.0878  102.2846  -40.4894 C   0  0  0  0  0  0  0  0  0  0  0  0
   90.8480  103.0491  -40.2877 C   0  0  0  0  0  0  0  0  0  0  0  0
   89.8728  103.1087  -41.4369 C   0  0  0  0  0  0  0  0  0  0  0  0
   90.1795  102.2760  -42.5535 N   0  0  0  0  0  0  0  0  0  0  0  0
   91.5891  102.3477  -42.9868 C   0  0  0  0  0  0  0  0  0  0  0  0
   92.5285  102.0784  -41.9175 C   0  0  0  0  0  0  0  0  0  0  0  0
   89.2522  101.6427  -43.4150 C   0  0  0  0  0  0  0  0  0  0  0  0
   88.0814  102.0104  -43.4699 O   0  0  0  0  0  0  0  0  0  0  0  0
   91.8755  100.9914  -39.9232 O   0  0  0  0  0  0  0  0  0  0  0  0
   92.5283  100.7948  -39.2304 H   0  0  0  0  0  0  0  0  0  0  0  0
   96.7960  104.4364  -37.3103 Cl  0  0  0  0  0  0  0  0  0  0  0  0
   95.4239  103.8324  -38.2699 C   0  0  0  0  0  0  0  0  0  0  0  0
   94.2857  103.3733  -37.6488 C   0  0  0  0  0  0  0  0  0  0  0  0
   93.2183  102.8860  -38.4175 C   0  0  0  0  0  0  0  0  0  0  0  0
   93.2701  102.8541  -39.8032 C   0  0  0  0  0  0  0  0  0  0  0  0
   94.4031  103.3159  -40.3905 C   0  0  0  0  0  0  0  0  0  0  0  0
   95.4762  103.7996  -39.6526 C   0  0  0  0  0  0  0  0  0  0  0  0
   89.7759   99.2795  -43.5137 N   0  0  0  0  0  0  0  0  0  0  0  0
   90.9391   98.5482  -43.2788 C   0  0  0  0  0  0  0  0  0  0  0  0
   91.9873   99.1222  -43.9707 O   0  0  0  0  0  0  0  0  0  0  0  0
   88.7961   98.9830  -43.1847 H   0  0  0  0  0  0  0  0  0  0  0  0
   91.3704   97.4493  -42.5517 C   0  0  0  0  0  0  0  0  0  0  0  0
   91.7365   96.2029  -42.5105 C   0  0  0  0  0  0  0  0  0  0  0  0
   92.1303   95.6152  -41.2230 N   0  0  0  0  0  0  0  0  0  0  0  0
   92.4449   94.2800  -41.0640 N   0  0  0  0  0  0  0  0  0  0  0  0
   92.4132   93.3841  -42.1206 C   0  0  0  0  0  0  0  0  0  0  0  0
   92.6975   92.1635  -42.0230 O   0  0  0  0  0  0  0  0  0  0  0  0
   92.0266   93.8842  -43.4616 C   0  0  0  0  0  0  0  0  0  0  0  0
   91.7181   95.2190  -43.5752 C   0  0  0  0  0  0  0  0  0  0  0  0
   91.2621   95.6229  -44.8350 C   0  0  0  0  0  0  0  0  0  0  0  0
   91.1504   94.7215  -45.8839 C   0  0  0  0  0  0  0  0  0  0  0  0
   91.4792   93.4005  -45.7264 C   0  0  0  0  0  0  0  0  0  0  0  0
   91.9217   92.9799  -44.4904 C   0  0  0  0  0  0  0  0  0  0  0  0
   92.1572   96.2852  -40.4069 H   0  0  0  0  0  0  0  0  0  0  0  0
   92.7207   93.9261  -40.1065 H   0  0  0  0  0  0  0  0  0  0  0  0
 13 14  1  0  0  0
 14 15  2  0  0  0
 14 19  1  0  0  0
 15 16  1  0  0  0
 16 17  2  0  0  0
 17 18  1  0  0  0
 17  3  1  0  0  0
 18 19  2  0  0  0
  3  4  1  0  0  0
  3  8  1  0  0  0
  3 11  1  0  0  0
  4  5  1  0  0  0
  5  6  1  0  0  0
  6  7  1  0  0  0
  6  9  1  0  0  0
  7  8  1  0  0  0
  9 10  2  0  0  0
  9  1  1  0  0  0
  1 20  1  0  0  0
  1  2  1  0  0  0
 20 21  1  0  0  0
 21 22  2  0  0  0
 21 24  1  0  0  0
 24 25  2  0  0  0
 25 26  1  0  0  0
 25 31  1  0  0  0
 26 27  1  0  0  0
 27 28  1  0  0  0
 28 29  2  0  0  0
 28 30  1  0  0  0
 30 31  2  0  0  0
 30 35  1  0  0  0
 31 32  1  0  0  0
 32 33  2  0  0  0
 33 34  1  0  0  0
 34 35  2  0  0  0
 20 23  1  0  0  0
 26 36  1  0  0  0
 27 37  1  0  0  0
 11 12  1  0  0  0
M  END
> <minimizedAffinity>
-7.71083

$$$$
2377


 33 36  0  0  0  0  0  0  0  0999 V2000
   86.2656   97.2401  -46.7558 N   0  0  0  0  0  0  0  0  0  0  0  0
   85.8553   96.8023  -45.4253 C   0  0  0  0  0  0  0  0  0  0  0  0
   86.4916   97.6324  -44.3334 C   0  0  0  0  0  0  0  0  0  0  0  0
   86.9648   98.8590  -44.9278 N   0  0  0  0  0  0  0  0  0  0  0  0
   86.0544   99.5026  -45.8577 C   0  0  0  0  0  0  0  0  0  0  0  0
   86.0361   98.6447  -47.1220 C   0  0  0  0  0  0  0  0  0  0  0  0
   88.2213   99.4385  -44.6567 C   0  0  0  0  0  0  0  0  0  0  0  0
   88.5336  100.5067  -45.2271 O   0  0  0  0  0  0  0  0  0  0  0  0
   84.4704   95.5030  -48.4259 Cl  0  0  0  0  0  0  0  0  0  0  0  0
   86.2150   95.4946  -48.4847 C   0  0  0  0  0  0  0  0  0  0  0  0
   86.8959   96.3378  -47.6332 C   0  0  0  0  0  0  0  0  0  0  0  0
   88.2918   96.2531  -47.7349 C   0  0  0  0  0  0  0  0  0  0  0  0
   88.8842   95.4097  -48.6006 N   0  0  0  0  0  0  0  0  0  0  0  0
   88.2407   94.6021  -49.4166 N   0  0  0  0  0  0  0  0  0  0  0  0
   86.9041   94.6471  -49.3567 C   0  0  0  0  0  0  0  0  0  0  0  0
   86.2148   93.9074  -50.1027 O   0  0  0  0  0  0  0  0  0  0  0  0
   88.9490   93.7402  -50.3024 C   0  0  0  0  0  0  0  0  0  0  0  0
   89.3081   92.4497  -49.9447 C   0  0  0  0  0  0  0  0  0  0  0  0
   89.9940   91.6018  -50.7903 C   0  0  0  0  0  0  0  0  0  0  0  0
   90.3332   92.0667  -52.0440 C   0  0  0  0  0  0  0  0  0  0  0  0
   89.9915   93.3489  -52.4331 C   0  0  0  0  0  0  0  0  0  0  0  0
   89.2954   94.1849  -51.5523 C   0  0  0  0  0  0  0  0  0  0  0  0
   89.2078   98.8463  -43.7211 C   0  0  0  0  0  0  0  0  0  0  0  0
   90.1354   97.8997  -44.4472 C   0  0  0  0  0  0  0  0  0  0  0  0
   91.2931   97.4664  -43.5979 C   0  0  0  0  0  0  0  0  0  0  0  0
   91.4962   96.0349  -43.5686 N   0  0  0  0  0  0  0  0  0  0  0  0
   91.5640   95.1774  -44.6935 C   0  0  0  0  0  0  0  0  0  0  0  0
   91.4556   95.5219  -45.9183 O   0  0  0  0  0  0  0  0  0  0  0  0
   91.7752   93.8374  -44.3060 N   0  0  0  0  0  0  0  0  0  0  0  0
   91.8390   93.7882  -42.8621 C   0  0  0  0  0  0  0  0  0  0  0  0
   91.6724   95.1920  -42.4248 C   0  0  0  0  0  0  0  0  0  0  0  0
   91.6815   95.5928  -41.2416 O   0  0  0  0  0  0  0  0  0  0  0  0
   91.9076   92.6963  -45.1886 C   0  0  0  0  0  0  0  0  0  0  0  0
  9 10  1  0  0  0
 10 11  2  0  0  0
 10 15  1  0  0  0
 11 12  1  0  0  0
 11  1  1  0  0  0
 12 13  2  0  0  0
 13 14  1  0  0  0
 14 15  1  0  0  0
 14 17  1  0  0  0
 15 16  2  0  0  0
 17 18  2  0  0  0
 17 22  1  0  0  0
 18 19  1  0  0  0
 19 20  2  0  0  0
 20 21  1  0  0  0
 21 22  2  0  0  0
  1  2  1  0  0  0
  1  6  1  0  0  0
  2  3  1  0  0  0
  3  4  1  0  0  0
  4  5  1  0  0  0
  4  7  1  0  0  0
  5  6  1  0  0  0
  7  8  2  0  0  0
  7 23  1  0  0  0
 23 24  1  0  0  0
 24 25  1  0  0  0
 25 26  1  0  0  0
 26 27  1  0  0  0
 26 31  1  0  0  0
 27 28  2  0  0  0
 27 29  1  0  0  0
 29 30  1  0  0  0
 29 33  1  0  0  0
 30 31  1  0  0  0
 31 32  2  0  0  0
M  END
> <minimizedAffinity>
-6.23897

$$$$
2380


 27 30  0  0  0  0  0  0  0  0999 V2000
   89.9559  100.1351  -45.3947 Cl  0  0  0  0  0  0  0  0  0  0  0  0
   90.6910   98.8809  -44.4016 C   0  0  0  0  0  0  0  0  0  0  0  0
   91.1734   99.2442  -43.1668 C   0  0  0  0  0  0  0  0  0  0  0  0
   91.7467   98.2340  -42.4110 C   0  0  0  0  0  0  0  0  0  0  0  0
   91.8077   96.9811  -42.8949 N   0  0  0  0  0  0  0  0  0  0  0  0
   91.3471   96.6184  -44.0807 N   0  0  0  0  0  0  0  0  0  0  0  0
   90.7849   97.5749  -44.8404 C   0  0  0  0  0  0  0  0  0  0  0  0
   90.3223   97.3025  -45.9848 O   0  0  0  0  0  0  0  0  0  0  0  0
   91.0688  100.5843  -42.7373 N   0  0  0  0  0  0  0  0  0  0  0  0
   91.9924  101.6128  -43.2025 C   0  0  0  0  0  0  0  0  0  0  0  0
   92.8102  102.0027  -41.9558 C   0  0  0  0  0  0  0  0  0  0  0  0
   91.9381  102.3426  -40.8754 N   0  0  0  0  0  0  0  0  0  0  0  0
   90.4883  102.3608  -41.1635 C   0  0  0  0  0  0  0  0  0  0  0  0
   90.0565  101.0613  -41.8127 C   0  0  0  0  0  0  0  0  0  0  0  0
   92.3915  102.6597  -39.5684 C   0  0  0  0  0  0  0  0  0  0  0  0
   91.5796  102.9554  -38.6411 O   0  0  0  0  0  0  0  0  0  0  0  0
   93.8178  102.6687  -39.1984 C   0  0  0  0  0  0  0  0  0  0  0  0
   94.4377  103.7898  -39.6582 O   0  0  0  0  0  0  0  0  0  0  0  0
   95.4487  104.1273  -38.7674 C   0  0  0  0  0  0  0  0  0  0  0  0
   94.7495  103.9067  -37.4335 C   0  0  0  0  0  0  0  0  0  0  0  0
   94.0223  102.6057  -37.7015 C   0  0  0  0  0  0  0  0  0  0  0  0
   91.4420   95.2622  -44.5414 C   0  0  0  0  0  0  0  0  0  0  0  0
   91.8108   94.2568  -43.6716 C   0  0  0  0  0  0  0  0  0  0  0  0
   91.9069   92.9317  -44.1062 C   0  0  0  0  0  0  0  0  0  0  0  0
   91.6347   92.6100  -45.4116 C   0  0  0  0  0  0  0  0  0  0  0  0
   91.2679   93.5994  -46.2877 C   0  0  0  0  0  0  0  0  0  0  0  0
   91.1772   94.8965  -45.8449 C   0  0  0  0  0  0  0  0  0  0  0  0
  1  2  1  0  0  0
  2  3  2  0  0  0
  2  7  1  0  0  0
  3  4  1  0  0  0
  3  9  1  0  0  0
  4  5  2  0  0  0
  5  6  1  0  0  0
  6  7  1  0  0  0
  6 22  1  0  0  0
  7  8  2  0  0  0
 22 23  2  0  0  0
 22 27  1  0  0  0
 23 24  1  0  0  0
 24 25  2  0  0  0
 25 26  1  0  0  0
 26 27  2  0  0  0
  9 10  1  0  0  0
  9 14  1  0  0  0
 10 11  1  0  0  0
 11 12  1  0  0  0
 12 13  1  0  0  0
 12 15  1  0  0  0
 13 14  1  0  0  0
 15 16  2  0  0  0
 15 17  1  0  0  0
 17 18  1  0  0  0
 17 21  1  0  0  0
 18 19  1  0  0  0
 19 20  1  0  0  0
 20 21  1  0  0  0
M  END
> <minimizedAffinity>
-6.76126

$$$$
2381


 30 33  0  0  0  0  0  0  0  0999 V2000
   92.0048  100.1014  -42.7769 N   0  0  0  0  0  0  0  0  0  0  0  0
   92.6763  100.5365  -43.9699 C   0  0  0  0  0  0  0  0  0  0  0  0
   91.9987  100.0046  -45.2131 C   0  0  0  0  0  0  0  0  0  0  0  0
   91.4359   98.6943  -45.0016 N   0  0  0  0  0  0  0  0  0  0  0  0
   91.8194   97.9575  -43.8219 C   0  0  0  0  0  0  0  0  0  0  0  0
   91.4297   98.7803  -42.6208 C   0  0  0  0  0  0  0  0  0  0  0  0
   90.5238   98.1494  -45.9408 C   0  0  0  0  0  0  0  0  0  0  0  0
   90.1809   98.7947  -46.9831 O   0  0  0  0  0  0  0  0  0  0  0  0
   89.7196  102.0591  -42.9046 Cl  0  0  0  0  0  0  0  0  0  0  0  0
   90.8983  101.9689  -41.6159 C   0  0  0  0  0  0  0  0  0  0  0  0
   91.8958  101.0172  -41.6860 C   0  0  0  0  0  0  0  0  0  0  0  0
   92.7937  100.9983  -40.6337 C   0  0  0  0  0  0  0  0  0  0  0  0
   92.7005  101.8569  -39.6012 N   0  0  0  0  0  0  0  0  0  0  0  0
   91.7515  102.7754  -39.5181 N   0  0  0  0  0  0  0  0  0  0  0  0
   90.8602  102.8227  -40.5246 C   0  0  0  0  0  0  0  0  0  0  0  0
   89.9615  103.6871  -40.4546 O   0  0  0  0  0  0  0  0  0  0  0  0
   91.6611  103.6847  -38.4175 C   0  0  0  0  0  0  0  0  0  0  0  0
   92.3006  104.9068  -38.4554 C   0  0  0  0  0  0  0  0  0  0  0  0
   92.2189  105.7900  -37.3980 C   0  0  0  0  0  0  0  0  0  0  0  0
   91.4986  105.4959  -36.2585 C   0  0  0  0  0  0  0  0  0  0  0  0
   90.8564  104.2762  -36.2148 C   0  0  0  0  0  0  0  0  0  0  0  0
   90.9418  103.3991  -37.2719 C   0  0  0  0  0  0  0  0  0  0  0  0
   89.9156   96.8035  -45.7709 C   0  0  0  0  0  0  0  0  0  0  0  0
   90.6622   95.8060  -46.4134 O   0  0  0  0  0  0  0  0  0  0  0  0
   91.1150   94.7054  -45.7117 C   0  0  0  0  0  0  0  0  0  0  0  0
   91.2902   93.4429  -46.1174 N   0  0  0  0  0  0  0  0  0  0  0  0
   91.7340   92.7159  -45.1448 O   0  0  0  0  0  0  0  0  0  0  0  0
   91.8841   93.4244  -44.0448 C   0  0  0  0  0  0  0  0  0  0  0  0
   91.4951   94.7062  -44.3770 C   0  0  0  0  0  0  0  0  0  0  0  0
   92.3756   92.8658  -42.7722 C   0  0  0  0  0  0  0  0  0  0  0  0
  9 10  1  0  0  0
 10 11  2  0  0  0
 10 15  1  0  0  0
 11 12  1  0  0  0
 11  1  1  0  0  0
 12 13  2  0  0  0
 13 14  1  0  0  0
 14 15  1  0  0  0
 14 17  1  0  0  0
 15 16  2  0  0  0
 17 18  2  0  0  0
 17 22  1  0  0  0
 18 19  1  0  0  0
 19 20  2  0  0  0
 20 21  1  0  0  0
 21 22  2  0  0  0
  1  2  1  0  0  0
  1  6  1  0  0  0
  2  3  1  0  0  0
  3  4  1  0  0  0
  4  5  1  0  0  0
  4  7  1  0  0  0
  5  6  1  0  0  0
  7  8  2  0  0  0
  7 23  1  0  0  0
 23 24  1  0  0  0
 24 25  1  0  0  0
 25 26  2  0  0  0
 25 29  1  0  0  0
 26 27  1  0  0  0
 27 28  1  0  0  0
 28 29  2  0  0  0
 28 30  1  0  0  0
M  END
> <minimizedAffinity>
-6.14708

$$$$
2386


 30 33  0  0  0  0  0  0  0  0999 V2000
   85.0975  100.3079  -43.4202 Cl  0  0  0  0  0  0  0  0  0  0  0  0
   86.8035  100.7300  -43.3145 C   0  0  0  0  0  0  0  0  0  0  0  0
   87.7132   99.6788  -43.2243 C   0  0  0  0  0  0  0  0  0  0  0  0
   89.0510   99.9924  -43.1405 C   0  0  0  0  0  0  0  0  0  0  0  0
   89.4622  101.3187  -43.1477 C   0  0  0  0  0  0  0  0  0  0  0  0
   88.5482  102.3615  -43.2379 C   0  0  0  0  0  0  0  0  0  0  0  0
   87.2042  102.0454  -43.3212 C   0  0  0  0  0  0  0  0  0  0  0  0
   90.7869  101.7139  -43.0670 O   0  0  0  0  0  0  0  0  0  0  0  0
   91.8794  101.0783  -42.4636 C   0  0  0  0  0  0  0  0  0  0  0  0
   92.2257   99.7329  -42.9891 C   0  0  0  0  0  0  0  0  0  0  0  0
   91.1822   99.0091  -43.6401 N   0  0  0  0  0  0  0  0  0  0  0  0
   89.8607   98.7478  -43.0541 C   0  0  0  0  0  0  0  0  0  0  0  0
   91.4165   98.4882  -44.9423 C   0  0  0  0  0  0  0  0  0  0  0  0
   92.5465   98.6963  -45.4405 O   0  0  0  0  0  0  0  0  0  0  0  0
   93.1062  101.9974  -42.6158 C   0  0  0  0  0  0  0  0  0  0  0  0
   92.6779  103.3593  -42.1401 C   0  0  0  0  0  0  0  0  0  0  0  0
   91.4073  103.3575  -41.5922 O   0  0  0  0  0  0  0  0  0  0  0  0
   91.2777  102.4629  -40.5445 C   0  0  0  0  0  0  0  0  0  0  0  0
   91.6480  101.0513  -40.9443 C   0  0  0  0  0  0  0  0  0  0  0  0
   90.4088   97.7413  -45.6789 C   0  0  0  0  0  0  0  0  0  0  0  0
   90.4267   96.2700  -45.5933 C   0  0  0  0  0  0  0  0  0  0  0  0
   91.6845   95.5685  -45.2896 C   0  0  0  0  0  0  0  0  0  0  0  0
   91.7318   94.5898  -44.2682 N   0  0  0  0  0  0  0  0  0  0  0  0
   91.6687   93.1887  -44.4648 C   0  0  0  0  0  0  0  0  0  0  0  0
   91.5695   92.5480  -45.5531 O   0  0  0  0  0  0  0  0  0  0  0  0
   91.7405   92.5847  -43.1852 N   0  0  0  0  0  0  0  0  0  0  0  0
   92.2218   93.5759  -42.2256 C   0  0  0  0  0  0  0  0  0  0  0  0
   91.8400   94.8444  -42.8815 C   0  0  0  0  0  0  0  0  0  0  0  0
   91.6479   95.9594  -42.2755 O   0  0  0  0  0  0  0  0  0  0  0  0
   91.5008   91.6067  -42.9285 H   0  0  0  0  0  0  0  0  0  0  0  0
  1  2  1  0  0  0
  2  3  2  0  0  0
  2  7  1  0  0  0
  3  4  1  0  0  0
  4  5  2  0  0  0
  4 12  1  0  0  0
  5  6  1  0  0  0
  5  8  1  0  0  0
  6  7  2  0  0  0
  8  9  1  0  0  0
  9 10  1  0  0  0
  9 15  1  0  0  0
  9 19  1  0  0  0
 10 11  1  0  0  0
 11 12  1  0  0  0
 11 13  1  0  0  0
 13 14  2  0  0  0
 13 20  1  0  0  0
 20 21  1  0  0  0
 21 22  1  0  0  0
 22 23  1  0  0  0
 23 24  1  0  0  0
 23 28  1  0  0  0
 24 25  2  0  0  0
 24 26  1  0  0  0
 26 27  1  0  0  0
 27 28  1  0  0  0
 28 29  2  0  0  0
 15 16  1  0  0  0
 16 17  1  0  0  0
 17 18  1  0  0  0
 18 19  1  0  0  0
 26 30  1  0  0  0
M  END
> <minimizedAffinity>
-6.43017

$$$$
2402


 33 36  0  0  0  0  0  0  0  0999 V2000
   90.4414   98.6564  -44.4923 C   0  0  0  0  0  0  0  0  0  0  0  0
   89.0330   98.7595  -44.7324 N   0  0  0  0  0  0  0  0  0  0  0  0
   88.7747   98.9791  -46.1105 C   0  0  0  0  0  0  0  0  0  0  0  0
   87.6982   98.9482  -46.7542 O   0  0  0  0  0  0  0  0  0  0  0  0
   90.0615   99.2832  -46.7784 C   0  0  0  0  0  0  0  0  0  0  0  0
   90.2380   99.5340  -47.9969 O   0  0  0  0  0  0  0  0  0  0  0  0
   91.0556   99.2256  -45.7232 C   0  0  0  0  0  0  0  0  0  0  0  0
   92.3238   99.6182  -45.8978 C   0  0  0  0  0  0  0  0  0  0  0  0
   93.1385   99.4550  -44.7702 O   0  0  0  0  0  0  0  0  0  0  0  0
   92.8288  100.1755  -47.1473 C   0  0  0  0  0  0  0  0  0  0  0  0
   93.2817   99.5988  -48.2066 O   0  0  0  0  0  0  0  0  0  0  0  0
   93.6574  100.4114  -49.1488 C   0  0  0  0  0  0  0  0  0  0  0  0
   93.4427  101.7049  -48.6977 C   0  0  0  0  0  0  0  0  0  0  0  0
   92.9134  101.5267  -47.4181 C   0  0  0  0  0  0  0  0  0  0  0  0
   93.7581  102.7707  -49.5066 C   0  0  0  0  0  0  0  0  0  0  0  0
   94.2855  102.5715  -50.7615 C   0  0  0  0  0  0  0  0  0  0  0  0
   94.5038  101.2791  -51.2217 C   0  0  0  0  0  0  0  0  0  0  0  0
   94.1870  100.2327  -50.4146 C   0  0  0  0  0  0  0  0  0  0  0  0
   94.3909   98.9372  -50.8419 O   0  0  0  0  0  0  0  0  0  0  0  0
   95.5457   98.4898  -51.5389 C   0  0  0  0  0  0  0  0  0  0  0  0
   92.4778   93.1585  -42.5715 Br  0  0  0  0  0  0  0  0  0  0  0  0
   91.8382   94.8297  -43.2452 C   0  0  0  0  0  0  0  0  0  0  0  0
   91.7659   95.8827  -42.3798 C   0  0  0  0  0  0  0  0  0  0  0  0
   91.3136   97.0897  -42.8246 C   0  0  0  0  0  0  0  0  0  0  0  0
   90.9121   97.3316  -44.1245 C   0  0  0  0  0  0  0  0  0  0  0  0
   90.9958   96.2520  -44.9774 C   0  0  0  0  0  0  0  0  0  0  0  0
   91.4531   95.0057  -44.5530 C   0  0  0  0  0  0  0  0  0  0  0  0
   87.9963   98.6586  -43.7417 C   0  0  0  0  0  0  0  0  0  0  0  0
   88.3291   99.4688  -42.5021 C   0  0  0  0  0  0  0  0  0  0  0  0
   87.6694  100.7280  -42.4498 N   0  0  0  0  0  0  0  0  0  0  0  0
   88.4483  101.8599  -42.8499 C   0  0  0  0  0  0  0  0  0  0  0  0
   86.4103  100.6875  -43.1813 C   0  0  0  0  0  0  0  0  0  0  0  0
   87.4010  100.8998  -41.4350 H   0  0  0  0  0  0  0  0  0  0  0  0
 21 22  1  0  0  0
 22 23  2  0  0  0
 22 27  1  0  0  0
 23 24  1  0  0  0
 24 25  2  0  0  0
 25 26  1  0  0  0
 25  1  1  0  0  0
 26 27  2  0  0  0
  1  2  1  0  0  0
  1  7  1  0  0  0
  2  3  1  0  0  0
  2 28  1  0  0  0
  3  4  2  0  0  0
  3  5  1  0  0  0
  5  6  2  0  0  0
  5  7  1  0  0  0
  7  8  2  0  0  0
  8  9  1  0  0  0
  8 10  1  0  0  0
 10 11  1  0  0  0
 10 14  2  0  0  0
 11 12  1  0  0  0
 12 13  2  0  0  0
 12 18  1  0  0  0
 13 14  1  0  0  0
 13 15  1  0  0  0
 15 16  2  0  0  0
 16 17  1  0  0  0
 17 18  2  0  0  0
 18 19  1  0  0  0
 19 20  1  0  0  0
 28 29  1  0  0  0
 29 30  1  0  0  0
 30 31  1  0  0  0
 30 32  1  0  0  0
 30 33  1  0  0  0
M  CHG 1   9  -1
M  CHG 1  30   1
M  END
> <minimizedAffinity>
-6.24388

$$$$
2403


 26 29  0  0  0  0  0  0  0  0999 V2000
   91.3213   98.1281  -42.5154 C   0  0  0  0  0  0  0  0  0  0  0  0
   91.3234   99.4624  -43.0820 N   0  0  0  0  0  0  0  0  0  0  0  0
   90.3166  100.3287  -43.2654 C   0  0  0  0  0  0  0  0  0  0  0  0
   90.7702  101.4949  -43.8723 C   0  0  0  0  0  0  0  0  0  0  0  0
   92.0986  101.3033  -44.0521 N   0  0  0  0  0  0  0  0  0  0  0  0
   92.4309  100.0978  -43.5836 C   0  0  0  0  0  0  0  0  0  0  0  0
   89.9707  102.5392  -44.1713 N   0  0  0  0  0  0  0  0  0  0  0  0
   88.6709  102.4067  -43.8473 C   0  0  0  0  0  0  0  0  0  0  0  0
   87.9077  103.3737  -44.1198 O   0  0  0  0  0  0  0  0  0  0  0  0
   88.1821  101.3039  -43.2598 N   0  0  0  0  0  0  0  0  0  0  0  0
   88.9797  100.2575  -42.9604 C   0  0  0  0  0  0  0  0  0  0  0  0
   88.5448   99.2257  -42.4128 O   0  0  0  0  0  0  0  0  0  0  0  0
   86.7790  101.1652  -42.9116 C   0  0  0  0  0  0  0  0  0  0  0  0
   90.5067  103.7278  -44.8066 C   0  0  0  0  0  0  0  0  0  0  0  0
   91.2473   91.4348  -47.3245 Br  0  0  0  0  0  0  0  0  0  0  0  0
   91.4020   92.8158  -46.0207 C   0  0  0  0  0  0  0  0  0  0  0  0
   90.8943   94.0495  -46.3247 C   0  0  0  0  0  0  0  0  0  0  0  0
   90.9931   95.0420  -45.4157 N   0  0  0  0  0  0  0  0  0  0  0  0
   91.5788   94.8316  -44.2274 C   0  0  0  0  0  0  0  0  0  0  0  0
   91.6782   95.8361  -43.3080 N   0  0  0  0  0  0  0  0  0  0  0  0
   91.1930   97.0636  -43.5663 C   0  0  0  0  0  0  0  0  0  0  0  0
   90.5975   97.2572  -44.7880 C   0  0  0  0  0  0  0  0  0  0  0  0
   90.4810   96.2654  -45.7371 C   0  0  0  0  0  0  0  0  0  0  0  0
   89.9474   96.4170  -46.8466 O   0  0  0  0  0  0  0  0  0  0  0  0
   92.0953   93.5854  -43.9107 C   0  0  0  0  0  0  0  0  0  0  0  0
   92.0108   92.5559  -44.8145 C   0  0  0  0  0  0  0  0  0  0  0  0
 15 16  1  0  0  0
 16 17  2  0  0  0
 16 26  1  0  0  0
 17 18  1  0  0  0
 18 19  1  0  0  0
 18 23  1  0  0  0
 19 20  2  0  0  0
 19 25  1  0  0  0
 20 21  1  0  0  0
 21 22  2  0  0  0
 21  1  1  0  0  0
 22 23  1  0  0  0
 23 24  2  0  0  0
  1  2  1  0  0  0
  2  3  1  0  0  0
  2  6  1  0  0  0
  3  4  2  0  0  0
  3 11  1  0  0  0
  4  5  1  0  0  0
  4  7  1  0  0  0
  5  6  2  0  0  0
  7  8  1  0  0  0
  7 14  1  0  0  0
  8  9  2  0  0  0
  8 10  1  0  0  0
 10 11  1  0  0  0
 10 13  1  0  0  0
 11 12  2  0  0  0
 25 26  2  0  0  0
M  END
> <minimizedAffinity>
-6.48613

$$$$
2416


 34 37  0  0  0  0  0  0  0  0999 V2000
   85.0246   98.4038  -45.9337 N   0  0  0  0  0  0  0  0  0  0  0  0
   85.4343   99.6610  -46.3670 C   0  0  0  0  0  0  0  0  0  0  0  0
   86.0336  100.4265  -45.1795 C   0  0  0  0  0  0  0  0  0  0  0  0
   86.8494   99.5162  -44.3742 N   0  0  0  0  0  0  0  0  0  0  0  0
   86.1725   98.3458  -43.8513 C   0  0  0  0  0  0  0  0  0  0  0  0
   84.8070   98.2899  -44.5518 C   0  0  0  0  0  0  0  0  0  0  0  0
   88.2289   99.7887  -44.1567 C   0  0  0  0  0  0  0  0  0  0  0  0
   88.7030  100.8238  -44.6804 O   0  0  0  0  0  0  0  0  0  0  0  0
   84.5205   97.2252  -46.9845 S   0  0  0  0  0  0  0  0  0  0  0  0
   83.7217   96.1903  -46.2137 O   0  0  0  0  0  0  0  0  0  0  0  0
   83.5930   97.7222  -48.0737 O   0  0  0  0  0  0  0  0  0  0  0  0
   85.8409   96.3495  -47.7672 C   0  0  0  0  0  0  0  0  0  0  0  0
   87.1578   96.6204  -47.4756 C   0  0  0  0  0  0  0  0  0  0  0  0
   88.1529   95.9144  -48.1155 C   0  0  0  0  0  0  0  0  0  0  0  0
   87.9008   94.9289  -49.0518 C   0  0  0  0  0  0  0  0  0  0  0  0
   86.5698   94.6570  -49.3442 C   0  0  0  0  0  0  0  0  0  0  0  0
   85.5796   95.3656  -48.7025 C   0  0  0  0  0  0  0  0  0  0  0  0
   89.1459   94.0348  -49.8597 Cl  0  0  0  0  0  0  0  0  0  0  0  0
   89.0522   98.8862  -43.3525 C   0  0  0  0  0  0  0  0  0  0  0  0
   90.4794   98.7306  -43.8570 C   0  0  0  0  0  0  0  0  0  0  0  0
   90.6260   97.7118  -44.8627 N   0  0  0  0  0  0  0  0  0  0  0  0
   91.2613   96.4414  -44.8532 C   0  0  0  0  0  0  0  0  0  0  0  0
   91.6064   95.9002  -45.9369 O   0  0  0  0  0  0  0  0  0  0  0  0
   91.5937   95.6206  -43.6686 C   0  0  0  0  0  0  0  0  0  0  0  0
   91.8055   96.0793  -42.3637 C   0  0  0  0  0  0  0  0  0  0  0  0
   92.0978   95.1834  -41.3749 C   0  0  0  0  0  0  0  0  0  0  0  0
   92.1945   93.8101  -41.6074 C   0  0  0  0  0  0  0  0  0  0  0  0
   91.9762   93.3836  -42.9178 C   0  0  0  0  0  0  0  0  0  0  0  0
   91.6820   94.2763  -43.9250 C   0  0  0  0  0  0  0  0  0  0  0  0
   91.7470   97.4321  -41.9372 N   0  0  0  0  0  0  0  0  0  0  0  0
   91.3927   98.5877  -42.7031 C   0  0  0  0  0  0  0  0  0  0  0  0
   91.9844   99.6461  -42.2881 O   0  0  0  0  0  0  0  0  0  0  0  0
   90.1882   97.9047  -45.8179 H   0  0  0  0  0  0  0  0  0  0  0  0
   91.9879   97.5859  -40.9585 H   0  0  0  0  0  0  0  0  0  0  0  0
  9 10  2  0  0  0
  9 11  2  0  0  0
  9  1  1  0  0  0
  9 12  1  0  0  0
  1  2  1  0  0  0
  1  6  1  0  0  0
  2  3  1  0  0  0
  3  4  1  0  0  0
  4  5  1  0  0  0
  4  7  1  0  0  0
  5  6  1  0  0  0
  7  8  2  0  0  0
  7 19  1  0  0  0
 19 20  1  0  0  0
 20 21  1  0  0  0
 20 31  1  0  0  0
 21 22  1  0  0  0
 22 23  2  0  0  0
 22 24  1  0  0  0
 24 25  2  0  0  0
 24 29  1  0  0  0
 25 26  1  0  0  0
 25 30  1  0  0  0
 26 27  2  0  0  0
 27 28  1  0  0  0
 28 29  2  0  0  0
 30 31  1  0  0  0
 31 32  2  0  0  0
 12 13  2  0  0  0
 12 17  1  0  0  0
 13 14  1  0  0  0
 14 15  2  0  0  0
 15 16  1  0  0  0
 15 18  1  0  0  0
 16 17  2  0  0  0
 21 33  1  0  0  0
 30 34  1  0  0  0
M  END
> <minimizedAffinity>
-7.26989

$$$$
2417


 27 30  0  0  0  0  0  0  0  0999 V2000
   89.9815   98.9164  -44.4887 N   0  0  0  0  0  0  0  0  0  0  0  0
   90.3161  100.3372  -44.2365 C   0  0  0  0  0  0  0  0  0  0  0  0
   90.2707  100.4234  -42.7800 C   0  0  0  0  0  0  0  0  0  0  0  0
   88.9080   99.8088  -42.5029 C   0  0  0  0  0  0  0  0  0  0  0  0
   89.0996   98.5583  -43.4620 C   0  0  0  0  0  0  0  0  0  0  0  0
   87.8076  100.5913  -43.1597 C   0  0  0  0  0  0  0  0  0  0  0  0
   86.8083  100.8887  -42.1961 O   0  0  0  0  0  0  0  0  0  0  0  0
   87.2793  101.4813  -41.4929 H   0  0  0  0  0  0  0  0  0  0  0  0
   91.2672   98.2103  -44.5956 C   0  0  0  0  0  0  0  0  0  0  0  0
   92.0849   97.5585  -41.7324 Cl  0  0  0  0  0  0  0  0  0  0  0  0
   91.8717   95.9362  -42.3817 C   0  0  0  0  0  0  0  0  0  0  0  0
   91.5694   95.8197  -43.7174 C   0  0  0  0  0  0  0  0  0  0  0  0
   91.5014   94.5505  -44.2435 C   0  0  0  0  0  0  0  0  0  0  0  0
   91.1204   94.7263  -45.5278 N   0  0  0  0  0  0  0  0  0  0  0  0
   90.9500   95.9995  -45.7650 N   0  0  0  0  0  0  0  0  0  0  0  0
   91.2202   96.7709  -44.6499 C   0  0  0  0  0  0  0  0  0  0  0  0
   91.0390   93.6406  -46.5204 C   0  0  0  0  0  0  0  0  0  0  0  0
   91.7076   93.4307  -43.4968 C   0  0  0  0  0  0  0  0  0  0  0  0
   92.0086   93.5679  -42.1384 C   0  0  0  0  0  0  0  0  0  0  0  0
   92.0851   94.8426  -41.5865 C   0  0  0  0  0  0  0  0  0  0  0  0
   90.3455  101.8139  -42.1998 C   0  0  0  0  0  0  0  0  0  0  0  0
   90.8683  101.7225  -40.8728 N   0  0  0  0  0  0  0  0  0  0  0  0
   92.1408  101.0346  -40.8119 C   0  0  0  0  0  0  0  0  0  0  0  0
   93.2524  101.8688  -40.2187 C   0  0  0  0  0  0  0  0  0  0  0  0
   92.9561  102.4009  -38.9849 O   0  0  0  0  0  0  0  0  0  0  0  0
   91.6194  102.7695  -38.8622 C   0  0  0  0  0  0  0  0  0  0  0  0
   91.0417  103.0019  -40.2248 C   0  0  0  0  0  0  0  0  0  0  0  0
 10 11  1  0  0  0
 11 12  2  0  0  0
 11 20  1  0  0  0
 12 13  1  0  0  0
 12 16  1  0  0  0
 13 14  1  0  0  0
 13 18  2  0  0  0
 14 15  1  0  0  0
 14 17  1  0  0  0
 15 16  2  0  0  0
 16  9  1  0  0  0
  9  1  1  0  0  0
  1  2  1  0  0  0
  1  5  1  0  0  0
  2  3  1  0  0  0
  3  4  1  0  0  0
  3 21  1  0  0  0
  4  5  1  0  0  0
  4  6  1  0  0  0
  6  7  1  0  0  0
 21 22  1  0  0  0
 22 23  1  0  0  0
 22 27  1  0  0  0
 23 24  1  0  0  0
 24 25  1  0  0  0
 25 26  1  0  0  0
 26 27  1  0  0  0
 18 19  1  0  0  0
 19 20  2  0  0  0
  7  8  1  0  0  0
M  END
> <minimizedAffinity>
-6.47202

$$$$
2419


 32 36  0  0  0  0  0  0  0  0999 V2000
   91.1926   98.8098  -43.1002 C   0  0  0  0  0  0  0  0  0  0  0  0
   91.4711   97.4974  -42.6841 C   0  0  0  0  0  0  0  0  0  0  0  0
   91.3849   96.7292  -43.7626 N   0  0  0  0  0  0  0  0  0  0  0  0
   91.5127   95.4117  -44.1087 C   0  0  0  0  0  0  0  0  0  0  0  0
   91.2598   95.3656  -45.4565 C   0  0  0  0  0  0  0  0  0  0  0  0
   91.0004   96.6024  -45.8525 N   0  0  0  0  0  0  0  0  0  0  0  0
   91.0758   97.4683  -44.8015 C   0  0  0  0  0  0  0  0  0  0  0  0
   90.9509   98.7726  -44.4152 N   0  0  0  0  0  0  0  0  0  0  0  0
   91.3003   94.1608  -46.1643 C   0  0  0  0  0  0  0  0  0  0  0  0
   91.6017   92.9906  -45.5017 C   0  0  0  0  0  0  0  0  0  0  0  0
   91.8519   93.0638  -44.1502 C   0  0  0  0  0  0  0  0  0  0  0  0
   91.8125   94.2574  -43.4390 C   0  0  0  0  0  0  0  0  0  0  0  0
   90.7642   96.8415  -46.8341 H   0  0  0  0  0  0  0  0  0  0  0  0
   91.3923  103.5413  -39.1327 Br  0  0  0  0  0  0  0  0  0  0  0  0
   91.3114  102.0707  -40.3738 C   0  0  0  0  0  0  0  0  0  0  0  0
   92.2985  101.1359  -40.4381 C   0  0  0  0  0  0  0  0  0  0  0  0
   92.2362  100.0951  -41.3196 C   0  0  0  0  0  0  0  0  0  0  0  0
   91.1768   99.9339  -42.1896 C   0  0  0  0  0  0  0  0  0  0  0  0
   90.1944  100.8627  -42.1272 C   0  0  0  0  0  0  0  0  0  0  0  0
   90.2441  101.9479  -41.2186 C   0  0  0  0  0  0  0  0  0  0  0  0
   90.6017   99.7958  -45.3526 C   0  0  0  0  0  0  0  0  0  0  0  0
   91.7044  100.5580  -45.9687 C   0  0  0  0  0  0  0  0  0  0  0  0
   92.0402  101.8998  -45.4256 C   0  0  0  0  0  0  0  0  0  0  0  0
   93.1740  101.8535  -44.5290 N   0  0  0  0  0  0  0  0  0  0  0  0
   93.4106  100.9430  -44.1429 H   0  0  0  0  0  0  0  0  0  0  0  0
   94.0312  102.0956  -45.1483 H   0  0  0  0  0  0  0  0  0  0  0  0
   93.1474  102.8794  -43.5288 C   0  0  0  0  0  0  0  0  0  0  0  0
   94.4961  103.3274  -43.0409 C   0  0  0  0  0  0  0  0  0  0  0  0
   94.2525  104.0204  -41.6920 C   0  0  0  0  0  0  0  0  0  0  0  0
   93.3852  105.2095  -41.9202 C   0  0  0  0  0  0  0  0  0  0  0  0
   92.1104  104.8998  -42.6700 C   0  0  0  0  0  0  0  0  0  0  0  0
   92.4194  104.1436  -43.9672 C   0  0  0  0  0  0  0  0  0  0  0  0
 14 15  1  0  0  0
 15 16  2  0  0  0
 15 20  1  0  0  0
 16 17  1  0  0  0
 17 18  2  0  0  0
 18 19  1  0  0  0
 18  1  1  0  0  0
 19 20  2  0  0  0
  1  2  2  0  0  0
  1  8  1  0  0  0
  2  3  1  0  0  0
  3  4  1  0  0  0
  3  7  1  0  0  0
  4  5  2  0  0  0
  4 12  1  0  0  0
  5  6  1  0  0  0
  5  9  1  0  0  0
  6  7  2  0  0  0
  7  8  1  0  0  0
  8 21  1  0  0  0
 21 22  1  0  0  0
 22 23  1  0  0  0
 23 24  1  0  0  0
 24 27  1  0  0  0
 27 28  1  0  0  0
 27 32  1  0  0  0
 28 29  1  0  0  0
 29 30  1  0  0  0
 30 31  1  0  0  0
 31 32  1  0  0  0
  9 10  2  0  0  0
 10 11  1  0  0  0
 11 12  2  0  0  0
  6 13  1  0  0  0
 24 25  1  0  0  0
 24 26  1  0  0  0
M  CHG 1  24   1
M  END
> <minimizedAffinity>
-6.10942

$$$$
2420


 29 32  0  0  0  0  0  0  0  0999 V2000
   91.1333   98.6247  -43.2552 N   0  0  0  0  0  0  0  0  0  0  0  0
   92.0820   99.6163  -43.7585 C   0  0  0  0  0  0  0  0  0  0  0  0
   91.2559  100.4021  -44.7521 C   0  0  0  0  0  0  0  0  0  0  0  0
   89.9347  100.5686  -44.0105 C   0  0  0  0  0  0  0  0  0  0  0  0
   89.9024   99.3437  -43.1361 C   0  0  0  0  0  0  0  0  0  0  0  0
   88.9332   98.9915  -42.3999 O   0  0  0  0  0  0  0  0  0  0  0  0
   91.4055   92.2761  -46.3470 Br  0  0  0  0  0  0  0  0  0  0  0  0
   91.3788   93.8968  -45.3496 C   0  0  0  0  0  0  0  0  0  0  0  0
   91.6653   93.9014  -44.0028 C   0  0  0  0  0  0  0  0  0  0  0  0
   91.6511   95.0527  -43.2732 C   0  0  0  0  0  0  0  0  0  0  0  0
   91.8825   95.3724  -41.9684 N   0  0  0  0  0  0  0  0  0  0  0  0
   91.7270   96.6765  -41.7987 N   0  0  0  0  0  0  0  0  0  0  0  0
   91.3935   97.2630  -42.9558 C   0  0  0  0  0  0  0  0  0  0  0  0
   91.3438   96.2386  -43.8936 C   0  0  0  0  0  0  0  0  0  0  0  0
   91.0507   96.2627  -45.2515 C   0  0  0  0  0  0  0  0  0  0  0  0
   91.0658   95.0990  -45.9868 C   0  0  0  0  0  0  0  0  0  0  0  0
   92.1401   94.6205  -41.2817 H   0  0  0  0  0  0  0  0  0  0  0  0
   91.0466   99.6517  -46.0133 C   0  0  0  0  0  0  0  0  0  0  0  0
   92.0477   99.1346  -46.5686 O   0  0  0  0  0  0  0  0  0  0  0  0
   89.7730   99.5003  -46.6071 N   0  0  0  0  0  0  0  0  0  0  0  0
   88.9588   99.9486  -46.1146 H   0  0  0  0  0  0  0  0  0  0  0  0
   89.5624   98.7721  -47.8318 C   0  0  0  0  0  0  0  0  0  0  0  0
   88.2533   98.0158  -47.7515 C   0  0  0  0  0  0  0  0  0  0  0  0
   87.5502   98.2391  -46.5121 N   0  0  0  0  0  0  0  0  0  0  0  0
   86.2309   98.7630  -46.8477 C   0  0  0  0  0  0  0  0  0  0  0  0
   85.2718   97.6189  -47.1654 C   0  0  0  0  0  0  0  0  0  0  0  0
   84.9813   96.8495  -46.0633 O   0  0  0  0  0  0  0  0  0  0  0  0
   85.9809   96.9893  -45.1291 C   0  0  0  0  0  0  0  0  0  0  0  0
   87.3572   97.0189  -45.7620 C   0  0  0  0  0  0  0  0  0  0  0  0
  7  8  1  0  0  0
  8  9  2  0  0  0
  8 16  1  0  0  0
  9 10  1  0  0  0
 10 11  1  0  0  0
 10 14  2  0  0  0
 11 12  1  0  0  0
 12 13  2  0  0  0
 13 14  1  0  0  0
 13  1  1  0  0  0
 14 15  1  0  0  0
 15 16  2  0  0  0
  1  2  1  0  0  0
  1  5  1  0  0  0
  2  3  1  0  0  0
  3  4  1  0  0  0
  3 18  1  0  0  0
  4  5  1  0  0  0
  5  6  2  0  0  0
 18 19  2  0  0  0
 18 20  1  0  0  0
 20 22  1  0  0  0
 22 23  1  0  0  0
 23 24  1  0  0  0
 24 25  1  0  0  0
 24 29  1  0  0  0
 25 26  1  0  0  0
 26 27  1  0  0  0
 27 28  1  0  0  0
 28 29  1  0  0  0
 11 17  1  0  0  0
 20 21  1  0  0  0
M  END
> <minimizedAffinity>
-5.89807

$$$$
2432


 26 29  0  0  0  0  0  0  0  0999 V2000
   89.7559  100.2936  -42.7496 C   0  0  0  0  0  0  0  0  0  0  0  0
   88.5723  100.0403  -42.2224 O   0  0  0  0  0  0  0  0  0  0  0  0
   89.9045  100.0503  -44.1057 N   0  0  0  0  0  0  0  0  0  0  0  0
   88.7445   99.4871  -44.8383 C   0  0  0  0  0  0  0  0  0  0  0  0
   89.2009   98.1581  -45.3782 C   0  0  0  0  0  0  0  0  0  0  0  0
   90.5889   97.8795  -45.1859 N   0  0  0  0  0  0  0  0  0  0  0  0
   91.6329   98.8935  -45.1683 C   0  0  0  0  0  0  0  0  0  0  0  0
   91.0242  100.2693  -44.9439 C   0  0  0  0  0  0  0  0  0  0  0  0
   91.0204   96.5387  -44.9935 C   0  0  0  0  0  0  0  0  0  0  0  0
   91.0653   95.6682  -46.0195 N   0  0  0  0  0  0  0  0  0  0  0  0
   91.4714   94.3871  -45.8540 C   0  0  0  0  0  0  0  0  0  0  0  0
   91.8470   93.9443  -44.6418 N   0  0  0  0  0  0  0  0  0  0  0  0
   91.8309   94.7501  -43.5678 C   0  0  0  0  0  0  0  0  0  0  0  0
   92.1509   94.5588  -42.2745 N   0  0  0  0  0  0  0  0  0  0  0  0
   91.9453   95.7017  -41.6513 N   0  0  0  0  0  0  0  0  0  0  0  0
   91.4957   96.6425  -42.5145 C   0  0  0  0  0  0  0  0  0  0  0  0
   91.4085   96.0707  -43.7564 C   0  0  0  0  0  0  0  0  0  0  0  0
   92.6368   93.3311  -41.6437 C   0  0  0  0  0  0  0  0  0  0  0  0
   94.0521  101.0176  -39.7388 Cl  0  0  0  0  0  0  0  0  0  0  0  0
   92.4711  101.1593  -40.4764 C   0  0  0  0  0  0  0  0  0  0  0  0
   91.9234  100.3883  -41.4568 N   0  0  0  0  0  0  0  0  0  0  0  0
   90.6919  100.7904  -41.7748 C   0  0  0  0  0  0  0  0  0  0  0  0
   90.4672  101.8850  -40.9299 C   0  0  0  0  0  0  0  0  0  0  0  0
   91.5591  102.1181  -40.1277 C   0  0  0  0  0  0  0  0  0  0  0  0
   91.7633  103.3643  -38.9154 Cl  0  0  0  0  0  0  0  0  0  0  0  0
   92.4812   99.5969  -41.8350 H   0  0  0  0  0  0  0  0  0  0  0  0
 19 20  1  0  0  0
 20 21  1  0  0  0
 20 24  2  0  0  0
 21 22  1  0  0  0
 22 23  2  0  0  0
 22  1  1  0  0  0
 23 24  1  0  0  0
 24 25  1  0  0  0
  1  2  2  0  0  0
  1  3  1  0  0  0
  3  4  1  0  0  0
  3  8  1  0  0  0
  4  5  1  0  0  0
  5  6  1  0  0  0
  6  7  1  0  0  0
  6  9  1  0  0  0
  7  8  1  0  0  0
  9 10  2  0  0  0
  9 17  1  0  0  0
 10 11  1  0  0  0
 11 12  2  0  0  0
 12 13  1  0  0  0
 13 14  1  0  0  0
 13 17  2  0  0  0
 14 15  1  0  0  0
 14 18  1  0  0  0
 15 16  2  0  0  0
 16 17  1  0  0  0
 21 26  1  0  0  0
M  END
> <minimizedAffinity>
-6.74924

$$$$
2439


 30 34  0  0  0  0  0  0  0  0999 V2000
   90.9911   98.5918  -43.4117 C   0  0  0  0  0  0  0  0  0  0  0  0
   91.3948   97.3045  -43.0143 C   0  0  0  0  0  0  0  0  0  0  0  0
   91.2635   96.4715  -44.0444 N   0  0  0  0  0  0  0  0  0  0  0  0
   91.4298   95.1736  -44.4093 C   0  0  0  0  0  0  0  0  0  0  0  0
   91.0497   95.0823  -45.7045 C   0  0  0  0  0  0  0  0  0  0  0  0
   90.6670   96.3077  -46.0922 N   0  0  0  0  0  0  0  0  0  0  0  0
   90.7950   97.1838  -45.0708 C   0  0  0  0  0  0  0  0  0  0  0  0
   90.6223   98.4940  -44.6968 N   0  0  0  0  0  0  0  0  0  0  0  0
   91.1049   93.8710  -46.3710 C   0  0  0  0  0  0  0  0  0  0  0  0
   91.5487   92.7282  -45.7255 C   0  0  0  0  0  0  0  0  0  0  0  0
   91.9390   92.8223  -44.3964 C   0  0  0  0  0  0  0  0  0  0  0  0
   91.8715   94.0440  -43.7652 C   0  0  0  0  0  0  0  0  0  0  0  0
   90.3068   96.5609  -47.0489 H   0  0  0  0  0  0  0  0  0  0  0  0
   91.4113  103.3207  -39.4214 Br  0  0  0  0  0  0  0  0  0  0  0  0
   91.2703  101.8754  -40.6414 C   0  0  0  0  0  0  0  0  0  0  0  0
   92.3087  101.0190  -40.8644 C   0  0  0  0  0  0  0  0  0  0  0  0
   92.1703   99.9770  -41.7603 C   0  0  0  0  0  0  0  0  0  0  0  0
   91.0032   99.7256  -42.4807 C   0  0  0  0  0  0  0  0  0  0  0  0
   89.9748  100.5856  -42.2495 C   0  0  0  0  0  0  0  0  0  0  0  0
   90.1108  101.6564  -41.3331 C   0  0  0  0  0  0  0  0  0  0  0  0
   90.1124   99.5060  -45.5614 C   0  0  0  0  0  0  0  0  0  0  0  0
   88.6823   99.3265  -46.0018 C   0  0  0  0  0  0  0  0  0  0  0  0
   87.6788   99.1538  -44.9509 C   0  0  0  0  0  0  0  0  0  0  0  0
   87.1224   97.8556  -44.7066 N   0  0  0  0  0  0  0  0  0  0  0  0
   85.8897   97.9143  -43.9416 C   0  0  0  0  0  0  0  0  0  0  0  0
   84.6498   98.0694  -44.7148 C   0  0  0  0  0  0  0  0  0  0  0  0
   84.7490   97.8824  -46.1831 C   0  0  0  0  0  0  0  0  0  0  0  0
   85.7726   96.8597  -46.5286 C   0  0  0  0  0  0  0  0  0  0  0  0
   87.0759   96.9941  -45.8341 C   0  0  0  0  0  0  0  0  0  0  0  0
   87.7792   97.4160  -44.0233 H   0  0  0  0  0  0  0  0  0  0  0  0
 14 15  1  0  0  0
 15 16  2  0  0  0
 15 20  1  0  0  0
 16 17  1  0  0  0
 17 18  2  0  0  0
 18 19  1  0  0  0
 18  1  1  0  0  0
 19 20  2  0  0  0
  1  2  2  0  0  0
  1  8  1  0  0  0
  2  3  1  0  0  0
  3  4  1  0  0  0
  3  7  1  0  0  0
  4  5  2  0  0  0
  4 12  1  0  0  0
  5  6  1  0  0  0
  5  9  1  0  0  0
  6  7  2  0  0  0
  7  8  1  0  0  0
  8 21  1  0  0  0
 21 22  1  0  0  0
 22 23  1  0  0  0
 23 24  1  0  0  0
 24 25  1  0  0  0
 24 29  1  0  0  0
 25 26  1  0  0  0
 26 27  1  0  0  0
 27 28  1  0  0  0
 28 29  1  0  0  0
  9 10  2  0  0  0
 10 11  1  0  0  0
 11 12  2  0  0  0
  6 13  1  0  0  0
 24 30  1  0  0  0
M  CHG 1  24   1
M  END
> <minimizedAffinity>
-6.70105

$$$$
2440


 33 36  0  0  0  0  0  0  0  0999 V2000
   94.7432  102.1861  -41.9519 Cl  0  0  0  0  0  0  0  0  0  0  0  0
   93.0355  101.8001  -41.7635 C   0  0  0  0  0  0  0  0  0  0  0  0
   92.4339  101.0421  -42.7791 C   0  0  0  0  0  0  0  0  0  0  0  0
   91.1071  100.7443  -42.6285 C   0  0  0  0  0  0  0  0  0  0  0  0
   90.3779  101.1808  -41.5025 C   0  0  0  0  0  0  0  0  0  0  0  0
   90.9771  101.9220  -40.5158 C   0  0  0  0  0  0  0  0  0  0  0  0
   92.3135  102.2186  -40.6722 C   0  0  0  0  0  0  0  0  0  0  0  0
   90.6913   99.9427  -43.7875 C   0  0  0  0  0  0  0  0  0  0  0  0
   89.5435  100.4312  -44.4640 N   0  0  0  0  0  0  0  0  0  0  0  0
   88.8265   99.3994  -45.0737 C   0  0  0  0  0  0  0  0  0  0  0  0
   89.3141   98.1333  -44.4036 C   0  0  0  0  0  0  0  0  0  0  0  0
   90.2975   98.5325  -43.3523 C   0  0  0  0  0  0  0  0  0  0  0  0
   91.4397   97.5837  -43.4217 C   0  0  0  0  0  0  0  0  0  0  0  0
   92.3922   97.5735  -42.6073 O   0  0  0  0  0  0  0  0  0  0  0  0
   91.2353   96.7328  -44.5504 N   0  0  0  0  0  0  0  0  0  0  0  0
   90.1418   97.2906  -45.2944 C   0  0  0  0  0  0  0  0  0  0  0  0
   89.9384   97.0847  -46.5013 O   0  0  0  0  0  0  0  0  0  0  0  0
   91.8817   99.8391  -44.6365 C   0  0  0  0  0  0  0  0  0  0  0  0
   92.0108   99.2667  -45.7633 O   0  0  0  0  0  0  0  0  0  0  0  0
   92.9491  100.5078  -43.9924 N   0  0  0  0  0  0  0  0  0  0  0  0
   89.6669  101.3117  -44.9905 H   0  0  0  0  0  0  0  0  0  0  0  0
   93.9422  100.6148  -44.3070 H   0  0  0  0  0  0  0  0  0  0  0  0
   91.9523   95.5457  -44.9017 C   0  0  0  0  0  0  0  0  0  0  0  0
   91.3885   94.2675  -44.3938 C   0  0  0  0  0  0  0  0  0  0  0  0
   92.1434   93.5930  -43.3039 C   0  0  0  0  0  0  0  0  0  0  0  0
   91.7284   94.1014  -41.9279 C   0  0  0  0  0  0  0  0  0  0  0  0
   87.3521   99.4894  -45.1522 C   0  0  0  0  0  0  0  0  0  0  0  0
   86.5627   99.1395  -43.9548 C   0  0  0  0  0  0  0  0  0  0  0  0
   85.7631   97.9110  -44.0045 C   0  0  0  0  0  0  0  0  0  0  0  0
   86.0436   97.0050  -44.8112 O   0  0  0  0  0  0  0  0  0  0  0  0
   84.6439   97.6816  -43.1524 N   0  0  0  0  0  0  0  0  0  0  0  0
   84.7232   97.5404  -42.1298 H   0  0  0  0  0  0  0  0  0  0  0  0
   83.6997   97.6548  -43.5729 H   0  0  0  0  0  0  0  0  0  0  0  0
  1  2  1  0  0  0
  2  3  2  0  0  0
  2  7  1  0  0  0
  3  4  1  0  0  0
  3 20  1  0  0  0
  4  5  2  0  0  0
  4  8  1  0  0  0
  5  6  1  0  0  0
  6  7  2  0  0  0
  8  9  1  0  0  0
  8 12  1  0  0  0
  8 18  1  0  0  0
  9 10  1  0  0  0
 10 11  1  0  0  0
 10 27  1  0  0  0
 11 12  1  0  0  0
 11 16  1  0  0  0
 12 13  1  0  0  0
 13 14  2  0  0  0
 13 15  1  0  0  0
 15 16  1  0  0  0
 15 23  1  0  0  0
 16 17  2  0  0  0
 23 24  1  0  0  0
 24 25  1  0  0  0
 25 26  1  0  0  0
 27 28  1  0  0  0
 28 29  1  0  0  0
 29 30  2  0  0  0
 29 31  1  0  0  0
 18 19  2  0  0  0
 18 20  1  0  0  0
  9 21  1  0  0  0
 31 32  1  0  0  0
 31 33  1  0  0  0
 20 22  1  0  0  0
M  END
> <minimizedAffinity>
-7.12345

$$$$
2447


 33 36  0  0  0  0  0  0  0  0999 V2000
   85.3781   99.2417  -45.3596 C   0  0  0  0  0  0  0  0  0  0  0  0
   84.8364  100.5808  -44.9879 C   0  0  0  0  0  0  0  0  0  0  0  0
   83.6334  100.8933  -45.1550 O   0  0  0  0  0  0  0  0  0  0  0  0
   85.7875  101.4401  -44.4438 O   0  0  0  0  0  0  0  0  0  0  0  0
   86.9038  101.0334  -43.7433 C   0  0  0  0  0  0  0  0  0  0  0  0
   87.0903   99.7066  -43.5703 C   0  0  0  0  0  0  0  0  0  0  0  0
   86.1140   98.7931  -44.1234 C   0  0  0  0  0  0  0  0  0  0  0  0
   85.8743   97.6841  -43.6171 O   0  0  0  0  0  0  0  0  0  0  0  0
   84.3232   98.2694  -45.7532 C   0  0  0  0  0  0  0  0  0  0  0  0
   86.8714   96.7506  -48.6194 N   0  0  0  0  0  0  0  0  0  0  0  0
   86.8195   96.5521  -47.2099 C   0  0  0  0  0  0  0  0  0  0  0  0
   85.3728   96.3592  -46.7995 C   0  0  0  0  0  0  0  0  0  0  0  0
   84.7093   97.6292  -46.9612 N   0  0  0  0  0  0  0  0  0  0  0  0
   85.2028   98.4426  -48.0095 C   0  0  0  0  0  0  0  0  0  0  0  0
   85.7699   97.5246  -49.0933 C   0  0  0  0  0  0  0  0  0  0  0  0
   87.2101   95.3520  -49.5230 S   0  0  0  0  0  0  0  0  0  0  0  0
   86.1201   94.3051  -49.4381 O   0  0  0  0  0  0  0  0  0  0  0  0
   87.2910   95.7488  -50.9911 O   0  0  0  0  0  0  0  0  0  0  0  0
   88.7341   94.5909  -49.1079 C   0  0  0  0  0  0  0  0  0  0  0  0
   88.2458   99.1950  -42.8208 C   0  0  0  0  0  0  0  0  0  0  0  0
   89.4130   98.9902  -43.5752 N   0  0  0  0  0  0  0  0  0  0  0  0
   89.4045   98.1793  -44.7165 C   0  0  0  0  0  0  0  0  0  0  0  0
   90.8336   97.6861  -45.0377 C   0  0  0  0  0  0  0  0  0  0  0  0
   91.3467   97.1973  -43.7835 N   0  0  0  0  0  0  0  0  0  0  0  0
   91.6144   98.2362  -42.7995 C   0  0  0  0  0  0  0  0  0  0  0  0
   90.6548   99.3966  -43.0253 C   0  0  0  0  0  0  0  0  0  0  0  0
   91.5587   95.8285  -43.5276 C   0  0  0  0  0  0  0  0  0  0  0  0
   91.5344   94.8546  -44.4999 C   0  0  0  0  0  0  0  0  0  0  0  0
   91.7520   93.5314  -44.1942 C   0  0  0  0  0  0  0  0  0  0  0  0
   92.0043   93.1065  -42.9108 C   0  0  0  0  0  0  0  0  0  0  0  0
   92.0347   94.0534  -41.9200 C   0  0  0  0  0  0  0  0  0  0  0  0
   91.8154   95.3889  -42.2246 C   0  0  0  0  0  0  0  0  0  0  0  0
   91.7073   92.3444  -45.4696 Cl  0  0  0  0  0  0  0  0  0  0  0  0
 16 17  2  0  0  0
 16 18  2  0  0  0
 16 10  1  0  0  0
 16 19  1  0  0  0
 10 11  1  0  0  0
 10 15  1  0  0  0
 11 12  1  0  0  0
 12 13  1  0  0  0
 13 14  1  0  0  0
 13  9  1  0  0  0
 14 15  1  0  0  0
  9  1  1  0  0  0
  1  2  1  0  0  0
  1  7  1  0  0  0
  2  3  2  0  0  0
  2  4  1  0  0  0
  4  5  1  0  0  0
  5  6  2  0  0  0
  6  7  1  0  0  0
  6 20  1  0  0  0
  7  8  2  0  0  0
 20 21  1  0  0  0
 21 22  1  0  0  0
 21 26  1  0  0  0
 22 23  1  0  0  0
 23 24  1  0  0  0
 24 25  1  0  0  0
 24 27  1  0  0  0
 25 26  1  0  0  0
 27 28  2  0  0  0
 27 32  1  0  0  0
 28 29  1  0  0  0
 29 30  2  0  0  0
 29 33  1  0  0  0
 30 31  1  0  0  0
 31 32  2  0  0  0
M  END
> <minimizedAffinity>
-6.16641

$$$$
