
 OpenBabel03232221553D

 50 53  0  0  0  0  0  0  0  0999 V2000
    1.6840  -21.0490  -40.9510 B   0  0  0  0  0  0  0  0  0  0  0  0
    3.5660  -20.9850  -40.7420 C   0  0  0  0  0  0  0  0  0  0  0  0
    4.1130  -20.3330  -39.6760 C   0  0  0  0  0  0  0  0  0  0  0  0
    5.4990  -20.3020  -39.5500 C   0  0  0  0  0  0  0  0  0  0  0  0
    6.2900  -20.9320  -40.5060 C   0  0  0  0  0  0  0  0  0  0  0  0
    5.7490  -21.5890  -41.5790 C   0  0  0  0  0  0  0  0  0  0  0  0
    4.3770  -21.6110  -41.6900 C   0  0  0  0  0  0  0  0  0  0  0  0
    3.8400  -22.2790  -42.7800 O   0  0  0  0  0  0  0  0  0  0  0  0
    6.5940  -22.2410  -42.5670 C   0  0  0  0  0  0  0  0  0  0  0  0
    6.4660  -23.4720  -42.9120 N   0  0  0  0  0  0  0  0  0  0  0  0
    7.3530  -24.0190  -43.9010 N   0  0  0  0  0  0  0  0  0  0  0  0
    8.0610  -25.1610  -43.5530 C   0  0  0  0  0  0  0  0  0  0  0  0
    7.4530  -26.2860  -43.7100 O   0  0  0  0  0  0  0  0  0  0  0  0
    9.4090  -25.2760  -43.0290 C   0  0  0  0  0  0  0  0  0  0  0  0
    9.7600  -25.9540  -41.8880 N   0  0  0  0  0  0  0  0  0  0  0  0
   11.0480  -25.8620  -41.7090 N   0  0  0  0  0  0  0  0  0  0  0  0
   11.6200  -25.1520  -42.6660 N   0  0  0  0  0  0  0  0  0  0  0  0
   10.6310  -24.7790  -43.4960 C   0  0  0  0  0  0  0  0  0  0  0  0
   10.7550  -23.9450  -44.6950 C   0  0  0  0  0  0  0  0  0  0  0  0
   12.0780  -23.3440  -44.8780 N   0  0  0  0  0  0  0  0  0  0  0  0
   12.1820  -22.1650  -43.9960 C   0  0  0  0  0  0  0  0  0  0  0  0
   10.9560  -21.3290  -44.1250 C   0  0  0  0  0  0  0  0  0  0  0  0
   10.7450  -21.0210  -45.4460 O   0  0  0  0  0  0  0  0  0  0  0  0
   11.7780  -21.3600  -46.2790 C   0  0  0  0  0  0  0  0  0  0  0  0
   12.1550  -22.8190  -46.2620 C   0  0  0  0  0  0  0  0  0  0  0  0
   13.0050  -24.8580  -42.7160 C   0  0  0  0  0  0  0  0  0  0  0  0
   13.7340  -24.0320  -41.9360 N   0  0  0  0  0  0  0  0  0  0  0  0
   14.9850  -24.0570  -42.3130 O   0  0  0  0  0  0  0  0  0  0  0  0
   15.1400  -24.8720  -43.3250 N   0  0  0  0  0  0  0  0  0  0  0  0
   13.9300  -25.3870  -43.6020 C   0  0  0  0  0  0  0  0  0  0  0  0
   13.6800  -26.3160  -44.6350 N   0  0  0  0  0  0  0  0  0  0  0  0
    6.2910  -19.4040  -38.0800 B   0  0  0  0  0  0  0  0  0  0  0  0
    3.3420  -19.6990  -38.7120 O   0  0  0  0  0  0  0  0  0  0  0  0
    7.3560  -20.9080  -40.4090 H   0  0  0  0  0  0  0  0  0  0  0  0
    3.9440  -23.2820  -42.8640 H   0  0  0  0  0  0  0  0  0  0  0  0
    7.3840  -21.6730  -43.0530 H   0  0  0  0  0  0  0  0  0  0  0  0
    7.3910  -23.5000  -44.8100 H   0  0  0  0  0  0  0  0  0  0  0  0
   10.0390  -23.1200  -44.6940 H   0  0  0  0  0  0  0  0  0  0  0  0
   10.6030  -24.5640  -45.5900 H   0  0  0  0  0  0  0  0  0  0  0  0
   12.3920  -22.4680  -42.9580 H   0  0  0  0  0  0  0  0  0  0  0  0
   13.0530  -21.5910  -44.3610 H   0  0  0  0  0  0  0  0  0  0  0  0
   10.0510  -21.8030  -43.7110 H   0  0  0  0  0  0  0  0  0  0  0  0
   11.1490  -20.3470  -43.6010 H   0  0  0  0  0  0  0  0  0  0  0  0
   11.4090  -21.1530  -47.3300 H   0  0  0  0  0  0  0  0  0  0  0  0
   12.6490  -20.6890  -46.1280 H   0  0  0  0  0  0  0  0  0  0  0  0
   13.2080  -22.8750  -46.5680 H   0  0  0  0  0  0  0  0  0  0  0  0
   11.5160  -23.3640  -46.9490 H   0  0  0  0  0  0  0  0  0  0  0  0
   13.9860  -26.0870  -45.5990 H   0  0  0  0  0  0  0  0  0  0  0  0
   13.2020  -27.2200  -44.4700 H   0  0  0  0  0  0  0  0  0  0  0  0
    3.7530  -19.0450  -38.0660 H   0  0  0  0  0  0  0  0  0  0  0  0
  1  2  1  0  0  0  0
  2  3  1  0  0  0  0
  3  4  2  0  0  0  0
  3 33  1  0  0  0  0
  4 32  1  0  0  0  0
  5 34  1  0  0  0  0
  5  4  1  0  0  0  0
  6  5  2  0  0  0  0
  7  6  1  0  0  0  0
  7  2  2  0  0  0  0
  8  7  1  0  0  0  0
  9  6  1  0  0  0  0
 10  9  2  0  0  0  0
 11 12  1  0  0  0  0
 11 10  1  0  0  0  0
 12 14  1  0  0  0  0
 13 12  2  0  0  0  0
 14 15  1  0  0  0  0
 15 16  2  0  0  0  0
 17 16  1  0  0  0  0
 18 14  2  0  0  0  0
 18 17  1  0  0  0  0
 19 38  1  0  0  0  0
 19 18  1  0  0  0  0
 20 19  1  0  0  0  0
 20 21  1  0  0  0  0
 21 40  1  0  0  0  0
 22 21  1  0  0  0  0
 22 42  1  0  0  0  0
 22 43  1  0  0  0  0
 23 22  1  0  0  0  0
 24 25  1  0  0  0  0
 24 45  1  0  0  0  0
 24 23  1  0  0  0  0
 25 20  1  0  0  0  0
 26 17  1  0  0  0  0
 26 27  2  0  0  0  0
 28 27  1  0  0  0  0
 29 28  1  0  0  0  0
 30 29  2  0  0  0  0
 30 26  1  0  0  0  0
 31 49  1  0  0  0  0
 31 30  1  0  0  0  0
 33 50  1  0  0  0  0
 35  8  1  0  0  0  0
 36  9  1  0  0  0  0
 37 11  1  0  0  0  0
 39 19  1  0  0  0  0
 41 21  1  0  0  0  0
 44 24  1  0  0  0  0
 46 25  1  0  0  0  0
 47 25  1  0  0  0  0
 48 31  1  0  0  0  0
M  END
>  <Pose>
1

>  <Score>
-6.51

$$$$
