
 OpenBabel03162216113D

 50 53  0  0  0  0  0  0  0  0999 V2000
    9.5490  -11.3820  -41.4240 B   0  0  0  0  0  0  0  0  0  0  0  0
   11.3350  -11.9830  -41.2310 C   0  0  0  0  0  0  0  0  0  0  0  0
   12.3650  -11.0890  -41.2810 C   0  0  0  0  0  0  0  0  0  0  0  0
   13.6670  -11.5610  -41.1370 C   0  0  0  0  0  0  0  0  0  0  0  0
   13.8880  -12.9210  -40.9470 C   0  0  0  0  0  0  0  0  0  0  0  0
   12.8610  -13.8240  -40.8950 C   0  0  0  0  0  0  0  0  0  0  0  0
   11.5780  -13.3440  -41.0390 C   0  0  0  0  0  0  0  0  0  0  0  0
   10.5460  -14.2670  -40.9850 O   0  0  0  0  0  0  0  0  0  0  0  0
   13.1140  -15.2430  -40.6950 C   0  0  0  0  0  0  0  0  0  0  0  0
   13.2840  -16.0780  -41.6580 N   0  0  0  0  0  0  0  0  0  0  0  0
   13.5290  -17.4590  -41.3520 N   0  0  0  0  0  0  0  0  0  0  0  0
   13.0950  -18.4000  -42.2760 C   0  0  0  0  0  0  0  0  0  0  0  0
   12.0000  -18.1320  -42.8990 O   0  0  0  0  0  0  0  0  0  0  0  0
   13.7050  -19.6620  -42.6490 C   0  0  0  0  0  0  0  0  0  0  0  0
   15.0390  -19.9610  -42.5370 N   0  0  0  0  0  0  0  0  0  0  0  0
   15.2480  -21.1780  -42.9550 N   0  0  0  0  0  0  0  0  0  0  0  0
   14.1250  -21.7500  -43.3570 N   0  0  0  0  0  0  0  0  0  0  0  0
   13.1560  -20.8360  -43.1770 C   0  0  0  0  0  0  0  0  0  0  0  0
   11.7350  -20.9830  -43.5070 C   0  0  0  0  0  0  0  0  0  0  0  0
   11.4760  -21.7310  -44.7400 N   0  0  0  0  0  0  0  0  0  0  0  0
   10.3880  -21.0570  -45.4750 C   0  0  0  0  0  0  0  0  0  0  0  0
    9.2700  -20.7410  -44.5440 C   0  0  0  0  0  0  0  0  0  0  0  0
    8.8780  -21.8830  -43.8880 O   0  0  0  0  0  0  0  0  0  0  0  0
    9.4380  -23.0350  -44.3740 C   0  0  0  0  0  0  0  0  0  0  0  0
   10.9440  -23.0630  -44.3650 C   0  0  0  0  0  0  0  0  0  0  0  0
   14.0490  -23.0590  -43.8930 C   0  0  0  0  0  0  0  0  0  0  0  0
   13.8180  -23.4540  -45.1630 N   0  0  0  0  0  0  0  0  0  0  0  0
   13.8410  -24.7590  -45.2320 O   0  0  0  0  0  0  0  0  0  0  0  0
   14.0810  -25.2730  -44.0530 N   0  0  0  0  0  0  0  0  0  0  0  0
   14.2160  -24.2470  -43.1970 C   0  0  0  0  0  0  0  0  0  0  0  0
   14.4840  -24.3920  -41.8180 N   0  0  0  0  0  0  0  0  0  0  0  0
   15.1200  -10.3450  -41.2010 B   0  0  0  0  0  0  0  0  0  0  0  0
   12.1650   -9.7290  -41.4700 O   0  0  0  0  0  0  0  0  0  0  0  0
   14.8900  -13.2830  -40.8360 H   0  0  0  0  0  0  0  0  0  0  0  0
    9.7640  -14.1210  -40.3580 H   0  0  0  0  0  0  0  0  0  0  0  0
   13.1650  -15.6390  -39.6840 H   0  0  0  0  0  0  0  0  0  0  0  0
   14.0190  -17.6400  -40.4430 H   0  0  0  0  0  0  0  0  0  0  0  0
   11.2420  -20.0160  -43.6250 H   0  0  0  0  0  0  0  0  0  0  0  0
   11.2330  -21.5610  -42.7190 H   0  0  0  0  0  0  0  0  0  0  0  0
   10.7650  -20.1740  -46.0140 H   0  0  0  0  0  0  0  0  0  0  0  0
   10.0370  -21.7860  -46.2290 H   0  0  0  0  0  0  0  0  0  0  0  0
    9.5170  -19.9620  -43.8040 H   0  0  0  0  0  0  0  0  0  0  0  0
    8.3830  -20.4150  -45.1630 H   0  0  0  0  0  0  0  0  0  0  0  0
    9.1130  -23.8580  -43.6680 H   0  0  0  0  0  0  0  0  0  0  0  0
    9.0090  -23.3000  -45.3630 H   0  0  0  0  0  0  0  0  0  0  0  0
   11.2510  -23.7640  -45.1520 H   0  0  0  0  0  0  0  0  0  0  0  0
   11.2920  -23.3890  -43.3900 H   0  0  0  0  0  0  0  0  0  0  0  0
   14.6940  -23.5460  -41.2580 H   0  0  0  0  0  0  0  0  0  0  0  0
   14.4800  -25.3120  -41.3420 H   0  0  0  0  0  0  0  0  0  0  0  0
   12.7070   -9.0490  -40.9610 H   0  0  0  0  0  0  0  0  0  0  0  0
  1  2  1  0  0  0  0
  2  7  1  0  0  0  0
  3  2  2  0  0  0  0
  3  4  1  0  0  0  0
  4  5  2  0  0  0  0
  5  6  1  0  0  0  0
  5 34  1  0  0  0  0
  6  9  1  0  0  0  0
  7  8  1  0  0  0  0
  7  6  2  0  0  0  0
  8 35  1  0  0  0  0
  9 36  1  0  0  0  0
 10 11  1  0  0  0  0
 10  9  2  0  0  0  0
 11 37  1  0  0  0  0
 12 11  1  0  0  0  0
 13 12  2  0  0  0  0
 14 15  1  0  0  0  0
 14 12  1  0  0  0  0
 16 15  2  0  0  0  0
 17 18  1  0  0  0  0
 17 16  1  0  0  0  0
 18 14  2  0  0  0  0
 19 18  1  0  0  0  0
 19 39  1  0  0  0  0
 20 25  1  0  0  0  0
 20 19  1  0  0  0  0
 21 20  1  0  0  0  0
 21 22  1  0  0  0  0
 22 23  1  0  0  0  0
 22 42  1  0  0  0  0
 24 25  1  0  0  0  0
 24 23  1  0  0  0  0
 24 44  1  0  0  0  0
 25 47  1  0  0  0  0
 26 17  1  0  0  0  0
 26 30  1  0  0  0  0
 27 26  2  0  0  0  0
 28 27  1  0  0  0  0
 28 29  1  0  0  0  0
 29 30  2  0  0  0  0
 30 31  1  0  0  0  0
 31 49  1  0  0  0  0
 31 48  1  0  0  0  0
 32  4  1  0  0  0  0
 33  3  1  0  0  0  0
 33 50  1  0  0  0  0
 38 19  1  0  0  0  0
 40 21  1  0  0  0  0
 41 21  1  0  0  0  0
 43 22  1  0  0  0  0
 45 24  1  0  0  0  0
 46 25  1  0  0  0  0
M  END
>  <Pose>
1

>  <Score>
-6.12

$$$$
