
 OpenBabel03232221553D

 52 55  0  0  0  0  0  0  0  0999 V2000
    4.1360  -10.1030  -37.5410 B   0  0  0  0  0  0  0  0  0  0  0  0
    2.8180  -11.4870  -37.5280 C   0  0  0  0  0  0  0  0  0  0  0  0
    1.6940  -11.2940  -36.7490 C   0  0  0  0  0  0  0  0  0  0  0  0
    0.7410  -12.2890  -36.7360 C   0  0  0  0  0  0  0  0  0  0  0  0
    0.8940  -13.4460  -37.4780 C   0  0  0  0  0  0  0  0  0  0  0  0
    2.0090  -13.6470  -38.2570 C   0  0  0  0  0  0  0  0  0  0  0  0
    2.9630  -12.6500  -38.2690 C   0  0  0  0  0  0  0  0  0  0  0  0
    4.0860  -12.8280  -39.0420 O   0  0  0  0  0  0  0  0  0  0  0  0
    2.1450  -14.8720  -39.0260 C   0  0  0  0  0  0  0  0  0  0  0  0
    1.7200  -15.0200  -40.2180 N   0  0  0  0  0  0  0  0  0  0  0  0
    1.8640  -16.2190  -40.9440 N   0  0  0  0  0  0  0  0  0  0  0  0
    2.0110  -17.4430  -40.2370 C   0  0  0  0  0  0  0  0  0  0  0  0
    3.1510  -18.1290  -40.2840 N   0  0  0  0  0  4  0  0  0  0  0  0
    3.3290  -19.3070  -39.6190 C   0  0  0  0  0  0  0  0  0  0  0  0
    2.2900  -19.7420  -38.9100 N   0  0  0  0  0  0  0  0  0  0  0  0
    1.0990  -19.1110  -38.8080 C   0  0  0  0  0  0  0  0  0  0  0  0
    1.0060  -17.9380  -39.5040 N   0  0  0  0  0  0  0  0  0  0  0  0
    0.0280  -19.6100  -38.0450 N   0  0  0  0  0  0  0  0  0  0  0  0
   -0.3280  -20.9930  -38.1000 C   0  0  0  0  0  0  0  0  0  0  0  0
   -1.8320  -21.0620  -38.3790 C   0  0  0  0  0  0  0  0  0  0  0  0
   -2.3790  -19.8110  -38.5710 O   0  0  0  0  0  0  0  0  0  0  0  0
   -2.1970  -18.9440  -37.5230 C   0  0  0  0  0  0  0  0  0  0  0  0
   -0.7230  -18.7340  -37.2000 C   0  0  0  0  0  0  0  0  0  0  0  0
    4.5460  -20.0180  -39.6830 N   0  0  0  0  0  0  0  0  0  0  0  0
    4.5470  -21.4320  -39.9370 C   0  0  0  0  0  0  0  0  0  0  0  0
    5.4830  -22.0720  -38.9240 C   0  0  0  0  0  0  0  0  0  0  0  0
    6.6900  -21.3900  -38.8270 O   0  0  0  0  0  0  0  0  0  0  0  0
    6.5530  -20.0880  -38.4030 C   0  0  0  0  0  0  0  0  0  0  0  0
    5.7890  -19.3260  -39.4950 C   0  0  0  0  0  0  0  0  0  0  0  0
   -0.8220  -12.0350  -35.6580 B   0  0  0  0  0  0  0  0  0  0  0  0
    1.5560  -10.1230  -36.0080 O   0  0  0  0  0  0  0  0  0  0  0  0
    0.1250  -14.2260  -37.4550 H   0  0  0  0  0  0  0  0  0  0  0  0
    4.3850  -13.7670  -39.3220 H   0  0  0  0  0  0  0  0  0  0  0  0
    2.6350  -15.7130  -38.5630 H   0  0  0  0  0  0  0  0  0  0  0  0
    1.8540  -16.1400  -41.9670 H   0  0  0  0  0  0  0  0  0  0  0  0
   -0.1900  -21.4230  -37.0800 H   0  0  0  0  0  0  0  0  0  0  0  0
    0.2540  -21.5380  -38.8650 H   0  0  0  0  0  0  0  0  0  0  0  0
   -2.3670  -21.6420  -37.6210 H   0  0  0  0  0  0  0  0  0  0  0  0
   -1.9480  -21.6180  -39.3450 H   0  0  0  0  0  0  0  0  0  0  0  0
   -2.7650  -19.2420  -36.6170 H   0  0  0  0  0  0  0  0  0  0  0  0
   -2.5970  -17.9550  -37.8300 H   0  0  0  0  0  0  0  0  0  0  0  0
   -0.4130  -17.6800  -37.3490 H   0  0  0  0  0  0  0  0  0  0  0  0
   -0.5860  -18.9430  -36.1190 H   0  0  0  0  0  0  0  0  0  0  0  0
    3.5460  -21.9080  -39.7680 H   0  0  0  0  0  0  0  0  0  0  0  0
    4.9470  -21.6720  -40.9430 H   0  0  0  0  0  0  0  0  0  0  0  0
    4.9750  -22.1510  -37.9480 H   0  0  0  0  0  0  0  0  0  0  0  0
    5.7160  -23.1000  -39.2740 H   0  0  0  0  0  0  0  0  0  0  0  0
    5.9100  -20.0620  -37.5060 H   0  0  0  0  0  0  0  0  0  0  0  0
    7.5500  -19.6630  -38.2410 H   0  0  0  0  0  0  0  0  0  0  0  0
    6.3990  -19.4690  -40.4270 H   0  0  0  0  0  0  0  0  0  0  0  0
    5.6640  -18.2650  -39.2300 H   0  0  0  0  0  0  0  0  0  0  0  0
    1.8940   -9.2540  -36.3860 H   0  0  0  0  0  0  0  0  0  0  0  0
  1  2  1  0  0  0  0
  2  3  1  0  0  0  0
  3  4  2  0  0  0  0
  3 31  1  0  0  0  0
  4 30  1  0  0  0  0
  5 32  1  0  0  0  0
  5  4  1  0  0  0  0
  6  5  2  0  0  0  0
  7  6  1  0  0  0  0
  7  2  2  0  0  0  0
  8  7  1  0  0  0  0
  9 34  1  0  0  0  0
  9  6  1  0  0  0  0
 10  9  2  0  0  0  0
 11 12  1  0  0  0  0
 11 10  1  0  0  0  0
 12 17  1  0  0  0  0
 13 12  2  0  0  0  0
 13 14  2  0  0  0  0
 14 15  1  0  0  0  0
 15 16  2  0  0  0  0
 16 18  1  0  0  0  0
 17 16  1  0  0  0  0
 18 23  1  0  0  0  0
 19 18  1  0  0  0  0
 19 36  1  0  0  0  0
 20 19  1  0  0  0  0
 20 38  1  0  0  0  0
 21 20  1  0  0  0  0
 21 22  1  0  0  0  0
 22 23  1  0  0  0  0
 22 40  1  0  0  0  0
 23 43  1  0  0  0  0
 24 14  1  0  0  0  0
 24 29  1  0  0  0  0
 25 44  1  0  0  0  0
 25 24  1  0  0  0  0
 25 26  1  0  0  0  0
 26 27  1  0  0  0  0
 26 46  1  0  0  0  0
 27 28  1  0  0  0  0
 28 49  1  0  0  0  0
 28 48  1  0  0  0  0
 29 51  1  0  0  0  0
 29 28  1  0  0  0  0
 33  8  1  0  0  0  0
 35 11  1  0  0  0  0
 37 19  1  0  0  0  0
 39 20  1  0  0  0  0
 41 22  1  0  0  0  0
 42 23  1  0  0  0  0
 45 25  1  0  0  0  0
 47 26  1  0  0  0  0
 50 29  1  0  0  0  0
 52 31  1  0  0  0  0
M  END
>  <Pose>
1

>  <Score>
-4.25

$$$$
