
 OpenBabel03232221553D

 43 46  0  0  0  0  0  0  0  0999 V2000
   14.6600  -21.9600  -42.9270 B   0  0  0  0  0  0  0  0  0  0  0  0
   13.7220  -20.3120  -42.9920 C   0  0  0  0  0  0  0  0  0  0  0  0
   12.4280  -20.3010  -43.4690 C   0  0  0  0  0  0  0  0  0  0  0  0
   11.7420  -19.1270  -43.5220 C   0  0  0  0  0  0  0  0  0  0  0  0
   12.3200  -17.9240  -43.1020 C   0  0  0  0  0  0  0  0  0  0  0  0
   13.6090  -17.9630  -42.6310 C   0  0  0  0  0  0  0  0  0  0  0  0
   14.3190  -19.1370  -42.5690 C   0  0  0  0  0  0  0  0  0  0  0  0
   14.4480  -16.3470  -42.0440 B   0  0  0  0  0  0  0  0  0  0  0  0
   10.3810  -19.1040  -44.0220 C   0  0  0  0  0  0  0  0  0  0  0  0
    9.4240  -19.4330  -43.2410 N   0  0  0  0  0  0  0  0  0  0  0  0
    8.0910  -19.4460  -43.6150 N   0  0  0  0  0  0  0  0  0  0  0  0
    7.0220  -18.9980  -42.8000 C   0  0  0  0  0  0  0  0  0  0  0  0
    7.0210  -17.7840  -42.4900 O   0  0  0  0  0  0  0  0  0  0  0  0
    5.9680  -19.8620  -42.3290 C   0  0  0  0  0  0  0  0  0  0  0  0
    5.0030  -19.2680  -41.4580 N   0  0  0  0  0  0  0  0  0  0  0  0
    3.9820  -18.4370  -41.7950 C   0  0  0  0  0  0  0  0  0  0  0  0
    3.2790  -18.0790  -40.6780 C   0  0  0  0  0  0  0  0  0  0  0  0
    3.8900  -18.7050  -39.6600 N   0  0  0  0  0  0  0  0  0  0  0  0
    4.9480  -19.4350  -40.1350 C   0  0  0  0  0  0  0  0  0  0  0  0
    5.8260  -20.2350  -39.2890 C   0  0  0  0  0  0  0  0  0  0  0  0
    5.9590  -21.5660  -39.3440 N   0  0  0  0  0  0  0  0  0  0  0  0
    6.8390  -21.9440  -38.4330 O   0  0  0  0  0  0  0  0  0  0  0  0
    7.2850  -20.9130  -37.7870 N   0  0  0  0  0  0  0  0  0  0  0  0
    6.6760  -19.8170  -38.2900 C   0  0  0  0  0  0  0  0  0  0  0  0
    6.8730  -18.4790  -37.8720 N   0  0  0  0  0  4  0  0  0  0  0  0
    2.1980  -17.2330  -40.8170 C   0  0  0  0  0  0  0  0  0  0  0  0
    1.8060  -16.7400  -42.0510 C   0  0  0  0  0  0  0  0  0  0  0  0
    2.5360  -17.1200  -43.1630 C   0  0  0  0  0  0  0  0  0  0  0  0
    3.6190  -17.9650  -43.0270 C   0  0  0  0  0  0  0  0  0  0  0  0
   11.8410  -21.4820  -43.8890 O   0  0  0  0  0  0  0  0  0  0  0  0
   11.7900  -16.9860  -43.1370 H   0  0  0  0  0  0  0  0  0  0  0  0
   15.3310  -19.2030  -42.2060 H   0  0  0  0  0  0  0  0  0  0  0  0
   10.1280  -18.8200  -45.0360 H   0  0  0  0  0  0  0  0  0  0  0  0
    7.8520  -19.8110  -44.5610 H   0  0  0  0  0  0  0  0  0  0  0  0
    5.3640  -20.3000  -43.1850 H   0  0  0  0  0  0  0  0  0  0  0  0
    6.4130  -20.7580  -41.8530 H   0  0  0  0  0  0  0  0  0  0  0  0
    5.9890  -17.9690  -37.7350 H   0  0  0  0  0  0  0  0  0  0  0  0
    7.3760  -17.9960  -38.6660 H   0  0  0  0  0  0  0  0  0  0  0  0
    7.4970  -18.4050  -37.0270 H   0  0  0  0  0  0  0  0  0  0  0  0
    1.6440  -16.9540  -39.9220 H   0  0  0  0  0  0  0  0  0  0  0  0
    0.9420  -16.0700  -42.1260 H   0  0  0  0  0  0  0  0  0  0  0  0
    2.2320  -16.7360  -44.1300 H   0  0  0  0  0  0  0  0  0  0  0  0
    4.2070  -18.2780  -43.8860 H   0  0  0  0  0  0  0  0  0  0  0  0
  2  1  1  0  0  0  0
  2  7  1  0  0  0  0
  3  2  2  0  0  0  0
  4  3  1  0  0  0  0
  4  5  2  0  0  0  0
  5  6  1  0  0  0  0
  6  7  2  0  0  0  0
  6  8  1  0  0  0  0
  7 32  1  0  0  0  0
  9  4  1  0  0  0  0
  9 10  2  0  0  0  0
 11 10  1  0  0  0  0
 11 12  1  0  0  0  0
 12 13  2  0  0  0  0
 12 14  1  0  0  0  0
 14 36  1  0  0  0  0
 14 15  1  0  0  0  0
 15 19  1  0  0  0  0
 16 15  1  0  0  0  0
 16 17  1  0  0  0  0
 17 18  1  0  0  0  0
 19 18  2  0  0  0  0
 19 20  1  0  0  0  0
 20 24  1  0  0  0  0
 21 20  2  0  0  0  0
 21 22  1  0  0  0  0
 22 23  1  0  0  0  0
 24 25  1  0  0  0  0
 24 23  2  0  0  0  0
 25 37  1  0  0  0  0
 25 39  1  0  0  0  0
 26 17  2  0  0  0  0
 26 40  1  0  0  0  0
 27 26  1  0  0  0  0
 28 29  1  0  0  0  0
 28 27  2  0  0  0  0
 29 16  2  0  0  0  0
 30  3  1  0  0  0  0
 31  5  1  0  0  0  0
 33  9  1  0  0  0  0
 34 11  1  0  0  0  0
 35 14  1  0  0  0  0
 38 25  1  0  0  0  0
 41 27  1  0  0  0  0
 42 28  1  0  0  0  0
 43 29  1  0  0  0  0
M  END
>  <Pose>
1

>  <Score>
-5.82

$$$$
