
 OpenBabel03232221553D

 50 53  0  0  0  0  0  0  0  0999 V2000
    6.5200  -19.0910  -37.7290 B   0  0  0  0  0  0  0  0  0  0  0  0
    4.8200  -19.5430  -38.4420 C   0  0  0  0  0  0  0  0  0  0  0  0
    3.6760  -19.3120  -37.7110 C   0  0  0  0  0  0  0  0  0  0  0  0
    2.4210  -19.6770  -38.2550 C   0  0  0  0  0  0  0  0  0  0  0  0
    2.4140  -20.2500  -39.4940 C   0  0  0  0  0  0  0  0  0  0  0  0
    3.5530  -20.5050  -40.2720 C   0  0  0  0  0  0  0  0  0  0  0  0
    4.7430  -20.1270  -39.6920 C   0  0  0  0  0  0  0  0  0  0  0  0
    3.4240  -21.1250  -41.5450 C   0  0  0  0  0  0  0  0  0  0  0  0
    4.0060  -21.9800  -42.1150 N   0  0  0  0  0  0  0  0  0  0  0  0
    4.6690  -22.8800  -42.6350 N   0  0  0  0  0  0  0  0  0  0  0  0
    5.4010  -23.8690  -43.2060 C   0  0  0  0  0  0  0  0  0  0  0  0
    6.5890  -24.0640  -43.4560 O   0  0  0  0  0  0  0  0  0  0  0  0
    4.4980  -25.0400  -43.6510 C   0  0  0  0  0  0  0  0  0  0  0  0
    5.1930  -25.9760  -44.4340 N   0  0  0  0  0  0  0  0  0  0  0  0
    4.4930  -26.8160  -45.2870 C   0  0  0  0  0  0  0  0  0  0  0  0
    5.3950  -27.6150  -45.8840 C   0  0  0  0  0  0  0  0  0  0  0  0
    6.5840  -27.2770  -45.4110 N   0  0  0  0  0  0  0  0  0  0  0  0
    6.4700  -26.2410  -44.4950 C   0  0  0  0  0  0  0  0  0  0  0  0
    7.7070  -25.7850  -43.8860 C   0  0  0  0  0  0  0  0  0  0  0  0
    8.1050  -26.1920  -42.6150 N   0  0  0  0  0  0  0  0  0  0  0  0
    9.2280  -25.6790  -42.3130 O   0  0  0  0  0  0  0  0  0  0  0  0
    9.6520  -24.9460  -43.2630 N   0  0  0  0  0  0  0  0  0  0  0  0
    8.7210  -24.9870  -44.2760 C   0  0  0  0  0  0  0  0  0  0  0  0
    8.9070  -24.2920  -45.4890 N   0  0  0  0  0  4  0  0  0  0  0  0
    5.0400  -28.5890  -46.8050 C   0  0  0  0  0  0  0  0  0  0  0  0
    3.7010  -28.7030  -47.0890 C   0  0  0  0  0  0  0  0  0  0  0  0
    2.7330  -27.9070  -46.5080 C   0  0  0  0  0  0  0  0  0  0  0  0
    3.1450  -26.9450  -45.5880 C   0  0  0  0  0  0  0  0  0  0  0  0
    1.2910  -19.4360  -37.4970 O   0  0  0  0  0  0  0  0  0  0  0  0
    0.0300  -19.2770  -38.0510 C   0  0  0  0  0  0  0  0  0  0  0  0
   -0.9720  -20.3520  -37.7390 C   0  0  0  0  0  0  0  0  0  0  0  0
    3.6780  -18.7440  -36.4700 O   0  0  0  0  0  0  0  0  0  0  0  0
    1.4800  -20.5490  -39.9360 H   0  0  0  0  0  0  0  0  0  0  0  0
    5.6840  -20.2840  -40.2580 H   0  0  0  0  0  0  0  0  0  0  0  0
    2.5780  -20.7730  -42.2380 H   0  0  0  0  0  0  0  0  0  0  0  0
    5.8730  -22.3110  -42.1850 H   0  0  0  0  0  0  0  0  0  0  0  0
    3.7150  -24.5490  -44.3260 H   0  0  0  0  0  0  0  0  0  0  0  0
    4.0050  -25.4040  -42.7680 H   0  0  0  0  0  0  0  0  0  0  0  0
    7.9620  -23.8240  -45.7590 H   0  0  0  0  0  0  0  0  0  0  0  0
    9.0680  -24.9570  -46.2560 H   0  0  0  0  0  0  0  0  0  0  0  0
    9.5240  -23.4920  -45.3760 H   0  0  0  0  0  0  0  0  0  0  0  0
    5.8230  -29.1940  -47.2490 H   0  0  0  0  0  0  0  0  0  0  0  0
    3.3740  -29.4680  -47.8210 H   0  0  0  0  0  0  0  0  0  0  0  0
    1.6930  -28.0400  -46.7620 H   0  0  0  0  0  0  0  0  0  0  0  0
    2.4370  -26.2960  -45.1080 H   0  0  0  0  0  0  0  0  0  0  0  0
   -0.4020  -18.2630  -37.7390 H   0  0  0  0  0  0  0  0  0  0  0  0
    0.0730  -19.1880  -39.1800 H   0  0  0  0  0  0  0  0  0  0  0  0
   -1.3780  -20.7430  -38.6830 H   0  0  0  0  0  0  0  0  0  0  0  0
   -0.5160  -21.1350  -37.1460 H   0  0  0  0  0  0  0  0  0  0  0  0
   -1.8680  -19.8910  -37.2210 H   0  0  0  0  0  0  0  0  0  0  0  0
  2  1  1  0  0  0  0
  2  3  1  0  0  0  0
  3 32  1  0  0  0  0
  4  3  2  0  0  0  0
  4 29  1  0  0  0  0
  5  4  1  0  0  0  0
  6  7  1  0  0  0  0
  6  5  2  0  0  0  0
  7  2  2  0  0  0  0
  8  6  1  0  0  0  0
  9  8  1  0  0  0  0
 10 36  1  0  0  0  0
 10  9  1  0  0  0  0
 11 10  1  0  0  0  0
 12 11  2  0  0  0  0
 13 11  1  0  0  0  0
 13 38  1  0  0  0  0
 14 13  1  0  0  0  0
 15 14  1  0  0  0  0
 16 17  1  0  0  0  0
 16 15  2  0  0  0  0
 17 18  2  0  0  0  0
 18 14  1  0  0  0  0
 18 19  1  0  0  0  0
 19 20  2  0  0  0  0
 20 21  1  0  0  0  0
 22 21  1  0  0  0  0
 23 19  1  0  0  0  0
 23 22  2  0  0  0  0
 24 41  1  0  0  0  0
 24 23  1  0  0  0  0
 25 16  1  0  0  0  0
 26 25  2  0  0  0  0
 26 27  1  0  0  0  0
 27 28  2  0  0  0  0
 28 15  1  0  0  0  0
 28 45  1  0  0  0  0
 30 31  1  0  0  0  0
 30 46  1  0  0  0  0
 30 29  1  0  0  0  0
 31 50  1  0  0  0  0
 31 49  1  0  0  0  0
 33  5  1  0  0  0  0
 34  7  1  0  0  0  0
 35  8  1  0  0  0  0
 37 13  1  0  0  0  0
 39 24  1  0  0  0  0
 40 24  1  0  0  0  0
 42 25  1  0  0  0  0
 43 26  1  0  0  0  0
 44 27  1  0  0  0  0
 47 30  1  0  0  0  0
 48 31  1  0  0  0  0
M  END
>  <Pose>
1

>  <Score>
-4.83

$$$$
