
 OpenBabel03232221553D

 56 59  0  0  0  0  0  0  0  0999 V2000
    7.3430  -18.3120  -43.1160 B   0  0  0  0  0  0  0  0  0  0  0  0
    6.5890  -20.0070  -42.6770 C   0  0  0  0  0  0  0  0  0  0  0  0
    6.9890  -21.1710  -43.3220 C   0  0  0  0  0  0  0  0  0  0  0  0
    6.4480  -22.3980  -43.0110 C   0  0  0  0  0  0  0  0  0  0  0  0
    5.4880  -22.4380  -42.0280 C   0  0  0  0  0  0  0  0  0  0  0  0
    5.0660  -21.2970  -41.3640 C   0  0  0  0  0  0  0  0  0  0  0  0
    5.6330  -20.0900  -41.7080 C   0  0  0  0  0  0  0  0  0  0  0  0
    4.0530  -21.3090  -40.3210 C   0  0  0  0  0  0  0  0  0  0  0  0
    3.9020  -20.3250  -39.5130 N   0  0  0  0  0  0  0  0  0  0  0  0
    2.9750  -20.2510  -38.5030 N   0  0  0  0  0  0  0  0  0  0  0  0
    1.9380  -19.2940  -38.4290 C   0  0  0  0  0  0  0  0  0  0  0  0
    2.1730  -18.1170  -38.7660 O   0  0  0  0  0  0  0  0  0  0  0  0
    0.6000  -19.6450  -37.9700 C   0  0  0  0  0  0  0  0  0  0  0  0
    0.0760  -20.8590  -37.7600 N   0  0  0  0  0  0  0  0  0  0  0  0
   -1.1620  -20.7370  -37.3460 N   0  0  0  0  0  0  0  0  0  0  0  0
   -1.5090  -19.4400  -37.2650 N   0  0  0  0  0  0  0  0  0  0  0  0
   -0.4340  -18.7460  -37.6470 C   0  0  0  0  0  0  0  0  0  0  0  0
   -0.2490  -17.2960  -37.7180 C   0  0  0  0  0  0  0  0  0  0  0  0
   -0.3900  -16.5570  -36.4890 N   0  0  0  0  0  0  0  0  0  0  0  0
    0.9540  -16.0290  -36.2200 C   0  0  0  0  0  0  0  0  0  0  0  0
    1.4840  -15.1180  -37.2550 C   0  0  0  0  0  0  0  0  0  0  0  0
    0.4710  -14.3850  -37.8540 O   0  0  0  0  0  0  0  0  0  0  0  0
   -0.5080  -14.1480  -36.9130 C   0  0  0  0  0  0  0  0  0  0  0  0
   -1.2950  -15.4260  -36.7010 C   0  0  0  0  0  0  0  0  0  0  0  0
   -2.7980  -19.0020  -36.8200 C   0  0  0  0  0  0  0  0  0  0  0  0
   -3.1130  -18.2680  -35.7410 N   0  0  0  0  0  0  0  0  0  0  0  0
   -4.4120  -18.0870  -35.7100 O   0  0  0  0  0  0  0  0  0  0  0  0
   -4.9820  -18.6760  -36.7330 N   0  0  0  0  0  0  0  0  0  0  0  0
   -3.9960  -19.2550  -37.4430 C   0  0  0  0  0  0  0  0  0  0  0  0
   -4.2190  -19.9910  -38.6350 N   0  0  0  0  0  0  0  0  0  0  0  0
    6.8910  -23.5080  -43.6900 O   0  0  0  0  0  0  0  0  0  0  0  0
    6.1100  -24.4870  -44.2930 C   0  0  0  0  0  0  0  0  0  0  0  0
    6.2360  -25.8520  -43.6990 C   0  0  0  0  0  0  0  0  0  0  0  0
    7.9640  -21.0690  -44.3090 O   0  0  0  0  0  0  0  0  0  0  0  0
    5.0520  -23.3890  -41.7690 H   0  0  0  0  0  0  0  0  0  0  0  0
    5.3110  -19.1790  -41.1930 H   0  0  0  0  0  0  0  0  0  0  0  0
    3.4040  -22.1670  -40.2160 H   0  0  0  0  0  0  0  0  0  0  0  0
    3.0500  -20.9690  -37.7260 H   0  0  0  0  0  0  0  0  0  0  0  0
   -0.9850  -16.8620  -38.4470 H   0  0  0  0  0  0  0  0  0  0  0  0
    0.7490  -17.0480  -38.1990 H   0  0  0  0  0  0  0  0  0  0  0  0
    0.9040  -15.5320  -35.2510 H   0  0  0  0  0  0  0  0  0  0  0  0
    1.6050  -16.9470  -36.1990 H   0  0  0  0  0  0  0  0  0  0  0  0
    1.9210  -15.7540  -38.0800 H   0  0  0  0  0  0  0  0  0  0  0  0
    2.3210  -14.4770  -36.9100 H   0  0  0  0  0  0  0  0  0  0  0  0
   -1.2430  -13.3820  -37.2340 H   0  0  0  0  0  0  0  0  0  0  0  0
   -0.0130  -13.8640  -35.9630 H   0  0  0  0  0  0  0  0  0  0  0  0
   -1.9000  -15.5790  -37.6050 H   0  0  0  0  0  0  0  0  0  0  0  0
   -1.8900  -15.2600  -35.7890 H   0  0  0  0  0  0  0  0  0  0  0  0
   -3.4900  -20.5580  -39.1140 H   0  0  0  0  0  0  0  0  0  0  0  0
   -5.1650  -19.9930  -39.0970 H   0  0  0  0  0  0  0  0  0  0  0  0
    5.0270  -24.2010  -44.3000 H   0  0  0  0  0  0  0  0  0  0  0  0
    6.4220  -24.5530  -45.3660 H   0  0  0  0  0  0  0  0  0  0  0  0
    6.6170  -26.6050  -44.4440 H   0  0  0  0  0  0  0  0  0  0  0  0
    5.2820  -26.2540  -43.2840 H   0  0  0  0  0  0  0  0  0  0  0  0
    7.0050  -25.8270  -42.8940 H   0  0  0  0  0  0  0  0  0  0  0  0
    8.9370  -21.2260  -44.0730 H   0  0  0  0  0  0  0  0  0  0  0  0
  1  2  1  0  0  0  0
  2  7  1  0  0  0  0
  3  4  1  0  0  0  0
  3  2  2  0  0  0  0
  4  5  2  0  0  0  0
  5 35  1  0  0  0  0
  5  6  1  0  0  0  0
  6  8  1  0  0  0  0
  7  6  2  0  0  0  0
  7 36  1  0  0  0  0
  8 37  1  0  0  0  0
  8  9  2  0  0  0  0
  9 10  1  0  0  0  0
 10 11  1  0  0  0  0
 10 38  1  0  0  0  0
 11 13  1  0  0  0  0
 12 11  2  0  0  0  0
 13 14  1  0  0  0  0
 13 17  2  0  0  0  0
 14 15  2  0  0  0  0
 15 16  1  0  0  0  0
 16 25  1  0  0  0  0
 17 16  1  0  0  0  0
 18 17  1  0  0  0  0
 18 19  1  0  0  0  0
 19 20  1  0  0  0  0
 20 42  1  0  0  0  0
 20 41  1  0  0  0  0
 21 44  1  0  0  0  0
 21 20  1  0  0  0  0
 22 21  1  0  0  0  0
 22 23  1  0  0  0  0
 23 24  1  0  0  0  0
 23 46  1  0  0  0  0
 24 19  1  0  0  0  0
 24 48  1  0  0  0  0
 25 26  2  0  0  0  0
 26 27  1  0  0  0  0
 28 27  1  0  0  0  0
 29 25  1  0  0  0  0
 29 28  2  0  0  0  0
 30 29  1  0  0  0  0
 31  4  1  0  0  0  0
 32 33  1  0  0  0  0
 32 31  1  0  0  0  0
 33 54  1  0  0  0  0
 33 55  1  0  0  0  0
 34 56  1  0  0  0  0
 34  3  1  0  0  0  0
 39 18  1  0  0  0  0
 40 18  1  0  0  0  0
 43 21  1  0  0  0  0
 45 23  1  0  0  0  0
 47 24  1  0  0  0  0
 49 30  1  0  0  0  0
 50 30  1  0  0  0  0
 51 32  1  0  0  0  0
 52 32  1  0  0  0  0
 53 33  1  0  0  0  0
M  END
>  <Pose>
1

>  <Score>
-5.32

$$$$
