
 OpenBabel03232221553D

 58 61  0  0  0  0  0  0  0  0999 V2000
    4.4550  -10.5770  -37.7730 B   0  0  0  0  0  0  0  0  0  0  0  0
    3.1300  -11.6820  -38.6130 C   0  0  0  0  0  0  0  0  0  0  0  0
    1.8150  -11.5400  -38.2630 C   0  0  0  0  0  0  0  0  0  0  0  0
    0.8570  -12.3550  -38.8630 C   0  0  0  0  0  0  0  0  0  0  0  0
    1.2370  -13.3020  -39.8030 C   0  0  0  0  0  0  0  0  0  0  0  0
    2.5470  -13.4590  -40.1530 C   0  0  0  0  0  0  0  0  0  0  0  0
    3.4690  -12.6370  -39.5460 C   0  0  0  0  0  0  0  0  0  0  0  0
    3.0770  -14.5760  -40.9630 C   0  0  0  0  0  0  0  0  0  0  0  0
    2.5310  -15.4910  -41.4240 N   0  0  0  0  0  0  0  0  0  0  0  0
    1.9360  -16.5300  -41.9510 N   0  0  0  0  0  0  0  0  0  0  0  0
    1.9300  -17.6550  -40.9860 C   0  0  0  0  0  0  0  0  0  0  0  0
    1.0140  -17.8280  -40.0520 N   0  0  0  0  0  4  0  0  0  0  0  0
    1.1790  -18.7650  -39.0740 C   0  0  0  0  0  0  0  0  0  0  0  0
    2.3250  -19.4830  -39.1320 N   0  0  0  0  0  0  0  0  0  0  0  0
    3.2920  -19.3510  -40.0600 C   0  0  0  0  0  0  0  0  0  0  0  0
    3.0630  -18.4090  -41.0020 N   0  0  0  0  0  0  0  0  0  0  0  0
    4.5020  -20.0160  -39.9700 N   0  0  0  0  0  0  0  0  0  0  0  0
    4.7960  -21.3900  -40.1120 C   0  0  0  0  0  0  0  0  0  0  0  0
    5.3650  -21.8560  -38.7690 C   0  0  0  0  0  0  0  0  0  0  0  0
    6.4360  -21.0450  -38.4640 O   0  0  0  0  0  0  0  0  0  0  0  0
    6.1470  -19.7090  -38.3130 C   0  0  0  0  0  0  0  0  0  0  0  0
    5.6780  -19.1420  -39.6840 C   0  0  0  0  0  0  0  0  0  0  0  0
    0.2640  -18.9230  -38.0070 N   0  0  0  0  0  0  0  0  0  0  0  0
   -0.4000  -20.2210  -37.8070 C   0  0  0  0  0  0  0  0  0  0  0  0
   -1.8950  -19.8720  -37.5880 C   0  0  0  0  0  0  0  0  0  0  0  0
   -1.9210  -19.2260  -36.3850 O   0  0  0  0  0  0  0  0  0  0  0  0
   -1.3500  -17.9850  -36.4080 C   0  0  0  0  0  0  0  0  0  0  0  0
   -0.0570  -17.8510  -37.1440 C   0  0  0  0  0  0  0  0  0  0  0  0
   -0.4250  -12.1410  -38.4630 O   0  0  0  0  0  0  0  0  0  0  0  0
   -1.1590  -12.7710  -37.4740 C   0  0  0  0  0  0  0  0  0  0  0  0
   -0.6480  -12.4660  -36.0730 C   0  0  0  0  0  0  0  0  0  0  0  0
    1.4870  -10.5890  -37.3210 O   0  0  0  0  0  0  0  0  0  0  0  0
    0.5120  -13.9210  -40.2920 H   0  0  0  0  0  0  0  0  0  0  0  0
    4.5070  -12.6920  -39.8050 H   0  0  0  0  0  0  0  0  0  0  0  0
    4.1730  -14.5420  -41.1700 H   0  0  0  0  0  0  0  0  0  0  0  0
    1.4900  -16.7150  -42.8290 H   0  0  0  0  0  0  0  0  0  0  0  0
    4.0020  -22.0580  -40.4390 H   0  0  0  0  0  0  0  0  0  0  0  0
    5.6750  -21.4420  -40.8450 H   0  0  0  0  0  0  0  0  0  0  0  0
    5.7930  -22.8760  -38.9380 H   0  0  0  0  0  0  0  0  0  0  0  0
    4.5580  -21.8510  -38.0320 H   0  0  0  0  0  0  0  0  0  0  0  0
    7.0400  -19.1580  -38.0630 H   0  0  0  0  0  0  0  0  0  0  0  0
    5.3810  -19.4860  -37.5350 H   0  0  0  0  0  0  0  0  0  0  0  0
    5.3710  -18.1280  -39.5680 H   0  0  0  0  0  0  0  0  0  0  0  0
    6.4180  -19.3560  -40.4430 H   0  0  0  0  0  0  0  0  0  0  0  0
   -0.3640  -20.8360  -38.7070 H   0  0  0  0  0  0  0  0  0  0  0  0
    0.0160  -20.7640  -36.9800 H   0  0  0  0  0  0  0  0  0  0  0  0
   -2.4600  -20.7930  -37.5710 H   0  0  0  0  0  0  0  0  0  0  0  0
   -2.1710  -19.2160  -38.4530 H   0  0  0  0  0  0  0  0  0  0  0  0
   -1.1650  -17.6700  -35.3350 H   0  0  0  0  0  0  0  0  0  0  0  0
   -2.0850  -17.2450  -36.7820 H   0  0  0  0  0  0  0  0  0  0  0  0
    0.7880  -17.6660  -36.4340 H   0  0  0  0  0  0  0  0  0  0  0  0
   -0.1430  -16.9300  -37.8050 H   0  0  0  0  0  0  0  0  0  0  0  0
   -2.2120  -12.3350  -37.5400 H   0  0  0  0  0  0  0  0  0  0  0  0
   -1.2110  -13.8460  -37.5960 H   0  0  0  0  0  0  0  0  0  0  0  0
    0.3200  -11.9560  -36.0750 H   0  0  0  0  0  0  0  0  0  0  0  0
   -0.5870  -13.4260  -35.4990 H   0  0  0  0  0  0  0  0  0  0  0  0
   -1.3910  -11.8250  -35.5380 H   0  0  0  0  0  0  0  0  0  0  0  0
    1.1580  -10.7970  -36.4090 H   0  0  0  0  0  0  0  0  0  0  0  0
  2  3  1  0  0  0  0
  2  1  1  0  0  0  0
  3 32  1  0  0  0  0
  4 29  1  0  0  0  0
  4  3  2  0  0  0  0
  5  4  1  0  0  0  0
  6  5  2  0  0  0  0
  6  7  1  0  0  0  0
  7  2  2  0  0  0  0
  8  6  1  0  0  0  0
  9  8  1  0  0  0  0
 10  9  1  0  0  0  0
 10 11  1  0  0  0  0
 11 12  2  0  0  0  0
 12 13  2  0  0  0  0
 13 23  1  0  0  0  0
 14 13  1  0  0  0  0
 15 17  1  0  0  0  0
 15 14  2  0  0  0  0
 16 11  1  0  0  0  0
 16 15  1  0  0  0  0
 17 22  1  0  0  0  0
 18 17  1  0  0  0  0
 18 19  1  0  0  0  0
 19 20  1  0  0  0  0
 19 40  1  0  0  0  0
 20 21  1  0  0  0  0
 21 41  1  0  0  0  0
 21 42  1  0  0  0  0
 22 43  1  0  0  0  0
 22 21  1  0  0  0  0
 23 24  1  0  0  0  0
 23 28  1  0  0  0  0
 24 25  1  0  0  0  0
 24 46  1  0  0  0  0
 25 47  1  0  0  0  0
 25 26  1  0  0  0  0
 27 26  1  0  0  0  0
 27 49  1  0  0  0  0
 28 51  1  0  0  0  0
 28 27  1  0  0  0  0
 29 30  1  0  0  0  0
 30 31  1  0  0  0  0
 31 57  1  0  0  0  0
 31 56  1  0  0  0  0
 32 58  1  0  0  0  0
 33  5  1  0  0  0  0
 34  7  1  0  0  0  0
 35  8  1  0  0  0  0
 36 10  1  0  0  0  0
 37 18  1  0  0  0  0
 38 18  1  0  0  0  0
 39 19  1  0  0  0  0
 44 22  1  0  0  0  0
 45 24  1  0  0  0  0
 48 25  1  0  0  0  0
 50 27  1  0  0  0  0
 52 28  1  0  0  0  0
 53 30  1  0  0  0  0
 54 30  1  0  0  0  0
 55 31  1  0  0  0  0
M  END
>  <Pose>
1

>  <Score>
-4.54

$$$$
