
 OpenBabel03232221553D

 52 55  0  0  0  0  0  0  0  0999 V2000
    6.3170  -19.0780  -37.7050 B   0  0  0  0  0  0  0  0  0  0  0  0
    4.8400  -19.6810  -38.7490 C   0  0  0  0  0  0  0  0  0  0  0  0
    3.6370  -20.0000  -38.1450 C   0  0  0  0  0  0  0  0  0  0  0  0
    2.5790  -20.4370  -38.9280 C   0  0  0  0  0  0  0  0  0  0  0  0
    2.7400  -20.5480  -40.2900 C   0  0  0  0  0  0  0  0  0  0  0  0
    3.9610  -20.2190  -40.8580 C   0  0  0  0  0  0  0  0  0  0  0  0
    5.0260  -19.7840  -40.1070 C   0  0  0  0  0  0  0  0  0  0  0  0
    6.2810  -19.4600  -40.7410 C   0  0  0  0  0  0  0  0  0  0  0  0
    6.4040  -18.6960  -41.7760 N   0  0  0  0  0  0  0  0  0  0  0  0
    7.6870  -18.4330  -42.3310 N   0  0  0  0  0  0  0  0  0  0  0  0
    8.4380  -19.4360  -42.9770 C   0  0  0  0  0  0  0  0  0  0  0  0
    7.8240  -20.5450  -43.4000 N   0  0  0  0  0  4  0  0  0  0  0  0
    8.4930  -21.5520  -44.0230 C   0  0  0  0  0  0  0  0  0  0  0  0
    9.8150  -21.4250  -44.2190 N   0  0  0  0  0  0  0  0  0  0  0  0
   10.4610  -20.3240  -43.8060 C   0  0  0  0  0  0  0  0  0  0  0  0
    9.7550  -19.3340  -43.1840 N   0  0  0  0  0  0  0  0  0  0  0  0
   11.8660  -20.1800  -44.0130 N   0  0  0  0  0  0  0  0  0  0  0  0
   12.7510  -21.2890  -44.2780 C   0  0  0  0  0  0  0  0  0  0  0  0
   14.0050  -21.1900  -43.4370 C   0  0  0  0  0  0  0  0  0  0  0  0
   14.0000  -20.0820  -42.6030 O   0  0  0  0  0  0  0  0  0  0  0  0
   13.8510  -18.9210  -43.3870 C   0  0  0  0  0  0  0  0  0  0  0  0
   12.4450  -18.8530  -43.9500 C   0  0  0  0  0  0  0  0  0  0  0  0
    7.7490  -22.6770  -44.4320 N   0  0  0  0  0  0  0  0  0  0  0  0
    7.8370  -23.1220  -45.7970 C   0  0  0  0  0  0  0  0  0  0  0  0
    8.2770  -24.5920  -45.7130 C   0  0  0  0  0  0  0  0  0  0  0  0
    7.2490  -25.2490  -45.0360 O   0  0  0  0  0  0  0  0  0  0  0  0
    7.1830  -24.8770  -43.6970 C   0  0  0  0  0  0  0  0  0  0  0  0
    6.8910  -23.4000  -43.5260 C   0  0  0  0  0  0  0  0  0  0  0  0
    1.6570  -20.9890  -41.0340 O   0  0  0  0  0  0  0  0  0  0  0  0
    3.4810  -19.8870  -36.7760 O   0  0  0  0  0  0  0  0  0  0  0  0
    1.6450  -20.6810  -38.4380 H   0  0  0  0  0  0  0  0  0  0  0  0
    4.0190  -20.3290  -41.9330 H   0  0  0  0  0  0  0  0  0  0  0  0
    7.2130  -19.8660  -40.3510 H   0  0  0  0  0  0  0  0  0  0  0  0
    8.0980  -17.4780  -42.2690 H   0  0  0  0  0  0  0  0  0  0  0  0
   13.0750  -21.1940  -45.3560 H   0  0  0  0  0  0  0  0  0  0  0  0
   12.2710  -22.2760  -44.1260 H   0  0  0  0  0  0  0  0  0  0  0  0
   14.9260  -21.1100  -44.0710 H   0  0  0  0  0  0  0  0  0  0  0  0
   14.1010  -22.0890  -42.7700 H   0  0  0  0  0  0  0  0  0  0  0  0
   14.0430  -18.0590  -42.7090 H   0  0  0  0  0  0  0  0  0  0  0  0
   14.6070  -18.9080  -44.2240 H   0  0  0  0  0  0  0  0  0  0  0  0
   12.4710  -18.4580  -44.9770 H   0  0  0  0  0  0  0  0  0  0  0  0
   11.8250  -18.1860  -43.2840 H   0  0  0  0  0  0  0  0  0  0  0  0
    8.5910  -22.5270  -46.3550 H   0  0  0  0  0  0  0  0  0  0  0  0
    6.8250  -23.0530  -46.2600 H   0  0  0  0  0  0  0  0  0  0  0  0
    8.4260  -25.0490  -46.6880 H   0  0  0  0  0  0  0  0  0  0  0  0
    9.2120  -24.5750  -45.0880 H   0  0  0  0  0  0  0  0  0  0  0  0
    8.0650  -25.1900  -43.1140 H   0  0  0  0  0  0  0  0  0  0  0  0
    6.2940  -25.4060  -43.2750 H   0  0  0  0  0  0  0  0  0  0  0  0
    5.8290  -23.2270  -43.8460 H   0  0  0  0  0  0  0  0  0  0  0  0
    7.0500  -23.1240  -42.4710 H   0  0  0  0  0  0  0  0  0  0  0  0
    1.3230  -21.9430  -41.0430 H   0  0  0  0  0  0  0  0  0  0  0  0
    3.1520  -20.6950  -36.2640 H   0  0  0  0  0  0  0  0  0  0  0  0
  2  3  1  0  0  0  0
  2  1  1  0  0  0  0
  3 30  1  0  0  0  0
  4 31  1  0  0  0  0
  4  3  2  0  0  0  0
  5  4  1  0  0  0  0
  6  5  2  0  0  0  0
  6  7  1  0  0  0  0
  7  2  2  0  0  0  0
  8 33  1  0  0  0  0
  8  7  1  0  0  0  0
  9  8  2  0  0  0  0
 10 34  1  0  0  0  0
 10  9  1  0  0  0  0
 11 10  1  0  0  0  0
 12 11  2  0  0  0  0
 13 12  2  0  0  0  0
 14 13  1  0  0  0  0
 14 15  2  0  0  0  0
 15 16  1  0  0  0  0
 16 11  1  0  0  0  0
 17 22  1  0  0  0  0
 17 15  1  0  0  0  0
 18 36  1  0  0  0  0
 18 17  1  0  0  0  0
 18 19  1  0  0  0  0
 19 38  1  0  0  0  0
 19 20  1  0  0  0  0
 21 39  1  0  0  0  0
 21 20  1  0  0  0  0
 22 21  1  0  0  0  0
 22 42  1  0  0  0  0
 23 13  1  0  0  0  0
 23 28  1  0  0  0  0
 24 25  1  0  0  0  0
 24 23  1  0  0  0  0
 25 46  1  0  0  0  0
 25 26  1  0  0  0  0
 26 27  1  0  0  0  0
 27 28  1  0  0  0  0
 27 48  1  0  0  0  0
 27 47  1  0  0  0  0
 28 50  1  0  0  0  0
 29  5  1  0  0  0  0
 30 52  1  0  0  0  0
 32  6  1  0  0  0  0
 35 18  1  0  0  0  0
 37 19  1  0  0  0  0
 40 21  1  0  0  0  0
 41 22  1  0  0  0  0
 43 24  1  0  0  0  0
 44 24  1  0  0  0  0
 45 25  1  0  0  0  0
 49 28  1  0  0  0  0
 51 29  1  0  0  0  0
M  END
>  <Pose>
1

>  <Score>
-5.10

$$$$
