
 OpenBabel03232221553D

 33 36  0  0  1  0  0  0  0  0999 V2000
    5.6260  -19.2450  -43.6880 B   0  0  0  0  0  0  0  0  0  0  0  0
    4.3020  -18.1820  -42.8140 C   0  0  0  0  0  0  0  0  0  0  0  0
    4.0530  -18.3010  -41.4700 C   0  0  0  0  0  0  0  0  0  0  0  0
    3.0870  -17.5240  -40.8760 C   0  0  0  0  0  0  0  0  0  0  0  0
    2.3440  -16.6060  -41.6060 C   0  0  0  0  0  0  0  0  0  0  0  0
    2.5780  -16.4710  -42.9530 C   0  0  0  0  0  0  0  0  0  0  0  0
    3.5630  -17.2660  -43.5490 C   0  0  0  0  0  0  0  0  0  0  0  0
    4.8020  -19.2510  -40.6080 C   0  0  1  0  0  0  0  0  0  0  0  0
    4.6070  -19.1480  -39.2290 C   0  0  1  0  0  0  0  0  0  0  0  0
    3.5160  -19.4130  -38.2520 C   0  0  0  0  0  0  0  0  0  0  0  0
    4.0060  -20.7700  -37.9010 N   0  0  0  0  0  0  0  0  0  0  0  0
    4.4160  -21.3370  -38.9920 C   0  0  1  0  0  0  0  0  0  0  0  0
    4.2080  -20.4080  -40.0580 C   0  0  2  0  0  0  0  0  0  0  0  0
    2.7800  -20.5240  -40.4800 C   0  0  0  0  0  0  0  0  0  0  0  0
    1.6520  -20.5960  -40.8320 N   0  0  0  0  0  0  0  0  0  0  0  0
    4.9780  -22.6650  -39.0910 N   0  0  0  0  0  0  0  0  0  0  0  0
    3.7000  -18.5640  -37.1550 O   0  0  0  0  0  0  0  0  0  0  0  0
    2.4900  -17.9400  -36.9190 C   0  0  0  0  0  0  0  0  0  0  0  0
    1.4970  -18.9260  -37.5120 C   0  0  0  0  0  0  0  0  0  0  0  0
    2.2400  -19.3420  -38.6440 O   0  0  0  0  0  0  0  0  0  0  0  0
    5.8950  -19.2820  -38.4580 C   0  0  0  0  0  0  0  0  0  0  0  0
    6.9020  -19.4090  -37.8550 N   0  0  0  0  0  0  0  0  0  0  0  0
    2.8450  -17.5760  -39.8030 H   0  0  0  0  0  0  0  0  0  0  0  0
    1.5870  -15.9900  -41.1570 H   0  0  0  0  0  0  0  0  0  0  0  0
    2.0210  -15.7720  -43.5260 H   0  0  0  0  0  0  0  0  0  0  0  0
    3.7830  -17.1920  -44.6120 H   0  0  0  0  0  0  0  0  0  0  0  0
    5.8320  -19.3920  -41.0420 H   0  0  0  0  0  0  0  0  0  0  0  0
    5.4900  -22.9680  -39.9420 H   0  0  0  0  0  0  0  0  0  0  0  0
    4.8800  -23.3410  -38.3120 H   0  0  0  0  0  0  0  0  0  0  0  0
    2.4590  -16.9940  -37.5000 H   0  0  0  0  0  0  0  0  0  0  0  0
    2.3080  -17.7620  -35.8380 H   0  0  0  0  0  0  0  0  0  0  0  0
    1.3460  -19.7800  -36.8170 H   0  0  0  0  0  0  0  0  0  0  0  0
    0.5450  -18.4600  -37.7990 H   0  0  0  0  0  0  0  0  0  0  0  0
  1  2  1  0  0  0  0
  2  3  1  0  0  0  0
  3  4  2  0  0  0  0
  3  8  1  0  0  0  0
  4 23  1  0  0  0  0
  5 24  1  0  0  0  0
  5  4  1  0  0  0  0
  6  5  2  0  0  0  0
  7  6  1  0  0  0  0
  7  2  2  0  0  0  0
  8 27  1  6  0  0  0
  8 13  1  0  0  0  0
  8  9  1  0  0  0  0
  9 21  1  1  0  0  0
  9 10  1  0  0  0  0
 10 11  1  0  0  0  0
 10 17  1  0  0  0  0
 12 16  1  1  0  0  0
 12 11  1  0  0  0  0
 13 14  1  6  0  0  0
 13  9  1  0  0  0  0
 13 12  1  0  0  0  0
 15 14  3  0  0  0  0
 16 29  1  0  0  0  0
 17 18  1  0  0  0  0
 18 31  1  0  0  0  0
 19 18  1  0  0  0  0
 19 32  1  0  0  0  0
 20 10  1  0  0  0  0
 20 19  1  0  0  0  0
 21 22  3  0  0  0  0
 25  6  1  0  0  0  0
 26  7  1  0  0  0  0
 28 16  1  0  0  0  0
 30 18  1  0  0  0  0
 33 19  1  0  0  0  0
M  END
>  <Pose>
1

>  <Score>
-3.71

$$$$
