
 OpenBabel03232221553D

 40 43  0  0  0  0  0  0  0  0999 V2000
    5.3540  -19.6330  -41.4270 B   0  0  0  0  0  0  0  0  0  0  0  0
    5.1890  -19.4480  -39.5340 C   0  0  0  0  0  0  0  0  0  0  0  0
    4.0680  -19.4240  -38.7700 C   0  0  0  0  0  0  0  0  0  0  0  0
    4.4440  -19.2520  -37.4570 N   0  0  0  0  0  0  0  0  0  0  0  0
    5.7490  -19.1790  -37.4460 N   0  0  0  0  0  0  0  0  0  0  0  0
    6.2810  -19.2880  -38.6580 C   0  0  0  0  0  0  0  0  0  0  0  0
    3.5660  -19.1710  -36.3190 C   0  0  0  0  0  0  0  0  0  0  0  0
    2.6570  -19.5720  -39.1820 C   0  0  0  0  0  0  0  0  0  0  0  0
    2.4010  -20.5260  -40.0070 O   0  0  0  0  0  0  0  0  0  0  0  0
    1.6270  -18.7510  -38.7310 N   0  0  0  0  0  0  0  0  0  0  0  0
    1.6620  -17.3340  -38.6920 C   0  0  0  0  0  0  0  0  0  0  0  0
    1.3970  -16.7210  -37.4510 C   0  0  0  0  0  0  0  0  0  0  0  0
    1.1030  -17.2640  -36.2390 N   0  0  0  0  0  0  0  0  0  0  0  0
    0.9440  -16.2780  -35.4080 O   0  0  0  0  0  0  0  0  0  0  0  0
    1.1160  -15.1420  -36.0090 N   0  0  0  0  0  0  0  0  0  0  0  0
    1.4040  -15.3590  -37.2990 C   0  0  0  0  0  0  0  0  0  0  0  0
    1.6690  -14.5000  -38.3450 C   0  0  0  0  0  0  0  0  0  0  0  0
    1.9280  -15.1050  -39.5610 C   0  0  0  0  0  0  0  0  0  0  0  0
    1.9240  -16.4880  -39.7270 C   0  0  0  0  0  0  0  0  0  0  0  0
    1.6790  -13.1000  -38.2040 N   0  0  0  0  0  0  0  0  0  0  0  0
    1.0910  -12.2910  -39.2690 C   0  0  0  0  0  0  0  0  0  0  0  0
    1.3370  -10.8230  -39.0500 C   0  0  0  0  0  0  0  0  0  0  0  0
    2.5590  -10.4880  -38.5700 O   0  0  0  0  0  0  0  0  0  0  0  0
    3.2040  -11.3720  -37.7540 C   0  0  0  0  0  0  0  0  0  0  0  0
    2.2020  -12.3170  -37.1260 C   0  0  0  0  0  0  0  0  0  0  0  0
    7.2980  -19.2680  -38.9850 H   0  0  0  0  0  0  0  0  0  0  0  0
    2.8490  -20.0230  -36.3240 H   0  0  0  0  0  0  0  0  0  0  0  0
    2.9800  -18.2360  -36.3670 H   0  0  0  0  0  0  0  0  0  0  0  0
    4.1680  -19.1570  -35.3990 H   0  0  0  0  0  0  0  0  0  0  0  0
    0.7600  -19.2600  -38.3810 H   0  0  0  0  0  0  0  0  0  0  0  0
    2.1390  -14.4500  -40.3940 H   0  0  0  0  0  0  0  0  0  0  0  0
    2.1340  -16.8880  -40.6980 H   0  0  0  0  0  0  0  0  0  0  0  0
    1.5180  -12.5550  -40.2590 H   0  0  0  0  0  0  0  0  0  0  0  0
   -0.0120  -12.4460  -39.3220 H   0  0  0  0  0  0  0  0  0  0  0  0
    1.2150  -10.3290  -40.0550 H   0  0  0  0  0  0  0  0  0  0  0  0
    0.4830  -10.4250  -38.4390 H   0  0  0  0  0  0  0  0  0  0  0  0
    3.8880  -11.9930  -38.3910 H   0  0  0  0  0  0  0  0  0  0  0  0
    3.8030  -10.8930  -36.9450 H   0  0  0  0  0  0  0  0  0  0  0  0
    1.3400  -11.6740  -36.7720 H   0  0  0  0  0  0  0  0  0  0  0  0
    2.5640  -12.8260  -36.2520 H   0  0  0  0  0  0  0  0  0  0  0  0
  1  2  1  0  0  0  0
  2  3  2  0  0  0  0
  2  6  1  0  0  0  0
  3  4  1  0  0  0  0
  4  5  1  0  0  0  0
  4  7  1  0  0  0  0
  6  5  2  0  0  0  0
  7 29  1  0  0  0  0
  8  3  1  0  0  0  0
  8 10  1  0  0  0  0
  9  8  2  0  0  0  0
 10 11  1  0  0  0  0
 10 30  1  0  0  0  0
 11 12  1  0  0  0  0
 12 16  1  0  0  0  0
 12 13  2  0  0  0  0
 13 14  1  0  0  0  0
 15 14  1  0  0  0  0
 16 15  2  0  0  0  0
 17 20  1  0  0  0  0
 17 16  1  0  0  0  0
 18 17  2  0  0  0  0
 19 18  1  0  0  0  0
 19 11  2  0  0  0  0
 20 25  1  0  0  0  0
 21 22  1  0  0  0  0
 21 20  1  0  0  0  0
 22 23  1  0  0  0  0
 22 36  1  0  0  0  0
 23 24  1  0  0  0  0
 24 25  1  0  0  0  0
 24 38  1  0  0  0  0
 25 39  1  0  0  0  0
 25 40  1  0  0  0  0
 26  6  1  0  0  0  0
 27  7  1  0  0  0  0
 28  7  1  0  0  0  0
 31 18  1  0  0  0  0
 32 19  1  0  0  0  0
 33 21  1  0  0  0  0
 34 21  1  0  0  0  0
 35 22  1  0  0  0  0
 37 24  1  0  0  0  0
M  END
>  <Pose>
1

>  <Score>
-4.64

$$$$
