
 OpenBabel03232221553D

 49 52  0  0  0  0  0  0  0  0999 V2000
    4.0570  -23.8640  -42.5070 B   0  0  0  0  0  0  0  0  0  0  0  0
    4.9720  -22.2940  -41.9990 C   0  0  0  0  0  0  0  0  0  0  0  0
    4.8440  -21.8170  -40.7040 C   0  0  0  0  0  0  0  0  0  0  0  0
    5.4910  -20.6770  -40.3060 C   0  0  0  0  0  0  0  0  0  0  0  0
    6.2850  -19.9590  -41.1480 C   0  0  0  0  0  0  0  0  0  0  0  0
    6.4210  -20.4340  -42.4570 C   0  0  0  0  0  0  0  0  0  0  0  0
    5.7700  -21.5840  -42.8620 C   0  0  0  0  0  0  0  0  0  0  0  0
    5.3890  -20.1680  -38.8920 C   0  0  0  0  0  0  0  0  0  0  0  0
    6.5290  -20.0130  -38.3280 O   0  0  0  0  0  0  0  0  0  0  0  0
    4.1840  -19.9400  -38.3960 N   0  0  0  0  0  0  0  0  0  0  0  0
    2.9220  -19.7010  -37.8750 C   0  0  0  0  0  0  0  0  0  0  0  0
    2.9130  -18.4870  -36.9810 C   0  0  0  0  0  0  0  0  0  0  0  0
    3.7550  -18.5310  -36.0170 O   0  0  0  0  0  0  0  0  0  0  0  0
    2.0660  -17.3850  -37.1620 N   0  0  0  0  0  0  0  0  0  0  0  0
    1.6900  -16.8970  -38.4500 C   0  0  0  0  0  0  0  0  0  0  0  0
    0.2770  -16.3880  -38.4880 C   0  0  0  0  0  0  0  0  0  0  0  0
   -0.6230  -16.9270  -37.3980 C   0  0  0  0  0  0  0  0  0  0  0  0
   -1.8040  -16.0780  -37.4720 N   0  0  0  0  0  0  0  0  0  0  0  0
   -2.9130  -16.4860  -36.6980 C   0  0  0  0  0  0  0  0  0  0  0  0
   -2.9500  -17.8910  -36.2210 C   0  0  0  0  0  0  0  0  0  0  0  0
   -2.1900  -18.8050  -37.1290 C   0  0  0  0  0  0  0  0  0  0  0  0
   -2.4090  -20.0620  -37.5120 N   0  0  0  0  0  0  0  0  0  0  0  0
   -1.3920  -20.3760  -38.3420 C   0  0  0  0  0  0  0  0  0  0  0  0
   -0.5510  -19.3270  -38.4710 N   0  0  0  0  0  0  0  0  0  0  0  0
   -1.0440  -18.3130  -37.7020 C   0  0  0  0  0  0  0  0  0  0  0  0
   -0.0170  -16.8650  -36.0190 C   0  0  0  0  0  0  0  0  0  0  0  0
    1.4890  -16.6710  -36.0290 C   0  0  0  0  0  0  0  0  0  0  0  0
    4.2340  -22.3430  -40.0060 H   0  0  0  0  0  0  0  0  0  0  0  0
    6.7810  -19.0720  -40.8090 H   0  0  0  0  0  0  0  0  0  0  0  0
    7.0370  -19.8950  -43.1530 H   0  0  0  0  0  0  0  0  0  0  0  0
    5.8770  -21.9510  -43.8720 H   0  0  0  0  0  0  0  0  0  0  0  0
    4.1880  -18.6670  -38.9360 H   0  0  0  0  0  0  0  0  0  0  0  0
    2.5650  -20.5870  -37.2440 H   0  0  0  0  0  0  0  0  0  0  0  0
    2.1320  -19.6320  -38.6630 H   0  0  0  0  0  0  0  0  0  0  0  0
    2.3530  -15.9980  -38.6380 H   0  0  0  0  0  0  0  0  0  0  0  0
    1.9360  -17.5840  -39.2810 H   0  0  0  0  0  0  0  0  0  0  0  0
    0.2700  -15.2930  -38.4370 H   0  0  0  0  0  0  0  0  0  0  0  0
   -0.1570  -16.7400  -39.4480 H   0  0  0  0  0  0  0  0  0  0  0  0
   -1.4480  -15.1240  -37.1750 H   0  0  0  0  0  0  0  0  0  0  0  0
   -3.8370  -16.3330  -37.3350 H   0  0  0  0  0  0  0  0  0  0  0  0
   -3.0460  -15.7650  -35.8380 H   0  0  0  0  0  0  0  0  0  0  0  0
   -2.5520  -17.9460  -35.1810 H   0  0  0  0  0  0  0  0  0  0  0  0
   -4.0220  -18.2240  -36.1230 H   0  0  0  0  0  0  0  0  0  0  0  0
   -1.3020  -21.3370  -38.8120 H   0  0  0  0  0  0  0  0  0  0  0  0
    0.3060  -19.3070  -39.0480 H   0  0  0  0  0  0  0  0  0  0  0  0
   -0.1890  -17.8580  -35.5030 H   0  0  0  0  0  0  0  0  0  0  0  0
   -0.4400  -16.0720  -35.3830 H   0  0  0  0  0  0  0  0  0  0  0  0
    1.7640  -15.5910  -36.0500 H   0  0  0  0  0  0  0  0  0  0  0  0
    1.8820  -17.1300  -35.1040 H   0  0  0  0  0  0  0  0  0  0  0  0
  1  2  1  0  0  0  0
  2  3  1  0  0  0  0
  3  4  2  0  0  0  0
  3 28  1  0  0  0  0
  4  8  1  0  0  0  0
  5 29  1  0  0  0  0
  5  4  1  0  0  0  0
  6  5  2  0  0  0  0
  7  6  1  0  0  0  0
  7  2  2  0  0  0  0
  8 10  1  0  0  0  0
  8  9  2  0  0  0  0
 10 11  1  0  0  0  0
 11 33  1  0  0  0  0
 11 12  1  0  0  0  0
 12 13  2  0  0  0  0
 14 12  1  0  0  0  0
 14 27  1  0  0  0  0
 15 14  1  0  0  0  0
 16 15  1  0  0  0  0
 16 37  1  0  0  0  0
 16 17  1  0  0  0  0
 17 26  1  0  0  0  0
 18 17  1  0  0  0  0
 18 39  1  0  0  0  0
 18 19  1  0  0  0  0
 19 20  1  0  0  0  0
 19 41  1  0  0  0  0
 20 43  1  0  0  0  0
 20 42  1  0  0  0  0
 21 20  1  0  0  0  0
 22 21  1  0  0  0  0
 23 22  2  0  0  0  0
 24 23  1  0  0  0  0
 24 25  1  0  0  0  0
 25 17  1  0  0  0  0
 25 21  2  0  0  0  0
 26 46  1  0  0  0  0
 26 47  1  0  0  0  0
 27 26  1  0  0  0  0
 27 49  1  0  0  0  0
 30  6  1  0  0  0  0
 31  7  1  0  0  0  0
 32 10  1  0  0  0  0
 34 11  1  0  0  0  0
 35 15  1  0  0  0  0
 36 15  1  0  0  0  0
 38 16  1  0  0  0  0
 40 19  1  0  0  0  0
 44 23  1  0  0  0  0
 45 24  1  0  0  0  0
 48 27  1  0  0  0  0
M  END
>  <Pose>
1

>  <Score>
-4.47

$$$$
