
 OpenBabel03232221553D

 48 51  0  0  1  0  0  0  0  0999 V2000
    4.7730  -25.2610  -43.5060 B   0  0  0  0  0  0  0  0  0  0  0  0
    4.9960  -23.4660  -42.8810 C   0  0  0  0  0  0  0  0  0  0  0  0
    4.0400  -22.8880  -42.0930 C   0  0  0  0  0  0  0  0  0  0  0  0
    4.1940  -21.5850  -41.6340 C   0  0  0  0  0  0  0  0  0  0  0  0
    5.3170  -20.9090  -41.9930 C   0  0  0  0  0  0  0  0  0  0  0  0
    6.2800  -21.5030  -42.7930 C   0  0  0  0  0  0  0  0  0  0  0  0
    6.1270  -22.7910  -43.2440 C   0  0  0  0  0  0  0  0  0  0  0  0
    3.1720  -20.9740  -40.8010 C   0  0  0  0  0  0  0  0  0  0  0  0
    1.9900  -20.8350  -41.2870 O   0  0  0  0  0  0  0  0  0  0  0  0
    3.4380  -20.5340  -39.4880 N   0  0  0  0  0  0  0  0  0  0  0  0
    2.4450  -19.6870  -38.8520 C   0  0  2  0  0  0  0  0  0  0  0  0
    2.4430  -18.2910  -39.4450 C   0  0  0  0  0  0  0  0  0  0  0  0
    1.8930  -17.4850  -38.3730 N   0  0  0  0  0  0  0  0  0  0  0  0
    1.7720  -18.2570  -37.1530 C   0  0  1  0  0  0  0  0  0  0  0  0
    2.7570  -19.4040  -37.4100 C   0  0  0  0  0  0  0  0  0  0  0  0
    2.1940  -17.4220  -36.0290 C   0  0  0  0  0  0  0  0  0  0  0  0
    3.0570  -17.8040  -35.2250 O   0  0  0  0  0  0  0  0  0  0  0  0
    1.5830  -16.1500  -35.8820 N   0  0  0  0  0  0  0  0  0  0  0  0
    1.0590  -15.4730  -37.0470 C   0  0  1  0  0  0  0  0  0  0  0  0
    1.4670  -16.1160  -38.3160 C   0  0  0  0  0  0  0  0  0  0  0  0
    1.4460  -15.4520  -39.3860 O   0  0  0  0  0  0  0  0  0  0  0  0
   -0.4380  -15.2630  -36.9720 C   0  0  0  0  0  0  0  0  0  0  0  0
   -0.8140  -13.9200  -36.5000 C   0  0  0  0  0  0  0  0  0  0  0  0
    0.1700  -12.9920  -36.2130 C   0  0  0  0  0  0  0  0  0  0  0  0
   -0.1720  -11.7350  -35.7710 C   0  0  0  0  0  0  0  0  0  0  0  0
   -1.4840  -11.3390  -35.5930 C   0  0  0  0  0  0  0  0  0  0  0  0
   -2.4680  -12.2620  -35.8780 C   0  0  0  0  0  0  0  0  0  0  0  0
   -2.1430  -13.5290  -36.3230 C   0  0  0  0  0  0  0  0  0  0  0  0
    3.1270  -23.4070  -41.7880 H   0  0  0  0  0  0  0  0  0  0  0  0
    5.4650  -19.8820  -41.6510 H   0  0  0  0  0  0  0  0  0  0  0  0
    7.1710  -20.9680  -43.0780 H   0  0  0  0  0  0  0  0  0  0  0  0
    6.8660  -23.2850  -43.8750 H   0  0  0  0  0  0  0  0  0  0  0  0
    4.3080  -20.8190  -39.0180 H   0  0  0  0  0  0  0  0  0  0  0  0
    1.4330  -20.0790  -38.9390 H   0  0  0  0  0  0  0  0  0  0  0  0
    3.4680  -17.9310  -39.6810 H   0  0  0  0  0  0  0  0  0  0  0  0
    1.8140  -18.2330  -40.3600 H   0  0  0  0  0  0  0  0  0  0  0  0
    0.7500  -18.6620  -36.9980 H   0  0  0  0  0  0  0  0  0  0  0  0
    2.4600  -20.2120  -36.7230 H   0  0  0  0  0  0  0  0  0  0  0  0
    3.7660  -19.0080  -37.2440 H   0  0  0  0  0  0  0  0  0  0  0  0
    1.4940  -15.6720  -34.9570 H   0  0  0  0  0  0  0  0  0  0  0  0
    1.5000  -14.4320  -37.0040 H   0  0  0  0  0  0  0  0  0  0  0  0
   -0.8680  -15.4720  -37.9700 H   0  0  0  0  0  0  0  0  0  0  0  0
   -0.8320  -15.9970  -36.2500 H   0  0  0  0  0  0  0  0  0  0  0  0
    1.2280  -13.2040  -36.3190 H   0  0  0  0  0  0  0  0  0  0  0  0
    0.5930  -11.0040  -35.5450 H   0  0  0  0  0  0  0  0  0  0  0  0
   -1.7160  -10.3310  -35.2410 H   0  0  0  0  0  0  0  0  0  0  0  0
   -3.5040  -11.9490  -35.7380 H   0  0  0  0  0  0  0  0  0  0  0  0
   -2.9400  -14.2290  -36.5370 H   0  0  0  0  0  0  0  0  0  0  0  0
  1  2  1  0  0  0  0
  2  3  1  0  0  0  0
  3 29  1  0  0  0  0
  3  4  2  0  0  0  0
  4  8  1  0  0  0  0
  5 30  1  0  0  0  0
  5  4  1  0  0  0  0
  6  5  2  0  0  0  0
  7  2  2  0  0  0  0
  7  6  1  0  0  0  0
  8 10  1  0  0  0  0
  9  8  2  0  0  0  0
 10 33  1  0  0  0  0
 10 11  1  0  0  0  0
 11 34  1  6  0  0  0
 11 15  1  0  0  0  0
 12 11  1  0  0  0  0
 12 13  1  0  0  0  0
 13 20  1  0  0  0  0
 13 14  1  0  0  0  0
 14 37  1  1  0  0  0
 14 16  1  0  0  0  0
 15 39  1  0  0  0  0
 15 14  1  0  0  0  0
 15 38  1  0  0  0  0
 16 18  1  0  0  0  0
 16 17  2  0  0  0  0
 18 40  1  0  0  0  0
 19 41  1  6  0  0  0
 19 22  1  0  0  0  0
 19 18  1  0  0  0  0
 20 19  1  0  0  0  0
 21 20  2  0  0  0  0
 22 23  1  0  0  0  0
 22 43  1  0  0  0  0
 23 28  2  0  0  0  0
 23 24  1  0  0  0  0
 24 25  2  0  0  0  0
 25 26  1  0  0  0  0
 25 45  1  0  0  0  0
 26 46  1  0  0  0  0
 27 47  1  0  0  0  0
 27 26  2  0  0  0  0
 28 27  1  0  0  0  0
 31  6  1  0  0  0  0
 32  7  1  0  0  0  0
 35 12  1  0  0  0  0
 36 12  1  0  0  0  0
 42 22  1  0  0  0  0
 44 24  1  0  0  0  0
 48 28  1  0  0  0  0
M  END
>  <Pose>
1

>  <Score>
-4.25

$$$$
