
 OpenBabel03232221553D

 35 38  0  0  1  0  0  0  0  0999 V2000
   10.5130  -26.3570  -42.6770 B   0  0  0  0  0  0  0  0  0  0  0  0
    9.8850  -24.7570  -43.4970 C   0  0  0  0  0  0  0  0  0  0  0  0
    8.6320  -24.2990  -43.1710 C   0  0  0  0  0  0  0  0  0  0  0  0
    8.1280  -23.1310  -43.7400 C   0  0  0  0  0  0  0  0  0  0  0  0
    8.9110  -22.4600  -44.6280 C   0  0  0  0  0  0  0  0  0  0  0  0
   10.1670  -22.9250  -44.9500 C   0  0  0  0  0  0  0  0  0  0  0  0
   10.6850  -24.0730  -44.4030 C   0  0  0  0  0  0  0  0  0  0  0  0
    6.7990  -22.6890  -43.3700 C   0  0  0  0  0  0  0  0  0  0  0  0
    5.9080  -23.5530  -43.2910 O   0  0  0  0  0  0  0  0  0  0  0  0
    6.5240  -21.3350  -43.1090 N   0  0  0  0  0  0  0  0  0  0  0  0
    5.8290  -20.8410  -41.9880 N   0  0  0  0  0  0  0  0  0  0  0  0
    6.0720  -19.5120  -41.4900 C   0  0  0  0  0  0  0  0  0  0  0  0
    6.8840  -18.6440  -41.9430 O   0  0  0  0  0  0  0  0  0  0  0  0
    5.2170  -19.2910  -40.3400 C   0  0  1  0  0  0  0  0  0  0  0  0
    4.0970  -20.3470  -40.4260 C   0  0  2  0  0  0  0  0  0  0  0  0
    3.8640  -20.8090  -39.0250 C   0  0  2  0  0  0  0  0  0  0  0  0
    4.5020  -19.6710  -38.2040 C   0  0  0  0  0  0  0  0  0  0  0  0
    5.8190  -19.7170  -39.0080 C   0  0  1  0  0  0  0  0  0  0  0  0
    6.0550  -21.1890  -38.9850 C   0  0  0  0  0  0  0  0  0  0  0  0
    4.9170  -21.8490  -38.7320 C   0  0  0  0  0  0  0  0  0  0  0  0
    4.8560  -21.4290  -41.1690 C   0  0  0  0  0  0  0  0  0  0  0  0
    4.6260  -22.6530  -41.0460 O   0  0  0  0  0  0  0  0  0  0  0  0
    8.0270  -24.8530  -42.4580 H   0  0  0  0  0  0  0  0  0  0  0  0
    8.5730  -21.5620  -45.0940 H   0  0  0  0  0  0  0  0  0  0  0  0
   10.8080  -22.3930  -45.6640 H   0  0  0  0  0  0  0  0  0  0  0  0
   11.6490  -24.4780  -44.6160 H   0  0  0  0  0  0  0  0  0  0  0  0
    6.8900  -20.6480  -43.8420 H   0  0  0  0  0  0  0  0  0  0  0  0
    4.8250  -18.2790  -40.2280 H   0  0  0  0  0  0  0  0  0  0  0  0
    3.2280  -20.0050  -40.9770 H   0  0  0  0  0  0  0  0  0  0  0  0
    2.8730  -21.0640  -38.7470 H   0  0  0  0  0  0  0  0  0  0  0  0
    4.6770  -19.9790  -37.1660 H   0  0  0  0  0  0  0  0  0  0  0  0
    3.9830  -18.7220  -38.3210 H   0  0  0  0  0  0  0  0  0  0  0  0
    6.5850  -19.0940  -38.6130 H   0  0  0  0  0  0  0  0  0  0  0  0
    7.0100  -21.6970  -39.1470 H   0  0  0  0  0  0  0  0  0  0  0  0
    4.6990  -22.8320  -38.4120 H   0  0  0  0  0  0  0  0  0  0  0  0
  2  3  1  0  0  0  0
  2  1  1  0  0  0  0
  3 23  1  0  0  0  0
  4  8  1  0  0  0  0
  4  3  2  0  0  0  0
  5  4  1  0  0  0  0
  6  5  2  0  0  0  0
  6  7  1  0  0  0  0
  7  2  2  0  0  0  0
  8  9  2  0  0  0  0
  8 10  1  0  0  0  0
 10 11  1  0  0  0  0
 11 12  1  0  0  0  0
 11 21  1  0  0  0  0
 12 14  1  0  0  0  0
 13 12  2  0  0  0  0
 14 28  1  1  0  0  0
 14 18  1  0  0  0  0
 15 29  1  6  0  0  0
 15 14  1  0  0  0  0
 15 16  1  0  0  0  0
 16 30  1  1  0  0  0
 16 20  1  0  0  0  0
 16 17  1  0  0  0  0
 17 31  1  0  0  0  0
 18 19  1  0  0  0  0
 18 33  1  1  0  0  0
 18 17  1  0  0  0  0
 19 20  1  0  0  0  0
 20 35  1  0  0  0  0
 21 22  2  0  0  0  0
 21 15  1  0  0  0  0
 24  5  1  0  0  0  0
 25  6  1  0  0  0  0
 26  7  1  0  0  0  0
 27 10  1  0  0  0  0
 32 17  1  0  0  0  0
 34 19  1  0  0  0  0
M  END
>  <Pose>
1

>  <Score>
-3.80

$$$$
