
 OpenBabel03232221553D

 52 55  0  0  0  0  0  0  0  0999 V2000
   -1.2800  -27.3750  -41.0950 B   0  0  0  0  0  0  0  0  0  0  0  0
   -0.1430  -26.6630  -42.4650 C   0  0  0  0  0  0  0  0  0  0  0  0
    0.8590  -25.7390  -42.1750 C   0  0  0  0  0  0  0  0  0  0  0  0
    1.6290  -25.2300  -43.2030 C   0  0  0  0  0  0  0  0  0  0  0  0
    1.3720  -25.6730  -44.4880 C   0  0  0  0  0  0  0  0  0  0  0  0
    0.3820  -26.5820  -44.7260 C   0  0  0  0  0  0  0  0  0  0  0  0
   -0.4220  -27.1120  -43.7510 C   0  0  0  0  0  0  0  0  0  0  0  0
    2.6250  -24.1510  -43.0650 C   0  0  0  0  0  0  0  0  0  0  0  0
    3.8400  -24.2500  -43.5270 N   0  0  0  0  0  0  0  0  0  0  0  0
    4.8120  -23.3680  -43.4480 N   0  0  0  0  0  0  0  0  0  0  0  0
    5.3960  -22.2070  -43.0310 C   0  0  0  0  0  0  0  0  0  0  0  0
    5.8120  -21.2550  -43.7280 O   0  0  0  0  0  0  0  0  0  0  0  0
    5.5310  -22.0610  -41.5220 C   0  0  0  0  0  0  0  0  0  0  0  0
    6.4900  -22.3650  -40.7170 N   0  0  0  0  0  0  0  0  0  0  0  0
    6.2440  -21.8690  -39.5090 N   0  0  0  0  0  0  0  0  0  0  0  0
    5.0610  -21.2000  -39.5470 N   0  0  0  0  0  0  0  0  0  0  0  0
    4.5710  -21.3080  -40.7370 C   0  0  0  0  0  0  0  0  0  0  0  0
    3.3430  -20.8930  -41.4060 C   0  0  0  0  0  0  0  0  0  0  0  0
    2.0910  -20.9250  -40.7990 N   0  0  0  0  0  0  0  0  0  0  0  0
    1.3670  -20.0970  -40.0290 C   0  0  0  0  0  0  0  0  0  0  0  0
    0.1860  -19.5480  -40.8740 C   0  0  0  0  0  0  0  0  0  0  0  0
    0.5770  -19.6130  -42.2370 N   0  0  0  0  0  0  0  0  0  0  0  0
    0.6220  -20.9680  -42.6950 C   0  0  0  0  0  0  0  0  0  0  0  0
    1.1660  -21.8280  -41.5470 C   0  0  0  0  0  0  0  0  0  0  0  0
    0.0980  -18.6570  -43.1440 C   0  0  0  0  0  0  0  0  0  0  0  0
    4.8390  -20.2050  -38.5080 C   0  0  0  0  0  0  0  0  0  0  0  0
    3.5540  -20.3270  -37.8620 N   0  0  0  0  0  0  0  0  0  0  0  0
    3.4090  -19.4510  -36.9850 O   0  0  0  0  0  0  0  0  0  0  0  0
    4.4710  -18.7060  -36.9470 N   0  0  0  0  0  0  0  0  0  0  0  0
    5.3590  -19.1930  -37.9050 C   0  0  0  0  0  0  0  0  0  0  0  0
    6.6090  -18.5630  -38.0710 N   0  0  0  0  0  0  0  0  0  0  0  0
    1.0180  -25.4240  -41.1700 H   0  0  0  0  0  0  0  0  0  0  0  0
    1.9940  -25.2670  -45.2780 H   0  0  0  0  0  0  0  0  0  0  0  0
    0.1880  -26.9470  -45.7600 H   0  0  0  0  0  0  0  0  0  0  0  0
   -1.1940  -27.8150  -43.9860 H   0  0  0  0  0  0  0  0  0  0  0  0
    2.4260  -23.2730  -42.4890 H   0  0  0  0  0  0  0  0  0  0  0  0
    5.7200  -23.9320  -44.0440 H   0  0  0  0  0  0  0  0  0  0  0  0
    3.5890  -19.6910  -41.5790 H   0  0  0  0  0  0  0  0  0  0  0  0
    3.2610  -21.1730  -42.4600 H   0  0  0  0  0  0  0  0  0  0  0  0
    1.8130  -19.3030  -39.4630 H   0  0  0  0  0  0  0  0  0  0  0  0
    0.8360  -20.7410  -39.2150 H   0  0  0  0  0  0  0  0  0  0  0  0
   -0.6850  -20.1520  -40.6960 H   0  0  0  0  0  0  0  0  0  0  0  0
    0.0620  -18.5030  -40.5740 H   0  0  0  0  0  0  0  0  0  0  0  0
    1.2930  -21.1370  -43.5930 H   0  0  0  0  0  0  0  0  0  0  0  0
   -0.3790  -21.3020  -42.9880 H   0  0  0  0  0  0  0  0  0  0  0  0
    1.6580  -22.7190  -41.8410 H   0  0  0  0  0  0  0  0  0  0  0  0
    0.3630  -22.0550  -40.8710 H   0  0  0  0  0  0  0  0  0  0  0  0
   -0.5760  -17.9500  -42.5780 H   0  0  0  0  0  0  0  0  0  0  0  0
    0.9820  -18.0430  -43.5080 H   0  0  0  0  0  0  0  0  0  0  0  0
   -0.4500  -19.0770  -43.9880 H   0  0  0  0  0  0  0  0  0  0  0  0
    6.9330  -18.0420  -37.1820 H   0  0  0  0  0  0  0  0  0  0  0  0
    7.2400  -18.5090  -38.8470 H   0  0  0  0  0  0  0  0  0  0  0  0
  2  3  1  0  0  0  0
  2  1  1  0  0  0  0
  3 32  1  0  0  0  0
  4  8  1  0  0  0  0
  4  3  2  0  0  0  0
  5  4  1  0  0  0  0
  6  5  2  0  0  0  0
  6  7  1  0  0  0  0
  7  2  2  0  0  0  0
  8 36  1  0  0  0  0
  9 10  1  0  0  0  0
  9  8  2  0  0  0  0
 10 11  1  0  0  0  0
 11 13  1  0  0  0  0
 12 11  2  0  0  0  0
 13 17  2  0  0  0  0
 13 14  1  0  0  0  0
 14 15  2  0  0  0  0
 16 15  1  0  0  0  0
 16 26  1  0  0  0  0
 17 16  1  0  0  0  0
 18 19  1  0  0  0  0
 18 17  1  0  0  0  0
 19 20  1  0  0  0  0
 20 40  1  0  0  0  0
 20 41  1  0  0  0  0
 21 42  1  0  0  0  0
 21 43  1  0  0  0  0
 21 20  1  0  0  0  0
 22 21  1  0  0  0  0
 23 22  1  0  0  0  0
 23 24  1  0  0  0  0
 24 47  1  0  0  0  0
 24 19  1  0  0  0  0
 25 48  1  0  0  0  0
 25 22  1  0  0  0  0
 26 30  1  0  0  0  0
 26 27  2  0  0  0  0
 27 28  1  0  0  0  0
 28 29  1  0  0  0  0
 30 29  2  0  0  0  0
 31 30  1  0  0  0  0
 31 51  1  0  0  0  0
 33  5  1  0  0  0  0
 34  6  1  0  0  0  0
 35  7  1  0  0  0  0
 37 10  1  0  0  0  0
 38 18  1  0  0  0  0
 39 18  1  0  0  0  0
 44 23  1  0  0  0  0
 45 23  1  0  0  0  0
 46 24  1  0  0  0  0
 49 25  1  0  0  0  0
 50 25  1  0  0  0  0
 52 31  1  0  0  0  0
M  END
>  <Pose>
1

>  <Score>
-4.93

$$$$
