
 OpenBabel03232221553D

 61 64  0  0  1  0  0  0  0  0999 V2000
    7.2010  -20.4660  -43.7390 B   0  0  0  0  0  0  0  0  0  0  0  0
    8.8710  -21.2370  -44.2510 C   0  0  0  0  0  0  0  0  0  0  0  0
    9.1410  -22.5700  -44.1920 C   0  0  0  0  0  0  0  0  0  0  0  0
   10.3370  -23.1670  -44.5530 C   0  0  0  0  0  0  0  0  0  0  0  0
   11.3500  -22.3320  -45.0160 C   0  0  0  0  0  0  0  0  0  0  0  0
   11.1100  -20.9740  -45.0900 C   0  0  0  0  0  0  0  0  0  0  0  0
    9.9020  -20.4070  -44.7200 C   0  0  0  0  0  0  0  0  0  0  0  0
   10.4620  -24.6200  -44.4040 C   0  0  1  0  0  0  0  0  0  0  0  0
   11.0390  -24.9550  -43.1560 N   0  0  0  0  0  0  0  0  0  0  0  0
   10.0880  -25.6390  -42.3570 C   0  0  0  0  0  0  0  0  0  0  0  0
   10.2680  -25.9900  -41.1500 O   0  0  0  0  0  0  0  0  0  0  0  0
    8.9000  -25.8690  -43.1520 C   0  0  0  0  0  0  0  0  0  0  0  0
    7.8920  -26.4610  -42.6800 O   0  0  0  0  0  0  0  0  0  0  0  0
    9.1440  -25.3040  -44.4650 C   0  0  0  0  0  0  0  0  0  0  0  0
    8.3010  -25.3640  -45.4710 C   0  0  0  0  0  0  0  0  0  0  0  0
    8.6180  -24.7300  -46.6500 O   0  0  0  0  0  0  0  0  0  0  0  0
    7.0580  -26.0870  -45.3630 C   0  0  0  0  0  0  0  0  0  0  0  0
    6.7390  -27.2200  -46.1310 C   0  0  0  0  0  0  0  0  0  0  0  0
    5.5340  -27.6740  -45.7650 N   0  0  0  0  0  0  0  0  0  0  0  0
    5.0950  -26.8760  -44.8090 N   0  0  0  0  0  0  0  0  0  0  0  0
    5.9840  -25.9090  -44.5360 C   0  0  0  0  0  0  0  0  0  0  0  0
    4.8470  -28.8040  -46.2810 C   0  0  0  0  0  0  0  0  0  0  0  0
    5.2670  -30.0720  -45.9020 C   0  0  0  0  0  0  0  0  0  0  0  0
    4.6390  -31.2150  -46.3570 C   0  0  0  0  0  0  0  0  0  0  0  0
    3.5470  -31.1380  -47.2220 C   0  0  0  0  0  0  0  0  0  0  0  0
    3.1280  -29.8740  -47.6000 C   0  0  0  0  0  0  0  0  0  0  0  0
    3.7690  -28.7550  -47.1350 C   0  0  0  0  0  0  0  0  0  0  0  0
    7.6360  -27.7930  -47.1780 C   0  0  0  0  0  0  0  0  0  0  0  0
   12.4340  -24.6750  -42.7120 C   0  0  0  0  0  0  0  0  0  0  0  0
   13.4020  -25.4410  -43.5760 C   0  0  0  0  0  0  0  0  0  0  0  0
   14.0300  -24.6090  -44.6490 C   0  0  0  0  0  0  0  0  0  0  0  0
   13.9920  -25.1480  -45.9690 N   0  0  0  0  0  4  0  0  0  0  0  0
   12.9830  -24.6340  -46.8350 C   0  0  0  0  0  0  0  0  0  0  0  0
   15.2910  -24.9510  -46.6330 C   0  0  0  0  0  0  0  0  0  0  0  0
    8.3140  -23.2030  -43.8160 H   0  0  0  0  0  0  0  0  0  0  0  0
   12.2940  -22.7590  -45.3020 H   0  0  0  0  0  0  0  0  0  0  0  0
   11.9100  -20.3230  -45.4550 H   0  0  0  0  0  0  0  0  0  0  0  0
    9.7120  -19.3410  -44.7760 H   0  0  0  0  0  0  0  0  0  0  0  0
   11.1330  -25.0050  -45.2140 H   0  0  0  0  0  0  0  0  0  0  0  0
    5.8810  -25.1270  -43.7810 H   0  0  0  0  0  0  0  0  0  0  0  0
    6.1310  -30.1070  -45.2170 H   0  0  0  0  0  0  0  0  0  0  0  0
    4.9880  -32.1890  -46.0390 H   0  0  0  0  0  0  0  0  0  0  0  0
    3.0700  -32.0580  -47.5690 H   0  0  0  0  0  0  0  0  0  0  0  0
    2.2740  -29.8300  -48.2780 H   0  0  0  0  0  0  0  0  0  0  0  0
    3.4060  -27.7890  -47.4530 H   0  0  0  0  0  0  0  0  0  0  0  0
    8.7030  -27.7360  -46.8530 H   0  0  0  0  0  0  0  0  0  0  0  0
    7.4680  -27.3270  -48.1660 H   0  0  0  0  0  0  0  0  0  0  0  0
    7.4240  -28.8830  -47.2980 H   0  0  0  0  0  0  0  0  0  0  0  0
   12.6120  -23.5850  -42.6920 H   0  0  0  0  0  0  0  0  0  0  0  0
   12.5360  -25.1100  -41.6760 H   0  0  0  0  0  0  0  0  0  0  0  0
   14.2530  -25.6950  -42.8730 H   0  0  0  0  0  0  0  0  0  0  0  0
   13.0210  -26.4120  -43.8960 H   0  0  0  0  0  0  0  0  0  0  0  0
   15.1210  -24.4010  -44.4100 H   0  0  0  0  0  0  0  0  0  0  0  0
   13.5540  -23.5840  -44.6580 H   0  0  0  0  0  0  0  0  0  0  0  0
   13.8840  -26.2060  -45.9180 H   0  0  0  0  0  0  0  0  0  0  0  0
   13.4110  -24.2340  -47.7940 H   0  0  0  0  0  0  0  0  0  0  0  0
   12.2630  -23.9230  -46.3860 H   0  0  0  0  0  0  0  0  0  0  0  0
   12.3420  -25.5010  -47.1750 H   0  0  0  0  0  0  0  0  0  0  0  0
   15.7430  -25.9110  -46.9330 H   0  0  0  0  0  0  0  0  0  0  0  0
   15.9590  -24.4510  -45.8970 H   0  0  0  0  0  0  0  0  0  0  0  0
   15.1800  -24.2440  -47.4860 H   0  0  0  0  0  0  0  0  0  0  0  0
  2  3  1  0  0  0  0
  2  1  1  0  0  0  0
  3 35  1  0  0  0  0
  4  8  1  0  0  0  0
  4  3  2  0  0  0  0
  5  4  1  0  0  0  0
  6  5  2  0  0  0  0
  6  7  1  0  0  0  0
  7  2  2  0  0  0  0
  8 39  1  6  0  0  0
  8  9  1  0  0  0  0
  9 29  1  0  0  0  0
  9 10  1  0  0  0  0
 10 11  2  0  0  0  0
 12 13  2  0  0  0  0
 12 10  1  0  0  0  0
 14  8  1  0  0  0  0
 14 12  1  0  0  0  0
 15 17  1  0  0  0  0
 15 14  2  0  0  0  0
 16 15  1  0  0  0  0
 17 21  1  0  0  0  0
 18 19  1  0  0  0  0
 18 17  2  0  0  0  0
 19 20  1  0  0  0  0
 20 21  2  0  0  0  0
 21 40  1  0  0  0  0
 22 23  1  0  0  0  0
 22 19  1  0  0  0  0
 23 41  1  0  0  0  0
 24 42  1  0  0  0  0
 24 23  2  0  0  0  0
 25 24  1  0  0  0  0
 26 25  2  0  0  0  0
 26 27  1  0  0  0  0
 27 22  2  0  0  0  0
 28 46  1  0  0  0  0
 28 18  1  0  0  0  0
 29 49  1  0  0  0  0
 29 50  1  0  0  0  0
 30 51  1  0  0  0  0
 30 29  1  0  0  0  0
 31 53  1  0  0  0  0
 31 30  1  0  0  0  0
 32 55  1  0  0  0  0
 32 31  1  0  0  0  0
 33 57  1  0  0  0  0
 33 32  1  0  0  0  0
 34 32  1  0  0  0  0
 34 60  1  0  0  0  0
 36  5  1  0  0  0  0
 37  6  1  0  0  0  0
 38  7  1  0  0  0  0
 43 25  1  0  0  0  0
 44 26  1  0  0  0  0
 45 27  1  0  0  0  0
 47 28  1  0  0  0  0
 48 28  1  0  0  0  0
 52 30  1  0  0  0  0
 54 31  1  0  0  0  0
 56 33  1  0  0  0  0
 58 33  1  0  0  0  0
 59 34  1  0  0  0  0
 61 34  1  0  0  0  0
M  END
>  <Pose>
1

>  <Score>
-4.17

$$$$
