
 OpenBabel03232221553D

 63 66  0  0  1  0  0  0  0  0999 V2000
    9.5920  -14.4910  -43.7610 B   0  0  0  0  0  0  0  0  0  0  0  0
   11.1500  -15.1830  -44.6110 C   0  0  0  0  0  0  0  0  0  0  0  0
   12.1010  -15.8830  -43.8760 C   0  0  0  0  0  0  0  0  0  0  0  0
   13.2310  -16.3910  -44.4760 C   0  0  0  0  0  0  0  0  0  0  0  0
   13.4110  -16.1940  -45.8270 C   0  0  0  0  0  0  0  0  0  0  0  0
   12.4700  -15.5000  -46.5610 C   0  0  0  0  0  0  0  0  0  0  0  0
   11.3350  -14.9890  -45.9700 C   0  0  0  0  0  0  0  0  0  0  0  0
   14.2520  -17.1350  -43.7170 C   0  0  1  0  0  0  0  0  0  0  0  0
   14.3720  -16.6970  -42.3400 N   0  0  0  0  0  0  0  0  0  0  0  0
   13.5350  -17.4590  -41.4980 C   0  0  0  0  0  0  0  0  0  0  0  0
   13.1050  -17.2360  -40.3370 O   0  0  0  0  0  0  0  0  0  0  0  0
   13.2060  -18.6870  -42.2650 C   0  0  0  0  0  0  0  0  0  0  0  0
   12.4820  -19.6020  -41.8250 O   0  0  0  0  0  0  0  0  0  0  0  0
   13.8770  -18.5810  -43.5480 C   0  0  0  0  0  0  0  0  0  0  0  0
   14.1420  -19.5730  -44.3590 C   0  0  0  0  0  0  0  0  0  0  0  0
   14.8640  -19.3200  -45.5380 O   0  0  0  0  0  0  0  0  0  0  0  0
   13.7150  -20.9210  -44.0940 C   0  0  0  0  0  0  0  0  0  0  0  0
   12.4290  -21.2730  -44.5310 C   0  0  0  0  0  0  0  0  0  0  0  0
   11.9250  -22.5200  -44.2860 C   0  0  0  0  0  0  0  0  0  0  0  0
   12.6530  -23.4850  -43.6010 C   0  0  0  0  0  0  0  0  0  0  0  0
   13.8960  -23.1210  -43.1850 C   0  0  0  0  0  0  0  0  0  0  0  0
   14.4200  -21.8670  -43.4230 C   0  0  0  0  0  0  0  0  0  0  0  0
   12.0730  -24.7200  -43.3940 O   0  0  0  0  0  0  0  0  0  0  0  0
   12.6400  -25.8940  -43.9560 C   0  0  0  0  0  0  0  0  0  0  0  0
   10.5500  -22.8790  -44.7600 C   0  0  0  0  0  0  0  0  0  0  0  0
   15.2420  -15.6150  -41.8520 C   0  0  0  0  0  0  0  0  0  0  0  0
   14.7660  -14.2940  -42.3890 C   0  0  0  0  0  0  0  0  0  0  0  0
   14.1890  -13.3700  -41.3720 C   0  0  0  0  0  0  0  0  0  0  0  0
   12.8540  -12.9130  -41.6920 N   0  0  0  0  0  4  0  0  0  0  0  0
   11.8400  -13.8190  -41.1900 C   0  0  0  0  0  0  0  0  0  0  0  0
   10.9940  -13.1490  -40.1410 C   0  0  0  0  0  0  0  0  0  0  0  0
   10.3520  -12.0500  -40.7480 O   0  0  0  0  0  0  0  0  0  0  0  0
   11.2880  -11.1010  -41.1550 C   0  0  0  0  0  0  0  0  0  0  0  0
   12.7020  -11.5820  -41.0960 C   0  0  0  0  0  0  0  0  0  0  0  0
   11.9540  -16.0300  -42.8270 H   0  0  0  0  0  0  0  0  0  0  0  0
   14.2810  -16.5690  -46.3570 H   0  0  0  0  0  0  0  0  0  0  0  0
   12.6230  -15.3540  -47.6200 H   0  0  0  0  0  0  0  0  0  0  0  0
   10.5990  -14.4450  -46.5450 H   0  0  0  0  0  0  0  0  0  0  0  0
   15.2670  -17.0320  -44.1590 H   0  0  0  0  0  0  0  0  0  0  0  0
   11.8260  -20.5310  -45.0770 H   0  0  0  0  0  0  0  0  0  0  0  0
   14.4970  -23.8480  -42.6450 H   0  0  0  0  0  0  0  0  0  0  0  0
   15.4190  -21.6010  -43.0420 H   0  0  0  0  0  0  0  0  0  0  0  0
   12.2150  -26.8070  -43.5240 H   0  0  0  0  0  0  0  0  0  0  0  0
   13.7540  -25.9080  -43.8600 H   0  0  0  0  0  0  0  0  0  0  0  0
   12.4430  -25.9390  -45.0630 H   0  0  0  0  0  0  0  0  0  0  0  0
    9.8720  -22.1230  -44.2920 H   0  0  0  0  0  0  0  0  0  0  0  0
   10.2640  -23.8610  -44.3920 H   0  0  0  0  0  0  0  0  0  0  0  0
   10.4720  -22.8400  -45.8690 H   0  0  0  0  0  0  0  0  0  0  0  0
   16.2900  -15.8020  -42.1430 H   0  0  0  0  0  0  0  0  0  0  0  0
   15.1290  -15.5780  -40.7340 H   0  0  0  0  0  0  0  0  0  0  0  0
   15.6050  -13.7330  -42.8840 H   0  0  0  0  0  0  0  0  0  0  0  0
   13.9720  -14.4490  -43.1690 H   0  0  0  0  0  0  0  0  0  0  0  0
   14.8960  -12.5040  -41.2840 H   0  0  0  0  0  0  0  0  0  0  0  0
   14.1430  -13.8070  -40.3550 H   0  0  0  0  0  0  0  0  0  0  0  0
   12.6980  -12.7710  -42.7120 H   0  0  0  0  0  0  0  0  0  0  0  0
   12.2960  -14.7190  -40.7270 H   0  0  0  0  0  0  0  0  0  0  0  0
   11.1290  -14.1130  -42.0170 H   0  0  0  0  0  0  0  0  0  0  0  0
   10.2010  -13.8100  -39.7870 H   0  0  0  0  0  0  0  0  0  0  0  0
   11.5970  -12.8050  -39.2750 H   0  0  0  0  0  0  0  0  0  0  0  0
   11.0800  -10.7740  -42.1950 H   0  0  0  0  0  0  0  0  0  0  0  0
   11.2070  -10.2240  -40.4670 H   0  0  0  0  0  0  0  0  0  0  0  0
   13.2910  -10.9080  -41.7860 H   0  0  0  0  0  0  0  0  0  0  0  0
   13.1660  -11.5240  -40.0970 H   0  0  0  0  0  0  0  0  0  0  0  0
  2  3  1  0  0  0  0
  2  1  1  0  0  0  0
  3 35  1  0  0  0  0
  4  3  2  0  0  0  0
  4  8  1  0  0  0  0
  5  4  1  0  0  0  0
  6  7  1  0  0  0  0
  6  5  2  0  0  0  0
  7  2  2  0  0  0  0
  8 39  1  6  0  0  0
  8 14  1  0  0  0  0
  8  9  1  0  0  0  0
  9 26  1  0  0  0  0
  9 10  1  0  0  0  0
 10 11  2  0  0  0  0
 12 13  2  0  0  0  0
 12 10  1  0  0  0  0
 14 12  1  0  0  0  0
 15 17  1  0  0  0  0
 15 14  2  0  0  0  0
 16 15  1  0  0  0  0
 17 22  1  0  0  0  0
 18 19  1  0  0  0  0
 18 17  2  0  0  0  0
 19 20  2  0  0  0  0
 20 23  1  0  0  0  0
 20 21  1  0  0  0  0
 21 41  1  0  0  0  0
 22 21  2  0  0  0  0
 22 42  1  0  0  0  0
 24 44  1  0  0  0  0
 24 43  1  0  0  0  0
 24 23  1  0  0  0  0
 25 47  1  0  0  0  0
 25 46  1  0  0  0  0
 25 19  1  0  0  0  0
 26 50  1  0  0  0  0
 27 26  1  0  0  0  0
 27 28  1  0  0  0  0
 28 53  1  0  0  0  0
 28 54  1  0  0  0  0
 29 28  1  0  0  0  0
 29 30  1  0  0  0  0
 29 34  1  0  0  0  0
 30 56  1  0  0  0  0
 30 31  1  0  0  0  0
 31 58  1  0  0  0  0
 31 59  1  0  0  0  0
 32 31  1  0  0  0  0
 33 34  1  0  0  0  0
 33 32  1  0  0  0  0
 33 61  1  0  0  0  0
 34 63  1  0  0  0  0
 36  5  1  0  0  0  0
 37  6  1  0  0  0  0
 38  7  1  0  0  0  0
 40 18  1  0  0  0  0
 45 24  1  0  0  0  0
 48 25  1  0  0  0  0
 49 26  1  0  0  0  0
 51 27  1  0  0  0  0
 52 27  1  0  0  0  0
 55 29  1  0  0  0  0
 57 30  1  0  0  0  0
 60 33  1  0  0  0  0
 62 34  1  0  0  0  0
M  END
>  <Pose>
1

>  <Score>
-4.04

$$$$
