
 OpenBabel03232221553D

 56 59  0  0  1  0  0  0  0  0999 V2000
   -1.9500  -21.6710  -38.7030 B   0  0  0  0  0  0  0  0  0  0  0  0
   -0.9470  -20.3670  -39.6730 C   0  0  0  0  0  0  0  0  0  0  0  0
    0.1130  -19.6880  -39.0820 C   0  0  0  0  0  0  0  0  0  0  0  0
    0.8560  -18.7410  -39.7550 C   0  0  0  0  0  0  0  0  0  0  0  0
    0.4910  -18.4930  -41.0710 C   0  0  0  0  0  0  0  0  0  0  0  0
   -0.5560  -19.1540  -41.6760 C   0  0  0  0  0  0  0  0  0  0  0  0
   -1.2660  -20.0880  -40.9650 C   0  0  0  0  0  0  0  0  0  0  0  0
    1.9910  -18.0160  -39.1190 C   0  0  2  0  0  0  0  0  0  0  0  0
    2.7340  -18.8340  -38.2080 N   0  0  0  0  0  0  0  0  0  0  0  0
    2.1240  -18.6710  -36.9370 C   0  0  0  0  0  0  0  0  0  0  0  0
    2.2490  -19.4470  -35.9570 O   0  0  0  0  0  0  0  0  0  0  0  0
    1.3120  -17.4320  -36.9410 C   0  0  0  0  0  0  0  0  0  0  0  0
    0.6370  -16.9600  -36.0110 O   0  0  0  0  0  0  0  0  0  0  0  0
    1.4730  -16.8810  -38.2740 C   0  0  0  0  0  0  0  0  0  0  0  0
    1.2660  -15.6440  -38.6690 C   0  0  0  0  0  0  0  0  0  0  0  0
    1.5390  -15.2860  -39.9720 O   0  0  0  0  0  0  0  0  0  0  0  0
    0.7510  -14.6390  -37.7750 C   0  0  0  0  0  0  0  0  0  0  0  0
    1.4720  -13.8870  -36.8940 C   0  0  0  0  0  0  0  0  0  0  0  0
    0.8490  -12.9250  -36.1210 C   0  0  0  0  0  0  0  0  0  0  0  0
   -0.5000  -12.6610  -36.1780 C   0  0  0  0  0  0  0  0  0  0  0  0
   -1.2280  -13.4220  -37.0680 C   0  0  0  0  0  0  0  0  0  0  0  0
   -0.6290  -14.3830  -37.8440 C   0  0  0  0  0  0  0  0  0  0  0  0
   -1.1470  -11.6180  -35.3330 C   0  0  0  0  0  0  0  0  0  0  0  0
    3.9010  -19.6930  -38.4940 C   0  0  0  0  0  0  0  0  0  0  0  0
    4.7440  -18.9750  -39.5100 C   0  0  0  0  0  0  0  0  0  0  0  0
    6.0510  -19.4970  -39.6900 N   0  0  0  0  0  4  0  0  0  0  0  0
    6.5290  -20.3700  -38.6580 C   0  0  0  0  0  0  0  0  0  0  0  0
    6.2410  -21.8270  -38.8960 C   0  0  0  0  0  0  0  0  0  0  0  0
    6.4340  -22.2260  -40.2000 O   0  0  0  0  0  0  0  0  0  0  0  0
    5.6900  -21.4850  -41.0880 C   0  0  0  0  0  0  0  0  0  0  0  0
    6.1680  -20.0590  -41.0120 C   0  0  0  0  0  0  0  0  0  0  0  0
    0.3420  -19.9240  -38.0730 H   0  0  0  0  0  0  0  0  0  0  0  0
    1.0370  -17.7640  -41.6420 H   0  0  0  0  0  0  0  0  0  0  0  0
   -0.8140  -18.9360  -42.7040 H   0  0  0  0  0  0  0  0  0  0  0  0
   -2.0960  -20.6130  -41.4430 H   0  0  0  0  0  0  0  0  0  0  0  0
    2.6610  -17.6660  -39.9040 H   0  0  0  0  0  0  0  0  0  0  0  0
    2.5340  -14.0930  -36.8040 H   0  0  0  0  0  0  0  0  0  0  0  0
    1.4460  -12.3410  -35.4300 H   0  0  0  0  0  0  0  0  0  0  0  0
   -2.3030  -13.2200  -37.1190 H   0  0  0  0  0  0  0  0  0  0  0  0
   -1.2610  -14.9470  -38.5250 H   0  0  0  0  0  0  0  0  0  0  0  0
   -0.4460  -10.7660  -35.1220 H   0  0  0  0  0  0  0  0  0  0  0  0
   -1.9820  -11.1400  -35.9240 H   0  0  0  0  0  0  0  0  0  0  0  0
   -1.5940  -12.0140  -34.4220 H   0  0  0  0  0  0  0  0  0  0  0  0
    4.5090  -19.7860  -37.5650 H   0  0  0  0  0  0  0  0  0  0  0  0
    3.4790  -20.6370  -38.8420 H   0  0  0  0  0  0  0  0  0  0  0  0
    4.7410  -17.8880  -39.2030 H   0  0  0  0  0  0  0  0  0  0  0  0
    4.1700  -18.9870  -40.4690 H   0  0  0  0  0  0  0  0  0  0  0  0
    6.7090  -18.6610  -39.7010 H   0  0  0  0  0  0  0  0  0  0  0  0
    6.1080  -20.1180  -37.6630 H   0  0  0  0  0  0  0  0  0  0  0  0
    7.6320  -20.2810  -38.5440 H   0  0  0  0  0  0  0  0  0  0  0  0
    6.9450  -22.4310  -38.2640 H   0  0  0  0  0  0  0  0  0  0  0  0
    5.2310  -22.1350  -38.5790 H   0  0  0  0  0  0  0  0  0  0  0  0
    4.5970  -21.5820  -40.9440 H   0  0  0  0  0  0  0  0  0  0  0  0
    5.9100  -21.8500  -42.1120 H   0  0  0  0  0  0  0  0  0  0  0  0
    5.5960  -19.3850  -41.6950 H   0  0  0  0  0  0  0  0  0  0  0  0
    7.2200  -20.0340  -41.3650 H   0  0  0  0  0  0  0  0  0  0  0  0
  2  3  1  0  0  0  0
  2  1  1  0  0  0  0
  3 32  1  0  0  0  0
  4  8  1  0  0  0  0
  4  3  2  0  0  0  0
  5  4  1  0  0  0  0
  6  5  2  0  0  0  0
  6  7  1  0  0  0  0
  7  2  2  0  0  0  0
  8 36  1  6  0  0  0
  8 14  1  0  0  0  0
  8  9  1  0  0  0  0
  9 10  1  0  0  0  0
 10 11  2  0  0  0  0
 12 10  1  0  0  0  0
 12 13  2  0  0  0  0
 14 12  1  0  0  0  0
 15 14  2  0  0  0  0
 15 17  1  0  0  0  0
 16 15  1  0  0  0  0
 17 18  1  0  0  0  0
 18 37  1  0  0  0  0
 18 19  2  0  0  0  0
 19 38  1  0  0  0  0
 20 19  1  0  0  0  0
 20 23  1  0  0  0  0
 21 20  2  0  0  0  0
 22 17  2  0  0  0  0
 22 21  1  0  0  0  0
 23 41  1  0  0  0  0
 23 43  1  0  0  0  0
 24  9  1  0  0  0  0
 24 44  1  0  0  0  0
 25 46  1  0  0  0  0
 25 24  1  0  0  0  0
 26 25  1  0  0  0  0
 26 27  1  0  0  0  0
 27 50  1  0  0  0  0
 27 49  1  0  0  0  0
 28 27  1  0  0  0  0
 28 52  1  0  0  0  0
 28 51  1  0  0  0  0
 29 28  1  0  0  0  0
 30 31  1  0  0  0  0
 30 53  1  0  0  0  0
 30 29  1  0  0  0  0
 31 26  1  0  0  0  0
 33  5  1  0  0  0  0
 34  6  1  0  0  0  0
 35  7  1  0  0  0  0
 39 21  1  0  0  0  0
 40 22  1  0  0  0  0
 42 23  1  0  0  0  0
 45 24  1  0  0  0  0
 47 25  1  0  0  0  0
 48 26  1  0  0  0  0
 54 30  1  0  0  0  0
 55 31  1  0  0  0  0
 56 31  1  0  0  0  0
M  END
>  <Pose>
1

>  <Score>
-4.14

$$$$
