
 OpenBabel03232221553D

 58 61  0  0  1  0  0  0  0  0999 V2000
    2.1440  -26.0640  -44.7560 B   0  0  0  0  0  0  0  0  0  0  0  0
    4.0440  -26.3660  -44.8270 C   0  0  0  0  0  0  0  0  0  0  0  0
    4.9030  -25.5150  -44.1940 C   0  0  0  0  0  0  0  0  0  0  0  0
    6.2900  -25.6750  -44.2060 C   0  0  0  0  0  0  0  0  0  0  0  0
    6.7480  -26.7650  -44.9130 C   0  0  0  0  0  0  0  0  0  0  0  0
    5.8820  -27.6390  -45.5640 C   0  0  0  0  0  0  0  0  0  0  0  0
    4.5320  -27.4350  -45.5180 C   0  0  0  0  0  0  0  0  0  0  0  0
    7.1840  -24.7250  -43.4970 C   0  0  2  0  0  0  0  0  0  0  0  0
    7.0040  -23.3470  -43.9080 N   0  0  0  0  0  0  0  0  0  0  0  0
    7.8170  -23.1840  -45.0910 C   0  0  0  0  0  0  0  0  0  0  0  0
    7.6530  -22.3060  -45.9720 O   0  0  0  0  0  0  0  0  0  0  0  0
    8.8450  -24.2280  -45.0410 C   0  0  0  0  0  0  0  0  0  0  0  0
    9.7660  -24.4590  -45.8660 O   0  0  0  0  0  0  0  0  0  0  0  0
    8.6310  -25.0070  -43.8270 C   0  0  0  0  0  0  0  0  0  0  0  0
    9.5010  -25.7760  -43.1950 C   0  0  0  0  0  0  0  0  0  0  0  0
    9.1060  -26.4520  -42.0680 O   0  0  0  0  0  0  0  0  0  0  0  0
   10.8880  -25.9220  -43.6750 C   0  0  0  0  0  0  0  0  0  0  0  0
   11.4330  -27.0320  -44.0930 O   0  0  0  0  0  0  0  0  0  0  0  0
   12.6630  -26.8990  -44.4610 C   0  0  0  0  0  0  0  0  0  0  0  0
   12.9900  -25.5770  -44.2780 C   0  0  0  0  0  0  0  0  0  0  0  0
   11.8630  -24.9590  -43.7780 C   0  0  0  0  0  0  0  0  0  0  0  0
   14.2670  -25.1710  -44.6000 C   0  0  0  0  0  0  0  0  0  0  0  0
   15.2070  -26.0530  -45.0940 C   0  0  0  0  0  0  0  0  0  0  0  0
   14.8300  -27.3880  -45.2650 C   0  0  0  0  0  0  0  0  0  0  0  0
   13.5680  -27.8290  -44.9560 C   0  0  0  0  0  0  0  0  0  0  0  0
   13.2380  -29.1470  -45.1410 O   0  0  0  0  0  0  0  0  0  0  0  0
   12.4900  -29.9490  -44.2840 C   0  0  0  0  0  0  0  0  0  0  0  0
    6.1770  -22.3290  -43.3080 C   0  0  0  0  0  0  0  0  0  0  0  0
    6.3390  -22.2980  -41.8070 C   0  0  0  0  0  0  0  0  0  0  0  0
    5.3280  -21.4870  -41.0790 C   0  0  0  0  0  0  0  0  0  0  0  0
    5.0930  -21.8850  -39.7270 N   0  0  0  0  0  4  0  0  0  0  0  0
    3.8990  -21.2230  -39.1920 C   0  0  0  0  0  0  0  0  0  0  0  0
    6.2070  -21.6260  -38.8680 C   0  0  0  0  0  0  0  0  0  0  0  0
    4.5390  -24.6600  -43.6390 H   0  0  0  0  0  0  0  0  0  0  0  0
    7.7780  -26.9880  -44.9920 H   0  0  0  0  0  0  0  0  0  0  0  0
    6.2400  -28.4950  -46.1200 H   0  0  0  0  0  0  0  0  0  0  0  0
    3.8090  -28.0850  -46.0100 H   0  0  0  0  0  0  0  0  0  0  0  0
    6.9730  -24.8570  -42.4160 H   0  0  0  0  0  0  0  0  0  0  0  0
   11.7630  -23.9210  -43.5190 H   0  0  0  0  0  0  0  0  0  0  0  0
   14.5150  -24.1310  -44.4510 H   0  0  0  0  0  0  0  0  0  0  0  0
   16.2030  -25.7150  -45.3390 H   0  0  0  0  0  0  0  0  0  0  0  0
   15.6180  -28.0440  -45.6610 H   0  0  0  0  0  0  0  0  0  0  0  0
   12.6350  -29.7390  -43.2070 H   0  0  0  0  0  0  0  0  0  0  0  0
   12.6410  -31.0400  -44.4660 H   0  0  0  0  0  0  0  0  0  0  0  0
   11.4120  -29.7480  -44.4820 H   0  0  0  0  0  0  0  0  0  0  0  0
    6.4530  -21.3380  -43.7190 H   0  0  0  0  0  0  0  0  0  0  0  0
    5.1190  -22.5920  -43.5220 H   0  0  0  0  0  0  0  0  0  0  0  0
    6.3060  -23.3590  -41.4090 H   0  0  0  0  0  0  0  0  0  0  0  0
    7.3920  -21.9770  -41.5590 H   0  0  0  0  0  0  0  0  0  0  0  0
    4.3860  -21.5330  -41.6790 H   0  0  0  0  0  0  0  0  0  0  0  0
    5.6610  -20.4180  -41.0840 H   0  0  0  0  0  0  0  0  0  0  0  0
    4.8690  -22.9190  -39.6430 H   0  0  0  0  0  0  0  0  0  0  0  0
    3.5560  -21.7940  -38.3110 H   0  0  0  0  0  0  0  0  0  0  0  0
    4.0750  -20.1560  -38.9820 H   0  0  0  0  0  0  0  0  0  0  0  0
    3.0870  -21.2420  -39.9720 H   0  0  0  0  0  0  0  0  0  0  0  0
    7.0840  -22.2020  -39.2230 H   0  0  0  0  0  0  0  0  0  0  0  0
    6.4710  -20.5500  -38.8570 H   0  0  0  0  0  0  0  0  0  0  0  0
    5.9250  -21.9220  -37.8230 H   0  0  0  0  0  0  0  0  0  0  0  0
  2  1  1  0  0  0  0
  2  3  1  0  0  0  0
  3 34  1  0  0  0  0
  4  3  2  0  0  0  0
  4  8  1  0  0  0  0
  5  4  1  0  0  0  0
  6  7  1  0  0  0  0
  6  5  2  0  0  0  0
  7  2  2  0  0  0  0
  8 38  1  1  0  0  0
  9  8  1  0  0  0  0
  9 28  1  0  0  0  0
 10 12  1  0  0  0  0
 10  9  1  0  0  0  0
 11 10  2  0  0  0  0
 12 14  1  0  0  0  0
 13 12  2  0  0  0  0
 14  8  1  0  0  0  0
 14 15  2  0  0  0  0
 15 16  1  0  0  0  0
 17 15  1  0  0  0  0
 18 17  1  0  0  0  0
 19 20  1  0  0  0  0
 19 18  1  0  0  0  0
 20 21  1  0  0  0  0
 21 17  2  0  0  0  0
 21 39  1  0  0  0  0
 22 40  1  0  0  0  0
 22 20  2  0  0  0  0
 23 22  1  0  0  0  0
 24 23  2  0  0  0  0
 24 25  1  0  0  0  0
 25 19  2  0  0  0  0
 26 25  1  0  0  0  0
 26 27  1  0  0  0  0
 27 43  1  0  0  0  0
 28 29  1  0  0  0  0
 29 49  1  0  0  0  0
 29 48  1  0  0  0  0
 29 30  1  0  0  0  0
 30 31  1  0  0  0  0
 31 52  1  0  0  0  0
 31 32  1  0  0  0  0
 31 33  1  0  0  0  0
 32 54  1  0  0  0  0
 32 53  1  0  0  0  0
 33 57  1  0  0  0  0
 33 58  1  0  0  0  0
 35  5  1  0  0  0  0
 36  6  1  0  0  0  0
 37  7  1  0  0  0  0
 41 23  1  0  0  0  0
 42 24  1  0  0  0  0
 44 27  1  0  0  0  0
 45 27  1  0  0  0  0
 46 28  1  0  0  0  0
 47 28  1  0  0  0  0
 50 30  1  0  0  0  0
 51 30  1  0  0  0  0
 55 32  1  0  0  0  0
 56 33  1  0  0  0  0
M  END
>  <Pose>
1

>  <Score>
-4.69

$$$$
