
 OpenBabel03232221553D

 38 41  0  0  0  0  0  0  0  0999 V2000
    1.2410  -14.0110  -36.4260 B   0  0  0  0  0  0  0  0  0  0  0  0
    0.6100  -15.7610  -36.8400 C   0  0  0  0  0  0  0  0  0  0  0  0
    1.3900  -16.6470  -37.5910 C   0  0  0  0  0  0  0  0  0  0  0  0
    0.9340  -17.9080  -37.8880 C   0  0  0  0  0  0  0  0  0  0  0  0
   -0.3120  -18.2700  -37.4240 C   0  0  0  0  0  0  0  0  0  0  0  0
   -1.1030  -17.3930  -36.6720 C   0  0  0  0  0  0  0  0  0  0  0  0
   -0.6340  -16.1330  -36.3800 C   0  0  0  0  0  0  0  0  0  0  0  0
    1.6940  -18.8520  -38.6540 N   0  0  0  0  0  0  0  0  0  0  0  0
    1.6550  -19.1030  -39.9360 N   0  0  0  0  0  0  0  0  0  0  0  0
    2.5200  -20.0520  -40.2520 N   0  0  0  0  0  0  0  0  0  0  0  0
    3.1570  -20.4400  -39.1210 C   0  0  0  0  0  0  0  0  0  0  0  0
    2.6180  -19.6660  -38.1180 C   0  0  0  0  0  0  0  0  0  0  0  0
    4.1920  -21.4570  -38.9800 C   0  0  0  0  0  0  0  0  0  0  0  0
    4.8230  -21.5150  -37.8960 O   0  0  0  0  0  0  0  0  0  0  0  0
    4.5120  -22.3710  -40.0040 N   0  0  0  0  0  0  0  0  0  0  0  0
    4.4490  -22.0730  -41.4170 C   0  0  0  0  0  0  0  0  0  0  0  0
    4.2700  -23.3270  -42.2280 C   0  0  0  0  0  0  0  0  0  0  0  0
    5.1580  -23.9180  -43.0640 N   0  0  0  0  0  0  0  0  0  0  0  0
    4.6100  -25.0190  -43.5900 C   0  0  0  0  0  0  0  0  0  0  0  0
    3.3640  -25.1010  -43.0660 N   0  0  0  0  0  0  0  0  0  0  0  0
    3.1600  -24.0870  -42.2490 N   0  0  0  0  0  0  0  0  0  0  0  0
    5.5700  -25.7060  -44.5290 C   0  0  0  0  0  0  0  0  0  0  0  0
    6.5580  -24.5900  -44.7940 C   0  0  0  0  0  0  0  0  0  0  0  0
    6.5090  -23.7140  -43.5570 C   0  0  0  0  0  0  0  0  0  0  0  0
    2.3650  -16.3610  -37.9530 H   0  0  0  0  0  0  0  0  0  0  0  0
   -0.6780  -19.2580  -37.6530 H   0  0  0  0  0  0  0  0  0  0  0  0
   -2.0890  -17.6900  -36.3080 H   0  0  0  0  0  0  0  0  0  0  0  0
   -1.2410  -15.4500  -35.7980 H   0  0  0  0  0  0  0  0  0  0  0  0
    2.9030  -19.7180  -37.0730 H   0  0  0  0  0  0  0  0  0  0  0  0
    4.8130  -23.3310  -39.7230 H   0  0  0  0  0  0  0  0  0  0  0  0
    3.6410  -21.3490  -41.6320 H   0  0  0  0  0  0  0  0  0  0  0  0
    5.4440  -21.6510  -41.7430 H   0  0  0  0  0  0  0  0  0  0  0  0
    5.0490  -26.0510  -45.4250 H   0  0  0  0  0  0  0  0  0  0  0  0
    6.1100  -26.5200  -43.9830 H   0  0  0  0  0  0  0  0  0  0  0  0
    7.5990  -24.9560  -44.8760 H   0  0  0  0  0  0  0  0  0  0  0  0
    6.2070  -24.0580  -45.7030 H   0  0  0  0  0  0  0  0  0  0  0  0
    7.2940  -23.9770  -42.8310 H   0  0  0  0  0  0  0  0  0  0  0  0
    6.6920  -22.6710  -43.8850 H   0  0  0  0  0  0  0  0  0  0  0  0
  2  1  1  0  0  0  0
  2  7  1  0  0  0  0
  3  2  2  0  0  0  0
  4  3  1  0  0  0  0
  4  5  2  0  0  0  0
  5  6  1  0  0  0  0
  6  7  2  0  0  0  0
  6 27  1  0  0  0  0
  7 28  1  0  0  0  0
  8 12  1  0  0  0  0
  8  4  1  0  0  0  0
  9  8  1  0  0  0  0
 10  9  2  0  0  0  0
 10 11  1  0  0  0  0
 11 13  1  0  0  0  0
 11 12  2  0  0  0  0
 12 29  1  0  0  0  0
 13 14  2  0  0  0  0
 15 30  1  0  0  0  0
 15 13  1  0  0  0  0
 16 15  1  0  0  0  0
 17 16  1  0  0  0  0
 18 17  1  0  0  0  0
 19 20  2  0  0  0  0
 19 18  1  0  0  0  0
 20 21  1  0  0  0  0
 21 17  2  0  0  0  0
 22 34  1  0  0  0  0
 22 19  1  0  0  0  0
 23 22  1  0  0  0  0
 23 24  1  0  0  0  0
 24 18  1  0  0  0  0
 24 37  1  0  0  0  0
 25  3  1  0  0  0  0
 26  5  1  0  0  0  0
 31 16  1  0  0  0  0
 32 16  1  0  0  0  0
 33 22  1  0  0  0  0
 35 23  1  0  0  0  0
 36 23  1  0  0  0  0
 38 24  1  0  0  0  0
M  END
>  <Pose>
1

>  <Score>
-4.70

$$$$
