
 OpenBabel03232221553D

 52 55  0  0  1  0  0  0  0  0999 V2000
    6.4910  -19.4710  -38.0860 B   0  0  0  0  0  0  0  0  0  0  0  0
    5.5860  -19.8070  -39.7090 C   0  0  0  0  0  0  0  0  0  0  0  0
    5.8450  -20.9850  -40.4010 C   0  0  0  0  0  0  0  0  0  0  0  0
    5.2220  -21.3000  -41.5950 C   0  0  0  0  0  0  0  0  0  0  0  0
    4.3190  -20.3720  -42.0630 C   0  0  0  0  0  0  0  0  0  0  0  0
    4.0130  -19.1850  -41.4280 C   0  0  0  0  0  0  0  0  0  0  0  0
    4.6590  -18.9130  -40.2420 C   0  0  0  0  0  0  0  0  0  0  0  0
    5.5240  -22.5170  -42.2460 N   0  0  0  0  0  0  0  0  0  0  0  0
    4.6330  -23.6660  -42.3120 C   0  0  0  0  0  0  0  0  0  0  0  0
    4.7890  -23.9320  -43.8240 C   0  0  1  0  0  0  0  0  0  0  0  0
    6.3100  -24.1210  -43.8250 C   0  0  0  0  0  0  0  0  0  0  0  0
    6.6680  -22.9530  -42.9730 C   0  0  0  0  0  0  0  0  0  0  0  0
    7.8050  -22.4320  -42.9040 O   0  0  0  0  0  0  0  0  0  0  0  0
    4.0490  -25.1010  -44.2570 C   0  0  0  0  0  0  0  0  0  0  0  0
    2.9090  -25.2980  -43.7670 O   0  0  0  0  0  0  0  0  0  0  0  0
    4.6130  -25.9790  -45.2060 N   0  0  0  0  0  0  0  0  0  0  0  0
    4.8340  -27.3960  -44.9530 C   0  0  0  0  0  0  0  0  0  0  0  0
    6.0060  -27.8700  -45.8020 C   0  0  0  0  0  0  0  0  0  0  0  0
    6.9450  -26.8070  -46.1050 N   0  0  0  0  0  0  0  0  0  0  0  0
    6.3290  -25.8750  -46.9820 C   0  0  0  0  0  0  0  0  0  0  0  0
    4.9910  -25.4170  -46.5090 C   0  0  0  0  0  0  0  0  0  0  0  0
    7.5750  -26.2910  -44.9430 C   0  0  0  0  0  0  0  0  0  0  0  0
    9.0790  -26.3920  -44.9610 C   0  0  0  0  0  0  0  0  0  0  0  0
    9.6830  -26.3710  -43.6600 N   0  0  0  0  0  0  0  0  0  0  0  0
    9.3880  -25.5910  -42.6190 C   0  0  0  0  0  0  0  0  0  0  0  0
   10.2020  -25.8900  -41.5850 N   0  0  0  0  0  0  0  0  0  0  0  0
   11.0250  -26.8720  -41.9720 C   0  0  0  0  0  0  0  0  0  0  0  0
   10.6910  -27.1650  -43.2740 C   0  0  0  0  0  0  0  0  0  0  0  0
    6.5570  -21.6890  -40.0070 H   0  0  0  0  0  0  0  0  0  0  0  0
    3.8130  -20.5810  -42.9920 H   0  0  0  0  0  0  0  0  0  0  0  0
    3.3000  -18.4660  -41.8090 H   0  0  0  0  0  0  0  0  0  0  0  0
    4.4550  -17.9920  -39.7000 H   0  0  0  0  0  0  0  0  0  0  0  0
    3.5860  -23.4070  -42.0740 H   0  0  0  0  0  0  0  0  0  0  0  0
    5.0480  -24.4910  -41.7230 H   0  0  0  0  0  0  0  0  0  0  0  0
    4.5440  -22.9820  -44.3030 H   0  0  0  0  0  0  0  0  0  0  0  0
    6.5690  -25.0900  -43.3630 H   0  0  0  0  0  0  0  0  0  0  0  0
    6.7170  -24.0280  -44.8470 H   0  0  0  0  0  0  0  0  0  0  0  0
    3.8990  -27.9210  -45.2340 H   0  0  0  0  0  0  0  0  0  0  0  0
    5.0640  -27.6440  -43.9190 H   0  0  0  0  0  0  0  0  0  0  0  0
    5.6050  -28.2560  -46.7380 H   0  0  0  0  0  0  0  0  0  0  0  0
    6.5600  -28.7010  -45.3140 H   0  0  0  0  0  0  0  0  0  0  0  0
    7.0040  -25.0010  -47.1520 H   0  0  0  0  0  0  0  0  0  0  0  0
    6.2220  -26.3940  -47.9760 H   0  0  0  0  0  0  0  0  0  0  0  0
    4.9750  -24.3060  -46.4700 H   0  0  0  0  0  0  0  0  0  0  0  0
    4.2130  -25.7460  -47.2590 H   0  0  0  0  0  0  0  0  0  0  0  0
    7.3490  -25.2080  -44.7760 H   0  0  0  0  0  0  0  0  0  0  0  0
    7.2030  -26.8240  -44.0190 H   0  0  0  0  0  0  0  0  0  0  0  0
    9.3880  -27.2920  -45.5550 H   0  0  0  0  0  0  0  0  0  0  0  0
    9.4410  -25.5210  -45.5830 H   0  0  0  0  0  0  0  0  0  0  0  0
    8.6290  -24.8340  -42.5650 H   0  0  0  0  0  0  0  0  0  0  0  0
   11.8030  -27.3300  -41.3500 H   0  0  0  0  0  0  0  0  0  0  0  0
   11.2080  -27.9380  -43.8470 H   0  0  0  0  0  0  0  0  0  0  0  0
  2  1  1  0  0  0  0
  3 29  1  0  0  0  0
  3  2  2  0  0  0  0
  4  3  1  0  0  0  0
  5  4  2  0  0  0  0
  5  6  1  0  0  0  0
  6  7  2  0  0  0  0
  7  2  1  0  0  0  0
  7 32  1  0  0  0  0
  8  4  1  0  0  0  0
  9  8  1  0  0  0  0
  9 33  1  0  0  0  0
  9 34  1  0  0  0  0
 10 35  1  6  0  0  0
 10  9  1  0  0  0  0
 11 10  1  0  0  0  0
 11 36  1  0  0  0  0
 11 12  1  0  0  0  0
 12 13  2  0  0  0  0
 12  8  1  0  0  0  0
 14 10  1  0  0  0  0
 14 15  2  0  0  0  0
 16 17  1  0  0  0  0
 16 14  1  0  0  0  0
 17 39  1  0  0  0  0
 18 41  1  0  0  0  0
 18 17  1  0  0  0  0
 19 18  1  0  0  0  0
 19 22  1  0  0  0  0
 20 21  1  0  0  0  0
 20 19  1  0  0  0  0
 21 44  1  0  0  0  0
 21 16  1  0  0  0  0
 22 46  1  0  0  0  0
 22 47  1  0  0  0  0
 23 22  1  0  0  0  0
 23 24  1  0  0  0  0
 24 28  1  0  0  0  0
 24 25  1  0  0  0  0
 25 50  1  0  0  0  0
 25 26  2  0  0  0  0
 27 26  1  0  0  0  0
 27 51  1  0  0  0  0
 28 27  2  0  0  0  0
 30  5  1  0  0  0  0
 31  6  1  0  0  0  0
 37 11  1  0  0  0  0
 38 17  1  0  0  0  0
 40 18  1  0  0  0  0
 42 20  1  0  0  0  0
 43 20  1  0  0  0  0
 45 21  1  0  0  0  0
 48 23  1  0  0  0  0
 49 23  1  0  0  0  0
 52 28  1  0  0  0  0
M  END
>  <Pose>
1

>  <Score>
-4.43

$$$$
