
 OpenBabel03232221553D

 41 44  0  0  1  0  0  0  0  0999 V2000
    0.0820   -9.1040  -37.3060 B   0  0  0  0  0  0  0  0  0  0  0  0
    0.4670  -10.9670  -37.1420 C   0  0  0  0  0  0  0  0  0  0  0  0
   -0.4350  -11.8340  -36.5670 C   0  0  0  0  0  0  0  0  0  0  0  0
   -0.2020  -13.1840  -36.4270 C   0  0  0  0  0  0  0  0  0  0  0  0
    0.9760  -13.7270  -36.8700 C   0  0  0  0  0  0  0  0  0  0  0  0
    1.8910  -12.8640  -37.4510 C   0  0  0  0  0  0  0  0  0  0  0  0
    1.6500  -11.5160  -37.5870 C   0  0  0  0  0  0  0  0  0  0  0  0
    1.2780  -15.1350  -36.7460 C   0  0  0  0  0  0  0  0  0  0  0  0
    1.4350  -15.6140  -35.5760 O   0  0  0  0  0  0  0  0  0  0  0  0
    1.4250  -16.0770  -37.8640 C   0  0  1  0  0  0  0  0  0  0  0  0
    2.1720  -17.2600  -37.4660 N   0  0  0  0  0  0  0  0  0  0  0  0
    2.8770  -17.6860  -36.3600 N   0  0  0  0  0  0  0  0  0  0  0  0
    3.3610  -18.8720  -36.2360 C   0  0  0  0  0  0  0  0  0  0  0  0
    3.1820  -19.8310  -37.3010 C   0  0  0  0  0  0  0  0  0  0  0  0
    2.5460  -19.4930  -38.3990 C   0  0  0  0  0  0  0  0  0  0  0  0
    2.0080  -18.1610  -38.6050 C   0  0  1  0  0  0  0  0  0  0  0  0
    0.5410  -18.0700  -38.8360 C   0  0  2  0  0  0  0  0  0  0  0  0
    0.1140  -16.7070  -38.2790 C   0  0  1  0  0  0  0  0  0  0  0  0
   -0.7450  -17.0430  -37.1450 C   0  0  0  0  0  0  0  0  0  0  0  0
   -1.1060  -16.2450  -36.2370 O   0  0  0  0  0  0  0  0  0  0  0  0
   -1.1030  -18.4090  -37.2300 N   0  0  0  0  0  0  0  0  0  0  0  0
   -0.2380  -19.0930  -38.1280 C   0  0  0  0  0  0  0  0  0  0  0  0
   -0.1490  -20.3340  -38.2910 O   0  0  0  0  0  0  0  0  0  0  0  0
   -2.1880  -19.0430  -36.5190 C   0  0  0  0  0  0  0  0  0  0  0  0
   -3.4400  -18.2210  -36.4810 C   0  0  0  0  0  0  0  0  0  0  0  0
   -1.3910  -11.4430  -36.1990 H   0  0  0  0  0  0  0  0  0  0  0  0
   -0.9420  -13.8510  -35.9680 H   0  0  0  0  0  0  0  0  0  0  0  0
    2.8470  -13.2700  -37.8170 H   0  0  0  0  0  0  0  0  0  0  0  0
    2.3880  -10.8790  -38.0440 H   0  0  0  0  0  0  0  0  0  0  0  0
    1.8550  -15.5630  -38.7190 H   0  0  0  0  0  0  0  0  0  0  0  0
    3.9130  -19.1930  -35.3400 H   0  0  0  0  0  0  0  0  0  0  0  0
    3.5880  -20.8380  -37.1700 H   0  0  0  0  0  0  0  0  0  0  0  0
    2.4150  -20.2310  -39.1820 H   0  0  0  0  0  0  0  0  0  0  0  0
    2.5910  -17.6740  -39.4400 H   0  0  0  0  0  0  0  0  0  0  0  0
    0.2980  -18.1630  -39.9180 H   0  0  0  0  0  0  0  0  0  0  0  0
   -0.3980  -16.1990  -39.1030 H   0  0  0  0  0  0  0  0  0  0  0  0
   -1.9130  -19.2970  -35.4700 H   0  0  0  0  0  0  0  0  0  0  0  0
   -2.4610  -20.0240  -36.9940 H   0  0  0  0  0  0  0  0  0  0  0  0
   -3.2380  -17.1280  -36.5380 H   0  0  0  0  0  0  0  0  0  0  0  0
   -4.1530  -18.5460  -37.2790 H   0  0  0  0  0  0  0  0  0  0  0  0
   -3.9840  -18.3910  -35.5150 H   0  0  0  0  0  0  0  0  0  0  0  0
  1  2  1  0  0  0  0
  2  3  1  0  0  0  0
  3  4  2  0  0  0  0
  3 26  1  0  0  0  0
  4 27  1  0  0  0  0
  5  8  1  0  0  0  0
  5  4  1  0  0  0  0
  6  5  2  0  0  0  0
  7  6  1  0  0  0  0
  7  2  2  0  0  0  0
  8  9  2  0  0  0  0
 10 30  1  6  0  0  0
 10 11  1  0  0  0  0
 10  8  1  0  0  0  0
 11 12  1  0  0  0  0
 12 13  2  0  0  0  0
 13 31  1  0  0  0  0
 14 32  1  0  0  0  0
 14 13  1  0  0  0  0
 15 14  2  0  0  0  0
 16 34  1  6  0  0  0
 16 15  1  0  0  0  0
 16 11  1  0  0  0  0
 17 35  1  6  0  0  0
 17 16  1  0  0  0  0
 17 18  1  0  0  0  0
 17 22  1  0  0  0  0
 18 36  1  6  0  0  0
 18 10  1  0  0  0  0
 18 19  1  0  0  0  0
 19 20  2  0  0  0  0
 21 19  1  0  0  0  0
 21 24  1  0  0  0  0
 22 21  1  0  0  0  0
 23 22  2  0  0  0  0
 24 25  1  0  0  0  0
 24 37  1  0  0  0  0
 25 41  1  0  0  0  0
 28  6  1  0  0  0  0
 29  7  1  0  0  0  0
 33 15  1  0  0  0  0
 38 24  1  0  0  0  0
 39 25  1  0  0  0  0
 40 25  1  0  0  0  0
M  END
>  <Pose>
1

>  <Score>
-3.72

$$$$
