
 OpenBabel03232221553D

 49 52  0  0  1  0  0  0  0  0999 V2000
    8.4730  -26.0730  -44.0450 B   0  0  0  0  0  0  0  0  0  0  0  0
    7.5290  -24.4730  -43.6210 C   0  0  0  0  0  0  0  0  0  0  0  0
    8.1540  -23.2640  -43.4020 C   0  0  0  0  0  0  0  0  0  0  0  0
    7.4540  -22.1170  -43.0960 C   0  0  0  0  0  0  0  0  0  0  0  0
    6.0570  -22.1340  -42.9930 C   0  0  0  0  0  0  0  0  0  0  0  0
    5.4480  -23.3500  -43.2150 C   0  0  0  0  0  0  0  0  0  0  0  0
    6.1540  -24.5110  -43.5250 C   0  0  0  0  0  0  0  0  0  0  0  0
    5.3470  -20.9010  -42.7000 C   0  0  0  0  0  0  0  0  0  0  0  0
    5.0220  -20.6080  -41.4670 C   0  0  0  0  0  0  0  0  0  0  0  0
    4.2920  -19.4050  -40.9550 C   0  0  2  0  0  0  0  0  0  0  0  0
    3.4600  -20.0090  -39.9210 N   0  0  0  0  0  0  0  0  0  0  0  0
    4.3210  -20.9810  -39.2950 C   0  0  0  0  0  0  0  0  0  0  0  0
    4.1920  -21.3850  -38.1270 O   0  0  0  0  0  0  0  0  0  0  0  0
    5.3410  -21.3820  -40.2760 C   0  0  0  0  0  0  0  0  0  0  0  0
    6.2810  -22.2050  -40.1250 O   0  0  0  0  0  0  0  0  0  0  0  0
    2.0990  -19.6880  -39.6040 C   0  0  0  0  0  0  0  0  0  0  0  0
    1.9550  -18.2700  -39.0730 C   0  0  0  0  0  0  0  0  0  0  0  0
    0.9080  -18.2970  -37.9600 C   0  0  0  0  0  0  0  0  0  0  0  0
    0.9000  -17.0600  -37.2040 N   0  0  0  0  0  0  0  0  0  0  0  0
    1.6160  -16.7720  -36.0920 C   0  0  0  0  0  0  0  0  0  0  0  0
    1.3240  -15.5200  -35.6990 N   0  0  0  0  0  0  0  0  0  0  0  0
    0.4250  -14.9840  -36.5380 C   0  0  0  0  0  0  0  0  0  0  0  0
    0.1730  -15.9660  -37.4740 C   0  0  0  0  0  0  0  0  0  0  0  0
    3.5010  -18.7690  -42.0370 C   0  0  0  0  0  0  0  0  0  0  0  0
    3.7470  -17.4800  -42.3220 N   0  0  0  0  0  0  0  0  0  0  0  0
    3.1070  -16.8070  -43.2810 C   0  0  0  0  0  0  0  0  0  0  0  0
    2.1480  -17.4720  -44.0090 C   0  0  0  0  0  0  0  0  0  0  0  0
    1.8630  -18.7930  -43.7520 C   0  0  0  0  0  0  0  0  0  0  0  0
    2.5500  -19.4390  -42.7560 C   0  0  0  0  0  0  0  0  0  0  0  0
    4.9910  -20.0010  -43.7230 O   0  0  0  0  0  0  0  0  0  0  0  0
    9.2360  -23.2540  -43.4820 H   0  0  0  0  0  0  0  0  0  0  0  0
    7.9500  -21.1660  -42.9240 H   0  0  0  0  0  0  0  0  0  0  0  0
    4.3690  -23.4110  -43.1670 H   0  0  0  0  0  0  0  0  0  0  0  0
    5.6120  -25.4520  -43.6920 H   0  0  0  0  0  0  0  0  0  0  0  0
    4.9910  -18.6670  -40.5300 H   0  0  0  0  0  0  0  0  0  0  0  0
    1.7860  -20.3440  -38.7480 H   0  0  0  0  0  0  0  0  0  0  0  0
    1.3750  -19.8220  -40.4050 H   0  0  0  0  0  0  0  0  0  0  0  0
    2.8790  -17.8840  -38.6280 H   0  0  0  0  0  0  0  0  0  0  0  0
    1.5580  -17.5980  -39.8530 H   0  0  0  0  0  0  0  0  0  0  0  0
   -0.0760  -18.4700  -38.4520 H   0  0  0  0  0  0  0  0  0  0  0  0
    1.0800  -19.1850  -37.2920 H   0  0  0  0  0  0  0  0  0  0  0  0
    2.3150  -17.4200  -35.5830 H   0  0  0  0  0  0  0  0  0  0  0  0
    1.7280  -15.0150  -34.8600 H   0  0  0  0  0  0  0  0  0  0  0  0
   -0.0260  -14.0030  -36.5200 H   0  0  0  0  0  0  0  0  0  0  0  0
   -0.5160  -15.8760  -38.3170 H   0  0  0  0  0  0  0  0  0  0  0  0
    3.3150  -15.7550  -43.5060 H   0  0  0  0  0  0  0  0  0  0  0  0
    1.6150  -16.9310  -44.7980 H   0  0  0  0  0  0  0  0  0  0  0  0
    1.1120  -19.3250  -44.3180 H   0  0  0  0  0  0  0  0  0  0  0  0
    2.3760  -20.4860  -42.5090 H   0  0  0  0  0  0  0  0  0  0  0  0
  1  2  1  0  0  0  0
  2  7  2  0  0  0  0
  2  3  1  0  0  0  0
  3  4  2  0  0  0  0
  4  5  1  0  0  0  0
  4 32  1  0  0  0  0
  5  8  1  0  0  0  0
  6 33  1  0  0  0  0
  6  5  2  0  0  0  0
  7  6  1  0  0  0  0
  8  9  2  0  0  0  0
  9 10  1  0  0  0  0
  9 14  1  0  0  0  0
 10 35  1  1  0  0  0
 10 11  1  0  0  0  0
 11 16  1  0  0  0  0
 11 12  1  0  0  0  0
 12 13  2  0  0  0  0
 14 15  2  0  0  0  0
 14 12  1  0  0  0  0
 16 17  1  0  0  0  0
 16 36  1  0  0  0  0
 17 38  1  0  0  0  0
 17 18  1  0  0  0  0
 18 41  1  0  0  0  0
 18 19  1  0  0  0  0
 19 20  1  0  0  0  0
 20 21  1  0  0  0  0
 20 42  1  0  0  0  0
 21 43  1  0  0  0  0
 22 44  1  0  0  0  0
 22 21  1  0  0  0  0
 23 19  1  0  0  0  0
 23 22  2  0  0  0  0
 24 10  1  0  0  0  0
 25 24  1  0  0  0  0
 26 25  2  0  0  0  0
 27 28  2  0  0  0  0
 27 26  1  0  0  0  0
 28 29  1  0  0  0  0
 29 49  1  0  0  0  0
 29 24  2  0  0  0  0
 30  8  1  0  0  0  0
 31  3  1  0  0  0  0
 34  7  1  0  0  0  0
 37 16  1  0  0  0  0
 39 17  1  0  0  0  0
 40 18  1  0  0  0  0
 45 23  1  0  0  0  0
 46 26  1  0  0  0  0
 47 27  1  0  0  0  0
 48 28  1  0  0  0  0
M  END
>  <Pose>
1

>  <Score>
-4.39

$$$$
