
 OpenBabel03232221553D

 55 58  0  0  1  0  0  0  0  0999 V2000
   11.7730  -27.8200  -43.9750 B   0  0  0  0  0  0  0  0  0  0  0  0
   10.0780  -26.9230  -44.1220 C   0  0  0  0  0  0  0  0  0  0  0  0
    9.4950  -26.4630  -42.9630 C   0  0  0  0  0  0  0  0  0  0  0  0
    8.2910  -25.8220  -43.0410 C   0  0  0  0  0  0  0  0  0  0  0  0
    7.6590  -25.6360  -44.2700 C   0  0  0  0  0  0  0  0  0  0  0  0
    8.2430  -26.0950  -45.4050 C   0  0  0  0  0  0  0  0  0  0  0  0
    9.4580  -26.7430  -45.3400 C   0  0  0  0  0  0  0  0  0  0  0  0
    6.3600  -24.9860  -44.2180 C   0  0  0  0  0  0  0  0  0  0  0  0
    6.2540  -23.7010  -44.0110 C   0  0  0  0  0  0  0  0  0  0  0  0
    4.9850  -22.8910  -43.9390 C   0  0  2  0  0  0  0  0  0  0  0  0
    5.3040  -21.8640  -43.0080 N   0  0  0  0  0  0  0  0  0  0  0  0
    6.7270  -21.6200  -43.1150 C   0  0  0  0  0  0  0  0  0  0  0  0
    7.3560  -20.6010  -42.7400 O   0  0  0  0  0  0  0  0  0  0  0  0
    7.3390  -22.7820  -43.7490 C   0  0  0  0  0  0  0  0  0  0  0  0
    8.5850  -22.9160  -43.9990 O   0  0  0  0  0  0  0  0  0  0  0  0
    4.5120  -21.0610  -42.0950 C   0  0  0  0  0  0  0  0  0  0  0  0
    4.5070  -21.5200  -40.6730 C   0  0  0  0  0  0  0  0  0  0  0  0
    4.7000  -20.4320  -39.7270 N   0  0  0  0  0  4  0  0  0  0  0  0
    6.0060  -20.5440  -39.0680 C   0  0  0  0  0  0  0  0  0  0  0  0
    6.1360  -19.2620  -38.2340 C   0  0  0  0  0  0  0  0  0  0  0  0
    5.1390  -19.1460  -37.2970 O   0  0  0  0  0  0  0  0  0  0  0  0
    3.8580  -19.2730  -37.8110 C   0  0  0  0  0  0  0  0  0  0  0  0
    3.7130  -20.4990  -38.6790 C   0  0  0  0  0  0  0  0  0  0  0  0
    3.8300  -23.7350  -43.6600 C   0  0  0  0  0  0  0  0  0  0  0  0
    2.9660  -24.2470  -44.5900 C   0  0  0  0  0  0  0  0  0  0  0  0
    1.9050  -25.0430  -44.2460 C   0  0  0  0  0  0  0  0  0  0  0  0
    1.6870  -25.3430  -42.9280 C   0  0  0  0  0  0  0  0  0  0  0  0
    2.5310  -24.8510  -41.9370 C   0  0  0  0  0  0  0  0  0  0  0  0
    3.5830  -24.0590  -42.3160 C   0  0  0  0  0  0  0  0  0  0  0  0
    1.0560  -25.5370  -45.2560 N   0  0  0  0  0  0  0  0  0  0  0  0
    1.1270  -26.7220  -45.6730 O   0  0  0  0  0  0  0  0  0  0  0  0
    0.1190  -24.6880  -45.7990 O   0  0  0  0  0  0  0  0  0  0  0  0
    5.1730  -25.7330  -44.3920 O   0  0  0  0  0  0  0  0  0  0  0  0
    9.9590  -26.5900  -41.9800 H   0  0  0  0  0  0  0  0  0  0  0  0
    7.8160  -25.4490  -42.1160 H   0  0  0  0  0  0  0  0  0  0  0  0
    7.7320  -25.9750  -46.3710 H   0  0  0  0  0  0  0  0  0  0  0  0
    9.9270  -27.1110  -46.2560 H   0  0  0  0  0  0  0  0  0  0  0  0
    4.8780  -22.3970  -44.9390 H   0  0  0  0  0  0  0  0  0  0  0  0
    3.4610  -21.1050  -42.4610 H   0  0  0  0  0  0  0  0  0  0  0  0
    4.8320  -19.9970  -42.1090 H   0  0  0  0  0  0  0  0  0  0  0  0
    5.1490  -22.3470  -40.4090 H   0  0  0  0  0  0  0  0  0  0  0  0
    3.4430  -21.9240  -40.5120 H   0  0  0  0  0  0  0  0  0  0  0  0
    4.6800  -19.4990  -40.1470 H   0  0  0  0  0  0  0  0  0  0  0  0
    6.8370  -20.5190  -39.7980 H   0  0  0  0  0  0  0  0  0  0  0  0
    6.0530  -21.3780  -38.3640 H   0  0  0  0  0  0  0  0  0  0  0  0
    7.1030  -19.2070  -37.7320 H   0  0  0  0  0  0  0  0  0  0  0  0
    6.0900  -18.4240  -38.9810 H   0  0  0  0  0  0  0  0  0  0  0  0
    3.1860  -19.4430  -36.9190 H   0  0  0  0  0  0  0  0  0  0  0  0
    3.4920  -18.3750  -38.3290 H   0  0  0  0  0  0  0  0  0  0  0  0
    2.7140  -20.4870  -39.1480 H   0  0  0  0  0  0  0  0  0  0  0  0
    3.8560  -21.4190  -38.0660 H   0  0  0  0  0  0  0  0  0  0  0  0
    3.1260  -24.0100  -45.6250 H   0  0  0  0  0  0  0  0  0  0  0  0
    0.8700  -25.9650  -42.5900 H   0  0  0  0  0  0  0  0  0  0  0  0
    2.3560  -25.0920  -40.8850 H   0  0  0  0  0  0  0  0  0  0  0  0
    4.2490  -23.6710  -41.5310 H   0  0  0  0  0  0  0  0  0  0  0  0
  2  1  1  0  0  0  0
  2  3  1  0  0  0  0
  3 34  1  0  0  0  0
  4  3  2  0  0  0  0
  4 35  1  0  0  0  0
  5  8  1  0  0  0  0
  5  4  1  0  0  0  0
  6  7  1  0  0  0  0
  6  5  2  0  0  0  0
  7  2  2  0  0  0  0
  8  9  2  0  0  0  0
  9 10  1  0  0  0  0
  9 14  1  0  0  0  0
 10 38  1  6  0  0  0
 10 24  1  0  0  0  0
 10 11  1  0  0  0  0
 11 16  1  0  0  0  0
 12 11  1  0  0  0  0
 12 13  2  0  0  0  0
 14 12  1  0  0  0  0
 15 14  2  0  0  0  0
 16 17  1  0  0  0  0
 17 42  1  0  0  0  0
 17 41  1  0  0  0  0
 17 18  1  0  0  0  0
 18 19  1  0  0  0  0
 18 23  1  0  0  0  0
 19 45  1  0  0  0  0
 19 20  1  0  0  0  0
 20 46  1  0  0  0  0
 20 21  1  0  0  0  0
 22 21  1  0  0  0  0
 22 48  1  0  0  0  0
 23 51  1  0  0  0  0
 23 22  1  0  0  0  0
 24 29  1  0  0  0  0
 25 26  1  0  0  0  0
 25 24  2  0  0  0  0
 26 27  2  0  0  0  0
 27 53  1  0  0  0  0
 27 28  1  0  0  0  0
 28 54  1  0  0  0  0
 29 28  2  0  0  0  0
 29 55  1  0  0  0  0
 30 26  1  0  0  0  0
 31 30  2  0  0  0  0
 32 30  2  0  0  0  0
 33  8  1  0  0  0  0
 36  6  1  0  0  0  0
 37  7  1  0  0  0  0
 39 16  1  0  0  0  0
 40 16  1  0  0  0  0
 43 18  1  0  0  0  0
 44 19  1  0  0  0  0
 47 20  1  0  0  0  0
 49 22  1  0  0  0  0
 50 23  1  0  0  0  0
 52 25  1  0  0  0  0
M  END
>  <Pose>
1

>  <Score>
-4.00

$$$$
