
 OpenBabel03232221553D

 59 62  0  0  1  0  0  0  0  0999 V2000
   -1.1110  -11.4180  -35.2660 B   0  0  0  0  0  0  0  0  0  0  0  0
   -0.4390  -12.8970  -36.2750 C   0  0  0  0  0  0  0  0  0  0  0  0
   -1.2070  -13.4450  -37.2800 C   0  0  0  0  0  0  0  0  0  0  0  0
   -0.7380  -14.5090  -38.0200 C   0  0  0  0  0  0  0  0  0  0  0  0
    0.5180  -15.0900  -37.8040 C   0  0  0  0  0  0  0  0  0  0  0  0
    1.2700  -14.5310  -36.7980 C   0  0  0  0  0  0  0  0  0  0  0  0
    0.7990  -13.4490  -36.0440 C   0  0  0  0  0  0  0  0  0  0  0  0
    0.9410  -16.2370  -38.5950 C   0  0  0  0  0  0  0  0  0  0  0  0
    0.4390  -17.4440  -38.4580 C   0  0  0  0  0  0  0  0  0  0  0  0
    0.8370  -18.6610  -39.2540 C   0  0  2  0  0  0  0  0  0  0  0  0
   -0.0210  -19.7100  -38.8250 N   0  0  0  0  0  0  0  0  0  0  0  0
   -0.8440  -19.2900  -37.7170 C   0  0  0  0  0  0  0  0  0  0  0  0
   -1.6520  -19.9560  -37.0550 O   0  0  0  0  0  0  0  0  0  0  0  0
   -0.5480  -17.8570  -37.4880 C   0  0  0  0  0  0  0  0  0  0  0  0
   -1.0840  -17.1390  -36.5830 O   0  0  0  0  0  0  0  0  0  0  0  0
   -0.1210  -21.0450  -39.3520 C   0  0  0  0  0  0  0  0  0  0  0  0
   -1.4260  -21.3840  -39.9860 C   0  0  0  0  0  0  0  0  0  0  0  0
   -2.0840  -22.5410  -39.4570 N   0  0  0  0  0  4  0  0  0  0  0  0
   -1.9100  -23.7360  -40.2570 C   0  0  0  0  0  0  0  0  0  0  0  0
   -2.4930  -24.8900  -39.4680 C   0  0  0  0  0  0  0  0  0  0  0  0
   -3.8890  -24.6610  -39.4290 O   0  0  0  0  0  0  0  0  0  0  0  0
   -4.0660  -23.5430  -38.6100 C   0  0  0  0  0  0  0  0  0  0  0  0
   -3.5430  -22.3320  -39.3660 C   0  0  0  0  0  0  0  0  0  0  0  0
    2.2570  -18.9160  -38.8610 C   0  0  0  0  0  0  0  0  0  0  0  0
    3.1710  -19.1160  -39.8470 C   0  0  0  0  0  0  0  0  0  0  0  0
    4.4940  -19.3600  -39.5410 C   0  0  0  0  0  0  0  0  0  0  0  0
    4.8960  -19.4030  -38.2330 C   0  0  0  0  0  0  0  0  0  0  0  0
    3.9720  -19.2000  -37.2410 C   0  0  0  0  0  0  0  0  0  0  0  0
    2.6420  -18.9540  -37.5410 C   0  0  0  0  0  0  0  0  0  0  0  0
    6.2970  -19.6650  -37.8960 C   0  0  0  0  0  0  0  0  0  0  0  0
    6.6820  -20.8510  -37.7320 O   0  0  0  0  0  0  0  0  0  0  0  0
    7.2270  -18.6740  -37.7440 O   0  0  0  0  0  0  0  0  0  0  0  0
    8.5020  -18.7180  -38.3450 C   0  0  0  0  0  0  0  0  0  0  0  0
    1.9460  -16.0990  -39.5800 O   0  0  0  0  0  0  0  0  0  0  0  0
   -2.1940  -13.0070  -37.4670 H   0  0  0  0  0  0  0  0  0  0  0  0
   -1.3530  -14.9220  -38.7960 H   0  0  0  0  0  0  0  0  0  0  0  0
    2.2530  -14.9580  -36.5660 H   0  0  0  0  0  0  0  0  0  0  0  0
    1.4130  -13.0310  -35.2600 H   0  0  0  0  0  0  0  0  0  0  0  0
    0.7520  -18.3600  -40.3080 H   0  0  0  0  0  0  0  0  0  0  0  0
    0.7090  -21.2570  -40.0880 H   0  0  0  0  0  0  0  0  0  0  0  0
    0.0450  -21.8080  -38.5390 H   0  0  0  0  0  0  0  0  0  0  0  0
   -1.2090  -21.6200  -41.0690 H   0  0  0  0  0  0  0  0  0  0  0  0
   -2.1260  -20.5260  -40.0320 H   0  0  0  0  0  0  0  0  0  0  0  0
   -1.8130  -22.7260  -38.4550 H   0  0  0  0  0  0  0  0  0  0  0  0
   -0.8580  -23.9220  -40.5500 H   0  0  0  0  0  0  0  0  0  0  0  0
   -2.5400  -23.6330  -41.1760 H   0  0  0  0  0  0  0  0  0  0  0  0
   -2.3030  -25.8480  -40.0000 H   0  0  0  0  0  0  0  0  0  0  0  0
   -2.0840  -24.9030  -38.4200 H   0  0  0  0  0  0  0  0  0  0  0  0
   -3.3760  -23.6730  -37.7300 H   0  0  0  0  0  0  0  0  0  0  0  0
   -5.1230  -23.4140  -38.3110 H   0  0  0  0  0  0  0  0  0  0  0  0
   -3.9190  -22.3110  -40.4200 H   0  0  0  0  0  0  0  0  0  0  0  0
   -3.7790  -21.3850  -38.8400 H   0  0  0  0  0  0  0  0  0  0  0  0
    2.9000  -19.0920  -40.8790 H   0  0  0  0  0  0  0  0  0  0  0  0
    5.2000  -19.5160  -40.3240 H   0  0  0  0  0  0  0  0  0  0  0  0
    4.3220  -19.2390  -36.2010 H   0  0  0  0  0  0  0  0  0  0  0  0
    1.9280  -18.7980  -36.7700 H   0  0  0  0  0  0  0  0  0  0  0  0
    9.2940  -19.0200  -37.6580 H   0  0  0  0  0  0  0  0  0  0  0  0
    8.5030  -19.4100  -39.2240 H   0  0  0  0  0  0  0  0  0  0  0  0
    8.7770  -17.7000  -38.7410 H   0  0  0  0  0  0  0  0  0  0  0  0
  2  7  1  0  0  0  0
  2  1  1  0  0  0  0
  3  2  2  0  0  0  0
  4  5  2  0  0  0  0
  4  3  1  0  0  0  0
  5  6  1  0  0  0  0
  6 37  1  0  0  0  0
  6  7  2  0  0  0  0
  7 38  1  0  0  0  0
  8  9  2  0  0  0  0
  8  5  1  0  0  0  0
  9 14  1  0  0  0  0
 10 39  1  6  0  0  0
 10 24  1  0  0  0  0
 10 11  1  0  0  0  0
 10  9  1  0  0  0  0
 11 12  1  0  0  0  0
 12 14  1  0  0  0  0
 12 13  2  0  0  0  0
 14 15  2  0  0  0  0
 16 11  1  0  0  0  0
 16 41  1  0  0  0  0
 17 18  1  0  0  0  0
 17 16  1  0  0  0  0
 18 23  1  0  0  0  0
 18 44  1  0  0  0  0
 19 20  1  0  0  0  0
 19 18  1  0  0  0  0
 20 21  1  0  0  0  0
 20 48  1  0  0  0  0
 21 22  1  0  0  0  0
 22 50  1  0  0  0  0
 22 49  1  0  0  0  0
 23 52  1  0  0  0  0
 23 22  1  0  0  0  0
 24 29  1  0  0  0  0
 25 26  1  0  0  0  0
 25 24  2  0  0  0  0
 26 27  2  0  0  0  0
 27 30  1  0  0  0  0
 27 28  1  0  0  0  0
 28 55  1  0  0  0  0
 29 28  2  0  0  0  0
 29 56  1  0  0  0  0
 30 32  1  0  0  0  0
 30 31  2  0  0  0  0
 33 32  1  0  0  0  0
 33 57  1  0  0  0  0
 34  8  1  0  0  0  0
 35  3  1  0  0  0  0
 36  4  1  0  0  0  0
 40 16  1  0  0  0  0
 42 17  1  0  0  0  0
 43 17  1  0  0  0  0
 45 19  1  0  0  0  0
 46 19  1  0  0  0  0
 47 20  1  0  0  0  0
 51 23  1  0  0  0  0
 53 25  1  0  0  0  0
 54 26  1  0  0  0  0
 58 33  1  0  0  0  0
 59 33  1  0  0  0  0
M  END
>  <Pose>
1

>  <Score>
-4.06

$$$$
