
 OpenBabel03232221553D

 53 56  0  0  1  0  0  0  0  0999 V2000
   -2.1110  -18.2610  -36.2170 B   0  0  0  0  0  0  0  0  0  0  0  0
   -0.8480  -18.6720  -37.6010 C   0  0  0  0  0  0  0  0  0  0  0  0
   -0.1010  -17.6850  -38.2010 C   0  0  0  0  0  0  0  0  0  0  0  0
    0.8100  -17.9900  -39.2010 C   0  0  0  0  0  0  0  0  0  0  0  0
    1.0050  -19.2830  -39.6330 C   0  0  0  0  0  0  0  0  0  0  0  0
    0.2570  -20.2680  -39.0310 C   0  0  0  0  0  0  0  0  0  0  0  0
   -0.6620  -19.9680  -38.0220 C   0  0  0  0  0  0  0  0  0  0  0  0
    1.9820  -19.6010  -40.6610 C   0  0  0  0  0  0  0  0  0  0  0  0
    3.1490  -20.1750  -40.4400 C   0  0  0  0  0  0  0  0  0  0  0  0
    4.2300  -20.5450  -41.3980 C   0  0  1  0  0  0  0  0  0  0  0  0
    5.4540  -20.3400  -40.6060 N   0  0  0  0  0  0  0  0  0  0  0  0
    5.1000  -20.7180  -39.2890 C   0  0  0  0  0  0  0  0  0  0  0  0
    5.9040  -21.0660  -38.4140 O   0  0  0  0  0  0  0  0  0  0  0  0
    3.6520  -20.6290  -39.1460 C   0  0  0  0  0  0  0  0  0  0  0  0
    2.9120  -20.8730  -38.1610 O   0  0  0  0  0  0  0  0  0  0  0  0
    6.6620  -19.8640  -41.1740 C   0  0  0  0  0  0  0  0  0  0  0  0
    6.6010  -18.7740  -42.1630 C   0  0  0  0  0  0  0  0  0  0  0  0
    7.8500  -18.3340  -42.7040 N   0  0  0  0  0  4  0  0  0  0  0  0
    7.8260  -17.0960  -43.4000 C   0  0  0  0  0  0  0  0  0  0  0  0
    7.9370  -17.3660  -44.8840 C   0  0  0  0  0  0  0  0  0  0  0  0
    7.1950  -18.4770  -45.2760 O   0  0  0  0  0  0  0  0  0  0  0  0
    7.7010  -19.6580  -44.7670 C   0  0  0  0  0  0  0  0  0  0  0  0
    8.4990  -19.3340  -43.5230 C   0  0  0  0  0  0  0  0  0  0  0  0
    4.1180  -21.9030  -41.9360 C   0  0  0  0  0  0  0  0  0  0  0  0
    2.9220  -22.6220  -41.8250 C   0  0  0  0  0  0  0  0  0  0  0  0
    2.7530  -23.8850  -42.3040 C   0  0  0  0  0  0  0  0  0  0  0  0
    3.8000  -24.5250  -42.9400 C   0  0  0  0  0  0  0  0  0  0  0  0
    4.9800  -23.8490  -43.0630 C   0  0  0  0  0  0  0  0  0  0  0  0
    5.1520  -22.5520  -42.5710 C   0  0  0  0  0  0  0  0  0  0  0  0
    1.6630  -19.2730  -41.9930 O   0  0  0  0  0  0  0  0  0  0  0  0
   -0.2410  -16.6670  -37.8740 H   0  0  0  0  0  0  0  0  0  0  0  0
    1.4070  -17.2250  -39.6860 H   0  0  0  0  0  0  0  0  0  0  0  0
    0.3320  -21.3190  -39.2690 H   0  0  0  0  0  0  0  0  0  0  0  0
   -1.2490  -20.7510  -37.5520 H   0  0  0  0  0  0  0  0  0  0  0  0
    4.2010  -19.8370  -42.2530 H   0  0  0  0  0  0  0  0  0  0  0  0
    7.3410  -19.5790  -40.3240 H   0  0  0  0  0  0  0  0  0  0  0  0
    7.1910  -20.7650  -41.6110 H   0  0  0  0  0  0  0  0  0  0  0  0
    6.1750  -17.8740  -41.6200 H   0  0  0  0  0  0  0  0  0  0  0  0
    5.9070  -18.9380  -43.0020 H   0  0  0  0  0  0  0  0  0  0  0  0
    8.4850  -18.2060  -41.8560 H   0  0  0  0  0  0  0  0  0  0  0  0
    6.9500  -16.4580  -43.1590 H   0  0  0  0  0  0  0  0  0  0  0  0
    8.7350  -16.4860  -43.1240 H   0  0  0  0  0  0  0  0  0  0  0  0
    9.0200  -17.4740  -45.1120 H   0  0  0  0  0  0  0  0  0  0  0  0
    7.5900  -16.4480  -45.4080 H   0  0  0  0  0  0  0  0  0  0  0  0
    8.3740  -20.1430  -45.5000 H   0  0  0  0  0  0  0  0  0  0  0  0
    6.8860  -20.3830  -44.5630 H   0  0  0  0  0  0  0  0  0  0  0  0
    8.7140  -20.2690  -42.9270 H   0  0  0  0  0  0  0  0  0  0  0  0
    9.4960  -18.9940  -43.8630 H   0  0  0  0  0  0  0  0  0  0  0  0
    2.0840  -22.1400  -41.3300 H   0  0  0  0  0  0  0  0  0  0  0  0
    1.8110  -24.4020  -42.1970 H   0  0  0  0  0  0  0  0  0  0  0  0
    3.6570  -25.5320  -43.3190 H   0  0  0  0  0  0  0  0  0  0  0  0
    5.8240  -24.2990  -43.5490 H   0  0  0  0  0  0  0  0  0  0  0  0
    6.0950  -22.0790  -42.6970 H   0  0  0  0  0  0  0  0  0  0  0  0
  2  1  1  0  0  0  0
  3 31  1  0  0  0  0
  3  2  2  0  0  0  0
  4  3  1  0  0  0  0
  5  4  2  0  0  0  0
  5  6  1  0  0  0  0
  6  7  2  0  0  0  0
  7  2  1  0  0  0  0
  7 34  1  0  0  0  0
  8  9  2  0  0  0  0
  8  5  1  0  0  0  0
  9 14  1  0  0  0  0
 10 35  1  6  0  0  0
 10 11  1  0  0  0  0
 10  9  1  0  0  0  0
 11 12  1  0  0  0  0
 12 14  1  0  0  0  0
 12 13  2  0  0  0  0
 14 15  2  0  0  0  0
 16 11  1  0  0  0  0
 16 36  1  0  0  0  0
 17 38  1  0  0  0  0
 17 16  1  0  0  0  0
 18 17  1  0  0  0  0
 18 40  1  0  0  0  0
 19 41  1  0  0  0  0
 19 42  1  0  0  0  0
 19 18  1  0  0  0  0
 20 19  1  0  0  0  0
 21 20  1  0  0  0  0
 21 22  1  0  0  0  0
 22 46  1  0  0  0  0
 22 23  1  0  0  0  0
 23 47  1  0  0  0  0
 23 18  1  0  0  0  0
 24 25  1  0  0  0  0
 24 10  1  0  0  0  0
 25 49  1  0  0  0  0
 26 50  1  0  0  0  0
 26 25  2  0  0  0  0
 27 26  1  0  0  0  0
 28 27  2  0  0  0  0
 28 29  1  0  0  0  0
 29 24  2  0  0  0  0
 30  8  1  0  0  0  0
 32  4  1  0  0  0  0
 33  6  1  0  0  0  0
 37 16  1  0  0  0  0
 39 17  1  0  0  0  0
 43 20  1  0  0  0  0
 44 20  1  0  0  0  0
 45 22  1  0  0  0  0
 48 23  1  0  0  0  0
 51 27  1  0  0  0  0
 52 28  1  0  0  0  0
 53 29  1  0  0  0  0
M  END
>  <Pose>
1

>  <Score>
-4.09

$$$$
