
 OpenBabel03232221553D

 48 51  0  0  1  0  0  0  0  0999 V2000
    0.6210  -13.0160  -35.9630 B   0  0  0  0  0  0  0  0  0  0  0  0
    1.0610  -14.7100  -36.7400 C   0  0  0  0  0  0  0  0  0  0  0  0
    1.3610  -14.7770  -38.0820 C   0  0  0  0  0  0  0  0  0  0  0  0
    1.6740  -15.9920  -38.6310 C   0  0  0  0  0  0  0  0  0  0  0  0
    1.6880  -17.1210  -37.8510 C   0  0  0  0  0  0  0  0  0  0  0  0
    1.3820  -17.0150  -36.5160 C   0  0  0  0  0  0  0  0  0  0  0  0
    1.0590  -15.8090  -35.9140 C   0  0  0  0  0  0  0  0  0  0  0  0
    2.0300  -18.4610  -38.4610 C   0  0  1  0  0  0  0  0  0  0  0  0
    0.8710  -19.2130  -38.4610 O   0  0  0  0  0  0  0  0  0  0  0  0
    2.6500  -18.2840  -39.8130 C   0  0  0  0  0  0  0  0  0  0  0  0
    3.3150  -19.4600  -40.2940 N   0  0  0  0  0  0  0  0  0  0  0  0
    2.6380  -20.4870  -40.8620 C   0  0  0  0  0  0  0  0  0  0  0  0
    3.5890  -21.4370  -41.1990 C   0  0  0  0  0  0  0  0  0  0  0  0
    3.1730  -22.6050  -41.8100 C   0  0  0  0  0  0  0  0  0  0  0  0
    1.8240  -22.8500  -42.0960 C   0  0  0  0  0  0  0  0  0  0  0  0
    0.9090  -21.8680  -41.7400 C   0  0  0  0  0  0  0  0  0  0  0  0
    1.2950  -20.6990  -41.1310 C   0  0  0  0  0  0  0  0  0  0  0  0
    4.8330  -20.9990  -40.8390 N   0  0  0  0  0  0  0  0  0  0  0  0
    4.6240  -19.7750  -40.2860 C   0  0  2  0  0  0  0  0  0  0  0  0
    5.5770  -19.0370  -39.8230 N   0  0  0  0  0  0  0  0  0  0  0  0
    6.0350  -21.7520  -41.0340 C   0  0  0  0  0  0  0  0  0  0  0  0
    6.4370  -21.8820  -42.4770 C   0  0  0  0  0  0  0  0  0  0  0  0
    6.8460  -20.7510  -43.1630 C   0  0  0  0  0  0  0  0  0  0  0  0
    7.2320  -20.7900  -44.4890 C   0  0  0  0  0  0  0  0  0  0  0  0
    7.1990  -22.0070  -45.1230 C   0  0  0  0  0  0  0  0  0  0  0  0
    6.7980  -23.1410  -44.4670 C   0  0  0  0  0  0  0  0  0  0  0  0
    6.4210  -23.0690  -43.1530 C   0  0  0  0  0  0  0  0  0  0  0  0
    1.3480  -13.8580  -38.7030 H   0  0  0  0  0  0  0  0  0  0  0  0
    1.9130  -16.0610  -39.6860 H   0  0  0  0  0  0  0  0  0  0  0  0
    1.3850  -17.9140  -35.8740 H   0  0  0  0  0  0  0  0  0  0  0  0
    0.8170  -15.7380  -34.8490 H   0  0  0  0  0  0  0  0  0  0  0  0
    2.7270  -18.9650  -37.7400 H   0  0  0  0  0  0  0  0  0  0  0  0
    0.7320  -19.7210  -37.6390 H   0  0  0  0  0  0  0  0  0  0  0  0
    1.7910  -18.1000  -40.5240 H   0  0  0  0  0  0  0  0  0  0  0  0
    3.2830  -17.3920  -39.8920 H   0  0  0  0  0  0  0  0  0  0  0  0
    3.9210  -23.3350  -42.0790 H   0  0  0  0  0  0  0  0  0  0  0  0
    1.5510  -23.7660  -42.5690 H   0  0  0  0  0  0  0  0  0  0  0  0
   -0.1400  -22.0420  -41.9540 H   0  0  0  0  0  0  0  0  0  0  0  0
    0.5560  -19.9600  -40.8690 H   0  0  0  0  0  0  0  0  0  0  0  0
    5.3340  -18.0900  -39.4030 H   0  0  0  0  0  0  0  0  0  0  0  0
    6.5740  -19.2610  -39.8160 H   0  0  0  0  0  0  0  0  0  0  0  0
    5.9350  -22.7900  -40.6400 H   0  0  0  0  0  0  0  0  0  0  0  0
    6.8680  -21.2400  -40.5090 H   0  0  0  0  0  0  0  0  0  0  0  0
    6.8790  -19.7570  -42.6870 H   0  0  0  0  0  0  0  0  0  0  0  0
    7.5550  -19.8840  -45.0190 H   0  0  0  0  0  0  0  0  0  0  0  0
    7.4940  -22.0910  -46.1680 H   0  0  0  0  0  0  0  0  0  0  0  0
    6.7880  -24.0980  -45.0200 H   0  0  0  0  0  0  0  0  0  0  0  0
    6.1100  -23.9610  -42.6630 H   0  0  0  0  0  0  0  0  0  0  0  0
  2  1  1  0  0  0  0
  2  7  1  0  0  0  0
  3  2  2  0  0  0  0
  4  3  1  0  0  0  0
  4  5  2  0  0  0  0
  5  6  1  0  0  0  0
  6  7  2  0  0  0  0
  6 30  1  0  0  0  0
  7 31  1  0  0  0  0
  8  5  1  0  0  0  0
  8 32  1  1  0  0  0
  9  8  1  0  0  0  0
  9 33  1  0  0  0  0
 10  8  1  0  0  0  0
 11 19  1  0  0  0  0
 11 10  1  0  0  0  0
 12 11  1  0  0  0  0
 13 12  2  0  0  0  0
 13 18  1  0  0  0  0
 14 13  1  0  0  0  0
 15 14  2  0  0  0  0
 15 16  1  0  0  0  0
 16 17  2  0  0  0  0
 17 39  1  0  0  0  0
 17 12  1  0  0  0  0
 18 19  1  0  0  0  0
 19 20  1  1  0  0  0
 20 41  1  0  0  0  0
 20 40  1  0  0  0  0
 21 18  1  0  0  0  0
 21 42  1  0  0  0  0
 21 43  1  0  0  0  0
 22 21  1  0  0  0  0
 23 44  1  0  0  0  0
 23 22  2  0  0  0  0
 24 23  1  0  0  0  0
 25 24  2  0  0  0  0
 25 26  1  0  0  0  0
 26 27  2  0  0  0  0
 27 48  1  0  0  0  0
 27 22  1  0  0  0  0
 28  3  1  0  0  0  0
 29  4  1  0  0  0  0
 34 10  1  0  0  0  0
 35 10  1  0  0  0  0
 36 14  1  0  0  0  0
 37 15  1  0  0  0  0
 38 16  1  0  0  0  0
 45 24  1  0  0  0  0
 46 25  1  0  0  0  0
 47 26  1  0  0  0  0
M  END
>  <Pose>
1

>  <Score>
-3.54

$$$$
