
 OpenBabel03232221553D

 50 54  0  0  1  0  0  0  0  0999 V2000
    2.3030  -18.0550  -37.0550 B   0  0  0  0  0  0  0  0  0  0  0  0
    3.0060  -19.2760  -38.3280 C   0  0  0  0  0  0  0  0  0  0  0  0
    4.2350  -19.8710  -38.1190 C   0  0  0  0  0  0  0  0  0  0  0  0
    4.7480  -20.7670  -39.0540 C   0  0  0  0  0  0  0  0  0  0  0  0
    4.0620  -21.0880  -40.2030 C   0  0  0  0  0  0  0  0  0  0  0  0
    2.8370  -20.4910  -40.4020 C   0  0  0  0  0  0  0  0  0  0  0  0
    2.3080  -19.5890  -39.4750 C   0  0  0  0  0  0  0  0  0  0  0  0
    4.5990  -22.0260  -41.1830 C   0  0  0  0  0  0  0  0  0  0  0  0
    5.8570  -22.0500  -41.6710 N   0  0  0  0  0  0  0  0  0  0  0  0
    5.9900  -23.0630  -42.5630 C   0  0  1  0  0  0  0  0  0  0  0  0
    4.8110  -23.7000  -42.6560 N   0  0  0  0  0  0  0  0  0  0  0  0
    3.9580  -23.0710  -41.8150 C   0  0  0  0  0  0  0  0  0  0  0  0
    4.9940  -24.6920  -43.5490 C   0  0  0  0  0  0  0  0  0  0  0  0
    6.2900  -24.6760  -44.0170 C   0  0  0  0  0  0  0  0  0  0  0  0
    6.7500  -25.5960  -44.9530 C   0  0  0  0  0  0  0  0  0  0  0  0
    5.8940  -26.5590  -45.4370 C   0  0  0  0  0  0  0  0  0  0  0  0
    4.6000  -26.5660  -44.9630 C   0  0  0  0  0  0  0  0  0  0  0  0
    4.1180  -25.6670  -44.0360 C   0  0  0  0  0  0  0  0  0  0  0  0
    6.8900  -23.6390  -43.3760 N   0  0  0  0  0  0  0  0  0  0  0  0
    8.2780  -23.2870  -43.5970 C   0  0  0  0  0  0  0  0  0  0  0  0
    8.9940  -24.3300  -44.4280 C   0  0  0  0  0  0  0  0  0  0  0  0
    9.9370  -25.0490  -43.6200 N   0  0  0  0  0  4  0  0  0  0  0  0
   10.6570  -26.0140  -44.4240 C   0  0  0  0  0  0  0  0  0  0  0  0
   10.7690  -27.3620  -43.7540 C   0  0  0  0  0  0  0  0  0  0  0  0
   11.2680  -27.1830  -42.4620 O   0  0  0  0  0  0  0  0  0  0  0  0
   10.4640  -26.3620  -41.7010 C   0  0  0  0  0  0  0  0  0  0  0  0
    9.3550  -25.7440  -42.5110 C   0  0  0  0  0  0  0  0  0  0  0  0
    4.7840  -19.6230  -37.2140 H   0  0  0  0  0  0  0  0  0  0  0  0
    5.7040  -21.2050  -38.8560 H   0  0  0  0  0  0  0  0  0  0  0  0
    2.2520  -20.7020  -41.2830 H   0  0  0  0  0  0  0  0  0  0  0  0
    1.3350  -19.1250  -39.6480 H   0  0  0  0  0  0  0  0  0  0  0  0
    6.6280  -21.4010  -41.4150 H   0  0  0  0  0  0  0  0  0  0  0  0
    2.9230  -23.3370  -41.6530 H   0  0  0  0  0  0  0  0  0  0  0  0
    7.7700  -25.5290  -45.2760 H   0  0  0  0  0  0  0  0  0  0  0  0
    6.2240  -27.3030  -46.1790 H   0  0  0  0  0  0  0  0  0  0  0  0
    3.9240  -27.3150  -45.3360 H   0  0  0  0  0  0  0  0  0  0  0  0
    3.1230  -25.6580  -43.6600 H   0  0  0  0  0  0  0  0  0  0  0  0
    8.3330  -22.3180  -44.1500 H   0  0  0  0  0  0  0  0  0  0  0  0
    8.7760  -23.1350  -42.6200 H   0  0  0  0  0  0  0  0  0  0  0  0
    9.5280  -23.8740  -45.2620 H   0  0  0  0  0  0  0  0  0  0  0  0
    8.2280  -25.0350  -44.8040 H   0  0  0  0  0  0  0  0  0  0  0  0
   10.6610  -24.3940  -43.2300 H   0  0  0  0  0  0  0  0  0  0  0  0
   10.1520  -26.1520  -45.4210 H   0  0  0  0  0  0  0  0  0  0  0  0
   11.6920  -25.6780  -44.6550 H   0  0  0  0  0  0  0  0  0  0  0  0
   11.5080  -27.9480  -44.3380 H   0  0  0  0  0  0  0  0  0  0  0  0
    9.7980  -27.8860  -43.7740 H   0  0  0  0  0  0  0  0  0  0  0  0
    9.9960  -27.0160  -40.9120 H   0  0  0  0  0  0  0  0  0  0  0  0
   11.0330  -25.5550  -41.1870 H   0  0  0  0  0  0  0  0  0  0  0  0
    8.8740  -24.9740  -41.8430 H   0  0  0  0  0  0  0  0  0  0  0  0
    8.6370  -26.5250  -42.7950 H   0  0  0  0  0  0  0  0  0  0  0  0
  2  3  1  0  0  0  0
  2  1  1  0  0  0  0
  3 28  1  0  0  0  0
  4 29  1  0  0  0  0
  4  3  2  0  0  0  0
  5  4  1  0  0  0  0
  6  5  2  0  0  0  0
  6  7  1  0  0  0  0
  7  2  2  0  0  0  0
  8  5  1  0  0  0  0
  9 32  1  0  0  0  0
  9  8  1  0  0  0  0
 10 19  1  6  0  0  0
 10  9  1  0  0  0  0
 11 10  1  0  0  0  0
 11 12  1  0  0  0  0
 12 33  1  0  0  0  0
 12  8  2  0  0  0  0
 13 11  1  0  0  0  0
 14 13  1  0  0  0  0
 14 19  1  0  0  0  0
 15 14  2  0  0  0  0
 16 17  2  0  0  0  0
 16 15  1  0  0  0  0
 17 18  1  0  0  0  0
 18 37  1  0  0  0  0
 18 13  2  0  0  0  0
 20 19  1  0  0  0  0
 20 39  1  0  0  0  0
 21 22  1  0  0  0  0
 21 20  1  0  0  0  0
 22 42  1  0  0  0  0
 22 27  1  0  0  0  0
 23 24  1  0  0  0  0
 23 22  1  0  0  0  0
 24 25  1  0  0  0  0
 25 26  1  0  0  0  0
 26 48  1  0  0  0  0
 26 47  1  0  0  0  0
 27 49  1  0  0  0  0
 27 26  1  0  0  0  0
 30  6  1  0  0  0  0
 31  7  1  0  0  0  0
 34 15  1  0  0  0  0
 35 16  1  0  0  0  0
 36 17  1  0  0  0  0
 38 20  1  0  0  0  0
 40 21  1  0  0  0  0
 41 21  1  0  0  0  0
 43 23  1  0  0  0  0
 44 23  1  0  0  0  0
 45 24  1  0  0  0  0
 46 24  1  0  0  0  0
 50 27  1  0  0  0  0
M  END
>  <Pose>
1

>  <Score>
-3.93

$$$$
