
 OpenBabel03232221553D

 61 65  0  0  1  0  0  0  0  0999 V2000
    5.6810  -29.4850  -47.0260 B   0  0  0  0  0  0  0  0  0  0  0  0
    5.2380  -27.9770  -45.9260 C   0  0  0  0  0  0  0  0  0  0  0  0
    6.2190  -27.2390  -45.3150 C   0  0  0  0  0  0  0  0  0  0  0  0
    5.8930  -26.1350  -44.5100 C   0  0  0  0  0  0  0  0  0  0  0  0
    4.6150  -25.7350  -44.2870 C   0  0  0  0  0  0  0  0  0  0  0  0
    3.6330  -26.5000  -44.9200 C   0  0  0  0  0  0  0  0  0  0  0  0
    3.9450  -27.5910  -45.7160 C   0  0  0  0  0  0  0  0  0  0  0  0
    4.1930  -24.6290  -43.4290 C   0  0  0  0  0  0  0  0  0  0  0  0
    5.0740  -23.6470  -42.9390 C   0  0  0  0  0  0  0  0  0  0  0  0
    4.4150  -22.7380  -42.2110 N   0  0  0  0  0  0  0  0  0  0  0  0
    4.5560  -21.6030  -41.4830 C   0  0  0  0  0  0  0  0  0  0  0  0
    3.2990  -21.2790  -41.0330 C   0  0  0  0  0  0  0  0  0  0  0  0
    2.4310  -22.2210  -41.4960 N   0  0  0  0  0  0  0  0  0  0  0  0
    3.1380  -23.1100  -42.2180 C   0  0  1  0  0  0  0  0  0  0  0  0
    2.9970  -24.2650  -42.9620 N   0  0  0  0  0  0  0  0  0  0  0  0
    1.7160  -24.9050  -43.1750 C   0  0  0  0  0  0  0  0  0  0  0  0
    1.0260  -25.3360  -41.9020 C   0  0  0  0  0  0  0  0  0  0  0  0
   -0.4610  -25.4850  -42.1110 C   0  0  0  0  0  0  0  0  0  0  0  0
   -1.0260  -26.6970  -41.5840 N   0  0  0  0  0  0  0  0  0  0  0  0
   -2.4300  -26.4060  -41.3380 C   0  0  0  0  0  0  0  0  0  0  0  0
   -2.9410  -26.8760  -40.0280 C   0  0  0  0  0  0  0  0  0  0  0  0
   -2.1000  -26.6160  -38.8910 N   0  0  0  0  0  4  0  0  0  0  0  0
   -0.7120  -26.3950  -39.2370 C   0  0  0  0  0  0  0  0  0  0  0  0
   -0.3790  -27.2510  -40.4420 C   0  0  0  0  0  0  0  0  0  0  0  0
   -2.6640  -25.6360  -38.0180 C   0  0  0  0  0  0  0  0  0  0  0  0
   -2.6980  -24.2390  -38.5360 C   0  0  0  0  0  0  0  0  0  0  0  0
   -2.0490  -23.3190  -37.7140 O   0  0  0  0  0  0  0  0  0  0  0  0
    3.1610  -20.1470  -40.2560 C   0  0  0  0  0  0  0  0  0  0  0  0
    4.2480  -19.3470  -39.9300 C   0  0  0  0  0  0  0  0  0  0  0  0
    5.5020  -19.6720  -40.3810 C   0  0  0  0  0  0  0  0  0  0  0  0
    5.6420  -20.8210  -41.1690 C   0  0  0  0  0  0  0  0  0  0  0  0
    7.2540  -27.5120  -45.4570 H   0  0  0  0  0  0  0  0  0  0  0  0
    6.7270  -25.6210  -44.0980 H   0  0  0  0  0  0  0  0  0  0  0  0
    2.6060  -26.2170  -44.7640 H   0  0  0  0  0  0  0  0  0  0  0  0
    3.1540  -28.1500  -46.1810 H   0  0  0  0  0  0  0  0  0  0  0  0
    6.1510  -23.6410  -43.1320 H   0  0  0  0  0  0  0  0  0  0  0  0
    1.4050  -22.2230  -41.3060 H   0  0  0  0  0  0  0  0  0  0  0  0
    0.9990  -24.1120  -43.6150 H   0  0  0  0  0  0  0  0  0  0  0  0
    1.7030  -25.6830  -43.9130 H   0  0  0  0  0  0  0  0  0  0  0  0
    1.4010  -26.3850  -41.7140 H   0  0  0  0  0  0  0  0  0  0  0  0
    1.2810  -24.7670  -41.0160 H   0  0  0  0  0  0  0  0  0  0  0  0
   -0.7090  -25.4590  -43.1920 H   0  0  0  0  0  0  0  0  0  0  0  0
   -0.9720  -24.5720  -41.6860 H   0  0  0  0  0  0  0  0  0  0  0  0
   -2.7020  -25.3520  -41.5160 H   0  0  0  0  0  0  0  0  0  0  0  0
   -2.9850  -26.9830  -42.1340 H   0  0  0  0  0  0  0  0  0  0  0  0
   -3.2310  -27.9640  -40.1150 H   0  0  0  0  0  0  0  0  0  0  0  0
   -3.9320  -26.3580  -39.8660 H   0  0  0  0  0  0  0  0  0  0  0  0
   -2.0910  -27.5230  -38.3280 H   0  0  0  0  0  0  0  0  0  0  0  0
   -0.0650  -26.7480  -38.3990 H   0  0  0  0  0  0  0  0  0  0  0  0
   -0.4500  -25.3670  -39.4660 H   0  0  0  0  0  0  0  0  0  0  0  0
   -0.7400  -28.3040  -40.2950 H   0  0  0  0  0  0  0  0  0  0  0  0
    0.7010  -27.3100  -40.5350 H   0  0  0  0  0  0  0  0  0  0  0  0
   -2.1570  -25.5900  -37.0110 H   0  0  0  0  0  0  0  0  0  0  0  0
   -3.7220  -25.9280  -37.7720 H   0  0  0  0  0  0  0  0  0  0  0  0
   -2.0980  -24.2470  -39.4940 H   0  0  0  0  0  0  0  0  0  0  0  0
   -3.7050  -23.8950  -38.8360 H   0  0  0  0  0  0  0  0  0  0  0  0
   -1.7940  -23.7460  -36.8780 H   0  0  0  0  0  0  0  0  0  0  0  0
    2.1910  -19.8580  -39.8830 H   0  0  0  0  0  0  0  0  0  0  0  0
    4.1480  -18.4650  -39.3250 H   0  0  0  0  0  0  0  0  0  0  0  0
    6.3520  -19.0520  -40.1290 H   0  0  0  0  0  0  0  0  0  0  0  0
    6.6190  -21.0930  -41.5320 H   0  0  0  0  0  0  0  0  0  0  0  0
  1  2  1  0  0  0  0
  2  7  2  0  0  0  0
  2  3  1  0  0  0  0
  3  4  2  0  0  0  0
  4  5  1  0  0  0  0
  4 33  1  0  0  0  0
  5  8  1  0  0  0  0
  6 34  1  0  0  0  0
  6  5  2  0  0  0  0
  7  6  1  0  0  0  0
  8 15  1  0  0  0  0
  8  9  2  0  0  0  0
  9 10  1  0  0  0  0
 10 11  1  0  0  0  0
 11 31  2  0  0  0  0
 11 12  1  0  0  0  0
 12 28  2  0  0  0  0
 13 37  1  0  0  0  0
 13 12  1  0  0  0  0
 14 15  1  6  0  0  0
 14 10  1  0  0  0  0
 14 13  1  0  0  0  0
 16 15  1  0  0  0  0
 16 17  1  0  0  0  0
 17 40  1  0  0  0  0
 17 41  1  0  0  0  0
 18 17  1  0  0  0  0
 18 43  1  0  0  0  0
 18 19  1  0  0  0  0
 19 20  1  0  0  0  0
 19 24  1  0  0  0  0
 20 21  1  0  0  0  0
 21 47  1  0  0  0  0
 21 22  1  0  0  0  0
 22 48  1  0  0  0  0
 22 25  1  0  0  0  0
 23 22  1  0  0  0  0
 23 49  1  0  0  0  0
 24 51  1  0  0  0  0
 24 23  1  0  0  0  0
 25 54  1  0  0  0  0
 25 53  1  0  0  0  0
 26 25  1  0  0  0  0
 26 27  1  0  0  0  0
 27 57  1  0  0  0  0
 28 29  1  0  0  0  0
 28 58  1  0  0  0  0
 29 59  1  0  0  0  0
 30 60  1  0  0  0  0
 30 29  2  0  0  0  0
 31 30  1  0  0  0  0
 32  3  1  0  0  0  0
 35  7  1  0  0  0  0
 36  9  1  0  0  0  0
 38 16  1  0  0  0  0
 39 16  1  0  0  0  0
 42 18  1  0  0  0  0
 44 20  1  0  0  0  0
 45 20  1  0  0  0  0
 46 21  1  0  0  0  0
 50 23  1  0  0  0  0
 52 24  1  0  0  0  0
 55 26  1  0  0  0  0
 56 26  1  0  0  0  0
 61 31  1  0  0  0  0
M  END
>  <Pose>
1

>  <Score>
-4.26

$$$$
