
 OpenBabel03232221553D

 56 59  0  0  1  0  0  0  0  0999 V2000
    3.0920  -18.7850  -37.0210 B   0  0  0  0  0  0  0  0  0  0  0  0
    3.7690  -19.9040  -38.4200 C   0  0  0  0  0  0  0  0  0  0  0  0
    3.0310  -20.1780  -39.5500 C   0  0  0  0  0  0  0  0  0  0  0  0
    3.5340  -20.9800  -40.5350 C   0  0  0  0  0  0  0  0  0  0  0  0
    4.8090  -21.5600  -40.4520 C   0  0  0  0  0  0  0  0  0  0  0  0
    5.5280  -21.2880  -39.3430 C   0  0  0  0  0  0  0  0  0  0  0  0
    5.0190  -20.4690  -38.3330 C   0  0  0  0  0  0  0  0  0  0  0  0
    5.2280  -22.3630  -41.5360 C   0  0  1  0  0  0  0  0  0  0  0  0
    4.4750  -23.2740  -42.2840 N   0  0  0  0  0  0  0  0  0  0  0  0
    5.4900  -23.9750  -43.0960 C   0  0  0  0  0  0  0  0  0  0  0  0
    5.4430  -25.1660  -43.5120 O   0  0  0  0  0  0  0  0  0  0  0  0
    6.5450  -22.9770  -43.3010 C   0  0  0  0  0  0  0  0  0  0  0  0
    7.6280  -23.1000  -43.9500 O   0  0  0  0  0  0  0  0  0  0  0  0
    6.0890  -21.7650  -42.5940 C   0  0  0  0  0  0  0  0  0  0  0  0
    6.3560  -20.5130  -42.8910 C   0  0  0  0  0  0  0  0  0  0  0  0
    5.7850  -19.4790  -42.1580 O   0  0  0  0  0  0  0  0  0  0  0  0
    7.2510  -20.1270  -43.9700 C   0  0  0  0  0  0  0  0  0  0  0  0
    8.4960  -19.6000  -43.8290 C   0  0  0  0  0  0  0  0  0  0  0  0
    9.2690  -19.3150  -44.9470 C   0  0  0  0  0  0  0  0  0  0  0  0
    8.7850  -19.5610  -46.2110 C   0  0  0  0  0  0  0  0  0  0  0  0
    7.5300  -20.0930  -46.3960 C   0  0  0  0  0  0  0  0  0  0  0  0
    6.7760  -20.3700  -45.2640 C   0  0  0  0  0  0  0  0  0  0  0  0
    9.5870  -19.2680  -47.4370 C   0  0  0  0  0  0  0  0  0  0  0  0
    3.0860  -23.6870  -42.4200 C   0  0  0  0  0  0  0  0  0  0  0  0
    2.1440  -22.5680  -42.7770 C   0  0  0  0  0  0  0  0  0  0  0  0
    1.0970  -22.3690  -41.8290 N   0  0  0  0  0  4  0  0  0  0  0  0
   -0.1070  -23.0520  -42.2610 C   0  0  0  0  0  0  0  0  0  0  0  0
   -1.1740  -22.8550  -41.2160 C   0  0  0  0  0  0  0  0  0  0  0  0
   -1.5340  -21.4990  -41.2710 O   0  0  0  0  0  0  0  0  0  0  0  0
   -0.4370  -20.7590  -40.8950 C   0  0  0  0  0  0  0  0  0  0  0  0
    0.7380  -20.9370  -41.8210 C   0  0  0  0  0  0  0  0  0  0  0  0
    2.0400  -19.7240  -39.6070 H   0  0  0  0  0  0  0  0  0  0  0  0
    2.9050  -21.1700  -41.4200 H   0  0  0  0  0  0  0  0  0  0  0  0
    6.5270  -21.6470  -39.1280 H   0  0  0  0  0  0  0  0  0  0  0  0
    5.5880  -20.2420  -37.4330 H   0  0  0  0  0  0  0  0  0  0  0  0
    6.0260  -23.0910  -41.0170 H   0  0  0  0  0  0  0  0  0  0  0  0
    8.8710  -19.3730  -42.8290 H   0  0  0  0  0  0  0  0  0  0  0  0
   10.2590  -18.8970  -44.8200 H   0  0  0  0  0  0  0  0  0  0  0  0
    7.1240  -20.2960  -47.3950 H   0  0  0  0  0  0  0  0  0  0  0  0
    5.7770  -20.7900  -45.3590 H   0  0  0  0  0  0  0  0  0  0  0  0
    9.1440  -18.4490  -48.0360 H   0  0  0  0  0  0  0  0  0  0  0  0
   10.6260  -18.9570  -47.1360 H   0  0  0  0  0  0  0  0  0  0  0  0
    9.7040  -20.1720  -48.0680 H   0  0  0  0  0  0  0  0  0  0  0  0
    3.0250  -24.4050  -43.2900 H   0  0  0  0  0  0  0  0  0  0  0  0
    2.7080  -24.1650  -41.5210 H   0  0  0  0  0  0  0  0  0  0  0  0
    2.7290  -21.5900  -42.8240 H   0  0  0  0  0  0  0  0  0  0  0  0
    1.7250  -22.7320  -43.8090 H   0  0  0  0  0  0  0  0  0  0  0  0
    1.3570  -22.6430  -40.8700 H   0  0  0  0  0  0  0  0  0  0  0  0
    0.0060  -24.1200  -42.4450 H   0  0  0  0  0  0  0  0  0  0  0  0
   -0.4430  -22.6030  -43.2230 H   0  0  0  0  0  0  0  0  0  0  0  0
   -0.8140  -23.1120  -40.2120 H   0  0  0  0  0  0  0  0  0  0  0  0
   -2.0680  -23.4650  -41.4440 H   0  0  0  0  0  0  0  0  0  0  0  0
   -0.7440  -19.6800  -40.9340 H   0  0  0  0  0  0  0  0  0  0  0  0
   -0.1470  -21.0030  -39.8670 H   0  0  0  0  0  0  0  0  0  0  0  0
    0.4620  -20.6870  -42.8600 H   0  0  0  0  0  0  0  0  0  0  0  0
    1.5590  -20.3040  -41.4730 H   0  0  0  0  0  0  0  0  0  0  0  0
  2  7  1  0  0  0  0
  2  1  1  0  0  0  0
  3  2  2  0  0  0  0
  4  5  2  0  0  0  0
  4  3  1  0  0  0  0
  5  6  1  0  0  0  0
  6 34  1  0  0  0  0
  6  7  2  0  0  0  0
  7 35  1  0  0  0  0
  8 36  1  1  0  0  0
  8  5  1  0  0  0  0
  9  8  1  0  0  0  0
 10  9  1  0  0  0  0
 11 10  2  0  0  0  0
 12 10  1  0  0  0  0
 12 14  1  0  0  0  0
 13 12  2  0  0  0  0
 14  8  1  0  0  0  0
 15 14  2  0  0  0  0
 15 16  1  0  0  0  0
 17 18  1  0  0  0  0
 17 15  1  0  0  0  0
 18 37  1  0  0  0  0
 19 38  1  0  0  0  0
 19 18  2  0  0  0  0
 20 19  1  0  0  0  0
 21 20  2  0  0  0  0
 21 22  1  0  0  0  0
 22 17  2  0  0  0  0
 23 42  1  0  0  0  0
 23 20  1  0  0  0  0
 24  9  1  0  0  0  0
 24 45  1  0  0  0  0
 25 24  1  0  0  0  0
 25 26  1  0  0  0  0
 26 31  1  0  0  0  0
 26 48  1  0  0  0  0
 27 26  1  0  0  0  0
 27 28  1  0  0  0  0
 28 51  1  0  0  0  0
 29 28  1  0  0  0  0
 29 30  1  0  0  0  0
 30 54  1  0  0  0  0
 31 56  1  0  0  0  0
 31 30  1  0  0  0  0
 32  3  1  0  0  0  0
 33  4  1  0  0  0  0
 39 21  1  0  0  0  0
 40 22  1  0  0  0  0
 41 23  1  0  0  0  0
 43 23  1  0  0  0  0
 44 24  1  0  0  0  0
 46 25  1  0  0  0  0
 47 25  1  0  0  0  0
 49 27  1  0  0  0  0
 50 27  1  0  0  0  0
 52 28  1  0  0  0  0
 53 30  1  0  0  0  0
 55 31  1  0  0  0  0
M  END
>  <Pose>
1

>  <Score>
-3.54

$$$$
