
 OpenBabel03232221553D

 53 56  0  0  1  0  0  0  0  0999 V2000
    0.7090  -25.5960  -43.1550 B   0  0  0  0  0  0  0  0  0  0  0  0
    2.4320  -24.8320  -43.4100 C   0  0  0  0  0  0  0  0  0  0  0  0
    3.2200  -24.3890  -42.3720 C   0  0  0  0  0  0  0  0  0  0  0  0
    4.4870  -23.8310  -42.5990 C   0  0  0  0  0  0  0  0  0  0  0  0
    4.9830  -23.7090  -43.8660 C   0  0  0  0  0  0  0  0  0  0  0  0
    4.1710  -24.1620  -44.8860 C   0  0  0  0  0  0  0  0  0  0  0  0
    2.9270  -24.7120  -44.6810 C   0  0  0  0  0  0  0  0  0  0  0  0
    6.2450  -23.1410  -44.1530 C   0  0  1  0  0  0  0  0  0  0  0  0
    6.7010  -21.9360  -43.5650 N   0  0  0  0  0  0  0  0  0  0  0  0
    8.0440  -21.7800  -44.1150 C   0  0  0  0  0  0  0  0  0  0  0  0
    8.6470  -20.6890  -44.3060 O   0  0  0  0  0  0  0  0  0  0  0  0
    8.5230  -23.1350  -44.3850 C   0  0  0  0  0  0  0  0  0  0  0  0
    9.6330  -23.4910  -44.8580 O   0  0  0  0  0  0  0  0  0  0  0  0
    7.4340  -24.0290  -43.9860 C   0  0  0  0  0  0  0  0  0  0  0  0
    7.5280  -25.2730  -43.5520 C   0  0  0  0  0  0  0  0  0  0  0  0
    6.3940  -25.9630  -43.1520 O   0  0  0  0  0  0  0  0  0  0  0  0
    8.7850  -26.0050  -43.4680 C   0  0  0  0  0  0  0  0  0  0  0  0
    9.1570  -26.6630  -44.6470 C   0  0  0  0  0  0  0  0  0  0  0  0
   10.3340  -27.3660  -44.7490 C   0  0  0  0  0  0  0  0  0  0  0  0
   11.1700  -27.4140  -43.6380 C   0  0  0  0  0  0  0  0  0  0  0  0
   10.7980  -26.7630  -42.4820 C   0  0  0  0  0  0  0  0  0  0  0  0
    9.6150  -26.0610  -42.3910 C   0  0  0  0  0  0  0  0  0  0  0  0
   12.6640  -28.3120  -43.7790 Cl  0  0  0  0  0  0  0  0  0  0  0  0
    6.0930  -20.9480  -42.6690 C   0  0  0  0  0  0  0  0  0  0  0  0
    5.7920  -21.4620  -41.2950 C   0  0  0  0  0  0  0  0  0  0  0  0
    4.7230  -20.7360  -40.6470 N   0  0  0  0  0  4  0  0  0  0  0  0
    5.1300  -19.4400  -40.1800 C   0  0  0  0  0  0  0  0  0  0  0  0
    6.0690  -19.4810  -39.0100 C   0  0  0  0  0  0  0  0  0  0  0  0
    5.5790  -20.2710  -37.9690 O   0  0  0  0  0  0  0  0  0  0  0  0
    5.4330  -21.5640  -38.4960 C   0  0  0  0  0  0  0  0  0  0  0  0
    4.2960  -21.5060  -39.4930 C   0  0  0  0  0  0  0  0  0  0  0  0
    2.8260  -24.4860  -41.3830 H   0  0  0  0  0  0  0  0  0  0  0  0
    4.9990  -23.5400  -41.7000 H   0  0  0  0  0  0  0  0  0  0  0  0
    4.4850  -24.1060  -45.9410 H   0  0  0  0  0  0  0  0  0  0  0  0
    2.3180  -25.0570  -45.5090 H   0  0  0  0  0  0  0  0  0  0  0  0
    6.2640  -22.9250  -45.2860 H   0  0  0  0  0  0  0  0  0  0  0  0
    8.5250  -26.6410  -45.5240 H   0  0  0  0  0  0  0  0  0  0  0  0
   10.5870  -27.8620  -45.6790 H   0  0  0  0  0  0  0  0  0  0  0  0
   11.4670  -26.8210  -41.6400 H   0  0  0  0  0  0  0  0  0  0  0  0
    9.3560  -25.5310  -41.4810 H   0  0  0  0  0  0  0  0  0  0  0  0
    5.0940  -20.6730  -43.1210 H   0  0  0  0  0  0  0  0  0  0  0  0
    6.7360  -20.0590  -42.5580 H   0  0  0  0  0  0  0  0  0  0  0  0
    6.7060  -21.2450  -40.6800 H   0  0  0  0  0  0  0  0  0  0  0  0
    5.6380  -22.5400  -41.1980 H   0  0  0  0  0  0  0  0  0  0  0  0
    3.8920  -20.6170  -41.2580 H   0  0  0  0  0  0  0  0  0  0  0  0
    5.5530  -18.7920  -40.9540 H   0  0  0  0  0  0  0  0  0  0  0  0
    4.1940  -18.9280  -39.8180 H   0  0  0  0  0  0  0  0  0  0  0  0
    7.0970  -19.7850  -39.3010 H   0  0  0  0  0  0  0  0  0  0  0  0
    6.1290  -18.4420  -38.6020 H   0  0  0  0  0  0  0  0  0  0  0  0
    5.2060  -22.3030  -37.7010 H   0  0  0  0  0  0  0  0  0  0  0  0
    6.3920  -21.8380  -38.9380 H   0  0  0  0  0  0  0  0  0  0  0  0
    3.9660  -22.5330  -39.7900 H   0  0  0  0  0  0  0  0  0  0  0  0
    3.4550  -20.9730  -38.9770 H   0  0  0  0  0  0  0  0  0  0  0  0
  2  1  1  0  0  0  0
  2  3  1  0  0  0  0
  3 32  1  0  0  0  0
  4  3  2  0  0  0  0
  4 33  1  0  0  0  0
  5  4  1  0  0  0  0
  6  7  1  0  0  0  0
  6  5  2  0  0  0  0
  7  2  2  0  0  0  0
  8 36  1  6  0  0  0
  8 14  1  0  0  0  0
  8  5  1  0  0  0  0
  8  9  1  0  0  0  0
  9 24  1  0  0  0  0
 10  9  1  0  0  0  0
 11 10  2  0  0  0  0
 12 10  1  0  0  0  0
 12 14  1  0  0  0  0
 13 12  2  0  0  0  0
 14 15  2  0  0  0  0
 15 17  1  0  0  0  0
 15 16  1  0  0  0  0
 17 22  1  0  0  0  0
 18 17  2  0  0  0  0
 19 18  1  0  0  0  0
 19 20  2  0  0  0  0
 20 21  1  0  0  0  0
 21 22  2  0  0  0  0
 21 39  1  0  0  0  0
 22 40  1  0  0  0  0
 23 20  1  0  0  0  0
 24 42  1  0  0  0  0
 24 25  1  0  0  0  0
 25 44  1  0  0  0  0
 25 43  1  0  0  0  0
 25 26  1  0  0  0  0
 26 27  1  0  0  0  0
 26 31  1  0  0  0  0
 27 47  1  0  0  0  0
 27 28  1  0  0  0  0
 28 49  1  0  0  0  0
 28 29  1  0  0  0  0
 30 29  1  0  0  0  0
 30 50  1  0  0  0  0
 31 53  1  0  0  0  0
 31 30  1  0  0  0  0
 34  6  1  0  0  0  0
 35  7  1  0  0  0  0
 37 18  1  0  0  0  0
 38 19  1  0  0  0  0
 41 24  1  0  0  0  0
 45 26  1  0  0  0  0
 46 27  1  0  0  0  0
 48 28  1  0  0  0  0
 51 30  1  0  0  0  0
 52 31  1  0  0  0  0
M  END
>  <Pose>
1

>  <Score>
-4.76

$$$$
