
 OpenBabel03232221553D

 44 47  0  0  0  0  0  0  0  0999 V2000
    6.5690  -19.4190  -37.9400 B   0  0  0  0  0  0  0  0  0  0  0  0
    4.9970  -19.9600  -38.8610 C   0  0  0  0  0  0  0  0  0  0  0  0
    3.7530  -19.4740  -38.5500 C   0  0  0  0  0  0  0  0  0  0  0  0
    2.6350  -19.9020  -39.2520 C   0  0  0  0  0  0  0  0  0  0  0  0
    2.6950  -20.8190  -40.2800 C   0  0  0  0  0  0  0  0  0  0  0  0
    3.9870  -21.2960  -40.5710 C   0  0  0  0  0  0  0  0  0  0  0  0
    5.0820  -20.8780  -39.8850 C   0  0  0  0  0  0  0  0  0  0  0  0
    1.5870  -21.3070  -41.0090 N   0  0  0  0  0  0  0  0  0  0  0  0
    0.3950  -20.6150  -41.2600 C   0  0  0  0  0  0  0  0  0  0  0  0
    0.4010  -19.5130  -41.8480 O   0  0  0  0  0  0  0  0  0  0  0  0
   -0.9320  -21.2020  -40.8090 C   0  0  0  0  0  0  0  0  0  0  0  0
   -1.1030  -20.9230  -39.3970 N   0  0  0  0  0  0  0  0  0  0  0  0
   -1.3790  -21.8460  -38.4740 N   0  0  0  0  0  0  0  0  0  0  0  0
   -1.4680  -21.2720  -37.2960 N   0  0  0  0  0  0  0  0  0  0  0  0
   -1.2470  -19.9440  -37.4480 C   0  0  0  0  0  0  0  0  0  0  0  0
   -1.0230  -19.7460  -38.7530 C   0  0  0  0  0  0  0  0  0  0  0  0
   -0.8030  -18.3890  -38.8650 C   0  0  0  0  0  0  0  0  0  0  0  0
   -0.5540  -17.8280  -39.9740 O   0  0  0  0  0  0  0  0  0  0  0  0
   -0.8870  -17.7650  -37.6800 N   0  0  0  0  0  0  0  0  0  0  0  0
   -1.1680  -18.7470  -36.7770 C   0  0  0  0  0  0  0  0  0  0  0  0
   -1.3170  -18.5200  -35.5450 O   0  0  0  0  0  0  0  0  0  0  0  0
   -0.7240  -16.3710  -37.3830 C   0  0  0  0  0  0  0  0  0  0  0  0
   -1.8050  -15.5150  -37.3860 C   0  0  0  0  0  0  0  0  0  0  0  0
   -1.6580  -14.1740  -37.0900 C   0  0  0  0  0  0  0  0  0  0  0  0
   -0.4290  -13.6220  -36.7790 C   0  0  0  0  0  0  0  0  0  0  0  0
    0.6530  -14.4760  -36.7750 C   0  0  0  0  0  0  0  0  0  0  0  0
    0.5010  -15.8200  -37.0720 C   0  0  0  0  0  0  0  0  0  0  0  0
   -0.3070  -12.1730  -36.4600 C   0  0  0  0  0  0  0  0  0  0  0  0
    3.6610  -18.7560  -37.7560 H   0  0  0  0  0  0  0  0  0  0  0  0
    1.6480  -19.4890  -38.9900 H   0  0  0  0  0  0  0  0  0  0  0  0
    4.0470  -22.0290  -41.3940 H   0  0  0  0  0  0  0  0  0  0  0  0
    6.0660  -21.2750  -40.1440 H   0  0  0  0  0  0  0  0  0  0  0  0
    1.6910  -22.2980  -41.3980 H   0  0  0  0  0  0  0  0  0  0  0  0
   -0.9270  -22.2850  -40.9600 H   0  0  0  0  0  0  0  0  0  0  0  0
   -1.7340  -20.6740  -41.3830 H   0  0  0  0  0  0  0  0  0  0  0  0
   -1.4990  -22.8550  -38.6980 H   0  0  0  0  0  0  0  0  0  0  0  0
   -1.6730  -21.7150  -36.3660 H   0  0  0  0  0  0  0  0  0  0  0  0
   -2.7750  -15.9330  -37.6280 H   0  0  0  0  0  0  0  0  0  0  0  0
   -2.5110  -13.4850  -37.0880 H   0  0  0  0  0  0  0  0  0  0  0  0
    1.6380  -14.0630  -36.5310 H   0  0  0  0  0  0  0  0  0  0  0  0
    1.3520  -16.4950  -37.0700 H   0  0  0  0  0  0  0  0  0  0  0  0
   -0.6710  -11.5270  -37.2900 H   0  0  0  0  0  0  0  0  0  0  0  0
    0.7840  -11.9520  -36.3670 H   0  0  0  0  0  0  0  0  0  0  0  0
   -0.7820  -11.9100  -35.5020 H   0  0  0  0  0  0  0  0  0  0  0  0
  2  3  1  0  0  0  0
  2  1  1  0  0  0  0
  3 29  1  0  0  0  0
  4 30  1  0  0  0  0
  4  3  2  0  0  0  0
  5  4  1  0  0  0  0
  6  5  2  0  0  0  0
  6  7  1  0  0  0  0
  7  2  2  0  0  0  0
  8  5  1  0  0  0  0
  9  8  1  0  0  0  0
  9 11  1  0  0  0  0
 10  9  2  0  0  0  0
 11 12  1  0  0  0  0
 12 16  1  0  0  0  0
 12 13  1  0  0  0  0
 13 14  1  0  0  0  0
 14 37  1  0  0  0  0
 15 14  1  0  0  0  0
 15 20  1  0  0  0  0
 16 15  2  0  0  0  0
 17 16  1  0  0  0  0
 17 19  1  0  0  0  0
 18 17  2  0  0  0  0
 19 22  1  0  0  0  0
 19 20  1  0  0  0  0
 20 21  2  0  0  0  0
 22 27  1  0  0  0  0
 23 22  2  0  0  0  0
 23 24  1  0  0  0  0
 24 39  1  0  0  0  0
 24 25  2  0  0  0  0
 25 26  1  0  0  0  0
 25 28  1  0  0  0  0
 26 40  1  0  0  0  0
 27 41  1  0  0  0  0
 27 26  2  0  0  0  0
 28 43  1  0  0  0  0
 28 44  1  0  0  0  0
 31  6  1  0  0  0  0
 32  7  1  0  0  0  0
 33  8  1  0  0  0  0
 34 11  1  0  0  0  0
 35 11  1  0  0  0  0
 36 13  1  0  0  0  0
 38 23  1  0  0  0  0
 42 28  1  0  0  0  0
M  END
>  <Pose>
1

>  <Score>
-4.69

$$$$
