
 OpenBabel03232221553D

 42 45  0  0  0  0  0  0  0  0999 V2000
    2.4380  -17.5580  -39.9070 B   0  0  0  0  0  0  0  0  0  0  0  0
    2.7690  -19.2920  -40.6410 C   0  0  0  0  0  0  0  0  0  0  0  0
    3.7260  -20.1160  -40.0860 C   0  0  0  0  0  0  0  0  0  0  0  0
    3.9510  -21.3650  -40.6290 C   0  0  0  0  0  0  0  0  0  0  0  0
    3.2580  -21.8490  -41.7220 C   0  0  0  0  0  0  0  0  0  0  0  0
    2.3010  -21.0120  -42.2670 C   0  0  0  0  0  0  0  0  0  0  0  0
    2.0640  -19.7600  -41.7350 C   0  0  0  0  0  0  0  0  0  0  0  0
    3.5110  -23.1470  -42.2660 N   0  0  0  0  0  0  0  0  0  0  0  0
    2.7030  -24.1760  -42.1920 N   0  0  0  0  0  0  0  0  0  0  0  0
    3.2070  -25.2710  -42.7960 C   0  0  0  0  0  0  0  0  0  0  0  0
    4.4280  -24.8980  -43.2870 C   0  0  0  0  0  0  0  0  0  0  0  0
    4.5960  -23.5730  -42.9460 C   0  0  0  0  0  0  0  0  0  0  0  0
    5.7430  -22.7510  -43.2570 N   0  0  0  0  0  0  0  0  0  0  0  0
    7.0280  -23.0500  -43.1300 C   0  0  0  0  0  0  0  0  0  0  0  0
    7.8110  -21.9950  -43.5350 C   0  0  0  0  0  0  0  0  0  0  0  0
    6.9290  -21.0150  -43.9240 C   0  0  0  0  0  0  0  0  0  0  0  0
    5.6540  -21.5030  -43.7440 C   0  0  0  0  0  0  0  0  0  0  0  0
    5.3400  -25.7660  -44.0220 C   0  0  0  0  0  0  0  0  0  0  0  0
    6.4500  -25.9940  -43.4860 O   0  0  0  0  0  0  0  0  0  0  0  0
    5.0290  -26.3410  -45.2740 N   0  0  0  0  0  0  0  0  0  0  0  0
    5.8310  -27.4380  -45.7600 C   0  0  0  0  0  0  0  0  0  0  0  0
    4.9680  -28.6640  -45.7870 C   0  0  0  0  0  0  0  0  0  0  0  0
    3.5470  -28.3380  -45.8190 N   0  0  0  0  0  0  0  0  0  0  0  0
    3.0580  -27.0890  -46.2950 C   0  0  0  0  0  0  0  0  0  0  0  0
    1.9180  -27.0220  -46.8160 O   0  0  0  0  0  0  0  0  0  0  0  0
    3.9520  -25.9180  -46.1390 C   0  0  0  0  0  0  0  0  0  0  0  0
    4.2950  -19.7580  -39.2160 H   0  0  0  0  0  0  0  0  0  0  0  0
    4.7080  -21.9920  -40.1760 H   0  0  0  0  0  0  0  0  0  0  0  0
    1.7530  -21.3910  -43.1280 H   0  0  0  0  0  0  0  0  0  0  0  0
    1.3200  -19.1190  -42.1650 H   0  0  0  0  0  0  0  0  0  0  0  0
    2.6980  -26.2380  -42.8510 H   0  0  0  0  0  0  0  0  0  0  0  0
    7.4190  -23.9930  -42.7590 H   0  0  0  0  0  0  0  0  0  0  0  0
    8.9110  -21.9440  -43.5460 H   0  0  0  0  0  0  0  0  0  0  0  0
    7.1920  -20.0350  -44.3030 H   0  0  0  0  0  0  0  0  0  0  0  0
    4.7250  -20.9520  -43.9660 H   0  0  0  0  0  0  0  0  0  0  0  0
    6.7780  -27.5620  -45.2200 H   0  0  0  0  0  0  0  0  0  0  0  0
    6.1050  -27.2190  -46.8330 H   0  0  0  0  0  0  0  0  0  0  0  0
    5.1920  -29.3070  -44.9130 H   0  0  0  0  0  0  0  0  0  0  0  0
    5.1550  -29.2910  -46.6970 H   0  0  0  0  0  0  0  0  0  0  0  0
    2.8670  -29.0770  -45.4670 H   0  0  0  0  0  0  0  0  0  0  0  0
    4.3870  -25.6530  -47.1240 H   0  0  0  0  0  0  0  0  0  0  0  0
    3.4300  -25.0200  -45.7730 H   0  0  0  0  0  0  0  0  0  0  0  0
  2  3  1  0  0  0  0
  2  1  1  0  0  0  0
  3 27  1  0  0  0  0
  4 28  1  0  0  0  0
  4  3  2  0  0  0  0
  5  4  1  0  0  0  0
  6  7  1  0  0  0  0
  6  5  2  0  0  0  0
  7  2  2  0  0  0  0
  8  9  1  0  0  0  0
  8  5  1  0  0  0  0
 10  9  2  0  0  0  0
 11 12  2  0  0  0  0
 11 10  1  0  0  0  0
 12  8  1  0  0  0  0
 13 14  1  0  0  0  0
 13 12  1  0  0  0  0
 14 32  1  0  0  0  0
 15 14  2  0  0  0  0
 16 17  2  0  0  0  0
 16 15  1  0  0  0  0
 17 13  1  0  0  0  0
 18 19  2  0  0  0  0
 18 11  1  0  0  0  0
 20 18  1  0  0  0  0
 21 20  1  0  0  0  0
 21 36  1  0  0  0  0
 22 21  1  0  0  0  0
 22 38  1  0  0  0  0
 23 22  1  0  0  0  0
 23 40  1  0  0  0  0
 24 26  1  0  0  0  0
 24 23  1  0  0  0  0
 25 24  2  0  0  0  0
 26 42  1  0  0  0  0
 26 20  1  0  0  0  0
 29  6  1  0  0  0  0
 30  7  1  0  0  0  0
 31 10  1  0  0  0  0
 33 15  1  0  0  0  0
 34 16  1  0  0  0  0
 35 17  1  0  0  0  0
 37 21  1  0  0  0  0
 39 22  1  0  0  0  0
 41 26  1  0  0  0  0
M  END
>  <Pose>
1

>  <Score>
-3.83

$$$$
