
 OpenBabel03232221553D

 47 50  0  0  1  0  0  0  0  0999 V2000
   15.3130  -27.8660  -44.3500 B   0  0  0  0  0  0  0  0  0  0  0  0
   13.4570  -27.3990  -44.3010 C   0  0  0  0  0  0  0  0  0  0  0  0
   13.0450  -26.0950  -44.2740 C   0  0  0  0  0  0  0  0  0  0  0  0
   11.6870  -25.7600  -44.2380 C   0  0  0  0  0  0  0  0  0  0  0  0
   10.7170  -26.7210  -44.2290 C   0  0  0  0  0  0  0  0  0  0  0  0
   11.1230  -28.0230  -44.2550 C   0  0  0  0  0  0  0  0  0  0  0  0
   12.4830  -28.3700  -44.2910 C   0  0  0  0  0  0  0  0  0  0  0  0
    9.3290  -26.3840  -44.1940 N   0  0  0  0  0  0  0  0  0  0  0  0
    8.5760  -25.7930  -43.1400 C   0  0  0  0  0  0  0  0  0  0  0  0
    9.0090  -25.5640  -41.9910 O   0  0  0  0  0  0  0  0  0  0  0  0
    7.2050  -25.4810  -43.5730 C   0  0  2  0  0  0  0  0  0  0  0  0
    7.0100  -26.4500  -44.7340 C   0  0  0  0  0  0  0  0  0  0  0  0
    8.3990  -26.5880  -45.2760 C   0  0  0  0  0  0  0  0  0  0  0  0
    8.5980  -26.8380  -46.4790 O   0  0  0  0  0  0  0  0  0  0  0  0
    6.9930  -24.1210  -44.0150 N   0  0  0  0  0  4  0  0  0  0  0  0
    5.5950  -23.8150  -44.2030 C   0  0  0  0  0  0  0  0  0  0  0  0
    4.9510  -23.0990  -43.0370 C   0  0  0  0  0  0  0  0  0  0  0  0
    5.8270  -22.0980  -42.4860 N   0  0  0  0  0  0  0  0  0  0  0  0
    6.9970  -21.8230  -43.2850 C   0  0  0  0  0  0  0  0  0  0  0  0
    7.7590  -23.1610  -43.3050 C   0  0  0  0  0  0  0  0  0  0  0  0
    5.6000  -21.4440  -41.2700 C   0  0  0  0  0  0  0  0  0  0  0  0
    5.2240  -22.0550  -40.0910 C   0  0  0  0  0  0  0  0  0  0  0  0
    4.9870  -21.3560  -38.9180 C   0  0  0  0  0  0  0  0  0  0  0  0
    5.1220  -19.9940  -38.8920 C   0  0  0  0  0  0  0  0  0  0  0  0
    5.4950  -19.3310  -40.0440 C   0  0  0  0  0  0  0  0  0  0  0  0
    5.7260  -20.0510  -41.2020 C   0  0  0  0  0  0  0  0  0  0  0  0
    4.8990  -19.2300  -37.7460 O   0  0  0  0  0  0  0  0  0  0  0  0
   13.7860  -25.3260  -44.2800 H   0  0  0  0  0  0  0  0  0  0  0  0
   11.4650  -24.7230  -44.2200 H   0  0  0  0  0  0  0  0  0  0  0  0
   10.4610  -28.8530  -44.2500 H   0  0  0  0  0  0  0  0  0  0  0  0
   12.7960  -29.4020  -44.3130 H   0  0  0  0  0  0  0  0  0  0  0  0
    6.4380  -25.7810  -42.8210 H   0  0  0  0  0  0  0  0  0  0  0  0
    6.6070  -27.4160  -44.3880 H   0  0  0  0  0  0  0  0  0  0  0  0
    6.3390  -25.9790  -45.4730 H   0  0  0  0  0  0  0  0  0  0  0  0
    7.3850  -24.1210  -45.0170 H   0  0  0  0  0  0  0  0  0  0  0  0
    5.0510  -24.7720  -44.3500 H   0  0  0  0  0  0  0  0  0  0  0  0
    5.4190  -23.2080  -45.1200 H   0  0  0  0  0  0  0  0  0  0  0  0
    4.0590  -22.5520  -43.4630 H   0  0  0  0  0  0  0  0  0  0  0  0
    4.5760  -23.8490  -42.3560 H   0  0  0  0  0  0  0  0  0  0  0  0
    6.6730  -21.6160  -44.3260 H   0  0  0  0  0  0  0  0  0  0  0  0
    7.6410  -21.0280  -42.9470 H   0  0  0  0  0  0  0  0  0  0  0  0
    7.8990  -23.5180  -42.2550 H   0  0  0  0  0  0  0  0  0  0  0  0
    8.7460  -23.0370  -43.7690 H   0  0  0  0  0  0  0  0  0  0  0  0
    5.1180  -23.1540  -40.0960 H   0  0  0  0  0  0  0  0  0  0  0  0
    4.7020  -21.8930  -38.0490 H   0  0  0  0  0  0  0  0  0  0  0  0
    5.6090  -18.2520  -40.0580 H   0  0  0  0  0  0  0  0  0  0  0  0
    6.0210  -19.5530  -42.1250 H   0  0  0  0  0  0  0  0  0  0  0  0
  1  2  1  0  0  0  0
  2  7  2  0  0  0  0
  2  3  1  0  0  0  0
  3  4  2  0  0  0  0
  4  5  1  0  0  0  0
  4 29  1  0  0  0  0
  5  8  1  0  0  0  0
  6 30  1  0  0  0  0
  6  5  2  0  0  0  0
  7  6  1  0  0  0  0
  8  9  1  0  0  0  0
  9 10  2  0  0  0  0
 11  9  1  0  0  0  0
 11 32  1  1  0  0  0
 12 33  1  0  0  0  0
 12 11  1  0  0  0  0
 13 12  1  0  0  0  0
 13  8  1  0  0  0  0
 14 13  2  0  0  0  0
 15 11  1  0  0  0  0
 15 20  1  0  0  0  0
 16 15  1  0  0  0  0
 16 17  1  0  0  0  0
 17 18  1  0  0  0  0
 17 39  1  0  0  0  0
 18 21  1  0  0  0  0
 19 41  1  0  0  0  0
 19 18  1  0  0  0  0
 20 19  1  0  0  0  0
 20 42  1  0  0  0  0
 21 26  2  0  0  0  0
 21 22  1  0  0  0  0
 22 23  2  0  0  0  0
 23 24  1  0  0  0  0
 23 45  1  0  0  0  0
 24 27  1  0  0  0  0
 25 24  2  0  0  0  0
 26 25  1  0  0  0  0
 28  3  1  0  0  0  0
 31  7  1  0  0  0  0
 34 12  1  0  0  0  0
 35 15  1  0  0  0  0
 36 16  1  0  0  0  0
 37 16  1  0  0  0  0
 38 17  1  0  0  0  0
 40 19  1  0  0  0  0
 43 20  1  0  0  0  0
 44 22  1  0  0  0  0
 46 25  1  0  0  0  0
 47 26  1  0  0  0  0
M  END
>  <Pose>
1

>  <Score>
-4.41

$$$$
