
 OpenBabel03232221553D

 44 47  0  0  0  0  0  0  0  0999 V2000
    3.9050  -23.1820  -42.4110 B   0  0  0  0  0  0  0  0  0  0  0  0
    3.5120  -21.8500  -41.0860 C   0  0  0  0  0  0  0  0  0  0  0  0
    2.2260  -21.3920  -40.8970 C   0  0  0  0  0  0  0  0  0  0  0  0
    1.9410  -20.4330  -39.9440 C   0  0  0  0  0  0  0  0  0  0  0  0
    2.9310  -19.8930  -39.1410 C   0  0  0  0  0  0  0  0  0  0  0  0
    4.2110  -20.3650  -39.3460 C   0  0  0  0  0  0  0  0  0  0  0  0
    4.5050  -21.3200  -40.2920 C   0  0  0  0  0  0  0  0  0  0  0  0
    2.6130  -18.9050  -38.1640 N   0  0  0  0  0  0  0  0  0  0  0  0
    1.7890  -17.8530  -38.3050 C   0  0  0  0  0  0  0  0  0  0  0  0
    1.1600  -17.5890  -39.3750 O   0  0  0  0  0  0  0  0  0  0  0  0
    1.7280  -17.1050  -37.1290 C   0  0  0  0  0  0  0  0  0  0  0  0
    2.5310  -17.7280  -36.2710 C   0  0  0  0  0  0  0  0  0  0  0  0
    2.4560  -16.9910  -35.1480 N   0  0  0  0  0  0  0  0  0  0  0  0
    1.6390  -15.9660  -35.3240 N   0  0  0  0  0  0  0  0  0  0  0  0
    1.1810  -16.0280  -36.5500 N   0  0  0  0  0  0  0  0  0  0  0  0
    0.2600  -15.1200  -37.1860 C   0  0  0  0  0  0  0  0  0  0  0  0
    0.7450  -13.7000  -37.1280 C   0  0  0  0  0  0  0  0  0  0  0  0
    0.2300  -13.0140  -36.2140 O   0  0  0  0  0  0  0  0  0  0  0  0
    1.6910  -13.1920  -38.0220 N   0  0  0  0  0  0  0  0  0  0  0  0
    2.5270  -12.0840  -37.8330 C   0  0  0  0  0  0  0  0  0  0  0  0
    2.1480  -10.8820  -38.4520 C   0  0  0  0  0  0  0  0  0  0  0  0
    2.9380   -9.7710  -38.2930 C   0  0  0  0  0  0  0  0  0  0  0  0
    4.0970   -9.7770  -37.5460 C   0  0  0  0  0  0  0  0  0  0  0  0
    4.4710  -10.9410  -36.9430 C   0  0  0  0  0  0  0  0  0  0  0  0
    3.6860  -12.0640  -37.0960 C   0  0  0  0  0  0  0  0  0  0  0  0
    0.9220  -10.7890  -39.2670 C   0  0  0  0  0  0  0  0  0  0  0  0
    3.0770  -18.8310  -36.8960 C   0  0  0  0  0  0  0  0  0  0  0  0
    3.8780  -19.6560  -36.4060 O   0  0  0  0  0  0  0  0  0  0  0  0
    1.4180  -21.7880  -41.5050 H   0  0  0  0  0  0  0  0  0  0  0  0
    0.9240  -20.0650  -39.7880 H   0  0  0  0  0  0  0  0  0  0  0  0
    5.0010  -19.9650  -38.7360 H   0  0  0  0  0  0  0  0  0  0  0  0
    5.5130  -21.7010  -40.4630 H   0  0  0  0  0  0  0  0  0  0  0  0
    2.9990  -17.2530  -34.2860 H   0  0  0  0  0  0  0  0  0  0  0  0
    1.4350  -15.2640  -34.5760 H   0  0  0  0  0  0  0  0  0  0  0  0
    0.1740  -15.3480  -38.2840 H   0  0  0  0  0  0  0  0  0  0  0  0
   -0.7220  -15.2280  -36.6770 H   0  0  0  0  0  0  0  0  0  0  0  0
    1.7610  -13.7320  -38.9480 H   0  0  0  0  0  0  0  0  0  0  0  0
    2.6770   -8.8110  -38.7600 H   0  0  0  0  0  0  0  0  0  0  0  0
    4.7180   -8.8840  -37.4280 H   0  0  0  0  0  0  0  0  0  0  0  0
    5.3900  -10.9640  -36.3470 H   0  0  0  0  0  0  0  0  0  0  0  0
    4.0270  -12.9480  -36.6010 H   0  0  0  0  0  0  0  0  0  0  0  0
    0.9240   -9.8400  -39.8370 H   0  0  0  0  0  0  0  0  0  0  0  0
    0.9030  -11.6030  -40.0350 H   0  0  0  0  0  0  0  0  0  0  0  0
   -0.0080  -10.8170  -38.6780 H   0  0  0  0  0  0  0  0  0  0  0  0
  1  2  1  0  0  0  0
  2  3  2  0  0  0  0
  2  7  1  0  0  0  0
  3  4  1  0  0  0  0
  4 30  1  0  0  0  0
  4  5  2  0  0  0  0
  5  8  1  0  0  0  0
  6  5  1  0  0  0  0
  6 31  1  0  0  0  0
  7  6  2  0  0  0  0
  8 27  1  0  0  0  0
  9  8  1  0  0  0  0
  9 11  1  0  0  0  0
 10  9  2  0  0  0  0
 11 15  1  0  0  0  0
 11 12  2  0  0  0  0
 12 13  1  0  0  0  0
 13 33  1  0  0  0  0
 14 13  1  0  0  0  0
 14 34  1  0  0  0  0
 15 14  1  0  0  0  0
 16 17  1  0  0  0  0
 16 36  1  0  0  0  0
 16 15  1  0  0  0  0
 17 18  2  0  0  0  0
 19 20  1  0  0  0  0
 19 17  1  0  0  0  0
 20 25  1  0  0  0  0
 21 22  1  0  0  0  0
 21 20  2  0  0  0  0
 22 23  2  0  0  0  0
 23 39  1  0  0  0  0
 23 24  1  0  0  0  0
 24 40  1  0  0  0  0
 25 24  2  0  0  0  0
 25 41  1  0  0  0  0
 26 44  1  0  0  0  0
 26 21  1  0  0  0  0
 27 28  2  0  0  0  0
 27 12  1  0  0  0  0
 29  3  1  0  0  0  0
 32  7  1  0  0  0  0
 35 16  1  0  0  0  0
 37 19  1  0  0  0  0
 38 22  1  0  0  0  0
 42 26  1  0  0  0  0
 43 26  1  0  0  0  0
M  END
>  <Pose>
1

>  <Score>
-5.40

$$$$
