
 OpenBabel03232221553D

 49 52  0  0  0  0  0  0  0  0999 V2000
   -3.3740  -18.8680  -37.2190 B   0  0  0  0  0  0  0  0  0  0  0  0
   -1.4760  -19.0630  -37.4970 C   0  0  0  0  0  0  0  0  0  0  0  0
   -0.9170  -20.2940  -37.7480 C   0  0  0  0  0  0  0  0  0  0  0  0
    0.4650  -20.4330  -37.9480 C   0  0  0  0  0  0  0  0  0  0  0  0
    1.2920  -19.3380  -37.8970 C   0  0  0  0  0  0  0  0  0  0  0  0
    0.7080  -18.1150  -37.6450 C   0  0  0  0  0  0  0  0  0  0  0  0
   -0.6450  -17.9680  -37.4470 C   0  0  0  0  0  0  0  0  0  0  0  0
    2.7020  -19.4730  -38.0970 N   0  0  0  0  0  0  0  0  0  0  0  0
    3.3750  -20.1020  -39.0640 C   0  0  0  0  0  0  0  0  0  0  0  0
    2.8210  -20.7300  -40.0270 O   0  0  0  0  0  0  0  0  0  0  0  0
    4.7410  -20.0140  -38.9280 C   0  0  0  0  0  0  0  0  0  0  0  0
    4.9110  -19.2850  -37.8080 C   0  0  0  0  0  0  0  0  0  0  0  0
    6.2530  -19.1820  -37.6500 N   0  0  0  0  0  0  0  0  0  0  0  0
    6.8750  -19.8160  -38.6270 N   0  0  0  0  0  0  0  0  0  0  0  0
    5.9510  -20.3280  -39.4150 N   0  0  0  0  0  0  0  0  0  0  0  0
    6.2190  -21.0920  -40.5990 C   0  0  0  0  0  0  0  0  0  0  0  0
    6.2010  -20.3030  -41.8280 C   0  0  0  0  0  0  0  0  0  0  0  0
    6.8220  -19.2060  -41.9420 O   0  0  0  0  0  0  0  0  0  0  0  0
    5.4520  -20.7910  -42.9220 N   0  0  0  0  0  0  0  0  0  0  0  0
    5.1260  -22.1700  -42.9700 C   0  0  0  0  0  0  0  0  0  0  0  0
    3.9390  -22.5400  -42.3880 C   0  0  0  0  0  0  0  0  0  0  0  0
    3.5580  -23.8870  -42.3660 C   0  0  0  0  0  0  0  0  0  0  0  0
    4.3740  -24.8350  -42.9260 C   0  0  0  0  0  0  0  0  0  0  0  0
    5.5820  -24.4750  -43.5200 C   0  0  0  0  0  0  0  0  0  0  0  0
    5.9290  -23.1320  -43.5260 C   0  0  0  0  0  0  0  0  0  0  0  0
    6.3530  -25.4830  -44.0580 O   0  0  0  0  0  0  0  0  0  0  0  0
    7.6920  -25.7540  -43.7870 C   0  0  0  0  0  0  0  0  0  0  0  0
    2.3510  -24.1420  -41.7620 O   0  0  0  0  0  0  0  0  0  0  0  0
    1.3940  -25.0060  -42.2560 C   0  0  0  0  0  0  0  0  0  0  0  0
    3.6800  -18.9510  -37.2930 C   0  0  0  0  0  0  0  0  0  0  0  0
    3.4190  -18.2820  -36.2640 O   0  0  0  0  0  0  0  0  0  0  0  0
   -1.5610  -21.1560  -37.7910 H   0  0  0  0  0  0  0  0  0  0  0  0
    0.8810  -21.4130  -38.1400 H   0  0  0  0  0  0  0  0  0  0  0  0
    1.3870  -17.2610  -37.6080 H   0  0  0  0  0  0  0  0  0  0  0  0
   -1.0920  -16.9980  -37.2500 H   0  0  0  0  0  0  0  0  0  0  0  0
    6.7040  -18.6700  -36.8560 H   0  0  0  0  0  0  0  0  0  0  0  0
    7.9260  -19.8670  -38.7020 H   0  0  0  0  0  0  0  0  0  0  0  0
    7.2040  -21.6270  -40.5380 H   0  0  0  0  0  0  0  0  0  0  0  0
    5.4750  -21.9300  -40.7330 H   0  0  0  0  0  0  0  0  0  0  0  0
    5.1390  -20.1330  -43.7010 H   0  0  0  0  0  0  0  0  0  0  0  0
    3.2900  -21.7750  -41.9410 H   0  0  0  0  0  0  0  0  0  0  0  0
    4.0580  -25.8690  -42.8980 H   0  0  0  0  0  0  0  0  0  0  0  0
    6.8660  -22.8470  -43.9900 H   0  0  0  0  0  0  0  0  0  0  0  0
    8.1860  -26.1770  -44.6920 H   0  0  0  0  0  0  0  0  0  0  0  0
    7.8000  -26.5680  -43.0090 H   0  0  0  0  0  0  0  0  0  0  0  0
    8.2790  -24.8770  -43.4570 H   0  0  0  0  0  0  0  0  0  0  0  0
    0.9160  -25.5650  -41.4160 H   0  0  0  0  0  0  0  0  0  0  0  0
    1.7750  -25.7300  -42.9720 H   0  0  0  0  0  0  0  0  0  0  0  0
    0.5670  -24.3760  -42.7040 H   0  0  0  0  0  0  0  0  0  0  0  0
  2  7  1  0  0  0  0
  2  1  1  0  0  0  0
  3  2  2  0  0  0  0
  4  5  2  0  0  0  0
  4  3  1  0  0  0  0
  5  6  1  0  0  0  0
  6 34  1  0  0  0  0
  6  7  2  0  0  0  0
  7 35  1  0  0  0  0
  8  5  1  0  0  0  0
  8 30  1  0  0  0  0
  9 11  1  0  0  0  0
  9  8  1  0  0  0  0
 10  9  2  0  0  0  0
 11 12  2  0  0  0  0
 12 13  1  0  0  0  0
 12 30  1  0  0  0  0
 13 36  1  0  0  0  0
 14 13  1  0  0  0  0
 15 11  1  0  0  0  0
 15 14  1  0  0  0  0
 16 38  1  0  0  0  0
 16 15  1  0  0  0  0
 17 16  1  0  0  0  0
 18 17  2  0  0  0  0
 19 17  1  0  0  0  0
 20 19  1  0  0  0  0
 20 21  1  0  0  0  0
 21 22  2  0  0  0  0
 21 41  1  0  0  0  0
 22 28  1  0  0  0  0
 23 42  1  0  0  0  0
 23 22  1  0  0  0  0
 24 23  2  0  0  0  0
 25 24  1  0  0  0  0
 25 20  2  0  0  0  0
 26 27  1  0  0  0  0
 26 24  1  0  0  0  0
 27 46  1  0  0  0  0
 27 45  1  0  0  0  0
 29 28  1  0  0  0  0
 29 47  1  0  0  0  0
 30 31  2  0  0  0  0
 32  3  1  0  0  0  0
 33  4  1  0  0  0  0
 37 14  1  0  0  0  0
 39 16  1  0  0  0  0
 40 19  1  0  0  0  0
 43 25  1  0  0  0  0
 44 27  1  0  0  0  0
 48 29  1  0  0  0  0
 49 29  1  0  0  0  0
M  END
>  <Pose>
1

>  <Score>
-5.92

$$$$
