
 OpenBabel03232221553D

 50 53  0  0  0  0  0  0  0  0999 V2000
    2.4740  -26.9320  -45.5460 B   0  0  0  0  0  0  0  0  0  0  0  0
    3.1750  -25.5650  -44.4240 C   0  0  0  0  0  0  0  0  0  0  0  0
    2.3890  -24.6000  -43.8300 C   0  0  0  0  0  0  0  0  0  0  0  0
    2.9210  -23.6350  -43.0330 C   0  0  0  0  0  0  0  0  0  0  0  0
    4.2830  -23.5810  -42.7840 C   0  0  0  0  0  0  0  0  0  0  0  0
    5.0770  -24.5350  -43.3690 C   0  0  0  0  0  0  0  0  0  0  0  0
    4.5270  -25.5000  -44.1690 C   0  0  0  0  0  0  0  0  0  0  0  0
    4.8040  -22.5550  -41.9430 N   0  0  0  0  0  0  0  0  0  0  0  0
    4.2940  -22.2500  -40.7230 C   0  0  0  0  0  0  0  0  0  0  0  0
    3.3050  -22.8170  -40.1620 O   0  0  0  0  0  0  0  0  0  0  0  0
    5.0180  -21.2120  -40.1630 C   0  0  0  0  0  0  0  0  0  0  0  0
    5.9560  -20.9080  -41.0570 C   0  0  0  0  0  0  0  0  0  0  0  0
    6.6810  -19.8910  -40.5310 N   0  0  0  0  0  0  0  0  0  0  0  0
    6.1660  -19.6100  -39.3380 N   0  0  0  0  0  0  0  0  0  0  0  0
    5.1430  -20.4010  -39.0780 N   0  0  0  0  0  0  0  0  0  0  0  0
    4.2870  -20.4470  -37.8980 C   0  0  0  0  0  0  0  0  0  0  0  0
    3.1630  -19.4540  -38.0650 C   0  0  0  0  0  0  0  0  0  0  0  0
    3.4730  -18.3040  -37.6650 O   0  0  0  0  0  0  0  0  0  0  0  0
    1.9500  -19.8630  -38.6150 N   0  0  0  0  0  0  0  0  0  0  0  0
    0.6500  -19.5940  -38.1190 C   0  0  0  0  0  0  0  0  0  0  0  0
   -0.4070  -20.4720  -38.1500 C   0  0  0  0  0  0  0  0  0  0  0  0
   -1.6670  -20.1300  -37.6380 C   0  0  0  0  0  0  0  0  0  0  0  0
   -1.9000  -18.8960  -37.0790 C   0  0  0  0  0  0  0  0  0  0  0  0
   -0.8500  -18.0110  -37.0420 C   0  0  0  0  0  0  0  0  0  0  0  0
    0.3900  -18.3500  -37.5470 C   0  0  0  0  0  0  0  0  0  0  0  0
   -3.2270  -18.5840  -36.5580 C   0  0  0  0  0  0  0  0  0  0  0  0
   -3.3200  -18.2080  -35.3620 O   0  0  0  0  0  0  0  0  0  0  0  0
   -4.3820  -18.6730  -37.2830 O   0  0  0  0  0  0  0  0  0  0  0  0
   -4.4820  -18.9390  -38.6520 C   0  0  0  0  0  0  0  0  0  0  0  0
   -4.7510  -20.4440  -38.7860 C   0  0  0  0  0  0  0  0  0  0  0  0
    5.8350  -21.7250  -42.1560 C   0  0  0  0  0  0  0  0  0  0  0  0
    6.5470  -21.7170  -43.1840 O   0  0  0  0  0  0  0  0  0  0  0  0
    1.3240  -24.6430  -44.0250 H   0  0  0  0  0  0  0  0  0  0  0  0
    2.2580  -22.8820  -42.5770 H   0  0  0  0  0  0  0  0  0  0  0  0
    6.1440  -24.5220  -43.1950 H   0  0  0  0  0  0  0  0  0  0  0  0
    5.1500  -26.2690  -44.6420 H   0  0  0  0  0  0  0  0  0  0  0  0
    7.4910  -19.4260  -40.9890 H   0  0  0  0  0  0  0  0  0  0  0  0
    6.5220  -18.8710  -38.7080 H   0  0  0  0  0  0  0  0  0  0  0  0
    3.8990  -21.4660  -37.7140 H   0  0  0  0  0  0  0  0  0  0  0  0
    4.9300  -20.1790  -37.0340 H   0  0  0  0  0  0  0  0  0  0  0  0
    2.0210  -20.4430  -39.5100 H   0  0  0  0  0  0  0  0  0  0  0  0
   -0.2550  -21.4390  -38.5790 H   0  0  0  0  0  0  0  0  0  0  0  0
   -2.4820  -20.8550  -37.6810 H   0  0  0  0  0  0  0  0  0  0  0  0
   -1.0470  -17.0350  -36.5950 H   0  0  0  0  0  0  0  0  0  0  0  0
    1.2060  -17.6160  -37.5010 H   0  0  0  0  0  0  0  0  0  0  0  0
   -5.3280  -18.4250  -39.1490 H   0  0  0  0  0  0  0  0  0  0  0  0
   -3.5680  -18.7040  -39.2290 H   0  0  0  0  0  0  0  0  0  0  0  0
   -5.8050  -20.6400  -38.4330 H   0  0  0  0  0  0  0  0  0  0  0  0
   -4.0910  -21.0280  -38.1230 H   0  0  0  0  0  0  0  0  0  0  0  0
   -4.6190  -20.7990  -39.8090 H   0  0  0  0  0  0  0  0  0  0  0  0
  1  2  1  0  0  0  0
  2  7  2  0  0  0  0
  2  3  1  0  0  0  0
  3  4  2  0  0  0  0
  4  5  1  0  0  0  0
  4 34  1  0  0  0  0
  5  8  1  0  0  0  0
  6 35  1  0  0  0  0
  6  5  2  0  0  0  0
  7  6  1  0  0  0  0
  8  9  1  0  0  0  0
  9 11  1  0  0  0  0
  9 10  2  0  0  0  0
 11 15  1  0  0  0  0
 12 13  1  0  0  0  0
 12 11  2  0  0  0  0
 13 14  1  0  0  0  0
 14 15  1  0  0  0  0
 14 38  1  0  0  0  0
 15 16  1  0  0  0  0
 16 39  1  0  0  0  0
 16 40  1  0  0  0  0
 17 16  1  0  0  0  0
 17 18  2  0  0  0  0
 19 20  1  0  0  0  0
 19 17  1  0  0  0  0
 20 25  1  0  0  0  0
 21 20  2  0  0  0  0
 21 22  1  0  0  0  0
 22 23  2  0  0  0  0
 23 24  1  0  0  0  0
 23 26  1  0  0  0  0
 24 44  1  0  0  0  0
 25 45  1  0  0  0  0
 25 24  2  0  0  0  0
 26 27  2  0  0  0  0
 28 26  1  0  0  0  0
 29 28  1  0  0  0  0
 30 29  1  0  0  0  0
 30 48  1  0  0  0  0
 30 49  1  0  0  0  0
 31  8  1  0  0  0  0
 31 12  1  0  0  0  0
 32 31  2  0  0  0  0
 33  3  1  0  0  0  0
 36  7  1  0  0  0  0
 37 13  1  0  0  0  0
 41 19  1  0  0  0  0
 42 21  1  0  0  0  0
 43 22  1  0  0  0  0
 46 29  1  0  0  0  0
 47 29  1  0  0  0  0
 50 30  1  0  0  0  0
M  END
>  <Pose>
1

>  <Score>
-5.28

$$$$
