
 OpenBabel03232221553D

 36 39  0  0  0  0  0  0  0  0999 V2000
   -3.1800  -18.2180  -36.7860 B   0  0  0  0  0  0  0  0  0  0  0  0
   -1.3190  -18.4750  -37.1590 C   0  0  0  0  0  0  0  0  0  0  0  0
   -0.8350  -19.6760  -37.6360 C   0  0  0  0  0  0  0  0  0  0  0  0
    0.5200  -19.8480  -37.9020 C   0  0  0  0  0  0  0  0  0  0  0  0
    1.4220  -18.8250  -37.6980 C   0  0  0  0  0  0  0  0  0  0  0  0
    0.9240  -17.6300  -37.2210 C   0  0  0  0  0  0  0  0  0  0  0  0
   -0.4200  -17.4500  -36.9530 C   0  0  0  0  0  0  0  0  0  0  0  0
    2.8240  -18.9700  -37.9630 N   0  0  0  0  0  0  0  0  0  0  0  0
    3.3840  -19.2100  -39.1690 C   0  0  0  0  0  0  0  0  0  0  0  0
    2.7900  -19.3520  -40.2850 O   0  0  0  0  0  0  0  0  0  0  0  0
    4.7600  -19.2920  -39.0640 C   0  0  0  0  0  0  0  0  0  0  0  0
    5.0210  -19.0960  -37.7700 C   0  0  0  0  0  0  0  0  0  0  0  0
    6.3700  -19.1760  -37.6640 N   0  0  0  0  0  0  0  0  0  0  0  0
    6.8730  -19.4110  -38.8640 N   0  0  0  0  0  0  0  0  0  0  0  0
    5.8980  -19.4880  -39.7540 N   0  0  0  0  0  0  0  0  0  0  0  0
    6.0350  -19.7310  -41.1600 C   0  0  0  0  0  0  0  0  0  0  0  0
    5.8020  -20.9820  -41.6930 C   0  0  0  0  0  0  0  0  0  0  0  0
    5.9260  -21.2470  -43.0510 C   0  0  0  0  0  0  0  0  0  0  0  0
    6.2950  -20.2420  -43.9190 C   0  0  0  0  0  0  0  0  0  0  0  0
    6.5280  -18.9910  -43.3900 C   0  0  0  0  0  0  0  0  0  0  0  0
    6.4030  -18.7300  -42.0340 C   0  0  0  0  0  0  0  0  0  0  0  0
    6.4310  -20.4840  -45.3170 N   0  0  0  0  0  0  0  0  0  0  0  0
    5.7500  -19.8760  -46.1640 O   0  0  0  0  0  0  0  0  0  0  0  0
    7.3310  -21.4060  -45.7470 O   0  0  0  0  0  0  0  0  0  0  0  0
    3.8400  -18.8980  -37.0870 C   0  0  0  0  0  0  0  0  0  0  0  0
    3.6800  -18.6830  -35.8600 O   0  0  0  0  0  0  0  0  0  0  0  0
   -1.5560  -20.4760  -37.7930 H   0  0  0  0  0  0  0  0  0  0  0  0
    0.8970  -20.7740  -38.2700 H   0  0  0  0  0  0  0  0  0  0  0  0
    1.6250  -16.8110  -37.0550 H   0  0  0  0  0  0  0  0  0  0  0  0
   -0.8010  -16.4960  -36.5750 H   0  0  0  0  0  0  0  0  0  0  0  0
    6.9020  -19.0650  -36.7620 H   0  0  0  0  0  0  0  0  0  0  0  0
    7.8880  -19.5270  -39.1210 H   0  0  0  0  0  0  0  0  0  0  0  0
    5.5130  -21.7810  -41.0320 H   0  0  0  0  0  0  0  0  0  0  0  0
    5.7370  -22.2480  -43.4570 H   0  0  0  0  0  0  0  0  0  0  0  0
    6.8160  -18.2160  -44.0850 H   0  0  0  0  0  0  0  0  0  0  0  0
    6.5880  -17.7460  -41.6300 H   0  0  0  0  0  0  0  0  0  0  0  0
  2  7  1  0  0  0  0
  2  1  1  0  0  0  0
  3  2  2  0  0  0  0
  4  5  2  0  0  0  0
  4  3  1  0  0  0  0
  5  6  1  0  0  0  0
  6 29  1  0  0  0  0
  6  7  2  0  0  0  0
  7 30  1  0  0  0  0
  8  5  1  0  0  0  0
  8 25  1  0  0  0  0
  9 11  1  0  0  0  0
  9  8  1  0  0  0  0
 10  9  2  0  0  0  0
 11 12  2  0  0  0  0
 12 13  1  0  0  0  0
 12 25  1  0  0  0  0
 13 31  1  0  0  0  0
 14 13  1  0  0  0  0
 15 11  1  0  0  0  0
 15 14  1  0  0  0  0
 16 15  1  0  0  0  0
 17 16  1  0  0  0  0
 17 33  1  0  0  0  0
 18 17  2  0  0  0  0
 19 20  2  0  0  0  0
 19 18  1  0  0  0  0
 20 21  1  0  0  0  0
 21 36  1  0  0  0  0
 21 16  2  0  0  0  0
 22 19  1  0  0  0  0
 23 22  2  0  0  0  0
 24 22  2  0  0  0  0
 25 26  2  0  0  0  0
 27  3  1  0  0  0  0
 28  4  1  0  0  0  0
 32 14  1  0  0  0  0
 34 18  1  0  0  0  0
 35 20  1  0  0  0  0
M  END
>  <Pose>
1

>  <Score>
-5.11

$$$$
