
 OpenBabel03232221553D

 38 42  0  0  1  0  0  0  0  0999 V2000
    6.0480  -21.4270  -39.1790 B   0  0  0  0  0  0  0  0  0  0  0  0
    4.3560  -20.5950  -38.9700 C   0  0  0  0  0  0  0  0  0  0  0  0
    3.3540  -20.8640  -39.8710 C   0  0  0  0  0  0  0  0  0  0  0  0
    2.1350  -20.2470  -39.6940 C   0  0  0  0  0  0  0  0  0  0  0  0
    1.8960  -19.3770  -38.6540 C   0  0  0  0  0  0  0  0  0  0  0  0
    2.9080  -19.1050  -37.7420 C   0  0  0  0  0  0  0  0  0  0  0  0
    4.1410  -19.7330  -37.9240 C   0  0  0  0  0  0  0  0  0  0  0  0
    0.6220  -18.7440  -38.4800 N   0  0  0  0  0  0  0  0  0  0  0  0
    0.3100  -17.4780  -39.0400 C   0  0  0  0  0  0  0  0  0  0  0  0
    0.9390  -16.9530  -39.9900 O   0  0  0  0  0  0  0  0  0  0  0  0
   -0.8590  -16.9030  -38.3220 C   0  0  2  0  0  0  0  0  0  0  0  0
   -0.4470  -15.9880  -37.2110 C   0  0  1  0  0  0  0  0  0  0  0  0
   -1.5090  -16.1940  -36.3030 O   0  0  0  0  0  0  0  0  0  0  0  0
   -1.3130  -17.5860  -36.1250 C   0  0  1  0  0  0  0  0  0  0  0  0
   -1.4380  -18.0750  -37.5270 C   0  0  2  0  0  0  0  0  0  0  0  0
   -0.5150  -19.2180  -37.7600 C   0  0  0  0  0  0  0  0  0  0  0  0
   -0.7200  -20.3750  -37.3840 O   0  0  0  0  0  0  0  0  0  0  0  0
    0.1260  -17.5820  -35.7540 C   0  0  0  0  0  0  0  0  0  0  0  0
    0.6700  -16.6170  -36.4890 C   0  0  0  0  0  0  0  0  0  0  0  0
   -0.2750  -14.5770  -37.5810 C   0  0  0  0  0  0  0  0  0  0  0  0
    0.7500  -14.3520  -38.4580 O   0  0  0  0  0  0  0  0  0  0  0  0
    1.7520  -13.6810  -37.8030 C   0  0  0  0  0  0  0  0  0  0  0  0
    1.2780  -13.4770  -36.4020 C   0  0  0  0  0  0  0  0  0  0  0  0
   -0.0780  -13.7740  -36.4720 O   0  0  0  0  0  0  0  0  0  0  0  0
    3.4910  -21.5460  -40.7150 H   0  0  0  0  0  0  0  0  0  0  0  0
    1.3110  -20.4410  -40.3980 H   0  0  0  0  0  0  0  0  0  0  0  0
    2.7070  -18.4240  -36.9340 H   0  0  0  0  0  0  0  0  0  0  0  0
    4.9290  -19.5210  -37.2150 H   0  0  0  0  0  0  0  0  0  0  0  0
   -1.5680  -16.4680  -39.0240 H   0  0  0  0  0  0  0  0  0  0  0  0
   -1.9750  -18.0220  -35.3980 H   0  0  0  0  0  0  0  0  0  0  0  0
   -2.4540  -18.3060  -37.8460 H   0  0  0  0  0  0  0  0  0  0  0  0
    0.5600  -18.2570  -35.0280 H   0  0  0  0  0  0  0  0  0  0  0  0
    1.7380  -16.4240  -36.4810 H   0  0  0  0  0  0  0  0  0  0  0  0
   -1.2310  -14.2310  -38.0590 H   0  0  0  0  0  0  0  0  0  0  0  0
    2.0050  -12.7050  -38.2620 H   0  0  0  0  0  0  0  0  0  0  0  0
    2.6490  -14.3530  -37.7730 H   0  0  0  0  0  0  0  0  0  0  0  0
    1.4370  -12.4070  -36.0780 H   0  0  0  0  0  0  0  0  0  0  0  0
    1.7630  -14.1680  -35.6650 H   0  0  0  0  0  0  0  0  0  0  0  0
  1  2  1  0  0  0  0
  2  7  1  0  0  0  0
  3  4  1  0  0  0  0
  3  2  2  0  0  0  0
  4  5  2  0  0  0  0
  5  8  1  0  0  0  0
  5  6  1  0  0  0  0
  6 27  1  0  0  0  0
  7  6  2  0  0  0  0
  7 28  1  0  0  0  0
  8 16  1  0  0  0  0
  9  8  1  0  0  0  0
  9 11  1  0  0  0  0
 10  9  2  0  0  0  0
 11 29  1  6  0  0  0
 11 15  1  0  0  0  0
 11 12  1  0  0  0  0
 12 20  1  6  0  0  0
 12 19  1  0  0  0  0
 12 13  1  0  0  0  0
 13 14  1  0  0  0  0
 14 18  1  0  0  0  0
 14 30  1  1  0  0  0
 15 31  1  6  0  0  0
 15 14  1  0  0  0  0
 16 15  1  0  0  0  0
 16 17  2  0  0  0  0
 18 32  1  0  0  0  0
 19 33  1  0  0  0  0
 19 18  2  0  0  0  0
 20 24  1  0  0  0  0
 21 22  1  0  0  0  0
 21 20  1  0  0  0  0
 22 36  1  0  0  0  0
 22 23  1  0  0  0  0
 23 37  1  0  0  0  0
 23 38  1  0  0  0  0
 24 23  1  0  0  0  0
 25  3  1  0  0  0  0
 26  4  1  0  0  0  0
 34 20  1  0  0  0  0
 35 22  1  0  0  0  0
M  END
>  <Pose>
1

>  <Score>
-3.41

$$$$
