
 OpenBabel03232221553D

 56 59  0  0  1  0  0  0  0  0999 V2000
   -5.0590  -19.6720  -38.2630 B   0  0  0  0  0  0  0  0  0  0  0  0
   -3.5930  -18.6470  -37.6240 C   0  0  0  0  0  0  0  0  0  0  0  0
   -3.6930  -17.2810  -37.6170 C   0  0  0  0  0  0  0  0  0  0  0  0
   -2.6320  -16.5340  -37.1550 C   0  0  0  0  0  0  0  0  0  0  0  0
   -1.4660  -17.1120  -36.6950 C   0  0  0  0  0  0  0  0  0  0  0  0
   -1.3940  -18.5230  -36.7160 C   0  0  0  0  0  0  0  0  0  0  0  0
   -2.4400  -19.2540  -37.1710 C   0  0  0  0  0  0  0  0  0  0  0  0
   -0.4280  -16.4520  -36.2420 O   0  0  0  0  0  0  0  0  0  0  0  0
    0.7630  -16.3020  -35.7010 C   0  0  0  0  0  0  0  0  0  0  0  0
    1.8880  -16.9790  -36.4160 C   0  0  1  0  0  0  0  0  0  0  0  0
    2.8650  -17.2940  -35.4610 O   0  0  0  0  0  0  0  0  0  0  0  0
    1.5340  -18.1590  -37.2740 C   0  0  0  0  0  0  0  0  0  0  0  0
    2.3870  -18.3720  -38.4230 N   0  0  0  0  0  0  0  0  0  0  0  0
    3.2910  -19.3680  -38.5670 C   0  0  0  0  0  0  0  0  0  0  0  0
    3.9440  -19.1910  -39.7660 C   0  0  0  0  0  0  0  0  0  0  0  0
    3.4120  -18.1090  -40.2950 N   0  0  0  0  0  0  0  0  0  0  0  0
    2.4380  -17.5690  -39.4970 C   0  0  0  0  0  0  0  0  0  0  0  0
    1.6460  -16.4240  -39.8680 N   0  0  0  0  0  0  0  0  0  0  0  0
    2.2120  -15.6590  -41.0010 C   0  0  0  0  0  0  0  0  0  0  0  0
    1.2920  -14.6740  -41.6000 C   0  0  0  0  0  0  0  0  0  0  0  0
    0.4130  -14.0520  -40.6420 N   0  0  0  0  0  0  0  0  0  0  0  0
   -0.4050  -15.0990  -40.1160 C   0  0  0  0  0  0  0  0  0  0  0  0
    0.4100  -16.0730  -39.2640 C   0  0  0  0  0  0  0  0  0  0  0  0
    1.1140  -13.2750  -39.6740 C   0  0  0  0  0  0  0  0  0  0  0  0
    4.9250  -20.0190  -40.2300 N   0  0  0  0  0  0  0  0  0  0  0  0
    5.2610  -21.0600  -39.4670 C   0  0  0  0  0  0  0  0  0  0  0  0
    6.1660  -21.8350  -39.8790 O   0  0  0  0  0  0  0  0  0  0  0  0
    4.6420  -21.2590  -38.2960 N   0  0  0  0  0  0  0  0  0  0  0  0
    3.6670  -20.4560  -37.8090 C   0  0  0  0  0  0  0  0  0  0  0  0
    3.1110  -20.6660  -36.7220 O   0  0  0  0  0  0  0  0  0  0  0  0
    5.5670  -19.7410  -41.5160 C   0  0  0  0  0  0  0  0  0  0  0  0
   -4.6020  -16.7950  -37.9690 H   0  0  0  0  0  0  0  0  0  0  0  0
   -2.7610  -15.4680  -37.1830 H   0  0  0  0  0  0  0  0  0  0  0  0
   -0.4880  -18.9850  -36.3600 H   0  0  0  0  0  0  0  0  0  0  0  0
   -2.3610  -20.3490  -37.1710 H   0  0  0  0  0  0  0  0  0  0  0  0
    1.0610  -15.1910  -35.5390 H   0  0  0  0  0  0  0  0  0  0  0  0
    0.8260  -16.7210  -34.6190 H   0  0  0  0  0  0  0  0  0  0  0  0
    2.3210  -16.2210  -37.1470 H   0  0  0  0  0  0  0  0  0  0  0  0
    2.7810  -16.6490  -34.6870 H   0  0  0  0  0  0  0  0  0  0  0  0
    0.4530  -18.2150  -37.4880 H   0  0  0  0  0  0  0  0  0  0  0  0
    1.6810  -19.0510  -36.5790 H   0  0  0  0  0  0  0  0  0  0  0  0
    3.1940  -15.2370  -40.6840 H   0  0  0  0  0  0  0  0  0  0  0  0
    2.4750  -16.4160  -41.7970 H   0  0  0  0  0  0  0  0  0  0  0  0
    1.8780  -13.9510  -42.1800 H   0  0  0  0  0  0  0  0  0  0  0  0
    0.6080  -15.2120  -42.3210 H   0  0  0  0  0  0  0  0  0  0  0  0
   -1.2060  -14.6610  -39.4670 H   0  0  0  0  0  0  0  0  0  0  0  0
   -0.9020  -15.6210  -40.9320 H   0  0  0  0  0  0  0  0  0  0  0  0
   -0.2320  -17.0100  -39.2960 H   0  0  0  0  0  0  0  0  0  0  0  0
    0.4380  -15.6000  -38.2780 H   0  0  0  0  0  0  0  0  0  0  0  0
    0.9710  -12.1840  -39.9210 H   0  0  0  0  0  0  0  0  0  0  0  0
    0.8050  -13.4360  -38.6260 H   0  0  0  0  0  0  0  0  0  0  0  0
    2.2260  -13.4140  -39.6930 H   0  0  0  0  0  0  0  0  0  0  0  0
    4.9310  -22.0820  -37.7280 H   0  0  0  0  0  0  0  0  0  0  0  0
    6.5300  -20.2480  -41.6090 H   0  0  0  0  0  0  0  0  0  0  0  0
    5.7850  -18.6500  -41.5290 H   0  0  0  0  0  0  0  0  0  0  0  0
    4.9110  -20.0320  -42.3520 H   0  0  0  0  0  0  0  0  0  0  0  0
  1  2  1  0  0  0  0
  2  3  2  0  0  0  0
  2  7  1  0  0  0  0
  3  4  1  0  0  0  0
  4  5  2  0  0  0  0
  5  8  1  0  0  0  0
  6  5  1  0  0  0  0
  6 34  1  0  0  0  0
  7 35  1  0  0  0  0
  7  6  2  0  0  0  0
  8  9  1  0  0  0  0
  9 36  1  0  0  0  0
  9 37  1  0  0  0  0
 10 38  1  6  0  0  0
 10  9  1  0  0  0  0
 10 11  1  0  0  0  0
 11 39  1  0  0  0  0
 12 41  1  0  0  0  0
 12 10  1  0  0  0  0
 13 12  1  0  0  0  0
 14 13  1  0  0  0  0
 14 29  1  0  0  0  0
 15 14  2  0  0  0  0
 16 15  1  0  0  0  0
 16 17  2  0  0  0  0
 17 13  1  0  0  0  0
 18 17  1  0  0  0  0
 18 23  1  0  0  0  0
 19 42  1  0  0  0  0
 19 18  1  0  0  0  0
 20 19  1  0  0  0  0
 20 21  1  0  0  0  0
 21 22  1  0  0  0  0
 21 24  1  0  0  0  0
 22 46  1  0  0  0  0
 22 23  1  0  0  0  0
 23 49  1  0  0  0  0
 24 51  1  0  0  0  0
 25 15  1  0  0  0  0
 25 26  1  0  0  0  0
 26 28  1  0  0  0  0
 27 26  2  0  0  0  0
 28 29  1  0  0  0  0
 28 53  1  0  0  0  0
 29 30  2  0  0  0  0
 31 25  1  0  0  0  0
 32  3  1  0  0  0  0
 33  4  1  0  0  0  0
 40 12  1  0  0  0  0
 43 19  1  0  0  0  0
 44 20  1  0  0  0  0
 45 20  1  0  0  0  0
 47 22  1  0  0  0  0
 48 23  1  0  0  0  0
 50 24  1  0  0  0  0
 52 24  1  0  0  0  0
 54 31  1  0  0  0  0
 55 31  1  0  0  0  0
 56 31  1  0  0  0  0
M  END
>  <Pose>
1

>  <Score>
-4.33

$$$$
