
 OpenBabel03232221553D

 41 44  0  0  0  0  0  0  0  0999 V2000
   -0.7180  -19.4960  -37.8560 B   0  0  0  0  0  0  0  0  0  0  0  0
   -0.0130  -17.7630  -37.4440 C   0  0  0  0  0  0  0  0  0  0  0  0
   -0.8350  -16.6900  -37.2080 C   0  0  0  0  0  0  0  0  0  0  0  0
   -0.3100  -15.4480  -36.9120 C   0  0  0  0  0  0  0  0  0  0  0  0
    1.0600  -15.2960  -36.8560 C   0  0  0  0  0  0  0  0  0  0  0  0
    1.8870  -16.3920  -37.0960 C   0  0  0  0  0  0  0  0  0  0  0  0
    1.3810  -17.6370  -37.3930 C   0  0  0  0  0  0  0  0  0  0  0  0
    2.2440  -18.8110  -37.6110 C   0  0  0  0  0  0  0  0  0  0  0  0
    3.0960  -18.6980  -38.7110 O   0  0  0  0  0  0  0  0  0  0  0  0
    3.4990  -19.7690  -39.4900 C   0  0  0  0  0  0  0  0  0  0  0  0
    2.9580  -19.9620  -40.7680 C   0  0  0  0  0  0  0  0  0  0  0  0
    3.3260  -21.0070  -41.5850 C   0  0  0  0  0  0  0  0  0  0  0  0
    4.2640  -21.9250  -41.1670 C   0  0  0  0  0  0  0  0  0  0  0  0
    4.8090  -21.7490  -39.9130 C   0  0  0  0  0  0  0  0  0  0  0  0
    4.4370  -20.6910  -39.0820 C   0  0  0  0  0  0  0  0  0  0  0  0
    4.6660  -23.0410  -42.0260 C   0  0  0  0  0  0  0  0  0  0  0  0
    5.8480  -23.2580  -42.6270 N   0  0  0  0  0  0  0  0  0  0  0  0
    5.7750  -24.4020  -43.3150 N   0  0  0  0  0  0  0  0  0  0  0  0
    4.5610  -24.9090  -43.1560 N   0  0  0  0  0  0  0  0  0  0  0  0
    3.8900  -24.0810  -42.3730 N   0  0  0  0  0  0  0  0  0  0  0  0
    6.8030  -25.0330  -44.1160 C   0  0  0  0  0  0  0  0  0  0  0  0
    8.0210  -25.2490  -43.3050 C   0  0  0  0  0  0  0  0  0  0  0  0
    8.1190  -26.2680  -42.6030 O   0  0  0  0  0  0  0  0  0  0  0  0
    9.0550  -24.2890  -43.3430 N   0  0  0  0  0  0  0  0  0  0  0  0
    1.3040  -13.9730  -36.5460 O   0  0  0  0  0  0  0  0  0  0  0  0
    0.1160  -13.3400  -36.1060 C   0  0  0  0  0  0  0  0  0  0  0  0
   -0.8710  -14.2010  -36.6320 O   0  0  0  0  0  0  0  0  0  0  0  0
   -1.9300  -16.7990  -37.2490 H   0  0  0  0  0  0  0  0  0  0  0  0
    2.9530  -16.2010  -37.0190 H   0  0  0  0  0  0  0  0  0  0  0  0
    2.8060  -19.1030  -36.6980 H   0  0  0  0  0  0  0  0  0  0  0  0
    1.5580  -19.6680  -37.8180 H   0  0  0  0  0  0  0  0  0  0  0  0
    2.2190  -19.2190  -41.0660 H   0  0  0  0  0  0  0  0  0  0  0  0
    2.8890  -21.1270  -42.5670 H   0  0  0  0  0  0  0  0  0  0  0  0
    5.5410  -22.4690  -39.5920 H   0  0  0  0  0  0  0  0  0  0  0  0
    4.9030  -20.5950  -38.1040 H   0  0  0  0  0  0  0  0  0  0  0  0
    6.4260  -26.0080  -44.4850 H   0  0  0  0  0  0  0  0  0  0  0  0
    7.0000  -24.3760  -44.9880 H   0  0  0  0  0  0  0  0  0  0  0  0
    9.9560  -24.4410  -43.8760 H   0  0  0  0  0  0  0  0  0  0  0  0
    8.9470  -23.3870  -42.8330 H   0  0  0  0  0  0  0  0  0  0  0  0
    0.1240  -13.3310  -34.9990 H   0  0  0  0  0  0  0  0  0  0  0  0
    0.0630  -12.3130  -36.5030 H   0  0  0  0  0  0  0  0  0  0  0  0
  1  2  1  0  0  0  0
  2  7  2  0  0  0  0
  2  3  1  0  0  0  0
  3  4  2  0  0  0  0
  4  5  1  0  0  0  0
  4 27  1  0  0  0  0
  5 25  1  0  0  0  0
  6 29  1  0  0  0  0
  6  5  2  0  0  0  0
  7  6  1  0  0  0  0
  8  7  1  0  0  0  0
  8 30  1  0  0  0  0
  9  8  1  0  0  0  0
 10 15  1  0  0  0  0
 10  9  1  0  0  0  0
 11 10  2  0  0  0  0
 12 13  2  0  0  0  0
 12 11  1  0  0  0  0
 13 14  1  0  0  0  0
 14 34  1  0  0  0  0
 14 15  2  0  0  0  0
 15 35  1  0  0  0  0
 16 13  1  0  0  0  0
 17 16  2  0  0  0  0
 18 19  1  0  0  0  0
 18 17  1  0  0  0  0
 19 20  2  0  0  0  0
 20 16  1  0  0  0  0
 21 18  1  0  0  0  0
 21 22  1  0  0  0  0
 22 23  2  0  0  0  0
 24 22  1  0  0  0  0
 24 39  1  0  0  0  0
 25 26  1  0  0  0  0
 26 40  1  0  0  0  0
 27 26  1  0  0  0  0
 28  3  1  0  0  0  0
 31  8  1  0  0  0  0
 32 11  1  0  0  0  0
 33 12  1  0  0  0  0
 36 21  1  0  0  0  0
 37 21  1  0  0  0  0
 38 24  1  0  0  0  0
 41 26  1  0  0  0  0
M  END
>  <Pose>
1

>  <Score>
-4.87

$$$$
