
 OpenBabel03232221553D

 49 52  0  0  0  0  0  0  0  0999 V2000
   16.9630  -26.0770  -46.6120 B   0  0  0  0  0  0  0  0  0  0  0  0
   15.3390  -26.7580  -45.8770 C   0  0  0  0  0  0  0  0  0  0  0  0
   14.6090  -25.9630  -45.0180 C   0  0  0  0  0  0  0  0  0  0  0  0
   13.4250  -26.4090  -44.4590 C   0  0  0  0  0  0  0  0  0  0  0  0
   12.9990  -27.6810  -44.7900 C   0  0  0  0  0  0  0  0  0  0  0  0
   13.7380  -28.4670  -45.6500 C   0  0  0  0  0  0  0  0  0  0  0  0
   14.9190  -28.0290  -46.2130 C   0  0  0  0  0  0  0  0  0  0  0  0
   11.7510  -27.9100  -44.0840 C   0  0  0  0  0  0  0  0  0  0  0  0
   11.0810  -28.9900  -44.1630 O   0  0  0  0  0  0  0  0  0  0  0  0
   11.4480  -26.7470  -43.3280 N   0  0  0  0  0  0  0  0  0  0  0  0
   12.4610  -25.7950  -43.5330 C   0  0  0  0  0  0  0  0  0  0  0  0
   12.5540  -24.6380  -43.0390 O   0  0  0  0  0  0  0  0  0  0  0  0
   10.2680  -26.6290  -42.4990 C   0  0  0  0  0  0  0  0  0  0  0  0
    9.6670  -25.2730  -42.5090 C   0  0  0  0  0  0  0  0  0  0  0  0
    8.9360  -25.0490  -43.8030 C   0  0  0  0  0  0  0  0  0  0  0  0
    7.4630  -25.1680  -43.7000 C   0  0  0  0  0  0  0  0  0  0  0  0
    6.8560  -26.2680  -43.6290 O   0  0  0  0  0  0  0  0  0  0  0  0
    6.6350  -23.9880  -43.6760 N   0  0  0  0  0  0  0  0  0  0  0  0
    5.2480  -24.0640  -43.2800 C   0  0  0  0  0  0  0  0  0  0  0  0
    4.8310  -22.9680  -42.3570 C   0  0  0  0  0  0  0  0  0  0  0  0
    5.8790  -22.0280  -42.0370 N   0  0  0  0  0  0  0  0  0  0  0  0
    6.9800  -21.7050  -42.9050 C   0  0  0  0  0  0  0  0  0  0  0  0
    7.1450  -22.6810  -44.0450 C   0  0  0  0  0  0  0  0  0  0  0  0
    5.8180  -21.3710  -40.7680 C   0  0  0  0  0  0  0  0  0  0  0  0
    6.3210  -20.1200  -40.5880 N   0  0  0  0  0  0  0  0  0  0  0  0
    6.2850  -19.4740  -39.4230 C   0  0  0  0  0  0  0  0  0  0  0  0
    5.7060  -20.1000  -38.3290 C   0  0  0  0  0  0  0  0  0  0  0  0
    5.1950  -21.3460  -38.4740 N   0  0  0  0  0  0  0  0  0  0  0  0
    5.2500  -21.9650  -39.6640 C   0  0  0  0  0  0  0  0  0  0  0  0
   14.9120  -24.9570  -44.7340 H   0  0  0  0  0  0  0  0  0  0  0  0
   13.3610  -29.4580  -45.8800 H   0  0  0  0  0  0  0  0  0  0  0  0
   15.4710  -28.6710  -46.8820 H   0  0  0  0  0  0  0  0  0  0  0  0
   10.5560  -26.9050  -41.4730 H   0  0  0  0  0  0  0  0  0  0  0  0
    9.5130  -27.3660  -42.9090 H   0  0  0  0  0  0  0  0  0  0  0  0
   10.3790  -24.4600  -42.2870 H   0  0  0  0  0  0  0  0  0  0  0  0
    8.8890  -25.1810  -41.6920 H   0  0  0  0  0  0  0  0  0  0  0  0
    9.1730  -24.0540  -44.2480 H   0  0  0  0  0  0  0  0  0  0  0  0
    9.2730  -25.7940  -44.5550 H   0  0  0  0  0  0  0  0  0  0  0  0
    5.0120  -25.0710  -42.8830 H   0  0  0  0  0  0  0  0  0  0  0  0
    4.6520  -23.9800  -44.2320 H   0  0  0  0  0  0  0  0  0  0  0  0
    3.9930  -22.3590  -42.8020 H   0  0  0  0  0  0  0  0  0  0  0  0
    4.4090  -23.3840  -41.4130 H   0  0  0  0  0  0  0  0  0  0  0  0
    6.8270  -20.7070  -43.3220 H   0  0  0  0  0  0  0  0  0  0  0  0
    7.9100  -21.7890  -42.2810 H   0  0  0  0  0  0  0  0  0  0  0  0
    8.1910  -22.7300  -44.4060 H   0  0  0  0  0  0  0  0  0  0  0  0
    6.4810  -22.3270  -44.8870 H   0  0  0  0  0  0  0  0  0  0  0  0
    6.6900  -18.4780  -39.2990 H   0  0  0  0  0  0  0  0  0  0  0  0
    5.6600  -19.6110  -37.3810 H   0  0  0  0  0  0  0  0  0  0  0  0
    4.8340  -22.9560  -39.7430 H   0  0  0  0  0  0  0  0  0  0  0  0
  1  2  1  0  0  0  0
  2  3  1  0  0  0  0
  3 30  1  0  0  0  0
  3  4  2  0  0  0  0
  4 11  1  0  0  0  0
  5  4  1  0  0  0  0
  5  8  1  0  0  0  0
  6  5  2  0  0  0  0
  7  2  2  0  0  0  0
  7  6  1  0  0  0  0
  8 10  1  0  0  0  0
  9  8  2  0  0  0  0
 10 13  1  0  0  0  0
 11 10  1  0  0  0  0
 11 12  2  0  0  0  0
 13 33  1  0  0  0  0
 14 13  1  0  0  0  0
 14 35  1  0  0  0  0
 14 36  1  0  0  0  0
 15 16  1  0  0  0  0
 15 14  1  0  0  0  0
 16 18  1  0  0  0  0
 16 17  2  0  0  0  0
 18 19  1  0  0  0  0
 19 39  1  0  0  0  0
 19 20  1  0  0  0  0
 20 21  1  0  0  0  0
 20 42  1  0  0  0  0
 21 24  1  0  0  0  0
 22 44  1  0  0  0  0
 22 21  1  0  0  0  0
 23 18  1  0  0  0  0
 23 22  1  0  0  0  0
 24 25  2  0  0  0  0
 24 29  1  0  0  0  0
 25 26  1  0  0  0  0
 26 47  1  0  0  0  0
 26 27  2  0  0  0  0
 27 48  1  0  0  0  0
 28 27  1  0  0  0  0
 29 28  2  0  0  0  0
 31  6  1  0  0  0  0
 32  7  1  0  0  0  0
 34 13  1  0  0  0  0
 37 15  1  0  0  0  0
 38 15  1  0  0  0  0
 40 19  1  0  0  0  0
 41 20  1  0  0  0  0
 43 22  1  0  0  0  0
 45 23  1  0  0  0  0
 46 23  1  0  0  0  0
 49 29  1  0  0  0  0
M  END
>  <Pose>
1

>  <Score>
-4.28

$$$$
