
 OpenBabel03232221553D

 41 44  0  0  1  0  0  0  0  0999 V2000
    9.4900  -25.3070  -42.9500 B   0  0  0  0  0  0  0  0  0  0  0  0
    7.8850  -24.4690  -43.5260 C   0  0  0  0  0  0  0  0  0  0  0  0
    7.4440  -23.2690  -43.0220 C   0  0  0  0  0  0  0  0  0  0  0  0
    6.2540  -22.7190  -43.4970 C   0  0  0  0  0  0  0  0  0  0  0  0
    5.4900  -23.3100  -44.4470 C   0  0  0  0  0  0  0  0  0  0  0  0
    5.9400  -24.5310  -44.9600 C   0  0  0  0  0  0  0  0  0  0  0  0
    7.1120  -25.0890  -44.5020 C   0  0  0  0  0  0  0  0  0  0  0  0
    4.3370  -22.5520  -44.7550 N   0  0  0  0  0  0  0  0  0  0  0  0
    4.3610  -21.3970  -43.9480 C   0  0  0  0  0  0  0  0  0  0  0  0
    3.4970  -20.4780  -43.9390 O   0  0  0  0  0  0  0  0  0  0  0  0
    5.5860  -21.4380  -43.1010 C   0  0  1  0  0  0  0  0  0  0  0  0
    5.2190  -21.4900  -41.6630 C   0  0  0  0  0  0  0  0  0  0  0  0
    5.6870  -20.6650  -40.7990 C   0  0  0  0  0  0  0  0  0  0  0  0
    6.6190  -19.6040  -41.1480 N   0  0  0  0  0  0  0  0  0  0  0  0
    6.9770  -19.5430  -42.5130 C   0  0  0  0  0  0  0  0  0  0  0  0
    6.5130  -20.3710  -43.4080 C   0  0  0  0  0  0  0  0  0  0  0  0
    6.9720  -20.1850  -44.7800 C   0  0  0  0  0  0  0  0  0  0  0  0
    7.3280  -20.0170  -45.8690 N   0  0  0  0  0  0  0  0  0  0  0  0
    7.9060  -18.5020  -42.9220 N   0  0  0  0  0  0  0  0  0  0  0  0
    5.1160  -20.9980  -39.4570 C   0  0  0  0  0  0  0  0  0  0  0  0
    4.2910  -22.0830  -39.6700 O   0  0  0  0  0  0  0  0  0  0  0  0
    4.2920  -22.4510  -40.9810 C   0  0  0  0  0  0  0  0  0  0  0  0
    3.6700  -23.3880  -41.5670 O   0  0  0  0  0  0  0  0  0  0  0  0
    4.3940  -19.7920  -38.8870 C   0  0  0  0  0  0  0  0  0  0  0  0
    6.2130  -21.4210  -38.4970 C   0  0  0  0  0  0  0  0  0  0  0  0
    3.2820  -22.8730  -45.7280 C   0  0  0  0  0  0  0  0  0  0  0  0
    8.0400  -22.7860  -42.2660 H   0  0  0  0  0  0  0  0  0  0  0  0
    5.3270  -25.0020  -45.7200 H   0  0  0  0  0  0  0  0  0  0  0  0
    7.4240  -26.0370  -44.9270 H   0  0  0  0  0  0  0  0  0  0  0  0
    6.9660  -18.9660  -40.4110 H   0  0  0  0  0  0  0  0  0  0  0  0
    7.8320  -18.1640  -43.9030 H   0  0  0  0  0  0  0  0  0  0  0  0
    8.6060  -18.1190  -42.2710 H   0  0  0  0  0  0  0  0  0  0  0  0
    3.2870  -19.8620  -39.0300 H   0  0  0  0  0  0  0  0  0  0  0  0
    4.6640  -19.6900  -37.8200 H   0  0  0  0  0  0  0  0  0  0  0  0
    4.7710  -18.9070  -39.4220 H   0  0  0  0  0  0  0  0  0  0  0  0
    6.4010  -22.5060  -38.6170 H   0  0  0  0  0  0  0  0  0  0  0  0
    5.9270  -21.1950  -37.4540 H   0  0  0  0  0  0  0  0  0  0  0  0
    7.1590  -20.8810  -38.6990 H   0  0  0  0  0  0  0  0  0  0  0  0
    3.3350  -22.1150  -46.5560 H   0  0  0  0  0  0  0  0  0  0  0  0
    3.4910  -23.8590  -46.1980 H   0  0  0  0  0  0  0  0  0  0  0  0
    2.2910  -22.8690  -45.2740 H   0  0  0  0  0  0  0  0  0  0  0  0
  2  3  1  0  0  0  0
  2  1  1  0  0  0  0
  3 27  1  0  0  0  0
  4 11  1  0  0  0  0
  4  3  2  0  0  0  0
  5  4  1  0  0  0  0
  6  7  1  0  0  0  0
  6  5  2  0  0  0  0
  7  2  2  0  0  0  0
  8  5  1  0  0  0  0
  8  9  1  0  0  0  0
  9 10  2  0  0  0  0
 11  9  1  6  0  0  0
 11 12  1  0  0  0  0
 12 22  1  0  0  0  0
 12 13  2  0  0  0  0
 13 20  1  0  0  0  0
 14 13  1  0  0  0  0
 14 30  1  0  0  0  0
 15 14  1  0  0  0  0
 16 11  1  0  0  0  0
 16 15  2  0  0  0  0
 17 16  1  0  0  0  0
 18 17  3  0  0  0  0
 19 15  1  0  0  0  0
 19 32  1  0  0  0  0
 20 24  1  0  0  0  0
 20 25  1  0  0  0  0
 21 20  1  0  0  0  0
 22 21  1  0  0  0  0
 23 22  2  0  0  0  0
 24 34  1  0  0  0  0
 25 37  1  0  0  0  0
 26 41  1  0  0  0  0
 26  8  1  0  0  0  0
 28  6  1  0  0  0  0
 29  7  1  0  0  0  0
 31 19  1  0  0  0  0
 33 24  1  0  0  0  0
 35 24  1  0  0  0  0
 36 25  1  0  0  0  0
 38 25  1  0  0  0  0
 39 26  1  0  0  0  0
 40 26  1  0  0  0  0
M  END
>  <Pose>
1

>  <Score>
-4.07

$$$$
