
 OpenBabel03232221553D

 39 42  0  0  1  0  0  0  0  0999 V2000
    6.4850  -20.2490  -38.5240 B   0  0  0  0  0  0  0  0  0  0  0  0
    5.7090  -20.1320  -40.2580 C   0  0  0  0  0  0  0  0  0  0  0  0
    5.4130  -21.2830  -40.9550 C   0  0  0  0  0  0  0  0  0  0  0  0
    4.8430  -21.2240  -42.2300 C   0  0  0  0  0  0  0  0  0  0  0  0
    4.5930  -19.9960  -42.7530 C   0  0  0  0  0  0  0  0  0  0  0  0
    4.8980  -18.8190  -42.0390 C   0  0  0  0  0  0  0  0  0  0  0  0
    5.4580  -18.8860  -40.7840 C   0  0  0  0  0  0  0  0  0  0  0  0
    4.0190  -20.1530  -44.0450 N   0  0  0  0  0  0  0  0  0  0  0  0
    3.9010  -21.5220  -44.3490 C   0  0  0  0  0  0  0  0  0  0  0  0
    3.4400  -22.0380  -45.3970 O   0  0  0  0  0  0  0  0  0  0  0  0
    4.4300  -22.2950  -43.1860 C   0  0  1  0  0  0  0  0  0  0  0  0
    5.5760  -23.1210  -43.5830 C   0  0  0  0  0  0  0  0  0  0  0  0
    5.6010  -24.4590  -43.3590 C   0  0  0  0  0  0  0  0  0  0  0  0
    4.5180  -25.0890  -42.7370 O   0  0  0  0  0  0  0  0  0  0  0  0
    3.4160  -24.3570  -42.3450 C   0  0  0  0  0  0  0  0  0  0  0  0
    3.3660  -23.0750  -42.5480 C   0  0  0  0  0  0  0  0  0  0  0  0
    2.1540  -22.3760  -42.0980 C   0  0  0  0  0  0  0  0  0  0  0  0
    1.2180  -21.8320  -41.7420 N   0  0  0  0  0  0  0  0  0  0  0  0
    2.3420  -25.0730  -41.7120 N   0  0  0  0  0  0  0  0  0  0  0  0
    6.7140  -25.2060  -43.7530 C   0  0  0  0  0  0  0  0  0  0  0  0
    6.7250  -26.4360  -43.5420 O   0  0  0  0  0  0  0  0  0  0  0  0
    7.7710  -24.5720  -44.3640 C   0  0  0  0  0  0  0  0  0  0  0  0
    7.6900  -23.2100  -44.5650 C   0  0  0  0  0  0  0  0  0  0  0  0
    6.6370  -22.5730  -44.1800 O   0  0  0  0  0  0  0  0  0  0  0  0
    8.8410  -22.4900  -45.2360 C   0  0  0  0  0  0  0  0  0  0  0  0
    9.8430  -22.2560  -44.2940 O   0  0  0  0  0  0  0  0  0  0  0  0
    3.6250  -19.0130  -44.8940 C   0  0  0  0  0  0  0  0  0  0  0  0
    5.5980  -22.2790  -40.5690 H   0  0  0  0  0  0  0  0  0  0  0  0
    4.6940  -17.8380  -42.4670 H   0  0  0  0  0  0  0  0  0  0  0  0
    5.6930  -17.9730  -40.2310 H   0  0  0  0  0  0  0  0  0  0  0  0
    1.6650  -25.5560  -42.2990 H   0  0  0  0  0  0  0  0  0  0  0  0
    2.2930  -25.0720  -40.6940 H   0  0  0  0  0  0  0  0  0  0  0  0
    8.6600  -25.0880  -44.6930 H   0  0  0  0  0  0  0  0  0  0  0  0
    9.2430  -23.0680  -46.0680 H   0  0  0  0  0  0  0  0  0  0  0  0
    8.5000  -21.4700  -45.5690 H   0  0  0  0  0  0  0  0  0  0  0  0
    9.5030  -22.5130  -43.3840 H   0  0  0  0  0  0  0  0  0  0  0  0
    3.5420  -18.0940  -44.2840 H   0  0  0  0  0  0  0  0  0  0  0  0
    4.4060  -18.8780  -45.6610 H   0  0  0  0  0  0  0  0  0  0  0  0
    2.6150  -19.2160  -45.3330 H   0  0  0  0  0  0  0  0  0  0  0  0
  2  1  1  0  0  0  0
  3 28  1  0  0  0  0
  3  2  2  0  0  0  0
  4  3  1  0  0  0  0
  5  4  2  0  0  0  0
  5  6  1  0  0  0  0
  6  7  2  0  0  0  0
  7  2  1  0  0  0  0
  7 30  1  0  0  0  0
  8  5  1  0  0  0  0
  9  8  1  0  0  0  0
 10  9  2  0  0  0  0
 11  9  1  6  0  0  0
 11 16  1  0  0  0  0
 11  4  1  0  0  0  0
 12 13  2  0  0  0  0
 12 11  1  0  0  0  0
 13 14  1  0  0  0  0
 14 15  1  0  0  0  0
 15 19  1  0  0  0  0
 16 15  2  0  0  0  0
 16 17  1  0  0  0  0
 17 18  3  0  0  0  0
 19 32  1  0  0  0  0
 20 21  2  0  0  0  0
 20 13  1  0  0  0  0
 22 20  1  0  0  0  0
 23 22  2  0  0  0  0
 23 24  1  0  0  0  0
 24 12  1  0  0  0  0
 25 23  1  0  0  0  0
 25 26  1  0  0  0  0
 26 36  1  0  0  0  0
 27 37  1  0  0  0  0
 27  8  1  0  0  0  0
 29  6  1  0  0  0  0
 31 19  1  0  0  0  0
 33 22  1  0  0  0  0
 34 25  1  0  0  0  0
 35 25  1  0  0  0  0
 38 27  1  0  0  0  0
 39 27  1  0  0  0  0
M  END
>  <Pose>
1

>  <Score>
-3.66

$$$$
