
 OpenBabel03232221553D

 49 52  0  0  1  0  0  0  0  0999 V2000
    8.1050  -24.4920  -43.5130 B   0  0  0  0  0  0  0  0  0  0  0  0
    7.1160  -22.8610  -43.5480 C   0  0  0  0  0  0  0  0  0  0  0  0
    6.6850  -22.2760  -42.3840 C   0  0  0  0  0  0  0  0  0  0  0  0
    5.9550  -21.0740  -42.3980 C   0  0  0  0  0  0  0  0  0  0  0  0
    5.6500  -20.4450  -43.5730 C   0  0  0  0  0  0  0  0  0  0  0  0
    6.0910  -21.0430  -44.7630 C   0  0  0  0  0  0  0  0  0  0  0  0
    6.8030  -22.2190  -44.7260 C   0  0  0  0  0  0  0  0  0  0  0  0
    4.9110  -19.2550  -43.3360 N   0  0  0  0  0  0  0  0  0  0  0  0
    4.7470  -19.1340  -41.9370 C   0  0  0  0  0  0  0  0  0  0  0  0
    4.1190  -18.1560  -41.4110 O   0  0  0  0  0  0  0  0  0  0  0  0
    5.3910  -20.2660  -41.2940 C   0  0  2  0  0  0  0  0  0  0  0  0
    6.4030  -19.8860  -40.3280 N   0  0  0  0  0  0  0  0  0  0  0  0
    5.7060  -19.7500  -39.0620 C   0  0  1  0  0  0  0  0  0  0  0  0
    4.7740  -20.9270  -39.0900 C   0  0  2  0  0  0  0  0  0  0  0  0
    4.3600  -21.0570  -40.5170 C   0  0  1  0  0  0  0  0  0  0  0  0
    3.0110  -20.4760  -40.5960 C   0  0  0  0  0  0  0  0  0  0  0  0
    2.3610  -20.1070  -41.6290 O   0  0  0  0  0  0  0  0  0  0  0  0
    2.4650  -20.3610  -39.2880 N   0  0  0  0  0  0  0  0  0  0  0  0
    3.5040  -20.6640  -38.3790 C   0  0  0  0  0  0  0  0  0  0  0  0
    3.4050  -20.7170  -37.1160 O   0  0  0  0  0  0  0  0  0  0  0  0
    1.1040  -20.0010  -38.9430 C   0  0  0  0  0  0  0  0  0  0  0  0
    1.0420  -18.8850  -37.9510 C   0  0  0  0  0  0  0  0  0  0  0  0
   -0.4360  -18.4990  -37.8120 C   0  0  0  0  0  0  0  0  0  0  0  0
   -1.2690  -19.7120  -37.5010 C   0  0  0  0  0  0  0  0  0  0  0  0
    6.6990  -19.8050  -37.9440 C   0  0  2  0  0  0  0  0  0  0  0  0
    7.0760  -18.4900  -37.6420 O   0  0  0  0  0  0  0  0  0  0  0  0
    7.9430  -20.5330  -38.3890 C   0  0  0  0  0  0  0  0  0  0  0  0
    6.8970  -22.7300  -41.4080 H   0  0  0  0  0  0  0  0  0  0  0  0
    5.8490  -20.5440  -45.7030 H   0  0  0  0  0  0  0  0  0  0  0  0
    7.1500  -22.6910  -45.6410 H   0  0  0  0  0  0  0  0  0  0  0  0
    4.5750  -18.6180  -44.1020 H   0  0  0  0  0  0  0  0  0  0  0  0
    6.9180  -19.0290  -40.6010 H   0  0  0  0  0  0  0  0  0  0  0  0
    5.0920  -18.8360  -39.0140 H   0  0  0  0  0  0  0  0  0  0  0  0
    5.2540  -21.8620  -38.7350 H   0  0  0  0  0  0  0  0  0  0  0  0
    4.3580  -22.1340  -40.8170 H   0  0  0  0  0  0  0  0  0  0  0  0
    0.5080  -19.7080  -39.8270 H   0  0  0  0  0  0  0  0  0  0  0  0
    0.6070  -20.8980  -38.5060 H   0  0  0  0  0  0  0  0  0  0  0  0
    1.5380  -17.9720  -38.3680 H   0  0  0  0  0  0  0  0  0  0  0  0
    1.4980  -19.0880  -36.9850 H   0  0  0  0  0  0  0  0  0  0  0  0
   -0.4710  -17.8090  -36.9280 H   0  0  0  0  0  0  0  0  0  0  0  0
   -0.7860  -17.9380  -38.6910 H   0  0  0  0  0  0  0  0  0  0  0  0
   -0.8890  -20.6360  -37.9620 H   0  0  0  0  0  0  0  0  0  0  0  0
   -1.3000  -19.8980  -36.3940 H   0  0  0  0  0  0  0  0  0  0  0  0
   -2.3170  -19.5040  -37.7940 H   0  0  0  0  0  0  0  0  0  0  0  0
    6.2610  -20.3150  -37.0610 H   0  0  0  0  0  0  0  0  0  0  0  0
    7.8980  -18.2360  -38.1350 H   0  0  0  0  0  0  0  0  0  0  0  0
    7.7890  -21.6250  -38.2830 H   0  0  0  0  0  0  0  0  0  0  0  0
    8.1590  -20.2340  -39.4220 H   0  0  0  0  0  0  0  0  0  0  0  0
    8.7580  -20.2540  -37.6710 H   0  0  0  0  0  0  0  0  0  0  0  0
  2  1  1  0  0  0  0
  2  3  1  0  0  0  0
  3 28  1  0  0  0  0
  4  3  2  0  0  0  0
  5  8  1  0  0  0  0
  5  4  1  0  0  0  0
  6  7  1  0  0  0  0
  6  5  2  0  0  0  0
  7  2  2  0  0  0  0
  8  9  1  0  0  0  0
  9 10  2  0  0  0  0
  9 11  1  0  0  0  0
 11  4  1  6  0  0  0
 11 15  1  0  0  0  0
 11 12  1  0  0  0  0
 12 13  1  0  0  0  0
 13 33  1  1  0  0  0
 13 25  1  0  0  0  0
 14 13  1  0  0  0  0
 14 34  1  1  0  0  0
 14 19  1  0  0  0  0
 15 35  1  6  0  0  0
 15 14  1  0  0  0  0
 16 15  1  0  0  0  0
 16 18  1  0  0  0  0
 17 16  2  0  0  0  0
 18 21  1  0  0  0  0
 18 19  1  0  0  0  0
 19 20  2  0  0  0  0
 21 37  1  0  0  0  0
 21 22  1  0  0  0  0
 22 23  1  0  0  0  0
 22 39  1  0  0  0  0
 23 24  1  0  0  0  0
 23 40  1  0  0  0  0
 24 43  1  0  0  0  0
 25 26  1  0  0  0  0
 25 45  1  1  0  0  0
 27 47  1  0  0  0  0
 27 25  1  0  0  0  0
 27 49  1  0  0  0  0
 29  6  1  0  0  0  0
 30  7  1  0  0  0  0
 31  8  1  0  0  0  0
 32 12  1  0  0  0  0
 36 21  1  0  0  0  0
 38 22  1  0  0  0  0
 41 23  1  0  0  0  0
 42 24  1  0  0  0  0
 44 24  1  0  0  0  0
 46 26  1  0  0  0  0
 48 27  1  0  0  0  0
M  END
>  <Pose>
1

>  <Score>
-4.44

$$$$
