
 OpenBabel03232221553D

 47 50  0  0  1  0  0  0  0  0999 V2000
    0.9840  -16.6680  -39.4800 B   0  0  0  0  0  0  0  0  0  0  0  0
    2.2350  -18.0560  -39.0990 C   0  0  0  0  0  0  0  0  0  0  0  0
    3.1530  -18.5090  -40.0200 C   0  0  0  0  0  0  0  0  0  0  0  0
    4.0650  -19.5240  -39.7350 C   0  0  0  0  0  0  0  0  0  0  0  0
    4.0560  -20.1030  -38.4910 C   0  0  0  0  0  0  0  0  0  0  0  0
    3.1440  -19.6690  -37.5430 C   0  0  0  0  0  0  0  0  0  0  0  0
    2.2390  -18.6470  -37.8550 C   0  0  0  0  0  0  0  0  0  0  0  0
    5.0690  -21.1100  -38.4090 N   0  0  0  0  0  0  0  0  0  0  0  0
    5.7410  -21.1650  -39.6560 C   0  0  0  0  0  0  0  0  0  0  0  0
    6.6860  -21.9430  -39.8900 O   0  0  0  0  0  0  0  0  0  0  0  0
    5.1320  -20.1850  -40.5410 C   0  0  2  0  0  0  0  0  0  0  0  0
    6.1730  -19.2230  -40.9030 N   0  0  0  0  0  0  0  0  0  0  0  0
    5.9410  -18.9000  -42.2790 C   0  0  2  0  0  0  0  0  0  0  0  0
    5.4910  -20.1830  -42.8760 C   0  0  2  0  0  0  0  0  0  0  0  0
    4.5640  -20.7320  -41.8170 C   0  0  1  0  0  0  0  0  0  0  0  0
    4.6370  -22.1780  -41.9760 C   0  0  0  0  0  0  0  0  0  0  0  0
    3.8160  -23.0070  -41.5280 O   0  0  0  0  0  0  0  0  0  0  0  0
    5.8050  -22.4740  -42.7310 N   0  0  0  0  0  0  0  0  0  0  0  0
    6.5290  -21.2410  -42.9540 C   0  0  0  0  0  0  0  0  0  0  0  0
    7.7540  -21.2100  -43.1580 O   0  0  0  0  0  0  0  0  0  0  0  0
    6.1680  -23.7870  -43.1790 C   0  0  0  0  0  0  0  0  0  0  0  0
    5.2170  -24.4220  -44.1390 C   0  0  0  0  0  0  0  0  0  0  0  0
    4.9150  -25.7360  -43.8240 O   0  0  0  0  0  0  0  0  0  0  0  0
    5.3730  -26.6170  -44.8010 C   0  0  0  0  0  0  0  0  0  0  0  0
    7.1040  -18.2530  -42.9500 C   0  0  0  0  0  0  0  0  0  0  0  0
    6.8990  -16.8020  -43.0150 C   0  0  0  0  0  0  0  0  0  0  0  0
    5.7280  -16.3410  -43.1290 O   0  0  0  0  0  0  0  0  0  0  0  0
    8.0040  -15.9030  -42.9510 N   0  0  0  0  0  0  0  0  0  0  0  0
    3.1320  -18.0310  -40.9930 H   0  0  0  0  0  0  0  0  0  0  0  0
    3.1480  -20.1330  -36.5670 H   0  0  0  0  0  0  0  0  0  0  0  0
    1.5340  -18.3220  -37.1010 H   0  0  0  0  0  0  0  0  0  0  0  0
    5.2580  -21.6980  -37.5500 H   0  0  0  0  0  0  0  0  0  0  0  0
    7.1190  -19.6670  -40.8320 H   0  0  0  0  0  0  0  0  0  0  0  0
    5.0800  -18.1840  -42.3830 H   0  0  0  0  0  0  0  0  0  0  0  0
    4.9700  -20.0530  -43.8510 H   0  0  0  0  0  0  0  0  0  0  0  0
    3.5580  -20.3090  -42.0430 H   0  0  0  0  0  0  0  0  0  0  0  0
    6.2210  -24.4630  -42.2950 H   0  0  0  0  0  0  0  0  0  0  0  0
    7.1650  -23.7610  -43.6960 H   0  0  0  0  0  0  0  0  0  0  0  0
    5.5560  -24.3500  -45.1980 H   0  0  0  0  0  0  0  0  0  0  0  0
    4.2660  -23.8530  -44.0890 H   0  0  0  0  0  0  0  0  0  0  0  0
    5.0790  -27.6460  -44.4490 H   0  0  0  0  0  0  0  0  0  0  0  0
    4.8900  -26.4820  -45.7720 H   0  0  0  0  0  0  0  0  0  0  0  0
    6.4850  -26.6420  -44.8500 H   0  0  0  0  0  0  0  0  0  0  0  0
    8.0890  -18.5010  -42.5280 H   0  0  0  0  0  0  0  0  0  0  0  0
    7.1250  -18.6260  -44.0070 H   0  0  0  0  0  0  0  0  0  0  0  0
    8.4430  -15.6760  -42.0350 H   0  0  0  0  0  0  0  0  0  0  0  0
    8.3670  -15.4750  -43.8270 H   0  0  0  0  0  0  0  0  0  0  0  0
  1  2  1  0  0  0  0
  2  7  1  0  0  0  0
  3  4  1  0  0  0  0
  3  2  2  0  0  0  0
  4  5  2  0  0  0  0
  5  8  1  0  0  0  0
  5  6  1  0  0  0  0
  6 30  1  0  0  0  0
  7  6  2  0  0  0  0
  7 31  1  0  0  0  0
  8 32  1  0  0  0  0
  9  8  1  0  0  0  0
 10  9  2  0  0  0  0
 11  4  1  1  0  0  0
 11  9  1  0  0  0  0
 12 33  1  0  0  0  0
 12 11  1  0  0  0  0
 13 34  1  6  0  0  0
 13 12  1  0  0  0  0
 14 35  1  6  0  0  0
 14 13  1  0  0  0  0
 14 15  1  0  0  0  0
 15 36  1  6  0  0  0
 15 11  1  0  0  0  0
 16 15  1  0  0  0  0
 16 17  2  0  0  0  0
 18 16  1  0  0  0  0
 19 14  1  0  0  0  0
 19 18  1  0  0  0  0
 20 19  2  0  0  0  0
 21 18  1  0  0  0  0
 21 37  1  0  0  0  0
 22 40  1  0  0  0  0
 22 23  1  0  0  0  0
 22 21  1  0  0  0  0
 24 41  1  0  0  0  0
 24 23  1  0  0  0  0
 25 44  1  0  0  0  0
 25 13  1  0  0  0  0
 26 28  1  0  0  0  0
 26 25  1  0  0  0  0
 27 26  2  0  0  0  0
 28 46  1  0  0  0  0
 29  3  1  0  0  0  0
 38 21  1  0  0  0  0
 39 22  1  0  0  0  0
 42 24  1  0  0  0  0
 43 24  1  0  0  0  0
 45 25  1  0  0  0  0
 47 28  1  0  0  0  0
M  END
>  <Pose>
1

>  <Score>
-4.40

$$$$
