
 OpenBabel03232221553D

 37 40  0  0  0  0  0  0  0  0999 V2000
    5.6870  -21.9510  -42.2190 B   0  0  0  0  0  0  0  0  0  0  0  0
    5.0100  -20.9990  -40.6950 C   0  0  0  0  0  0  0  0  0  0  0  0
    4.1360  -19.9460  -40.8620 C   0  0  0  0  0  0  0  0  0  0  0  0
    3.6520  -19.2660  -39.7630 C   0  0  0  0  0  0  0  0  0  0  0  0
    4.0050  -19.5900  -38.4670 C   0  0  0  0  0  0  0  0  0  0  0  0
    4.8890  -20.6550  -38.3170 C   0  0  0  0  0  0  0  0  0  0  0  0
    5.3760  -21.3410  -39.4100 C   0  0  0  0  0  0  0  0  0  0  0  0
    3.6080  -19.0040  -37.2490 N   0  0  0  0  0  0  0  0  0  0  0  0
    4.2140  -19.2360  -36.0960 N   0  0  0  0  0  0  0  0  0  0  0  0
    3.5890  -18.5340  -35.1640 N   0  0  0  0  0  0  0  0  0  0  0  0
    2.6060  -17.8720  -35.7260 N   0  0  0  0  0  0  0  0  0  0  0  0
    2.5860  -18.1460  -37.0540 C   0  0  0  0  0  0  0  0  0  0  0  0
    1.5800  -17.5360  -37.9260 C   0  0  0  0  0  0  0  0  0  0  0  0
    1.9450  -17.3470  -39.2880 N   0  0  0  0  0  0  0  0  0  0  0  0
    2.7380  -18.1790  -40.1190 C   0  0  0  0  0  0  0  0  0  0  0  0
    2.6910  -18.0030  -41.3660 O   0  0  0  0  0  0  0  0  0  0  0  0
    0.2760  -18.3490  -37.9370 C   0  0  0  0  0  0  0  0  0  0  0  0
   -0.8850  -17.4000  -38.0920 C   0  0  0  0  0  0  0  0  0  0  0  0
   -1.1130  -16.7790  -36.8070 N   0  0  0  0  0  0  0  0  0  0  0  0
    0.1410  -16.3050  -36.2850 C   0  0  0  0  0  0  0  0  0  0  0  0
    1.2130  -16.1780  -37.3390 C   0  0  0  0  0  0  0  0  0  0  0  0
   -1.7180  -17.7830  -35.9330 C   0  0  0  0  0  0  0  0  0  0  0  0
    3.8070  -19.6250  -41.8440 H   0  0  0  0  0  0  0  0  0  0  0  0
    5.1690  -20.9140  -37.3060 H   0  0  0  0  0  0  0  0  0  0  0  0
    6.0590  -22.1620  -39.2640 H   0  0  0  0  0  0  0  0  0  0  0  0
    1.5780  -16.4800  -39.7310 H   0  0  0  0  0  0  0  0  0  0  0  0
    0.2530  -19.0220  -38.8370 H   0  0  0  0  0  0  0  0  0  0  0  0
    0.2240  -18.9880  -37.0590 H   0  0  0  0  0  0  0  0  0  0  0  0
   -0.6020  -16.6240  -38.8220 H   0  0  0  0  0  0  0  0  0  0  0  0
   -1.7690  -17.9160  -38.4690 H   0  0  0  0  0  0  0  0  0  0  0  0
    0.4350  -16.9390  -35.4450 H   0  0  0  0  0  0  0  0  0  0  0  0
   -0.0340  -15.2870  -35.8830 H   0  0  0  0  0  0  0  0  0  0  0  0
    0.9160  -15.4500  -38.0920 H   0  0  0  0  0  0  0  0  0  0  0  0
    2.1210  -15.7900  -36.8300 H   0  0  0  0  0  0  0  0  0  0  0  0
   -1.0020  -17.9500  -35.0970 H   0  0  0  0  0  0  0  0  0  0  0  0
   -2.7130  -17.4620  -35.5600 H   0  0  0  0  0  0  0  0  0  0  0  0
   -1.8850  -18.7450  -36.4760 H   0  0  0  0  0  0  0  0  0  0  0  0
  1  2  1  0  0  0  0
  2  7  1  0  0  0  0
  3  2  2  0  0  0  0
  3  4  1  0  0  0  0
  4  5  2  0  0  0  0
  5  6  1  0  0  0  0
  5  8  1  0  0  0  0
  6 24  1  0  0  0  0
  7 25  1  0  0  0  0
  7  6  2  0  0  0  0
  8 12  1  0  0  0  0
  8  9  1  0  0  0  0
  9 10  2  0  0  0  0
 11 10  1  0  0  0  0
 12 11  2  0  0  0  0
 13 21  1  0  0  0  0
 13 12  1  0  0  0  0
 14 13  1  0  0  0  0
 15  4  1  0  0  0  0
 15 14  1  0  0  0  0
 16 15  2  0  0  0  0
 17 13  1  0  0  0  0
 17 28  1  0  0  0  0
 18 17  1  0  0  0  0
 18 19  1  0  0  0  0
 19 20  1  0  0  0  0
 19 22  1  0  0  0  0
 20 32  1  0  0  0  0
 20 31  1  0  0  0  0
 21 34  1  0  0  0  0
 21 20  1  0  0  0  0
 22 36  1  0  0  0  0
 22 35  1  0  0  0  0
 23  3  1  0  0  0  0
 26 14  1  0  0  0  0
 27 17  1  0  0  0  0
 29 18  1  0  0  0  0
 30 18  1  0  0  0  0
 33 21  1  0  0  0  0
 37 22  1  0  0  0  0
M  END
>  <Pose>
1

>  <Score>
-3.86

$$$$
