
 OpenBabel03232221553D

 51 54  0  0  0  0  0  0  0  0999 V2000
    5.5510  -21.8550  -40.2560 B   0  0  0  0  0  0  0  0  0  0  0  0
    4.4950  -20.6540  -39.2150 C   0  0  0  0  0  0  0  0  0  0  0  0
    3.1530  -20.4400  -39.5190 C   0  0  0  0  0  0  0  0  0  0  0  0
    2.3840  -19.5680  -38.7620 C   0  0  0  0  0  0  0  0  0  0  0  0
    2.9470  -18.9010  -37.6950 C   0  0  0  0  0  0  0  0  0  0  0  0
    2.1950  -18.0510  -36.9510 N   0  0  0  0  0  0  0  0  0  0  0  0
    0.8960  -17.8310  -37.2230 C   0  0  0  0  0  0  0  0  0  0  0  0
    0.3670  -18.4870  -38.2620 N   0  0  0  0  0  0  0  0  0  0  0  0
    1.0520  -19.3430  -39.0430 C   0  0  0  0  0  0  0  0  0  0  0  0
    0.3810  -20.0060  -40.1490 C   0  0  0  0  0  0  0  0  0  0  0  0
   -0.7140  -20.8260  -39.9160 C   0  0  0  0  0  0  0  0  0  0  0  0
   -1.3840  -21.4610  -40.9400 C   0  0  0  0  0  0  0  0  0  0  0  0
   -0.9890  -21.3030  -42.2530 C   0  0  0  0  0  0  0  0  0  0  0  0
    0.1070  -20.4810  -42.4840 C   0  0  0  0  0  0  0  0  0  0  0  0
    0.7710  -19.8510  -41.4550 C   0  0  0  0  0  0  0  0  0  0  0  0
   -1.2420  -21.0480  -38.2460 Cl  0  0  0  0  0  0  0  0  0  0  0  0
    0.1340  -16.9270  -36.4130 N   0  0  0  0  0  4  0  0  0  0  0  0
   -0.9160  -16.3330  -37.1940 C   0  0  0  0  0  0  0  0  0  0  0  0
   -0.4580  -15.2770  -38.1420 C   0  0  0  0  0  0  0  0  0  0  0  0
    0.8940  -14.8390  -37.8730 N   0  0  0  0  0  0  0  0  0  0  0  0
    1.2830  -14.7450  -36.4830 C   0  0  0  0  0  0  0  0  0  0  0  0
    0.9410  -15.9800  -35.7090 C   0  0  0  0  0  0  0  0  0  0  0  0
    1.7400  -14.5340  -38.9660 C   0  0  0  0  0  0  0  0  0  0  0  0
    2.2880  -15.4430  -39.6280 O   0  0  0  0  0  0  0  0  0  0  0  0
    1.9350  -13.0880  -39.2750 C   0  0  0  0  0  0  0  0  0  0  0  0
    3.2870  -12.6100  -38.8420 C   0  0  0  0  0  0  0  0  0  0  0  0
    3.2700  -11.9080  -37.5490 C   0  0  0  0  0  0  0  0  0  0  0  0
    3.0900  -10.6750  -37.4780 O   0  0  0  0  0  0  0  0  0  0  0  0
    3.4550  -12.6280  -36.3870 O   0  0  0  0  0  0  0  0  0  0  0  0
    4.2870  -19.1300  -37.4120 C   0  0  0  0  0  0  0  0  0  0  0  0
    5.0690  -19.9920  -38.1500 C   0  0  0  0  0  0  0  0  0  0  0  0
    2.7130  -20.9570  -40.3390 H   0  0  0  0  0  0  0  0  0  0  0  0
   -2.2360  -22.1010  -40.7580 H   0  0  0  0  0  0  0  0  0  0  0  0
   -1.5110  -21.7980  -43.0650 H   0  0  0  0  0  0  0  0  0  0  0  0
    0.4330  -20.3440  -43.5040 H   0  0  0  0  0  0  0  0  0  0  0  0
    1.6070  -19.2250  -41.7070 H   0  0  0  0  0  0  0  0  0  0  0  0
   -0.3560  -17.5570  -35.7080 H   0  0  0  0  0  0  0  0  0  0  0  0
   -1.4440  -17.1410  -37.7330 H   0  0  0  0  0  0  0  0  0  0  0  0
   -1.6460  -15.8960  -36.4650 H   0  0  0  0  0  0  0  0  0  0  0  0
   -1.1060  -14.3630  -38.0220 H   0  0  0  0  0  0  0  0  0  0  0  0
   -0.5830  -15.6440  -39.1790 H   0  0  0  0  0  0  0  0  0  0  0  0
    2.3540  -14.4830  -36.3650 H   0  0  0  0  0  0  0  0  0  0  0  0
    0.6510  -13.9070  -36.0630 H   0  0  0  0  0  0  0  0  0  0  0  0
    0.3860  -15.7130  -34.7690 H   0  0  0  0  0  0  0  0  0  0  0  0
    1.8740  -16.5000  -35.3890 H   0  0  0  0  0  0  0  0  0  0  0  0
    1.8660  -12.9610  -40.3750 H   0  0  0  0  0  0  0  0  0  0  0  0
    1.1320  -12.4630  -38.8330 H   0  0  0  0  0  0  0  0  0  0  0  0
    3.6460  -11.8790  -39.6100 H   0  0  0  0  0  0  0  0  0  0  0  0
    4.0100  -13.4510  -38.8380 H   0  0  0  0  0  0  0  0  0  0  0  0
    4.7270  -18.6150  -36.5880 H   0  0  0  0  0  0  0  0  0  0  0  0
    6.1150  -20.1830  -37.9450 H   0  0  0  0  0  0  0  0  0  0  0  0
  1  2  1  0  0  0  0
  2 31  1  0  0  0  0
  3  2  2  0  0  0  0
  3  4  1  0  0  0  0
  4  5  2  0  0  0  0
  5 30  1  0  0  0  0
  5  6  1  0  0  0  0
  7  6  2  0  0  0  0
  7 17  1  0  0  0  0
  8  7  1  0  0  0  0
  9  4  1  0  0  0  0
  9  8  2  0  0  0  0
 10 11  1  0  0  0  0
 10  9  1  0  0  0  0
 11 16  1  0  0  0  0
 12 33  1  0  0  0  0
 12 11  2  0  0  0  0
 13 12  1  0  0  0  0
 14 13  2  0  0  0  0
 14 15  1  0  0  0  0
 15 10  2  0  0  0  0
 17 22  1  0  0  0  0
 17 37  1  0  0  0  0
 18 39  1  0  0  0  0
 18 17  1  0  0  0  0
 19 40  1  0  0  0  0
 19 20  1  0  0  0  0
 19 18  1  0  0  0  0
 20 21  1  0  0  0  0
 21 42  1  0  0  0  0
 21 43  1  0  0  0  0
 21 22  1  0  0  0  0
 22 45  1  0  0  0  0
 22 44  1  0  0  0  0
 23 20  1  0  0  0  0
 24 23  2  0  0  0  0
 25 23  1  0  0  0  0
 25 26  1  0  0  0  0
 25 47  1  0  0  0  0
 26 49  1  0  0  0  0
 26 27  1  0  0  0  0
 27 28  2  0  0  0  0
 27 29  1  0  0  0  0
 30 50  1  0  0  0  0
 31 51  1  0  0  0  0
 31 30  2  0  0  0  0
 32  3  1  0  0  0  0
 34 13  1  0  0  0  0
 35 14  1  0  0  0  0
 36 15  1  0  0  0  0
 38 18  1  0  0  0  0
 41 19  1  0  0  0  0
 46 25  1  0  0  0  0
 48 26  1  0  0  0  0
M  END
>  <Pose>
1

>  <Score>
-4.10

$$$$
