
 OpenBabel03232221553D

 37 40  0  0  0  0  0  0  0  0999 V2000
    5.5160  -18.3080  -43.9960 B   0  0  0  0  0  0  0  0  0  0  0  0
    4.9630  -18.9470  -42.2890 C   0  0  0  0  0  0  0  0  0  0  0  0
    5.5320  -20.1010  -41.7930 C   0  0  0  0  0  0  0  0  0  0  0  0
    5.1470  -20.5970  -40.5410 C   0  0  0  0  0  0  0  0  0  0  0  0
    4.2070  -19.9100  -39.8410 C   0  0  0  0  0  0  0  0  0  0  0  0
    3.6120  -18.7540  -40.2940 C   0  0  0  0  0  0  0  0  0  0  0  0
    4.0040  -18.2890  -41.5230 C   0  0  0  0  0  0  0  0  0  0  0  0
    2.6770  -18.1640  -39.4850 C   0  0  0  0  0  0  0  0  0  0  0  0
    2.1330  -17.1210  -39.8820 O   0  0  0  0  0  0  0  0  0  0  0  0
    2.3210  -18.6840  -38.2500 C   0  0  0  0  0  0  0  0  0  0  0  0
    2.9540  -19.8430  -37.8550 C   0  0  0  0  0  0  0  0  0  0  0  0
    3.8910  -20.4420  -38.6590 N   0  0  0  0  0  0  0  0  0  0  0  0
    4.6910  -21.6350  -38.4960 C   0  0  0  0  0  0  0  0  0  0  0  0
    5.5370  -21.7660  -39.7340 C   0  0  0  0  0  0  0  0  0  0  0  0
    1.3250  -18.0420  -37.3990 C   0  0  0  0  0  0  0  0  0  0  0  0
    1.7040  -17.2630  -36.4950 O   0  0  0  0  0  0  0  0  0  0  0  0
   -0.0740  -18.2950  -37.5880 N   0  0  0  0  0  0  0  0  0  0  0  0
   -1.0890  -17.3920  -37.0890 C   0  0  0  0  0  0  0  0  0  0  0  0
   -2.0360  -18.2480  -36.2370 C   0  0  0  0  0  0  0  0  0  0  0  0
   -2.4700  -19.3200  -36.9790 O   0  0  0  0  0  0  0  0  0  0  0  0
   -1.4730  -20.2050  -37.3320 C   0  0  0  0  0  0  0  0  0  0  0  0
   -0.5320  -19.4760  -38.2940 C   0  0  0  0  0  0  0  0  0  0  0  0
    6.2800  -20.6610  -42.3340 H   0  0  0  0  0  0  0  0  0  0  0  0
    3.5550  -17.3910  -41.8950 H   0  0  0  0  0  0  0  0  0  0  0  0
    2.7450  -20.3220  -36.9140 H   0  0  0  0  0  0  0  0  0  0  0  0
    4.0120  -22.5320  -38.4150 H   0  0  0  0  0  0  0  0  0  0  0  0
    5.3090  -21.5970  -37.5750 H   0  0  0  0  0  0  0  0  0  0  0  0
    6.6210  -21.7610  -39.4750 H   0  0  0  0  0  0  0  0  0  0  0  0
    5.2830  -22.7020  -40.3080 H   0  0  0  0  0  0  0  0  0  0  0  0
   -1.7240  -17.0620  -37.9610 H   0  0  0  0  0  0  0  0  0  0  0  0
   -0.6860  -16.5510  -36.5150 H   0  0  0  0  0  0  0  0  0  0  0  0
   -2.8990  -17.6660  -35.9000 H   0  0  0  0  0  0  0  0  0  0  0  0
   -1.5050  -18.6130  -35.3490 H   0  0  0  0  0  0  0  0  0  0  0  0
   -1.9410  -21.0230  -37.9160 H   0  0  0  0  0  0  0  0  0  0  0  0
   -0.8900  -20.5860  -36.4560 H   0  0  0  0  0  0  0  0  0  0  0  0
   -1.2090  -19.0980  -39.1140 H   0  0  0  0  0  0  0  0  0  0  0  0
    0.2690  -20.1150  -38.6580 H   0  0  0  0  0  0  0  0  0  0  0  0
  1  2  1  0  0  0  0
  2  3  2  0  0  0  0
  2  7  1  0  0  0  0
  3  4  1  0  0  0  0
  4  5  2  0  0  0  0
  4 14  1  0  0  0  0
  5 12  1  0  0  0  0
  6  5  1  0  0  0  0
  6  8  1  0  0  0  0
  7  6  2  0  0  0  0
  8 10  1  0  0  0  0
  9  8  2  0  0  0  0
 10 11  2  0  0  0  0
 10 15  1  0  0  0  0
 11 25  1  0  0  0  0
 12 13  1  0  0  0  0
 12 11  1  0  0  0  0
 13 26  1  0  0  0  0
 13 27  1  0  0  0  0
 14 28  1  0  0  0  0
 14 13  1  0  0  0  0
 15 16  2  0  0  0  0
 17 15  1  0  0  0  0
 17 18  1  0  0  0  0
 18 31  1  0  0  0  0
 18 19  1  0  0  0  0
 19 32  1  0  0  0  0
 19 33  1  0  0  0  0
 20 19  1  0  0  0  0
 21 20  1  0  0  0  0
 21 35  1  0  0  0  0
 22 17  1  0  0  0  0
 22 21  1  0  0  0  0
 23  3  1  0  0  0  0
 24  7  1  0  0  0  0
 29 14  1  0  0  0  0
 30 18  1  0  0  0  0
 34 21  1  0  0  0  0
 36 22  1  0  0  0  0
 37 22  1  0  0  0  0
M  END
>  <Pose>
1

>  <Score>
-3.31

$$$$
