
 OpenBabel03232221553D

 51 54  0  0  0  0  0  0  0  0999 V2000
    0.9340  -13.6530  -36.2420 B   0  0  0  0  0  0  0  0  0  0  0  0
    2.1550  -13.0540  -37.5940 C   0  0  0  0  0  0  0  0  0  0  0  0
    3.1860  -12.2160  -37.2350 C   0  0  0  0  0  0  0  0  0  0  0  0
    4.0750  -11.7600  -38.1770 C   0  0  0  0  0  0  0  0  0  0  0  0
    5.1580  -10.9610  -38.1770 N   0  0  0  0  0  0  0  0  0  0  0  0
    5.6630  -10.8550  -39.4210 C   0  0  0  0  0  0  0  0  0  0  0  0
    4.8610  -11.6100  -40.1920 N   0  0  0  0  0  0  0  0  0  0  0  0
    3.8790  -12.1790  -39.4630 C   0  0  0  0  0  0  0  0  0  0  0  0
    2.8310  -13.0330  -39.8340 C   0  0  0  0  0  0  0  0  0  0  0  0
    1.9390  -13.4920  -38.8910 C   0  0  0  0  0  0  0  0  0  0  0  0
    0.8570  -14.3620  -39.1500 N   0  0  0  0  0  0  0  0  0  0  0  0
    0.7400  -15.2920  -40.1910 C   0  0  0  0  0  0  0  0  0  0  0  0
    0.9070  -14.9310  -41.3840 O   0  0  0  0  0  0  0  0  0  0  0  0
    0.4250  -16.7110  -39.9890 C   0  0  0  0  0  0  0  0  0  0  0  0
    1.4590  -17.5680  -39.5640 N   0  0  0  0  0  0  0  0  0  0  0  0
    1.2740  -18.3010  -38.3650 C   0  0  0  0  0  0  0  0  0  0  0  0
    2.5960  -18.8040  -37.7850 C   0  0  0  0  0  0  0  0  0  0  0  0
    3.2620  -19.5240  -38.7840 N   0  0  0  0  0  0  0  0  0  0  0  0
    2.7230  -19.5330  -40.0880 C   0  0  0  0  0  0  0  0  0  0  0  0
    2.1760  -18.2340  -40.5980 C   0  0  0  0  0  0  0  0  0  0  0  0
    4.6150  -19.7800  -38.5780 C   0  0  0  0  0  0  0  0  0  0  0  0
    5.0950  -21.1570  -38.6990 C   0  0  0  0  0  0  0  0  0  0  0  0
    6.2180  -21.3990  -38.1070 O   0  0  0  0  0  0  0  0  0  0  0  0
    4.4960  -22.2210  -39.3640 N   0  0  0  0  0  0  0  0  0  0  0  0
    4.1380  -22.1820  -40.7780 C   0  0  0  0  0  0  0  0  0  0  0  0
    4.6980  -21.1570  -41.6730 C   0  0  0  0  0  0  0  0  0  0  0  0
    5.1970  -22.5850  -41.7810 C   0  0  0  0  0  0  0  0  0  0  0  0
    6.7910  -10.1070  -39.8120 O   0  0  0  0  0  0  0  0  0  0  0  0
    3.3290  -11.8930  -36.2140 H   0  0  0  0  0  0  0  0  0  0  0  0
    4.9750  -11.7490  -41.2350 H   0  0  0  0  0  0  0  0  0  0  0  0
    2.7400  -13.3160  -40.8560 H   0  0  0  0  0  0  0  0  0  0  0  0
    0.0290  -14.3360  -38.4800 H   0  0  0  0  0  0  0  0  0  0  0  0
   -0.3810  -16.7280  -39.1920 H   0  0  0  0  0  0  0  0  0  0  0  0
   -0.0570  -17.1730  -40.8860 H   0  0  0  0  0  0  0  0  0  0  0  0
    0.7450  -19.2640  -38.6710 H   0  0  0  0  0  0  0  0  0  0  0  0
    0.6230  -17.8270  -37.6450 H   0  0  0  0  0  0  0  0  0  0  0  0
    2.3020  -19.5140  -36.9660 H   0  0  0  0  0  0  0  0  0  0  0  0
    3.1640  -17.9600  -37.4190 H   0  0  0  0  0  0  0  0  0  0  0  0
    3.4200  -20.0110  -40.8180 H   0  0  0  0  0  0  0  0  0  0  0  0
    1.8390  -20.2430  -40.0690 H   0  0  0  0  0  0  0  0  0  0  0  0
    2.9560  -17.6010  -41.0770 H   0  0  0  0  0  0  0  0  0  0  0  0
    1.4480  -18.4810  -41.4120 H   0  0  0  0  0  0  0  0  0  0  0  0
    5.1960  -19.1130  -39.3110 H   0  0  0  0  0  0  0  0  0  0  0  0
    4.9640  -19.3210  -37.5830 H   0  0  0  0  0  0  0  0  0  0  0  0
    4.2870  -23.1060  -38.8590 H   0  0  0  0  0  0  0  0  0  0  0  0
    3.1320  -22.5700  -41.0320 H   0  0  0  0  0  0  0  0  0  0  0  0
    4.1100  -20.8090  -42.5590 H   0  0  0  0  0  0  0  0  0  0  0  0
    5.4470  -20.4290  -41.3650 H   0  0  0  0  0  0  0  0  0  0  0  0
    6.2320  -22.8010  -41.4380 H   0  0  0  0  0  0  0  0  0  0  0  0
    4.8980  -23.1920  -42.6700 H   0  0  0  0  0  0  0  0  0  0  0  0
    7.5530  -10.0750  -39.1230 H   0  0  0  0  0  0  0  0  0  0  0  0
  2  3  1  0  0  0  0
  2  1  1  0  0  0  0
  3 29  1  0  0  0  0
  4  3  2  0  0  0  0
  5  4  1  0  0  0  0
  6  5  2  0  0  0  0
  7  8  1  0  0  0  0
  7  6  1  0  0  0  0
  8  4  1  0  0  0  0
  9  8  2  0  0  0  0
  9 10  1  0  0  0  0
 10  2  2  0  0  0  0
 11 10  1  0  0  0  0
 11 32  1  0  0  0  0
 12 14  1  0  0  0  0
 12 11  1  0  0  0  0
 13 12  2  0  0  0  0
 14 15  1  0  0  0  0
 14 33  1  0  0  0  0
 15 16  1  0  0  0  0
 16 17  1  0  0  0  0
 16 36  1  0  0  0  0
 17 38  1  0  0  0  0
 17 37  1  0  0  0  0
 18 21  1  0  0  0  0
 18 17  1  0  0  0  0
 19 40  1  0  0  0  0
 19 18  1  0  0  0  0
 20 19  1  0  0  0  0
 20 15  1  0  0  0  0
 21 44  1  0  0  0  0
 22 21  1  0  0  0  0
 22 23  2  0  0  0  0
 24 45  1  0  0  0  0
 24 22  1  0  0  0  0
 25 24  1  0  0  0  0
 26 48  1  0  0  0  0
 26 25  1  0  0  0  0
 27 26  1  0  0  0  0
 27 49  1  0  0  0  0
 27 25  1  0  0  0  0
 28  6  1  0  0  0  0
 28 51  1  0  0  0  0
 30  7  1  0  0  0  0
 31  9  1  0  0  0  0
 34 14  1  0  0  0  0
 35 16  1  0  0  0  0
 39 19  1  0  0  0  0
 41 20  1  0  0  0  0
 42 20  1  0  0  0  0
 43 21  1  0  0  0  0
 46 25  1  0  0  0  0
 47 26  1  0  0  0  0
 50 27  1  0  0  0  0
M  END
>  <Pose>
1

>  <Score>
-5.27

$$$$
