
 OpenBabel03232221553D

 58 61  0  0  0  0  0  0  0  0999 V2000
    3.5010  -24.3920  -43.4720 B   0  0  0  0  0  0  0  0  0  0  0  0
    5.3830  -24.0260  -43.3140 C   0  0  0  0  0  0  0  0  0  0  0  0
    6.4160  -24.8190  -43.7340 C   0  0  0  0  0  0  0  0  0  0  0  0
    7.5510  -24.1820  -43.4280 N   0  0  0  0  0  0  0  0  0  0  0  0
    7.2600  -23.0490  -42.8460 N   0  0  0  0  0  0  0  0  0  0  0  0
    5.9120  -22.8690  -42.7330 C   0  0  0  0  0  0  0  0  0  0  0  0
    5.1880  -21.7630  -42.1590 C   0  0  0  0  0  0  0  0  0  0  0  0
    4.0670  -21.4830  -42.7190 O   0  0  0  0  0  0  0  0  0  0  0  0
    5.5730  -20.9950  -41.0920 N   0  0  0  0  0  0  0  0  0  0  0  0
    5.7120  -19.5720  -41.0910 C   0  0  0  0  0  0  0  0  0  0  0  0
    4.5980  -18.9810  -40.2910 C   0  0  0  0  0  0  0  0  0  0  0  0
    4.1170  -19.9080  -39.2770 N   0  0  0  0  0  0  0  0  0  0  0  0
    4.8930  -20.9920  -38.7740 C   0  0  0  0  0  0  0  0  0  0  0  0
    5.8740  -21.5940  -39.7750 C   0  0  0  0  0  0  0  0  0  0  0  0
    2.7600  -19.6640  -38.8750 C   0  0  0  0  0  0  0  0  0  0  0  0
    1.8840  -20.5730  -39.1950 O   0  0  0  0  0  0  0  0  0  0  0  0
    2.3150  -18.5190  -38.1620 C   0  0  0  0  0  0  0  0  0  0  0  0
    2.7250  -18.2240  -36.8680 N   0  0  0  0  0  0  0  0  0  0  0  0
    2.1180  -17.1630  -36.4470 N   0  0  0  0  0  0  0  0  0  0  0  0
    1.2920  -16.6800  -37.3700 C   0  0  0  0  0  0  0  0  0  0  0  0
    1.4210  -17.5530  -38.4680 C   0  0  0  0  0  0  0  0  0  0  0  0
    0.4400  -15.5050  -37.3260 C   0  0  0  0  0  0  0  0  0  0  0  0
   -0.7840  -15.6770  -37.6680 O   0  0  0  0  0  0  0  0  0  0  0  0
    0.8410  -14.2320  -36.9510 N   0  0  0  0  0  0  0  0  0  0  0  0
   -0.0730  -13.4360  -36.1260 C   0  0  0  0  0  0  0  0  0  0  0  0
   -0.2420  -12.1180  -36.8510 C   0  0  0  0  0  0  0  0  0  0  0  0
    1.0200  -11.4980  -36.7930 O   0  0  0  0  0  0  0  0  0  0  0  0
    1.8940  -12.1390  -37.6260 C   0  0  0  0  0  0  0  0  0  0  0  0
    2.0770  -13.6210  -37.3280 C   0  0  0  0  0  0  0  0  0  0  0  0
    3.6870  -18.9790  -36.1010 C   0  0  0  0  0  0  0  0  0  0  0  0
    8.8580  -24.7510  -43.7300 C   0  0  0  0  0  0  0  0  0  0  0  0
    9.3060  -25.7650  -42.7120 C   0  0  0  0  0  0  0  0  0  0  0  0
    6.3090  -25.7860  -44.2230 H   0  0  0  0  0  0  0  0  0  0  0  0
    6.6630  -19.3150  -40.5290 H   0  0  0  0  0  0  0  0  0  0  0  0
    5.7160  -19.0860  -42.0800 H   0  0  0  0  0  0  0  0  0  0  0  0
    3.7090  -18.7370  -40.9390 H   0  0  0  0  0  0  0  0  0  0  0  0
    4.9900  -18.0480  -39.8180 H   0  0  0  0  0  0  0  0  0  0  0  0
    4.1460  -21.8470  -38.6500 H   0  0  0  0  0  0  0  0  0  0  0  0
    5.3880  -20.8480  -37.8180 H   0  0  0  0  0  0  0  0  0  0  0  0
    5.8550  -22.6740  -39.8350 H   0  0  0  0  0  0  0  0  0  0  0  0
    6.8760  -21.2380  -39.5000 H   0  0  0  0  0  0  0  0  0  0  0  0
    0.8430  -17.4270  -39.3590 H   0  0  0  0  0  0  0  0  0  0  0  0
    0.4480  -13.2970  -35.1550 H   0  0  0  0  0  0  0  0  0  0  0  0
   -1.0430  -13.9180  -35.9840 H   0  0  0  0  0  0  0  0  0  0  0  0
   -0.4870  -12.3160  -37.9040 H   0  0  0  0  0  0  0  0  0  0  0  0
   -0.9930  -11.4830  -36.3300 H   0  0  0  0  0  0  0  0  0  0  0  0
    1.5300  -12.0520  -38.6730 H   0  0  0  0  0  0  0  0  0  0  0  0
    2.8710  -11.6260  -37.6000 H   0  0  0  0  0  0  0  0  0  0  0  0
    2.4410  -14.0750  -38.2690 H   0  0  0  0  0  0  0  0  0  0  0  0
    2.8160  -13.7290  -36.5230 H   0  0  0  0  0  0  0  0  0  0  0  0
    3.2710  -19.9070  -35.7050 H   0  0  0  0  0  0  0  0  0  0  0  0
    4.6060  -19.1660  -36.7040 H   0  0  0  0  0  0  0  0  0  0  0  0
    4.0210  -18.3690  -35.2400 H   0  0  0  0  0  0  0  0  0  0  0  0
    8.8640  -25.2240  -44.7390 H   0  0  0  0  0  0  0  0  0  0  0  0
    9.6270  -23.9440  -43.7680 H   0  0  0  0  0  0  0  0  0  0  0  0
    8.4440  -26.3770  -42.3660 H   0  0  0  0  0  0  0  0  0  0  0  0
   10.0120  -26.4610  -43.2150 H   0  0  0  0  0  0  0  0  0  0  0  0
    9.8490  -25.2600  -41.8920 H   0  0  0  0  0  0  0  0  0  0  0  0
  1  2  1  0  0  0  0
  2  6  1  0  0  0  0
  3  4  1  0  0  0  0
  3  2  2  0  0  0  0
  4  5  1  0  0  0  0
  5  6  2  0  0  0  0
  6  7  1  0  0  0  0
  7  9  1  0  0  0  0
  8  7  2  0  0  0  0
  9 10  1  0  0  0  0
  9 14  1  0  0  0  0
 10 34  1  0  0  0  0
 10 11  1  0  0  0  0
 11 37  1  0  0  0  0
 11 12  1  0  0  0  0
 12 15  1  0  0  0  0
 12 13  1  0  0  0  0
 13 38  1  0  0  0  0
 13 39  1  0  0  0  0
 14 41  1  0  0  0  0
 14 13  1  0  0  0  0
 15 17  1  0  0  0  0
 16 15  2  0  0  0  0
 17 18  1  0  0  0  0
 18 19  1  0  0  0  0
 18 30  1  0  0  0  0
 20 22  1  0  0  0  0
 20 19  2  0  0  0  0
 21 17  2  0  0  0  0
 21 20  1  0  0  0  0
 22 24  1  0  0  0  0
 23 22  2  0  0  0  0
 24 25  1  0  0  0  0
 25 44  1  0  0  0  0
 25 43  1  0  0  0  0
 26 27  1  0  0  0  0
 26 46  1  0  0  0  0
 26 25  1  0  0  0  0
 28 48  1  0  0  0  0
 28 29  1  0  0  0  0
 28 27  1  0  0  0  0
 29 24  1  0  0  0  0
 29 50  1  0  0  0  0
 30 51  1  0  0  0  0
 30 53  1  0  0  0  0
 31  4  1  0  0  0  0
 31 32  1  0  0  0  0
 32 56  1  0  0  0  0
 32 58  1  0  0  0  0
 33  3  1  0  0  0  0
 35 10  1  0  0  0  0
 36 11  1  0  0  0  0
 40 14  1  0  0  0  0
 42 21  1  0  0  0  0
 45 26  1  0  0  0  0
 47 28  1  0  0  0  0
 49 29  1  0  0  0  0
 52 30  1  0  0  0  0
 54 31  1  0  0  0  0
 55 31  1  0  0  0  0
 57 32  1  0  0  0  0
M  END
>  <Pose>
1

>  <Score>
-5.07

$$$$
