
 OpenBabel03232221553D

 47 50  0  0  0  0  0  0  0  0999 V2000
   12.9720  -22.1870  -43.8430 B   0  0  0  0  0  0  0  0  0  0  0  0
   11.7040  -20.7640  -43.7260 C   0  0  0  0  0  0  0  0  0  0  0  0
   10.5240  -20.6280  -44.4200 C   0  0  0  0  0  0  0  0  0  0  0  0
    9.9450  -19.4960  -44.0350 N   0  0  0  0  0  0  0  0  0  0  0  0
   10.7340  -18.9330  -43.1230 N   0  0  0  0  0  0  0  0  0  0  0  0
   11.8300  -19.6730  -42.8960 C   0  0  0  0  0  0  0  0  0  0  0  0
    8.6650  -18.9370  -44.5110 C   0  0  0  0  0  0  0  0  0  0  0  0
    8.0190  -18.2890  -43.3380 C   0  0  0  0  0  0  0  0  0  0  0  0
    8.1400  -17.0260  -43.2280 O   0  0  0  0  0  0  0  0  0  0  0  0
    7.3190  -19.0310  -42.4110 N   0  0  0  0  0  0  0  0  0  0  0  0
    6.0920  -19.7890  -42.5770 C   0  0  0  0  0  0  0  0  0  0  0  0
    5.1590  -19.6530  -41.4380 C   0  0  0  0  0  0  0  0  0  0  0  0
    5.3860  -20.2480  -40.2230 C   0  0  0  0  0  0  0  0  0  0  0  0
    4.5170  -20.0700  -39.1630 C   0  0  0  0  0  0  0  0  0  0  0  0
    3.3930  -19.2850  -39.2930 C   0  0  0  0  0  0  0  0  0  0  0  0
    3.1480  -18.6670  -40.5340 C   0  0  0  0  0  0  0  0  0  0  0  0
    4.0090  -18.8450  -41.5840 C   0  0  0  0  0  0  0  0  0  0  0  0
    3.7370  -18.2050  -42.8730 C   0  0  0  0  0  0  0  0  0  0  0  0
    2.8390  -17.0320  -42.8800 C   0  0  0  0  0  0  0  0  0  0  0  0
    1.7740  -17.0990  -41.8880 N   0  0  0  0  0  0  0  0  0  0  0  0
    1.9950  -17.7820  -40.6610 C   0  0  0  0  0  0  0  0  0  0  0  0
    1.1830  -17.6060  -39.7030 O   0  0  0  0  0  0  0  0  0  0  0  0
    0.5340  -16.4320  -42.2160 C   0  0  0  0  0  0  0  0  0  0  0  0
    2.5000  -19.0860  -38.2550 O   0  0  0  0  0  0  0  0  0  0  0  0
    2.9420  -18.6790  -36.9770 C   0  0  0  0  0  0  0  0  0  0  0  0
    5.0310  -20.7980  -38.1070 O   0  0  0  0  0  0  0  0  0  0  0  0
    6.1150  -21.5850  -38.5320 C   0  0  0  0  0  0  0  0  0  0  0  0
    6.4500  -21.0910  -39.8260 O   0  0  0  0  0  0  0  0  0  0  0  0
   10.1690  -21.3530  -45.1560 H   0  0  0  0  0  0  0  0  0  0  0  0
   12.6580  -19.5050  -42.2280 H   0  0  0  0  0  0  0  0  0  0  0  0
    8.0480  -19.7950  -44.8760 H   0  0  0  0  0  0  0  0  0  0  0  0
    8.8020  -18.2310  -45.3280 H   0  0  0  0  0  0  0  0  0  0  0  0
    7.7000  -19.0720  -41.4140 H   0  0  0  0  0  0  0  0  0  0  0  0
    6.4850  -20.8620  -42.5360 H   0  0  0  0  0  0  0  0  0  0  0  0
    5.6200  -19.6700  -43.5540 H   0  0  0  0  0  0  0  0  0  0  0  0
    3.4470  -18.9220  -43.6710 H   0  0  0  0  0  0  0  0  0  0  0  0
    4.7420  -17.8140  -43.2380 H   0  0  0  0  0  0  0  0  0  0  0  0
    3.4210  -16.0920  -42.6470 H   0  0  0  0  0  0  0  0  0  0  0  0
    2.4230  -16.9000  -43.9160 H   0  0  0  0  0  0  0  0  0  0  0  0
    0.7670  -15.5140  -42.8060 H   0  0  0  0  0  0  0  0  0  0  0  0
   -0.0500  -17.1140  -42.8610 H   0  0  0  0  0  0  0  0  0  0  0  0
   -0.0830  -16.2010  -41.3280 H   0  0  0  0  0  0  0  0  0  0  0  0
    3.9620  -19.1320  -36.8300 H   0  0  0  0  0  0  0  0  0  0  0  0
    2.2870  -19.0520  -36.1650 H   0  0  0  0  0  0  0  0  0  0  0  0
    3.0120  -17.5610  -36.8930 H   0  0  0  0  0  0  0  0  0  0  0  0
    5.8550  -22.6610  -38.6500 H   0  0  0  0  0  0  0  0  0  0  0  0
    7.0140  -21.4150  -37.8980 H   0  0  0  0  0  0  0  0  0  0  0  0
  1  2  1  0  0  0  0
  2  6  1  0  0  0  0
  3  4  1  0  0  0  0
  3  2  2  0  0  0  0
  4  5  1  0  0  0  0
  5  6  2  0  0  0  0
  6 30  1  0  0  0  0
  7  4  1  0  0  0  0
  7  8  1  0  0  0  0
  8  9  2  0  0  0  0
  8 10  1  0  0  0  0
 10 33  1  0  0  0  0
 11 34  1  0  0  0  0
 11 10  1  0  0  0  0
 11 12  1  0  0  0  0
 12 13  1  0  0  0  0
 13 28  1  0  0  0  0
 13 14  2  0  0  0  0
 14 26  1  0  0  0  0
 15 14  1  0  0  0  0
 15 24  1  0  0  0  0
 16 15  2  0  0  0  0
 17 12  2  0  0  0  0
 17 16  1  0  0  0  0
 18 17  1  0  0  0  0
 19 18  1  0  0  0  0
 19 38  1  0  0  0  0
 19 20  1  0  0  0  0
 20 21  1  0  0  0  0
 21 16  1  0  0  0  0
 21 22  2  0  0  0  0
 23 20  1  0  0  0  0
 23 42  1  0  0  0  0
 24 25  1  0  0  0  0
 25 45  1  0  0  0  0
 25 43  1  0  0  0  0
 25 44  1  0  0  0  0
 27 26  1  0  0  0  0
 27 47  1  0  0  0  0
 28 27  1  0  0  0  0
 29  3  1  0  0  0  0
 31  7  1  0  0  0  0
 32  7  1  0  0  0  0
 35 11  1  0  0  0  0
 36 18  1  0  0  0  0
 37 18  1  0  0  0  0
 39 19  1  0  0  0  0
 40 23  1  0  0  0  0
 41 23  1  0  0  0  0
 46 27  1  0  0  0  0
M  END
>  <Pose>
1

>  <Score>
-4.24

$$$$
