
 OpenBabel03232221553D

 33 37  0  0  0  0  0  0  0  0999 V2000
   10.8840  -26.3880  -42.0670 B   0  0  0  0  0  0  0  0  0  0  0  0
    9.7600  -26.2710  -43.5840 C   0  0  0  0  0  0  0  0  0  0  0  0
    8.5980  -25.5340  -43.6950 C   0  0  0  0  0  0  0  0  0  0  0  0
    8.1000  -25.7190  -44.9290 N   0  0  0  0  0  0  0  0  0  0  0  0
    8.9020  -26.5390  -45.5840 N   0  0  0  0  0  0  0  0  0  0  0  0
    9.9380  -26.9030  -44.7950 C   0  0  0  0  0  0  0  0  0  0  0  0
    6.8900  -25.1270  -45.4600 C   0  0  0  0  0  0  0  0  0  0  0  0
    5.9400  -24.8000  -44.3940 N   0  0  0  0  0  0  0  0  0  0  0  0
    6.0070  -23.7380  -43.6100 N   0  0  0  0  0  0  0  0  0  0  0  0
    4.9910  -23.7200  -42.7310 C   0  0  0  0  0  0  0  0  0  0  0  0
    4.2530  -24.8540  -43.0000 C   0  0  0  0  0  0  0  0  0  0  0  0
    4.8640  -25.5290  -44.0520 C   0  0  0  0  0  0  0  0  0  0  0  0
    4.7040  -22.7230  -41.7010 C   0  0  0  0  0  0  0  0  0  0  0  0
    3.5010  -22.2030  -41.4100 N   0  0  0  0  0  0  0  0  0  0  0  0
    3.6090  -21.3220  -40.4160 N   0  0  0  0  0  0  0  0  0  0  0  0
    4.9230  -21.2740  -40.0550 C   0  0  0  0  0  0  0  0  0  0  0  0
    5.5710  -22.1410  -40.8570 N   0  0  0  0  0  0  0  0  0  0  0  0
    5.2910  -20.4230  -39.0340 C   0  0  0  0  0  0  0  0  0  0  0  0
    4.3820  -19.6220  -38.3660 C   0  0  0  0  0  0  0  0  0  0  0  0
    5.0290  -18.9080  -37.4290 N   0  0  0  0  0  0  0  0  0  0  0  0
    6.3080  -19.2430  -37.4980 N   0  0  0  0  0  0  0  0  0  0  0  0
    6.5090  -20.1630  -38.4630 C   0  0  0  0  0  0  0  0  0  0  0  0
    3.1000  -19.7040  -38.7560 N   0  0  0  0  0  0  0  0  0  0  0  0
    2.7460  -20.5330  -39.7510 C   0  0  0  0  0  0  0  0  0  0  0  0
    8.1960  -24.9310  -42.9100 H   0  0  0  0  0  0  0  0  0  0  0  0
   10.7520  -27.5560  -45.0380 H   0  0  0  0  0  0  0  0  0  0  0  0
    6.3760  -25.8010  -46.1830 H   0  0  0  0  0  0  0  0  0  0  0  0
    7.1270  -24.1940  -46.0480 H   0  0  0  0  0  0  0  0  0  0  0  0
    3.3610  -25.1440  -42.4700 H   0  0  0  0  0  0  0  0  0  0  0  0
    4.5560  -26.4530  -44.5210 H   0  0  0  0  0  0  0  0  0  0  0  0
    4.6270  -18.2160  -36.7620 H   0  0  0  0  0  0  0  0  0  0  0  0
    7.4470  -20.6370  -38.7650 H   0  0  0  0  0  0  0  0  0  0  0  0
    1.7040  -20.5700  -40.0350 H   0  0  0  0  0  0  0  0  0  0  0  0
  2  1  1  0  0  0  0
  3  2  2  0  0  0  0
  3 25  1  0  0  0  0
  4  3  1  0  0  0  0
  5  4  1  0  0  0  0
  5  6  2  0  0  0  0
  6  2  1  0  0  0  0
  7  4  1  0  0  0  0
  7  8  1  0  0  0  0
  8 12  1  0  0  0  0
  8  9  1  0  0  0  0
  9 10  2  0  0  0  0
 10 13  1  0  0  0  0
 11 10  1  0  0  0  0
 11 29  1  0  0  0  0
 12 11  2  0  0  0  0
 13 14  2  0  0  0  0
 13 17  1  0  0  0  0
 14 15  1  0  0  0  0
 15 16  1  0  0  0  0
 15 24  1  0  0  0  0
 16 18  1  0  0  0  0
 17 16  2  0  0  0  0
 18 22  1  0  0  0  0
 18 19  2  0  0  0  0
 19 20  1  0  0  0  0
 20 31  1  0  0  0  0
 21 20  1  0  0  0  0
 22 21  2  0  0  0  0
 23 19  1  0  0  0  0
 24 23  2  0  0  0  0
 26  6  1  0  0  0  0
 27  7  1  0  0  0  0
 28  7  1  0  0  0  0
 30 12  1  0  0  0  0
 32 22  1  0  0  0  0
 33 24  1  0  0  0  0
M  END
>  <Pose>
1

>  <Score>
-4.73

$$$$
