
 OpenBabel03232221553D

 38 41  0  0  0  0  0  0  0  0999 V2000
   -0.0960  -13.5450  -36.4960 B   0  0  0  0  0  0  0  0  0  0  0  0
    0.8690  -15.1610  -36.8390 C   0  0  0  0  0  0  0  0  0  0  0  0
    1.2870  -15.9590  -35.7980 C   0  0  0  0  0  0  0  0  0  0  0  0
    1.9540  -17.0750  -36.0580 N   0  0  0  0  0  0  0  0  0  0  0  0
    2.2720  -17.5170  -37.2940 C   0  0  0  0  0  0  0  0  0  0  0  0
    1.8560  -16.7200  -38.3220 N   0  0  0  0  0  0  0  0  0  0  0  0
    1.1750  -15.5780  -38.1160 C   0  0  0  0  0  0  0  0  0  0  0  0
    2.9790  -18.6990  -37.5440 N   0  0  0  0  0  0  0  0  0  0  0  0
    3.0010  -19.6920  -38.5780 C   0  0  0  0  0  0  0  0  0  0  0  0
    4.4910  -19.7660  -38.3120 C   0  0  0  0  0  0  0  0  0  0  0  0
    4.0010  -19.4730  -36.8980 C   0  0  0  0  0  0  0  0  0  0  0  0
    5.1200  -21.1110  -38.4980 C   0  0  0  0  0  0  0  0  0  0  0  0
    5.1000  -21.4200  -39.9030 N   0  0  0  0  0  0  0  0  0  0  0  0
    4.2940  -22.4500  -40.3870 N   0  0  0  0  0  0  0  0  0  0  0  0
    4.2400  -22.7910  -41.7650 C   0  0  0  0  0  0  0  0  0  0  0  0
    3.4600  -23.7750  -42.1700 C   0  0  0  0  0  0  0  0  0  0  0  0
    2.4840  -24.8720  -42.0180 C   0  0  0  0  0  0  0  0  0  0  0  0
    2.9710  -24.5800  -43.3570 C   0  0  0  0  0  0  0  0  0  0  0  0
    5.0400  -22.0630  -42.7310 C   0  0  0  0  0  0  0  0  0  0  0  0
    5.8130  -21.0820  -42.2940 C   0  0  0  0  0  0  0  0  0  0  0  0
    5.8750  -20.7180  -40.8640 C   0  0  0  0  0  0  0  0  0  0  0  0
    6.6190  -19.7800  -40.4740 O   0  0  0  0  0  0  0  0  0  0  0  0
    1.0380  -15.6180  -34.7980 H   0  0  0  0  0  0  0  0  0  0  0  0
    0.8390  -14.9390  -38.9230 H   0  0  0  0  0  0  0  0  0  0  0  0
    2.5510  -20.6830  -38.2860 H   0  0  0  0  0  0  0  0  0  0  0  0
    2.7250  -19.3580  -39.5920 H   0  0  0  0  0  0  0  0  0  0  0  0
    5.0070  -18.9120  -38.7620 H   0  0  0  0  0  0  0  0  0  0  0  0
    3.6530  -20.4060  -36.4060 H   0  0  0  0  0  0  0  0  0  0  0  0
    4.7130  -18.9160  -36.2660 H   0  0  0  0  0  0  0  0  0  0  0  0
    4.5500  -21.8840  -37.9350 H   0  0  0  0  0  0  0  0  0  0  0  0
    6.1540  -21.1390  -38.1550 H   0  0  0  0  0  0  0  0  0  0  0  0
    3.7120  -22.9780  -39.6740 H   0  0  0  0  0  0  0  0  0  0  0  0
    2.8300  -25.8270  -41.5530 H   0  0  0  0  0  0  0  0  0  0  0  0
    1.4320  -24.6470  -41.7790 H   0  0  0  0  0  0  0  0  0  0  0  0
    3.7190  -25.2740  -43.8180 H   0  0  0  0  0  0  0  0  0  0  0  0
    2.3570  -24.0000  -44.0840 H   0  0  0  0  0  0  0  0  0  0  0  0
    5.0110  -22.3150  -43.8090 H   0  0  0  0  0  0  0  0  0  0  0  0
    6.4020  -20.5490  -43.0250 H   0  0  0  0  0  0  0  0  0  0  0  0
  2  1  1  0  0  0  0
  2  3  2  0  0  0  0
  3 23  1  0  0  0  0
  4  3  1  0  0  0  0
  5  4  2  0  0  0  0
  6  7  2  0  0  0  0
  6  5  1  0  0  0  0
  7  2  1  0  0  0  0
  8  5  1  0  0  0  0
  8 11  1  0  0  0  0
  9 10  1  0  0  0  0
  9 25  1  0  0  0  0
  9  8  1  0  0  0  0
 10 11  1  0  0  0  0
 11 28  1  0  0  0  0
 11 29  1  0  0  0  0
 12 10  1  0  0  0  0
 12 31  1  0  0  0  0
 12 30  1  0  0  0  0
 13 12  1  0  0  0  0
 14 13  1  0  0  0  0
 14 32  1  0  0  0  0
 15 14  1  0  0  0  0
 16 17  1  0  0  0  0
 16 15  2  0  0  0  0
 17 34  1  0  0  0  0
 17 33  1  0  0  0  0
 18 16  1  0  0  0  0
 18 17  1  0  0  0  0
 19 20  2  0  0  0  0
 19 15  1  0  0  0  0
 20 21  1  0  0  0  0
 21 22  2  0  0  0  0
 21 13  1  0  0  0  0
 24  7  1  0  0  0  0
 26  9  1  0  0  0  0
 27 10  1  0  0  0  0
 35 18  1  0  0  0  0
 36 18  1  0  0  0  0
 37 19  1  0  0  0  0
 38 20  1  0  0  0  0
M  END
>  <Pose>
1

>  <Score>
-4.61

$$$$
