
 OpenBabel03232221553D

 40 43  0  0  1  0  0  0  0  0999 V2000
    0.0950  -12.3270  -36.2630 B   0  0  0  0  0  0  0  0  0  0  0  0
    0.0300  -14.2150  -36.5000 C   0  0  0  0  0  0  0  0  0  0  0  0
   -1.1000  -14.7860  -37.0350 C   0  0  0  0  0  0  0  0  0  0  0  0
   -1.1620  -16.1300  -37.2120 N   0  0  0  0  0  0  0  0  0  0  0  0
   -0.1380  -16.9200  -36.8720 C   0  0  0  0  0  0  0  0  0  0  0  0
    1.0510  -16.4250  -36.3200 C   0  0  0  0  0  0  0  0  0  0  0  0
    1.0760  -15.0580  -36.1580 C   0  0  0  0  0  0  0  0  0  0  0  0
    2.1310  -17.3220  -35.9860 C   0  0  0  0  0  0  0  0  0  0  0  0
    2.4920  -17.3100  -34.7520 O   0  0  0  0  0  0  0  0  0  0  0  0
    2.8180  -18.1950  -36.8510 N   0  0  0  0  0  0  0  0  0  0  0  0
    3.6390  -18.1460  -38.0200 C   0  0  0  0  0  0  0  0  0  0  0  0
    4.2770  -19.4630  -37.5420 C   0  0  0  0  0  0  0  0  0  0  0  0
    2.9510  -19.6650  -36.9120 C   0  0  0  0  0  0  0  0  0  0  0  0
    4.6270  -20.3180  -38.6420 N   0  0  0  0  0  0  0  0  0  0  0  0
    5.9090  -20.8950  -38.9530 C   0  0  0  0  0  0  0  0  0  0  0  0
    6.8090  -21.1160  -38.1230 O   0  0  0  0  0  0  0  0  0  0  0  0
    5.8880  -21.1480  -40.4350 C   0  0  1  0  0  0  0  0  0  0  0  0
    4.4630  -21.6210  -40.6020 C   0  0  2  0  0  0  0  0  0  0  0  0
    4.0020  -21.4730  -42.0250 C   0  0  0  0  0  0  0  0  0  0  0  0
    4.0980  -20.0460  -42.4350 C   0  0  0  0  0  0  0  0  0  0  0  0
    5.1180  -19.3460  -41.9840 C   0  0  0  0  0  0  0  0  0  0  0  0
    6.1830  -19.8490  -41.1040 C   0  0  0  0  0  0  0  0  0  0  0  0
    3.7300  -20.7590  -39.6540 C   0  0  0  0  0  0  0  0  0  0  0  0
    2.5080  -20.4910  -39.7720 O   0  0  0  0  0  0  0  0  0  0  0  0
   -1.9250  -14.1390  -37.3080 H   0  0  0  0  0  0  0  0  0  0  0  0
   -0.2330  -17.9810  -37.0300 H   0  0  0  0  0  0  0  0  0  0  0  0
    1.9390  -14.5910  -35.7550 H   0  0  0  0  0  0  0  0  0  0  0  0
    4.4650  -17.4050  -38.0550 H   0  0  0  0  0  0  0  0  0  0  0  0
    3.0890  -18.2550  -38.9900 H   0  0  0  0  0  0  0  0  0  0  0  0
    5.0610  -19.2700  -36.8020 H   0  0  0  0  0  0  0  0  0  0  0  0
    2.1420  -20.0420  -37.5690 H   0  0  0  0  0  0  0  0  0  0  0  0
    2.9240  -20.1310  -35.9120 H   0  0  0  0  0  0  0  0  0  0  0  0
    6.6130  -21.9400  -40.7080 H   0  0  0  0  0  0  0  0  0  0  0  0
    4.4200  -22.6950  -40.3320 H   0  0  0  0  0  0  0  0  0  0  0  0
    2.9860  -21.8790  -42.1110 H   0  0  0  0  0  0  0  0  0  0  0  0
    4.7090  -22.0580  -42.6550 H   0  0  0  0  0  0  0  0  0  0  0  0
    3.3220  -19.6410  -43.0900 H   0  0  0  0  0  0  0  0  0  0  0  0
    5.1810  -18.2950  -42.2910 H   0  0  0  0  0  0  0  0  0  0  0  0
    6.4140  -19.0270  -40.3660 H   0  0  0  0  0  0  0  0  0  0  0  0
    7.1050  -19.9320  -41.7170 H   0  0  0  0  0  0  0  0  0  0  0  0
  2  1  1  0  0  0  0
  2  7  1  0  0  0  0
  3  2  2  0  0  0  0
  4  3  1  0  0  0  0
  4  5  2  0  0  0  0
  5  6  1  0  0  0  0
  6  7  2  0  0  0  0
  6  8  1  0  0  0  0
  7 27  1  0  0  0  0
  8  9  2  0  0  0  0
 10  8  1  0  0  0  0
 11 12  1  0  0  0  0
 11 10  1  0  0  0  0
 12 13  1  0  0  0  0
 12 30  1  0  0  0  0
 13 10  1  0  0  0  0
 13 32  1  0  0  0  0
 14 12  1  0  0  0  0
 15 14  1  0  0  0  0
 15 16  2  0  0  0  0
 17 33  1  6  0  0  0
 17 15  1  0  0  0  0
 18 17  1  0  0  0  0
 18 34  1  1  0  0  0
 18 23  1  0  0  0  0
 19 18  1  0  0  0  0
 20 19  1  0  0  0  0
 20 21  2  0  0  0  0
 21 22  1  0  0  0  0
 22 17  1  0  0  0  0
 22 39  1  0  0  0  0
 23 14  1  0  0  0  0
 24 23  2  0  0  0  0
 25  3  1  0  0  0  0
 26  5  1  0  0  0  0
 28 11  1  0  0  0  0
 29 11  1  0  0  0  0
 31 13  1  0  0  0  0
 35 19  1  0  0  0  0
 36 19  1  0  0  0  0
 37 20  1  0  0  0  0
 38 21  1  0  0  0  0
 40 22  1  0  0  0  0
M  END
>  <Pose>
1

>  <Score>
-3.84

$$$$
